data_POSCAR
  _audit_creation_date              2014-09-24
  _audit_creation_method            'ToBaCCo'
  _symmetry_space_group_name_H-M    'P1'
  _symmetry_Int_Tables_number       1
  _symmetry_cell_setting            triclinic
  loop_
  _symmetry_equiv_pos_as_xyz
 x,y,z
_cell_length_a 41.0966
_cell_length_b 43.3568
_cell_length_c 41.5757
_cell_angle_alpha 90.369700
_cell_angle_beta 89.418900
_cell_angle_gamma 90.153900
loop_
  _atom_site_label
  _atom_site_type_symbol
  _atom_site_fract_x
  _atom_site_fract_y
  _atom_site_fract_z
C1 C 0.34737 0.34649 0.31103
 C2 C 0.32649 0.37005 0.30059
 C3 C 0.30572 0.38523 0.32244
 C4 C 0.30656 0.37753 0.35492
 C5 C 0.32714 0.35436 0.36586
 C6 C 0.34727 0.33850 0.34389
 H7 H 0.32582 0.37609 0.27537
 H8 H 0.29052 0.38932 0.37180
 H9 H 0.36281 0.32029 0.35252
 C10 C 0.39501 0.86864 -0.17287
 C11 C 0.38844 0.84844 -0.14709
 C12 C 0.36040 0.85168 -0.12811
 C13 C 0.33983 0.87673 -0.13344
 C14 C 0.34532 0.89700 -0.15924
 C15 C 0.37290 0.89259 -0.17909
 H16 H 0.40408 0.82903 -0.14249
 H17 H 0.31853 0.87965 -0.11825
 H18 H 0.37743 0.90795 -0.19908
 C19 C 0.87567 0.31983 -0.15720
 C20 C 0.85380 0.31355 -0.13180
 C21 C 0.82952 0.33481 -0.12320
 C22 C 0.82706 0.36245 -0.14046
 C23 C 0.84859 0.36943 -0.16583
 C24 C 0.87333 0.34813 -0.17358
 H25 H 0.85544 0.29195 -0.11903
 H26 H 0.80825 0.37872 -0.13376
 H27 H 0.88994 0.35310 -0.19322
 C28 C 0.85195 0.83363 0.32383
 C29 C 0.84745 0.81384 0.34997
 C30 C 0.81948 0.81569 0.36944
 C31 C 0.79574 0.83802 0.36263
 C32 C 0.79966 0.85802 0.33623
 C33 C 0.82808 0.85555 0.31711
 H34 H 0.86591 0.79698 0.35539
 H35 H 0.77399 0.83943 0.37745
 H36 H 0.83199 0.87056 0.29679
 C37 C 0.62508 0.67640 0.30679
 C38 C 0.63234 0.69231 0.33542
 C39 C 0.65275 0.67892 0.35870
 C40 C 0.66525 0.64908 0.35315
 C41 C 0.65691 0.63283 0.32515
 C42 C 0.63749 0.64678 0.30207
 H43 H 0.62247 0.71517 0.33934
 H44 H 0.68015 0.63797 0.37098
 H45 H 0.63133 0.63397 0.28047
 C46 C 0.66269 0.15129 -0.18382
 C47 C 0.68670 0.13117 -0.19587
 C48 C 0.71435 0.12400 -0.17781
 C49 C 0.71728 0.13689 -0.14694
 C50 C 0.69331 0.15660 -0.13418
 C51 C 0.66629 0.16431 -0.15288
 H52 H 0.68391 0.12159 -0.21975
 H53 H 0.73809 0.13121 -0.13231
 H54 H 0.64772 0.17929 -0.14284
 C55 C 0.12446 0.64612 -0.15922
 C56 C 0.13567 0.61564 -0.16091
 C57 C 0.16831 0.60829 -0.15422
 C58 C 0.18916 0.63182 -0.14293
 C59 C 0.17735 0.66205 -0.13888
 C60 C 0.14532 0.66904 -0.14759
 H61 H 0.11948 0.59796 -0.17007
 H62 H 0.21427 0.62679 -0.13733
 H63 H 0.13690 0.69261 -0.14560
 C64 C 0.12486 0.17512 0.34440
 C65 C 0.14017 0.14667 0.33812
 C66 C 0.17007 0.13973 0.35292
 C67 C 0.18445 0.16189 0.37334
 C68 C 0.16935 0.19031 0.37949
 C69 C 0.13964 0.19660 0.36485
 H70 H 0.12827 0.12981 0.32291
 H71 H 0.20723 0.15675 0.38491
 H72 H 0.12738 0.21825 0.36984
 C73 C 0.66426 0.32565 0.66950
 C74 C 0.68548 0.34931 0.67942
 C75 C 0.70662 0.36380 0.65764
 C76 C 0.70695 0.35421 0.62561
 C77 C 0.68639 0.33055 0.61494
 C78 C 0.66506 0.31594 0.63694
 H79 H 0.68525 0.35675 0.70429
 H80 H 0.72316 0.36550 0.60862
 H81 H 0.64887 0.29792 0.62859
 C82 C 0.57638 0.85990 1.15537
 C83 C 0.59737 0.84481 1.13313
 C84 C 0.62693 0.85905 1.12392
 C85 C 0.63693 0.88610 1.13995
 C86 C 0.61677 0.90062 1.16270
 C87 C 0.58559 0.88878 1.16788
 H88 H 0.59023 0.82316 1.12211
 H89 H 0.66053 0.89598 1.13436
 H90 H 0.56971 0.90058 1.18486
 C91 C 0.12967 0.33732 1.17238
 C92 C 0.14034 0.31524 1.14963
 C93 C 0.16631 0.32146 1.12853
 C94 C 0.18163 0.35034 1.12985
 C95 C 0.17143 0.37287 1.15211
 C96 C 0.14542 0.36620 1.17328
 H97 H 0.12890 0.29281 1.14837
 H98 H 0.20156 0.35538 1.11350
 H99 H 0.13748 0.38340 1.19058
 C100 C 0.13916 0.82170 0.70151
 C101 C 0.15737 0.84912 0.70443
 C102 C 0.18357 0.85533 0.68338
 C103 C 0.19184 0.83345 0.65951
 C104 C 0.17422 0.80578 0.65651
 C105 C 0.14787 0.80035 0.67736
 H106 H 0.15088 0.86578 0.72286
 H107 H 0.21214 0.83793 0.64344
 H108 H 0.13453 0.77898 0.67487
 C109 C 0.37847 0.68310 0.70906
 C110 C 0.36947 0.68838 0.67693
 C111 C 0.35085 0.66612 0.66030
 C112 C 0.34154 0.63870 0.67608
 C113 C 0.35050 0.63337 0.70797
 C114 C 0.36871 0.65575 0.72415
 H115 H 0.37706 0.70937 0.66498
 H116 H 0.32758 0.62134 0.66336
 H117 H 0.37583 0.65161 0.74878
 C118 C 0.34954 0.14114 1.18526
 C119 C 0.34840 0.15218 1.15362
 C120 C 0.32308 0.14403 1.13293
 C121 C 0.29869 0.12377 1.14365
 C122 C 0.30019 0.11099 1.17466
 C123 C 0.32557 0.11996 1.19533
 H124 H 0.36670 0.16811 1.14497
 H125 H 0.27912 0.11740 1.12763
 H126 H 0.32620 0.11107 1.21958
 C127 C 0.86069 0.68537 1.16378
 C128 C 0.83697 0.69259 1.14093
 C129 C 0.80879 0.67439 1.13734
 C130 C 0.80497 0.64778 1.15619
 C131 C 0.82862 0.63969 1.17881
 C132 C 0.85619 0.65874 1.18254
 H133 H 0.84024 0.71294 1.12637
 H134 H 0.78345 0.63362 1.15341
 H135 H 0.87426 0.65254 1.20006
 C136 C 0.88707 0.18381 0.62769
 C137 C 0.87318 0.15573 0.63857
 C138 C 0.84877 0.14076 0.62008
 C139 C 0.83896 0.15425 0.59094
 C140 C 0.85313 0.18139 0.57991
 C141 C 0.87732 0.19547 0.59784
 H142 H 0.88044 0.14631 0.66143
 H143 H 0.82014 0.14372 0.57645
 H144 H 0.88767 0.21673 0.58870
 C145 C 0.35687 0.37466 0.66848
 C146 C 0.35133 0.35697 0.64057
 C147 C 0.37042 0.33097 0.63342
 C148 C 0.39567 0.32312 0.65406
 C149 C 0.40152 0.34022 0.68220
 C150 C 0.38190 0.36599 0.68936
 H151 H 0.33195 0.36336 0.62451
 H152 H 0.41014 0.30300 0.64841
 H153 H 0.38631 0.37938 0.71096
 C154 C 0.28771 0.86477 0.17737
 C155 C 0.30895 0.84861 0.19732
 C156 C 0.32964 0.82556 0.18452
 C157 C 0.32883 0.81895 0.15131
 C158 C 0.30817 0.83566 0.13125
 C159 C 0.28768 0.85824 0.14445
 H160 H 0.30910 0.85381 0.22284
 H161 H 0.34450 0.80141 0.14092
 H162 H 0.27152 0.87086 0.12886
 C163 C 0.83509 0.37423 0.17885
 C164 C 0.86199 0.35464 0.18207
 C165 C 0.86639 0.32912 0.16159
 C166 C 0.84347 0.32335 0.13739
 C167 C 0.81607 0.34249 0.13387
 C168 C 0.81225 0.36798 0.15466
 H169 H 0.87966 0.35944 0.20057
 H170 H 0.84686 0.30359 0.12173
 H171 H 0.79124 0.38269 0.15213
 C172 C 0.84204 0.86399 0.64463
 C173 C 0.83125 0.84069 0.62358
 C174 C 0.84373 0.81051 0.62532
 C175 C 0.86759 0.80398 0.64842
 C176 C 0.87834 0.82701 0.66985
 C177 C 0.86564 0.85684 0.66751
 H178 H 0.81289 0.84612 0.60606
 H179 H 0.87696 0.78077 0.65035
 H180 H 0.87400 0.87438 0.68408
 C181 C 0.66275 0.61187 0.67630
 C182 C 0.67098 0.62666 0.64715
 C183 C 0.65683 0.65540 0.63991
 C184 C 0.63578 0.66931 0.66245
 C185 C 0.62813 0.65512 0.69166
 C186 C 0.64155 0.62632 0.69828
 H187 H 0.68687 0.61534 0.62984
 H188 H 0.62555 0.69163 0.65718
 H189 H 0.63530 0.61483 0.72060
 C190 C 0.67293 0.13240 0.17838
 C191 C 0.64568 0.13907 0.19808
 C192 C 0.62332 0.16195 0.18941
 C193 C 0.62859 0.17821 0.16078
 C194 C 0.65582 0.17228 0.14109
 C195 C 0.67803 0.14952 0.15009
 H196 H 0.64152 0.12629 0.21999
 H197 H 0.61172 0.19599 0.15385
 H198 H 0.69874 0.14456 0.13462
 C199 C 0.17107 0.64548 0.14250
 C200 C 0.14549 0.65280 0.16368
 C201 C 0.12607 0.67887 0.15893
 C202 C 0.13223 0.69772 0.13210
 C203 C 0.15777 0.69065 0.11042
 C204 C 0.17700 0.66445 0.11591
 H205 H 0.14105 0.63858 0.18453
 H206 H 0.11738 0.71790 0.12816
 H207 H 0.19665 0.65862 0.09951
 C208 C 0.16729 0.12569 0.65699
 C209 C 0.19085 0.13470 0.63435
 C210 C 0.18902 0.16358 0.61944
 C211 C 0.16345 0.18367 0.62788
 C212 C 0.13979 0.17510 0.65079
 C213 C 0.14167 0.14582 0.66485
 H214 H 0.21051 0.11909 0.62818
 H215 H 0.16193 0.20610 0.61679
 H216 H 0.12368 0.13883 0.68253
 C217 C 0.31726 0.62071 0.33802
 C218 C 0.34613 0.62408 0.32008
 C219 C 0.37023 0.64495 0.32957
 C220 C 0.36602 0.66178 0.35818
 C221 C 0.33762 0.65845 0.37695
 C222 C 0.31323 0.63783 0.36666
 H223 H 0.34931 0.61172 0.29762
 H224 H 0.38470 0.67791 0.36559
 H225 H 0.29086 0.63557 0.38039
 C226 C 0.32883 0.13673 0.82552
 C227 C 0.32549 0.15464 0.85357
 C228 C 0.34909 0.17655 0.86217
 C229 C 0.37657 0.18043 0.84234
 C230 C 0.38054 0.16294 0.81398
 C231 C 0.35652 0.14099 0.80578
 H232 H 0.30428 0.15136 0.86874
 H233 H 0.39463 0.19742 0.84897
 H234 H 0.35927 0.12753 0.78391
 C235 C 0.80628 0.63102 0.85040
 C236 C 0.83225 0.63954 0.83016
 C237 C 0.85122 0.66555 0.83647
 C238 C 0.84412 0.68352 0.86373
 C239 C 0.81790 0.67586 0.88427
 C240 C 0.79886 0.64959 0.87741
 H241 H 0.83836 0.62570 0.80933
 H242 H 0.85868 0.70378 0.86879
 H243 H 0.77896 0.64329 0.89335
 C244 C 0.84091 0.09911 0.32947
 C245 C 0.86768 0.11343 0.31514
 C246 C 0.87129 0.14561 0.31598
 C247 C 0.84871 0.16361 0.33368
 C248 C 0.82201 0.14912 0.34900
 C249 C 0.81873 0.11695 0.34705
 H250 H 0.88451 0.09955 0.30103
 H251 H 0.85057 0.18853 0.33370
 H252 H 0.79794 0.10580 0.35827
 C253 C 0.64903 0.37713 0.32306
 C254 C 0.62457 0.37018 0.30057
 C255 C 0.60478 0.34379 0.30486
 C256 C 0.61064 0.32409 0.33089
 C257 C 0.63535 0.33030 0.35262
 C258 C 0.65398 0.35707 0.34892
 H259 H 0.62044 0.38546 0.28052
 H260 H 0.59688 0.30299 0.33373
 H261 H 0.67284 0.36219 0.36614
 C262 C 0.71967 0.88816 0.82018
 C263 C 0.69440 0.87643 0.80130
 C264 C 0.67173 0.85520 0.81404
 C265 C 0.67473 0.84574 0.84633
 C266 C 0.69970 0.85797 0.86554
 C267 C 0.72200 0.87888 0.85215
 H268 H 0.69257 0.88366 0.77651
 H269 H 0.65750 0.82962 0.85672
 H270 H 0.74139 0.88814 0.86686
 C271 C 0.17312 0.35740 0.82443
 C272 C 0.19114 0.35263 0.85251
 C273 C 0.18463 0.32736 0.87254
 C274 C 0.15952 0.30683 0.86448
 C275 C 0.14090 0.31136 0.83685
 C276 C 0.14785 0.33674 0.81693
 H277 H 0.21054 0.36840 0.85878
 H278 H 0.15414 0.28744 0.87992
 H279 H 0.13404 0.34022 0.79526
 C280 C 0.16514 0.85706 0.36817
 C281 C 0.13628 0.84905 0.35186
 C282 C 0.11909 0.82224 0.36029
 C283 C 0.13122 0.80318 0.38439
 C284 C 0.16022 0.81009 0.40043
 C285 C 0.17706 0.83720 0.39224
 H286 H 0.12648 0.86403 0.33366
 H287 H 0.11767 0.78256 0.39067
 H288 H 0.19923 0.84297 0.40478
 O289 O 0.25700 0.96063 0.25788
 O290 O 0.23689 1.02492 0.31303
 O291 O 0.23639 0.96452 0.31683
 O292 O 0.26000 1.02069 0.25516
 O293 O 0.20972 1.02132 0.23690
 O294 O 0.18609 0.96379 0.29869
 O295 O 0.18653 1.02570 0.29510
 O296 O 0.20673 0.96177 0.23963
 Cu297 Cu 0.25247 0.99265 0.28769
 Cu298 Cu 0.19202 0.99320 0.26616
 C299 C 0.23513 0.95034 0.23922
 C300 C 0.20871 1.03692 0.31274
 C301 C 0.20769 0.95373 0.31768
 C302 C 0.23904 1.03074 0.23563
 O303 O 0.30048 0.45996 0.75033
 O304 O 0.25391 0.50988 0.80748
 O305 O 0.25047 0.45281 0.78855
 O306 O 0.30477 0.51774 0.76985
 O307 O 0.27255 0.53249 0.73070
 O308 O 0.21854 0.46605 0.74855
 O309 O 0.22153 0.52275 0.76767
 O310 O 0.26861 0.47516 0.71109
 Cu311 Cu 0.28088 0.48385 0.78289
 Cu312 Cu 0.24226 0.50065 0.73549
 C313 C 0.29204 0.45890 0.72097
 C314 C 0.22911 0.52406 0.79713
 C315 C 0.22517 0.44835 0.77186
 C316 C 0.29795 0.53632 0.74746
 O317 O 0.72128 -0.03580 0.29905
 O318 O 0.70822 0.03520 0.25250
 O319 O 0.68092 -0.01831 0.25430
 O320 O 0.74965 0.01767 0.29546
 O321 O 0.78336 -0.00018 0.25805
 O322 O 0.71426 -0.03544 0.21623
 O323 O 0.74240 0.01839 0.21501
 O324 O 0.75479 -0.05266 0.26100
 Cu325 Cu 0.71160 0.00130 0.27921
 Cu326 Cu 0.75192 -0.01933 0.23365
 C327 C 0.74093 -0.05598 0.28821
 C328 C 0.72299 0.03883 0.22580
 C329 C 0.68580 -0.03259 0.22799
 C330 C 0.77818 0.01485 0.28385
 O331 O 0.71373 0.50841 0.74816
 O332 O 0.77294 0.46016 0.79101
 O333 O 0.74605 0.51479 0.80232
 O334 O 0.73560 0.45332 0.74240
 O335 O 0.77407 0.47354 0.71148
 O336 O 0.78629 0.53373 0.77290
 O337 O 0.81218 0.47917 0.76030
 O338 O 0.75349 0.52971 0.71982
 Cu339 Cu 0.73823 0.48256 0.77430
 Cu340 Cu 0.78566 0.50617 0.73845
 C341 C 0.72343 0.52689 0.72638
 C342 C 0.80254 0.46039 0.78168
 C343 C 0.76788 0.53496 0.79768
 C344 C 0.75262 0.45297 0.71679
 O345 O 0.22154 0.48156 0.26689
 O346 O 0.20075 0.54355 0.21087
 O347 O 0.19688 0.48284 0.21031
 O348 O 0.22181 0.54093 0.26996
 O349 O 0.27183 0.53934 0.25009
 O350 O 0.24645 0.48239 0.18926
 O351 O 0.25072 0.54248 0.19087
 O352 O 0.27108 0.47973 0.24576
 Cu353 Cu 0.20505 0.51255 0.24125
 Cu354 Cu 0.26498 0.51116 0.21682
 C355 C 0.24987 0.46994 0.26561
 C356 C 0.22230 0.55373 0.19148
 C357 C 0.21753 0.47204 0.19035
 C358 C 0.25133 0.54942 0.27073
 O359 O 0.75566 0.97892 0.73737
 O360 O 0.77835 1.03856 0.67897
 O361 O 0.77585 0.97870 0.67838
 O362 O 0.75441 1.03895 0.73718
 O363 O 0.80441 1.03883 0.75618
 O364 O 0.82610 0.97854 0.69674
 O365 O 0.82845 1.04004 0.69761
 O366 O 0.80597 0.97941 0.75564
 Cu367 Cu 0.76108 1.00899 0.70609
 Cu368 Cu 0.82148 1.00942 0.72803
 C369 C 0.77712 0.96886 0.75641
 C370 C 0.80696 1.04968 0.67845
 C371 C 0.80435 0.96763 0.67824
 C372 C 0.77539 1.04883 0.75696
 O373 O 0.76375 0.53505 0.22259
 O374 O 0.71565 0.47109 0.25958
 O375 O 0.71123 0.52965 0.25949
 O376 O 0.76780 0.47359 0.22394
 O377 O 0.79758 0.47623 0.26777
 O378 O 0.74315 0.53614 0.30147
 O379 O 0.74511 0.47698 0.30337
 O380 O 0.79521 0.53634 0.26528
 Cu381 Cu 0.73697 0.50235 0.23658
 Cu382 Cu 0.77355 0.50675 0.28860
 C383 C 0.78773 0.54646 0.23782
 C384 C 0.72182 0.46409 0.28855
 C385 C 0.71703 0.54189 0.28664
 C386 C 0.79175 0.46448 0.24036
 O387 O 0.25464 -0.02758 0.70956
 O388 O 0.28051 0.04063 0.75510
 O389 O 0.28683 -0.01869 0.76344
 O390 O 0.23760 0.03132 0.71013
 O391 O 0.19546 0.02388 0.74261
 O392 O 0.24445 -0.02100 0.79651
 O393 O 0.23733 0.03622 0.78677
 O394 O 0.21342 -0.03501 0.74301
 Cu395 Cu 0.26896 0.00677 0.73116
 Cu396 Cu 0.21860 0.00001 0.76955
 C397 C 0.23033 -0.04340 0.71866
 C398 C 0.26356 0.05011 0.77874
 C399 C 0.27363 -0.02772 0.78969
 C400 C 0.20785 0.03609 0.71784
 O401 O 0.21942 0.23851 1.02713
 O402 O 0.27664 0.21322 0.96423
 O403 O 0.26682 0.19865 1.02439
 O404 O 0.23044 0.25359 0.96730
 O405 O 0.26502 0.28963 0.98296
 O406 O 0.30267 0.23456 1.03742
 O407 O 0.31134 0.24986 0.97809
 O408 O 0.25437 0.27434 1.04247
 Cu409 Cu 0.24475 0.22237 0.99439
 Cu410 Cu 0.28678 0.26570 1.01211
 C411 C 0.22699 0.26086 1.04539
 C412 C 0.30345 0.22734 0.96007
 C413 C 0.29166 0.20733 1.04000
 C414 C 0.24179 0.28085 0.96526
 O415 O 0.24612 0.76631 0.49364
 O416 O 0.30171 0.73024 0.55362
 O417 O 0.30098 0.73533 0.49030
 O418 O 0.24846 0.76293 0.55654
 O419 O 0.22164 0.71875 0.55513
 O420 O 0.27130 0.69302 0.48579
 O421 O 0.27473 0.68650 0.54770
 O422 O 0.21755 0.72312 0.49341
 Cu423 Cu 0.27729 0.75302 0.52373
 Cu424 Cu 0.24357 0.70105 0.52034
 C425 C 0.22190 0.75053 0.48383
 C426 C 0.29756 0.70187 0.56043
 C427 C 0.29479 0.70988 0.47633
 C428 C 0.22621 0.74537 0.56729
 O429 O 0.30276 0.75889 -0.03902
 O430 O 0.23841 0.72849 0.01467
 O431 O 0.25349 0.72068 -0.04698
 O432 O 0.28823 0.76486 0.02145
 O433 O 0.25779 0.80463 0.00810
 O434 O 0.22349 0.76113 -0.05886
 O435 O 0.20722 0.76810 0.00281
 O436 O 0.27114 0.79827 -0.05089
 Cu437 Cu 0.27359 0.73894 -0.01141
 Cu438 Cu 0.23616 0.78665 -0.02572
 C439 C 0.29807 0.78419 -0.05355
 C440 C 0.21222 0.74362 0.01858
 C441 C 0.23318 0.73398 -0.06507
 C442 C 0.27933 0.79266 0.02567
 O443 O 0.31098 0.27116 0.46315
 O444 O 0.27930 0.21332 0.51980
 O445 O 0.26351 0.23118 0.46225
 O446 O 0.32421 0.25607 0.52226
 O447 O 0.28854 0.28897 0.54277
 O448 O 0.22996 0.26677 0.48123
 O449 O 0.24358 0.24706 0.53858
 O450 O 0.27795 0.30581 0.48486
 Cu451 Cu 0.29802 0.23942 0.48992
 Cu452 Cu 0.25640 0.28048 0.51378
 C453 C 0.30015 0.29849 0.46478
 C454 C 0.25586 0.22020 0.53857
 C455 C 0.23640 0.24521 0.46145
 C456 C 0.31656 0.27686 0.54270
 O457 O 0.74368 0.80808 0.98641
 O458 O 0.76294 0.75415 1.05056
 O459 O 0.77972 0.75958 0.99087
 O460 O 0.72788 0.80401 1.04531
 O461 O 0.68486 0.77614 1.03227
 O462 O 0.73821 0.73041 0.97635
 O463 O 0.72089 0.72512 1.03735
 O464 O 0.70185 0.77948 0.97143
 Cu465 Cu 0.75775 0.78406 1.01986
 Cu466 Cu 0.70714 0.74965 1.00329
 C467 C 0.71958 0.80336 0.96819
 C468 C 0.74566 0.73020 1.05469
 C469 C 0.76816 0.73779 0.97401
 C470 C 0.69757 0.79889 1.04715
 O471 O 0.78686 0.25455 0.48252
 O472 O 0.72143 0.28170 0.43208
 O473 O 0.73710 0.29194 0.49078
 O474 O 0.76838 0.24234 0.42498
 O475 O 0.73450 0.20601 0.44168
 O476 O 0.70729 0.25370 0.51010
 O477 O 0.68832 0.24570 0.45089
 O478 O 0.75609 0.21598 0.49950
 Cu479 Cu 0.75667 0.27151 0.45609
 Cu480 Cu 0.71843 0.22649 0.47743
 C481 C 0.78317 0.23024 0.49883
 C482 C 0.69376 0.26879 0.43290
 C483 C 0.71681 0.28150 0.51135
 C484 C 0.75607 0.21558 0.42205
 O485 O 0.72447 0.29769 0.03239
 O486 O 0.69848 0.24218 -0.03162
 O487 O 0.68474 0.25060 0.02908
 O488 O 0.72996 0.29472 -0.02978
 O489 O 0.77380 0.26628 -0.02299
 O490 O 0.72819 0.22334 0.04117
 O491 O 0.74116 0.21383 -0.01965
 O492 O 0.76870 0.26989 0.03957
 Cu493 Cu 0.70524 0.27401 -0.00091
 Cu494 Cu 0.75721 0.24051 0.01026
 C495 C 0.75140 0.29310 0.04663
 C496 C 0.71552 0.21789 -0.03562
 C497 C 0.69820 0.22992 0.04555
 C498 C 0.75924 0.28859 -0.03662
 O499 O 0.69938 0.74460 0.47504
 O500 O 0.75723 0.76706 0.53774
 O501 O 0.75532 0.77088 0.47509
 O502 O 0.70216 0.73589 0.53650
 O503 O 0.72762 0.69133 0.53140
 O504 O 0.78109 0.72643 0.47001
 O505 O 0.78261 0.72249 0.53235
 O506 O 0.72452 0.70005 0.46819
 Cu507 Cu 0.72604 0.75900 0.50708
 Cu508 Cu 0.75635 0.70551 0.50012
 C509 C 0.70249 0.71911 0.46023
 C510 C 0.78003 0.74899 0.54551
 C511 C 0.77705 0.75427 0.46172
 C512 C 0.70556 0.70778 0.54429
 O513 O 0.97799 0.24919 0.19754
 O514 O 1.03585 0.21348 0.25385
 O515 O 0.97553 0.20483 0.23875
 O516 O 1.03783 0.26059 0.21484
 O517 O 1.02133 0.29209 0.25356
 O518 O 0.95708 0.23628 0.27675
 O519 O 1.01671 0.24378 0.29247
 O520 O 0.96100 0.28092 0.23589
 Cu521 Cu 1.00865 0.22904 0.22232
 Cu522 Cu 0.98773 0.26682 0.26844
 C523 C 0.95931 0.27071 0.20723
 C524 C 1.03506 0.22184 0.28317
 C525 C 0.95580 0.21077 0.26165
 C526 C 1.04025 0.28594 0.23004
 O527 O 0.49748 0.26118 0.71469
 O528 O 0.55615 0.20092 0.73709
 O529 O 0.49250 0.20389 0.73335
 O530 O 0.56040 0.25371 0.70797
 O531 O 0.56300 0.27272 0.75729
 O532 O 0.49344 0.22372 0.78237
 O533 O 0.55722 0.22020 0.78637
 O534 O 0.50020 0.28065 0.76381
 Cu535 Cu 0.52629 0.22793 0.71851
 Cu536 Cu 0.52869 0.25118 0.77724
 C537 C 0.48892 0.28126 0.73563
 C538 C 0.56714 0.20081 0.76562
 C539 C 0.48100 0.20544 0.76171
 C540 C 0.57365 0.27141 0.72839
 O541 O 0.03593 0.23070 0.78549
 O542 O -0.02702 0.20871 0.72612
 O543 O 0.03672 0.20928 0.72688
 O544 O -0.02783 0.23299 0.78448
 O545 O -0.02566 0.28026 0.76512
 O546 O 0.03821 0.25666 0.70767
 O547 O -0.02428 0.25627 0.70761
 O548 O 0.03770 0.27779 0.76559
 Cu549 Cu 0.00412 0.21565 0.75784
 Cu550 Cu 0.00640 0.27250 0.73471
 C551 C 0.04790 0.25777 0.78513
 C552 C -0.03576 0.22911 0.70622
 C553 C 0.04853 0.22910 0.70753
 C554 C -0.03765 0.26078 0.78460
 O555 O 0.44185 0.27674 0.22900
 O556 O 0.51038 0.22376 0.21291
 O557 O 0.44653 0.21886 0.21177
 O558 O 0.50472 0.28210 0.22569
 O559 O 0.50568 0.26918 0.27697
 O560 O 0.44681 0.20636 0.26315
 O561 O 0.51039 0.21054 0.26411
 O562 O 0.44278 0.26418 0.28038
 Cu563 Cu 0.47560 0.25135 0.21463
 Cu564 Cu 0.47652 0.23627 0.27626
 C565 C 0.43093 0.27974 0.25758
 C566 C 0.52238 0.20847 0.23594
 C567 C 0.43641 0.20217 0.23480
 C568 C 0.51527 0.28627 0.25393
 O569 O 0.97222 0.75693 0.72448
 O570 O 1.02522 0.70018 0.76194
 O571 O 0.96330 0.70685 0.75618
 O572 O 1.03469 0.75439 0.73548
 O573 O 1.02946 0.77963 0.78154
 O574 O 0.95972 0.73076 0.80317
 O575 O 1.02288 0.72533 0.80828
 O576 O 0.96710 0.78145 0.77099
 Cu577 Cu 0.99960 0.72717 0.73984
 Cu578 Cu 0.99449 0.75678 0.79565
 C579 C 0.95990 0.77838 0.74142
 C580 C 1.03285 0.70266 0.79127
 C581 C 0.94929 0.71087 0.78327
 C582 C 1.04393 0.77545 0.75485
 O583 O 0.49675 0.78918 0.23781
 O584 O 0.45911 0.72397 0.27991
 O585 O 0.51930 0.74226 0.27081
 O586 O 0.43903 0.77501 0.25655
 O587 O 0.43646 0.75194 0.20909
 O588 O 0.51694 0.71672 0.22477
 O589 O 0.45638 0.69929 0.23338
 O590 O 0.49640 0.76346 0.19174
 Cu591 Cu 0.47922 0.75998 0.26586
 Cu592 Cu 0.47631 0.73015 0.21028
 C593 C 0.50257 0.78765 0.20770
 C594 C 0.45065 0.70061 0.26336
 C595 C 0.53174 0.72365 0.25062
 C596 C 0.42415 0.76965 0.23060
 O597 O -0.02962 0.80558 0.24601
 O598 O 0.03441 0.75475 0.21330
 O599 O -0.02787 0.76335 0.20184
 O600 O 0.03073 0.79498 0.26167
 O601 O 0.01364 0.75916 0.29539
 O602 O -0.04115 0.72614 0.23557
 O603 O 0.02006 0.71887 0.24815
 O604 O -0.04562 0.76852 0.27884
 Cu605 Cu 0.00378 0.78314 0.22719
 Cu606 Cu -0.01434 0.73945 0.26792
 C607 C -0.04891 0.79548 0.26754
 C608 C 0.03794 0.72803 0.22499
 C609 C -0.04488 0.73967 0.20894
 C610 C 0.03087 0.78278 0.28945
 O611 O 0.48325 0.74704 0.77781
 O612 O 0.55949 0.78979 0.79216
 O613 O 0.49751 0.80152 0.79675
 O614 O 0.54504 0.73317 0.77598
 O615 O 0.54630 0.74785 0.72521
 O616 O 0.49628 0.81589 0.74590
 O617 O 0.55895 0.80483 0.74153
 O618 O 0.48404 0.76012 0.72654
 Cu619 Cu 0.52145 0.76640 0.79073
 Cu620 Cu 0.52173 0.78366 0.72965
 C621 C 0.47041 0.74659 0.75009
 C622 C 0.57210 0.80485 0.76905
 C623 C 0.48767 0.81961 0.77510
 C624 C 0.55399 0.72889 0.74707
 N625 N 0.39116 0.31824 0.24197
 N626 N 0.36884 0.33632 0.25540
 C627 C 0.36869 0.33049 0.28728
 C628 C 0.39180 0.30806 0.29291
 N629 N 0.40517 0.30112 0.26409
 H630 H 0.39862 0.29798 0.31560
 N631 N 0.45316 0.86444 0.76476
 N632 N 0.42755 0.87800 0.77844
 C633 C 0.42217 0.86380 0.80690
 C634 C 0.44594 0.84175 0.81045
 N635 N 0.46449 0.84272 0.78382
 H636 H 0.44869 0.82508 0.82946
 N637 N -0.07532 0.25250 0.82948
 N638 N -0.09831 0.26765 0.84561
 C639 C -0.10022 0.29611 0.83271
 C640 C -0.07746 0.29783 0.80803
 N641 N -0.06258 0.27025 0.80683
 H642 H -0.07244 0.31689 0.79206
 N643 N -0.08223 0.84196 0.26747
 N644 N -0.10879 0.85279 0.28187
 C645 C -0.11863 0.83125 0.30322
 C646 C -0.09723 0.80685 0.30137
 N647 N -0.07500 0.81444 0.27892
 H648 H -0.09808 0.78528 0.31431
 N649 N 0.57839 0.69178 0.23678
 N650 N 0.60366 0.67905 0.25098
 C651 C 0.60373 0.68923 0.28176
 C652 C 0.57758 0.70885 0.28593
 N653 N 0.56238 0.70963 0.25736
 H654 H 0.56903 0.71955 0.30803
 N655 N 0.60249 0.15701 0.75491
 N656 N 0.62811 0.14349 0.76764
 C657 C 0.63422 0.15801 0.79581
 C658 C 0.61116 0.18082 0.80004
 N659 N 0.59196 0.17940 0.77402
 H660 H 0.60948 0.19784 0.81914
 N661 N 1.05064 0.64979 0.79649
 N662 N 1.07446 0.63392 0.80964
 C663 C 1.09237 0.65399 0.82705
 C664 C 1.07829 0.68292 0.82433
 N665 N 1.05249 0.67915 0.80506
 H666 H 1.08711 0.70485 0.83329
 N667 N 1.04512 0.20434 0.33726
 N668 N 1.06788 0.19046 0.35406
 C669 C 1.09183 0.18233 0.33329
 C670 C 1.08308 0.19216 0.30292
 N671 N 1.05379 0.20580 0.30660
 H672 H 1.09775 0.19208 0.28115
 N673 N 0.61736 0.30721 0.73994
 N674 N 0.64168 0.32148 0.72521
 C675 C 0.64125 0.31287 0.69392
 C676 C 0.61542 0.29256 0.69000
 N677 N 0.60121 0.28983 0.71931
 H678 H 0.60746 0.28129 0.66814
 N679 N 0.50732 0.84240 0.20096
 N680 N 0.52663 0.86256 0.18674
 C681 C 0.54785 0.84659 0.16801
 C682 C 0.54016 0.81555 0.17061
 N683 N 0.51519 0.81416 0.19187
 H684 H 0.55375 0.79596 0.16146
 N685 N 1.06883 0.33555 0.23255
 N686 N 1.09279 0.35003 0.21717
 C687 C 1.10404 0.33062 0.19403
 C688 C 1.08601 0.30370 0.19591
 N689 N 1.06451 0.30772 0.22007
 H690 H 1.08785 0.28309 0.18121
 N691 N 1.07904 0.82033 0.76210
 N692 N 1.10455 0.83353 0.74805
 C693 C 1.11290 0.81567 0.72253
 C694 C 1.09134 0.79105 0.72144
 N695 N 1.07082 0.79487 0.74642
 H696 H 1.09019 0.77223 0.70429
 N697 N 0.42091 0.72336 0.77055
 N698 N 0.39559 0.70732 0.76037
 C699 C 0.39832 0.70497 0.72807
 C700 C 0.42647 0.72029 0.71868
 N701 N 0.43987 0.73116 0.74604
 H702 H 0.43740 0.72125 0.69491
 N703 N 0.39960 0.16031 0.25058
 N704 N 0.37590 0.14353 0.23781
 C705 C 0.37343 0.15198 0.20667
 C706 C 0.39678 0.17443 0.20089
 N707 N 0.41234 0.17896 0.22873
 H708 H 0.40140 0.18738 0.17917
 N709 N -0.07949 0.74366 0.16175
 N710 N -0.10536 0.72977 0.14942
 C711 C -0.11218 0.70502 0.16800
 C712 C -0.08920 0.70425 0.19214
 N713 N -0.06946 0.72869 0.18742
 H714 H -0.08782 0.68860 0.21225
 N715 N -0.06177 0.24185 0.65702
 N716 N -0.08166 0.23030 0.63547
 C717 C -0.09088 0.20198 0.64545
 C718 C -0.07553 0.19652 0.67461
 N719 N -0.05764 0.22215 0.68067
 H720 H -0.07692 0.17625 0.68961
 N721 N 0.23984 0.43745 0.31200
 N722 N 0.25411 0.41491 0.32780
 C723 C 0.28215 0.40851 0.31195
 C724 C 0.28473 0.42792 0.28594
 N725 N 0.25791 0.44559 0.28695
 H726 H 0.30433 0.42951 0.26844
 N727 N 0.27863 -0.05330 0.84056
 N728 N 0.29713 -0.07376 0.85490
 C729 C 0.32231 -0.07993 0.83480
 C730 C 0.31874 -0.06200 0.80749
 N731 N 0.29100 -0.04606 0.81212
 H732 H 0.33322 -0.06214 0.78560
 N733 N 0.85350 0.43180 0.78070
 N734 N 0.86625 0.40682 0.79377
 C735 C 0.84487 0.39670 0.81625
 C736 C 0.81850 0.41668 0.81649
 N737 N 0.82485 0.43808 0.79399
 H738 H 0.79594 0.41490 0.83000
 N739 N 0.73362 -0.09062 0.33403
 N740 N 0.74922 -0.11382 0.34766
 C741 C 0.77574 -0.11990 0.32916
 C742 C 0.77543 -0.09981 0.30344
 N743 N 0.74898 -0.08209 0.30740
 H744 H 0.79302 -0.09735 0.28410
 N745 N 0.34438 0.56845 0.76018
 N746 N 0.35885 0.59408 0.75050
 C747 C 0.34233 0.60433 0.72482
 C748 C 0.31701 0.58392 0.71903
 N749 N 0.31921 0.56198 0.74174
 H750 H 0.29842 0.58529 0.70084
 N751 N 0.23027 1.06296 0.18843
 N752 N 0.24589 1.08439 0.17161
 C753 C 0.27512 1.08861 0.18556
 C754 C 0.27694 1.06881 0.21139
 N755 N 0.24859 1.05332 0.21234
 H756 H 0.29681 1.06588 0.22797
 N757 N 0.83526 0.57943 0.23676
 N758 N 0.84678 0.60406 0.22188
 C759 C 0.82495 0.61193 0.19938
 C760 C 0.79944 0.59080 0.20088
 N761 N 0.80696 0.57102 0.22457
 H762 H 0.77725 0.59039 0.18712
 N763 N 0.79734 1.07677 0.62913
 N764 N 0.80796 1.10096 0.61303
 C765 C 0.83277 1.11352 0.62979
 C766 C 0.83725 1.09557 0.65698
 N767 N 0.81453 1.07304 0.65546
 H768 H 0.85435 1.09896 0.67631
 N769 N 0.66135 0.55591 0.29752
 N770 N 0.64434 0.57952 0.30870
 C771 C 0.66587 0.60048 0.31977
 C772 C 0.69688 0.58894 0.31500
 N773 N 0.69282 0.56116 0.30095
 H774 H 0.71985 0.60085 0.31796
 N775 N 0.78329 1.07846 0.80633
 N776 N 0.76714 1.09845 0.82466
 C777 C 0.73857 1.10412 0.81000
 C778 C 0.73785 1.08676 0.78197
 N779 N 0.76603 1.07120 0.78068
 H780 H 0.71864 1.08484 0.76446
 N781 N 0.17673 0.53147 0.82160
 N782 N 0.15911 0.55422 0.83379
 C783 C 0.17937 0.57829 0.83877
 C784 C 0.21050 0.56911 0.82953
 N785 N 0.20760 0.53977 0.81885
 H786 H 0.23190 0.58347 0.82664
 N787 N 0.22295 1.07420 0.35394
 N788 N 0.21367 1.10158 0.36475
 C789 C 0.18660 1.10947 0.34863
 C790 C 0.17937 1.08549 0.32759
 N791 N 0.20269 1.06404 0.33174
 H792 H 0.16021 1.08436 0.30996
 N793 N 0.76295 0.42636 0.66584
 N794 N 0.75129 0.40254 0.64944
 C795 C 0.72748 0.38983 0.66773
 C796 C 0.72491 0.40667 0.69582
 N797 N 0.74731 0.42913 0.69366
 H798 H 0.70783 0.40371 0.71554
 N799 N 0.62826 -0.04263 0.22159
 N800 N 0.60888 -0.06022 0.20409
 C801 C 0.62781 -0.07507 0.18221
 C802 C 0.65962 -0.06561 0.18675
 N803 N 0.65873 -0.04579 0.21172
 H804 H 0.68154 -0.07405 0.17508
 N805 N 0.22661 0.43656 0.14563
 N806 N 0.21505 0.40987 0.13501
 C807 C 0.18903 0.40272 0.15365
 C808 C 0.18482 0.42624 0.17586
 N809 N 0.20870 0.44675 0.17004
 H810 H 0.16768 0.42746 0.19576
 N811 N 0.23857 -0.08081 0.67559
 N812 N 0.22695 -0.10771 0.66564
 C813 C 0.20256 -0.11556 0.68600
 C814 C 0.19959 -0.09227 0.70888
 N815 N 0.22247 -0.07114 0.70145
 H816 H 0.18300 -0.09091 0.72921
 N817 N 0.30986 0.35141 0.44937
 N818 N 0.31767 0.36724 0.42334
 C819 C 0.32563 0.34654 0.40021
 C820 C 0.32264 0.31736 0.41298
 N821 N 0.31255 0.32150 0.44358
 H822 H 0.32386 0.29548 0.40034
 N823 N 0.35287 0.78565 -0.07701
 N824 N 0.37041 0.80350 -0.09638
 C825 C 0.35137 0.82753 -0.10453
 C826 C 0.32150 0.82362 -0.08964
 N827 N 0.32342 0.79737 -0.07288
 H828 H 0.30001 0.83785 -0.09139
 N829 N 0.76338 0.33536 -0.06705
 N830 N 0.78123 0.34835 -0.08978
 C831 C 0.80556 0.32866 -0.09711
 C832 C 0.80210 0.30287 -0.07760
 N833 N 0.77537 0.30815 -0.05934
 H834 H 0.81663 0.28210 -0.07737
 N835 N 0.82308 0.75295 0.42472
 N836 N 0.83495 0.76872 0.40010
 C837 C 0.81537 0.79333 0.39597
 C838 C 0.79109 0.79220 0.41921
 N839 N 0.79686 0.76672 0.43652
 H840 H 0.77073 0.80768 0.42271
 N841 N 0.70092 0.33189 0.53095
 N842 N 0.69119 0.34551 0.55788
 C843 C 0.68746 0.32331 0.58025
 C844 C 0.69539 0.29534 0.56601
 N845 N 0.70384 0.30188 0.53536
 H846 H 0.69798 0.27315 0.57750
 N847 N 0.68502 0.85122 1.06048
 N848 N 0.66692 0.86783 1.08033
 C849 C 0.64761 0.84816 1.09676
 C850 C 0.65427 0.81838 1.08576
 N851 N 0.67802 0.82159 1.06324
 H852 H 0.64476 0.79677 1.09479
 N853 N 0.17666 0.25636 1.07619
 N854 N 0.15980 0.27189 1.09820
 C855 C 0.17709 0.29753 1.10525
 C856 C 0.20535 0.29707 1.08690
 N857 N 0.20405 0.27106 1.06920
 H858 H 0.22482 0.31391 1.08617
 N859 N 0.18169 0.73915 0.60561
 N860 N 0.16728 0.75461 0.62930
 C861 C 0.18292 0.78193 0.63219
 C862 C 0.20757 0.78264 0.60930
 N863 N 0.20590 0.75557 0.59335
 H864 H 0.22503 0.80082 0.60461
 N865 N 0.32432 0.65627 0.57965
 N866 N 0.33834 0.64584 0.60587
 C867 C 0.34162 0.66996 0.62621
 C868 C 0.32923 0.69593 0.61122
 N869 N 0.31862 0.68621 0.58221
 H870 H 0.32526 0.71858 0.62160
 N871 N 0.34063 0.18544 1.06139
 N872 N 0.34997 0.16834 1.08578
 C873 C 0.32275 0.15798 1.10062
 C874 C 0.29616 0.16914 1.08416
 N875 N 0.30853 0.18622 1.05999
 H876 H 0.27072 0.16780 1.09107
 N877 N 0.73998 0.68228 1.08533
 N878 N 0.75647 0.66666 1.10715
 C879 C 0.78320 0.68351 1.11428
 C880 C 0.78229 0.71009 1.09622
 N881 N 0.75515 0.70845 1.07860
 H882 H 0.79974 0.72879 1.09541
 N883 N 0.83999 0.23037 0.51317
 N884 N 0.85966 0.21737 0.53402
 C885 C 0.84167 0.19679 0.55074
 C886 C 0.81020 0.19755 0.53947
 N887 N 0.81026 0.21895 0.51626
 H888 H 0.78900 0.18551 0.54869
 N889 N 0.65755 0.73143 0.42527
 N890 N 0.64406 0.72182 0.39821
 C891 C 0.65993 0.69604 0.38887
 C892 C 0.68372 0.69006 0.41149
 N893 N 0.68133 0.71273 0.43373
 H894 H 0.70177 0.67193 0.41118
 N895 N 0.71293 0.16462 -0.05169
 N896 N 0.70731 0.14749 -0.07742
 C897 C 0.69622 0.16650 -0.10033
 C898 C 0.69498 0.19617 -0.08763
 N899 N 0.70578 0.19383 -0.05719
 H900 H 0.69004 0.21745 -0.10012
 N901 N 0.21088 0.73476 -0.11848
 N902 N 0.19650 0.71613 -0.13924
 C903 C 0.19796 0.68744 -0.12703
 C904 C 0.21387 0.68907 -0.09783
 N905 N 0.22131 0.71909 -0.09344
 H906 H 0.21652 0.67105 -0.08016
 N907 N 0.18587 0.25306 0.43314
 N908 N 0.16757 0.23923 0.41137
 C909 C 0.18311 0.21315 0.40229
 C910 C 0.21189 0.21156 0.41927
 N911 N 0.21252 0.23684 0.43819
 H912 H 0.23015 0.19363 0.41867
 N913 N 0.30071 0.43746 0.66764
 N914 N 0.31725 0.41526 0.65294
 C915 C 0.33610 0.40190 0.67524
 C916 C 0.33058 0.41691 0.70437
 N917 N 0.30829 0.43886 0.69847
 H918 H 0.34057 0.41161 0.72767
 N919 N 0.22301 0.91760 0.19336
 N920 N 0.23622 0.89488 0.17637
 C921 C 0.26490 0.88818 0.19018
 C922 C 0.26897 0.90772 0.21625
 N923 N 0.24232 0.92572 0.21724
 H924 H 0.28944 0.90919 0.23237
 N925 N 0.83883 0.43057 0.24217
 N926 N 0.85094 0.40649 0.22640
 C927 C 0.83095 0.40055 0.20150
 C928 C 0.80617 0.42206 0.20249
 N929 N 0.81202 0.44023 0.22814
 H930 H 0.78542 0.42394 0.18683
 N931 N 0.79210 0.93082 0.63550
 N932 N 0.80136 0.90289 0.62609
 C933 C 0.82723 0.89517 0.64409
 C934 C 0.83376 0.91970 0.66453
 N935 N 0.81134 0.94129 0.65847
 H936 H 0.85125 0.92099 0.68376
 N937 N 0.66886 0.53639 0.70727
 N938 N 0.65218 0.55807 0.69251
 C939 C 0.67346 0.58041 0.68400
 C940 C 0.70395 0.57180 0.69452
 N941 N 0.69991 0.54424 0.70893
 H942 H 0.72603 0.58548 0.69457
 N943 N 0.73352 0.07323 0.18077
 N944 N 0.72086 0.09814 0.16756
 C945 C 0.69540 0.10688 0.18627
 C946 C 0.69306 0.08642 0.21161
 N947 N 0.71718 0.06589 0.20721
 H948 H 0.67497 0.08562 0.23067
 N949 N 0.23416 0.58904 0.14748
 N950 N 0.22114 0.61353 0.13375
 C951 C 0.19239 0.61879 0.14879
 C952 C 0.18815 0.59649 0.17207
 N953 N 0.21467 0.57857 0.17049
 H954 H 0.16832 0.59384 0.18915
 N955 N 0.15596 0.05790 0.70362
 N956 N 0.14413 0.08177 0.68799
 C957 C 0.16955 0.09571 0.67334
 C958 C 0.19749 0.07937 0.68030
 N959 N 0.18786 0.05606 0.69935
 H960 H 0.22246 0.08532 0.67449
 N961 N 0.24312 0.58119 0.31891
 N962 N 0.26010 0.59996 0.33771
 C963 C 0.29069 0.60091 0.32557
 C964 C 0.29180 0.58202 0.29866
 N965 N 0.26178 0.57036 0.29531
 H966 H 0.31217 0.57718 0.28277
 N967 N 0.25800 0.08833 0.82155
 N968 N 0.27475 0.11129 0.83454
 C969 C 0.30283 0.11406 0.81758
 C970 C 0.30259 0.09186 0.79350
 N971 N 0.27427 0.07637 0.79690
 H972 H 0.32136 0.08685 0.77579
 N973 N 0.75412 0.56449 0.84655
 N974 N 0.76355 0.59031 0.86116
 C975 C 0.78790 0.60238 0.84310
 C976 C 0.79300 0.58300 0.81706
 N977 N 0.77172 0.55982 0.82011
 H978 H 0.81023 0.58523 0.79739
 N979 N 0.83562 0.02563 0.29195
 N980 N 0.85359 0.04787 0.30471
 C981 C 0.83304 0.06699 0.32067
 C982 C 0.80195 0.05549 0.31751
 N983 N 0.80459 0.03003 0.29928
 H984 H 0.77927 0.06672 0.32388
 N985 N 0.70477 0.43868 0.33717
 N986 N 0.68547 0.41630 0.34723
 C987 C 0.66988 0.40501 0.32129
 C988 C 0.68031 0.42159 0.29459
 N989 N 0.70229 0.44218 0.30574
 H990 H 0.67393 0.41804 0.26965
 N991 N 0.78811 0.93642 0.80247
 N992 N 0.77355 0.91494 0.81999
 C993 C 0.74396 0.91005 0.80707
 C994 C 0.74079 0.92940 0.78103
 N995 N 0.76881 0.94543 0.77909
 H996 H 0.72010 0.93201 0.76539
 N997 N 0.17737 0.41568 0.76355
 N998 N 0.16286 0.39155 0.77699
 C999 C 0.18079 0.38355 0.80268
 C1000 C 0.20692 0.40364 0.80438
 N1001 N 0.20387 0.42321 0.77965
 H1002 H 0.22640 0.40409 0.82169
 N1003 N 0.22006 0.92118 0.36314
 N1004 N 0.20987 0.89533 0.37672
 C1005 C 0.18289 0.88619 0.36102
 C1006 C 0.17669 0.90781 0.33736
 N1007 N 0.20046 0.92918 0.33959
 H1008 H 0.15789 0.90734 0.31933
 N1009 N 0.45629 0.32702 0.74708
 N1010 N 0.43291 0.34333 0.73357
 C1011 C 0.42735 0.33045 0.70448
 C1012 C 0.44832 0.30577 0.70060
 N1013 N 0.46576 0.30444 0.72760
 H1014 H 0.45029 0.28966 0.68071
 N1015 N 0.37674 0.79740 0.24973
 N1016 N 0.35151 0.81262 0.23844
 C1017 C 0.35219 0.80929 0.20617
 C1018 C 0.37882 0.79110 0.19802
 N1019 N 0.39341 0.78432 0.22595
 H1020 H 0.38787 0.78504 0.17429
 N1021 N 0.92973 0.27244 0.15660
 N1022 N 0.90487 0.28728 0.14379
 C1023 C 0.89457 0.30822 0.16579
 C1024 C 0.91404 0.30563 0.19259
 N1025 N 0.93559 0.28315 0.18587
 H1026 H 0.91219 0.31808 0.21518
 N1027 N 0.92712 0.82504 0.74070
 N1028 N 0.90545 0.83856 0.72216
 C1029 C 0.90152 0.82034 0.69597
 C1030 C 0.92175 0.79517 0.69904
 N1031 N 0.93724 0.79906 0.72717
 H1032 H 0.92474 0.77579 0.68274
 N1033 N 0.55290 0.32766 0.23810
 N1034 N 0.57708 0.34376 0.25106
 C1035 C 0.57855 0.33544 0.28226
 C1036 C 0.55421 0.31414 0.28797
 N1037 N 0.53907 0.30969 0.25999
 H1038 H 0.54876 0.30182 0.30994
 N1039 N 0.61605 0.83798 0.75068
 N1040 N 0.64260 0.85150 0.76174
 C1041 C 0.64520 0.84383 0.79304
 C1042 C 0.61903 0.82496 0.80081
 N1043 N 0.60153 0.82199 0.77370
 H1044 H 0.61308 0.81462 0.82376
 N1045 N 0.08526 0.24797 0.82922
 N1046 N 0.11020 0.26165 0.84345
 C1047 C 0.11472 0.28913 0.82886
 C1048 C 0.09151 0.29188 0.80534
 N1049 N 0.07374 0.26584 0.80636
 H1050 H 0.08798 0.31067 0.78874
 N1051 N 0.04019 0.79218 0.34570
 N1052 N 0.06269 0.80298 0.36525
 C1053 C 0.08699 0.81430 0.34675
 C1054 C 0.07848 0.81009 0.31473
 N1055 N 0.04911 0.79601 0.31534
 H1056 H 0.09328 0.81419 0.29349
 N1057 N 0.58122 0.68068 0.75966
 N1058 N 0.60106 0.66052 0.74565
 C1059 C 0.60618 0.67031 0.71525
 C1060 C 0.58859 0.69706 0.71105
 N1061 N 0.57352 0.70268 0.73921
 H1062 H 0.58716 0.71148 0.68998
 N1063 N 0.56308 0.17073 0.25185
 N1064 N 0.59010 0.15797 0.24027
 C1065 C 0.59473 0.16906 0.21029
 C1066 C 0.56931 0.18894 0.20385
 N1067 N 0.55026 0.18932 0.23029
 H1068 H 0.56530 0.20248 0.18250
 N1069 N 0.06777 0.67988 0.22341
 N1070 N 0.09083 0.66609 0.20624
 C1071 C 0.09999 0.68578 0.18277
 C1072 C 0.08167 0.71235 0.18624
 N1073 N 0.06201 0.70766 0.21188
 H1074 H 0.08258 0.73306 0.17186
 N1075 N 0.08626 0.23921 0.66336
 N1076 N 0.11056 0.22558 0.64773
 C1077 C 0.11391 0.19720 0.66043
 C1078 C 0.09060 0.19392 0.68449
 N1079 N 0.07400 0.22059 0.68549
 H1080 H 0.08657 0.17458 0.70037
 N1081 N 0.42709 0.64917 0.26447
 N1082 N 0.40567 0.63342 0.28184
 C1083 C 0.39797 0.65108 0.30768
 C1084 C 0.41563 0.67811 0.30569
 N1085 N 0.43327 0.67603 0.27841
 H1086 H 0.41345 0.69852 0.32068
 N1087 N 0.44070 0.16546 0.75093
 N1088 N 0.41391 0.15366 0.76400
 C1089 C 0.40916 0.16815 0.79250
 C1090 C 0.43430 0.18924 0.79645
 N1091 N 0.45330 0.18680 0.77004
 H1092 H 0.43803 0.20549 0.81593
 N1093 N 0.90943 0.67097 0.77224
 N1094 N 0.88324 0.65853 0.78564
 C1095 C 0.87823 0.67313 0.81405
 C1096 C 0.90243 0.69503 0.81767
 N1097 N 0.92128 0.69282 0.79112
 H1098 H 0.90615 0.71091 0.83750
 N1099 N 0.93099 0.16085 0.25541
 N1100 N 0.90914 0.14296 0.26938
 C1101 C 0.89629 0.15898 0.29437
 C1102 C 0.91097 0.18776 0.29512
 N1103 N 0.93255 0.18775 0.27043
 H1104 H 0.90716 0.20633 0.31226
 N1105 N 0.36916 0.27535 0.56936
 N1106 N 0.38431 0.28952 0.59329
 C1107 C 0.36372 0.31112 0.60515
 C1108 C 0.33537 0.30961 0.58779
 N1109 N 0.33974 0.28707 0.56585
 H1110 H 0.31337 0.32296 0.59117
 N1111 N 0.29593 0.84175 0.04754
 N1112 N 0.30424 0.85413 0.07539
 C1113 C 0.30752 0.83073 0.09629
 C1114 C 0.30102 0.80337 0.08029
 N1115 N 0.29377 0.81142 0.04998
 H1116 H 0.29810 0.78060 0.09046
 N1117 N 0.74738 0.33918 0.08096
 N1118 N 0.76412 0.35289 0.10419
 C1119 C 0.79102 0.33573 0.10916
 C1120 C 0.79008 0.31100 0.08808
 N1121 N 0.76262 0.31398 0.07103
 H1122 H 0.80735 0.29234 0.08547
 N1123 N 0.82701 0.74139 0.58019
 N1124 N 0.84450 0.75710 0.60140
 C1125 C 0.83144 0.78560 0.60380
 C1126 C 0.80512 0.78667 0.58330
 N1127 N 0.80321 0.75873 0.56912
 H1128 H 0.78880 0.80573 0.57905
 N1129 N 0.34156 0.71445 0.44044
 N1130 N 0.35366 0.70125 0.41415
 C1131 C 0.33335 0.67797 0.40608
 C1132 C 0.30833 0.67727 0.42860
 N1133 N 0.31443 0.70037 0.44948
 H1134 H 0.28747 0.66202 0.42951
 N1135 N 0.35334 0.23048 0.92777
 N1136 N 0.36621 0.21742 0.90168
 C1137 C 0.34482 0.19584 0.89147
 C1138 C 0.31843 0.19613 0.91229
 N1139 N 0.32470 0.21793 0.93443
 H1140 H 0.29641 0.18245 0.91132
 N1141 N 0.82098 0.72914 0.94983
 N1142 N 0.83502 0.71328 0.92629
 C1143 C 0.81185 0.69534 0.91305
 C1144 C 0.78281 0.70070 0.92950
 N1145 N 0.78971 0.72209 0.95215
 H1146 H 0.75899 0.69118 0.92459
 N1147 N 0.74756 0.17318 0.38536
 N1148 N 0.76436 0.15514 0.36566
 C1149 C 0.79500 0.16637 0.36431
 C1150 C 0.79638 0.19240 0.38372
 N1151 N 0.76625 0.19558 0.39650
 H1152 H 0.81761 0.20581 0.39020
 N1153 N 0.63947 0.26855 0.40919
 N1154 N 0.62305 0.28469 0.38777
 C1155 C 0.64274 0.30797 0.37813
 C1156 C 0.67167 0.30548 0.39414
 N1157 N 0.66870 0.28077 0.41313
 H1158 H 0.69337 0.31946 0.39143
 N1159 N 0.72149 0.85520 0.94789
 N1160 N 0.71613 0.87058 0.92118
 C1161 C 0.70310 0.85053 0.89995
 C1162 C 0.70034 0.82206 0.91478
 N1163 N 0.71235 0.82611 0.94460
 H1164 H 0.69326 0.80024 0.90412
 N1165 N 0.23956 0.33049 0.93861
 N1166 N 0.22502 0.34360 0.91395
 C1167 C 0.20444 0.32244 0.90155
 C1168 C 0.20682 0.29584 0.91956
 N1169 N 0.22895 0.30188 0.94233
 H1170 H 0.19477 0.27391 0.91585
 N1171 N 0.17096 0.74837 0.45590
 N1172 N 0.15412 0.76327 0.43410
 C1173 C 0.17145 0.78846 0.42567
 C1174 C 0.19996 0.78852 0.44360
 N1175 N 0.19851 0.76297 0.46206
 H1176 H 0.21993 0.80481 0.44273
 N1177 N 0.65447 0.70654 0.57324
 N1178 N 0.64071 0.69282 0.59817
 C1179 C 0.66194 0.67167 0.60901
 C1180 C 0.68940 0.67264 0.58937
 N1181 N 0.68366 0.69492 0.56757
 H1182 H 0.71205 0.66032 0.59216
 N1183 N 0.64697 0.21937 0.07187
 N1184 N 0.63481 0.20462 0.09695
 C1185 C 0.65967 0.18973 0.11086
 C1186 C 0.68780 0.19575 0.09316
 N1187 N 0.67864 0.21448 0.06915
 H1188 H 0.71245 0.18854 0.09804
 N1189 N 0.16094 0.74788 0.04851
 N1190 N 0.14588 0.73454 0.07315
 C1191 C 0.16479 0.71086 0.08250
 C1192 C 0.19194 0.71015 0.06257
 N1193 N 0.18858 0.73349 0.04180
 H1194 H 0.21281 0.69505 0.06370
 N1195 N 0.25481 0.16915 0.56265
 N1196 N 0.23755 0.15341 0.58408
 C1197 C 0.21393 0.17240 0.59521
 C1198 C 0.21738 0.20041 0.57987
 N1199 N 0.24305 0.19736 0.55987
 H1200 H 0.20283 0.22102 0.58273
   
