data_POSCAR
  _audit_creation_date              2014-09-24
  _audit_creation_method            'ToBaCCo'
  _symmetry_space_group_name_H-M    'P1'
  _symmetry_Int_Tables_number       1
  _symmetry_cell_setting            triclinic
  loop_
  _symmetry_equiv_pos_as_xyz
 x,y,z
_cell_length_a 22.1785
_cell_length_b 22.1118
_cell_length_c 25.2032
_cell_angle_alpha 90.000100
_cell_angle_beta 89.999900
_cell_angle_gamma 90.000100
loop_
  _atom_site_label
  _atom_site_type_symbol
  _atom_site_fract_x
  _atom_site_fract_y
  _atom_site_fract_z
C1 C 1.24998 0.24998 0.25010
 C2 C 0.74998 -0.25002 0.25010
 C3 C 0.74998 0.24998 -0.24990
 C4 C 1.24998 -0.25002 -0.24990
 C5 C 0.24998 0.24998 0.75010
 C6 C 0.74998 0.74998 0.75010
 C7 C 0.74998 0.24998 0.25010
 C8 C 0.24998 0.74998 0.25010
 O9 O 1.11539 0.06899 0.03726
 O10 O 0.88576 -0.07043 0.03676
 O11 O 0.93090 0.11458 0.03667
 O12 O 1.07013 -0.11623 0.03788
 O13 O 0.89729 0.03125 0.06627
 O14 O 1.10386 -0.03283 0.06725
 O15 O 0.96867 -0.10388 0.06683
 O16 O 1.03220 0.10322 0.06625
 C17 C 1.08678 0.09592 0.07255
 C18 C 0.91402 -0.09679 0.07259
 C19 C 0.90416 0.08611 0.07221
 C20 C 1.09708 -0.08774 0.07334
 O21 O 1.11559 -0.07103 -0.03521
 O22 O 0.88584 0.06912 -0.03636
 O23 O 1.07040 0.11420 -0.03616
 O24 O 0.93117 -0.11600 -0.03598
 O25 O 0.89794 -0.03257 -0.06571
 O26 O 1.10459 0.03074 -0.06508
 O27 O 1.03257 -0.10461 -0.06496
 O28 O 0.96896 0.10257 -0.06596
 Co29 Co 1.09922 -0.00101 0.00103
 Co30 Co 0.90238 -0.00068 0.00028
 Co31 Co 1.00061 0.09795 0.00022
 Co32 Co 1.00063 -0.09946 0.00092
 O33 O 1.00073 -0.00079 0.00062
 C34 C 1.08720 -0.09747 -0.07092
 C35 C 0.91425 0.09580 -0.07194
 C36 C 1.09734 0.08552 -0.07144
 C37 C 0.90469 -0.08743 -0.07162
 O38 O 1.11559 0.57100 0.53540
 O39 O 0.88584 0.43085 0.53655
 O40 O 0.93116 0.61597 0.53617
 O41 O 1.07040 0.38577 0.53635
 O42 O 0.89794 0.53253 0.56590
 O43 O 1.10459 0.46923 0.56528
 O44 O 0.96896 0.39740 0.56615
 O45 O 1.03257 0.60457 0.56515
 C46 C 1.08720 0.59744 0.57111
 C47 C 0.91425 0.40416 0.57214
 C48 C 0.90469 0.58740 0.57181
 C49 C 1.09734 0.41444 0.57163
 O50 O 1.11539 0.43098 0.46293
 O51 O 0.88576 0.57040 0.46343
 O52 O 1.07013 0.61620 0.46231
 O53 O 0.93090 0.38539 0.46352
 O54 O 0.89729 0.46871 0.43392
 O55 O 1.10386 0.53280 0.43294
 O56 O 1.03220 0.39675 0.43394
 O57 O 0.96867 0.60385 0.43336
 Co58 Co 1.09922 0.50098 0.49916
 Co59 Co 0.90238 0.50065 0.49991
 Co60 Co 1.00063 0.59943 0.49927
 Co61 Co 1.00061 0.40202 0.49997
 O62 O 1.00073 0.50076 0.49957
 C63 C 1.08678 0.40404 0.42764
 C64 C 0.91401 0.59676 0.42760
 C65 C 1.09708 0.58771 0.42685
 C66 C 0.90416 0.41385 0.42798
 O67 O 0.61412 0.06912 0.53655
 O68 O 0.38438 -0.07103 0.53540
 O69 O 0.42957 0.11420 0.53635
 O70 O 0.56880 -0.11600 0.53617
 O71 O 0.39537 0.03074 0.56528
 O72 O 0.60203 -0.03257 0.56590
 O73 O 0.46739 -0.10461 0.56515
 O74 O 0.53100 0.10257 0.56615
 C75 C 0.58571 0.09580 0.57214
 C76 C 0.41277 -0.09747 0.57111
 C77 C 0.40262 0.08552 0.57163
 C78 C 0.59527 -0.08743 0.57181
 O79 O 0.61421 -0.07044 0.46343
 O80 O 0.38458 0.06899 0.46293
 O81 O 0.56906 0.11458 0.46352
 O82 O 0.42984 -0.11623 0.46231
 O83 O 0.39610 -0.03284 0.43294
 O84 O 0.60267 0.03125 0.43392
 O85 O 0.53130 -0.10388 0.43336
 O86 O 0.46777 0.10322 0.43394
 Co87 Co 0.59758 -0.00068 0.49991
 Co88 Co 0.40074 -0.00102 0.49916
 Co89 Co 0.49935 0.09795 0.49997
 Co90 Co 0.49934 -0.09946 0.49927
 O91 O 0.49923 -0.00079 0.49957
 C92 C 0.58595 -0.09679 0.42760
 C93 C 0.41319 0.09592 0.42764
 C94 C 0.59581 0.08611 0.42798
 C95 C 0.40289 -0.08774 0.42685
 O96 O 0.61421 0.57040 0.03676
 O97 O 0.38458 0.43098 0.03726
 O98 O 0.42984 0.61620 0.03788
 O99 O 0.56906 0.38538 0.03667
 O100 O 0.39610 0.53280 0.06726
 O101 O 0.60267 0.46871 0.06627
 O102 O 0.46777 0.39675 0.06625
 O103 O 0.53130 0.60385 0.06683
 C104 C 0.58595 0.59676 0.07259
 C105 C 0.41319 0.40404 0.07255
 C106 C 0.40289 0.58771 0.07334
 C107 C 0.59581 0.41385 0.07221
 O108 O 0.61412 0.43085 -0.03636
 O109 O 0.38438 0.57099 -0.03521
 O110 O 0.56880 0.61597 -0.03598
 O111 O 0.42957 0.38577 -0.03616
 O112 O 0.39537 0.46923 -0.06508
 O113 O 0.60203 0.53253 -0.06571
 O114 O 0.53100 0.39740 -0.06596
 O115 O 0.46739 0.60457 -0.06496
 Co116 Co 0.59758 0.50065 0.00028
 Co117 Co 0.40074 0.50098 0.00103
 Co118 Co 0.49934 0.59943 0.00092
 Co119 Co 0.49935 0.40202 0.00022
 O120 O 0.49923 0.50076 0.00062
 C121 C 0.58572 0.40416 -0.07194
 C122 C 0.41277 0.59744 -0.07092
 C123 C 0.59527 0.58740 -0.07162
 C124 C 0.40262 0.41444 -0.07144
 C125 C 1.21190 0.21223 0.21619
 C126 C 1.18113 0.18311 0.18624
 C127 C 1.14633 0.15110 0.14888
 C128 C 1.11808 0.12521 0.11503
 C129 C 1.21193 0.71226 0.71609
 C130 C 1.18133 0.68333 0.68583
 C131 C 1.14677 0.65168 0.64802
 C132 C 1.11864 0.62621 0.61383
 C133 C 0.71176 0.21217 0.71603
 C134 C 0.68086 0.18313 0.68593
 C135 C 0.64581 0.15116 0.64846
 C136 C 0.61732 0.12526 0.61461
 C137 C 0.71189 0.71225 0.21619
 C138 C 0.68104 0.68320 0.18624
 C139 C 0.64608 0.65135 0.14889
 C140 C 0.61762 0.62569 0.11505
 C141 C 0.78808 -0.21228 0.21619
 C142 C 0.81892 -0.18323 0.18624
 C143 C 0.85389 -0.15139 0.14889
 C144 C 0.88235 -0.12573 0.11505
 C145 C 0.78820 0.28779 0.71603
 C146 C 0.81910 0.31683 0.68593
 C147 C 0.85415 0.34880 0.64846
 C148 C 0.88264 0.37471 0.61461
 C149 C 0.28803 -0.21229 0.71609
 C150 C 0.31863 -0.18336 0.68583
 C151 C 0.35319 -0.15172 0.64802
 C152 C 0.38133 -0.12625 0.61383
 C153 C 0.28807 0.28773 0.21620
 C154 C 0.31884 0.31686 0.18624
 C155 C 0.35364 0.34887 0.14888
 C156 C 0.38188 0.37475 0.11503
 C157 C 0.78820 0.21217 -0.21583
 C158 C 0.81910 0.18314 -0.18574
 C159 C 0.85415 0.15116 -0.14826
 C160 C 0.88264 0.12526 -0.11442
 C161 C 0.78808 0.71225 0.28400
 C162 C 0.81892 0.68320 0.31395
 C163 C 0.85389 0.65135 0.35130
 C164 C 0.88235 0.62569 0.38515
 C165 C 0.28807 0.21223 0.28400
 C166 C 0.31884 0.18311 0.31396
 C167 C 0.35364 0.15109 0.35131
 C168 C 0.38188 0.12521 0.38517
 C169 C 0.28803 0.71226 -0.21590
 C170 C 0.31863 0.68333 -0.18564
 C171 C 0.35319 0.65168 -0.14783
 C172 C 0.38133 0.62621 -0.11364
 C173 C 1.21193 -0.21229 -0.21590
 C174 C 1.18133 -0.18336 -0.18564
 C175 C 1.14677 -0.15172 -0.14783
 C176 C 1.11864 -0.12624 -0.11364
 C177 C 1.21190 0.28773 0.28400
 C178 C 1.18113 0.31685 0.31396
 C179 C 1.14633 0.34887 0.35131
 C180 C 1.11808 0.37475 0.38517
 C181 C 0.71189 -0.21228 0.28400
 C182 C 0.68104 -0.18323 0.31395
 C183 C 0.64608 -0.15139 0.35130
 C184 C 0.61762 -0.12573 0.38515
 C185 C 0.71176 0.28779 -0.21583
 C186 C 0.68086 0.31683 -0.18574
 C187 C 0.64581 0.34880 -0.14826
 C188 C 0.61732 0.37471 -0.11442
 C189 C 1.21235 0.21167 -0.21586
 C190 C 1.18357 0.18067 -0.18570
 C191 C 1.15200 0.14554 -0.14809
 C192 C 1.12645 0.11704 -0.11408
 C193 C 1.21411 0.71364 0.28247
 C194 C 1.18489 0.68276 0.31268
 C195 C 1.15274 0.64785 0.35036
 C196 C 1.12670 0.61944 0.38432
 C197 C 0.71228 0.21175 0.28413
 C198 C 0.68320 0.18096 0.31423
 C199 C 0.65116 0.14612 0.35173
 C200 C 0.62521 0.11776 0.38559
 C201 C 0.71224 0.71183 -0.21587
 C202 C 0.68300 0.68132 -0.18570
 C203 C 0.65072 0.64691 -0.14807
 C204 C 0.62466 0.61886 -0.11410
 C205 C 0.78773 -0.21186 -0.21587
 C206 C 0.81697 -0.18135 -0.18570
 C207 C 0.84924 -0.14694 -0.14808
 C208 C 0.87531 -0.11890 -0.11410
 C209 C 0.78768 0.28822 0.28413
 C210 C 0.81676 0.31900 0.31423
 C211 C 0.84881 0.35384 0.35173
 C212 C 0.87475 0.38220 0.38559
 C213 C 0.28585 -0.21367 0.28247
 C214 C 0.31507 -0.18280 0.31268
 C215 C 0.34722 -0.14788 0.35036
 C216 C 0.37326 -0.11947 0.38432
 C217 C 0.28761 0.28830 -0.21586
 C218 C 0.31639 0.31930 -0.18570
 C219 C 0.34797 0.35443 -0.14809
 C220 C 0.37352 0.38292 -0.11408
 C221 C 1.21411 -0.21367 0.21772
 C222 C 1.18489 -0.18280 0.18751
 C223 C 1.15274 -0.14788 0.14983
 C224 C 1.12670 -0.11947 0.11587
 C225 C 1.21235 0.28830 0.71605
 C226 C 1.18357 0.31930 0.68589
 C227 C 1.15200 0.35443 0.64828
 C228 C 1.12644 0.38292 0.61427
 C229 C 0.71224 -0.21186 0.71606
 C230 C 0.68300 -0.18135 0.68589
 C231 C 0.65072 -0.14694 0.64827
 C232 C 0.62465 -0.11890 0.61430
 C233 C 0.71228 0.28822 0.21607
 C234 C 0.68320 0.31900 0.18596
 C235 C 0.65116 0.35384 0.14846
 C236 C 0.62521 0.38220 0.11460
 C237 C 0.78768 0.21175 0.21607
 C238 C 0.81676 0.18096 0.18596
 C239 C 0.84881 0.14613 0.14846
 C240 C 0.87475 0.11776 0.11460
 C241 C 0.78773 0.71183 0.71606
 C242 C 0.81697 0.68132 0.68589
 C243 C 0.84924 0.64691 0.64827
 C244 C 0.87531 0.61886 0.61430
 C245 C 0.28761 0.21167 0.71605
 C246 C 0.31639 0.18067 0.68589
 C247 C 0.34796 0.14554 0.64828
 C248 C 0.37352 0.11704 0.61427
 C249 C 0.28585 0.71364 0.21772
 C250 C 0.31507 0.68276 0.18751
 C251 C 0.34722 0.64785 0.14983
 C252 C 0.37326 0.61944 0.11587
   
