data_POSCAR
  _audit_creation_date              2014-09-24
  _audit_creation_method            'ToBaCCo'
  _symmetry_space_group_name_H-M    'P1'
  _symmetry_Int_Tables_number       1
  _symmetry_cell_setting            triclinic
  loop_
  _symmetry_equiv_pos_as_xyz
 x,y,z
_cell_length_a 32.1502
_cell_length_b 32.1483
_cell_length_c 32.0819
_cell_angle_alpha 89.875000
_cell_angle_beta 90.123700
_cell_angle_gamma 90.000200
loop_
  _atom_site_label
  _atom_site_type_symbol
  _atom_site_fract_x
  _atom_site_fract_y
  _atom_site_fract_z
O1 O 0.55823 0.10437 0.00435
 O2 O 0.60448 0.05018 0.00160
 C3 C 0.59580 0.08954 0.00381
 O4 O 0.44169 -0.00357 0.10565
 O5 O 0.39550 -0.00042 0.05118
 C6 C 0.40414 -0.00286 0.09065
 O7 O 0.55800 0.00217 0.10606
 O8 O 0.60432 -0.00042 0.05207
 C9 C 0.59577 0.00154 0.09162
 O10 O 0.44202 0.10448 -0.00193
 O11 O 0.39567 0.05035 0.00072
 C12 C 0.40442 0.08971 -0.00149
 Zr13 Zr 0.50008 0.07382 0.00145
 O14 O 0.49518 0.11956 0.04860
 O15 O 0.50494 0.12096 -0.04446
 Zr16 Zr 0.49993 -0.00055 0.07526
 O17 O 0.49509 0.04568 0.12191
 O18 O 0.50466 -0.04722 0.12171
 O19 O 0.53737 0.04241 0.04434
 O20 O 0.46368 0.04203 0.04364
 O21 O 0.44191 0.00318 -0.10397
 O22 O 0.39561 0.00010 -0.04983
 C23 C 0.40433 0.00249 -0.08924
 O24 O 0.55817 -0.10483 -0.00190
 O25 O 0.60445 -0.05067 0.00112
 C26 C 0.59575 -0.09002 -0.00123
 O27 O 0.44209 -0.10503 0.00416
 O28 O 0.39580 -0.05084 0.00213
 C29 C 0.40453 -0.09022 0.00408
 O30 O 0.55812 -0.00267 -0.10364
 O31 O 0.60442 -0.00009 -0.04925
 C32 C 0.59570 -0.00216 -0.08873
 Zr33 Zr 0.50002 0.00012 -0.07314
 O34 O 0.49520 -0.04619 -0.11973
 O35 O 0.50488 0.04677 -0.11957
 Zr36 Zr 0.50003 -0.07426 0.00084
 O37 O 0.49509 -0.12006 -0.04627
 O38 O 0.50491 -0.12130 0.04687
 Zr39 Zr 0.56243 -0.00024 0.00127
 Zr40 Zr 0.43759 -0.00018 0.00081
 O41 O 0.46368 -0.04251 -0.04171
 O42 O 0.53735 -0.04288 -0.04191
 O43 O 0.46282 0.04293 -0.04186
 O44 O 0.53621 -0.04289 0.04362
 O45 O 0.53626 0.04243 -0.04120
 O46 O 0.46273 -0.04323 0.04375
 H47 H 0.44506 0.05935 0.06101
 H48 H 0.55478 -0.06037 0.06105
 H49 H 0.44493 -0.05982 -0.05903
 H50 H 0.55484 0.05990 -0.05854
 H51 H 0.48118 -0.06670 0.11770
 H52 H 0.48266 -0.11641 0.06752
 H53 H 0.51889 -0.11635 -0.06540
 H54 H 0.51843 -0.06593 -0.11553
 H55 H 0.48161 0.06646 -0.11547
 H56 H 0.48257 0.11622 -0.06511
 H57 H 0.51907 0.11593 0.06774
 H58 H 0.51830 0.06545 0.11783
 O59 O 0.00341 0.44155 -0.10584
 O60 O 0.00037 0.39535 -0.05139
 C61 C 0.00273 0.40399 -0.09085
 O62 O 0.10490 0.55776 0.00280
 O63 O 0.05080 0.60410 0.00016
 C64 C 0.09014 0.59534 0.00253
 O65 O 0.10481 0.44181 -0.00346
 O66 O 0.05059 0.39556 -0.00191
 C67 C 0.08998 0.40426 -0.00349
 O68 O -0.00260 0.55777 -0.10638
 O69 O -0.00081 0.60409 -0.05239
 C70 C -0.00250 0.59553 -0.09194
 Zr71 Zr 0.00060 0.49979 -0.07546
 O72 O 0.04784 0.50465 -0.12111
 O73 O -0.04507 0.49494 -0.12284
 Zr74 Zr 0.07411 0.49982 -0.00068
 O75 O 0.12062 0.50479 -0.04707
 O76 O 0.12035 0.49483 0.04616
 O77 O 0.04314 0.46250 -0.04371
 O78 O 0.04288 0.53622 -0.04361
 O79 O -0.10440 0.55816 -0.00518
 O80 O -0.05019 0.60441 -0.00210
 C81 C -0.08955 0.59573 -0.00456
 O82 O -0.00353 0.44174 0.10374
 O83 O -0.00045 0.39544 0.04961
 C84 C -0.00287 0.40416 0.08901
 O85 O 0.00237 0.55800 0.10339
 O86 O -0.00006 0.60432 0.04899
 C87 C 0.00192 0.59559 0.08847
 O88 O -0.10465 0.44187 0.00104
 O89 O -0.05053 0.39550 -0.00119
 C90 C -0.08989 0.40427 0.00072
 Zr91 Zr -0.07396 0.49994 -0.00192
 O92 O -0.12083 0.50489 0.04406
 O93 O -0.11997 0.49510 -0.04900
 Zr94 Zr -0.00052 0.49985 0.07292
 O95 O -0.04748 0.50479 0.11884
 O96 O 0.04545 0.49502 0.12005
 Zr97 Zr -0.00001 0.43744 -0.00101
 Zr98 Zr 0.00017 0.56230 -0.00151
 O99 O -0.04261 0.53620 0.04075
 O100 O -0.04319 0.46260 0.04145
 O101 O -0.04245 0.53713 -0.04472
 O102 O 0.04223 0.46356 0.04175
 O103 O -0.04213 0.46362 -0.04405
 O104 O 0.04263 0.53706 0.04194
 H105 H 0.06022 0.55509 -0.06078
 H106 H 0.05950 0.44485 0.05922
 H107 H -0.06009 0.55481 0.05798
 H108 H -0.05944 0.44504 -0.06154
 H109 H 0.11571 0.51761 0.06628
 H110 H 0.06537 0.51809 0.11591
 H111 H -0.06685 0.48121 0.11492
 H112 H -0.11660 0.48195 0.06421
 H113 H -0.11609 0.51872 -0.06841
 H114 H -0.06572 0.51722 -0.11811
 H115 H 0.06670 0.48059 -0.11753
 H116 H 0.11651 0.48161 -0.06687
 O117 O -0.10561 -0.00403 0.55816
 O118 O -0.05133 -0.00134 0.60454
 C119 C -0.09071 -0.00348 0.59582
 O120 O 0.00150 -0.10578 0.44169
 O121 O -0.00136 -0.05152 0.39528
 C122 C 0.00084 -0.09090 0.40402
 O123 O -0.00408 -0.10596 0.55817
 O124 O -0.00101 -0.05191 0.60456
 C125 C -0.00335 -0.09125 0.59583
 O126 O -0.10585 0.00193 0.44166
 O127 O -0.05181 -0.00091 0.39525
 C128 C -0.09115 0.00135 0.40399
 Zr129 Zr -0.07514 -0.00110 0.49990
 O130 O -0.12166 -0.04748 0.49513
 O131 O -0.12148 0.04545 0.50469
 Zr132 Zr -0.00123 -0.07528 0.49993
 O133 O -0.04778 -0.12163 0.49514
 O134 O 0.04516 -0.12180 0.50478
 O135 O -0.04396 -0.04408 0.53731
 O136 O -0.04371 -0.04355 0.46359
 O137 O -0.00397 0.10352 0.44161
 O138 O -0.00127 0.04944 0.39524
 C139 C -0.00345 0.08879 0.40396
 O140 O 0.10368 0.00145 0.55811
 O141 O 0.04964 -0.00142 0.60452
 C142 C 0.08898 0.00082 0.59577
 O143 O 0.10343 -0.00433 0.44172
 O144 O 0.04922 -0.00121 0.39528
 C145 C 0.08859 -0.00361 0.40405
 O146 O 0.00221 0.10332 0.55801
 O147 O -0.00071 0.04914 0.60449
 C148 C 0.00165 0.08851 0.59569
 Zr149 Zr -0.00096 0.07281 0.49984
 O150 O 0.04556 0.11919 0.49496
 O151 O -0.04735 0.11930 0.50466
 Zr152 Zr 0.07294 -0.00137 0.49990
 O153 O 0.11944 0.04502 0.49502
 O154 O 0.11931 -0.04792 0.50479
 Zr155 Zr -0.00096 -0.00132 0.56246
 Zr156 Zr -0.00122 -0.00113 0.43733
 O157 O 0.04137 0.04120 0.46353
 O158 O 0.04193 0.04151 0.53725
 O159 O -0.04397 0.04177 0.46248
 O160 O 0.04136 -0.04383 0.53626
 O161 O -0.04339 0.04125 0.53620
 O162 O 0.04162 -0.04412 0.46253
 H163 H -0.06116 -0.06088 0.44497
 H164 H 0.05876 -0.06127 0.55489
 H165 H 0.05875 0.05858 0.44489
 H166 H -0.06069 0.05865 0.55482
 H167 H 0.06481 -0.11768 0.48145
 H168 H 0.11499 -0.06769 0.48160
 H169 H 0.11538 0.06473 0.51828
 H170 H 0.06539 0.11491 0.51818
 H171 H -0.06714 0.11521 0.48139
 H172 H -0.11736 0.06517 0.48136
 H173 H -0.11749 -0.06723 0.51844
 H174 H -0.06748 -0.11743 0.51838
 C175 C -0.30466 0.17940 0.00724
 C176 C -0.34634 0.19160 0.01207
 C177 C -0.37826 0.16235 0.01114
 C178 C -0.36955 0.11993 0.00542
 C179 C -0.32784 0.10742 0.00101
 C180 C -0.29569 0.13691 0.00185
 C181 C -0.27138 0.21139 0.00742
 N182 N -0.23073 0.20124 0.00165
 N183 N -0.20140 0.23065 0.00121
 C184 C -0.21159 0.27136 0.00650
 N185 N -0.25216 0.28130 0.01240
 N186 N -0.28134 0.25203 0.01285
 C187 C -0.17970 0.30472 0.00540
 C188 C -0.19200 0.34649 0.00910
 C189 C -0.16279 0.37843 0.00761
 C190 C -0.12031 0.36965 0.00246
 C191 C -0.10773 0.32786 -0.00100
 C192 C -0.13717 0.29569 0.00040
 H193 H -0.35456 0.22397 0.01637
 H194 H -0.40992 0.17321 0.01485
 H195 H -0.32006 0.07496 -0.00343
 H196 H -0.26391 0.12645 -0.00192
 H197 H -0.22440 0.35475 0.01300
 H198 H -0.17371 0.41016 0.01054
 H199 H -0.07522 0.32002 -0.00498
 H200 H -0.12664 0.26385 -0.00250
 C201 C 0.30498 0.82002 0.00898
 C202 C 0.29600 0.86247 0.00315
 C203 C 0.32816 0.89193 0.00185
 C204 C 0.36989 0.87941 0.00618
 C205 C 0.37864 0.83702 0.01231
 C206 C 0.34670 0.80781 0.01374
 C207 C 0.27167 0.78808 0.00962
 N208 N 0.28155 0.74752 0.01593
 N209 N 0.25233 0.71828 0.01576
 C210 C 0.21180 0.72818 0.00927
 N211 N 0.20170 0.76882 0.00313
 N212 N 0.23106 0.79820 0.00330
 C213 C 0.17989 0.69485 0.00826
 C214 C 0.13746 0.70387 0.00233
 C215 C 0.10802 0.67171 0.00072
 C216 C 0.12051 0.62995 0.00486
 C217 C 0.16288 0.62117 0.01108
 C218 C 0.19209 0.65311 0.01280
 H219 H 0.26419 0.87294 -0.00057
 H220 H 0.32036 0.92437 -0.00290
 H221 H 0.41033 0.82618 0.01598
 H222 H 0.35492 0.77546 0.01833
 H223 H 0.12700 0.73569 -0.00123
 H224 H 0.07559 0.67954 -0.00408
 H225 H 0.17372 0.58946 0.01461
 H226 H 0.22442 0.64486 0.01747
 C227 C 0.30491 0.17956 -0.00636
 C228 C 0.29590 0.13707 -0.00085
 C229 C 0.32805 0.10760 0.00055
 C230 C 0.36980 0.12013 -0.00340
 C231 C 0.37857 0.16257 -0.00913
 C232 C 0.34664 0.19179 -0.01063
 C233 C 0.27159 0.21149 -0.00732
 N234 N 0.28152 0.25207 -0.01336
 N235 N 0.25229 0.28129 -0.01362
 C236 C 0.21169 0.27136 -0.00787
 N237 N 0.20153 0.23070 -0.00197
 N238 N 0.23090 0.20134 -0.00171
 C239 C 0.17975 0.30468 -0.00744
 C240 C 0.13725 0.29569 -0.00218
 C241 C 0.10779 0.32786 -0.00116
 C242 C 0.12035 0.36961 -0.00523
 C243 C 0.16279 0.37835 -0.01077
 C244 C 0.19201 0.34641 -0.01190
 H245 H 0.26407 0.12658 0.00250
 H246 H 0.32022 0.07513 0.00498
 H247 H 0.41028 0.17344 -0.01248
 H248 H 0.35490 0.22417 -0.01496
 H249 H 0.12675 0.26388 0.00130
 H250 H 0.07531 0.32006 0.00314
 H251 H 0.17368 0.41005 -0.01421
 H252 H 0.22439 0.35464 -0.01607
 C253 C -0.30463 0.82029 -0.00623
 C254 C -0.29565 0.86275 -0.00064
 C255 C -0.32784 0.89216 0.00086
 C256 C -0.36960 0.87961 -0.00307
 C257 C -0.37834 0.83718 -0.00881
 C258 C -0.34638 0.80801 -0.01041
 C259 C -0.27127 0.78842 -0.00744
 N260 N -0.28117 0.74792 -0.01396
 N261 N -0.25190 0.71874 -0.01447
 C262 C -0.21130 0.72863 -0.00850
 N263 N -0.20118 0.76921 -0.00212
 N264 N -0.23059 0.79853 -0.00161
 C265 C -0.17932 0.69534 -0.00833
 C266 C -0.13687 0.70425 -0.00239
 C267 C -0.10741 0.67208 -0.00148
 C268 C -0.11990 0.63041 -0.00637
 C269 C -0.16228 0.62176 -0.01268
 C270 C -0.19150 0.65371 -0.01368
 H271 H -0.26382 0.87326 0.00265
 H272 H -0.32003 0.92463 0.00530
 H273 H -0.41005 0.82628 -0.01212
 H274 H -0.35462 0.77565 -0.01477
 H275 H -0.12643 0.73599 0.00178
 H276 H -0.07498 0.67980 0.00341
 H277 H -0.17311 0.59014 -0.01678
 H278 H -0.22384 0.64554 -0.01842
 C279 C 0.00559 -0.30505 0.17852
 C280 C 0.00014 -0.29596 0.13592
 C281 C -0.00083 -0.32806 0.10637
 C282 C 0.00350 -0.36981 0.11892
 C283 C 0.00921 -0.37864 0.16145
 C284 C 0.01028 -0.34678 0.19076
 C285 C 0.00604 -0.27184 0.21058
 N286 N 0.01179 -0.28193 0.25127
 N287 N 0.01162 -0.25282 0.28061
 C288 C 0.00569 -0.21220 0.27070
 N289 N 0.00007 -0.20190 0.22993
 N290 N 0.00023 -0.23114 0.20045
 C291 C 0.00491 -0.18040 0.30415
 C292 C -0.00040 -0.13787 0.29519
 C293 C -0.00156 -0.10852 0.32746
 C294 C 0.00244 -0.12121 0.36929
 C295 C 0.00793 -0.16370 0.37802
 C296 C 0.00919 -0.19281 0.34597
 H297 H -0.00352 -0.26414 0.12543
 H298 H -0.00526 -0.32019 0.07382
 H299 H 0.01287 -0.41034 0.17235
 H300 H 0.01460 -0.35510 0.22320
 H301 H -0.00375 -0.12725 0.26331
 H302 H -0.00582 -0.07600 0.31965
 H303 H 0.01129 -0.17470 0.40978
 H304 H 0.01336 -0.22523 0.35420
 C305 C 0.00674 0.30410 0.81974
 C306 C 0.01159 0.34575 0.80727
 C307 C 0.01041 0.37781 0.83636
 C308 C 0.00443 0.36925 0.87888
 C309 C -0.00007 0.32759 0.89165
 C310 C 0.00101 0.29531 0.86233
 C311 C 0.00731 0.27064 0.78796
 N312 N 0.00105 0.23007 0.79832
 N313 N 0.00096 0.20059 0.76908
 C314 C 0.00712 0.21052 0.72832
 N315 N 0.01352 0.25101 0.71818
 N316 N 0.01361 0.28035 0.74728
 C317 C 0.00632 0.17847 0.69511
 C318 C 0.01119 0.19055 0.65328
 C319 C 0.00979 0.16126 0.62141
 C320 C 0.00355 0.11892 0.63032
 C321 C -0.00096 0.10653 0.67217
 C322 C 0.00035 0.13607 0.70427
 H323 H 0.01611 0.35383 0.77481
 H324 H 0.01418 0.40944 0.82531
 H325 H -0.00472 0.31992 0.92420
 H326 H -0.00278 0.26356 0.87300
 H327 H 0.01591 0.22285 0.64490
 H328 H 0.01359 0.17203 0.58964
 H329 H -0.00579 0.07413 0.68009
 H330 H -0.00346 0.12571 0.73617
 C331 C -0.00726 0.30444 0.17901
 C332 C -0.00169 0.29554 0.13646
 C333 C -0.00048 0.32777 0.10695
 C334 C -0.00467 0.36948 0.11949
 C335 C -0.01048 0.37814 0.16198
 C336 C -0.01179 0.34613 0.19126
 C337 C -0.00799 0.27102 0.21098
 N338 N -0.01407 0.28081 0.25162
 N339 N -0.01413 0.25148 0.28087
 C340 C -0.00812 0.21094 0.27091
 N341 N -0.00218 0.20093 0.23018
 N342 N -0.00212 0.23040 0.20079
 C343 C -0.00753 0.17889 0.30426
 C344 C -0.00188 0.13644 0.29524
 C345 C -0.00078 0.10688 0.32745
 C346 C -0.00517 0.11927 0.36926
 C347 C -0.01106 0.16165 0.37802
 C348 C -0.01226 0.19097 0.34604
 H349 H 0.00185 0.26376 0.12596
 H350 H 0.00402 0.32003 0.07444
 H351 H -0.01400 0.40981 0.17285
 H352 H -0.01618 0.35428 0.22368
 H353 H 0.00182 0.12608 0.26338
 H354 H 0.00379 0.07445 0.31963
 H355 H -0.01476 0.17242 0.40976
 H356 H -0.01672 0.22330 0.35430
 C357 C -0.00644 -0.30727 0.82055
 C358 C -0.00737 -0.34902 0.80789
 C359 C -0.00613 -0.38115 0.83701
 C360 C -0.00400 -0.37278 0.88015
 C361 C -0.00336 -0.33069 0.89287
 C362 C -0.00447 -0.29840 0.86340
 C363 C -0.00726 -0.27377 0.78865
 N364 N -0.00372 -0.23295 0.79914
 N365 N -0.00386 -0.20342 0.76979
 C366 C -0.00757 -0.21358 0.72881
 N367 N -0.01126 -0.25432 0.71854
 N368 N -0.01110 -0.28370 0.74774
 C369 C -0.00713 -0.18146 0.69550
 C370 C -0.01078 -0.19363 0.65360
 C371 C -0.00969 -0.16428 0.62166
 C372 C -0.00495 -0.12176 0.63053
 C373 C -0.00163 -0.10930 0.67244
 C374 C -0.00267 -0.13890 0.70463
 H375 H -0.00886 -0.35716 0.77519
 H376 H -0.00682 -0.41271 0.82522
 H377 H -0.00181 -0.32244 0.92557
 H378 H -0.00377 -0.26653 0.87420
 H379 H -0.01434 -0.22605 0.64524
 H380 H -0.01252 -0.17513 0.58985
 H381 H 0.00203 -0.07677 0.68036
 H382 H 0.00020 -0.12847 0.73657
 C383 C 0.30461 0.00624 0.82071
 C384 C 0.29574 0.00067 0.86329
 C385 C 0.32797 -0.00029 0.89281
 C386 C 0.36965 0.00416 0.88027
 C387 C 0.37828 0.01002 0.83775
 C388 C 0.34627 0.01108 0.80845
 C389 C 0.27121 0.00663 0.78872
 N390 N 0.28099 0.01243 0.74801
 N391 N 0.25168 0.01218 0.71875
 C392 C 0.21115 0.00612 0.72877
 N393 N 0.20114 0.00045 0.76956
 N394 N 0.23060 0.00070 0.79896
 C395 C 0.17911 0.00522 0.69542
 C396 C 0.13665 -0.00024 0.70450
 C397 C 0.10709 -0.00151 0.67231
 C398 C 0.11948 0.00253 0.63045
 C399 C 0.16189 0.00818 0.62161
 C400 C 0.19121 0.00955 0.65358
 H401 H 0.26399 -0.00311 0.87380
 H402 H 0.32024 -0.00484 0.92535
 H403 H 0.40993 0.01375 0.82688
 H404 H 0.35441 0.01549 0.77601
 H405 H 0.12627 -0.00363 0.73641
 H406 H 0.07464 -0.00588 0.68019
 H407 H 0.17267 0.01159 0.58983
 H408 H 0.22355 0.01383 0.64526
 C409 C -0.30705 0.00467 0.17916
 C410 C -0.34879 0.00608 0.19179
 C411 C -0.38091 0.00506 0.16266
 C412 C -0.37254 0.00270 0.11953
 C413 C -0.33045 0.00151 0.10684
 C414 C -0.29818 0.00241 0.13633
 C415 C -0.27357 0.00538 0.21108
 N416 N -0.23275 0.00168 0.20063
 N417 N -0.20325 0.00178 0.23000
 C418 C -0.21341 0.00563 0.27095
 N419 N -0.25415 0.00946 0.28117
 N420 N -0.28350 0.00933 0.25195
 C421 C -0.18132 0.00518 0.30428
 C422 C -0.19350 0.00888 0.34615
 C423 C -0.16417 0.00778 0.37812
 C424 C -0.12166 0.00300 0.36928
 C425 C -0.10918 -0.00036 0.32740
 C426 C -0.13876 0.00069 0.29519
 H427 H -0.35694 0.00780 0.22447
 H428 H -0.41246 0.00615 0.17442
 H429 H -0.32221 -0.00026 0.07416
 H430 H -0.26630 0.00134 0.12556
 H431 H -0.22592 0.01246 0.35449
 H432 H -0.17503 0.01064 0.40992
 H433 H -0.07665 -0.00405 0.31951
 H434 H -0.12831 -0.00221 0.26327
 C435 C 0.30422 -0.00730 0.18003
 C436 C 0.29543 -0.00148 0.13743
 C437 C 0.32772 -0.00024 0.10812
 C438 C 0.36939 -0.00465 0.12091
 C439 C 0.37794 -0.01069 0.16346
 C440 C 0.34587 -0.01203 0.19253
 C441 C 0.27075 -0.00809 0.21180
 N442 N 0.28045 -0.01459 0.25247
 N443 N 0.25110 -0.01470 0.28156
 C444 C 0.21060 -0.00832 0.27141
 N445 N 0.20068 -0.00196 0.23066
 N446 N 0.23018 -0.00185 0.20142
 C447 C 0.17855 -0.00775 0.30462
 C448 C 0.13615 -0.00166 0.29547
 C449 C 0.10661 -0.00055 0.32758
 C450 C 0.11899 -0.00536 0.36941
 C451 C 0.16133 -0.01172 0.37830
 C452 C 0.19061 -0.01293 0.34643
 H453 H 0.26368 0.00223 0.12673
 H454 H 0.32006 0.00444 0.07556
 H455 H 0.40958 -0.01439 0.17453
 H456 H 0.35395 -0.01661 0.22500
 H457 H 0.12580 0.00239 0.26358
 H458 H 0.07422 0.00438 0.31966
 H459 H 0.17208 -0.01576 0.41007
 H460 H 0.22290 -0.01775 0.35480
 C461 C -0.30492 -0.00638 0.82128
 C462 C -0.29581 -0.00108 0.86387
 C463 C -0.32792 0.00013 0.89340
 C464 C -0.36970 -0.00382 0.88084
 C465 C -0.37855 -0.00933 0.83830
 C466 C -0.34669 -0.01063 0.80902
 C467 C -0.27170 -0.00718 0.78925
 N468 N -0.28179 -0.01308 0.74861
 N469 N -0.25267 -0.01325 0.71928
 C470 C -0.21202 -0.00753 0.72916
 N471 N -0.20171 -0.00176 0.76989
 N472 N -0.23097 -0.00159 0.79935
 C473 C -0.18020 -0.00709 0.69572
 C474 C -0.13767 -0.00174 0.70464
 C475 C -0.10832 -0.00079 0.67236
 C476 C -0.12100 -0.00504 0.63057
 C477 C -0.16348 -0.01064 0.62190
 C478 C -0.19260 -0.01169 0.65395
 H479 H -0.26397 0.00225 0.87437
 H480 H -0.32003 0.00439 0.92595
 H481 H -0.41027 -0.01267 0.82739
 H482 H -0.35502 -0.01480 0.77658
 H483 H -0.12706 0.00186 0.73648
 H484 H -0.07581 0.00357 0.68012
 H485 H -0.17447 -0.01421 0.59017
 H486 H -0.22501 -0.01592 0.64577
   
