data_POSCAR
  _audit_creation_date              2014-09-24
  _audit_creation_method            'ToBaCCo'
  _symmetry_space_group_name_H-M    'P1'
  _symmetry_Int_Tables_number       1
  _symmetry_cell_setting            triclinic
  loop_
  _symmetry_equiv_pos_as_xyz
 x,y,z
_cell_length_a 22.2306
_cell_length_b 22.2307
_cell_length_c 21.8079
_cell_angle_alpha 90.130300
_cell_angle_beta 90.131600
_cell_angle_gamma 120.267600
loop_
  _atom_site_label
  _atom_site_type_symbol
  _atom_site_fract_x
  _atom_site_fract_y
  _atom_site_fract_z
C1 C 0.53619 0.10529 0.08358
 H2 H 0.58500 0.10559 0.08264
 C3 C 0.53013 0.15434 0.11881
 H4 H 0.57433 0.19245 0.14535
 C5 C 0.41969 0.05677 0.04840
 H6 H 0.37739 0.01961 0.01982
 C7 C 0.41145 0.10520 0.08304
 H8 H 0.36260 0.10491 0.08151
 N9 N 0.48143 0.05773 0.04943
 C10 C 0.53062 -0.10661 0.01881
 H11 H 0.53153 -0.10754 -0.03077
 C12 C 0.53942 -0.15509 0.05241
 H13 H 0.54739 -0.19338 0.02871
 C14 C 0.51574 -0.05784 0.11039
 H15 H 0.50453 -0.02123 0.13279
 C16 C 0.52428 -0.10537 0.14569
 H17 H 0.52027 -0.10476 0.19517
 Zn18 Zn 0.49896 -0.00123 -0.00064
 N19 N 0.51891 -0.05937 0.04811
 C20 C 0.63671 0.05782 -0.04946
 N21 N 0.57555 0.05803 -0.05055
 C22 C 0.56806 0.10503 -0.08460
 C23 C 0.62326 0.15428 -0.11965
 C24 C 0.69347 0.10646 -0.08393
 C25 C 0.36149 -0.10777 -0.02033
 C26 C 0.30395 -0.15691 -0.05399
 C27 C 0.36877 -0.10722 -0.14725
 C28 C 0.42505 -0.05906 -0.11180
 N29 N 0.42050 -0.06027 -0.04953
 H30 H 0.64208 0.02110 -0.02096
 H31 H 0.51926 0.10475 -0.08370
 H32 H 0.61694 0.19195 -0.14611
 H33 H 0.74233 0.10677 -0.08235
 H34 H 0.35983 -0.10837 0.02925
 H35 H 0.25774 -0.19528 -0.03009
 H36 H 0.37358 -0.10655 -0.19675
 H37 H 0.47293 -0.02219 -0.13409
 C38 C 0.53567 -0.15476 0.11640
 C39 C 0.46740 0.15458 0.11831
 C40 C 0.30782 -0.15700 -0.11808
 C41 C 0.68662 0.15528 -0.11908
 C42 C -0.10538 0.46372 0.58304
 H43 H -0.10568 0.41491 0.58399
 C44 C -0.15443 0.46977 0.54781
 H45 H -0.19255 0.42557 0.52128
 C46 C -0.05685 0.58023 0.61821
 H47 H -0.01969 0.62254 0.64678
 C48 C -0.10529 0.58846 0.58356
 H49 H -0.10500 0.63732 0.58508
 N50 N -0.05781 0.51849 0.61719
 C51 C 0.10654 0.46931 0.64780
 H52 H 0.10747 0.46841 0.69739
 C53 C 0.15501 0.46051 0.61421
 H54 H 0.19331 0.45254 0.63790
 C55 C 0.05775 0.48418 0.55622
 H56 H 0.02115 0.49539 0.53382
 C57 C 0.10528 0.47564 0.52092
 H58 H 0.10467 0.47965 0.47145
 Zn59 Zn 0.00116 0.50097 0.66726
 N60 N 0.05930 0.48102 0.61851
 C61 C -0.05789 0.36323 0.71608
 N62 N -0.05809 0.42439 0.71717
 C63 C -0.10508 0.43189 0.75124
 C64 C -0.15432 0.37670 0.78630
 C65 C -0.10653 0.30647 0.75056
 C66 C 0.10771 0.63846 0.68694
 C67 C 0.15683 0.69597 0.72063
 C68 C 0.10719 0.63122 0.81381
 C69 C 0.05901 0.57490 0.77841
 N70 N 0.06020 0.57944 0.71613
 H71 H -0.02118 0.35785 0.68757
 H72 H -0.10479 0.48069 0.75034
 H73 H -0.19198 0.38302 0.81276
 H74 H -0.10684 0.25761 0.74897
 H75 H 0.10834 0.64015 0.63735
 H76 H 0.19532 0.74228 0.69702
 H77 H 0.10685 0.62672 0.86329
 H78 H 0.02217 0.52703 0.80073
 C79 C 0.15467 0.46425 0.55021
 C80 C -0.15467 0.53251 0.54830
 C81 C 0.15686 0.69205 0.78463
 C82 C -0.15533 0.31333 0.78572
 C83 C 0.56887 0.46336 0.41744
 H84 H 0.51998 0.41453 0.41626
 C85 C 0.62408 0.46957 0.45273
 H86 H 0.61770 0.42547 0.47907
 C87 C 0.63769 0.57975 0.38278
 H88 H 0.64310 0.62195 0.35438
 C89 C 0.69448 0.58814 0.41749
 H90 H 0.74342 0.63701 0.41619
 N91 N 0.57643 0.51799 0.38352
 C92 C 0.36236 0.46834 0.35253
 H93 H 0.36043 0.46715 0.30294
 C94 C 0.30508 0.45972 0.38605
 H95 H 0.25869 0.45158 0.36230
 C96 C 0.42636 0.48384 0.44420
 H97 H 0.47432 0.49523 0.46667
 C98 C 0.37028 0.47548 0.47943
 H99 H 0.37505 0.47981 0.52891
 Zn100 Zn 0.49973 0.50017 0.33331
 N101 N 0.42149 0.48029 0.38190
 C102 C 0.42014 0.36221 0.28383
 N103 N 0.48191 0.42347 0.28309
 C104 C 0.53654 0.43103 0.24917
 C105 C 0.53033 0.37582 0.21389
 C106 C 0.41175 0.30542 0.24912
 C107 C 0.53156 0.63754 0.31408
 C108 C 0.54019 0.69482 0.28056
 C109 C 0.52443 0.62963 0.18718
 C110 C 0.51606 0.57355 0.22241
 N111 N 0.51961 0.57841 0.28471
 H112 H 0.37795 0.35680 0.31223
 H113 H 0.58537 0.47992 0.25035
 H114 H 0.57443 0.38220 0.18754
 H115 H 0.36289 0.25648 0.25042
 H116 H 0.53275 0.63947 0.36367
 H117 H 0.54833 0.74121 0.30431
 H118 H 0.52009 0.62486 0.13770
 H119 H 0.50467 0.52558 0.19994
 C120 C 0.30934 0.46389 0.45006
 C121 C 0.68754 0.53232 0.45252
 C122 C 0.53602 0.69056 0.21655
 C123 C 0.46757 0.31236 0.21410
 C124 C 0.20769 0.46121 0.51491
 C125 C 0.25336 0.46110 0.48530
 C126 C 0.53870 0.79222 0.15170
 C127 C 0.53881 0.74655 0.18131
 C128 C 0.25666 0.79429 0.84975
 C129 C 0.21049 0.74832 0.82003
 C130 C 0.79225 0.53735 0.51457
 C131 C 0.74557 0.53730 0.48628
 C132 C 0.46255 0.20766 0.15205
 C133 C 0.46260 0.25433 0.18034
 C134 C -0.25535 0.20855 0.84738
 C135 C -0.20860 0.25530 0.81927
   
