data_POSCAR
  _audit_creation_date              2014-09-24
  _audit_creation_method            'ToBaCCo'
  _symmetry_space_group_name_H-M    'P1'
  _symmetry_Int_Tables_number       1
  _symmetry_cell_setting            triclinic
  loop_
  _symmetry_equiv_pos_as_xyz
 x,y,z
_cell_length_a 28.3005
_cell_length_b 27.9701
_cell_length_c 30.4222
_cell_angle_alpha 90.292100
_cell_angle_beta 90.120400
_cell_angle_gamma 89.873000
loop_
  _atom_site_label
  _atom_site_type_symbol
  _atom_site_fract_x
  _atom_site_fract_y
  _atom_site_fract_z
B1 B 0.25976 0.22177 0.20755
 B2 B 0.27129 0.27932 0.21825
 B3 B 0.21616 0.26175 0.20675
 B4 B 0.20702 0.20751 0.22911
 B5 B 0.25809 0.19180 0.25523
 B6 B 0.29808 0.23662 0.24785
 B7 B 0.22337 0.27315 0.29430
 B8 B 0.21263 0.21537 0.28376
 B9 B 0.26790 0.23294 0.29522
 B10 B 0.27674 0.28725 0.27300
 B11 B 0.22568 0.30287 0.24667
 B12 B 0.18553 0.25785 0.25348
 B13 B 0.71320 0.76611 0.29015
 B14 B 0.76838 0.78480 0.27987
 B15 B 0.75861 0.72680 0.28914
 B16 B 0.70601 0.71174 0.26687
 B17 B 0.68372 0.76186 0.24235
 B18 B 0.72254 0.80767 0.25120
 B19 B 0.76673 0.73932 0.20173
 B20 B 0.71193 0.72018 0.21238
 B21 B 0.72182 0.77820 0.20297
 B22 B 0.77424 0.79359 0.22540
 B23 B 0.79666 0.74342 0.24910
 B24 B 0.75778 0.69753 0.24091
 B25 B 0.72308 0.24018 -0.30454
 B26 B 0.77934 0.22483 -0.29592
 B27 B 0.76514 0.28191 -0.30506
 B28 B 0.71284 0.29385 -0.28091
 B29 B 0.69506 0.24247 -0.25588
 B30 B 0.73659 0.19916 -0.26578
 B31 B 0.77842 0.27029 -0.21833
 B32 B 0.72201 0.28587 -0.22659
 B33 B 0.73625 0.22862 -0.21772
 B34 B 0.78847 0.21670 -0.24202
 B35 B 0.80628 0.26829 -0.26670
 B36 B 0.76469 0.31148 -0.25698
 B37 B 0.27919 0.77226 -0.28301
 B38 B 0.22298 0.78794 -0.27345
 B39 B 0.23659 0.73072 -0.28371
 B40 B 0.28932 0.71824 -0.26081
 B41 B 0.30819 0.76941 -0.23537
 B42 B 0.26673 0.81295 -0.24337
 B43 B 0.22593 0.74130 -0.19642
 B44 B 0.28203 0.72568 -0.20652
 B45 B 0.26836 0.78268 -0.19590
 B46 B 0.21551 0.79536 -0.21886
 B47 B 0.19657 0.74434 -0.24426
 B48 B 0.23810 0.70070 -0.23622
 B49 B 1.22524 1.27106 0.70287
 B50 B 1.20669 1.21685 0.71786
 B51 B 1.26312 1.22547 0.70397
 B52 B 1.28062 1.27952 0.72229
 B53 B 1.23321 1.30458 0.74781
 B54 B 1.18689 1.26549 0.74503
 B55 B 1.25721 1.22303 0.79233
 B56 B 1.27589 1.27742 0.77755
 B57 B 1.21912 1.26951 0.79089
 B58 B 1.20198 1.21484 0.77287
 B59 B 1.24964 1.18969 0.74678
 B60 B 1.29578 1.22884 0.75012
 B61 B 0.76979 0.72562 0.71102
 B62 B 0.77561 0.78356 0.72344
 B63 B 0.72338 0.76239 0.70628
 B64 B 0.71559 0.70713 0.72692
 B65 B 0.76447 0.69451 0.75753
 B66 B 0.80195 0.74221 0.75538
 B67 B 0.72075 0.77233 0.79442
 B68 B 0.71470 0.71426 0.78207
 B69 B 0.76701 0.73512 0.79898
 B70 B 0.77474 0.79058 0.77834
 B71 B 0.72578 0.80335 0.74744
 B72 B 0.68837 0.75557 0.75023
 B73 B 1.23007 0.73675 0.19801
 B74 B 1.28431 0.71906 0.21225
 B75 B 1.27440 0.77596 0.19814
 B76 B 1.22109 0.79290 0.21718
 B77 B 1.19812 0.74469 0.24332
 B78 B 1.23757 0.69862 0.24053
 B79 B 1.27924 0.77120 0.28656
 B80 B 1.22466 0.78881 0.27229
 B81 B 1.23392 0.73186 0.28638
 B82 B 1.28786 0.71505 0.26754
 B83 B 1.31082 0.76324 0.24046
 B84 B 1.27147 0.80938 0.24417
 B85 B 0.77548 1.27992 0.22051
 B86 B 0.71880 1.29084 0.23189
 B87 B 0.73544 1.23674 0.21392
 B88 B 0.78857 1.22316 0.23541
 B89 B 0.80476 1.27043 0.26723
 B90 B 0.76115 1.31277 0.26529
 B91 B 0.72360 1.23271 0.30188
 B92 B 0.78050 1.22137 0.29019
 B93 B 0.76472 1.27569 0.30814
 B94 B 0.71087 1.28924 0.28683
 B95 B 0.69474 1.24182 0.25421
 B96 B 0.73804 1.19941 0.25702
 N97 N 0.58931 1.07004 0.04708
 N98 N 0.61744 1.10698 0.05478
 N99 N 0.56422 0.96765 0.07988
 N100 N 0.57495 0.93558 0.10997
 N101 N 0.59773 0.97010 0.05022
 N102 N 0.63223 0.93985 0.05931
 N103 N 0.55593 1.06798 0.07690
 N104 N 0.55952 1.10379 0.10490
 C105 C 0.59777 1.12785 0.09080
 C106 C 0.61728 0.91839 0.09654
 N107 N 0.42801 0.95748 0.05138
 N108 N 0.39993 0.92105 0.06037
 N109 N 0.45574 1.06059 0.07758
 N110 N 0.44867 1.09660 0.10477
 N111 N 0.42173 1.05796 0.04825
 N112 N 0.38978 1.09180 0.05548
 N113 N 0.46243 0.96024 0.08032
 N114 N 0.45892 0.92583 0.10954
 Mn115 Mn 0.50954 1.01390 0.07903
 C116 C 0.41999 0.90161 0.09670
 C117 C 0.40760 1.11570 0.09079
 N118 N 0.59708 0.96497 -0.04394
 N119 N 0.63076 0.93281 -0.04991
 N120 N 0.55505 1.05992 -0.07804
 N121 N 0.55862 1.09276 -0.10867
 N122 N 0.58870 1.06480 -0.04859
 N123 N 0.61691 1.10061 -0.05905
 N124 N 0.56329 0.95954 -0.07317
 N125 N 0.57305 0.92343 -0.09978
 Mn126 Mn 0.59375 1.01775 0.00115
 C127 C 0.61511 0.90689 -0.08465
 C128 C 0.59715 1.11784 -0.09644
 N129 N 0.42083 1.05333 -0.04782
 N130 N 0.38825 1.08577 -0.05776
 N131 N 0.46136 0.95250 -0.07255
 N132 N 0.45620 0.91635 -0.10006
 N133 N 0.42712 0.95312 -0.04346
 N134 N 0.39737 0.91755 -0.05074
 N135 N 0.45433 1.05280 -0.07767
 N136 N 0.44609 1.08517 -0.10802
 Mn137 Mn 0.42369 1.00563 0.00212
 Mn138 Mn 0.50851 1.00596 -0.07574
 Cl139 Cl 0.50883 1.01085 0.00160
 C140 C 0.40494 1.10545 -0.09543
 C141 C 0.41640 0.89479 -0.08595
 N142 N 1.08264 0.56440 0.55309
 N143 N 1.11326 0.59814 0.56395
 N144 N 1.04698 0.46600 0.58372
 N145 N 1.04894 0.43095 0.61242
 N146 N 1.08318 0.46394 0.55690
 N147 N 1.11109 0.42758 0.56687
 N148 N 1.04541 0.56649 0.57869
 N149 N 1.04926 0.60184 0.60722
 C150 C 1.09149 0.62141 0.59750
 C151 C 1.08903 0.40741 0.60162
 N152 N 0.91635 0.46129 0.54170
 N153 N 0.88784 0.42431 0.54734
 N154 N 0.94422 0.56464 0.56932
 N155 N 0.92994 0.59689 0.59817
 N156 N 0.91410 0.56161 0.53655
 N157 N 0.87837 0.59148 0.54244
 N158 N 0.94678 0.46424 0.57419
 N159 N 0.94061 0.42927 0.60230
 Mn160 Mn 0.99585 0.51553 0.57679
 C161 C 0.90375 0.40484 0.58543
 C162 C 0.88920 0.61385 0.58065
 N163 N 1.09451 0.45901 0.46273
 N164 N 1.12880 0.42720 0.45804
 N165 N 1.06446 0.55769 0.42539
 N166 N 1.07846 0.58820 0.39491
 N167 N 1.09380 0.55890 0.45898
 N168 N 1.12833 0.58961 0.45216
 N169 N 1.06474 0.45658 0.42957
 N170 N 1.07775 0.42261 0.40179
 Mn171 Mn 1.08892 0.51152 0.50802
 C172 C 1.11751 0.40427 0.42021
 C173 C 1.11812 0.60823 0.41242
 N174 N 0.92467 0.55612 0.44234
 N175 N 0.89291 0.58786 0.42944
 N176 N 0.96231 0.45474 0.42011
 N177 N 0.95752 0.41831 0.39257
 N178 N 0.92639 0.45616 0.44743
 N179 N 0.89623 0.42132 0.43907
 N180 N 0.96127 0.55580 0.41574
 N181 N 0.95536 0.58754 0.38420
 Mn182 Mn 0.91996 0.50876 0.49190
 Mn183 Mn 1.01320 0.50627 0.42209
 Cl184 Cl 1.00451 0.51065 0.49949
 C185 C 0.91278 0.60742 0.39331
 C186 C 0.91622 0.39778 0.40496
 N187 N 1.03853 0.41289 0.05244
 N188 N 1.07370 0.38325 0.06145
 N189 N 0.93779 0.44869 0.07328
 N190 N 0.90587 0.43747 0.10304
 N191 N 0.93990 0.41536 0.04279
 N192 N 0.90974 0.38062 0.05113
 N193 N 1.03667 0.44749 0.08170
 N194 N 1.07044 0.44275 0.11113
 C195 C 1.09306 0.40258 0.09827
 C196 C 0.88813 0.39532 0.08835
 N197 N 0.94351 0.58616 0.04424
 N198 N 0.90904 0.61778 0.05007
 N199 N 1.03890 0.55015 0.08187
 N200 N 1.07198 0.55479 0.11213
 N201 N 1.04268 0.58397 0.05229
 N202 N 1.07831 0.61277 0.06184
 N203 N 0.93984 0.55145 0.07297
 N204 N 0.90273 0.55773 0.09829
 Mn205 Mn 0.98827 0.49954 0.07782
 C206 C 0.88384 0.59903 0.08384
 C207 C 1.09619 0.59391 0.09932
 N208 N 0.94983 0.41539 -0.05165
 N209 N 0.91379 0.38738 -0.06194
 N210 N 1.05346 0.44456 -0.07138
 N211 N 1.08722 0.43184 -0.09914
 N212 N 1.04819 0.41156 -0.04126
 N213 N 1.07778 0.37574 -0.04765
 N214 N 0.95455 0.44929 -0.08099
 N215 N 0.92171 0.44601 -0.11147
 Mn216 Mn 0.99398 0.41338 0.00055
 C217 C 0.89674 0.40734 -0.09936
 C218 C 1.10244 0.38909 -0.08336
 N219 N 1.05265 0.58354 -0.04255
 N220 N 1.08684 0.61499 -0.04922
 N221 N 0.95701 0.55155 -0.08094
 N222 N 0.92396 0.55682 -0.11112
 N223 N 0.95359 0.58540 -0.05099
 N224 N 0.91837 0.61494 -0.06033
 N225 N 1.05597 0.54811 -0.07093
 N226 N 1.09250 0.55392 -0.09700
 Mn227 Mn 0.99805 0.58552 0.00075
 Mn228 Mn 1.00548 0.49845 -0.07645
 Cl229 Cl 0.99643 0.49927 0.00065
 C230 C 1.11157 0.59546 -0.08311
 C231 C 0.90032 0.59645 -0.09807
 N232 N 0.58025 1.03853 0.55562
 N233 N 0.60948 1.07407 0.56567
 N234 N 0.53424 0.93828 0.57786
 N235 N 0.53579 0.90338 0.60676
 N236 N 0.57186 0.93744 0.55268
 N237 N 0.59994 0.90150 0.56369
 N238 N 0.54475 1.03775 0.58327
 N239 N 0.54839 1.07228 0.61242
 C240 C 0.58855 1.09470 0.60132
 C241 C 0.57657 0.88034 0.59724
 N242 N 0.40251 0.95993 0.53708
 N243 N 0.36293 0.93624 0.54341
 N244 N 0.44657 1.05093 0.57421
 N245 N 0.44245 1.08434 0.60452
 N246 N 0.41747 1.05879 0.54138
 N247 N 0.39141 1.09732 0.54936
 N248 N 0.43297 0.95130 0.56866
 N249 N 0.41485 0.92116 0.59729
 Mn250 Mn 0.48959 0.99400 0.57622
 C251 C 0.37156 0.91141 0.58044
 C252 C 0.40820 1.11303 0.58879
 N253 N 0.58177 0.93882 0.45902
 N254 N 0.61190 0.90321 0.45374
 N255 N 0.56174 1.04078 0.42636
 N256 N 0.57446 1.07496 0.39907
 N257 N 0.59094 1.03894 0.46000
 N258 N 0.62482 1.07120 0.45588
 N259 N 0.55111 0.94005 0.42649
 N260 N 0.56001 0.90523 0.39803
 Mn261 Mn 0.58189 0.98879 0.50688
 C262 C 0.59772 0.88220 0.41591
 C263 C 0.61381 1.09377 0.41784
 N264 N 0.42698 1.05954 0.44557
 N265 N 0.39974 1.09555 0.43321
 N266 N 0.44790 0.95237 0.41773
 N267 N 0.43795 0.91648 0.39058
 N268 N 0.41198 0.96042 0.44412
 N269 N 0.37705 0.93056 0.43585
 N270 N 0.46145 1.05283 0.41731
 N271 N 0.45903 1.08460 0.38550
 Mn272 Mn 0.41442 1.01025 0.49193
 Mn273 Mn 0.50558 0.99602 0.42134
 Cl274 Cl 0.49794 0.99724 0.49892
 C275 C 0.42080 1.11131 0.39606
 C276 C 0.39354 0.90316 0.40263
 N277 N 1.08206 1.04693 0.54496
 N278 N 1.11340 1.08078 0.55321
 N279 N 1.05080 0.94785 0.57911
 N280 N 1.05999 0.91836 0.61164
 N281 N 1.08457 0.94656 0.54959
 N282 N 1.11794 0.91606 0.56153
 N283 N 1.04828 1.04791 0.57440
 N284 N 1.05539 1.08241 0.60327
 C285 C 1.09579 1.10296 0.58936
 C286 C 1.10157 0.89840 0.60010
 N287 N 0.91574 0.94351 0.54920
 N288 N 0.88037 0.91733 0.56393
 N289 N 0.94764 1.04563 0.57372
 N290 N 0.93737 1.07770 0.60402
 N291 N 0.91386 1.04296 0.54413
 N292 N 0.87918 1.07275 0.55409
 N293 N 0.94973 0.94561 0.57869
 N294 N 0.93878 0.92028 0.61357
 Mn295 Mn 0.99915 0.99673 0.57665
 C296 C 0.89589 0.90240 0.60374
 C297 C 0.89499 1.09462 0.59113
 N298 N 1.08506 0.94146 0.45408
 N299 N 1.12085 0.91362 0.44259
 N300 N 1.04892 1.03879 0.42016
 N301 N 1.05585 1.07018 0.38875
 N302 N 1.08222 1.04163 0.45014
 N303 N 1.11288 1.07532 0.43986
 N304 N 1.05128 0.93906 0.42444
 N305 N 1.06301 0.90963 0.39244
 Mn306 Mn 1.08412 0.99409 0.49972
 C307 C 1.10603 0.89344 0.40443
 C308 C 1.09548 1.09297 0.40163
 N309 N 0.91409 1.03730 0.44892
 N310 N 0.87996 1.06658 0.43645
 N311 N 0.95007 0.93671 0.42377
 N312 N 0.93975 0.90648 0.39183
 N313 N 0.91644 0.93739 0.45351
 N314 N 0.88222 0.90764 0.44224
 N315 N 0.94818 1.03676 0.41974
 N316 N 0.93871 1.06606 0.38713
 Mn317 Mn 0.91456 0.99022 0.49891
 Mn318 Mn 0.99963 0.98779 0.42189
 Cl319 Cl 0.99934 0.99200 0.49930
 C320 C 0.89637 1.08466 0.39814
 C321 C 0.89787 0.88804 0.40408
 N322 N 0.58091 0.54198 0.04870
 N323 N 0.61167 0.57599 0.05816
 N324 N 0.54844 0.44090 0.07637
 N325 N 0.55918 0.41216 0.10903
 N326 N 0.58252 0.44158 0.04706
 N327 N 0.61755 0.41326 0.05952
 N328 N 0.54711 0.54097 0.07819
 N329 N 0.55393 0.57409 0.10851
 C330 C 0.59400 0.59589 0.09540
 C331 C 0.60195 0.39458 0.09786
 N332 N 0.41471 0.43871 0.04368
 N333 N 0.38038 0.40877 0.05366
 N334 N 0.44564 0.53940 0.07654
 N335 N 0.43677 0.57247 0.10641
 N336 N 0.41271 0.53900 0.04615
 N337 N 0.38044 0.57197 0.05442
 N338 N 0.44696 0.43924 0.07481
 N339 N 0.43538 0.40971 0.10666
 Mn340 Mn 0.49706 0.49016 0.07674
 C341 C 0.39419 0.39041 0.09268
 C342 C 0.39622 0.59272 0.09193
 N343 N 0.58378 0.44378 -0.04903
 N344 N 0.61713 0.41275 -0.06003
 N345 N 0.54938 0.54508 -0.07627
 N346 N 0.55904 0.57697 -0.10666
 N347 N 0.58266 0.54417 -0.04616
 N348 N 0.61595 0.57562 -0.05538
 N349 N 0.55081 0.44504 -0.07949
 N350 N 0.56038 0.41478 -0.11153
 Mn351 Mn 0.58308 0.49272 0.00016
 C352 C 0.60142 0.39456 -0.09886
 C353 C 0.60028 0.59621 -0.09290
 N354 N 0.41435 0.54164 -0.04780
 N355 N 0.38202 0.57472 -0.05498
 N356 N 0.45008 0.44356 -0.08113
 N357 N 0.44208 0.41315 -0.11349
 N358 N 0.41654 0.44139 -0.05148
 N359 N 0.38453 0.40942 -0.06310
 N360 N 0.44782 0.54363 -0.07749
 N361 N 0.43909 0.57796 -0.10593
 Mn362 Mn 0.41410 0.49001 -0.00241
 Mn363 Mn 0.49953 0.49445 -0.07887
 Cl364 Cl 0.49853 0.49166 -0.00106
 C365 C 0.39816 0.59726 -0.09110
 C366 C 0.40147 0.39175 -0.10159
 C367 C 0.27646 1.19485 0.16436
 C368 C 0.32116 1.19626 0.15050
 C369 C 0.33923 1.16250 0.11716
 C370 C 0.38580 1.15628 0.11377
 H371 H 0.34627 1.21924 0.16725
 H372 H 0.31513 1.13920 0.09951
 H373 H 0.25155 1.17100 0.14844
 H374 H 0.40918 1.17794 0.13391
 C375 C 0.79623 0.70130 0.67049
 C376 C 0.84367 0.70216 0.66763
 C377 C 0.87285 0.67185 0.63864
 C378 C 0.85756 0.64781 0.60333
 H379 H 0.86388 0.72263 0.69131
 H380 H 0.90966 0.66870 0.64812
 H381 H 0.77546 0.67958 0.64823
 H382 H 0.82170 0.65189 0.59153
 C383 C 0.69948 0.80387 0.16189
 C384 C 0.71813 0.84267 0.14323
 C385 C 0.69022 0.87390 0.11398
 C386 C 0.64434 0.88276 0.12143
 H387 H 0.75391 0.85347 0.15104
 H388 H 0.70895 0.89394 0.08915
 H389 H 0.66439 0.79232 0.15237
 H390 H 0.62653 0.86592 0.14875
 C391 C 1.20885 0.29717 0.65920
 C392 C 1.16363 0.30975 0.65330
 C393 C 1.14868 0.34642 0.62166
 C394 C 1.10568 0.36567 0.62614
 H395 H 1.13706 0.29692 0.67585
 H396 H 1.17347 0.36034 0.59785
 H397 H 1.23581 0.31084 0.63743
 H398 H 1.08214 0.35225 0.65129
 C399 C 0.72199 1.20083 -0.17456
 C400 C 0.67723 1.19959 -0.16073
 C401 C 0.66149 1.16687 -0.12611
 C402 C 0.61555 1.15697 -0.12306
 H403 H 0.65052 1.22041 -0.17769
 H404 H 0.68716 1.14758 -0.10648
 H405 H 0.74869 1.17940 -0.15833
 H406 H 0.59076 1.17424 -0.14514
 C407 C 1.20923 0.70664 0.32782
 C408 C 1.16158 0.70303 0.32996
 C409 C 1.13353 0.66880 0.35618
 C410 C 1.14912 0.64314 0.39012
 H411 H 1.14006 0.72286 0.30704
 H412 H 1.09697 0.66470 0.34618
 H413 H 1.23140 0.68596 0.34964
 H414 H 1.18464 0.64816 0.40250
 C415 C 0.28497 0.80957 -0.15261
 C416 C 0.33034 0.80940 -0.14016
 C417 C 0.34928 0.84435 -0.10849
 C418 C 0.39549 0.85396 -0.10916
 H419 H 0.35546 0.78680 -0.15735
 H420 H 0.32544 0.86557 -0.08847
 H421 H 0.25999 0.83313 -0.13641
 H422 H 0.41833 0.83446 -0.13156
 C423 C 0.78337 0.29895 0.35305
 C424 C 0.83009 0.30430 0.36024
 C425 C 0.85015 0.34196 0.38886
 C426 C 0.89490 0.35638 0.38229
 H427 H 0.85506 0.28502 0.33986
 H428 H 0.82767 0.36041 0.41225
 H429 H 0.75835 0.31909 0.37270
 H430 H 0.91614 0.33890 0.35731
 C431 C 1.18889 0.27631 0.16330
 C432 C 1.18333 0.32225 0.15257
 C433 C 1.14779 0.33832 0.12061
 C434 C 1.13371 0.38383 0.12244
 H435 H 1.20174 0.34957 0.17128
 H436 H 1.13022 0.31286 0.09918
 H437 H 1.16967 0.24885 0.14556
 H438 H 1.14997 0.40796 0.14601
 C439 C 0.70127 0.77838 0.66046
 C440 C 0.65605 0.79237 0.65744
 C441 C 0.63830 0.82288 0.62153
 C442 C 0.59469 0.84120 0.62468
 H443 H 0.63237 0.78611 0.68475
 H444 H 0.66191 0.83417 0.59560
 H445 H 0.72501 0.78429 0.63317
 H446 H 0.57206 0.82995 0.65141
 C447 C 1.19792 0.72606 -0.15352
 C448 C 1.19441 0.68023 -0.14161
 C449 C 1.15998 0.66348 -0.10878
 C450 C 1.15226 0.61654 -0.10559
 H451 H 1.21437 0.65332 -0.15947
 H452 H 1.13792 0.68883 -0.09119
 H453 H 1.17736 0.75310 -0.13653
 H454 H 1.17320 0.59212 -0.12541
 C455 C 0.69616 1.20693 0.34133
 C456 C 0.65124 1.19192 0.33622
 C457 C 0.62494 1.15814 0.36447
 C458 C 0.64247 1.13233 0.39781
 H459 H 0.63175 1.20260 0.30725
 H460 H 0.58880 1.15162 0.35425
 H461 H 0.71584 1.19793 0.37064
 H462 H 0.67818 1.13795 0.40947
 C463 C 0.79563 0.72654 0.15848
 C464 C 0.79897 0.68158 0.14358
 C465 C 0.83464 0.66640 0.11096
 C466 C 0.84174 0.61963 0.10482
 H467 H 0.77785 0.65402 0.15890
 H468 H 0.85822 0.69234 0.09639
 H469 H 0.81719 0.75424 0.14402
 H470 H 0.81933 0.59448 0.12197
 C471 C 0.28269 1.20297 0.65963
 C472 C 0.32872 1.19814 0.65143
 C473 C 0.34569 1.16760 0.61501
 C474 C 0.39077 1.15381 0.61463
 H475 H 0.35428 1.21287 0.67438
 H476 H 0.32067 1.15175 0.59220
 H477 H 0.25747 1.18802 0.63659
 H478 H 0.41459 1.16779 0.63952
 C479 C 0.80758 0.28424 -0.17586
 C480 C 0.81135 0.32958 -0.16256
 C481 C 0.84496 0.34419 -0.12824
 C482 C 0.85674 0.39015 -0.12534
 H483 H 0.79182 0.35730 -0.17960
 H484 H 0.86331 0.31756 -0.10882
 H485 H 0.82764 0.25648 -0.15948
 H486 H 0.84020 0.41579 -0.14718
 C487 C 0.30657 0.79274 0.32841
 C488 C 0.35412 0.79769 0.32833
 C489 C 0.38231 0.83169 0.35545
 C490 C 0.36416 0.86596 0.38121
 H491 H 0.37465 0.77873 0.30382
 H492 H 0.42025 0.83056 0.35088
 H493 H 0.28553 0.81001 0.35345
 H494 H 0.32650 0.86776 0.38685
 C495 C 1.18344 1.18157 0.31498
 C496 C 1.18123 1.18688 0.35878
 C497 C 1.15677 1.15274 0.38742
 C498 C 1.11829 1.12912 0.37441
 H499 H 1.19968 1.21566 0.37503
 H500 H 1.17026 1.14808 0.42048
 H501 H 1.16654 1.15127 0.29930
 H502 H 1.10273 1.13610 0.34252
 C503 C 0.68567 0.67993 -0.18714
 C504 C 0.63842 0.67968 -0.18571
 C505 C 0.61124 0.64790 -0.15673
 C506 C 0.62770 0.63072 -0.11857
 H507 H 0.61829 0.70172 -0.20815
 H508 H 0.57570 0.63916 -0.16727
 H509 H 0.70568 0.65572 -0.16672
 H510 H 0.66208 0.64108 -0.10621
 C511 C 0.80910 1.19579 0.66947
 C512 C 0.79235 1.15764 0.64774
 C513 C 0.82062 1.13026 0.61580
 C514 C 0.86763 1.12745 0.61845
 H515 H 0.75641 1.14584 0.65287
 H516 H 0.80176 1.10842 0.59209
 H517 H 0.84443 1.20865 0.66328
 H518 H 0.88663 1.14557 0.64452
 C519 C 0.31279 0.68416 0.18145
 C520 C 0.36005 0.68236 0.18097
 C521 C 0.38677 0.64836 0.15350
 C522 C 0.37009 0.62974 0.11594
 H523 H 0.38032 0.70446 0.20340
 H524 H 0.42184 0.63878 0.16482
 H525 H 0.29234 0.66007 0.16111
 H526 H 0.33633 0.64091 0.10272
 C527 C 1.19266 0.81956 0.69383
 C528 C 1.19605 0.81650 0.64984
 C529 C 1.16947 0.84751 0.61943
 C530 C 1.12704 0.86552 0.62919
 H531 H 1.22124 0.79226 0.63499
 H532 H 1.18501 0.85446 0.58760
 H533 H 1.16936 0.84566 0.70878
 H534 H 1.11009 0.85651 0.65990
 C535 C 0.68940 0.32477 0.20075
 C536 C 0.64218 0.32451 0.19924
 C537 C 0.61460 0.35228 0.16709
 C538 C 0.63072 0.36481 0.12729
 H539 H 0.62242 0.30376 0.22286
 H540 H 0.57874 0.36124 0.17642
 H541 H 0.70891 0.34743 0.17865
 H542 H 0.66556 0.35415 0.11636
 C543 C 0.79795 0.81714 0.31272
 C544 C 0.79950 0.81012 0.35634
 C545 C 0.82786 0.83992 0.38636
 C546 C 0.87027 0.85661 0.37519
 H547 H 0.77816 0.78283 0.37144
 H548 H 0.81426 0.84627 0.41913
 H549 H 0.81788 0.84609 0.29833
 H550 H 0.88525 0.84766 0.34345
 C551 C 0.31018 0.30805 -0.19240
 C552 C 0.30725 0.30805 -0.14831
 C553 C 0.33497 0.33942 -0.11920
 C554 C 0.37670 0.35778 -0.13021
 H555 H 0.28091 0.28652 -0.13212
 H556 H 0.32027 0.34698 -0.08705
 H557 H 0.33475 0.33132 -0.20902
 H558 H 0.39305 0.34873 -0.16129
 C559 C 1.19426 0.29535 -0.16839
 C560 C 1.19738 0.34320 -0.16311
 C561 C 1.16515 0.37336 -0.13679
 C562 C 1.13711 0.35749 -0.10494
 H563 H 1.22171 0.36329 -0.18322
 H564 H 1.16431 0.41102 -0.14499
 H565 H 1.16910 0.27476 -0.14970
 H566 H 1.13903 0.32066 -0.09438
 C567 C 0.68444 0.78433 0.33211
 C568 C 0.63685 0.78563 0.33257
 C569 C 0.60845 0.81957 0.35939
 C570 C 0.62446 0.84296 0.39487
 H571 H 0.61734 0.76645 0.30745
 H572 H 0.57302 0.82706 0.34770
 H573 H 0.70372 0.80547 0.35570
 H574 H 0.65862 0.83432 0.40874
 C575 C 0.79214 0.71985 -0.15618
 C576 C 0.80377 0.67397 -0.14894
 C577 C 0.84060 0.65868 -0.11751
 C578 C 0.85953 0.61505 -0.12269
 H579 H 0.78979 0.64651 -0.17054
 H580 H 0.85453 0.68343 -0.09326
 H581 H 0.80676 0.74773 -0.13544
 H582 H 0.84625 0.59198 -0.14867
 C583 C 0.29522 1.21605 0.33834
 C584 C 0.33837 1.19630 0.33599
 C585 C 0.35974 1.16937 0.37253
 C586 C 0.40132 1.14754 0.36624
 H587 H 0.35713 1.19592 0.30499
 H588 H 0.33991 1.16377 0.40250
 H589 H 0.27725 1.21687 0.36958
 H590 H 0.42040 1.15336 0.33587
 C591 C 1.20328 0.71874 0.15500
 C592 C 1.19162 0.67259 0.14996
 C593 C 1.15542 0.65593 0.11856
 C594 C 1.13660 0.61257 0.12435
 H595 H 1.20556 0.64638 0.17269
 H596 H 1.14181 0.67975 0.09355
 H597 H 1.18874 0.74530 0.13297
 H598 H 1.14948 0.59026 0.15088
 C599 C 0.69760 1.22203 0.65194
 C600 C 0.65850 1.19562 0.65457
 C601 C 0.64317 1.16216 0.61970
 C602 C 0.60591 1.13465 0.62820
 H603 H 0.63989 1.19408 0.68566
 H604 H 0.66346 1.15757 0.58981
 H605 H 0.71679 1.22378 0.62122
 H606 H 0.58638 1.14080 0.65838
 C607 C 0.80201 0.30578 0.18116
 C608 C 0.80578 0.35378 0.18027
 C609 C 0.83556 0.38174 0.15031
 C610 C 0.85496 0.36542 0.11321
 H611 H 0.78852 0.37514 0.20528
 H612 H 0.84199 0.41842 0.16026
 H613 H 0.82011 0.28363 0.15731
 H614 H 0.84784 0.32960 0.10142
 C615 C 0.30952 0.78728 0.67597
 C616 C 0.30839 0.83168 0.66032
 C617 C 0.34437 0.84910 0.62997
 C618 C 0.33464 0.88606 0.60420
 H619 H 0.28233 0.85709 0.67214
 H620 H 0.37952 0.83359 0.63055
 H621 H 0.33577 0.76222 0.66388
 H622 H 0.29872 0.89936 0.60163
 C623 C 0.27368 1.19608 -0.16405
 C624 C 0.31961 1.18964 -0.15466
 C625 C 0.33705 1.15564 -0.12112
 C626 C 0.38299 1.14405 -0.12127
 H627 H 0.34583 1.20723 -0.17483
 H628 H 0.31262 1.13768 -0.09940
 H629 H 0.24707 1.17825 -0.14460
 H630 H 0.40597 1.16104 -0.14499
 C631 C 0.77872 0.69851 0.33059
 C632 C 0.82528 0.69049 0.33560
 C633 C 0.84507 0.65710 0.36830
 C634 C 0.89056 0.64392 0.36526
 H635 H 0.85002 0.70676 0.31308
 H636 H 0.82229 0.64148 0.39293
 H637 H 0.75374 0.68200 0.35271
 H638 H 0.91229 0.65875 0.33940
 C639 C 0.72176 1.21532 0.16722
 C640 C 0.67685 1.21278 0.15376
 C641 C 0.66169 1.18019 0.11821
 C642 C 0.61588 1.16944 0.11498
 H643 H 0.64958 1.23030 0.17290
 H644 H 0.68769 1.16064 0.09911
 H645 H 0.74903 1.19671 0.14892
 H646 H 0.59087 1.18741 0.13644
 C647 C 1.22071 0.70308 0.67319
 C648 C 1.17538 0.70165 0.66079
 C649 C 1.15811 0.66843 0.62679
 C650 C 1.11174 0.66037 0.62375
 H651 H 1.14942 0.72277 0.67852
 H652 H 1.18293 0.64760 0.60747
 H653 H 1.24672 0.68147 0.65611
 H654 H 1.08767 0.67979 0.64505
 C655 C 0.69571 0.79813 -0.16511
 C656 C 0.64870 0.80542 -0.16458
 C657 C 0.62310 0.84002 -0.13638
 C658 C 0.64257 0.86807 -0.10554
 H659 H 0.62686 0.78841 -0.18931
 H660 H 0.58589 0.84442 -0.14384
 H661 H 0.71844 0.81502 -0.14108
 H662 H 0.67922 0.86406 -0.09622
 C663 C 1.20210 0.30195 0.33526
 C664 C 1.15523 0.30182 0.34305
 C665 C 1.12889 0.33796 0.36878
 C666 C 1.14699 0.36663 0.39977
 H667 H 1.13287 0.27722 0.32500
 H668 H 1.09160 0.34094 0.36104
 H669 H 1.22482 0.32743 0.35174
 H670 H 1.18329 0.36261 0.41038
 C671 C 0.29419 0.79991 0.15475
 C672 C 0.34026 0.80911 0.14977
 C673 C 0.35781 0.84363 0.11719
 C674 C 0.40154 0.86097 0.12177
 H675 H 0.36544 0.79501 0.17329
 H676 H 0.33410 0.85803 0.09254
 H677 H 0.26883 0.81476 0.13182
 H678 H 0.42397 0.84746 0.14787
 C679 C 0.77917 0.30990 0.65168
 C680 C 0.82415 0.31361 0.63891
 C681 C 0.83980 0.34979 0.60708
 C682 C 0.88532 0.36212 0.60706
 H683 H 0.85121 0.29348 0.65603
 H684 H 0.81420 0.36978 0.58798
 H685 H 0.75212 0.33100 0.63558
 H686 H 0.90963 0.34380 0.62888
 C687 C 1.17502 1.18471 0.68716
 C688 C 1.12914 1.19229 0.67945
 C689 C 1.10195 1.16076 0.64988
 C690 C 1.12099 1.14008 0.61418
 H691 H 1.11024 1.21994 0.69720
 H692 H 1.06531 1.15431 0.65814
 H693 H 1.19231 1.15409 0.67231
 H694 H 1.15658 1.14881 0.60402
 C695 C 0.68246 0.68643 0.18094
 C696 C 0.68294 0.68885 0.13694
 C697 C 0.65723 0.65445 0.10881
 C698 C 0.61713 0.63341 0.12145
 H699 H 0.70530 0.71451 0.12062
 H700 H 0.67176 0.64675 0.07663
 H701 H 0.66235 0.65875 0.19706
 H702 H 0.60075 0.64314 0.15236
 C703 C 1.19579 0.82295 0.30358
 C704 C 1.14858 0.82382 0.30369
 C705 C 1.12056 0.85157 0.33540
 C706 C 1.13578 0.86396 0.37564
 H707 H 1.12895 0.80415 0.27896
 H708 H 1.08493 0.86056 0.32526
 H709 H 1.21554 0.84513 0.32625
 H710 H 1.17045 0.85357 0.38728
 C711 C 0.69261 0.31725 -0.19291
 C712 C 0.69736 0.31462 -0.14902
 C713 C 0.67050 0.34511 -0.11820
 C714 C 0.62720 0.36122 -0.12741
 H715 H 0.72323 0.29089 -0.13466
 H716 H 0.68663 0.35349 -0.08678
 H717 H 0.66845 0.34287 -0.20723
 H718 H 0.60990 0.35079 -0.15774
 C719 C 0.81195 1.18802 0.32000
 C720 C 0.79569 1.14766 0.33801
 C721 C 0.82307 1.11906 0.36963
 C722 C 0.87016 1.11662 0.36898
 H723 H 0.75997 1.13593 0.33142
 H724 H 0.80340 1.09686 0.39219
 H725 H 0.84715 1.20056 0.32762
 H726 H 0.89007 1.13503 0.34392
 C727 C 0.31152 0.69467 -0.17320
 C728 C 0.35700 0.68367 -0.18043
 C729 C 0.38521 0.65117 -0.15284
 C730 C 0.37135 0.63449 -0.11383
 H731 H 0.37437 0.69686 -0.20964
 H732 H 0.41861 0.63936 -0.16648
 H733 H 0.29310 0.68142 -0.14484
 H734 H 0.33885 0.64622 -0.09865
 C735 C 0.80800 0.81570 0.69370
 C736 C 0.79143 0.85015 0.66734
 C737 C 0.82068 0.87440 0.63409
 C738 C 0.86786 0.87611 0.63589
 H739 H 0.75421 0.85909 0.66775
 H740 H 0.80221 0.89287 0.60795
 H741 H 0.84481 0.80563 0.69279
 H742 H 0.88693 0.86143 0.66354
 C743 C 0.30062 0.31043 0.18475
 C744 C 0.34644 0.32035 0.19125
 C745 C 0.37587 0.34871 0.16108
 C746 C 0.36440 0.35894 0.11942
 H747 H 0.36366 0.30838 0.22108
 H748 H 0.40907 0.36152 0.17438
 H749 H 0.28245 0.32315 0.15588
 H750 H 0.33218 0.34567 0.10471
   
