data_POSCAR
  _audit_creation_date              2014-09-24
  _audit_creation_method            'ToBaCCo'
  _symmetry_space_group_name_H-M    'P1'
  _symmetry_Int_Tables_number       1
  _symmetry_cell_setting            triclinic
  loop_
  _symmetry_equiv_pos_as_xyz
 x,y,z
_cell_length_a 35.6000
_cell_length_b 35.8840
_cell_length_c 48.9648
_cell_angle_alpha 89.974100
_cell_angle_beta 90.038800
_cell_angle_gamma 119.759600
loop_
  _atom_site_label
  _atom_site_type_symbol
  _atom_site_fract_x
  _atom_site_fract_y
  _atom_site_fract_z
C1 C -0.02138 0.48917 1.24952
 C2 C 0.02268 0.51189 1.24957
 C3 C 0.04808 0.52442 1.27534
 C4 C 0.04802 0.52552 1.22382
 C5 C -0.04668 0.47537 1.22373
 C6 C -0.04685 0.47698 1.27522
 C7 C 0.07803 0.56758 1.28011
 C8 C 0.10275 0.58020 1.30396
 C9 C 0.09872 0.54984 1.32403
 C10 C 0.06811 0.50612 1.31867
 C11 C 0.04353 0.49374 1.29468
 C12 C 0.04174 0.55085 1.20450
 C13 C 0.06609 0.56344 1.18043
 C14 C 0.09747 0.55134 1.17544
 C15 C 0.10384 0.52628 1.19498
 C16 C 0.07947 0.51366 1.21896
 C17 C -0.04039 0.44991 1.20454
 C18 C -0.06482 0.43703 1.18049
 C19 C -0.09632 0.44896 1.17539
 C20 C -0.10266 0.47420 1.19478
 C21 C -0.07820 0.48711 1.21873
 C22 C -0.07694 0.43370 1.28013
 C23 C -0.10181 0.42153 1.30391
 C24 C -0.09733 0.45249 1.32320
 C25 C -0.06723 0.49592 1.31820
 C26 C -0.04238 0.50809 1.29434
 H27 H 0.08179 0.59184 1.26545
 H28 H 0.12327 0.61434 1.30675
 H29 H 0.06419 0.48043 1.33197
 H30 H 0.02132 0.46000 1.29101
 H31 H 0.01820 0.56104 1.20814
 H32 H 0.06094 0.58330 1.16597
 H33 H 0.08482 0.49419 1.23365
 H34 H -0.01679 0.43980 1.20828
 H35 H -0.05968 0.41706 1.16614
 H36 H -0.12627 0.48436 1.19130
 H37 H -0.08356 0.50668 1.23332
 H38 H -0.08091 0.40925 1.26559
 H39 H -0.12430 0.38780 1.30732
 H40 H -0.06354 0.52055 1.33248
 H41 H -0.01995 0.54176 1.29064
 H42 H 0.12739 0.51602 1.19158
 C43 C 0.51055 0.48846 1.25057
 C44 C 0.48974 0.51169 1.25054
 C45 C 0.47860 0.52573 1.27634
 C46 C 0.47670 0.52411 1.22481
 C47 C 0.52376 0.47613 1.22489
 C48 C 0.52148 0.47430 1.27640
 C49 C 0.43541 0.51402 1.28159
 C50 C 0.42418 0.52644 1.30586
 C51 C 0.45601 0.55113 1.32529
 C52 C 0.49942 0.56346 1.31977
 C53 C 0.51063 0.55099 1.29545
 C54 C 0.45022 0.49315 1.20556
 C55 C 0.43781 0.50550 1.18165
 C56 C 0.45126 0.54897 1.17673
 C57 C 0.47756 0.57978 1.19616
 C58 C 0.48999 0.56743 1.21999
 C59 C 0.55031 0.50715 1.20569
 C60 C 0.56287 0.49489 1.18182
 C61 C 0.54950 0.45144 1.17688
 C62 C 0.52313 0.42057 1.19626
 C63 C 0.51055 0.43284 1.22004
 C64 C 0.56463 0.48605 1.28185
 C65 C 0.57567 0.47359 1.30619
 C66 C 0.54368 0.44881 1.32550
 C67 C 0.50030 0.43643 1.31978
 C68 C 0.48928 0.44893 1.29539
 H69 H 0.41031 0.49487 1.26697
 H70 H 0.39060 0.51714 1.30928
 H71 H 0.52462 0.58231 1.33439
 H72 H 0.54425 0.56092 1.29156
 H73 H 0.43888 0.45944 1.20918
 H74 H 0.41698 0.48097 1.16727
 H75 H 0.51035 0.59177 1.23463
 H76 H 0.56160 0.54085 1.20932
 H77 H 0.58375 0.51947 1.16748
 H78 H 0.51186 0.38682 1.19290
 H79 H 0.49014 0.40844 1.23464
 H80 H 0.58985 0.50528 1.26733
 H81 H 0.60923 0.48293 1.30977
 H82 H 0.47498 0.41751 1.33430
 H83 H 0.45569 0.43898 1.29135
 H84 H 0.48888 0.61354 1.19281
 C85 C 0.51073 1.02201 1.24991
 C86 C 0.48854 0.97829 1.24992
 C87 C 0.47642 0.95307 1.27568
 C88 C 0.47501 0.95309 1.22419
 C89 C 0.52402 1.04722 1.22415
 C90 C 0.52290 1.04722 1.27565
 C91 C 0.50769 0.95807 1.29496
 C92 C 0.49561 0.93359 1.31891
 C93 C 0.45181 0.90288 1.32410
 C94 C 0.42080 0.89823 1.30430
 C95 C 0.43303 0.92282 1.28049
 C96 C 0.48744 0.92222 1.21936
 C97 C 0.47462 0.89770 1.19552
 C98 C 0.44881 0.90335 1.17607
 C99 C 0.43623 0.93422 1.18097
 C100 C 0.44900 0.95870 1.20492
 C101 C 0.51156 1.07801 1.21943
 C102 C 0.52408 1.10256 1.19560
 C103 C 0.54990 1.09734 1.17570
 C104 C 0.56231 1.06611 1.18081
 C105 C 0.54978 1.04167 1.20478
 C106 C 0.49165 1.04223 1.29491
 C107 C 0.50376 1.06672 1.31885
 C108 C 0.54757 1.09742 1.32404
 C109 C 0.57856 1.10206 1.30426
 C110 C 0.56631 1.07746 1.28045
 H111 H 0.54158 0.98057 1.29129
 H112 H 0.52124 0.93773 1.33259
 H113 H 0.38658 0.87682 1.30737
 H114 H 0.40836 0.91864 1.26588
 H115 H 0.50742 0.91737 1.23402
 H116 H 0.48530 0.87459 1.19218
 H117 H 0.43834 0.98177 1.20853
 H118 H 0.49147 1.08261 1.23411
 H119 H 0.51177 1.12440 1.19261
 H120 H 0.58338 1.06151 1.16704
 H121 H 0.56064 1.01875 1.20837
 H122 H 0.45775 1.01974 1.29124
 H123 H 0.47815 1.06259 1.33252
 H124 H 0.61278 1.12346 1.30733
 H125 H 0.59095 1.08162 1.26585
 H126 H 0.41582 0.93883 1.16655
 C127 C 1.02257 0.51113 0.74925
 C128 C 0.97851 0.48854 0.74929
 C129 C 0.95313 0.47485 0.72355
 C130 C 0.95312 0.47629 0.77504
 C131 C 1.04806 0.52361 0.77497
 C132 C 1.04784 0.52458 0.72347
 C133 C 0.92183 0.48691 0.71859
 C134 C 0.89734 0.47415 0.69465
 C135 C 0.90342 0.44876 0.67525
 C136 C 0.93467 0.43650 0.68032
 C137 C 0.95915 0.44923 0.70435
 C138 C 0.95774 0.50733 0.79426
 C139 C 0.93296 0.49508 0.81816
 C140 C 0.90279 0.45165 0.82310
 C141 C 0.89817 0.42077 0.80371
 C142 C 0.92297 0.43301 0.77990
 C143 C 1.04352 0.49284 0.79429
 C144 C 1.06819 0.50522 0.81824
 C145 C 1.09864 0.54885 0.82339
 C146 C 1.10287 0.57936 0.80354
 C147 C 1.07809 0.56683 0.77972
 C148 C 1.07905 0.51253 0.71858
 C149 C 1.10346 0.52499 0.69462
 C150 C 1.09764 0.55033 0.67475
 C151 C 1.06604 0.56240 0.68006
 C152 C 1.04176 0.54992 0.70415
 H153 H 0.91668 0.50661 0.73319
 H154 H 0.87391 0.48455 0.69118
 H155 H 0.93961 0.41640 0.66596
 H156 H 0.98257 0.43889 0.70807
 H157 H 0.98021 0.54101 0.79062
 H158 H 0.93676 0.51967 0.83251
 H159 H 0.91888 0.40861 0.76529
 H160 H 1.02122 0.45911 0.79066
 H161 H 1.06443 0.47998 0.83194
 H162 H 1.12407 0.61339 0.80656
 H163 H 1.08191 0.59110 0.76507
 H164 H 1.08407 0.49277 0.73322
 H165 H 1.12562 0.51300 0.69150
 H166 H 1.06102 0.58314 0.66635
 H167 H 1.01849 0.56044 0.70787
 H168 H 0.87564 0.38703 0.80707
 C169 C 0.48965 0.51174 0.75051
 C170 C 0.51043 0.48848 0.75057
 C171 C 0.52348 0.47598 0.72490
 C172 C 0.52152 0.47448 0.77643
 C173 C 0.47865 0.52593 0.77629
 C174 C 0.47651 0.52406 0.72477
 C175 C 0.51015 0.43264 0.72013
 C176 C 0.52257 0.42021 0.69635
 C177 C 0.54888 0.45096 0.67689
 C178 C 0.56238 0.49445 0.68176
 C179 C 0.54998 0.50688 0.70563
 C180 C 0.48946 0.44927 0.79553
 C181 C 0.50064 0.43683 0.81989
 C182 C 0.54404 0.44913 0.82548
 C183 C 0.57589 0.47377 0.80607
 C184 C 0.56469 0.48616 0.78175
 C185 C 0.51079 0.55129 0.79533
 C186 C 0.49970 0.56382 0.81966
 C187 C 0.45631 0.55147 0.82528
 C188 C 0.42438 0.52670 0.80593
 C189 C 0.43549 0.51422 0.78164
 C190 C 0.48977 0.56736 0.71988
 C191 C 0.47725 0.57962 0.69604
 C192 C 0.45089 0.54875 0.67666
 C193 C 0.43747 0.50530 0.68164
 C194 C 0.44997 0.49304 0.70556
 H195 H 0.48977 0.40834 0.73479
 H196 H 0.51121 0.38643 0.69304
 H197 H 0.58322 0.51894 0.66736
 H198 H 0.56136 0.54061 0.70920
 H199 H 0.45585 0.43936 0.79159
 H200 H 0.47541 0.41803 0.83450
 H201 H 0.58982 0.50527 0.76714
 H202 H 0.54439 0.56122 0.79136
 H203 H 0.52498 0.58273 0.83422
 H204 H 0.39082 0.51738 0.80943
 H205 H 0.41031 0.49499 0.76708
 H206 H 0.51018 0.59176 0.73448
 H207 H 0.48856 0.61338 0.69265
 H208 H 0.41660 0.48071 0.66730
 H209 H 0.43864 0.45934 0.70922
 H210 H 0.60945 0.48305 0.80953
 C211 C 0.48891 -0.02242 0.74974
 C212 C 0.51090 0.02130 0.74977
 C213 C 0.52457 0.04653 0.72404
 C214 C 0.52257 0.04648 0.77552
 C215 C 0.47675 -0.04764 0.77547
 C216 C 0.47574 -0.04759 0.72397
 C217 C 0.55079 0.04102 0.70491
 C218 C 0.56369 0.06551 0.68098
 C219 C 0.55102 0.09630 0.67594
 C220 C 0.52501 0.10185 0.69526
 C221 C 0.51207 0.07732 0.71909
 C222 C 0.56593 0.07713 0.78049
 C223 C 0.57762 0.10168 0.80431
 C224 C 0.54611 0.09631 0.82362
 C225 C 0.50259 0.06564 0.81858
 C226 C 0.49089 0.04112 0.79465
 C227 C 0.43339 -0.07811 0.78017
 C228 C 0.42115 -0.10265 0.80400
 C229 C 0.45211 -0.09771 0.82392
 C230 C 0.49587 -0.06681 0.81883
 C231 C 0.50797 -0.04239 0.79486
 C232 C 0.44996 -0.04209 0.70456
 C233 C 0.43750 -0.06649 0.68059
 C234 C 0.45003 -0.09763 0.67551
 C235 C 0.47588 -0.10280 0.69544
 C236 C 0.48832 -0.07828 0.71927
 H237 H 0.56150 0.01801 0.70863
 H238 H 0.58424 0.06098 0.66666
 H239 H 0.51428 0.12490 0.69181
 H240 H 0.49192 0.08209 0.73364
 H241 H 0.59083 0.08179 0.76595
 H242 H 0.61146 0.12462 0.80776
 H243 H 0.45712 0.01824 0.79093
 H244 H 0.40876 -0.08248 0.76547
 H245 H 0.38695 -0.12423 0.80699
 H246 H 0.52148 -0.06246 0.83260
 H247 H 0.54184 -0.01972 0.79127
 H248 H 0.43900 -0.01924 0.70815
 H249 H 0.41639 -0.06194 0.66680
 H250 H 0.48826 -0.12457 0.69246
 H251 H 0.50843 -0.08284 0.73398
 H252 H 0.47753 0.06124 0.83288
 O253 O 0.39900 0.67093 0.96958
 O254 O 0.39983 0.74311 0.97707
 C255 C 0.37278 0.74820 0.96294
 O256 O 0.33260 0.72913 0.96778
 O257 O 0.25966 0.65852 0.97542
 C258 C 0.25473 0.62597 0.96219
 O259 O 0.27398 0.60541 0.96804
 O260 O 0.34527 0.60408 0.97718
 C261 C 0.37844 0.63127 0.96408
 O262 O 0.39928 0.65940 1.02415
 O263 O 0.39621 0.72961 1.03163
 C264 C 0.37478 0.74835 1.03644
 O265 O 0.34255 0.74291 1.02228
 O266 O 0.27169 0.67035 1.02995
 C267 C 0.25301 0.63074 1.03555
 O268 O 0.25904 0.60367 1.02236
 O269 O 0.33204 0.60578 1.03147
 C270 C 0.37183 0.62670 1.03736
 Cr271 Cr 0.39620 0.69958 1.00058
 Cr272 Cr 0.30283 0.69905 0.99888
 Cr273 Cr 0.30375 0.60710 0.99976
 O274 O 0.33426 0.66856 0.99973
 O275 O 0.60131 0.32948 0.96981
 O276 O 0.59998 0.25704 0.97725
 C277 C 0.62683 0.25167 0.96312
 O278 O 0.66701 0.27047 0.96798
 O279 O 0.74023 0.34086 0.97551
 C280 C 0.74541 0.37357 0.96234
 O281 O 0.72643 0.39435 0.96826
 O282 O 0.65538 0.39617 0.97736
 C283 C 0.62209 0.36912 0.96429
 O284 O 0.60124 0.34096 1.02439
 O285 O 0.60381 0.27046 1.03181
 C286 C 0.62505 0.25153 1.03664
 O287 O 0.65725 0.25683 1.02253
 O288 O 0.72845 0.32916 1.03008
 C289 C 0.74731 0.36877 1.03571
 O290 O 0.74137 0.39596 1.02258
 O291 O 0.66862 0.39435 1.03167
 C292 C 0.62883 0.37360 1.03759
 Cr293 Cr 0.60398 0.30066 1.00078
 Cr294 Cr 0.69703 0.30052 0.99905
 Cr295 Cr 0.69676 0.39283 0.99996
 O296 O 0.66593 0.33135 0.99993
 O297 O 0.66791 0.39398 0.53175
 O298 O 0.74092 0.39620 0.52255
 C299 C 0.74704 0.36908 0.53562
 O300 O 0.72837 0.32950 0.52994
 O301 O 0.65751 0.25697 0.52221
 C302 C 0.62530 0.25144 0.53640
 O303 O 0.60383 0.27017 0.53166
 O304 O 0.60067 0.34039 0.52436
 C305 C 0.62812 0.37303 0.53763
 O306 O 0.65457 0.39595 0.47748
 O307 O 0.72588 0.39474 0.46825
 C308 C 0.74514 0.37423 0.46229
 O309 O 0.74024 0.34159 0.47542
 O310 O 0.66730 0.27098 0.46772
 C311 C 0.62711 0.25188 0.46290
 O312 O 0.60009 0.25691 0.47708
 O313 O 0.60087 0.32912 0.46977
 C314 C 0.62141 0.36880 0.46435
 Cr315 Cr 0.69615 0.39284 0.50000
 Cr316 Cr 0.69715 0.30093 0.49885
 Cr317 Cr 0.60375 0.30033 0.50069
 O318 O 0.66569 0.33139 0.49984
 O319 O 0.33149 0.60549 0.53132
 O320 O 0.25857 0.60363 0.52235
 C321 C 0.25260 0.63068 0.53559
 O322 O 0.27136 0.67031 0.53006
 O323 O 0.34235 0.74281 0.52246
 C324 C 0.37471 0.74823 0.53648
 O325 O 0.39604 0.72944 0.53154
 O326 O 0.39878 0.65906 0.52403
 C327 C 0.37129 0.62635 0.53722
 O328 O 0.34454 0.60385 0.47700
 O329 O 0.27335 0.60549 0.46800
 C330 C 0.25421 0.62619 0.46221
 O331 O 0.25929 0.65876 0.47549
 O332 O 0.33233 0.72933 0.46793
 C333 C 0.37248 0.74824 0.46297
 O334 O 0.39950 0.74292 0.47698
 O335 O 0.39842 0.67063 0.46945
 C336 C 0.37775 0.63099 0.46392
 Cr337 Cr 0.30317 0.60700 0.49966
 Cr338 Cr 0.30254 0.69912 0.49901
 Cr339 Cr 0.39579 0.69933 0.50047
 O340 O 0.33383 0.66847 0.49971
 C341 C 0.41878 0.59012 0.39869
 C342 C 0.39349 0.54831 0.38875
 C343 C 0.40591 0.53544 0.36510
 C344 C 0.44382 0.56429 0.35104
 C345 C 0.46939 0.60606 0.36143
 C346 C 0.45687 0.61888 0.38508
 C347 C 0.40476 0.60400 0.42220
 C348 C 0.39259 0.61602 0.44150
 H349 H 0.36394 0.52579 0.39912
 H350 H 0.38588 0.50290 0.35782
 H351 H 0.49846 0.62914 0.35090
 H352 H 0.47657 0.65140 0.39252
 C353 C 0.41372 0.82638 0.39619
 C354 C 0.38840 0.81189 0.37263
 C355 C 0.40088 0.83690 0.34897
 C356 C 0.43927 0.87733 0.34824
 C357 C 0.46459 0.89128 0.37234
 C358 C 0.45184 0.86607 0.39600
 C359 C 0.40038 0.80009 0.42036
 C360 C 0.38815 0.77699 0.44011
 H361 H 0.35903 0.78093 0.37245
 H362 H 0.38093 0.82323 0.33106
 H363 H 0.49347 0.92241 0.37359
 H364 H 0.47161 0.87773 0.41423
 C365 C 0.17515 0.58790 0.39549
 C366 C 0.18758 0.61490 0.37282
 C367 C 0.16232 0.60246 0.34916
 C368 C 0.12347 0.56223 0.34739
 C369 C 0.11167 0.53546 0.37089
 C370 C 0.13718 0.54823 0.39451
 C371 C 0.20201 0.60080 0.41952
 C372 C 0.22537 0.61217 0.43925
 H373 H 0.21733 0.64553 0.37323
 H374 H 0.17535 0.62408 0.33201
 H375 H 0.08175 0.50529 0.37207
 H376 H 0.12705 0.52714 0.41211
 C377 C 0.58040 0.40979 0.39912
 C378 C 0.60567 0.45165 0.38927
 C379 C 0.59340 0.46454 0.36555
 C380 C 0.55566 0.43565 0.35133
 C381 C 0.53010 0.39383 0.36164
 C382 C 0.54246 0.38099 0.38537
 C383 C 0.59434 0.39587 0.42266
 C384 C 0.60650 0.38381 0.44196
 H385 H 0.63510 0.47419 0.39975
 H386 H 0.61341 0.49712 0.35832
 H387 H 0.50116 0.37072 0.35099
 H388 H 0.52279 0.34843 0.39274
 C389 C 0.58572 0.17389 0.39609
 C390 C 0.61100 0.18842 0.37253
 C391 C 0.59849 0.16341 0.34888
 C392 C 0.56014 0.12296 0.34816
 C393 C 0.53486 0.10898 0.37226
 C394 C 0.54763 0.13418 0.39592
 C395 C 0.59910 0.20016 0.42026
 C396 C 0.61137 0.22321 0.44002
 H397 H 0.64035 0.21939 0.37235
 H398 H 0.61840 0.17709 0.33096
 H399 H 0.50601 0.07783 0.37352
 H400 H 0.52791 0.12250 0.41415
 C401 C 0.82392 0.41363 0.39554
 C402 C 0.80600 0.39495 0.37032
 C403 C 0.83158 0.40771 0.34682
 C404 C 0.87554 0.43939 0.34821
 C405 C 0.89326 0.45816 0.37364
 C406 C 0.86758 0.44530 0.39717
 C407 C 0.79719 0.40027 0.41959
 C408 C 0.77390 0.38858 0.43933
 H409 H 0.77220 0.37056 0.36881
 H410 H 0.81683 0.39313 0.32749
 H411 H 0.92710 0.48229 0.37540
 H412 H 0.88177 0.45995 0.41661
 C413 C 0.58911 0.41248 1.10444
 C414 C 0.58838 0.39379 1.12965
 C415 C 0.57562 0.40655 1.15318
 C416 C 0.56338 0.43825 1.15183
 C417 C 0.56436 0.45700 1.12639
 C418 C 0.57712 0.44414 1.10284
 C419 C 0.60254 0.39923 1.08036
 C420 C 0.61424 0.38769 1.06060
 H421 H 0.59780 0.36942 1.13115
 H422 H 0.57584 0.39198 1.17251
 H423 H 0.55468 0.48114 1.12466
 H424 H 0.57756 0.45881 1.08341
 C425 C 0.82628 0.40880 1.10241
 C426 C 0.80744 0.40833 1.12757
 C427 C 0.83258 0.42120 1.15127
 C428 C 0.87703 0.43477 1.15016
 C429 C 0.89570 0.43493 1.12479
 C430 C 0.87044 0.42205 1.10106
 C431 C 0.79989 0.39535 1.07819
 C432 C 0.77656 0.38357 1.05845
 H433 H 0.77324 0.39791 1.12887
 H434 H 0.81712 0.42007 1.17053
 H435 H 0.92991 0.44564 1.12326
 H436 H 0.88534 0.42254 1.08168
 C437 C 0.58849 0.17358 1.10352
 C438 C 0.58619 0.13358 1.10366
 C439 C 0.57370 0.10846 1.12737
 C440 C 0.56301 0.12282 1.15154
 C441 C 0.56583 0.16358 1.15085
 C442 C 0.57838 0.18850 1.12715
 C443 C 0.60136 0.19976 1.07929
 C444 C 0.61213 0.22279 1.05951
 H445 H 0.59373 0.12159 1.08538
 H446 H 0.57086 0.07709 1.12610
 H447 H 0.56012 0.17755 1.16881
 H448 H 0.58054 0.21971 1.12736
 C449 C 0.41187 0.58806 1.10421
 C450 C 0.42391 0.55644 1.10264
 C451 C 0.43663 0.54355 1.12622
 C452 C 0.43751 0.56224 1.15165
 C453 C 0.42524 0.59391 1.15297
 C454 C 0.41253 0.60670 1.12942
 C455 C 0.39839 0.60127 1.08013
 C456 C 0.38660 0.61273 1.06036
 H457 H 0.42352 0.54181 1.08322
 H458 H 0.44633 0.51943 1.12451
 H459 H 0.42494 0.60843 1.17230
 H460 H 0.40305 0.63104 1.13089
 C461 C 0.17439 0.59064 1.10233
 C462 C 0.13023 0.57738 1.10101
 C463 C 0.10512 0.56474 1.12479
 C464 C 0.12395 0.56516 1.15016
 C465 C 0.16839 0.57869 1.15123
 C466 C 0.19338 0.59132 1.12748
 C467 C 0.20064 0.60401 1.07808
 C468 C 0.22387 0.61581 1.05831
 H469 H 0.11521 0.57674 1.08164
 H470 H 0.07090 0.55405 1.12329
 H471 H 0.18397 0.58000 1.17049
 H472 H 0.22759 0.60176 1.12875
 C473 C 0.40999 0.82612 1.10332
 C474 C 0.42264 0.86975 1.10178
 C475 C 0.43494 0.89492 1.12546
 C476 C 0.43483 0.87669 1.15094
 C477 C 0.42171 0.83273 1.15225
 C478 C 0.40941 0.80768 1.12860
 C479 C 0.39781 0.80000 1.07910
 C480 C 0.38745 0.77701 1.05931
 H481 H 0.42325 0.88435 1.08229
 H482 H 0.44528 0.92876 1.12378
 H483 H 0.42064 0.81763 1.17160
 H484 H 0.39951 0.77390 1.13004
 C485 C 0.58812 0.41164 0.60446
 C486 C 0.57617 0.44332 0.60284
 C487 C 0.56350 0.45628 0.62639
 C488 C 0.56258 0.43761 0.65184
 C489 C 0.57476 0.40586 0.65322
 C490 C 0.58742 0.39301 0.62969
 C491 C 0.60158 0.39839 0.58040
 C492 C 0.61335 0.38693 0.56064
 H493 H 0.57659 0.45795 0.58340
 H494 H 0.55386 0.48044 0.62464
 H495 H 0.57502 0.39135 0.67256
 H496 H 0.59684 0.36863 0.63120
 C497 C 0.59016 0.17358 0.60323
 C498 C 0.57761 0.12997 0.60171
 C499 C 0.56522 0.10478 0.62539
 C500 C 0.56515 0.12297 0.65083
 C501 C 0.57819 0.16692 0.65212
 C502 C 0.59058 0.19198 0.62848
 C503 C 0.60236 0.19971 0.57901
 C504 C 0.61270 0.22272 0.55924
 H505 H 0.57712 0.11539 0.58224
 H506 H 0.55493 0.07096 0.62373
 H507 H 0.57911 0.18199 0.67145
 H508 H 0.60041 0.22575 0.62990
 C509 C 0.82602 0.40909 0.60229
 C510 C 0.80724 0.40875 0.62744
 C511 C 0.83238 0.42148 0.65114
 C512 C 0.87677 0.43478 0.65002
 C513 C 0.89538 0.43483 0.62466
 C514 C 0.87011 0.42209 0.60092
 C515 C 0.79962 0.39570 0.57808
 C516 C 0.77629 0.38393 0.55836
 H517 H 0.77309 0.39852 0.62875
 H518 H 0.81698 0.42045 0.67040
 H519 H 0.92955 0.44533 0.62312
 H520 H 0.88497 0.42247 0.58155
 C521 C 0.41130 0.58765 0.60410
 C522 C 0.42323 0.55595 0.60257
 C523 C 0.43600 0.54312 0.62615
 C524 C 0.43704 0.56193 0.65157
 C525 C 0.42487 0.59368 0.65285
 C526 C 0.41211 0.60642 0.62929
 C527 C 0.39781 0.60085 0.58000
 C528 C 0.38603 0.61233 0.56022
 H529 H 0.42274 0.54122 0.58316
 H530 H 0.44563 0.51894 0.62446
 H531 H 0.42468 0.60831 0.67216
 H532 H 0.40271 0.63082 0.63074
 C533 C 0.41147 0.82615 0.60334
 C534 C 0.42165 0.81127 0.62697
 C535 C 0.43422 0.83618 0.65066
 C536 C 0.43696 0.87691 0.65135
 C537 C 0.42623 0.89126 0.62717
 C538 C 0.41372 0.86614 0.60347
 C539 C 0.39853 0.79997 0.57912
 C540 C 0.38770 0.77694 0.55935
 H541 H 0.41954 0.78008 0.62718
 H542 H 0.43999 0.82223 0.66863
 H543 H 0.42902 0.92261 0.62588
 H544 H 0.40612 0.87810 0.58518
 C545 C 0.17364 0.58953 0.60225
 C546 C 0.13308 0.58671 0.60263
 C547 C 0.10798 0.57387 0.62641
 C548 C 0.12295 0.56340 0.65044
 C549 C 0.16418 0.56654 0.64948
 C550 C 0.18907 0.57943 0.62570
 C551 C 0.20009 0.60352 0.57807
 C552 C 0.22341 0.61563 0.55835
 H553 H 0.12072 0.59429 0.58450
 H554 H 0.07621 0.57073 0.62532
 H555 H 0.17859 0.56092 0.66731
 H556 H 0.22072 0.58202 0.62573
 C557 C 0.41943 0.59047 0.89881
 C558 C 0.39415 0.54863 0.88892
 C559 C 0.40646 0.53576 0.86522
 C560 C 0.44426 0.56464 0.85107
 C561 C 0.46983 0.60643 0.86142
 C562 C 0.45742 0.61925 0.88511
 C563 C 0.40548 0.60435 0.92235
 C564 C 0.39333 0.61635 0.94166
 H565 H 0.36468 0.52609 0.89935
 H566 H 0.38644 0.50319 0.85798
 H567 H 0.49881 0.62953 0.85082
 H568 H 0.47710 0.65180 0.89252
 C569 C 0.17590 0.58735 0.89540
 C570 C 0.19017 0.61261 0.87190
 C571 C 0.16486 0.60006 0.84827
 C572 C 0.12437 0.56166 0.84753
 C573 C 0.11058 0.53652 0.87162
 C574 C 0.13609 0.54932 0.89524
 C575 C 0.20265 0.60036 0.91946
 C576 C 0.22595 0.61182 0.93921
 H577 H 0.22124 0.64191 0.87171
 H578 H 0.17841 0.61994 0.83037
 H579 H 0.07938 0.50766 0.87289
 H580 H 0.12461 0.52960 0.91343
 C581 C 0.41402 0.82611 0.89609
 C582 C 0.38891 0.81134 0.87247
 C583 C 0.40139 0.83625 0.84877
 C584 C 0.43956 0.87685 0.84808
 C585 C 0.46467 0.89108 0.87225
 C586 C 0.45193 0.86597 0.89595
 C587 C 0.40068 0.79991 0.92029
 C588 C 0.38846 0.77689 0.94006
 H589 H 0.35970 0.78024 0.87227
 H590 H 0.38163 0.82239 0.83081
 H591 H 0.49337 0.92235 0.87353
 H592 H 0.47152 0.87783 0.91423
 C593 C 0.58115 0.41016 0.89901
 C594 C 0.60649 0.45194 0.88904
 C595 C 0.59411 0.46481 0.86536
 C596 C 0.55618 0.43599 0.85128
 C597 C 0.53055 0.39424 0.86170
 C598 C 0.54303 0.38143 0.88539
 C599 C 0.59514 0.39626 0.92256
 C600 C 0.60728 0.38419 0.94187
 H601 H 0.63606 0.47444 0.89942
 H602 H 0.61418 0.49734 0.85806
 H603 H 0.50147 0.37118 0.85116
 H604 H 0.52330 0.34892 0.89285
 C605 C 0.82418 0.41260 0.89555
 C606 C 0.80620 0.39401 0.87032
 C607 C 0.83173 0.40682 0.84679
 C608 C 0.87571 0.43847 0.84815
 C609 C 0.89350 0.45714 0.87360
 C610 C 0.86786 0.44423 0.89715
 C611 C 0.79746 0.39929 0.91961
 C612 C 0.77418 0.38770 0.93936
 H613 H 0.77238 0.36967 0.86881
 H614 H 0.81692 0.39231 0.82745
 H615 H 0.92734 0.48124 0.87535
 H616 H 0.88210 0.45883 0.91659
 C617 C 0.58441 0.17379 0.89627
 C618 C 0.60259 0.19206 0.87101
 C619 C 0.58988 0.16693 0.84740
 C620 C 0.55875 0.12304 0.84871
 C621 C 0.54033 0.10498 0.87416
 C622 C 0.55315 0.13023 0.89780
 C623 C 0.59831 0.19999 0.92046
 C624 C 0.61088 0.22300 0.94024
 H625 H 0.62668 0.22578 0.86958
 H626 H 0.60416 0.18192 0.82807
 H627 H 0.51662 0.07121 0.87584
 H628 H 0.53892 0.11575 0.91726
   
