data_POSCAR
  _audit_creation_date              2014-09-24
  _audit_creation_method            'ToBaCCo'
  _symmetry_space_group_name_H-M    'P1'
  _symmetry_Int_Tables_number       1
  _symmetry_cell_setting            triclinic
  loop_
  _symmetry_equiv_pos_as_xyz
 x,y,z
_cell_length_a 38.7327
_cell_length_b 39.0146
_cell_length_c 22.1713
_cell_angle_alpha 89.894900
_cell_angle_beta 90.004000
_cell_angle_gamma 118.272000
loop_
  _atom_site_label
  _atom_site_type_symbol
  _atom_site_fract_x
  _atom_site_fract_y
  _atom_site_fract_z
C1 C 0.56955 1.08163 0.44484
 C2 C 0.58384 1.09996 0.50056
 C3 C 0.57061 1.08013 0.55564
 C4 C 0.54557 1.03919 0.55461
 C5 C 0.53145 1.01975 0.49880
 C6 C 0.54323 1.04097 0.44378
 C7 C 0.53080 1.02036 0.38909
 C8 C 0.50600 0.98048 0.38828
 C9 C 0.49371 0.95905 0.44206
 C10 C 0.50643 0.97869 0.49794
 C11 C 0.53715 1.01666 0.60752
 C12 C 0.51252 0.97675 0.60670
 C13 C 0.49518 0.95721 0.55284
 C14 C 0.46984 0.91625 0.55159
 C15 C 0.45815 0.89768 0.49546
 C16 C 0.46954 0.91832 0.44129
 H17 H 0.54094 1.03452 0.34594
 H18 H 0.49719 0.96650 0.34475
 H19 H 0.55065 1.02945 0.65013
 H20 H 0.50853 0.96127 0.64877
 H21 H 0.60224 1.13129 0.50102
 H22 H 0.43858 0.86657 0.49355
 C23 C -0.08451 0.47735 0.44516
 C24 C -0.10498 0.47000 0.49961
 C25 C -0.08545 0.48005 0.55540
 C26 C -0.04370 0.50121 0.55568
 C27 C -0.02261 0.50884 0.50057
 C28 C -0.04312 0.49666 0.44519
 C29 C -0.02175 0.50475 0.39106
 C30 C 0.01901 0.52459 0.39122
 C31 C 0.03999 0.53738 0.44547
 C32 C 0.01913 0.52917 0.50076
 C33 C -0.02255 0.51765 0.60890
 C34 C 0.01818 0.53733 0.60915
 C35 C 0.03984 0.54169 0.55612
 C36 C 0.08161 0.56105 0.55618
 C37 C 0.10139 0.56978 0.50057
 C38 C 0.08134 0.55817 0.44585
 H39 H -0.03636 0.49617 0.34786
 H40 H 0.03391 0.53000 0.34821
 H41 H -0.03728 0.51649 0.65089
 H42 H 0.03242 0.55012 0.65132
 H43 H -0.13672 0.45350 0.49830
 H44 H 0.13319 0.58420 0.49956
 C45 C 0.45252 0.53633 0.55444
 C46 C 0.44912 0.55177 0.49889
 C47 C 0.45701 0.53899 0.44432
 C48 C 0.47143 0.51180 0.44457
 C49 C 0.47715 0.49724 0.50026
 C50 C 0.46724 0.50907 0.55532
 C51 C 0.47448 0.49499 0.60976
 C52 C 0.48976 0.46919 0.61023
 C53 C 0.50123 0.45821 0.55658
 C54 C 0.49349 0.47131 0.50087
 C55 C 0.48139 0.49973 0.39061
 C56 C 0.49643 0.47368 0.39116
 C57 C 0.50264 0.45907 0.44573
 C58 C 0.51852 0.43311 0.44657
 C59 C 0.52563 0.42010 0.50157
 C60 C 0.51874 0.43325 0.55693
 H61 H 0.46919 0.50420 0.65310
 H62 H 0.49232 0.45794 0.65361
 H63 H 0.47811 0.51069 0.34731
 H64 H 0.50360 0.46547 0.34822
 H65 H 0.43746 0.57216 0.49758
 H66 H 0.53953 0.40163 0.50079
 O67 O 0.38983 0.65846 -0.05469
 O68 O 0.38711 0.72238 -0.07445
 C69 C 0.36876 0.74118 -0.08564
 O70 O 0.34054 0.73854 -0.05311
 O71 O 0.27650 0.67350 -0.07021
 C72 C 0.25854 0.63734 -0.08108
 O73 O 0.26293 0.61239 -0.04934
 O74 O 0.32869 0.61119 -0.06931
 C75 C 0.36469 0.62880 -0.08309
 O76 O 0.39027 0.67137 0.06536
 O77 O 0.39120 0.73759 0.04552
 C78 C 0.36696 0.74334 0.07719
 O79 O 0.33042 0.72613 0.06705
 O80 O 0.26392 0.66336 0.05017
 C81 C 0.25973 0.63433 0.08172
 O82 O 0.27804 0.61550 0.07043
 O83 O 0.34194 0.61115 0.05036
 C84 C 0.37213 0.63558 0.07896
 Cr85 Cr 0.38756 0.69650 -0.00440
 Cr86 Cr 0.30384 0.69927 -0.00151
 Cr87 Cr 0.30392 0.61463 0.00046
 O88 O 0.33181 0.67009 -0.00174
 O89 O 0.60746 0.31873 -0.06961
 O90 O 0.61576 0.25708 -0.05066
 C91 C 0.64265 0.25599 -0.08219
 O92 O 0.67874 0.27733 -0.07129
 O93 O 0.73921 0.34501 -0.05174
 C94 C 0.73924 0.37286 -0.08179
 O95 O 0.71707 0.38749 -0.06918
 O96 O 0.64801 0.38077 -0.04787
 C97 C 0.62119 0.35479 -0.08000
 O98 O 0.60331 0.32830 0.05074
 O99 O 0.61564 0.26877 0.06894
 C100 C 0.63875 0.25499 0.08022
 O101 O 0.66939 0.26328 0.04918
 O102 O 0.72773 0.33203 0.06804
 C103 C 0.74094 0.36772 0.08047
 O104 O 0.73155 0.38999 0.05076
 O105 O 0.66108 0.37930 0.07150
 C106 C 0.62499 0.35794 0.08254
 Cr107 Cr 0.61259 0.29447 -0.00014
 Cr108 Cr 0.70245 0.30519 -0.00145
 Cr109 Cr 0.68868 0.38236 0.00124
 O110 O 0.66795 0.32732 0.00008
 C111 C 0.42391 0.84472 -0.29280
 C112 C 0.44102 0.83365 -0.34020
 C113 C 0.45568 0.85728 -0.39147
 C114 C 0.45535 0.89309 -0.39584
 C115 C 0.43859 0.90412 -0.34842
 C116 C 0.42309 0.88036 -0.29768
 C117 C 0.40813 0.81823 -0.23913
 C118 C 0.38816 0.82501 -0.19119
 C119 C 0.37474 0.79970 -0.14172
 C120 C 0.38135 0.76739 -0.13855
 C121 C 0.40044 0.75999 -0.18658
 C122 C 0.41332 0.78470 -0.23688
 C123 C 0.44411 0.79940 -0.33587
 C124 C 0.43107 0.77575 -0.28494
 H125 H 0.45739 0.79104 -0.37206
 H126 H 0.43470 0.74985 -0.28337
 H127 H 0.46888 0.84843 -0.42724
 H128 H 0.43651 0.93081 -0.35127
 H129 H 0.35980 0.80580 -0.10536
 H130 H 0.40492 0.73458 -0.18513
 H131 H 0.41076 0.89048 -0.26277
 H132 H 0.38252 0.84955 -0.19112
 C133 C 0.15282 0.58879 -0.28655
 C134 C 0.16160 0.61654 -0.33317
 C135 C 0.13798 0.60709 -0.38482
 C136 C 0.10438 0.57065 -0.39044
 C137 C 0.09552 0.54334 -0.34362
 C138 C 0.11930 0.55222 -0.29247
 C139 C 0.17955 0.59986 -0.23282
 C140 C 0.17519 0.57369 -0.18576
 C141 C 0.20096 0.58565 -0.13668
 C142 C 0.23131 0.62405 -0.13296
 C143 C 0.23608 0.65013 -0.17986
 C144 C 0.21095 0.63828 -0.22980
 C145 C 0.19367 0.65379 -0.32786
 C146 C 0.21750 0.66459 -0.27694
 H147 H 0.20025 0.67512 -0.36340
 H148 H 0.24173 0.69391 -0.27475
 H149 H 0.14509 0.62875 -0.42003
 H150 H 0.07076 0.51445 -0.34738
 H151 H 0.19683 0.56492 -0.10121
 H152 H 0.25995 0.67969 -0.17805
 H153 H 0.11093 0.53003 -0.25822
 H154 H 0.15233 0.54386 -0.18618
 C155 C 0.41340 0.57129 -0.28978
 C156 C 0.44089 0.59942 -0.32947
 C157 C 0.45306 0.58760 -0.38148
 C158 C 0.43998 0.54792 -0.39321
 C159 C 0.41280 0.52015 -0.35350
 C160 C 0.39971 0.53157 -0.30255
 C161 C 0.40043 0.58512 -0.23554
 C162 C 0.37066 0.55961 -0.19630
 C163 C 0.35933 0.57395 -0.14677
 C164 C 0.37782 0.61391 -0.13441
 C165 C 0.40750 0.63963 -0.17301
 C166 C 0.41831 0.62563 -0.22408
 C167 C 0.45665 0.63914 -0.31647
 C168 C 0.44610 0.65194 -0.26440
 H169 H 0.47793 0.66070 -0.34662
 H170 H 0.45947 0.68297 -0.25605
 H171 H 0.47410 0.60941 -0.41167
 H172 H 0.40099 0.48934 -0.36256
 H173 H 0.33611 0.55365 -0.11773
 H174 H 0.42122 0.67067 -0.16441
 H175 H 0.37911 0.50882 -0.27366
 H176 H 0.35529 0.52860 -0.20352
 C177 C 0.59792 0.15019 -0.28639
 C178 C 0.62733 0.15681 -0.32958
 C179 C 0.61828 0.13339 -0.38131
 C180 C 0.58028 0.10241 -0.39054
 C181 C 0.55130 0.09603 -0.34721
 C182 C 0.55992 0.11933 -0.29594
 C183 C 0.60854 0.17658 -0.23264
 C184 C 0.58103 0.17353 -0.18851
 C185 C 0.59224 0.19918 -0.13982
 C186 C 0.63120 0.22840 -0.13338
 C187 C 0.65890 0.23156 -0.17693
 C188 C 0.64783 0.20621 -0.22654
 C189 C 0.66564 0.18677 -0.32097
 C190 C 0.67573 0.21075 -0.27038
 H191 H 0.68825 0.19176 -0.35386
 H192 H 0.70579 0.23349 -0.26584
 H193 H 0.64122 0.13872 -0.41381
 H194 H 0.52128 0.07371 -0.35395
 H195 H 0.57021 0.19603 -0.10698
 H196 H 0.68904 0.25425 -0.17287
 H197 H 0.53625 0.11283 -0.26478
 H198 H 0.55063 0.15182 -0.19087
 C199 C 0.84422 0.43509 -0.28721
 C200 C 0.83343 0.45371 -0.33266
 C201 C 0.85672 0.46843 -0.38452
 C202 C 0.89182 0.46635 -0.39130
 C203 C 0.90244 0.44803 -0.34569
 C204 C 0.87916 0.43273 -0.29446
 C205 C 0.81794 0.41880 -0.23333
 C206 C 0.82465 0.39752 -0.18754
 C207 C 0.79911 0.38270 -0.13853
 C208 C 0.76649 0.38902 -0.13343
 C209 C 0.75951 0.41014 -0.17879
 C210 C 0.78457 0.42453 -0.22887
 C211 C 0.79965 0.45787 -0.32592
 C212 C 0.77601 0.44401 -0.27483
 H213 H 0.79149 0.47235 -0.36052
 H214 H 0.75034 0.44820 -0.27161
 H215 H 0.84812 0.48272 -0.41887
 H216 H 0.92832 0.44433 -0.35046
 H217 H 0.80509 0.36639 -0.10427
 H218 H 0.73401 0.41466 -0.17583
 H219 H 0.88905 0.41911 -0.26129
 H220 H 0.84916 0.39163 -0.18892
 C221 C 0.56223 0.40382 -0.28586
 C222 C 0.53974 0.37492 -0.32863
 C223 C 0.52545 0.38484 -0.38036
 C224 C 0.53220 0.42320 -0.38988
 C225 C 0.55505 0.45182 -0.34758
 C226 C 0.56966 0.44234 -0.29630
 C227 C 0.57737 0.39210 -0.23161
 C228 C 0.60090 0.41881 -0.18728
 C229 C 0.61474 0.40655 -0.13807
 C230 C 0.60531 0.36732 -0.13133
 C231 C 0.58160 0.34040 -0.17496
 C232 C 0.56787 0.35249 -0.22502
 C233 C 0.53151 0.33625 -0.31952
 C234 C 0.54512 0.32525 -0.26872
 H235 H 0.51420 0.31408 -0.35217
 H236 H 0.53791 0.29495 -0.26379
 H237 H 0.50800 0.36231 -0.41252
 H238 H 0.56268 0.48204 -0.35499
 H239 H 0.63298 0.42799 -0.10517
 H240 H 0.57436 0.31004 -0.17062
 H241 H 0.58693 0.46573 -0.26579
 H242 H 0.60924 0.44934 -0.18981
 C243 C 0.84550 0.42994 0.28599
 C244 C 0.84850 0.46420 0.31278
 C245 C 0.87162 0.47972 0.36454
 C246 C 0.89237 0.46194 0.38939
 C247 C 0.89010 0.42857 0.36240
 C248 C 0.86701 0.41269 0.31126
 C249 C 0.81941 0.41352 0.23207
 C250 C 0.81261 0.37840 0.20435
 C251 C 0.78742 0.36387 0.15505
 C252 C 0.76857 0.38406 0.13158
 C253 C 0.77532 0.41921 0.15857
 C254 C 0.80011 0.43378 0.20888
 C255 C 0.82844 0.48271 0.28782
 C256 C 0.80506 0.46803 0.23669
 H257 H 0.83091 0.50904 0.30809
 H258 H 0.79018 0.48347 0.21912
 H259 H 0.87354 0.50563 0.38563
 H260 H 0.90605 0.41461 0.38141
 H261 H 0.78270 0.33664 0.13521
 H262 H 0.76048 0.43480 0.14136
 H263 H 0.86642 0.38698 0.29243
 H264 H 0.82602 0.36139 0.22038
 C265 C 0.60274 0.15459 0.28983
 C266 C 0.56271 0.12928 0.30210
 C267 C 0.55197 0.10452 0.35251
 C268 C 0.58051 0.10523 0.39250
 C269 C 0.62001 0.13220 0.38205
 C270 C 0.63108 0.15611 0.33108
 C271 C 0.61303 0.17976 0.23461
 C272 C 0.65195 0.20284 0.21492
 C273 C 0.66007 0.22651 0.16396
 C274 C 0.62970 0.22812 0.13183
 C275 C 0.59078 0.20455 0.15013
 C276 C 0.58223 0.17985 0.20037
 C277 C 0.53359 0.12964 0.26501
 C278 C 0.54313 0.15497 0.21599
 H279 H 0.50290 0.11058 0.27473
 H280 H 0.51951 0.15469 0.18941
 H281 H 0.52116 0.08563 0.36197
 H282 H 0.64264 0.13407 0.41269
 H283 H 0.69032 0.24432 0.15042
 H284 H 0.56710 0.20506 0.12472
 H285 H 0.66187 0.17599 0.32536
 H286 H 0.67648 0.20284 0.23796
 C287 C 0.55850 0.39918 0.28773
 C288 C 0.58542 0.42831 0.32676
 C289 C 0.57191 0.43923 0.37811
 C290 C 0.53183 0.42185 0.39116
 C291 C 0.50500 0.39340 0.35254
 C292 C 0.51810 0.38212 0.30128
 C293 C 0.57439 0.38786 0.23395
 C294 C 0.55044 0.35844 0.19322
 C295 C 0.56681 0.34879 0.14416
 C296 C 0.60744 0.36831 0.13418
 C297 C 0.63149 0.39767 0.17449
 C298 C 0.61542 0.40737 0.22414
 C299 C 0.62566 0.44636 0.31448
 C300 C 0.64031 0.43624 0.26414
 H301 H 0.64619 0.46871 0.34429
 H302 H 0.67172 0.45111 0.25665
 H303 H 0.59255 0.46130 0.40825
 H304 H 0.47391 0.37978 0.36238
 H305 H 0.54752 0.32597 0.11390
 H306 H 0.66298 0.41282 0.16772
 H307 H 0.49619 0.36005 0.27307
 H308 H 0.51905 0.34237 0.19855
 C309 C 0.15451 0.58512 0.28836
 C310 C 0.13348 0.60581 0.30019
 C311 C 0.10882 0.59631 0.35089
 C312 C 0.10508 0.56661 0.39023
 C313 C 0.12573 0.54611 0.37857
 C314 C 0.15003 0.55504 0.32819
 C315 C 0.18118 0.59665 0.23458
 C316 C 0.20322 0.57783 0.21907
 C317 C 0.22828 0.59006 0.16943
 C318 C 0.23218 0.62140 0.13355
 C319 C 0.21000 0.64014 0.14817
 C320 C 0.18458 0.62799 0.19821
 C321 C 0.13769 0.63618 0.26194
 C322 C 0.16276 0.64709 0.21218
 H323 H 0.12161 0.65202 0.27093
 H324 H 0.16520 0.67099 0.18431
 H325 H 0.09302 0.61237 0.36050
 H326 H 0.12321 0.52326 0.40898
 H327 H 0.24487 0.57489 0.15943
 H328 H 0.21260 0.66432 0.12082
 H329 H 0.16530 0.53831 0.32186
 H330 H 0.20175 0.55366 0.24463
 C331 C 0.42369 0.84850 0.28205
 C332 C 0.46408 0.86479 0.29614
 C333 C 0.47918 0.88845 0.34733
 C334 C 0.45449 0.89599 0.38487
 C335 C 0.41469 0.88017 0.37085
 C336 C 0.39939 0.85685 0.31997
 C337 C 0.40846 0.82237 0.22816
 C338 C 0.36876 0.80443 0.21086
 C339 C 0.35569 0.77932 0.16160
 C340 C 0.38176 0.77139 0.12789
 C341 C 0.42157 0.78968 0.14406
 C342 C 0.43503 0.81494 0.19382
 C343 C 0.48896 0.85681 0.25974
 C344 C 0.47474 0.83240 0.20974
 H345 H 0.51987 0.86932 0.27042
 H346 H 0.49514 0.82686 0.18339
 H347 H 0.50996 0.90047 0.35878
 H348 H 0.39531 0.88563 0.39986
 H349 H 0.32484 0.76583 0.15024
 H350 H 0.44207 0.78386 0.11847
 H351 H 0.36845 0.84535 0.31176
 H352 H 0.34715 0.80908 0.23488
 C353 C 0.42747 0.58297 0.28523
 C354 C 0.40687 0.54280 0.29955
 C355 C 0.41739 0.52849 0.35061
 C356 C 0.44811 0.55369 0.38797
 C357 C 0.46850 0.59335 0.37395
 C358 C 0.45853 0.60790 0.32308
 C359 C 0.41464 0.59723 0.23118
 C360 C 0.43315 0.63655 0.21316
 C361 C 0.41950 0.64862 0.16357
 C362 C 0.38703 0.62192 0.13031
 C363 C 0.36873 0.58253 0.14731
 C364 C 0.38226 0.57005 0.19726
 C365 C 0.37549 0.51731 0.26353
 C366 C 0.36339 0.53065 0.21361
 H367 H 0.35976 0.48658 0.27447
 H368 H 0.33870 0.50978 0.18756
 H369 H 0.40123 0.49786 0.36217
 H370 H 0.49204 0.61317 0.40286
 H371 H 0.43436 0.67920 0.15162
 H372 H 0.34369 0.56152 0.12200
 H373 H 0.47519 0.63874 0.31480
 H374 H 0.45810 0.65858 0.23679
   
