data_POSCAR
  _audit_creation_date              2014-09-24
  _audit_creation_method            'ToBaCCo'
  _symmetry_space_group_name_H-M    'P1'
  _symmetry_Int_Tables_number       1
  _symmetry_cell_setting            triclinic
  loop_
  _symmetry_equiv_pos_as_xyz
 x,y,z
_cell_length_a 49.7430
_cell_length_b 49.7359
_cell_length_c 23.5067
_cell_angle_alpha 89.883900
_cell_angle_beta 90.068300
_cell_angle_gamma 119.929300
loop_
  _atom_site_label
  _atom_site_type_symbol
  _atom_site_fract_x
  _atom_site_fract_y
  _atom_site_fract_z
C1 C 0.49961 0.99926 0.47272
 C2 C 0.49948 0.99920 0.53065
 C3 C 0.48555 0.96991 0.56402
 C4 C 0.51328 1.02841 0.56403
 C5 C 0.51505 1.02855 0.43939
 C6 C 0.48431 0.97006 0.43930
 C7 C 0.46274 0.96425 0.60482
 C8 C 0.44984 0.93722 0.63761
 C9 C 0.45976 0.91557 0.63026
 C10 C 0.48266 0.92113 0.58976
 C11 C 0.49558 0.94823 0.55693
 C12 C 0.50330 1.05013 0.55655
 C13 C 0.51618 1.07720 0.58928
 C14 C 0.53893 1.08268 0.62999
 C15 C 0.54878 1.06103 0.63781
 C16 C 0.53596 1.03401 0.60516
 C17 C 0.54670 1.05018 0.44684
 C18 C 0.56093 1.07730 0.41404
 C19 C 0.54371 1.08288 0.37330
 C20 C 0.51224 1.06132 0.36555
 C21 C 0.49802 1.03427 0.39825
 C22 C 0.50149 0.96447 0.39843
 C23 C 0.48737 0.93755 0.36552
 C24 C 0.45587 0.91599 0.37281
 C25 C 0.43850 0.92143 0.41332
 C26 C 0.45262 0.94841 0.44632
 H27 H 0.45486 0.98079 0.61113
 H28 H 0.43227 0.93340 0.66891
 H29 H 0.49077 0.90474 0.58381
 H30 H 0.51358 0.95247 0.52643
 H31 H 0.48540 1.04595 0.52580
 H32 H 0.50822 1.09370 0.58321
 H33 H 0.54381 1.01746 0.61180
 H34 H 0.56038 1.04592 0.47759
 H35 H 0.58536 1.09373 0.42007
 H36 H 0.49875 1.06533 0.33395
 H37 H 0.47366 1.01778 0.39164
 H38 H 0.52588 0.98097 0.39214
 H39 H 0.50098 0.93365 0.33410
 H40 H 0.41404 0.90500 0.41898
 H41 H 0.43883 0.95258 0.47685
 H42 H 0.56625 1.06495 0.66939
 C43 C -0.00042 0.49971 0.46934
 C44 C -0.00037 0.49981 0.52727
 C45 C 0.02890 0.51525 0.56056
 C46 C -0.02959 0.48447 0.56073
 C47 C -0.02969 0.48576 0.43603
 C48 C 0.02880 0.51355 0.43591
 C49 C 0.03463 0.49822 0.60169
 C50 C 0.06168 0.51245 0.63431
 C51 C 0.08323 0.54392 0.62648
 C52 C 0.07763 0.56115 0.58576
 C53 C 0.05052 0.54692 0.55305
 C54 C -0.05122 0.45278 0.55373
 C55 C -0.07824 0.43864 0.58667
 C56 C -0.08375 0.45599 0.62710
 C57 C -0.06219 0.48749 0.63441
 C58 C -0.03522 0.50163 0.60156
 C59 C -0.05140 0.49576 0.44313
 C60 C -0.07849 0.48281 0.41034
 C61 C -0.08400 0.45993 0.36991
 C62 C -0.06234 0.45005 0.36253
 C63 C -0.03532 0.46296 0.39525
 C64 C 0.03437 0.53625 0.39476
 C65 C 0.06138 0.54909 0.36203
 C66 C 0.08305 0.53927 0.36978
 C67 C 0.07760 0.51650 0.41052
 C68 C 0.05053 0.50360 0.44333
 H69 H 0.01816 0.47385 0.60835
 H70 H 0.06571 0.49894 0.66589
 H71 H 0.09405 0.58559 0.57968
 H72 H 0.04624 0.56060 0.52230
 H73 H -0.04701 0.43901 0.52323
 H74 H -0.09467 0.41418 0.58099
 H75 H -0.01874 0.52602 0.60783
 H76 H -0.04719 0.51374 0.47360
 H77 H -0.09493 0.49085 0.41621
 H78 H -0.06620 0.43250 0.33123
 H79 H -0.01877 0.45511 0.38892
 H80 H 0.01781 0.54407 0.38817
 H81 H 0.06529 0.56657 0.33043
 H82 H 0.09411 0.50857 0.41654
 H83 H 0.04638 0.48569 0.47410
 H84 H -0.06614 0.50108 0.66577
 C85 C 0.50026 0.50026 0.47309
 C86 C 0.50025 0.50029 0.53102
 C87 C 0.48491 0.51424 0.56425
 C88 C 0.51559 0.48636 0.56453
 C89 C 0.51415 0.48487 0.43985
 C90 C 0.48636 0.51563 0.43956
 C91 C 0.50205 0.53701 0.60509
 C92 C 0.48794 0.54996 0.63768
 C93 C 0.45644 0.54015 0.63011
 C94 C 0.43911 0.51729 0.58963
 C95 C 0.45325 0.50430 0.55697
 C96 C 0.54725 0.49628 0.55736
 C97 C 0.56138 0.48331 0.59028
 C98 C 0.54404 0.46048 0.63091
 C99 C 0.51255 0.45068 0.63837
 C100 C 0.49844 0.46361 0.60552
 C101 C 0.50416 0.45319 0.44717
 C102 C 0.51705 0.43900 0.41439
 C103 C 0.53984 0.45629 0.37379
 C104 C 0.54974 0.48779 0.36618
 C105 C 0.53691 0.50198 0.39887
 C106 C 0.46361 0.49849 0.39863
 C107 C 0.45077 0.51264 0.36568
 C108 C 0.46066 0.54415 0.37298
 C109 C 0.48345 0.56147 0.41353
 C110 C 0.49635 0.54731 0.44657
 H111 H 0.52642 0.54482 0.61155
 H112 H 0.50160 0.56750 0.66903
 H113 H 0.41466 0.50930 0.58361
 H114 H 0.43950 0.48634 0.52644
 H115 H 0.56100 0.51422 0.52672
 H116 H 0.58583 0.49129 0.58433
 H117 H 0.47407 0.45581 0.61191
 H118 H 0.48621 0.43946 0.47780
 H119 H 0.50905 0.41454 0.42030
 H120 H 0.56724 0.50134 0.33469
 H121 H 0.54477 0.52636 0.39236
 H122 H 0.45575 0.47410 0.39236
 H123 H 0.43327 0.49907 0.33424
 H124 H 0.49144 0.58593 0.41920
 H125 H 0.51430 0.56107 0.47715
 H126 H 0.49888 0.43317 0.66982
 O127 O 0.38053 0.65994 -0.04904
 O128 O 0.37915 0.71110 -0.06676
 C129 C 0.36466 0.72548 -0.07679
 O130 O 0.34079 0.72099 -0.04933
 O131 O 0.28970 0.66855 -0.06711
 C132 C 0.27539 0.63972 -0.07707
 O133 O 0.27985 0.62031 -0.04945
 O134 O 0.33235 0.62162 -0.06677
 C135 C 0.36119 0.63611 -0.07661
 O136 O 0.37910 0.66846 0.06397
 O137 O 0.38030 0.72090 0.04628
 C138 C 0.36085 0.72527 0.07379
 O139 O 0.33203 0.71092 0.06368
 O140 O 0.27965 0.65978 0.04589
 C141 C 0.27523 0.63593 0.07348
 O142 O 0.28965 0.62148 0.06364
 O143 O 0.34087 0.62024 0.04633
 C144 C 0.36465 0.63962 0.07397
 Cr145 Cr 0.37803 0.68923 -0.00140
 Cr146 Cr 0.31141 0.68919 -0.00172
 Cr147 Cr 0.31155 0.62265 -0.00157
 O148 O 0.33366 0.66703 -0.00156
 O149 O 0.61982 0.34055 -0.04688
 O150 O 0.62110 0.28936 -0.06444
 C151 C 0.63556 0.27496 -0.07440
 O152 O 0.65942 0.27938 -0.04692
 O153 O 0.71054 0.33180 -0.06479
 C154 C 0.72488 0.36063 -0.07485
 O155 O 0.72048 0.38005 -0.04730
 O156 O 0.66801 0.37883 -0.06468
 C157 C 0.63917 0.36439 -0.07452
 O158 O 0.62126 0.33190 0.06616
 O159 O 0.61997 0.27942 0.04861
 C160 C 0.63940 0.27497 0.07613
 O161 O 0.66822 0.28931 0.06607
 O162 O 0.72063 0.34044 0.04820
 C163 C 0.72510 0.36428 0.07571
 O164 O 0.71072 0.37877 0.06579
 O165 O 0.65953 0.38011 0.04840
 C166 C 0.63575 0.36073 0.07607
 Cr167 Cr 0.62228 0.31118 0.00085
 Cr168 Cr 0.68884 0.31110 0.00064
 Cr169 Cr 0.68882 0.37770 0.00056
 O170 O 0.66664 0.33333 0.00068
 C171 C 0.42365 0.79948 -0.24314
 C172 C 0.40484 0.80733 -0.28605
 C173 C 0.42390 0.84158 -0.26852
 C174 C 0.44290 0.83416 -0.22630
 C175 C 0.39999 0.79476 -0.19663
 C176 C 0.41906 0.82903 -0.17923
 C177 C 0.38097 0.80217 -0.23884
 C178 C 0.40024 0.83682 -0.22199
 C179 C 0.43723 0.86824 -0.30725
 C180 C 0.44811 0.89072 -0.33780
 C181 C 0.38693 0.76928 -0.15532
 C182 C 0.37653 0.74895 -0.12009
 H183 H 0.43311 0.78382 -0.25137
 H184 H 0.39916 0.79873 -0.33044
 H185 H 0.46851 0.84760 -0.22158
 H186 H 0.42476 0.83769 -0.13487
 H187 H 0.35536 0.78873 -0.24354
 H188 H 0.39076 0.85246 -0.21370
 C189 C 0.19979 0.58058 -0.24096
 C190 C 0.16507 0.56401 -0.22412
 C191 C 0.15961 0.58323 -0.26912
 C192 C 0.19393 0.59961 -0.28664
 C193 C 0.20632 0.60599 -0.19713
 C194 C 0.20090 0.62525 -0.24210
 C195 C 0.17198 0.58960 -0.17973
 C196 C 0.16615 0.60864 -0.22527
 C197 C 0.13302 0.56999 -0.30792
 C198 C 0.11059 0.55847 -0.33852
 C199 C 0.23173 0.61832 -0.15574
 C200 C 0.25200 0.62819 -0.12046
 H201 H 0.21391 0.56917 -0.24694
 H202 H 0.15004 0.53868 -0.21713
 H203 H 0.20264 0.60359 -0.33107
 H204 H 0.21594 0.65058 -0.24903
 H205 H 0.16321 0.58559 -0.13534
 H206 H 0.15204 0.62004 -0.21926
 C207 C 0.39145 0.60048 -0.26106
 C208 C 0.42634 0.61095 -0.26761
 C209 C 0.41796 0.57674 -0.26777
 C210 C 0.38330 0.56604 -0.26188
 C211 C 0.39514 0.60076 -0.19612
 C212 C 0.38678 0.56656 -0.19632
 C213 C 0.42979 0.61143 -0.20206
 C214 C 0.42161 0.57706 -0.20282
 C215 C 0.43121 0.56333 -0.30636
 C216 C 0.44273 0.55236 -0.33681
 C217 C 0.38276 0.61387 -0.15493
 C218 C 0.37282 0.62427 -0.11981
 H219 H 0.37891 0.61028 -0.28452
 H220 H 0.44275 0.62905 -0.29739
 H221 H 0.36434 0.54722 -0.28692
 H222 H 0.37038 0.54844 -0.16654
 H223 H 0.44878 0.63024 -0.17704
 H224 H 0.43414 0.56727 -0.17927
 C225 C 0.57672 0.20137 -0.24101
 C226 C 0.59551 0.19329 -0.28338
 C227 C 0.57608 0.15904 -0.26581
 C228 C 0.55709 0.16670 -0.22412
 C229 C 0.60008 0.20579 -0.19404
 C230 C 0.58064 0.17153 -0.17658
 C231 C 0.61909 0.19815 -0.23570
 C232 C 0.59944 0.16351 -0.21880
 C233 C 0.56269 0.13244 -0.30450
 C234 C 0.55176 0.11002 -0.33504
 C235 C 0.61320 0.23123 -0.15279
 C236 C 0.62364 0.25153 -0.11763
 H237 H 0.56754 0.21724 -0.24968
 H238 H 0.60145 0.20192 -0.32776
 H239 H 0.53145 0.15349 -0.21979
 H240 H 0.57468 0.16285 -0.13224
 H241 H 0.64472 0.21136 -0.24000
 H242 H 0.60864 0.14765 -0.21007
 C243 C 0.79945 0.41881 -0.24081
 C244 C 0.83424 0.43640 -0.22429
 C245 C 0.84020 0.41693 -0.26774
 C246 C 0.80582 0.39951 -0.28494
 C247 C 0.79370 0.39428 -0.19532
 C248 C 0.79963 0.37477 -0.23874
 C249 C 0.82811 0.41171 -0.17825
 C250 C 0.83444 0.39241 -0.22224
 C251 C 0.86668 0.43008 -0.30679
 C252 C 0.88900 0.44153 -0.33762
 C253 C 0.76841 0.38201 -0.15374
 C254 C 0.74820 0.37216 -0.11833
 H255 H 0.78479 0.42952 -0.24797
 H256 H 0.84876 0.46189 -0.21876
 H257 H 0.79697 0.39464 -0.32927
 H258 H 0.78510 0.34928 -0.24422
 H259 H 0.83701 0.41661 -0.13395
 H260 H 0.84910 0.38169 -0.21504
 C261 C 0.59989 0.39180 -0.25797
 C262 C 0.56754 0.38909 -0.25305
 C263 C 0.58248 0.42389 -0.26636
 C264 C 0.61461 0.42685 -0.27196
 C265 C 0.60527 0.39985 -0.19438
 C266 C 0.62021 0.43465 -0.20770
 C267 C 0.57315 0.39693 -0.18888
 C268 C 0.58789 0.43190 -0.20276
 C269 C 0.56925 0.43731 -0.30516
 C270 C 0.55773 0.44828 -0.33579
 C271 C 0.61763 0.38672 -0.15304
 C272 C 0.62756 0.37628 -0.11781
 H273 H 0.60496 0.37516 -0.28018
 H274 H 0.54574 0.37051 -0.27215
 H275 H 0.63151 0.43931 -0.30656
 H276 H 0.64200 0.45324 -0.18859
 H277 H 0.55622 0.38448 -0.15430
 H278 H 0.58283 0.44853 -0.18047
 C279 C 0.82865 0.41527 0.17811
 C280 C 0.83588 0.44190 0.22029
 C281 C 0.84108 0.42350 0.26736
 C282 C 0.83421 0.39705 0.22571
 C283 C 0.79433 0.39957 0.19546
 C284 C 0.79950 0.38114 0.24251
 C285 C 0.80117 0.42602 0.23708
 C286 C 0.80678 0.40781 0.28484
 C287 C 0.86769 0.43686 0.30611
 C288 C 0.89013 0.44777 0.33668
 C289 C 0.76889 0.38650 0.15415
 C290 C 0.74857 0.37612 0.11896
 H291 H 0.83738 0.41819 0.13379
 H292 H 0.85112 0.46703 0.21158
 H293 H 0.84809 0.38529 0.22145
 H294 H 0.78426 0.35601 0.25118
 H295 H 0.78728 0.43777 0.24129
 H296 H 0.79811 0.40492 0.32919
 C297 C 0.60835 0.20943 0.26138
 C298 C 0.57362 0.18433 0.26647
 C299 C 0.58299 0.15922 0.26858
 C300 C 0.61750 0.18386 0.26416
 C301 C 0.60574 0.20589 0.19637
 C302 C 0.61509 0.18076 0.19851
 C303 C 0.57124 0.18123 0.20085
 C304 C 0.58042 0.15575 0.20356
 C305 C 0.56977 0.13264 0.30749
 C306 C 0.55826 0.11023 0.33819
 C307 C 0.61805 0.23129 0.15489
 C308 C 0.62790 0.25157 0.11955
 H309 H 0.61997 0.23181 0.28466
 H310 H 0.55643 0.18550 0.29488
 H311 H 0.63637 0.18464 0.29064
 H312 H 0.63228 0.17957 0.17011
 H313 H 0.55235 0.18041 0.17440
 H314 H 0.56881 0.13340 0.18019
 C315 C 0.58338 0.41165 0.17935
 C316 C 0.55801 0.39240 0.22384
 C317 C 0.57679 0.41712 0.26884
 C318 C 0.60197 0.43654 0.22490
 C319 C 0.60062 0.39444 0.19647
 C320 C 0.61943 0.41916 0.24145
 C321 C 0.57544 0.37498 0.24039
 C322 C 0.59403 0.39992 0.28609
 C323 C 0.56349 0.43030 0.30786
 C324 C 0.55262 0.44178 0.33862
 C325 C 0.61363 0.38215 0.15491
 C326 C 0.62397 0.37228 0.11952
 H327 H 0.57914 0.41636 0.13503
 H328 H 0.53261 0.38154 0.21703
 H329 H 0.61274 0.46199 0.21894
 H330 H 0.64483 0.43002 0.24822
 H331 H 0.56469 0.34952 0.24629
 H332 H 0.59823 0.39524 0.33044
 C333 C 0.17177 0.58141 0.17594
 C334 C 0.16672 0.55750 0.22296
 C335 C 0.15935 0.57645 0.26525
 C336 C 0.16404 0.60017 0.21877
 C337 C 0.20606 0.60047 0.19328
 C338 C 0.19871 0.61943 0.23556
 C339 C 0.20141 0.57675 0.23975
 C340 C 0.19362 0.59550 0.28272
 C341 C 0.13278 0.56306 0.30406
 C342 C 0.11037 0.55212 0.33470
 C343 C 0.23148 0.61359 0.15195
 C344 C 0.25178 0.62402 0.11674
 H345 H 0.16304 0.57577 0.13159
 H346 H 0.15329 0.53190 0.21822
 H347 H 0.14838 0.60965 0.21054
 H348 H 0.21214 0.64504 0.24027
 H349 H 0.21709 0.56729 0.24791
 H350 H 0.20230 0.60112 0.32710
 C351 C 0.41839 0.79921 0.24060
 C352 C 0.43647 0.83404 0.22434
 C353 C 0.41688 0.84019 0.26722
 C354 C 0.39898 0.80576 0.28418
 C355 C 0.39432 0.79388 0.19451
 C356 C 0.37469 0.80000 0.23737
 C357 C 0.41222 0.82833 0.17768
 C358 C 0.39280 0.83485 0.22111
 C359 C 0.43000 0.86656 0.30645
 C360 C 0.44142 0.88881 0.33740
 C361 C 0.38210 0.76868 0.15279
 C362 C 0.37230 0.74854 0.11730
 H363 H 0.42878 0.78427 0.24814
 H364 H 0.46202 0.84833 0.21939
 H365 H 0.39368 0.79679 0.32843
 H366 H 0.34914 0.78570 0.24225
 H367 H 0.41755 0.83735 0.13346
 H368 H 0.38242 0.84978 0.21353
 C369 C 0.39136 0.60032 0.25814
 C370 C 0.38895 0.56810 0.25338
 C371 C 0.42367 0.58324 0.26741
 C372 C 0.42633 0.61526 0.27286
 C373 C 0.39983 0.60590 0.19471
 C374 C 0.43455 0.62104 0.20875
 C375 C 0.39721 0.57390 0.18936
 C376 C 0.43210 0.58885 0.20398
 C377 C 0.43699 0.57008 0.30662
 C378 C 0.44787 0.55863 0.33757
 C379 C 0.38681 0.61819 0.15300
 C380 C 0.37645 0.62806 0.11751
 H381 H 0.37445 0.60517 0.27992
 H382 H 0.37035 0.54619 0.27218
 H383 H 0.43846 0.63211 0.30764
 H384 H 0.45316 0.64295 0.18994
 H385 H 0.38509 0.55702 0.15461
 H386 H 0.44900 0.58400 0.18211
   
