data_POSCAR
  _audit_creation_date              2014-09-24
  _audit_creation_method            'ToBaCCo'
  _symmetry_space_group_name_H-M    'P1'
  _symmetry_Int_Tables_number       1
  _symmetry_cell_setting            triclinic
  loop_
  _symmetry_equiv_pos_as_xyz
 x,y,z
_cell_length_a 53.7847
_cell_length_b 53.7856
_cell_length_c 54.4463
_cell_angle_alpha 89.971200
_cell_angle_beta 89.971600
_cell_angle_gamma 90.028600
loop_
  _atom_site_label
  _atom_site_type_symbol
  _atom_site_fract_x
  _atom_site_fract_y
  _atom_site_fract_z
O1 O -0.02346 0.26776 0.02342
 O2 O 0.02486 0.26765 -0.02453
 O3 O -0.02354 0.26745 -0.02441
 O4 O 0.02494 0.26797 0.02329
 O5 O 0.02510 0.22685 0.02359
 O6 O -0.02339 0.22633 -0.02413
 O7 O 0.02502 0.22654 -0.02426
 O8 O -0.02331 0.22665 0.02371
 Cu9 Cu 0.00068 0.27186 -0.00059
 Cu10 Cu 0.00087 0.22244 -0.00024
 C11 C -0.03153 0.24723 0.03167
 C12 C 0.03309 0.24708 -0.03250
 C13 C -0.03163 0.24680 -0.03233
 C14 C 0.03319 0.24751 0.03150
 O15 O 0.47526 0.76871 0.52386
 O16 O 0.52375 0.76839 0.47608
 O17 O 0.47534 0.76858 0.47601
 O18 O 0.52368 0.76851 0.52393
 O19 O 0.52350 0.72739 0.52406
 O20 O 0.47514 0.72747 0.47612
 O21 O 0.52357 0.72727 0.47619
 O22 O 0.47506 0.72759 0.52399
 Cu23 Cu 0.49952 0.77269 0.49996
 Cu24 Cu 0.49930 0.72328 0.50011
 C25 C 0.46699 0.74821 0.53200
 C26 C 0.53183 0.74778 0.46806
 C27 C 0.46709 0.74804 0.46796
 C28 C 0.53174 0.74794 0.53209
 O29 O 1.02468 0.73184 0.02394
 O30 O 0.97630 0.73176 -0.02394
 O31 O 1.02471 0.73194 -0.02391
 O32 O 0.97627 0.73167 0.02391
 O33 O 0.97613 0.77279 0.02397
 O34 O 1.02460 0.77305 -0.02386
 O35 O 0.97616 0.77288 -0.02389
 O36 O 1.02456 0.77295 0.02401
 Cu37 Cu 1.00050 0.72766 -0.00001
 Cu38 Cu 1.00035 0.77707 0.00006
 C39 C 1.03279 0.75241 0.03207
 C40 C 0.96807 0.75230 -0.03201
 C41 C 1.03282 0.75254 -0.03198
 C42 C 0.96803 0.75218 0.03202
 O43 O 0.52434 0.23172 0.52408
 O44 O 0.47605 0.23177 0.47621
 O45 O 0.52444 0.23162 0.47625
 O46 O 0.47596 0.23188 0.52403
 O47 O 0.47610 0.27300 0.52393
 O48 O 0.52461 0.27274 0.47613
 O49 O 0.47618 0.27289 0.47609
 O50 O 0.52450 0.27284 0.52399
 Cu51 Cu 0.50018 0.22760 0.50015
 Cu52 Cu 0.50036 0.27702 0.50002
 C53 C 0.53256 0.25227 0.53213
 C54 C 0.46797 0.25233 0.46806
 C55 C 0.53270 0.25213 0.46812
 C56 C 0.46786 0.25247 0.53206
 O57 O 0.73188 -0.02420 0.02368
 O58 O 0.73183 0.02412 -0.02425
 O59 O 0.73187 -0.02427 -0.02414
 O60 O 0.73186 0.02419 0.02357
 O61 O 0.77298 0.02425 0.02354
 O62 O 0.77299 -0.02423 -0.02419
 O63 O 0.77295 0.02418 -0.02430
 O64 O 0.77300 -0.02417 0.02366
 Cu65 Cu 0.72771 -0.00005 -0.00028
 Cu66 Cu 0.77713 0.00001 -0.00033
 C67 C 0.75245 -0.03233 0.03177
 C68 C 0.75237 0.03229 -0.03239
 C69 C 0.75242 -0.03241 -0.03224
 C70 C 0.75241 0.03238 0.03162
 O71 O 0.23103 0.47619 0.52416
 O72 O 0.23087 0.52470 0.47640
 O73 O 0.23105 0.47629 0.47632
 O74 O 0.23088 0.52461 0.52425
 O75 O 0.27200 0.52478 0.52424
 O76 O 0.27217 0.47644 0.47629
 O77 O 0.27199 0.52487 0.47637
 O78 O 0.27215 0.47634 0.52416
 Cu79 Cu 0.22681 0.50043 0.50029
 Cu80 Cu 0.27622 0.50062 0.50027
 C81 C 0.25161 0.46809 0.53223
 C82 C 0.25140 0.53295 0.46831
 C83 C 0.25163 0.46822 0.46820
 C84 C 0.25141 0.53285 0.53235
 O85 O 0.26865 0.97625 -0.02463
 O86 O 0.26882 1.02471 0.02316
 O87 O 0.26870 0.97630 0.02321
 O88 O 0.26875 1.02466 -0.02470
 O89 O 0.22764 1.02475 -0.02464
 O90 O 0.22758 0.97637 0.02328
 O91 O 0.22770 1.02480 0.02323
 O92 O 0.22753 0.97631 -0.02458
 Cu93 Cu 0.27287 1.00048 -0.00075
 Cu94 Cu 0.22347 1.00057 -0.00067
 C95 C 0.24807 0.96810 -0.03268
 C96 C 0.24829 1.03292 0.03128
 C97 C 0.24813 0.96818 0.03134
 C98 C 0.24821 1.03286 -0.03277
 O99 O 0.76840 0.47538 0.47630
 O100 O 0.76814 0.52374 0.52412
 O101 O 0.76833 0.47534 0.52413
 O102 O 0.76822 0.52377 0.47630
 O103 O 0.72710 0.52360 0.47624
 O104 O 0.72721 0.47515 0.52410
 O105 O 0.72702 0.52357 0.52409
 O106 O 0.72728 0.47519 0.47625
 Cu107 Cu 0.77243 0.49958 0.50022
 Cu108 Cu 0.72300 0.49936 0.50017
 C109 C 0.74789 0.46714 0.46819
 C110 C 0.74754 0.53181 0.53218
 C111 C 0.74780 0.46708 0.53220
 C112 C 0.74765 0.53185 0.46818
 C113 C 0.25078 0.23220 0.23139
 C114 C 0.23227 0.25072 0.23139
 C115 C 0.23227 0.26904 0.24967
 C116 C 0.25057 0.26907 0.26795
 C117 C 0.26909 0.25056 0.26795
 C118 C 0.26909 0.23223 0.24967
 H119 H 0.28335 0.21797 0.24968
 H120 H 0.21800 0.28329 0.24965
 C121 C 0.74993 0.76833 0.23182
 C122 C 0.76843 0.74980 0.23182
 C123 C 0.76834 0.73141 0.25005
 C124 C 0.74996 0.73134 0.26829
 C125 C 0.73146 0.74988 0.26829
 C126 C 0.73155 0.76826 0.25006
 H127 H 0.71731 0.78253 0.25007
 H128 H 0.78258 0.71714 0.25004
 C129 C 0.76912 0.24978 0.23171
 C130 C 0.75056 0.23130 0.23169
 C131 C 0.73219 0.23134 0.24993
 C132 C 0.73217 0.24966 0.26820
 C133 C 0.75073 0.26815 0.26821
 C134 C 0.76910 0.26811 0.24997
 H135 H 0.78339 0.28235 0.24999
 H136 H 0.71790 0.21710 0.24992
 C137 C 0.23099 0.75021 0.23124
 C138 C 0.24957 0.76869 0.23123
 C139 C 0.26790 0.76862 0.24950
 C140 C 0.26788 0.75029 0.26779
 C141 C 0.24930 0.73182 0.26781
 C142 C 0.23097 0.73188 0.24953
 H143 H 0.21667 0.71765 0.24955
 H144 H 0.28220 0.78285 0.24948
 C145 C 0.73154 0.24910 0.73211
 C146 C 0.75014 0.26756 0.73206
 C147 C 0.76855 0.26741 0.75024
 C148 C 0.76857 0.24902 0.76846
 C149 C 0.74998 0.23057 0.76852
 C150 C 0.73157 0.23071 0.75034
 H151 H 0.71725 0.21650 0.75037
 H152 H 0.78287 0.28162 0.75020
 C153 C 0.26780 0.75087 0.73218
 C154 C 0.24929 0.73233 0.73225
 C155 C 0.23097 0.73239 0.75056
 C156 C 0.23095 0.75077 0.76879
 C157 C 0.24947 0.76931 0.76872
 C158 C 0.26778 0.76925 0.75042
 H159 H 0.28204 0.78352 0.75036
 H160 H 0.21671 0.71812 0.75062
 C161 C 0.24985 0.26850 0.73203
 C162 C 0.26842 0.25004 0.73201
 C163 C 0.26842 0.23165 0.75024
 C164 C 0.25005 0.23150 0.76848
 C165 C 0.23147 0.24995 0.76851
 C166 C 0.23148 0.26835 0.75028
 H167 H 0.21717 0.28256 0.75030
 H168 H 0.28272 0.21744 0.75022
 C169 C 0.74992 0.73115 0.73183
 C170 C 0.73141 0.74968 0.73182
 C171 C 0.73152 0.76805 0.75004
 C172 C 0.74992 0.76812 0.76824
 C173 C 0.76843 0.74959 0.76825
 C174 C 0.76832 0.73121 0.75004
 H175 H 0.78256 0.71694 0.75003
 H176 H 0.71728 0.78233 0.75004
 C177 C 0.24839 0.05171 0.04998
 C178 C 0.24856 0.06744 0.06576
 C179 C 0.24885 0.08616 0.08466
 C180 C 0.26170 0.08187 0.10660
 C181 C 0.26207 0.10003 0.12496
 C182 C 0.24956 0.12276 0.12162
 C183 C 0.23667 0.12688 0.09950
 C184 C 0.23634 0.10869 0.08115
 C185 C 0.24998 0.14208 0.14112
 C186 C 0.22845 0.15586 0.14666
 C187 C 0.22886 0.17397 0.16507
 C188 C 0.25076 0.17859 0.17817
 C189 C 0.27228 0.16503 0.17279
 C190 C 0.27191 0.14689 0.15440
 C191 C 0.25113 0.19729 0.19706
 C192 C 0.25118 0.21308 0.21277
 H193 H 0.27139 0.06447 0.10954
 H194 H 0.27188 0.09616 0.14190
 H195 H 0.22713 0.14429 0.09624
 H196 H 0.22639 0.11223 0.06421
 H197 H 0.21120 0.15239 0.13700
 H198 H 0.21207 0.18430 0.16915
 H199 H 0.28936 0.16852 0.18275
 H200 H 0.28886 0.13685 0.15036
 C201 C 0.74747 0.55058 0.55086
 C202 C 0.74749 0.56632 0.56660
 C203 C 0.74761 0.58506 0.58544
 C204 C 0.75011 0.61015 0.57913
 C205 C 0.75041 0.62836 0.59744
 C206 C 0.74824 0.62166 0.62234
 C207 C 0.74569 0.59637 0.62848
 C208 C 0.74537 0.57821 0.61014
 C209 C 0.74872 0.64096 0.64182
 C210 C 0.76179 0.63683 0.66384
 C211 C 0.76228 0.65502 0.68216
 C212 C 0.74974 0.67754 0.67873
 C213 C 0.73670 0.68183 0.65690
 C214 C 0.73618 0.66367 0.63856
 C215 C 0.75016 0.69622 0.69759
 C216 C 0.75026 0.71201 0.71328
 H217 H 0.75193 0.61565 0.56006
 H218 H 0.75271 0.64763 0.59215
 H219 H 0.74364 0.59066 0.64745
 H220 H 0.74337 0.55883 0.61522
 H221 H 0.77189 0.61968 0.66676
 H222 H 0.77248 0.65155 0.69897
 H223 H 0.72689 0.69919 0.65409
 H224 H 0.72570 0.66727 0.62195
 C225 C 0.75243 0.94892 0.05052
 C226 C 0.75231 0.93322 0.06632
 C227 C 0.75207 0.91452 0.08524
 C228 C 0.73935 0.91887 0.10725
 C229 C 0.73899 0.90071 0.12562
 C230 C 0.75137 0.87793 0.12222
 C231 C 0.76415 0.87376 0.10003
 C232 C 0.76447 0.89194 0.08167
 C233 C 0.75094 0.85860 0.14171
 C234 C 0.77243 0.84475 0.14718
 C235 C 0.77199 0.82661 0.16557
 C236 C 0.75010 0.82205 0.17872
 C237 C 0.72862 0.83569 0.17342
 C238 C 0.72901 0.85386 0.15505
 C239 C 0.74969 0.80331 0.19757
 C240 C 0.74959 0.78749 0.21325
 H241 H 0.72974 0.93631 0.11023
 H242 H 0.72928 0.90461 0.14261
 H243 H 0.77359 0.85630 0.09674
 H244 H 0.77431 0.88836 0.06467
 H245 H 0.78967 0.84818 0.13746
 H246 H 0.78875 0.81621 0.16959
 H247 H 0.71154 0.83224 0.18343
 H248 H 0.71209 0.86397 0.15106
 C249 C 0.25163 0.44924 0.55087
 C250 C 0.25156 0.43342 0.56657
 C251 C 0.25138 0.41458 0.58534
 C252 C 0.23117 0.39831 0.58735
 C253 C 0.23088 0.38010 0.60568
 C254 C 0.25083 0.37792 0.62226
 C255 C 0.27109 0.39434 0.62003
 C256 C 0.27133 0.41255 0.60170
 C257 C 0.25047 0.35866 0.64181
 C258 C 0.27219 0.34538 0.64777
 C259 C 0.27183 0.32727 0.66620
 C260 C 0.24978 0.32220 0.67891
 C261 C 0.22808 0.33529 0.67314
 C262 C 0.22840 0.35340 0.65472
 C263 C 0.24944 0.30348 0.69778
 C264 C 0.24942 0.28766 0.71347
 H265 H 0.21565 0.39968 0.57475
 H266 H 0.21517 0.36753 0.60671
 H267 H 0.28657 0.39334 0.63269
 H268 H 0.28704 0.42510 0.60034
 H269 H 0.28939 0.34877 0.63796
 H270 H 0.28872 0.31720 0.67049
 H271 H 0.21093 0.33153 0.68291
 H272 H 0.21147 0.36352 0.65079
 C273 C 0.94972 0.24731 0.05041
 C274 C 0.93401 0.24745 0.06620
 C275 C 0.91530 0.24773 0.08511
 C276 C 0.91966 0.26045 0.10711
 C277 C 0.90149 0.26082 0.12547
 C278 C 0.87869 0.24844 0.12208
 C279 C 0.87451 0.23567 0.09990
 C280 C 0.89271 0.23534 0.08155
 C281 C 0.85937 0.24886 0.14157
 C282 C 0.84550 0.22737 0.14704
 C283 C 0.82736 0.22779 0.16544
 C284 C 0.82282 0.24968 0.17857
 C285 C 0.83648 0.27117 0.17326
 C286 C 0.85465 0.27078 0.15489
 C287 C 0.80409 0.25007 0.19744
 C288 C 0.78828 0.25015 0.21313
 H289 H 0.93712 0.27004 0.11008
 H290 H 0.90540 0.27052 0.14246
 H291 H 0.85704 0.22623 0.09660
 H292 H 0.88911 0.22550 0.06456
 H293 H 0.84891 0.21014 0.13734
 H294 H 0.81695 0.21103 0.16947
 H295 H 0.83304 0.28823 0.18326
 H296 H 0.86477 0.28771 0.15089
 C297 C 0.44817 0.74837 0.55067
 C298 C 0.43240 0.74859 0.56641
 C299 C 0.41362 0.74896 0.58525
 C300 C 0.39973 0.72755 0.59029
 C301 C 0.38154 0.72789 0.60865
 C302 C 0.37703 0.74969 0.62223
 C303 C 0.39109 0.77112 0.61698
 C304 C 0.40925 0.77074 0.59861
 C305 C 0.35778 0.75008 0.64179
 C306 C 0.36217 0.76259 0.66407
 C307 C 0.34403 0.76297 0.68247
 C308 C 0.32128 0.75090 0.67884
 C309 C 0.31672 0.73840 0.65676
 C310 C 0.33484 0.73797 0.63835
 C311 C 0.30263 0.75122 0.69779
 C312 C 0.28688 0.75126 0.71354
 H313 H 0.40302 0.71057 0.58010
 H314 H 0.37126 0.71101 0.61246
 H315 H 0.38783 0.78827 0.62688
 H316 H 0.41985 0.78744 0.59481
 H317 H 0.37975 0.77179 0.66740
 H318 H 0.34778 0.77262 0.69953
 H319 H 0.29913 0.72906 0.65374
 H320 H 0.33077 0.72845 0.62129
 C321 C 0.05055 0.75241 0.04978
 C322 C 0.06629 0.75236 0.06555
 C323 C 0.08502 0.75222 0.08443
 C324 C 0.11014 0.74978 0.07817
 C325 C 0.12833 0.74949 0.09652
 C326 C 0.12161 0.75163 0.12142
 C327 C 0.09630 0.75412 0.12751
 C328 C 0.07815 0.75442 0.10913
 C329 C 0.14090 0.75118 0.14095
 C330 C 0.13673 0.73820 0.16303
 C331 C 0.15489 0.73776 0.18139
 C332 C 0.17745 0.75026 0.17795
 C333 C 0.18179 0.76322 0.15607
 C334 C 0.16365 0.76369 0.13768
 C335 C 0.19611 0.74990 0.19688
 C336 C 0.21188 0.74984 0.21261
 H337 H 0.11567 0.74799 0.05911
 H338 H 0.14761 0.74723 0.09125
 H339 H 0.09055 0.75613 0.14647
 H340 H 0.05876 0.75638 0.11419
 H341 H 0.11956 0.72812 0.16598
 H342 H 0.15137 0.72762 0.19824
 H343 H 0.19917 0.77301 0.15324
 H344 H 0.16731 0.77410 0.12104
 C345 C 0.55126 0.25221 0.55087
 C346 C 0.56693 0.25206 0.56668
 C347 C 0.58557 0.25176 0.58561
 C348 C 0.60822 0.26407 0.58205
 C349 C 0.62636 0.26369 0.60043
 C350 C 0.62207 0.25094 0.62261
 C351 C 0.59922 0.23865 0.62601
 C352 C 0.58111 0.23907 0.60762
 C353 C 0.64134 0.25044 0.64212
 C354 C 0.64599 0.22848 0.65541
 C355 C 0.66413 0.22801 0.67378
 C356 C 0.67783 0.24945 0.67911
 C357 C 0.67335 0.27139 0.66601
 C358 C 0.65524 0.27189 0.64762
 C359 C 0.69655 0.24897 0.69794
 C360 C 0.71237 0.24882 0.71360
 H361 H 0.61188 0.27389 0.56505
 H362 H 0.64387 0.27306 0.59715
 H363 H 0.59524 0.22896 0.64300
 H364 H 0.56361 0.22953 0.61058
 H365 H 0.63584 0.21158 0.65138
 H366 H 0.66752 0.21091 0.68376
 H367 H 0.68381 0.28811 0.67007
 H368 H 0.65188 0.28915 0.63793
 C369 C 0.75232 0.05003 0.94987
 C370 C 0.75219 0.06573 0.93407
 C371 C 0.75192 0.08442 0.91515
 C372 C 0.73844 0.08044 0.89353
 C373 C 0.73808 0.09859 0.87515
 C374 C 0.75124 0.12100 0.87815
 C375 C 0.76477 0.12482 0.89995
 C376 C 0.76509 0.10664 0.91832
 C377 C 0.75083 0.14032 0.85865
 C378 C 0.77257 0.15352 0.85254
 C379 C 0.77215 0.17165 0.83414
 C380 C 0.75003 0.17684 0.82162
 C381 C 0.72831 0.16385 0.82757
 C382 C 0.72868 0.14569 0.84595
 C383 C 0.74966 0.19558 0.80277
 C384 C 0.74959 0.21140 0.78708
 H385 H 0.72824 0.06327 0.89086
 H386 H 0.72777 0.09496 0.85846
 H387 H 0.77483 0.14199 0.90294
 H388 H 0.77553 0.10994 0.93501
 H389 H 0.78996 0.14960 0.86176
 H390 H 0.78910 0.18155 0.82961
 H391 H 0.71107 0.16779 0.81805
 H392 H 0.71158 0.13609 0.85045
 C393 C 0.25130 0.55176 0.44962
 C394 C 0.25112 0.56751 0.43387
 C395 C 0.25080 0.58625 0.41500
 C396 C 0.27222 0.60013 0.40997
 C397 C 0.27192 0.61828 0.39157
 C398 C 0.25015 0.62276 0.37794
 C399 C 0.22870 0.60871 0.38316
 C400 C 0.22905 0.59059 0.40157
 C401 C 0.24981 0.64198 0.35834
 C402 C 0.23735 0.63754 0.33603
 C403 C 0.23701 0.65564 0.31760
 C404 C 0.24908 0.67840 0.32121
 C405 C 0.26152 0.68300 0.34331
 C406 C 0.26191 0.66492 0.36176
 C407 C 0.24880 0.69701 0.30223
 C408 C 0.24882 0.71274 0.28646
 H409 H 0.28918 0.59687 0.42021
 H410 H 0.28880 0.62856 0.38778
 H411 H 0.21158 0.61195 0.37322
 H412 H 0.21234 0.58000 0.40536
 H413 H 0.22815 0.61995 0.33271
 H414 H 0.22740 0.65186 0.30052
 H415 H 0.27086 0.70060 0.34631
 H416 H 0.27139 0.66902 0.37883
 C417 C 0.24804 0.95026 0.94968
 C418 C 0.24808 0.93443 0.93400
 C419 C 0.24823 0.91557 0.91524
 C420 C 0.26849 0.89940 0.91312
 C421 C 0.26874 0.88116 0.89482
 C422 C 0.24868 0.87884 0.87839
 C423 C 0.22837 0.89516 0.88072
 C424 C 0.22817 0.91340 0.89902
 C425 C 0.24899 0.85955 0.85886
 C426 C 0.22727 0.84618 0.85304
 C427 C 0.22759 0.82805 0.83464
 C428 C 0.24959 0.82303 0.82183
 C429 C 0.27128 0.83621 0.82747
 C430 C 0.27100 0.85435 0.84586
 C431 C 0.24988 0.80429 0.80297
 C432 C 0.24989 0.78847 0.78729
 H433 H 0.28409 0.90087 0.92562
 H434 H 0.28449 0.86868 0.89372
 H435 H 0.21280 0.89407 0.86817
 H436 H 0.21242 0.92587 0.90045
 H437 H 0.21012 0.84952 0.86292
 H438 H 0.21071 0.81792 0.83045
 H439 H 0.28839 0.83251 0.81762
 H440 H 0.28793 0.86453 0.84968
 C441 C 0.74803 0.44840 0.44949
 C442 C 0.74822 0.43269 0.43371
 C443 C 0.74855 0.41401 0.41482
 C444 C 0.76134 0.41839 0.39286
 C445 C 0.76174 0.40025 0.37449
 C446 C 0.74932 0.37747 0.37787
 C447 C 0.73648 0.37326 0.40002
 C448 C 0.73612 0.39143 0.41837
 C449 C 0.74977 0.35818 0.35838
 C450 C 0.72825 0.34440 0.35283
 C451 C 0.72870 0.32631 0.33442
 C452 C 0.75063 0.32172 0.32136
 C453 C 0.77214 0.33528 0.32675
 C454 C 0.77174 0.35341 0.34513
 C455 C 0.75104 0.30304 0.30249
 C456 C 0.75111 0.28726 0.28679
 H457 H 0.77096 0.43584 0.38990
 H458 H 0.77150 0.40417 0.35753
 H459 H 0.72701 0.35580 0.40328
 H460 H 0.72622 0.38783 0.43534
 H461 H 0.71099 0.34786 0.36248
 H462 H 0.71192 0.31596 0.33031
 H463 H 0.78924 0.33181 0.31680
 H464 H 0.78868 0.36347 0.34921
 C465 C 0.05084 0.24707 0.94978
 C466 C 0.06658 0.24713 0.93400
 C467 C 0.08532 0.24730 0.91513
 C468 C 0.07847 0.24514 0.89043
 C469 C 0.09664 0.24549 0.87206
 C470 C 0.12194 0.24800 0.87817
 C471 C 0.12863 0.25009 0.90307
 C472 C 0.11043 0.24975 0.92141
 C473 C 0.14124 0.24853 0.85866
 C474 C 0.16398 0.23601 0.86189
 C475 C 0.18214 0.23656 0.84352
 C476 C 0.17784 0.24963 0.82170
 C477 C 0.15530 0.26214 0.81829
 C478 C 0.13711 0.26160 0.83664
 C479 C 0.19653 0.25009 0.80281
 C480 C 0.21233 0.25023 0.78710
 H481 H 0.05909 0.24317 0.88538
 H482 H 0.09092 0.24351 0.85310
 H483 H 0.14791 0.25237 0.90835
 H484 H 0.11593 0.25152 0.94047
 H485 H 0.16759 0.22552 0.87849
 H486 H 0.19951 0.22677 0.84632
 H487 H 0.15181 0.27235 0.80149
 H488 H 0.11995 0.27170 0.83373
 C489 C 0.55064 0.74769 0.44939
 C490 C 0.56641 0.74769 0.43364
 C491 C 0.58518 0.74779 0.41480
 C492 C 0.61029 0.75020 0.42110
 C493 C 0.62851 0.75047 0.40278
 C494 C 0.62184 0.74837 0.37788
 C495 C 0.59655 0.74590 0.37174
 C496 C 0.57836 0.74561 0.39009
 C497 C 0.64117 0.74883 0.35839
 C498 C 0.63709 0.76188 0.33634
 C499 C 0.65530 0.76235 0.31802
 C500 C 0.67780 0.74978 0.32146
 C501 C 0.68205 0.73674 0.34330
 C502 C 0.66387 0.73625 0.36166
 C503 C 0.69651 0.75017 0.30257
 C504 C 0.71231 0.75024 0.28687
 H505 H 0.61577 0.75198 0.44017
 H506 H 0.64779 0.75272 0.40808
 H507 H 0.59085 0.74391 0.35278
 H508 H 0.55898 0.74368 0.38501
 H509 H 0.61995 0.77201 0.33341
 H510 H 0.65185 0.77254 0.30119
 H511 H 0.69939 0.72691 0.34613
 H512 H 0.66744 0.72578 0.37827
 C513 C 0.94929 0.75225 0.94929
 C514 C 0.93353 0.75214 0.93353
 C515 C 0.91477 0.75193 0.91469
 C516 C 0.92160 0.75392 0.88996
 C517 C 0.90341 0.75356 0.87162
 C518 C 0.87810 0.75122 0.87778
 C519 C 0.87142 0.74930 0.90271
 C520 C 0.88965 0.74963 0.92102
 C521 C 0.85877 0.75073 0.85829
 C522 C 0.83609 0.76338 0.86151
 C523 C 0.81791 0.76286 0.84317
 C524 C 0.82212 0.74972 0.82138
 C525 C 0.84459 0.73708 0.81799
 C526 C 0.86281 0.73757 0.83631
 C527 C 0.80341 0.74932 0.80251
 C528 C 0.78760 0.74923 0.78682
 H529 H 0.94098 0.75576 0.88485
 H530 H 0.90913 0.75542 0.85263
 H531 H 0.85214 0.74715 0.90803
 H532 H 0.88415 0.74801 0.94010
 H533 H 0.83254 0.77393 0.87808
 H534 H 0.80060 0.77276 0.84596
 H535 H 0.84802 0.72680 0.80122
 H536 H 0.87991 0.72738 0.83341
 C537 C 0.44921 0.25231 0.44937
 C538 C 0.43348 0.25219 0.43362
 C539 C 0.41475 0.25193 0.41477
 C540 C 0.40097 0.27340 0.40975
 C541 C 0.38281 0.27314 0.39140
 C542 C 0.37822 0.25137 0.37780
 C543 C 0.39217 0.22988 0.38301
 C544 C 0.41030 0.23018 0.40138
 C545 C 0.35899 0.25108 0.35825
 C546 C 0.36337 0.23862 0.33594
 C547 C 0.34525 0.23831 0.31755
 C548 C 0.32253 0.25040 0.32122
 C549 C 0.31798 0.26284 0.34334
 C550 C 0.33608 0.26321 0.36174
 C551 C 0.30389 0.25013 0.30231
 C552 C 0.28815 0.25013 0.28657
 H553 H 0.40432 0.29035 0.41997
 H554 H 0.37260 0.29006 0.38760
 H555 H 0.38884 0.21276 0.37309
 H556 H 0.42082 0.21343 0.40517
 H557 H 0.38094 0.22940 0.33257
 H558 H 0.34898 0.22870 0.30046
 H559 H 0.30041 0.27220 0.34639
 H560 H 0.33204 0.27268 0.37882
 C561 C 0.75239 0.94881 0.94909
 C562 C 0.75226 0.93307 0.93335
 C563 C 0.75200 0.91436 0.91448
 C564 C 0.76509 0.89213 0.91776
 C565 C 0.76477 0.87392 0.89944
 C566 C 0.75131 0.87774 0.87761
 C567 C 0.73823 0.90017 0.87450
 C568 C 0.73859 0.91835 0.89282
 C569 C 0.75088 0.85840 0.85816
 C570 C 0.72874 0.85302 0.84547
 C571 C 0.72835 0.83484 0.82714
 C572 C 0.75007 0.82184 0.82124
 C573 C 0.77219 0.82704 0.83374
 C574 C 0.77261 0.84519 0.85211
 C575 C 0.74967 0.80310 0.80243
 C576 C 0.74958 0.78727 0.78678
 H577 H 0.77547 0.88883 0.93449
 H578 H 0.77476 0.85673 0.90251
 H579 H 0.72798 0.90379 0.85776
 H580 H 0.72845 0.93553 0.89008
 H581 H 0.71164 0.86263 0.84994
 H582 H 0.71111 0.83088 0.81762
 H583 H 0.78912 0.81713 0.82925
 H584 H 0.79001 0.84912 0.86132
 C585 C 0.25167 0.44947 0.44946
 C586 C 0.25164 0.43376 0.43366
 C587 C 0.25151 0.41506 0.41474
 C588 C 0.26402 0.39254 0.41833
 C589 C 0.26385 0.37436 0.39997
 C590 C 0.25112 0.37848 0.37775
 C591 C 0.23861 0.40120 0.37434
 C592 C 0.23883 0.41935 0.39271
 C593 C 0.25086 0.35917 0.35824
 C594 C 0.22902 0.35435 0.34481
 C595 C 0.22879 0.33621 0.32643
 C596 C 0.25035 0.32266 0.32120
 C597 C 0.27216 0.32729 0.33444
 C598 C 0.27243 0.34540 0.35285
 C599 C 0.25011 0.30395 0.30230
 C600 C 0.25013 0.28818 0.28658
 H601 H 0.27384 0.38899 0.43534
 H602 H 0.27338 0.35696 0.40328
 H603 H 0.22893 0.40507 0.35733
 H604 H 0.22914 0.43674 0.38971
 H605 H 0.21203 0.36438 0.34874
 H606 H 0.21178 0.33271 0.31635
 H607 H 0.28898 0.31696 0.33048
 H608 H 0.28961 0.34888 0.36263
 C609 C 0.24826 0.05062 0.94952
 C610 C 0.24837 0.06636 0.93375
 C611 C 0.24858 0.08510 0.91487
 C612 C 0.26196 0.08115 0.89317
 C613 C 0.26226 0.09935 0.87483
 C614 C 0.24914 0.12176 0.87795
 C615 C 0.23572 0.12553 0.89983
 C616 C 0.23547 0.10731 0.91816
 C617 C 0.24949 0.14111 0.85848
 C618 C 0.22773 0.15433 0.85253
 C619 C 0.22808 0.17250 0.83415
 C620 C 0.25014 0.17771 0.82153
 C621 C 0.27188 0.16470 0.82732
 C622 C 0.27157 0.14651 0.84567
 C623 C 0.25045 0.19648 0.80270
 C624 C 0.25047 0.21232 0.78704
 H625 H 0.27212 0.06399 0.89040
 H626 H 0.27249 0.09575 0.85807
 H627 H 0.22570 0.14270 0.90292
 H628 H 0.22511 0.11058 0.93492
 H629 H 0.21038 0.15039 0.86183
 H630 H 0.21112 0.18241 0.82974
 H631 H 0.28908 0.16867 0.81772
 H632 H 0.28869 0.13689 0.85005
 C633 C 0.74765 0.55062 0.44946
 C634 C 0.74775 0.56634 0.43368
 C635 C 0.74799 0.58505 0.41478
 C636 C 0.76131 0.58103 0.39306
 C637 C 0.76165 0.59921 0.37470
 C638 C 0.74863 0.62168 0.37783
 C639 C 0.73526 0.62552 0.39972
 C640 C 0.73496 0.60732 0.41807
 C641 C 0.74904 0.64102 0.35835
 C642 C 0.72735 0.65434 0.35240
 C643 C 0.72776 0.67249 0.33402
 C644 C 0.74984 0.67759 0.32137
 C645 C 0.77152 0.66449 0.32715
 C646 C 0.77114 0.64631 0.34551
 C647 C 0.75022 0.69635 0.30253
 C648 C 0.75030 0.71218 0.28685
 H649 H 0.77140 0.56383 0.39029
 H650 H 0.77183 0.59555 0.35793
 H651 H 0.72532 0.64274 0.40281
 H652 H 0.72465 0.61065 0.43484
 H653 H 0.70998 0.65048 0.36173
 H654 H 0.71085 0.68248 0.32962
 H655 H 0.78873 0.66836 0.31753
 H656 H 0.78822 0.63662 0.34988
 C657 C 0.05060 0.75261 0.95033
 C658 C 0.06634 0.75261 0.93455
 C659 C 0.08507 0.75253 0.91567
 C660 C 0.07820 0.75485 0.89099
 C661 C 0.09634 0.75459 0.87260
 C662 C 0.12164 0.75202 0.87867
 C663 C 0.12836 0.74977 0.90355
 C664 C 0.11017 0.75001 0.92191
 C665 C 0.14092 0.75160 0.85913
 C666 C 0.16368 0.76410 0.86240
 C667 C 0.18181 0.76366 0.84400
 C668 C 0.17745 0.75074 0.82211
 C669 C 0.15490 0.73826 0.81867
 C670 C 0.13674 0.73867 0.83705
 C671 C 0.19611 0.75041 0.80318
 C672 C 0.21187 0.75038 0.78743
 H673 H 0.05881 0.75687 0.88596
 H674 H 0.09061 0.75669 0.85365
 H675 H 0.14764 0.74744 0.90879
 H676 H 0.11569 0.74813 0.94096
 H677 H 0.16733 0.77447 0.87905
 H678 H 0.19919 0.77343 0.84682
 H679 H 0.15137 0.72816 0.80181
 H680 H 0.11956 0.72860 0.83411
 C681 C 0.55153 0.25200 0.44946
 C682 C 0.56731 0.25180 0.43373
 C683 C 0.58609 0.25146 0.41490
 C684 C 0.59041 0.22972 0.40145
 C685 C 0.60859 0.22936 0.38309
 C686 C 0.62273 0.25077 0.37796
 C687 C 0.61826 0.27253 0.39162
 C688 C 0.60006 0.27285 0.40996
 C689 C 0.64201 0.25041 0.35843
 C690 C 0.66498 0.26243 0.36195
 C691 C 0.68313 0.26201 0.34357
 C692 C 0.67857 0.24962 0.32143
 C693 C 0.65579 0.23763 0.31772
 C694 C 0.63762 0.23800 0.33609
 C695 C 0.69725 0.24930 0.30252
 C696 C 0.71304 0.24927 0.28680
 H697 H 0.57976 0.21304 0.40517
 H698 H 0.61181 0.21224 0.37313
 H699 H 0.62861 0.28939 0.38790
 H700 H 0.59681 0.28979 0.42022
 H701 H 0.66905 0.27186 0.37905
 H702 H 0.70075 0.27127 0.34666
 H703 H 0.65204 0.22807 0.30061
 H704 H 0.62001 0.22887 0.33269
 C705 C 0.94955 0.24663 0.94903
 C706 C 0.93378 0.24658 0.93332
 C707 C 0.91500 0.24663 0.91453
 C708 C 0.92179 0.24429 0.88983
 C709 C 0.90359 0.24457 0.87152
 C710 C 0.87832 0.24719 0.87770
 C711 C 0.87168 0.24945 0.90260
 C712 C 0.88992 0.24919 0.92088
 C713 C 0.85899 0.24767 0.85826
 C714 C 0.83623 0.23519 0.86161
 C715 C 0.81803 0.23573 0.84330
 C716 C 0.82232 0.24873 0.82144
 C717 C 0.84487 0.26119 0.81791
 C718 C 0.86310 0.26068 0.83619
 C719 C 0.80359 0.24917 0.80262
 C720 C 0.78776 0.24931 0.78697
 H721 H 0.94116 0.24225 0.88472
 H722 H 0.90925 0.24246 0.85255
 H723 H 0.85242 0.25181 0.90792
 H724 H 0.88447 0.25109 0.93995
 H725 H 0.83264 0.22476 0.87825
 H726 H 0.80064 0.22597 0.84618
 H727 H 0.84834 0.27135 0.80107
 H728 H 0.88029 0.27074 0.83320
 C729 C 0.44834 0.74810 0.44923
 C730 C 0.43263 0.74823 0.43343
 C731 C 0.41393 0.74847 0.41451
 C732 C 0.39135 0.73602 0.41808
 C733 C 0.37318 0.73631 0.39972
 C734 C 0.37734 0.74910 0.37753
 C735 C 0.40012 0.76154 0.37413
 C736 C 0.41827 0.76120 0.39250
 C737 C 0.35803 0.74949 0.35802
 C738 C 0.35330 0.77138 0.34464
 C739 C 0.33515 0.77173 0.32626
 C740 C 0.32151 0.75024 0.32099
 C741 C 0.32605 0.72837 0.33418
 C742 C 0.34417 0.72798 0.35259
 C743 C 0.30280 0.75059 0.30211
 C744 C 0.28701 0.75065 0.28640
 H745 H 0.38777 0.72616 0.43507
 H746 H 0.35573 0.72683 0.40302
 H747 H 0.40403 0.77126 0.35714
 H748 H 0.43571 0.77084 0.38952
 H749 H 0.36341 0.78832 0.34860
 H750 H 0.33172 0.78878 0.31622
 H751 H 0.31565 0.71159 0.33019
 H752 H 0.34757 0.71076 0.36234
 C753 C 0.24814 0.94941 0.05005
 C754 C 0.24821 0.93367 0.06582
 C755 C 0.24840 0.91494 0.08470
 C756 C 0.23541 0.89265 0.08134
 C757 C 0.23562 0.87443 0.09967
 C758 C 0.24888 0.87828 0.12162
 C759 C 0.26187 0.90077 0.12482
 C760 C 0.26161 0.91896 0.10647
 C761 C 0.24919 0.85893 0.14109
 C762 C 0.27122 0.85366 0.15403
 C763 C 0.27148 0.83548 0.17239
 C764 C 0.24976 0.82235 0.17807
 C765 C 0.22776 0.82744 0.16532
 C766 C 0.22746 0.84559 0.14694
 C767 C 0.25003 0.80362 0.19693
 C768 C 0.25002 0.78781 0.21263
 H769 H 0.22517 0.88931 0.06452
 H770 H 0.22571 0.85720 0.09653
 H771 H 0.27197 0.90442 0.14163
 H772 H 0.27167 0.93618 0.10930
 H773 H 0.28832 0.86337 0.14973
 H774 H 0.28863 0.83162 0.18209
 H775 H 0.21082 0.81744 0.16965
 H776 H 0.21014 0.84943 0.13753
 C777 C 0.74788 0.44827 0.55088
 C778 C 0.74805 0.43250 0.56662
 C779 C 0.74837 0.41372 0.58545
 C780 C 0.72697 0.39979 0.59040
 C781 C 0.72728 0.38157 0.60874
 C782 C 0.74904 0.37708 0.62239
 C783 C 0.77046 0.39120 0.61724
 C784 C 0.77011 0.40938 0.59889
 C785 C 0.74940 0.35779 0.64191
 C786 C 0.76183 0.36215 0.66424
 C787 C 0.76220 0.34397 0.68259
 C788 C 0.75020 0.32120 0.67888
 C789 C 0.73778 0.31666 0.65674
 C790 C 0.73736 0.33483 0.63837
 C791 C 0.75052 0.30250 0.69777
 C792 C 0.75054 0.28670 0.71348
 H793 H 0.71002 0.40305 0.58015
 H794 H 0.71041 0.37125 0.61247
 H795 H 0.78758 0.38796 0.62719
 H796 H 0.78680 0.42002 0.59516
 H797 H 0.77098 0.37975 0.66765
 H798 H 0.77178 0.34770 0.69970
 H799 H 0.72850 0.29906 0.65365
 H800 H 0.72791 0.33079 0.62128
 C801 C 0.75237 0.05118 0.05027
 C802 C 0.75223 0.06693 0.06600
 C803 C 0.75196 0.08568 0.08483
 C804 C 0.73021 0.09010 0.09824
 C805 C 0.72990 0.10823 0.11661
 C806 C 0.75139 0.12220 0.12181
 C807 C 0.77316 0.11764 0.10819
 C808 C 0.77342 0.09948 0.08983
 C809 C 0.75109 0.14142 0.14137
 C810 C 0.76322 0.16434 0.13788
 C811 C 0.76285 0.18244 0.15629
 C812 C 0.75040 0.17786 0.17841
 C813 C 0.73832 0.15513 0.18208
 C814 C 0.73864 0.13701 0.16369
 C815 C 0.75013 0.19649 0.19734
 C816 C 0.75013 0.21222 0.21307
 H817 H 0.71347 0.07956 0.09446
 H818 H 0.71278 0.11153 0.12655
 H819 H 0.79007 0.12787 0.11197
 H820 H 0.79038 0.09616 0.07960
 H821 H 0.77269 0.16841 0.12079
 H822 H 0.77219 0.20003 0.15324
 H823 H 0.72871 0.15137 0.19919
 H824 H 0.72942 0.11943 0.16705
 C825 C 0.25132 0.55161 0.55108
 C826 C 0.25118 0.56733 0.56686
 C827 C 0.25093 0.58605 0.58575
 C828 C 0.26342 0.60860 0.58218
 C829 C 0.26314 0.62680 0.60052
 C830 C 0.25032 0.62269 0.62269
 C831 C 0.23784 0.59994 0.62610
 C832 C 0.23816 0.58177 0.60775
 C833 C 0.24995 0.64202 0.64218
 C834 C 0.22806 0.64681 0.65553
 C835 C 0.22773 0.66499 0.67389
 C836 C 0.24925 0.67859 0.67916
 C837 C 0.27112 0.67398 0.66600
 C838 C 0.27149 0.65584 0.64761
 C839 C 0.24891 0.69734 0.69801
 C840 C 0.24888 0.71316 0.71369
 H841 H 0.27331 0.61215 0.56519
 H842 H 0.27266 0.64423 0.59721
 H843 H 0.22809 0.59607 0.64308
 H844 H 0.22848 0.56435 0.61074
 H845 H 0.21110 0.63674 0.65157
 H846 H 0.21067 0.66847 0.68391
 H847 H 0.28791 0.68436 0.66999
 H848 H 0.28871 0.65239 0.63789
 C849 C 0.94921 0.75205 0.05069
 C850 C 0.93343 0.75186 0.06642
 C851 C 0.91464 0.75154 0.08524
 C852 C 0.90074 0.77295 0.09018
 C853 C 0.88251 0.77264 0.10850
 C854 C 0.87798 0.75088 0.12216
 C855 C 0.89205 0.72945 0.11703
 C856 C 0.91024 0.72980 0.09869
 C857 C 0.85867 0.75053 0.14167
 C858 C 0.86300 0.73809 0.16401
 C859 C 0.84482 0.73773 0.18236
 C860 C 0.82207 0.74976 0.17863
 C861 C 0.81757 0.76219 0.15649
 C862 C 0.83574 0.76260 0.13813
 C863 C 0.80337 0.74945 0.19752
 C864 C 0.78757 0.74941 0.21323
 H865 H 0.90404 0.78990 0.07992
 H866 H 0.87222 0.78952 0.11222
 H867 H 0.88877 0.71233 0.12699
 H868 H 0.92085 0.71309 0.09497
 H869 H 0.88058 0.72892 0.16743
 H870 H 0.84852 0.72813 0.19947
 H871 H 0.79999 0.77150 0.15339
 H872 H 0.83172 0.77207 0.12103
 C873 C 0.44905 0.25254 0.55075
 C874 C 0.43330 0.25252 0.56650
 C875 C 0.41455 0.25240 0.58537
 C876 C 0.38946 0.24974 0.57910
 C877 C 0.37126 0.24944 0.59744
 C878 C 0.37793 0.25179 0.62233
 C879 C 0.40321 0.25451 0.62842
 C880 C 0.42138 0.25482 0.61005
 C881 C 0.35863 0.25131 0.64184
 C882 C 0.36285 0.23845 0.66397
 C883 C 0.34466 0.23796 0.68232
 C884 C 0.32204 0.25029 0.67881
 C885 C 0.31766 0.26314 0.65687
 C886 C 0.33581 0.26365 0.63850
 C887 C 0.30335 0.24987 0.69770
 C888 C 0.28756 0.24975 0.71342
 H889 H 0.38398 0.24777 0.56006
 H890 H 0.35200 0.24700 0.59219
 H891 H 0.40892 0.25669 0.64736
 H892 H 0.44075 0.25696 0.61509
 H893 H 0.38007 0.22849 0.66697
 H894 H 0.34821 0.22791 0.69921
 H895 H 0.30022 0.27279 0.65399
 H896 H 0.33213 0.27397 0.62181
 C897 C 0.05200 0.24774 0.05013
 C898 C 0.06778 0.24803 0.06584
 C899 C 0.08655 0.24847 0.08464
 C900 C 0.10049 0.22711 0.08967
 C901 C 0.11868 0.22753 0.10800
 C902 C 0.12313 0.24935 0.12156
 C903 C 0.10901 0.27073 0.11634
 C904 C 0.09085 0.27027 0.09799
 C905 C 0.14237 0.24981 0.14109
 C906 C 0.13791 0.26225 0.16340
 C907 C 0.15604 0.26268 0.18178
 C908 C 0.17883 0.25073 0.17811
 C909 C 0.18346 0.23831 0.15600
 C910 C 0.16535 0.23783 0.13760
 C911 C 0.19746 0.25108 0.19704
 C912 C 0.21319 0.25112 0.21278
 H913 H 0.09725 0.21012 0.07948
 H914 H 0.12901 0.21069 0.11180
 H915 H 0.11223 0.28789 0.12623
 H916 H 0.08020 0.28693 0.09420
 H917 H 0.12029 0.27135 0.16677
 H918 H 0.15225 0.27227 0.19888
 H919 H 0.20109 0.22907 0.15295
 H920 H 0.16946 0.22837 0.12052
 C921 C 0.55051 0.74794 0.55081
 C922 C 0.56624 0.74802 0.56659
 C923 C 0.58498 0.74820 0.58547
 C924 C 0.58102 0.76154 0.60719
 C925 C 0.59921 0.76181 0.62552
 C926 C 0.62164 0.74872 0.62238
 C927 C 0.62542 0.73534 0.60048
 C928 C 0.60720 0.73511 0.58216
 C929 C 0.64100 0.74906 0.64184
 C930 C 0.65430 0.72733 0.64774
 C931 C 0.67246 0.72767 0.66610
 C932 C 0.67762 0.74970 0.67878
 C933 C 0.66454 0.77142 0.67304
 C934 C 0.64634 0.77112 0.65471
 C935 C 0.69640 0.75001 0.69760
 C936 C 0.71224 0.75005 0.71326
 H937 H 0.56385 0.77168 0.60997
 H938 H 0.59560 0.77201 0.64229
 H939 H 0.64260 0.72534 0.59738
 H940 H 0.61049 0.72478 0.56539
 H941 H 0.65041 0.70999 0.63841
 H942 H 0.68243 0.71073 0.67046
 H943 H 0.66845 0.78860 0.68268
 H944 H 0.63668 0.78822 0.65037
   
