data_POSCAR
  _audit_creation_date              2014-09-24
  _audit_creation_method            'ToBaCCo'
  _symmetry_space_group_name_H-M    'P1'
  _symmetry_Int_Tables_number       1
  _symmetry_cell_setting            triclinic
  loop_
  _symmetry_equiv_pos_as_xyz
 x,y,z
_cell_length_a 47.4985
_cell_length_b 47.3643
_cell_length_c 49.1707
_cell_angle_alpha 91.754100
_cell_angle_beta 89.161000
_cell_angle_gamma 92.248100
loop_
  _atom_site_label
  _atom_site_type_symbol
  _atom_site_fract_x
  _atom_site_fract_y
  _atom_site_fract_z
N1 N 0.29546 0.23595 0.23121
 N2 N 0.27804 0.25032 0.21700
 C3 C 0.28804 0.25211 0.19128
 C4 C 0.31282 0.23768 0.18941
 C5 C 0.31695 0.22785 0.21514
 H6 H 0.27761 0.26218 0.17497
 H7 H 0.33417 0.21551 0.22167
 Cu8 Cu 0.24329 0.26361 0.23344
 Cu9 Cu 0.28902 0.22858 0.26948
 Cu10 Cu 0.21953 0.23282 0.29031
 N11 N 0.21189 0.27862 0.25445
 N12 N 0.20274 0.26655 0.27681
 C13 C 0.18119 0.28104 0.28743
 C14 C 0.17652 0.30338 0.27078
 C15 C 0.19634 0.30114 0.24997
 H16 H 0.16970 0.27555 0.30579
 H17 H 0.19949 0.31509 0.23309
 N18 N 0.24672 0.21019 0.30904
 N19 N 0.27367 0.21045 0.30216
 C20 C 0.28736 0.19442 0.31931
 C21 C 0.26805 0.18328 0.33777
 C22 C 0.24242 0.19368 0.33065
 H23 H 0.30957 0.19029 0.31779
 H24 H 0.22227 0.18990 0.34068
 H25 H 0.24824 0.22082 0.25932
 H26 H 0.25535 0.25383 0.28020
 N27 N 0.72518 -0.23559 0.18196
 N28 N 0.73729 -0.25721 0.17001
 C29 C 0.72054 -0.26852 0.15056
 C30 C 0.69654 -0.25293 0.14958
 C31 C 0.70039 -0.23180 0.16969
 H32 H 0.72611 -0.28634 0.13760
 H33 H 0.68589 -0.21561 0.17567
 Cu34 Cu 0.77414 -0.26897 0.17970
 Cu35 Cu 0.74284 -0.21583 0.21336
 Cu36 Cu 0.79440 -0.25468 0.24329
 N37 N 0.80296 -0.29015 0.19595
 N38 N 0.81001 -0.28538 0.22139
 C39 C 0.82969 -0.30356 0.22795
 C40 C 0.83537 -0.32077 0.20525
 C41 C 0.81783 -0.31147 0.18529
 H42 H 0.83938 -0.30372 0.24768
 H43 H 0.81556 -0.31961 0.16464
 N44 N 0.77647 -0.22246 0.26167
 N45 N 0.75773 -0.20686 0.25026
 C46 C 0.75195 -0.18498 0.26743
 C47 C 0.76808 -0.18689 0.29060
 C48 C 0.78309 -0.21104 0.28616
 H49 H 0.73778 -0.16845 0.26302
 H50 H 0.79835 -0.21939 0.29949
 H51 H 0.78413 -0.22927 0.21193
 H52 H 0.75572 -0.25431 0.22388
 N53 N 0.70441 0.20898 0.78517
 N54 N 0.71295 0.23338 0.79626
 C55 C 0.69563 0.23997 0.81724
 C56 C 0.67497 0.21860 0.81927
 C57 C 0.68140 0.19919 0.79866
 H58 H 0.69725 0.25946 0.82926
 H59 H 0.66987 0.17971 0.79333
 Cu60 Cu 0.74457 0.25531 0.78085
 Cu61 Cu 0.72240 0.19321 0.75244
 Cu62 Cu 0.74731 0.24794 0.71294
 N63 N 0.76776 0.28095 0.75897
 N64 N 0.76671 0.27913 0.73229
 C65 C 0.78245 0.30033 0.72174
 C66 C 0.79501 0.31598 0.74291
 C67 C 0.78519 0.30291 0.76638
 H68 H 0.78579 0.30289 0.70015
 H69 H 0.78978 0.30920 0.78722
 N70 N 0.73928 0.20930 0.69828
 N71 N 0.73063 0.18806 0.71344
 C72 C 0.73060 0.16392 0.69824
 C73 C 0.74019 0.17031 0.67233
 C74 C 0.74538 0.19925 0.67311
 H75 H 0.72557 0.14313 0.70590
 H76 H 0.75427 0.21192 0.65696
 H77 H 0.75637 0.22238 0.74382
 H78 H 0.71917 0.23347 0.74210
 N79 N 0.28157 -0.23714 0.80008
 N80 N 0.26283 -0.25561 0.80958
 C81 C 0.27181 -0.26495 0.83337
 C82 C 0.29747 -0.25148 0.83916
 C83 C 0.30301 -0.23385 0.81766
 H84 H 0.26085 -0.28086 0.84528
 H85 H 0.32183 -0.22073 0.81436
 Cu86 Cu 0.22954 -0.26751 0.78920
 Cu87 Cu 0.27825 -0.22163 0.76417
 Cu88 Cu 0.21216 -0.23052 0.73543
 N89 N 0.19989 -0.28096 0.76472
 N90 N 0.19351 -0.26670 0.74332
 C91 C 0.17205 -0.28027 0.73026
 C92 C 0.16427 -0.30441 0.74436
 C93 C 0.18257 -0.30404 0.76617
 H94 H 0.16237 -0.27241 0.71239
 H95 H 0.18342 -0.31935 0.78196
 N96 N 0.24068 -0.20247 0.72297
 N97 N 0.26628 -0.20007 0.73305
 C98 C 0.28139 -0.18045 0.71929
 C99 C 0.26444 -0.16990 0.69967
 C100 C 0.23871 -0.18428 0.70264
 H101 H 0.30302 -0.17400 0.72351
 H102 H 0.22022 -0.18228 0.69038
 H103 H 0.23600 -0.22035 0.77044
 H104 H 0.24762 -0.24897 0.74637
 N105 N 0.70503 -0.21338 0.78633
 N106 N 0.71898 -0.22630 0.80489
 C107 C 0.70222 -0.23017 0.82688
 C108 C 0.67636 -0.21934 0.82169
 C109 C 0.67872 -0.20902 0.79573
 H110 H 0.70784 -0.24151 0.84464
 H111 H 0.66236 -0.19958 0.78440
 Cu112 Cu 0.75633 -0.24026 0.79763
 Cu113 Cu 0.72223 -0.20327 0.75150
 Cu114 Cu 0.78429 -0.23551 0.73463
 N115 N 0.78657 -0.26419 0.78510
 N116 N 0.79741 -0.26227 0.76048
 C117 C 0.81734 -0.28149 0.75693
 C118 C 0.81915 -0.29660 0.78063
 C119 C 0.79917 -0.28479 0.79808
 H120 H 0.82923 -0.28439 0.73823
 H121 H 0.79378 -0.29078 0.81859
 N122 N 0.76737 -0.20784 0.71133
 N123 N 0.74350 -0.19569 0.71751
 C124 C 0.73800 -0.17731 0.69804
 C125 C 0.75953 -0.17785 0.67863
 C126 C 0.77767 -0.19759 0.68783
 H127 H 0.71993 -0.16414 0.69833
 H128 H 0.79732 -0.20368 0.67850
 H129 H 0.74343 -0.24044 0.75013
 H130 H 0.76389 -0.20739 0.76100
 N131 N 0.28857 0.27767 0.79365
 N132 N 0.27026 0.29464 0.80503
 C133 C 0.27998 0.30387 0.82946
 C134 C 0.30571 0.29189 0.83361
 C135 C 0.31047 0.27543 0.81039
 H136 H 0.26898 0.31792 0.84332
 H137 H 0.32859 0.26291 0.80581
 Cu138 Cu 0.23567 0.30299 0.78642
 Cu139 Cu 0.28291 0.26034 0.75765
 Cu140 Cu 0.21302 0.25572 0.73866
 N141 N 0.20177 0.30890 0.76569
 N142 N 0.19312 0.29023 0.74700
 C143 C 0.16971 0.29923 0.73551
 C144 C 0.16331 0.32509 0.74748
 C145 C 0.18406 0.33050 0.76673
 H146 H 0.15826 0.28771 0.71959
 H147 H 0.18641 0.34900 0.78005
 N148 N 0.24165 0.23078 0.72303
 N149 N 0.26859 0.23389 0.72908
 C150 C 0.28328 0.21549 0.71376
 C151 C 0.26470 0.19990 0.69728
 C152 C 0.23842 0.21008 0.70378
 H153 H 0.30580 0.21329 0.71488
 H154 H 0.21858 0.20358 0.69456
 H155 H 0.24821 0.28076 0.74266
 H156 H 0.24258 0.25451 0.76996
 N157 N 0.30441 -0.25290 0.23799
 N158 N 0.28845 -0.27448 0.22922
 C159 C 0.29934 -0.28482 0.20575
 C160 C 0.32335 -0.26878 0.19938
 C161 C 0.32593 -0.24860 0.22025
 H162 H 0.29043 -0.30264 0.19408
 H163 H 0.34258 -0.23252 0.22275
 Cu164 Cu 0.25536 -0.28757 0.24960
 Cu165 Cu 0.29692 -0.23387 0.27287
 Cu166 Cu 0.22709 -0.24116 0.29412
 N167 N 0.22004 -0.29622 0.26849
 N168 N 0.20898 -0.27806 0.28592
 C169 C 0.18424 -0.28902 0.29527
 C170 C 0.17955 -0.31554 0.28305
 C171 C 0.20275 -0.31933 0.26614
 H172 H 0.17050 -0.27818 0.30950
 H173 H 0.20675 -0.33752 0.25306
 N174 N 0.25350 -0.21134 0.30866
 N175 N 0.28037 -0.20953 0.30144
 C176 C 0.29350 -0.18915 0.31672
 C177 C 0.27398 -0.17745 0.33443
 C178 C 0.24877 -0.19191 0.32865
 H179 H 0.31571 -0.18339 0.31520
 H180 H 0.22882 -0.18944 0.33917
 H181 H 0.26504 -0.25946 0.29108
 H182 H 0.25623 -0.23718 0.26194
 N183 N 0.71050 0.20195 0.19317
 N184 N 0.72126 0.22292 0.17899
 C185 C 0.70468 0.22677 0.15752
 C186 C 0.68230 0.20710 0.15816
 C187 C 0.68677 0.19169 0.18115
 H188 H 0.70867 0.24264 0.14247
 H189 H 0.67362 0.17452 0.18883
 Cu190 Cu 0.75568 0.24354 0.19019
 Cu191 Cu 0.72785 0.18958 0.22631
 Cu192 Cu 0.78943 0.22559 0.24624
 N193 N 0.79079 0.26301 0.20130
 N194 N 0.80359 0.25602 0.22348
 C195 C 0.82661 0.27309 0.22715
 C196 C 0.82849 0.29193 0.20614
 C197 C 0.80536 0.28482 0.19006
 H198 H 0.84095 0.27180 0.24388
 H199 H 0.79931 0.29516 0.17186
 N200 N 0.77203 0.19418 0.26668
 N201 N 0.74866 0.18030 0.25922
 C202 C 0.74254 0.16001 0.27731
 C203 C 0.76307 0.16123 0.29718
 C204 C 0.78137 0.18318 0.28960
 H205 H 0.72451 0.14543 0.27609
 H206 H 0.80037 0.19049 0.29982
 H207 H 0.74715 0.22803 0.23662
 H208 H 0.76820 0.20266 0.21579
 C209 C 0.27085 -0.01534 0.57783
 C210 C 0.27092 0.01096 0.59156
 C211 C 0.26993 0.03602 0.57735
 C212 C 0.26790 0.03483 0.54866
 C213 C 0.26762 0.00828 0.53452
 C214 C 0.26900 -0.01693 0.54915
 C215 C 0.26897 -0.04303 0.53473
 C216 C 0.26852 -0.04427 0.50641
 C217 C 0.26825 -0.01946 0.49144
 C218 C 0.26722 0.00700 0.50563
 C219 C 0.26653 0.05957 0.53374
 C220 C 0.26617 0.05833 0.50544
 C221 C 0.26713 0.03230 0.49098
 C222 C 0.26845 0.03100 0.46222
 C223 C 0.26886 0.00474 0.44845
 C224 C 0.26938 -0.02040 0.46264
 H225 H 0.26947 -0.06275 0.54525
 H226 H 0.26854 -0.06491 0.49632
 H227 H 0.26588 0.08017 0.54383
 H228 H 0.26524 0.07803 0.49497
 H229 H 0.27353 0.01204 0.61346
 H230 H 0.27097 0.00399 0.42644
 C231 C 0.75174 -0.03787 0.42685
 C232 C 0.75200 -0.01214 0.41354
 C233 C 0.75053 0.01367 0.42805
 C234 C 0.74753 0.01373 0.45676
 C235 C 0.74770 -0.01210 0.47058
 C236 C 0.74907 -0.03802 0.45559
 C237 C 0.74772 -0.06342 0.46975
 C238 C 0.74756 -0.06324 0.49808
 C239 C 0.74870 -0.03766 0.51336
 C240 C 0.74751 -0.01191 0.49951
 C241 C 0.74426 0.03898 0.47204
 C242 C 0.74389 0.03915 0.50032
 C243 C 0.74697 0.01412 0.51446
 C244 C 0.74932 0.01442 0.54315
 C245 C 0.75066 -0.01113 0.55652
 C246 C 0.75074 -0.03709 0.54212
 H247 H 0.74687 -0.08372 0.45902
 H248 H 0.74658 -0.08340 0.50787
 H249 H 0.74201 0.05890 0.46225
 H250 H 0.74126 0.05922 0.51097
 H251 H 0.75547 -0.01208 0.39168
 H252 H 0.75338 -0.01069 0.57839
 C253 C 0.43040 0.25033 0.02936
 C254 C 0.41611 0.26096 0.00746
 C255 C 0.42974 0.26613 -0.01745
 C256 C 0.45847 0.25963 -0.02097
 C257 C 0.47350 0.24976 0.00137
 C258 C 0.45971 0.24620 0.02687
 C259 C 0.47566 0.23901 0.04933
 C260 C 0.50413 0.23359 0.04645
 C261 C 0.51772 0.23473 0.02091
 C262 C 0.50238 0.24331 -0.00177
 C263 C 0.47275 0.26319 -0.04596
 C264 C 0.50071 0.25568 -0.04934
 C265 C 0.51574 0.24514 -0.02765
 C266 C 0.54393 0.23673 -0.03105
 C267 C 0.55899 0.22906 -0.00830
 C268 C 0.54636 0.22798 0.01753
 H269 H 0.46635 0.23791 0.06950
 H270 H 0.51531 0.22837 0.06452
 H271 H 0.46242 0.27158 -0.06324
 H272 H 0.51061 0.25867 -0.06906
 H273 H 0.39373 0.26444 0.00950
 H274 H 0.58051 0.22249 -0.01094
 C275 C 0.42681 0.75634 -0.01204
 C276 C 0.41626 0.75170 0.01422
 C277 C 0.43403 0.75124 0.03653
 C278 C 0.46336 0.75584 0.03279
 C279 C 0.47439 0.76149 0.00643
 C280 C 0.45597 0.76244 -0.01597
 C281 C 0.46737 0.76841 -0.04178
 C282 C 0.49632 0.77230 -0.04574
 C283 C 0.51517 0.76854 -0.02448
 C284 C 0.50403 0.76418 0.00212
 C285 C 0.48200 0.75375 0.05448
 C286 C 0.51100 0.75609 0.05022
 C287 C 0.52244 0.76090 0.02416
 C288 C 0.55181 0.76126 0.01934
 C289 C 0.56250 0.76528 -0.00694
 C290 C 0.54479 0.76857 -0.02908
 H291 H 0.45409 0.77009 -0.05927
 H292 H 0.50372 0.77775 -0.06587
 H293 H 0.47431 0.74965 0.07487
 H294 H 0.52442 0.75369 0.06753
 H295 H 0.39399 0.74640 0.01704
 H296 H 0.58502 0.76395 -0.01043
 C297 C -0.02094 0.54880 0.23422
 C298 C 0.00165 0.56427 0.24597
 C299 C 0.02519 0.55100 0.25545
 C300 C 0.02651 0.52125 0.25299
 C301 C 0.00342 0.50515 0.24172
 C302 C -0.02056 0.51893 0.23269
 C303 C -0.04386 0.50247 0.22317
 C304 C -0.04323 0.47316 0.22150
 C305 C -0.01925 0.45906 0.22923
 C306 C 0.00411 0.47519 0.23989
 C307 C 0.04998 0.50715 0.26194
 C308 C 0.05076 0.47779 0.25992
 C309 C 0.02796 0.46141 0.24920
 C310 C 0.02834 0.43159 0.24753
 C311 C 0.00545 0.41598 0.23648
 C312 C -0.01833 0.42921 0.22739
 H313 H -0.06310 0.51204 0.21737
 H314 H -0.06197 0.46169 0.21439
 H315 H 0.06796 0.51870 0.27063
 H316 H 0.06944 0.46803 0.26694
 H317 H 0.00113 0.58716 0.24739
 H318 H 0.00596 0.39310 0.23533
 C319 C -0.04082 0.56395 0.77033
 C320 C -0.01550 0.57848 0.76401
 C321 C 0.00878 0.56417 0.75673
 C322 C 0.00834 0.53433 0.75663
 C323 C -0.01738 0.51920 0.76200
 C324 C -0.04219 0.53403 0.76842
 C325 C -0.06787 0.51862 0.77155
 C326 C -0.06925 0.48934 0.76807
 C327 C -0.04495 0.47432 0.76178
 C328 C -0.01862 0.48922 0.75957
 C329 C 0.03264 0.51926 0.75036
 C330 C 0.03165 0.48980 0.74912
 C331 C 0.00616 0.47434 0.75332
 C332 C 0.00441 0.44449 0.75009
 C333 C -0.02193 0.43025 0.75163
 C334 C -0.04656 0.44484 0.75659
 H335 H -0.08734 0.52909 0.77580
 H336 H -0.08962 0.47849 0.77029
 H337 H 0.05263 0.53015 0.74621
 H338 H 0.05093 0.47928 0.74400
 H339 H -0.01473 0.60141 0.76438
 H340 H -0.02347 0.40765 0.74728
 C341 C 0.35391 0.24778 0.12403
 C342 C 0.36584 0.22185 0.12099
 C343 C 0.36091 0.20026 0.13918
 C344 C 0.34316 0.20571 0.16158
 C345 C 0.33048 0.23222 0.16512
 C346 C 0.33566 0.25344 0.14587
 O347 O 0.36235 0.26573 0.10506
 C348 C 0.37993 0.25077 0.08971
 C349 C 0.38261 0.22372 0.09851
 C350 C 0.39989 0.20438 0.08550
 C351 C 0.41524 0.21335 0.06257
 C352 C 0.41365 0.24143 0.05358
 C353 C 0.39532 0.26026 0.06713
 H354 H 0.37075 0.18012 0.13647
 H355 H 0.33918 0.18927 0.17613
 H356 H 0.32653 0.27398 0.14834
 H357 H 0.40142 0.18313 0.09267
 H358 H 0.42852 0.19851 0.05184
 H359 H 0.39341 0.28168 0.06048
 C360 C 0.63385 0.75760 0.10683
 C361 C 0.63190 0.73169 0.09350
 C362 C 0.64980 0.71007 0.09833
 C363 C 0.67099 0.71541 0.11742
 C364 C 0.67390 0.74201 0.13167
 C365 C 0.65440 0.76320 0.12663
 O366 O 0.61586 0.77578 0.09758
 C367 C 0.60237 0.76088 0.07805
 C368 C 0.61137 0.73370 0.07498
 C369 C 0.60119 0.71463 0.05511
 C370 C 0.58099 0.72400 0.03742
 C371 C 0.57160 0.75198 0.03982
 C372 C 0.58221 0.77071 0.06054
 H373 H 0.64792 0.68995 0.08733
 H374 H 0.68486 0.69842 0.12109
 H375 H 0.65607 0.78389 0.13657
 H376 H 0.60888 0.69345 0.05300
 H377 H 0.57294 0.70971 0.02150
 H378 H 0.57552 0.79228 0.06241
 C379 C 0.62618 0.23296 -0.12079
 C380 C 0.60312 0.21604 -0.12793
 C381 C 0.60220 0.19949 -0.15174
 C382 C 0.62602 0.20042 -0.16895
 C383 C 0.65013 0.21777 -0.16216
 C384 C 0.65005 0.23436 -0.13769
 O385 O 0.62306 0.24632 -0.09685
 C386 C 0.59745 0.23765 -0.08874
 C387 C 0.58433 0.21918 -0.10708
 C388 C 0.55774 0.20684 -0.10237
 C389 C 0.54423 0.21357 -0.07759
 C390 C 0.55732 0.23248 -0.05825
 C391 C 0.58433 0.24473 -0.06400
 H392 H 0.58384 0.18624 -0.15685
 H393 H 0.62543 0.18783 -0.18768
 H394 H 0.66813 0.24760 -0.13172
 H395 H 0.54800 0.19211 -0.11699
 H396 H 0.52388 0.20353 -0.07310
 H397 H 0.59499 0.25880 -0.04937
 C398 C 0.35128 0.75821 -0.10524
 C399 C 0.35095 0.73127 -0.09554
 C400 C 0.33370 0.70933 -0.10602
 C401 C 0.31599 0.71537 -0.12744
 C402 C 0.31613 0.74287 -0.13811
 C403 C 0.33420 0.76457 -0.12692
 O404 O 0.36858 0.77614 -0.09168
 C405 C 0.37947 0.76010 -0.07311
 C406 C 0.36946 0.73244 -0.07481
 C407 C 0.37782 0.71190 -0.05742
 C408 C 0.39723 0.72022 -0.03730
 C409 C 0.40766 0.74865 -0.03480
 C410 C 0.39859 0.76896 -0.05294
 H411 H 0.33372 0.68836 -0.09787
 H412 H 0.30248 0.69852 -0.13595
 H413 H 0.33452 0.78580 -0.13451
 H414 H 0.36961 0.69030 -0.05919
 H415 H 0.40398 0.70462 -0.02338
 H416 H 0.40597 0.79085 -0.05117
 C417 C 0.12259 0.35708 0.25596
 C418 C 0.11342 0.36405 0.28188
 C419 C 0.12404 0.35214 0.30490
 C420 C 0.14493 0.33218 0.30104
 C421 C 0.15494 0.32483 0.27451
 C422 C 0.14368 0.33768 0.25168
 O423 O 0.10883 0.36976 0.23678
 C424 C 0.09059 0.38510 0.25089
 C425 C 0.09264 0.38252 0.27859
 C426 C 0.07511 0.39633 0.29714
 C427 C 0.05441 0.41320 0.28667
 C428 C 0.05170 0.41575 0.25821
 C429 C 0.07010 0.40163 0.24007
 H430 H 0.11627 0.35771 0.32508
 H431 H 0.15342 0.32263 0.31872
 H432 H 0.15050 0.33215 0.23117
 H433 H 0.07703 0.39391 0.31884
 H434 H 0.04012 0.42383 0.30057
 H435 H 0.06811 0.40309 0.21825
 C436 C 0.11041 0.63711 0.75184
 C437 C 0.09664 0.63848 0.72758
 C438 C 0.10443 0.65782 0.70792
 C439 C 0.12727 0.67668 0.71355
 C440 C 0.14205 0.67584 0.73850
 C441 C 0.13346 0.65528 0.75769
 O442 O 0.09850 0.61851 0.76855
 C443 C 0.07671 0.60787 0.75449
 C444 C 0.07474 0.61929 0.72920
 C445 C 0.05276 0.61227 0.71159
 C446 C 0.03175 0.59298 0.72057
 C447 C 0.03310 0.58135 0.74670
 C448 C 0.05601 0.58865 0.76384
 H449 H 0.09301 0.65873 0.68910
 H450 H 0.13323 0.69179 0.69826
 H451 H 0.14343 0.65401 0.77721
 H452 H 0.05144 0.62184 0.69197
 H453 H 0.01398 0.58766 0.70758
 H454 H 0.05700 0.58052 0.78414
 C455 C -0.11029 0.62862 0.22265
 C456 C -0.10618 0.61524 0.19782
 C457 C -0.12089 0.62176 0.17480
 C458 C -0.14062 0.64300 0.17746
 C459 C -0.14521 0.65750 0.20289
 C460 C -0.12963 0.64985 0.22579
 O461 O -0.09401 0.61950 0.24196
 C462 C -0.07922 0.59998 0.22898
 C463 C -0.08580 0.59656 0.20190
 C464 C -0.07226 0.57771 0.18437
 C465 C -0.05102 0.56182 0.19524
 C466 C -0.04416 0.56477 0.22320
 C467 C -0.05844 0.58422 0.24024
 H468 H -0.11722 0.61098 0.15541
 H469 H -0.15191 0.64811 0.15946
 H470 H -0.13219 0.65993 0.24563
 H471 H -0.07759 0.57558 0.16306
 H472 H -0.03973 0.54738 0.18196
 H473 H -0.05331 0.58711 0.26156
 C474 C -0.14678 0.36885 0.75770
 C475 C -0.14509 0.38215 0.73325
 C476 C -0.16294 0.37525 0.71181
 C477 C -0.18315 0.35336 0.71544
 C478 C -0.18560 0.33901 0.74046
 C479 C -0.16741 0.34753 0.76215
 O480 O -0.12642 0.37741 0.77468
 C481 C -0.11168 0.39657 0.76059
 C482 C -0.12247 0.40036 0.73519
 C483 C -0.11007 0.41867 0.71658
 C484 C -0.08540 0.43368 0.72441
 C485 C -0.07360 0.42989 0.75026
 C486 C -0.08687 0.41113 0.76871
 H487 H -0.16097 0.38593 0.69268
 H488 H -0.19700 0.34794 0.69866
 H489 H -0.16806 0.33690 0.78133
 H490 H -0.11887 0.42104 0.69664
 H491 H -0.07507 0.44787 0.71020
 H492 H -0.07792 0.40774 0.78841
 C493 C 0.26030 0.12419 0.38754
 C494 C 0.28661 0.12569 0.39892
 C495 C 0.30739 0.14562 0.39167
 C496 C 0.30089 0.16469 0.37166
 C497 C 0.27388 0.16373 0.35963
 C498 C 0.25320 0.14331 0.36792
 O499 O 0.24406 0.10289 0.39657
 C500 C 0.26051 0.09074 0.41406
 C501 C 0.28671 0.10401 0.41629
 C502 C 0.30749 0.09467 0.43307
 C503 C 0.30098 0.07067 0.44826
 C504 C 0.27417 0.05660 0.44630
 C505 C 0.25365 0.06664 0.42886
 H506 H 0.32801 0.14619 0.40079
 H507 H 0.31691 0.18020 0.36557
 H508 H 0.23259 0.14173 0.35875
 H509 H 0.32800 0.10539 0.43432
 H510 H 0.31682 0.06283 0.46142
 H511 H 0.23315 0.05600 0.42692
 C512 C 0.73916 0.10584 0.62518
 C513 C 0.76095 0.11297 0.60767
 C514 C 0.77638 0.13844 0.60989
 C515 C 0.76914 0.15731 0.63114
 C516 C 0.74699 0.15034 0.64976
 C517 C 0.73184 0.12413 0.64671
 O518 O 0.72678 0.08088 0.61904
 C519 C 0.74117 0.07206 0.59725
 C520 C 0.76244 0.09086 0.58962
 C521 C 0.78042 0.08573 0.56763
 C522 C 0.77610 0.06029 0.55269
 C523 C 0.75363 0.04103 0.55949
 C524 C 0.73622 0.04682 0.58241
 H525 H 0.79329 0.14365 0.59570
 H526 H 0.78116 0.17712 0.63331
 H527 H 0.71467 0.11834 0.66041
 H528 H 0.79727 0.10067 0.56227
 H529 H 0.79007 0.05562 0.53568
 H530 H 0.71924 0.03223 0.58828
 C531 C 0.26006 -0.11053 0.65059
 C532 C 0.28781 -0.10745 0.64244
 C533 C 0.30880 -0.12399 0.65213
 C534 C 0.30088 -0.14451 0.67106
 C535 C 0.27235 -0.14828 0.67963
 C536 C 0.25165 -0.13108 0.66907
 O537 O 0.24360 -0.09206 0.63962
 C538 C 0.26134 -0.07702 0.62417
 C539 C 0.28863 -0.08569 0.62508
 C540 C 0.31071 -0.07269 0.61067
 C541 C 0.30439 -0.04974 0.59477
 C542 C 0.27651 -0.04031 0.59378
 C543 C 0.25464 -0.05411 0.60863
 H544 H 0.33052 -0.12107 0.64551
 H545 H 0.31693 -0.15760 0.67881
 H546 H 0.22979 -0.13316 0.67550
 H547 H 0.33202 -0.07984 0.61176
 H548 H 0.32116 -0.03906 0.58344
 H549 H 0.23325 -0.04705 0.60821
 C550 C 0.75459 -0.12747 0.34212
 C551 C 0.77714 -0.12998 0.35897
 C552 C 0.79724 -0.15013 0.35467
 C553 C 0.79397 -0.16863 0.33212
 C554 C 0.77081 -0.16683 0.31430
 C555 C 0.75087 -0.14574 0.31944
 O556 O 0.73820 -0.10647 0.34980
 C557 C 0.75077 -0.09559 0.37195
 C558 C 0.77467 -0.10929 0.37837
 C559 C 0.79148 -0.10120 0.40037
 C560 C 0.78338 -0.07789 0.41643
 C561 C 0.75868 -0.06350 0.41047
 C562 C 0.74222 -0.07238 0.38778
 H563 H 0.81495 -0.15147 0.36812
 H564 H 0.80988 -0.18406 0.32855
 H565 H 0.73299 -0.14365 0.30638
 H566 H 0.81035 -0.11220 0.40480
 H567 H 0.79648 -0.07077 0.43333
 H568 H 0.72358 -0.06139 0.38255
 C569 C 0.62533 0.78517 -0.11921
 C570 C 0.60414 0.76674 -0.12825
 C571 C 0.60471 0.75346 -0.15389
 C572 C 0.62818 0.75927 -0.17080
 C573 C 0.65069 0.77736 -0.16150
 C574 C 0.64924 0.79057 -0.13539
 O575 O 0.62087 0.79526 -0.09409
 C576 C 0.59647 0.78271 -0.08702
 C577 C 0.58553 0.76479 -0.10706
 C578 C 0.56145 0.74769 -0.10310
 C579 C 0.54809 0.74917 -0.07747
 C580 C 0.55812 0.76847 -0.05677
 C581 C 0.58287 0.78534 -0.06176
 H582 H 0.58784 0.73895 -0.16052
 H583 H 0.62935 0.74896 -0.19073
 H584 H 0.66639 0.80421 -0.12781
 H585 H 0.55379 0.73300 -0.11885
 H586 H 0.53021 0.73491 -0.07359
 H587 H 0.59168 0.79954 -0.04615
 C588 C 0.35975 0.27844 -0.11304
 C589 C 0.35775 0.30239 -0.09673
 C590 C 0.33934 0.32363 -0.10202
 C591 C 0.32229 0.32002 -0.12506
 C592 C 0.32404 0.29557 -0.14234
 C593 C 0.34324 0.27458 -0.13621
 O594 O 0.37764 0.26025 -0.10380
 C595 C 0.38721 0.27302 -0.08116
 C596 C 0.37578 0.29893 -0.07598
 C597 C 0.38216 0.31552 -0.05291
 C598 C 0.40091 0.30487 -0.03432
 C599 C 0.41275 0.27810 -0.03904
 C600 C 0.40583 0.26197 -0.06287
 H601 H 0.33796 0.34219 -0.08874
 H602 H 0.30789 0.33637 -0.12950
 H603 H 0.34483 0.25546 -0.14866
 H604 H 0.37266 0.33568 -0.04910
 H605 H 0.40581 0.31714 -0.01592
 H606 H 0.41401 0.24116 -0.06657
 C607 C 0.37337 0.74527 0.14050
 C608 C 0.37614 0.71823 0.13004
 C609 C 0.36268 0.69474 0.14140
 C610 C 0.34553 0.69929 0.16445
 C611 C 0.34237 0.72693 0.17574
 C612 C 0.35679 0.75022 0.16373
 O613 O 0.38653 0.76478 0.12559
 C614 C 0.39787 0.74971 0.10531
 C615 C 0.39225 0.72110 0.10722
 C616 C 0.40099 0.70145 0.08760
 C617 C 0.41582 0.71175 0.06488
 C618 C 0.42145 0.74113 0.06225
 C619 C 0.41262 0.76042 0.08283
 H620 H 0.36488 0.67373 0.13256
 H621 H 0.33474 0.68126 0.17350
 H622 H 0.35433 0.77160 0.17159
 H623 H 0.39603 0.67909 0.08941
 H624 H 0.42228 0.69701 0.04892
 H625 H 0.41621 0.78298 0.08087
 C626 C 0.63172 0.22035 0.10141
 C627 C 0.61434 0.19649 0.10237
 C628 C 0.61794 0.17540 0.12093
 C629 C 0.64034 0.17905 0.13923
 C630 C 0.65866 0.20351 0.13870
 C631 C 0.65409 0.22442 0.11938
 O632 O 0.62471 0.23791 0.08231
 C633 C 0.60243 0.22484 0.07093
 C634 C 0.59518 0.19939 0.08243
 C635 C 0.57245 0.18226 0.07357
 C636 C 0.55648 0.19183 0.05210
 C637 C 0.56338 0.21815 0.04018
 C638 C 0.58688 0.23471 0.04955
 H639 H 0.60403 0.15675 0.12129
 H640 H 0.64342 0.16264 0.15357
 H641 H 0.66732 0.24347 0.11836
 H642 H 0.56718 0.16226 0.08284
 H643 H 0.53871 0.17890 0.04474
 H644 H 0.59267 0.25474 0.04058
 C645 C -0.12641 0.64937 0.77077
 C646 C -0.12822 0.63629 0.79532
 C647 C -0.14688 0.64445 0.81586
 C648 C -0.16440 0.66691 0.81085
 C649 C -0.16310 0.68089 0.78556
 C650 C -0.14357 0.67166 0.76532
 O651 O -0.10708 0.63878 0.75404
 C652 C -0.09643 0.61854 0.76834
 C653 C -0.10860 0.61607 0.79376
 C654 C -0.10013 0.59644 0.81222
 C655 C -0.07818 0.57880 0.80413
 C656 C -0.06538 0.58105 0.77800
 C657 C -0.07469 0.60125 0.75992
 H658 H -0.14791 0.63393 0.83510
 H659 H -0.17892 0.67314 0.82686
 H660 H -0.14139 0.68140 0.74578
 H661 H -0.10980 0.59502 0.83223
 H662 H -0.07079 0.56375 0.81828
 H663 H -0.06498 0.60365 0.74001
 C664 C -0.11145 0.34506 0.21972
 C665 C -0.10826 0.35716 0.19475
 C666 C -0.12522 0.34922 0.17276
 C667 C -0.14619 0.32785 0.17667
 C668 C -0.14973 0.31485 0.20223
 C669 C -0.13203 0.32383 0.22403
 O670 O -0.09330 0.35553 0.23801
 C671 C -0.07823 0.37462 0.22428
 C672 C -0.08645 0.37648 0.19769
 C673 C -0.07317 0.39501 0.17968
 C674 C -0.05062 0.41232 0.18955
 C675 C -0.04212 0.41098 0.21700
 C676 C -0.05602 0.39168 0.23449
 H677 H -0.12236 0.35902 0.15326
 H678 H -0.15933 0.32127 0.15967
 H679 H -0.13417 0.31479 0.24391
 H680 H -0.07986 0.39603 0.15880
 H681 H -0.03977 0.42681 0.17596
 H682 H -0.04976 0.39013 0.25547
 C683 C 0.10609 0.37865 0.75257
 C684 C 0.09410 0.37472 0.72738
 C685 C 0.10390 0.35551 0.70789
 C686 C 0.12691 0.33955 0.71465
 C687 C 0.13969 0.34301 0.74055
 C688 C 0.12922 0.36316 0.75966
 O689 O 0.09270 0.39705 0.76854
 C690 C 0.07182 0.40485 0.75308
 C691 C 0.07181 0.39182 0.72767
 C692 C 0.05120 0.39594 0.70855
 C693 C 0.02954 0.41405 0.71599
 C694 C 0.02892 0.42757 0.74210
 C695 C 0.05048 0.42306 0.76087
 H696 H 0.09395 0.35264 0.68828
 H697 H 0.13474 0.32455 0.69961
 H698 H 0.13818 0.36609 0.77970
 H699 H 0.05149 0.38520 0.68881
 H700 H 0.01292 0.41722 0.70167
 H701 H 0.05008 0.43274 0.78110
 C702 C 0.12477 0.62570 0.27009
 C703 C 0.10763 0.62887 0.29267
 C704 C 0.11291 0.64948 0.31290
 C705 C 0.13680 0.66759 0.30970
 C706 C 0.15481 0.66480 0.28655
 C707 C 0.14866 0.64333 0.26658
 O708 O 0.11539 0.60568 0.25263
 C709 C 0.09178 0.59598 0.26442
 C710 C 0.08610 0.60942 0.28901
 C711 C 0.06176 0.60349 0.30419
 C712 C 0.04232 0.58321 0.29340
 C713 C 0.04763 0.56931 0.26801
 C714 C 0.07283 0.57560 0.25342
 H715 H 0.09898 0.65176 0.33038
 H716 H 0.14121 0.68368 0.32531
 H717 H 0.16155 0.64083 0.24841
 H718 H 0.05754 0.61461 0.32328
 H719 H 0.02279 0.57876 0.30438
 H720 H 0.07692 0.56576 0.23366
 C721 C 0.74891 -0.12247 0.62589
 C722 C 0.77157 -0.12700 0.60883
 C723 C 0.79076 -0.14771 0.61314
 C724 C 0.78644 -0.16451 0.63596
 C725 C 0.76327 -0.16031 0.65413
 C726 C 0.74422 -0.13888 0.64877
 O727 O 0.73347 -0.10134 0.61837
 C728 C 0.74669 -0.09238 0.59607
 C729 C 0.77016 -0.10737 0.58937
 C730 C 0.78760 -0.10104 0.56723
 C731 C 0.78061 -0.07824 0.55140
 C732 C 0.75636 -0.06259 0.55771
 C733 C 0.73925 -0.06975 0.58048
 H734 H 0.80853 -0.15077 0.59947
 H735 H 0.80135 -0.18064 0.63933
 H736 H 0.72643 -0.13475 0.66207
 H737 H 0.80619 -0.11288 0.56261
 H738 H 0.79432 -0.07237 0.53454
 H739 H 0.72101 -0.05773 0.58608
 C740 C 0.26461 -0.11688 0.38528
 C741 C 0.29082 -0.11523 0.39688
 C742 C 0.31226 -0.13301 0.38901
 C743 C 0.30647 -0.15335 0.36831
 C744 C 0.27952 -0.15576 0.35617
 C745 C 0.25823 -0.13732 0.36496
 O746 O 0.24763 -0.09724 0.39502
 C747 C 0.26346 -0.08297 0.41322
 C748 C 0.29001 -0.09329 0.41524
 C749 C 0.31020 -0.08139 0.43278
 C750 C 0.30277 -0.05778 0.44882
 C751 C 0.27567 -0.04656 0.44690
 C752 C 0.25572 -0.05928 0.42881
 H753 H 0.33277 -0.13115 0.39833
 H754 H 0.32292 -0.16741 0.36199
 H755 H 0.23757 -0.13843 0.35589
 H756 H 0.33099 -0.08982 0.43389
 H757 H 0.31821 -0.04786 0.46241
 H758 H 0.23505 -0.05078 0.42680
 C759 C 0.75087 0.10211 0.34705
 C760 C 0.77211 0.10849 0.36516
 C761 C 0.79055 0.13175 0.36265
 C762 C 0.78713 0.14909 0.34042
 C763 C 0.76559 0.14296 0.32107
 C764 C 0.74704 0.11910 0.32474
 O765 O 0.73589 0.07878 0.35307
 C766 C 0.74802 0.07029 0.37544
 C767 C 0.77032 0.08776 0.38362
 C768 C 0.78658 0.08251 0.40605
 C769 C 0.77959 0.05822 0.42068
 C770 C 0.75641 0.04002 0.41298
 C771 C 0.74052 0.04610 0.38988
 H772 H 0.80706 0.13637 0.37725
 H773 H 0.80146 0.16721 0.33851
 H774 H 0.73036 0.11359 0.31058
 H775 H 0.80428 0.09638 0.41185
 H776 H 0.79238 0.05336 0.43786
 H777 H 0.72306 0.03229 0.38330
 C778 C 0.25962 0.13508 0.65050
 C779 C 0.28610 0.13602 0.63878
 C780 C 0.30631 0.15711 0.64512
 C781 C 0.29899 0.17807 0.66443
 C782 C 0.27176 0.17774 0.67675
 C783 C 0.25174 0.15596 0.66948
 O784 O 0.24387 0.11277 0.64215
 C785 C 0.26076 0.09941 0.62473
 C786 C 0.28680 0.11287 0.62187
 C787 C 0.30783 0.10255 0.60476
 C788 C 0.30178 0.07731 0.58998
 C789 C 0.27518 0.06300 0.59267
 C790 C 0.25439 0.07409 0.61039
 H791 H 0.32704 0.15732 0.63568
 H792 H 0.31448 0.19467 0.66955
 H793 H 0.23092 0.15494 0.67872
 H794 H 0.32817 0.11350 0.60291
 H795 H 0.31781 0.06870 0.57658
 H796 H 0.23401 0.06333 0.61287
   
