data_POSCAR
  _audit_creation_date              2014-09-24
  _audit_creation_method            'ToBaCCo'
  _symmetry_space_group_name_H-M    'P1'
  _symmetry_Int_Tables_number       1
  _symmetry_cell_setting            triclinic
  loop_
  _symmetry_equiv_pos_as_xyz
 x,y,z
_cell_length_a 25.1926
_cell_length_b 31.7417
_cell_length_c 15.4050
_cell_angle_alpha 90.305300
_cell_angle_beta 89.113500
_cell_angle_gamma 113.512700
loop_
  _atom_site_label
  _atom_site_type_symbol
  _atom_site_fract_x
  _atom_site_fract_y
  _atom_site_fract_z
O1 O 0.41747 0.95559 0.55511
 O2 O 0.49832 1.04581 0.39686
 O3 O 0.45391 0.95596 0.39574
 O4 O 0.46188 1.04473 0.55616
 O5 O 0.54505 1.04532 0.60074
 O6 O 0.53691 0.95641 0.44078
 O7 O 0.58108 1.04561 0.44126
 O8 O 0.50026 0.95560 0.60011
 Cu9 Cu 0.44967 1.00048 0.47096
 Cu10 Cu 0.54904 1.00074 0.52565
 C11 C 0.44531 0.94023 0.60478
 C12 C 0.55329 1.06122 0.39193
 C13 C 0.49376 0.94098 0.39092
 C14 C 0.50514 1.06022 0.60581
 O15 O -0.05841 0.51058 0.59222
 O16 O 0.05072 0.55448 0.41673
 O17 O -0.06110 0.51236 0.42316
 O18 O 0.05436 0.55322 0.58521
 O19 O 0.06186 0.48629 0.58212
 O20 O -0.05354 0.44542 0.41953
 O21 O 0.05915 0.48785 0.41318
 O22 O -0.04996 0.44400 0.58862
 Cu23 Cu -0.00446 0.53934 0.50509
 Cu24 Cu 0.00512 0.45917 0.50016
 C25 C -0.07277 0.46995 0.62054
 C26 C 0.07354 0.52851 0.38509
 C27 C -0.07685 0.47189 0.39348
 C28 C 0.07788 0.52689 0.61138
 O29 O 0.42604 0.48728 0.42127
 O30 O 0.50042 0.44755 0.58553
 O31 O 0.43007 0.48972 0.59031
 O32 O 0.49569 0.44523 0.41677
 O33 O 0.57079 0.51204 0.41200
 O34 O 0.50537 0.55635 0.58611
 O35 O 0.57519 0.51455 0.58088
 O36 O 0.50062 0.55439 0.41702
 Cu37 Cu 0.45553 0.46074 0.50427
 Cu38 Cu 0.54548 0.54107 0.49816
 C39 C 0.45080 0.52769 0.39106
 C40 C 0.55036 0.47417 0.61119
 C41 C 0.45644 0.53044 0.61810
 C42 C 0.54454 0.47120 0.38479
 O43 O 0.45034 0.69220 -0.05481
 O44 O 0.43841 0.76807 -0.08865
 C45 C 0.40797 0.78869 -0.11514
 O46 O 0.35783 0.78141 -0.08437
 O47 O 0.27251 0.70342 -0.11790
 C48 C 0.25144 0.66068 -0.13181
 O49 O 0.26178 0.63233 -0.08410
 O50 O 0.36696 0.63555 -0.09255
 C51 C 0.42123 0.65742 -0.10100
 O52 O 0.43114 0.70422 0.11553
 O53 O 0.42318 0.78180 0.08141
 C54 C 0.38008 0.78868 0.11213
 O55 O 0.32896 0.76762 0.08584
 O56 O 0.24143 0.69125 0.05242
 C57 C 0.23599 0.65650 0.09850
 O58 O 0.26881 0.63509 0.09018
 O59 O 0.37128 0.63289 0.08185
 C60 C 0.40961 0.66150 0.12981
 Cr61 Cr 0.43256 0.73524 0.01289
 Cr62 Cr 0.30209 0.73463 -0.01551
 Cr63 Cr 0.31849 0.63653 -0.00117
 O64 O 0.35111 0.70226 -0.00127
 O65 O 0.56955 0.29651 -0.11651
 O66 O 0.57643 0.21850 -0.08312
 C67 C 0.61939 0.21138 -0.11376
 O68 O 0.67047 0.23198 -0.08698
 O69 O 0.75849 0.30780 -0.05233
 C70 C 0.76443 0.34269 -0.09834
 O71 O 0.73207 0.36448 -0.08996
 O72 O 0.63005 0.36754 -0.08219
 C73 C 0.59157 0.33926 -0.13038
 O74 O 0.55002 0.30821 0.05380
 O75 O 0.56079 0.23174 0.08697
 C76 C 0.59068 0.21059 0.11314
 O77 O 0.64089 0.21773 0.08287
 O78 O 0.72666 0.29526 0.11779
 C79 C 0.74792 0.33794 0.13236
 O80 O 0.73840 0.36665 0.08450
 O81 O 0.63367 0.36435 0.09215
 C82 C 0.57931 0.34290 0.10009
 Cr83 Cr 0.56741 0.26505 -0.01418
 Cr84 Cr 0.69726 0.26452 0.01486
 Cr85 Cr 0.68225 0.36318 0.00111
 O86 O 0.64890 0.29746 0.00064
 C87 C 0.41308 0.90430 -0.33152
 C88 C 0.43915 0.88270 -0.28553
 C89 C 0.40746 0.84706 -0.22104
 C90 C 0.43435 0.82348 -0.18308
 H91 H 0.48499 0.89129 -0.29578
 H92 H 0.36287 0.84040 -0.20436
 H93 H 0.36700 0.89509 -0.32305
 H94 H 0.47869 0.83034 -0.20207
 C95 C 0.12145 0.54206 -0.32672
 C96 C 0.14283 0.58511 -0.29622
 C97 C 0.18685 0.59977 -0.22796
 C98 C 0.21133 0.64393 -0.20473
 H99 H 0.12744 0.61005 -0.32112
 H100 H 0.19815 0.57435 -0.19544
 H101 H 0.13844 0.51788 -0.30291
 H102 H 0.20012 0.66894 -0.23900
 C103 C 0.43060 0.54623 -0.31582
 C104 C 0.45623 0.58776 -0.27922
 C105 C 0.42585 0.60265 -0.21116
 C106 C 0.45226 0.64181 -0.16715
 H107 H 0.49953 0.61087 -0.29921
 H108 H 0.38086 0.58104 -0.19702
 H109 H 0.38783 0.52340 -0.29304
 H110 H 0.49759 0.66286 -0.17996
 C111 C 0.50863 0.09583 -0.33010
 C112 C 0.55648 0.11767 -0.28444
 C113 C 0.56041 0.15308 -0.21971
 C114 C 0.61100 0.17680 -0.18192
 H115 H 0.59394 0.10946 -0.29521
 H116 H 0.52235 0.15945 -0.20269
 H117 H 0.47154 0.10465 -0.32115
 H118 H 0.64859 0.17020 -0.20118
 C119 C 0.88576 0.45426 -0.31296
 C120 C 0.86976 0.41276 -0.27614
 C121 C 0.82442 0.39780 -0.20801
 C122 C 0.81135 0.35852 -0.16424
 H123 H 0.88980 0.38965 -0.29616
 H124 H 0.80116 0.41939 -0.19378
 H125 H 0.86596 0.47709 -0.29021
 H126 H 0.83550 0.33747 -0.17716
 C127 C 0.58002 0.45869 -0.32236
 C128 C 0.55990 0.41503 -0.29575
 C129 C 0.58822 0.40040 -0.22607
 C130 C 0.56900 0.35608 -0.20408
 H131 H 0.52142 0.38969 -0.32493
 H132 H 0.62374 0.42597 -0.19139
 H133 H 0.61920 0.48382 -0.29456
 H134 H 0.53378 0.33096 -0.24009
 C135 C 0.87792 0.45626 0.32711
 C136 C 0.85472 0.41275 0.29976
 C137 C 0.81200 0.39837 0.22968
 C138 C 0.78711 0.35423 0.20649
 H139 H 0.86804 0.38744 0.32840
 H140 H 0.80201 0.42407 0.19567
 H141 H 0.86369 0.48131 0.29963
 H142 H 0.79712 0.32891 0.24185
 C143 C 0.58396 0.09563 0.33216
 C144 C 0.55777 0.11557 0.28187
 C145 C 0.59027 0.15190 0.21902
 C146 C 0.56349 0.17519 0.17978
 H147 H 0.51131 0.10543 0.28751
 H148 H 0.63542 0.15941 0.20484
 H149 H 0.63060 0.10688 0.32764
 H150 H 0.51866 0.16770 0.19676
 C151 C 0.57199 0.45426 0.31584
 C152 C 0.54505 0.41356 0.27715
 C153 C 0.57531 0.39792 0.21014
 C154 C 0.54838 0.35902 0.16559
 H155 H 0.50079 0.39171 0.29504
 H156 H 0.62072 0.41875 0.19727
 H157 H 0.61586 0.47617 0.29613
 H158 H 0.50272 0.33865 0.17731
 C159 C 0.11766 0.54526 0.31556
 C160 C 0.13132 0.58583 0.27638
 C161 C 0.17706 0.60142 0.20894
 C162 C 0.18901 0.64028 0.16426
 H163 H 0.10901 0.60766 0.29425
 H164 H 0.20156 0.58063 0.19594
 H165 H 0.13954 0.52339 0.29594
 H166 H 0.16381 0.66061 0.17618
 C167 C 0.49040 0.90535 0.32696
 C168 C 0.44258 0.88327 0.28139
 C169 C 0.43888 0.84770 0.21710
 C170 C 0.38828 0.82351 0.17977
 H171 H 0.40500 0.89133 0.29201
 H172 H 0.47710 0.84157 0.20011
 H173 H 0.52758 0.89663 0.31820
 H174 H 0.35051 0.82986 0.19902
 C175 C 0.42122 0.54305 0.32430
 C176 C 0.44152 0.58657 0.29685
 C177 C 0.41320 0.60090 0.22673
 C178 C 0.43249 0.64510 0.20375
 H179 H 0.48012 0.61199 0.32559
 H180 H 0.37751 0.57519 0.19262
 H181 H 0.38195 0.51788 0.29680
 H182 H 0.46783 0.67040 0.23925
   
