data_POSCAR
  _audit_creation_date              2014-09-24
  _audit_creation_method            'ToBaCCo'
  _symmetry_space_group_name_H-M    'P1'
  _symmetry_Int_Tables_number       1
  _symmetry_cell_setting            triclinic
  loop_
  _symmetry_equiv_pos_as_xyz
 x,y,z
_cell_length_a 33.2628
_cell_length_b 34.6318
_cell_length_c 40.2307
_cell_angle_alpha 89.748900
_cell_angle_beta 90.970900
_cell_angle_gamma 80.328500
loop_
  _atom_site_label
  _atom_site_type_symbol
  _atom_site_fract_x
  _atom_site_fract_y
  _atom_site_fract_z
C1 C 1.22021 0.23170 0.20045
 C2 C 1.24742 0.25641 0.18304
 C3 C 1.26929 0.27602 0.20384
 C4 C 1.26163 0.26957 0.24088
 C5 C 1.24893 0.20512 0.22459
 C6 C 1.27072 0.22479 0.24567
 C7 C 1.19369 0.26011 0.22353
 C8 C 1.21509 0.27974 0.24495
 H9 H 1.24968 0.25762 0.15623
 H10 H 1.27970 0.28563 0.25771
 H11 H 1.24862 0.17412 0.22758
 H12 H 1.16088 0.26224 0.22437
 C13 C 0.71865 -0.27183 0.19903
 C14 C 0.74241 -0.24606 0.17864
 C15 C 0.76509 -0.22461 0.19717
 C16 C 0.76137 -0.23022 0.23501
 C17 C 0.75079 -0.29614 0.22173
 C18 C 0.77300 -0.27471 0.24078
 C19 C 0.69319 -0.24284 0.22224
 C20 C 0.71528 -0.22177 0.24177
 H21 H 0.74004 -0.24278 0.15195
 H22 H 0.77988 -0.21272 0.25011
 H23 H 0.75327 -0.32761 0.22435
 H24 H 0.66041 -0.24046 0.22391
 C25 C 0.72152 0.23356 -0.29754
 C26 C 0.74211 0.25933 -0.31727
 C27 C 0.76349 0.28456 -0.29807
 C28 C 0.75902 0.27932 -0.26196
 C29 C 0.75264 0.21277 -0.27514
 C30 C 0.77311 0.23759 -0.25472
 C31 C 0.69456 0.26062 -0.27683
 C32 C 0.71483 0.28537 -0.25618
 H33 H 0.74151 0.25925 -0.34412
 H34 H 0.77552 0.29860 -0.24740
 H35 H 0.75532 0.18154 -0.27083
 H36 H 0.66181 0.26606 -0.28065
 C37 C 1.21869 -0.26143 -0.29784
 C38 C 1.24108 -0.23312 -0.31675
 C39 C 1.26496 -0.21397 -0.29716
 C40 C 1.26391 -0.22443 -0.25998
 C41 C 1.25212 -0.28829 -0.27819
 C42 C 1.27550 -0.26926 -0.25805
 C43 C 1.19486 -0.23547 -0.27148
 C44 C 1.21841 -0.21662 -0.25123
 H45 H 1.23802 -0.22785 -0.34323
 H46 H 1.28340 -0.20876 -0.24408
 H47 H 1.25391 -0.31981 -0.27758
 H48 H 1.16215 -0.23260 -0.26894
 C49 C 0.22700 0.20674 0.79529
 C50 C 0.24522 0.23277 0.81677
 C51 C 0.26766 0.25877 0.79992
 C52 C 0.26714 0.25352 0.76371
 C53 C 0.20108 0.23362 0.76980
 C54 C 0.22178 0.25818 0.75320
 C55 C 0.26235 0.18541 0.77457
 C56 C 0.28334 0.20974 0.75786
 H57 H 0.24494 0.22964 0.84352
 H58 H 0.28347 0.27309 0.74929
 H59 H 0.16923 0.23238 0.76476
 H60 H 0.26637 0.15455 0.76889
 C61 C 0.72814 0.71400 0.79799
 C62 C 0.75233 0.73642 0.81813
 C63 C 0.77555 0.76011 0.79956
 C64 C 0.76988 0.75623 0.76342
 C65 C 0.70316 0.74238 0.77603
 C66 C 0.72560 0.76655 0.75688
 C67 C 0.75672 0.69124 0.77562
 C68 C 0.78027 0.71400 0.75633
 H69 H 0.74962 0.73783 0.84491
 H70 H 0.78901 0.77340 0.74970
 H71 H 0.67183 0.73999 0.77025
 H72 H 0.75419 0.66146 0.76905
 C73 C 0.73543 0.21721 0.29798
 C74 C 0.75637 0.24697 0.31691
 C75 C 0.77638 0.26922 0.29718
 C76 C 0.77364 0.25987 0.25991
 C77 C 0.70783 0.24239 0.27239
 C78 C 0.72762 0.26431 0.25212
 C79 C 0.76924 0.19360 0.27747
 C80 C 0.78899 0.21553 0.25721
 H81 H 0.75496 0.25132 0.34342
 H82 H 0.79015 0.27794 0.24392
 H83 H 0.67523 0.24279 0.27067
 H84 H 0.77397 0.16190 0.27657
 C85 C 0.23553 0.71794 0.30063
 C86 C 0.25794 0.74671 0.31941
 C87 C 0.27697 0.76953 0.29942
 C88 C 0.27197 0.76160 0.26209
 C89 C 0.20671 0.74428 0.27657
 C90 C 0.22557 0.76674 0.25606
 C91 C 0.26784 0.69484 0.27841
 C92 C 0.28661 0.71735 0.25789
 H93 H 0.25797 0.75024 0.34603
 H94 H 0.28778 0.78008 0.24589
 H95 H 0.17403 0.74500 0.27599
 H96 H 0.27211 0.66322 0.27664
 O97 O 1.04754 0.03918 0.03733
 O98 O 0.91672 -0.02844 0.01660
 O99 O 0.97248 0.06423 0.03564
 O100 O 1.04576 -0.08016 0.02828
 O101 O 0.91762 0.04174 0.02548
 O102 O 1.05833 -0.02663 0.04850
 O103 O 0.96989 -0.06836 0.03724
 O104 O 1.02919 0.08325 0.00229
 C105 C 1.04971 0.07262 0.02754
 C106 C 0.93272 -0.05409 0.03771
 C107 C 0.93778 0.06054 0.04395
 C108 C 1.05966 -0.06221 0.05122
 O109 O 1.08003 -0.04429 -0.01603
 O110 O 0.93167 0.05046 -0.04127
 O111 O 1.00613 0.05097 -0.04944
 O112 O 0.95800 -0.07337 -0.02639
 O113 O 0.93312 -0.01788 -0.04882
 O114 O 1.06604 0.02569 -0.02922
 O115 O 1.03348 -0.07676 -0.03534
 O116 O 0.95523 0.09988 -0.01965
 Co117 Co 1.05786 -0.00152 0.00913
 Co118 Co 0.93106 0.01038 -0.01081
 Co119 Co 0.98805 0.05537 -0.00685
 Co120 Co 1.00124 -0.06782 0.00082
 O121 O 0.99631 -0.00351 -0.00095
 C122 C 1.06824 -0.06765 -0.03671
 C123 C 0.92851 0.08736 -0.03857
 C124 C 1.04392 0.04213 -0.05288
 C125 C 0.93856 -0.05411 -0.04945
 O126 O 1.07173 0.53717 0.52557
 O127 O 0.92269 0.46312 0.52246
 O128 O 0.94509 0.57893 0.52014
 O129 O 1.04945 0.42096 0.52670
 O130 O 0.92554 0.52831 0.53930
 O131 O 1.06756 0.47309 0.54471
 O132 O 0.97986 0.43582 0.54292
 O133 O 1.01346 0.56504 0.54142
 C134 C 1.05061 0.55795 0.54615
 C135 C 0.94257 0.44431 0.54560
 C136 C 0.92922 0.56282 0.54297
 C137 C 1.06576 0.43824 0.54900
 O138 O 1.07868 0.44631 0.48119
 O139 O 0.91807 0.55180 0.47379
 O140 O 1.04084 0.56854 0.47822
 O141 O 0.95619 0.42936 0.47818
 O142 O 0.93056 0.48480 0.45764
 O143 O 1.06727 0.51213 0.46145
 O144 O 1.02463 0.42961 0.46150
 O145 O 0.97378 0.56719 0.45743
 Co146 Co 1.06415 0.49288 0.50298
 Co147 Co 0.93132 0.50633 0.49855
 Co148 Co 0.99373 0.56304 0.49948
 Co149 Co 1.00211 0.43582 0.50217
 O150 O 0.99782 0.49951 0.50080
 C151 C 1.06096 0.43166 0.45817
 C152 C 0.93731 0.56678 0.45221
 C153 C 1.06131 0.54784 0.45728
 C154 C 0.93757 0.44889 0.45489
 O155 O 0.57870 0.03453 0.52226
 O156 O 0.42822 -0.03996 0.52292
 O157 O 0.45239 0.07582 0.52254
 O158 O 0.55470 -0.08129 0.52657
 O159 O 0.43238 0.02498 0.54129
 O160 O 0.57445 -0.02909 0.54303
 O161 O 0.48556 -0.06700 0.54284
 O162 O 0.52167 0.06152 0.54076
 C163 C 0.55899 0.05429 0.54409
 C164 C 0.44833 -0.05878 0.54584
 C165 C 0.43662 0.05935 0.54530
 C166 C 0.57154 -0.06355 0.54830
 O167 O 0.58371 -0.05726 0.48036
 O168 O 0.42225 0.05027 0.47687
 O169 O 0.54505 0.06521 0.47591
 O170 O 0.46122 -0.07255 0.47780
 O171 O 0.43401 -0.01649 0.45890
 O172 O 0.57132 0.00852 0.45921
 O173 O 0.52931 -0.07289 0.46093
 O174 O 0.47708 0.06483 0.45824
 Co175 Co 0.56977 -0.01008 0.50112
 Co176 Co 0.43648 0.00397 0.50007
 Co177 Co 0.49946 0.06009 0.49954
 Co178 Co 0.50733 -0.06673 0.50188
 O179 O 0.50324 -0.00320 0.50065
 C180 C 0.56566 -0.07135 0.45733
 C181 C 0.44034 0.06489 0.45442
 C182 C 0.56480 0.04422 0.45469
 C183 C 0.44151 -0.05233 0.45531
 O184 O 0.56367 0.53333 0.02662
 O185 O 0.41979 0.45812 0.02407
 O186 O 0.43655 0.57461 0.01754
 O187 O 0.54751 0.41631 0.02232
 O188 O 0.41959 0.52399 0.03822
 O189 O 0.56218 0.46849 0.04239
 O190 O 0.47853 0.43001 0.04193
 O191 O 0.50471 0.56134 0.04158
 C192 C 0.54174 0.55345 0.04721
 C193 C 0.44144 0.43893 0.04625
 C194 C 0.42167 0.55890 0.04099
 C195 C 0.56291 0.43310 0.04529
 O196 O 0.57235 0.44584 -0.02305
 O197 O 0.41271 0.54454 -0.02889
 O198 O 0.53421 0.56721 -0.01995
 O199 O 0.45121 0.42297 -0.02068
 O200 O 0.42523 0.47726 -0.04242
 O201 O 0.55969 0.51221 -0.03937
 O202 O 0.51847 0.42660 -0.04105
 O203 O 0.46799 0.56368 -0.04318
 Co204 Co 0.55771 0.49046 0.00142
 Co205 Co 0.42608 0.50053 -0.00208
 Co206 Co 0.48653 0.55952 -0.00086
 Co207 Co 0.49832 0.43121 0.00049
 O208 O 0.49214 0.49542 -0.00027
 C209 C 0.55404 0.43097 -0.04566
 C210 C 0.43216 0.56099 -0.04956
 C211 C 0.55452 0.54806 -0.04172
 C212 C 0.43138 0.44127 -0.04391
 C213 C 1.13972 0.21470 0.13555
 C214 C 1.15285 0.17559 0.12711
 C215 C 1.18814 0.15456 0.14200
 C216 C 1.20997 0.17232 0.16572
 C217 C 1.19626 0.21129 0.17547
 C218 C 1.16150 0.23257 0.15925
 C219 C 1.12993 0.15661 0.10359
 C220 C 1.11096 0.13954 0.08458
 C221 C 1.08914 0.11800 0.06336
 C222 C 1.07087 0.09811 0.04631
 H223 H 1.11269 0.23139 0.12381
 H224 H 1.19889 0.12439 0.13520
 H225 H 1.23783 0.15549 0.17581
 H226 H 1.15119 0.26314 0.16484
 C227 C 1.14144 0.67195 0.67996
 C228 C 1.14782 0.66596 0.64602
 C229 C 1.17694 0.68370 0.62991
 C230 C 1.19954 0.70757 0.64757
 C231 C 1.19278 0.71478 0.68167
 C232 C 1.16400 0.69582 0.69771
 C233 C 1.12518 0.64110 0.62757
 C234 C 1.10690 0.62066 0.61104
 C235 C 1.08634 0.59752 0.59020
 C236 C 1.06955 0.57873 0.57094
 H237 H 1.11939 0.65785 0.69279
 H238 H 1.18261 0.67863 0.60371
 H239 H 1.22291 0.71922 0.63441
 H240 H 1.15931 0.69903 0.72419
 C241 C 0.64645 0.16736 0.67825
 C242 C 0.66143 0.15345 0.64762
 C243 C 0.69743 0.16380 0.63578
 C244 C 0.71754 0.18938 0.65387
 C245 C 0.70111 0.20641 0.68368
 C246 C 0.66641 0.19292 0.69641
 C247 C 0.63912 0.12964 0.62779
 C248 C 0.62008 0.11080 0.61036
 C249 C 0.59792 0.08998 0.58879
 C250 C 0.57956 0.07317 0.56911
 H251 H 0.61912 0.15868 0.68803
 H252 H 0.70984 0.15229 0.61242
 H253 H 0.74595 0.19571 0.64432
 H254 H 0.65438 0.20208 0.72048
 C255 C 0.64187 0.65967 0.18180
 C256 C 0.64520 0.65405 0.14755
 C257 C 0.67309 0.67158 0.12971
 C258 C 0.69718 0.69530 0.14585
 C259 C 0.69327 0.70238 0.18023
 C260 C 0.66595 0.68336 0.19805
 C261 C 0.62014 0.63048 0.13027
 C262 C 0.59996 0.61141 0.11415
 C263 C 0.57772 0.59004 0.09314
 C264 C 0.56025 0.57272 0.07322
 H265 H 0.62067 0.64583 0.19591
 H266 H 0.67631 0.66684 0.10320
 H267 H 0.71899 0.70724 0.13112
 H268 H 0.66312 0.68705 0.22468
 C269 C 0.81220 -0.13553 0.17445
 C270 C 0.83220 -0.14841 0.14506
 C271 C 0.83264 -0.18687 0.13449
 C272 C 0.81214 -0.21191 0.15232
 C273 C 0.79069 -0.19896 0.18113
 C274 C 0.79167 -0.16082 0.19254
 C275 C 0.85149 -0.12267 0.12467
 C276 C 0.86823 -0.10347 0.10586
 C277 C 0.88892 -0.08363 0.08251
 C278 C 0.90793 -0.06891 0.06206
 H279 H 0.81175 -0.10583 0.18295
 H280 H 0.84821 -0.19732 0.11199
 H281 H 0.81246 -0.24136 0.14324
 H282 H 0.77525 -0.15011 0.21456
 C283 C 0.80121 0.34683 0.63724
 C284 C 0.83487 0.35799 0.65331
 C285 C 0.84363 0.34696 0.68653
 C286 C 0.81935 0.32388 0.70326
 C287 C 0.78622 0.31090 0.68675
 C288 C 0.77719 0.32373 0.65363
 C289 C 0.86091 0.37901 0.63451
 C290 C 0.88137 0.39550 0.61650
 C291 C 0.90389 0.41361 0.59330
 C292 C 0.92205 0.42811 0.57213
 H293 H 0.79375 0.35557 0.61167
 H294 H 0.86979 0.35532 0.69924
 H295 H 0.82844 0.31451 0.72833
 H296 H 0.75102 0.31677 0.64010
 C297 C 0.29926 -0.13902 0.64603
 C298 C 0.34019 -0.14150 0.65576
 C299 C 0.35559 -0.16517 0.68297
 C300 C 0.33046 -0.18739 0.69957
 C301 C 0.28989 -0.18644 0.68879
 C302 C 0.27428 -0.16128 0.66240
 C303 C 0.36656 -0.12216 0.63581
 C304 C 0.38727 -0.10667 0.61728
 C305 C 0.40999 -0.08929 0.59379
 C306 C 0.42815 -0.07506 0.57249
 H307 H 0.28696 -0.12082 0.62505
 H308 H 0.38729 -0.16746 0.69064
 H309 H 0.34328 -0.20674 0.71968
 H310 H 0.24295 -0.15950 0.65390
 C311 C 0.34968 0.30663 0.14949
 C312 C 0.34889 0.34546 0.15916
 C313 C 0.32470 0.36063 0.18585
 C314 C 0.30017 0.33731 0.20191
 C315 C 0.29931 0.29900 0.19096
 C316 C 0.32509 0.28358 0.16522
 C317 C 0.37021 0.36990 0.13931
 C318 C 0.38744 0.38835 0.12033
 C319 C 0.40688 0.40777 0.09598
 C320 C 0.42292 0.42275 0.07382
 H321 H 0.36824 0.29457 0.12891
 H322 H 0.32373 0.39074 0.19344
 H323 H 0.28040 0.34978 0.22161
 H324 H 0.32535 0.25393 0.15665
 C325 C 0.83626 0.16668 -0.19662
 C326 C 0.83816 0.18959 -0.16835
 C327 C 0.82138 0.22940 -0.16947
 C328 C 0.80146 0.24594 -0.19841
 C329 C 0.79750 0.22269 -0.22673
 C330 C 0.81632 0.18295 -0.22547
 C331 C 0.85619 0.17147 -0.13811
 C332 C 0.87131 0.15454 -0.11351
 C333 C 0.88965 0.13283 -0.08581
 C334 C 0.90647 0.11282 -0.06339
 H335 H 0.84969 0.13591 -0.19622
 H336 H 0.82268 0.24746 -0.14768
 H337 H 0.78711 0.27628 -0.19731
 H338 H 0.81599 0.16408 -0.24679
 C339 C 0.82313 0.70571 0.32581
 C340 C 0.84505 0.66784 0.32176
 C341 C 0.84596 0.65014 0.29054
 C342 C 0.82396 0.66958 0.26375
 C343 C 0.80065 0.70705 0.26786
 C344 C 0.80112 0.72528 0.29898
 C345 C 0.86503 0.64631 0.34986
 C346 C 0.88133 0.62776 0.37328
 C347 C 0.90032 0.60590 0.40068
 C348 C 0.91684 0.58760 0.42414
 H349 H 0.82214 0.71967 0.34990
 H350 H 0.86293 0.62091 0.28707
 H351 H 0.82450 0.65500 0.23997
 H352 H 0.78302 0.75385 0.30303
 C353 C 0.31942 0.20242 0.33095
 C354 C 0.34094 0.16450 0.32642
 C355 C 0.34091 0.14702 0.29515
 C356 C 0.31884 0.16702 0.26865
 C357 C 0.29647 0.20482 0.27311
 C358 C 0.29734 0.22252 0.30444
 C359 C 0.36222 0.14307 0.35397
 C360 C 0.37987 0.12482 0.37697
 C361 C 0.40056 0.10345 0.40388
 C362 C 0.41848 0.08551 0.42691
 H363 H 0.31915 0.21618 0.35510
 H364 H 0.35756 0.11774 0.29133
 H365 H 0.31909 0.15284 0.24470
 H366 H 0.27992 0.25132 0.30879
 C367 C 0.32440 0.70332 -0.17383
 C368 C 0.34502 0.66537 -0.17969
 C369 C 0.34576 0.65007 -0.21184
 C370 C 0.32473 0.67211 -0.23782
 C371 C 0.30263 0.70971 -0.23190
 C372 C 0.30338 0.72542 -0.19977
 C373 C 0.36377 0.64157 -0.15242
 C374 C 0.37891 0.62183 -0.12927
 C375 C 0.39659 0.59936 -0.10182
 C376 C 0.41226 0.58110 -0.07808
 H377 H 0.32359 0.71540 -0.14900
 H378 H 0.36176 0.62078 -0.21667
 H379 H 0.32496 0.65942 -0.26238
 H380 H 0.28613 0.75397 -0.19425
 C381 C 1.20267 -0.14157 -0.18203
 C382 C 1.17146 -0.15438 -0.16424
 C383 C 1.15589 -0.18739 -0.17486
 C384 C 1.17111 -0.20743 -0.20317
 C385 C 1.20218 -0.19469 -0.22145
 C386 C 1.21808 -0.16173 -0.21046
 C387 C 1.15417 -0.13358 -0.13557
 C388 C 1.13755 -0.11731 -0.11183
 C389 C 1.11572 -0.09934 -0.08465
 C390 C 1.09510 -0.08465 -0.06220
 H391 H 1.21484 -0.11593 -0.17408
 H392 H 1.13183 -0.19764 -0.16126
 H393 H 1.15889 -0.23327 -0.21044
 H394 H 1.24188 -0.15117 -0.22411
 C395 C 1.14393 0.31204 0.31581
 C396 C 1.15912 0.34471 0.32764
 C397 C 1.19273 0.35643 0.31240
 C398 C 1.21099 0.33546 0.28531
 C399 C 1.19562 0.30273 0.27314
 C400 C 1.16202 0.29115 0.28887
 C401 C 1.13995 0.36557 0.35560
 C402 C 1.12269 0.38178 0.37909
 C403 C 1.10153 0.39964 0.40662
 C404 C 1.08304 0.41435 0.43015
 H405 H 1.11817 0.30250 0.32758
 H406 H 1.20479 0.38169 0.32142
 H407 H 1.23676 0.34506 0.27372
 H408 H 1.15011 0.26543 0.28087
 C409 C 0.64820 -0.19069 0.31527
 C410 C 0.66220 -0.15676 0.32551
 C411 C 0.69395 -0.14385 0.30845
 C412 C 0.71143 -0.16488 0.28107
 C413 C 0.69705 -0.19878 0.27042
 C414 C 0.66548 -0.21159 0.28808
 C415 C 0.64354 -0.13584 0.35364
 C416 C 0.62652 -0.11988 0.37734
 C417 C 0.60555 -0.10251 0.40515
 C418 C 0.58729 -0.08825 0.42894
 H419 H 0.62393 -0.20116 0.32844
 H420 H 0.70510 -0.11762 0.31626
 H421 H 0.73572 -0.15438 0.26804
 H422 H 0.65449 -0.23823 0.28129
 C423 C 0.69158 0.36030 -0.18878
 C424 C 0.65361 0.35290 -0.17857
 C425 C 0.63543 0.32470 -0.19483
 C426 C 0.65525 0.30329 -0.22073
 C427 C 0.69410 0.30950 -0.23122
 C428 C 0.71167 0.33891 -0.21491
 C429 C 0.63350 0.37258 -0.15052
 C430 C 0.61549 0.38730 -0.12681
 C431 C 0.59377 0.40303 -0.09884
 C432 C 0.57529 0.41582 -0.07471
 H433 H 0.70585 0.38234 -0.17637
 H434 H 0.60616 0.31850 -0.18692
 H435 H 0.64037 0.28053 -0.23108
 H436 H 0.74053 0.34630 -0.22223
 C437 C 1.13909 0.17523 -0.15697
 C438 C 1.15155 0.13475 -0.15383
 C439 C 1.18968 0.11746 -0.16547
 C440 C 1.21480 0.14033 -0.18108
 C441 C 1.20186 0.18098 -0.18580
 C442 C 1.16412 0.19816 -0.17253
 C443 C 1.12618 0.11143 -0.13690
 C444 C 1.10534 0.09278 -0.12133
 C445 C 1.08189 0.07249 -0.10073
 C446 C 1.06333 0.05712 -0.08049
 H447 H 1.11004 0.18911 -0.14732
 H448 H 1.20015 0.08629 -0.16226
 H449 H 1.24434 0.12580 -0.18892
 H450 H 1.15372 0.22945 -0.17465
 C451 C 1.19580 0.66300 0.37338
 C452 C 1.16928 0.64220 0.35656
 C453 C 1.16563 0.64462 0.32196
 C454 C 1.18776 0.66855 0.30430
 C455 C 1.21343 0.69100 0.32099
 C456 C 1.21793 0.68699 0.35583
 C457 C 1.14515 0.61932 0.37518
 C458 C 1.12504 0.60120 0.39193
 C459 C 1.10194 0.58128 0.41303
 C460 C 1.08287 0.56538 0.43246
 H461 H 1.19919 0.66088 0.40020
 H462 H 1.14541 0.62836 0.30865
 H463 H 1.18440 0.67004 0.27748
 H464 H 1.23844 0.70184 0.36997
 C465 C 0.66607 0.14308 0.31840
 C466 C 0.66877 0.14109 0.35306
 C467 C 0.69405 0.16287 0.37026
 C468 C 0.71606 0.18723 0.35300
 C469 C 0.71266 0.19062 0.31807
 C470 C 0.68807 0.16738 0.30105
 C471 C 0.64522 0.11737 0.37137
 C472 C 0.62574 0.09855 0.38804
 C473 C 0.60352 0.07795 0.40931
 C474 C 0.58528 0.06171 0.42913
 H475 H 0.64684 0.12605 0.30482
 H476 H 0.69672 0.16109 0.39713
 H477 H 0.73577 0.20269 0.36742
 H478 H 0.68565 0.16835 0.27416
 C479 C 0.69940 0.63045 -0.15164
 C480 C 0.66027 0.64667 -0.14153
 C481 C 0.64413 0.68543 -0.14987
 C482 C 0.66647 0.70756 -0.16918
 C483 C 0.70512 0.69097 -0.18154
 C484 C 0.72189 0.65246 -0.17096
 C485 C 0.63707 0.62397 -0.12176
 C486 C 0.61763 0.60536 -0.10481
 C487 C 0.59508 0.58430 -0.08416
 C488 C 0.57621 0.56715 -0.06548
 H489 H 0.71268 0.60080 -0.14443
 H490 H 0.61428 0.69865 -0.14130
 H491 H 0.65329 0.73778 -0.17438
 H492 H 0.75252 0.63914 -0.17744
 C493 C 0.83522 -0.19615 -0.13513
 C494 C 0.84448 -0.16323 -0.15151
 C495 C 0.83203 -0.15609 -0.18468
 C496 C 0.80992 -0.18156 -0.20125
 C497 C 0.79955 -0.21463 -0.18476
 C498 C 0.81313 -0.22150 -0.15143
 C499 C 0.86583 -0.13670 -0.13348
 C500 C 0.88324 -0.11570 -0.11659
 C501 C 0.90308 -0.09258 -0.09491
 C502 C 0.91955 -0.07421 -0.07493
 H503 H 0.84499 -0.20223 -0.10952
 H504 H 0.83878 -0.13049 -0.19759
 H505 H 0.79947 -0.17375 -0.22634
 H506 H 0.80779 -0.24705 -0.13776
 C507 C 0.80199 0.34898 0.35360
 C508 C 0.84181 0.35134 0.34425
 C509 C 0.85905 0.32921 0.31735
 C510 C 0.83696 0.30376 0.30071
 C511 C 0.79773 0.29991 0.31118
 C512 C 0.78011 0.32353 0.33722
 C513 C 0.86539 0.37417 0.36427
 C514 C 0.88372 0.39251 0.38294
 C515 C 0.90371 0.41309 0.40663
 C516 C 0.91968 0.42987 0.42809
 H517 H 0.78827 0.36596 0.37430
 H518 H 0.88992 0.33067 0.30995
 H519 H 0.85124 0.28574 0.28081
 H520 H 0.74965 0.32163 0.34543
 C521 C 0.30413 -0.15151 0.35593
 C522 C 0.34337 -0.14850 0.34549
 C523 C 0.35966 -0.16997 0.31793
 C524 C 0.33723 -0.19542 0.30167
 C525 C 0.29863 -0.19993 0.31321
 C526 C 0.28192 -0.17697 0.33994
 C527 C 0.36743 -0.12573 0.36509
 C528 C 0.38617 -0.10752 0.38353
 C529 C 0.40664 -0.08720 0.40707
 C530 C 0.42305 -0.07077 0.42848
 H531 H 0.29115 -0.13506 0.37716
 H532 H 0.39009 -0.16799 0.30969
 H533 H 0.35076 -0.21289 0.28120
 H534 H 0.25194 -0.17936 0.34896
 C535 C 0.30044 0.32104 -0.13200
 C536 C 0.33214 0.33622 -0.14685
 C537 C 0.34197 0.32662 -0.17981
 C538 C 0.32054 0.30162 -0.19768
 C539 C 0.28881 0.28536 -0.18282
 C540 C 0.27906 0.29605 -0.14963
 C541 C 0.35489 0.36074 -0.12764
 C542 C 0.37330 0.38053 -0.11028
 C543 C 0.39421 0.40284 -0.08853
 C544 C 0.41149 0.42097 -0.06883
 H545 H 0.29224 0.32845 -0.10658
 H546 H 0.36667 0.33797 -0.19159
 H547 H 0.33055 0.29401 -0.22255
 H548 H 0.25418 0.28612 -0.13707
 C549 C 1.19428 -0.15024 0.19412
 C550 C 1.16136 -0.16273 0.17764
 C551 C 1.14963 -0.19815 0.18673
 C552 C 1.17052 -0.22099 0.21223
 C553 C 1.20349 -0.20867 0.22912
 C554 C 1.21533 -0.17315 0.21972
 C555 C 1.13962 -0.13970 0.15114
 C556 C 1.12094 -0.12128 0.12868
 C557 C 1.09900 -0.10045 0.10208
 C558 C 1.08062 -0.08296 0.07904
 H559 H 1.20363 -0.12285 0.18722
 H560 H 1.12440 -0.20823 0.17399
 H561 H 1.16121 -0.24862 0.21834
 H562 H 1.24037 -0.16278 0.23242
 C563 C 1.19415 0.34549 0.69490
 C564 C 1.16483 0.33272 0.67413
 C565 C 1.15504 0.29540 0.67875
 C566 C 1.17391 0.27110 0.70421
 C567 C 1.20288 0.28382 0.72560
 C568 C 1.21321 0.32109 0.72048
 C569 C 1.14434 0.35753 0.64807
 C570 C 1.12634 0.37713 0.62592
 C571 C 1.10486 0.39901 0.59958
 C572 C 1.08668 0.41710 0.57671
 H573 H 1.20202 0.37434 0.69149
 H574 H 1.13267 0.28507 0.66268
 H575 H 1.16601 0.24220 0.70696
 H576 H 1.23526 0.33168 0.73665
 C577 C 0.70947 -0.16542 0.68282
 C578 C 0.66695 -0.15805 0.68032
 C579 C 0.64402 -0.17262 0.70461
 C580 C 0.66339 -0.19597 0.73048
 C581 C 0.70648 -0.20610 0.73245
 C582 C 0.72908 -0.18875 0.70875
 C583 C 0.64666 -0.13673 0.65231
 C584 C 0.62922 -0.11968 0.62865
 C585 C 0.60868 -0.10025 0.60078
 C586 C 0.59141 -0.08367 0.57685
 H587 H 0.72758 -0.15372 0.66435
 H588 H 0.61099 -0.16636 0.70335
 H589 H 0.64387 -0.20561 0.74882
 H590 H 0.76185 -0.19348 0.70894
 C591 C 0.69822 0.34549 0.18814
 C592 C 0.66627 0.33216 0.17094
 C593 C 0.65487 0.29659 0.18001
 C594 C 0.67498 0.27453 0.20629
 C595 C 0.70681 0.28780 0.22402
 C596 C 0.71849 0.32336 0.21451
 C597 C 0.64477 0.35477 0.14407
 C598 C 0.62606 0.37299 0.12151
 C599 C 0.60379 0.39385 0.09504
 C600 C 0.58487 0.41163 0.07237
 H601 H 0.70728 0.37303 0.18130
 H602 H 0.63038 0.28587 0.16676
 H603 H 0.66585 0.24684 0.21247
 H604 H 0.74268 0.33443 0.22782
 C605 C 0.86221 0.14116 0.20947
 C606 C 0.85789 0.15734 0.17743
 C607 C 0.83391 0.19420 0.17214
 C608 C 0.81310 0.21417 0.19855
 C609 C 0.81591 0.19738 0.23056
 C610 C 0.84142 0.16106 0.23590
 C611 C 0.87612 0.13526 0.14968
 C612 C 0.89054 0.11681 0.12613
 C613 C 0.90690 0.09578 0.09809
 C614 C 0.92082 0.07886 0.07366
 H615 H 0.88078 0.11272 0.21388
 H616 H 0.83026 0.20696 0.14741
 H617 H 0.79323 0.24175 0.19349
 H618 H 0.84446 0.14759 0.26035
 C619 C 0.83808 0.70090 0.67663
 C620 C 0.84987 0.66023 0.67634
 C621 C 0.84173 0.63800 0.70363
 C622 C 0.82033 0.65603 0.73049
 C623 C 0.80605 0.69690 0.73059
 C624 C 0.81672 0.71916 0.70357
 C625 C 0.86837 0.64081 0.64747
 C626 C 0.88287 0.62361 0.62335
 C627 C 0.89911 0.60273 0.59523
 C628 C 0.91276 0.58456 0.57131
 H629 H 0.84436 0.71845 0.65558
 H630 H 0.85127 0.60649 0.70393
 H631 H 0.81530 0.63750 0.75119
 H632 H 0.80697 0.75033 0.70173
 C633 C 0.36024 0.14114 0.70851
 C634 C 0.35648 0.15950 0.67730
 C635 C 0.33191 0.19632 0.67338
 C636 C 0.30983 0.21395 0.70022
 C637 C 0.31192 0.19475 0.73122
 C638 C 0.33815 0.15864 0.73530
 C639 C 0.37526 0.13908 0.64893
 C640 C 0.39000 0.12110 0.62524
 C641 C 0.40648 0.09948 0.59751
 C642 C 0.42023 0.08099 0.57376
 H643 H 0.37915 0.11266 0.71187
 H644 H 0.32862 0.21072 0.64929
 H645 H 0.28944 0.24146 0.69616
 H646 H 0.34052 0.14335 0.75898
 C647 C 0.35592 0.64452 0.20568
 C648 C 0.34958 0.66185 0.17413
 C649 C 0.32557 0.69897 0.17054
 C650 C 0.30673 0.71804 0.19819
 C651 C 0.31155 0.70007 0.22976
 C652 C 0.33707 0.66349 0.23333
 C653 C 0.36565 0.64049 0.14529
 C654 C 0.37841 0.62200 0.12124
 C655 C 0.39304 0.59996 0.09317
 C656 C 0.40574 0.58110 0.06930
 H657 H 0.37450 0.61584 0.20878
 H658 H 0.32034 0.71261 0.14621
 H659 H 0.28678 0.74587 0.19450
 H660 H 0.34162 0.64912 0.25739
   
