data_POSCAR
  _audit_creation_date              2014-09-24
  _audit_creation_method            'ToBaCCo'
  _symmetry_space_group_name_H-M    'P1'
  _symmetry_Int_Tables_number       1
  _symmetry_cell_setting            triclinic
  loop_
  _symmetry_equiv_pos_as_xyz
 x,y,z
_cell_length_a 47.0404
_cell_length_b 47.0401
_cell_length_c 45.1754
_cell_angle_alpha 89.967300
_cell_angle_beta 89.968000
_cell_angle_gamma 89.504700
loop_
  _atom_site_label
  _atom_site_type_symbol
  _atom_site_fract_x
  _atom_site_fract_y
  _atom_site_fract_z
O1 O -0.03104 0.27611 0.02847
 O2 O 0.02422 0.27665 -0.02936
 O3 O -0.03114 0.27590 -0.02914
 O4 O 0.02428 0.27683 0.02839
 O5 O 0.02531 0.22987 0.02856
 O6 O -0.03007 0.22894 -0.02893
 O7 O 0.02524 0.22971 -0.02915
 O8 O -0.02998 0.22914 0.02864
 Cu9 Cu -0.00349 0.28110 -0.00044
 Cu10 Cu -0.00224 0.22470 -0.00021
 C11 C -0.03992 0.25252 0.03836
 C12 C 0.03411 0.25327 -0.03917
 C13 C -0.04005 0.25225 -0.03878
 C14 C 0.03415 0.25350 0.03833
 O15 O 0.53064 0.77420 0.47021
 O16 O 0.47547 0.77560 0.52814
 O17 O 0.53085 0.77495 0.52787
 O18 O 0.47530 0.77513 0.47039
 O19 O 0.47503 0.72818 0.47093
 O20 O 0.53059 0.72799 0.52843
 O21 O 0.47522 0.72865 0.52867
 O22 O 0.53035 0.72723 0.47078
 Cu23 Cu 0.50307 0.77969 0.49910
 Cu24 Cu 0.50275 0.72330 0.49977
 C25 C 0.53987 0.75047 0.46064
 C26 C 0.46601 0.75235 0.53829
 C27 C 0.54018 0.75144 0.53791
 C28 C 0.46577 0.75170 0.46082
 O29 O 0.97615 0.72113 -0.03096
 O30 O 1.03128 0.72167 0.02700
 O31 O 0.97581 0.72052 0.02669
 O32 O 1.03158 0.72215 -0.03056
 O33 O 1.03025 0.76909 -0.03010
 O34 O 0.97451 0.76748 0.02710
 O35 O 1.02992 0.76863 0.02740
 O36 O 0.97488 0.76807 -0.03050
 Cu37 Cu 1.00382 0.71666 -0.00200
 Cu38 Cu 1.00224 0.77302 -0.00148
 C39 C 0.96606 0.74453 -0.04058
 C40 C 1.04008 0.74527 0.03694
 C41 C 0.96563 0.74374 0.03657
 C42 C 1.04052 0.74590 -0.04001
 O43 O 0.52407 0.22060 0.52917
 O44 O 0.46894 0.22137 0.47132
 O45 O 0.52438 0.22078 0.47149
 O46 O 0.46865 0.22127 0.52886
 O47 O 0.46882 0.26824 0.52892
 O48 O 0.52447 0.26774 0.47163
 O49 O 0.46910 0.26834 0.47145
 O50 O 0.52417 0.26756 0.52925
 Cu51 Cu 0.49653 0.21627 0.50020
 Cu52 Cu 0.49668 0.27269 0.50032
 C53 C 0.53349 0.24396 0.53904
 C54 C 0.45955 0.24500 0.46166
 C55 C 0.53390 0.24420 0.46182
 C56 C 0.45918 0.24486 0.53854
 O57 O 0.72305 -0.03018 0.02955
 O58 O 0.72130 0.02519 -0.02822
 O59 O 0.72240 -0.03021 -0.02813
 O60 O 0.72163 0.02519 0.02943
 O61 O 0.76859 0.02582 0.02896
 O62 O 0.76936 -0.02956 -0.02857
 O63 O 0.76823 0.02577 -0.02862
 O64 O 0.77001 -0.02949 0.02906
 Cu65 Cu 0.71737 -0.00258 0.00070
 Cu66 Cu 0.77376 -0.00180 0.00016
 C67 C 0.74685 -0.03923 0.03913
 C68 C 0.74450 0.03495 -0.03825
 C69 C 0.74601 -0.03930 -0.03813
 C70 C 0.74498 0.03494 0.03897
 O71 O 0.22297 0.47690 0.52947
 O72 O 0.22315 0.53210 0.47160
 O73 O 0.22300 0.47671 0.47167
 O74 O 0.22319 0.53233 0.52911
 O75 O 0.27016 0.53172 0.52907
 O76 O 0.26997 0.47614 0.47167
 O77 O 0.27012 0.53150 0.47159
 O78 O 0.26993 0.47633 0.52943
 Cu79 Cu 0.21836 0.50450 0.50048
 Cu80 Cu 0.27476 0.50380 0.50045
 C81 C 0.24642 0.46727 0.53934
 C82 C 0.24668 0.54128 0.46186
 C83 C 0.24646 0.46704 0.46183
 C84 C 0.24672 0.54159 0.53874
 O85 O 0.27616 0.97637 -0.02972
 O86 O 0.27619 1.03165 0.02806
 O87 O 0.27627 0.97623 0.02807
 O88 O 0.27606 1.03177 -0.02946
 O89 O 0.22911 1.03205 -0.02932
 O90 O 0.22930 0.97655 0.02817
 O91 O 0.22922 1.03194 0.02816
 O92 O 0.22922 0.97668 -0.02958
 Cu93 Cu 0.28088 1.00391 -0.00077
 Cu94 Cu 0.22451 1.00428 -0.00063
 C95 C 0.25269 0.96714 -0.03958
 C96 C 0.25270 1.04130 0.03782
 C97 C 0.25281 0.96699 0.03795
 C98 C 0.25254 1.04149 -0.03910
 O99 O 0.78006 0.52391 0.53024
 O100 O 0.77922 0.46904 0.47211
 O101 O 0.78055 0.52445 0.47263
 O102 O 0.77887 0.46855 0.52975
 O103 O 0.73191 0.47001 0.52940
 O104 O 0.73359 0.52589 0.47233
 O105 O 0.73226 0.47054 0.47182
 O106 O 0.73310 0.52531 0.52988
 Cu107 Cu 0.78440 0.49633 0.50121
 Cu108 Cu 0.72800 0.49808 0.50081
 C109 C 0.75670 0.53397 0.53991
 C110 C 0.75558 0.46042 0.46214
 C111 C 0.75734 0.53473 0.46283
 C112 C 0.75510 0.45976 0.53927
 C113 C 0.24676 0.23251 0.22804
 C114 C 0.22519 0.25372 0.22837
 C115 C 0.22591 0.27507 0.25006
 C116 C 0.24732 0.27567 0.27168
 C117 C 0.26848 0.25404 0.27176
 C118 C 0.26796 0.23293 0.24985
 H119 H 0.28431 0.21653 0.24979
 H120 H 0.20954 0.29145 0.25012
 C121 C 0.75361 0.76796 0.22767
 C122 C 0.77498 0.74654 0.22750
 C123 C 0.77482 0.72555 0.24960
 C124 C 0.75380 0.72510 0.27165
 C125 C 0.73205 0.74612 0.27140
 C126 C 0.73240 0.76730 0.24952
 H127 H 0.71590 0.78355 0.24949
 H128 H 0.79132 0.70930 0.24963
 C129 C 0.77028 0.24596 0.23011
 C130 C 0.74727 0.22682 0.22816
 C131 C 0.72509 0.22872 0.24888
 C132 C 0.72565 0.24857 0.27205
 C133 C 0.74873 0.26764 0.27406
 C134 C 0.77087 0.26576 0.25331
 H135 H 0.78819 0.28080 0.25443
 H136 H 0.70778 0.21369 0.24773
 C137 C 0.23144 0.75319 0.22683
 C138 C 0.25251 0.77454 0.22695
 C139 C 0.27393 0.77366 0.24859
 C140 C 0.27473 0.75233 0.27033
 C141 C 0.25322 0.73143 0.27064
 C142 C 0.23205 0.73208 0.24878
 H143 H 0.21577 0.71590 0.24887
 H144 H 0.29021 0.78984 0.24853
 C145 C 0.72421 0.24755 0.72948
 C146 C 0.74733 0.26655 0.72730
 C147 C 0.76953 0.26462 0.74795
 C148 C 0.76895 0.24483 0.77120
 C149 C 0.74587 0.22578 0.77335
 C150 C 0.72364 0.22774 0.75272
 H151 H 0.70628 0.21277 0.75398
 H152 H 0.78689 0.27959 0.74670
 C153 C 0.27445 0.75454 0.72822
 C154 C 0.25299 0.73358 0.72797
 C155 C 0.23176 0.73431 0.74979
 C156 C 0.23108 0.75547 0.77165
 C157 C 0.25214 0.77684 0.77151
 C158 C 0.27358 0.77594 0.74988
 H159 H 0.28985 0.79213 0.74991
 H160 H 0.21550 0.71810 0.74976
 C161 C 0.24658 0.27512 0.72862
 C162 C 0.26765 0.25342 0.72836
 C163 C 0.26706 0.23220 0.75019
 C164 C 0.24588 0.23178 0.77205
 C165 C 0.22437 0.25305 0.77187
 C166 C 0.22516 0.27449 0.75026
 H167 H 0.20886 0.29094 0.75030
 H168 H 0.28336 0.21575 0.75017
 C169 C 0.75169 0.72529 0.72964
 C170 C 0.73208 0.74825 0.72758
 C171 C 0.73365 0.77053 0.74815
 C172 C 0.75366 0.77014 0.77121
 C173 C 0.77330 0.74721 0.77321
 C174 C 0.77171 0.72492 0.75266
 H175 H 0.78711 0.70767 0.75380
 H176 H 0.71825 0.78778 0.74700
 N177 N 0.22766 0.09512 0.09115
 C178 C 0.25247 0.10566 0.10152
 N179 N 0.27738 0.09492 0.09110
 N180 N 0.27747 0.07431 0.07087
 C181 C 0.25265 0.06373 0.06041
 N182 N 0.22775 0.07452 0.07092
 C183 C 0.25232 0.12791 0.12326
 C184 C 0.25196 0.14656 0.14156
 C185 C 0.25121 0.16865 0.16346
 N186 N 0.24465 0.19576 0.15570
 N187 N 0.24331 0.21613 0.17617
 C188 C 0.24829 0.21003 0.20513
 N189 N 0.25528 0.18290 0.21270
 N190 N 0.25662 0.16255 0.19224
 N191 N 0.73223 0.58731 0.59393
 C192 C 0.75713 0.59712 0.60479
 N193 N 0.78194 0.58610 0.59444
 N194 N 0.78183 0.56586 0.57381
 C195 C 0.75691 0.55600 0.56286
 N196 N 0.73211 0.56707 0.57331
 C197 C 0.75716 0.61916 0.62670
 C198 C 0.75683 0.63782 0.64496
 C199 C 0.75603 0.66016 0.66653
 N200 N 0.75143 0.68743 0.65799
 N201 N 0.75006 0.70815 0.67804
 C202 C 0.75302 0.70228 0.70734
 N203 N 0.75804 0.67496 0.71574
 N204 N 0.75942 0.65423 0.69569
 N205 N 0.77364 0.90861 0.09335
 C206 C 0.74919 0.89782 0.10436
 N207 N 0.72395 0.90775 0.09399
 N208 N 0.72318 0.92787 0.07322
 C209 C 0.74764 0.93872 0.06212
 N210 N 0.77288 0.92873 0.07258
 C211 C 0.75003 0.87588 0.12644
 C212 C 0.75072 0.85728 0.14481
 C213 C 0.75147 0.83491 0.16640
 N214 N 0.72719 0.82171 0.17457
 N215 N 0.72793 0.80049 0.19410
 C216 C 0.75299 0.79160 0.20601
 N217 N 0.77722 0.80519 0.19810
 N218 N 0.77648 0.82640 0.17855
 N219 N 0.22144 0.41542 0.59441
 C220 C 0.24628 0.40488 0.60518
 N221 N 0.27116 0.41485 0.59433
 N222 N 0.27120 0.43478 0.57336
 C223 C 0.24636 0.44538 0.56251
 N224 N 0.22148 0.43535 0.57343
 C225 C 0.24625 0.38313 0.62747
 C226 C 0.24625 0.36466 0.64599
 C227 C 0.24628 0.34239 0.66771
 N228 N 0.27100 0.33340 0.68014
 N229 N 0.27112 0.31215 0.69965
 C230 C 0.24656 0.29900 0.70724
 N231 N 0.22179 0.30839 0.69508
 N232 N 0.22166 0.32965 0.67558
 N233 N 0.90806 0.22694 0.09289
 C234 C 0.89708 0.25164 0.10353
 N235 N 0.90683 0.27665 0.09279
 N236 N 0.92696 0.27695 0.07203
 C237 C 0.93800 0.25224 0.06132
 N238 N 0.92819 0.22723 0.07214
 C239 C 0.87523 0.25126 0.12570
 C240 C 0.85679 0.25074 0.14422
 C241 C 0.83471 0.24984 0.16611
 N242 N 0.84092 0.25316 0.19520
 N243 N 0.82044 0.25189 0.21554
 C244 C 0.79307 0.24707 0.20750
 N245 N 0.78691 0.24416 0.17828
 N246 N 0.80739 0.24542 0.15795
 N247 N 0.41409 0.77831 0.59323
 C248 C 0.40379 0.75366 0.60432
 N249 N 0.41393 0.72860 0.59371
 N250 N 0.43379 0.72819 0.57266
 C251 C 0.44414 0.75284 0.56150
 N252 N 0.43395 0.77791 0.57218
 C253 C 0.38214 0.75407 0.62672
 C254 C 0.36376 0.75430 0.64533
 C255 C 0.34159 0.75444 0.66717
 N256 N 0.33301 0.72980 0.67977
 N257 N 0.31181 0.72982 0.69935
 C258 C 0.29831 0.75444 0.70683
 N259 N 0.30731 0.77914 0.69451
 N260 N 0.32851 0.77913 0.67494
 N261 N 0.09299 0.77102 0.09037
 C262 C 0.10446 0.74637 0.10059
 N263 N 0.09463 0.72132 0.09007
 N264 N 0.07399 0.72094 0.06987
 C265 C 0.06248 0.74560 0.05955
 N266 N 0.07236 0.77065 0.07018
 C267 C 0.12675 0.74685 0.12227
 C268 C 0.14543 0.74749 0.14053
 C269 C 0.16752 0.74852 0.16239
 N270 N 0.16155 0.74336 0.19124
 N271 N 0.18191 0.74484 0.21166
 C272 C 0.20892 0.75172 0.20398
 N273 N 0.21489 0.75647 0.17496
 N274 N 0.19452 0.75500 0.15454
 N275 N 0.58621 0.21865 0.59341
 C276 C 0.59657 0.24344 0.60404
 N277 N 0.58613 0.26837 0.59338
 N278 N 0.56595 0.26852 0.57271
 C279 C 0.55554 0.24374 0.56199
 N280 N 0.56602 0.21879 0.57273
 C281 C 0.61852 0.24336 0.62604
 C282 C 0.63709 0.24357 0.64440
 C283 C 0.65933 0.24416 0.66608
 N284 N 0.68665 0.24824 0.65766
 N285 N 0.70728 0.24932 0.67779
 C286 C 0.70129 0.24658 0.70708
 N287 N 0.67392 0.24209 0.71538
 N288 N 0.65328 0.24100 0.69523
 N289 N 0.76816 0.08688 0.90850
 C290 C 0.74310 0.09710 0.89798
 N291 N 0.71846 0.08647 0.90874
 N292 N 0.71888 0.06624 0.92941
 C293 C 0.74397 0.05595 0.94004
 N294 N 0.76860 0.06666 0.92915
 C295 C 0.74275 0.11907 0.87593
 C296 C 0.74285 0.13763 0.85752
 C297 C 0.74347 0.15984 0.83575
 N298 N 0.76822 0.16667 0.82226
 N299 N 0.76899 0.18762 0.80243
 C300 C 0.74507 0.20262 0.79555
 N301 N 0.72022 0.19542 0.80883
 N302 N 0.71945 0.17445 0.82867
 N303 N 0.27190 0.59439 0.40832
 C304 C 0.24712 0.60533 0.39783
 N305 N 0.22218 0.59512 0.40826
 N306 N 0.22202 0.57461 0.42862
 C307 C 0.24681 0.56362 0.43919
 N308 N 0.27175 0.57388 0.42867
 C309 C 0.24735 0.62745 0.37597
 C310 C 0.24778 0.64599 0.35756
 C311 C 0.24860 0.66795 0.33554
 N312 N 0.25492 0.69503 0.34319
 N313 N 0.25632 0.71527 0.32261
 C314 C 0.25166 0.70908 0.29365
 N315 N 0.24492 0.68199 0.28616
 N316 N 0.24352 0.66176 0.30674
 N317 N 0.22776 0.91636 0.90660
 C318 C 0.25260 0.90594 0.89569
 N319 N 0.27747 0.91599 0.90643
 N320 N 0.27751 0.93588 0.92743
 C321 C 0.25267 0.94638 0.93845
 N322 N 0.22779 0.93624 0.92760
 C323 C 0.25256 0.88427 0.87331
 C324 C 0.25252 0.86588 0.85471
 C325 C 0.25246 0.84372 0.83286
 N326 N 0.27708 0.83067 0.82482
 N327 N 0.27695 0.80955 0.80518
 C328 C 0.25216 0.80060 0.79304
 N329 N 0.22760 0.81406 0.80081
 N330 N 0.22773 0.83519 0.82045
 N331 N 0.77926 0.40658 0.40818
 C332 C 0.75416 0.39701 0.39753
 N333 N 0.72956 0.40839 0.40798
 N334 N 0.73003 0.42871 0.42850
 C335 C 0.75513 0.43833 0.43925
 N336 N 0.77974 0.42691 0.42870
 C337 C 0.75357 0.37486 0.37575
 C338 C 0.75289 0.35613 0.35758
 C339 C 0.75187 0.33372 0.33612
 N340 N 0.72697 0.32698 0.32289
 N341 N 0.72593 0.30593 0.30322
 C342 C 0.74971 0.29074 0.29627
 N343 N 0.77469 0.29783 0.30930
 N344 N 0.77573 0.31889 0.32897
 N345 N 0.08448 0.27851 0.90668
 C346 C 0.09520 0.25373 0.89596
 N347 N 0.08551 0.22880 0.90696
 N348 N 0.06567 0.22865 0.92801
 C349 C 0.05485 0.25344 0.93883
 N350 N 0.06463 0.27837 0.92774
 C351 C 0.11683 0.25385 0.87354
 C352 C 0.13518 0.25386 0.85490
 C353 C 0.15732 0.25374 0.83303
 N354 N 0.16599 0.22901 0.82041
 N355 N 0.18715 0.22877 0.80080
 C356 C 0.20053 0.25323 0.79329
 N357 N 0.19144 0.27803 0.80563
 N358 N 0.17027 0.27827 0.82524
 N359 N 0.59205 0.72415 0.40619
 C360 C 0.60253 0.74872 0.39510
 N361 N 0.59240 0.77386 0.40552
 N362 N 0.57238 0.77443 0.42640
 C363 C 0.56184 0.74986 0.43756
 N364 N 0.57203 0.72471 0.42706
 C365 C 0.62436 0.74812 0.37290
 C366 C 0.64287 0.74768 0.35444
 C367 C 0.66516 0.74727 0.33274
 N368 N 0.67798 0.77174 0.32456
 N369 N 0.69916 0.77133 0.30497
 C370 C 0.70839 0.74640 0.29303
 N371 N 0.69517 0.72197 0.30095
 N372 N 0.67399 0.72239 0.32056
 N373 N 0.91349 0.76916 0.90690
 C374 C 0.90357 0.74428 0.89606
 N375 N 0.91467 0.71946 0.90629
 N376 N 0.93505 0.71951 0.92677
 C377 C 0.94503 0.74441 0.93775
 N378 N 0.93386 0.76923 0.92738
 C379 C 0.88133 0.74428 0.87431
 C380 C 0.86252 0.74453 0.85619
 C381 C 0.83998 0.74512 0.83478
 N382 N 0.82584 0.72104 0.82783
 N383 N 0.80463 0.72173 0.80829
 C384 C 0.79668 0.74657 0.79519
 N385 N 0.81119 0.77056 0.80193
 N386 N 0.83239 0.76987 0.82147
 N387 N 0.40608 0.27089 0.40848
 C388 C 0.39528 0.24625 0.39798
 N389 N 0.40573 0.22117 0.40824
 N390 N 0.42634 0.22075 0.42847
 C391 C 0.43718 0.24540 0.43906
 N392 N 0.42668 0.27047 0.42870
 C393 C 0.37304 0.24678 0.37629
 C394 C 0.35440 0.24748 0.35803
 C395 C 0.33233 0.24864 0.33618
 N396 N 0.33842 0.24365 0.30731
 N397 N 0.31807 0.24534 0.28689
 C398 C 0.29096 0.25227 0.29460
 N399 N 0.28488 0.25683 0.32362
 N400 N 0.30524 0.25515 0.34405
 N401 N 0.72202 0.90758 0.90775
 C402 C 0.74705 0.89759 0.89690
 N403 N 0.77172 0.90837 0.90735
 N404 N 0.77138 0.92854 0.92804
 C405 C 0.74635 0.93859 0.93897
 N406 N 0.72167 0.92776 0.92845
 C407 C 0.74749 0.87567 0.87484
 C408 C 0.74809 0.85714 0.85644
 C409 C 0.74911 0.83494 0.83471
 N410 N 0.75400 0.80766 0.84306
 N411 N 0.75544 0.78706 0.82288
 C412 C 0.75226 0.79305 0.79364
 N413 N 0.74696 0.82038 0.78542
 N414 N 0.74551 0.84099 0.80560
 N415 N 0.22157 0.41512 0.40683
 C416 C 0.24643 0.40461 0.39604
 N417 N 0.27129 0.41459 0.40690
 N418 N 0.27129 0.43450 0.42788
 C419 C 0.24643 0.44507 0.43873
 N420 N 0.22157 0.43503 0.42781
 C421 C 0.24645 0.38295 0.37365
 C422 C 0.24653 0.36458 0.35503
 C423 C 0.24668 0.34246 0.33314
 N424 N 0.27145 0.33364 0.32068
 N425 N 0.27168 0.31255 0.30099
 C426 C 0.24718 0.29940 0.29324
 N427 N 0.22235 0.30863 0.30543
 N428 N 0.22212 0.32973 0.32511
 N429 N 0.22729 0.09426 0.90892
 C430 C 0.25206 0.10480 0.89842
 N431 N 0.27701 0.09406 0.90869
 N432 N 0.27718 0.07342 0.92891
 C433 C 0.25240 0.06282 0.93954
 N434 N 0.22746 0.07363 0.92914
 C435 C 0.25181 0.12706 0.87671
 C436 C 0.25136 0.14573 0.85842
 C437 C 0.25051 0.16783 0.83654
 N438 N 0.25572 0.16175 0.80772
 N439 N 0.25430 0.18213 0.78728
 C440 C 0.24743 0.20926 0.79492
 N441 N 0.24264 0.21534 0.82391
 N442 N 0.24405 0.19495 0.84436
 N443 N 0.73379 0.58911 0.40940
 C444 C 0.75888 0.59903 0.39905
 N445 N 0.78350 0.58774 0.40958
 N446 N 0.78303 0.56718 0.42988
 C447 C 0.75792 0.55722 0.44031
 N448 N 0.73331 0.56856 0.42969
 C449 C 0.75929 0.62115 0.37717
 C450 C 0.75926 0.63970 0.35875
 C451 C 0.75874 0.66168 0.33672
 N452 N 0.76400 0.65539 0.30794
 N453 N 0.76259 0.67562 0.28733
 C454 C 0.75567 0.70280 0.29474
 N455 N 0.75088 0.70909 0.32368
 N456 N 0.75228 0.68886 0.34430
 N457 N 0.09263 0.77242 0.90843
 C458 C 0.10407 0.74792 0.89782
 N459 N 0.09413 0.72273 0.90786
 N460 N 0.07342 0.72205 0.92798
 C461 C 0.06192 0.74656 0.93873
 N462 N 0.07192 0.77176 0.92855
 C463 C 0.12639 0.74869 0.87618
 C464 C 0.14507 0.74950 0.85794
 C465 C 0.16715 0.75068 0.83607
 N466 N 0.16117 0.74569 0.80721
 N467 N 0.18153 0.74723 0.78679
 C468 C 0.20856 0.75400 0.79449
 N469 N 0.21454 0.75858 0.82351
 N470 N 0.19416 0.75705 0.84394
 N471 N 0.58710 0.26894 0.40810
 C472 C 0.59766 0.24408 0.39741
 N473 N 0.58721 0.21922 0.40782
 N474 N 0.56681 0.21923 0.42831
 C475 C 0.55621 0.24411 0.43908
 N476 N 0.56671 0.26896 0.42859
 C477 C 0.61977 0.24414 0.37552
 C478 C 0.63843 0.24445 0.35722
 C479 C 0.66071 0.24514 0.33553
 N480 N 0.65472 0.24176 0.30640
 N481 N 0.67537 0.24289 0.28624
 C482 C 0.70270 0.24763 0.29449
 N483 N 0.70863 0.25060 0.32376
 N484 N 0.68799 0.24949 0.34391
 N485 N 0.90632 0.27600 0.90708
 C486 C 0.89650 0.25090 0.89666
 N487 N 0.90758 0.22628 0.90739
 N488 N 0.92787 0.22672 0.92794
 C489 C 0.93774 0.25181 0.93845
 N490 N 0.92661 0.27644 0.92764
 C491 C 0.87449 0.25037 0.87472
 C492 C 0.85592 0.24973 0.85638
 C493 C 0.83373 0.24872 0.83467
 N494 N 0.83979 0.25187 0.80552
 N495 N 0.81919 0.25057 0.78535
 C496 C 0.79185 0.24588 0.79362
 N497 N 0.78585 0.24313 0.82291
 N498 N 0.80644 0.24442 0.84307
 N499 N 0.41389 0.77681 0.40544
 C500 C 0.40351 0.75202 0.39485
 N501 N 0.41356 0.72711 0.40598
 N502 N 0.43340 0.72700 0.42703
 C503 C 0.44384 0.75180 0.43768
 N504 N 0.43373 0.77671 0.42649
 C505 C 0.38193 0.75214 0.37238
 C506 C 0.36363 0.75224 0.35369
 C507 C 0.34156 0.75233 0.33173
 N508 N 0.33294 0.72765 0.31928
 N509 N 0.31186 0.72763 0.29959
 C510 C 0.29852 0.75227 0.29181
 N511 N 0.30757 0.77700 0.30398
 N512 N 0.32866 0.77702 0.32367
 N513 N 0.22803 0.91477 0.09273
 C514 C 0.25290 0.90427 0.10346
 N515 N 0.27775 0.91437 0.09268
 N516 N 0.27773 0.93441 0.07180
 C517 C 0.25286 0.94497 0.06100
 N518 N 0.22801 0.93480 0.07186
 C519 C 0.25291 0.88244 0.12568
 C520 C 0.25288 0.86394 0.14415
 C521 C 0.25283 0.84164 0.16585
 N522 N 0.27744 0.82851 0.17374
 N523 N 0.27731 0.80728 0.19328
 C524 C 0.25253 0.79832 0.20545
 N525 N 0.22797 0.81186 0.19783
 N526 N 0.22810 0.83309 0.17829
 N527 N 0.72852 0.40715 0.59266
 C528 C 0.75301 0.39579 0.60338
 N529 N 0.77822 0.40550 0.59310
 N530 N 0.77890 0.42597 0.57270
 C531 C 0.75439 0.43738 0.56190
 N532 N 0.72919 0.42761 0.57227
 C533 C 0.75225 0.37359 0.62516
 C534 C 0.75149 0.35486 0.64336
 C535 C 0.75046 0.33247 0.66490
 N536 N 0.77432 0.31767 0.67212
 N537 N 0.77329 0.29668 0.69190
 C538 C 0.74831 0.28962 0.70499
 N539 N 0.72453 0.30478 0.69797
 N540 N 0.72556 0.32576 0.67819
 N541 N 0.71956 0.08747 0.09346
 C542 C 0.74431 0.09815 0.10381
 N543 N 0.76927 0.08802 0.09290
 N544 N 0.76947 0.06781 0.07226
 C545 C 0.74472 0.05707 0.06182
 N546 N 0.71976 0.06726 0.07281
 C547 C 0.74417 0.12009 0.12584
 C548 C 0.74434 0.13863 0.14423
 C549 C 0.74494 0.16084 0.16595
 N550 N 0.76969 0.16769 0.17941
 N551 N 0.77043 0.18865 0.19920
 C552 C 0.74649 0.20363 0.20605
 N553 N 0.72165 0.19640 0.19282
 N554 N 0.72091 0.17543 0.17302
 N555 N 0.22228 0.59603 0.59173
 C556 C 0.24723 0.60635 0.60198
 N557 N 0.27199 0.59526 0.59159
 N558 N 0.27182 0.57453 0.57151
 C559 C 0.24687 0.56416 0.56117
 N560 N 0.22209 0.57529 0.57164
 C561 C 0.24749 0.62871 0.62359
 C562 C 0.24792 0.64743 0.64179
 C563 C 0.24871 0.66957 0.66362
 N564 N 0.25518 0.69658 0.65575
 N565 N 0.25649 0.71698 0.67615
 C566 C 0.25158 0.71105 0.70514
 N567 N 0.24470 0.68404 0.71283
 N568 N 0.24338 0.66364 0.69244
 N569 N 0.91133 0.76733 0.09008
 C570 C 0.90133 0.74224 0.10036
 N571 N 0.91255 0.71762 0.08977
 N572 N 0.93312 0.71807 0.06948
 C573 C 0.94317 0.74317 0.05913
 N574 N 0.93189 0.76779 0.06980
 C575 C 0.87917 0.74184 0.12219
 C576 C 0.86059 0.74183 0.14058
 C577 C 0.83857 0.74226 0.16258
 N578 N 0.84486 0.73713 0.19138
 N579 N 0.82459 0.73836 0.21195
 C580 C 0.79735 0.74498 0.20447
 N581 N 0.79106 0.74966 0.17551
 N582 N 0.81135 0.74843 0.15493
 N583 N 0.40540 0.27056 0.59156
 C584 C 0.39453 0.24589 0.60195
 N585 N 0.40502 0.22084 0.59164
 N586 N 0.42572 0.22049 0.57148
 C587 C 0.43663 0.24517 0.56101
 N588 N 0.42609 0.27021 0.57141
 C589 C 0.37224 0.24635 0.62362
 C590 C 0.35357 0.24701 0.64190
 C591 C 0.33149 0.24813 0.66380
 N592 N 0.33753 0.24280 0.69261
 N593 N 0.31719 0.24446 0.71307
 C594 C 0.29013 0.25168 0.70547
 N595 N 0.28409 0.25659 0.67649
 N596 N 0.30445 0.25494 0.65602
 N597 N 0.08556 0.27903 0.09344
 C598 C 0.09623 0.25430 0.10435
 N599 N 0.08654 0.22932 0.09353
 N600 N 0.06675 0.22907 0.07245
 C601 C 0.05601 0.25380 0.06147
 N602 N 0.06576 0.27879 0.07237
 C603 C 0.11778 0.25452 0.12679
 C604 C 0.13608 0.25456 0.14545
 C605 C 0.15816 0.25446 0.16732
 N606 N 0.16677 0.22973 0.18001
 N607 N 0.18793 0.22948 0.19960
 C608 C 0.20135 0.25393 0.20701
 N609 N 0.19232 0.27873 0.19461
 N610 N 0.17115 0.27897 0.17502
 N611 N 0.59290 0.72643 0.59248
 C612 C 0.60344 0.75125 0.60283
 N613 N 0.59317 0.77614 0.59188
 N614 N 0.57297 0.77620 0.57120
 C615 C 0.56237 0.75138 0.56077
 N616 N 0.57270 0.72649 0.57180
 C617 C 0.62537 0.75114 0.62494
 C618 C 0.64389 0.75088 0.64339
 C619 C 0.66608 0.75033 0.66520
 N620 N 0.68020 0.77440 0.67226
 N621 N 0.70115 0.77373 0.69211
 C622 C 0.70883 0.74893 0.70545
 N623 N 0.69431 0.72496 0.69862
 N624 N 0.67338 0.72562 0.67877
   
