data_POSCAR
  _audit_creation_date              2014-09-24
  _audit_creation_method            'ToBaCCo'
  _symmetry_space_group_name_H-M    'P1'
  _symmetry_Int_Tables_number       1
  _symmetry_cell_setting            triclinic
  loop_
  _symmetry_equiv_pos_as_xyz
 x,y,z
_cell_length_a 47.6973
_cell_length_b 10.6474
_cell_length_c 16.1115
_cell_angle_alpha 96.303700
_cell_angle_beta 89.954800
_cell_angle_gamma 90.326000
loop_
  _atom_site_label
  _atom_site_type_symbol
  _atom_site_fract_x
  _atom_site_fract_y
  _atom_site_fract_z
C1 C 0.81254 0.34288 0.43026
 C2 C 0.82638 0.34731 0.50752
 C3 C 0.81309 0.31280 0.57957
 C4 C 0.78339 0.29627 0.57777
 C5 C 0.76834 0.30510 0.50230
 C6 C 0.78289 0.32906 0.42867
 C7 C 0.76724 0.34601 0.35680
 C8 C 0.73848 0.32528 0.35374
 C9 C 0.72361 0.29801 0.42477
 C10 C 0.73855 0.29048 0.50043
 C11 C 0.76803 0.27882 0.65013
 C12 C 0.73929 0.25787 0.64723
 C13 C 0.72380 0.26876 0.57424
 C14 C 0.69413 0.25338 0.57189
 C15 C 0.68045 0.24865 0.49439
 C16 C 0.69424 0.27714 0.42224
 H17 H 0.77706 0.37643 0.30184
 H18 H 0.72812 0.33100 0.29466
 H19 H 0.77785 0.28297 0.71072
 H20 H 0.72947 0.23232 0.70348
 H21 H 0.84898 0.35828 0.50855
 H22 H 0.65784 0.23731 0.49157
 C23 C 0.30519 0.73840 0.42583
 C24 C 0.31952 0.72959 0.50062
 C25 C 0.30566 0.70683 0.57385
 C26 C 0.27601 0.69761 0.57364
 C27 C 0.26089 0.71245 0.49927
 C28 C 0.27554 0.73337 0.42519
 C29 C 0.26017 0.74887 0.35277
 C30 C 0.23115 0.73696 0.35138
 C31 C 0.21606 0.71749 0.42383
 C32 C 0.23107 0.70510 0.49872
 C33 C 0.26106 0.67375 0.64528
 C34 C 0.23203 0.66231 0.64386
 C35 C 0.21639 0.68449 0.57290
 C36 C 0.18658 0.67942 0.57242
 C37 C 0.17252 0.68259 0.49604
 C38 C 0.18643 0.70730 0.42319
 H39 H 0.27042 0.77009 0.29604
 H40 H 0.22078 0.74201 0.29225
 H41 H 0.27157 0.66296 0.70343
 H42 H 0.22205 0.63389 0.69912
 H43 H 0.34227 0.73144 0.50053
 H44 H 0.14978 0.67992 0.49473
 C45 C 0.31314 0.18521 -0.57961
 C46 C 0.32614 0.15361 -0.50668
 C47 C 0.31154 0.14899 -0.43170
 C48 C 0.28196 0.15933 -0.43159
 C49 C 0.26780 0.18473 -0.50530
 C50 C 0.28334 0.19732 -0.57961
 C51 C 0.26842 0.21645 -0.65220
 C52 C 0.23980 0.23849 -0.64998
 C53 C 0.22384 0.22595 -0.57792
 C54 C 0.23803 0.19979 -0.50422
 C55 C 0.26622 0.14561 -0.35958
 C56 C 0.23761 0.16848 -0.35694
 C57 C 0.22270 0.19204 -0.42887
 C58 C 0.19337 0.21734 -0.42648
 C59 C 0.18059 0.25364 -0.49852
 C60 C 0.19440 0.24638 -0.57601
 H61 H 0.27857 0.21477 -0.71221
 H62 H 0.23052 0.26812 -0.70573
 H63 H 0.27595 0.11927 -0.30347
 H64 H 0.22767 0.17083 -0.29662
 H65 H 0.34883 0.14820 -0.50510
 H66 H 0.15818 0.27038 -0.49676
 C67 C -0.31391 0.80333 -0.42330
 C68 C -0.32711 0.83442 -0.49613
 C69 C -0.31299 0.83129 -0.57299
 C70 C -0.28328 0.82121 -0.57352
 C71 C -0.26889 0.80000 -0.49925
 C72 C -0.28418 0.79009 -0.42413
 C73 C -0.26903 0.77586 -0.35095
 C74 C -0.24024 0.75830 -0.35271
 C75 C -0.22472 0.76775 -0.42576
 C76 C -0.23904 0.78979 -0.49993
 C77 C -0.26743 0.83855 -0.64502
 C78 C -0.23860 0.82166 -0.64695
 C79 C -0.22361 0.80172 -0.57462
 C80 C -0.19389 0.78702 -0.57523
 C81 C -0.18078 0.75734 -0.50200
 C82 C -0.19523 0.75550 -0.42666
 H83 H -0.27906 0.78026 -0.29063
 H84 H -0.23031 0.73780 -0.29548
 H85 H -0.27709 0.86626 -0.70082
 H86 H -0.22846 0.82304 -0.70672
 H87 H -0.34976 0.84241 -0.49571
 H88 H -0.15811 0.74975 -0.50092
 O89 O -0.04150 0.82783 0.15409
 O90 O -0.07125 0.93714 0.07671
 C91 C -0.06631 0.86505 0.13490
 O92 O 0.04264 1.24843 0.14855
 O93 O 0.07188 1.11043 0.07145
 C94 C 0.06728 1.20320 0.12890
 O95 O -0.03546 1.25938 0.15642
 O96 O -0.06819 1.14337 0.07612
 C97 C -0.06114 1.22866 0.13630
 O98 O 0.03655 0.79499 0.14524
 O99 O 0.06896 0.89702 0.07084
 C100 C 0.06219 0.82187 0.12573
 Zr101 Zr -0.00176 0.86754 0.10429
 O102 O 0.00092 0.87755 0.23599
 O103 O -0.00580 0.66887 0.09262
 Zr104 Zr 0.00262 1.18587 0.10478
 O105 O 0.00518 1.22195 0.23629
 O106 O 0.00432 1.38080 0.09171
 O107 O -0.02428 1.03561 0.12181
 O108 O 0.02448 1.02301 0.12007
 O109 O 0.03597 0.75023 -0.14795
 O110 O 0.06871 0.87374 -0.07256
 C111 C 0.06166 0.78278 -0.12899
 O112 O -0.03605 1.21180 -0.15245
 O113 O -0.06863 1.11764 -0.07421
 C114 C -0.06172 1.18642 -0.13276
 O115 O 0.04228 1.20353 -0.14688
 O116 O 0.07170 1.08756 -0.07281
 C117 C 0.06703 1.16474 -0.12809
 O118 O -0.04193 0.77944 -0.15406
 O119 O -0.07134 0.91182 -0.07325
 C120 C -0.06661 0.82296 -0.13323
 Zr121 Zr -0.00216 0.83395 -0.10434
 O122 O 0.00021 0.80227 -0.23610
 O123 O -0.00754 0.63792 -0.09769
 Zr124 Zr 0.00224 1.15215 -0.10387
 O125 O 0.00494 1.13730 -0.23572
 O126 O 0.00236 1.35167 -0.09756
 Zr127 Zr -0.04180 1.02054 0.00095
 Zr128 Zr 0.04213 0.99933 -0.00039
 O129 O 0.02407 0.98444 -0.12035
 O130 O -0.02475 0.99664 -0.12057
 O131 O 0.02307 0.82032 -0.00045
 O132 O -0.02210 1.19786 0.00101
 O133 O -0.02709 0.83457 0.00041
 O134 O 0.02815 1.18680 0.00024
 H135 H 0.03655 1.02729 0.17032
 H136 H -0.03405 1.27378 0.00146
 H137 H 0.03609 0.97349 -0.17078
 H138 H -0.04102 0.76511 0.00042
 H139 H 0.00553 1.42386 0.14930
 H140 H 0.01909 1.38273 -0.06506
 H141 H -0.00997 1.07828 -0.25823
 H142 H -0.01150 0.86699 -0.25851
 H143 H 0.00826 0.61016 -0.06452
 H144 H -0.00690 0.64584 0.15046
 H145 H -0.01158 0.94640 0.25924
 H146 H -0.00604 1.15576 0.25950
 O147 O 0.46468 0.28715 0.15217
 O148 O 0.43187 0.38006 0.07491
 C149 C 0.43895 0.31175 0.13332
 O150 O 0.53657 0.75001 0.14709
 O151 O 0.56903 0.63079 0.06898
 C152 C 0.56217 0.71975 0.12681
 O153 O 0.45884 0.71767 0.15468
 O154 O 0.42922 0.58480 0.07407
 C155 C 0.43409 0.67354 0.13415
 O156 O 0.54331 0.29673 0.14163
 O157 O 0.57225 0.41708 0.06780
 C158 C 0.56793 0.33762 0.12200
 Zr159 Zr 0.50292 0.34758 0.10186
 O160 O 0.50610 0.35795 0.23345
 O161 O 0.50430 0.14834 0.08957
 Zr162 Zr 0.49839 0.66599 0.10304
 O163 O 0.50107 0.69984 0.23463
 O164 O 0.49266 0.86132 0.09525
 O165 O 0.47600 0.50184 0.11982
 O166 O 0.52473 0.51652 0.11775
 O167 O 0.54236 0.25494 -0.15189
 O168 O 0.57179 0.39456 -0.07565
 C169 C 0.56705 0.30130 -0.13277
 O170 O 0.45730 0.67176 -0.15164
 O171 O 0.42817 0.55777 -0.07401
 C172 C 0.43266 0.63215 -0.13129
 O173 O 0.53581 0.70612 -0.14947
 O174 O 0.56867 0.60805 -0.07538
 C175 C 0.56156 0.68155 -0.13078
 O176 O 0.46428 0.23983 -0.15776
 O177 O 0.43190 0.35321 -0.07560
 C178 C 0.43869 0.26871 -0.13634
 Zr179 Zr 0.50242 0.31481 -0.10679
 O180 O 0.50469 0.28014 -0.23834
 O181 O 0.50275 0.11802 -0.09788
 Zr182 Zr 0.49771 0.63304 -0.10605
 O183 O 0.49986 0.61841 -0.23801
 O184 O 0.49202 0.83060 -0.10100
 Zr185 Zr 0.45852 0.47745 -0.00110
 Zr186 Zr 0.54226 0.50382 -0.00289
 O187 O 0.52405 0.47907 -0.12276
 O188 O 0.47531 0.46359 -0.12285
 O189 O 0.52840 0.31542 -0.00312
 O190 O 0.47307 0.66437 -0.00072
 O191 O 0.47815 0.30102 -0.00200
 O192 O 0.52306 0.68189 -0.00196
 H193 H 0.53693 0.52716 0.16777
 H194 H 0.45910 0.73306 0.00014
 H195 H 0.53594 0.47515 -0.17339
 H196 H 0.46613 0.22477 -0.00204
 H197 H 0.51023 0.89450 0.07310
 H198 H 0.50841 0.87128 -0.07146
 H199 H 0.48531 0.55714 -0.26013
 H200 H 0.49439 0.34916 -0.26087
 H201 H 0.52046 0.09850 -0.07012
 H202 H 0.50497 0.12441 0.14726
 H203 H 0.49225 0.42079 0.25704
 H204 H 0.49043 0.63158 0.25756
 C205 C 0.37594 0.18471 0.28931
 C206 C 0.37076 0.28455 0.24184
 N207 N 0.34624 0.34828 0.25231
 C208 C 0.32657 0.31642 0.30773
 C209 C 0.33126 0.21393 0.35473
 N210 N 0.35629 0.15239 0.34413
 N211 N 0.40104 0.12527 0.28278
 C212 C 0.42136 0.16153 0.23111
 C213 C 0.41641 0.26242 0.18366
 N214 N 0.39103 0.32118 0.18999
 H215 H 0.30846 0.37647 0.31877
 H216 H 0.44128 0.11301 0.22794
 C217 C -0.13215 0.76081 0.28969
 C218 C -0.13534 0.86315 0.24293
 N219 N -0.15866 0.93565 0.25407
 C220 C -0.17890 0.91074 0.30990
 C221 C -0.17587 0.80749 0.35727
 N222 N -0.15218 0.73639 0.34546
 N223 N -0.10842 0.69114 0.28192
 C224 C -0.08743 0.72007 0.23020
 C225 C -0.09015 0.82427 0.18421
 N226 N -0.11430 0.89292 0.19120
 H227 H -0.19602 0.97653 0.32120
 H228 H -0.06861 0.66340 0.22621
 C229 C 0.62500 0.85383 0.29698
 C230 C 0.63165 0.77135 0.22607
 N231 N 0.65743 0.71845 0.21942
 C232 C 0.67678 0.74233 0.28115
 C233 C 0.67009 0.82314 0.35409
 N234 N 0.64415 0.87688 0.35879
 N235 N 0.59875 0.90144 0.30624
 C236 C 0.57859 0.86813 0.24842
 C237 C 0.58478 0.78073 0.17891
 N238 N 0.61140 0.73576 0.16908
 H239 H 0.69605 0.68925 0.27576
 H240 H 0.55763 0.90493 0.25896
 C241 C 0.13296 1.30091 0.29802
 C242 C 0.13767 1.21852 0.22558
 N243 N 0.16217 1.15463 0.21669
 C244 C 0.18203 1.16740 0.27762
 C245 C 0.17724 1.24799 0.35206
 N246 N 0.15260 1.31287 0.35901
 N247 N 0.10789 1.35945 0.30956
 C248 C 0.08699 1.33734 0.25254
 C249 C 0.09117 1.25080 0.18118
 N250 N 0.11666 1.19445 0.16919
 H251 H 0.20006 1.10624 0.27033
 H252 H 0.06693 1.38248 0.26504
 C253 C 0.63252 0.20238 -0.30173
 C254 C 0.63722 0.28801 -0.23067
 N255 N 0.66171 0.35349 -0.22296
 C256 C 0.68161 0.33876 -0.28369
 C257 C 0.67681 0.25475 -0.35660
 N258 N 0.65215 0.18891 -0.36272
 N259 N 0.60755 0.14133 -0.31178
 C260 C 0.58673 0.16402 -0.25468
 C261 C 0.59086 0.25395 -0.18497
 N262 N 0.61626 0.31274 -0.17435
 H263 H 0.69979 0.40014 -0.27761
 H264 H 0.56673 0.11669 -0.26593
 C265 C 0.12449 0.65161 -0.29877
 C266 C 0.13122 0.73241 -0.22699
 N267 N 0.15717 0.78495 -0.21927
 C268 C 0.17658 0.76255 -0.28089
 C269 C 0.16968 0.68469 -0.35496
 N270 N 0.14362 0.63095 -0.36073
 N271 N 0.09817 0.60354 -0.30865
 C272 C 0.07798 0.63533 -0.25081
 C273 C 0.08421 0.72197 -0.18082
 N274 N 0.11092 0.76683 -0.17016
 H275 H 0.19613 0.81451 -0.27450
 H276 H 0.05696 0.59859 -0.26192
 C277 C 0.36573 0.73993 -0.27920
 C278 C 0.36431 0.62673 -0.24232
 N279 N 0.34260 0.54578 -0.26167
 C280 C 0.32245 0.57206 -0.31696
 C281 C 0.32382 0.68539 -0.35420
 N282 N 0.34563 0.76626 -0.33414
 N283 N 0.38811 0.81792 -0.26373
 C284 C 0.40943 0.78736 -0.21400
 C285 C 0.40841 0.67314 -0.17791
 N286 N 0.38561 0.59588 -0.19230
 H287 H 0.30624 0.50283 -0.33458
 H288 H 0.42721 0.85077 -0.20377
 C289 C -0.12452 1.31454 -0.28764
 C290 C -0.12998 1.21434 -0.24047
 N291 N -0.15463 1.15055 -0.25134
 C292 C -0.17412 1.18245 -0.30699
 C293 C -0.16909 1.28503 -0.35393
 N294 N -0.14398 1.34691 -0.34266
 N295 N -0.09929 1.37397 -0.28090
 C296 C -0.07912 1.33754 -0.22929
 C297 C -0.08430 1.23614 -0.18226
 N298 N -0.10982 1.17725 -0.18874
 H299 H -0.19230 1.12217 -0.31838
 H300 H -0.05910 1.38619 -0.22604
 C301 C 0.62407 0.80821 -0.28842
 C302 C 0.62946 0.70907 -0.24052
 N303 N 0.65384 0.64450 -0.25194
 C304 C 0.67320 0.67496 -0.30870
 C305 C 0.66827 0.77652 -0.35640
 N306 N 0.64337 0.83891 -0.34482
 N307 N 0.59907 0.86841 -0.28075
 C308 C 0.57904 0.83357 -0.22765
 C309 C 0.58413 0.73300 -0.18010
 N310 N 0.60943 0.67354 -0.18754
 H311 H 0.69127 0.61467 -0.32007
 H312 H 0.55914 0.88226 -0.22395
 C313 C 0.13288 1.25830 -0.28613
 C314 C 0.13521 1.15450 -0.24031
 N315 N 0.15736 1.07552 -0.25433
 C316 C 0.17733 1.09557 -0.31198
 C317 C 0.17535 1.20067 -0.35811
 N318 N 0.15272 1.27815 -0.34372
 N319 N 0.11008 1.33385 -0.27566
 C320 C 0.08919 1.30943 -0.22217
 C321 C 0.09108 1.20403 -0.17707
 N322 N 0.11430 1.12948 -0.18689
 H323 H 0.19341 1.02513 -0.32543
 H324 H 0.07099 1.36995 -0.21644
 C325 C 0.37424 0.12479 -0.29888
 C326 C 0.36854 0.21532 -0.23121
 N327 N 0.34310 0.27144 -0.22517
 C328 C 0.32330 0.24418 -0.28511
 C329 C 0.32903 0.15547 -0.35457
 N330 N 0.35444 0.09706 -0.35852
 N331 N 0.40034 0.07529 -0.30826
 C332 C 0.42119 0.11377 -0.25369
 C333 C 0.41581 0.20788 -0.18736
 N334 N 0.38940 0.25495 -0.17730
 H335 H 0.30417 0.29833 -0.28109
 H336 H 0.44195 0.07464 -0.26399
 C337 C -0.13360 0.70804 -0.29460
 C338 C -0.13726 0.80315 -0.22815
 N339 N -0.16128 0.87102 -0.22275
 C340 C -0.18149 0.85074 -0.28217
 C341 C -0.17765 0.75763 -0.35033
 N342 N -0.15374 0.68782 -0.35387
 N343 N -0.10890 0.64562 -0.30316
 C344 C -0.08744 0.67540 -0.24905
 C345 C -0.09068 0.77357 -0.18392
 N346 N -0.11576 0.83395 -0.17458
 H347 H -0.19950 0.91226 -0.27873
 H348 H -0.06775 0.62597 -0.25880
 C349 C 0.36723 0.78721 0.29552
 C350 C 0.36324 0.69397 0.22798
 N351 N 0.33882 0.62779 0.22119
 C352 C 0.31852 0.64775 0.28036
 C353 C 0.32281 0.73809 0.34987
 N354 N 0.34708 0.80651 0.35475
 N355 N 0.39217 0.84869 0.30500
 C356 C 0.41361 0.81941 0.25092
 C357 C 0.41011 0.72246 0.18501
 N358 N 0.38475 0.66336 0.17459
 H359 H 0.30007 0.58788 0.27579
 H360 H 0.43348 0.86818 0.26134
 C361 C -0.12481 1.36565 0.30246
 C362 C -0.13101 1.27932 0.23291
 N363 N -0.15681 1.22529 0.22569
 C364 C -0.17658 1.25122 0.28584
 C365 C -0.17028 1.33489 0.35790
 N366 N -0.14436 1.39034 0.36296
 N367 N -0.09859 1.41506 0.31209
 C368 C -0.07802 1.37952 0.25615
 C369 C -0.08380 1.28814 0.18835
 N370 N -0.11039 1.24186 0.17786
 H371 H -0.19588 1.19740 0.28029
 H372 H -0.05714 1.41820 0.26670
 C373 C 0.63512 0.23534 0.27112
 C374 C 0.63566 0.35013 0.23598
 N375 N 0.65637 0.43524 0.25799
 C376 C 0.67643 0.41140 0.31413
 C377 C 0.67607 0.29631 0.34956
 N378 N 0.65517 0.21136 0.32702
 N379 N 0.61354 0.15339 0.25303
 C380 C 0.59218 0.18157 0.20247
 C381 C 0.59237 0.29720 0.16810
 N382 N 0.61437 0.37834 0.18517
 H383 H 0.69177 0.48380 0.33379
 H384 H 0.57497 0.11550 0.19042
 C385 C 0.12579 0.69310 0.27721
 C386 C 0.12945 0.80387 0.23874
 N387 N 0.15230 0.87786 0.25786
 C388 C 0.17164 0.84640 0.31396
 C389 C 0.16836 0.73428 0.35190
 N390 N 0.14522 0.66095 0.33260
 N391 N 0.10204 0.62359 0.26249
 C392 C 0.08161 0.65990 0.21148
 C393 C 0.08510 0.77118 0.17311
 N394 N 0.10914 0.84010 0.18740
 H395 H 0.18879 0.91078 0.33135
 H396 H 0.06269 0.60357 0.20207
   
