data_POSCAR
  _audit_creation_date              2014-09-24
  _audit_creation_method            'ToBaCCo'
  _symmetry_space_group_name_H-M    'P1'
  _symmetry_Int_Tables_number       1
  _symmetry_cell_setting            triclinic
  loop_
  _symmetry_equiv_pos_as_xyz
 x,y,z
_cell_length_a 32.3261
_cell_length_b 34.5453
_cell_length_c 29.3117
_cell_angle_alpha 91.505800
_cell_angle_beta 87.956000
_cell_angle_gamma 90.775400
loop_
  _atom_site_label
  _atom_site_type_symbol
  _atom_site_fract_x
  _atom_site_fract_y
  _atom_site_fract_z
C1 C 1.28602 0.19617 0.27555
 C2 C 1.25581 0.21736 0.25470
 C3 C 1.22176 0.19858 0.23609
 C4 C 1.21650 0.15855 0.23914
 C5 C 1.24605 0.13738 0.26191
 C6 C 1.28158 0.15566 0.28028
 C7 C 1.25805 0.25975 0.25382
 C8 C 1.28919 0.27868 0.22848
 C9 C 1.28905 0.31936 0.22394
 C10 C 1.25563 0.33994 0.24581
 C11 C 1.22388 0.32074 0.27106
 C12 C 1.22626 0.28071 0.27548
 H13 H 1.31293 0.21188 0.28726
 H14 H 1.19981 0.21552 0.21821
 H15 H 1.31163 0.26068 0.21020
 H16 H 1.20319 0.26523 0.29588
 H17 H 1.23997 0.10690 0.26665
 H18 H 1.25402 0.37097 0.24414
 C19 C 0.78718 -0.30376 0.27425
 C20 C 0.75656 -0.28263 0.25404
 C21 C 0.72245 -0.30152 0.23567
 C22 C 0.71769 -0.34162 0.23823
 C23 C 0.74763 -0.36276 0.26041
 C24 C 0.78311 -0.34433 0.27870
 C25 C 0.75842 -0.24022 0.25374
 C26 C 0.78982 -0.22079 0.22932
 C27 C 0.78933 -0.18025 0.22625
 C28 C 0.75615 -0.15976 0.24795
 C29 C 0.72404 -0.17931 0.27220
 C30 C 0.72635 -0.21955 0.27557
 H31 H 0.81408 -0.28794 0.28581
 H32 H 0.70009 -0.28464 0.21833
 H33 H 0.81346 -0.23767 0.21122
 H34 H 0.70314 -0.23540 0.29534
 H35 H 0.74186 -0.39333 0.26479
 H36 H 0.75509 -0.12865 0.24563
 C37 C 0.78287 0.19850 -0.21707
 C38 C 0.75747 0.22022 -0.24385
 C39 C 0.72655 0.20213 -0.26888
 C40 C 0.71990 0.16215 -0.26705
 C41 C 0.74605 0.14015 -0.24079
 C42 C 0.77767 0.15805 -0.21542
 C43 C 0.76017 0.26247 -0.24352
 C44 C 0.79073 0.28133 -0.26969
 C45 C 0.78963 0.32179 -0.27556
 C46 C 0.75571 0.34217 -0.25448
 C47 C 0.72451 0.32295 -0.22843
 C48 C 0.72804 0.28319 -0.22231
 H49 H 0.80548 0.21349 -0.19647
 H50 H 0.70763 0.21964 -0.28986
 H51 H 0.81332 0.26338 -0.28784
 H52 H 0.70526 0.26762 -0.20165
 H53 H 0.74150 0.10912 -0.23987
 H54 H 0.75331 0.37304 -0.25757
 C55 C 1.28527 -0.30275 -0.21692
 C56 C 1.25897 -0.28045 -0.24196
 C57 C 1.22737 -0.29792 -0.26639
 C58 C 1.22107 -0.33788 -0.26586
 C59 C 1.24771 -0.36050 -0.24096
 C60 C 1.28027 -0.34348 -0.21581
 C61 C 1.26174 -0.23818 -0.24054
 C62 C 1.29265 -0.21892 -0.26579
 C63 C 1.29135 -0.17856 -0.27024
 C64 C 1.25784 -0.15812 -0.24925
 C65 C 1.22624 -0.17758 -0.22408
 C66 C 1.22951 -0.21759 -0.21901
 H67 H 1.30767 -0.28746 -0.19644
 H68 H 1.20781 -0.27999 -0.28617
 H69 H 1.31631 -0.23580 -0.28387
 H70 H 1.20653 -0.23347 -0.19898
 H71 H 1.24308 -0.39147 -0.24237
 H72 H 1.25606 -0.12720 -0.25317
 C73 C 0.19610 0.28534 0.72245
 C74 C 0.21793 0.26214 0.75132
 C75 C 0.19666 0.23750 0.78129
 C76 C 0.15305 0.23498 0.78303
 C77 C 0.13145 0.26001 0.75477
 C78 C 0.15252 0.28500 0.72400
 C79 C 0.26343 0.26055 0.74803
 C80 C 0.28760 0.28522 0.77509
 C81 C 0.33112 0.28108 0.77621
 C82 C 0.34879 0.24961 0.75007
 C83 C 0.32441 0.22405 0.72327
 C84 C 0.28185 0.23095 0.72172
 H85 H 0.21340 0.30271 0.69799
 H86 H 0.21499 0.22094 0.80377
 H87 H 0.27130 0.30605 0.79690
 H88 H 0.26225 0.21286 0.70061
 H89 H 0.09811 0.25927 0.75515
 H90 H 0.38157 0.24473 0.74986
 C91 C 0.69468 0.78553 0.72244
 C92 C 0.71651 0.76207 0.75106
 C93 C 0.69535 0.73698 0.78044
 C94 C 0.65184 0.73411 0.78179
 C95 C 0.63014 0.75900 0.75343
 C96 C 0.65086 0.78491 0.72305
 C97 C 0.76202 0.76057 0.74777
 C98 C 0.78616 0.78496 0.77520
 C99 C 0.82950 0.78095 0.77542
 C100 C 0.84771 0.75052 0.74849
 C101 C 0.82345 0.72495 0.72159
 C102 C 0.78067 0.73145 0.72066
 H103 H 0.71269 0.80250 0.69828
 H104 H 0.71370 0.72036 0.80283
 H105 H 0.77064 0.80611 0.79741
 H106 H 0.76111 0.71348 0.69938
 H107 H 0.59692 0.75777 0.75467
 H108 H 0.88071 0.74644 0.74893
 C109 C 0.69657 0.28481 0.22226
 C110 C 0.71803 0.26257 0.25257
 C111 C 0.69635 0.23863 0.28297
 C112 C 0.65301 0.23589 0.28308
 C113 C 0.63154 0.25950 0.25354
 C114 C 0.65295 0.28418 0.22274
 C115 C 0.76340 0.26055 0.24937
 C116 C 0.78788 0.28510 0.27617
 C117 C 0.83121 0.28105 0.27567
 C118 C 0.84906 0.25040 0.24887
 C119 C 0.82440 0.22474 0.22257
 C120 C 0.78163 0.23127 0.22222
 H121 H 0.71426 0.30154 0.19749
 H122 H 0.71370 0.22160 0.30600
 H123 H 0.77270 0.30655 0.29826
 H124 H 0.76180 0.21328 0.20127
 H125 H 0.59813 0.25813 0.25414
 H126 H 0.88209 0.24629 0.24887
 C127 C 0.19542 0.78595 0.22186
 C128 C 0.21694 0.76241 0.25062
 C129 C 0.19552 0.73727 0.27972
 C130 C 0.15201 0.73458 0.28071
 C131 C 0.13061 0.75965 0.25236
 C132 C 0.15164 0.78544 0.22211
 C133 C 0.26238 0.76062 0.24734
 C134 C 0.28675 0.78524 0.27419
 C135 C 0.33006 0.78110 0.27407
 C136 C 0.34802 0.75042 0.24743
 C137 C 0.32351 0.72472 0.22102
 C138 C 0.28075 0.73125 0.22041
 H139 H 0.21366 0.80280 0.19779
 H140 H 0.21363 0.72042 0.30213
 H141 H 0.27148 0.80672 0.29617
 H142 H 0.26100 0.71318 0.19946
 H143 H 0.09739 0.75857 0.25342
 H144 H 0.38103 0.74628 0.24768
 O145 O 1.07469 0.01215 0.05258
 O146 O 0.93061 -0.01608 0.05694
 O147 O 0.98532 0.06416 0.06114
 O148 O 1.02476 -0.06855 0.04496
 O149 O 0.92651 0.05100 0.03585
 O150 O 1.08124 -0.04927 0.01518
 O151 O 0.95325 -0.07045 0.02950
 O152 O 1.05484 0.06893 0.03910
 C153 C 1.07388 0.04656 0.06379
 C154 C 0.93195 -0.05170 0.05920
 C155 C 0.94779 0.06815 0.06508
 C156 C 1.06271 -0.06778 0.04569
 O157 O 1.07088 -0.01467 -0.06513
 O158 O 0.93268 0.02648 -0.05270
 O159 O 1.03059 0.06765 -0.05190
 O160 O 0.97406 -0.06175 -0.06180
 O161 O 0.91930 -0.03904 -0.03011
 O162 O 1.08648 0.04668 -0.02913
 O163 O 1.04505 -0.07007 -0.04857
 O164 O 0.96240 0.07777 -0.02736
 Co165 Co 1.07032 -0.00087 -0.00617
 Co166 Co 0.93516 0.00528 0.00207
 Co167 Co 1.00792 0.06325 0.00450
 Co168 Co 0.99977 -0.06126 -0.00826
 O169 O 1.00310 0.00153 -0.00193
 C170 C 1.06727 -0.04940 -0.07481
 C171 C 0.93978 0.06138 -0.05609
 C172 C 1.06835 0.06722 -0.05617
 C173 C 0.93621 -0.05878 -0.06175
 O174 O 1.07460 0.51481 0.55229
 O175 O 0.93049 0.48432 0.55479
 O176 O 0.98701 0.56511 0.56136
 O177 O 1.02326 0.43181 0.54602
 O178 O 0.92773 0.55115 0.53694
 O179 O 1.08055 0.45236 0.51863
 O180 O 0.95201 0.42996 0.52703
 O181 O 1.05653 0.57119 0.53581
 C182 C 1.07545 0.54959 0.56125
 C183 C 0.93100 0.44875 0.55677
 C184 C 0.94930 0.56831 0.56609
 C185 C 1.06115 0.43362 0.54847
 O186 O 1.07169 0.48398 0.43559
 O187 O 0.93464 0.52908 0.44596
 O188 O 1.02947 0.56873 0.44715
 O189 O 0.97607 0.43848 0.43728
 O190 O 0.92090 0.46313 0.46637
 O191 O 1.08583 0.54631 0.46772
 O192 O 1.04664 0.42898 0.45409
 O193 O 0.96181 0.57967 0.47504
 Co194 Co 1.07053 0.49979 0.49399
 Co195 Co 0.93605 0.50659 0.50057
 Co196 Co 1.00833 0.56440 0.50411
 Co197 Co 0.99999 0.43905 0.49179
 O198 O 1.00360 0.50232 0.49767
 C199 C 1.06899 0.44899 0.42740
 C200 C 0.94086 0.56422 0.44436
 C201 C 1.06709 0.56700 0.44121
 C202 C 0.93838 0.44257 0.43576
 O203 O 0.57355 0.01298 0.55240
 O204 O 0.42918 -0.01749 0.55477
 O205 O 0.48592 0.06326 0.56219
 O206 O 0.52280 -0.06958 0.54522
 O207 O 0.42659 0.04969 0.53773
 O208 O 0.57982 -0.04900 0.51743
 O209 O 0.45147 -0.07149 0.52645
 O210 O 0.55536 0.06953 0.53687
 C211 C 0.57407 0.04762 0.56216
 C212 C 0.43013 -0.05310 0.55622
 C213 C 0.44826 0.06663 0.56698
 C214 C 0.56072 -0.06788 0.54734
 O215 O 0.57048 -0.01631 0.43519
 O216 O 0.43340 0.02835 0.44655
 O217 O 0.52834 0.06807 0.44811
 O218 O 0.47495 -0.06234 0.43682
 O219 O 0.41978 -0.03785 0.46621
 O220 O 0.58475 0.04560 0.46843
 O221 O 0.54560 -0.07155 0.45297
 O222 O 0.46066 0.07872 0.47607
 Co223 Co 0.56946 -0.00124 0.49385
 Co224 Co 0.43488 0.00538 0.50085
 Co225 Co 0.50722 0.06316 0.50498
 Co226 Co 0.49920 -0.06203 0.49115
 O227 O 0.50253 0.00117 0.49775
 C228 C 0.56777 -0.05123 0.42647
 C229 C 0.43958 0.06351 0.44534
 C230 C 0.56595 0.06647 0.44218
 C231 C 0.43724 -0.05826 0.43545
 O232 O 0.57532 0.51176 0.05246
 O233 O 0.43147 0.48360 0.05746
 O234 O 0.48551 0.56338 0.06162
 O235 O 0.52474 0.43042 0.04460
 O236 O 0.42674 0.55042 0.03622
 O237 O 0.58129 0.45015 0.01517
 O238 O 0.45323 0.42905 0.02982
 O239 O 0.55508 0.56847 0.03907
 C240 C 0.57452 0.54622 0.06351
 C241 C 0.43252 0.44800 0.05991
 C242 C 0.44798 0.56746 0.06555
 C243 C 0.56267 0.43144 0.04547
 O244 O 0.57111 0.48464 -0.06515
 O245 O 0.43294 0.52575 -0.05235
 O246 O 0.53042 0.56733 -0.05159
 O247 O 0.47382 0.43819 -0.06184
 O248 O 0.41928 0.46034 -0.02938
 O249 O 0.58647 0.54612 -0.02941
 O250 O 0.54491 0.42930 -0.04880
 O251 O 0.46235 0.57709 -0.02683
 Co252 Co 0.57061 0.49857 -0.00624
 Co253 Co 0.43550 0.50471 0.00252
 Co254 Co 0.50797 0.56269 0.00486
 Co255 Co 0.49965 0.43818 -0.00837
 O256 O 0.50331 0.50097 -0.00175
 C257 C 0.56733 0.44994 -0.07493
 C258 C 0.44013 0.56063 -0.05589
 C259 C 0.56815 0.56670 -0.05628
 C260 C 0.43594 0.44083 -0.06137
 C261 C 1.14344 0.15792 0.21182
 C262 C 1.18157 0.13912 0.21569
 C263 C 1.18777 0.10345 0.19267
 C264 C 1.15776 0.08810 0.16388
 C265 C 1.12091 0.10865 0.15747
 C266 C 1.11355 0.14300 0.18266
 C267 C 1.09277 0.09496 0.12515
 C268 C 1.10086 0.06055 0.10019
 C269 C 1.13655 0.03943 0.10869
 C270 C 1.16489 0.05319 0.13996
 H271 H 1.21694 0.08864 0.19490
 H272 H 1.08517 0.15880 0.17900
 H273 H 1.06506 0.11111 0.11907
 H274 H 1.19279 0.03694 0.14470
 H275 H 1.13715 0.18485 0.23032
 H276 H 1.14345 0.01282 0.08979
 C277 C 1.14940 0.66338 0.70363
 C278 C 1.18736 0.64431 0.70736
 C279 C 1.19375 0.60912 0.68340
 C280 C 1.16335 0.59370 0.65524
 C281 C 1.12612 0.61396 0.64997
 C282 C 1.11921 0.64852 0.67488
 C283 C 1.09686 0.59951 0.61941
 C284 C 1.10419 0.56462 0.59521
 C285 C 1.14063 0.54413 0.60199
 C286 C 1.17010 0.55866 0.63147
 H287 H 1.22296 0.59431 0.68525
 H288 H 1.09066 0.66419 0.67186
 H289 H 1.06866 0.61525 0.61439
 H290 H 1.19837 0.54271 0.63524
 H291 H 1.14318 0.69010 0.72263
 H292 H 1.14706 0.51740 0.58319
 C293 C 0.64878 0.16381 0.70110
 C294 C 0.68597 0.14391 0.70680
 C295 C 0.69125 0.10737 0.68554
 C296 C 0.66073 0.09162 0.65769
 C297 C 0.62461 0.11287 0.65002
 C298 C 0.61860 0.14864 0.67258
 C299 C 0.59561 0.09828 0.61929
 C300 C 0.60202 0.06231 0.59717
 C301 C 0.63704 0.04064 0.60675
 C302 C 0.66633 0.05530 0.63643
 H303 H 0.71972 0.09173 0.68912
 H304 H 0.59081 0.16504 0.66784
 H305 H 0.56845 0.11490 0.61226
 H306 H 0.69365 0.03850 0.64218
 H307 H 0.64314 0.19146 0.71828
 H308 H 0.64264 0.01286 0.58989
 C309 C 0.64425 0.65698 0.21210
 C310 C 0.68285 0.63882 0.21483
 C311 C 0.68958 0.60374 0.19075
 C312 C 0.65949 0.58830 0.16215
 C313 C 0.62195 0.60812 0.15711
 C314 C 0.61418 0.64191 0.18325
 C315 C 0.59348 0.59428 0.12520
 C316 C 0.60203 0.56048 0.09925
 C317 C 0.63864 0.54022 0.10612
 C318 C 0.66720 0.55408 0.13706
 H319 H 0.71917 0.58950 0.19207
 H320 H 0.58533 0.65717 0.18058
 H321 H 0.56513 0.60981 0.12027
 H322 H 0.69571 0.53846 0.14063
 H323 H 0.63769 0.68351 0.23133
 H324 H 0.64602 0.51428 0.08617
 C325 C 0.86266 -0.17457 0.19359
 C326 C 0.82217 -0.15987 0.19845
 C327 C 0.81290 -0.12612 0.17530
 C328 C 0.84308 -0.10748 0.14805
 C329 C 0.88304 -0.12338 0.14185
 C330 C 0.89257 -0.15685 0.16511
 C331 C 0.91255 -0.10548 0.11253
 C332 C 0.90274 -0.07107 0.09111
 C333 C 0.86338 -0.05489 0.09905
 C334 C 0.83366 -0.07318 0.12667
 H335 H 0.78192 -0.11454 0.17741
 H336 H 0.92318 -0.16920 0.16149
 H337 H 0.94299 -0.11787 0.10681
 H338 H 0.80330 -0.06043 0.13133
 H339 H 0.87144 -0.19987 0.21179
 H340 H 0.85512 -0.02842 0.08283
 C341 C 0.85965 0.32347 0.68657
 C342 C 0.82062 0.34066 0.69662
 C343 C 0.81334 0.37688 0.67722
 C344 C 0.84318 0.39472 0.64867
 C345 C 0.88101 0.37616 0.63757
 C346 C 0.88902 0.34069 0.65709
 C347 C 0.91006 0.39348 0.60723
 C348 C 0.90194 0.42974 0.58925
 C349 C 0.86466 0.44839 0.60173
 C350 C 0.83539 0.43088 0.63065
 H351 H 0.78389 0.39106 0.68205
 H352 H 0.91824 0.32635 0.64991
 H353 H 0.93891 0.37911 0.59806
 H354 H 0.80664 0.44570 0.63895
 H355 H 0.86862 0.29701 0.70213
 H356 H 0.85764 0.47634 0.58821
 C357 C 0.36441 -0.17201 0.69703
 C358 C 0.32338 -0.15855 0.70067
 C359 C 0.31275 -0.12665 0.67494
 C360 C 0.34223 -0.10852 0.64632
 C361 C 0.38291 -0.12308 0.64167
 C362 C 0.39371 -0.15475 0.66744
 C363 C 0.41192 -0.10553 0.61151
 C364 C 0.40085 -0.07276 0.58765
 C365 C 0.36068 -0.05800 0.59365
 C366 C 0.33147 -0.07601 0.62217
 H367 H 0.28129 -0.11621 0.67622
 H368 H 0.42485 -0.16604 0.66492
 H369 H 0.44303 -0.11672 0.60728
 H370 H 0.30053 -0.06434 0.62555
 H371 H 0.37399 -0.19596 0.71706
 H372 H 0.35157 -0.03278 0.57548
 C373 C 0.35900 0.32041 0.18552
 C374 C 0.32061 0.33838 0.19691
 C375 C 0.31452 0.37565 0.17963
 C376 C 0.34479 0.39371 0.15183
 C377 C 0.38182 0.37438 0.13917
 C378 C 0.38873 0.33788 0.15664
 C379 C 0.41107 0.39191 0.10919
 C380 C 0.40394 0.42908 0.09308
 C381 C 0.36757 0.44850 0.10742
 C382 C 0.33812 0.43086 0.13600
 H383 H 0.28565 0.39062 0.18549
 H384 H 0.41736 0.32289 0.14831
 H385 H 0.43917 0.37687 0.09859
 H386 H 0.31002 0.44629 0.14557
 H387 H 0.36724 0.29307 0.19947
 H388 H 0.36120 0.47713 0.09542
 C389 C 0.78790 0.10148 -0.16500
 C390 C 0.80407 0.13487 -0.18606
 C391 C 0.84526 0.14639 -0.17789
 C392 C 0.86938 0.12546 -0.14853
 C393 C 0.85282 0.09157 -0.12868
 C394 C 0.81223 0.07973 -0.13725
 C395 C 0.87676 0.07042 -0.09972
 C396 C 0.91657 0.08340 -0.08865
 C397 C 0.93268 0.11753 -0.10755
 C398 C 0.90949 0.13812 -0.13798
 H399 H 0.85867 0.17162 -0.19418
 H400 H 0.79896 0.05409 -0.12166
 H401 H 0.86384 0.04439 -0.08459
 H402 H 0.92260 0.16423 -0.15261
 H403 H 0.75608 0.09234 -0.16910
 H404 H 0.96322 0.12803 -0.09908
 C405 C 0.81763 0.59396 0.29367
 C406 C 0.81310 0.63429 0.30170
 C407 C 0.83889 0.65255 0.33413
 C408 C 0.86696 0.63129 0.35845
 C409 C 0.86956 0.59089 0.35107
 C410 C 0.84527 0.57263 0.31816
 C411 C 0.89547 0.56927 0.37771
 C412 C 0.91864 0.58757 0.41197
 C413 C 0.91733 0.62803 0.41762
 C414 C 0.89160 0.64972 0.39116
 H415 H 0.83588 0.68296 0.34309
 H416 H 0.84743 0.54169 0.31151
 H417 H 0.89646 0.53806 0.37285
 H418 H 0.89024 0.68078 0.39706
 H419 H 0.80068 0.57845 0.26769
 H420 H 0.93500 0.64280 0.44369
 C421 C 0.31574 0.09384 0.29542
 C422 C 0.31136 0.13418 0.30347
 C423 C 0.33719 0.15234 0.33594
 C424 C 0.36526 0.13098 0.36019
 C425 C 0.36781 0.09060 0.35265
 C426 C 0.34339 0.07242 0.31980
 C427 C 0.39383 0.06889 0.37905
 C428 C 0.41716 0.08706 0.41327
 C429 C 0.41583 0.12750 0.41917
 C430 C 0.39000 0.14929 0.39291
 H431 H 0.33426 0.18276 0.34490
 H432 H 0.34548 0.04149 0.31307
 H433 H 0.39481 0.03769 0.37402
 H434 H 0.38866 0.18034 0.39895
 H435 H 0.29872 0.07840 0.26944
 H436 H 0.43360 0.14216 0.44524
 C437 C 0.29338 0.59653 -0.17470
 C438 C 0.30635 0.63364 -0.18939
 C439 C 0.34575 0.64746 -0.17603
 C440 C 0.37031 0.62575 -0.14792
 C441 C 0.35650 0.58884 -0.13423
 C442 C 0.31833 0.57437 -0.14811
 C443 C 0.38053 0.56728 -0.10575
 C444 C 0.41766 0.58265 -0.08917
 C445 C 0.43137 0.61945 -0.10269
 C446 C 0.40815 0.64064 -0.13249
 H447 H 0.35826 0.67474 -0.18784
 H448 H 0.30710 0.54626 -0.13723
 H449 H 0.36942 0.53905 -0.09505
 H450 H 0.41924 0.66901 -0.14254
 H451 H 0.26310 0.58465 -0.18146
 H452 H 0.45985 0.63181 -0.09011
 C453 C 1.15123 -0.17643 -0.19683
 C454 C 1.18964 -0.15695 -0.20320
 C455 C 1.19303 -0.11824 -0.18778
 C456 C 1.15968 -0.10009 -0.16455
 C457 C 1.12260 -0.12105 -0.15500
 C458 C 1.11838 -0.15894 -0.17228
 C459 C 1.09103 -0.10409 -0.12726
 C460 C 1.09593 -0.06607 -0.11013
 C461 C 1.13167 -0.04461 -0.12300
 C462 C 1.16341 -0.06159 -0.14942
 H463 H 1.22203 -0.10248 -0.19198
 H464 H 1.08987 -0.17520 -0.16645
 H465 H 1.06344 -0.12069 -0.11795
 H466 H 1.19130 -0.04487 -0.15701
 H467 H 1.14646 -0.20555 -0.21025
 H468 H 1.13627 -0.01513 -0.11052
 C469 C 1.14918 0.32344 0.29913
 C470 C 1.18829 0.34180 0.29366
 C471 C 1.19348 0.37943 0.31209
 C472 C 1.16107 0.39756 0.33710
 C473 C 1.12308 0.37763 0.34524
 C474 C 1.11721 0.34086 0.32523
 C475 C 1.09208 0.39456 0.37393
 C476 C 1.09837 0.43168 0.39320
 C477 C 1.13532 0.45207 0.38235
 C478 C 1.16651 0.43503 0.35512
 H479 H 1.22314 0.39421 0.30872
 H480 H 1.08805 0.32542 0.33007
 H481 H 1.06356 0.37881 0.38170
 H482 H 1.19517 0.45095 0.34879
 H483 H 1.14329 0.29516 0.28377
 H484 H 1.14100 0.48083 0.39658
 C485 C 0.64919 -0.17705 0.29993
 C486 C 0.68819 -0.15846 0.29450
 C487 C 0.69294 -0.12058 0.31235
 C488 C 0.66023 -0.10240 0.33674
 C489 C 0.62239 -0.12254 0.34494
 C490 C 0.61694 -0.15957 0.32551
 C491 C 0.59115 -0.10557 0.37319
 C492 C 0.59708 -0.06824 0.39204
 C493 C 0.63382 -0.04762 0.38099
 C494 C 0.66525 -0.06468 0.35414
 H495 H 0.72247 -0.10558 0.30898
 H496 H 0.58787 -0.17517 0.33037
 H497 H 0.56278 -0.12150 0.38115
 H498 H 0.69379 -0.04859 0.34772
 H499 H 0.64353 -0.20547 0.28489
 H500 H 0.63922 -0.01873 0.39494
 C501 C 0.64966 0.32425 -0.20075
 C502 C 0.68812 0.34363 -0.20712
 C503 C 0.69191 0.38204 -0.19079
 C504 C 0.65891 0.39993 -0.16658
 C505 C 0.62178 0.37902 -0.15709
 C506 C 0.61715 0.34148 -0.17535
 C507 C 0.59056 0.39566 -0.12851
 C508 C 0.59586 0.43335 -0.11050
 C509 C 0.63170 0.45477 -0.12315
 C510 C 0.66307 0.43809 -0.15040
 H511 H 0.72100 0.39767 -0.19495
 H512 H 0.58860 0.32525 -0.16956
 H513 H 0.56290 0.37909 -0.11938
 H514 H 0.69102 0.45477 -0.15787
 H515 H 0.64473 0.29532 -0.21472
 H516 H 0.63664 0.48400 -0.11002
 C517 C 1.09027 0.21289 -0.17334
 C518 C 1.13196 0.20761 -0.18831
 C519 C 1.15204 0.17386 -0.17402
 C520 C 1.13163 0.14711 -0.14547
 C521 C 1.09005 0.15315 -0.13144
 C522 C 1.06968 0.18598 -0.14561
 C523 C 1.06958 0.12645 -0.10305
 C524 C 1.09029 0.09395 -0.08764
 C525 C 1.13179 0.08821 -0.10148
 C526 C 1.15221 0.11438 -0.13055
 H527 H 1.18316 0.16710 -0.18610
 H528 H 1.03782 0.19122 -0.13465
 H529 H 1.03772 0.13150 -0.09207
 H530 H 1.18421 0.10926 -0.14094
 H531 H 1.07341 0.23851 -0.18120
 H532 H 1.14834 0.06342 -0.08999
 C533 C 1.08910 0.71245 0.32404
 C534 C 1.13072 0.70702 0.30889
 C535 C 1.15057 0.67297 0.32258
 C536 C 1.13002 0.64608 0.35080
 C537 C 1.08850 0.65226 0.36500
 C538 C 1.06833 0.68537 0.35134
 C539 C 1.06794 0.62556 0.39328
 C540 C 1.08865 0.59306 0.40870
 C541 C 1.13003 0.58706 0.39450
 C542 C 1.15043 0.61314 0.36535
 H543 H 1.18165 0.66619 0.31034
 H544 H 1.03655 0.69076 0.36252
 H545 H 1.03607 0.63072 0.40433
 H546 H 1.18237 0.60790 0.35480
 H547 H 1.07245 0.73835 0.31682
 H548 H 1.14654 0.56225 0.40598
 C549 C 0.59125 0.21574 0.33238
 C550 C 0.63067 0.20746 0.31294
 C551 C 0.64880 0.17166 0.32225
 C552 C 0.62846 0.14518 0.35115
 C553 C 0.58871 0.15380 0.36980
 C554 C 0.57032 0.18903 0.36011
 C555 C 0.56822 0.12731 0.39840
 C556 C 0.58743 0.09277 0.40999
 C557 C 0.62721 0.08462 0.39187
 C558 C 0.64737 0.11039 0.36215
 H559 H 0.67870 0.16415 0.30691
 H560 H 0.53998 0.19621 0.37455
 H561 H 0.53768 0.13411 0.41268
 H562 H 0.67796 0.10340 0.34830
 H563 H 0.57667 0.24314 0.32681
 H564 H 0.64252 0.05823 0.40048
 C565 C 0.58922 0.71189 -0.17431
 C566 C 0.63086 0.70666 -0.18953
 C567 C 0.65106 0.67296 -0.17527
 C568 C 0.63083 0.64624 -0.14651
 C569 C 0.58928 0.65221 -0.13233
 C570 C 0.56877 0.68497 -0.14649
 C571 C 0.56897 0.62557 -0.10374
 C572 C 0.58988 0.59326 -0.08812
 C573 C 0.63136 0.58758 -0.10211
 C574 C 0.65157 0.61364 -0.13148
 H575 H 0.68216 0.66626 -0.18749
 H576 H 0.53695 0.69019 -0.13535
 H577 H 0.53707 0.63053 -0.09277
 H578 H 0.68355 0.60857 -0.14199
 H579 H 0.57227 0.73752 -0.18191
 H580 H 0.64804 0.56292 -0.09050
 C581 C 0.89231 -0.20540 -0.17704
 C582 C 0.85514 -0.19255 -0.19495
 C583 C 0.84226 -0.15440 -0.18334
 C584 C 0.86538 -0.13027 -0.15394
 C585 C 0.90295 -0.14357 -0.13740
 C586 C 0.91617 -0.18106 -0.14929
 C587 C 0.92634 -0.11947 -0.10851
 C588 C 0.91194 -0.08268 -0.09419
 C589 C 0.87410 -0.06992 -0.10996
 C590 C 0.85133 -0.09324 -0.14020
 H591 H 0.81429 -0.14322 -0.19704
 H592 H 0.94464 -0.19192 -0.13631
 H593 H 0.95525 -0.12984 -0.09603
 H594 H 0.82243 -0.08257 -0.15227
 H595 H 0.90291 -0.23464 -0.18351
 H596 H 0.86243 -0.04174 -0.09929
 C597 C 0.89429 0.29508 0.32248
 C598 C 0.85722 0.30789 0.30433
 C599 C 0.84473 0.34632 0.31482
 C600 C 0.86802 0.37079 0.34361
 C601 C 0.90538 0.35746 0.36066
 C602 C 0.91832 0.31970 0.34969
 C603 C 0.92876 0.38176 0.38929
 C604 C 0.91456 0.41880 0.40284
 C605 C 0.87705 0.43169 0.38635
 C606 C 0.85430 0.40814 0.35636
 H607 H 0.81684 0.35740 0.30080
 H608 H 0.94665 0.30886 0.36302
 H609 H 0.95740 0.37128 0.40233
 H610 H 0.82558 0.41883 0.34383
 H611 H 0.90458 0.26566 0.31667
 H612 H 0.86554 0.46006 0.39643
 C613 C 0.39286 -0.20525 0.32147
 C614 C 0.35596 -0.19223 0.30310
 C615 C 0.34356 -0.15379 0.31374
 C616 C 0.36682 -0.12951 0.34278
 C617 C 0.40404 -0.14304 0.35996
 C618 C 0.41686 -0.18081 0.34891
 C619 C 0.42743 -0.11892 0.38878
 C620 C 0.41336 -0.08186 0.40241
 C621 C 0.37596 -0.06877 0.38584
 C622 C 0.35321 -0.09215 0.35565
 H623 H 0.31579 -0.14257 0.29962
 H624 H 0.44507 -0.19181 0.36236
 H625 H 0.45598 -0.12954 0.40189
 H626 H 0.32459 -0.08130 0.34305
 H627 H 0.40305 -0.23470 0.31562
 H628 H 0.36455 -0.04038 0.39599
 C629 C 0.39622 0.29717 -0.18383
 C630 C 0.35578 0.30700 -0.19633
 C631 C 0.34065 0.34355 -0.18001
 C632 C 0.36420 0.36824 -0.15168
 C633 C 0.40441 0.35758 -0.14049
 C634 C 0.42013 0.32218 -0.15693
 C635 C 0.42803 0.38213 -0.11231
 C636 C 0.41148 0.41684 -0.09365
 C637 C 0.37123 0.42714 -0.10459
 C638 C 0.34801 0.40335 -0.13388
 H639 H 0.31095 0.35390 -0.18978
 H640 H 0.45080 0.31330 -0.14809
 H641 H 0.45890 0.37359 -0.10373
 H642 H 0.31711 0.41207 -0.14195
 H643 H 0.40972 0.26952 -0.19284
 H644 H 0.35784 0.45367 -0.09063
 C645 C 1.08839 -0.19987 0.18008
 C646 C 1.12963 -0.19082 0.19194
 C647 C 1.14841 -0.15758 0.17205
 C648 C 1.12738 -0.13515 0.14115
 C649 C 1.08618 -0.14467 0.13076
 C650 C 1.06699 -0.17692 0.15054
 C651 C 1.06498 -0.12212 0.10023
 C652 C 1.08492 -0.09072 0.07872
 C653 C 1.12618 -0.08178 0.08868
 C654 C 1.14705 -0.10345 0.12010
 H655 H 1.17908 -0.14797 0.18104
 H656 H 1.03555 -0.18501 0.14234
 H657 H 1.03324 -0.12952 0.09247
 H658 H 1.17877 -0.09573 0.12744
 H659 H 1.07239 -0.22563 0.19159
 H660 H 1.14219 -0.05782 0.07240
 C661 C 1.09061 0.29707 0.67592
 C662 C 1.12920 0.30952 0.69231
 C663 C 1.14579 0.34520 0.67720
 C664 C 1.12484 0.36732 0.64591
 C665 C 1.08579 0.35472 0.63079
 C666 C 1.06892 0.31966 0.64617
 C667 C 1.06463 0.37703 0.59989
 C668 C 1.08278 0.41105 0.58240
 C669 C 1.12203 0.42285 0.59683
 C670 C 1.14259 0.40157 0.62887
 H671 H 1.17503 0.35594 0.68964
 H672 H 1.03926 0.30925 0.63442
 H673 H 1.03457 0.36736 0.58849
 H674 H 1.17268 0.41157 0.63975
 H675 H 1.07722 0.26939 0.68520
 H676 H 1.13668 0.44875 0.58356
 C677 C 0.58721 -0.20031 0.68163
 C678 C 0.62852 -0.19124 0.69322
 C679 C 0.64700 -0.15780 0.67346
 C680 C 0.62563 -0.13520 0.64296
 C681 C 0.58441 -0.14480 0.63272
 C682 C 0.56550 -0.17725 0.65240
 C683 C 0.56298 -0.12218 0.60236
 C684 C 0.58272 -0.09061 0.58091
 C685 C 0.62395 -0.08153 0.59095
 C686 C 0.64502 -0.10326 0.62213
 H687 H 0.67771 -0.14817 0.68227
 H688 H 0.53405 -0.18542 0.64436
 H689 H 0.53128 -0.12972 0.59457
 H690 H 0.67674 -0.09546 0.62939
 H691 H 0.57138 -0.22616 0.69312
 H692 H 0.63988 -0.05751 0.57472
 C693 C 0.59134 0.29587 0.17416
 C694 C 0.63012 0.30817 0.19018
 C695 C 0.64724 0.34331 0.17410
 C696 C 0.62664 0.36508 0.14227
 C697 C 0.58733 0.35276 0.12768
 C698 C 0.56994 0.31820 0.14392
 C699 C 0.56631 0.37494 0.09664
 C700 C 0.58481 0.40852 0.07850
 C701 C 0.62445 0.41990 0.09209
 C702 C 0.64491 0.39876 0.12431
 H703 H 0.67658 0.35403 0.18629
 H704 H 0.54008 0.30801 0.13255
 H705 H 0.53593 0.36563 0.08584
 H706 H 0.67523 0.40848 0.13474
 H707 H 0.57752 0.26859 0.18422
 H708 H 0.63935 0.44546 0.07822
 C709 C 0.81816 0.15714 0.18761
 C710 C 0.84239 0.19078 0.19601
 C711 C 0.88349 0.19157 0.17840
 C712 C 0.89959 0.16005 0.15250
 C713 C 0.87407 0.12763 0.14216
 C714 C 0.83350 0.12637 0.16035
 C715 C 0.88958 0.09718 0.11379
 C716 C 0.93088 0.09818 0.09728
 C717 C 0.95648 0.12972 0.10986
 C718 C 0.94087 0.16056 0.13652
 H719 H 0.90295 0.21689 0.18383
 H720 H 0.81367 0.10145 0.15380
 H721 H 0.86975 0.07282 0.10473
 H722 H 0.96112 0.18487 0.14452
 H723 H 0.78709 0.15422 0.20215
 H724 H 0.98850 0.13122 0.09783
 C725 C 0.81776 0.65736 0.68622
 C726 C 0.84189 0.69095 0.69531
 C727 C 0.88340 0.69153 0.67885
 C728 C 0.89998 0.65988 0.65347
 C729 C 0.87459 0.62754 0.64248
 C730 C 0.83362 0.62648 0.65949
 C731 C 0.89059 0.59701 0.61450
 C732 C 0.93218 0.59790 0.59887
 C733 C 0.95760 0.62936 0.61216
 C734 C 0.94158 0.66022 0.63855
 H735 H 0.90285 0.71677 0.68477
 H736 H 0.81385 0.60162 0.65241
 H737 H 0.87081 0.57279 0.60482
 H738 H 0.96171 0.68449 0.64703
 H739 H 0.78638 0.65453 0.69987
 H740 H 0.98978 0.63090 0.60068
 C741 C 0.31823 0.15621 0.68874
 C742 C 0.34257 0.18977 0.69729
 C743 C 0.38388 0.19017 0.68026
 C744 C 0.40007 0.15840 0.65480
 C745 C 0.37444 0.12613 0.64423
 C746 C 0.33367 0.12522 0.66188
 C747 C 0.39001 0.09553 0.61604
 C748 C 0.43145 0.09629 0.59987
 C749 C 0.45714 0.12766 0.61285
 C750 C 0.44151 0.15859 0.63936
 H751 H 0.40347 0.21541 0.68570
 H752 H 0.31372 0.10041 0.65516
 H753 H 0.37004 0.07137 0.60663
 H754 H 0.46184 0.18280 0.64754
 H755 H 0.28697 0.15357 0.70283
 H756 H 0.48923 0.12906 0.60105
 C757 C 0.31746 0.65703 0.18618
 C758 C 0.34167 0.69066 0.19476
 C759 C 0.38298 0.69127 0.17772
 C760 C 0.39930 0.65959 0.15226
 C761 C 0.37381 0.62721 0.14173
 C762 C 0.33303 0.62613 0.15932
 C763 C 0.38954 0.59663 0.11372
 C764 C 0.43100 0.59748 0.09772
 C765 C 0.45657 0.62896 0.11056
 C766 C 0.44076 0.65992 0.13688
 H767 H 0.40245 0.71656 0.18327
 H768 H 0.31321 0.60123 0.15261
 H769 H 0.36972 0.57232 0.10445
 H770 H 0.46099 0.68421 0.14505
 H771 H 0.28624 0.65421 0.20030
 H772 H 0.48870 0.63034 0.09891
   
