data_POSCAR
  _audit_creation_date              2014-09-24
  _audit_creation_method            'ToBaCCo'
  _symmetry_space_group_name_H-M    'P1'
  _symmetry_Int_Tables_number       1
  _symmetry_cell_setting            triclinic
  loop_
  _symmetry_equiv_pos_as_xyz
 x,y,z
_cell_length_a 28.8697
_cell_length_b 29.5445
_cell_length_c 28.7957
_cell_angle_alpha 90.277000
_cell_angle_beta 89.773000
_cell_angle_gamma 90.259400
loop_
  _atom_site_label
  _atom_site_type_symbol
  _atom_site_fract_x
  _atom_site_fract_y
  _atom_site_fract_z
N1 N 0.18872 0.17465 0.16764
 N2 N -0.18780 0.82219 0.19182
 N3 N -0.20004 0.20964 -0.19328
 N4 N 0.17855 0.79531 -0.20032
 N5 N 0.16139 1.17246 0.84788
 N6 N 0.84499 0.81967 0.82359
 N7 N 0.19407 0.81608 1.19291
 N8 N 0.81134 1.16995 1.17385
 O9 O 0.43102 1.06062 1.05878
 O10 O 0.38346 1.01049 1.02048
 C11 C 0.39061 1.04324 1.04961
 O12 O 0.55362 1.06761 0.88767
 O13 O 0.61034 1.03305 0.93018
 C14 C 0.59662 1.06089 0.89838
 O15 O 0.42489 1.06030 0.89865
 O16 O 0.37979 1.01392 0.94413
 C17 C 0.38518 1.04593 0.91390
 O18 O 0.56180 1.06905 1.05735
 O19 O 0.61362 1.03362 1.00883
 C20 C 0.60343 1.06199 1.04158
 Zr21 Zr 0.49763 1.04109 1.03432
 O22 O 0.49607 1.11273 1.03492
 O23 O 0.49538 1.04009 1.10783
 Zr24 Zr 0.49259 1.04011 0.91675
 O25 O 0.49113 1.11171 0.91555
 O26 O 0.48409 1.03778 0.84376
 O27 O 0.45336 1.04558 0.97748
 O28 O 0.53411 1.05267 0.97366
 O29 O 0.57607 0.91361 1.05829
 O30 O 0.62114 0.95715 1.00989
 C31 C 0.61590 0.92818 1.04321
 O32 O 0.44106 0.89402 0.89815
 O33 O 0.38739 0.93374 0.94071
 C34 C 0.39882 0.90243 0.91106
 O35 O 0.56953 0.91090 0.88762
 O36 O 0.61792 0.95637 0.93061
 C37 C 0.61031 0.92597 0.89898
 O38 O 0.44603 0.89679 1.05948
 O39 O 0.39027 0.93331 1.01720
 C40 C 0.40326 0.90397 1.04762
 Zr41 Zr 0.50820 0.92725 1.03402
 O42 O 0.52011 0.85658 1.03218
 O43 O 0.50611 0.92569 1.10746
 Zr44 Zr 0.50370 0.92670 0.91637
 O45 O 0.51552 0.85609 0.91426
 O46 O 0.49505 0.92753 0.84338
 Zr47 Zr 0.43204 0.97722 0.97829
 Zr48 Zr 0.56912 0.99027 0.97218
 O49 O 0.54662 0.92241 0.97348
 O50 O 0.46586 0.91413 0.97693
 O51 O 0.54453 0.98815 1.04127
 O52 O 0.45746 0.97954 0.90985
 O53 O 0.46324 0.98041 1.04427
 O54 O 0.53911 0.98732 0.90561
 H55 H 0.55199 1.08135 0.97266
 H56 H 0.43503 0.97765 0.88394
 H57 H 0.56990 0.89787 0.97269
 H58 H 0.44364 0.97845 1.07251
 H59 H 0.51177 1.02295 0.83037
 H60 H 0.52062 0.94576 0.83005
 H61 H 0.49529 0.84219 0.93808
 H62 H 0.49274 0.84208 1.01773
 H63 H 0.52764 0.94936 1.11881
 H64 H 0.52460 1.02647 1.11873
 H65 H 0.46869 1.12214 1.01690
 H66 H 0.46720 1.12157 0.93803
 O67 O -0.08728 0.43451 0.10079
 O68 O -0.04136 0.38549 0.05927
 C69 C -0.07438 0.39407 0.08875
 O70 O -0.08388 0.56076 -0.06350
 O71 O -0.04305 0.61179 -0.01918
 C72 C -0.07257 0.60170 -0.05148
 O73 O -0.08407 0.43383 -0.06036
 O74 O -0.03996 0.38563 -0.01687
 C75 C -0.07170 0.39361 -0.04737
 O76 O -0.08664 0.56109 0.10539
 O77 O -0.04505 0.61233 0.06234
 C78 C -0.07568 0.60214 0.09376
 Zr79 Zr -0.06219 0.49852 0.07961
 O80 O -0.13543 0.50151 0.07879
 O81 O -0.06287 0.49342 0.15294
 Zr82 Zr -0.05986 0.49827 -0.03777
 O83 O -0.13308 0.50099 -0.03958
 O84 O -0.05699 0.49344 -0.11113
 O85 O -0.06934 0.45793 0.02063
 O86 O -0.07039 0.53748 0.02097
 O87 O 0.07311 0.56460 0.11011
 O88 O 0.03328 0.61416 0.06409
 C89 C 0.06164 0.60516 0.09770
 O90 O 0.08707 0.43886 -0.05603
 O91 O 0.04019 0.38823 -0.01772
 C92 C 0.07418 0.39792 -0.04545
 O93 O 0.07643 0.56684 -0.06241
 O94 O 0.03292 0.61467 -0.01701
 C95 C 0.06247 0.60706 -0.05005
 O96 O 0.08088 0.43840 0.10422
 O97 O 0.03962 0.38772 0.05986
 C98 C 0.07047 0.39757 0.09092
 Zr99 Zr 0.05471 0.50129 0.08137
 O100 O 0.12773 0.50863 0.07988
 O101 O 0.05603 0.49598 0.15459
 Zr102 Zr 0.05732 0.50187 -0.03587
 O103 O 0.13017 0.51012 -0.03487
 O104 O 0.05887 0.49586 -0.10914
 Zr105 Zr -0.00121 0.43275 0.02155
 Zr106 Zr -0.00414 0.56748 0.02244
 O107 O 0.06355 0.54135 0.02322
 O108 O 0.06588 0.46140 0.02268
 O109 O -0.00485 0.54027 0.08998
 O110 O -0.00014 0.46074 -0.04553
 O111 O -0.00310 0.46060 0.08886
 O112 O -0.00219 0.54038 -0.04553
 H113 H -0.09815 0.55707 0.02065
 H114 H 0.00090 0.44012 -0.07276
 H115 H 0.08990 0.56296 0.02370
 H116 H -0.00324 0.44008 0.11597
 H117 H -0.04047 0.52056 -0.12272
 H118 H 0.03878 0.51985 -0.12172
 H119 H 0.14270 0.48685 -0.01386
 H120 H 0.14080 0.48098 0.06554
 H121 H 0.03151 0.51599 0.16696
 H122 H -0.04706 0.52054 0.16561
 H123 H -0.14662 0.47637 0.05894
 H124 H -0.14497 0.47589 -0.02024
 O125 O 1.08879 -0.06414 0.56162
 O126 O 1.04652 -0.02318 0.61476
 C127 C 1.07756 -0.05299 0.60390
 O128 O 1.08504 0.10438 0.43913
 O129 O 1.04296 0.06232 0.38689
 C130 C 1.07322 0.09328 0.39709
 O131 O 1.08781 0.09797 0.56933
 O132 O 1.04635 0.05180 0.61824
 C133 C 1.07599 0.08390 0.61038
 O134 O 1.08351 -0.06182 0.43050
 O135 O 1.04154 -0.01532 0.38309
 C136 C 1.07118 -0.04739 0.38975
 Zr137 Zr 1.06338 -0.03845 0.49770
 O138 O 1.13648 -0.03612 0.49191
 O139 O 1.06475 -0.11001 0.49877
 Zr140 Zr 1.06386 0.07602 0.50334
 O141 O 1.13699 0.07285 0.49832
 O142 O 1.06685 0.14728 0.51050
 O143 O 1.07311 0.01711 0.54188
 O144 O 1.07158 0.02047 0.46013
 O145 O 0.92298 -0.06064 0.43265
 O146 O 0.96442 -0.01411 0.38409
 C147 C 0.93411 -0.04564 0.39169
 O148 O 0.92175 0.09481 0.57218
 O149 O 0.96731 0.05184 0.61970
 C150 C 0.93500 0.08127 0.61290
 O151 O 0.92414 0.10467 0.44172
 O152 O 0.96501 0.06283 0.38835
 C153 C 0.93523 0.09374 0.39939
 O154 O 0.92021 -0.06207 0.56418
 O155 O 0.96525 -0.02239 0.61609
 C156 C 0.93260 -0.05086 0.60604
 Zr157 Zr 0.94615 -0.03871 0.49928
 O158 O 0.87297 -0.03988 0.49539
 O159 O 0.94740 -0.11037 0.50087
 Zr160 Zr 0.94649 0.07601 0.50514
 O161 O 0.87326 0.07528 0.50111
 O162 O 0.94614 0.14722 0.51384
 Zr163 Zr 1.00565 0.01587 0.57004
 Zr164 Zr 1.00414 0.02180 0.43267
 O165 O 0.93740 0.02044 0.46233
 O166 O 0.93769 0.01692 0.54352
 O167 O 1.00426 -0.04554 0.45668
 O168 O 1.00552 0.08255 0.54456
 O169 O 1.00505 -0.04847 0.53840
 O170 O 1.00478 0.08670 0.46337
 H171 H 1.09839 0.02118 0.43856
 H172 H 1.00537 0.10860 0.56635
 H173 H 0.90989 0.02147 0.44191
 H174 H 1.00486 -0.07572 0.55833
 H175 H 1.04418 0.16005 0.48857
 H176 H 0.96563 0.16028 0.48891
 H177 H 0.86144 0.05734 0.52758
 H178 H 0.86114 -0.01991 0.52037
 H179 H 0.96248 -0.12100 0.47192
 H180 H 1.04163 -0.12080 0.47598
 H181 H 1.14842 -0.02043 0.51985
 H182 H 1.14853 0.05854 0.52701
 C183 C 1.14414 0.15472 0.28518
 C184 C 1.11939 0.11415 0.27893
 N185 N 1.11909 0.09371 0.23660
 C186 C 1.14240 0.11212 0.20011
 C187 C 1.16691 0.15283 0.20621
 N188 N 1.16697 0.17335 0.24864
 N189 N 1.14482 0.17486 0.32764
 C190 C 1.12199 0.15618 0.36430
 C191 C 1.09692 0.11568 0.35812
 N192 N 1.09625 0.09575 0.31537
 H193 H 1.14116 0.09573 0.16645
 H194 H 1.12331 0.17284 0.39783
 C195 C 0.86621 -0.09796 0.27327
 C196 C 0.87268 -0.12524 0.31255
 N197 N 0.85856 -0.16915 0.31144
 C198 C 0.83848 -0.18703 0.27275
 C199 C 0.83166 -0.15962 0.23365
 N200 N 0.84558 -0.11561 0.23498
 N201 N 0.88172 -0.05460 0.27356
 C202 C 0.90364 -0.03721 0.31129
 C203 C 0.90995 -0.06419 0.35090
 N204 N 0.89398 -0.10766 0.35067
 H205 H 0.82778 -0.22216 0.27245
 H206 H 0.91571 -0.00249 0.31049
 C207 C 0.87253 0.13842 0.73229
 C208 C 0.86107 0.15410 0.68783
 N209 N 0.82991 0.18814 0.68347
 C210 C 0.80980 0.20722 0.72162
 C211 C 0.82147 0.19158 0.76597
 N212 N 0.85243 0.15736 0.77019
 N213 N 0.90348 0.10443 0.73690
 C214 C 0.92378 0.08536 0.69906
 C215 C 0.91265 0.10095 0.65434
 N216 N 0.88133 0.13504 0.64987
 H217 H 0.78462 0.23389 0.71747
 H218 H 0.94840 0.05830 0.70401
 C219 C 1.14010 -0.11682 0.71826
 C220 C 1.11988 -0.14278 0.68273
 N221 N 1.11851 -0.18859 0.68671
 C222 C 1.13653 -0.20960 0.72455
 C223 C 1.15751 -0.18370 0.75992
 N224 N 1.15880 -0.13779 0.75550
 N225 N 1.14010 -0.07100 0.71537
 C226 C 1.12062 -0.04983 0.67854
 C227 C 1.10099 -0.07561 0.64249
 N228 N 1.10112 -0.12167 0.64538
 H229 H 1.13521 -0.24613 0.72662
 H230 H 1.12055 -0.01322 0.67727
 C231 C 0.27277 1.09413 1.11886
 C232 C 0.30855 1.12340 1.10455
 N233 N 0.30417 1.16864 1.11140
 C234 C 0.26558 1.18598 1.13181
 C235 C 0.22996 1.15678 1.14666
 N236 N 0.23459 1.11138 1.13998
 N237 N 0.27632 1.04907 1.11044
 C238 C 0.31399 1.03191 1.08820
 C239 C 0.35011 1.06103 1.07437
 N240 N 0.34660 1.10618 1.08311
 H241 H 0.26274 1.22220 1.13676
 H242 H 0.31596 0.99582 1.08177
 C243 C 0.29274 0.82724 0.84490
 C244 C 0.28198 0.86524 0.87234
 N245 N 0.23725 0.87893 0.87598
 C246 C 0.20289 0.85654 0.85308
 C247 C 0.21377 0.81892 0.82512
 N248 N 0.25848 0.80495 0.82202
 N249 N 0.33739 0.81375 0.84080
 C250 C 0.37199 0.83678 0.86248
 C251 C 0.36158 0.87526 0.88956
 N252 N 0.31656 0.88835 0.89404
 H253 H 0.16746 0.86797 0.85633
 H254 H 0.40729 0.82528 0.85822
 C255 C 0.73545 0.87288 1.10485
 C256 C 0.69514 0.88032 1.13122
 N257 N 0.69468 0.86969 1.17703
 C258 C 0.73265 0.85169 1.19764
 C259 C 0.77260 0.84305 1.17109
 N260 N 0.77299 0.85387 1.12514
 N261 N 0.73640 0.88486 1.05941
 C262 C 0.69875 0.90371 1.03901
 C263 C 0.65787 0.90997 1.06494
 N264 N 0.65713 0.89805 1.11058
 H265 H 0.73144 0.84322 1.23415
 H266 H 0.70038 0.91274 1.00266
 C267 C 0.69426 1.14491 0.83103
 C268 C 0.70573 1.12276 0.87244
 N269 N 0.74793 1.13006 0.89182
 C270 C 0.77907 1.15873 0.87177
 C271 C 0.76739 1.18125 0.83053
 N272 N 0.72535 1.17327 0.81095
 N273 N 0.65210 1.13795 0.81166
 C274 C 0.62054 1.11017 0.83207
 C275 C 0.63161 1.08815 0.87378
 N276 N 0.67425 1.09481 0.89283
 H277 H 0.81285 1.16304 0.88727
 H278 H 0.58700 1.10563 0.81599
 C279 C 0.14113 0.28829 0.15165
 C280 C 0.11980 0.28366 0.10809
 N281 N 0.12238 0.24369 0.08483
 C282 C 0.14526 0.20800 0.10330
 C283 C 0.16586 0.21235 0.14715
 N284 N 0.16329 0.25242 0.17044
 N285 N 0.13946 0.32861 0.17432
 C286 C 0.11730 0.36459 0.15547
 C287 C 0.09523 0.35981 0.11226
 N288 N 0.09707 0.31930 0.08965
 H289 H 0.14687 0.17628 0.08441
 H290 H 0.11644 0.39636 0.17433
 C291 C -0.13792 0.28053 -0.10858
 C292 C -0.13858 0.32290 -0.13044
 N293 N -0.15971 0.32716 -0.17221
 C294 C -0.18015 0.29089 -0.19317
 C295 C -0.17988 0.24857 -0.17117
 N296 N -0.15870 0.24451 -0.12928
 N297 N -0.11589 0.27589 -0.06739
 C298 C -0.09431 0.31173 -0.04700
 C299 C -0.09506 0.35435 -0.06860
 N300 N -0.11745 0.35889 -0.10986
 H301 H -0.19663 0.29503 -0.22651
 H302 H -0.07705 0.30700 -0.01408
 C303 C 0.11081 0.72260 -0.12256
 C304 C 0.12798 0.67946 -0.13373
 N305 N 0.16045 0.67527 -0.16780
 C306 C 0.17658 0.71229 -0.19096
 C307 C 0.15936 0.75535 -0.17970
 N308 N 0.12694 0.75942 -0.14558
 N309 N 0.07886 0.72717 -0.08833
 C310 C 0.06317 0.69062 -0.06454
 C311 C 0.08019 0.64712 -0.07531
 N312 N 0.11227 0.64266 -0.10996
 H313 H 0.20302 0.70841 -0.21740
 H314 H 0.03745 0.69564 -0.03758
 C315 C -0.14876 0.70830 0.15998
 C316 C -0.11595 0.71772 0.12514
 N317 N -0.10800 0.76133 0.11252
 C318 C -0.13135 0.79591 0.13329
 C319 C -0.16408 0.78643 0.16814
 N320 N -0.17196 0.74277 0.18070
 N321 N -0.15674 0.66487 0.17274
 C322 C -0.13348 0.63023 0.15225
 C323 C -0.10055 0.63933 0.11724
 N324 N -0.09262 0.68310 0.10457
 H325 H -0.12434 0.83048 0.12308
 H326 H -0.14083 0.59595 0.16320
 C327 C 1.12072 0.15283 0.73073
 C328 C 1.11586 0.10551 0.73035
 N329 N 1.12516 0.08166 0.76926
 C330 C 1.13965 0.10290 0.80854
 C331 C 1.14418 0.15051 0.80949
 N332 N 1.13391 0.17431 0.77038
 N333 N 1.11338 0.17636 0.69106
 C334 C 1.10107 0.15472 0.65112
 C335 C 1.09484 0.10750 0.65109
 N336 N 1.10220 0.08409 0.69093
 H337 H 1.14712 0.08299 0.83904
 H338 H 1.09460 0.17431 0.62016
 C339 C 0.86994 -0.10456 0.72560
 C340 C 0.89823 -0.13180 0.69731
 N341 N 0.90807 -0.17465 0.71073
 C342 C 0.89113 -0.19148 0.75131
 C343 C 0.86293 -0.16418 0.77993
 N344 N 0.85293 -0.12136 0.76594
 N345 N 0.86107 -0.06128 0.71299
 C346 C 0.87962 -0.04380 0.67350
 C347 C 0.90798 -0.07091 0.64523
 N348 N 0.91667 -0.11440 0.65773
 H349 H 0.89953 -0.22578 0.76103
 H350 H 0.87292 -0.00887 0.66456
 C351 C 1.13101 -0.10596 0.26942
 C352 C 1.13666 -0.12639 0.31299
 N353 N 1.16108 -0.16548 0.31608
 C354 C 1.18001 -0.18502 0.27754
 C355 C 1.17442 -0.16443 0.23411
 N356 N 1.15006 -0.12530 0.23112
 N357 N 1.10639 -0.06720 0.26603
 C358 C 1.08691 -0.04784 0.30418
 C359 C 1.09235 -0.06804 0.34804
 N360 N 1.11738 -0.10693 0.35133
 H361 H 1.19939 -0.21611 0.28063
 H362 H 1.06758 -0.01680 0.30019
 C363 C 0.86389 0.15507 0.28868
 C364 C 0.88423 0.11225 0.28355
 N365 N 0.87959 0.08920 0.24295
 C366 C 0.85551 0.10712 0.20707
 C367 C 0.83569 0.15017 0.21183
 N368 N 0.84046 0.17333 0.25256
 N369 N 0.86745 0.17738 0.32989
 C370 C 0.89035 0.15873 0.36628
 C371 C 0.91121 0.11609 0.36099
 N372 N 0.90763 0.09403 0.31956
 H373 H 0.85224 0.08833 0.17489
 H374 H 0.89245 0.17707 0.39884
 C375 C 0.14355 0.28323 -0.09915
 C376 C 0.09537 0.28762 -0.10310
 N377 N 0.07046 0.25436 -0.12395
 C378 C 0.09139 0.21668 -0.14100
 C379 C 0.13975 0.21093 -0.13592
 N380 N 0.16451 0.24487 -0.11490
 N381 N 0.16852 0.31755 -0.07977
 C382 C 0.14736 0.35581 -0.06383
 C383 C 0.09893 0.35944 -0.06631
 N384 N 0.07415 0.32506 -0.08589
 H385 H 0.07013 0.19070 -0.15694
 H386 H 0.16788 0.38243 -0.04800
 C387 C -0.14670 0.28484 0.15034
 C388 C -0.12000 0.27807 0.11001
 N389 N -0.11785 0.23609 0.09066
 C390 C -0.14102 0.20059 0.11000
 C391 C -0.16729 0.20733 0.15058
 N392 N -0.16935 0.24936 0.16988
 N393 N -0.14919 0.32670 0.16962
 C394 C -0.12624 0.36226 0.15045
 C395 C -0.09907 0.35572 0.11029
 N396 N -0.09660 0.31354 0.09104
 H397 H -0.13836 0.16725 0.09452
 H398 H -0.12896 0.39525 0.16671
 C399 C -0.13651 0.70888 -0.12287
 C400 C -0.09201 0.71428 -0.10399
 N401 N -0.06894 0.75401 -0.10989
 C402 C -0.08843 0.78862 -0.13379
 C403 C -0.13317 0.78343 -0.15203
 N404 N -0.15625 0.74366 -0.14598
 N405 N -0.15907 0.66878 -0.11822
 C406 C -0.13917 0.63369 -0.09556
 C407 C -0.09493 0.63912 -0.07601
 N408 N -0.07243 0.67949 -0.08062
 H409 H -0.06960 0.82008 -0.13810
 H410 H -0.15792 0.60203 -0.09241
 C411 C 0.13195 0.70976 0.16937
 C412 C 0.11525 0.71694 0.12423
 N413 N 0.12445 0.75684 0.10276
 C414 C 0.14998 0.78964 0.12420
 C415 C 0.16731 0.78216 0.16909
 N416 N 0.15725 0.74250 0.19077
 N417 N 0.12355 0.66977 0.19070
 C418 C 0.09979 0.63622 0.16878
 C419 C 0.08345 0.64286 0.12334
 N420 N 0.09127 0.68342 0.10224
 H421 H 0.15653 0.82132 0.10661
 H422 H 0.09411 0.60446 0.18655
 C423 C 0.26885 1.11071 0.85773
 C424 C 0.27798 1.11401 0.90535
 N425 N 0.24947 1.13912 0.93285
 C426 C 0.21186 1.16063 0.91496
 C427 C 0.20148 1.15601 0.86721
 N428 N 0.23102 1.13116 0.84021
 N429 N 0.29752 1.08657 0.82970
 C430 C 0.33510 1.06527 0.84725
 C431 C 0.34385 1.06747 0.89506
 N432 N 0.31514 1.09198 0.92319
 H433 H 0.18910 1.17885 0.93831
 H434 H 0.35774 1.04644 0.82423
 C435 C 0.28820 0.84026 1.10938
 C436 C 0.31779 0.86784 1.13591
 N437 N 0.30660 0.87741 1.18068
 C438 C 0.26696 0.86098 1.20010
 C439 C 0.23680 0.83356 1.17355
 N440 N 0.24880 0.82359 1.12882
 N441 N 0.29843 0.83198 1.06409
 C442 C 0.33668 0.85053 1.04394
 C443 C 0.36629 0.87821 1.07038
 N444 N 0.35617 0.88619 1.11588
 H445 H 0.25920 0.86932 1.23589
 H446 H 0.34349 0.84450 1.00742
 C447 C 0.71993 1.13175 1.09368
 C448 C 0.68899 1.10991 1.12414
 N449 N 0.69872 1.10862 1.17017
 C450 C 0.73806 1.12792 1.18713
 C451 C 0.76917 1.14982 1.15676
 N452 N 0.75894 1.15148 1.11067
 N453 N 0.71120 1.13164 1.04744
 C454 C 0.67316 1.11030 1.03017
 C455 C 0.64207 1.08853 1.06050
 N456 N 0.65060 1.08902 1.10696
 H457 H 0.74492 1.12638 1.22399
 H458 H 0.66733 1.11003 0.99305
 C459 C 0.72749 0.86542 0.83700
 C460 C 0.72906 0.88242 0.88257
 N461 N 0.76823 0.87780 0.90796
 C462 C 0.80610 0.85697 0.88977
 C463 C 0.80498 0.84061 0.84391
 N464 N 0.76559 0.84535 0.81850
 N465 N 0.68769 0.86873 0.81227
 C466 C 0.64928 0.88821 0.83111
 C467 C 0.65103 0.90582 0.87649
 N468 N 0.69107 0.90254 0.90101
 H469 H 0.83705 0.85378 0.91054
 H470 H 0.61789 0.89023 0.81080
   
