data_POSCAR
  _audit_creation_date              2014-09-24
  _audit_creation_method            'ToBaCCo'
  _symmetry_space_group_name_H-M    'P1'
  _symmetry_Int_Tables_number       1
  _symmetry_cell_setting            triclinic
  loop_
  _symmetry_equiv_pos_as_xyz
 x,y,z
_cell_length_a 42.5777
_cell_length_b 39.8539
_cell_length_c 39.7316
_cell_angle_alpha 87.911500
_cell_angle_beta 90.138100
_cell_angle_gamma 90.423300
loop_
  _atom_site_label
  _atom_site_type_symbol
  _atom_site_fract_x
  _atom_site_fract_y
  _atom_site_fract_z
C1 C 0.35513 0.34514 0.30408
 N2 N 0.33429 0.37089 0.30453
 C3 C 0.31240 0.37179 0.32957
 N4 N 0.31162 0.34705 0.35408
 C5 C 0.33253 0.32161 0.35371
 N6 N 0.35401 0.32080 0.32869
 C7 C 0.41877 0.84446 -0.17480
 N8 N 0.40354 0.87142 -0.18735
 C9 C 0.37489 0.88013 -0.17619
 N10 N 0.36175 0.86214 -0.14960
 C11 C 0.37803 0.83543 -0.13541
 N12 N 0.40586 0.82626 -0.14906
 C13 C 0.88946 0.32064 -0.14960
 N14 N 0.87426 0.34886 -0.14086
 C15 C 0.84691 0.34670 -0.12344
 N16 N 0.83496 0.31605 -0.11446
 C17 C 0.85124 0.28775 -0.12103
 N18 N 0.87825 0.29006 -0.13907
 C19 C 0.85520 0.82891 0.32543
 N20 N 0.83724 0.85682 0.32637
 C21 C 0.81478 0.85970 0.35009
 N22 N 0.80926 0.83388 0.37248
 C23 C 0.82657 0.80546 0.37152
 N24 N 0.84995 0.80316 0.34827
 C25 C 0.63545 0.62222 0.32110
 N26 N 0.65816 0.60017 0.31313
 C27 C 0.68223 0.59362 0.33483
 N28 N 0.68354 0.60905 0.36469
 C29 C 0.66072 0.63070 0.37304
 N30 N 0.63677 0.63738 0.35113
 C31 C 0.60969 0.15049 -0.17834
 N32 N 0.61452 0.13091 -0.20540
 C33 C 0.64019 0.11048 -0.20580
 N34 N 0.66080 0.11045 -0.17971
 C35 C 0.65642 0.13036 -0.15334
 N36 N 0.63084 0.15002 -0.15264
 C37 C 0.13879 0.68988 -0.14952
 N38 N 0.14531 0.66264 -0.16737
 C39 C 0.17524 0.65136 -0.17059
 N40 N 0.19930 0.66867 -0.15608
 C41 C 0.19252 0.69610 -0.13760
 N42 N 0.16244 0.70639 -0.13456
 C43 C 0.12589 0.17531 0.33595
 N44 N 0.12987 0.15274 0.31140
 C45 C 0.15443 0.13108 0.31295
 N46 N 0.17472 0.13201 0.33919
 C47 C 0.17117 0.15429 0.36383
 N48 N 0.14680 0.17613 0.36211
 C49 C 0.63643 0.31742 0.67718
 N50 N 0.65433 0.31996 0.64882
 C51 C 0.68195 0.33746 0.64900
 N52 N 0.69181 0.35182 0.67763
 C53 C 0.67448 0.34848 0.70608
 N54 N 0.64677 0.33151 0.70569
 C55 C 0.63876 0.81837 1.16362
 N56 N 0.64113 0.84163 1.18775
 C57 C 0.66457 0.86496 1.18645
 N58 N 0.68566 0.86474 1.16091
 C59 C 0.68348 0.84154 1.13678
 N60 N 0.66005 0.81836 1.13821
 C61 C 0.13233 0.33609 1.16334
 N62 N 0.13526 0.36401 1.18174
 C63 C 0.15955 0.38593 1.17595
 N64 N 0.18085 0.37988 1.15162
 C65 C 0.17780 0.35221 1.13291
 N66 N 0.15359 0.33054 1.13880
 C67 C 0.12266 0.84163 0.68757
 N68 N 0.14416 0.86654 0.69252
 C69 C 0.16809 0.87163 0.67032
 N70 N 0.17013 0.85209 0.64321
 C71 C 0.14923 0.82712 0.63830
 N72 N 0.12558 0.82166 0.66068
 C73 C 0.38206 0.68915 0.65867
 N74 N 0.37221 0.71504 0.63794
 C75 C 0.34367 0.71369 0.62280
 N76 N 0.32546 0.68625 0.62770
 C77 C 0.33466 0.66020 0.64796
 N78 N 0.36323 0.66141 0.66363
 C79 C 0.37555 0.18716 1.11518
 N80 N 0.36058 0.17051 1.14064
 C81 C 0.33307 0.15405 1.13552
 N82 N 0.31964 0.15543 1.10435
 C83 C 0.33452 0.17278 1.07866
 N84 N 0.36247 0.18822 1.08421
 C85 C 0.89373 0.64220 1.18549
 N86 N 0.88438 0.60979 1.18748
 C87 C 0.85592 0.60020 1.17555
 N88 N 0.83658 0.62371 1.16071
 C89 C 0.84657 0.65637 1.15762
 N90 N 0.87483 0.66530 1.17046
 C91 C 0.86683 0.15942 0.66926
 N92 N 0.84607 0.13324 0.67279
 C93 C 0.82256 0.12989 0.64977
 N94 N 0.81988 0.15296 0.62388
 C95 C 0.84025 0.17900 0.62049
 N96 N 0.86376 0.18207 0.64314
 C97 C 0.32444 0.38085 0.64781
 N98 N 0.32029 0.35643 0.62478
 C99 C 0.34142 0.33101 0.62310
 N100 N 0.36630 0.33024 0.64450
 C101 C 0.37058 0.35433 0.66718
 N102 N 0.34961 0.37964 0.66883
 C103 C 0.36390 0.89447 0.17050
 N104 N 0.38908 0.88288 0.18829
 C105 C 0.39949 0.85118 0.18522
 N106 N 0.38464 0.83087 0.16370
 C107 C 0.35955 0.84195 0.14516
 N108 N 0.34882 0.87389 0.14878
 C109 C 0.81762 0.34322 0.13152
 N110 N 0.84464 0.34431 0.14953
 C111 C 0.86699 0.32054 0.14634
 N112 N 0.86193 0.29512 0.12503
 C113 C 0.83485 0.29414 0.10656
 N114 N 0.81286 0.31824 0.10985
 C115 C 0.83711 0.85140 0.67349
 N116 N 0.86214 0.83145 0.68111
 C117 C 0.86865 0.80485 0.66175
 N118 N 0.84992 0.79816 0.63496
 C119 C 0.82507 0.81811 0.62735
 N120 N 0.81894 0.84468 0.64658
 C121 C 0.68192 0.59015 0.68499
 N122 N 0.65511 0.59052 0.70329
 C123 C 0.63243 0.61302 0.69541
 N124 N 0.63676 0.63554 0.66947
 C125 C 0.66331 0.63553 0.65073
 N126 N 0.68614 0.61271 0.65856
 C127 C 0.65474 0.11896 0.16119
 N128 N 0.63178 0.12810 0.18268
 C129 C 0.61308 0.15492 0.17438
 N130 N 0.61787 0.17265 0.14483
 C131 C 0.64093 0.16325 0.12363
 N132 N 0.65892 0.13659 0.13196
 C133 C 0.18211 0.66601 0.16235
 N134 N 0.15869 0.67230 0.18402
 C135 C 0.13946 0.69894 0.17862
 N136 N 0.14396 0.71984 0.15110
 C137 C 0.16776 0.71374 0.12921
 N138 N 0.18668 0.68684 0.13503
 C139 C 0.16082 0.12744 0.68774
 N140 N 0.18183 0.12979 0.66237
 C141 C 0.17776 0.15150 0.63586
 N142 N 0.15192 0.17119 0.63450
 C143 C 0.13032 0.16893 0.65981
 N144 N 0.13485 0.14709 0.68660
 C145 C 0.33038 0.64931 0.34630
 N146 N 0.31842 0.67508 0.36377
 C147 C 0.33628 0.70252 0.36986
 N148 N 0.36656 0.70345 0.35974
 C149 C 0.37892 0.67765 0.34303
 N150 N 0.36083 0.65052 0.33600
 C151 C 0.32983 0.13989 0.83152
 N152 N 0.35438 0.16175 0.82815
 C153 C 0.35205 0.19323 0.83998
 N154 N 0.32495 0.20265 0.85512
 C155 C 0.30023 0.18086 0.85776
 N156 N 0.30291 0.14969 0.84593
 C157 C 0.84410 0.60952 0.87416
 N158 N 0.86681 0.61245 0.85026
 C159 C 0.88852 0.63749 0.85172
 N160 N 0.88746 0.65935 0.87707
 C161 C 0.86487 0.65648 0.90099
 N162 N 0.84308 0.63173 0.89930
 C163 C 0.83193 0.14471 0.32053
 N164 N 0.80947 0.15203 0.34316
 C165 C 0.81220 0.17958 0.36198
 N166 N 0.83766 0.19993 0.35816
 C167 C 0.86040 0.19303 0.33553
 N168 N 0.85750 0.16531 0.31662
 C169 C 0.63481 0.36298 0.32162
 N170 N 0.60695 0.34704 0.31695
 C171 C 0.59328 0.32877 0.34227
 N172 N 0.60736 0.32660 0.37268
 C173 C 0.63533 0.34203 0.37789
 N174 N 0.64949 0.36009 0.35220
 C175 C 0.67229 0.84817 0.82522
 N176 N 0.65016 0.82355 0.82532
 C177 C 0.65074 0.79791 0.84869
 N178 N 0.67401 0.79681 0.87238
 C179 C 0.69657 0.82135 0.87218
 N180 N 0.69553 0.84687 0.84852
 C181 C 0.15752 0.39342 0.82017
 N182 N 0.15548 0.37662 0.85035
 C183 C 0.13257 0.35350 0.85627
 N184 N 0.11191 0.34644 0.83145
 C185 C 0.11386 0.36298 0.80100
 N186 N 0.13668 0.38659 0.79538
 C187 C 0.17131 0.88149 0.31555
 N188 N 0.17398 0.86024 0.34289
 C189 C 0.14926 0.84110 0.35349
 N190 N 0.12167 0.84316 0.33651
 C191 C 0.11860 0.86483 0.30952
 N192 N 0.14351 0.88390 0.29892
 O193 O 0.30077 1.00130 0.23374
 O194 O 0.23313 1.04708 0.26673
 O195 O 0.25702 0.98561 0.27530
 O196 O 0.28579 1.06242 0.23683
 O197 O 0.26131 1.05331 0.18892
 O198 O 0.22631 0.97623 0.23168
 O199 O 0.20757 1.03882 0.21935
 O200 O 0.27291 0.98776 0.18924
 Cu201 Cu 0.27082 1.02513 0.25761
 Cu202 Cu 0.23924 1.01298 0.20276
 C203 C 0.29824 0.98643 0.20600
 C204 C 0.20917 1.05174 0.24798
 C205 C 0.23700 0.96763 0.26079
 C206 C 0.27953 1.07121 0.20672
 O207 O 0.24506 0.55305 0.68460
 O208 O 0.21050 0.48726 0.74106
 O209 O 0.20524 0.55181 0.73452
 O210 O 0.23978 0.48860 0.68372
 O211 O 0.28273 0.48813 0.71492
 O212 O 0.24653 0.55482 0.76793
 O213 O 0.25320 0.48985 0.77259
 O214 O 0.28729 0.55490 0.71682
 Cu215 Cu 0.22116 0.52027 0.70798
 Cu216 Cu 0.27171 0.52230 0.74587
 C217 C 0.27216 0.56497 0.69106
 C218 C 0.22627 0.47766 0.76687
 C219 C 0.21847 0.56342 0.76020
 C220 C 0.26666 0.47693 0.69035
 O221 O 0.74442 -0.01831 0.31629
 O222 O 0.71005 0.03767 0.25089
 O223 O 0.70119 -0.02456 0.27056
 O224 O 0.75867 0.04239 0.29115
 O225 O 0.79155 0.02214 0.25425
 O226 O 0.73464 -0.04313 0.23316
 O227 O 0.74313 0.01797 0.21379
 O228 O 0.77698 -0.03827 0.27884
 Cu229 Cu 0.72549 0.01139 0.28616
 Cu230 Cu 0.76524 -0.01189 0.24151
 C231 C 0.76557 -0.03875 0.30836
 C232 C 0.72020 0.03661 0.22103
 C233 C 0.70833 -0.04504 0.24793
 C234 C 0.78487 0.04370 0.27571
 O235 O 0.75301 0.43225 0.77080
 O236 O 0.79297 0.50391 0.81194
 O237 O 0.79562 0.43834 0.81766
 O238 O 0.76753 0.49478 0.75176
 O239 O 0.72397 0.50360 0.77986
 O240 O 0.75483 0.44780 0.85017
 O241 O 0.74941 0.51068 0.84096
 O242 O 0.71276 0.44013 0.80449
 Cu243 Cu 0.78099 0.46672 0.78511
 Cu244 Cu 0.73112 0.47677 0.82029
 C245 C 0.72592 0.42365 0.78213
 C246 C 0.77745 0.51887 0.83448
 C247 C 0.78130 0.43387 0.84523
 C248 C 0.74129 0.50894 0.75387
 O249 O 0.23188 0.48986 0.30177
 O250 O 0.21239 0.56282 0.24424
 O251 O 0.19044 0.50164 0.25502
 O252 O 0.23952 0.55444 0.30413
 O253 O 0.28118 0.54557 0.27274
 O254 O 0.23041 0.48685 0.22363
 O255 O 0.25255 0.54916 0.21280
 O256 O 0.27318 0.48040 0.27009
 Cu257 Cu 0.21518 0.52862 0.27878
 Cu258 Cu 0.26309 0.51487 0.24151
 C259 C 0.25617 0.47264 0.29515
 C260 C 0.22947 0.56785 0.21816
 C261 C 0.20143 0.48409 0.23210
 C262 C 0.26833 0.55902 0.29803
 O263 O 0.74345 1.01274 0.67366
 O264 O 0.69903 0.94851 0.71984
 O265 O 0.69308 1.01058 0.70725
 O266 O 0.75707 0.94908 0.69409
 O267 O 0.78087 0.96538 0.74013
 O268 O 0.71671 1.02378 0.75457
 O269 O 0.72474 0.95917 0.76666
 O270 O 0.76853 1.02768 0.71951
 Cu271 Cu 0.72210 0.97803 0.69406
 Cu272 Cu 0.75012 0.99536 0.74983
 C273 C 0.76246 1.03203 0.68821
 C274 C 0.70390 0.94268 0.75090
 C275 C 0.69425 1.02756 0.73380
 C276 C 0.77970 0.94670 0.71509
 O277 O 0.76449 0.51074 0.19633
 O278 O 0.69937 0.45645 0.22697
 O279 O 0.72370 0.51290 0.24507
 O280 O 0.74093 0.45297 0.17925
 O281 O 0.77186 0.42538 0.21526
 O282 O 0.75680 0.48650 0.27965
 O283 O 0.73059 0.43038 0.26375
 O284 O 0.79622 0.48197 0.23050
 Cu285 Cu 0.72882 0.48598 0.20834
 Cu286 Cu 0.76708 0.45324 0.25078
 C287 C 0.79171 0.50509 0.20816
 C288 C 0.70362 0.43475 0.25074
 C289 C 0.73741 0.50989 0.27344
 C290 C 0.75961 0.42901 0.18626
 O291 O 0.27513 -0.04244 0.79263
 O292 O 0.21310 0.01942 0.77462
 O293 O 0.22666 -0.04081 0.74918
 O294 O 0.27185 0.02210 0.79792
 O295 O 0.29683 0.03694 0.75084
 O296 O 0.25285 -0.02199 0.70439
 O297 O 0.23797 0.03724 0.72865
 O298 O 0.29898 -0.02481 0.74592
 Cu299 Cu 0.24381 -0.01204 0.78248
 Cu300 Cu 0.27273 0.00874 0.72812
 C301 C 0.29839 -0.04312 0.77292
 C302 C 0.21503 0.03909 0.74897
 C303 C 0.23318 -0.04207 0.71782
 C304 C 0.29326 0.03905 0.78215
 O305 O 0.21175 0.22707 0.95551
 O306 O 0.20217 0.27956 1.02944
 O307 O 0.17033 0.26957 0.97154
 O308 O 0.23486 0.22490 1.01377
 O309 O 0.26888 0.26109 0.99070
 O310 O 0.20382 0.30759 0.95101
 O311 O 0.23834 0.31426 1.00851
 O312 O 0.24608 0.26427 0.93456
 Cu313 Cu 0.20108 0.24779 0.99577
 Cu314 Cu 0.24151 0.29170 0.96961
 C315 C 0.23165 0.23651 0.93306
 C316 C 0.21937 0.30563 1.03169
 C317 C 0.17624 0.29516 0.95279
 C318 C 0.26286 0.23389 1.00732
 O319 O 0.25883 0.73852 0.46290
 O320 O 0.20147 0.75219 0.52924
 O321 O 0.20032 0.75714 0.46377
 O322 O 0.26241 0.74381 0.52827
 O323 O 0.27395 0.79798 0.52544
 O324 O 0.21280 0.81109 0.46180
 O325 O 0.21334 0.80628 0.52804
 O326 O 0.27115 0.79251 0.46059
 Cu327 Cu 0.22962 0.74260 0.49633
 Cu328 Cu 0.24379 0.80735 0.49370
 C329 C 0.27466 0.76287 0.45033
 C330 C 0.19757 0.78133 0.54005
 C331 C 0.19652 0.78679 0.45154
 C332 C 0.27890 0.76870 0.53754
 O333 O 0.31322 0.76206 -0.02460
 O334 O 0.24568 0.74262 0.03088
 O335 O 0.25899 0.73444 -0.03268
 O336 O 0.30344 0.76006 0.04055
 O337 O 0.28847 0.81280 0.03440
 O338 O 0.24574 0.78731 -0.04310
 O339 O 0.22949 0.79467 0.02201
 O340 O 0.29841 0.81490 -0.03137
 Cu341 Cu 0.28189 0.74489 0.00447
 Cu342 Cu 0.26337 0.80748 -0.00490
 C343 C 0.31680 0.79130 -0.03827
 C344 C 0.22610 0.76577 0.03609
 C345 C 0.24645 0.75672 -0.05160
 C346 C 0.30355 0.78983 0.05064
 O347 O 0.31244 0.22146 0.46268
 O348 O 0.27135 0.17772 0.53090
 O349 O 0.26711 0.17823 0.46651
 O350 O 0.31241 0.22569 0.52725
 O351 O 0.27642 0.26523 0.52720
 O352 O 0.23064 0.21733 0.46429
 O353 O 0.23416 0.21604 0.53064
 O354 O 0.27681 0.26147 0.46059
 Cu355 Cu 0.29436 0.19704 0.49700
 Cu356 Cu 0.25086 0.24411 0.49564
 C357 C 0.30194 0.24855 0.44968
 C358 C 0.24588 0.18869 0.54235
 C359 C 0.24125 0.18944 0.45492
 C360 C 0.30242 0.25339 0.53776
 O361 O 0.78894 0.79899 0.98155
 O362 O 0.81496 0.75792 1.06129
 O363 O 0.83417 0.75684 0.99833
 O364 O 0.78299 0.81029 1.04440
 O365 O 0.74495 0.77231 1.04417
 O366 O 0.79616 0.71993 0.99096
 O367 O 0.77880 0.71843 1.05573
 O368 O 0.74934 0.76297 0.97966
 Cu369 Cu 0.80913 0.78419 1.02148
 Cu370 Cu 0.76419 0.73960 1.01699
 C371 C 0.76390 0.78847 0.96760
 C372 C 0.80098 0.73132 1.07226
 C373 C 0.82434 0.73002 0.98589
 C374 C 0.75568 0.80080 1.05283
 O375 O 0.73267 0.31056 0.46175
 O376 O 0.79540 0.27229 0.51367
 O377 O 0.77175 0.26062 0.45442
 O378 O 0.75179 0.31599 0.52402
 O379 O 0.71940 0.27679 0.54462
 O380 O 0.73679 0.22385 0.47433
 O381 O 0.76230 0.23351 0.53353
 O382 O 0.69884 0.27422 0.48475
 Cu383 Cu 0.76627 0.29361 0.48624
 Cu384 Cu 0.72611 0.24797 0.51086
 C385 C 0.70484 0.29968 0.46557
 C386 C 0.78954 0.24679 0.53268
 C387 C 0.75728 0.23269 0.45270
 C388 C 0.73216 0.30544 0.54623
 O389 O 0.72036 0.17480 0.02385
 O390 O 0.78599 0.18503 -0.03770
 O391 O 0.78233 0.18964 0.02522
 O392 O 0.73630 0.14830 -0.03599
 O393 O 0.71427 0.19555 -0.05417
 O394 O 0.76194 0.23897 0.01108
 O395 O 0.76420 0.23322 -0.05367
 O396 O 0.70074 0.22280 0.00453
 Cu397 Cu 0.75664 0.16996 -0.00382
 Cu398 Cu 0.73309 0.22671 -0.02412
 C399 C 0.69944 0.19768 0.02455
 C400 C 0.78605 0.21227 -0.05580
 C401 C 0.78165 0.22099 0.02814
 C402 C 0.71871 0.16397 -0.05658
 O403 O 0.77968 0.71208 0.47735
 O404 O 0.72976 0.68594 0.54814
 O405 O 0.72571 0.67808 0.48227
 O406 O 0.77216 0.73385 0.53851
 O407 O 0.73930 0.77443 0.52395
 O408 O 0.69420 0.72093 0.47163
 O409 O 0.69745 0.72775 0.53595
 O410 O 0.74813 0.75410 0.46353
 Cu411 Cu 0.75469 0.69855 0.51248
 Cu412 Cu 0.71689 0.74808 0.49735
 C413 C 0.77313 0.73746 0.45868
 C414 C 0.70511 0.70205 0.55428
 C415 C 0.70128 0.69065 0.46803
 C416 C 0.76307 0.76428 0.54019
 O417 O 1.03499 0.30041 0.23703
 O418 O 0.96953 0.27621 0.29415
 O419 O 1.03030 0.26993 0.29576
 O420 O 0.97462 0.31059 0.23769
 O421 O 0.96584 0.26321 0.21206
 O422 O 1.02580 0.22251 0.26907
 O423 O 0.96370 0.22817 0.26876
 O424 O 1.02699 0.25361 0.21009
 Cu425 Cu 1.00295 0.29392 0.26873
 Cu426 Cu 0.99501 0.23709 0.23742
 C427 C 1.04204 0.28086 0.21369
 C428 C 0.95537 0.24825 0.29104
 C429 C 1.03817 0.23968 0.29219
 C430 C 0.96024 0.29426 0.21552
 O431 O 0.46512 0.27225 0.80135
 O432 O 0.53230 0.29132 0.74443
 O433 O 0.47550 0.31713 0.75559
 O434 O 0.52270 0.25528 0.80115
 O435 O 0.51118 0.21594 0.76526
 O436 O 0.45849 0.27801 0.72194
 O437 O 0.51566 0.25221 0.71056
 O438 O 0.45199 0.22980 0.76981
 Cu439 Cu 0.50117 0.28785 0.77810
 Cu440 Cu 0.48242 0.24102 0.73824
 C441 C 0.44713 0.24748 0.79518
 C442 C 0.53536 0.27487 0.71773
 C443 C 0.45788 0.30806 0.73190
 C444 C 0.52554 0.22557 0.79142
 O445 O -0.03450 0.29543 0.73469
 O446 O 0.01814 0.25018 0.68019
 O447 O -0.04124 0.23755 0.70166
 O448 O 0.01988 0.30179 0.71403
 O449 O 0.03535 0.27290 0.75964
 O450 O -0.02348 0.20669 0.74471
 O451 O 0.03467 0.21943 0.72404
 O452 O -0.02181 0.26209 0.77824
 Cu453 Cu -0.01235 0.27272 0.70295
 Cu454 Cu 0.00776 0.23684 0.75595
 C455 C -0.03639 0.28733 0.76580
 C456 C 0.03657 0.22836 0.69306
 C457 C -0.04291 0.21139 0.72081
 C458 C 0.03752 0.29853 0.73974
 O459 O 0.46374 0.30648 0.22279
 O460 O 0.52620 0.24405 0.20682
 O461 O 0.47467 0.26288 0.17640
 O462 O 0.51680 0.28943 0.25131
 O463 O 0.49118 0.25192 0.28334
 O464 O 0.44913 0.22503 0.20806
 O465 O 0.50069 0.20694 0.23934
 O466 O 0.43893 0.26825 0.25463
 Cu467 Cu 0.49788 0.27955 0.21113
 Cu468 Cu 0.46729 0.23413 0.24927
 C469 C 0.44092 0.29785 0.24198
 C470 C 0.52405 0.21490 0.22087
 C471 C 0.45474 0.23926 0.17956
 C472 C 0.51132 0.27539 0.27986
 O473 O 0.98181 0.73561 0.71219
 O474 O 1.04024 0.71332 0.77736
 O475 O 0.98604 0.68922 0.75941
 O476 O 1.03728 0.75866 0.72914
 O477 O 1.01507 0.79276 0.76453
 O478 O 0.96361 0.72360 0.79438
 O479 O 1.01750 0.74759 0.81224
 O480 O 0.95923 0.77033 0.74666
 Cu481 Cu 1.01357 0.72087 0.74087
 Cu482 Cu 0.98630 0.76209 0.78275
 C483 C 0.96036 0.75644 0.71844
 C484 C 1.03900 0.72691 0.80575
 C485 C 0.96620 0.69470 0.78229
 C486 C 1.03559 0.78711 0.74237
 O487 O 0.55441 0.76224 0.23816
 O488 O 0.49848 0.72626 0.29953
 O489 O 0.55382 0.71098 0.28010
 O490 O 0.50000 0.78025 0.26002
 O491 O 0.47811 0.75196 0.21923
 O492 O 0.53135 0.68094 0.24091
 O493 O 0.47485 0.69847 0.25941
 O494 O 0.53298 0.73202 0.19846
 Cu495 Cu 0.52872 0.74802 0.27342
 Cu496 Cu 0.50198 0.71287 0.22551
 C497 C 0.55355 0.75281 0.20801
 C498 C 0.47726 0.70619 0.28997
 C499 C 0.55178 0.68415 0.26407
 C500 C 0.48027 0.77836 0.23616
 O501 O 0.02014 0.79517 0.28489
 O502 O -0.02173 0.71828 0.26343
 O503 O 0.03524 0.73726 0.26540
 O504 O -0.03955 0.77616 0.28679
 O505 O -0.04288 0.79769 0.23490
 O506 O 0.03103 0.75582 0.21247
 O507 O -0.02839 0.73910 0.21158
 O508 O 0.01618 0.81469 0.23225
 Cu509 Cu -0.00154 0.75507 0.28062
 Cu510 Cu -0.00683 0.77880 0.21750
 C511 C 0.02656 0.81717 0.26197
 C512 C -0.03167 0.71548 0.23356
 C513 C 0.04581 0.73955 0.23556
 C514 C -0.05373 0.79400 0.26460
 O515 O 0.54036 0.71557 0.81413
 O516 O 0.47653 0.69582 0.75287
 O517 O 0.52941 0.66699 0.77312
 O518 O 0.48773 0.74376 0.79565
 O519 O 0.51274 0.77221 0.75502
 O520 O 0.55506 0.69715 0.73416
 O521 O 0.50347 0.72390 0.71353
 O522 O 0.56462 0.74582 0.77423
 Cu523 Cu 0.50575 0.70254 0.78792
 Cu524 Cu 0.53636 0.73761 0.74015
 C525 C 0.56307 0.73455 0.80445
 C526 C 0.47978 0.70619 0.72236
 C527 C 0.54979 0.66949 0.74989
 C528 C 0.49360 0.77106 0.77937
 C529 C 0.37923 0.34252 0.27772
 C530 C 0.38756 0.36699 0.25386
 C531 C 0.41210 0.35368 0.23653
 C532 C 0.41658 0.32206 0.25101
 O533 O 0.39674 0.31539 0.27590
 H534 H 0.37746 0.39168 0.25004
 H535 H 0.42524 0.36562 0.21606
 C536 C 0.44541 0.83393 0.80879
 C537 C 0.46047 0.85285 0.78374
 C538 C 0.48174 0.83195 0.77047
 C539 C 0.47782 0.80183 0.78816
 O540 O 0.45611 0.80296 0.81177
 H541 H 0.45561 0.87840 0.77523
 H542 H 0.49721 0.83749 0.74938
 C543 C -0.08524 0.32299 0.82543
 C544 C -0.07753 0.35216 0.80744
 C545 C -0.05788 0.34251 0.78268
 C546 C -0.05483 0.30830 0.78769
 O547 O -0.07132 0.29629 0.81361
 H548 H -0.08651 0.37714 0.81084
 H549 H -0.04740 0.35836 0.76299
 C550 C -0.12155 0.82709 0.30080
 C551 C -0.11835 0.85018 0.27417
 C552 C -0.09322 0.83984 0.25634
 C553 C -0.08251 0.81160 0.27364
 O554 O -0.09970 0.80360 0.30060
 H555 H -0.13268 0.87197 0.26839
 H556 H -0.08323 0.85202 0.23400
 C557 C 0.61009 0.63045 0.29703
 C558 C 0.60222 0.61180 0.26961
 C559 C 0.57839 0.62895 0.25379
 C560 C 0.57382 0.65691 0.27257
 O561 O 0.59293 0.65782 0.29885
 H562 H 0.61274 0.58865 0.26199
 H563 H 0.56636 0.62234 0.23092
 C564 C 0.58377 0.17157 0.82387
 C565 C 0.57689 0.18828 0.85281
 C566 C 0.55259 0.20863 0.84459
 C567 C 0.54620 0.20311 0.81124
 O568 O 0.56488 0.18029 0.79843
 H569 H 0.58890 0.18669 0.87687
 H570 H 0.54180 0.22674 0.86052
 C571 C 1.10703 0.70377 0.84999
 C572 C 1.09565 0.72565 0.87306
 C573 C 1.06728 0.73588 0.86053
 C574 C 1.06378 0.71972 0.83061
 O575 O 1.08778 0.70013 0.82425
 H576 H 1.10720 0.73409 0.89555
 H577 H 1.05183 0.75424 0.87098
 C578 C 1.10099 0.19802 0.33384
 C579 C 1.09558 0.22215 0.35714
 C580 C 1.07067 0.24000 0.34493
 C581 C 1.06237 0.22544 0.31517
 O582 O 1.08072 0.19982 0.30831
 H583 H 1.10872 0.22676 0.37989
 H584 H 1.06020 0.26166 0.35600
 C585 C 0.60587 0.29987 0.67768
 C586 C 0.59405 0.28098 0.65210
 C587 C 0.56575 0.26902 0.66365
 C588 C 0.56233 0.28177 0.69527
 O589 O 0.58666 0.30044 0.70384
 H590 H 0.60491 0.27622 0.62816
 H591 H 0.54957 0.25288 0.65064
 C592 C 0.61489 0.79445 0.16541
 C593 C 0.60863 0.77114 0.14131
 C594 C 0.58379 0.75272 0.15360
 C595 C 0.57714 0.76601 0.18431
 O596 O 0.59583 0.79133 0.19148
 H597 H 0.62075 0.76791 0.11774
 H598 H 0.57242 0.73166 0.14203
 C599 C 1.10775 0.31324 0.16928
 C600 C 1.10301 0.28476 0.15105
 C601 C 1.07740 0.26924 0.16505
 C602 C 1.06830 0.28927 0.19080
 O603 O 1.08663 0.31609 0.19348
 H604 H 1.11673 0.27616 0.13017
 H605 H 1.06682 0.24585 0.15765
 C606 C 1.09779 0.83614 0.70980
 C607 C 1.09038 0.85627 0.73617
 C608 C 1.06476 0.84136 0.75113
 C609 C 1.05876 0.81316 0.73295
 O610 O 1.07867 0.80999 0.70786
 H611 H 1.10227 0.87890 0.74369
 H612 H 1.05263 0.84937 0.77332
 C613 C 0.41541 0.68882 0.66887
 C614 C 0.43891 0.69064 0.64513
 C615 C 0.46581 0.69602 0.66252
 C616 C 0.45703 0.69727 0.69583
 O617 O 0.42620 0.69297 0.69995
 H618 H 0.43640 0.68964 0.61806
 H619 H 0.48908 0.69975 0.65206
 C620 C 0.40257 0.20528 0.12199
 C621 C 0.41925 0.22514 0.09898
 C622 C 0.44198 0.24035 0.11747
 C623 C 0.43732 0.22845 0.15013
 O624 O 0.41363 0.20714 0.15289
 H625 H 0.41482 0.22883 0.07226
 H626 H 0.45936 0.25845 0.10842
 C627 C -0.07940 0.65244 0.20211
 C628 C -0.06136 0.63202 0.22321
 C629 C -0.04064 0.65317 0.23802
 C630 C -0.04733 0.68456 0.22429
 O631 O -0.07066 0.68425 0.20247
 H632 H -0.06401 0.60530 0.22843
 H633 H -0.02305 0.64665 0.25680
 C634 C -0.10720 0.16422 0.69304
 C635 C -0.09955 0.14329 0.72018
 C636 C -0.07385 0.15796 0.73453
 C637 C -0.06795 0.18667 0.71499
 O638 O -0.08811 0.19044 0.68992
 H639 H -0.11124 0.12025 0.72846
 H640 H -0.06110 0.14897 0.75662
 C641 C 0.28945 0.39923 0.33007
 C642 C 0.26588 0.40211 0.35364
 C643 C 0.24990 0.43057 0.34412
 C644 C 0.26506 0.44282 0.31559
 O645 O 0.28894 0.42388 0.30704
 H646 H 0.26079 0.38530 0.37497
 H647 H 0.22959 0.44092 0.35623
 C648 C 0.35977 -0.09437 0.80471
 C649 C 0.37494 -0.07815 0.77781
 C650 C 0.35349 -0.05816 0.76273
 C651 C 0.32650 -0.06291 0.78125
 O652 O 0.33000 -0.08484 0.80719
 H653 H 0.39895 -0.08103 0.76952
 H654 H 0.35720 -0.04163 0.74084
 C655 C 0.83025 0.37578 0.88245
 C656 C 0.84398 0.40453 0.89403
 C657 C 0.82263 0.42927 0.88790
 C658 C 0.79786 0.41433 0.87155
 O659 O 0.80249 0.38170 0.86843
 H660 H 0.86767 0.40754 0.90348
 H661 H 0.82688 0.45593 0.89003
 C662 C 0.79610 -0.10967 0.35023
 C663 C 0.77584 -0.10083 0.37539
 C664 C 0.76261 -0.07144 0.36391
 C665 C 0.77585 -0.06486 0.33267
 O666 O 0.79617 -0.08793 0.32442
 H667 H 0.77084 -0.11451 0.39882
 H668 H 0.74454 -0.05733 0.37612
 C669 C 0.31363 0.63070 0.64980
 C670 C 0.29152 0.62494 0.62510
 C671 C 0.27359 0.59900 0.63714
 C672 C 0.28597 0.59074 0.66833
 O673 O 0.31046 0.60978 0.67622
 H674 H 0.28822 0.63887 0.60147
 H675 H 0.25342 0.58793 0.62503
 C676 C 0.31900 1.13751 0.16317
 C677 C 0.32772 1.14432 0.19571
 C678 C 0.31189 1.12196 0.21553
 C679 C 0.29495 1.10234 0.19395
 O680 O 0.29872 1.11201 0.16181
 H681 H 0.34425 1.16308 0.20403
 H682 H 0.31382 1.11909 0.24266
 C683 C 0.84653 0.56694 0.18217
 C684 C 0.86719 0.54258 0.19399
 C685 C 0.84919 0.51573 0.20330
 C686 C 0.81877 0.52542 0.19666
 O687 O 0.81690 0.55642 0.18335
 H688 H 0.89241 0.54471 0.19702
 H689 H 0.85714 0.49240 0.21512
 C690 C 0.80116 1.10310 0.65167
 C691 C 0.77954 1.09741 0.62649
 C692 C 0.76330 1.06968 0.63690
 C693 C 0.77568 1.06041 0.66792
 O694 O 0.79889 1.08062 0.67715
 H695 H 0.77608 1.11172 0.60310
 H696 H 0.74413 1.05792 0.62368
 C697 C 0.70630 0.56944 0.32616
 C698 C 0.73050 0.55905 0.34710
 C699 C 0.74600 0.53535 0.32981
 C700 C 0.73010 0.53338 0.29965
 O701 O 0.70605 0.55400 0.29735
 H702 H 0.73579 0.56727 0.37217
 H703 H 0.76616 0.52095 0.33828
 C704 C 0.64627 1.08893 0.76809
 C705 C 0.62842 1.08453 0.73949
 C706 C 0.64387 1.06050 0.72204
 C707 C 0.66986 1.05221 0.74140
 O708 O 0.67124 1.06940 0.76910
 H709 H 0.60685 1.09711 0.73228
 H710 H 0.63705 1.05030 0.69821
 C711 C 0.17970 0.62258 0.81045
 C712 C 0.15427 0.60457 0.79885
 C713 C 0.16631 0.58026 0.78026
 C714 C 0.19843 0.58454 0.78129
 O715 O 0.20703 0.61026 0.80003
 H716 H 0.12953 0.60896 0.80299
 H717 H 0.15306 0.56176 0.76671
 C718 C 0.16005 1.10864 0.28757
 C719 C 0.14169 1.10461 0.25929
 C720 C 0.15714 1.08158 0.24087
 C721 C 0.18370 1.07337 0.25931
 O722 O 0.18543 1.08965 0.28762
 H723 H 0.12007 1.11734 0.25259
 H724 H 0.15034 1.07256 0.21653
 C725 C 0.68544 0.36325 0.73715
 C726 C 0.67153 0.35691 0.76802
 C727 C 0.68658 0.37747 0.78931
 C728 C 0.70865 0.39469 0.76988
 O729 O 0.70816 0.38607 0.73811
 H730 H 0.65201 0.34019 0.77397
 H731 H 0.68122 0.38071 0.81560
 C732 C 0.66753 -0.11116 0.21111
 C733 C 0.64697 -0.10690 0.23746
 C734 C 0.65915 -0.08086 0.25496
 C735 C 0.68629 -0.07150 0.23812
 O736 O 0.69135 -0.08973 0.21157
 H737 H 0.62568 -0.12098 0.24317
 H738 H 0.64965 -0.07028 0.27745
 C739 C 0.16185 0.41682 0.19486
 C740 C 0.13681 0.42999 0.21162
 C741 C 0.14833 0.45783 0.22604
 C742 C 0.17971 0.45965 0.21726
 O743 O 0.18807 0.43473 0.19809
 H744 H 0.11304 0.42025 0.21328
 H745 H 0.13560 0.47435 0.24208
 C746 C 0.19119 -0.10405 0.67498
 C747 C 0.21434 -0.09710 0.65143
 C748 C 0.23246 -0.07306 0.66480
 C749 C 0.21943 -0.06708 0.69575
 O750 O 0.19414 -0.08583 0.70220
 H751 H 0.21763 -0.10823 0.62724
 H752 H 0.25304 -0.06133 0.65339
 C753 C 0.33250 0.29494 0.38013
 C754 C 0.35530 0.27061 0.38259
 C755 C 0.34689 0.25059 0.40940
 C756 C 0.31952 0.26408 0.42137
 O757 O 0.31061 0.29117 0.40368
 H758 H 0.37559 0.26773 0.36660
 H759 H 0.35905 0.22843 0.41891
 C760 C 0.36676 0.81510 -0.10579
 C761 C 0.38219 0.78645 -0.09440
 C762 C 0.36592 0.77461 -0.06717
 C763 C 0.34178 0.79690 -0.06344
 O764 O 0.34203 0.82167 -0.08689
 H765 H 0.40286 0.77523 -0.10496
 H766 H 0.37077 0.75208 -0.05207
 C767 C 0.83980 0.25531 -0.10725
 C768 C 0.85596 0.22533 -0.10590
 C769 C 0.83759 0.20356 -0.08678
 C770 C 0.81176 0.22213 -0.07839
 O771 O 0.81316 0.25322 -0.09075
 H772 H 0.87888 0.22040 -0.11626
 H773 H 0.84280 0.17787 -0.07910
 C774 C 0.81885 0.77713 0.39486
 C775 C 0.83578 0.74785 0.39804
 C776 C 0.82054 0.72883 0.42220
 C777 C 0.79529 0.74782 0.43176
 O778 O 0.79422 0.77719 0.41522
 H779 H 0.85680 0.74130 0.38457
 H780 H 0.82714 0.70414 0.43189
 C781 C 0.70194 0.33959 0.61898
 C782 C 0.72530 0.36331 0.61316
 C783 C 0.73942 0.35454 0.58397
 C784 C 0.72379 0.32595 0.57459
 O785 O 0.70101 0.31693 0.59565
 H786 H 0.73160 0.38410 0.62867
 H787 H 0.75930 0.36677 0.57167
 C788 C 0.70704 0.84101 1.10998
 C789 C 0.72703 0.86751 1.10243
 C790 C 0.74677 0.85615 1.07870
 C791 C 0.73746 0.82346 1.07354
 O792 O 0.71315 0.81413 1.09243
 H793 H 0.72765 0.89188 1.11359
 H794 H 0.76643 0.86967 1.06736
 C795 C 0.19920 0.34646 1.10498
 C796 C 0.22447 0.36668 1.09609
 C797 C 0.23603 0.35357 1.06746
 C798 C 0.21689 0.32639 1.06121
 O799 O 0.19459 0.32197 1.08395
 H800 H 0.23294 0.38871 1.10853
 H801 H 0.25566 0.36302 1.05257
 C802 C 0.15378 0.80563 0.60958
 C803 C 0.13791 0.77600 0.60436
 C804 C 0.15190 0.76302 0.57687
 C805 C 0.17497 0.78594 0.56731
 O806 O 0.17616 0.81176 0.58711
 H807 H 0.11922 0.76471 0.61944
 H808 H 0.14637 0.73940 0.56552
 C809 C 0.33247 0.73999 0.59913
 C810 C 0.34542 0.77155 0.59411
 C811 C 0.32674 0.78704 0.57029
 C812 C 0.30408 0.76354 0.56251
 O813 O 0.30752 0.73509 0.57999
 H814 H 0.36576 0.78200 0.60645
 H815 H 0.32941 0.81229 0.55968
 C816 C 0.31841 0.18174 1.04717
 C817 C 0.33467 0.18861 1.01766
 C818 C 0.31533 0.20826 0.99830
 C819 C 0.28875 0.21190 1.01743
 O820 O 0.29032 0.19570 1.04698
 H821 H 0.35887 0.18265 1.01229
 H822 H 0.32050 0.21990 0.97388
 C823 C 0.82712 0.68345 1.14278
 C824 C 0.82550 0.71432 1.15733
 C825 C 0.81432 0.73585 1.13298
 C826 C 0.80982 0.71665 1.10529
 O827 O 0.81759 0.68474 1.11096
 H828 H 0.83376 0.72079 1.18208
 H829 H 0.81106 0.76265 1.13467
 C830 C 0.83599 0.20421 0.59306
 C831 C 0.85778 0.22852 0.58366
 C832 C 0.84364 0.24726 0.55860
 C833 C 0.81426 0.23302 0.55484
 O834 O 0.80959 0.20686 0.57565
 H835 H 0.88095 0.23240 0.59417
 H836 H 0.85320 0.26922 0.54536
 C837 C 0.66206 0.64713 0.40543
 C838 C 0.63628 0.66100 0.42026
 C839 C 0.64777 0.67655 0.44755
 C840 C 0.67973 0.67100 0.44748
 O841 O 0.68859 0.65302 0.42187
 H842 H 0.61221 0.66094 0.41142
 H843 H 0.63472 0.69195 0.46444
 C844 C 0.67909 0.13017 -0.12559
 C845 C 0.69948 0.10412 -0.11898
 C846 C 0.71624 0.11337 -0.09175
 C847 C 0.70513 0.14463 -0.08394
 O848 O 0.68241 0.15501 -0.10446
 H849 H 0.70173 0.08110 -0.13238
 H850 H 0.73486 0.09926 -0.07934
 C851 C 0.21670 0.71755 -0.12308
 C852 C 0.22527 0.74780 -0.13854
 C853 C 0.23713 0.76688 -0.11362
 C854 C 0.23473 0.74698 -0.08469
 O855 O 0.22225 0.71714 -0.09024
 H856 H 0.22098 0.75591 -0.16443
 H857 H 0.24607 0.79234 -0.11612
 C858 C 0.19424 0.15410 0.39166
 C859 C 0.21411 0.12743 0.39801
 C860 C 0.23346 0.13715 0.42302
 C861 C 0.22421 0.16915 0.43032
 O862 O 0.20017 0.17966 0.41137
 H863 H 0.21479 0.10385 0.38537
 H864 H 0.25258 0.12283 0.43418
 C865 C 0.30179 0.40844 0.65054
 C866 C 0.27712 0.41368 0.62860
 C867 C 0.26163 0.44053 0.64036
 C868 C 0.27787 0.44992 0.66873
 O869 O 0.30245 0.43043 0.67502
 H870 H 0.27097 0.39938 0.60688
 H871 H 0.24049 0.45164 0.62981
 C872 C 0.35343 0.92894 0.17678
 C873 C 0.37402 0.95309 0.18792
 C874 C 0.35584 0.97831 0.19883
 C875 C 0.32539 0.96799 0.19349
 O876 O 0.32366 0.93796 0.18003
 H877 H 0.39934 0.95149 0.18982
 H878 H 0.36375 1.00094 0.21062
 C879 C 0.79331 0.36818 0.13702
 C880 C 0.76836 0.37542 0.11581
 C881 C 0.75205 0.40002 0.13117
 C882 C 0.76816 0.40529 0.16069
 O883 O 0.79315 0.38615 0.16420
 H884 H 0.76290 0.36429 0.09204
 H885 H 0.73087 0.41228 0.12221
 C886 C 0.82919 0.88031 0.69375
 C887 C 0.84610 0.89080 0.72109
 C888 C 0.83003 0.91765 0.73241
 C889 C 0.80454 0.92156 0.71109
 O890 O 0.80398 0.89892 0.68760
 H891 H 0.86735 0.87998 0.73165
 H892 H 0.83594 0.93237 0.75393
 C893 C 0.70667 0.56666 0.69576
 C894 C 0.73412 0.56174 0.67846
 C895 C 0.75042 0.53898 0.69788
 C896 C 0.73176 0.53180 0.72569
 O897 O 0.70511 0.54856 0.72445
 H898 H 0.74143 0.57352 0.65476
 H899 H 0.77343 0.52909 0.69262
 C900 C 0.67614 0.09096 0.16859
 C901 C 0.69480 0.07749 0.14419
 C902 C 0.71362 0.05516 0.16080
 C903 C 0.70516 0.05670 0.19412
 O904 O 0.68227 0.07832 0.19910
 H905 H 0.69510 0.08381 0.11746
 H906 H 0.73163 0.03985 0.15000
 C907 C 0.20285 0.63737 0.16929
 C908 C 0.22757 0.62889 0.14907
 C909 C 0.24070 0.60154 0.16483
 C910 C 0.22303 0.59541 0.19354
 O911 O 0.19996 0.61713 0.19634
 H912 H 0.23517 0.64127 0.12577
 H913 H 0.26086 0.58772 0.15649
 C914 C 0.16714 0.10281 0.71517
 C915 C 0.14879 0.09551 0.74310
 C916 C 0.16435 0.07027 0.76047
 C917 C 0.19085 0.06437 0.74164
 O918 O 0.19246 0.08403 0.71438
 H919 H 0.12679 0.10691 0.74977
 H920 H 0.15716 0.05759 0.78376
 C921 C 0.31128 0.61881 0.34270
 C922 C 0.29249 0.60638 0.36842
 C923 C 0.27609 0.58080 0.35518
 C924 C 0.28579 0.57940 0.32213
 O925 O 0.30746 0.60250 0.31431
 H926 H 0.29030 0.61567 0.39357
 H927 H 0.25783 0.56595 0.36761
 C928 C 0.33104 0.10620 0.81849
 C929 C 0.35728 0.09175 0.80518
 C930 C 0.34665 0.06252 0.79240
 C931 C 0.31488 0.06129 0.79930
 O932 O 0.30532 0.08780 0.81508
 H933 H 0.38081 0.10211 0.80341
 H934 H 0.35998 0.04519 0.77780
 C935 C 0.81970 0.58362 0.87227
 C936 C 0.79567 0.58032 0.89532
 C937 C 0.77716 0.55541 0.88397
 C938 C 0.79126 0.54519 0.85485
 O939 O 0.81729 0.56221 0.84758
 H940 H 0.79183 0.59479 0.91746
 H941 H 0.75568 0.54590 0.89544
 C942 C 0.82800 0.11440 0.30082
 C943 C 0.84946 0.10298 0.27809
 C944 C 0.83627 0.07455 0.26590
 C945 C 0.80773 0.07076 0.28210
 O946 O 0.80266 0.09492 0.30332
 H947 H 0.87192 0.11408 0.27120
 H948 H 0.84614 0.05862 0.24720
 C949 C 0.64755 0.38391 0.29340
 C950 C 0.63016 0.39204 0.26492
 C951 C 0.64903 0.41213 0.24534
 C952 C 0.67673 0.41460 0.26305
 O953 O 0.67603 0.39755 0.29239
 H954 H 0.60628 0.38455 0.25929
 H955 H 0.64332 0.42364 0.22102
 C956 C 0.67141 0.87541 0.79927
 C957 C 0.64810 0.87833 0.77524
 C958 C 0.65690 0.90475 0.75478
 C959 C 0.68486 0.91623 0.76790
 O960 O 0.69381 0.89850 0.79504
 H961 H 0.62757 0.86249 0.77244
 H962 H 0.64480 0.91409 0.73240
 C963 C 0.18352 0.41716 0.81416
 C964 C 0.20783 0.42141 0.83665
 C965 C 0.22727 0.44448 0.82152
 C966 C 0.21329 0.45268 0.79101
 O967 O 0.18668 0.43614 0.78635
 H968 H 0.21110 0.40895 0.86106
 H969 H 0.24895 0.45437 0.83159
 C970 C 0.19887 0.90066 0.30361
 C971 C 0.22847 0.89609 0.31701
 C972 C 0.24678 0.91958 0.30101
 C973 C 0.22711 0.93664 0.27882
 O974 O 0.19787 0.92522 0.28019
 H975 H 0.23563 0.87836 0.33679
 H976 H 0.27138 0.92460 0.30578
 C977 C 0.39755 0.35226 0.69008
 C978 C 0.40723 0.37758 0.71051
 C979 C 0.43213 0.36467 0.72811
 C980 C 0.43562 0.33243 0.71714
 O981 O 0.41470 0.32484 0.69400
 H982 H 0.39712 0.40224 0.71259
 H983 H 0.44559 0.37693 0.74733
 C984 C 0.42597 0.83889 0.20612
 C985 C 0.44087 0.85800 0.22970
 C986 C 0.46303 0.83765 0.24406
 C987 C 0.46016 0.80756 0.22821
 O988 O 0.43763 0.80815 0.20508
 H989 H 0.43600 0.88368 0.23583
 H990 H 0.47942 0.84400 0.26374
 C991 C 0.89650 0.32356 0.16566
 C992 C 0.90688 0.35386 0.17728
 C993 C 0.93278 0.34665 0.19599
 C994 C 0.93649 0.31236 0.19476
 O995 O 0.91448 0.29807 0.17613
 H996 H 0.89632 0.37830 0.17317
 H997 H 0.94677 0.36422 0.20992
 C998 C 0.89638 0.78397 0.66894
 C999 C 0.90739 0.76011 0.64770
 C1000 C 0.93332 0.74706 0.66323
 C1001 C 0.93614 0.76380 0.69287
 O1002 O 0.91377 0.78629 0.69644
 H1003 H 0.89770 0.75316 0.62371
 H1004 H 0.94819 0.72738 0.65426
 C1005 C 0.56458 0.30975 0.33586
 C1006 C 0.54861 0.28982 0.35935
 C1007 C 0.52546 0.27444 0.34160
 C1008 C 0.52929 0.28631 0.30882
 O1009 O 0.55287 0.30770 0.30531
 H1010 H 0.55380 0.28621 0.38591
 H1011 H 0.50842 0.25623 0.35117
 C1012 C 0.62619 0.77169 0.84701
 C1013 C 0.61899 0.74774 0.87181
 C1014 C 0.59386 0.73021 0.85950
 C1015 C 0.58794 0.74462 0.82803
 O1016 O 0.60746 0.76972 0.82055
 H1017 H 0.63031 0.74390 0.89604
 H1018 H 0.58144 0.70946 0.87189
 C1019 C 0.09278 0.35320 0.77382
 C1020 C 0.08956 0.37007 0.74309
 C1021 C 0.06811 0.35174 0.72576
 C1022 C 0.06028 0.32498 0.74720
 O1023 O 0.07512 0.32587 0.77633
 H1024 H 0.10134 0.39294 0.73446
 H1025 H 0.05934 0.35711 0.70056
 C1026 C 0.08954 0.86430 0.28991
 C1027 C 0.08348 0.88386 0.26130
 C1028 C 0.05686 0.87040 0.24787
 C1029 C 0.04884 0.84386 0.26951
 O1030 O 0.06848 0.84030 0.29500
 H1031 H 0.09785 0.90395 0.25040
 H1032 H 0.04596 0.87751 0.22406
 C1033 C 0.60509 0.61646 0.71702
 C1034 C 0.59582 0.59478 0.74310
 C1035 C 0.57181 0.61086 0.75860
 C1036 C 0.56878 0.64100 0.74076
 O1037 O 0.58871 0.64424 0.71562
 H1038 H 0.60614 0.57093 0.75067
 H1039 H 0.55931 0.60251 0.78110
 C1040 C 0.58725 0.16426 0.19679
 C1041 C 0.57723 0.14479 0.22413
 C1042 C 0.55217 0.16129 0.23666
 C1043 C 0.54884 0.18981 0.21625
 O1044 O 0.57012 0.19173 0.19195
 H1045 H 0.58673 0.12110 0.23344
 H1046 H 0.53796 0.15348 0.25814
 C1047 C 0.11520 0.70513 0.20393
 C1048 C 0.11543 0.68949 0.23548
 C1049 C 0.08969 0.70085 0.25133
 C1050 C 0.07535 0.72245 0.22830
 O1051 O 0.09080 0.72529 0.19933
 H1052 H 0.13245 0.67183 0.24573
 H1053 H 0.08203 0.69392 0.27662
 C1054 C 0.10202 0.18976 0.65796
 C1055 C 0.09277 0.20813 0.62961
 C1056 C 0.06618 0.22419 0.63874
 C1057 C 0.06126 0.21449 0.67201
 O1058 O 0.08294 0.19352 0.68377
 H1059 H 0.10423 0.20984 0.60532
 H1060 H 0.05245 0.24156 0.62329
 C1061 C 0.41270 0.67791 0.33727
 C1062 C 0.43388 0.68000 0.36340
 C1063 C 0.46156 0.68925 0.34875
 C1064 C 0.45507 0.69225 0.31480
 O1065 O 0.42540 0.68550 0.30764
 H1066 H 0.42907 0.67741 0.39011
 H1067 H 0.48344 0.69482 0.36137
 C1068 C 0.37857 0.21703 0.83579
 C1069 C 0.38216 0.24594 0.85350
 C1070 C 0.40910 0.26071 0.84143
 C1071 C 0.41981 0.23990 0.81701
 O1072 O 0.40136 0.21330 0.81358
 H1073 H 0.36687 0.25520 0.87274
 H1074 H 0.41927 0.28428 0.84889
 C1075 C 0.91197 0.64286 0.82518
 C1076 C 0.91943 0.62054 0.80075
 C1077 C 0.94168 0.63670 0.78125
 C1078 C 0.94566 0.66764 0.79524
 O1079 O 0.92777 0.67135 0.82183
 H1080 H 0.90974 0.59569 0.79750
 H1081 H 0.95315 0.62737 0.75923
 C1082 C 0.88765 0.21596 0.33173
 C1083 C 0.89244 0.24339 0.35140
 C1084 C 0.91894 0.25871 0.33918
 C1085 C 0.92848 0.23952 0.31297
 O1086 O 0.90956 0.21347 0.30833
 H1087 H 0.87802 0.25154 0.37191
 H1088 H 0.92974 0.28147 0.34794
 C1089 C 0.33860 0.30397 0.59860
 C1090 C 0.36199 0.28059 0.59506
 C1091 C 0.35134 0.25937 0.57173
 C1092 C 0.32207 0.27101 0.56240
 O1093 O 0.31408 0.29835 0.57863
 H1094 H 0.38427 0.27907 0.60819
 H1095 H 0.36346 0.23769 0.56267
 C1096 C 0.34430 0.81794 0.12258
 C1097 C 0.34918 0.78389 0.12675
 C1098 C 0.33425 0.76976 0.10073
 C1099 C 0.32117 0.79599 0.08207
 O1100 O 0.32705 0.82563 0.09534
 H1101 H 0.36257 0.77087 0.14632
 H1102 H 0.33331 0.74325 0.09568
 C1103 C 0.82852 0.26657 0.08400
 C1104 C 0.84745 0.23891 0.08174
 C1105 C 0.83223 0.21864 0.06022
 C1106 C 0.80520 0.23550 0.05070
 O1107 O 0.80283 0.26476 0.06506
 H1108 H 0.86933 0.23382 0.09481
 H1109 H 0.83980 0.19422 0.05251
 C1110 C 0.80522 0.81238 0.59792
 C1111 C 0.78789 0.83771 0.58268
 C1112 C 0.77110 0.82278 0.55844
 C1113 C 0.77915 0.78926 0.56065
 O1114 O 0.80017 0.78271 0.58461
 H1115 H 0.78723 0.86390 0.58897
 H1116 H 0.75419 0.83479 0.54164
 C1117 C 0.32386 0.73019 0.38919
 C1118 C 0.33698 0.76195 0.38937
 C1119 C 0.31962 0.77905 0.41178
 C1120 C 0.29747 0.75628 0.42382
 O1121 O 0.29988 0.72665 0.41009
 H1122 H 0.35705 0.77131 0.37513
 H1123 H 0.32315 0.80469 0.41913
 C1124 C 0.27110 0.18987 0.87466
 C1125 C 0.24510 0.16905 0.87801
 C1126 C 0.22537 0.18480 0.89920
 C1127 C 0.24081 0.21405 0.90680
 O1128 O 0.26845 0.21724 0.89194
 H1129 H 0.24166 0.14457 0.86761
 H1130 H 0.20325 0.17540 0.90919
 C1131 C 0.86351 0.68082 0.92774
 C1132 C 0.88823 0.70159 0.93566
 C1133 C 0.87696 0.72165 0.95966
 C1134 C 0.84609 0.71179 0.96455
 O1135 O 0.83780 0.68683 0.94525
 H1136 H 0.91148 0.70245 0.92468
 H1137 H 0.88943 0.74190 0.97142
 C1138 C 0.78806 0.18690 0.38685
 C1139 C 0.76230 0.16664 0.39373
 C1140 C 0.74699 0.18154 0.41916
 C1141 C 0.76448 0.20984 0.42573
 O1142 O 0.78944 0.21322 0.40616
 H1143 H 0.75580 0.14349 0.38201
 H1144 H 0.72582 0.17267 0.43173
 C1145 C 0.64946 0.33762 0.41141
 C1146 C 0.63120 0.33469 0.44003
 C1147 C 0.65022 0.32135 0.46437
 C1148 C 0.67872 0.31718 0.44889
 O1149 O 0.67854 0.32706 0.41668
 H1150 H 0.60630 0.33946 0.44218
 H1151 H 0.64378 0.31409 0.48996
 C1152 C 0.72255 0.82055 0.89682
 C1153 C 0.74676 0.84380 0.89648
 C1154 C 0.76564 0.83458 0.92283
 C1155 C 0.75163 0.80638 0.93739
 O1156 O 0.72542 0.79770 0.92168
 H1157 H 0.75019 0.86504 0.87908
 H1158 H 0.78697 0.84704 0.93067
 C1159 C 0.13295 0.33382 0.88805
 C1160 C 0.10956 0.31219 0.89945
 C1161 C 0.12186 0.29616 0.92742
 C1162 C 0.15178 0.30925 0.93067
 O1163 O 0.15842 0.33214 0.90695
 H1164 H 0.08695 0.30759 0.88792
 H1165 H 0.11111 0.27593 0.94232
 C1166 C 0.15321 0.81747 0.38234
 C1167 C 0.13454 0.78967 0.38950
 C1168 C 0.14829 0.77382 0.41681
 C1169 C 0.17392 0.79354 0.42435
 O1170 O 0.17698 0.81988 0.40348
 H1171 H 0.11396 0.78150 0.37591
 H1172 H 0.14065 0.75076 0.42961
 C1173 C 0.66709 0.66152 0.62341
 C1174 C 0.64542 0.68662 0.61706
 C1175 C 0.65703 0.70538 0.59057
 C1176 C 0.68495 0.69045 0.58253
 O1177 O 0.69124 0.66377 0.60242
 H1178 H 0.62365 0.69075 0.63024
 H1179 H 0.64632 0.72718 0.57837
 C1180 C 0.64844 0.18168 0.09226
 C1181 C 0.63323 0.20964 0.07926
 C1182 C 0.64993 0.21898 0.05109
 C1183 C 0.67393 0.19591 0.04927
 O1184 O 0.67299 0.17331 0.07416
 H1185 H 0.61302 0.22204 0.08944
 H1186 H 0.64564 0.24050 0.03435
 C1187 C 0.17499 0.73687 0.10041
 C1188 C 0.15945 0.76635 0.09236
 C1189 C 0.17595 0.78095 0.06610
 C1190 C 0.20020 0.75918 0.06005
 O1191 O 0.19961 0.73249 0.08080
 H1192 H 0.13922 0.77647 0.10482
 H1193 H 0.17141 0.80498 0.05355
 C1194 C 0.20157 0.15257 0.60917
 C1195 C 0.22391 0.12792 0.60680
 C1196 C 0.24274 0.13826 0.58106
 C1197 C 0.23070 0.16860 0.56953
 O1198 O 0.20546 0.17749 0.58646
 H1199 H 0.22640 0.10524 0.62238
 H1200 H 0.26324 0.12545 0.57205
   
