data_POSCAR
  _audit_creation_date              2014-09-24
  _audit_creation_method            'ToBaCCo'
  _symmetry_space_group_name_H-M    'P1'
  _symmetry_Int_Tables_number       1
  _symmetry_cell_setting            triclinic
  loop_
  _symmetry_equiv_pos_as_xyz
 x,y,z
_cell_length_a 29.0520
_cell_length_b 29.1452
_cell_length_c 29.0874
_cell_angle_alpha 89.798400
_cell_angle_beta 89.961300
_cell_angle_gamma 82.988300
loop_
  _atom_site_label
  _atom_site_type_symbol
  _atom_site_fract_x
  _atom_site_fract_y
  _atom_site_fract_z
O1 O 0.01112 0.33984 -0.04204
 O2 O -0.07717 0.34124 0.04862
 O3 O 0.01126 0.33620 0.04621
 O4 O -0.07857 0.34503 -0.04354
 O5 O -0.07257 0.26875 -0.04742
 O6 O 0.01292 0.26020 0.04666
 O7 O -0.07891 0.26623 0.04027
 O8 O 0.01654 0.26357 -0.04355
 Cu9 Cu -0.03452 0.34841 0.00247
 Cu10 Cu -0.02983 0.25693 -0.00082
 C11 C 0.02935 0.30131 -0.05776
 C12 C -0.09327 0.30417 0.05976
 C13 C 0.02725 0.29678 0.06185
 C14 C -0.08974 0.30834 -0.06159
 O15 O 0.47033 0.84030 0.54634
 O16 O 0.55973 0.84401 0.45680
 O17 O 0.46989 0.84233 0.45495
 O18 O 0.55929 0.84231 0.54506
 O19 O 0.56891 0.76592 0.54436
 O20 O 0.47934 0.76594 0.45499
 O21 O 0.56946 0.76766 0.45494
 O22 O 0.47953 0.76394 0.54365
 Cu23 Cu 0.51315 0.85000 0.50073
 Cu24 Cu 0.52532 0.75823 0.49919
 C25 C 0.46020 0.80150 0.56051
 C26 C 0.58054 0.80635 0.44144
 C27 C 0.45949 0.80412 0.43975
 C28 C 0.57963 0.80401 0.55965
 O29 O 0.99090 0.64614 -0.04288
 O30 O 1.07511 0.64674 0.05163
 O31 O 0.98952 0.64784 0.04315
 O32 O 1.08508 0.64294 -0.04098
 O33 O 1.07500 0.71888 -0.04743
 O34 O 0.98485 0.72415 0.04220
 O35 O 1.07460 0.72211 0.04249
 O36 O 0.98519 0.72229 -0.04695
 Cu37 Cu 1.03761 0.63819 0.00135
 Cu38 Cu 1.02958 0.72946 -0.00294
 C39 C 0.97197 0.68431 -0.05941
 C40 C 1.08837 0.68483 0.06371
 C41 C 0.97139 0.68704 0.05744
 C42 C 1.09602 0.67989 -0.05896
 O43 O 0.53048 0.15475 0.54693
 O44 O 0.44681 0.15885 0.45151
 O45 O 0.53630 0.15633 0.45944
 O46 O 0.43973 0.15481 0.54109
 O47 O 0.43155 0.23109 0.54404
 O48 O 0.52640 0.23276 0.46068
 O49 O 0.43726 0.23516 0.45471
 O50 O 0.52124 0.23112 0.54898
 Cu51 Cu 0.48872 0.14839 0.49978
 Cu52 Cu 0.47795 0.24022 0.50250
 C53 C 0.54132 0.19248 0.56287
 C54 C 0.42812 0.19777 0.43669
 C55 C 0.54807 0.19489 0.44668
 C56 C 0.41919 0.19262 0.55638
 O57 O 0.69979 -0.04472 0.03650
 O58 O 0.69088 0.05058 -0.04489
 O59 O 0.70909 -0.03825 -0.05216
 O60 O 0.69034 0.04497 0.04302
 O61 O 0.76585 0.04800 0.04717
 O62 O 0.78477 -0.03681 -0.04602
 O63 O 0.76647 0.05325 -0.04214
 O64 O 0.77524 -0.04275 0.04329
 Cu65 Cu 0.69010 0.00264 -0.00473
 Cu66 Cu 0.78076 0.00544 0.00116
 C67 C 0.73845 -0.06001 0.05406
 C68 C 0.72639 0.06858 -0.05739
 C69 C 0.75030 -0.05137 -0.06530
 C70 C 0.72489 0.06147 0.06047
 O71 O 0.19678 0.48107 0.54425
 O72 O 0.23831 0.55560 0.45367
 O73 O 0.19781 0.48036 0.45327
 O74 O 0.23807 0.55565 0.54386
 O75 O 0.30559 0.51168 0.54472
 O76 O 0.26584 0.43723 0.45547
 O77 O 0.30616 0.51220 0.45445
 O78 O 0.26461 0.43748 0.54321
 Cu79 Cu 0.21080 0.52245 0.49865
 Cu80 Cu 0.29251 0.47070 0.49947
 C81 C 0.22380 0.44654 0.55889
 C82 C 0.27942 0.54631 0.43860
 C83 C 0.22520 0.44583 0.43929
 C84 C 0.27878 0.54590 0.55996
 O85 O 0.29372 1.02276 0.04610
 O86 O 0.28429 0.94258 -0.05099
 O87 O 0.29532 1.03131 -0.04462
 O88 O 0.29443 0.93662 0.03704
 O89 O 0.21874 0.95343 0.04537
 O90 O 0.21881 1.04415 -0.04537
 O91 O 0.20822 0.96043 -0.04878
 O92 O 0.21905 1.04710 0.03953
 Cu93 Cu 0.29952 0.98231 -0.00416
 Cu94 Cu 0.20852 1.00058 -0.00033
 C95 C 0.25791 1.04940 0.05853
 C96 C 0.24408 0.93830 -0.06644
 C97 C 0.25807 1.05378 -0.05931
 C98 C 0.25712 0.93021 0.05700
 O99 O 0.76406 0.44330 0.45339
 O100 O 0.80221 0.51778 0.54494
 O101 O 0.76352 0.44119 0.54390
 O102 O 0.80379 0.51958 0.45631
 O103 O 0.73416 0.55977 0.45630
 O104 O 0.69422 0.48191 0.54260
 O105 O 0.73219 0.55718 0.54498
 O106 O 0.69534 0.48518 0.45250
 Cu107 Cu 0.79030 0.47592 0.49960
 Cu108 Cu 0.70693 0.52483 0.49908
 C109 C 0.72346 0.45230 0.43683
 C110 C 0.77338 0.55045 0.56019
 C111 C 0.72210 0.44884 0.55860
 C112 C 0.77570 0.55343 0.44198
 C113 C 0.22409 0.18293 0.16551
 C114 C 0.18078 0.20425 0.14985
 C115 C 0.15798 0.24392 0.17099
 C116 C 0.17584 0.25950 0.21260
 C117 C 0.22037 0.24042 0.22756
 C118 C 0.24594 0.20442 0.20205
 C119 C 0.29305 0.19267 0.21297
 C120 C 0.31149 0.20813 0.25330
 C121 C 0.28437 0.23859 0.28256
 C122 C 0.23988 0.25800 0.26769
 C123 C 0.15017 0.29323 0.23997
 C124 C 0.16924 0.31029 0.27943
 C125 C 0.21486 0.29452 0.29298
 C126 C 0.23590 0.31293 0.33180
 C127 C 0.27802 0.28977 0.34819
 C128 C 0.30135 0.25160 0.32534
 H129 H 0.31661 0.17245 0.19004
 H130 H 0.34764 0.19701 0.26078
 H131 H 0.11461 0.30603 0.23164
 H132 H 0.14729 0.33500 0.29984
 H133 H 0.16502 0.19095 0.11988
 H134 H 0.29305 0.30132 0.37939
 C135 C 0.77476 0.69135 0.34055
 C136 C 0.73765 0.71957 0.36044
 C137 C 0.71791 0.76059 0.33969
 C138 C 0.73533 0.77381 0.29676
 C139 C 0.77327 0.74586 0.27606
 C140 C 0.79333 0.70468 0.29818
 C141 C 0.83037 0.67747 0.27657
 C142 C 0.84806 0.69075 0.23478
 C143 C 0.82761 0.73024 0.21123
 C144 C 0.79015 0.75833 0.23234
 C145 C 0.71502 0.81333 0.27323
 C146 C 0.73210 0.82592 0.23104
 C147 C 0.76885 0.79838 0.20938
 C148 C 0.78474 0.80985 0.16531
 C149 C 0.82262 0.78281 0.14568
 C150 C 0.84362 0.74265 0.16732
 H151 H 0.84614 0.64535 0.29136
 H152 H 0.87796 0.66941 0.22122
 H153 H 0.68511 0.83478 0.28659
 H154 H 0.71592 0.85765 0.21560
 H155 H 0.72423 0.70968 0.39334
 H156 H 0.83369 0.79130 0.11139
 C157 C 0.66836 0.24765 0.34286
 C158 C 0.67378 0.29184 0.35895
 C159 C 0.69651 0.32244 0.33287
 C160 C 0.71525 0.30874 0.28959
 C161 C 0.71175 0.26350 0.27350
 C162 C 0.68712 0.23320 0.29958
 C163 C 0.68060 0.19011 0.28081
 C164 C 0.69942 0.17636 0.23846
 C165 C 0.72460 0.20553 0.21252
 C166 C 0.73188 0.24899 0.23062
 C167 C 0.73588 0.33951 0.26123
 C168 C 0.75558 0.32500 0.21926
 C169 C 0.75792 0.27859 0.20526
 C170 C 0.78350 0.26111 0.16585
 C171 C 0.77363 0.21867 0.14745
 C172 C 0.74216 0.19250 0.16865
 H173 H 0.66020 0.16666 0.29798
 H174 H 0.69445 0.14219 0.22655
 H175 H 0.73642 0.37526 0.27097
 H176 H 0.76709 0.35119 0.19723
 H177 H 0.65937 0.30299 0.39207
 H178 H 0.78919 0.20613 0.11545
 C179 C 0.19737 0.73937 0.17881
 C180 C 0.20353 0.78256 0.15954
 C181 C 0.23314 0.81116 0.17943
 C182 C 0.25335 0.79894 0.22261
 C183 C 0.25070 0.75435 0.24103
 C184 C 0.22355 0.72381 0.21856
 C185 C 0.22527 0.67824 0.23537
 C186 C 0.25091 0.66387 0.27450
 C187 C 0.27713 0.69401 0.29764
 C188 C 0.27729 0.73963 0.28069
 C189 C 0.27651 0.83025 0.24767
 C190 C 0.30104 0.81642 0.28739
 C191 C 0.30500 0.77025 0.30247
 C192 C 0.33525 0.75387 0.33891
 C193 C 0.33397 0.70876 0.35535
 C194 C 0.30491 0.67920 0.33605
 H195 H 0.20847 0.65243 0.21758
 H196 H 0.25106 0.62839 0.28571
 H197 H 0.27567 0.86587 0.23665
 H198 H 0.31684 0.84243 0.30600
 H199 H 0.18662 0.79343 0.12749
 H200 H 0.35684 0.69565 0.38307
 C201 C 0.66561 0.24366 0.66155
 C202 C 0.67052 0.28681 0.64229
 C203 C 0.69797 0.31701 0.66296
 C204 C 0.72207 0.30394 0.70404
 C205 C 0.71707 0.26061 0.72448
 C206 C 0.68830 0.23056 0.70346
 C207 C 0.68154 0.18920 0.72595
 C208 C 0.70274 0.17735 0.76769
 C209 C 0.73036 0.20702 0.78963
 C210 C 0.73917 0.24816 0.76710
 C211 C 0.74926 0.33379 0.72629
 C212 C 0.77181 0.32102 0.76753
 C213 C 0.76844 0.27769 0.78800
 C214 C 0.79170 0.26366 0.82972
 C215 C 0.78059 0.22370 0.85234
 C216 C 0.74853 0.19684 0.83398
 H217 H 0.65874 0.16593 0.71247
 H218 H 0.69704 0.14449 0.78270
 H219 H 0.75292 0.36760 0.71221
 H220 H 0.79036 0.34640 0.78394
 H221 H 0.65234 0.29742 0.61071
 H222 H 0.79594 0.21383 0.88536
 C223 C 0.33943 0.74873 0.66465
 C224 C 0.33547 0.70489 0.64644
 C225 C 0.30598 0.67563 0.66581
 C226 C 0.28073 0.68929 0.70606
 C227 C 0.28433 0.73333 0.72532
 C228 C 0.31178 0.76408 0.70322
 C229 C 0.30988 0.80952 0.71984
 C230 C 0.28655 0.82272 0.76033
 C231 C 0.26290 0.79141 0.78507
 C232 C 0.26060 0.74665 0.76691
 C233 C 0.25215 0.66013 0.72766
 C234 C 0.22891 0.67320 0.76845
 C235 C 0.23413 0.71551 0.78986
 C236 C 0.21260 0.72856 0.83263
 C237 C 0.21727 0.77232 0.85071
 C238 C 0.24102 0.80396 0.82724
 H239 H 0.32582 0.83573 0.70146
 H240 H 0.28746 0.85776 0.77223
 H241 H 0.24757 0.62682 0.71318
 H242 H 0.20642 0.64982 0.78248
 H243 H 0.35662 0.69247 0.61729
 H244 H 0.20105 0.78269 0.88325
 C245 C 0.21879 0.18537 0.83284
 C246 C 0.18035 0.21135 0.85282
 C247 C 0.15739 0.25058 0.83112
 C248 C 0.17235 0.26361 0.78709
 C249 C 0.21147 0.23783 0.76641
 C250 C 0.23408 0.19798 0.78881
 C251 C 0.27096 0.17151 0.76625
 C252 C 0.28748 0.18553 0.72434
 C253 C 0.26650 0.22552 0.70200
 C254 C 0.22818 0.25207 0.72328
 C255 C 0.14845 0.30068 0.76240
 C256 C 0.16531 0.31509 0.72062
 C257 C 0.20673 0.29303 0.70177
 C258 C 0.22670 0.30981 0.66143
 C259 C 0.26424 0.28256 0.64080
 C260 C 0.28329 0.24017 0.65942
 H261 H 0.28750 0.13939 0.78048
 H262 H 0.31754 0.16486 0.71025
 H263 H 0.11610 0.31867 0.77481
 H264 H 0.14486 0.34313 0.70282
 H265 H 0.16973 0.20234 0.88710
 H266 H 0.27933 0.29443 0.60959
 C267 C 0.76840 0.68413 0.66620
 C268 C 0.73142 0.71247 0.64607
 C269 C 0.71179 0.75355 0.66654
 C270 C 0.72919 0.76662 0.70939
 C271 C 0.76748 0.73896 0.72991
 C272 C 0.78698 0.69741 0.70843
 C273 C 0.82376 0.67000 0.73032
 C274 C 0.84215 0.68376 0.77145
 C275 C 0.82303 0.72433 0.79389
 C276 C 0.78583 0.75258 0.77242
 C277 C 0.70831 0.80553 0.73321
 C278 C 0.72705 0.81946 0.77401
 C279 C 0.76699 0.79460 0.79320
 C280 C 0.78769 0.81003 0.83336
 C281 C 0.82313 0.78106 0.85517
 C282 C 0.84042 0.73791 0.83674
 H283 H 0.83883 0.63738 0.71619
 H284 H 0.87204 0.66228 0.78489
 H285 H 0.67679 0.82537 0.72106
 H286 H 0.70912 0.84948 0.79091
 H287 H 0.71838 0.70288 0.61300
 H288 H 0.83768 0.79250 0.88683
 N289 N 0.27814 0.10756 0.16193
 N290 N 0.28972 0.07230 0.13019
 C291 C 0.26090 0.08044 0.09424
 C292 C 0.23212 0.12147 0.10103
 C293 C 0.24501 0.13871 0.14318
 H294 H 0.20567 0.13670 0.07755
 H295 H 0.28990 0.10599 0.19584
 H296 H 0.31310 0.04272 0.13619
 N297 N 0.83001 0.62674 0.63057
 N298 N 0.83122 0.59076 0.60277
 C299 C 0.78742 0.58201 0.59513
 C300 C 0.75724 0.61307 0.61949
 C301 C 0.78543 0.64085 0.64171
 H302 H 0.71971 0.61692 0.61871
 H303 H 0.85895 0.64296 0.63912
 H304 H 0.86122 0.57460 0.58706
 N305 N 0.71302 0.84865 0.12842
 N306 N 0.70114 0.88247 0.09895
 C307 C 0.73931 0.90175 0.08709
 C308 C 0.77739 0.87918 0.11000
 C309 C 0.75892 0.84604 0.13636
 H310 H 0.81324 0.88553 0.10754
 H311 H 0.69013 0.82705 0.14185
 H312 H 0.66744 0.89159 0.08676
 N313 N 0.19860 0.39522 0.66546
 N314 N 0.19635 0.43141 0.63760
 C315 C 0.20881 0.41667 0.59512
 C316 C 0.21865 0.36913 0.59579
 C317 C 0.21171 0.35640 0.64108
 H318 H 0.23282 0.34748 0.56778
 H319 H 0.19534 0.39790 0.70112
 H320 H 0.19076 0.46576 0.64851
 N321 N 0.84188 0.31935 0.16281
 N322 N 0.87362 0.33326 0.13132
 C323 C 0.87429 0.30495 0.09496
 C324 C 0.84192 0.27425 0.10119
 C325 C 0.82071 0.28528 0.14353
 H326 H 0.83513 0.24749 0.07738
 H327 H 0.84068 0.32980 0.19708
 H328 H 0.89632 0.35763 0.13788
 N329 N 0.40199 0.80160 0.66830
 N330 N 0.43272 0.81664 0.64025
 C331 C 0.42691 0.79964 0.59805
 C332 C 0.39069 0.77299 0.59904
 C333 C 0.37500 0.77566 0.64422
 H334 H 0.37889 0.75289 0.57115
 H335 H 0.40198 0.80658 0.70382
 H336 H 0.45926 0.83544 0.65067
 N337 N 0.13588 0.68519 0.17662
 N338 N 0.10835 0.66958 0.14569
 C339 C 0.11803 0.68659 0.10422
 C340 C 0.15353 0.71368 0.10875
 C341 C 0.16457 0.71157 0.15527
 H342 H 0.16769 0.73379 0.08206
 H343 H 0.13253 0.68033 0.21199
 H344 H 0.08116 0.65050 0.15350
 N345 N 0.64586 0.16926 0.62764
 N346 N 0.61212 0.15551 0.60268
 C347 C 0.57948 0.19183 0.59581
 C348 C 0.59275 0.23018 0.61755
 C349 C 0.63488 0.21442 0.63767
 H350 H 0.57540 0.26523 0.61677
 H351 H 0.67678 0.14855 0.63551
 H352 H 0.61293 0.12259 0.58840
 N353 N 0.68356 0.16057 0.86819
 N354 N 0.67761 0.12448 0.89805
 C355 C 0.71995 0.10571 0.91214
 C356 C 0.75376 0.12914 0.89185
 C357 C 0.72940 0.16261 0.86390
 H358 H 0.79098 0.12226 0.89607
 H359 H 0.65662 0.18221 0.85272
 H360 H 0.64550 0.11472 0.90756
 N361 N 0.34610 0.60205 0.35659
 N362 N 0.33979 0.56752 0.38449
 C363 C 0.29687 0.57535 0.40260
 C364 C 0.27459 0.61649 0.38493
 C365 C 0.30715 0.63224 0.35584
 H366 H 0.24100 0.63411 0.39446
 H367 H 0.37730 0.60580 0.33994
 H368 H 0.36520 0.54006 0.39224
 N369 N 0.20818 0.88649 0.83061
 N370 N 0.20794 0.92140 0.85943
 C371 C 0.23832 0.90908 0.89353
 C372 C 0.25870 0.86415 0.88640
 C373 C 0.23842 0.85116 0.84602
 H374 H 0.28232 0.84299 0.90883
 H375 H 0.18633 0.88616 0.80214
 H376 H 0.18647 0.95272 0.85628
 N377 N 0.66626 0.40522 0.34236
 N378 N 0.67242 0.43905 0.37092
 C379 C 0.70843 0.42482 0.39878
 C380 C 0.72605 0.38000 0.38755
 C381 C 0.69823 0.36898 0.35160
 H382 H 0.75318 0.35766 0.40486
 H383 H 0.63936 0.40628 0.31843
 H384 H 0.65156 0.47087 0.37191
 N385 N 0.11760 0.32500 0.86274
 N386 N 0.08426 0.33819 0.89249
 C387 C 0.06579 0.30057 0.90721
 C388 C 0.08804 0.26179 0.88573
 C389 C 0.12051 0.27878 0.85745
 H390 H 0.08238 0.22612 0.89096
 H391 H 0.13920 0.34716 0.84801
 H392 H 0.07538 0.37222 0.90342
 N393 N 0.67582 0.83371 0.37258
 N394 N 0.63936 0.84564 0.39907
 C395 C 0.61897 0.80763 0.40872
 C396 C 0.64329 0.76993 0.38719
 C397 C 0.67894 0.78796 0.36419
 H398 H 0.63705 0.73413 0.38940
 H399 H 0.69926 0.85626 0.36239
 H400 H 0.62996 0.87890 0.41189
 N401 N 0.87681 0.66247 0.87037
 N402 N 0.91436 0.64752 0.89881
 C403 C 0.93537 0.68477 0.90955
 C404 C 0.91257 0.72364 0.88793
 C405 C 0.87649 0.70828 0.86331
 H406 H 0.92066 0.75883 0.89049
 H407 H 0.85207 0.64175 0.85940
 H408 H 0.92240 0.61381 0.91121
 N409 N 0.34715 0.17682 0.34905
 N410 N 0.38017 0.16252 0.37882
 C411 C 0.39485 0.19972 0.39867
 C412 C 0.37056 0.23943 0.38051
 C413 C 0.34050 0.22350 0.34900
 H414 H 0.37293 0.27479 0.39054
 H415 H 0.32785 0.15473 0.33116
 H416 H 0.39094 0.12786 0.38663
 N417 N 0.76998 0.89581 0.82507
 N418 N 0.75966 0.93215 0.85175
 C419 C 0.75825 0.91755 0.89554
 C420 C 0.76842 0.86992 0.89719
 C421 C 0.77498 0.85737 0.85148
 H422 H 0.77085 0.84772 0.92722
 H423 H 0.77441 0.89757 0.78950
 H424 H 0.75452 0.96635 0.84015
 N425 N 0.19553 0.39482 0.33395
 N426 N 0.19169 0.42993 0.36304
 C427 C 0.21094 0.41526 0.40334
 C428 C 0.22673 0.36875 0.40005
 C429 C 0.21657 0.35665 0.35537
 H430 H 0.24655 0.34790 0.42572
 H431 H 0.18770 0.39837 0.29899
 H432 H 0.18012 0.46410 0.35398
 N433 N 0.29042 0.14145 0.86633
 N434 N 0.30110 0.10436 0.89636
 C435 C 0.26090 0.08950 0.90931
 C436 C 0.22409 0.11601 0.88780
 C437 C 0.24404 0.14762 0.86064
 H438 H 0.18751 0.11296 0.89157
 H439 H 0.31446 0.16183 0.85301
 H440 H 0.33450 0.09199 0.90751
 N441 N 0.83497 0.63212 0.37627
 N442 N 0.83509 0.59508 0.40278
 C443 C 0.79094 0.58670 0.40909
 C444 C 0.76167 0.61921 0.38525
 C445 C 0.79076 0.64734 0.36463
 H446 H 0.72412 0.62344 0.38508
 H447 H 0.86440 0.64806 0.36878
 H448 H 0.86461 0.57772 0.41839
 N449 N 0.19453 0.65354 0.86824
 N450 N 0.16129 0.64016 0.89865
 C451 C 0.13179 0.67811 0.90878
 C452 C 0.14455 0.71561 0.88463
 C453 C 0.18372 0.69907 0.85945
 H454 H 0.12815 0.75099 0.88625
 H455 H 0.22438 0.63241 0.85805
 H456 H 0.16172 0.60714 0.91284
 N457 N 0.65390 0.17428 0.38314
 N458 N 0.62147 0.16024 0.40980
 C459 C 0.58803 0.19590 0.41623
 C460 C 0.59940 0.23414 0.39270
 C461 C 0.64108 0.21885 0.37158
 H462 H 0.58025 0.26840 0.39140
 H463 H 0.68470 0.15394 0.37421
 H464 H 0.62311 0.12730 0.42442
 N465 N 0.86022 0.30892 0.82725
 N466 N 0.89052 0.32244 0.85660
 C467 C 0.87842 0.31106 0.89940
 C468 C 0.83866 0.28964 0.89731
 C469 C 0.82766 0.28926 0.85087
 H470 H 0.82226 0.27355 0.92551
 H471 H 0.86427 0.30983 0.79160
 H472 H 0.92109 0.33545 0.84705
 N473 N 0.39572 0.80920 0.33475
 N474 N 0.42759 0.82334 0.36193
 C475 C 0.42459 0.80360 0.40348
 C476 C 0.38902 0.77615 0.40299
 C477 C 0.37081 0.78105 0.35883
 H478 H 0.37930 0.75410 0.43045
 H479 H 0.39361 0.81629 0.29955
 H480 H 0.45297 0.84349 0.35115
 N481 N 0.29601 0.85209 0.14758
 N482 N 0.30224 0.88186 0.11473
 C483 C 0.26102 0.89698 0.09547
 C484 C 0.22657 0.87577 0.11731
 C485 C 0.25054 0.84750 0.15052
 H486 H 0.18998 0.87907 0.10918
 H487 H 0.32305 0.83360 0.16604
 H488 H 0.33461 0.89101 0.10526
 N489 N 0.65849 0.39495 0.64434
 N490 N 0.66416 0.42904 0.61573
 C491 C 0.70563 0.41967 0.59487
 C492 C 0.72763 0.37788 0.61121
 C493 C 0.69638 0.36348 0.64259
 H494 H 0.76011 0.35925 0.59979
 H495 H 0.62833 0.39243 0.66327
 H496 H 0.63935 0.45751 0.60975
 N497 N 0.67937 0.14887 0.13960
 N498 N 0.67476 0.11438 0.11139
 C499 C 0.71696 0.09755 0.09558
 C500 C 0.75002 0.12243 0.11450
 C501 C 0.72468 0.15449 0.14264
 H502 H 0.78693 0.11862 0.10775
 H503 H 0.65160 0.16919 0.15517
 H504 H 0.64303 0.10359 0.10224
 N505 N 0.34332 0.59673 0.64701
 N506 N 0.33678 0.56322 0.61821
 C507 C 0.29573 0.57407 0.59684
 C508 C 0.27494 0.61634 0.61315
 C509 C 0.30641 0.62941 0.64502
 H510 H 0.24313 0.63609 0.60141
 H511 H 0.37344 0.59801 0.66631
 H512 H 0.36080 0.53413 0.61239
 N513 N 0.87946 0.66726 0.13421
 N514 N 0.91290 0.65283 0.10498
 C515 C 0.93420 0.68925 0.09183
 C516 C 0.91373 0.72852 0.11386
 C517 C 0.87941 0.71303 0.14092
 H518 H 0.92173 0.76362 0.10979
 H519 H 0.85589 0.64635 0.14755
 H520 H 0.91984 0.61888 0.09316
 N521 N 0.32230 0.16713 0.62382
 N522 N 0.35828 0.15462 0.59689
 C523 C 0.37991 0.19201 0.58804
 C524 C 0.35693 0.22987 0.61046
 C525 C 0.32081 0.21257 0.63323
 H526 H 0.36471 0.26525 0.60944
 H527 H 0.29830 0.14516 0.63401
 H528 H 0.36676 0.12141 0.58361
 N529 N 0.11425 0.31794 0.14324
 N530 N 0.08037 0.33169 0.11432
 C531 C 0.06314 0.29429 0.09766
 C532 C 0.08698 0.25480 0.11709
 C533 C 0.11908 0.27139 0.14624
 H534 H 0.08276 0.21919 0.10970
 H535 H 0.13517 0.34020 0.15868
 H536 H 0.07046 0.36613 0.10504
 N537 N 0.67180 0.82806 0.63409
 N538 N 0.63687 0.84122 0.60602
 C539 C 0.61678 0.80377 0.59393
 C540 C 0.63962 0.76518 0.61550
 C541 C 0.67415 0.78204 0.64106
 H542 H 0.63311 0.72959 0.61181
 H543 H 0.69483 0.85002 0.64634
 H544 H 0.62830 0.87498 0.59396
   
