data_POSCAR
  _audit_creation_date              2014-09-24
  _audit_creation_method            'ToBaCCo'
  _symmetry_space_group_name_H-M    'P1'
  _symmetry_Int_Tables_number       1
  _symmetry_cell_setting            triclinic
  loop_
  _symmetry_equiv_pos_as_xyz
 x,y,z
_cell_length_a 26.2276
_cell_length_b 27.5218
_cell_length_c 42.6923
_cell_angle_alpha 91.174200
_cell_angle_beta 93.493500
_cell_angle_gamma 139.504400
loop_
  _atom_site_label
  _atom_site_type_symbol
  _atom_site_fract_x
  _atom_site_fract_y
  _atom_site_fract_z
C1 C 1.27443 0.23503 0.31837
 C2 C 1.24890 0.24106 0.29094
 C3 C 1.21205 0.18976 0.26465
 C4 C 1.20464 0.13400 0.26417
 C5 C 1.23283 0.12894 0.29144
 C6 C 1.26515 0.17767 0.31952
 C7 C 1.26551 0.30445 0.28809
 C8 C 1.31128 0.35196 0.26498
 C9 C 1.31291 0.40186 0.25599
 C10 C 1.27817 0.41149 0.27466
 C11 C 1.23268 0.36442 0.29876
 C12 C 1.22457 0.30871 0.30408
 H13 H 1.30596 0.27829 0.33788
 H14 H 1.19350 0.19690 0.24364
 H15 H 1.33608 0.34143 0.25139
 H16 H 1.18466 0.26596 0.31962
 H17 H 1.22534 0.08452 0.29071
 H18 H 1.28695 0.45559 0.26971
 C19 C 0.75731 -0.28609 0.31552
 C20 C 0.72984 -0.27443 0.29146
 C21 C 0.69279 -0.31989 0.26281
 C22 C 0.69079 -0.37128 0.25591
 C23 C 0.72035 -0.38148 0.27978
 C24 C 0.75444 -0.33865 0.30949
 C25 C 0.75501 -0.20511 0.29180
 C26 C 0.80265 -0.15715 0.26888
 C27 C 0.80731 -0.10542 0.25981
 C28 C 0.77415 -0.09333 0.27811
 C29 C 0.72926 -0.13847 0.30283
 C30 C 0.71729 -0.19686 0.30826
 H31 H 0.78835 -0.24903 0.33731
 H32 H 0.67530 -0.30686 0.24446
 H33 H 0.82627 -0.16869 0.25498
 H34 H 0.67511 -0.23906 0.32377
 H35 H 0.71868 -0.42156 0.27516
 H36 H 0.78193 -0.05013 0.27223
 C37 C 0.78569 0.22472 -0.17527
 C38 C 0.79824 0.25838 -0.20306
 C39 C 0.81751 0.24255 -0.22837
 C40 C 0.77573 0.16903 -0.23355
 C41 C 0.76070 0.13296 -0.20690
 C42 C 0.77836 0.16791 -0.17683
 C43 C 0.78295 0.30056 -0.20887
 C44 C 0.77911 0.31328 -0.24001
 C45 C 0.78875 0.36869 -0.24739
 C46 C 0.77491 0.39349 -0.22444
 C47 C 0.75389 0.36428 -0.19455
 C48 C 0.76605 0.32338 -0.18603
 H49 H 0.78557 0.24439 -0.15313
 H50 H 0.84103 0.27458 -0.24849
 H51 H 0.76636 0.27836 -0.25944
 H52 H 0.76148 0.30836 -0.16237
 H53 H 0.73204 0.07688 -0.20953
 H54 H 0.78160 0.43568 -0.23036
 C55 C 1.29292 -0.27561 -0.18659
 C56 C 1.26812 -0.26354 -0.21158
 C57 C 1.22891 -0.31199 -0.23935
 C58 C 1.22049 -0.36819 -0.24402
 C59 C 1.24880 -0.37841 -0.21933
 C60 C 1.28243 -0.33418 -0.18972
 C61 C 1.28618 -0.19809 -0.21092
 C62 C 1.31578 -0.15818 -0.23713
 C63 C 1.30414 -0.11812 -0.24593
 C64 C 1.27179 -0.10924 -0.22437
 C65 C 1.24806 -0.14431 -0.19584
 C66 C 1.25613 -0.18839 -0.18954
 H67 H 1.32437 -0.23632 -0.16554
 H68 H 1.20974 -0.30183 -0.25855
 H69 H 1.33683 -0.16950 -0.25309
 H70 H 1.23260 -0.22064 -0.16933
 H71 H 1.24144 -0.42254 -0.22306
 H72 H 1.26169 -0.07878 -0.23027
 C73 C 0.19250 0.27900 0.70607
 C74 C 0.22145 0.26713 0.72954
 C75 C 0.20357 0.26493 0.76026
 C76 C 0.13744 0.24461 0.76548
 C77 C 0.10721 0.25467 0.74194
 C78 C 0.14009 0.27877 0.71295
 C79 C 0.27090 0.25879 0.72329
 C80 C 0.30221 0.25256 0.74863
 C81 C 0.36823 0.27114 0.74640
 C82 C 0.39226 0.27995 0.71683
 C83 C 0.34320 0.25830 0.68952
 C84 C 0.28689 0.25480 0.69282
 H85 H 0.21324 0.29197 0.68312
 H86 H 0.23197 0.26785 0.78076
 H87 H 0.28305 0.24185 0.77165
 H88 H 0.25373 0.24568 0.67217
 H89 H 0.05811 0.24266 0.74573
 H90 H 0.44611 0.29863 0.71523
 C91 C 0.70354 0.75456 0.69509
 C92 C 0.73716 0.74977 0.72008
 C93 C 0.72747 0.75927 0.75065
 C94 C 0.65896 0.73431 0.75589
 C95 C 0.62487 0.73905 0.73168
 C96 C 0.65434 0.75889 0.70168
 C97 C 0.78356 0.73724 0.71660
 C98 C 0.80140 0.72077 0.74313
 C99 C 0.87180 0.74578 0.74677
 C100 C 0.90624 0.75791 0.71963
 C101 C 0.86971 0.74592 0.68980
 C102 C 0.81321 0.74309 0.68867
 H103 H 0.71954 0.75974 0.67167
 H104 H 0.76284 0.77101 0.77122
 H105 H 0.77050 0.70240 0.76372
 H106 H 0.79005 0.74178 0.66643
 H107 H 0.57330 0.72318 0.73543
 H108 H 0.95914 0.77419 0.72157
 C109 C 0.71064 0.24977 0.19174
 C110 C 0.72182 0.22330 0.21562
 C111 C 0.67843 0.19651 0.24138
 C112 C 0.63104 0.20272 0.24592
 C113 C 0.62217 0.23152 0.22240
 C114 C 0.66102 0.25414 0.19506
 C115 C 0.78426 0.23038 0.21669
 C116 C 0.82577 0.24989 0.24576
 C117 C 0.88765 0.26128 0.24891
 C118 C 0.90929 0.25259 0.22188
 C119 C 0.86539 0.22878 0.19200
 C120 C 0.80404 0.21961 0.18998
 H121 H 0.74274 0.26984 0.17136
 H122 H 0.68442 0.17286 0.25889
 H123 H 0.81481 0.26334 0.26643
 H124 H 0.76870 0.20125 0.16796
 H125 H 0.58321 0.23405 0.22465
 H126 H 0.96025 0.26573 0.22406
 C127 C 0.19872 0.74254 0.19166
 C128 C 0.19706 0.70174 0.21166
 C129 C 0.14844 0.66800 0.23572
 C130 C 0.11625 0.68863 0.24575
 C131 C 0.11948 0.73129 0.22566
 C132 C 0.15753 0.75580 0.19771
 C133 C 0.26427 0.71634 0.21631
 C134 C 0.30995 0.75162 0.24544
 C135 C 0.37449 0.76798 0.25307
 C136 C 0.39435 0.74786 0.23021
 C137 C 0.34812 0.71142 0.20005
 C138 C 0.28199 0.69480 0.19396
 H139 H 0.23801 0.76997 0.17343
 H140 H 0.15134 0.63833 0.25013
 H141 H 0.29561 0.76844 0.26266
 H142 H 0.24297 0.66386 0.17205
 H143 H 0.08873 0.74204 0.23069
 H144 H 0.44546 0.76186 0.23542
 O145 O 1.08971 0.02072 0.02910
 O146 O 0.81480 -0.20792 0.02668
 O147 O 0.87298 -0.06267 0.04083
 O148 O 0.96287 -0.15028 0.01702
 O149 O 0.86250 -0.07442 0.03947
 O150 O 0.97153 -0.14248 0.01837
 O151 O 0.81889 -0.20938 0.02604
 O152 O 1.03558 0.05732 0.04008
 C153 C 1.08852 0.06296 0.04636
 C154 C 0.84256 -0.20010 0.05481
 C155 C 0.81814 -0.07172 0.04586
 C156 C 0.98496 -0.17826 0.02051
 O157 O 0.95155 -0.13755 -0.04225
 O158 O 0.84504 -0.06913 -0.01926
 O159 O 1.01996 0.06020 -0.02101
 O160 O 0.79645 -0.20463 -0.03400
 O161 O 0.79411 -0.20404 -0.03374
 O162 O 1.06824 0.01883 -0.03205
 O163 O 0.93835 -0.14737 -0.04432
 O164 O 0.85206 -0.06002 -0.01888
 Co165 Co 1.01952 -0.06184 -0.00744
 Co166 Co 0.82719 -0.14061 0.00337
 Co167 Co 0.94697 -0.00205 0.00981
 Co168 Co 0.87855 -0.17958 -0.00888
 O169 O 0.93118 -0.08322 0.00079
 C170 C 0.98128 -0.12487 -0.06714
 C171 C 0.84913 -0.05446 -0.04806
 C172 C 1.06183 0.06102 -0.03692
 C173 C 0.76908 -0.21003 -0.06158
 O174 O 1.08015 0.53754 0.52410
 O175 O 0.79756 0.30404 0.51419
 O176 O 0.85660 0.44958 0.53023
 O177 O 0.96353 0.38257 0.52579
 O178 O 0.84855 0.43923 0.53013
 O179 O 0.97421 0.39039 0.52267
 O180 O 0.80166 0.30103 0.51460
 O181 O 1.02789 0.57390 0.53457
 C182 C 1.08187 0.57678 0.54086
 C183 C 0.79949 0.28788 0.54253
 C184 C 0.81417 0.45378 0.53786
 C185 C 1.00402 0.37180 0.52969
 O186 O 0.96174 0.38123 0.45993
 O187 O 0.83913 0.44916 0.46989
 O188 O 1.00763 0.57248 0.47293
 O189 O 0.81102 0.27931 0.45641
 O190 O 0.77440 0.32533 0.45287
 O191 O 1.06084 0.53560 0.46384
 O192 O 0.95529 0.37272 0.46217
 O193 O 0.84668 0.45603 0.46876
 Co194 Co 1.01622 0.46144 0.49220
 Co195 Co 0.81291 0.37536 0.49281
 Co196 Co 0.93360 0.51179 0.50092
 Co197 Co 0.88162 0.33460 0.49083
 O198 O 0.91755 0.42815 0.49135
 C199 C 0.97569 0.34549 0.45567
 C200 C 0.80481 0.46444 0.46569
 C201 C 1.05372 0.57728 0.45898
 C202 C 0.78331 0.29194 0.43985
 O203 O 0.48420 -0.05794 0.54607
 O204 O 0.34886 -0.14628 0.52067
 O205 O 0.44880 0.06695 0.51890
 O206 O 0.45196 -0.14830 0.52059
 O207 O 0.44675 0.06262 0.51993
 O208 O 0.45451 -0.14590 0.51986
 O209 O 0.35070 -0.14885 0.52007
 O210 O 0.41250 -0.03843 0.55377
 C211 C 0.45877 -0.04393 0.56579
 C212 C 0.31426 -0.19970 0.53895
 C213 C 0.46870 0.09527 0.54755
 C214 C 0.50934 -0.13700 0.52651
 O215 O 0.55931 -0.03097 0.48616
 O216 O 0.31876 -0.03988 0.49206
 O217 O 0.41947 -0.00156 0.46264
 O218 O 0.34334 -0.12900 0.47125
 O219 O 0.33943 -0.12735 0.47173
 O220 O 0.46165 -0.04827 0.45081
 O221 O 0.55344 -0.03818 0.48537
 O222 O 0.31802 -0.03733 0.49335
 Co223 Co 0.46416 -0.07548 0.49716
 Co224 Co 0.37579 -0.05752 0.50823
 Co225 Co 0.40057 -0.02650 0.50609
 Co226 Co 0.43595 -0.10227 0.49362
 O227 O 0.48813 0.00168 0.50697
 C228 C 0.55957 -0.07385 0.47209
 C229 C 0.28555 -0.05865 0.46449
 C230 C 0.44751 -0.01022 0.44250
 C231 C 0.28827 -0.16251 0.44778
 O232 O 0.57951 0.50595 0.02451
 O233 O 0.30152 0.29254 0.02408
 O234 O 0.37467 0.44493 0.03316
 O235 O 0.44465 0.34076 0.01962
 O236 O 0.35787 0.43303 0.03362
 O237 O 0.45371 0.34903 0.02143
 O238 O 0.30599 0.29146 0.02361
 O239 O 0.54087 0.55786 0.02865
 C240 C 0.58855 0.55633 0.03633
 C241 C 0.32885 0.30017 0.05225
 C242 C 0.40302 0.47397 0.06066
 C243 C 0.45729 0.30511 0.02354
 O244 O 0.43921 0.34614 -0.04144
 O245 O 0.34312 0.43224 -0.02636
 O246 O 0.51063 0.55221 -0.03083
 O247 O 0.28789 0.29025 -0.03718
 O248 O 0.28486 0.29143 -0.03687
 O249 O 0.56103 0.51001 -0.03597
 O250 O 0.42876 0.33753 -0.04105
 O251 O 0.34944 0.44060 -0.02597
 Co252 Co 0.50799 0.42616 -0.00749
 Co253 Co 0.32144 0.36137 -0.00168
 Co254 Co 0.44509 0.49712 0.00125
 Co255 Co 0.36526 0.31271 -0.00936
 O256 O 0.42285 0.41204 -0.00508
 C257 C 0.44675 0.30698 -0.04873
 C258 C 0.34392 0.44226 -0.05551
 C259 C 0.55548 0.55486 -0.04378
 C260 C 0.26546 0.28690 -0.06563
 C261 C 1.12536 0.07408 0.18034
 C262 C 1.17889 0.08193 0.16876
 C263 C 1.22502 0.08343 0.18803
 C264 C 1.22363 0.08747 0.22088
 C265 C 1.17650 0.08973 0.23333
 C266 C 1.11936 0.07283 0.21250
 O267 O 1.09033 0.07813 0.15883
 C268 C 1.12294 0.08963 0.13310
 C269 C 1.17761 0.09254 0.13778
 C270 C 1.21965 0.10573 0.11382
 C271 C 1.19904 0.10900 0.08336
 C272 C 1.13695 0.09851 0.07751
 C273 C 1.10341 0.09496 0.10335
 H274 H 1.26519 0.08738 0.17841
 H275 H 1.26499 0.09673 0.23645
 H276 H 1.07961 0.07047 0.22124
 H277 H 1.26382 0.10958 0.11807
 H278 H 1.22690 0.11341 0.06399
 H279 H 1.05604 0.08684 0.09995
 C280 C 1.13764 0.58410 0.67293
 C281 C 1.19333 0.59878 0.65866
 C282 C 1.24436 0.60290 0.67486
 C283 C 1.24449 0.60111 0.70777
 C284 C 1.19358 0.59470 0.72338
 C285 C 1.13379 0.57790 0.70514
 O286 O 1.09646 0.58482 0.65387
 C287 C 1.12713 0.60091 0.62696
 C288 C 1.18677 0.61018 0.62857
 C289 C 1.22579 0.62587 0.60277
 C290 C 1.19813 0.62646 0.57375
 C291 C 1.13257 0.61137 0.57115
 C292 C 1.10058 0.60374 0.59863
 H293 H 1.28657 0.61287 0.66298
 H294 H 1.29021 0.61351 0.72126
 H295 H 1.09340 0.57201 0.71622
 H296 H 1.27283 0.63331 0.60451
 H297 H 1.22306 0.63199 0.55281
 H298 H 1.04944 0.59020 0.59741
 C299 C 0.66937 0.08726 0.68395
 C300 C 0.61149 0.07887 0.68819
 C301 C 0.59818 0.08828 0.71730
 C302 C 0.64844 0.10995 0.74337
 C303 C 0.71305 0.12524 0.73970
 C304 C 0.72361 0.11322 0.70961
 O305 O 0.66472 0.06677 0.65439
 C306 C 0.60240 0.04501 0.64010
 C307 C 0.57015 0.05406 0.65971
 C308 C 0.50588 0.03652 0.65014
 C309 C 0.46937 0.00356 0.61931
 C310 C 0.49622 -0.01325 0.59899
 C311 C 0.56647 0.01137 0.60920
 H312 H 0.55068 0.07911 0.71993
 H313 H 0.64028 0.11991 0.76625
 H314 H 0.77362 0.12621 0.70655
 H315 H 0.48447 0.04760 0.66599
 H316 H 0.42085 -0.00779 0.61143
 H317 H 0.59419 0.00727 0.59347
 C318 C 0.63971 0.60021 0.16862
 C319 C 0.68866 0.60076 0.15829
 C320 C 0.72771 0.59539 0.17827
 C321 C 0.72168 0.59647 0.21067
 C322 C 0.67611 0.60178 0.22224
 C323 C 0.62956 0.59729 0.20029
 O324 O 0.60825 0.60608 0.14600
 C325 C 0.63864 0.61113 0.12082
 C326 C 0.68828 0.60822 0.12701
 C327 C 0.72393 0.60957 0.10365
 C328 C 0.70173 0.60690 0.07234
 C329 C 0.64403 0.60177 0.06532
 C330 C 0.61791 0.61099 0.09013
 H331 H 0.76389 0.59339 0.16940
 H332 H 0.75588 0.59712 0.22656
 H333 H 0.59030 0.59664 0.20771
 H334 H 0.76159 0.60576 0.10901
 H335 H 0.71999 0.59732 0.05354
 H336 H 0.57153 0.60421 0.08572
 C337 C 0.86953 -0.09065 0.18067
 C338 C 0.81233 -0.10721 0.16209
 C339 C 0.76729 -0.10338 0.17420
 C340 C 0.77596 -0.08937 0.20712
 C341 C 0.82767 -0.08137 0.22724
 C342 C 0.88040 -0.07484 0.21334
 O343 O 0.90195 -0.10275 0.16513
 C344 C 0.86370 -0.12851 0.13625
 C345 C 0.80699 -0.13397 0.13325
 C346 C 0.75260 -0.16986 0.10636
 C347 C 0.76013 -0.19709 0.08107
 C348 C 0.82408 -0.18398 0.08236
 C349 C 0.87400 -0.15251 0.11097
 H350 H 0.72284 -0.11621 0.15911
 H351 H 0.73535 -0.09407 0.21688
 H352 H 0.92109 -0.06828 0.22771
 H353 H 0.70546 -0.17748 0.10501
 H354 H 0.71767 -0.22615 0.06031
 H355 H 0.91991 -0.14652 0.11346
 C356 C 0.83718 0.37950 0.67246
 C357 C 0.79781 0.38800 0.65628
 C358 C 0.76889 0.40716 0.67181
 C359 C 0.77416 0.41026 0.70513
 C360 C 0.80578 0.39181 0.72174
 C361 C 0.84587 0.38545 0.70499
 O362 O 0.85597 0.35660 0.65431
 C363 C 0.82793 0.35016 0.62584
 C364 C 0.79021 0.36711 0.62542
 C365 C 0.74465 0.35029 0.59831
 C366 C 0.74449 0.32157 0.57050
 C367 C 0.79163 0.31342 0.57019
 C368 C 0.82930 0.32322 0.59866
 H369 H 0.73897 0.41479 0.65868
 H370 H 0.74619 0.41908 0.71711
 H371 H 0.87724 0.37816 0.71676
 H372 H 0.70762 0.35536 0.59873
 H373 H 0.70773 0.30556 0.54958
 H374 H 0.85692 0.30776 0.59967
 C375 C 0.33471 -0.12433 0.67040
 C376 C 0.27660 -0.13883 0.65457
 C377 C 0.23748 -0.13053 0.66959
 C378 C 0.25340 -0.11398 0.70272
 C379 C 0.31020 -0.10302 0.71992
 C380 C 0.35740 -0.09969 0.70247
 O381 O 0.36044 -0.14124 0.65271
 C382 C 0.31766 -0.16676 0.62494
 C383 C 0.26690 -0.16489 0.62458
 C384 C 0.21875 -0.18695 0.59744
 C385 C 0.22626 -0.20779 0.56926
 C386 C 0.28477 -0.20180 0.56844
 C387 C 0.32524 -0.18803 0.59737
 H388 H 0.19240 -0.14153 0.65658
 H389 H 0.21756 -0.11511 0.71489
 H390 H 0.40418 -0.08774 0.71403
 H391 H 0.17891 -0.18539 0.59779
 H392 H 0.18776 -0.22679 0.54835
 H393 H 0.36665 -0.18768 0.59808
 C394 C 0.36896 0.41567 0.17761
 C395 C 0.31089 0.39961 0.16025
 C396 C 0.26978 0.40709 0.17344
 C397 C 0.28184 0.42241 0.20638
 C398 C 0.33140 0.42583 0.22535
 C399 C 0.38239 0.43159 0.21019
 O400 O 0.39847 0.40156 0.16119
 C401 C 0.35649 0.37392 0.13311
 C402 C 0.30134 0.37057 0.13126
 C403 C 0.24608 0.33651 0.10478
 C404 C 0.25112 0.30882 0.07861
 C405 C 0.31134 0.31672 0.07960
 C406 C 0.36259 0.34723 0.10755
 H407 H 0.22586 0.39619 0.15918
 H408 H 0.24374 0.42037 0.21683
 H409 H 0.42401 0.43803 0.22351
 H410 H 0.20170 0.33254 0.10415
 H411 H 0.21015 0.28358 0.05757
 H412 H 0.40759 0.35187 0.10903
 C413 C 0.85074 0.11377 -0.12764
 C414 C 0.83986 0.12231 -0.09792
 C415 C 0.80694 0.14365 -0.09213
 C416 C 0.78464 0.15710 -0.11813
 C417 C 0.79620 0.14950 -0.14905
 C418 C 0.83094 0.12849 -0.15349
 O419 O 0.87179 0.08266 -0.12886
 C420 C 0.87327 0.07018 -0.09921
 C421 C 0.85562 0.09480 -0.07929
 C422 C 0.84544 0.08049 -0.04801
 C423 C 0.84936 0.03570 -0.03732
 C424 C 0.86252 0.00549 -0.05775
 C425 C 0.87803 0.02579 -0.08884
 H426 H 0.79622 0.14716 -0.06857
 H427 H 0.75726 0.17194 -0.11411
 H428 H 0.84181 0.12283 -0.17657
 H429 H 0.83072 0.09964 -0.03285
 H430 H 0.83711 0.02069 -0.01370
 H431 H 0.88794 0.00368 -0.10516
 C432 C 0.80197 0.62672 0.38232
 C433 C 0.84834 0.62437 0.37133
 C434 C 0.87108 0.64005 0.34118
 C435 C 0.84183 0.65557 0.32095
 C436 C 0.79243 0.65695 0.33138
 C437 C 0.77599 0.64646 0.36314
 O438 O 0.77720 0.59854 0.40981
 C439 C 0.80856 0.57793 0.41617
 C440 C 0.85333 0.59348 0.39344
 C441 C 0.88595 0.57102 0.39353
 C442 C 0.87231 0.53111 0.41820
 C443 C 0.82516 0.51304 0.44180
 C444 C 0.79336 0.53729 0.44089
 H445 H 0.90517 0.63504 0.33279
 H446 H 0.85576 0.66443 0.29684
 H447 H 0.73617 0.64432 0.37146
 H448 H 0.91829 0.58138 0.37470
 H449 H 0.89549 0.51129 0.41796
 H450 H 0.75571 0.52251 0.45812
 C451 C 0.31848 0.11758 0.37578
 C452 C 0.30854 0.13313 0.40400
 C453 C 0.29335 0.17157 0.40619
 C454 C 0.28300 0.19012 0.37801
 C455 C 0.28643 0.16872 0.34810
 C456 C 0.30760 0.13445 0.34760
 O457 O 0.32513 0.07477 0.37788
 C458 C 0.31547 0.05980 0.40763
 C459 C 0.30492 0.09384 0.42484
 C460 C 0.28243 0.07637 0.45520
 C461 C 0.26924 0.02073 0.46777
 C462 C 0.27907 -0.01550 0.45001
 C463 C 0.30434 0.00626 0.41994
 H464 H 0.28704 0.18492 0.42857
 H465 H 0.26686 0.21643 0.37970
 H466 H 0.31283 0.11835 0.32583
 H467 H 0.27464 0.10415 0.46854
 H468 H 0.25447 0.00846 0.49167
 H469 H 0.31874 -0.01485 0.40666
 C470 C 0.34630 0.60493 -0.14106
 C471 C 0.34015 0.61939 -0.11143
 C472 C 0.31789 0.65083 -0.10606
 C473 C 0.30078 0.66783 -0.13230
 C474 C 0.30470 0.65215 -0.16358
 C475 C 0.32883 0.62067 -0.16765
 O476 O 0.36204 0.56910 -0.14113
 C477 C 0.36438 0.55964 -0.11092
 C478 C 0.35133 0.58943 -0.09183
 C479 C 0.34182 0.57836 -0.06016
 C480 C 0.34352 0.53281 -0.04784
 C481 C 0.35536 0.49995 -0.06715
 C482 C 0.36875 0.51607 -0.09890
 H483 H 0.31145 0.65988 -0.08256
 H484 H 0.28001 0.68917 -0.12796
 H485 H 0.33460 0.60896 -0.19065
 H486 H 0.32927 0.60063 -0.04589
 H487 H 0.33162 0.52028 -0.02371
 H488 H 0.37864 0.49301 -0.11442
 C489 C 1.20295 -0.07632 -0.13525
 C490 C 1.13400 -0.14981 -0.12657
 C491 C 1.09882 -0.22076 -0.14158
 C492 C 1.13412 -0.21672 -0.16548
 C493 C 1.20348 -0.14690 -0.17429
 C494 C 1.23435 -0.08095 -0.15970
 O495 O 1.14268 -0.11654 -0.11655
 C496 C 1.15028 -0.06969 -0.09784
 C497 C 1.10629 -0.14528 -0.10389
 C498 C 1.03651 -0.20896 -0.08792
 C499 C 1.00074 -0.19904 -0.07136
 C500 C 1.03389 -0.12858 -0.06955
 C501 C 1.10843 -0.06729 -0.07975
 H502 H 1.04610 -0.27516 -0.13444
 H503 H 1.10901 -0.26824 -0.17636
 H504 H 1.28923 -0.02779 -0.16690
 H505 H 1.00925 -0.26402 -0.09145
 H506 H 0.94337 -0.24786 -0.06323
 H507 H 1.13791 -0.01260 -0.07274
 C508 C 1.12532 0.34386 0.36295
 C509 C 1.12482 0.39124 0.35446
 C510 C 1.15361 0.42793 0.32750
 C511 C 1.18564 0.41620 0.30858
 C512 C 1.19196 0.37120 0.31764
 C513 C 1.15958 0.33369 0.34542
 O514 O 1.09278 0.31262 0.38907
 C515 C 1.07210 0.34188 0.39736
 C516 C 1.09101 0.39079 0.37705
 C517 C 1.07672 0.42942 0.38152
 C518 C 1.03907 0.41516 0.40779
 C519 C 1.01800 0.36385 0.42884
 C520 C 1.03514 0.32720 0.42358
 H521 H 1.15083 0.46373 0.32108
 H522 H 1.20488 0.44277 0.28706
 H523 H 1.16136 0.29857 0.35444
 H524 H 1.09460 0.46931 0.36555
 H525 H 1.02554 0.44319 0.41144
 H526 H 1.01838 0.28707 0.43902
 C527 C 0.65560 -0.12621 0.37286
 C528 C 0.64837 -0.08486 0.36190
 C529 C 0.65687 -0.06751 0.33091
 C530 C 0.67906 -0.08901 0.31104
 C531 C 0.69351 -0.12638 0.32243
 C532 C 0.67792 -0.14794 0.35366
 O533 O 0.64555 -0.13655 0.40309
 C534 C 0.63350 -0.09945 0.41156
 C535 C 0.63560 -0.06589 0.38741
 C536 C 0.62811 -0.02123 0.39179
 C537 C 0.61435 -0.01378 0.42198
 C538 C 0.60760 -0.05148 0.44677
 C539 C 0.61838 -0.09400 0.44136
 H540 H 0.64865 -0.03681 0.32251
 H541 H 0.68653 -0.07466 0.28705
 H542 H 0.68766 -0.17645 0.36374
 H543 H 0.63064 0.00518 0.37242
 H544 H 0.60287 0.01625 0.42519
 H545 H 0.61002 -0.12613 0.45934
 C546 C 0.64879 0.34588 -0.12808
 C547 C 0.64060 0.38674 -0.13833
 C548 C 0.66622 0.42044 -0.16601
 C549 C 0.70340 0.41325 -0.18382
 C550 C 0.71728 0.37445 -0.17366
 C551 C 0.68845 0.34000 -0.14493
 O552 O 0.61231 0.31179 -0.10267
 C553 C 0.58119 0.33242 -0.09688
 C554 C 0.59830 0.37939 -0.11779
 C555 C 0.57246 0.40830 -0.11640
 C556 C 0.52580 0.38712 -0.09264
 C557 C 0.50302 0.33522 -0.07165
 C558 C 0.53219 0.30826 -0.07361
 H559 H 0.65442 0.44826 -0.17450
 H560 H 0.71786 0.43662 -0.20598
 H561 H 0.69391 0.30756 -0.13599
 H562 H 0.58709 0.44516 -0.13329
 H563 H 0.50484 0.40896 -0.09144
 H564 H 0.51639 0.26916 -0.05779
 C565 C 1.07827 0.17581 -0.15613
 C566 C 1.07533 0.12416 -0.16058
 C567 C 1.07157 0.09845 -0.18976
 C568 C 1.07509 0.13002 -0.21573
 C569 C 1.09202 0.19291 -0.21200
 C570 C 1.08900 0.21352 -0.18182
 O571 O 1.07926 0.18963 -0.12570
 C572 C 1.07919 0.14708 -0.11101
 C573 C 1.08027 0.10907 -0.13163
 C574 C 1.09151 0.06993 -0.12226
 C575 C 1.09601 0.06462 -0.09023
 C576 C 1.08502 0.09412 -0.06780
 C577 C 1.07809 0.13804 -0.07844
 H578 H 1.06918 0.05754 -0.19240
 H579 H 1.07645 0.11291 -0.23847
 H580 H 1.10258 0.26157 -0.17786
 H581 H 1.09677 0.04425 -0.13907
 H582 H 1.10091 0.03106 -0.08357
 H583 H 1.06933 0.16149 -0.06230
 C584 C 1.08584 0.63222 0.32763
 C585 C 1.08788 0.67833 0.34246
 C586 C 1.08641 0.72030 0.32585
 C587 C 1.08947 0.71928 0.29298
 C588 C 1.09299 0.67576 0.27700
 C589 C 1.08396 0.62679 0.29508
 O590 O 1.08763 0.59667 0.34725
 C591 C 1.09129 0.62111 0.37533
 C592 C 1.09091 0.67072 0.37379
 C593 C 1.09134 0.70080 0.40049
 C594 C 1.08882 0.67634 0.42961
 C595 C 1.08536 0.62217 0.43155
 C596 C 1.09086 0.59761 0.40406
 H597 H 1.08637 0.75526 0.33791
 H598 H 1.09486 0.75700 0.28103
 H599 H 1.07744 0.58587 0.28490
 H600 H 1.09019 0.73918 0.39879
 H601 H 1.08448 0.69609 0.45029
 H602 H 1.08808 0.55657 0.40443
 C603 C 0.55710 0.11207 0.32132
 C604 C 0.55497 0.15396 0.33756
 C605 C 0.57073 0.20972 0.32403
 C606 C 0.59175 0.22374 0.29292
 C607 C 0.59510 0.18110 0.27612
 C608 C 0.57323 0.12219 0.29040
 O609 O 0.54214 0.06285 0.33780
 C610 C 0.52793 0.07169 0.36511
 C611 C 0.53453 0.12651 0.36632
 C612 C 0.51820 0.14184 0.39249
 C613 C 0.48973 0.09608 0.41718
 C614 C 0.47915 0.03674 0.41567
 C615 C 0.50305 0.02770 0.38996
 H616 H 0.56908 0.24254 0.33719
 H617 H 0.60743 0.26885 0.28247
 H618 H 0.57074 0.08582 0.27798
 H619 H 0.52432 0.18536 0.39353
 H620 H 0.47592 0.10726 0.43757
 H621 H 0.49915 -0.01441 0.38878
 C622 C 0.58997 0.66532 -0.16612
 C623 C 0.59978 0.62291 -0.16647
 C624 C 0.60820 0.60160 -0.19324
 C625 C 0.61122 0.62857 -0.22093
 C626 C 0.61664 0.68420 -0.22079
 C627 C 0.60002 0.69904 -0.19342
 O628 O 0.57978 0.67533 -0.13736
 C629 C 0.58557 0.63989 -0.11959
 C630 C 0.60095 0.61003 -0.13653
 C631 C 0.61944 0.57908 -0.12319
 C632 C 0.61679 0.57354 -0.09099
 C633 C 0.58839 0.59194 -0.07314
 C634 C 0.57612 0.62936 -0.08735
 H635 H 0.61467 0.56713 -0.19271
 H636 H 0.62022 0.61381 -0.24185
 H637 H 0.60363 0.74093 -0.19232
 H638 H 0.63646 0.56075 -0.13712
 H639 H 0.63229 0.55000 -0.08078
 H640 H 0.55638 0.64603 -0.07436
 C641 C 0.88900 -0.22847 -0.16769
 C642 C 0.91014 -0.16496 -0.16735
 C643 C 0.94471 -0.11864 -0.19151
 C644 C 0.95358 -0.14082 -0.21825
 C645 C 0.91821 -0.21319 -0.22199
 C646 C 0.89235 -0.25439 -0.19527
 O647 O 0.85229 -0.26670 -0.14290
 C648 C 0.84805 -0.22756 -0.12731
 C649 C 0.88021 -0.16649 -0.14221
 C650 C 0.86784 -0.12710 -0.13456
 C651 C 0.82574 -0.14779 -0.10911
 C652 C 0.80306 -0.20180 -0.09011
 C653 C 0.81073 -0.24549 -0.10000
 H654 H 0.95812 -0.07056 -0.19086
 H655 H 0.97281 -0.10904 -0.23845
 H656 H 0.86378 -0.31030 -0.19761
 H657 H 0.88635 -0.08451 -0.14865
 H658 H 0.81092 -0.12132 -0.10399
 H659 H 0.78874 -0.29102 -0.08712
 C660 C 0.87994 0.26539 0.33034
 C661 C 0.90221 0.32956 0.33136
 C662 C 0.95272 0.38482 0.31133
 C663 C 0.97392 0.36957 0.28701
 C664 C 0.93402 0.29566 0.28049
 C665 C 0.89666 0.24733 0.30503
 O666 O 0.83291 0.22092 0.35211
 C667 C 0.82376 0.25711 0.36638
 C668 C 0.86244 0.32226 0.35365
 C669 C 0.85494 0.36523 0.36286
 C670 C 0.81275 0.34474 0.38861
 C671 C 0.78199 0.28411 0.40529
 C672 C 0.78332 0.23683 0.39261
 H673 H 0.96970 0.43498 0.31279
 H674 H 1.00317 0.40722 0.26870
 H675 H 0.86790 0.19139 0.30142
 H676 H 0.88257 0.41408 0.35118
 H677 H 0.81204 0.38122 0.39765
 H678 H 0.76150 0.19076 0.40493
 C679 C 0.37980 -0.20691 0.33724
 C680 C 0.38605 -0.15311 0.33426
 C681 C 0.42169 -0.10614 0.31030
 C682 C 0.44638 -0.11904 0.28684
 C683 C 0.41991 -0.18734 0.28432
 C684 C 0.39442 -0.22716 0.31170
 O685 O 0.35012 -0.24039 0.36379
 C686 C 0.33549 -0.20794 0.37709
 C687 C 0.35190 -0.15802 0.35854
 C688 C 0.32971 -0.12671 0.36447
 C689 C 0.29841 -0.13976 0.39269
 C690 C 0.29656 -0.17698 0.41569
 C691 C 0.30906 -0.21750 0.40691
 H692 H 0.42626 -0.06377 0.30886
 H693 H 0.46759 -0.08668 0.26678
 H694 H 0.37556 -0.27836 0.31124
 H695 H 0.33704 -0.09264 0.34810
 H696 H 0.28065 -0.11613 0.39778
 H697 H 0.30012 -0.25337 0.42252
 C698 C 0.39422 0.28121 -0.17115
 C699 C 0.42415 0.34916 -0.16713
 C700 C 0.46356 0.40067 -0.18927
 C701 C 0.46698 0.37917 -0.21816
 C702 C 0.41942 0.30287 -0.22586
 C703 C 0.39097 0.25622 -0.20095
 O704 O 0.35337 0.23857 -0.14783
 C705 C 0.35485 0.27950 -0.12959
 C706 C 0.39424 0.34579 -0.14164
 C707 C 0.38306 0.38567 -0.13323
 C708 C 0.33425 0.35908 -0.10992
 C709 C 0.30790 0.30206 -0.09211
 C710 C 0.31409 0.25790 -0.10309
 H711 H 0.48431 0.45262 -0.18542
 H712 H 0.49013 0.41614 -0.23664
 H713 H 0.35364 0.19752 -0.20612
 H714 H 0.40370 0.43019 -0.14648
 H715 H 0.31321 0.38004 -0.10689
 H716 H 0.28549 0.20762 -0.09248
 C717 C 1.13030 -0.19479 0.12280
 C718 C 1.12604 -0.15116 0.13446
 C719 C 1.13825 -0.13114 0.16662
 C720 C 1.15178 -0.15998 0.18764
 C721 C 1.15476 -0.20688 0.17647
 C722 C 1.14773 -0.22096 0.14326
 O723 O 1.10790 -0.21471 0.09188
 C724 C 1.08885 -0.18323 0.08382
 C725 C 1.09979 -0.14293 0.10899
 C726 C 1.07744 -0.11068 0.10652
 C727 C 1.04210 -0.12060 0.07712
 C728 C 1.02894 -0.16290 0.05063
 C729 C 1.05323 -0.19424 0.05419
 H730 H 1.13475 -0.09661 0.17541
 H731 H 1.16016 -0.14528 0.21267
 H732 H 1.14751 -0.25779 0.13357
 H733 H 1.08481 -0.08086 0.12681
 H734 H 1.02297 -0.09693 0.07535
 H735 H 1.04178 -0.22859 0.03485
 C736 C 1.09184 0.31190 0.63692
 C737 C 1.08910 0.35693 0.64838
 C738 C 1.10234 0.37820 0.68038
 C739 C 1.11827 0.35137 0.70137
 C740 C 1.12025 0.30386 0.69018
 C741 C 1.10720 0.28435 0.65732
 O742 O 1.07665 0.29738 0.60579
 C743 C 1.06344 0.33347 0.59741
 C744 C 1.06987 0.37059 0.62254
 C745 C 1.05511 0.40940 0.61899
 C746 C 1.03251 0.40948 0.58831
 C747 C 1.02622 0.37181 0.56210
 C748 C 1.04287 0.33429 0.56677
 H749 H 1.10068 0.41428 0.68887
 H750 H 1.13059 0.36876 0.72634
 H751 H 1.10795 0.24810 0.64787
 H752 H 1.06009 0.43800 0.63905
 H753 H 1.02062 0.43922 0.58498
 H754 H 1.03836 0.30525 0.54712
 C755 C 0.60682 -0.20653 0.62643
 C756 C 0.58908 -0.17522 0.63925
 C757 C 0.59713 -0.15951 0.67143
 C758 C 0.61988 -0.18109 0.69162
 C759 C 0.63442 -0.21808 0.67973
 C760 C 0.63049 -0.22829 0.64628
 O761 O 0.59565 -0.21531 0.59486
 C762 C 0.56895 -0.19006 0.58787
 C763 C 0.56298 -0.16628 0.61446
 C764 C 0.53032 -0.14399 0.61353
 C765 C 0.50388 -0.14469 0.58402
 C766 C 0.51550 -0.16147 0.55577
 C767 C 0.54747 -0.18617 0.55762
 H768 H 0.58738 -0.13050 0.68074
 H769 H 0.62865 -0.16638 0.71670
 H770 H 0.64065 -0.25621 0.63586
 H771 H 0.52524 -0.12665 0.63487
 H772 H 0.47876 -0.12729 0.58331
 H773 H 0.55494 -0.20178 0.53644
 C774 C 0.59829 0.27478 0.11944
 C775 C 0.62117 0.33793 0.12866
 C776 C 0.66111 0.37829 0.15818
 C777 C 0.67657 0.35152 0.17943
 C778 C 0.65246 0.28584 0.17084
 C779 C 0.61417 0.24770 0.14012
 O780 O 0.55653 0.24231 0.09108
 C781 C 0.55288 0.28582 0.08237
 C782 C 0.59174 0.34516 0.10455
 C783 C 0.59210 0.39554 0.10119
 C784 C 0.54990 0.38390 0.07400
 C785 C 0.50800 0.32219 0.05083
 C786 C 0.51069 0.27331 0.05497
 H787 H 0.67763 0.42734 0.16491
 H788 H 0.70540 0.38060 0.20290
 H789 H 0.59333 0.19628 0.13327
 H790 H 0.62248 0.44138 0.11916
 H791 H 0.54875 0.42217 0.07148
 H792 H 0.47837 0.22537 0.03792
 C793 C 0.90025 0.14642 0.13741
 C794 C 0.86753 0.14128 0.10926
 C795 C 0.84380 0.17196 0.10583
 C796 C 0.85250 0.20851 0.13267
 C797 C 0.87825 0.20851 0.16306
 C798 C 0.90561 0.17936 0.16507
 O799 O 0.91507 0.10965 0.13533
 C800 C 0.88959 0.07969 0.10534
 C801 C 0.85845 0.09646 0.08880
 C802 C 0.81483 0.06068 0.05936
 C803 C 0.80266 0.00519 0.04633
 C804 C 0.83958 -0.00896 0.06120
 C805 C 0.88381 0.02862 0.09138
 H806 H 0.81802 0.16674 0.08327
 H807 H 0.83568 0.23394 0.12955
 H808 H 0.92486 0.17709 0.18753
 H809 H 0.78608 0.07097 0.04790
 H810 H 0.76241 -0.02834 0.02488
 H811 H 0.90767 0.01469 0.10421
 C812 C 0.89796 0.66045 0.63476
 C813 C 0.89253 0.67898 0.60615
 C814 C 0.88246 0.72163 0.60322
 C815 C 0.87939 0.74750 0.63094
 C816 C 0.88475 0.72906 0.66084
 C817 C 0.89474 0.68517 0.66249
 O818 O 0.89703 0.61164 0.63226
 C819 C 0.89070 0.59878 0.60136
 C820 C 0.88791 0.63877 0.58428
 C821 C 0.87093 0.62643 0.55162
 C822 C 0.85295 0.56858 0.53616
 C823 C 0.85336 0.52537 0.55331
 C824 C 0.87480 0.54221 0.58629
 H825 H 0.87453 0.73237 0.58026
 H826 H 0.87099 0.78023 0.62892
 H827 H 0.89477 0.66640 0.68453
 H828 H 0.86649 0.65671 0.53869
 H829 H 0.83520 0.55538 0.51106
 H830 H 0.87253 0.50830 0.60016
 C831 C 0.38540 0.18534 0.63465
 C832 C 0.35975 0.18402 0.60523
 C833 C 0.32476 0.20460 0.60155
 C834 C 0.31943 0.22990 0.62904
 C835 C 0.34730 0.23256 0.65951
 C836 C 0.37769 0.20669 0.66172
 O837 O 0.42051 0.16813 0.63429
 C838 C 0.41806 0.15585 0.60394
 C839 C 0.38107 0.16386 0.58470
 C840 C 0.37233 0.15179 0.55185
 C841 C 0.40520 0.13333 0.53890
 C842 C 0.44397 0.12563 0.55888
 C843 C 0.44890 0.13621 0.59168
 H844 H 0.30471 0.20378 0.57842
 H845 H 0.29559 0.24897 0.62639
 H846 H 0.39699 0.20393 0.68401
 H847 H 0.33993 0.15474 0.53690
 H848 H 0.40073 0.12557 0.51355
 H849 H 0.47486 0.12789 0.60759
 C850 C 0.39677 0.63241 0.15308
 C851 C 0.37046 0.62873 0.12330
 C852 C 0.34680 0.65878 0.11683
 C853 C 0.34721 0.69181 0.14224
 C854 C 0.36617 0.69039 0.17395
 C855 C 0.39421 0.66239 0.17932
 O856 O 0.41907 0.60196 0.15321
 C857 C 0.40503 0.57780 0.12287
 C858 C 0.37361 0.59171 0.10401
 C859 C 0.34799 0.56667 0.07221
 C860 C 0.35578 0.52615 0.05891
 C861 C 0.39214 0.51378 0.07689
 C862 C 0.41757 0.54057 0.10954
 H863 H 0.32873 0.65704 0.09293
 H864 H 0.33020 0.71662 0.13702
 H865 H 0.40958 0.66052 0.20299
 H866 H 0.32110 0.57647 0.05820
 H867 H 0.33372 0.50497 0.03427
 H868 H 0.44470 0.53163 0.12404
   
