data_POSCAR
  _audit_creation_date              2014-09-24
  _audit_creation_method            'ToBaCCo'
  _symmetry_space_group_name_H-M    'P1'
  _symmetry_Int_Tables_number       1
  _symmetry_cell_setting            triclinic
  loop_
  _symmetry_equiv_pos_as_xyz
 x,y,z
_cell_length_a 36.6782
_cell_length_b 34.3872
_cell_length_c 36.6299
_cell_angle_alpha 91.467500
_cell_angle_beta 90.079100
_cell_angle_gamma 93.502900
loop_
  _atom_site_label
  _atom_site_type_symbol
  _atom_site_fract_x
  _atom_site_fract_y
  _atom_site_fract_z
N1 N 0.25109 0.19181 0.17182
 N2 N 0.24171 0.22345 0.15556
 C3 C 0.26610 0.23273 0.12933
 C4 C 0.29163 0.20506 0.12882
 C5 C 0.28159 0.17930 0.15594
 H6 H 0.26593 0.25836 0.11282
 H7 H 0.29645 0.15508 0.16499
 Cu8 Cu 0.19965 0.25107 0.17132
 Cu9 Cu 0.22531 0.17332 0.21555
 Cu10 Cu 0.18707 0.25046 0.26146
 N11 N 0.16627 0.28538 0.19471
 N12 N 0.16217 0.28586 0.23041
 C13 C 0.14025 0.31435 0.24015
 C14 C 0.12988 0.33198 0.20860
 C15 C 0.14669 0.31311 0.18023
 H16 H 0.13290 0.32189 0.26791
 H17 H 0.14594 0.31997 0.15160
 N18 N 0.20010 0.20244 0.28558
 N19 N 0.21205 0.17186 0.26766
 C20 C 0.21620 0.14299 0.29129
 C21 C 0.20667 0.15665 0.32554
 C22 C 0.19690 0.19425 0.32123
 H23 H 0.22679 0.11508 0.28436
 H24 H 0.18787 0.21397 0.34234
 H25 H 0.18023 0.20880 0.22127
 H26 H 0.22763 0.23065 0.22763
 N27 N 0.71901 -0.23536 0.17857
 N28 N 0.74278 -0.25600 0.16090
 C29 C 0.72618 -0.27503 0.13233
 C30 C 0.69029 -0.26552 0.13211
 C31 C 0.68611 -0.24094 0.16202
 H32 H 0.73852 -0.29635 0.11484
 H33 H 0.66096 -0.22987 0.17216
 Cu34 Cu 0.79160 -0.26106 0.17988
 Cu35 Cu 0.73232 -0.20669 0.22413
 Cu36 Cu 0.82548 -0.19528 0.24111
 N37 N 0.83527 -0.27029 0.20782
 N38 N 0.84969 -0.24337 0.23058
 C39 C 0.87703 -0.25823 0.24923
 C40 C 0.87958 -0.29643 0.23767
 C41 C 0.85251 -0.30347 0.21169
 H42 H 0.89064 -0.24403 0.27265
 H43 H 0.84351 -0.33140 0.19946
 N44 N 0.79018 -0.16197 0.26442
 N45 N 0.75445 -0.16805 0.26019
 C46 C 0.73755 -0.14564 0.28493
 C47 C 0.76411 -0.12459 0.30515
 C48 C 0.79712 -0.13536 0.29149
 H49 H 0.70836 -0.14610 0.28915
 H50 H 0.82395 -0.12731 0.30258
 H51 H 0.78210 -0.19492 0.20270
 H52 H 0.77983 -0.23156 0.23937
 N53 N 0.68903 0.22156 0.81901
 N54 N 0.69759 0.25794 0.82933
 C55 C 0.67455 0.26870 0.85584
 C56 C 0.65085 0.23709 0.86258
 C57 C 0.66048 0.20759 0.83890
 H58 H 0.67531 0.29704 0.86940
 H59 H 0.64728 0.17870 0.83578
 Cu60 Cu 0.73932 0.28701 0.80868
 Cu61 Cu 0.71397 0.19632 0.77871
 Cu62 Cu 0.79263 0.24466 0.74662
 N63 N 0.78932 0.30673 0.80018
 N64 N 0.81060 0.28951 0.77667
 C65 C 0.84466 0.30654 0.77916
 C66 C 0.84412 0.33615 0.80526
 C67 C 0.80900 0.33525 0.81855
 H68 H 0.86826 0.29650 0.76490
 H69 H 0.79918 0.35188 0.84160
 N70 N 0.77330 0.19392 0.72595
 N71 N 0.74283 0.17596 0.73780
 C72 C 0.73423 0.14467 0.71591
 C73 C 0.76092 0.14259 0.68972
 C74 C 0.78536 0.17408 0.69656
 H75 H 0.70961 0.12588 0.71777
 H76 H 0.80857 0.18325 0.68003
 H77 H 0.76380 0.22540 0.79095
 H78 H 0.73621 0.24508 0.75353
 N79 N 0.31905 -0.21697 0.79492
 N80 N 0.30481 -0.24545 0.81477
 C81 C 0.32793 -0.25211 0.84225
 C82 C 0.35814 -0.22641 0.83909
 C83 C 0.35188 -0.20458 0.80891
 H84 H 0.32332 -0.27414 0.86257
 H85 H 0.36992 -0.18185 0.79775
 Cu86 Cu 0.25772 -0.27171 0.80234
 Cu87 Cu 0.29437 -0.19938 0.75152
 Cu88 Cu 0.20427 -0.23411 0.73977
 N89 N 0.20574 -0.28692 0.79911
 N90 N 0.18482 -0.27169 0.77468
 C91 C 0.14999 -0.28544 0.77920
 C92 C 0.14950 -0.31073 0.80771
 C93 C 0.18491 -0.31082 0.82034
 H94 H 0.12677 -0.27650 0.76398
 H95 H 0.19452 -0.32560 0.84389
 N96 N 0.22675 -0.19118 0.71121
 N97 N 0.26140 -0.17856 0.71486
 C98 C 0.26897 -0.15042 0.69047
 C99 C 0.23735 -0.14524 0.67113
 C100 C 0.21116 -0.17118 0.68480
 H101 H 0.29530 -0.13508 0.68697
 H102 H 0.18318 -0.17572 0.67558
 H103 H 0.24432 -0.21055 0.77522
 H104 H 0.25859 -0.24636 0.73994
 N105 N 0.73955 -0.21574 0.81414
 N106 N 0.74366 -0.25281 0.82027
 C107 C 0.72018 -0.26479 0.84657
 C108 C 0.70132 -0.23298 0.85767
 C109 C 0.71428 -0.20238 0.83700
 H110 H 0.71668 -0.29425 0.85622
 H111 H 0.70423 -0.17346 0.83667
 Cu112 Cu 0.77936 -0.28118 0.79273
 Cu113 Cu 0.76252 -0.18937 0.77293
 Cu114 Cu 0.78962 -0.25427 0.70614
 N115 N 0.81272 -0.30695 0.76009
 N116 N 0.81505 -0.29734 0.72556
 C117 C 0.84086 -0.31751 0.70902
 C118 C 0.85548 -0.34062 0.73462
 C119 C 0.83772 -0.33307 0.76701
 H120 H 0.85052 -0.31291 0.68147
 H121 H 0.84394 -0.34363 0.79374
 N122 N 0.77894 -0.20031 0.69606
 N123 N 0.76984 -0.17504 0.72175
 C124 C 0.76514 -0.14042 0.70655
 C125 C 0.77222 -0.14441 0.66980
 C126 C 0.78096 -0.18248 0.66381
 H127 H 0.75711 -0.11455 0.72109
 H128 H 0.78830 -0.19611 0.63814
 H129 H 0.75223 -0.24127 0.74713
 H130 H 0.80174 -0.22755 0.75466
 N131 N 0.25776 0.19821 0.83629
 N132 N 0.24457 0.22897 0.85236
 C133 C 0.26495 0.23921 0.88217
 C134 C 0.29189 0.21317 0.88454
 C135 C 0.28674 0.18756 0.85523
 H136 H 0.26160 0.26457 0.89963
 H137 H 0.30406 0.16453 0.84710
 Cu138 Cu 0.20410 0.25446 0.83089
 Cu139 Cu 0.24037 0.17760 0.78938
 Cu140 Cu 0.17071 0.22401 0.74821
 N141 N 0.16549 0.28056 0.80696
 N142 N 0.15230 0.26844 0.77491
 C143 C 0.12673 0.29236 0.76437
 C144 C 0.12412 0.32073 0.79125
 C145 C 0.14892 0.31274 0.81792
 H146 H 0.11190 0.28990 0.73879
 H147 H 0.15489 0.32945 0.84285
 N148 N 0.19315 0.17848 0.72578
 N149 N 0.21959 0.16080 0.74188
 C150 C 0.23136 0.13289 0.71918
 C151 C 0.21130 0.13304 0.68761
 C152 C 0.18722 0.16209 0.69224
 H153 H 0.25392 0.11499 0.72444
 H154 H 0.16827 0.17170 0.67222
 H155 H 0.22222 0.22990 0.77099
 H156 H 0.18769 0.19625 0.79348
 N157 N 0.30593 -0.18411 0.15789
 N158 N 0.28697 -0.21373 0.14219
 C159 C 0.30778 -0.23095 0.11710
 C160 C 0.34112 -0.21047 0.11672
 C161 C 0.33940 -0.18081 0.14270
 H162 H 0.29958 -0.25692 0.10112
 H163 H 0.36123 -0.16001 0.15134
 Cu164 Cu 0.23752 -0.22854 0.15695
 Cu165 Cu 0.28662 -0.15513 0.19937
 Cu166 Cu 0.21365 -0.20459 0.24210
 N167 N 0.19603 -0.25499 0.18013
 N168 N 0.18732 -0.24607 0.21401
 C169 C 0.15975 -0.27069 0.22484
 C170 C 0.15107 -0.29616 0.19601
 C171 C 0.17441 -0.28571 0.16805
 H172 H 0.14795 -0.27096 0.25188
 H173 H 0.17674 -0.30039 0.14176
 N174 N 0.24335 -0.16146 0.26561
 N175 N 0.27033 -0.14154 0.24920
 C176 C 0.28460 -0.11354 0.27253
 C177 C 0.26553 -0.11658 0.30484
 C178 C 0.23967 -0.14695 0.29969
 H179 H 0.30727 -0.09310 0.26661
 H180 H 0.21961 -0.15743 0.31928
 H181 H 0.26342 -0.20714 0.21541
 H182 H 0.23091 -0.17204 0.19865
 N183 N 0.70407 0.20165 0.17561
 N184 N 0.72126 0.22933 0.15694
 C185 C 0.70042 0.23813 0.12833
 C186 C 0.66887 0.21437 0.12937
 C187 C 0.67180 0.19155 0.15950
 H188 H 0.70725 0.26068 0.10900
 H189 H 0.65149 0.17046 0.16971
 Cu190 Cu 0.76830 0.25245 0.17290
 Cu191 Cu 0.72291 0.18326 0.22121
 Cu192 Cu 0.80029 0.23353 0.25632
 N193 N 0.80786 0.28445 0.19546
 N194 N 0.82043 0.27682 0.22802
 C195 C 0.84669 0.30418 0.23777
 C196 C 0.85040 0.33005 0.20967
 C197 C 0.82554 0.31704 0.18328
 H198 H 0.86107 0.30580 0.26361
 H199 H 0.82001 0.33074 0.15777
 N200 N 0.77567 0.18880 0.28057
 N201 N 0.74622 0.16948 0.26705
 C202 C 0.73508 0.14141 0.29023
 C203 C 0.75869 0.14350 0.31942
 C204 C 0.78418 0.17360 0.31279
 H205 H 0.71133 0.12149 0.28653
 H206 H 0.80668 0.18393 0.33028
 H207 H 0.74873 0.23695 0.23436
 H208 H 0.77775 0.19917 0.21397
 C209 C 0.22951 0.02396 0.49662
 C210 C 0.24171 -0.01272 0.49792
 C211 C 0.24614 -0.03277 0.53296
 C212 C 0.24794 -0.03656 0.46446
 C213 C 0.22321 0.04363 0.46149
 C214 C 0.22198 0.04664 0.53059
 C215 C 0.28072 -0.04411 0.54321
 C216 C 0.28489 -0.06571 0.57461
 C217 C 0.25448 -0.07719 0.59568
 C218 C 0.21981 -0.06550 0.58568
 C219 C 0.21573 -0.04326 0.55461
 C220 C 0.27198 -0.02352 0.43683
 C221 C 0.27436 -0.04521 0.40408
 C222 C 0.25308 -0.08035 0.39908
 C223 C 0.23058 -0.09405 0.42728
 C224 C 0.22803 -0.07246 0.45972
 C225 C 0.20182 0.02549 0.43321
 C226 C 0.19758 0.04419 0.40010
 C227 C 0.21298 0.08198 0.39539
 C228 C 0.23305 0.10082 0.42409
 C229 C 0.23831 0.08170 0.45670
 C230 C 0.18811 0.06316 0.53496
 C231 C 0.18062 0.08466 0.56668
 C232 C 0.20671 0.08970 0.59455
 C233 C 0.24088 0.07375 0.58998
 C234 C 0.24858 0.05279 0.55807
 H235 H 0.30441 -0.03650 0.52664
 H236 H 0.31171 -0.07454 0.58195
 H237 H 0.19590 -0.07391 0.60160
 H238 H 0.18877 -0.03515 0.54685
 H239 H 0.28795 0.00388 0.44023
 H240 H 0.29205 -0.03422 0.38256
 H241 H 0.20942 -0.08313 0.48064
 H242 H 0.18867 -0.00322 0.43661
 H243 H 0.18176 0.02947 0.37830
 H244 H 0.24531 0.12999 0.42098
 H245 H 0.25456 0.09652 0.47816
 H246 H 0.16736 0.05913 0.51390
 H247 H 0.15432 0.09704 0.56974
 H248 H 0.26175 0.07782 0.61089
 H249 H 0.27530 0.04144 0.55480
 H250 H 0.21413 -0.12113 0.42364
 C251 C 0.77779 0.02813 0.50139
 C252 C 0.77847 -0.01117 0.49631
 C253 C 0.77950 -0.02902 0.45897
 C254 C 0.78004 -0.03820 0.52723
 C255 C 0.77969 0.04725 0.53806
 C256 C 0.77651 0.05437 0.47003
 C257 C 0.75036 -0.05418 0.44636
 C258 C 0.75147 -0.07165 0.41148
 C259 C 0.78213 -0.06470 0.38905
 C260 C 0.81126 -0.03974 0.40178
 C261 C 0.80994 -0.02182 0.43641
 C262 C 0.75541 -0.03685 0.55657
 C263 C 0.75722 -0.06298 0.58506
 C264 C 0.78297 -0.09160 0.58400
 C265 C 0.80682 -0.09363 0.55440
 C266 C 0.80561 -0.06702 0.52639
 C267 C 0.81257 0.05060 0.55785
 C268 C 0.81473 0.07183 0.59102
 C269 C 0.78389 0.08899 0.60517
 C270 C 0.75082 0.08496 0.58560
 C271 C 0.74894 0.06476 0.55202
 C272 C 0.80461 0.08335 0.46532
 C273 C 0.80490 0.10671 0.43471
 C274 C 0.77716 0.10149 0.40850
 C275 C 0.74839 0.07325 0.41367
 C276 C 0.74797 0.05003 0.44439
 H277 H 0.72678 -0.06018 0.46354
 H278 H 0.72883 -0.09121 0.40241
 H279 H 0.83518 -0.03446 0.38491
 H280 H 0.83283 -0.00281 0.44588
 H281 H 0.73441 -0.01609 0.55719
 H282 H 0.73802 -0.06144 0.60739
 H283 H 0.82469 -0.06896 0.50396
 H284 H 0.83667 0.03770 0.54711
 H285 H 0.84044 0.07498 0.60568
 H286 H 0.72679 0.09844 0.59575
 H287 H 0.72351 0.06280 0.53681
 H288 H 0.82680 0.08721 0.48487
 H289 H 0.82709 0.12850 0.43106
 H290 H 0.72645 0.06895 0.39391
 H291 H 0.72572 0.02828 0.44794
 H292 H 0.82658 -0.11578 0.55319
 C293 C 0.47913 0.19220 0.02560
 C294 C 0.47876 0.19551 -0.01124
 C295 C 0.51267 0.19823 -0.03315
 C296 C 0.44407 0.19471 -0.03185
 C297 C 0.44464 0.18818 0.04650
 C298 C 0.51361 0.19244 0.04672
 C299 C 0.52245 0.23276 -0.05124
 C300 C 0.55354 0.23529 -0.07326
 C301 C 0.57477 0.20291 -0.07820
 C302 C 0.56479 0.16831 -0.06036
 C303 C 0.53411 0.16605 -0.03764
 C304 C 0.42002 0.22469 -0.02735
 C305 C 0.38738 0.22350 -0.04719
 C306 C 0.37875 0.19243 -0.07199
 C307 C 0.40289 0.16275 -0.07657
 C308 C 0.43539 0.16386 -0.05669
 C309 C 0.42486 0.15204 0.04833
 C310 C 0.39212 0.14876 0.06793
 C311 C 0.37831 0.18172 0.08492
 C312 C 0.39821 0.21788 0.08305
 C313 C 0.43140 0.22092 0.06439
 C314 C 0.51925 0.16205 0.07054
 C315 C 0.55142 0.16202 0.09089
 C316 C 0.57843 0.19222 0.08771
 C317 C 0.57285 0.22290 0.06411
 C318 C 0.54048 0.22315 0.04399
 H319 H 0.50595 0.25772 -0.04826
 H320 H 0.56049 0.26219 -0.08707
 H321 H 0.58079 0.14308 -0.06411
 H322 H 0.52663 0.13905 -0.02417
 H323 H 0.42672 0.24910 -0.00879
 H324 H 0.36924 0.24695 -0.04353
 H325 H 0.45375 0.14060 -0.06056
 H326 H 0.43487 0.12650 0.03469
 H327 H 0.37713 0.12072 0.06929
 H328 H 0.38827 0.24362 0.09635
 H329 H 0.44649 0.24895 0.06328
 H330 H 0.49884 0.13819 0.07323
 H331 H 0.55538 0.13839 0.10918
 H332 H 0.59319 0.24684 0.06162
 H333 H 0.53625 0.24745 0.02658
 H334 H 0.39655 0.13885 -0.09580
 C335 C 0.52369 0.75229 0.01316
 C336 C 0.52317 0.75071 -0.02393
 C337 C 0.48892 0.75369 -0.04533
 C338 C 0.55732 0.74607 -0.04460
 C339 C 0.55501 0.73878 0.03406
 C340 C 0.49221 0.76530 0.03425
 C341 C 0.45803 0.72878 -0.03841
 C342 C 0.42664 0.72977 -0.06000
 C343 C 0.42560 0.75528 -0.08909
 C344 C 0.45641 0.78032 -0.09614
 C345 C 0.48786 0.77938 -0.07450
 C346 C 0.56119 0.71335 -0.06762
 C347 C 0.59318 0.70990 -0.08790
 C348 C 0.62107 0.73959 -0.08620
 C349 C 0.61729 0.77216 -0.06283
 C350 C 0.58574 0.77519 -0.04198
 C351 C 0.57461 0.76382 0.05900
 C352 C 0.60351 0.75021 0.07924
 C353 C 0.61247 0.71114 0.07523
 C354 C 0.59257 0.68625 0.05066
 C355 C 0.56424 0.69993 0.03006
 C356 C 0.48271 0.80415 0.03302
 C357 C 0.45267 0.81633 0.05273
 C358 C 0.43124 0.78956 0.07289
 C359 C 0.44093 0.75070 0.07431
 C360 C 0.47160 0.73882 0.05555
 H361 H 0.45851 0.70783 -0.01689
 H362 H 0.40325 0.71008 -0.05444
 H363 H 0.45637 0.80021 -0.11857
 H364 H 0.51147 0.79856 -0.08061
 H365 H 0.53945 0.69063 -0.06984
 H366 H 0.59575 0.68473 -0.10588
 H367 H 0.58307 0.80066 -0.02438
 H368 H 0.56762 0.79382 0.06261
 H369 H 0.61837 0.76988 0.09830
 H370 H 0.59910 0.65606 0.04748
 H371 H 0.54908 0.68006 0.01138
 H372 H 0.49864 0.82495 0.01688
 H373 H 0.44553 0.84637 0.05160
 H374 H 0.42493 0.72971 0.09014
 H375 H 0.47878 0.70880 0.05689
 H376 H 0.63857 0.79536 -0.06094
 C377 C 0.01796 0.52058 0.23377
 C378 C -0.01867 0.51891 0.23883
 C379 C -0.04048 0.48139 0.23788
 C380 C -0.03858 0.55401 0.24777
 C381 C 0.03980 0.55792 0.23126
 C382 C 0.03849 0.48490 0.23292
 C383 C -0.06453 0.47273 0.20866
 C384 C -0.08576 0.43765 0.20735
 C385 C -0.08336 0.41090 0.23552
 C386 C -0.05942 0.41969 0.26479
 C387 C -0.03807 0.45479 0.26606
 C388 C -0.04408 0.58254 0.22189
 C389 C -0.06337 0.61528 0.23150
 C390 C -0.07690 0.61975 0.26721
 C391 C -0.07112 0.59129 0.29281
 C392 C -0.05244 0.55852 0.28314
 C393 C 0.04320 0.58434 0.26109
 C394 C 0.06525 0.61877 0.25841
 C395 C 0.08427 0.62701 0.22612
 C396 C 0.08072 0.60058 0.19623
 C397 C 0.05871 0.56624 0.19889
 C398 C 0.05708 0.47496 0.26446
 C399 C 0.07669 0.44147 0.26463
 C400 C 0.07868 0.41790 0.23311
 C401 C 0.06017 0.42785 0.20130
 C402 C 0.03994 0.46114 0.20131
 H403 H -0.06675 0.49315 0.18685
 H404 H -0.10419 0.43162 0.18452
 H405 H -0.05750 0.39939 0.28673
 H406 H -0.01994 0.46138 0.28904
 H407 H -0.03360 0.57933 0.19442
 H408 H -0.06746 0.63705 0.21131
 H409 H -0.04838 0.53679 0.30341
 H410 H 0.02928 0.57801 0.28649
 H411 H 0.06800 0.63879 0.28169
 H412 H 0.09525 0.60621 0.17103
 H413 H 0.05651 0.54601 0.17572
 H414 H 0.05613 0.49306 0.28905
 H415 H 0.09080 0.43409 0.28926
 H416 H 0.06121 0.40989 0.17666
 H417 H 0.02566 0.46852 0.17678
 H418 H -0.08137 0.59448 0.32037
 C419 C 0.01741 0.51316 0.81157
 C420 C -0.01905 0.50971 0.80389
 C421 C -0.04146 0.47338 0.81258
 C422 C -0.03647 0.54134 0.78453
 C423 C 0.03686 0.55219 0.81748
 C424 C 0.03901 0.47801 0.81319
 C425 C -0.06777 0.45664 0.78793
 C426 C -0.08791 0.42202 0.79633
 C427 C -0.08184 0.40368 0.82950
 C428 C -0.05609 0.42065 0.85417
 C429 C -0.03643 0.45533 0.84609
 C430 C -0.07065 0.55414 0.79522
 C431 C -0.08662 0.58357 0.77602
 C432 C -0.06852 0.60026 0.74584
 C433 C -0.03478 0.58717 0.73511
 C434 C -0.01900 0.55787 0.75401
 C435 C 0.02194 0.57988 0.84104
 C436 C 0.04054 0.61595 0.84801
 C437 C 0.07423 0.62521 0.83152
 C438 C 0.08930 0.59771 0.80778
 C439 C 0.07082 0.56134 0.80103
 C440 C 0.06418 0.47382 0.84152
 C441 C 0.08487 0.44097 0.84222
 C442 C 0.08096 0.41217 0.81452
 C443 C 0.05593 0.41644 0.78606
 C444 C 0.03524 0.44912 0.78538
 H445 H -0.07231 0.46998 0.76199
 H446 H -0.10772 0.40938 0.77683
 H447 H -0.05136 0.40696 0.87991
 H448 H -0.01705 0.46803 0.86601
 H449 H -0.08475 0.54155 0.81846
 H450 H -0.11285 0.59323 0.78470
 H451 H 0.00688 0.54785 0.74459
 H452 H -0.00390 0.57330 0.85450
 H453 H 0.02869 0.63680 0.86645
 H454 H 0.11539 0.60415 0.79480
 H455 H 0.08292 0.54041 0.78287
 H456 H 0.06764 0.49583 0.86313
 H457 H 0.10416 0.43806 0.86424
 H458 H 0.05250 0.39470 0.76423
 H459 H 0.01651 0.45210 0.76288
 H460 H -0.02075 0.59964 0.71177
 N461 N 0.32474 0.20714 0.10834
 N462 N 0.34432 0.17809 0.10415
 N463 N 0.66421 0.71530 0.11358
 N464 N 0.64094 0.69533 0.09600
 N465 N 0.62121 0.23619 -0.11215
 N466 N 0.60563 0.20412 -0.10221
 N467 N 0.39040 0.77610 -0.13874
 N468 N 0.39341 0.75420 -0.11153
 N469 N 0.10853 0.36516 0.20582
 N470 N 0.09986 0.38434 0.23432
 N471 N 0.12027 0.67490 0.82413
 N472 N 0.09239 0.66251 0.83985
 N473 N -0.10736 0.67696 0.25793
 N474 N -0.09633 0.65272 0.27881
 N475 N -0.12734 0.35289 0.82194
 N476 N -0.10089 0.36776 0.83907
 N477 N 0.20933 0.13756 0.35951
 N478 N 0.20850 0.10062 0.36126
 N479 N 0.75900 0.11753 0.65800
 N480 N 0.78689 0.11194 0.63838
 N481 N 0.23244 -0.12010 0.64126
 N482 N 0.25933 -0.10183 0.62611
 N483 N 0.75865 -0.10304 0.33839
 N484 N 0.78545 -0.08443 0.35439
 N485 N 0.67088 0.76798 -0.11826
 N486 N 0.65201 0.73731 -0.10977
 N487 N 0.32250 0.21594 -0.09131
 N488 N 0.34651 0.19088 -0.09400
 N489 N 0.37231 0.77838 0.09681
 N490 N 0.39968 0.80207 0.09163
 N491 N 0.63790 0.21580 0.10601
 N492 N 0.61069 0.19147 0.10953
 N493 N -0.11322 0.64360 0.73087
 N494 N -0.08324 0.63040 0.72517
 N495 N -0.12705 0.36526 0.20904
 N496 N -0.10550 0.37516 0.23535
 N497 N 0.10172 0.35316 0.79019
 N498 N 0.10303 0.37927 0.81548
 N499 N 0.12650 0.67010 0.19639
 N500 N 0.10806 0.66150 0.22476
 N501 N 0.77063 -0.11491 0.64328
 N502 N 0.78476 -0.11970 0.61193
 N503 N 0.27066 -0.09296 0.33730
 N504 N 0.25192 -0.10209 0.36532
 N505 N 0.75607 0.11992 0.35083
 N506 N 0.77912 0.12484 0.37673
 N507 N 0.21834 0.11086 0.65527
 N508 N 0.19824 0.11137 0.62702
   
