data_POSCAR
  _audit_creation_date              2014-09-24
  _audit_creation_method            'ToBaCCo'
  _symmetry_space_group_name_H-M    'P1'
  _symmetry_Int_Tables_number       1
  _symmetry_cell_setting            triclinic
  loop_
  _symmetry_equiv_pos_as_xyz
 x,y,z
_cell_length_a 23.8121
_cell_length_b 23.6351
_cell_length_c 25.2247
_cell_angle_alpha 89.472400
_cell_angle_beta 89.617700
_cell_angle_gamma 91.304800
loop_
  _atom_site_label
  _atom_site_type_symbol
  _atom_site_fract_x
  _atom_site_fract_y
  _atom_site_fract_z
C1 C 0.32817 0.33919 1.39976
 C2 C 0.28323 0.36823 1.42196
 C3 C 0.26142 0.41645 1.39658
 C4 C 0.28706 0.43603 1.34903
 C5 C 0.33166 0.40681 1.32580
 C6 C 0.35241 0.35837 1.35158
 C7 C 0.34861 0.29064 1.42492
 C8 C 0.39372 0.26091 1.40326
 C9 C 0.41756 0.28051 1.35474
 C10 C 0.39689 0.32857 1.32884
 C11 C 0.41940 0.34642 1.27983
 C12 C 0.39846 0.39374 1.25284
 C13 C 0.35479 0.42429 1.27654
 H14 H 0.26653 0.35325 1.45962
 H15 H 0.27098 0.47303 1.32898
 H16 H 0.32933 0.27607 1.46184
 H17 H 0.45072 0.25787 1.33539
 H18 H 0.45309 0.32274 1.26211
 H19 H 0.33756 0.46058 1.25654
 C20 C 1.17147 0.67095 0.89586
 C21 C 1.21871 0.65073 0.92269
 C22 C 1.25215 0.60833 0.90074
 C23 C 1.23697 0.58662 0.85043
 C24 C 1.18972 0.60613 0.82346
 C25 C 1.15650 0.64808 0.84643
 C26 C 1.13962 0.71442 0.91752
 C27 C 1.09301 0.73641 0.89014
 C28 C 1.07715 0.71110 0.84189
 C29 C 1.10869 0.66757 0.81966
 C30 C 1.09410 0.64421 0.77038
 C31 C 1.12764 0.60283 0.74692
 C32 C 1.17559 0.58454 0.77344
 H33 H 1.22973 0.66854 0.96083
 H34 H 1.26112 0.55479 0.83094
 H35 H 1.15192 0.73025 0.95583
 H36 H 1.04114 0.72662 0.82053
 H37 H 1.05774 0.65948 0.74946
 H38 H 1.20158 0.55293 0.75521
 C39 C 0.64793 -0.17524 0.09910
 C40 C 0.69797 -0.15214 0.07711
 C41 C 0.72685 -0.10740 0.10253
 C42 C 0.70446 -0.08561 0.14954
 C43 C 0.65467 -0.10803 0.17164
 C44 C 0.62607 -0.15288 0.14632
 C45 C 0.62045 -0.22158 0.07553
 C46 C 0.57179 -0.24690 0.09917
 C47 C 0.54898 -0.22209 0.14467
 C48 C 0.57631 -0.17614 0.16892
 C49 C 0.55592 -0.15471 0.21677
 C50 C 0.58476 -0.11064 0.24269
 C51 C 0.63416 -0.08734 0.21966
 H52 H 0.71428 -0.16981 0.04092
 H53 H 0.72647 -0.05137 0.16960
 H54 H 0.63756 -0.23719 0.03882
 H55 H 0.51141 -0.24050 0.16306
 H56 H 0.51814 -0.17325 0.23460
 H57 H 0.65816 -0.05460 0.23959
 C58 C -0.16483 1.17820 -0.38417
 C59 C -0.20908 1.14984 -0.40995
 C60 C -0.23097 1.09766 -0.38997
 C61 C -0.20599 1.07359 -0.34488
 C62 C -0.16131 1.10112 -0.31916
 C63 C -0.14120 1.15401 -0.33840
 C64 C -0.14497 1.23135 -0.40242
 C65 C -0.10288 1.26099 -0.37454
 C66 C -0.08011 1.23706 -0.32880
 C67 C -0.09838 1.18345 -0.31103
 C68 C -0.07527 1.15945 -0.26557
 C69 C -0.09441 1.10650 -0.24645
 C70 C -0.13771 1.07745 -0.27339
 H71 H -0.22727 1.17033 -0.44398
 H72 H -0.22204 1.03350 -0.32903
 H73 H -0.16339 1.25046 -0.43726
 H74 H -0.04776 1.26014 -0.30731
 H75 H -0.04255 1.18249 -0.24450
 H76 H -0.15447 1.03752 -0.25824
 C77 C 0.66836 0.67210 0.61430
 C78 C 0.71691 0.65117 0.58997
 C79 C 0.74149 0.60139 0.60915
 C80 C 0.71620 0.57228 0.65220
 C81 C 0.66806 0.59270 0.67692
 C82 C 0.64426 0.64314 0.65830
 C83 C 0.64436 0.72225 0.59599
 C84 C 0.59738 0.74511 0.62207
 C85 C 0.57470 0.71642 0.66675
 C86 C 0.59687 0.66499 0.68420
 C87 C 0.57274 0.63522 0.72745
 C88 C 0.59628 0.58484 0.74603
 C89 C 0.64397 0.56381 0.72054
 H90 H 0.73579 0.67465 0.55720
 H91 H 0.73474 0.53386 0.66721
 H92 H 0.66438 0.74453 0.56302
 H93 H 0.53878 0.73350 0.68732
 H94 H 0.53611 0.65168 0.74731
 H95 H 0.66200 0.52466 0.73427
 C96 C 0.82986 0.32181 0.12083
 C97 C 0.78258 0.34610 0.09784
 C98 C 0.76154 0.39755 0.11682
 C99 C 0.79033 0.42545 0.15808
 C100 C 0.83647 0.40051 0.18294
 C101 C 0.85588 0.34819 0.16442
 C102 C 0.85095 0.27099 0.10123
 C103 C 0.89646 0.24454 0.12620
 C104 C 0.91987 0.26967 0.17154
 C105 C 0.90085 0.32176 0.18995
 C106 C 0.92591 0.34748 0.23388
 C107 C 0.90721 0.39953 0.25294
 C108 C 0.86249 0.42615 0.22695
 H109 H 0.76338 0.32530 0.06423
 H110 H 0.77518 0.46542 0.17259
 H111 H 0.83007 0.25120 0.06797
 H112 H 0.95433 0.24949 0.19168
 H113 H 0.96007 0.32654 0.25376
 H114 H 0.84649 0.46553 0.24167
 C115 C 0.32380 0.15737 0.88044
 C116 C 0.27723 0.13422 0.90808
 C117 C 0.24745 0.08661 0.88830
 C118 C 0.26591 0.06208 0.84075
 C119 C 0.31134 0.08576 0.81195
 C120 C 0.34063 0.13339 0.83202
 C121 C 0.35321 0.20490 0.89993
 C122 C 0.39848 0.22930 0.87100
 C123 C 0.41449 0.20565 0.82266
 C124 C 0.38633 0.15756 0.80326
 C125 C 0.40259 0.13390 0.75504
 C126 C 0.37327 0.08680 0.73463
 C127 C 0.32741 0.06318 0.76292
 H128 H 0.26544 0.15293 0.94540
 H129 H 0.24358 0.02545 0.82502
 H130 H 0.33958 0.22406 0.93656
 H131 H 0.44898 0.22488 0.80010
 H132 H 0.43731 0.15291 0.73267
 H133 H 0.30463 0.02704 0.74688
 C134 C 0.16463 0.85700 0.39807
 C135 C 0.21025 0.88134 0.42524
 C136 C 0.23874 0.92937 0.40445
 C137 C 0.22119 0.95345 0.35656
 C138 C 0.17644 0.92896 0.32847
 C139 C 0.14751 0.88096 0.34964
 C140 C 0.13685 0.80831 0.41801
 C141 C 0.09210 0.78236 0.38982
 C142 C 0.07420 0.80805 0.34252
 C143 C 0.10206 0.85641 0.32191
 C144 C 0.08636 0.87951 0.27304
 C145 C 0.11619 0.92623 0.25113
 C146 C 0.16110 0.95075 0.27892
 H147 H 0.22383 0.86287 0.46237
 H148 H 0.24370 0.99015 0.34033
 H149 H 0.15037 0.79183 0.45579
 H150 H 0.03972 0.78911 0.32048
 H151 H 0.05232 0.85980 0.25105
 H152 H 0.18406 0.98672 0.26184
 Zn153 Zn -0.00130 1.06183 -0.03316
 Zn154 Zn -0.04248 0.94063 -0.04129
 Zn155 Zn 0.06143 0.97056 0.02007
 Zn156 Zn -0.05010 1.00459 0.06099
 O157 O -0.00815 0.99414 0.00147
 O158 O -0.03085 1.05831 -0.09704
 O159 O 0.00128 0.88020 -0.05375
 O160 O 0.11711 1.01615 -0.00460
 O161 O -0.06082 0.96945 -0.10512
 O162 O 0.07007 1.08492 -0.04310
 O163 O 0.07632 0.90292 -0.00635
 O164 O -0.01516 0.98405 0.11977
 O165 O -0.10788 0.91349 -0.01323
 O166 O 0.06970 0.96322 0.09046
 O167 O -0.11335 0.96360 0.06029
 O168 O -0.07033 1.07639 0.07114
 O169 O -0.03627 1.11855 -0.00110
 C170 C -0.05454 1.01936 -0.12360
 C171 C 0.05004 0.86919 -0.03665
 C172 C 0.11592 1.06217 -0.03079
 C173 C 0.03442 0.96816 0.12804
 C174 C -0.13376 0.92709 0.02882
 C175 C -0.06308 1.12022 0.04235
 Zn176 Zn 0.50055 -0.06540 0.46339
 Zn177 Zn 0.54814 -0.01075 0.55866
 Zn178 Zn 0.55636 0.04829 0.45343
 Zn179 Zn 0.44505 0.03609 0.50806
 O180 O 0.51242 0.00221 0.49598
 O181 O 0.53144 -0.12350 0.49714
 O182 O 0.61439 0.02609 0.56190
 O183 O 0.57467 0.01626 0.39204
 O184 O 0.56318 -0.08418 0.57070
 O185 O 0.52982 -0.06650 0.39841
 O186 O 0.62061 0.07021 0.48421
 O187 O 0.43965 0.10379 0.47471
 O188 O 0.50897 0.01346 0.61422
 O189 O 0.52233 0.11159 0.43444
 O190 O 0.43245 0.04797 0.57741
 O191 O 0.38668 -0.00594 0.48506
 O192 O 0.42784 -0.08289 0.45568
 C193 C 0.55607 -0.12706 0.54133
 C194 C 0.64054 0.05867 0.52941
 C195 C 0.56022 -0.03105 0.37259
 C196 C 0.47421 0.13067 0.44458
 C197 C 0.46196 0.03730 0.61797
 C198 C 0.38414 -0.05472 0.46437
 Zn199 Zn 1.00937 0.44866 0.46382
 Zn200 Zn 1.07313 0.54189 0.51667
 Zn201 Zn 0.96623 0.56626 0.45691
 Zn202 Zn 0.96331 0.50171 0.56019
 O203 O 1.00300 0.51495 0.49924
 O204 O 1.08047 0.42893 0.45409
 O205 O 1.08671 0.60954 0.48791
 O206 O 0.94573 0.53723 0.39332
 O207 O 1.12885 0.49787 0.49318
 O208 O 0.97810 0.45054 0.40009
 O209 O 1.00917 0.62898 0.44358
 O210 O 0.89932 0.53840 0.56085
 O211 O 1.08240 0.55263 0.58710
 O212 O 0.90151 0.58949 0.48687
 O213 O 0.99909 0.52519 0.61838
 O214 O 0.94443 0.42864 0.57058
 O215 O 0.97603 0.39004 0.49697
 C216 C 1.12675 0.45198 0.46738
 C217 C 1.05857 0.64226 0.45884
 C218 C 0.95224 0.48812 0.37438
 C219 C 0.87732 0.57400 0.52985
 C220 C 1.04790 0.54610 0.62549
 C221 C 0.95089 0.38591 0.54122
 Zn222 Zn 0.50567 0.41528 1.03638
 Zn223 Zn 0.45922 0.53258 1.02776
 Zn224 Zn 0.57679 0.50756 0.98949
 Zn225 Zn 0.47898 0.46326 0.93069
 O226 O 0.50492 0.47995 0.99639
 O227 O 0.46734 0.42217 1.09707
 O228 O 0.49744 0.59813 1.04080
 O229 O 0.62798 0.46612 1.02314
 O230 O 0.43190 0.50792 1.09150
 O231 O 0.57524 0.39513 1.05491
 O232 O 0.58348 0.57663 1.01467
 O233 O 0.52494 0.48641 0.87799
 O234 O 0.39869 0.55028 0.98692
 O235 O 0.59984 0.51582 0.92209
 O236 O 0.41541 0.49706 0.91706
 O237 O 0.46275 0.38980 0.92226
 O238 O 0.47531 0.35536 1.00313
 C239 C 0.43857 0.46162 1.11664
 C240 C 0.54921 0.61114 1.03393
 C241 C 0.62279 0.41961 1.04836
 C242 C 0.57392 0.50853 0.87892
 C243 C 0.38521 0.53187 0.94128
 C244 C 0.45999 0.34911 0.95545
 C245 C 1.21446 0.44514 0.41656
 C246 C 1.17860 0.42339 0.45315
 H247 H 1.20426 0.48553 0.39866
 H248 H 1.18205 0.38054 0.46776
 C249 C 0.29963 0.59020 0.92961
 C250 C 0.33429 0.54972 0.91332
 H251 H 0.30893 0.61045 0.96705
 H252 H 0.32706 0.52773 0.87671
 C253 C -0.21896 0.91766 0.08331
 C254 C -0.18867 0.89993 0.04181
 H255 H -0.20230 0.95284 0.10610
 H256 H -0.20325 0.86543 0.01730
 C257 C 0.72125 0.06990 0.58898
 C258 C 0.69437 0.08543 0.54470
 H259 H 0.70430 0.03360 0.61091
 H260 H 0.71066 0.11866 0.51888
 C261 C 0.41162 0.21175 0.43008
 C262 C 0.45884 0.18423 0.41859
 H263 H 0.38592 0.19560 0.46277
 H264 H 0.48844 0.20076 0.38942
 C265 C 0.91692 0.31783 0.60855
 C266 C 0.92847 0.33017 0.55786
 H267 H 0.92619 0.34876 0.63893
 H268 H 0.92390 0.29769 0.52803
 C269 C 0.06257 0.78347 -0.09181
 C270 C 0.07875 0.81697 -0.05160
 H271 H 0.02555 0.79533 -0.11373
 H272 H 0.11709 0.80950 -0.03039
 C273 C 0.54655 0.70249 1.08071
 C274 C 0.57218 0.66714 1.04772
 H275 H 0.50642 0.68888 1.09767
 H276 H 0.61434 0.67608 1.03347
 C277 C 0.42251 0.40715 1.19933
 C278 C 0.41235 0.45341 1.16976
 H279 H 0.45101 0.37639 1.18337
 H280 H 0.38555 0.48618 1.18435
 C281 C 0.56411 -0.09316 0.29538
 C282 C 0.57967 -0.04478 0.31900
 H283 H 0.53468 -0.12175 0.31562
 H284 H 0.60672 -0.01394 0.29902
 C285 C -0.07060 1.08604 -0.19603
 C286 C -0.07633 1.03322 -0.17652
 H287 H -0.04708 1.11717 -0.17335
 H288 H -0.09780 1.00025 -0.19846
 C289 C 1.11487 0.58022 0.69359
 C290 C 1.06260 0.56530 0.67931
 H291 H 1.14950 0.57399 0.66634
 H292 H 1.02878 0.56788 0.70811
 C293 C 0.79495 0.57916 0.58815
 C294 C 0.82273 0.59801 0.54469
 H295 H 0.81286 0.54488 0.61082
 H296 H 0.80608 0.63091 0.51972
 C297 C 0.71304 0.42202 1.09547
 C298 C 0.67290 0.39251 1.06970
 H299 H 0.70570 0.46630 1.10338
 H300 H 0.67387 0.34684 1.06768
 C301 C 0.19965 1.06264 -0.08619
 C302 C 0.16865 1.08874 -0.04954
 H303 H 0.18424 1.02175 -0.09989
 H304 H 0.17698 1.13226 -0.03874
 C305 C 0.28861 -0.04627 0.43079
 C306 C 0.32985 -0.07902 0.44802
 H307 H 0.29488 -0.00068 0.42961
 H308 H 0.32622 -0.12456 0.44386
 C309 C 0.57366 -0.20343 0.60588
 C310 C 0.57937 -0.18173 0.55679
 H311 H 0.54685 -0.18166 0.63363
 H312 H 0.59838 -0.20587 0.52546
 C313 C 1.06521 0.73127 0.40639
 C314 C 1.08537 0.69675 0.44385
 H315 H 1.02770 0.71745 0.38556
 H316 H 1.12491 0.70599 0.46295
 C317 C -0.08156 1.19320 0.10828
 C318 C -0.08736 1.17395 0.05870
 H319 H -0.05529 1.16947 0.13510
 H320 H -0.10601 1.19965 0.02809
 C321 C 0.42687 0.28209 0.88819
 C322 C 0.43652 0.29391 0.93913
 H323 H 0.44095 0.31177 0.85761
 H324 H 0.42607 0.26287 0.96971
 C325 C 0.57022 0.55497 0.79209
 C326 C 0.60049 0.52923 0.82948
 H327 H 0.52536 0.55910 0.79811
 H328 H 0.64593 0.53029 0.82706
 C329 C 0.38942 0.06357 0.68279
 C330 C 0.44328 0.05497 0.67072
 H331 H 0.35672 0.05281 0.65471
 H332 H 0.47516 0.06127 0.70072
 C333 C 0.10265 0.94770 0.19786
 C334 C 0.04952 0.95293 0.18245
 H335 H 0.13688 0.95979 0.17126
 H336 H 0.01558 0.94504 0.21060
 C337 C 0.93351 0.42138 0.30221
 C338 C 0.92782 0.47348 0.32225
 H339 H 0.95904 0.39167 0.32379
 H340 H 0.90411 0.50515 0.30152
   
