data_POSCAR
  _audit_creation_date              2014-09-24
  _audit_creation_method            'ToBaCCo'
  _symmetry_space_group_name_H-M    'P1'
  _symmetry_Int_Tables_number       1
  _symmetry_cell_setting            triclinic
  loop_
  _symmetry_equiv_pos_as_xyz
 x,y,z
_cell_length_a 37.3757
_cell_length_b 37.3605
_cell_length_c 35.9996
_cell_angle_alpha 89.926100
_cell_angle_beta 90.022300
_cell_angle_gamma 89.990000
loop_
  _atom_site_label
  _atom_site_type_symbol
  _atom_site_fract_x
  _atom_site_fract_y
  _atom_site_fract_z
C1 C 1.27330 0.21239 0.27362
 C2 C 1.24971 0.23068 0.25030
 C3 C 1.22592 0.21186 0.22787
 C4 C 1.22476 0.17436 0.22889
 C5 C 1.24891 0.15599 0.25233
 C6 C 1.27403 0.17457 0.27482
 C7 C 1.24976 0.26994 0.24958
 C8 C 1.27342 0.28817 0.22631
 C9 C 1.27424 0.32598 0.22511
 C10 C 1.24913 0.34463 0.24754
 C11 C 1.22489 0.32632 0.27092
 C12 C 1.22597 0.28882 0.27194
 H13 H 1.28993 0.22838 0.29171
 H14 H 1.20865 0.22677 0.20928
 H15 H 1.29003 0.27212 0.20826
 H16 H 1.20864 0.27396 0.29049
 H17 H 1.24841 0.12716 0.25201
 H18 H 1.24870 0.37347 0.24788
 C19 C 0.77321 -0.28839 0.27309
 C20 C 0.74940 -0.27009 0.25003
 C21 C 0.72562 -0.28888 0.22757
 C22 C 0.72469 -0.32640 0.22834
 C23 C 0.74906 -0.34478 0.25153
 C24 C 0.77416 -0.32619 0.27401
 C25 C 0.74918 -0.23084 0.24974
 C26 C 0.77268 -0.21221 0.22665
 C27 C 0.77352 -0.17461 0.22676
 C28 C 0.74921 -0.15606 0.24979
 C29 C 0.72490 -0.17466 0.27282
 C30 C 0.72570 -0.21226 0.27287
 H31 H 0.78981 -0.27243 0.29123
 H32 H 0.70816 -0.27396 0.20920
 H33 H 0.79000 -0.22734 0.20836
 H34 H 0.70847 -0.22742 0.29125
 H35 H 0.74872 -0.37362 0.25104
 H36 H 0.74924 -0.12714 0.24983
 C37 C 0.77352 0.21232 -0.22679
 C38 C 0.75003 0.23092 -0.24995
 C39 C 0.72648 0.21231 -0.27298
 C40 C 0.72560 0.17472 -0.27277
 C41 C 0.74990 0.15614 -0.24969
 C42 C 0.77428 0.17471 -0.22674
 C43 C 0.75023 0.27016 -0.25030
 C44 C 0.77396 0.28847 -0.27341
 C45 C 0.77477 0.32627 -0.27447
 C46 C 0.74961 0.34485 -0.25206
 C47 C 0.72530 0.32646 -0.22883
 C48 C 0.72637 0.28895 -0.22793
 H49 H 0.79088 0.22747 -0.20855
 H50 H 0.70924 0.22745 -0.29139
 H51 H 0.79060 0.27249 -0.29150
 H52 H 0.70894 0.27403 -0.20954
 H53 H 0.74986 0.12723 -0.24962
 H54 H 0.74917 0.37368 -0.25165
 C55 C 1.27311 -0.28823 -0.22666
 C56 C 1.24935 -0.26993 -0.24975
 C57 C 1.22554 -0.28870 -0.27219
 C58 C 1.22456 -0.32620 -0.27139
 C59 C 1.24888 -0.34460 -0.24817
 C60 C 1.27400 -0.32603 -0.22571
 C61 C 1.24917 -0.23071 -0.25008
 C62 C 1.27265 -0.21214 -0.27324
 C63 C 1.27348 -0.17455 -0.27321
 C64 C 1.24919 -0.15594 -0.25023
 C65 C 1.22490 -0.17450 -0.22715
 C66 C 1.22569 -0.21209 -0.22700
 H67 H 1.28974 -0.27228 -0.20853
 H68 H 1.20811 -0.27376 -0.29059
 H69 H 1.28995 -0.22731 -0.29151
 H70 H 1.20846 -0.22720 -0.20859
 H71 H 1.24851 -0.37344 -0.24865
 H72 H 1.24922 -0.12702 -0.25025
 C73 C 0.21167 0.27341 0.72725
 C74 C 0.23041 0.24962 0.74981
 C75 C 0.21206 0.22585 0.77286
 C76 C 0.17427 0.22493 0.77367
 C77 C 0.15573 0.25002 0.75105
 C78 C 0.17417 0.27437 0.72788
 C79 C 0.26965 0.24997 0.74984
 C80 C 0.28799 0.27377 0.77282
 C81 C 0.32578 0.27468 0.77369
 C82 C 0.34432 0.24957 0.75117
 C83 C 0.32590 0.22521 0.72805
 C84 C 0.28840 0.22617 0.72738
 H85 H 0.22663 0.29088 0.70893
 H86 H 0.22799 0.20929 0.79113
 H87 H 0.27206 0.29036 0.79100
 H88 H 0.27345 0.20869 0.70909
 H89 H 0.12691 0.25038 0.75044
 H90 H 0.37314 0.24920 0.75062
 C91 C 0.71193 0.77418 0.72764
 C92 C 0.73047 0.75016 0.75014
 C93 C 0.71201 0.72622 0.77276
 C94 C 0.67429 0.72528 0.77320
 C95 C 0.65586 0.75031 0.75040
 C96 C 0.67420 0.77527 0.72747
 C97 C 0.76973 0.75014 0.75007
 C98 C 0.78838 0.77357 0.77319
 C99 C 0.82597 0.77435 0.77311
 C100 C 0.84450 0.75004 0.75004
 C101 C 0.82589 0.72579 0.72697
 C102 C 0.78829 0.72666 0.72692
 H103 H 0.72763 0.79087 0.70930
 H104 H 0.72778 0.70948 0.79101
 H105 H 0.77328 0.79083 0.79156
 H106 H 0.77312 0.70944 0.70857
 H107 H 0.62712 0.75036 0.75050
 H108 H 0.87340 0.75000 0.75005
 C109 C 0.71189 0.27324 0.22676
 C110 C 0.73045 0.24984 0.25004
 C111 C 0.71183 0.22636 0.27318
 C112 C 0.67425 0.22546 0.27292
 C113 C 0.65571 0.24970 0.24974
 C114 C 0.67431 0.27401 0.22671
 C115 C 0.76964 0.24985 0.25011
 C116 C 0.78820 0.27331 0.27326
 C117 C 0.82578 0.27421 0.27314
 C118 C 0.84438 0.24997 0.25008
 C119 C 0.82583 0.22567 0.22704
 C120 C 0.78826 0.22644 0.22695
 H121 H 0.72705 0.29051 0.20840
 H122 H 0.72694 0.20914 0.29163
 H123 H 0.77305 0.29053 0.29162
 H124 H 0.77315 0.20919 0.20858
 H125 H 0.62680 0.24965 0.24961
 H126 H 0.87328 0.25002 0.25005
 C127 C 0.21206 0.77406 0.22766
 C128 C 0.23057 0.74997 0.25008
 C129 C 0.21210 0.72598 0.27264
 C130 C 0.17439 0.72507 0.27308
 C131 C 0.15597 0.75017 0.25035
 C132 C 0.17434 0.77517 0.22749
 C133 C 0.26982 0.74992 0.25000
 C134 C 0.28848 0.77347 0.27299
 C135 C 0.32607 0.77427 0.27284
 C136 C 0.34457 0.74987 0.24987
 C137 C 0.32595 0.72552 0.22694
 C138 C 0.28836 0.72636 0.22694
 H139 H 0.22778 0.79077 0.20935
 H140 H 0.22787 0.70920 0.29085
 H141 H 0.27339 0.79081 0.29129
 H142 H 0.27317 0.70906 0.20869
 H143 H 0.12723 0.75025 0.25045
 H144 H 0.37348 0.74985 0.24984
 O145 O 1.06106 0.01853 0.04638
 O146 O 0.93910 -0.01828 0.04619
 O147 O 0.98193 0.06130 0.04572
 O148 O 1.01869 -0.06065 0.04684
 O149 O 0.93212 0.04166 0.02612
 O150 O 1.06850 -0.04148 0.02696
 O151 O 0.95878 -0.06817 0.02691
 O152 O 1.04190 0.06832 0.02622
 C153 C 1.05924 0.05115 0.05007
 C154 C 0.94106 -0.05086 0.05028
 C155 C 0.94935 0.05932 0.04961
 C156 C 1.05126 -0.05870 0.05083
 O157 O 1.06130 -0.01854 -0.04503
 O158 O 0.93937 0.01827 -0.04562
 O159 O 1.01887 0.06052 -0.04580
 O160 O 0.98204 -0.06145 -0.04489
 O161 O 0.93219 -0.04168 -0.02558
 O162 O 1.06863 0.04148 -0.02562
 O163 O 1.04196 -0.06834 -0.02502
 O164 O 0.95893 0.06814 -0.02618
 Co165 Co 1.05847 -0.00000 0.00065
 Co166 Co 0.94210 -0.00001 0.00029
 Co167 Co 1.00042 0.05816 0.00001
 Co168 Co 1.00039 -0.05824 0.00093
 O169 O 1.00033 -0.00003 0.00047
 C170 C 1.05940 -0.05115 -0.04876
 C171 C 0.94133 0.05085 -0.04967
 C172 C 1.05147 0.05868 -0.04959
 C173 C 0.94947 -0.05942 -0.04896
 O174 O 1.06135 0.51842 0.54555
 O175 O 0.93946 0.48183 0.54554
 O176 O 0.98185 0.56109 0.54545
 O177 O 1.01886 0.43907 0.54542
 O178 O 0.93206 0.54177 0.52560
 O179 O 1.06866 0.45848 0.52567
 O180 O 0.95887 0.43199 0.52588
 O181 O 1.04179 0.56831 0.52592
 C182 C 1.05929 0.55100 0.54954
 C183 C 0.94146 0.44924 0.54957
 C184 C 0.94925 0.55928 0.54924
 C185 C 1.05145 0.44091 0.54928
 O186 O 1.06145 0.48189 0.45389
 O187 O 0.93947 0.51849 0.45379
 O188 O 1.01881 0.56114 0.45389
 O189 O 0.98187 0.43928 0.45389
 O190 O 0.93209 0.45858 0.47376
 O191 O 1.06860 0.54186 0.47380
 O192 O 1.04185 0.43201 0.47343
 O193 O 0.95881 0.56834 0.47345
 Co194 Co 1.05859 0.50017 0.49973
 Co195 Co 0.94220 0.50017 0.49967
 Co196 Co 1.00032 0.55834 0.49967
 Co197 Co 1.00036 0.44198 0.49966
 O198 O 1.00037 0.50016 0.49969
 C199 C 1.05942 0.44932 0.44987
 C200 C 0.94141 0.55107 0.44976
 C201 C 1.05139 0.55921 0.44999
 C202 C 0.94927 0.44110 0.45011
 O203 O 0.56071 0.01854 0.54626
 O204 O 0.43879 -0.01856 0.54591
 O205 O 0.48159 0.06096 0.54609
 O206 O 0.51814 -0.06100 0.54661
 O207 O 0.43175 0.04140 0.52646
 O208 O 0.56799 -0.04150 0.52702
 O209 O 0.45825 -0.06839 0.52631
 O210 O 0.54151 0.06830 0.52614
 C211 C 0.55895 0.05115 0.54990
 C212 C 0.44063 -0.05116 0.54980
 C213 C 0.44901 0.05896 0.55003
 C214 C 0.55070 -0.05887 0.55076
 O215 O 0.56098 -0.01872 0.45489
 O216 O 0.43918 0.01851 0.45433
 O217 O 0.51818 0.06083 0.45443
 O218 O 0.48184 -0.06131 0.45473
 O219 O 0.43193 -0.04151 0.47390
 O220 O 0.56803 0.04132 0.47414
 O221 O 0.54169 -0.06849 0.47493
 O222 O 0.45824 0.06827 0.47437
 Co223 Co 0.55806 -0.00008 0.50057
 Co224 Co 0.44178 -0.00004 0.50016
 Co225 Co 0.49989 0.05814 0.50027
 Co226 Co 0.49998 -0.05835 0.50064
 O227 O 0.49992 -0.00009 0.50041
 C228 C 0.55917 -0.05133 0.45121
 C229 C 0.44094 0.05113 0.45053
 C230 C 0.55076 0.05884 0.45051
 C231 C 0.44929 -0.05921 0.45054
 O232 O 0.56125 0.51810 0.04529
 O233 O 0.43936 0.48146 0.04533
 O234 O 0.48159 0.56066 0.04546
 O235 O 0.51858 0.43862 0.04474
 O236 O 0.43180 0.54144 0.02556
 O237 O 0.56837 0.45820 0.02507
 O238 O 0.45857 0.43167 0.02535
 O239 O 0.54152 0.56803 0.02595
 C240 C 0.55913 0.55066 0.04943
 C241 C 0.44123 0.44884 0.04917
 C242 C 0.44900 0.55887 0.04925
 C243 C 0.55116 0.44052 0.04859
 O244 O 0.56115 0.48191 -0.04655
 O245 O 0.43917 0.51836 -0.04628
 O246 O 0.51853 0.56125 -0.04612
 O247 O 0.48147 0.43946 -0.04676
 O248 O 0.43175 0.45840 -0.02654
 O249 O 0.56832 0.54181 -0.02635
 O250 O 0.54145 0.43195 -0.02728
 O251 O 0.45852 0.56818 -0.02651
 Co252 Co 0.55835 0.50000 -0.00063
 Co253 Co 0.44195 0.49992 -0.00049
 Co254 Co 0.50004 0.55815 -0.00033
 Co255 Co 0.50001 0.44181 -0.00096
 O256 O 0.50010 0.49997 -0.00058
 C257 C 0.55907 0.44935 -0.05072
 C258 C 0.44113 0.55095 -0.05024
 C259 C 0.55111 0.55929 -0.05006
 C260 C 0.44887 0.44123 -0.05049
 C261 C 1.15138 0.11986 0.15614
 C262 C 1.14155 0.15283 0.17161
 C263 C 1.16501 0.16978 0.19642
 C264 C 1.19882 0.15474 0.20473
 C265 C 1.20806 0.12152 0.18878
 C266 C 1.18429 0.10379 0.16493
 C267 C 1.12700 0.10206 0.12975
 C268 C 1.13668 0.06879 0.11481
 C269 C 1.11367 0.05207 0.08960
 C270 C 1.08169 0.06885 0.07829
 C271 C 1.07233 0.10232 0.09329
 C272 C 1.09476 0.11885 0.11956
 C273 C 1.19301 0.07049 0.14929
 C274 C 1.16946 0.05313 0.12490
 C275 C 1.10867 0.16842 0.16154
 C276 C 1.08582 0.15187 0.13573
 H277 H 1.21825 0.05773 0.15595
 H278 H 1.17719 0.02746 0.11345
 H279 H 1.10078 0.19391 0.17330
 H280 H 1.06097 0.16504 0.12836
 H281 H 1.15692 0.19482 0.20902
 H282 H 1.23406 0.10976 0.19406
 H283 H 1.12119 0.02641 0.07791
 H284 H 1.04764 0.11518 0.08478
 C285 C 1.15123 0.61936 0.65590
 C286 C 1.14125 0.65216 0.67166
 C287 C 1.16471 0.66909 0.69647
 C288 C 1.19864 0.65419 0.70448
 C289 C 1.20804 0.62115 0.68826
 C290 C 1.18427 0.60344 0.66441
 C291 C 1.12687 0.60162 0.62948
 C292 C 1.13672 0.56853 0.61423
 C293 C 1.11376 0.55189 0.58894
 C294 C 1.08166 0.56857 0.57787
 C295 C 1.07211 0.60184 0.59319
 C296 C 1.09450 0.61830 0.61953
 C297 C 1.19314 0.57031 0.64849
 C298 C 1.16962 0.55298 0.62406
 C299 C 1.10824 0.66763 0.66185
 C300 C 1.08540 0.65113 0.63600
 H301 H 1.21849 0.55766 0.65495
 H302 H 1.17746 0.52744 0.61238
 H303 H 1.10024 0.69298 0.67384
 H304 H 1.06045 0.66421 0.62883
 H305 H 1.15653 0.69399 0.70930
 H306 H 1.23413 0.60953 0.69331
 H307 H 1.12141 0.52638 0.57699
 H308 H 1.04733 0.61463 0.58486
 C309 C 0.65192 0.12027 0.65481
 C310 C 0.64224 0.15335 0.67014
 C311 C 0.66586 0.17037 0.69473
 C312 C 0.69966 0.15526 0.70296
 C313 C 0.70877 0.12196 0.68712
 C314 C 0.68484 0.10418 0.66349
 C315 C 0.62732 0.10235 0.62875
 C316 C 0.63682 0.06896 0.61399
 C317 C 0.61360 0.05212 0.58909
 C318 C 0.58158 0.06890 0.57791
 C319 C 0.57239 0.10248 0.59274
 C320 C 0.59504 0.11914 0.61870
 C321 C 0.69339 0.07076 0.64802
 C322 C 0.66964 0.05329 0.62393
 C323 C 0.60934 0.16895 0.66022
 C324 C 0.58627 0.15228 0.63470
 H325 H 0.71864 0.05798 0.65460
 H326 H 0.67723 0.02752 0.61261
 H327 H 0.60157 0.19452 0.67187
 H328 H 0.56140 0.16545 0.62743
 H329 H 0.65784 0.19543 0.70730
 H330 H 0.73473 0.11013 0.69238
 H331 H 0.62097 0.02637 0.57752
 H332 H 0.54768 0.11535 0.58432
 C333 C 0.65125 0.61907 0.15570
 C334 C 0.64130 0.65190 0.17143
 C335 C 0.66480 0.66886 0.19620
 C336 C 0.69874 0.65396 0.20421
 C337 C 0.70810 0.62089 0.18802
 C338 C 0.68430 0.60315 0.16421
 C339 C 0.62684 0.60129 0.12933
 C340 C 0.63665 0.56818 0.11411
 C341 C 0.61365 0.55151 0.08886
 C342 C 0.58154 0.56820 0.07780
 C343 C 0.57203 0.60149 0.09312
 C344 C 0.59447 0.61797 0.11941
 C345 C 0.69313 0.56999 0.14832
 C346 C 0.66956 0.55264 0.12393
 C347 C 0.60829 0.66736 0.16164
 C348 C 0.58541 0.65083 0.13585
 H349 H 0.71847 0.55734 0.15476
 H350 H 0.67738 0.52708 0.11228
 H351 H 0.60031 0.69273 0.17360
 H352 H 0.56046 0.66391 0.12869
 H353 H 0.65664 0.69377 0.20900
 H354 H 0.73419 0.60926 0.19306
 H355 H 0.62128 0.52600 0.07692
 H356 H 0.54725 0.61429 0.08479
 C357 C 0.84764 -0.11997 0.15488
 C358 C 0.81466 -0.10389 0.16332
 C359 C 0.79058 -0.12175 0.18675
 C360 C 0.79957 -0.15511 0.20262
 C361 C 0.83342 -0.17020 0.19463
 C362 C 0.85720 -0.15311 0.17025
 C363 C 0.87240 -0.10198 0.12900
 C364 C 0.90472 -0.11877 0.11916
 C365 C 0.92748 -0.10209 0.09331
 C366 C 0.91838 -0.06849 0.07836
 C367 C 0.88634 -0.05169 0.08938
 C368 C 0.86299 -0.06855 0.11417
 C369 C 0.89016 -0.16869 0.16056
 C370 C 0.91338 -0.15196 0.13521
 C371 C 0.80624 -0.07041 0.14782
 C372 C 0.83013 -0.05289 0.12390
 H373 H 0.89785 -0.19430 0.17225
 H374 H 0.93828 -0.16512 0.12811
 H375 H 0.78095 -0.05764 0.15423
 H376 H 0.82262 -0.02708 0.11255
 H377 H 0.76460 -0.10992 0.19185
 H378 H 0.84136 -0.19531 0.20724
 H379 H 0.95219 -0.11500 0.08500
 H380 H 0.87901 -0.02593 0.07771
 C381 C 0.84861 0.37991 0.65470
 C382 C 0.81798 0.39800 0.66704
 C383 C 0.79369 0.38033 0.69042
 C384 C 0.79987 0.34466 0.70239
 C385 C 0.83182 0.32763 0.69023
 C386 C 0.85573 0.34480 0.66606
 C387 C 0.87348 0.39794 0.62893
 C388 C 0.90353 0.37939 0.61545
 C389 C 0.92625 0.39624 0.58968
 C390 C 0.91927 0.43156 0.57813
 C391 C 0.88958 0.45002 0.59282
 C392 C 0.86636 0.43321 0.61779
 C393 C 0.88657 0.32737 0.65282
 C394 C 0.90992 0.34427 0.62774
 C395 C 0.81186 0.43336 0.65527
 C396 C 0.83577 0.45075 0.63126
 H397 H 0.89244 0.30021 0.66148
 H398 H 0.93307 0.32969 0.61781
 H399 H 0.78835 0.44771 0.66464
 H400 H 0.83002 0.47800 0.62279
 H401 H 0.76934 0.39431 0.69754
 H402 H 0.83910 0.30127 0.70008
 H403 H 0.94915 0.38200 0.57859
 H404 H 0.88383 0.47714 0.58389
 C405 C 0.34738 -0.12012 0.65458
 C406 C 0.31440 -0.10405 0.66301
 C407 C 0.29039 -0.12184 0.68655
 C408 C 0.29947 -0.15511 0.70256
 C409 C 0.33332 -0.17019 0.69459
 C410 C 0.35702 -0.15318 0.67009
 C411 C 0.37207 -0.10221 0.62859
 C412 C 0.40440 -0.11899 0.61877
 C413 C 0.42711 -0.10237 0.59284
 C414 C 0.41794 -0.06883 0.57781
 C415 C 0.38588 -0.05204 0.58877
 C416 C 0.36258 -0.06885 0.61364
 C417 C 0.38999 -0.16875 0.66042
 C418 C 0.41314 -0.15210 0.63496
 C419 C 0.30589 -0.07066 0.64738
 C420 C 0.32972 -0.05320 0.62335
 H421 H 0.39774 -0.19430 0.67222
 H422 H 0.43806 -0.16525 0.62788
 H423 H 0.28060 -0.05790 0.65377
 H424 H 0.32216 -0.02744 0.61189
 H425 H 0.26439 -0.11004 0.69164
 H426 H 0.34131 -0.19523 0.70731
 H427 H 0.45184 -0.11525 0.58457
 H428 H 0.37852 -0.02633 0.57703
 C429 C 0.34809 0.37946 0.15407
 C430 C 0.31752 0.39762 0.16648
 C431 C 0.29322 0.37999 0.18990
 C432 C 0.29932 0.34430 0.20185
 C433 C 0.33120 0.32719 0.18961
 C434 C 0.35512 0.34432 0.16540
 C435 C 0.37300 0.39747 0.12832
 C436 C 0.40299 0.37886 0.11479
 C437 C 0.42578 0.39571 0.08906
 C438 C 0.41893 0.43109 0.07762
 C439 C 0.38927 0.44958 0.09235
 C440 C 0.36598 0.43277 0.11726
 C441 C 0.38590 0.32683 0.15209
 C442 C 0.40928 0.34370 0.12702
 C443 C 0.31149 0.43301 0.15477
 C444 C 0.33544 0.45037 0.13077
 H445 H 0.39171 0.29964 0.16071
 H446 H 0.43239 0.32907 0.11705
 H447 H 0.28803 0.44742 0.16419
 H448 H 0.32976 0.47766 0.12236
 H449 H 0.26892 0.39404 0.19708
 H450 H 0.33845 0.30081 0.19941
 H451 H 0.44865 0.38144 0.07796
 H452 H 0.38360 0.47675 0.08349
 C453 C 0.84818 0.12005 -0.15456
 C454 C 0.85783 0.15314 -0.16997
 C455 C 0.83412 0.17024 -0.19444
 C456 C 0.80026 0.15522 -0.20248
 C457 C 0.79117 0.12192 -0.18655
 C458 C 0.81518 0.10404 -0.16304
 C459 C 0.87287 0.10204 -0.12860
 C460 C 0.86338 0.06865 -0.11375
 C461 C 0.88667 0.05176 -0.08888
 C462 C 0.91872 0.06851 -0.07782
 C463 C 0.92791 0.10207 -0.09279
 C464 C 0.90521 0.11877 -0.11872
 C465 C 0.80666 0.07061 -0.14750
 C466 C 0.83050 0.05306 -0.12351
 C467 C 0.89081 0.16866 -0.16023
 C468 C 0.91396 0.15191 -0.13480
 H469 H 0.78136 0.05789 -0.15394
 H470 H 0.82292 0.02728 -0.11213
 H471 H 0.89857 0.19422 -0.17196
 H472 H 0.93889 0.16503 -0.12767
 H473 H 0.84214 0.19530 -0.20709
 H474 H 0.76516 0.11015 -0.19166
 H475 H 0.87928 0.02604 -0.07720
 H476 H 0.95262 0.11494 -0.08443
 C477 C 0.84830 0.62024 0.34466
 C478 C 0.81770 0.60209 0.33231
 C479 C 0.79332 0.61972 0.30897
 C480 C 0.79936 0.65544 0.29708
 C481 C 0.83128 0.67253 0.30923
 C482 C 0.85529 0.65539 0.33335
 C483 C 0.87325 0.60225 0.37040
 C484 C 0.90325 0.62087 0.38390
 C485 C 0.92604 0.60406 0.40966
 C486 C 0.91917 0.56871 0.42119
 C487 C 0.88953 0.55019 0.40646
 C488 C 0.86624 0.56696 0.38150
 C489 C 0.88609 0.67288 0.34659
 C490 C 0.90952 0.65601 0.37163
 C491 C 0.81171 0.56669 0.34403
 C492 C 0.83569 0.54934 0.36802
 H493 H 0.89187 0.70007 0.33796
 H494 H 0.93264 0.67065 0.38157
 H495 H 0.78823 0.55229 0.33465
 H496 H 0.83003 0.52207 0.37646
 H497 H 0.76901 0.60569 0.30183
 H498 H 0.83846 0.69893 0.29943
 H499 H 0.94889 0.61836 0.42077
 H500 H 0.88386 0.52305 0.41538
 C501 C 0.34779 0.12082 0.34580
 C502 C 0.35490 0.15596 0.33451
 C503 C 0.33100 0.17318 0.31034
 C504 C 0.29906 0.15617 0.29809
 C505 C 0.29287 0.12050 0.31002
 C506 C 0.31716 0.10277 0.33340
 C507 C 0.37270 0.10271 0.37150
 C508 C 0.36561 0.06741 0.38253
 C509 C 0.38890 0.05050 0.40740
 C510 C 0.41863 0.06891 0.42212
 C511 C 0.42554 0.10428 0.41070
 C512 C 0.40276 0.12122 0.38502
 C513 C 0.31106 0.06738 0.34508
 C514 C 0.33500 0.04992 0.36903
 C515 C 0.38575 0.17335 0.34781
 C516 C 0.40912 0.15637 0.37283
 H517 H 0.28754 0.05306 0.33567
 H518 H 0.32927 0.02264 0.37741
 H519 H 0.39161 0.20052 0.33921
 H520 H 0.43228 0.17093 0.38279
 H521 H 0.33829 0.19955 0.30056
 H522 H 0.26853 0.10653 0.30284
 H523 H 0.38320 0.02334 0.41624
 H524 H 0.44846 0.11848 0.42180
 C525 C 0.34805 0.62031 -0.15513
 C526 C 0.35512 0.65543 -0.16648
 C527 C 0.33114 0.67261 -0.19057
 C528 C 0.29916 0.65558 -0.20265
 C529 C 0.29302 0.61991 -0.19071
 C530 C 0.31738 0.60222 -0.16741
 C531 C 0.37299 0.60226 -0.12944
 C532 C 0.36591 0.56699 -0.11831
 C533 C 0.38920 0.55017 -0.09341
 C534 C 0.41890 0.56864 -0.07874
 C535 C 0.42584 0.60396 -0.09028
 C536 C 0.40306 0.62081 -0.11601
 C537 C 0.31130 0.56686 -0.15565
 C538 C 0.33529 0.54946 -0.13171
 C539 C 0.38600 0.67285 -0.15331
 C540 C 0.40942 0.65593 -0.12830
 H541 H 0.28777 0.55252 -0.16498
 H542 H 0.32957 0.52220 -0.12325
 H543 H 0.39184 0.70001 -0.16197
 H544 H 0.43259 0.67051 -0.11841
 H545 H 0.33836 0.69898 -0.20042
 H546 H 0.26865 0.60594 -0.19778
 H547 H 0.38349 0.52303 -0.08450
 H548 H 0.44875 0.61820 -0.07921
 C549 C 1.15169 -0.12009 -0.15431
 C550 C 1.14181 -0.15303 -0.16983
 C551 C 1.16527 -0.17001 -0.19458
 C552 C 1.19911 -0.15502 -0.20278
 C553 C 1.20842 -0.12187 -0.18677
 C554 C 1.18466 -0.10411 -0.16297
 C555 C 1.12728 -0.10222 -0.12805
 C556 C 1.13700 -0.06898 -0.11309
 C557 C 1.11395 -0.05219 -0.08801
 C558 C 1.08189 -0.06887 -0.07686
 C559 C 1.07248 -0.10231 -0.09189
 C560 C 1.09495 -0.11891 -0.11803
 C561 C 1.19343 -0.07084 -0.14730
 C562 C 1.16985 -0.05341 -0.12301
 C563 C 1.10886 -0.16853 -0.15992
 C564 C 1.08597 -0.15191 -0.13422
 H565 H 1.21872 -0.05815 -0.15387
 H566 H 1.17760 -0.02776 -0.11154
 H567 H 1.10093 -0.19398 -0.17173
 H568 H 1.06106 -0.16500 -0.12697
 H569 H 1.15711 -0.19497 -0.20728
 H570 H 1.23443 -0.11014 -0.19203
 H571 H 1.12148 -0.02655 -0.07628
 H572 H 1.04772 -0.11509 -0.08350
 C573 C 1.15148 0.38086 0.34357
 C574 C 1.14160 0.34796 0.32797
 C575 C 1.16507 0.33102 0.30318
 C576 C 1.19893 0.34600 0.29500
 C577 C 1.20820 0.37917 0.31104
 C578 C 1.18443 0.39688 0.33489
 C579 C 1.12710 0.39863 0.36998
 C580 C 1.13684 0.43181 0.38507
 C581 C 1.11386 0.44848 0.41034
 C582 C 1.08184 0.43172 0.42155
 C583 C 1.07242 0.39834 0.40637
 C584 C 1.09483 0.38187 0.38006
 C585 C 1.19319 0.43011 0.35067
 C586 C 1.16966 0.44743 0.37510
 C587 C 1.10869 0.33241 0.33792
 C588 C 1.08584 0.34892 0.36375
 H589 H 1.21846 0.44284 0.34410
 H590 H 1.17743 0.47305 0.38665
 H591 H 1.10076 0.30698 0.32606
 H592 H 1.06096 0.33578 0.37102
 H593 H 1.15696 0.30603 0.29049
 H594 H 1.23423 0.39088 0.30585
 H595 H 1.12142 0.47407 0.42216
 H596 H 1.04771 0.38549 0.41479
 C597 C 0.65164 -0.12032 0.34576
 C598 C 0.64182 -0.15329 0.33030
 C599 C 0.66529 -0.17027 0.30554
 C600 C 0.69910 -0.15522 0.29726
 C601 C 0.70835 -0.12202 0.31323
 C602 C 0.68457 -0.10428 0.33704
 C603 C 0.62720 -0.10245 0.37201
 C604 C 0.63685 -0.06915 0.38690
 C605 C 0.61376 -0.05236 0.41197
 C606 C 0.58173 -0.06908 0.42315
 C607 C 0.57240 -0.10257 0.40819
 C608 C 0.59491 -0.11918 0.38208
 C609 C 0.69326 -0.07095 0.35264
 C610 C 0.66966 -0.05354 0.37692
 C611 C 0.60891 -0.16885 0.34026
 C612 C 0.58599 -0.15223 0.36595
 H613 H 0.71852 -0.05822 0.34603
 H614 H 0.67736 -0.02784 0.38833
 H615 H 0.60103 -0.19433 0.32851
 H616 H 0.56111 -0.16536 0.37323
 H617 H 0.65716 -0.19525 0.29288
 H618 H 0.73432 -0.11024 0.30793
 H619 H 0.62125 -0.02668 0.42364
 H620 H 0.54767 -0.11539 0.41661
 C621 C 0.65154 0.38098 -0.15661
 C622 C 0.64174 0.34808 -0.17227
 C623 C 0.66534 0.33112 -0.19690
 C624 C 0.69925 0.34609 -0.20484
 C625 C 0.70847 0.37923 -0.18873
 C626 C 0.68457 0.39697 -0.16505
 C627 C 0.62703 0.39876 -0.13037
 C628 C 0.63671 0.43194 -0.11521
 C629 C 0.61360 0.44861 -0.09007
 C630 C 0.58154 0.43184 -0.07903
 C631 C 0.57218 0.39848 -0.09427
 C632 C 0.59470 0.38201 -0.12048
 C633 C 0.69326 0.43019 -0.14923
 C634 C 0.66959 0.44754 -0.12497
 C635 C 0.60875 0.33255 -0.16254
 C636 C 0.58577 0.34908 -0.13685
 H637 H 0.71858 0.44289 -0.15563
 H638 H 0.67731 0.47315 -0.11336
 H639 H 0.60087 0.30713 -0.17445
 H640 H 0.56084 0.33596 -0.12973
 H641 H 0.65729 0.30615 -0.20965
 H642 H 0.73454 0.39092 -0.19373
 H643 H 0.62113 0.47418 -0.07819
 H644 H 0.54746 0.38560 -0.08595
 C645 C 1.12069 0.15122 -0.15520
 C646 C 1.15583 0.14415 -0.16637
 C647 C 1.17296 0.16798 -0.19068
 C648 C 1.15587 0.19983 -0.20315
 C649 C 1.12015 0.20594 -0.19141
 C650 C 1.10252 0.18172 -0.16789
 C651 C 1.10272 0.12644 -0.12927
 C652 C 1.06742 0.13351 -0.11833
 C653 C 1.05065 0.11037 -0.09322
 C654 C 1.06917 0.08082 -0.07820
 C655 C 1.10453 0.07391 -0.08954
 C656 C 1.12134 0.09654 -0.11545
 C657 C 1.06713 0.18778 -0.15630
 C658 C 1.04980 0.16396 -0.13213
 C659 C 1.17334 0.11345 -0.15279
 C660 C 1.15649 0.09020 -0.12756
 H661 H 1.05271 0.21118 -0.16594
 H662 H 1.02252 0.16966 -0.12383
 H663 H 1.20053 0.10762 -0.16131
 H664 H 1.17114 0.06716 -0.11737
 H665 H 1.19936 0.16073 -0.20036
 H666 H 1.10610 0.23019 -0.19881
 H667 H 1.02349 0.11607 -0.08445
 H668 H 1.11883 0.05112 -0.07821
 C669 C 1.12062 0.65154 0.34421
 C670 C 1.10269 0.68232 0.33193
 C671 C 1.12036 0.70648 0.30838
 C672 C 1.15587 0.70001 0.29618
 C673 C 1.17272 0.66789 0.30825
 C674 C 1.15556 0.64412 0.33260
 C675 C 1.10262 0.62685 0.37021
 C676 C 1.12104 0.59667 0.38366
 C677 C 1.10424 0.57411 0.40964
 C678 C 1.06908 0.58136 0.42140
 C679 C 1.05074 0.61119 0.40675
 C680 C 1.06753 0.63427 0.38160
 C681 C 1.17285 0.61315 0.34581
 C682 C 1.15599 0.58997 0.37111
 C683 C 1.06750 0.68875 0.34396
 C684 C 1.05013 0.66501 0.36818
 H685 H 1.19987 0.60704 0.33696
 H686 H 1.17047 0.56671 0.38101
 H687 H 1.05327 0.71239 0.33464
 H688 H 1.02302 0.67100 0.37684
 H689 H 1.10656 0.73100 0.30142
 H690 H 1.19895 0.66044 0.29824
 H691 H 1.11838 0.55109 0.42067
 H692 H 1.02372 0.61714 0.41583
 C693 C 0.61974 0.15171 0.34529
 C694 C 0.65282 0.14204 0.32997
 C695 C 0.66986 0.16569 0.30540
 C696 C 0.65477 0.19951 0.29718
 C697 C 0.62147 0.20861 0.31299
 C698 C 0.60367 0.18466 0.33661
 C699 C 0.60181 0.12709 0.37136
 C700 C 0.56843 0.13661 0.38614
 C701 C 0.55161 0.11339 0.41110
 C702 C 0.56840 0.08138 0.42232
 C703 C 0.60195 0.07216 0.40744
 C704 C 0.61859 0.09480 0.38143
 C705 C 0.57025 0.19320 0.35208
 C706 C 0.55278 0.16944 0.37619
 C707 C 0.66841 0.10911 0.33990
 C708 C 0.65173 0.08603 0.36543
 H709 H 0.55749 0.21847 0.34549
 H710 H 0.52702 0.17703 0.38752
 H711 H 0.69398 0.10135 0.32825
 H712 H 0.66489 0.06114 0.37271
 H713 H 0.69494 0.15768 0.29284
 H714 H 0.60966 0.23458 0.30771
 H715 H 0.52589 0.12080 0.42271
 H716 H 0.61483 0.04745 0.41590
 C717 C 0.62048 0.65176 -0.15564
 C718 C 0.65544 0.64436 -0.16720
 C719 C 0.67263 0.66815 -0.19153
 C720 C 0.65577 0.70024 -0.20365
 C721 C 0.62025 0.70670 -0.19149
 C722 C 0.60255 0.68254 -0.16795
 C723 C 0.60245 0.62705 -0.12969
 C724 C 0.56733 0.63445 -0.11835
 C725 C 0.55050 0.61134 -0.09325
 C726 C 0.56882 0.58149 -0.07860
 C727 C 0.60401 0.57426 -0.09032
 C728 C 0.62085 0.59686 -0.11623
 C729 C 0.56735 0.68895 -0.15596
 C730 C 0.54995 0.66519 -0.13178
 C731 C 0.67272 0.61339 -0.15397
 C732 C 0.65582 0.59019 -0.12873
 H733 H 0.55312 0.71258 -0.16530
 H734 H 0.52282 0.67117 -0.12316
 H735 H 0.69976 0.60730 -0.16278
 H736 H 0.67029 0.56692 -0.11882
 H737 H 0.69888 0.66071 -0.20150
 H738 H 0.60644 0.73121 -0.19848
 H739 H 0.52347 0.61727 -0.08421
 H740 H 0.61814 0.55124 -0.07929
 C741 C 0.88049 -0.15213 -0.15429
 C742 C 0.84746 -0.14238 -0.16973
 C743 C 0.83043 -0.16595 -0.19436
 C744 C 0.84547 -0.19978 -0.20256
 C745 C 0.87874 -0.20896 -0.18663
 C746 C 0.89654 -0.18508 -0.16293
 C747 C 0.89841 -0.12760 -0.12816
 C748 C 0.93174 -0.13719 -0.11326
 C749 C 0.94855 -0.11404 -0.08825
 C750 C 0.93182 -0.08199 -0.07712
 C751 C 0.89831 -0.07271 -0.09213
 C752 C 0.88167 -0.09529 -0.11817
 C753 C 0.92991 -0.19371 -0.14735
 C754 C 0.94736 -0.17003 -0.12317
 C755 C 0.83192 -0.10945 -0.15985
 C756 C 0.84858 -0.08644 -0.13428
 H757 H 0.94265 -0.21897 -0.15390
 H758 H 0.97309 -0.17768 -0.11177
 H759 H 0.80639 -0.10161 -0.17159
 H760 H 0.83545 -0.06155 -0.12706
 H761 H 0.80540 -0.15785 -0.20700
 H762 H 0.89053 -0.23493 -0.19188
 H763 H 0.97424 -0.12150 -0.07654
 H764 H 0.88546 -0.04798 -0.08376
 C765 C 0.88022 0.34803 0.34534
 C766 C 0.84711 0.35765 0.33000
 C767 C 0.83009 0.33398 0.30550
 C768 C 0.84521 0.30017 0.29737
 C769 C 0.87853 0.29111 0.31323
 C770 C 0.89633 0.31510 0.33676
 C771 C 0.89815 0.37268 0.37132
 C772 C 0.93157 0.36322 0.38610
 C773 C 0.94839 0.38648 0.41096
 C774 C 0.93158 0.41847 0.42209
 C775 C 0.89798 0.42762 0.40723
 C776 C 0.88134 0.40495 0.38130
 C777 C 0.92978 0.30661 0.35223
 C778 C 0.94726 0.33041 0.37624
 C779 C 0.83150 0.39056 0.33983
 C780 C 0.84817 0.41367 0.36528
 H781 H 0.94257 0.28136 0.34571
 H782 H 0.97306 0.32287 0.38756
 H783 H 0.80591 0.39829 0.32815
 H784 H 0.83499 0.43855 0.37249
 H785 H 0.80501 0.34196 0.29290
 H786 H 0.89038 0.26515 0.30804
 H787 H 0.97415 0.37913 0.42257
 H788 H 0.88507 0.45230 0.41564
 C789 C 0.38057 -0.15197 0.34513
 C790 C 0.34754 -0.14227 0.32966
 C791 C 0.33053 -0.16590 0.30510
 C792 C 0.34558 -0.19976 0.29703
 C793 C 0.37885 -0.20888 0.31297
 C794 C 0.39663 -0.18493 0.33658
 C795 C 0.39845 -0.12738 0.37123
 C796 C 0.43177 -0.13693 0.38617
 C797 C 0.44852 -0.11376 0.41119
 C798 C 0.43173 -0.08173 0.42230
 C799 C 0.39824 -0.07248 0.40723
 C800 C 0.38167 -0.09508 0.38117
 C801 C 0.43000 -0.19351 0.35220
 C802 C 0.44742 -0.16977 0.37634
 C803 C 0.33197 -0.10932 0.33945
 C804 C 0.34859 -0.08626 0.36500
 H805 H 0.44276 -0.21878 0.34572
 H806 H 0.47315 -0.17739 0.38778
 H807 H 0.30644 -0.10152 0.32768
 H808 H 0.33543 -0.06137 0.37217
 H809 H 0.30549 -0.15786 0.29243
 H810 H 0.39064 -0.23487 0.30782
 H811 H 0.47419 -0.12120 0.42294
 H812 H 0.38533 -0.04779 0.41560
 C813 C 0.37945 0.34850 -0.15556
 C814 C 0.34430 0.35557 -0.16677
 C815 C 0.32713 0.33168 -0.19093
 C816 C 0.34419 0.29979 -0.20323
 C817 C 0.37990 0.29367 -0.19143
 C818 C 0.39757 0.31793 -0.16806
 C819 C 0.39748 0.37333 -0.12979
 C820 C 0.43278 0.36626 -0.11881
 C821 C 0.44960 0.38944 -0.09385
 C822 C 0.43113 0.41905 -0.07899
 C823 C 0.39576 0.42597 -0.09036
 C824 C 0.37891 0.40329 -0.11614
 C825 C 0.43297 0.31187 -0.15645
 C826 C 0.45036 0.33574 -0.13243
 C827 C 0.32685 0.38633 -0.15337
 C828 C 0.34375 0.40964 -0.12829
 H829 H 0.44735 0.28842 -0.16595
 H830 H 0.47764 0.33003 -0.12410
 H831 H 0.29967 0.39217 -0.16192
 H832 H 0.32915 0.43274 -0.11824
 H833 H 0.30073 0.33892 -0.20064
 H834 H 0.39392 0.26937 -0.19867
 H835 H 0.47676 0.38374 -0.08504
 H836 H 0.38150 0.44880 -0.07915
 C837 C 1.12047 -0.15099 0.15671
 C838 C 1.15553 -0.14377 0.16809
 C839 C 1.17272 -0.16763 0.19234
 C840 C 1.15579 -0.19965 0.20453
 C841 C 1.12015 -0.20590 0.19259
 C842 C 1.10245 -0.18166 0.16914
 C843 C 1.10246 -0.12624 0.13077
 C844 C 1.06726 -0.13349 0.11958
 C845 C 1.05048 -0.11041 0.09442
 C846 C 1.06890 -0.08074 0.07956
 C847 C 1.10415 -0.07363 0.09117
 C848 C 1.12097 -0.09620 0.11714
 C849 C 1.06715 -0.18790 0.15734
 C850 C 1.04977 -0.16409 0.13317
 C851 C 1.17290 -0.11292 0.15473
 C852 C 1.15602 -0.08969 0.12949
 H853 H 1.05285 -0.21143 0.16678
 H854 H 1.02257 -0.16994 0.12467
 H855 H 1.20001 -0.10696 0.16341
 H856 H 1.17057 -0.06653 0.11945
 H857 H 1.19906 -0.16033 0.20218
 H858 H 1.10626 -0.23034 0.19966
 H859 H 1.02341 -0.11626 0.08545
 H860 H 1.11837 -0.05074 0.07996
 C861 C 1.11989 0.34808 0.65513
 C862 C 1.15268 0.35794 0.67099
 C863 C 1.16956 0.33435 0.69578
 C864 C 1.15461 0.30040 0.70369
 C865 C 1.12157 0.29113 0.68737
 C866 C 1.10392 0.31502 0.66352
 C867 C 1.10216 0.37261 0.62877
 C868 C 1.06906 0.36291 0.61346
 C869 C 1.05240 0.38608 0.58830
 C870 C 1.06909 0.41824 0.57740
 C871 C 1.10241 0.42762 0.59277
 C872 C 1.11887 0.40502 0.61899
 C873 C 1.07078 0.30629 0.64750
 C874 C 1.05349 0.32997 0.62313
 C875 C 1.16819 0.39097 0.66132
 C876 C 1.15172 0.41398 0.63553
 H877 H 1.05810 0.28093 0.65385
 H878 H 1.02794 0.32223 0.61140
 H879 H 1.19354 0.39888 0.67338
 H880 H 1.16482 0.43895 0.62849
 H881 H 1.19444 0.34245 0.70869
 H882 H 1.10990 0.26504 0.69235
 H883 H 1.02686 0.37856 0.57633
 H884 H 1.11520 0.45245 0.58459
 C885 C 0.62015 -0.15103 0.65665
 C886 C 0.65522 -0.14377 0.66796
 C887 C 0.67249 -0.16760 0.69219
 C888 C 0.65561 -0.19962 0.70446
 C889 C 0.61996 -0.20593 0.69257
 C890 C 0.60219 -0.18172 0.66912
 C891 C 0.60205 -0.12631 0.63073
 C892 C 0.56685 -0.13360 0.61960
 C893 C 0.55000 -0.11055 0.59444
 C894 C 0.56836 -0.08086 0.57955
 C895 C 0.60361 -0.07370 0.59112
 C896 C 0.62050 -0.09624 0.61707
 C897 C 0.56688 -0.18800 0.65738
 C898 C 0.54943 -0.16423 0.63323
 C899 C 0.67253 -0.11290 0.65455
 C900 C 0.65557 -0.08969 0.62934
 H901 H 0.55262 -0.21155 0.66686
 H902 H 0.52222 -0.17012 0.62478
 H903 H 0.69965 -0.10691 0.66317
 H904 H 0.67007 -0.06652 0.61928
 H905 H 0.69885 -0.16027 0.70196
 H906 H 0.60611 -0.23037 0.69968
 H907 H 0.52293 -0.11644 0.58551
 H908 H 0.61779 -0.05080 0.57989
 C909 C 0.62005 0.34755 0.15385
 C910 C 0.65295 0.35736 0.16951
 C911 C 0.66990 0.33377 0.19423
 C912 C 0.65491 0.29988 0.20228
 C913 C 0.62179 0.29063 0.18612
 C914 C 0.60407 0.31452 0.16234
 C915 C 0.60220 0.37212 0.12766
 C916 C 0.56898 0.36247 0.11256
 C917 C 0.55220 0.38568 0.08755
 C918 C 0.56887 0.41784 0.07662
 C919 C 0.60228 0.42717 0.09177
 C920 C 0.61887 0.40453 0.11783
 C921 C 0.57083 0.30582 0.14654
 C922 C 0.55343 0.32954 0.12230
 C923 C 0.66844 0.39038 0.15979
 C924 C 0.65184 0.41343 0.13415
 H925 H 0.55815 0.28049 0.15297
 H926 H 0.52780 0.32184 0.11072
 H927 H 0.69387 0.39826 0.17170
 H928 H 0.66491 0.43840 0.12706
 H929 H 0.69483 0.34189 0.20704
 H930 H 0.61007 0.26460 0.19128
 H931 H 0.52658 0.37821 0.07573
 H932 H 0.61505 0.45200 0.08354
 C933 C 0.88032 0.15211 0.15463
 C934 C 0.89631 0.18512 0.16315
 C935 C 0.87851 0.20901 0.18677
 C936 C 0.84531 0.19979 0.20276
 C937 C 0.83031 0.16592 0.19470
 C938 C 0.84734 0.14233 0.17012
 C939 C 0.89824 0.12755 0.12856
 C940 C 0.88155 0.09519 0.11867
 C941 C 0.89819 0.07259 0.09269
 C942 C 0.93166 0.08191 0.07766
 C943 C 0.94835 0.11400 0.08867
 C944 C 0.93153 0.13718 0.11361
 C945 C 0.83184 0.10935 0.16036
 C946 C 0.84851 0.08631 0.13484
 C947 C 0.92963 0.19377 0.14752
 C948 C 0.94710 0.17006 0.12341
 H949 H 0.80635 0.10150 0.17215
 H950 H 0.83542 0.06138 0.12769
 H951 H 0.94233 0.21908 0.15398
 H952 H 0.97280 0.17773 0.11196
 H953 H 0.89024 0.23503 0.19193
 H954 H 0.80532 0.15783 0.20740
 H955 H 0.88540 0.04781 0.08439
 H956 H 0.97400 0.12148 0.07694
 C957 C 0.88026 0.65216 0.65438
 C958 C 0.89640 0.68503 0.66311
 C959 C 0.87864 0.70894 0.68678
 C960 C 0.84531 0.69987 0.70261
 C961 C 0.83017 0.66611 0.69431
 C962 C 0.84716 0.64252 0.66969
 C963 C 0.89816 0.62758 0.62827
 C964 C 0.88132 0.59536 0.61817
 C965 C 0.89794 0.57275 0.59215
 C966 C 0.93155 0.58189 0.57732
 C967 C 0.94837 0.61385 0.58857
 C968 C 0.93157 0.63705 0.61352
 C969 C 0.83152 0.60965 0.65971
 C970 C 0.84816 0.58662 0.63416
 C971 C 0.92984 0.69354 0.64766
 C972 C 0.94728 0.66981 0.62353
 H973 H 0.80594 0.60190 0.67136
 H974 H 0.83496 0.56178 0.62686
 H975 H 0.94266 0.71875 0.65429
 H976 H 0.97307 0.67737 0.61224
 H977 H 0.89052 0.73487 0.69209
 H978 H 0.80509 0.65809 0.70687
 H979 H 0.88501 0.54810 0.58367
 H980 H 0.97413 0.62121 0.57700
 C981 C 0.38038 0.15154 0.65566
 C982 C 0.39632 0.18459 0.66405
 C983 C 0.37858 0.20848 0.68775
 C984 C 0.34550 0.19920 0.70396
 C985 C 0.33057 0.16526 0.69606
 C986 C 0.34753 0.14168 0.67139
 C987 C 0.39819 0.12703 0.62943
 C988 C 0.38151 0.09463 0.61963
 C989 C 0.39803 0.07208 0.59348
 C990 C 0.43138 0.08149 0.57821
 C991 C 0.44805 0.11362 0.58915
 C992 C 0.43134 0.13675 0.61424
 C993 C 0.33205 0.10866 0.66172
 C994 C 0.34860 0.08567 0.63605
 C995 C 0.42952 0.19334 0.64817
 C996 C 0.44689 0.16967 0.62393
 H997 H 0.30666 0.10074 0.67368
 H998 H 0.33552 0.06071 0.62898
 H999 H 0.44218 0.21869 0.65452
 H1000 H 0.47248 0.17742 0.61229
 H1001 H 0.39024 0.23457 0.69270
 H1002 H 0.30565 0.15715 0.70888
 H1003 H 0.38524 0.04728 0.58525
 H1004 H 0.47361 0.12118 0.57724
 C1005 C 0.38022 0.65178 0.15443
 C1006 C 0.39635 0.68469 0.16306
 C1007 C 0.37862 0.70863 0.18670
 C1008 C 0.34535 0.69956 0.20264
 C1009 C 0.33022 0.66576 0.19447
 C1010 C 0.34717 0.64214 0.16985
 C1011 C 0.39806 0.62718 0.12832
 C1012 C 0.38122 0.59494 0.11830
 C1013 C 0.39778 0.57232 0.09227
 C1014 C 0.43134 0.58147 0.07734
 C1015 C 0.44818 0.61345 0.08850
 C1016 C 0.43143 0.63667 0.11347
 C1017 C 0.33152 0.60925 0.15997
 C1018 C 0.34811 0.58619 0.13440
 C1019 C 0.42975 0.69320 0.14751
 C1020 C 0.44714 0.66945 0.12338
 H1021 H 0.30598 0.60149 0.17170
 H1022 H 0.33490 0.56134 0.12717
 H1023 H 0.44256 0.71843 0.15405
 H1024 H 0.47290 0.67701 0.11200
 H1025 H 0.39048 0.73458 0.19191
 H1026 H 0.30518 0.65774 0.20711
 H1027 H 0.38485 0.54766 0.08385
 H1028 H 0.47390 0.62082 0.07686
   
