data_POSCAR
  _audit_creation_date              2014-09-24
  _audit_creation_method            'ToBaCCo'
  _symmetry_space_group_name_H-M    'P1'
  _symmetry_Int_Tables_number       1
  _symmetry_cell_setting            triclinic
  loop_
  _symmetry_equiv_pos_as_xyz
 x,y,z
_cell_length_a 42.7779
_cell_length_b 42.8053
_cell_length_c 52.9178
_cell_angle_alpha 88.430500
_cell_angle_beta 88.664400
_cell_angle_gamma 90.980400
loop_
  _atom_site_label
  _atom_site_type_symbol
  _atom_site_fract_x
  _atom_site_fract_y
  _atom_site_fract_z
C1 C 1.18761 0.26590 0.28847
 H2 H 1.18449 0.24085 0.29090
 C3 C 1.17016 0.28595 0.30349
 H4 H 1.15374 0.27602 0.31750
 C5 C 1.21433 0.30903 0.26842
 H6 H 1.23217 0.31810 0.25534
 C7 C 1.19728 0.32987 0.28286
 H8 H 1.20168 0.35471 0.28000
 N9 N 1.20923 0.27766 0.27135
 C10 C 1.22907 0.20632 0.21601
 H11 H 1.25432 0.20784 0.21644
 C12 C 1.21466 0.18674 0.19901
 H13 H 1.22914 0.17369 0.18616
 C14 C 1.17988 0.22272 0.23173
 H15 H 1.16648 0.23697 0.24441
 C16 C 1.16443 0.20314 0.21512
 H17 H 1.13912 0.20221 0.21553
 Zn18 Zn 1.23487 0.24947 0.25349
 N19 N 1.21166 0.22372 0.23198
 C20 C 1.25103 0.19283 0.27834
 N21 N 1.25545 0.22431 0.27756
 C22 C 1.27439 0.23851 0.29411
 C23 C 1.29105 0.22083 0.31159
 C24 C 1.26681 0.17419 0.29573
 C25 C 1.25337 0.29083 0.21408
 C26 C 1.27385 0.30796 0.19796
 C27 C 1.31721 0.28430 0.21925
 C28 C 1.29585 0.26792 0.23522
 N29 N 1.26457 0.27179 0.23260
 H30 H 1.23548 0.18198 0.26525
 H31 H 1.27679 0.26373 0.29354
 H32 H 1.30503 0.23360 0.32470
 H33 H 1.26353 0.14922 0.29440
 H34 H 1.22837 0.29299 0.21210
 H35 H 1.26428 0.32374 0.18394
 H36 H 1.34197 0.28048 0.22140
 H37 H 1.30435 0.25180 0.24940
 C38 C 1.18187 0.18477 0.19843
 C39 C 1.17509 0.31847 0.30094
 C40 C 1.30632 0.30482 0.20037
 C41 C 1.28790 0.18778 0.31273
 C42 C 0.68124 -0.23441 0.28772
 H43 H 0.67856 -0.25933 0.29128
 C44 C 0.66468 -0.21361 0.30267
 H45 H 0.64938 -0.22284 0.31777
 C46 C 0.70603 -0.19229 0.26474
 H47 H 0.72266 -0.18397 0.25035
 C48 C 0.68987 -0.17068 0.27916
 H49 H 0.69380 -0.14596 0.27520
 N50 N 0.70155 -0.22351 0.26925
 C51 C 0.71775 -0.29916 0.21683
 H52 H 0.74305 -0.29876 0.21668
 C53 C 0.70178 -0.31997 0.20169
 H54 H 0.71505 -0.33524 0.18968
 C55 C 0.66996 -0.27898 0.23227
 H56 H 0.65770 -0.26287 0.24416
 C57 C 0.65300 -0.29943 0.21733
 H58 H 0.62770 -0.29907 0.21810
 Zn59 Zn 0.72634 -0.25282 0.25187
 N60 N 0.70176 -0.27947 0.23193
 C61 C 0.74391 -0.30865 0.27763
 N62 N 0.74742 -0.27698 0.27651
 C63 C 0.76574 -0.26187 0.29311
 C64 C 0.78261 -0.27878 0.31097
 C65 C 0.76015 -0.32645 0.29530
 C66 C 0.74447 -0.21549 0.20957
 C67 C 0.76489 -0.19944 0.19260
 C68 C 0.80824 -0.21748 0.21716
 C69 C 0.78700 -0.23332 0.23357
 N70 N 0.75572 -0.23167 0.22976
 H71 H 0.72866 -0.32025 0.26475
 H72 H 0.76760 -0.23662 0.29217
 H73 H 0.79732 -0.26639 0.32388
 H74 H 0.75763 -0.35167 0.29550
 H75 H 0.71952 -0.21504 0.20669
 H76 H 0.75540 -0.18695 0.17654
 H77 H 0.83297 -0.21853 0.22093
 H78 H 0.79566 -0.24688 0.24932
 C79 C 0.66895 -0.32044 0.20188
 C80 C 0.66912 -0.18120 0.29867
 C81 C 0.79729 -0.20012 0.19637
 C82 C 0.78011 -0.31155 0.31207
 C83 C 0.69586 0.25725 -0.21063
 H84 H 0.69229 0.23225 -0.20824
 C85 C 0.67968 0.27755 -0.19490
 H86 H 0.66380 0.26786 -0.18039
 C87 C 0.72218 0.30001 -0.23155
 H88 H 0.73930 0.30882 -0.24536
 C89 C 0.70648 0.32109 -0.21632
 H90 H 0.71120 0.34587 -0.21922
 N91 N 0.71657 0.26870 -0.22861
 C92 C 0.72857 0.19467 -0.28369
 H93 H 0.75386 0.19416 -0.28439
 C94 C 0.71133 0.17502 -0.29898
 H95 H 0.72364 0.15970 -0.31159
 C96 C 0.68211 0.21612 -0.26688
 H97 H 0.67082 0.23234 -0.25449
 C98 C 0.66391 0.19688 -0.28195
 H99 H 0.63868 0.19823 -0.28069
 Zn100 Zn 0.74007 0.24009 -0.24811
 N101 N 0.71386 0.21447 -0.26784
 C102 C 0.75896 0.18331 -0.22410
 N103 N 0.76302 0.21492 -0.22522
 C104 C 0.78306 0.22950 -0.20959
 C105 C 0.80069 0.21212 -0.19251
 C106 C 0.77597 0.16505 -0.20719
 C107 C 0.75503 0.28153 -0.28857
 C108 C 0.77399 0.29983 -0.30514
 C109 C 0.81926 0.27714 -0.28607
 C110 C 0.79929 0.25953 -0.26973
 N111 N 0.76782 0.26249 -0.27088
 H112 H 0.74246 0.17214 -0.23623
 H113 H 0.78545 0.25471 -0.21054
 H114 H 0.81646 0.22418 -0.18020
 H115 H 0.77272 0.13990 -0.20683
 H116 H 0.72985 0.28326 -0.28926
 H117 H 0.76198 0.31591 -0.31741
 H118 H 0.84390 0.27263 -0.28469
 H119 H 0.80911 0.24329 -0.25624
 C120 C 0.67851 0.17584 -0.29822
 C121 C 0.68503 0.31000 -0.19753
 C122 C 0.80711 0.29847 -0.30422
 C123 C 0.79731 0.17942 -0.19118
 C124 C 1.19378 -0.24830 -0.21113
 H125 H 1.18839 -0.27308 -0.21128
 C126 C 1.17902 -0.22955 -0.19341
 H127 H 1.16214 -0.24006 -0.18003
 C128 C 1.22367 -0.20487 -0.22741
 H129 H 1.24179 -0.19544 -0.24010
 C130 C 1.20969 -0.18536 -0.20991
 H131 H 1.21657 -0.16090 -0.20986
 N132 N 1.21548 -0.23572 -0.22781
 C133 C 1.22487 -0.30613 -0.28587
 H134 H 1.25012 -0.30719 -0.28660
 C135 C 1.20720 -0.32517 -0.30128
 H136 H 1.21910 -0.34059 -0.31406
 C137 C 1.17892 -0.28407 -0.26864
 H138 H 1.16802 -0.26785 -0.25603
 C139 C 1.16028 -0.30266 -0.28385
 H140 H 1.13509 -0.30086 -0.28252
 Zn141 Zn 1.23756 -0.26287 -0.24931
 N142 N 1.21060 -0.28648 -0.26967
 C143 C 1.25526 -0.32128 -0.22742
 N144 N 1.26033 -0.28981 -0.22803
 C145 C 1.28119 -0.27623 -0.21254
 C146 C 1.29865 -0.29455 -0.19609
 C147 C 1.27210 -0.34049 -0.21112
 C148 C 1.25275 -0.21729 -0.28661
 C149 C 1.27204 -0.19839 -0.30245
 C150 C 1.31663 -0.22686 -0.28762
 C151 C 1.29649 -0.24495 -0.27180
 N152 N 1.26525 -0.23951 -0.27126
 H153 H 1.23800 -0.33157 -0.23939
 H154 H 1.28426 -0.25108 -0.21307
 H155 H 1.31506 -0.28331 -0.18382
 H156 H 1.26804 -0.36553 -0.21103
 H157 H 1.22776 -0.21374 -0.28604
 H158 H 1.26160 -0.18005 -0.31373
 H159 H 1.34136 -0.23181 -0.28792
 H160 H 1.30588 -0.26341 -0.26008
 C161 C 1.17443 -0.32379 -0.30028
 C162 C 1.18716 -0.19768 -0.19252
 C163 C 1.30454 -0.20291 -0.30303
 C164 C 1.29423 -0.32713 -0.19528
 C165 C 0.26573 0.21729 0.70895
 H166 H 0.24050 0.21713 0.70788
 C167 C 0.28355 0.20130 0.69128
 H168 H 0.27182 0.18881 0.67661
 C169 C 0.31163 0.23538 0.72858
 H170 H 0.32248 0.24927 0.74280
 C171 C 0.33038 0.21978 0.71123
 H172 H 0.35557 0.22123 0.71264
 N173 N 0.27993 0.23387 0.72711
 C174 C 0.20894 0.24771 0.78579
 H175 H 0.21079 0.27289 0.78685
 C176 C 0.18889 0.23091 0.80250
 H177 H 0.17642 0.24397 0.81658
 C178 C 0.22558 0.20112 0.76708
 H179 H 0.24014 0.18961 0.75336
 C180 C 0.20580 0.18328 0.78342
 H181 H 0.20496 0.15830 0.78096
 Zn182 Zn 0.25430 0.25809 0.74805
 N183 N 0.22668 0.23274 0.76850
 C184 C 0.19972 0.28222 0.72602
 N185 N 0.23145 0.28456 0.72631
 C186 C 0.24761 0.30371 0.70954
 C187 C 0.23179 0.32182 0.69176
 C188 C 0.18299 0.29970 0.70846
 C189 C 0.29382 0.26455 0.78857
 C190 C 0.31155 0.27983 0.80642
 C191 C 0.29913 0.32909 0.78598
 C192 C 0.28136 0.31287 0.76867
 N193 N 0.27917 0.28116 0.77020
 H194 H 0.18733 0.26613 0.73892
 H195 H 0.27289 0.30460 0.70979
 H196 H 0.24511 0.33715 0.67879
 H197 H 0.15782 0.29674 0.70815
 H198 H 0.29130 0.23935 0.78952
 H199 H 0.32230 0.26616 0.82126
 H200 H 0.30091 0.35431 0.78419
 H201 H 0.26918 0.32569 0.75419
 C202 C 0.18692 0.19794 0.80177
 C203 C 0.31634 0.20264 0.69216
 C204 C 0.31431 0.31259 0.80536
 C205 C 0.19900 0.31979 0.69092
 C206 C 0.77349 0.71266 0.71292
 H207 H 0.74835 0.70933 0.71359
 C208 C 0.79167 0.69639 0.69568
 H209 H 0.78026 0.68053 0.68308
 C210 C 0.81848 0.73914 0.72743
 H211 H 0.82870 0.75647 0.73934
 C212 C 0.83758 0.72335 0.71046
 H213 H 0.86253 0.72813 0.70993
 N214 N 0.78705 0.73367 0.72821
 C215 C 0.71549 0.74888 0.78617
 H216 H 0.71251 0.77376 0.78322
 C217 C 0.69860 0.73291 0.80547
 H218 H 0.68321 0.74637 0.81727
 C219 C 0.74149 0.70267 0.77520
 H220 H 0.75857 0.69113 0.76352
 C221 C 0.72545 0.68578 0.79460
 H222 H 0.72981 0.66104 0.79662
 Zn223 Zn 0.76007 0.75829 0.74760
 N224 N 0.73621 0.73363 0.77137
 C225 C 0.70279 0.77434 0.72457
 N226 N 0.73427 0.77931 0.72443
 C227 C 0.74880 0.79803 0.70645
 C228 C 0.73148 0.81350 0.68811
 C229 C 0.68456 0.78909 0.70638
 C230 C 0.80119 0.77406 0.78475
 C231 C 0.81859 0.79314 0.80025
 C232 C 0.79931 0.83831 0.77751
 C233 C 0.78198 0.81831 0.76257
 N234 N 0.78349 0.78682 0.76630
 H235 H 0.69180 0.75849 0.73844
 H236 H 0.77397 0.80098 0.70643
 H237 H 0.74354 0.82894 0.67444
 H238 H 0.65962 0.78436 0.70656
 H239 H 0.80147 0.74894 0.78755
 H240 H 0.83188 0.78241 0.81522
 H241 H 0.79818 0.86330 0.77403
 H242 H 0.76722 0.82805 0.74820
 C243 C 0.70340 0.70074 0.81023
 C244 C 0.82413 0.70194 0.69407
 C245 C 0.81787 0.82576 0.79672
 C246 C 0.69887 0.80911 0.68785
 C247 C 0.77380 0.20770 0.21398
 H248 H 0.74862 0.20481 0.21511
 C249 C 0.79133 0.19020 0.19709
 H250 H 0.77949 0.17384 0.18516
 C251 C 0.81965 0.23378 0.22727
 H252 H 0.83054 0.25139 0.23852
 C253 C 0.83804 0.21692 0.21057
 H254 H 0.86308 0.22116 0.20964
 N255 N 0.78816 0.22882 0.22874
 C256 C 0.71800 0.24504 0.28752
 H257 H 0.71665 0.27019 0.28542
 C258 C 0.70011 0.22916 0.30626
 H259 H 0.68489 0.24226 0.31853
 C260 C 0.74070 0.19769 0.27472
 H261 H 0.75711 0.18568 0.26276
 C262 C 0.72341 0.18087 0.29344
 H263 H 0.72607 0.15581 0.29535
 Zn264 Zn 0.76297 0.25379 0.24941
 N265 N 0.73759 0.22919 0.27210
 C266 C 0.70697 0.27378 0.22674
 N267 N 0.73845 0.27839 0.22753
 C268 C 0.75363 0.29874 0.21112
 C269 C 0.73701 0.31579 0.19318
 C270 C 0.68947 0.29013 0.20896
 C271 C 0.80737 0.26247 0.28553
 C272 C 0.82685 0.27831 0.30176
 C273 C 0.80629 0.32708 0.28583
 C274 C 0.78738 0.31024 0.26965
 N275 N 0.78848 0.27853 0.26971
 H276 H 0.69547 0.25670 0.23934
 H277 H 0.77878 0.30148 0.21182
 H278 H 0.74957 0.33217 0.18055
 H279 H 0.66457 0.28540 0.20822
 H280 H 0.80741 0.23720 0.28536
 H281 H 0.84222 0.26499 0.31374
 H282 H 0.80466 0.35229 0.28593
 H283 H 0.77151 0.32248 0.25744
 C284 C 0.70280 0.19668 0.30947
 C285 C 0.82387 0.19493 0.19513
 C286 C 0.82641 0.31107 0.30217
 C287 C 0.70447 0.31143 0.19177
 C288 C 0.27577 0.71373 0.20958
 H289 H 0.25061 0.71081 0.21099
 C290 C 0.29280 0.69807 0.19114
 H291 H 0.28051 0.68306 0.17839
 C292 C 0.32206 0.73818 0.22368
 H293 H 0.33333 0.75443 0.23595
 C294 C 0.33997 0.72308 0.20547
 H295 H 0.36501 0.72725 0.20443
 N296 N 0.29056 0.73327 0.22543
 C297 C 0.22331 0.74610 0.28753
 H298 H 0.22293 0.77137 0.28681
 C299 C 0.20526 0.72947 0.30575
 H300 H 0.19093 0.74212 0.31901
 C301 C 0.24328 0.69908 0.27150
 H302 H 0.25849 0.68744 0.25831
 C303 C 0.22583 0.68147 0.28973
 H304 H 0.22728 0.65623 0.29017
 Zn305 Zn 0.26588 0.75671 0.24796
 N306 N 0.24149 0.73081 0.27065
 C307 C 0.20812 0.77910 0.22940
 N308 N 0.23982 0.78240 0.22794
 C309 C 0.25392 0.80302 0.21112
 C310 C 0.23602 0.82186 0.19529
 C311 C 0.18933 0.79737 0.21384
 C312 C 0.31100 0.76513 0.28408
 C313 C 0.33007 0.78101 0.30066
 C314 C 0.30936 0.82960 0.28473
 C315 C 0.29071 0.81264 0.26846
 N316 N 0.29197 0.78102 0.26834
 H317 H 0.19730 0.76201 0.24236
 H318 H 0.27918 0.80470 0.20993
 H319 H 0.24773 0.83791 0.18187
 H320 H 0.16415 0.79457 0.21542
 H321 H 0.31143 0.73988 0.28365
 H322 H 0.34570 0.76691 0.31170
 H323 H 0.30592 0.85452 0.28476
 H324 H 0.27461 0.82483 0.25642
 C325 C 0.20634 0.69674 0.30702
 C326 C 0.32534 0.70284 0.18879
 C327 C 0.32968 0.81408 0.30161
 C328 C 0.20325 0.81913 0.19650
 O329 O 1.05941 0.03173 0.01874
 O330 O 0.93847 -0.03968 0.01791
 O331 O 0.96425 0.05547 0.01646
 O332 O 1.03321 -0.06381 0.02061
 O333 O 0.94559 0.01237 0.03111
 O334 O 1.05164 -0.02102 0.03365
 O335 O 0.97996 -0.05695 0.03367
 O336 O 1.01569 0.04965 0.03071
 C337 C 1.04370 0.04626 0.03467
 C338 C 0.95155 -0.05303 0.03590
 C339 C 0.94999 0.04056 0.03389
 C340 C 1.04716 -0.04934 0.03727
 O341 O 1.05937 -0.04101 -0.01483
 O342 O 0.94206 0.03271 -0.01803
 O343 O 1.03823 0.05483 -0.01763
 O344 O 0.96307 -0.06287 -0.01578
 O345 O 0.94807 -0.01952 -0.03103
 O346 O 1.05586 0.01170 -0.02989
 O347 O 1.01617 -0.05790 -0.02842
 O348 O 0.98604 0.04906 -0.03242
 Co349 Co 1.05104 -0.00457 0.00183
 Co350 Co 0.94903 -0.00358 0.00009
 Co351 Co 1.00090 0.04684 -0.00064
 Co352 Co 0.99822 -0.05496 0.00244
 O353 O 0.99985 -0.00406 0.00095
 C354 C 1.04469 -0.05485 -0.03149
 C355 C 0.95767 0.04611 -0.03545
 C356 C 1.05246 0.03988 -0.03409
 C357 C 0.95161 -0.04774 -0.03371
 O358 O 1.03983 0.51569 0.53169
 O359 O 0.93504 0.46692 0.51824
 O360 O 0.96483 0.56503 0.51160
 O361 O 1.03251 0.46009 0.52796
 O362 O 0.93386 0.52495 0.52313
 O363 O 1.07361 0.47867 0.50765
 O364 O 0.97779 0.45837 0.53678
 O365 O 1.02214 0.56028 0.51828
 C366 C 1.03493 0.54401 0.53534
 C367 C 0.94884 0.45806 0.53756
 C368 C 0.94260 0.55299 0.52531
 C369 C 1.06169 0.45794 0.52356
 O370 O 1.04376 0.48920 0.46695
 O371 O 0.93328 0.53273 0.47513
 O372 O 1.02866 0.54882 0.46695
 O373 O 0.96684 0.43919 0.48859
 O374 O 0.94232 0.47614 0.46904
 O375 O 1.06476 0.53537 0.49036
 O376 O 1.02205 0.44567 0.47875
 O377 O 0.97598 0.55459 0.46171
 Co378 Co 1.03986 0.50138 0.49938
 Co379 Co 0.94152 0.50027 0.49648
 Co380 Co 0.99780 0.55289 0.49051
 Co381 Co 0.99926 0.45535 0.50702
 O382 O 0.99258 0.50413 0.49750
 C383 C 1.03717 0.46161 0.46232
 C384 C 0.94761 0.55022 0.45958
 C385 C 1.05671 0.55112 0.47176
 C386 C 0.95210 0.44892 0.46966
 O387 O 0.54079 0.01341 0.53489
 O388 O 0.43572 -0.03410 0.51944
 O389 O 0.46602 0.06392 0.51517
 O390 O 0.53281 -0.04182 0.52973
 O391 O 0.43467 0.02371 0.52547
 O392 O 0.57436 -0.02329 0.51014
 O393 O 0.47809 -0.04345 0.53824
 O394 O 0.52325 0.05844 0.52236
 C395 C 0.53611 0.04167 0.53907
 C396 C 0.44915 -0.04332 0.53881
 C397 C 0.44335 0.05166 0.52823
 C398 C 0.56190 -0.04455 0.52529
 O399 O 0.54511 -0.01108 0.46946
 O400 O 0.43494 0.03282 0.47749
 O401 O 0.53033 0.04856 0.47090
 O402 O 0.46754 -0.06126 0.48951
 O403 O 0.44373 -0.02349 0.47048
 O404 O 0.56625 0.03409 0.49408
 O405 O 0.52281 -0.05471 0.48022
 O406 O 0.47793 0.05516 0.46526
 Co407 Co 0.54095 0.00010 0.50220
 Co408 Co 0.44264 -0.00022 0.49840
 Co409 Co 0.49925 0.05219 0.49421
 Co410 Co 0.49980 -0.04579 0.50855
 O411 O 0.49363 0.00328 0.50003
 C412 C 0.53824 -0.03843 0.46419
 C413 C 0.44967 0.05075 0.46254
 C414 C 0.55829 0.05070 0.47597
 C415 C 0.45296 -0.05089 0.47070
 O416 O 0.54711 0.50919 0.03291
 O417 O 0.44229 0.46074 0.01733
 O418 O 0.47261 0.55860 0.01217
 O419 O 0.53931 0.45282 0.02784
 O420 O 0.44310 0.51848 0.02542
 O421 O 0.58122 0.47237 0.00905
 O422 O 0.48446 0.44990 0.03575
 O423 O 0.52916 0.55369 0.01929
 C424 C 0.54150 0.53741 0.03661
 C425 C 0.45557 0.45057 0.03641
 C426 C 0.45170 0.54653 0.02720
 C427 C 0.56869 0.45105 0.02415
 O428 O 0.55297 0.48385 -0.03220
 O429 O 0.44146 0.52992 -0.02215
 O430 O 0.53696 0.54205 -0.03188
 O431 O 0.47449 0.43439 -0.01408
 O432 O 0.44825 0.47298 -0.03064
 O433 O 0.57282 0.52983 -0.00788
 O434 O 0.53029 0.44031 -0.02197
 O435 O 0.48474 0.54653 -0.03813
 Co436 Co 0.54798 0.49547 0.00043
 Co437 Co 0.44923 0.49563 -0.00249
 Co438 Co 0.50569 0.54623 -0.00888
 Co439 Co 0.50663 0.44887 0.00607
 O440 O 0.50063 0.49799 -0.00201
 C441 C 0.54648 0.45646 -0.03755
 C442 C 0.45621 0.54341 -0.03981
 C443 C 0.56470 0.54560 -0.02645
 C444 C 0.45696 0.44527 -0.03116
 C445 C 1.17942 0.13540 0.17366
 C446 C 1.16568 0.11677 0.15551
 C447 C 1.13833 0.12616 0.14375
 C448 C 1.12467 0.15449 0.15048
 C449 C 1.13855 0.17332 0.16842
 C450 C 1.16624 0.16412 0.18015
 N451 N 1.12531 0.10703 0.12467
 N452 N 1.09861 0.11249 0.11560
 C453 C 1.08536 0.09447 0.09598
 C454 C 1.05437 0.09977 0.08957
 C455 C 1.04080 0.08363 0.06997
 C456 C 1.05819 0.06208 0.05609
 C457 C 1.08930 0.05651 0.06265
 C458 C 1.10279 0.07251 0.08256
 H459 H 1.20036 0.12723 0.18262
 H460 H 1.17639 0.09495 0.15058
 H461 H 1.10361 0.16239 0.14153
 H462 H 1.12800 0.19545 0.17261
 H463 H 1.04074 0.11666 0.09974
 H464 H 1.01677 0.08847 0.06541
 H465 H 1.10317 0.03993 0.05235
 H466 H 1.12687 0.06811 0.08717
 C467 C 1.16378 0.62471 0.67971
 C468 C 1.14702 0.60608 0.66327
 C469 C 1.12167 0.61819 0.65024
 C470 C 1.11267 0.64914 0.65435
 C471 C 1.12936 0.66779 0.67086
 C472 C 1.15539 0.65592 0.68345
 N473 N 1.10654 0.59919 0.63209
 N474 N 1.08426 0.60932 0.61881
 C475 C 1.07005 0.59112 0.59970
 C476 C 1.04758 0.60507 0.58454
 C477 C 1.03541 0.58930 0.56411
 C478 C 1.04540 0.55906 0.55858
 C479 C 1.06697 0.54448 0.57449
 C480 C 1.07933 0.56044 0.59485
 H481 H 1.18341 0.61474 0.68943
 H482 H 1.15418 0.58228 0.66031
 H483 H 1.09318 0.65909 0.64445
 H484 H 1.12249 0.69179 0.67317
 H485 H 1.04019 0.62866 0.58810
 H486 H 1.01868 0.60107 0.55230
 H487 H 1.07510 0.52121 0.57067
 H488 H 1.09664 0.54913 0.60638
 C489 C 0.66904 0.12430 0.68117
 C490 C 0.65248 0.10537 0.66478
 C491 C 0.62644 0.11682 0.65221
 C492 C 0.61674 0.14746 0.65668
 C493 C 0.63326 0.16642 0.67312
 C494 C 0.65985 0.15519 0.68535
 N495 N 0.61119 0.09744 0.63431
 N496 N 0.58789 0.10684 0.62182
 C497 C 0.57322 0.08845 0.60301
 C498 C 0.54940 0.10184 0.58892
 C499 C 0.53652 0.08604 0.56877
 C500 C 0.54710 0.05627 0.56241
 C501 C 0.57004 0.04215 0.57729
 C502 C 0.58314 0.05818 0.59738
 H503 H 0.68910 0.11473 0.69058
 H504 H 0.66022 0.08182 0.66157
 H505 H 0.59674 0.15695 0.64715
 H506 H 0.62573 0.19016 0.67568
 H507 H 0.54147 0.12508 0.59307
 H508 H 0.51877 0.09749 0.55777
 H509 H 0.57872 0.01929 0.57278
 H510 H 0.60149 0.04727 0.60806
 C511 C 0.66220 0.62693 0.18254
 C512 C 0.64717 0.60686 0.16610
 C513 C 0.62140 0.61695 0.15250
 C514 C 0.61029 0.64731 0.15601
 C515 C 0.62528 0.66740 0.17247
 C516 C 0.65169 0.65760 0.18567
 N517 N 0.60802 0.59665 0.13435
 N518 N 0.58516 0.60497 0.12091
 C519 C 0.57246 0.58585 0.10171
 C520 C 0.54899 0.59815 0.08665
 C521 C 0.53820 0.58180 0.06604
 C522 C 0.55057 0.55257 0.06019
 C523 C 0.57311 0.53947 0.07603
 C524 C 0.58413 0.55607 0.09659
 H525 H 0.68217 0.61848 0.19272
 H526 H 0.65596 0.58354 0.16361
 H527 H 0.59045 0.65575 0.14566
 H528 H 0.61679 0.69094 0.17425
 H529 H 0.53975 0.62101 0.09042
 H530 H 0.52063 0.59239 0.05431
 H531 H 0.58306 0.51701 0.07193
 H532 H 0.60227 0.54604 0.10803
 C533 C 0.84861 -0.19562 0.17217
 C534 C 0.86929 -0.17949 0.15540
 C535 C 0.86125 -0.15056 0.14473
 C536 C 0.83231 -0.13762 0.15132
 C537 C 0.81170 -0.15359 0.16820
 C538 C 0.81949 -0.18290 0.17872
 N539 N 0.88240 -0.13521 0.12683
 N540 N 0.87495 -0.11047 0.11469
 C541 C 0.89543 -0.09519 0.09628
 C542 C 0.88360 -0.07114 0.08108
 C543 C 0.90210 -0.05709 0.06174
 C544 C 0.93301 -0.06659 0.05751
 C545 C 0.94532 -0.08995 0.07340
 C546 C 0.92658 -0.10434 0.09255
 H547 H 0.85521 -0.21831 0.17961
 H548 H 0.89146 -0.18979 0.15038
 H549 H 0.82559 -0.11518 0.14343
 H550 H 0.78975 -0.14285 0.17318
 H551 H 0.85968 -0.06382 0.08384
 H552 H 0.89209 -0.03899 0.04990
 H553 H 0.96910 -0.09768 0.07056
 H554 H 0.93628 -0.12279 0.10420
 C555 C 0.85863 0.32163 0.68491
 C556 C 0.87791 0.34066 0.66900
 C557 C 0.86587 0.35595 0.64787
 C558 C 0.83419 0.35168 0.64255
 C559 C 0.81484 0.33249 0.65817
 C560 C 0.82633 0.31692 0.68005
 N561 N 0.88620 0.37512 0.63176
 N562 N 0.87542 0.39218 0.61404
 C563 C 0.89477 0.41074 0.59680
 C564 C 0.88024 0.42902 0.57839
 C565 C 0.89799 0.44538 0.55979
 C566 C 0.93079 0.44371 0.55921
 C567 C 0.94553 0.42634 0.57834
 C568 C 0.92763 0.40988 0.59702
 H569 H 0.86946 0.31207 0.70155
 H570 H 0.90234 0.34384 0.67340
 H571 H 0.82437 0.36277 0.62598
 H572 H 0.79124 0.32923 0.65190
 H573 H 0.85496 0.42992 0.57807
 H574 H 0.88593 0.45871 0.54543
 H575 H 0.97076 0.42460 0.57836
 H576 H 0.93937 0.39589 0.61113
 C577 C 0.35571 -0.17410 0.68818
 C578 C 0.37524 -0.15491 0.67263
 C579 C 0.36491 -0.14366 0.64927
 C580 C 0.33491 -0.15228 0.64138
 C581 C 0.31556 -0.17176 0.65671
 C582 C 0.32557 -0.18276 0.68041
 N583 N 0.38525 -0.12402 0.63361
 N584 N 0.37486 -0.10911 0.61454
 C585 C 0.39426 -0.09035 0.59755
 C586 C 0.37991 -0.07338 0.57827
 C587 C 0.39787 -0.05704 0.55983
 C588 C 0.43071 -0.05758 0.56023
 C589 C 0.44520 -0.07367 0.58019
 C590 C 0.42707 -0.08999 0.59877
 H591 H 0.36406 -0.18172 0.70645
 H592 H 0.39833 -0.14849 0.67891
 H593 H 0.32653 -0.14427 0.62322
 H594 H 0.29286 -0.17848 0.64980
 H595 H 0.35465 -0.07347 0.57719
 H596 H 0.38599 -0.04471 0.54482
 H597 H 0.47045 -0.07448 0.58097
 H598 H 0.43864 -0.10302 0.61355
 C599 C 0.35733 0.33400 0.19170
 C600 C 0.37776 0.35118 0.17538
 C601 C 0.36957 0.35764 0.15036
 C602 C 0.34102 0.34598 0.14160
 C603 C 0.32084 0.32847 0.15772
 C604 C 0.32851 0.32257 0.18308
 N605 N 0.39033 0.37596 0.13405
 N606 N 0.38066 0.38772 0.11340
 C607 C 0.40018 0.40526 0.09571
 C608 C 0.38603 0.41995 0.07519
 C609 C 0.40410 0.43551 0.05643
 C610 C 0.43689 0.43637 0.05771
 C611 C 0.45117 0.42227 0.07870
 C612 C 0.43289 0.40684 0.09767
 H613 H 0.36386 0.33021 0.21117
 H614 H 0.39973 0.35998 0.18235
 H615 H 0.33436 0.35020 0.12221
 H616 H 0.29932 0.31937 0.15020
 H617 H 0.36085 0.41885 0.07353
 H618 H 0.39236 0.44622 0.04058
 H619 H 0.47638 0.42261 0.08018
 H620 H 0.44428 0.39551 0.11343
 C621 C 0.80130 0.13527 -0.15925
 C622 C 0.81833 0.11764 -0.14191
 C623 C 0.84991 0.12461 -0.13807
 C624 C 0.86443 0.14958 -0.15189
 C625 C 0.84736 0.16738 -0.16915
 C626 C 0.81558 0.16043 -0.17301
 N627 N 0.86629 0.10650 -0.11961
 N628 N 0.89537 0.11031 -0.11577
 C629 C 0.91102 0.09258 -0.09661
 C630 C 0.94317 0.09737 -0.09350
 C631 C 0.95869 0.08166 -0.07405
 C632 C 0.94213 0.06102 -0.05726
 C633 C 0.91004 0.05569 -0.06081
 C634 C 0.89462 0.07127 -0.08030
 H635 H 0.77679 0.12958 -0.16155
 H636 H 0.80682 0.09858 -0.13128
 H637 H 0.88882 0.15546 -0.14922
 H638 H 0.85909 0.18640 -0.17967
 H639 H 0.95611 0.11369 -0.10594
 H640 H 0.98344 0.08620 -0.07179
 H641 H 0.89671 0.03977 -0.04829
 H642 H 0.86979 0.06706 -0.08231
 C643 C 0.78471 0.64403 0.34361
 C644 C 0.80219 0.62617 0.36046
 C645 C 0.83369 0.63358 0.36422
 C646 C 0.84757 0.65939 0.35104
 C647 C 0.83006 0.67741 0.33430
 C648 C 0.79846 0.66984 0.33033
 N649 N 0.85085 0.61477 0.38166
 N650 N 0.87998 0.61898 0.38496
 C651 C 0.89679 0.60043 0.40284
 C652 C 0.92888 0.60598 0.40535
 C653 C 0.94567 0.58918 0.42338
 C654 C 0.93049 0.56655 0.43930
 C655 C 0.89835 0.56061 0.43639
 C656 C 0.88165 0.57736 0.41832
 H657 H 0.76033 0.63786 0.34114
 H658 H 0.79120 0.60644 0.37061
 H659 H 0.87189 0.66562 0.35367
 H660 H 0.84135 0.69695 0.32412
 H661 H 0.94082 0.62368 0.39351
 H662 H 0.97039 0.59431 0.42517
 H663 H 0.88599 0.54330 0.44833
 H664 H 0.85685 0.57259 0.41673
 C665 C 0.29488 0.13890 0.33651
 C666 C 0.31210 0.12068 0.35328
 C667 C 0.33973 0.13230 0.36318
 C668 C 0.34992 0.16271 0.35642
 C669 C 0.33262 0.18126 0.33995
 C670 C 0.30461 0.16983 0.32933
 N671 N 0.35668 0.11300 0.38040
 N672 N 0.38392 0.12054 0.38755
 C673 C 0.40046 0.10174 0.40540
 C674 C 0.43143 0.10980 0.41061
 C675 C 0.44779 0.09273 0.42873
 C676 C 0.43319 0.06748 0.44216
 C677 C 0.40221 0.05916 0.43662
 C678 C 0.38600 0.07606 0.41833
 H679 H 0.27309 0.12878 0.33046
 H680 H 0.30376 0.09736 0.35869
 H681 H 0.37135 0.17220 0.36384
 H682 H 0.34262 0.20392 0.33471
 H683 H 0.44279 0.12956 0.40077
 H684 H 0.47161 0.09974 0.43263
 H685 H 0.39039 0.03976 0.44660
 H686 H 0.36204 0.06941 0.41464
 C687 C 0.29756 0.62857 -0.16351
 C688 C 0.31442 0.61080 -0.14617
 C689 C 0.34624 0.61706 -0.14283
 C690 C 0.36124 0.64117 -0.15730
 C691 C 0.34439 0.65906 -0.17455
 C692 C 0.31233 0.65309 -0.17770
 N693 N 0.36245 0.59946 -0.12403
 N694 N 0.39159 0.60335 -0.12063
 C695 C 0.40758 0.58670 -0.10116
 C696 C 0.43981 0.59156 -0.09893
 C697 C 0.45583 0.57701 -0.07928
 C698 C 0.43971 0.55748 -0.06139
 C699 C 0.40743 0.55216 -0.06395
 C700 C 0.39149 0.56662 -0.08368
 H701 H 0.27281 0.62366 -0.16537
 H702 H 0.30259 0.59237 -0.13504
 H703 H 0.38584 0.64646 -0.15506
 H704 H 0.35643 0.67756 -0.18546
 H705 H 0.45243 0.60702 -0.11228
 H706 H 0.48071 0.58152 -0.07780
 H707 H 0.39443 0.53709 -0.05054
 H708 H 0.36655 0.56250 -0.08501
 C709 C 1.19148 -0.15626 -0.16005
 C710 C 1.17812 -0.13767 -0.14149
 C711 C 1.14604 -0.13983 -0.13585
 C712 C 1.12734 -0.16098 -0.14900
 C713 C 1.14070 -0.17975 -0.16741
 C714 C 1.17291 -0.17758 -0.17314
 N715 N 1.13305 -0.12082 -0.11649
 N716 N 1.10373 -0.12043 -0.11192
 C717 C 1.08989 -0.10242 -0.09235
 C718 C 1.05734 -0.10289 -0.08958
 C719 C 1.04279 -0.08690 -0.07010
 C720 C 1.06060 -0.07017 -0.05282
 C721 C 1.09335 -0.06915 -0.05588
 C722 C 1.10794 -0.08518 -0.07554
 H723 H 1.21643 -0.15437 -0.16384
 H724 H 1.19281 -0.12159 -0.13143
 H725 H 1.10247 -0.16316 -0.14496
 H726 H 1.12580 -0.19576 -0.17734
 H727 H 1.04321 -0.11604 -0.10243
 H728 H 1.01752 -0.08801 -0.06838
 H729 H 1.10764 -0.05635 -0.04292
 H730 H 1.13320 -0.08449 -0.07737
 C731 C 1.17375 0.36696 0.32669
 C732 C 1.15838 0.38707 0.34301
 C733 C 1.12742 0.38093 0.35088
 C734 C 1.11164 0.35458 0.34180
 C735 C 1.12692 0.33452 0.32532
 C736 C 1.15827 0.34032 0.31771
 N737 N 1.11314 0.40095 0.36891
 N738 N 1.08614 0.39507 0.37867
 C739 C 1.07240 0.41418 0.39760
 C740 C 1.04536 0.40319 0.41053
 C741 C 1.03328 0.41930 0.43105
 C742 C 1.04781 0.44704 0.43874
 C743 C 1.07396 0.45904 0.42489
 C744 C 1.08636 0.44259 0.40456
 H745 H 1.19803 0.37190 0.32164
 H746 H 1.17088 0.40715 0.35001
 H747 H 1.08764 0.34936 0.34758
 H748 H 1.11416 0.31451 0.31850
 H749 H 1.03434 0.38141 0.40531
 H750 H 1.01298 0.40962 0.44130
 H751 H 1.08561 0.48036 0.43047
 H752 H 1.10722 0.45163 0.39474
 C753 C 0.66921 -0.13155 0.32310
 C754 C 0.65495 -0.11113 0.33985
 C755 C 0.62463 -0.11733 0.34935
 C756 C 0.60833 -0.14398 0.34137
 C757 C 0.62251 -0.16436 0.32454
 C758 C 0.65328 -0.15861 0.31541
 N759 N 0.61156 -0.09722 0.36795
 N760 N 0.58509 -0.10314 0.37865
 C761 C 0.57217 -0.08437 0.39819
 C762 C 0.54516 -0.09530 0.41118
 C763 C 0.53361 -0.07966 0.43211
 C764 C 0.54865 -0.05241 0.44026
 C765 C 0.57488 -0.04046 0.42646
 C766 C 0.58675 -0.05648 0.40565
 H767 H 0.69307 -0.12659 0.31678
 H768 H 0.66785 -0.09081 0.34594
 H769 H 0.58480 -0.14929 0.34836
 H770 H 0.60939 -0.18468 0.31873
 H771 H 0.53367 -0.11670 0.40560
 H772 H 0.51329 -0.08934 0.44231
 H773 H 0.58694 -0.01953 0.43238
 H774 H 0.60764 -0.04752 0.39581
 C775 C 0.68518 0.35854 -0.17167
 C776 C 0.67045 0.37904 -0.15524
 C777 C 0.63944 0.37359 -0.14710
 C778 C 0.62309 0.34740 -0.15590
 C779 C 0.63777 0.32692 -0.17240
 C780 C 0.66907 0.33212 -0.18041
 N781 N 0.62556 0.39421 -0.12924
 N782 N 0.59805 0.38942 -0.12011
 C783 C 0.58415 0.40887 -0.10144
 C784 C 0.55574 0.39909 -0.08999
 C785 C 0.54295 0.41541 -0.06987
 C786 C 0.55813 0.44222 -0.06103
 C787 C 0.58583 0.45309 -0.07338
 C788 C 0.59893 0.43637 -0.09336
 H789 H 0.70943 0.36305 -0.17708
 H790 H 0.68341 0.39897 -0.14849
 H791 H 0.59907 0.34265 -0.14993
 H792 H 0.62453 0.30709 -0.17901
 H793 H 0.54407 0.37804 -0.09607
 H794 H 0.52151 0.40658 -0.06078
 H795 H 0.59805 0.47361 -0.06686
 H796 H 0.62087 0.44447 -0.10202
 C797 C 1.14131 0.19407 -0.16856
 C798 C 1.12305 0.17730 -0.15046
 C799 C 1.12984 0.14636 -0.14408
 C800 C 1.15491 0.13199 -0.15641
 C801 C 1.17334 0.14867 -0.17450
 C802 C 1.16727 0.18033 -0.18077
 N803 N 1.11166 0.13053 -0.12442
 N804 N 1.11581 0.10199 -0.11824
 C805 C 1.09845 0.08659 -0.09790
 C806 C 1.10331 0.05482 -0.09285
 C807 C 1.08794 0.03944 -0.07237
 C808 C 1.06758 0.05577 -0.05643
 C809 C 1.06231 0.08757 -0.06177
 C810 C 1.07757 0.10286 -0.08236
 H811 H 1.13424 0.21760 -0.17324
 H812 H 1.10354 0.18855 -0.14126
 H813 H 1.16078 0.10807 -0.15165
 H814 H 1.19327 0.13685 -0.18239
 H815 H 1.11935 0.04204 -0.10467
 H816 H 1.09240 0.01490 -0.06877
 H817 H 1.04658 0.10067 -0.04992
 H818 H 1.07342 0.12746 -0.08587
 C819 C 1.15559 0.68678 0.33044
 C820 C 1.13745 0.67111 0.34921
 C821 C 1.15036 0.64765 0.36440
 C822 C 1.18172 0.63945 0.36027
 C823 C 1.19987 0.65491 0.34121
 C824 C 1.18702 0.67897 0.32630
 N825 N 1.13083 0.63259 0.38359
 N826 N 1.14083 0.61339 0.40020
 C827 C 1.11986 0.59877 0.41872
 C828 C 1.13169 0.57943 0.43793
 C829 C 1.11139 0.56440 0.45578
 C830 C 1.07891 0.56836 0.45445
 C831 C 1.06722 0.58806 0.43535
 C832 C 1.08742 0.60317 0.41774
 H833 H 1.14500 0.70497 0.31907
 H834 H 1.11326 0.67747 0.35211
 H835 H 1.19212 0.62123 0.37171
 H836 H 1.22409 0.64859 0.33848
 H837 H 1.15662 0.57582 0.43894
 H838 H 1.12100 0.54924 0.47024
 H839 H 1.04231 0.59160 0.43386
 H840 H 1.07758 0.61796 0.40315
 C841 C 0.65271 0.18661 0.33383
 C842 C 0.63540 0.17139 0.35329
 C843 C 0.64934 0.14921 0.36908
 C844 C 0.68094 0.14198 0.36502
 C845 C 0.69830 0.15705 0.34536
 C846 C 0.68436 0.17967 0.32969
 N847 N 0.63053 0.13422 0.38870
 N848 N 0.64118 0.11528 0.40520
 C849 C 0.62071 0.10055 0.42397
 C850 C 0.63286 0.08021 0.44235
 C851 C 0.61284 0.06451 0.46004
 C852 C 0.58038 0.06890 0.45932
 C853 C 0.56845 0.08984 0.44123
 C854 C 0.58835 0.10554 0.42381
 H855 H 0.64129 0.20366 0.32187
 H856 H 0.61099 0.17695 0.35617
 H857 H 0.69213 0.12477 0.37696
 H858 H 0.72273 0.15148 0.34269
 H859 H 0.65776 0.07616 0.44272
 H860 H 0.62258 0.04840 0.47375
 H861 H 0.54355 0.09375 0.44027
 H862 H 0.57827 0.12116 0.40990
 C863 C 0.65709 0.69423 -0.16136
 C864 C 0.64072 0.67820 -0.14179
 C865 C 0.65348 0.65212 -0.12979
 C866 C 0.68294 0.64182 -0.13778
 C867 C 0.69931 0.65753 -0.15768
 C868 C 0.68679 0.68426 -0.16982
 N869 N 0.63529 0.63604 -0.11032
 N870 N 0.64588 0.61446 -0.09603
 C871 C 0.62583 0.59847 -0.07761
 C872 C 0.63847 0.57749 -0.05993
 C873 C 0.61888 0.56080 -0.04251
 C874 C 0.58633 0.56464 -0.04290
 C875 C 0.57386 0.58597 -0.06043
 C876 C 0.59335 0.60281 -0.07749
 H877 H 0.64554 0.71362 -0.17047
 H878 H 0.61776 0.68604 -0.13602
 H879 H 0.69321 0.62157 -0.12877
 H880 H 0.72230 0.64923 -0.16271
 H881 H 0.66346 0.57387 -0.05983
 H882 H 0.62902 0.54435 -0.02927
 H883 H 0.54887 0.58939 -0.06118
 H884 H 0.58288 0.61876 -0.09094
 C885 C 0.82278 -0.12545 -0.17821
 C886 C 0.83841 -0.10735 -0.16075
 C887 C 0.86674 -0.11725 -0.15092
 C888 C 0.88012 -0.14482 -0.15956
 C889 C 0.86476 -0.16272 -0.17725
 C890 C 0.83555 -0.15363 -0.18636
 N891 N 0.88063 -0.09983 -0.13130
 N892 N 0.90274 -0.11081 -0.11828
 C893 C 0.91608 -0.09400 -0.09809
 C894 C 0.93599 -0.10962 -0.08160
 C895 C 0.94769 -0.09455 -0.06065
 C896 C 0.93998 -0.06339 -0.05617
 C897 C 0.92074 -0.04743 -0.07319
 C898 C 0.90869 -0.06268 -0.09391
 H899 H 0.80019 -0.11792 -0.18459
 H900 H 0.82788 -0.08613 -0.15417
 H901 H 0.90223 -0.15273 -0.15243
 H902 H 0.87562 -0.18388 -0.18359
 H903 H 0.94184 -0.13375 -0.08468
 H904 H 0.96265 -0.10730 -0.04792
 H905 H 0.91453 -0.02335 -0.07022
 H906 H 0.89345 -0.05011 -0.10651
 C907 C 0.86006 0.35737 0.31278
 C908 C 0.87802 0.37386 0.32984
 C909 C 0.88285 0.36149 0.35413
 C910 C 0.86968 0.33223 0.36127
 C911 C 0.85147 0.31585 0.34436
 C912 C 0.84632 0.32828 0.31993
 N913 N 0.89942 0.37998 0.37168
 N914 N 0.90718 0.36934 0.39329
 C915 C 0.92154 0.38905 0.41127
 C916 C 0.93154 0.37602 0.43421
 C917 C 0.94269 0.39529 0.45309
 C918 C 0.94343 0.42790 0.44929
 C919 C 0.93442 0.44077 0.42593
 C920 C 0.92370 0.42155 0.40705
 H921 H 0.85699 0.36739 0.29402
 H922 H 0.88798 0.39648 0.32419
 H923 H 0.87278 0.32241 0.38010
 H924 H 0.84078 0.29381 0.35067
 H925 H 0.92996 0.35099 0.43767
 H926 H 0.94963 0.38483 0.47091
 H927 H 0.93513 0.46582 0.42239
 H928 H 0.91614 0.43222 0.38950
 C929 C 0.35381 -0.13723 0.31497
 C930 C 0.37073 -0.12063 0.33259
 C931 C 0.38219 -0.13565 0.35405
 C932 C 0.37719 -0.16788 0.35757
 C933 C 0.36026 -0.18471 0.34003
 C934 C 0.34756 -0.16979 0.31832
 N935 N 0.39736 -0.11726 0.37248
 N936 N 0.40879 -0.12893 0.39256
 C937 C 0.42220 -0.10934 0.41115
 C938 C 0.43463 -0.12289 0.43304
 C939 C 0.44553 -0.10404 0.45233
 C940 C 0.44383 -0.07133 0.44997
 C941 C 0.43222 -0.05787 0.42763
 C942 C 0.42157 -0.07663 0.40842
 H943 H 0.34686 -0.12413 0.29837
 H944 H 0.37478 -0.09574 0.32955
 H945 H 0.38561 -0.17996 0.37425
 H946 H 0.35580 -0.20906 0.34486
 H947 H 0.43527 -0.14808 0.43538
 H948 H 0.45450 -0.11501 0.46929
 H949 H 0.43093 -0.03273 0.42512
 H950 H 0.41218 -0.06550 0.39170
 C951 C 0.32116 0.35816 -0.16638
 C952 C 0.33743 0.37407 -0.14803
 C953 C 0.36451 0.36161 -0.13785
 C954 C 0.37550 0.33295 -0.14636
 C955 C 0.35939 0.31706 -0.16498
 C956 C 0.33196 0.32949 -0.17520
 N957 N 0.38030 0.37898 -0.11915
 N958 N 0.40318 0.36871 -0.10660
 C959 C 0.41776 0.38798 -0.08835
 C960 C 0.43913 0.37513 -0.07144
 C961 C 0.45232 0.39358 -0.05279
 C962 C 0.44446 0.42524 -0.05106
 C963 C 0.42365 0.43809 -0.06853
 C964 C 0.41041 0.41972 -0.08686
 H965 H 0.29983 0.36813 -0.17336
 H966 H 0.32875 0.39614 -0.14151
 H967 H 0.39657 0.32303 -0.13883
 H968 H 0.36860 0.29526 -0.17157
 H969 H 0.44510 0.35071 -0.07244
 H970 H 0.46838 0.38309 -0.03965
 H971 H 0.41717 0.46242 -0.06792
 H972 H 0.39425 0.43040 -0.09980
 C973 C 1.19139 -0.12994 0.17426
 C974 C 1.17351 -0.11207 0.15766
 C975 C 1.14784 -0.12547 0.14580
 C976 C 1.13993 -0.15704 0.15103
 C977 C 1.15770 -0.17490 0.16772
 C978 C 1.18378 -0.16162 0.17939
 N979 N 1.13083 -0.10684 0.12807
 N980 N 1.10831 -0.11806 0.11566
 C981 C 1.09179 -0.09979 0.09739
 C982 C 1.06936 -0.11459 0.08281
 C983 C 1.05430 -0.09801 0.06364
 C984 C 1.06131 -0.06617 0.05884
 C985 C 1.08307 -0.05105 0.07408
 C986 C 1.09830 -0.06774 0.09313
 H987 H 1.21110 -0.11895 0.18318
 H988 H 1.17985 -0.08778 0.15381
 H989 H 1.12023 -0.16798 0.14206
 H990 H 1.15145 -0.19931 0.17105
 H991 H 1.06407 -0.13924 0.08594
 H992 H 1.03750 -0.11024 0.05232
 H993 H 1.08891 -0.02651 0.07085
 H994 H 1.11546 -0.05573 0.10423
 C995 C 1.15199 0.34985 0.67742
 C996 C 1.13495 0.36548 0.65894
 C997 C 1.14717 0.36970 0.63433
 C998 C 1.17690 0.35822 0.62832
 C999 C 1.19390 0.34229 0.64675
 C1000 C 1.18157 0.33777 0.67152
 N1001 N 1.12854 0.38512 0.61582
 N1002 N 1.13884 0.39282 0.59372
 C1003 C 1.11918 0.40780 0.57565
 C1004 C 1.13256 0.42159 0.55356
 C1005 C 1.11390 0.43755 0.53623
 C1006 C 1.08148 0.43949 0.54068
 C1007 C 1.06803 0.42474 0.56246
 C1008 C 1.08670 0.40922 0.57985
 H1009 H 1.14199 0.34732 0.69636
 H1010 H 1.11208 0.37434 0.66379
 H1011 H 1.18673 0.36106 0.60934
 H1012 H 1.21636 0.33288 0.64141
 H1013 H 1.15755 0.42053 0.55004
 H1014 H 1.12482 0.44861 0.51955
 H1015 H 1.04311 0.42578 0.56638
 H1016 H 1.07573 0.39849 0.59665
 C1017 C 0.64991 -0.16396 0.67451
 C1018 C 0.63231 -0.14846 0.65631
 C1019 C 0.64446 -0.14304 0.63180
 C1020 C 0.67438 -0.15376 0.62545
 C1021 C 0.69190 -0.16961 0.64355
 C1022 C 0.67997 -0.17472 0.66838
 N1023 N 0.62596 -0.12648 0.61388
 N1024 N 0.63672 -0.11693 0.59235
 C1025 C 0.61755 -0.10031 0.57489
 C1026 C 0.63149 -0.08504 0.55365
 C1027 C 0.61342 -0.06719 0.53712
 C1028 C 0.58106 -0.06477 0.54153
 C1029 C 0.56702 -0.08098 0.56240
 C1030 C 0.58509 -0.09844 0.57901
 H1031 H 0.64016 -0.16700 0.69350
 H1032 H 0.60928 -0.14021 0.66142
 H1033 H 0.68413 -0.15007 0.60652
 H1034 H 0.71466 -0.17811 0.63800
 H1035 H 0.65648 -0.08640 0.55022
 H1036 H 0.62477 -0.05503 0.52111
 H1037 H 0.54210 -0.07963 0.56625
 H1038 H 0.57371 -0.11024 0.59516
 C1039 C 0.65582 0.33834 0.17756
 C1040 C 0.63855 0.35353 0.15897
 C1041 C 0.65146 0.35938 0.13475
 C1042 C 0.68202 0.34977 0.12921
 C1043 C 0.69926 0.33429 0.14772
 C1044 C 0.68637 0.32837 0.17216
 N1045 N 0.63291 0.37487 0.11621
 N1046 N 0.64386 0.38398 0.09462
 C1047 C 0.62463 0.39929 0.07642
 C1048 C 0.63865 0.41400 0.05496
 C1049 C 0.62049 0.43044 0.03757
 C1050 C 0.58793 0.43200 0.04129
 C1051 C 0.57383 0.41633 0.06241
 C1052 C 0.59200 0.40029 0.07989
 H1053 H 0.64531 0.33466 0.19624
 H1054 H 0.61504 0.36094 0.16348
 H1055 H 0.69243 0.35387 0.11054
 H1056 H 0.72247 0.32647 0.14272
 H1057 H 0.66375 0.41329 0.05200
 H1058 H 0.63193 0.44220 0.02141
 H1059 H 0.54878 0.41706 0.06577
 H1060 H 0.58056 0.38888 0.09619
 C1061 C 0.86618 0.19360 0.16172
 C1062 C 0.88338 0.17775 0.14352
 C1063 C 0.87763 0.14598 0.13984
 C1064 C 0.85454 0.12999 0.15473
 C1065 C 0.83722 0.14584 0.17286
 C1066 C 0.84278 0.17784 0.17646
 N1067 N 0.89479 0.13078 0.12035
 N1068 N 0.89125 0.10175 0.11650
 C1069 C 0.90752 0.08671 0.09645
 C1070 C 0.90276 0.05463 0.09360
 C1071 C 0.91699 0.03948 0.07347
 C1072 C 0.93612 0.05634 0.05575
 C1073 C 0.94138 0.08846 0.05892
 C1074 C 0.92720 0.10356 0.07913
 H1075 H 0.87068 0.21835 0.16386
 H1076 H 0.90100 0.19032 0.13206
 H1077 H 0.84967 0.10539 0.15220
 H1078 H 0.81954 0.13309 0.18414
 H1079 H 0.88765 0.04143 0.10684
 H1080 H 0.91263 0.01466 0.07157
 H1081 H 0.95618 0.10196 0.04564
 H1082 H 0.93125 0.12842 0.08099
 C1083 C 0.86720 0.70314 0.66091
 C1084 C 0.88379 0.68905 0.64131
 C1085 C 0.87683 0.65822 0.63503
 C1086 C 0.85369 0.64121 0.64914
 C1087 C 0.83723 0.65517 0.66874
 C1088 C 0.84344 0.68644 0.67461
 N1089 N 0.89279 0.64478 0.61397
 N1090 N 0.88461 0.61801 0.60635
 C1091 C 0.89931 0.60319 0.58545
 C1092 C 0.88773 0.57396 0.57882
 C1093 C 0.90149 0.55811 0.55895
 C1094 C 0.92728 0.57127 0.54525
 C1095 C 0.93870 0.60096 0.55167
 C1096 C 0.92479 0.61686 0.57171
 H1097 H 0.87230 0.72737 0.66479
 H1098 H 0.90156 0.70240 0.63061
 H1099 H 0.84806 0.61720 0.64487
 H1100 H 0.81948 0.64154 0.67923
 H1101 H 0.86806 0.56330 0.58926
 H1102 H 0.89203 0.53532 0.55454
 H1103 H 0.95859 0.61161 0.54152
 H1104 H 0.93406 0.63955 0.57658
 C1105 C 0.36257 0.20161 0.66203
 C1106 C 0.37992 0.18712 0.64307
 C1107 C 0.37072 0.15772 0.63470
 C1108 C 0.34409 0.14269 0.64579
 C1109 C 0.32677 0.15712 0.66468
 C1110 C 0.33565 0.18683 0.67288
 N1111 N 0.38831 0.14365 0.61479
 N1112 N 0.38004 0.11725 0.60646
 C1113 C 0.39641 0.10201 0.58659
 C1114 C 0.38532 0.07275 0.57956
 C1115 C 0.40047 0.05669 0.56047
 C1116 C 0.42716 0.06972 0.54788
 C1117 C 0.43821 0.09935 0.55479
 C1118 C 0.42295 0.11542 0.57409
 H1119 H 0.36979 0.22467 0.66777
 H1120 H 0.40036 0.19896 0.63468
 H1121 H 0.33654 0.11986 0.63979
 H1122 H 0.30642 0.14497 0.67294
 H1123 H 0.36486 0.06227 0.58906
 H1124 H 0.39126 0.03395 0.55564
 H1125 H 0.45875 0.10991 0.54549
 H1126 H 0.43188 0.13812 0.57926
 C1127 C 0.36796 0.70341 0.15516
 C1128 C 0.38499 0.68870 0.13610
 C1129 C 0.37830 0.65762 0.13039
 C1130 C 0.35430 0.64129 0.14408
 C1131 C 0.33724 0.65595 0.16306
 C1132 C 0.34381 0.68720 0.16880
 N1133 N 0.39583 0.64309 0.11060
 N1134 N 0.39043 0.61475 0.10522
 C1135 C 0.40673 0.59879 0.08564
 C1136 C 0.39855 0.56760 0.08193
 C1137 C 0.41326 0.55089 0.06300
 C1138 C 0.43663 0.56510 0.04718
 C1139 C 0.44503 0.59654 0.05094
 C1140 C 0.43016 0.61333 0.07009
 H1141 H 0.37332 0.72762 0.15893
 H1142 H 0.40333 0.70160 0.12569
 H1143 H 0.34865 0.61720 0.14012
 H1144 H 0.31909 0.64272 0.17342
 H1145 H 0.38056 0.55619 0.09380
 H1146 H 0.40617 0.52673 0.06077
 H1147 H 0.46298 0.60809 0.03913
 H1148 H 0.43685 0.63752 0.07268
   
