data_POSCAR
  _audit_creation_date              2014-09-24
  _audit_creation_method            'ToBaCCo'
  _symmetry_space_group_name_H-M    'P1'
  _symmetry_Int_Tables_number       1
  _symmetry_cell_setting            triclinic
  loop_
  _symmetry_equiv_pos_as_xyz
 x,y,z
_cell_length_a 29.1589
_cell_length_b 28.2378
_cell_length_c 32.6806
_cell_angle_alpha 90.471100
_cell_angle_beta 82.854600
_cell_angle_gamma 89.686100
loop_
  _atom_site_label
  _atom_site_type_symbol
  _atom_site_fract_x
  _atom_site_fract_y
  _atom_site_fract_z
C1 C 0.59175 0.66845 0.63304
 N2 N 0.60872 0.64319 0.66299
 C3 C 0.64871 0.61820 0.65471
 N4 N 0.67187 0.61856 0.61602
 C5 C 0.65438 0.64255 0.58549
 N6 N 0.61434 0.66764 0.59408
 C7 C 0.86621 0.30010 0.11293
 N8 N 0.88124 0.32131 0.14621
 C9 C 0.86679 0.36567 0.15799
 N10 N 0.83726 0.38912 0.13615
 C11 C 0.82176 0.36805 0.10300
 N12 N 0.83651 0.32367 0.09132
 C13 C 0.40348 0.17769 -0.13210
 N14 N 0.38676 0.15297 -0.16273
 C15 C 0.34848 0.12598 -0.15458
 N16 N 0.32665 0.12378 -0.11552
 C17 C 0.34382 0.14742 -0.08442
 N18 N 0.38226 0.17447 -0.09277
 C19 C 0.13503 0.80350 0.38576
 N20 N 0.16544 0.82672 0.40689
 C21 C 0.18178 0.86982 0.39415
 N22 N 0.16715 0.89001 0.36043
 C23 C 0.13669 0.86702 0.33915
 N24 N 0.12081 0.82382 0.35195
 N25 N 0.02617 0.11792 0.08682
 N26 N 0.00783 0.11080 0.12513
 C27 C -0.03248 0.13460 0.13248
 C28 C -0.04024 0.15639 0.09631
 C29 C -0.00266 0.14521 0.06784
 H30 H -0.05362 0.13719 0.16206
 H31 H 0.00509 0.15924 0.03707
 Cu32 Cu 0.03946 0.07253 0.16200
 Cu33 Cu 0.08965 0.09817 0.06768
 Cu34 Cu 0.15471 0.07690 0.14790
 N35 N 0.07632 0.03198 0.19287
 N36 N 0.12161 0.03588 0.18954
 C37 C 0.13842 0.00458 0.21496
 C38 C 0.10145 -0.02059 0.23416
 C39 C 0.06265 -0.00281 0.21941
 H40 H 0.17469 -0.00138 0.21721
 H41 H 0.02740 -0.01458 0.22694
 N42 N 0.18220 0.09644 0.09250
 N43 N 0.15772 0.10057 0.06123
 C44 C 0.18614 0.11156 0.02702
 C45 C 0.23034 0.11488 0.03766
 C46 C 0.22693 0.10532 0.07926
 H47 H 0.17517 0.11861 -0.00276
 H48 H 0.25472 0.10445 0.09830
 H49 H 0.10736 0.05248 0.11337
 H50 H 0.10265 0.11719 0.12503
 N51 N 0.42515 0.83993 0.60344
 N52 N 0.43648 0.86319 0.63575
 C53 C 0.46571 0.83669 0.65479
 C54 C 0.47388 0.79528 0.63255
 C55 C 0.44794 0.79806 0.60005
 H56 H 0.47958 0.84660 0.68282
 H57 H 0.44417 0.77100 0.57712
 Cu58 Cu 0.41167 0.92545 0.65102
 Cu59 Cu 0.37811 0.86421 0.57121
 Cu60 Cu 0.31956 0.96552 0.60980
 N61 N 0.37368 0.97652 0.67671
 N62 N 0.33582 0.99028 0.66198
 C63 C 0.31338 1.02241 0.68804
 C64 C 0.33943 1.02940 0.72002
 C65 C 0.37743 1.00001 0.71210
 H66 H 0.28080 1.03916 0.68408
 H67 H 0.40438 0.99441 0.73152
 N68 N 0.30858 0.93492 0.55753
 N69 N 0.32932 0.89508 0.54373
 C70 C 0.31275 0.88170 0.50870
 C71 C 0.28112 0.91545 0.50001
 C72 C 0.27927 0.94879 0.53112
 H73 H 0.32345 0.85048 0.49055
 H74 H 0.25758 0.98010 0.53463
 H75 H 0.38245 0.93551 0.58505
 H76 H 0.34383 0.89859 0.62195
 N77 N 0.97432 0.62294 0.41311
 N78 N 0.99264 0.61558 0.37469
 C79 C 1.03229 0.63993 0.36731
 C80 C 1.03964 0.66239 0.40353
 C81 C 1.00254 0.65099 0.43213
 H82 H 1.05333 0.64222 0.33772
 H83 H 0.99471 0.66513 0.46309
 Cu84 Cu 0.96205 0.57603 0.33776
 Cu85 Cu 0.91163 0.60196 0.43252
 Cu86 Cu 0.84677 0.57755 0.35261
 N87 N 0.92644 0.53420 0.30669
 N88 N 0.88101 0.53679 0.31051
 C89 C 0.86512 0.50492 0.28481
 C90 C 0.90289 0.48078 0.26483
 C91 C 0.94120 0.49980 0.27943
 H92 H 0.82903 0.49810 0.28265
 H93 H 0.97688 0.48922 0.27120
 N94 N 0.81897 0.59734 0.40820
 N95 N 0.84347 0.60267 0.43937
 C96 C 0.81478 0.61337 0.47377
 C97 C 0.77041 0.61528 0.46331
 C98 C 0.77399 0.60517 0.42167
 H99 H 0.82560 0.62112 0.50356
 H100 H 0.74613 0.60313 0.40277
 H101 H 0.89527 0.55501 0.38671
 H102 H 0.89751 0.61963 0.37538
 N103 N 0.57002 0.34785 -0.10049
 N104 N 0.55710 0.37276 -0.13101
 C105 C 0.52581 0.34822 -0.14931
 C106 C 0.51803 0.30633 -0.12847
 C107 C 0.54636 0.30679 -0.09759
 H108 H 0.51087 0.35943 -0.17635
 H109 H 0.55145 0.27848 -0.07649
 Cu110 Cu 0.58396 0.43355 -0.14642
 Cu111 Cu 0.62043 0.36867 -0.07051
 Cu112 Cu 0.68230 0.46550 -0.11126
 N113 N 0.62348 0.48148 -0.17384
 N114 N 0.66392 0.49129 -0.16202
 C115 C 0.68713 0.52039 -0.18972
 C116 C 0.65884 0.52985 -0.21956
 C117 C 0.61881 0.50480 -0.20882
 H118 H 0.72184 0.53313 -0.18849
 H119 H 0.58997 0.50128 -0.22645
 N120 N 0.69493 0.43431 -0.06012
 N121 N 0.67271 0.39613 -0.04543
 C122 C 0.69007 0.38238 -0.01101
 C123 C 0.72386 0.41420 -0.00365
 C124 C 0.72607 0.44679 -0.03489
 H125 H 0.67812 0.35259 0.00791
 H126 H 0.74878 0.47696 -0.03902
 H127 H 0.61903 0.44034 -0.08299
 H128 H 0.65254 0.40085 -0.12248
 N129 N -0.09585 0.19722 0.05892
 N130 N -0.12211 0.23591 0.06276
 C131 C -0.11613 0.25605 0.09932
 C132 C -0.08599 0.22816 0.11807
 N133 N -0.07422 0.19198 0.09189
 H134 H -0.07211 0.23469 0.14682
 N135 N 0.50380 0.74418 0.68239
 N136 N 0.53457 0.70977 0.68362
 C137 C 0.55170 0.69970 0.64425
 C138 C 0.53012 0.72884 0.61863
 N139 N 0.50057 0.75597 0.64376
 H140 H 0.53728 0.73219 0.58548
 N141 N 1.09459 0.70390 0.44128
 N142 N 1.12140 0.74181 0.43711
 C143 C 1.11616 0.76070 0.40014
 C144 C 1.08587 0.73286 0.38151
 N145 N 1.07329 0.69797 0.40816
 H146 H 1.07270 0.73846 0.35236
 N147 N 0.48629 0.25821 -0.17973
 N148 N 0.45645 0.22342 -0.18186
 C149 C 0.44164 0.21079 -0.14277
 C150 C 0.46368 0.23876 -0.11641
 N151 N 0.49116 0.26780 -0.14083
 H152 H 0.45836 0.23981 -0.08303
 N153 N 0.07463 -0.09725 0.26014
 N154 N 0.08384 -0.12879 0.28781
 C155 C 0.11933 -0.11148 0.30608
 C156 C 0.13202 -0.06845 0.28840
 N157 N 0.10318 -0.06098 0.26001
 H158 H 0.15851 -0.04439 0.29611
 N159 N 0.70989 0.54935 -0.28189
 N160 N 0.70775 0.57180 -0.31712
 C161 C 0.66549 0.59221 -0.31430
 C162 C 0.64176 0.58151 -0.27640
 N163 N 0.67059 0.55479 -0.25722
 H164 H 0.60643 0.59057 -0.26452
 N165 N 0.28532 1.06521 0.77471
 N166 N 0.28636 1.09012 0.80919
 C167 C 0.33124 1.09913 0.81203
 C168 C 0.35768 1.07892 0.77856
 N169 N 0.32780 1.05812 0.75608
 H170 H 0.39497 1.07866 0.77155
 N171 N 0.93490 0.40742 0.23367
 N172 N 0.92588 0.37548 0.20592
 C173 C 0.88645 0.38941 0.19183
 C174 C 0.87133 0.43085 0.21196
 N175 N 0.90256 0.44078 0.23775
 H176 H 0.84147 0.45228 0.20752
 N177 N 0.30917 0.14469 0.02409
 N178 N 0.34022 0.15460 -0.00785
 C179 C 0.32084 0.14349 -0.04205
 C180 C 0.27702 0.12662 -0.03020
 N181 N 0.27106 0.12797 0.01122
 H182 H 0.25204 0.11439 -0.04973
 N183 N 0.69061 0.64318 0.47724
 N184 N 0.65889 0.65171 0.50922
 C185 C 0.67833 0.64064 0.54329
 C186 C 0.72293 0.62522 0.53131
 N187 N 0.72921 0.62737 0.48994
 H188 H 0.74809 0.61312 0.55068
 N189 N 0.76474 0.45345 0.04746
 N190 N 0.79037 0.44243 0.07681
 C191 C 0.79254 0.39474 0.07781
 C192 C 0.76719 0.37675 0.04837
 N193 N 0.75046 0.41454 0.03023
 H194 H 0.76281 0.34005 0.03989
 N195 N 0.24212 0.95466 0.44784
 N196 N 0.21611 0.94370 0.41867
 C197 C 0.21207 0.89615 0.41869
 C198 C 0.23665 0.87816 0.44855
 N199 N 0.25484 0.91580 0.46591
 H200 H 0.23949 0.84166 0.45787
   
