data_POSCAR
  _audit_creation_date              2014-09-24
  _audit_creation_method            'ToBaCCo'
  _symmetry_space_group_name_H-M    'P1'
  _symmetry_Int_Tables_number       1
  _symmetry_cell_setting            triclinic
  loop_
  _symmetry_equiv_pos_as_xyz
 x,y,z
_cell_length_a 24.6122
_cell_length_b 24.1107
_cell_length_c 24.0804
_cell_angle_alpha 89.938100
_cell_angle_beta 90.000000
_cell_angle_gamma 89.999700
loop_
  _atom_site_label
  _atom_site_type_symbol
  _atom_site_fract_x
  _atom_site_fract_y
  _atom_site_fract_z
C1 C 0.33402 0.33257 0.22855
 H2 H 0.33646 0.33431 0.27337
 C3 C 0.36995 0.36377 0.19624
 H4 H 0.39898 0.39039 0.21690
 C5 C 0.29152 0.29718 0.14786
 H6 H 0.26102 0.27115 0.12899
 C7 C 0.32640 0.32786 0.11402
 H8 H 0.32047 0.32615 0.06958
 N9 N 0.29576 0.30011 0.20405
 C10 C 0.16451 0.27837 0.32388
 H11 H 0.16212 0.23357 0.32495
 C12 C 0.12891 0.31000 0.35593
 H13 H 0.10006 0.28884 0.38240
 C14 C 0.20728 0.35957 0.28998
 H15 H 0.23808 0.37876 0.26445
 C16 C 0.17250 0.39283 0.32138
 H17 H 0.17857 0.43722 0.32055
 Zn18 Zn 0.24978 0.25729 0.25048
 N19 N 0.20290 0.30343 0.29202
 C20 C 0.28869 0.21854 0.35469
 N21 N 0.29473 0.21565 0.29866
 C22 C 0.33378 0.18335 0.27538
 C23 C 0.36640 0.14960 0.30862
 C24 C 0.32032 0.18532 0.38949
 C25 C 0.16775 0.23144 0.17348
 C26 C 0.13519 0.19744 0.14039
 C27 C 0.17925 0.11745 0.18038
 C28 C 0.21094 0.15297 0.21270
 N29 N 0.20580 0.20889 0.20762
 H30 H 0.25922 0.24641 0.37264
 H31 H 0.33894 0.18322 0.23076
 H32 H 0.39719 0.12419 0.28908
 H33 H 0.31494 0.18929 0.43382
 H34 H 0.16302 0.27602 0.17172
 H35 H 0.10506 0.21644 0.11373
 H36 H 0.18372 0.07328 0.18644
 H37 H 0.23942 0.13560 0.24203
 C38 C 0.13152 0.36829 0.35402
 C39 C 0.36763 0.36058 0.13791
 C40 C 0.14213 0.13948 0.14172
 C41 C 0.35831 0.14823 0.36647
 C42 C 0.83475 0.83347 0.22790
 H43 H 0.83747 0.83505 0.27272
 C44 C 0.87051 0.86478 0.19549
 H45 H 0.89941 0.89134 0.21645
 C46 C 0.79144 0.79879 0.14747
 H47 H 0.76058 0.77313 0.12872
 C48 C 0.82605 0.82962 0.11345
 H49 H 0.81911 0.82829 0.06912
 N50 N 0.79629 0.80118 0.20360
 C51 C 0.66494 0.77884 0.32327
 H52 H 0.66249 0.73404 0.32399
 C53 C 0.62925 0.81029 0.35538
 H54 H 0.60024 0.78896 0.38155
 C55 C 0.70803 0.86022 0.29021
 H56 H 0.73900 0.87954 0.26501
 C57 C 0.67316 0.89329 0.32170
 H58 H 0.67931 0.93768 0.32127
 Zn59 Zn 0.75050 0.75814 0.25015
 N60 N 0.70352 0.80407 0.29178
 C61 C 0.78909 0.71910 0.35438
 N62 N 0.79549 0.71648 0.29837
 C63 C 0.83462 0.68418 0.27522
 C64 C 0.86692 0.65017 0.30854
 C65 C 0.82038 0.68563 0.38925
 C66 C 0.66833 0.73194 0.17331
 C67 C 0.63587 0.69776 0.14030
 C68 C 0.68034 0.61801 0.18031
 C69 C 0.71194 0.65371 0.21251
 N70 N 0.70657 0.70960 0.20736
 H71 H 0.75952 0.74691 0.37226
 H72 H 0.84004 0.68419 0.23064
 H73 H 0.89776 0.62474 0.28911
 H74 H 0.81470 0.68940 0.43356
 H75 H 0.66338 0.77650 0.17153
 H76 H 0.60563 0.71658 0.11365
 H77 H 0.68501 0.57388 0.18644
 H78 H 0.74052 0.63648 0.24181
 C79 C 0.63196 0.86858 0.35394
 C80 C 0.86824 0.86182 0.13689
 C81 C 0.64308 0.63983 0.14167
 C82 C 0.85844 0.64854 0.36633
 C83 C 0.83462 0.31583 0.72477
 H84 H 0.84004 0.31582 0.76936
 C85 C 0.86692 0.34984 0.69146
 H86 H 0.89776 0.37527 0.71089
 C87 C 0.78908 0.28091 0.64562
 H88 H 0.75951 0.25310 0.62774
 C89 C 0.82037 0.31438 0.61075
 H90 H 0.81469 0.31061 0.56644
 N91 N 0.79548 0.28353 0.70163
 C92 C 0.66833 0.26807 0.82669
 H93 H 0.66338 0.22351 0.82848
 C94 C 0.63587 0.30225 0.85971
 H95 H 0.60563 0.28343 0.88636
 C96 C 0.71194 0.34630 0.78750
 H97 H 0.74052 0.36353 0.75820
 C98 C 0.68035 0.38200 0.81971
 H99 H 0.68501 0.42613 0.81358
 Zn100 Zn 0.75050 0.24188 0.74986
 N101 N 0.70657 0.29041 0.79264
 C102 C 0.79145 0.20122 0.85254
 N103 N 0.79629 0.19883 0.79640
 C104 C 0.83475 0.16654 0.77209
 C105 C 0.87051 0.13523 0.80450
 C106 C 0.82605 0.17039 0.88655
 C107 C 0.66493 0.22117 0.67674
 C108 C 0.62924 0.18972 0.64463
 C109 C 0.67316 0.10672 0.67831
 C110 C 0.70802 0.13979 0.70980
 N111 N 0.70352 0.19594 0.70823
 H112 H 0.76058 0.22687 0.87128
 H113 H 0.83746 0.16496 0.72728
 H114 H 0.89941 0.10867 0.78355
 H115 H 0.81911 0.17171 0.93088
 H116 H 0.66248 0.26597 0.67602
 H117 H 0.60023 0.21105 0.61846
 H118 H 0.67931 0.06233 0.67873
 H119 H 0.73900 0.12047 0.73500
 C120 C 0.64308 0.36018 0.85834
 C121 C 0.85843 0.35147 0.63366
 C122 C 0.63195 0.13143 0.64608
 C123 C 0.86824 0.13819 0.86310
 C124 C 0.33377 0.81665 0.72462
 H125 H 0.33892 0.81679 0.76925
 C126 C 0.36640 0.85040 0.69139
 H127 H 0.39718 0.87582 0.71094
 C128 C 0.28871 0.78144 0.64531
 H129 H 0.25925 0.75357 0.62735
 C130 C 0.32034 0.81466 0.61051
 H131 H 0.31497 0.81069 0.56618
 N132 N 0.29474 0.78434 0.70134
 C133 C 0.16775 0.76854 0.82651
 H134 H 0.16302 0.72396 0.82828
 C135 C 0.13518 0.80255 0.85960
 H136 H 0.10506 0.78355 0.88627
 C137 C 0.21092 0.84702 0.78728
 H138 H 0.23939 0.86439 0.75794
 C139 C 0.17923 0.88254 0.81959
 H140 H 0.18369 0.92670 0.81353
 Zn141 Zn 0.24978 0.74270 0.74951
 N142 N 0.20579 0.79109 0.79237
 C143 C 0.29153 0.70283 0.85214
 N144 N 0.29576 0.69988 0.79595
 C145 C 0.33401 0.66742 0.77146
 C146 C 0.36994 0.63622 0.80377
 C147 C 0.32641 0.67215 0.88599
 C148 C 0.16452 0.72162 0.67609
 C149 C 0.12894 0.68998 0.64404
 C150 C 0.17250 0.60715 0.67863
 C151 C 0.20728 0.64042 0.71002
 N152 N 0.20291 0.69656 0.70797
 H153 H 0.26103 0.72887 0.87100
 H154 H 0.33645 0.66566 0.72663
 H155 H 0.39896 0.60959 0.78312
 H156 H 0.32047 0.67387 0.93043
 H157 H 0.16214 0.76642 0.67501
 H158 H 0.10009 0.71114 0.61756
 H159 H 0.17856 0.56277 0.67946
 H160 H 0.23806 0.62123 0.73557
 C161 C 0.14212 0.86051 0.85827
 C162 C 0.35832 0.85177 0.63354
 C163 C 0.13153 0.63169 0.64596
 C164 C 0.36763 0.63942 0.86209
 C165 C 0.00548 -0.00000 -0.00001
 C166 C -0.00705 0.50000 0.50000
 C167 C 0.49325 0.00000 0.50001
 C168 C 0.50741 0.50000 0.00001
 C169 C 0.10787 -0.10222 -0.10434
 C170 C 0.05117 -0.09216 -0.12792
 C171 C 0.01879 -0.05998 -0.09551
 C172 C 0.04475 -0.03923 -0.04022
 C173 C 0.06575 -0.09416 -0.01350
 C174 C 0.09821 -0.12587 -0.04616
 C175 C 0.13077 -0.04416 -0.09312
 C176 C 0.09848 -0.01182 -0.06087
 H177 H 0.03727 -0.10936 -0.16708
 H178 H -0.02218 -0.05176 -0.10894
 H179 H 0.05838 -0.10747 0.02849
 H180 H 0.11710 -0.16351 -0.03068
 H181 H 0.17040 -0.02981 -0.10652
 H182 H 0.11214 0.02934 -0.05078
 C183 C 0.09428 0.40323 0.39053
 C184 C 0.11709 0.40974 0.44908
 C185 C 0.08540 0.44008 0.48376
 C186 C 0.03178 0.46286 0.45805
 C187 C 0.05234 0.49323 0.40488
 C188 C 0.08384 0.46256 0.37029
 C189 C 0.03709 0.37948 0.39874
 C190 C 0.00521 0.40955 0.43356
 H191 H 0.15511 0.39128 0.46257
 H192 H 0.09818 0.44556 0.52618
 H193 H 0.04295 0.53530 0.39338
 H194 H 0.09756 0.47898 0.33077
 H195 H 0.02159 0.34339 0.37700
 H196 H -0.03613 0.39652 0.44021
 C197 C 0.59464 -0.09665 0.39051
 C198 C 0.61743 -0.09017 0.44907
 C199 C 0.58570 -0.05990 0.48378
 C200 C 0.53208 -0.03712 0.45807
 C201 C 0.55262 -0.00670 0.40492
 C202 C 0.58413 -0.03733 0.37032
 C203 C 0.53747 -0.12047 0.39871
 C204 C 0.50556 -0.09045 0.43355
 H205 H 0.65545 -0.10864 0.46256
 H206 H 0.59844 -0.05451 0.52622
 H207 H 0.54320 0.03536 0.39346
 H208 H 0.59788 -0.02086 0.33081
 H209 H 0.52198 -0.15654 0.37693
 H210 H 0.46423 -0.10353 0.44023
 C211 C 0.60901 0.39763 -0.10428
 C212 C 0.55223 0.40774 -0.12770
 C213 C 0.52003 0.44008 -0.09526
 C214 C 0.54628 0.46086 -0.04018
 C215 C 0.56719 0.40602 -0.01333
 C216 C 0.59949 0.37415 -0.04600
 C217 C 0.63205 0.45570 -0.09330
 C218 C 0.59990 0.48819 -0.06105
 H219 H 0.53819 0.39052 -0.16680
 H220 H 0.47906 0.44852 -0.10852
 H221 H 0.55990 0.39306 0.02880
 H222 H 0.61837 0.33652 -0.03047
 H223 H 0.67166 0.46996 -0.10684
 H224 H 0.61360 0.52938 -0.05111
 C225 C -0.09583 0.10476 -0.10233
 C226 C -0.11776 0.04944 -0.09362
 C227 C -0.08423 0.01459 -0.06007
 C228 C -0.03353 0.04040 -0.03977
 C229 C -0.00787 0.06101 -0.09136
 C230 C -0.04135 0.09618 -0.12488
 C231 C -0.08582 0.12686 -0.04681
 C232 C -0.05281 0.09188 -0.01290
 H233 H -0.15529 0.03459 -0.11219
 H234 H -0.09623 -0.02790 -0.05399
 H235 H 0.03390 0.05510 -0.10316
 H236 H -0.02478 0.11845 -0.16025
 H237 H -0.09660 0.16835 -0.03327
 H238 H -0.04258 0.10575 0.02822
 C239 C -0.10807 0.60935 0.40241
 C240 C -0.13136 0.59569 0.45991
 C241 C -0.09950 0.56164 0.49092
 C242 C -0.04584 0.54201 0.46274
 C243 C -0.06676 0.51798 0.40663
 C244 C -0.09880 0.55230 0.37622
 C245 C -0.05127 0.63196 0.41374
 C246 C -0.01933 0.59787 0.44461
 H247 H -0.17097 0.60864 0.47466
 H248 H -0.11344 0.54945 0.53150
 H249 H -0.05980 0.47653 0.39173
 H250 H -0.11773 0.53875 0.33785
 H251 H -0.03701 0.67175 0.39842
 H252 H 0.02165 0.61057 0.45371
 C253 C 0.39201 0.10919 0.40249
 C254 C 0.36880 0.09551 0.46001
 C255 C 0.40076 0.06157 0.49100
 C256 C 0.45442 0.04200 0.46278
 C257 C 0.43351 0.01793 0.40668
 C258 C 0.40136 0.05214 0.37631
 C259 C 0.44879 0.13192 0.41375
 C260 C 0.48083 0.09790 0.44461
 H261 H 0.32919 0.10842 0.47481
 H262 H 0.38690 0.04948 0.53163
 H263 H 0.44057 -0.02350 0.39176
 H264 H 0.38241 0.03851 0.33798
 H265 H 0.46295 0.17174 0.39841
 H266 H 0.52179 0.11067 0.45372
 C267 C 0.40547 0.60449 -0.10186
 C268 C 0.46255 0.59524 -0.12562
 C269 C 0.49475 0.56201 -0.09393
 C270 C 0.46851 0.54002 -0.03925
 C271 C 0.44804 0.59446 -0.01142
 C272 C 0.41632 0.62745 -0.04359
 C273 C 0.38286 0.54634 -0.09236
 C274 C 0.41485 0.51320 -0.06059
 H275 H 0.47773 0.61517 -0.16294
 H276 H 0.53606 0.55475 -0.10681
 H277 H 0.45776 0.60800 0.02998
 H278 H 0.40275 0.66769 -0.02906
 H279 H 0.34487 0.53186 -0.11013
 H280 H 0.40234 0.47101 -0.05333
 C281 C -0.09583 -0.10476 0.10232
 C282 C -0.11776 -0.04943 0.09362
 C283 C -0.08423 -0.01459 0.06007
 C284 C -0.03353 -0.04041 0.03976
 C285 C -0.00787 -0.06101 0.09135
 C286 C -0.04135 -0.09618 0.12487
 C287 C -0.08582 -0.12685 0.04680
 C288 C -0.05281 -0.09188 0.01290
 H289 H -0.15529 -0.03458 0.11219
 H290 H -0.09623 0.02790 0.05398
 H291 H 0.03390 -0.05511 0.10315
 H292 H -0.02478 -0.11845 0.16024
 H293 H -0.09661 -0.16835 0.03327
 H294 H -0.04259 -0.10575 -0.02822
 C295 C -0.10807 0.39065 0.59758
 C296 C -0.05127 0.36804 0.58625
 C297 C -0.01934 0.40212 0.55539
 C298 C -0.04585 0.45798 0.53725
 C299 C -0.09950 0.43836 0.50907
 C300 C -0.13137 0.40431 0.54008
 C301 C -0.09880 0.44770 0.62377
 C302 C -0.06676 0.48201 0.59337
 H303 H -0.03701 0.32825 0.60157
 H304 H 0.02165 0.38942 0.54628
 H305 H -0.11344 0.45055 0.46850
 H306 H -0.17098 0.39136 0.52533
 H307 H -0.11773 0.46126 0.66215
 H308 H -0.05979 0.52347 0.60827
 C309 C 0.39201 -0.10919 0.59752
 C310 C 0.36880 -0.09551 0.54001
 C311 C 0.40077 -0.06157 0.50901
 C312 C 0.45442 -0.04200 0.53723
 C313 C 0.43352 -0.01793 0.59333
 C314 C 0.40136 -0.05214 0.62370
 C315 C 0.44880 -0.13192 0.58626
 C316 C 0.48083 -0.09790 0.55540
 H317 H 0.32920 -0.10843 0.52520
 H318 H 0.38690 -0.04948 0.46838
 H319 H 0.44057 0.02350 0.60826
 H320 H 0.38241 -0.03851 0.66203
 H321 H 0.46296 -0.17174 0.60161
 H322 H 0.52180 -0.11066 0.54629
 C323 C 0.40547 0.39552 0.10187
 C324 C 0.46255 0.40477 0.12563
 C325 C 0.49475 0.43800 0.09395
 C326 C 0.46851 0.45998 0.03927
 C327 C 0.44805 0.40555 0.01143
 C328 C 0.41633 0.37255 0.04360
 C329 C 0.38286 0.45366 0.09237
 C330 C 0.41485 0.48681 0.06060
 H331 H 0.47774 0.38483 0.16295
 H332 H 0.53606 0.44526 0.10682
 H333 H 0.45777 0.39201 -0.02997
 H334 H 0.40275 0.33231 0.02907
 H335 H 0.34487 0.46814 0.11014
 H336 H 0.40234 0.52899 0.05334
 C337 C 0.10788 0.10220 0.10433
 C338 C 0.13077 0.04414 0.09311
 C339 C 0.09848 0.01181 0.06086
 C340 C 0.04476 0.03922 0.04021
 C341 C 0.01879 0.05998 0.09550
 C342 C 0.05118 0.09215 0.12791
 C343 C 0.09822 0.12586 0.04615
 C344 C 0.06576 0.09415 0.01349
 H345 H 0.17041 0.02980 0.10650
 H346 H 0.11214 -0.02935 0.05076
 H347 H -0.02217 0.05176 0.10893
 H348 H 0.03728 0.10935 0.16707
 H349 H 0.11711 0.16350 0.03067
 H350 H 0.05839 0.10746 -0.02850
 C351 C 0.09429 0.59675 0.60946
 C352 C 0.08384 0.53743 0.62969
 C353 C 0.05235 0.50675 0.59511
 C354 C 0.03178 0.53712 0.54193
 C355 C 0.00522 0.59044 0.56643
 C356 C 0.03710 0.62051 0.60125
 C357 C 0.11710 0.59025 0.55091
 C358 C 0.08540 0.55990 0.51622
 H359 H 0.09756 0.52100 0.66922
 H360 H 0.04295 0.46469 0.60661
 H361 H -0.03613 0.60347 0.55979
 H362 H 0.02161 0.65660 0.62299
 H363 H 0.15512 0.60870 0.53741
 H364 H 0.09818 0.55442 0.47381
 C365 C 0.59463 0.09665 0.60950
 C366 C 0.58413 0.03733 0.62969
 C367 C 0.55262 0.00671 0.59509
 C368 C 0.53207 0.03713 0.54194
 C369 C 0.50556 0.09045 0.56646
 C370 C 0.53746 0.12048 0.60130
 C371 C 0.61743 0.09018 0.55094
 C372 C 0.58570 0.05990 0.51623
 H373 H 0.59787 0.02087 0.66920
 H374 H 0.54320 -0.03536 0.60656
 H375 H 0.46422 0.10353 0.55979
 H376 H 0.52197 0.15654 0.62308
 H377 H 0.65545 0.10865 0.53745
 H378 H 0.59843 0.05452 0.47379
 C379 C 0.60901 0.60238 0.10430
 C380 C 0.63205 0.54431 0.09331
 C381 C 0.59990 0.51182 0.06107
 C382 C 0.54628 0.53914 0.04019
 C383 C 0.52003 0.55993 0.09527
 C384 C 0.55223 0.59227 0.12772
 C385 C 0.59949 0.62586 0.04601
 C386 C 0.56719 0.59399 0.01334
 H387 H 0.67166 0.53006 0.10685
 H388 H 0.61360 0.47063 0.05112
 H389 H 0.47906 0.55148 0.10853
 H390 H 0.53818 0.60949 0.16681
 H391 H 0.61837 0.66349 0.03048
 H392 H 0.55990 0.60695 -0.02879
   
