data_POSCAR
  _audit_creation_date              2014-09-24
  _audit_creation_method            'ToBaCCo'
  _symmetry_space_group_name_H-M    'P1'
  _symmetry_Int_Tables_number       1
  _symmetry_cell_setting            triclinic
  loop_
  _symmetry_equiv_pos_as_xyz
 x,y,z
_cell_length_a 26.1792
_cell_length_b 26.1908
_cell_length_c 26.1094
_cell_angle_alpha 90.146700
_cell_angle_beta 90.147700
_cell_angle_gamma 89.975800
loop_
  _atom_site_label
  _atom_site_type_symbol
  _atom_site_fract_x
  _atom_site_fract_y
  _atom_site_fract_z
O1 O 0.57196 0.12853 0.01066
 O2 O 0.62871 0.06210 0.00476
 C3 C 0.61803 0.11024 0.00940
 O4 O 0.42960 -0.00590 0.13033
 O5 O 0.37265 -0.00293 0.06355
 C6 C 0.38345 -0.00534 0.11200
 O7 O 0.57220 0.00144 0.13011
 O8 O 0.62893 -0.00153 0.06366
 C9 C 0.61852 0.00062 0.11229
 O10 O 0.42934 0.12886 0.00305
 O11 O 0.37260 0.06220 0.00181
 C12 C 0.38327 0.11057 0.00190
 Zr13 Zr 0.50064 0.09105 0.00482
 O14 O 0.49461 0.14653 0.06364
 O15 O 0.50663 0.14939 -0.05087
 Zr16 Zr 0.50084 -0.00286 0.09252
 O17 O 0.49512 0.05047 0.15327
 O18 O 0.50711 -0.06319 0.14605
 O19 O 0.54648 0.05102 0.05611
 O20 O 0.45617 0.05053 0.05552
 O21 O 0.42884 0.00974 -0.12712
 O22 O 0.37228 0.00331 -0.06052
 C23 C 0.38280 0.00829 -0.10876
 O24 O 0.57245 -0.12793 -0.00684
 O25 O 0.62910 -0.06137 -0.00089
 C26 C 0.61855 -0.10958 -0.00531
 O27 O 0.42972 -0.12859 0.00242
 O28 O 0.37267 -0.06212 0.00112
 C29 C 0.38356 -0.11045 0.00274
 O30 O 0.57140 0.00208 -0.12773
 O31 O 0.62846 0.00068 -0.06096
 C32 C 0.61756 0.00116 -0.10949
 Zr33 Zr 0.50029 0.00296 -0.08969
 O34 O 0.49398 -0.05392 -0.14717
 O35 O 0.50580 0.06018 -0.14648
 Zr36 Zr 0.50081 -0.09069 -0.00194
 O37 O 0.49421 -0.14459 -0.06220
 O38 O 0.50728 -0.15069 0.05182
 Zr39 Zr 0.57728 0.00024 0.00142
 Zr40 Zr 0.42396 0.00009 0.00146
 O41 O 0.45569 -0.05035 -0.05267
 O42 O 0.54642 -0.05067 -0.05324
 O43 O 0.45483 0.05443 -0.04932
 O44 O 0.54540 -0.05361 0.05182
 O45 O 0.54498 0.05400 -0.04894
 O46 O 0.45515 -0.05418 0.05230
 H47 H 0.43340 0.07127 0.07757
 H48 H 0.56847 -0.07545 0.07246
 H49 H 0.43224 -0.07074 -0.07444
 H50 H 0.56790 0.07606 -0.06937
 H51 H 0.47585 -0.08424 0.14323
 H52 H 0.48242 -0.14376 0.07942
 H53 H 0.52384 -0.13988 -0.08514
 H54 H 0.52477 -0.07573 -0.14509
 H55 H 0.48108 0.08729 -0.13749
 H56 H 0.47679 0.14645 -0.07399
 H57 H 0.52284 0.14055 0.08814
 H58 H 0.52058 0.07759 0.14694
 O59 O -0.00468 0.57112 -0.13009
 O60 O -0.00150 0.62777 -0.06309
 C61 C -0.00386 0.61717 -0.11160
 O62 O -0.12832 0.42926 0.00487
 O63 O -0.06214 0.37197 0.00145
 C64 C -0.11040 0.38304 0.00422
 O65 O -0.12751 0.57167 -0.00012
 O66 O -0.06056 0.62815 0.00054
 C67 C -0.10905 0.61769 0.00004
 O68 O 0.00221 0.42865 -0.13045
 O69 O -0.00178 0.37161 -0.06436
 C70 C 0.00087 0.38225 -0.11291
 Zr71 Zr -0.00232 0.49978 -0.09251
 O72 O -0.06316 0.49409 -0.14588
 O73 O 0.05045 0.50528 -0.15350
 Zr74 Zr -0.09012 0.50017 0.00108
 O75 O -0.14847 0.49526 -0.05503
 O76 O -0.14544 0.50580 0.05984
 O77 O -0.05331 0.54596 -0.05252
 O78 O -0.05327 0.45529 -0.05242
 O79 O 0.12867 0.42747 -0.00987
 O80 O 0.06188 0.37106 -0.00510
 C81 C 0.11014 0.38150 -0.00904
 O82 O 0.00987 0.57072 0.12740
 O83 O 0.00370 0.62763 0.06101
 C84 C 0.00845 0.61684 0.10927
 O85 O 0.00157 0.42811 0.12742
 O86 O 0.00035 0.37137 0.06040
 C87 C 0.00048 0.38202 0.10900
 O88 O 0.13000 0.57002 -0.00251
 O89 O 0.06365 0.62718 -0.00126
 C90 C 0.11199 0.61620 -0.00157
 Zr91 Zr 0.09167 0.49897 -0.00381
 O92 O 0.14899 0.49258 0.05323
 O93 O 0.14825 0.50442 -0.06132
 Zr94 Zr 0.00353 0.49939 0.08969
 O95 O 0.06148 0.49313 0.14601
 O96 O -0.05259 0.50569 0.14766
 Zr97 Zr 0.00123 0.57621 -0.00119
 Zr98 Zr 0.00030 0.42288 -0.00177
 O99 O 0.05420 0.45445 0.04919
 O100 O 0.05524 0.54494 0.05003
 O101 O 0.05141 0.45377 -0.05583
 O102 O -0.04943 0.54434 0.05246
 O103 O 0.05152 0.54372 -0.05495
 O104 O -0.05050 0.45405 0.05257
 H105 H -0.07513 0.43235 -0.07328
 H106 H -0.06981 0.56730 0.07466
 H107 H 0.07599 0.43121 0.06968
 H108 H 0.07244 0.56629 -0.07691
 H109 H -0.13919 0.47754 0.08411
 H110 H -0.07573 0.47602 0.14431
 H111 H 0.08747 0.51942 0.13848
 H112 H 0.14720 0.52344 0.07507
 H113 H 0.14118 0.47751 -0.08700
 H114 H 0.07860 0.48120 -0.14613
 H115 H -0.08380 0.52561 -0.14312
 H116 H -0.14390 0.52417 -0.07888
 O117 O 0.12725 -0.00469 0.42819
 O118 O 0.06055 -0.00148 0.37103
 C119 C 0.10886 -0.00465 0.38191
 O120 O -0.00500 -0.12755 0.57218
 O121 O -0.00135 -0.06049 0.62865
 C122 C -0.00462 -0.10883 0.61822
 O123 O 0.00309 -0.12916 0.42955
 O124 O 0.00141 -0.06306 0.37221
 C125 C 0.00313 -0.11131 0.38323
 O126 O 0.12820 0.00495 0.57131
 O127 O 0.06168 0.00377 0.62828
 C128 C 0.11008 0.00528 0.61755
 Zr129 Zr 0.09031 0.00143 0.49991
 O130 O 0.14951 -0.05324 0.50620
 O131 O 0.14520 0.06040 0.49332
 Zr132 Zr 0.00047 -0.09063 0.50067
 O133 O 0.05989 -0.14514 0.50764
 O134 O -0.05407 -0.15002 0.49496
 O135 O 0.05253 -0.05221 0.45459
 O136 O 0.05214 -0.05078 0.54513
 O137 O -0.00115 0.12922 0.57112
 O138 O -0.00029 0.06291 0.62848
 C139 C -0.00066 0.11119 0.61746
 O140 O -0.12899 -0.00071 0.42744
 O141 O -0.06205 -0.00053 0.37081
 C142 C -0.11045 -0.00070 0.38134
 O143 O -0.12917 -0.00536 0.57107
 O144 O -0.06255 -0.00047 0.62811
 C145 C -0.11082 -0.00412 0.61733
 O146 O -0.00805 0.12818 0.42774
 O147 O -0.00307 0.06119 0.37124
 C148 C -0.00699 0.10953 0.38162
 Zr149 Zr -0.00164 0.09125 0.49935
 O150 O -0.05673 0.15016 0.50408
 O151 O 0.05713 0.14646 0.49337
 Zr152 Zr -0.09176 -0.00063 0.49953
 O153 O -0.14779 0.05755 0.50451
 O154 O -0.14990 -0.05655 0.49424
 Zr155 Zr -0.00072 -0.00044 0.42324
 Zr156 Zr -0.00061 0.00111 0.57663
 O157 O -0.05352 0.05223 0.54402
 O158 O -0.05400 0.05191 0.45359
 O159 O 0.05145 0.05403 0.54557
 O160 O -0.05221 -0.05289 0.45565
 O161 O 0.05088 0.05268 0.45471
 O162 O -0.05271 -0.05233 0.54582
 H163 H 0.07336 -0.07166 0.56857
 H164 H -0.07323 -0.07489 0.43300
 H165 H -0.07531 0.07322 0.56682
 H166 H 0.07160 0.07366 0.43103
 H167 H -0.08132 -0.14264 0.52006
 H168 H -0.14274 -0.08265 0.52060
 H169 H -0.14657 0.07749 0.47241
 H170 H -0.08591 0.13975 0.48235
 H171 H 0.07737 0.14536 0.52540
 H172 H 0.14088 0.08346 0.52306
 H173 H 0.14176 -0.08099 0.48166
 H174 H 0.08099 -0.14326 0.47632
 C175 C -0.26076 0.22102 0.01389
 C176 C -0.30903 0.23212 0.03463
 C177 C -0.34790 0.19579 0.03380
 C178 C -0.33936 0.14710 0.01295
 C179 C -0.29052 0.13496 -0.00575
 C180 C -0.25161 0.17168 -0.00550
 C181 C -0.22132 0.26174 0.01073
 C182 C -0.16921 0.25117 0.01882
 C183 C -0.13282 0.29032 0.01630
 C184 C -0.14793 0.34081 0.00601
 C185 C -0.19991 0.35107 -0.00264
 C186 C -0.23599 0.31208 -0.00061
 H187 H -0.38486 0.20600 0.04934
 H188 H -0.28288 0.09768 -0.02210
 H189 H -0.09303 0.28120 0.02308
 H190 H -0.21287 0.38934 -0.01143
 H191 H -0.21499 0.16198 -0.02205
 H192 H -0.15667 0.21285 0.02794
 H193 H -0.31700 0.26920 0.05120
 H194 H -0.27553 0.32143 -0.00847
 C195 C 0.26272 0.77806 0.00447
 C196 C 0.25237 0.82871 -0.01016
 C197 C 0.29123 0.86553 -0.00973
 C198 C 0.34120 0.85222 0.00495
 C199 C 0.35103 0.80200 0.02093
 C200 C 0.31230 0.76555 0.02099
 C201 C 0.22292 0.73763 0.00129
 C202 C 0.23635 0.68815 -0.01471
 C203 C 0.20021 0.64913 -0.01578
 C204 C 0.14940 0.65857 -0.00149
 C205 C 0.13535 0.70832 0.01321
 C206 C 0.17183 0.74748 0.01474
 H207 H 0.28250 0.90398 -0.02218
 H208 H 0.38888 0.79070 0.03337
 H209 H 0.21217 0.61146 -0.02808
 H210 H 0.09646 0.71673 0.02454
 H211 H 0.32132 0.72734 0.03392
 H212 H 0.27497 0.67948 -0.02667
 H213 H 0.21465 0.83954 -0.02333
 H214 H 0.16031 0.78509 0.02755
 C215 C 0.26145 0.22078 -0.00529
 C216 C 0.25175 0.16915 -0.01665
 C217 C 0.29101 0.13289 -0.01355
 C218 C 0.34068 0.14771 0.00078
 C219 C 0.34993 0.19911 0.01311
 C220 C 0.31082 0.23506 0.01036
 C221 C 0.22092 0.26023 -0.01000
 C222 C 0.23314 0.30887 -0.02895
 C223 C 0.19675 0.34769 -0.02961
 C224 C 0.14697 0.33878 -0.01188
 C225 C 0.13385 0.28955 0.00494
 C226 C 0.17057 0.25063 0.00603
 H227 H 0.28276 0.09356 -0.02343
 H228 H 0.38754 0.21172 0.02498
 H229 H 0.20785 0.38495 -0.04362
 H230 H 0.09575 0.28158 0.01887
 H231 H 0.31930 0.27422 0.02071
 H232 H 0.27115 0.31715 -0.04291
 H233 H 0.21417 0.15701 -0.02907
 H234 H 0.16003 0.21362 0.02103
 C235 C -0.25969 0.77982 -0.00732
 C236 C -0.25030 0.82998 0.00967
 C237 C -0.28942 0.86656 0.00917
 C238 C -0.33870 0.85351 -0.00799
 C239 C -0.34748 0.80389 -0.02646
 C240 C -0.30846 0.76767 -0.02644
 C241 C -0.21987 0.73940 -0.00361
 C242 C -0.23386 0.68955 0.01030
 C243 C -0.19771 0.65056 0.01187
 C244 C -0.14629 0.66031 0.00014
 C245 C -0.13169 0.71045 -0.01226
 C246 C -0.16820 0.74963 -0.01427
 H247 H -0.28150 0.90454 0.02366
 H248 H -0.38475 0.79284 -0.04078
 H249 H -0.21021 0.61260 0.02240
 H250 H -0.09235 0.71917 -0.02144
 H251 H -0.31667 0.72987 -0.04117
 H252 H -0.27298 0.68056 0.02018
 H253 H -0.21325 0.84052 0.02487
 H254 H -0.15620 0.78758 -0.02531
 C255 C 0.01237 -0.26201 0.22078
 C256 C 0.03141 -0.31080 0.23249
 C257 C 0.03084 -0.34966 0.19595
 C258 C 0.01183 -0.34062 0.14647
 C259 C -0.00521 -0.29131 0.13383
 C260 C -0.00512 -0.25238 0.17073
 C261 C 0.00906 -0.22242 0.26154
 C262 C 0.01958 -0.17075 0.25136
 C263 C 0.01720 -0.13426 0.29065
 C264 C 0.00450 -0.14886 0.34082
 C265 C -0.00667 -0.20035 0.35064
 C266 C -0.00469 -0.23653 0.31152
 H267 H 0.04508 -0.38699 0.20663
 H268 H -0.02009 -0.28323 0.09596
 H269 H 0.02615 -0.09485 0.28195
 H270 H -0.01731 -0.21283 0.38866
 H271 H -0.02030 -0.21530 0.16056
 H272 H 0.03060 -0.15871 0.21333
 H273 H 0.04648 -0.31915 0.27021
 H274 H -0.01437 -0.27570 0.32045
 C275 C 0.00108 0.26371 0.77850
 C276 C 0.00791 0.31474 0.76374
 C277 C 0.00781 0.35392 0.79985
 C278 C 0.00196 0.34351 0.85256
 C279 C -0.00300 0.29195 0.86759
 C280 C -0.00381 0.25267 0.83097
 C281 C -0.00151 0.22288 0.73870
 C282 C 0.01935 0.17405 0.74719
 C283 C 0.01879 0.13709 0.70824
 C284 C -0.00188 0.14857 0.65991
 C285 C -0.02367 0.19683 0.65185
 C286 C -0.02402 0.23324 0.69084
 H287 H 0.01270 0.39255 0.78591
 H288 H -0.00746 0.28172 0.90752
 H289 H 0.03575 0.10009 0.71545
 H290 H -0.04084 0.20642 0.61533
 H291 H -0.00941 0.21379 0.84373
 H292 H 0.03729 0.16479 0.78339
 H293 H 0.01357 0.32470 0.72394
 H294 H -0.04200 0.26968 0.68331
 C295 C -0.00497 0.26039 0.21988
 C296 C -0.01534 0.25022 0.16792
 C297 C -0.01285 0.28939 0.13146
 C298 C -0.00023 0.33949 0.14635
 C299 C 0.01111 0.34921 0.19808
 C300 C 0.00905 0.31022 0.23421
 C301 C -0.00901 0.21992 0.25962
 C302 C -0.02805 0.23210 0.30844
 C303 C -0.02818 0.19590 0.34749
 C304 C -0.00992 0.14624 0.33867
 C305 C 0.00702 0.13311 0.28929
 C306 C 0.00766 0.16968 0.25015
 H307 H -0.02171 0.28065 0.09187
 H308 H 0.02174 0.38713 0.21085
 H309 H -0.04235 0.20703 0.38483
 H310 H 0.02130 0.09510 0.28134
 H311 H 0.01872 0.31919 0.27356
 H312 H -0.04258 0.26993 0.31671
 H313 H -0.02647 0.21230 0.15563
 H314 H 0.02277 0.15909 0.21306
 C315 C -0.00737 -0.26048 0.77859
 C316 C 0.00412 -0.31074 0.76358
 C317 C 0.00515 -0.35008 0.79932
 C318 C -0.00467 -0.34025 0.85127
 C319 C -0.01499 -0.28982 0.86677
 C320 C -0.01647 -0.25028 0.83070
 C321 C -0.01003 -0.21955 0.73935
 C322 C 0.00953 -0.17039 0.74897
 C323 C 0.01018 -0.13357 0.71009
 C324 C -0.00827 -0.14554 0.66091
 C325 C -0.02936 -0.19402 0.65198
 C326 C -0.03058 -0.23037 0.69075
 H327 H 0.01405 -0.38829 0.78612
 H328 H -0.02264 -0.28105 0.90657
 H329 H 0.02661 -0.09642 0.71800
 H330 H -0.04484 -0.20403 0.61477
 H331 H -0.02569 -0.21201 0.84343
 H332 H 0.02584 -0.16093 0.78593
 H333 H 0.01272 -0.31975 0.72404
 H334 H -0.04731 -0.26729 0.68246
 C335 C 0.26095 0.01371 0.78041
 C336 C 0.25203 -0.00598 0.82968
 C337 C 0.29114 -0.00651 0.86643
 C338 C 0.34000 0.01214 0.85437
 C339 C 0.34832 0.03330 0.80578
 C340 C 0.30923 0.03445 0.76945
 C341 C 0.22130 0.01078 0.73954
 C342 C 0.23582 0.00002 0.68888
 C343 C 0.19963 -0.00171 0.64974
 C344 C 0.14764 0.00664 0.66010
 C345 C 0.13265 0.01619 0.71092
 C346 C 0.16918 0.01844 0.75026
 H347 H 0.28363 -0.02303 0.90364
 H348 H 0.38527 0.04884 0.79564
 H349 H 0.21257 -0.00998 0.61124
 H350 H 0.09287 0.02252 0.72019
 H351 H 0.31705 0.05128 0.73246
 H352 H 0.27533 -0.00758 0.67937
 H353 H 0.21542 -0.02252 0.83931
 H354 H 0.15672 0.02701 0.78884
 C355 C -0.26238 0.00077 0.22013
 C356 C -0.25151 -0.00344 0.16757
 C357 C -0.29100 -0.00264 0.13118
 C358 C -0.34255 0.00172 0.14658
 C359 C -0.35276 0.00698 0.19942
 C360 C -0.31339 0.00703 0.23530
 C361 C -0.22142 -0.00203 0.25970
 C362 C -0.23135 -0.02582 0.30686
 C363 C -0.19507 -0.02543 0.34593
 C364 C -0.14738 -0.00226 0.33860
 C365 C -0.13619 0.01965 0.29086
 C366 C -0.17306 0.02009 0.25181
 H367 H -0.28095 -0.00660 0.09113
 H368 H -0.39136 0.01140 0.21364
 H369 H -0.20432 -0.04353 0.38200
 H370 H -0.09960 0.03777 0.28433
 H371 H -0.32316 0.01212 0.27526
 H372 H -0.26743 -0.04473 0.31381
 H373 H -0.21260 -0.00851 0.15457
 H374 H -0.16422 0.03899 0.21610
 C375 C 0.26121 -0.00879 0.22200
 C376 C 0.25120 -0.01930 0.17006
 C377 C 0.29072 -0.01795 0.13395
 C378 C 0.34095 -0.00633 0.14924
 C379 C 0.35064 0.00474 0.20100
 C380 C 0.31130 0.00384 0.23678
 C381 C 0.22024 -0.01108 0.26126
 C382 C 0.23134 -0.03004 0.31034
 C383 C 0.19482 -0.02846 0.34900
 C384 C 0.14592 -0.00860 0.33948
 C385 C 0.13376 0.00827 0.28985
 C386 C 0.17071 0.00727 0.25110
 H387 H 0.28210 -0.02671 0.09430
 H388 H 0.38870 0.01464 0.21398
 H389 H 0.20506 -0.04273 0.38656
 H390 H 0.09628 0.02368 0.28143
 H391 H 0.32017 0.01352 0.27615
 H392 H 0.26857 -0.04584 0.31910
 H393 H 0.21309 -0.02947 0.15750
 H394 H 0.16101 0.02235 0.21375
 C395 C -0.26144 -0.00239 0.77913
 C396 C -0.25116 -0.01459 0.83060
 C397 C -0.29015 -0.01273 0.86728
 C398 C -0.34010 0.00113 0.85305
 C399 C -0.34991 0.01432 0.80185
 C400 C -0.31110 0.01285 0.76550
 C401 C -0.22126 -0.00593 0.73914
 C402 C -0.23384 -0.02390 0.68993
 C403 C -0.19770 -0.02393 0.65085
 C404 C -0.14777 -0.00656 0.66002
 C405 C -0.13437 0.00957 0.70969
 C406 C -0.17085 0.01003 0.74887
 H407 H -0.28144 -0.02318 0.90646
 H408 H -0.38774 0.02595 0.78969
 H409 H -0.20904 -0.03742 0.61326
 H410 H -0.09616 0.02320 0.71789
 H411 H -0.32005 0.02385 0.72656
 H412 H -0.27190 -0.03778 0.68146
 H413 H -0.21335 -0.02671 0.84226
 H414 H -0.16002 0.02434 0.78629
   
