data_POSCAR
  _audit_creation_date              2014-09-24
  _audit_creation_method            'ToBaCCo'
  _symmetry_space_group_name_H-M    'P1'
  _symmetry_Int_Tables_number       1
  _symmetry_cell_setting            triclinic
  loop_
  _symmetry_equiv_pos_as_xyz
 x,y,z
_cell_length_a 24.4470
_cell_length_b 25.8842
_cell_length_c 24.7526
_cell_angle_alpha 90.068600
_cell_angle_beta 90.230700
_cell_angle_gamma 90.304400
loop_
  _atom_site_label
  _atom_site_type_symbol
  _atom_site_fract_x
  _atom_site_fract_y
  _atom_site_fract_z
C1 C 0.33887 0.93228 -0.47520
 C2 C 0.33969 0.93645 -0.53016
 C3 C 0.38887 0.91553 -0.54721
 N4 N 0.41825 0.89884 -0.50442
 C5 C 0.38760 0.90909 -0.46034
 C6 C 0.40449 0.91038 -0.60189
 C7 C 0.45950 0.90264 -0.61794
 C8 C 0.47552 0.88711 -0.66908
 C9 C 0.53167 0.88395 -0.66821
 C10 C 0.54872 0.89797 -0.61662
 N11 N 0.50436 0.90939 -0.58627
 C12 C 0.60422 0.90050 -0.59920
 C13 C 0.61925 0.90321 -0.54378
 C14 C 0.67041 0.91837 -0.52478
 C15 C 0.66915 0.91415 -0.46981
 C16 C 0.61691 0.89769 -0.45654
 N17 N 0.58647 0.89060 -0.50185
 C18 C 0.59912 0.88768 -0.40329
 C19 C 0.54407 0.87806 -0.38971
 C20 C 0.52598 0.86041 -0.33993
 C21 C 0.46974 0.86275 -0.34100
 C22 C 0.45526 0.88213 -0.39121
 N23 N 0.50073 0.89112 -0.42060
 C24 C 0.40183 0.89600 -0.40683
 H25 H 0.30623 0.94527 -0.44918
 H26 H 0.30784 0.95342 -0.55481
 H27 H 0.50252 0.91202 -0.45631
 H28 H 0.44939 0.87819 -0.70328
 H29 H 0.55700 0.87201 -0.70168
 H30 H 0.70511 0.93176 -0.54798
 H31 H 0.70294 0.92266 -0.44282
 H32 H 0.44271 0.85297 -0.30799
 H33 H 0.50493 0.92521 -0.54765
 H34 H 0.55065 0.84856 -0.30579
 C35 C -0.46280 1.36182 0.03291
 C36 C -0.51847 1.36166 0.03652
 C37 C -0.53442 1.41279 0.04213
 N38 N -0.49017 1.44428 0.04066
 C39 C -0.44641 1.41311 0.03455
 C40 C -0.58901 1.42944 0.04950
 C41 C -0.60443 1.48194 0.04372
 C42 C -0.65310 1.50257 0.06234
 C43 C -0.65353 1.55363 0.04728
 C44 C -0.60508 1.56303 0.01990
 N45 N -0.57524 1.51916 0.01807
 C46 C -0.59158 1.61044 -0.00550
 C47 C -0.53768 1.62386 -0.02115
 C48 C -0.52366 1.66718 -0.05106
 C49 C -0.46768 1.66748 -0.05511
 C50 C -0.44921 1.62420 -0.02777
 N51 N -0.49208 1.59769 -0.00686
 C52 C -0.39351 1.61010 -0.02216
 C53 C -0.37683 1.56235 0.00034
 C54 C -0.32435 1.55209 0.01906
 C55 C -0.32377 1.50145 0.03496
 C56 C -0.37613 1.48218 0.02655
 N57 N -0.40822 1.51948 0.00526
 C58 C -0.39157 1.43009 0.03370
 H59 H -0.43766 1.32777 0.02922
 H60 H -0.54409 1.32749 0.03478
 H61 H -0.44714 1.51419 -0.01089
 H62 H -0.68502 1.48284 0.08454
 H63 H -0.68602 1.58075 0.05547
 H64 H -0.55086 1.69560 -0.06838
 H65 H -0.44335 1.69600 -0.07626
 H66 H -0.28837 1.48124 0.05027
 H67 H -0.54013 1.51355 -0.00469
 H68 H -0.28972 1.57827 0.02078
 C69 C 0.02512 0.37409 0.51831
 C70 C 0.02495 0.37630 0.46283
 C71 C -0.00319 0.42067 0.44844
 N72 N -0.02011 0.44560 0.49362
 C73 C -0.00288 0.41715 0.53644
 C74 C -0.01193 0.43817 0.39447
 C75 C -0.03035 0.48916 0.38343
 C76 C -0.05550 0.50453 0.33565
 C77 C -0.06258 0.55705 0.33875
 C78 C -0.04244 0.57243 0.38861
 N79 N -0.02316 0.53083 0.41585
 C80 C -0.03950 0.62433 0.40621
 C81 C -0.03110 0.63844 0.46054
 C82 C -0.02242 0.68846 0.47869
 C83 C -0.02229 0.68627 0.53398
 C84 C -0.03033 0.63478 0.54778
 N85 N -0.03615 0.60585 0.50267
 C86 C -0.03933 0.61587 0.60061
 C87 C -0.04546 0.56231 0.61134
 C88 C -0.06480 0.54145 0.65932
 C89 C -0.05751 0.48908 0.65619
 C90 C -0.03262 0.47910 0.60701
 N91 N -0.02626 0.52376 0.57950
 C92 C -0.01114 0.43046 0.59163
 H93 H 0.04507 0.34484 0.54244
 H94 H 0.04492 0.34911 0.43629
 H95 H -0.00265 0.52810 0.54491
 H96 H -0.06718 0.48040 0.30174
 H97 H -0.08037 0.58123 0.30773
 H98 H -0.01820 0.72316 0.45468
 H99 H -0.01876 0.71930 0.56057
 H100 H -0.06746 0.46156 0.68759
 H101 H -0.00065 0.53161 0.45162
 H102 H -0.08075 0.56150 0.69412
 O103 O -0.13004 1.01062 -0.08310
 O104 O 0.14985 1.03402 -0.07088
 O105 O 0.00195 1.08918 -0.14459
 O106 O 0.02082 0.95145 -0.14216
 O107 O 0.02219 0.88907 -0.07560
 O108 O -0.00716 1.15385 -0.08083
 O109 O 0.08660 1.02404 -0.13957
 O110 O -0.06131 1.01565 -0.14656
 Zr111 Zr 0.01057 1.02139 -0.09931
 O112 O 0.06258 0.98040 -0.05050
 O113 O -0.04458 1.06485 -0.05614
 C114 C -0.11212 1.01201 -0.13222
 C115 C 0.13623 1.02813 -0.12113
 C116 C -0.00609 1.13672 -0.13046
 C117 C 0.02428 0.90410 -0.12543
 H118 H 0.07470 1.09740 -0.07518
 O119 O 0.05291 1.07385 -0.05221
 H120 H -0.05706 0.94657 -0.07787
 O121 O -0.03636 0.97110 -0.05482
 O122 O 0.14360 1.03915 0.07326
 O123 O -0.13621 1.01170 0.06125
 O124 O 0.06599 1.16316 -0.00362
 O125 O 0.09389 0.89797 -0.00298
 O126 O -0.05616 0.88430 -0.00094
 O127 O -0.07907 1.14910 -0.00974
 O128 O -0.00494 1.09190 0.13431
 O129 O 0.00643 0.95259 0.13492
 O130 O -0.00745 1.15577 0.06918
 O131 O 0.01782 0.89040 0.06898
 O132 O 0.13902 1.10734 0.00182
 O133 O -0.13911 1.08023 -0.01563
 O134 O -0.12687 0.94297 -0.00444
 O135 O 0.15334 0.96756 0.00140
 O136 O 0.07603 1.02919 0.13739
 O137 O -0.07301 1.01314 0.13079
 Zr138 Zr 0.10195 1.03281 -0.00060
 Zr139 Zr -0.08826 1.01495 -0.00873
 Zr140 Zr -0.00206 1.11394 -0.00534
 Zr141 Zr 0.01520 0.93205 -0.00369
 Zr142 Zr 0.00309 1.02282 0.09077
 O143 O -0.03998 0.97211 0.04271
 O144 O 0.04944 1.07493 0.04669
 C145 C 0.12667 1.03531 0.12254
 C146 C -0.12263 1.01023 0.11180
 C147 C 0.11765 1.15320 -0.00070
 C148 C 0.14258 0.91837 -0.00010
 C149 C -0.10771 0.89677 0.00022
 C150 C -0.12745 1.12911 -0.01476
 C151 C -0.00893 1.13967 0.11917
 C152 C 0.01339 0.90529 0.11871
 H153 H -0.07494 1.08515 0.06341
 O154 O -0.04834 1.06531 0.04186
 H155 H 0.08286 0.96188 0.07009
 O156 O 0.05818 0.98154 0.04613
 C157 C 0.36255 0.95254 0.32005
 C158 C 0.31524 0.96224 0.28929
 C159 C 0.26872 0.92992 0.29507
 C160 C 0.27034 0.88832 0.33106
 C161 C 0.31649 0.88033 0.36312
 C162 C 0.36264 0.91285 0.35877
 C163 C 0.22084 0.94036 0.26582
 C164 C 0.21847 0.98311 0.23128
 C165 C 0.26482 1.01563 0.22560
 C166 C 0.31293 1.00491 0.25450
 C167 C 0.26258 1.05783 0.19025
 C168 C 0.21578 1.06634 0.15907
 C169 C 0.17002 1.03365 0.16373
 C170 C 0.17100 0.99289 0.20096
 H171 H 0.39752 0.97834 0.31704
 H172 H 0.23517 0.86311 0.33589
 H173 H 0.31578 0.84939 0.39259
 H174 H 0.18535 0.91537 0.27016
 H175 H 0.34840 1.02990 0.25014
 H176 H 0.29764 1.08315 0.18532
 H177 H 0.21591 1.09747 0.12986
 H178 H 0.13628 0.96675 0.20353
 C179 C -0.35418 0.93760 0.31947
 C180 C -0.30846 0.94396 0.28594
 C181 C -0.26187 0.91254 0.29346
 C182 C -0.26239 0.87434 0.33345
 C183 C -0.30757 0.86888 0.36730
 C184 C -0.35345 0.90130 0.36178
 C185 C -0.21518 0.92044 0.26164
 C186 C -0.21441 0.95952 0.22245
 C187 C -0.26142 0.99033 0.21435
 C188 C -0.30803 0.98239 0.24613
 C189 C -0.26118 1.02852 0.17432
 C190 C -0.21519 1.03561 0.14200
 C191 C -0.16827 1.00549 0.14991
 C192 C -0.16770 0.96788 0.19064
 H193 H -0.38885 0.96323 0.31492
 H194 H -0.22734 0.84951 0.33943
 H195 H -0.30636 0.83977 0.39869
 H196 H -0.17937 0.89651 0.26768
 H197 H -0.34379 1.00640 0.24017
 H198 H -0.29684 1.05235 0.16745
 H199 H -0.21628 1.06454 0.11040
 H200 H -0.13185 0.94397 0.19605
 C201 C -0.34211 0.94031 -0.34207
 C202 C -0.30016 0.94495 -0.30373
 C203 C -0.27708 0.89997 -0.28079
 C204 C -0.29626 0.85111 -0.29704
 C205 C -0.33725 0.84689 -0.33636
 C206 C -0.36014 0.89143 -0.35907
 C207 C -0.23485 0.90459 -0.24258
 C208 C -0.21496 0.95354 -0.22770
 C209 C -0.23761 0.99847 -0.25126
 C210 C -0.28032 0.99385 -0.28884
 C211 C -0.21722 1.04734 -0.23665
 C212 C -0.17515 1.05172 -0.19859
 C213 C -0.15313 1.00736 -0.17487
 C214 C -0.17286 0.95839 -0.18942
 H215 H -0.35975 0.97460 -0.36013
 H216 H -0.27894 0.81626 -0.28002
 H217 H -0.35080 0.80900 -0.34952
 H218 H -0.21724 0.87017 -0.22474
 H219 H -0.29783 1.02826 -0.30678
 H220 H -0.23409 1.08210 -0.25432
 H221 H -0.16040 1.08968 -0.18693
 H222 H -0.15574 0.92428 -0.17050
 C223 C 0.36149 0.93999 -0.32686
 C224 C 0.31654 0.95023 -0.29365
 C225 C 0.26846 0.91984 -0.29869
 C226 C 0.26703 0.87845 -0.33525
 C227 C 0.31196 0.86863 -0.36824
 C228 C 0.35881 0.90006 -0.36510
 C229 C 0.22235 0.93183 -0.26782
 C230 C 0.22402 0.97318 -0.23124
 C231 C 0.27267 1.00242 -0.22475
 C232 C 0.31844 0.99112 -0.25647
 C233 C 0.27487 1.04203 -0.18607
 C234 C 0.22978 1.05161 -0.15312
 C235 C 0.18126 1.02305 -0.15982
 C236 C 0.17817 0.98484 -0.19989
 H237 H 0.39762 0.96442 -0.32484
 H238 H 0.23070 0.85457 -0.33934
 H239 H 0.30945 0.83788 -0.39789
 H240 H 0.18528 0.90891 -0.27211
 H241 H 0.35550 1.01403 -0.25215
 H242 H 0.31188 1.06463 -0.18033
 H243 H 0.23288 1.08100 -0.12205
 H244 H 0.14087 0.96256 -0.20479
 C245 C 0.32435 1.38665 0.02758
 C246 C 0.29040 1.34294 0.03138
 C247 C 0.30110 1.30490 0.07098
 C248 C 0.34433 1.31229 0.10750
 C249 C 0.37880 1.35518 0.10259
 C250 C 0.37051 1.39181 0.06128
 C251 C 0.26954 1.25944 0.07237
 C252 C 0.22771 1.25133 0.03428
 C253 C 0.21631 1.29007 -0.00449
 C254 C 0.24755 1.33557 -0.00556
 C255 C 0.17392 1.28261 -0.04188
 C256 C 0.14278 1.23743 -0.04073
 C257 C 0.15401 1.19851 -0.00286
 C258 C 0.19686 1.20529 0.03435
 H259 H 0.31752 1.41437 -0.00455
 H260 H 0.35276 1.28395 0.13858
 H261 H 0.41330 1.35894 0.12996
 H262 H 0.27816 1.23005 0.10238
 H263 H 0.23919 1.36479 -0.03584
 H264 H 0.16456 1.31188 -0.07175
 H265 H 0.10967 1.23276 -0.06959
 H266 H 0.20497 1.17560 0.06414
 C267 C 0.36499 0.69751 0.00800
 C268 C 0.32138 0.73193 0.00038
 C269 C 0.27511 0.71630 -0.03017
 C270 C 0.27392 0.66701 -0.05372
 C271 C 0.31778 0.63329 -0.04655
 C272 C 0.36337 0.64798 -0.01528
 C273 C 0.23072 0.75002 -0.03645
 C274 C 0.23223 0.79946 -0.01312
 C275 C 0.27916 0.81553 0.01619
 C276 C 0.32321 0.78159 0.02306
 C277 C 0.28120 0.86532 0.03838
 C278 C 0.23709 0.89881 0.03205
 C279 C 0.18973 0.88300 0.00404
 C280 C 0.18757 0.83313 -0.01853
 H281 H 0.39999 0.70890 0.03236
 H282 H 0.23897 0.65445 -0.07748
 H283 H 0.31595 0.59530 -0.06487
 H284 H 0.19503 0.73777 -0.05939
 H285 H 0.35886 0.79380 0.04608
 H286 H 0.31686 0.87832 0.06082
 H287 H 0.23959 0.93688 0.05017
 H288 H 0.15139 0.82074 -0.04057
 C289 C -0.34678 0.69198 -0.00608
 C290 C -0.29948 0.72255 -0.01097
 C291 C -0.25858 0.70901 -0.04864
 C292 C -0.26550 0.66452 -0.08033
 C293 C -0.31128 0.63274 -0.07312
 C294 C -0.35220 0.64600 -0.03578
 C295 C -0.21089 0.73935 -0.05295
 C296 C -0.20291 0.78218 -0.01889
 C297 C -0.24342 0.79456 0.01978
 C298 C -0.29152 0.76516 0.02300
 C299 C -0.23557 0.83664 0.05444
 C300 C -0.18922 0.86759 0.04950
 C301 C -0.14962 0.85704 0.01008
 C302 C -0.15577 0.81352 -0.02333
 H303 H -0.37735 0.70176 0.02385
 H304 H -0.23456 0.65328 -0.10922
 H305 H -0.31448 0.59717 -0.09608
 H306 H -0.17985 0.72930 -0.08228
 H307 H -0.32252 0.77512 0.05244
 H308 H -0.26592 0.84640 0.08452
 H309 H -0.18503 0.90110 0.07553
 H310 H -0.12559 0.80571 -0.05422
 C311 C -0.33787 1.35646 -0.00269
 C312 C -0.29901 1.31744 0.00349
 C313 C -0.26770 1.31485 0.05162
 C314 C -0.27743 1.35007 0.09354
 C315 C -0.31809 1.38734 0.08794
 C316 C -0.34802 1.39102 0.03967
 C317 C -0.22760 1.27684 0.05722
 C318 C -0.21982 1.24036 0.01616
 C319 C -0.25299 1.24137 -0.03083
 C320 C -0.29176 1.28050 -0.03726
 C321 C -0.24661 1.20324 -0.07064
 C322 C -0.20694 1.16506 -0.06440
 C323 C -0.17261 1.16544 -0.01897
 C324 C -0.17926 1.20281 0.02132
 H325 H -0.36151 1.35920 -0.03974
 H326 H -0.25420 1.34828 0.13087
 H327 H -0.32605 1.41362 0.12104
 H328 H -0.20282 1.27537 0.09365
 H329 H -0.31659 1.28193 -0.07365
 H330 H -0.27198 1.20318 -0.10664
 H331 H -0.20176 1.13631 -0.09579
 H332 H -0.15273 1.20255 0.05657
 C333 C -0.02286 1.35365 0.34867
 C334 C -0.01639 1.32226 0.30259
 C335 C 0.01232 1.34123 0.25721
 C336 C 0.03413 1.39134 0.25875
 C337 C 0.02684 1.42261 0.30423
 C338 C -0.00208 1.40459 0.34983
 C339 C 0.01847 1.30998 0.21098
 C340 C -0.00398 1.25988 0.20940
 C341 C -0.03297 1.24127 0.25490
 C342 C -0.03896 1.27241 0.30097
 C343 C -0.05533 1.19148 0.25395
 C344 C -0.04812 1.15979 0.20909
 C345 C -0.01867 1.17700 0.16371
 C346 C 0.00257 1.22770 0.16363
 H347 H -0.04626 1.33921 0.38262
 H348 H 0.05651 1.40660 0.22455
 H349 H 0.04438 1.46114 0.30395
 H350 H 0.04070 1.32462 0.17635
 H351 H -0.06118 1.25777 0.33563
 H352 H -0.07792 1.17672 0.28827
 H353 H -0.06558 1.12123 0.21005
 H354 H 0.02548 1.24135 0.12902
 C355 C -0.01783 1.34468 -0.36505
 C356 C -0.01062 1.31360 -0.31883
 C357 C 0.01940 1.33277 -0.27401
 C358 C 0.04238 1.38230 -0.27641
 C359 C 0.03396 1.41335 -0.32169
 C360 C 0.00292 1.39556 -0.36626
 C361 C 0.02520 1.30256 -0.22714
 C362 C 0.00102 1.25337 -0.22418
 C363 C -0.02882 1.23419 -0.26917
 C364 C -0.03438 1.26428 -0.31605
 C365 C -0.05250 1.18496 -0.26675
 C366 C -0.04581 1.15449 -0.22085
 C367 C -0.01596 1.17267 -0.17591
 C368 C 0.00670 1.22267 -0.17737
 H369 H -0.04257 1.33052 -0.39844
 H370 H 0.06582 1.39759 -0.24270
 H371 H 0.05124 1.45200 -0.32168
 H372 H 0.04821 1.31749 -0.19291
 H373 H -0.05751 1.24941 -0.35023
 H374 H -0.07559 1.16964 -0.30069
 H375 H -0.06376 1.11614 -0.22064
 H376 H 0.03021 1.23680 -0.14314
 C377 C 0.00224 0.68157 -0.34150
 C378 C -0.00192 0.71895 -0.30072
 C379 C -0.05250 0.72646 -0.27437
 C380 C -0.09800 0.69640 -0.28932
 C381 C -0.09360 0.65948 -0.33027
 C382 C -0.04349 0.65164 -0.35664
 C383 C -0.05691 0.76419 -0.23393
 C384 C -0.01146 0.79469 -0.21976
 C385 C 0.03916 0.78714 -0.24615
 C386 C 0.04361 0.74920 -0.28631
 C387 C 0.08449 0.81783 -0.23197
 C388 C 0.07963 0.85591 -0.19231
 C389 C 0.02950 0.86382 -0.16650
 C390 C -0.01583 0.83295 -0.17984
 H391 H 0.04101 0.67574 -0.36174
 H392 H -0.13714 0.70184 -0.26977
 H393 H -0.12964 0.63764 -0.34213
 H394 H -0.09572 0.77005 -0.21378
 H395 H 0.08238 0.74347 -0.30659
 H396 H 0.12363 0.81239 -0.25153
 H397 H 0.11511 0.87878 -0.18124
 H398 H -0.05448 0.83917 -0.15951
 C399 C -0.00512 0.67886 0.33038
 C400 C -0.00954 0.72219 0.29665
 C401 C -0.05711 0.75309 0.29847
 C402 C -0.09972 0.73965 0.33366
 C403 C -0.09473 0.69668 0.36745
 C404 C -0.04728 0.66640 0.36630
 C405 C -0.06110 0.79703 0.26545
 C406 C -0.01827 0.81023 0.23037
 C407 C 0.02906 0.77895 0.22842
 C408 C 0.03320 0.73539 0.26171
 C409 C 0.07129 0.79127 0.19254
 C410 C 0.06623 0.83339 0.15791
 C411 C 0.01953 0.86459 0.15942
 C412 C -0.02236 0.85351 0.19627
 H413 H 0.03167 0.65564 0.32995
 H414 H -0.13647 0.76278 0.33563
 H415 H -0.12736 0.68753 0.39537
 H416 H -0.09753 0.82074 0.26688
 H417 H 0.06959 0.71162 0.26023
 H418 H 0.10774 0.76771 0.19046
 H419 H 0.09868 0.84149 0.12938
 H420 H -0.05880 0.87715 0.19673
   
