data_POSCAR
  _audit_creation_date              2014-09-24
  _audit_creation_method            'ToBaCCo'
  _symmetry_space_group_name_H-M    'P1'
  _symmetry_Int_Tables_number       1
  _symmetry_cell_setting            triclinic
  loop_
  _symmetry_equiv_pos_as_xyz
 x,y,z
_cell_length_a 31.9518
_cell_length_b 34.0626
_cell_length_c 34.3599
_cell_angle_alpha 89.837600
_cell_angle_beta 90.006800
_cell_angle_gamma 89.951400
loop_
  _atom_site_label
  _atom_site_type_symbol
  _atom_site_fract_x
  _atom_site_fract_y
  _atom_site_fract_z
N1 N 0.17927 0.19119 0.19161
 N2 N -0.17213 0.80910 0.18508
 N3 N -0.18346 0.18372 -0.19552
 N4 N 0.16853 0.82712 -0.17154
 N5 N 0.17218 1.17507 0.81740
 N6 N 0.83630 0.82993 0.82627
 N7 N 0.16621 0.81510 1.17896
 N8 N 0.82210 1.18845 1.19169
 O9 O 0.45289 0.92516 0.93950
 O10 O 0.40173 0.96001 0.97121
 C11 C 0.41394 0.93255 0.94776
 O12 O 0.56491 0.93654 1.07903
 O13 O 0.60676 0.97848 1.04438
 C14 C 0.60139 0.95115 1.06990
 O15 O 0.44690 0.92663 1.07462
 O16 O 0.39874 0.95969 1.03723
 C17 C 0.40874 0.93471 1.06437
 O18 O 0.57069 0.94120 0.93861
 O19 O 0.60962 0.98099 0.97838
 C20 C 0.60613 0.95581 0.95054
 Zr21 Zr 0.50842 0.95389 0.95784
 O22 O 0.51967 0.89284 0.95414
 O23 O 0.50545 0.95714 0.89636
 Zr24 Zr 0.50416 0.95152 1.05644
 O25 O 0.51324 0.88998 1.05423
 O26 O 0.49866 0.94929 1.11780
 O27 O 0.46982 0.94199 1.00564
 O28 O 0.54289 0.94866 1.00848
 O29 O 0.55799 1.07719 0.94150
 O30 O 0.60369 1.04446 0.98144
 C31 C 0.59542 1.06986 0.95458
 O32 O 0.43223 1.06820 1.07256
 O33 O 0.39203 1.02794 1.03429
 C34 C 0.39651 1.05618 1.05911
 O35 O 0.54919 1.07142 1.08507
 O36 O 0.59989 1.04070 1.04887
 C37 C 0.58786 1.06303 1.07719
 O38 O 0.44010 1.07448 0.94373
 O39 O 0.39568 1.02959 0.97168
 C40 C 0.40303 1.06086 0.95107
 Zr41 Zr 0.49949 1.05252 0.95922
 O42 O 0.49837 1.11426 0.95342
 O43 O 0.49695 1.04820 0.89777
 Zr44 Zr 0.49394 1.05075 1.05789
 O45 O 0.49379 1.11292 1.05791
 O46 O 0.48482 1.05072 1.11887
 Zr47 Zr 0.43938 0.99705 1.00526
 Zr48 Zr 0.56249 1.00755 1.01092
 O49 O 0.53194 1.06210 1.01058
 O50 O 0.45941 1.05613 1.00700
 O51 O 0.54145 1.00650 0.95279
 O52 O 0.46264 0.99814 1.06263
 O53 O 0.46749 1.00045 0.94991
 O54 O 0.53528 1.00399 1.06656
 H55 H 0.56409 0.92742 1.00856
 H56 H 0.44280 0.99713 1.08477
 H57 H 0.54901 1.08629 1.01246
 H58 H 0.44870 0.99946 0.92698
 H59 H 0.52110 0.96590 1.12881
 H60 H 0.50432 1.03109 1.12991
 H61 H 0.46949 1.12170 1.04227
 H62 H 0.49254 1.12482 0.97961
 H63 H 0.52558 1.04237 0.88843
 H64 H 0.52953 0.97306 0.88751
 H65 H 0.50329 0.88032 0.97518
 H66 H 0.48880 0.87849 1.04073
 O67 O 0.07321 0.44594 -0.08231
 O68 O 0.03814 0.39995 -0.04609
 C69 C 0.06384 0.40988 -0.07353
 O70 O 0.07154 0.54825 0.06300
 O71 O 0.03092 0.59285 0.02974
 C72 C 0.06000 0.58388 0.05469
 O73 O 0.07358 0.43781 0.05937
 O74 O 0.03512 0.39621 0.02089
 C75 C 0.06113 0.40298 0.04902
 O76 O 0.06334 0.55533 -0.08137
 O77 O 0.02873 0.59622 -0.03926
 C78 C 0.05226 0.58992 -0.06938
 Zr79 Zr 0.05129 0.49920 -0.05756
 O80 O 0.11694 0.50517 -0.05123
 O81 O 0.06010 0.50027 -0.11849
 Zr82 Zr 0.05189 0.49383 0.03984
 O83 O 0.11793 0.49778 0.03643
 O84 O 0.05467 0.48877 0.10120
 O85 O 0.06103 0.46120 -0.01069
 O86 O 0.05779 0.53145 -0.00742
 O87 O -0.07547 0.55100 -0.07777
 O88 O -0.04033 0.59417 -0.03848
 C89 C -0.06617 0.58627 -0.06664
 O90 O -0.07557 0.43373 0.05595
 O91 O -0.03533 0.39433 0.01680
 C92 C -0.06430 0.39963 0.04256
 O93 O -0.07267 0.54307 0.06791
 O94 O -0.03920 0.59025 0.03179
 C95 C -0.06364 0.57933 0.06004
 O96 O -0.07439 0.44096 -0.08083
 O97 O -0.03204 0.39788 -0.04756
 C98 C -0.05999 0.40597 -0.07360
 Zr99 Zr -0.05518 0.49595 -0.05727
 O100 O -0.12127 0.49749 -0.05273
 O101 O -0.05948 0.49606 -0.11870
 Zr102 Zr -0.05445 0.49089 0.04002
 O103 O -0.12055 0.49463 0.03694
 O104 O -0.05889 0.48296 0.10092
 Zr105 Zr 0.00044 0.43693 -0.01177
 Zr106 Zr -0.00368 0.55393 -0.00578
 O107 O -0.06347 0.52800 -0.00679
 O108 O -0.06165 0.45789 -0.01046
 O109 O -0.00330 0.53245 -0.06340
 O110 O -0.00048 0.45851 0.04558
 O111 O -0.00076 0.46467 -0.06657
 O112 O -0.00225 0.52672 0.04949
 H113 H 0.08135 0.55036 -0.00761
 H114 H -0.00115 0.44038 0.06816
 H115 H -0.08813 0.54562 -0.00552
 H116 H -0.00026 0.44932 -0.09100
 H117 H 0.03599 0.50909 0.11219
 H118 H -0.03309 0.49409 0.11225
 H119 H -0.13082 0.47051 0.02413
 H120 H -0.13074 0.47104 -0.04464
 H121 H -0.03754 0.51402 -0.12849
 H122 H 0.03185 0.50030 -0.13021
 H123 H 0.12858 0.47865 -0.04651
 H124 H 0.12834 0.47327 0.02441
 O125 O 0.94175 0.07033 0.43568
 O126 O 0.97646 0.02550 0.39777
 C127 C 0.95403 0.05684 0.40222
 O128 O 1.08538 0.05811 0.55092
 O129 O 1.03862 0.03282 0.59507
 C130 C 1.07189 0.05265 0.58623
 O131 O 1.08346 0.05579 0.44095
 O132 O 1.04411 0.01672 0.40075
 C133 C 1.07302 0.04262 0.40684
 O134 O 0.93062 0.07423 0.54397
 O135 O 0.96437 0.03952 0.59184
 C136 C 0.93779 0.06604 0.58019
 Zr137 Zr 0.95563 0.05004 0.49282
 O138 O 0.96373 0.11173 0.49336
 O139 O 0.89042 0.05739 0.48474
 Zr140 Zr 1.06041 0.03928 0.49676
 O141 O 1.06730 0.10109 0.49722
 O142 O 1.12620 0.03247 0.49357
 O143 O 1.01003 0.04926 0.45970
 O144 O 1.00773 0.05468 0.52826
 O145 O 0.91641 -0.05956 0.55623
 O146 O 0.95965 -0.02608 0.59783
 C147 C 0.92786 -0.04865 0.59074
 O148 O 1.06606 -0.08819 0.45212
 O149 O 1.03431 -0.05021 0.40555
 C150 C 1.05710 -0.07981 0.41608
 O151 O 1.07266 -0.07159 0.56048
 O152 O 1.03322 -0.03177 0.59996
 C153 C 1.06218 -0.05790 0.59435
 O154 O 0.92193 -0.07186 0.44893
 O155 O 0.96520 -0.04319 0.40378
 C156 C 0.93427 -0.06600 0.41345
 Zr157 Zr 0.94384 -0.04806 0.50155
 O158 O 0.93763 -0.10926 0.51090
 O159 O 0.87819 -0.04201 0.49540
 Zr160 Zr 1.04841 -0.05918 0.50453
 O161 O 1.03815 -0.11957 0.51590
 O162 O 1.11340 -0.07048 0.50135
 Zr163 Zr 1.00365 -0.00946 0.44125
 Zr164 Zr 1.00026 0.00050 0.55709
 O165 O 0.99457 -0.05783 0.53773
 O166 O 0.99600 -0.06423 0.46900
 O167 O 0.94046 0.00480 0.53144
 O168 O 1.06312 -0.01363 0.46727
 O169 O 0.94293 -0.00104 0.46316
 O170 O 1.06149 -0.00784 0.53524
 H171 H 1.00965 0.07874 0.54428
 H172 H 1.08792 -0.01780 0.45048
 H173 H 0.99203 -0.07889 0.55757
 H174 H 0.91925 0.00048 0.44457
 H175 H 1.13525 0.01768 0.51693
 H176 H 1.12768 -0.04781 0.51335
 H177 H 1.02422 -0.13086 0.49278
 H178 H 0.95250 -0.12283 0.48957
 H179 H 0.86855 -0.02308 0.51525
 H180 H 0.87614 0.04224 0.50541
 H181 H 0.98189 0.11870 0.47110
 H182 H 1.05266 0.11159 0.47405
 C183 C 1.14263 0.14193 0.28358
 C184 C 1.14464 0.10329 0.27229
 C185 C 1.15740 0.09168 0.23554
 C186 C 1.16881 0.12107 0.20918
 C187 C 1.16762 0.16144 0.21980
 C188 C 1.15408 0.17193 0.25769
 O189 O 1.12817 0.14626 0.31965
 C190 C 1.12091 0.10952 0.33112
 C191 C 1.13055 0.08227 0.30305
 C192 C 1.12405 0.04227 0.30784
 C193 C 1.10620 0.02973 0.34287
 C194 C 1.09551 0.05701 0.37230
 C195 C 1.10357 0.09752 0.36666
 H196 H 1.15806 0.06105 0.22726
 H197 H 1.17801 0.11225 0.18018
 H198 H 1.15237 0.20238 0.26647
 H199 H 1.13169 0.02152 0.28511
 H200 H 1.10037 -0.00125 0.34706
 H201 H 1.09493 0.11897 0.38843
 C202 C 0.88006 -0.14424 0.27022
 C203 C 0.84726 -0.14371 0.29614
 C204 C 0.80804 -0.15916 0.28770
 C205 C 0.80221 -0.17554 0.25076
 C206 C 0.83548 -0.17657 0.22360
 C207 C 0.87505 -0.16097 0.23345
 O208 O 0.91437 -0.12701 0.28388
 C209 C 0.90292 -0.11544 0.31924
 C210 C 0.86219 -0.12515 0.32802
 C211 C 0.84345 -0.11603 0.36323
 C212 C 0.86775 -0.09641 0.39084
 C213 C 0.90993 -0.08593 0.38281
 C214 C 0.92770 -0.09534 0.34623
 H215 H 0.78269 -0.15810 0.30856
 H216 H 0.77183 -0.18716 0.24295
 H217 H 0.90052 -0.16096 0.21267
 H218 H 0.81127 -0.12386 0.36930
 H219 H 0.85347 -0.08913 0.41848
 H220 H 0.95981 -0.08789 0.33933
 C221 C 0.85729 0.12305 0.72313
 C222 C 0.84242 0.14439 0.69202
 C223 C 0.81574 0.17642 0.69613
 C224 C 0.80495 0.18771 0.73401
 C225 C 0.82049 0.16675 0.76652
 C226 C 0.84612 0.13333 0.76107
 O227 O 0.88463 0.09547 0.71288
 C228 C 0.88713 0.09961 0.67447
 C229 C 0.86186 0.12916 0.66045
 C230 C 0.86083 0.14000 0.62157
 C231 C 0.88649 0.11928 0.59583
 C232 C 0.91281 0.08825 0.60912
 C233 C 0.91312 0.07841 0.64927
 H234 H 0.80510 0.19311 0.67117
 H235 H 0.78606 0.21374 0.73833
 H236 H 0.85950 0.11793 0.78571
 H237 H 0.84108 0.16372 0.61137
 H238 H 0.88563 0.12757 0.56541
 H239 H 0.93277 0.05507 0.66048
 C240 C 1.11791 -0.11966 0.74510
 C241 C 1.15234 -0.11291 0.72204
 C242 C 1.19273 -0.12315 0.73306
 C243 C 1.19792 -0.14167 0.76917
 C244 C 1.16294 -0.14989 0.79340
 C245 C 1.12235 -0.13829 0.78122
 O246 O 1.08219 -0.10877 0.72833
 C247 C 1.09442 -0.09515 0.69383
 C248 C 1.13706 -0.09734 0.68860
 C249 C 1.15662 -0.08716 0.65393
 C250 C 1.13122 -0.07426 0.62325
 C251 C 1.08722 -0.07127 0.62783
 C252 C 1.06851 -0.08139 0.66384
 H253 H 1.21923 -0.11783 0.71415
 H254 H 1.22903 -0.15096 0.77762
 H255 H 1.09513 -0.14469 0.79886
 H256 H 1.19017 -0.08974 0.65039
 H257 H 1.14584 -0.06640 0.59587
 H258 H 1.03495 -0.07987 0.66784
 C259 C 0.27465 1.14960 1.14513
 C260 C 0.26020 1.14466 1.10774
 C261 C 0.22142 1.15821 1.09533
 C262 C 0.19586 1.17650 1.12296
 C263 C 0.20926 1.18047 1.16217
 C264 C 0.24965 1.16760 1.17314
 O265 O 0.31170 1.13304 1.15123
 C266 C 0.32056 1.11699 1.11705
 C267 C 0.28984 1.12295 1.08960
 C268 C 0.29121 1.10644 1.05270
 C269 C 0.32604 1.08326 1.04351
 C270 C 0.35874 1.07762 1.07091
 C271 C 0.35595 1.09478 1.10822
 H272 H 0.21062 1.15358 1.06585
 H273 H 0.16461 1.18538 1.11450
 H274 H 0.26002 1.16943 1.20307
 H275 H 0.26625 1.11098 1.03186
 H276 H 0.32796 1.07047 1.01476
 H277 H 0.38031 1.09062 1.12976
 C278 C 0.25679 0.87453 0.88201
 C279 C 0.28453 0.84367 0.88406
 C280 C 0.27487 0.80624 0.87078
 C281 C 0.23528 0.80054 0.85408
 C282 C 0.20651 0.83215 0.85059
 C283 C 0.21740 0.86960 0.86510
 O284 O 0.27243 0.90785 0.89573
 C285 C 0.31096 0.89785 0.90641
 C286 C 0.32004 0.85900 0.89954
 C287 C 0.35927 0.84279 0.90670
 C288 C 0.39033 0.86754 0.92188
 C289 C 0.38147 0.90750 0.93010
 C290 C 0.34109 0.92278 0.92227
 H291 H 0.29730 0.78247 0.87252
 H292 H 0.22759 0.77198 0.84234
 H293 H 0.19623 0.89426 0.86215
 H294 H 0.36584 0.81225 0.90053
 H295 H 0.42102 0.85545 0.92786
 H296 H 0.33357 0.95327 0.92783
 C297 C 0.73429 0.85254 1.13698
 C298 C 0.75105 0.88766 1.12489
 C299 C 0.79323 0.89693 1.12858
 C300 C 0.81918 0.86921 1.14662
 C301 C 0.80270 0.83314 1.16009
 C302 C 0.75982 0.82426 1.15458
 O303 O 0.69304 0.85046 1.13176
 C304 C 0.68365 0.88514 1.11610
 C305 C 0.71822 0.90879 1.11151
 C306 C 0.71619 0.94640 1.09641
 C307 C 0.67710 0.96006 1.08446
 C308 C 0.64055 0.93632 1.08785
 C309 C 0.64386 0.89833 1.10455
 H310 H 0.80545 0.92498 1.11905
 H311 H 0.85180 0.87622 1.15156
 H312 H 0.74655 0.79728 1.16579
 H313 H 0.74386 0.96448 1.09342
 H314 H 0.67564 0.98919 1.07184
 H315 H 0.61686 0.87935 1.10722
 C316 C 0.72337 1.13965 0.85415
 C317 C 0.73783 1.13861 0.89182
 C318 C 0.77797 1.15002 0.90225
 C319 C 0.80423 1.16383 0.87269
 C320 C 0.79002 1.16620 0.83360
 C321 C 0.74913 1.15328 0.82412
 O322 O 0.68415 1.12698 0.85077
 C323 C 0.67377 1.11780 0.88716
 C324 C 0.70565 1.12452 0.91323
 C325 C 0.70234 1.11653 0.95269
 C326 C 0.66490 1.10003 0.96585
 C327 C 0.63164 1.09192 0.93966
 C328 C 0.63579 1.10163 0.89976
 H329 H 0.78860 1.14859 0.93213
 H330 H 0.83559 1.17315 0.88021
 H331 H 0.73748 1.15490 0.79458
 H332 H 0.72795 1.12211 0.97254
 H333 H 0.66207 1.09288 0.99649
 H334 H 0.61117 1.09516 0.87910
 C335 C 0.14164 0.28604 0.15014
 C336 C 0.09941 0.27867 0.14866
 C337 C 0.08118 0.24559 0.16533
 C338 C 0.10778 0.21803 0.18293
 C339 C 0.15178 0.22378 0.18316
 C340 C 0.16866 0.25903 0.16764
 O341 O 0.15278 0.31797 0.13028
 C342 C 0.11678 0.33076 0.11554
 C343 C 0.08336 0.30739 0.12573
 C344 C 0.04342 0.31289 0.11091
 C345 C 0.03748 0.34396 0.08483
 C346 C 0.07101 0.36925 0.07439
 C347 C 0.11131 0.36282 0.09030
 H348 H 0.04786 0.24028 0.16323
 H349 H 0.09439 0.19094 0.19373
 H350 H 0.20216 0.26364 0.16651
 H351 H 0.01784 0.29359 0.11869
 H352 H 0.00637 0.34879 0.07330
 H353 H 0.13747 0.38146 0.08258
 C354 C -0.14723 0.27862 -0.15273
 C355 C -0.10558 0.27745 -0.16266
 C356 C -0.08805 0.24738 -0.18450
 C357 C -0.11449 0.21692 -0.19635
 C358 C -0.15746 0.21686 -0.18585
 C359 C -0.17409 0.24852 -0.16412
 O360 O -0.15707 0.30911 -0.13047
 C361 C -0.12071 0.32744 -0.12607
 C362 C -0.08826 0.30902 -0.14513
 C363 C -0.04701 0.32140 -0.14258
 C364 C -0.03875 0.35398 -0.11919
 C365 C -0.07153 0.37364 -0.09938
 C366 C -0.11326 0.36061 -0.10316
 H367 H -0.05502 0.24699 -0.19151
 H368 H -0.10120 0.19276 -0.21256
 H369 H -0.20670 0.24905 -0.15558
 H370 H -0.02196 0.30600 -0.15729
 H371 H -0.00672 0.36383 -0.11619
 H372 H -0.13856 0.37474 -0.08759
 C373 C 0.11453 0.74244 -0.12320
 C374 C 0.10595 0.71950 -0.15507
 C375 C 0.11495 0.73111 -0.19295
 C376 C 0.13418 0.76769 -0.19826
 C377 C 0.14427 0.79178 -0.16590
 C378 C 0.13385 0.77897 -0.12782
 O379 O 0.10480 0.72513 -0.08966
 C380 C 0.09006 0.69040 -0.10067
 C381 C 0.09040 0.68552 -0.14041
 C382 C 0.07889 0.65067 -0.15833
 C383 C 0.06654 0.61947 -0.13433
 C384 C 0.06545 0.62370 -0.09327
 C385 C 0.07692 0.65990 -0.07617
 H386 H 0.10829 0.71227 -0.21749
 H387 H 0.14274 0.77656 -0.22746
 H388 H 0.14179 0.79645 -0.10262
 H389 H 0.08002 0.64741 -0.18963
 H390 H 0.05755 0.59200 -0.14776
 H391 H 0.07685 0.66371 -0.04489
 C392 C -0.12975 0.72494 0.12744
 C393 C -0.13286 0.69535 0.15457
 C394 C -0.14893 0.70106 0.19169
 C395 C -0.16210 0.73900 0.20147
 C396 C -0.15951 0.77016 0.17407
 C397 C -0.14337 0.76288 0.13636
 O398 O -0.11266 0.71321 0.09413
 C399 C -0.10498 0.67534 0.10043
 C400 C -0.11701 0.66310 0.13694
 C401 C -0.11231 0.62475 0.14988
 C402 C -0.09470 0.59769 0.12408
 C403 C -0.08180 0.60928 0.08615
 C404 C -0.08675 0.64890 0.07428
 H405 H -0.15092 0.67723 0.21251
 H406 H -0.17452 0.74411 0.23031
 H407 H -0.14065 0.78624 0.11510
 H408 H -0.12198 0.61593 0.17880
 H409 H -0.09082 0.56767 0.13391
 H410 H -0.07730 0.65864 0.04557
 C411 C 1.12368 0.12689 0.73219
 C412 C 1.15891 0.11480 0.71266
 C413 C 1.19906 0.12049 0.72703
 C414 C 1.20321 0.13972 0.76286
 C415 C 1.16746 0.15363 0.78361
 C416 C 1.12703 0.14684 0.76755
 O417 O 1.08843 0.11822 0.71354
 C418 C 1.10178 0.10057 0.68140
 C419 C 1.14470 0.09815 0.67928
 C420 C 1.16547 0.08216 0.64746
 C421 C 1.14102 0.06799 0.61660
 C422 C 1.09670 0.06930 0.61841
 C423 C 1.07680 0.08567 0.65145
 H424 H 1.22633 0.11075 0.71103
 H425 H 1.23450 0.14533 0.77355
 H426 H 1.09902 0.15665 0.78237
 H427 H 1.19929 0.08089 0.64631
 H428 H 1.15655 0.05531 0.59159
 H429 H 1.04301 0.08726 0.65345
 C430 C 0.88129 -0.12187 0.73835
 C431 C 0.84648 -0.12070 0.71477
 C432 C 0.80814 -0.13656 0.72561
 C433 C 0.80540 -0.15385 0.76257
 C434 C 0.84084 -0.15554 0.78731
 C435 C 0.87940 -0.13957 0.77500
 O436 O 0.91448 -0.10462 0.72254
 C437 C 0.90030 -0.09243 0.68823
 C438 C 0.85892 -0.10166 0.68208
 C439 C 0.83791 -0.09259 0.64783
 C440 C 0.86076 -0.07396 0.61828
 C441 C 0.90360 -0.06438 0.62369
 C442 C 0.92343 -0.07314 0.65950
 H443 H 0.78119 -0.13511 0.70658
 H444 H 0.77571 -0.16557 0.77232
 H445 H 0.90652 -0.14001 0.79388
 H446 H 0.80536 -0.10030 0.64369
 H447 H 0.84522 -0.06741 0.59101
 H448 H 0.95621 -0.06671 0.66420
 C449 C 1.11393 -0.13910 0.26502
 C450 C 1.11694 -0.16927 0.29161
 C451 C 1.13288 -0.20599 0.28202
 C452 C 1.14701 -0.21161 0.24373
 C453 C 1.14558 -0.18054 0.21609
 C454 C 1.12840 -0.14388 0.22692
 O455 O 1.09835 -0.10638 0.28017
 C456 C 1.09176 -0.11600 0.31717
 C457 C 1.10300 -0.15399 0.32582
 C458 C 1.10070 -0.16935 0.36337
 C459 C 1.08611 -0.14459 0.39313
 C460 C 1.07355 -0.10548 0.38482
 C461 C 1.07616 -0.09129 0.34606
 H462 H 1.13512 -0.22925 0.30344
 H463 H 1.16087 -0.23953 0.23602
 H464 H 1.12762 -0.11959 0.20655
 H465 H 1.11023 -0.19921 0.36960
 H466 H 1.08411 -0.15604 0.42251
 H467 H 1.06670 -0.06174 0.33854
 C468 C 0.87053 0.15283 0.28409
 C469 C 0.90998 0.14355 0.27094
 C470 C 0.92355 0.15202 0.23344
 C471 C 0.89483 0.16958 0.20797
 C472 C 0.85333 0.17796 0.22022
 C473 C 0.84154 0.17062 0.25929
 O474 O 0.86306 0.13979 0.31989
 C475 C 0.89841 0.12159 0.32937
 C476 C 0.92799 0.12291 0.30028
 C477 C 0.96594 0.10310 0.30258
 C478 C 0.97380 0.08107 0.33628
 C479 C 0.94406 0.07958 0.36695
 C480 C 0.90597 0.10051 0.36359
 H481 H 0.95457 0.14391 0.22364
 H482 H 0.90410 0.17449 0.17805
 H483 H 0.80985 0.17602 0.26905
 H484 H 0.98838 0.10401 0.27900
 H485 H 1.00324 0.06545 0.33864
 H486 H 0.88254 0.09940 0.38634
 C487 C 0.11983 0.25778 -0.13334
 C488 C 0.11519 0.28311 -0.16423
 C489 C 0.12432 0.27246 -0.20232
 C490 C 0.14058 0.23472 -0.20871
 C491 C 0.14855 0.20859 -0.17703
 C492 C 0.13620 0.22022 -0.13893
 O493 O 0.11027 0.27397 -0.09934
 C494 C 0.09988 0.31050 -0.10894
 C495 C 0.10282 0.31770 -0.14826
 C496 C 0.09599 0.35465 -0.16438
 C497 C 0.08505 0.38525 -0.13905
 C498 C 0.08049 0.37833 -0.09851
 C499 C 0.08804 0.34030 -0.08329
 H500 H 0.12039 0.29297 -0.22616
 H501 H 0.15000 0.22712 -0.23800
 H502 H 0.14123 0.20117 -0.11408
 H503 H 0.09911 0.35977 -0.19534
 H504 H 0.07879 0.41404 -0.15117
 H505 H 0.08490 0.33419 -0.05248
 C506 C -0.14025 0.27867 0.14053
 C507 C -0.13849 0.26508 0.10290
 C508 C -0.15023 0.22728 0.09250
 C509 C -0.16428 0.20233 0.12219
 C510 C -0.16618 0.21548 0.16130
 C511 C -0.15391 0.25419 0.17060
 O512 O -0.12657 0.31530 0.14415
 C513 C -0.11581 0.32493 0.10802
 C514 C -0.12234 0.29509 0.08180
 C515 C -0.11148 0.29793 0.04277
 C516 C -0.09282 0.33291 0.03024
 C517 C -0.08589 0.36425 0.05659
 C518 C -0.09799 0.36038 0.09600
 H519 H -0.14810 0.21720 0.06272
 H520 H -0.17278 0.17244 0.11504
 H521 H -0.15452 0.26454 0.20035
 H522 H -0.11654 0.27384 0.02284
 H523 H -0.08368 0.33559 -0.00002
 H524 H -0.09232 0.38361 0.11679
 C525 C -0.12289 0.74041 -0.12338
 C526 C -0.13753 0.71177 -0.14795
 C527 C -0.16063 0.71994 -0.18127
 C528 C -0.16896 0.75941 -0.18979
 C529 C -0.15459 0.78961 -0.16484
 C530 C -0.13144 0.77994 -0.13101
 O531 O -0.10070 0.72610 -0.09378
 C532 C -0.10150 0.68756 -0.09985
 C533 C -0.12386 0.67748 -0.13253
 C534 C -0.12899 0.63904 -0.14464
 C535 C -0.11016 0.60957 -0.12232
 C536 C -0.08637 0.61875 -0.08851
 C537 C -0.08208 0.65856 -0.07713
 H538 H -0.17167 0.69677 -0.20014
 H539 H -0.18703 0.76644 -0.21550
 H540 H -0.12001 0.80261 -0.11173
 H541 H -0.14682 0.63195 -0.17046
 H542 H -0.11392 0.57951 -0.13184
 H543 H -0.06422 0.66670 -0.05163
 C544 C 0.11500 0.73124 0.12697
 C545 C 0.14904 0.70709 0.12181
 C546 C 0.18928 0.71724 0.13328
 C547 C 0.19475 0.75376 0.15117
 C548 C 0.16019 0.77913 0.15762
 C549 C 0.11967 0.76764 0.14531
 O550 O 0.07952 0.71561 0.11386
 C551 C 0.09152 0.68075 0.10041
 C552 C 0.13373 0.67417 0.10501
 C553 C 0.15305 0.63926 0.09456
 C554 C 0.12793 0.60980 0.07860
 C555 C 0.08439 0.61577 0.07280
 C556 C 0.06589 0.65199 0.08362
 H557 H 0.21549 0.69760 0.12892
 H558 H 0.22572 0.76189 0.16103
 H559 H 0.09281 0.78636 0.15028
 H560 H 0.18628 0.63474 0.09883
 H561 H 0.14259 0.58244 0.07014
 H562 H 0.03272 0.65723 0.07971
 C563 C 0.25171 1.12000 0.87432
 C564 C 0.27278 1.15078 0.89099
 C565 C 0.26164 1.18969 0.88526
 C566 C 0.22739 1.19749 0.86110
 C567 C 0.20449 1.16653 0.84291
 C568 C 0.21720 1.12700 0.85019
 O569 O 0.26910 1.08531 0.88212
 C570 C 0.30201 1.09461 0.90398
 C571 C 0.30549 1.13438 0.91010
 C572 C 0.33872 1.15124 0.92992
 C573 C 0.37013 1.12617 0.94361
 C574 C 0.36767 1.08505 0.93768
 C575 C 0.33269 1.06881 0.91820
 H576 H 0.27942 1.21337 0.89812
 H577 H 0.22000 1.22794 0.85521
 H578 H 0.20093 1.10248 0.83713
 H579 H 0.34091 1.18268 0.93389
 H580 H 0.39667 1.13880 0.95869
 H581 H 0.33048 1.03757 0.91285
 C582 C 0.25218 0.86755 1.12546
 C583 C 0.27960 0.87376 1.15561
 C584 C 0.27062 0.86392 1.19397
 C585 C 0.23196 0.84622 1.20165
 C586 C 0.20325 0.83823 1.17111
 C587 C 0.21350 0.84947 1.13242
 O588 O 0.26748 0.87875 1.09110
 C589 C 0.30553 0.89200 1.09986
 C590 C 0.31437 0.88911 1.13897
 C591 C 0.35281 0.89922 1.15471
 C592 C 0.38350 0.91321 1.12924
 C593 C 0.37536 0.91745 1.08880
 C594 C 0.33554 0.90691 1.07384
 H595 H 0.29295 0.86903 1.21709
 H596 H 0.22516 0.83720 1.23120
 H597 H 0.19246 0.84326 1.10853
 H598 H 0.35908 0.89620 1.18553
 H599 H 0.41352 0.92156 1.14128
 H600 H 0.32850 0.90971 1.04313
 C601 C 0.71856 1.15179 1.15566
 C602 C 0.72024 1.11341 1.16796
 C603 C 0.75321 1.09833 1.18963
 C604 C 0.78629 1.12368 1.19852
 C605 C 0.78570 1.16366 1.18623
 C606 C 0.75057 1.17787 1.16514
 O607 O 0.68634 1.15916 1.13228
 C608 C 0.66738 1.12458 1.12974
 C609 C 0.68686 1.09572 1.15129
 C610 C 0.67405 1.05678 1.15117
 C611 C 0.64003 1.04707 1.12749
 C612 C 0.62018 1.07597 1.10427
 C613 C 0.63336 1.11547 1.10583
 H614 H 0.75431 1.06768 1.19796
 H615 H 0.81307 1.11145 1.21349
 H616 H 0.74927 1.20785 1.15469
 H617 H 0.69018 1.03455 1.16804
 H618 H 0.62943 1.01691 1.12666
 H619 H 0.61889 1.13779 1.08780
 C620 C 0.74379 0.86726 0.88032
 C621 C 0.75762 0.90441 0.88915
 C622 C 0.79800 0.91730 0.88116
 C623 C 0.82495 0.89115 0.86221
 C624 C 0.81128 0.85299 0.85215
 C625 C 0.77040 0.84055 0.86205
 O626 O 0.70367 0.86163 0.88892
 C627 C 0.69194 0.89603 0.90345
 C628 C 0.72391 0.92310 0.90414
 C629 C 0.71874 0.96120 0.91737
 C630 C 0.67925 0.97165 0.93145
 C631 C 0.64574 0.94420 0.93185
 C632 C 0.65201 0.90595 0.91701
 H633 H 0.80791 0.94685 0.88804
 H634 H 0.85596 0.90087 0.85395
 H635 H 0.75897 0.81196 0.85343
 H636 H 0.74429 0.98205 0.91717
 H637 H 0.67486 1.00119 0.94235
 H638 H 0.62712 0.88441 0.91711
   
