data_POSCAR
  _audit_creation_date              2014-09-24
  _audit_creation_method            'ToBaCCo'
  _symmetry_space_group_name_H-M    'P1'
  _symmetry_Int_Tables_number       1
  _symmetry_cell_setting            triclinic
  loop_
  _symmetry_equiv_pos_as_xyz
 x,y,z
_cell_length_a 42.8112
_cell_length_b 41.8804
_cell_length_c 44.1784
_cell_angle_alpha 90.573000
_cell_angle_beta 90.018800
_cell_angle_gamma 89.989500
loop_
  _atom_site_label
  _atom_site_type_symbol
  _atom_site_fract_x
  _atom_site_fract_y
  _atom_site_fract_z
C1 C 0.14502 0.15736 0.19433
 C2 C 0.14598 0.18450 0.17606
 C3 C 0.16949 0.18804 0.15472
 C4 C 0.19219 0.16389 0.15116
 C5 C 0.18979 0.13632 0.16803
 C6 C 0.16636 0.13319 0.18987
 C7 C 0.12538 0.14801 0.21726
 N8 N 0.13423 0.11851 0.22686
 C9 C 0.15911 0.10919 0.20968
 C10 C 0.21219 0.11546 0.15789
 N11 N 0.22901 0.12972 0.13570
 C12 C 0.21719 0.15961 0.13166
 C13 C 0.16212 0.21475 0.13804
 N14 N 0.13458 0.22678 0.14844
 C15 C 0.12480 0.20865 0.17185
 H16 H 0.10577 0.16167 0.22582
 H17 H 0.17223 0.08730 0.21228
 H18 H 0.21618 0.09164 0.16639
 H19 H 0.22499 0.17627 0.11467
 H20 H 0.17435 0.22313 0.11820
 H21 H 0.10271 0.21151 0.18349
 C22 C -0.14646 0.84091 0.19549
 C23 C -0.14771 0.81597 0.17411
 C24 C -0.17031 0.81600 0.15151
 C25 C -0.19170 0.84150 0.14984
 C26 C -0.18917 0.86661 0.17014
 C27 C -0.16671 0.86626 0.19297
 C28 C -0.12714 0.84747 0.21977
 N29 N -0.13503 0.87659 0.23156
 C30 C -0.15917 0.88816 0.21495
 C31 C -0.21045 0.88934 0.16224
 N32 N -0.22672 0.87883 0.13769
 C33 C -0.21552 0.84928 0.13005
 C34 C -0.16362 0.79077 0.13227
 N35 N -0.13729 0.77616 0.14233
 C36 C -0.12762 0.79120 0.16799
 H37 H -0.10816 0.83258 0.22754
 H38 H -0.17138 0.91041 0.21913
 H39 H -0.21428 0.91161 0.17431
 H40 H -0.22316 0.83498 0.11090
 H41 H -0.17551 0.78500 0.11129
 H42 H -0.10642 0.78567 0.18025
 C43 C -0.14264 0.16095 -0.19658
 C44 C -0.14996 0.18981 -0.18169
 C45 C -0.17027 0.18974 -0.15727
 C46 C -0.18390 0.16105 -0.14782
 C47 C -0.17554 0.13267 -0.16168
 C48 C -0.15473 0.13260 -0.18603
 C49 C -0.12488 0.15350 -0.22169
 N50 N -0.12572 0.12124 -0.22637
 C51 C -0.14372 0.10842 -0.20423
 C52 C -0.19262 0.10877 -0.14863
 N53 N -0.21221 0.12196 -0.12774
 C54 C -0.20671 0.15403 -0.12693
 C55 C -0.17037 0.22006 -0.14508
 N56 N -0.15049 0.23851 -0.16129
 C57 C -0.13839 0.22040 -0.18413
 H58 H -0.11226 0.17045 -0.23538
 H59 H -0.15012 0.08350 -0.20243
 H60 H -0.19265 0.08399 -0.15587
 H61 H -0.21871 0.17120 -0.11261
 H62 H -0.18214 0.22753 -0.12451
 H63 H -0.12039 0.22814 -0.19962
 C64 C 0.13839 0.83470 -0.18842
 C65 C 0.14048 0.81499 -0.16295
 C66 C 0.16417 0.81977 -0.14204
 C67 C 0.18639 0.84391 -0.14661
 C68 C 0.18427 0.86322 -0.17166
 C69 C 0.16029 0.85839 -0.19286
 C70 C 0.11714 0.83664 -0.21173
 N71 N 0.12571 0.86077 -0.23056
 C72 C 0.15238 0.87394 -0.21905
 C73 C 0.20798 0.88529 -0.16963
 N74 N 0.22498 0.87972 -0.14408
 C75 C 0.21177 0.85418 -0.13003
 C76 C 0.15975 0.79816 -0.11913
 N77 N 0.13425 0.78015 -0.12583
 C78 C 0.12238 0.79016 -0.15264
 H79 H 0.09729 0.82098 -0.21485
 H80 H 0.16459 0.89435 -0.22806
 H81 H 0.21272 0.90351 -0.18618
 H82 H 0.21904 0.84436 -0.10860
 H83 H 0.17408 0.79560 -0.09910
 H84 H 0.10178 0.78043 -0.16355
 C85 C 0.16859 1.13718 0.80906
 C86 C 0.18752 1.13912 0.83490
 C87 C 0.18332 1.16383 0.85546
 C88 C 0.16060 1.18710 0.85023
 C89 C 0.14194 1.18530 0.82481
 C90 C 0.14623 1.16028 0.80380
 C91 C 0.16676 1.11521 0.78587
 N92 N 0.14406 1.12445 0.76617
 C93 C 0.13161 1.15229 0.77702
 C94 C 0.12129 1.21049 0.82647
 N95 N 0.12732 1.22786 0.85213
 C96 C 0.15158 1.21348 0.86659
 C97 C 0.20454 1.15978 0.87842
 N98 N 0.22175 1.13343 0.87203
 C99 C 0.21169 1.12061 0.84543
 H100 H 0.18155 1.09440 0.78340
 H101 H 0.11236 1.16523 0.76706
 H102 H 0.10371 1.21594 0.80971
 H103 H 0.16132 1.22055 0.88823
 H104 H 0.20782 1.17521 0.89797
 H105 H 0.22133 1.09950 0.83460
 C106 C 0.83981 0.85519 0.80435
 C107 C 0.81476 0.86014 0.82439
 C108 C 0.80994 0.83913 0.84791
 C109 C 0.83020 0.81329 0.85200
 C110 C 0.85469 0.80831 0.83224
 C111 C 0.85976 0.82966 0.80846
 C112 C 0.85051 0.87177 0.77969
 N113 N 0.87689 0.85732 0.76889
 C114 C 0.88257 0.83150 0.78665
 C115 C 0.87042 0.78157 0.84180
 N116 N 0.85644 0.77047 0.86737
 C117 C 0.83177 0.79002 0.87365
 C118 C 0.78431 0.84962 0.86382
 N119 N 0.77360 0.87669 0.85079
 C120 C 0.79211 0.88347 0.82672
 H121 H 0.84028 0.89354 0.77123
 H122 H 0.90143 0.81456 0.78374
 H123 H 0.89139 0.77197 0.83151
 H124 H 0.81550 0.78729 0.89218
 H125 H 0.77443 0.83870 0.88376
 H126 H 0.78919 0.90374 0.81197
 C127 C 0.17928 0.85457 1.19466
 C128 C 0.20180 0.84973 1.17202
 C129 C 0.19634 0.82787 1.14907
 C130 C 0.16822 0.81100 1.14806
 C131 C 0.14616 0.81504 1.17072
 C132 C 0.15196 0.83690 1.19452
 C133 C 0.17791 0.87534 1.21886
 N134 N 0.15065 0.87061 1.23408
 C135 C 0.13478 0.84681 1.21934
 C136 C 0.12093 0.79600 1.16298
 N137 N 0.12728 0.78132 1.13607
 C138 C 0.15615 0.79025 1.12694
 C139 C 0.22185 0.82805 1.13023
 N140 N 0.24277 0.84961 1.14114
 C141 C 0.23062 0.86318 1.16663
 H142 H 0.19602 0.89216 1.22516
 H143 H 0.11173 0.83826 1.22523
 H144 H 0.09928 0.79374 1.17541
 H145 H 0.16739 0.78234 1.10623
 H146 H 0.22473 0.81393 1.10976
 H147 H 0.24197 0.88132 1.18036
 C148 C 0.82999 1.14125 1.20033
 C149 C 0.80186 1.14897 1.18558
 C150 C 0.80173 1.17195 1.16317
 C151 C 0.82966 1.18697 1.15478
 C152 C 0.85733 1.17860 1.16865
 C153 C 0.85747 1.15566 1.19144
 C154 C 0.83745 1.12101 1.22378
 N155 N 0.86889 1.12251 1.22892
 C156 C 0.88110 1.14357 1.20884
 C157 C 0.88070 1.19656 1.15597
 N158 N 0.86788 1.21584 1.13479
 C159 C 0.83663 1.21008 1.13386
 C160 C 0.77201 1.17314 1.15141
 N161 N 0.75421 1.15119 1.16572
 C162 C 0.77215 1.13621 1.18660
 H163 H 0.82110 1.10610 1.23584
 H164 H 0.90525 1.15111 1.20784
 H165 H 0.90513 1.19623 1.16230
 H166 H 0.82016 1.22195 1.11917
 H167 H 0.76445 1.18718 1.13231
 H168 H 0.76465 1.11619 1.20010
 O169 O 0.46370 1.06930 1.04730
 O170 O 0.42688 1.04001 1.02134
 C171 C 0.43491 1.06270 1.03989
 O172 O 0.54873 1.05757 0.94064
 O173 O 0.58128 1.02571 0.96842
 C174 C 0.57626 1.04786 0.94867
 O175 O 0.46168 1.06433 0.94241
 O176 O 0.42582 1.03796 0.97153
 C177 C 0.43324 1.05821 0.95074
 O178 O 0.55206 1.05724 1.05048
 O179 O 0.58256 1.02469 1.02071
 C180 C 0.57905 1.04566 1.04216
 Zr181 Zr 0.50623 1.04637 1.03386
 O182 O 0.51420 1.09624 1.03356
 O183 O 0.50336 1.04765 1.08169
 Zr184 Zr 0.50436 1.04430 0.95720
 O185 O 0.51049 1.09444 0.95625
 O186 O 0.50094 1.04230 0.90939
 O187 O 0.47809 1.05387 0.99590
 O188 O 0.53269 1.04887 0.99507
 O189 O 0.54217 0.94533 1.04980
 O190 O 0.57810 0.97208 1.02087
 C191 C 0.57053 0.95136 1.04122
 O192 O 0.45323 0.94614 0.94820
 O193 O 0.42187 0.98220 0.97314
 C194 C 0.42610 0.95741 0.95583
 O195 O 0.54048 0.94392 0.94165
 O196 O 0.57750 0.97222 0.96823
 C197 C 0.56925 0.95092 0.94831
 O198 O 0.45487 0.95247 1.05107
 O199 O 0.42283 0.98589 1.02421
 C200 C 0.42768 0.96417 1.04436
 Zr201 Zr 0.49965 0.96579 1.03488
 O202 O 0.49780 0.91528 1.03590
 O203 O 0.49850 0.96872 1.08276
 Zr204 Zr 0.49824 0.96408 0.95820
 O205 O 0.49730 0.91379 0.95409
 O206 O 0.49350 0.96721 0.91059
 Zr207 Zr 0.45590 1.00895 0.99695
 Zr208 Zr 0.54834 1.00121 0.99517
 O209 O 0.52534 0.95684 0.99607
 O210 O 0.47084 0.96098 0.99725
 O211 O 0.53081 1.00376 1.03973
 O212 O 0.47394 1.00609 0.95271
 O213 O 0.47609 1.00862 1.04039
 O214 O 0.52915 1.00180 0.95125
 H215 H 0.54810 1.06652 0.99518
 H216 H 0.45908 1.00619 0.93550
 H217 H 0.53764 0.93679 0.99576
 H218 H 0.46242 1.01072 1.05839
 H219 H 0.51856 1.02920 0.90179
 H220 H 0.51410 0.97322 0.90223
 H221 H 0.49299 0.90550 0.97452
 H222 H 0.47929 0.90848 1.02406
 H223 H 0.51889 0.97722 1.08967
 H224 H 0.51913 1.03253 1.08944
 H225 H 0.49853 1.10569 1.01985
 H226 H 0.49341 1.10416 0.96828
 O227 O 0.06208 0.45425 -0.04110
 O228 O 0.03002 0.41879 -0.01669
 C229 C 0.05372 0.42559 -0.03367
 O230 O 0.03954 0.54815 0.06360
 O231 O 0.01520 0.58079 0.02951
 C232 C 0.03124 0.57606 0.05402
 O233 O 0.05103 0.45992 0.06181
 O234 O 0.02536 0.42162 0.03396
 C235 C 0.04556 0.43042 0.05431
 O236 O 0.05310 0.54257 -0.05045
 O237 O 0.02245 0.57822 -0.02414
 C238 C 0.04353 0.57133 -0.04427
 Zr239 Zr 0.04092 0.49865 -0.03034
 O240 O 0.08875 0.50395 -0.01966
 O241 O 0.05231 0.49451 -0.07678
 Zr242 Zr 0.03106 0.50238 0.04509
 O243 O 0.07966 0.50978 0.05043
 O244 O 0.02536 0.49980 0.09258
 O245 O 0.04328 0.47235 0.00915
 O246 O 0.04039 0.52902 0.00685
 O247 O -0.05065 0.53712 -0.06149
 O248 O -0.02942 0.57525 -0.02987
 C249 C -0.04538 0.56656 -0.05346
 O250 O -0.06623 0.45354 0.04727
 O251 O -0.03014 0.41855 0.02777
 C252 C -0.05560 0.42490 0.04257
 O253 O -0.06776 0.54247 0.04723
 O254 O -0.03645 0.57794 0.02218
 C255 C -0.05970 0.57120 0.03979
 O256 O -0.05147 0.44713 -0.05360
 O257 O -0.02361 0.41554 -0.02109
 C258 C -0.04372 0.41946 -0.04263
 Zr259 Zr -0.03718 0.49405 -0.04012
 O260 O -0.08619 0.49531 -0.04654
 O261 O -0.03049 0.48756 -0.08727
 Zr262 Zr -0.04689 0.49814 0.03587
 O263 O -0.09622 0.49777 0.03491
 O264 O -0.04868 0.49724 0.08375
 Zr265 Zr -0.00100 0.45078 0.00459
 Zr266 Zr -0.00533 0.54603 0.00065
 O267 O -0.04905 0.52343 -0.00409
 O268 O -0.04694 0.46765 -0.00165
 O269 O 0.00124 0.52433 -0.04224
 O270 O -0.00735 0.47249 0.04724
 O271 O 0.00382 0.46828 -0.03960
 O272 O -0.01013 0.52905 0.04521
 H273 H 0.05745 0.54496 0.00836
 H274 H -0.00874 0.45837 0.06506
 H275 H -0.06797 0.53661 -0.00726
 H276 H 0.00637 0.45284 -0.05656
 H277 H 0.00890 0.51526 0.09837
 H278 H -0.04524 0.51927 0.09136
 H279 H -0.10231 0.49525 0.01347
 H280 H -0.09530 0.47761 -0.03478
 H281 H -0.01738 0.50544 -0.09440
 H282 H 0.03278 0.48930 -0.08764
 H283 H 0.09997 0.50396 -0.03926
 H284 H 0.09039 0.49426 0.03699
 O285 O 1.05968 -0.05966 0.45824
 O286 O 1.02931 -0.03213 0.42443
 C287 C 1.05030 -0.05321 0.43096
 O288 O 0.94942 -0.05796 0.54585
 O289 O 0.97939 -0.02659 0.57738
 C290 C 0.95765 -0.04751 0.57248
 O291 O 0.95386 -0.06921 0.46116
 O292 O 0.97769 -0.03700 0.42639
 C293 C 0.96028 -0.06096 0.43360
 O294 O 1.06660 -0.04900 0.54310
 O295 O 1.03330 -0.02295 0.57575
 C296 C 1.05738 -0.04076 0.57009
 Zr297 Zr 1.04613 -0.03894 0.50045
 O298 O 1.05224 -0.08857 0.50676
 O299 O 1.09492 -0.03330 0.49488
 Zr300 Zr 0.96772 -0.04708 0.50252
 O301 O 0.97544 -0.09647 0.50935
 O302 O 0.91917 -0.05581 0.49987
 O303 O 1.00687 -0.05066 0.47478
 O304 O 1.00792 -0.04726 0.52817
 O305 O 1.05367 0.06156 0.53886
 O306 O 1.02901 0.03004 0.57375
 C307 C 1.04750 0.05317 0.56645
 O308 O 0.94079 0.04539 0.45608
 O309 O 0.97229 0.01715 0.42344
 C310 C 0.94914 0.03627 0.42909
 O311 O 0.94254 0.05088 0.54083
 O312 O 0.97491 0.02585 0.57459
 C313 C 0.95212 0.04499 0.56809
 O314 O 1.04755 0.06046 0.45403
 O315 O 1.02459 0.02332 0.42269
 C316 C 1.04072 0.04905 0.42741
 Zr317 Zr 1.03827 0.04115 0.49722
 O318 O 1.03746 0.09160 0.49797
 O319 O 1.08749 0.04253 0.49247
 Zr320 Zr 0.95956 0.03328 0.49885
 O321 O 0.95492 0.08363 0.49870
 O322 O 0.91042 0.02776 0.49794
 Zr323 Zr 1.00190 -0.00535 0.45477
 Zr324 Zr 1.00364 -0.00019 0.54467
 O325 O 0.99888 0.04458 0.52390
 O326 O 0.99766 0.04199 0.47091
 O327 O 1.04875 0.00334 0.52574
 O328 O 0.95741 -0.00913 0.47473
 O329 O 1.04736 0.00018 0.47219
 O330 O 0.95798 -0.00575 0.52759
 H331 H 1.00964 -0.06472 0.54307
 H332 H 0.93867 -0.01215 0.46186
 H333 H 0.99748 0.06422 0.53649
 H334 H 1.06489 0.00120 0.45758
 H335 H 0.90874 -0.03692 0.50886
 H336 H 0.90418 0.01680 0.51673
 H337 H 0.96439 0.09149 0.47974
 H338 H 1.01604 0.09798 0.49234
 H339 H 1.09673 0.03722 0.51232
 H340 H 1.10215 -0.01830 0.51084
 H341 H 1.03752 -0.09961 0.49296
 H342 H 0.98444 -0.10543 0.49047
 C343 C 1.10522 0.11766 0.27389
 C344 C 1.09420 0.10084 0.29907
 C345 C 1.09785 0.06733 0.30019
 C346 C 1.11313 0.05134 0.27650
 C347 C 1.12528 0.06837 0.25218
 C348 C 1.12149 0.10178 0.25036
 C349 C 1.08677 0.05043 0.32525
 C350 C 1.07334 0.06678 0.34986
 C351 C 1.07064 0.10044 0.34922
 C352 C 1.08047 0.11718 0.32357
 C353 C 1.05864 0.11684 0.37451
 C354 C 1.04957 0.10008 0.40024
 C355 C 1.05147 0.06665 0.40073
 C356 C 1.06312 0.05007 0.37538
 H357 H 1.10267 0.14337 0.27367
 H358 H 1.11616 0.02565 0.27700
 H359 H 1.13693 0.05505 0.23439
 H360 H 1.08929 0.02466 0.32592
 H361 H 1.07812 0.14296 0.32299
 H362 H 1.05656 0.14263 0.37450
 H363 H 1.04044 0.11316 0.41958
 H364 H 1.06484 0.02424 0.37584
 C365 C 0.89249 -0.12577 0.27930
 C366 C 0.90348 -0.11014 0.30551
 C367 C 0.90200 -0.07644 0.30749
 C368 C 0.88899 -0.05901 0.28384
 C369 C 0.87675 -0.07473 0.25864
 C370 C 0.87824 -0.10828 0.25591
 C371 C 0.91301 -0.06058 0.33330
 C372 C 0.92447 -0.07796 0.35774
 C373 C 0.92504 -0.11170 0.35652
 C374 C 0.91500 -0.12763 0.33013
 C375 C 0.93563 -0.12874 0.38179
 C376 C 0.94603 -0.11239 0.40772
 C377 C 0.94645 -0.07891 0.40834
 C378 C 0.93540 -0.06189 0.38343
 H379 H 0.89325 -0.15160 0.27810
 H380 H 0.88773 -0.03317 0.28507
 H381 H 0.86686 -0.06032 0.24087
 H382 H 0.91220 -0.03469 0.33457
 H383 H 0.91574 -0.15350 0.32893
 H384 H 0.93612 -0.15461 0.38141
 H385 H 0.95475 -0.12578 0.42680
 H386 H 0.93545 -0.03597 0.38407
 C387 C 0.89245 0.11945 0.72191
 C388 C 0.90284 0.10166 0.69680
 C389 C 0.91010 0.06894 0.70004
 C390 C 0.90584 0.05432 0.72806
 C391 C 0.89396 0.07176 0.75255
 C392 C 0.88716 0.10460 0.74993
 C393 C 0.92109 0.05127 0.67513
 C394 C 0.92381 0.06564 0.64675
 C395 C 0.91514 0.09798 0.64317
 C396 C 0.90522 0.11593 0.66831
 C397 C 0.91657 0.11182 0.61444
 C398 C 0.92729 0.09403 0.58965
 C399 C 0.93731 0.06237 0.59335
 C400 C 0.93517 0.04818 0.62190
 H401 H 0.88661 0.14438 0.71896
 H402 H 0.91123 0.02924 0.73095
 H403 H 0.89090 0.05957 0.77381
 H404 H 0.92721 0.02629 0.67770
 H405 H 0.89904 0.14087 0.66566
 H406 H 0.90967 0.13646 0.61123
 H407 H 0.92886 0.10540 0.56779
 H408 H 0.94250 0.02360 0.62475
 C409 C 1.12514 -0.11131 0.72158
 C410 C 1.10893 -0.10090 0.69583
 C411 C 1.07671 -0.10752 0.69284
 C412 C 1.06156 -0.12546 0.71500
 C413 C 1.07802 -0.13663 0.74005
 C414 C 1.10995 -0.12933 0.74414
 C415 C 1.06018 -0.09631 0.66767
 C416 C 1.07567 -0.07946 0.64489
 C417 C 1.10821 -0.07403 0.64714
 C418 C 1.12453 -0.08432 0.67284
 C419 C 1.12385 -0.05849 0.62355
 C420 C 1.10738 -0.04831 0.59805
 C421 C 1.07499 -0.05278 0.59616
 C422 C 1.05921 -0.06820 0.61968
 H423 H 1.14986 -0.10623 0.72335
 H424 H 1.03690 -0.13092 0.71294
 H425 H 1.06513 -0.14990 0.75678
 H426 H 1.03534 -0.10103 0.66565
 H427 H 1.14939 -0.07970 0.67478
 H428 H 1.14879 -0.05431 0.62477
 H429 H 1.11977 -0.03625 0.58010
 H430 H 1.03419 -0.07183 0.61808
 C431 C 0.27901 1.13279 1.11024
 C432 C 0.30442 1.11690 1.09642
 C433 C 0.30186 1.08397 1.08932
 C434 C 0.27506 1.06712 1.09754
 C435 C 0.25115 1.08241 1.11333
 C436 C 0.25252 1.11541 1.11966
 C437 C 0.32649 1.06801 1.07494
 C438 C 0.35467 1.08381 1.06951
 C439 C 0.35835 1.11610 1.07826
 C440 C 0.33279 1.13284 1.09076
 C441 C 0.38770 1.13073 1.07479
 C442 C 0.41308 1.11332 1.06306
 C443 C 0.40909 1.08151 1.05344
 C444 C 0.37956 1.06728 1.05620
 H445 H 0.28078 1.15801 1.11566
 H446 H 0.27291 1.04183 1.09247
 H447 H 0.23091 1.06850 1.11966
 H448 H 0.32415 1.04290 1.06904
 H449 H 0.33531 1.15782 1.09698
 H450 H 0.39114 1.15541 1.08155
 H451 H 0.43558 1.12489 1.06090
 H452 H 0.37596 1.04299 1.04837
 C453 C 0.27167 0.88391 0.88680
 C454 C 0.29777 0.90141 0.89678
 C455 C 0.30239 0.93294 0.88661
 C456 C 0.28134 0.94604 0.86592
 C457 C 0.25593 0.92819 0.85537
 C458 C 0.25036 0.89694 0.86585
 C459 C 0.32811 0.95073 0.89705
 C460 C 0.34989 0.93698 0.91677
 C461 C 0.34583 0.90500 0.92608
 C462 C 0.31959 0.88763 0.91642
 C463 C 0.36826 0.89077 0.94473
 C464 C 0.39457 0.90795 0.95396
 C465 C 0.39844 0.93983 0.94538
 C466 C 0.37596 0.95445 0.92703
 H467 H 0.26885 0.85965 0.89455
 H468 H 0.28458 0.97012 0.85774
 H469 H 0.24013 0.93957 0.83974
 H470 H 0.33137 0.97508 0.88951
 H471 H 0.31636 0.86326 0.92390
 H472 H 0.36560 0.86627 0.95195
 H473 H 0.41180 0.89649 0.96816
 H474 H 0.37918 0.97905 0.92024
 C475 C 0.72549 0.87946 1.10838
 C476 C 0.69960 0.89656 1.09749
 C477 C 0.69888 0.93023 1.10044
 C478 C 0.72364 0.94620 1.11452
 C479 C 0.74847 0.92903 1.12652
 C480 C 0.74974 0.89541 1.12397
 C481 C 0.67318 0.94747 1.08986
 C482 C 0.64759 0.93145 1.07722
 C483 C 0.64762 0.89772 1.07510
 C484 C 0.67389 0.88050 1.08473
 C485 C 0.62129 0.88188 1.06343
 C486 C 0.59547 0.89936 1.05349
 C487 C 0.59596 0.93284 1.05460
 C488 C 0.62189 0.94874 1.06669
 H489 H 0.72558 0.85365 1.10657
 H490 H 0.72352 0.97200 1.11683
 H491 H 0.76711 0.94240 1.13726
 H492 H 0.67285 0.97331 1.09194
 H493 H 0.67411 0.85466 1.08277
 H494 H 0.62078 0.85606 1.06178
 H495 H 0.57554 0.88684 1.04404
 H496 H 0.62187 0.97457 1.06807
 C497 C 0.73617 1.12153 0.89411
 C498 C 0.71058 1.10412 0.90491
 C499 C 0.71385 1.07120 0.91095
 C500 C 0.74239 1.05604 0.90515
 C501 C 0.76712 1.07306 0.89255
 C502 C 0.76441 1.10600 0.88677
 C503 C 0.68830 1.05376 0.92182
 C504 C 0.65901 1.06842 0.92498
 C505 C 0.65543 1.10100 0.91754
 C506 C 0.68138 1.11883 0.90836
 C507 C 0.62584 1.11515 0.91904
 C508 C 0.60002 1.09727 0.92796
 C509 C 0.60342 1.06517 0.93639
 C510 C 0.63310 1.05094 0.93507
 H511 H 0.73314 1.14661 0.88910
 H512 H 0.74530 1.03079 0.90949
 H513 H 0.78867 1.06045 0.88780
 H514 H 0.69098 1.02863 0.92693
 H515 H 0.67863 1.14392 0.90305
 H516 H 0.62264 1.14002 0.91324
 H517 H 0.57747 1.10895 0.92921
 H518 H 0.63604 1.02635 0.94179
 C519 C 0.12839 0.28076 0.12739
 C520 C 0.10963 0.30430 0.11397
 C521 C 0.07836 0.29713 0.10595
 C522 C 0.06618 0.26684 0.11218
 C523 C 0.08471 0.24394 0.12629
 C524 C 0.11592 0.25062 0.13384
 C525 C 0.05969 0.32037 0.09210
 C526 C 0.07156 0.35105 0.08689
 C527 C 0.10251 0.35850 0.09576
 C528 C 0.12146 0.33499 0.10884
 C529 C 0.11397 0.38945 0.09156
 C530 C 0.09507 0.41280 0.07864
 C531 C 0.06452 0.40557 0.06915
 C532 C 0.05291 0.37451 0.07319
 H533 H 0.15237 0.28600 0.13353
 H534 H 0.04224 0.26098 0.10639
 H535 H 0.07481 0.22074 0.13109
 H536 H 0.03584 0.31469 0.08572
 H537 H 0.14526 0.34069 0.11535
 H538 H 0.13754 0.39567 0.09832
 H539 H 0.10462 0.43647 0.07545
 H540 H 0.02932 0.36871 0.06606
 C541 C -0.13017 0.27395 -0.12129
 C542 C -0.11613 0.30259 -0.11189
 C543 C -0.11138 0.32737 -0.13288
 C544 C -0.12058 0.32274 -0.16315
 C545 C -0.13373 0.29362 -0.17253
 C546 C -0.13868 0.26910 -0.15165
 C547 C -0.09702 0.35599 -0.12334
 C548 C -0.08651 0.35961 -0.09332
 C549 C -0.09086 0.33434 -0.07267
 C550 C -0.10605 0.30633 -0.08194
 C551 C -0.07952 0.33721 -0.04308
 C552 C -0.06385 0.36475 -0.03390
 C553 C -0.05970 0.39036 -0.05386
 C554 C -0.07131 0.38777 -0.08359
 H555 H -0.13338 0.25485 -0.10522
 H556 H -0.11709 0.34139 -0.17963
 H557 H -0.14013 0.29015 -0.19604
 H558 H -0.09352 0.37512 -0.13935
 H559 H -0.10948 0.28714 -0.06595
 H560 H -0.08253 0.31801 -0.02706
 H561 H -0.05535 0.36617 -0.01084
 H562 H -0.06799 0.40728 -0.09919
 C563 C 0.11243 0.72599 -0.12081
 C564 C 0.10045 0.70128 -0.10295
 C565 C 0.09675 0.70605 -0.07140
 C566 C 0.10608 0.73512 -0.05818
 C567 C 0.11879 0.75926 -0.07604
 C568 C 0.12172 0.75504 -0.10748
 C569 C 0.08403 0.68164 -0.05361
 C570 C 0.07585 0.65216 -0.06682
 C571 C 0.08065 0.64709 -0.09821
 C572 C 0.09248 0.67178 -0.11610
 C573 C 0.07371 0.61727 -0.11121
 C574 C 0.06218 0.59264 -0.09336
 C575 C 0.05663 0.59756 -0.06234
 C576 C 0.06326 0.62750 -0.04917
 H577 H 0.11519 0.72249 -0.14501
 H578 H 0.10372 0.73912 -0.03402
 H579 H 0.12590 0.78150 -0.06541
 H580 H 0.08084 0.68546 -0.02948
 H581 H 0.09577 0.66793 -0.14021
 H582 H 0.07735 0.61293 -0.13518
 H583 H 0.05691 0.56983 -0.10395
 H584 H 0.05915 0.63134 -0.02520
 C585 C -0.13492 0.72473 0.11484
 C586 C -0.11755 0.70050 0.10046
 C587 C -0.08492 0.70423 0.09662
 C588 C -0.07019 0.73188 0.10759
 C589 C -0.08751 0.75541 0.12260
 C590 C -0.11990 0.75202 0.12636
 C591 C -0.06744 0.68006 0.08241
 C592 C -0.08194 0.65169 0.07288
 C593 C -0.11444 0.64764 0.07729
 C594 C -0.13212 0.67228 0.09057
 C595 C -0.12862 0.61871 0.06891
 C596 C -0.11072 0.59387 0.05669
 C597 C -0.07852 0.59780 0.05197
 C598 C -0.06431 0.62695 0.05971
 H599 H -0.15989 0.72205 0.11797
 H600 H -0.04523 0.73511 0.10497
 H601 H -0.07568 0.77650 0.13112
 H602 H -0.04245 0.68300 0.07944
 H603 H -0.15704 0.66919 0.09387
 H604 H -0.15344 0.61512 0.07225
 H605 H -0.12209 0.57158 0.05069
 H606 H -0.03938 0.62995 0.05642
 C607 C 1.11920 0.12394 0.71695
 C608 C 1.10932 0.10712 0.69103
 C609 C 1.11393 0.07375 0.68907
 C610 C 1.12971 0.05804 0.71231
 C611 C 1.14045 0.07507 0.73754
 C612 C 1.13482 0.10816 0.74065
 C613 C 1.10270 0.05659 0.66395
 C614 C 1.08776 0.07253 0.64027
 C615 C 1.08464 0.10616 0.64139
 C616 C 1.09504 0.12320 0.66697
 C617 C 1.07096 0.12211 0.61696
 C618 C 1.05993 0.10484 0.59192
 C619 C 1.06176 0.07143 0.59134
 C620 C 1.07577 0.05534 0.61548
 H621 H 1.11559 0.14951 0.71807
 H622 H 1.13369 0.03251 0.71102
 H623 H 1.15192 0.06177 0.75520
 H624 H 1.10563 0.03087 0.66279
 H625 H 1.09204 0.14891 0.66814
 H626 H 1.06857 0.14787 0.61731
 H627 H 1.04894 0.11745 0.57346
 H628 H 1.07734 0.02948 0.61491
 C629 C 0.88205 -0.11259 0.72257
 C630 C 0.89989 -0.10327 0.69750
 C631 C 0.93128 -0.11334 0.69483
 C632 C 0.94402 -0.13323 0.71691
 C633 C 0.92586 -0.14326 0.74131
 C634 C 0.89462 -0.13297 0.74477
 C635 C 0.94925 -0.10375 0.66993
 C636 C 0.93587 -0.08509 0.64710
 C637 C 0.90412 -0.07589 0.64935
 C638 C 0.88653 -0.08457 0.67473
 C639 C 0.89039 -0.05831 0.62601
 C640 C 0.90789 -0.04991 0.60068
 C641 C 0.93951 -0.05831 0.59859
 C642 C 0.95356 -0.07571 0.62189
 H643 H 0.85793 -0.10501 0.72387
 H644 H 0.96804 -0.14126 0.71523
 H645 H 0.93691 -0.15824 0.75796
 H646 H 0.97344 -0.11124 0.66807
 H647 H 0.86231 -0.07717 0.67653
 H648 H 0.86611 -0.05109 0.62733
 H649 H 0.89694 -0.03619 0.58292
 H650 H 0.97797 -0.08227 0.62014
 C651 C 1.11936 -0.12595 0.27975
 C652 C 1.11020 -0.10903 0.30596
 C653 C 1.12130 -0.07764 0.31105
 C654 C 1.14227 -0.06419 0.29052
 C655 C 1.15239 -0.08163 0.26528
 C656 C 1.14089 -0.11265 0.25920
 C657 C 1.11156 -0.06031 0.33672
 C658 C 1.09182 -0.07444 0.35809
 C659 C 1.08176 -0.10635 0.35370
 C660 C 1.09056 -0.12323 0.32743
 C661 C 1.06297 -0.12081 0.37567
 C662 C 1.05393 -0.10372 0.40156
 C663 C 1.06312 -0.07185 0.40560
 C664 C 1.08197 -0.05720 0.38382
 H665 H 1.11082 -0.15004 0.27623
 H666 H 1.15109 -0.04018 0.29410
 H667 H 1.16837 -0.07011 0.24992
 H668 H 1.11963 -0.03599 0.34025
 H669 H 1.08240 -0.14749 0.32387
 H670 H 1.05508 -0.14523 0.37274
 H671 H 1.03891 -0.11502 0.41802
 H672 H 1.08881 -0.03246 0.38693
 C673 C 0.87094 0.09719 0.27805
 C674 C 0.88881 0.08485 0.30200
 C675 C 0.92134 0.08048 0.29835
 C676 C 0.93552 0.08884 0.27105
 C677 C 0.91796 0.10246 0.24794
 C678 C 0.88546 0.10719 0.25105
 C679 C 0.93937 0.06860 0.32225
 C680 C 0.92556 0.06235 0.35033
 C681 C 0.89314 0.06749 0.35431
 C682 C 0.87487 0.07802 0.32996
 C683 C 0.87965 0.06266 0.38280
 C684 C 0.89810 0.05309 0.40717
 C685 C 0.93020 0.04738 0.40333
 C686 C 0.94378 0.05179 0.37474
 H687 H 0.84615 0.10094 0.28138
 H688 H 0.96040 0.08550 0.26778
 H689 H 0.92996 0.10867 0.22729
 H690 H 0.96430 0.06512 0.31927
 H691 H 0.84999 0.08178 0.33303
 H692 H 0.85492 0.06666 0.38636
 H693 H 0.88714 0.04968 0.42899
 H694 H 0.96861 0.04777 0.37171
 C695 C 0.12500 0.27504 -0.11597
 C696 C 0.10839 0.30118 -0.10424
 C697 C 0.07740 0.30670 -0.11379
 C698 C 0.06405 0.28674 -0.13588
 C699 C 0.08096 0.26107 -0.14795
 C700 C 0.11145 0.25428 -0.13766
 C701 C 0.06031 0.33209 -0.10116
 C702 C 0.07417 0.35251 -0.07967
 C703 C 0.10565 0.34774 -0.07104
 C704 C 0.12244 0.32191 -0.08314
 C705 C 0.11983 0.36897 -0.05046
 C706 C 0.10297 0.39469 -0.03848
 C707 C 0.07156 0.39891 -0.04633
 C708 C 0.05716 0.37781 -0.06681
 H709 H 0.14885 0.27156 -0.10862
 H710 H 0.04039 0.29081 -0.14367
 H711 H 0.06940 0.24584 -0.16436
 H712 H 0.03634 0.33606 -0.10817
 H713 H 0.14640 0.31795 -0.07612
 H714 H 0.14396 0.36575 -0.04373
 H715 H 0.11418 0.41093 -0.02263
 H716 H 0.03288 0.38142 -0.07297
 C717 C -0.12984 0.26896 0.11131
 C718 C -0.11297 0.29326 0.09704
 C719 C -0.08151 0.28799 0.08856
 C720 C -0.06759 0.25836 0.09431
 C721 C -0.08440 0.23450 0.10901
 C722 C -0.11555 0.23965 0.11787
 C723 C -0.06433 0.31259 0.07509
 C724 C -0.07801 0.34260 0.07057
 C725 C -0.10949 0.34780 0.07906
 C726 C -0.12685 0.32302 0.09191
 C727 C -0.12298 0.37791 0.07501
 C728 C -0.10537 0.40283 0.06315
 C729 C -0.07403 0.39806 0.05469
 C730 C -0.06057 0.36769 0.05820
 H731 H -0.15369 0.27331 0.11843
 H732 H -0.04354 0.25386 0.08792
 H733 H -0.07304 0.21197 0.11358
 H734 H -0.04017 0.30858 0.06868
 H735 H -0.15096 0.32709 0.09847
 H736 H -0.14707 0.38230 0.08133
 H737 H -0.11637 0.42592 0.06052
 H738 H -0.03638 0.36375 0.05193
 C739 C -0.11577 0.72031 -0.12890
 C740 C -0.10607 0.69412 -0.11168
 C741 C -0.11361 0.69289 -0.08058
 C742 C -0.13185 0.71709 -0.06755
 C743 C -0.14239 0.74247 -0.08504
 C744 C -0.13412 0.74486 -0.11586
 C745 C -0.10290 0.66748 -0.06299
 C746 C -0.08559 0.64267 -0.07634
 C747 C -0.07934 0.64302 -0.10778
 C748 C -0.08921 0.66898 -0.12517
 C749 C -0.06328 0.61734 -0.12125
 C750 C -0.05313 0.59180 -0.10365
 C751 C -0.05823 0.59202 -0.07231
 C752 C -0.07451 0.61743 -0.05873
 H753 H -0.10990 0.72083 -0.15272
 H754 H -0.13796 0.71644 -0.04376
 H755 H -0.15590 0.76091 -0.07383
 H756 H -0.10820 0.66689 -0.03899
 H757 H -0.08392 0.66956 -0.14917
 H758 H -0.05851 0.61706 -0.14533
 H759 H -0.04046 0.57232 -0.11433
 H760 H -0.07869 0.61735 -0.03451
 C761 C 0.09564 0.73241 0.13297
 C762 C 0.08106 0.70864 0.11529
 C763 C 0.07707 0.71320 0.08381
 C764 C 0.08735 0.74163 0.07065
 C765 C 0.10281 0.76459 0.08822
 C766 C 0.10743 0.75995 0.11933
 C767 C 0.06416 0.68876 0.06578
 C768 C 0.05635 0.65932 0.07860
 C769 C 0.06032 0.65485 0.11010
 C770 C 0.07201 0.67972 0.12830
 C771 C 0.05354 0.62516 0.12277
 C772 C 0.04390 0.59981 0.10436
 C773 C 0.04021 0.60377 0.07300
 C774 C 0.04577 0.63385 0.06030
 H775 H 0.09970 0.72863 0.15689
 H776 H 0.08456 0.74554 0.04659
 H777 H 0.11187 0.78577 0.07745
 H778 H 0.06144 0.69218 0.04161
 H779 H 0.07529 0.67608 0.15237
 H780 H 0.05638 0.62130 0.14684
 H781 H 0.03929 0.57695 0.11471
 H782 H 0.04307 0.63706 0.03612
 C783 C 0.27688 1.11865 0.87683
 C784 C 0.30229 1.10902 0.89453
 C785 C 0.29770 1.10170 0.92542
 C786 C 0.26794 1.10519 0.93828
 C787 C 0.24297 1.11574 0.92066
 C788 C 0.24725 1.12212 0.88985
 C789 C 0.32290 1.09108 0.94291
 C790 C 0.35272 1.08825 0.93004
 C791 C 0.35750 1.09681 0.89949
 C792 C 0.33221 1.10686 0.88186
 C793 C 0.38747 1.09483 0.88693
 C794 C 0.41236 1.08360 0.90419
 C795 C 0.40764 1.07376 0.93415
 C796 C 0.37778 1.07654 0.94710
 H797 H 0.28015 1.12424 0.85314
 H798 H 0.26404 1.10000 0.96196
 H799 H 0.22016 1.11868 0.93089
 H800 H 0.31931 1.08494 0.96646
 H801 H 0.33581 1.11292 0.85830
 H802 H 0.39159 1.10148 0.86363
 H803 H 0.43514 1.08150 0.89368
 H804 H 0.37398 1.06922 0.97029
 C805 C 0.28306 0.88899 1.12769
 C806 C 0.31059 0.89712 1.11241
 C807 C 0.32787 0.87323 1.09693
 C808 C 0.31726 0.84157 1.09710
 C809 C 0.28952 0.83379 1.11194
 C810 C 0.27210 0.85742 1.12720
 C811 C 0.35512 0.88146 1.08117
 C812 C 0.36498 0.91338 1.08024
 C813 C 0.34752 0.93722 1.09569
 C814 C 0.32066 0.92890 1.11185
 C815 C 0.35712 0.96914 1.09459
 C816 C 0.38352 0.97744 1.07803
 C817 C 0.40068 0.95414 1.06227
 C818 C 0.39175 0.92200 1.06379
 H819 H 0.26955 0.90740 1.13907
 H820 H 0.33020 0.82292 1.08544
 H821 H 0.28166 0.80922 1.11159
 H822 H 0.36835 0.86317 1.06925
 H823 H 0.30734 0.94724 1.12363
 H824 H 0.34422 0.98766 1.10649
 H825 H 0.39104 1.00206 1.07802
 H826 H 0.40519 0.90401 1.05172
 C827 C 0.72190 1.11323 1.13726
 C828 C 0.69343 1.10482 1.12364
 C829 C 0.66649 1.12364 1.12894
 C830 C 0.66876 1.15082 1.14774
 C831 C 0.69757 1.15961 1.16041
 C832 C 0.72418 1.14081 1.15527
 C833 C 0.63809 1.11541 1.11473
 C834 C 0.63667 1.08929 1.09447
 C835 C 0.66398 1.07108 1.08893
 C836 C 0.69188 1.07852 1.10395
 C837 C 0.66327 1.04592 1.06797
 C838 C 0.63586 1.03870 1.05249
 C839 C 0.60805 1.05574 1.05819
 C840 C 0.60865 1.08122 1.07931
 H841 H 0.74271 1.09918 1.13288
 H842 H 0.64851 1.16571 1.15198
 H843 H 0.69929 1.18123 1.17395
 H844 H 0.61738 1.12971 1.11891
 H845 H 0.71263 1.06428 1.09970
 H846 H 0.68403 1.03191 1.06329
 H847 H 0.63652 1.01926 1.03618
 H848 H 0.58759 1.09487 1.08368
 C849 C 0.71995 0.87948 0.87038
 C850 C 0.69493 0.89688 0.88266
 C851 C 0.69765 0.93033 0.88660
 C852 C 0.72489 0.94590 0.87702
 C853 C 0.74949 0.92837 0.86426
 C854 C 0.74741 0.89504 0.86141
 C855 C 0.67325 0.94756 0.90030
 C856 C 0.64598 0.93182 0.90960
 C857 C 0.64280 0.89858 0.90449
 C858 C 0.66740 0.88129 0.89130
 C859 C 0.61506 0.88316 0.91280
 C860 C 0.59084 0.90040 0.92644
 C861 C 0.59422 0.93315 0.93258
 C862 C 0.62182 0.94875 0.92401
 H863 H 0.71822 0.85377 0.86780
 H864 H 0.72728 0.97153 0.87966
 H865 H 0.77056 0.94066 0.85747
 H866 H 0.67551 0.97313 0.90382
 H867 H 0.66517 0.85570 0.88789
 H868 H 0.61215 0.85775 0.90882
 H869 H 0.56972 0.88799 0.93292
 H870 H 0.62429 0.97409 0.92829
   
