data_POSCAR
  _audit_creation_date              2014-09-24
  _audit_creation_method            'ToBaCCo'
  _symmetry_space_group_name_H-M    'P1'
  _symmetry_Int_Tables_number       1
  _symmetry_cell_setting            triclinic
  loop_
  _symmetry_equiv_pos_as_xyz
 x,y,z
_cell_length_a 36.1952
_cell_length_b 36.2337
_cell_length_c 36.2383
_cell_angle_alpha 103.969400
_cell_angle_beta 76.063800
_cell_angle_gamma 75.131000
loop_
  _atom_site_label
  _atom_site_type_symbol
  _atom_site_fract_x
  _atom_site_fract_y
  _atom_site_fract_z
C1 C 0.51887 0.48970 0.00166
 C2 C 0.48933 0.51909 -0.00216
 C3 C 0.45004 0.51425 -0.00334
 C4 C 0.49439 0.55769 -0.00551
 C5 C 0.55751 0.49487 0.00491
 C6 C 0.51417 0.45042 0.00289
 C7 C 0.43689 0.51842 -0.03580
 C8 C 0.39981 0.51468 -0.03729
 C9 C 0.37408 0.50688 -0.00595
 C10 C 0.38811 0.50286 0.02677
 C11 C 0.42526 0.50674 0.02806
 C12 C 0.52666 0.55835 -0.03570
 C13 C 0.52957 0.59511 -0.03952
 C14 C 0.49999 0.63179 -0.01354
 C15 C 0.46789 0.63092 0.01672
 C16 C 0.46508 0.59428 0.02059
 C17 C 0.55817 0.52719 0.03502
 C18 C 0.59498 0.53017 0.03879
 C19 C 0.63170 0.50061 0.01280
 C20 C 0.63081 0.46849 -0.01741
 C21 C 0.59413 0.46560 -0.02121
 C22 C 0.51843 0.43740 0.03554
 C23 C 0.51486 0.40027 0.03694
 C24 C 0.50723 0.37524 0.00552
 C25 C 0.50313 0.38829 -0.02729
 C26 C 0.50678 0.42546 -0.02869
 H27 H 0.45580 0.52398 -0.06053
 H28 H 0.39296 0.51608 -0.06441
 H29 H 0.36993 0.49899 0.05298
 H30 H 0.43443 0.50451 0.05400
 H31 H 0.54915 0.53042 -0.05670
 H32 H 0.55437 0.59483 -0.06342
 H33 H 0.43991 0.59442 0.04401
 H34 H 0.53022 0.54964 0.05603
 H35 H 0.59470 0.55499 0.06264
 H36 H 0.65857 0.44560 -0.03827
 H37 H 0.59427 0.44040 -0.04459
 H38 H 0.52425 0.45621 0.06013
 H39 H 0.51770 0.39130 0.06282
 H40 H 0.49791 0.36939 -0.05224
 H41 H 0.50422 0.43461 -0.05455
 H42 H 0.44499 0.65866 0.03759
 C43 C 0.00283 0.50940 0.52089
 C44 C -0.00060 0.48001 0.49174
 C45 C -0.00363 0.44153 0.49742
 C46 C -0.00136 0.48463 0.45229
 C47 C 0.00419 0.54847 0.51556
 C48 C 0.00567 0.50433 0.55968
 C49 C 0.02379 0.40486 0.46946
 C50 C 0.02084 0.36826 0.47338
 C51 C -0.00982 0.36756 0.50522
 C52 C -0.03749 0.40436 0.53312
 C53 C -0.03446 0.44106 0.52920
 C54 C 0.03050 0.49181 0.42752
 C55 C 0.02940 0.49573 0.39033
 C56 C -0.00342 0.49222 0.37711
 C57 C -0.03503 0.48462 0.40186
 C58 C -0.03391 0.48071 0.43900
 C59 C -0.02727 0.57362 0.50746
 C60 C -0.02578 0.61066 0.50337
 C61 C 0.00701 0.62336 0.50771
 C62 C 0.03834 0.59810 0.51596
 C63 C 0.03684 0.56112 0.51999
 C64 C -0.02116 0.53359 0.59575
 C65 C -0.01777 0.53076 0.63257
 C66 C 0.01274 0.49871 0.63413
 C67 C 0.03946 0.46918 0.59797
 C68 C 0.03610 0.47210 0.56103
 H69 H 0.04753 0.40460 0.44452
 H70 H 0.04216 0.34046 0.45102
 H71 H -0.06131 0.40475 0.55805
 H72 H -0.05633 0.46907 0.55071
 H73 H 0.05621 0.49426 0.43698
 H74 H 0.05408 0.50182 0.37204
 H75 H -0.05857 0.47479 0.45754
 H76 H -0.05312 0.56474 0.50474
 H77 H -0.05067 0.62975 0.49765
 H78 H 0.06421 0.60679 0.51899
 H79 H 0.06135 0.54215 0.52633
 H80 H -0.04477 0.55873 0.59534
 H81 H -0.03918 0.55363 0.65991
 H82 H 0.06356 0.44442 0.59823
 H83 H 0.05766 0.44967 0.53350
 H84 H -0.06036 0.48106 0.39222
 C85 C 0.50946 0.00283 0.47942
 C86 C 0.48011 -0.00077 0.50849
 C87 C 0.48474 -0.00165 0.54794
 C88 C 0.44166 -0.00390 0.50272
 C89 C 0.50444 0.00554 0.44054
 C90 C 0.54845 0.00447 0.48488
 C91 C 0.48101 -0.03424 0.56100
 C92 C 0.48484 -0.03555 0.59812
 C93 C 0.49219 -0.00394 0.62366
 C94 C 0.49549 0.02899 0.61014
 C95 C 0.49166 0.03012 0.57292
 C96 C 0.44129 -0.03477 0.47092
 C97 C 0.40461 -0.03786 0.46690
 C98 C 0.36773 -0.01021 0.49470
 C99 C 0.36834 0.02048 0.52656
 C100 C 0.40491 0.02348 0.53059
 C101 C 0.47210 0.03575 0.43907
 C102 C 0.46919 0.03893 0.40206
 C103 C 0.49886 0.01225 0.36595
 C104 C 0.53104 -0.01803 0.36764
 C105 C 0.53385 -0.02124 0.40454
 C106 C 0.56082 0.03719 0.48069
 C107 C 0.59767 0.03906 0.48493
 C108 C 0.62359 0.00792 0.49324
 C109 C 0.61063 -0.02501 0.49736
 C110 C 0.57372 -0.02676 0.49298
 H111 H 0.47506 -0.05880 0.54235
 H112 H 0.48020 -0.06080 0.60711
 H113 H 0.50245 0.05355 0.62738
 H114 H 0.49421 0.05582 0.56353
 H115 H 0.46937 -0.05661 0.44947
 H116 H 0.40506 -0.06171 0.44195
 H117 H 0.40459 0.04725 0.55555
 H118 H 0.44954 0.05727 0.46654
 H119 H 0.44433 0.06286 0.40171
 H120 H 0.55401 -0.03941 0.34037
 H121 H 0.55908 -0.04468 0.40504
 H122 H 0.54158 0.06171 0.47460
 H123 H 0.60470 0.06593 0.48307
 H124 H 0.62953 -0.05065 0.50209
 H125 H 0.56511 -0.05281 0.49535
 H126 H 0.34047 0.04178 0.54886
 O127 O 0.46737 0.00757 -0.04942
 O128 O 0.46365 0.02067 0.05552
 O129 O 0.46414 0.06652 0.00987
 O130 O 0.46802 -0.03880 -0.00423
 O131 O 0.53474 -0.05869 -0.02343
 O132 O 0.53087 0.04646 -0.00925
 O133 O 0.53036 0.00066 0.03642
 O134 O 0.53410 -0.01235 -0.06866
 Cu135 Cu 0.45907 0.01595 0.00487
 Cu136 Cu 0.53924 -0.00802 -0.01813
 C137 C 0.50128 -0.00416 -0.07668
 C138 C 0.49637 0.01268 0.06367
 C139 C 0.49694 0.07417 0.00231
 C140 C 0.50204 -0.06648 -0.01597
 O141 O -0.05840 0.53519 1.02315
 O142 O 0.04689 0.53107 1.00938
 O143 O 0.00129 0.53057 0.96347
 O144 O -0.01223 0.53452 1.06862
 O145 O 0.00754 0.46786 1.04947
 O146 O 0.02114 0.46392 0.94447
 O147 O 0.06680 0.46441 0.99037
 O148 O -0.03865 0.46854 1.00405
 Cu149 Cu -0.00764 0.53956 1.01805
 Cu150 Cu 0.01615 0.45946 0.99517
 C151 C -0.06628 0.50256 1.01568
 C152 C 0.07455 0.49713 0.99793
 C153 C 0.01331 0.49658 0.93626
 C154 C -0.00419 0.50176 1.07670
 O155 O 0.01083 -0.06702 0.46464
 O156 O -0.00372 0.03885 0.46985
 O157 O 0.05671 -0.02186 0.46390
 O158 O -0.04922 -0.00668 0.46948
 O159 O -0.06741 0.01153 0.53579
 O160 O 0.03872 -0.00353 0.53020
 O161 O -0.02186 0.05703 0.53614
 O162 O -0.00719 -0.04864 0.53094
 Cu163 Cu 0.00547 -0.01600 0.46028
 Cu164 Cu -0.01624 0.00593 0.53995
 C165 C 0.00389 -0.07560 0.49702
 C166 C -0.01493 0.06575 0.50387
 C167 C 0.06557 -0.01493 0.49610
 C168 C -0.07613 0.00458 0.50348
 C169 C -0.28404 0.54098 1.02778
 C170 C -0.25357 0.50558 1.02283
 C171 C -0.26099 0.46890 1.01571
 C172 C -0.29846 0.46743 1.01300
 C173 C -0.32911 0.50270 1.01731
 C174 C -0.32165 0.53960 1.02514
 C175 C -0.21419 0.50639 1.02358
 C176 C -0.18075 0.50622 1.02324
 C177 C -0.14117 0.50530 1.02174
 C178 C -0.10710 0.50414 1.01950
 H179 H -0.27857 0.56953 1.03313
 H180 H -0.23766 0.44132 1.01188
 H181 H -0.30350 0.43869 1.00760
 H182 H -0.34452 0.56716 1.02824
 C183 C 0.28000 0.51682 0.96700
 C184 C 0.26069 0.49819 0.99114
 C185 C 0.27922 0.48206 1.01597
 C186 C 0.31687 0.48470 1.01692
 C187 C 0.33728 0.50372 0.99288
 C188 C 0.31764 0.51958 0.96771
 C189 C 0.22139 0.49652 0.99110
 C190 C 0.18821 0.49572 0.99148
 C191 C 0.14901 0.49549 0.99265
 C192 C 0.11521 0.49590 0.99448
 H193 H 0.26563 0.52992 0.94799
 H194 H 0.26462 0.46721 1.03460
 H195 H 0.33017 0.46991 1.03543
 H196 H 0.32958 0.53637 0.94988
 C197 C -0.00279 -0.28545 0.47185
 C198 C 0.01056 -0.26142 0.49851
 C199 C 0.02283 -0.27506 0.52802
 C200 C 0.02174 -0.31253 0.53095
 C201 C 0.00830 -0.33692 0.50436
 C202 C -0.00394 -0.32298 0.47473
 C203 C 0.01081 -0.22235 0.49633
 C204 C 0.01055 -0.18929 0.49528
 C205 C 0.00944 -0.15017 0.49496
 C206 C 0.00755 -0.11635 0.49546
 H207 H -0.01240 -0.27515 0.44891
 H208 H 0.03296 -0.25659 0.54898
 H209 H 0.03078 -0.32214 0.55445
 H210 H -0.01399 -0.34126 0.45356
 C211 C 0.01920 0.25826 0.50192
 C212 C -0.01844 0.25281 0.51087
 C213 C -0.05353 0.28525 0.51937
 C214 C -0.05089 0.32289 0.51834
 C215 C -0.01307 0.32842 0.50863
 C216 C 0.02191 0.29577 0.50082
 C217 C -0.02063 0.21359 0.51037
 C218 C -0.02122 0.18024 0.50931
 C219 C -0.02049 0.14071 0.50757
 C220 C -0.01863 0.10662 0.50589
 H221 H 0.04654 0.23340 0.49543
 H222 H -0.08282 0.28134 0.52626
 H223 H -0.07830 0.34733 0.52407
 H224 H 0.05138 0.29924 0.49382
 C225 C 0.50972 -0.04320 -0.29288
 C226 C 0.50054 -0.00740 -0.26193
 C227 C 0.48935 0.02951 -0.26888
 C228 C 0.48697 0.03075 -0.30653
 C229 C 0.49562 -0.00511 -0.33826
 C230 C 0.50735 -0.04219 -0.33057
 C231 C 0.50193 -0.00841 -0.22280
 C232 C 0.50258 -0.00876 -0.18978
 C233 C 0.50276 -0.00837 -0.15078
 C234 C 0.50238 -0.00709 -0.11714
 H235 H 0.51881 -0.07203 -0.28792
 H236 H 0.48186 0.05750 -0.24497
 H237 H 0.47645 0.06020 -0.30967
 H238 H 0.51614 -0.07085 -0.35381
 C239 C 0.45847 0.02622 0.28088
 C240 C 0.49390 0.02060 0.25076
 C241 C 0.53062 0.01328 0.25862
 C242 C 0.53209 0.01107 0.29622
 C243 C 0.49679 0.01610 0.32655
 C244 C 0.45987 0.02409 0.31861
 C245 C 0.49304 0.02099 0.21133
 C246 C 0.49312 0.02042 0.17791
 C247 C 0.49391 0.01874 0.13838
 C248 C 0.49495 0.01645 0.10438
 H249 H 0.42990 0.03175 0.27506
 H250 H 0.55821 0.00893 0.23556
 H251 H 0.56086 0.00554 0.30161
 H252 H 0.43227 0.02773 0.34122
 C253 C 0.46817 -0.26102 -0.01645
 C254 C 0.50488 -0.25360 -0.02358
 C255 C 0.54034 -0.28403 -0.02856
 C256 C 0.53898 -0.32160 -0.02592
 C257 C 0.50205 -0.32906 -0.01807
 C258 C 0.46673 -0.29846 -0.01374
 C259 C 0.50567 -0.21425 -0.02428
 C260 C 0.50551 -0.18084 -0.02387
 C261 C 0.50463 -0.14130 -0.02227
 C262 C 0.50352 -0.10725 -0.01994
 H263 H 0.44056 -0.23771 -0.01259
 H264 H 0.56890 -0.27855 -0.03392
 H265 H 0.56658 -0.34445 -0.02903
 H266 H 0.43796 -0.30350 -0.00832
 C267 C 0.52812 0.27320 0.02159
 C268 C 0.49889 0.25978 0.00891
 C269 C 0.47223 0.28412 -0.00477
 C270 C 0.47483 0.32173 -0.00584
 C271 C 0.50418 0.33545 0.00679
 C272 C 0.53076 0.31076 0.02057
 C273 C 0.49694 0.22065 0.00913
 C274 C 0.49595 0.18759 0.00883
 C275 C 0.49553 0.14850 0.00771
 C276 C 0.49582 0.11476 0.00585
 H277 H 0.54907 0.25449 0.03200
 H278 H 0.44949 0.27401 -0.01468
 H279 H 0.45365 0.34024 -0.01616
 H280 H 0.55405 0.32020 0.02994
 C281 C -0.28075 0.03308 0.48104
 C282 C -0.26253 0.01189 0.50302
 C283 C -0.28200 -0.01032 0.52216
 C284 C -0.31949 -0.01157 0.51917
 C285 C -0.33849 0.00951 0.49686
 C286 C -0.31822 0.03201 0.47798
 C287 C -0.22332 0.01205 0.50492
 C288 C -0.19015 0.01169 0.50576
 C289 C -0.15090 0.01045 0.50587
 C290 C -0.11698 0.00842 0.50520
 H291 H -0.26567 0.05002 0.46569
 H292 H -0.26821 -0.02671 0.53947
 H293 H -0.33387 -0.02807 0.53567
 H294 H -0.33000 0.04750 0.45910
 C295 C 0.25844 0.01869 0.49764
 C296 C 0.25297 -0.01891 0.48877
 C297 C 0.28542 -0.05395 0.48041
 C298 C 0.32306 -0.05130 0.48151
 C299 C 0.32860 -0.01350 0.49116
 C300 C 0.29596 0.02142 0.49882
 C301 C 0.21371 -0.02109 0.48927
 C302 C 0.18032 -0.02163 0.49036
 C303 C 0.14071 -0.02079 0.49217
 C304 C 0.10655 -0.01882 0.49395
 H305 H 0.23358 0.04599 0.50403
 H306 H 0.28148 -0.08321 0.47359
 H307 H 0.34751 -0.07865 0.47589
 H308 H 0.29945 0.05087 0.50577
 C309 C -0.04204 0.51889 1.29510
 C310 C -0.00702 0.50062 1.26164
 C311 C 0.02933 0.48024 1.26600
 C312 C 0.03063 0.47785 1.30362
 C313 C -0.00449 0.49579 1.33739
 C314 C -0.04082 0.51651 1.33276
 C315 C -0.00834 0.50222 1.22267
 C316 C -0.00886 0.50301 1.18974
 C317 C -0.00855 0.50327 1.15080
 C318 C -0.00725 0.50291 1.11718
 H319 H -0.07031 0.53483 1.29208
 H320 H 0.05660 0.46589 1.24025
 H321 H 0.05891 0.46126 1.30611
 H322 H -0.06823 0.53108 1.35829
 C323 C 0.02724 0.45837 0.71902
 C324 C 0.02160 0.49379 0.74913
 C325 C 0.01414 0.53048 0.74130
 C326 C 0.01178 0.53194 0.70375
 C327 C 0.01680 0.49666 0.67345
 C328 C 0.02496 0.45975 0.68134
 C329 C 0.02203 0.49296 0.78853
 C330 C 0.02144 0.49309 0.82196
 C331 C 0.01968 0.49396 0.86150
 C332 C 0.01727 0.49507 0.89553
 H333 H 0.03287 0.42982 0.72483
 H334 H 0.00977 0.55806 0.76436
 H335 H 0.00612 0.56069 0.69838
 H336 H 0.02860 0.43217 0.65873
   
