data_POSCAR
  _audit_creation_date              2014-09-24
  _audit_creation_method            'ToBaCCo'
  _symmetry_space_group_name_H-M    'P1'
  _symmetry_Int_Tables_number       1
  _symmetry_cell_setting            triclinic
  loop_
  _symmetry_equiv_pos_as_xyz
 x,y,z
_cell_length_a 45.1100
_cell_length_b 46.9103
_cell_length_c 42.0602
_cell_angle_alpha 92.568400
_cell_angle_beta 90.080100
_cell_angle_gamma 93.544800
loop_
  _atom_site_label
  _atom_site_type_symbol
  _atom_site_fract_x
  _atom_site_fract_y
  _atom_site_fract_z
C1 C 0.20889 0.52615 1.04278
 H2 H 0.20915 0.54322 1.02631
 C3 C 0.18771 0.52493 1.06700
 H4 H 0.17208 0.54153 1.06907
 C5 C 0.22808 0.48309 1.05862
 H6 H 0.24306 0.46624 1.05468
 C7 C 0.20742 0.48106 1.08315
 H8 H 0.20747 0.46278 1.09799
 N9 N 0.22833 0.50525 1.03886
 C10 C 0.29898 0.53734 0.97677
 H11 H 0.29840 0.51935 0.95970
 C12 C 0.31954 0.56037 0.97330
 H13 H 0.33478 0.55972 0.95345
 C14 C 0.27964 0.55953 1.02331
 H15 H 0.26410 0.55898 1.04283
 C16 C 0.29998 0.58314 1.02077
 H17 H 0.29988 0.60060 1.03849
 Zn18 Zn 0.25236 0.50487 1.00201
 N19 N 0.27938 0.53739 1.00124
 C20 C 0.22775 0.52647 0.94677
 N21 N 0.22607 0.50458 0.96693
 C22 C 0.20386 0.48363 0.96434
 C23 C 0.18202 0.48431 0.94083
 C24 C 0.20644 0.52799 0.92296
 C25 C 0.29522 0.47014 1.02395
 C26 C 0.31220 0.44633 1.02502
 C27 C 0.28808 0.42722 0.97665
 C28 C 0.27129 0.45133 0.97670
 N29 N 0.27487 0.47199 1.00040
 H30 H 0.24504 0.54335 0.94967
 H31 H 0.20272 0.46677 0.98110
 H32 H 0.16427 0.46768 0.93951
 H33 H 0.20803 0.54589 0.90756
 H34 H 0.29793 0.48708 1.04223
 H35 H 0.32805 0.44527 1.04422
 H36 H 0.28479 0.41091 0.95772
 H37 H 0.25543 0.45347 0.95782
 C38 C 0.32025 0.58378 0.99540
 C39 C 0.18631 0.50179 1.08728
 C40 C 0.30868 0.42438 1.00123
 C41 C 0.18294 0.50694 0.92000
 C42 C 0.76703 0.51273 -0.05551
 H43 H 0.75146 0.52921 -0.05280
 C44 C 0.78670 0.51325 -0.08102
 H45 H 0.78560 0.53004 -0.09775
 C46 C 0.78839 0.47199 -0.03611
 H47 H 0.78922 0.45633 -0.01806
 C48 C 0.80870 0.47184 -0.06120
 H49 H 0.82495 0.45579 -0.06241
 N50 N 0.76821 0.49235 -0.03365
 C51 C 0.72506 0.54850 0.02502
 H52 H 0.74135 0.54754 0.04374
 C53 C 0.70805 0.57238 0.02378
 H54 H 0.71160 0.58967 0.04157
 C55 C 0.70034 0.52703 -0.02054
 H56 H 0.69742 0.50914 -0.03763
 C57 C 0.68309 0.55053 -0.02285
 H58 H 0.66683 0.55043 -0.04182
 Zn59 Zn 0.74412 0.49408 0.00310
 N60 N 0.72120 0.52662 0.00277
 C61 C 0.76733 0.47601 0.06091
 N62 N 0.77002 0.49616 0.03867
 C63 C 0.79258 0.51681 0.04006
 C64 C 0.81372 0.51762 0.06447
 C65 C 0.78783 0.47610 0.08575
 C66 C 0.69702 0.46189 0.02847
 C67 C 0.67634 0.43889 0.03171
 C68 C 0.69768 0.41519 -0.01420
 C69 C 0.71806 0.43876 -0.01656
 N70 N 0.71746 0.46138 0.00480
 H71 H 0.74972 0.45936 0.05906
 H72 H 0.79447 0.53230 0.02176
 H73 H 0.83175 0.53398 0.06488
 H74 H 0.78539 0.45957 0.10288
 H75 H 0.69688 0.48027 0.04494
 H76 H 0.66032 0.43992 0.05081
 H77 H 0.69841 0.39742 -0.03146
 H78 H 0.73421 0.43896 -0.03549
 C79 C 0.68690 0.57371 -0.00059
 C80 C 0.80821 0.49290 -0.08388
 C81 C 0.67641 0.41509 0.01020
 C82 C 0.81164 0.49689 0.08759
 C83 C -0.03422 0.28375 0.48882
 H84 H -0.05001 0.28526 0.50808
 C85 C -0.03546 0.30188 0.46354
 H86 H -0.05257 0.31709 0.46364
 C87 C 0.00777 0.26262 0.46646
 H88 H 0.02508 0.24787 0.46809
 C89 C 0.00745 0.28040 0.44073
 H90 H 0.02443 0.27859 0.42271
 N91 N -0.01291 0.26458 0.48983
 C92 C -0.04724 0.20121 0.55530
 H93 H -0.02926 0.20203 0.57243
 C94 C -0.07091 0.18077 0.55748
 H95 H -0.07099 0.16600 0.57654
 C96 C -0.06806 0.21863 0.50876
 H97 H -0.06645 0.23278 0.48921
 C98 C -0.09228 0.19870 0.51019
 H99 H -0.10909 0.19794 0.49173
 Zn100 Zn -0.01115 0.24334 0.52689
 N101 N -0.04605 0.21936 0.53099
 C102 C -0.02547 0.27215 0.58604
 N103 N -0.00631 0.27047 0.56117
 C104 C 0.01676 0.29012 0.55808
 C105 C 0.02111 0.31293 0.58019
 C106 C -0.02191 0.29476 0.60889
 C107 C 0.02203 0.19959 0.50101
 C108 C 0.04617 0.18250 0.49764
 C109 C 0.06845 0.20691 0.54441
 C110 C 0.04395 0.22366 0.54674
 N111 N 0.02163 0.22007 0.52487
 H112 H -0.04395 0.25650 0.58770
 H113 H 0.03142 0.28838 0.53784
 H114 H 0.03938 0.32856 0.57677
 H115 H -0.03777 0.29628 0.62810
 H116 H 0.00374 0.19688 0.48427
 H117 H 0.04618 0.16658 0.47820
 H118 H 0.08611 0.21031 0.56187
 H119 H 0.04288 0.23955 0.56603
 C120 C -0.09358 0.17900 0.53439
 C121 C -0.01419 0.30068 0.43910
 C122 C 0.06993 0.18620 0.51939
 C123 C 0.00135 0.31580 0.60573
 C124 C 0.98875 0.71193 0.50951
 H125 H 0.97408 0.70885 0.48910
 C126 C 0.98568 0.69360 0.53463
 H127 H 0.96851 0.67641 0.53329
 C128 C 1.02926 0.73792 0.53545
 H129 H 1.04651 0.75494 0.53545
 C130 C 1.02708 0.71999 0.56107
 H131 H 1.04260 0.72363 0.58070
 N132 N 1.01001 0.73377 0.51051
 C133 C 0.97468 0.79469 0.44747
 H134 H 0.99219 0.79684 0.43002
 C135 C 0.94996 0.81112 0.44575
 H136 H 0.94859 0.82579 0.42673
 C137 C 0.95591 0.77374 0.49414
 H138 H 0.95862 0.75982 0.51354
 C139 C 0.93086 0.78968 0.49332
 H140 H 0.91448 0.78742 0.51197
 Zn141 Zn 1.01248 0.75689 0.47488
 N142 N 0.97721 0.77647 0.47143
 C143 C 0.99824 0.72865 0.41465
 N144 N 1.01794 0.73195 0.43926
 C145 C 1.04093 0.71476 0.44145
 C146 C 1.04429 0.69254 0.41894
 C147 C 1.00084 0.70665 0.39143
 C148 C 1.04228 0.80437 0.50409
 C149 C 1.06494 0.82551 0.50985
 C150 C 1.09197 0.80564 0.46540
 C151 C 1.06869 0.78480 0.46048
 N152 N 1.04461 0.78444 0.47995
 H153 H 0.97976 0.74218 0.41374
 H154 H 1.05597 0.71762 0.46157
 H155 H 1.06225 0.67857 0.42181
 H156 H 0.98432 0.70360 0.37269
 H157 H 1.02274 0.80370 0.51899
 H158 H 1.06249 0.84110 0.52929
 H159 H 1.11092 0.80567 0.44964
 H160 H 1.06986 0.76904 0.44107
 C161 C 0.92776 0.80893 0.46911
 C162 C 1.00500 0.69751 0.56089
 C163 C 1.09025 0.82638 0.49039
 C164 C 1.02365 0.68777 0.39396
 C165 C 0.44590 -0.02127 0.27088
 H166 H 0.44900 -0.04006 0.25573
 C167 C 0.42219 -0.02120 0.29236
 H168 H 0.40688 -0.03985 0.29328
 C169 C 0.46244 0.02562 0.28897
 H170 H 0.47856 0.04360 0.28784
 C171 C 0.43881 0.02685 0.31014
 H172 H 0.43685 0.04596 0.32523
 N173 N 0.46522 0.00210 0.26939
 C174 C 0.52301 -0.04631 0.21520
 H175 H 0.54183 -0.04025 0.23044
 C176 C 0.52372 -0.07081 0.19526
 H177 H 0.54309 -0.08331 0.19607
 C178 C 0.47587 -0.03661 0.19499
 H179 H 0.45736 -0.02300 0.19499
 C180 C 0.47573 -0.06087 0.17435
 H181 H 0.45686 -0.06565 0.15866
 Zn182 Zn 0.49869 0.00349 0.24228
 N183 N 0.49915 -0.02998 0.21513
 C184 C 0.53440 -0.01647 0.28855
 N185 N 0.53220 0.00609 0.26969
 C186 C 0.55226 0.02903 0.27189
 C187 C 0.57628 0.02929 0.29311
 C188 C 0.55830 -0.01741 0.30935
 C189 C 0.47333 0.05088 0.21596
 C190 C 0.47190 0.07393 0.19632
 C191 C 0.52082 0.06472 0.17668
 C192 C 0.52134 0.04179 0.19685
 N193 N 0.49793 0.03552 0.21622
 H194 H 0.51772 -0.03407 0.28691
 H195 H 0.54963 0.04712 0.25734
 H196 H 0.59234 0.04745 0.29444
 H197 H 0.55993 -0.03590 0.32364
 H198 H 0.45445 0.04502 0.23054
 H199 H 0.45200 0.08571 0.19660
 H200 H 0.53970 0.06938 0.16151
 H201 H 0.54041 0.02890 0.19700
 C202 C 0.49988 -0.07854 0.17433
 C203 C 0.41831 0.00327 0.31203
 C204 C 0.49582 0.08118 0.17628
 C205 C 0.57970 0.00557 0.31170
 C206 C 0.54039 -0.02791 0.70640
 H207 H 0.52329 -0.04506 0.70750
 C208 C 0.56350 -0.03014 0.68468
 H209 H 0.56403 -0.04917 0.66919
 C210 C 0.55974 0.01797 0.72488
 H211 H 0.55787 0.03683 0.74030
 C212 C 0.58305 0.01688 0.70294
 H213 H 0.59926 0.03482 0.70197
 N214 N 0.53912 -0.00437 0.72628
 C215 C 0.48084 -0.04183 0.79861
 H216 H 0.46235 -0.02820 0.79849
 C217 C 0.48039 -0.06489 0.81871
 H218 H 0.46134 -0.06891 0.83386
 C219 C 0.52838 -0.05268 0.77954
 H220 H 0.54749 -0.04750 0.76500
 C221 C 0.52881 -0.07590 0.79907
 H222 H 0.54817 -0.08844 0.79875
 Zn223 Zn 0.50546 -0.00420 0.75319
 N224 N 0.50451 -0.03635 0.77931
 C225 C 0.45059 -0.02665 0.72322
 N226 N 0.47241 -0.00526 0.72523
 C227 C 0.47242 0.01721 0.70591
 C228 C 0.44919 0.01965 0.68462
 C229 C 0.42705 -0.02535 0.70161
 C230 C 0.52886 0.03650 0.80027
 C231 C 0.52877 0.06101 0.82059
 C232 C 0.48081 0.07045 0.79931
 C233 C 0.48172 0.04580 0.77967
 N234 N 0.50566 0.02955 0.78008
 H235 H 0.45139 -0.04467 0.73825
 H236 H 0.49039 0.03360 0.70757
 H237 H 0.44947 0.03802 0.66989
 H238 H 0.40962 -0.04230 0.70041
 H239 H 0.54741 0.02296 0.80062
 H240 H 0.54745 0.06622 0.83642
 H241 H 0.46141 0.08289 0.79844
 H242 H 0.46294 0.03950 0.76448
 C243 C 0.50463 -0.08233 0.81907
 C244 C 0.58517 -0.00753 0.68263
 C245 C 0.50451 0.07842 0.82016
 C246 C 0.42601 -0.00169 0.68236
 C247 C 0.22696 0.05019 0.50402
 C248 C 0.24972 0.04931 0.53102
 C249 C 0.26556 0.02539 0.52961
 C250 C 0.25723 0.00457 0.50108
 C251 C 0.24512 0.04691 0.47358
 C252 C 0.26115 0.02320 0.47192
 C253 C 0.20801 0.02227 0.50577
 C254 C 0.22355 -0.00158 0.50422
 H255 H 0.25309 0.06611 0.54941
 H256 H 0.27001 -0.01493 0.49986
 H257 H 0.24634 0.06290 0.45575
 H258 H 0.18406 0.02156 0.50831
 C259 C 0.77776 -0.04766 0.48726
 C260 C 0.75518 -0.04923 0.51450
 C261 C 0.73915 -0.02552 0.51818
 C262 C 0.74706 -0.00249 0.49400
 C263 C 0.75934 -0.04198 0.45800
 C264 C 0.74302 -0.01857 0.46135
 C265 C 0.79655 -0.01998 0.49451
 C266 C 0.78075 0.00365 0.49814
 H267 H 0.75235 -0.06726 0.52963
 H268 H 0.73409 0.01682 0.49686
 H269 H 0.75794 -0.05649 0.43719
 H270 H 0.82045 -0.01939 0.49755
 C271 C 0.45063 0.27372 1.00300
 C272 C 0.45547 0.25570 0.97228
 C273 C 0.48047 0.24070 0.97267
 C274 C 0.49872 0.24563 1.00364
 C275 C 0.45125 0.25244 1.02953
 C276 C 0.47636 0.23763 1.02999
 C277 C 0.47914 0.29262 1.00759
 C278 C 0.50427 0.27825 1.00794
 H279 H 0.43937 0.25331 0.95308
 H280 H 0.51938 0.23395 1.00405
 H281 H 0.43298 0.24894 1.04586
 H282 H 0.47933 0.31574 1.01020
 C283 C 0.54506 0.72441 -0.00726
 C284 C 0.54430 0.74509 -0.03436
 C285 C 0.51966 0.76060 -0.03445
 C286 C 0.49779 0.75375 -0.00723
 C287 C 0.54150 0.74326 0.02311
 C288 C 0.51695 0.75888 0.02309
 C289 C 0.51601 0.70614 -0.01051
 C290 C 0.49131 0.72117 -0.01049
 H291 H 0.56226 0.74780 -0.05124
 H292 H 0.47749 0.76598 -0.00733
 H293 H 0.55806 0.74559 0.04184
 H294 H 0.51513 0.68298 -0.01253
 C295 C 0.99727 0.44846 0.28172
 C296 C 0.96934 0.45127 0.26180
 C297 C 0.97072 0.47416 0.24298
 C298 C 1.00021 0.49243 0.24590
 C299 C 1.02267 0.44813 0.25753
 C300 C 1.02440 0.47122 0.23886
 C301 C 1.00228 0.47715 0.30020
 C302 C 1.00378 0.50018 0.28164
 H303 H 0.95038 0.43593 0.26217
 H304 H 1.00147 0.51126 0.23078
 H305 H 1.03843 0.43163 0.25605
 H306 H 1.00478 0.47894 0.32585
 C307 C -0.00269 0.55246 0.72326
 C308 C -0.03108 0.54812 0.74272
 C309 C -0.03160 0.52501 0.76123
 C310 C -0.00344 0.50814 0.75849
 C311 C 0.02256 0.55374 0.74781
 C312 C 0.02235 0.53050 0.76617
 C313 C 0.00023 0.52415 0.70449
 C314 C -0.00025 0.50094 0.72273
 H315 H -0.04888 0.56257 0.74227
 H316 H -0.00374 0.48915 0.77334
 H317 H 0.03953 0.57109 0.74986
 H318 H 0.00255 0.52272 0.67884
 C319 C 0.14277 0.13500 0.51008
 N320 N 0.12175 0.13446 0.48693
 N321 N 0.09879 0.15087 0.48983
 C322 C 0.09589 0.16847 0.51601
 N323 N 0.11712 0.16917 0.53907
 N324 N 0.14008 0.15268 0.53622
 C325 C 0.16681 0.11534 0.50754
 N326 N 0.18637 0.11331 0.53182
 N327 N 0.20643 0.09357 0.53035
 C328 C 0.20772 0.07526 0.50449
 N329 N 0.18843 0.07767 0.48009
 N330 N 0.16842 0.09735 0.48155
 C331 C 0.63384 0.64384 -0.00629
 N332 N 0.63457 0.62391 -0.03062
 N333 N 0.65162 0.60186 -0.02888
 C334 C 0.66867 0.59881 -0.00274
 N335 N 0.66815 0.61896 0.02149
 N336 N 0.65099 0.64099 0.01981
 C337 C 0.61330 0.66692 -0.00748
 N338 N 0.60936 0.68473 0.01831
 N339 N 0.58870 0.70386 0.01806
 C340 C 0.57132 0.70599 -0.00804
 N341 N 0.57573 0.68853 -0.03401
 N342 N 0.59631 0.66939 -0.03374
 C343 C 0.85796 -0.13584 0.47200
 N344 N 0.87839 -0.13462 0.44835
 N345 N 0.90017 -0.15255 0.44702
 C346 C 0.90241 -0.17240 0.46930
 N347 N 0.88170 -0.17379 0.49273
 N348 N 0.85991 -0.15586 0.49408
 C349 C 0.83543 -0.11459 0.47475
 N350 N 0.81585 -0.11462 0.49926
 N351 N 0.79690 -0.09401 0.50291
 C352 C 0.79687 -0.07264 0.48216
 N353 N 0.81627 -0.07285 0.45751
 N354 N 0.83515 -0.09343 0.45384
 C355 C 0.36118 0.35357 1.00363
 N356 N 0.34522 0.35822 0.97716
 N357 N 0.32819 0.38045 0.97647
 C358 C 0.32665 0.39899 1.00213
 N359 N 0.34249 0.39412 1.02862
 N360 N 0.35939 0.37188 1.02936
 C361 C 0.38170 0.33042 1.00401
 N362 N 0.39744 0.32637 1.03077
 N363 N 0.41816 0.30737 1.03064
 C364 C 0.42395 0.29157 1.00378
 N365 N 0.40783 0.29525 0.97710
 N366 N 0.38702 0.31428 0.97724
 C367 C 0.84420 0.10876 0.52841
 N368 N 0.84019 0.13211 0.51133
 N369 N 0.85939 0.15488 0.51399
 C370 C 0.88322 0.15522 0.53390
 N371 N 0.88673 0.13207 0.55144
 N372 N 0.86768 0.10928 0.54866
 C373 C 0.82572 0.08216 0.52275
 N374 N 0.83549 0.05736 0.53284
 N375 N 0.82069 0.03258 0.52545
 C376 C 0.79537 0.03157 0.50789
 N377 N 0.78510 0.05643 0.49831
 N378 N 0.80016 0.08132 0.50543
 C379 C 0.38568 0.65074 -0.01329
 N380 N 0.38359 0.62821 -0.03469
 N381 N 0.36247 0.60738 -0.03213
 C382 C 0.34260 0.60805 -0.00795
 N383 N 0.34445 0.63083 0.01333
 N384 N 0.36563 0.65178 0.01074
 C385 C 0.41118 0.67174 -0.01482
 N386 N 0.41415 0.69521 0.00540
 N387 N 0.43905 0.71222 0.00567
 C388 C 0.46182 0.70618 -0.01415
 N389 N 0.45852 0.68304 -0.03463
 N390 N 0.43366 0.66629 -0.03511
 C391 C 0.15520 -0.10614 0.50361
 N392 N 0.15898 -0.12728 0.48113
 N393 N 0.13869 -0.14910 0.47725
 C394 C 0.11390 -0.15054 0.49565
 N395 N 0.11053 -0.12956 0.51839
 N396 N 0.13069 -0.10779 0.52221
 C397 C 0.17530 -0.08032 0.50604
 N398 N 0.16697 -0.05737 0.52377
 N399 N 0.18308 -0.03270 0.52390
 C400 C 0.20833 -0.03001 0.50657
 N401 N 0.21722 -0.05315 0.48939
 N402 N 0.20087 -0.07790 0.48901
 C403 C 0.60981 0.34889 1.01622
 N404 N 0.61065 0.37199 1.03683
 N405 N 0.63216 0.39257 1.03523
 C406 C 0.65369 0.39105 1.01282
 N407 N 0.65308 0.36769 0.99238
 N408 N 0.63153 0.34699 0.99401
 C409 C 0.58404 0.32813 1.01638
 N410 N 0.58245 0.30394 0.99719
 N411 N 0.55753 0.28698 0.99555
 C412 C 0.53335 0.29381 1.01287
 N413 N 0.53525 0.31769 1.03235
 N414 N 0.56011 0.33440 1.03421
 C415 C 0.49015 0.14923 1.11525
 N416 N 0.46829 0.14309 1.13643
 N417 N 0.47027 0.12163 1.15583
 C418 C 0.49419 0.10538 1.15490
 N419 N 0.51616 0.11163 1.13374
 N420 N 0.51418 0.13313 1.11427
 C421 C 0.48727 0.17261 1.09350
 N422 N 0.50837 0.17872 1.07138
 N423 N 0.50509 0.19957 1.05134
 C424 C 0.48062 0.21507 1.05269
 N425 N 0.45965 0.20898 1.07491
 N426 N 0.46291 0.18818 1.09491
 C427 C -0.00131 0.64039 0.63485
 N428 N 0.02108 0.66108 0.63458
 N429 N 0.02290 0.67948 0.61132
 C430 C 0.00248 0.67782 0.58742
 N431 N -0.02000 0.65721 0.58793
 N432 N -0.02186 0.63886 0.61117
 C433 C -0.00255 0.61903 0.65927
 N434 N -0.02459 0.59800 0.65859
 N435 N -0.02488 0.57746 0.67943
 C436 C -0.00314 0.57717 0.70174
 N437 N 0.01876 0.59842 0.70264
 N438 N 0.01904 0.61899 0.68178
 C439 C 0.50779 0.84914 -0.12009
 N440 N 0.52950 0.85427 -0.14175
 N441 N 0.52828 0.87587 -0.16108
 C442 C 0.50530 0.89328 -0.15964
 N443 N 0.48345 0.88804 -0.13802
 N444 N 0.48468 0.86640 -0.11859
 C445 C 0.50998 0.82563 -0.09833
 N446 N 0.48924 0.82057 -0.07553
 N447 N 0.49205 0.79968 -0.05542
 C448 C 0.51569 0.78308 -0.05737
 N449 N 0.53628 0.78811 -0.08029
 N450 N 0.53348 0.80894 -0.10035
 C451 C 0.98794 0.35897 0.36845
 N452 N 0.96649 0.35908 0.39100
 N453 N 0.96556 0.33998 0.41349
 C454 C 0.98605 0.31996 0.41442
 N455 N 1.00732 0.31973 0.39152
 N456 N 1.00828 0.33886 0.36900
 C457 C 0.98977 0.38109 0.34485
 N458 N 1.01188 0.38206 0.32298
 N459 N 1.01417 0.40303 0.30260
 C460 C 0.99445 0.42380 0.30340
 N461 N 0.97226 0.42265 0.32517
 N462 N 0.96996 0.40171 0.34550
 C463 C 0.50298 0.85009 0.11345
 N464 N 0.47969 0.86704 0.11239
 N465 N 0.47849 0.88995 0.13221
 C466 C 0.50060 0.89695 0.15375
 N467 N 0.52377 0.87979 0.15472
 N468 N 0.52493 0.85687 0.13505
 C469 C 0.50526 0.82538 0.09100
 N470 N 0.52831 0.80833 0.09329
 N471 N 0.53154 0.78677 0.07216
 C472 C 0.51187 0.78140 0.04785
 N473 N 0.48860 0.79829 0.04571
 N474 N 0.48532 0.81987 0.06693
 C475 C 0.00637 0.39140 0.66307
 N476 N -0.01176 0.36878 0.67140
 N477 N -0.01297 0.34440 0.65370
 C478 C 0.00400 0.34176 0.62714
 N479 N 0.02241 0.36432 0.61930
 N480 N 0.02350 0.38864 0.63682
 C481 C 0.00597 0.41931 0.68015
 N482 N 0.01813 0.44278 0.66629
 N483 N 0.01644 0.46861 0.68020
 C484 C 0.00275 0.47201 0.70868
 N485 N -0.00902 0.44849 0.72294
 N486 N -0.00760 0.42256 0.70880
 C487 C 0.49923 0.15102 0.88175
 N488 N 0.52161 0.13324 0.88494
 N489 N 0.52361 0.11038 0.86518
 C490 C 0.50326 0.10436 0.84157
 N491 N 0.48106 0.12234 0.83838
 N492 N 0.47908 0.14517 0.85803
 C493 C 0.49581 0.17547 0.90432
 N494 N 0.47300 0.19265 0.90084
 N495 N 0.46861 0.21384 0.92212
 C496 C 0.48687 0.21872 0.94774
 N497 N 0.50991 0.20173 0.95103
 N498 N 0.51432 0.18051 0.92971
 C499 C 1.02186 0.61122 0.33843
 N500 N 1.00569 0.63303 0.32953
 N501 N 1.00685 0.65777 0.34655
 C502 C 1.02436 0.66165 0.37294
 N503 N 1.04089 0.63995 0.38132
 N504 N 1.03960 0.61522 0.36449
 C505 C 1.01850 0.58286 0.32223
 N506 N 1.02800 0.55995 0.33693
 N507 N 1.02351 0.53376 0.32373
 C508 C 1.00956 0.52945 0.29518
 N509 N 1.00042 0.55241 0.28013
 N510 N 1.00464 0.57868 0.29354
 C511 C 1.11858 0.49076 0.15230
 N512 N 1.13992 0.47171 0.14928
 N513 N 1.16199 0.47556 0.12864
 C514 C 1.16370 0.49862 0.11012
 N515 N 1.14238 0.51783 0.11344
 N516 N 1.12027 0.51399 0.13413
 C517 C 1.09395 0.48586 0.17457
 N518 N 1.07242 0.50473 0.17817
 N519 N 1.05014 0.49999 0.19843
 C520 C 1.04852 0.47618 0.21573
 N521 N 1.07004 0.45733 0.21201
 N522 N 1.09230 0.46206 0.19181
 C523 C 0.65236 -0.01397 0.61422
 N524 N 0.63791 -0.03773 0.62524
 N525 N 0.61677 -0.03558 0.64710
 C526 C 0.60937 -0.00960 0.65905
 N527 N 0.62405 0.01421 0.64823
 N528 N 0.64508 0.01207 0.62613
 C529 C 0.67518 -0.01666 0.58954
 N530 N 0.68587 0.00642 0.57378
 N531 N 0.70613 0.00360 0.55098
 C532 C 0.71658 -0.02234 0.54324
 N533 N 0.70595 -0.04536 0.55912
 N534 N 0.68556 -0.04259 0.58172
 C535 C -0.12602 0.50118 0.84612
 N536 N -0.12460 0.48097 0.86809
 N537 N -0.14581 0.47784 0.88994
 C538 C -0.16919 0.49482 0.89065
 N539 N -0.17063 0.51478 0.86839
 N540 N -0.14950 0.51789 0.84657
 C541 C -0.10199 0.50613 0.82316
 N542 N -0.10333 0.52749 0.80262
 N543 N -0.08107 0.53320 0.78272
 C544 C -0.05658 0.51778 0.78256
 N545 N -0.05532 0.49622 0.80294
 N546 N -0.07761 0.49051 0.82293
 C547 C 0.34819 0.00835 0.37696
 N548 N 0.35866 -0.01741 0.36840
 N549 N 0.38066 -0.01923 0.34734
 C550 C 0.39315 0.00468 0.33439
 N551 N 0.38257 0.03034 0.34301
 N552 N 0.36046 0.03213 0.36375
 C553 C 0.32449 0.01108 0.40061
 N554 N 0.31094 0.03603 0.40412
 N555 N 0.29041 0.03950 0.42637
 C556 C 0.28272 0.01826 0.44622
 N557 N 0.29620 -0.00680 0.44269
 N558 N 0.31665 -0.01038 0.42018
 C559 C 0.11433 0.51544 0.85422
 N560 N 0.13742 0.53532 0.85708
 N561 N 0.15931 0.53238 0.87768
 C562 C 0.15903 0.50943 0.89627
 N563 N 0.13592 0.48945 0.89328
 N564 N 0.11400 0.49237 0.87261
 C565 C 0.09015 0.51919 0.83170
 N566 N 0.06713 0.49927 0.82780
 N567 N 0.04538 0.50292 0.80713
 C568 C 0.04584 0.52665 0.78973
 N569 N 0.06885 0.54655 0.79379
 N570 N 0.09056 0.54290 0.81437
 C571 C 0.65219 -0.00045 0.37298
 N572 N 0.64150 0.02545 0.36802
 N573 N 0.61871 0.02762 0.34816
 C574 C 0.60561 0.00393 0.33290
 N575 N 0.61638 -0.02186 0.33796
 N576 N 0.63929 -0.02398 0.35744
 C577 C 0.67696 -0.00370 0.39498
 N578 N 0.69117 -0.02834 0.39360
 N579 N 0.71258 -0.03256 0.41428
 C580 C 0.72054 -0.01245 0.43743
 N581 N 0.70641 0.01234 0.43883
 N582 N 0.68506 0.01671 0.41786
 C583 C 0.87794 0.49202 0.15693
 N584 N 0.88075 0.51203 0.13461
 N585 N 0.85949 0.51397 0.11288
 C586 C 0.83465 0.49598 0.11265
 N587 N 0.83187 0.47618 0.13521
 N588 N 0.85306 0.47424 0.15689
 C589 C 0.90175 0.48855 0.18001
 N590 N 0.89876 0.46747 0.20101
 N591 N 0.92060 0.46321 0.22119
 C592 C 0.94631 0.47984 0.22122
 N593 N 0.94926 0.50112 0.20037
 N594 N 0.92737 0.50539 0.18008
 C595 C 0.35604 0.00795 0.61871
 N596 N 0.37203 0.03104 0.63162
 N597 N 0.39413 0.02782 0.65187
 C598 C 0.40098 0.00140 0.66029
 N599 N 0.38477 -0.02177 0.64761
 N600 N 0.36278 -0.01856 0.62706
 C601 C 0.33210 0.01198 0.59594
 N602 N 0.32024 -0.01013 0.57711
 N603 N 0.29909 -0.00591 0.55593
 C604 C 0.28888 0.02050 0.55300
 N605 N 0.30066 0.04250 0.57198
 N606 N 0.32194 0.03835 0.59291
   
