data_POSCAR
  _audit_creation_date              2014-09-24
  _audit_creation_method            'ToBaCCo'
  _symmetry_space_group_name_H-M    'P1'
  _symmetry_Int_Tables_number       1
  _symmetry_cell_setting            triclinic
  loop_
  _symmetry_equiv_pos_as_xyz
 x,y,z
_cell_length_a 28.2143
_cell_length_b 27.4646
_cell_length_c 37.5945
_cell_angle_alpha 90.216500
_cell_angle_beta 89.567400
_cell_angle_gamma 153.087600
loop_
  _atom_site_label
  _atom_site_type_symbol
  _atom_site_fract_x
  _atom_site_fract_y
  _atom_site_fract_z
C1 C 0.03706 0.59891 1.25946
 C2 C 0.05971 0.57147 1.25729
 C3 C 0.04556 0.52717 1.28876
 C4 C 0.10640 0.59138 1.22512
 C5 C 0.02256 0.61680 1.22762
 C6 C 0.01915 0.60490 1.29471
 C7 C 0.12509 0.59516 1.31384
 C8 C 0.10844 0.55185 1.34430
 C9 C 0.01223 0.43941 1.34994
 C10 C -0.06632 0.37231 1.32400
 C11 C -0.05002 0.41596 1.29403
 C12 C 0.19156 0.69183 1.20791
 C13 C 0.24623 0.71746 1.18108
 C14 C 0.21780 0.64398 1.17149
 C15 C 0.13044 0.54203 1.18740
 C16 C 0.07473 0.51564 1.21406
 C17 C -0.03402 0.54754 1.19834
 C18 C -0.05642 0.55759 1.16989
 C19 C -0.02528 0.63515 1.17043
 C20 C 0.03282 0.70574 1.19935
 C21 C 0.05659 0.69669 1.22766
 C22 C -0.08085 0.51290 1.31021
 C23 C -0.09546 0.51716 1.34474
 C24 C -0.01059 0.61397 1.36388
 C25 C 0.08953 0.70605 1.34817
 C26 C 0.10432 0.70114 1.31387
 H27 H 0.19932 0.68159 1.31000
 H28 H 0.17146 0.60689 1.36330
 H29 H -0.14057 0.28591 1.32628
 H30 H -0.11187 0.36299 1.27469
 H31 H 0.21892 0.75238 1.21638
 H32 H 0.31333 0.79628 1.16887
 H33 H 0.00913 0.43744 1.22675
 H34 H -0.06408 0.48313 1.19793
 H35 H -0.10172 0.50174 1.14801
 H36 H 0.05915 0.76729 1.20032
 H37 H 0.10038 0.75129 1.24981
 H38 H -0.14686 0.43762 1.29585
 H39 H -0.17340 0.44509 1.35630
 H40 H 0.15635 0.78099 1.36256
 H41 H 0.18220 0.77195 1.30230
 H42 H 0.10807 0.48476 1.18023
 C43 C 0.42754 0.40671 1.24157
 C44 C 0.39343 0.42246 1.23990
 C45 C 0.34321 0.39858 1.27195
 C46 C 0.39990 0.45615 1.20582
 C47 C 0.42273 0.37015 1.20971
 C48 C 0.46492 0.42038 1.27585
 C49 C 0.25897 0.29697 1.28806
 C50 C 0.21646 0.27459 1.32014
 C51 C 0.25695 0.35325 1.33701
 C52 C 0.34065 0.45492 1.32068
 C53 C 0.38280 0.47708 1.28810
 C54 C 0.31831 0.41197 1.19442
 C55 C 0.32357 0.43919 1.16082
 C56 C 0.40999 0.51001 1.13821
 C57 C 0.49344 0.55814 1.15051
 C58 C 0.48919 0.53286 1.18399
 C59 C 0.51076 0.42465 1.19770
 C60 C 0.50382 0.38800 1.16769
 C61 C 0.40802 0.29450 1.15007
 C62 C 0.32015 0.24008 1.16226
 C63 C 0.32772 0.27810 1.19158
 C64 C 0.53493 0.51157 1.29659
 C65 C 0.56975 0.52580 1.32910
 C66 C 0.53662 0.44972 1.34167
 C67 C 0.46732 0.35877 1.32075
 C68 C 0.43214 0.34444 1.28802
 H69 H 0.22774 0.23555 1.27610
 H70 H 0.15366 0.19629 1.33218
 H71 H 0.37347 0.51713 1.33309
 H72 H 0.44853 0.55633 1.27622
 H73 H 0.24911 0.35363 1.21087
 H74 H 0.25829 0.40116 1.15186
 H75 H 0.55518 0.57161 1.19249
 H76 H 0.58479 0.49590 1.21132
 H77 H 0.57239 0.43082 1.15882
 H78 H 0.24556 0.16827 1.14901
 H79 H 0.25882 0.23470 1.20052
 H80 H 0.56269 0.57217 1.28759
 H81 H 0.62179 0.59625 1.34439
 H82 H 0.44055 0.29890 1.32970
 H83 H 0.37817 0.27339 1.27251
 H84 H 0.56176 0.61441 1.13385
 C85 C 0.61540 1.07139 1.24576
 C86 C 0.65230 1.05961 1.25262
 C87 C 0.63896 1.02474 1.28819
 C88 C 0.69404 1.06611 1.22332
 C89 C 0.60411 1.07846 1.20885
 C90 C 0.57560 1.06854 1.27391
 C91 C 0.72263 1.07645 1.30359
 C92 C 0.70876 1.03870 1.33553
 C93 C 0.60999 0.94731 1.35280
 C94 C 0.52665 0.89658 1.33734
 C95 C 0.54064 0.93398 1.30521
 C96 C 0.76680 1.15053 1.19813
 C97 C 0.78971 1.14472 1.16726
 C98 C 0.74531 1.05792 1.16217
 C99 C 0.67969 0.97832 1.18867
 C100 C 0.65363 0.98192 1.21882
 C101 C 0.53870 0.99372 1.18526
 C102 C 0.52275 0.99692 1.15113
 C103 C 0.57046 1.08436 1.14022
 C104 C 0.63884 1.17091 1.16375
 C105 C 0.65452 1.16733 1.19793
 C106 C 0.47836 1.00235 1.26959
 C107 C 0.44238 1.00355 1.29432
 C108 C 0.50266 1.07090 1.32432
 C109 C 0.59989 1.13656 1.32869
 C110 C 0.63605 1.13570 1.30364
 H111 H 0.79873 1.14569 1.29062
 H112 H 0.77624 1.08216 1.34633
 H113 H 0.44943 0.82586 1.34952
 H114 H 0.47383 0.89027 1.29319
 H115 H 0.80183 1.21826 1.20148
 H116 H 0.84088 1.20708 1.14715
 H117 H 0.59786 0.91613 1.23780
 H118 H 0.49871 0.92435 1.19366
 H119 H 0.47219 0.93008 1.13373
 H120 H 0.67768 1.24005 1.15629
 H121 H 0.70516 1.23328 1.21601
 H122 H 0.43015 0.94977 1.24681
 H123 H 0.36736 0.95145 1.28946
 H124 H 0.64908 1.18997 1.35123
 H125 H 0.71188 1.18869 1.30706
 H126 H 0.64383 0.91006 1.18512
 C127 C 1.09030 0.59688 0.75848
 C128 C 1.04196 0.59714 0.75911
 C129 C 0.97531 0.55379 0.72944
 C130 C 1.04126 0.62754 0.79174
 C131 C 1.15699 0.64249 0.78885
 C132 C 1.07499 0.54853 0.72826
 C133 C 1.00987 0.58576 0.69377
 C134 C 0.94245 0.53931 0.66673
 C135 C 0.84020 0.46119 0.67505
 C136 C 0.80846 0.43421 0.71087
 C137 C 0.87526 0.48028 0.73759
 C138 C 1.07188 0.70464 0.78991
 C139 C 1.06072 0.72504 0.81960
 C140 C 1.01812 0.66802 0.85161
 C141 C 0.99046 0.59317 0.85351
 C142 C 1.00096 0.57244 0.82388
 C143 C 1.13347 0.57908 0.80880
 C144 C 1.18155 0.61529 0.84186
 C145 C 1.25229 0.71452 0.85582
 C146 C 1.28116 0.78067 0.83408
 C147 C 1.23505 0.74541 0.80104
 C148 C 0.97479 0.43908 0.72059
 C149 C 0.95713 0.39568 0.68973
 C150 C 1.03945 0.46110 0.66536
 C151 C 1.14073 0.57052 0.67389
 C152 C 1.15830 0.61340 0.70516
 H153 H 1.08843 0.64602 0.68682
 H154 H 0.96935 0.56267 0.63935
 H155 H 0.73177 0.37725 0.71854
 H156 H 0.84792 0.45732 0.76484
 H157 H 1.10291 0.74777 0.76528
 H158 H 1.08342 0.78360 0.81711
 H159 H 0.97513 0.51132 0.82576
 H160 H 1.07328 0.49903 0.79994
 H161 H 1.15841 0.56266 0.85737
 H162 H 1.33828 0.85957 0.84241
 H163 H 1.25421 0.79511 0.78589
 H164 H 0.90950 0.38790 0.73807
 H165 H 0.87784 0.31128 0.68493
 H166 H 1.20647 0.62356 0.65623
 H167 H 1.23600 0.69819 0.71063
 H168 H 0.95765 0.54802 0.87773
 C169 C 0.44747 0.47264 0.75275
 C170 C 0.46638 0.44123 0.74960
 C171 C 0.44970 0.40080 0.71511
 C172 C 0.47592 0.41812 0.78126
 C173 C 0.43829 0.48886 0.78775
 C174 C 0.40336 0.45984 0.72243
 C175 C 0.34847 0.30494 0.70116
 C176 C 0.33175 0.26773 0.66826
 C177 C 0.41616 0.32545 0.64870
 C178 C 0.51717 0.41971 0.66328
 C179 C 0.53377 0.45699 0.69636
 C180 C 0.40403 0.31402 0.78541
 C181 C 0.39976 0.28368 0.81674
 C182 C 0.46771 0.35674 0.84473
 C183 C 0.54458 0.46317 0.84003
 C184 C 0.54830 0.49367 0.80846
 C185 C 0.49715 0.58489 0.79444
 C186 C 0.47308 0.59254 0.82369
 C187 C 0.38782 0.50305 0.84595
 C188 C 0.33192 0.40854 0.84009
 C189 C 0.35703 0.40156 0.81128
 C190 C 0.45577 0.51119 0.68947
 C191 C 0.40229 0.47864 0.65942
 C192 C 0.29615 0.39451 0.66210
 C193 C 0.24687 0.34941 0.69558
 C194 C 0.29987 0.38183 0.72537
 H195 H 0.28252 0.25957 0.71577
 H196 H 0.25249 0.19348 0.65849
 H197 H 0.58354 0.46538 0.64888
 H198 H 0.61212 0.53035 0.70706
 H199 H 0.34715 0.25381 0.76507
 H200 H 0.34143 0.20184 0.81933
 H201 H 0.60489 0.57463 0.80570
 H202 H 0.55854 0.65204 0.77609
 H203 H 0.51709 0.66609 0.82773
 H204 H 0.26666 0.33876 0.85713
 H205 H 0.30864 0.32566 0.80603
 H206 H 0.53577 0.57184 0.68670
 H207 H 0.44223 0.51562 0.63388
 H208 H 0.16632 0.28712 0.69878
 H209 H 0.25724 0.34059 0.75032
 H210 H 0.59828 0.52094 0.86129
 C211 C 0.57210 0.03453 0.73210
 C212 C 0.54055 0.05297 0.72945
 C213 C 0.49256 0.02950 0.69697
 C214 C 0.56473 0.10913 0.75892
 C215 C 0.60796 0.04809 0.76701
 C216 C 0.56812 -0.00451 0.70199
 C217 C 0.54990 0.08552 0.66509
 C218 C 0.50405 0.06357 0.63478
 C219 C 0.40046 -0.01377 0.63584
 C220 C 0.34255 -0.07152 0.66767
 C221 C 0.38825 -0.04993 0.69787
 C222 C 0.66998 0.21531 0.76613
 C223 C 0.69872 0.25909 0.79940
 C224 C 0.62237 0.19867 0.82562
 C225 C 0.51620 0.09746 0.81690
 C226 C 0.48760 0.05261 0.78367
 C227 C 0.53422 -0.03098 0.79351
 C228 C 0.56633 -0.02135 0.82590
 C229 C 0.67278 0.06571 0.83193
 C230 C 0.74685 0.14730 0.80580
 C231 C 0.71472 0.13943 0.77409
 C232 C 0.47729 -0.09397 0.68171
 C233 C 0.47432 -0.13144 0.65448
 C234 C 0.56020 -0.08387 0.64810
 C235 C 0.65080 0.00531 0.66849
 C236 C 0.65498 0.04507 0.69465
 H237 H 0.63035 0.14684 0.66380
 H238 H 0.55080 0.10941 0.61073
 H239 H 0.26223 -0.13282 0.66957
 H240 H 0.34148 -0.09625 0.72185
 H241 H 0.73046 0.26046 0.74715
 H242 H 0.78111 0.33799 0.80528
 H243 H 0.40620 -0.02846 0.77841
 H244 H 0.45163 -0.10079 0.78892
 H245 H 0.50701 -0.08466 0.84562
 H246 H 0.82985 0.21817 0.80980
 H247 H 0.77349 0.20463 0.75500
 H248 H 0.40787 -0.13622 0.68718
 H249 H 0.40295 -0.20058 0.63936
 H250 H 0.71993 0.04668 0.66391
 H251 H 0.72706 0.11500 0.70899
 H252 H 0.45592 0.04980 0.83662
 O253 O 0.49584 0.73005 0.94306
 O254 O 0.65886 0.93460 0.95755
 C255 C 0.64180 0.96220 0.94646
 O256 O 0.58541 0.94099 0.96327
 O257 O 0.41054 0.80592 0.99463
 C258 C 0.34863 0.73552 0.97029
 O259 O 0.30998 0.65751 0.97019
 O260 O 0.33543 0.58645 0.96708
 C261 C 0.39882 0.63137 0.94256
 O262 O 0.49638 0.69356 1.00912
 O263 O 0.65193 0.89187 1.02550
 C264 C 0.68273 0.95923 1.03980
 O265 O 0.66404 0.98336 1.02618
 O266 O 0.48543 0.83878 1.05597
 C267 C 0.39227 0.74398 1.06521
 O268 O 0.32362 0.66619 1.04332
 O269 O 0.36320 0.60820 1.03789
 C270 C 0.42562 0.62958 1.03333
 Cr271 Cr 0.57377 0.81242 0.98416
 Cr272 Cr 0.53496 0.88940 1.00965
 Cr273 Cr 0.33683 0.63367 1.00451
 O274 O 0.48198 0.77825 0.99922
 O275 O 0.48458 0.24654 0.96744
 O276 O 0.55852 0.22738 0.95144
 C277 C 0.63292 0.26483 0.94919
 O278 O 0.69157 0.30879 0.97532
 O279 O 0.83726 0.50764 0.97193
 C280 C 0.85815 0.56999 0.96262
 O281 O 0.81901 0.57194 0.97760
 O282 O 0.62911 0.42250 0.96144
 C283 C 0.53646 0.32755 0.95277
 O284 O 0.47208 0.21180 1.03525
 O285 O 0.52551 0.16981 1.01948
 C286 C 0.58759 0.21104 1.04290
 O287 O 0.67957 0.31139 1.04618
 O288 O 0.83302 0.51345 1.04288
 C289 C 0.82065 0.54204 1.05921
 O290 O 0.76286 0.52301 1.04812
 O291 O 0.57225 0.37138 1.03220
 C292 C 0.49765 0.27782 1.04589
 Cr293 Cr 0.51508 0.21890 0.99374
 Cr294 Cr 0.75718 0.40930 1.00889
 Cr295 Cr 0.69458 0.46876 1.00479
 O296 O 0.65618 0.36671 1.00279
 O297 O 0.57333 0.36239 0.54560
 O298 O 0.72243 0.43467 0.54763
 C299 C 0.69093 0.36500 0.55939
 O300 O 0.64184 0.28931 0.54078
 O301 O 0.47373 0.11509 0.50647
 C302 C 0.40400 0.07476 0.52365
 O303 O 0.37837 0.09457 0.51572
 O304 O 0.43059 0.23410 0.51249
 C305 C 0.48048 0.29105 0.54026
 O306 O 0.62635 0.43429 0.47740
 O307 O 0.77201 0.50165 0.47947
 C308 C 0.79897 0.48391 0.46995
 O309 O 0.74911 0.39993 0.47853
 O310 O 0.57711 0.22530 0.44441
 C311 C 0.49145 0.15910 0.43041
 O312 O 0.42674 0.12838 0.44561
 O313 O 0.49583 0.28232 0.44524
 C314 C 0.56827 0.37995 0.44983
 Cr315 Cr 0.67017 0.42856 0.51186
 Cr316 Cr 0.60984 0.25913 0.49265
 Cr317 Cr 0.43734 0.18799 0.48011
 O318 O 0.57383 0.29329 0.49432
 O319 O 0.13228 0.34752 0.54347
 O320 O 0.05900 0.36707 0.53394
 C321 C 0.10356 0.44173 0.55129
 O322 O 0.19224 0.54009 0.54260
 O323 O 0.38955 0.70478 0.53156
 C324 C 0.43088 0.70804 0.54889
 O325 O 0.41761 0.65118 0.54169
 O326 O 0.29039 0.46206 0.53107
 C327 C 0.20761 0.38832 0.54995
 O328 O 0.13712 0.33539 0.47277
 O329 O 0.07091 0.36304 0.46335
 C330 C 0.09127 0.42533 0.45521
 O331 O 0.15983 0.51388 0.47083
 O332 O 0.35818 0.67681 0.46026
 C333 C 0.43344 0.71656 0.45474
 O334 O 0.44469 0.68762 0.47191
 O335 O 0.30802 0.49365 0.45964
 C336 C 0.21498 0.39515 0.45313
 Cr337 Cr 0.10541 0.35923 0.50328
 Cr338 Cr 0.27367 0.60519 0.50126
 Cr339 Cr 0.36046 0.57088 0.50101
 O340 O 0.24649 0.51193 0.50182
 C341 C 0.21139 0.32828 0.37142
 C342 C 0.10982 0.22565 0.38234
 C343 C 0.09885 0.23745 0.41464
 C344 C 0.19450 0.34626 0.42143
 O345 O 0.26304 0.40198 0.39516
 H346 H 0.04964 0.15100 0.36810
 H347 H 0.02866 0.17431 0.43101
 C348 C 0.59250 0.90458 0.38422
 C349 C 0.66488 0.94070 0.40033
 C350 C 0.61383 0.87404 0.42862
 C351 C 0.51459 0.80275 0.42820
 O352 O 0.50109 0.82076 0.40143
 H353 H 0.74486 1.00627 0.39256
 H354 H 0.64533 0.87731 0.44758
 C355 C -0.00205 0.39849 0.37920
 C356 C -0.09127 0.28998 0.38746
 C357 C -0.06830 0.28627 0.41760
 C358 C 0.03185 0.39198 0.42610
 O359 O 0.07219 0.46018 0.40317
 H360 H -0.16438 0.22059 0.37343
 H361 H -0.11819 0.21497 0.43157
 C362 C 0.57395 0.46509 0.37639
 C363 C 0.65661 0.56034 0.39521
 C364 C 0.66434 0.54007 0.42509
 C365 C 0.58639 0.43421 0.42260
 O366 O 0.53140 0.38825 0.39302
 H367 H 0.70693 0.63657 0.38810
 H368 H 0.72082 0.59624 0.44615
 C369 C 0.46782 0.07352 0.34958
 C370 C 0.37571 0.01577 0.34781
 C371 C 0.37310 0.04121 0.37780
 C372 C 0.46336 0.11259 0.39574
 O373 O 0.52108 0.13269 0.37877
 H374 H 0.31655 -0.03871 0.32745
 H375 H 0.31226 0.01081 0.38577
 C376 C 0.97085 0.61737 0.39967
 C377 C 1.02962 0.70748 0.41545
 C378 C 0.97496 0.67024 0.44542
 C379 C 0.88870 0.56108 0.44594
 O380 O 0.88581 0.52890 0.41828
 H381 H 1.09997 0.78912 0.40526
 H382 H 0.99335 0.71620 0.46381
 C383 C 0.39870 0.25152 1.11993
 C384 C 0.31170 0.14332 1.11368
 C385 C 0.33741 0.13869 1.08500
 C386 C 0.43743 0.24425 1.07549
 O387 O 0.47529 0.31309 1.09675
 H388 H 0.23934 0.07594 1.12886
 H389 H 0.28937 0.06713 1.07257
 C390 C 0.94164 0.63718 1.14131
 C391 C 0.93441 0.68080 1.14292
 C392 C 0.88916 0.65289 1.11165
 C393 C 0.87373 0.59585 1.09330
 O394 O 0.90499 0.58605 1.11119
 H395 H 0.95515 0.72358 1.16475
 H396 H 0.86794 0.66989 1.10355
 C397 C 0.54846 0.08528 1.10725
 C398 C 0.47079 -0.00057 1.08402
 C399 C 0.47359 0.03477 1.05696
 C400 C 0.55325 0.13940 1.06540
 O401 O 0.59871 0.17032 1.09566
 H402 H 0.41620 -0.08050 1.08655
 H403 H 0.42416 -0.01004 1.03371
 C404 C 0.41210 0.52869 1.10083
 C405 C 0.44724 0.53159 1.07333
 C406 C 0.45056 0.56367 1.04428
 C407 C 0.41704 0.57811 1.05589
 O408 O 0.39293 0.55640 1.09036
 H409 H 0.47143 0.51604 1.07474
 H410 H 0.47857 0.57939 1.01798
 C411 C 0.28731 0.67946 1.14824
 C412 C 0.37780 0.74075 1.16008
 C413 C 0.42851 0.77184 1.13016
 C414 C 0.36399 0.72550 1.10251
 O415 O 0.27810 0.66948 1.11328
 H416 H 0.40506 0.76312 1.18718
 H417 H 0.50413 0.82340 1.12853
 C418 C 0.75916 1.04447 1.12815
 C419 C 0.77997 1.01442 1.12539
 C420 C 0.76440 0.98871 1.09051
 C421 C 0.73463 1.00440 1.07455
 O422 O 0.73167 1.03851 1.09738
 H423 H 0.79769 1.00571 1.14673
 H424 H 0.76622 0.95436 1.07878
 C425 C 0.39980 0.28809 0.61334
 C426 C 0.30967 0.20974 0.59346
 C427 C 0.32821 0.20058 0.56328
 C428 C 0.42824 0.27416 0.56681
 O429 O 0.47206 0.32757 0.59703
 H430 H 0.23894 0.16494 0.59976
 H431 H 0.27518 0.14671 0.54130
 C432 C 0.35739 -0.02745 0.60442
 C433 C 0.26558 -0.08469 0.60387
 C434 C 0.26670 -0.05966 0.57208
 C435 C 0.35771 0.00915 0.55526
 O436 O 0.41248 0.02863 0.57473
 H437 H 0.20777 -0.13326 0.62483
 H438 H 0.21121 -0.08351 0.56313
 C439 C 0.76521 0.40491 0.64670
 C440 C 0.65762 0.30517 0.65124
 C441 C 0.61752 0.27945 0.61901
 C442 C 0.70283 0.36488 0.59714
 O443 O 0.79311 0.44168 0.61362
 H444 H 0.61301 0.25517 0.67488
 H445 H 0.53563 0.20682 0.61211
 C446 C 0.23607 0.35279 0.63027
 C447 C 0.12833 0.25083 0.62784
 C448 C 0.10415 0.24915 0.59616
 C449 C 0.19861 0.34929 0.58139
 O450 O 0.27910 0.41244 0.60182
 H451 H 0.07336 0.18617 0.64721
 H452 H 0.02677 0.18434 0.58559
 C453 C 0.55372 0.87377 0.62196
 C454 C 0.62070 0.89565 0.61800
 C455 C 0.58221 0.83408 0.59020
 C456 C 0.49653 0.78141 0.57891
 O457 O 0.47858 0.80443 0.59807
 H458 H 0.68774 0.94744 0.63389
 H459 H 0.61338 0.82908 0.57923
 C460 C 0.02171 0.41936 0.63311
 C461 C -0.07290 0.31223 0.62305
 C462 C -0.05461 0.30749 0.59092
 C463 C 0.04909 0.41145 0.58311
 O464 O 0.09586 0.47961 0.60860
 H465 H -0.14675 0.24410 0.63730
 H466 H -0.11006 0.23626 0.57520
 C467 C 0.35371 0.50625 0.87392
 C468 C 0.25132 0.41767 0.88544
 C469 C 0.25433 0.45467 0.91158
 C470 C 0.35813 0.56297 0.91410
 O471 O 0.41878 0.59490 0.89114
 H472 H 0.18267 0.33574 0.87607
 H473 H 0.18924 0.40769 0.92778
 C474 C 0.29028 0.74524 0.89098
 C475 C 0.34307 0.83024 0.90887
 C476 C 0.36540 0.83239 0.94139
 C477 C 0.32527 0.74908 0.94160
 O478 O 0.27904 0.69539 0.91111
 H479 H 0.36288 0.88462 0.89993
 H480 H 0.40937 0.89066 0.96215
 C481 C 0.70214 1.06784 0.86308
 C482 C 0.79824 1.13386 0.86906
 C483 C 0.78830 1.10182 0.90112
 C484 C 0.68845 1.02098 0.91273
 O485 O 0.63606 0.99989 0.88986
 H486 H 0.86642 1.19516 0.85179
 H487 H 0.84673 1.13379 0.91456
 C488 C 0.45317 0.31836 0.87897
 C489 C 0.35616 0.21563 0.89187
 C490 C 0.37576 0.20799 0.92177
 C491 C 0.48313 0.30657 0.92515
 O492 O 0.53092 0.37467 0.89935
 H493 H 0.28012 0.15304 0.88049
 H494 H 0.31867 0.13803 0.93883
 C495 C 0.99461 0.67852 0.88257
 C496 C 1.00522 0.73838 0.88417
 C497 C 0.96051 0.71117 0.91594
 C498 C 0.92652 0.63733 0.93128
 O499 O 0.94735 0.61802 0.91122
 H500 H 1.03649 0.79114 0.86405
 H501 H 0.94945 0.73775 0.92583
 C502 C 0.65451 0.23635 0.86268
 C503 C 0.74298 0.29663 0.87699
 C504 C 0.74356 0.31160 0.91142
 C505 C 0.65541 0.25937 0.91583
 O506 O 0.60041 0.21284 0.88629
 H507 H 0.79974 0.32513 0.86402
 H508 H 0.80240 0.35691 0.93097
   
