data_POSCAR
  _audit_creation_date              2014-09-24
  _audit_creation_method            'ToBaCCo'
  _symmetry_space_group_name_H-M    'P1'
  _symmetry_Int_Tables_number       1
  _symmetry_cell_setting            triclinic
  loop_
  _symmetry_equiv_pos_as_xyz
 x,y,z
_cell_length_a 23.0506
_cell_length_b 24.1594
_cell_length_c 23.2096
_cell_angle_alpha 90.038000
_cell_angle_beta 91.761800
_cell_angle_gamma 90.738200
loop_
  _atom_site_label
  _atom_site_type_symbol
  _atom_site_fract_x
  _atom_site_fract_y
  _atom_site_fract_z
O1 O 0.53455 0.11094 0.00083
 O2 O 0.45873 -0.04453 -0.11083
 O3 O 0.61907 0.01103 -0.05494
 O4 O 0.35482 0.04427 0.00008
 O5 O 0.56741 -0.05762 -0.09520
 O6 O 0.43192 0.09750 0.00090
 O7 O 0.42413 0.03251 -0.07959
 O8 O 0.61100 0.07218 0.03197
 C9 C 0.58704 0.11396 0.01219
 C10 C 0.43185 0.00010 -0.12091
 C11 C 0.60846 -0.02139 -0.09679
 C12 C 0.37718 0.09377 0.00521
 O13 O 0.44163 0.04239 0.10250
 O14 O 0.54089 -0.12157 -0.00180
 O15 O 0.59239 -0.01518 0.09512
 O16 O 0.37710 -0.05506 -0.03984
 O17 O 0.44371 -0.10734 -0.01264
 O18 O 0.54485 0.06072 0.10854
 O19 O 0.40547 -0.02988 0.06195
 O20 O 0.61757 -0.07294 0.01069
 Co21 Co 0.48993 0.07081 0.04895
 Co22 Co 0.50258 -0.07583 -0.05100
 Co23 Co 0.59974 -0.00124 0.01930
 Co24 Co 0.41874 0.00273 -0.00711
 O25 O 0.50614 -0.00452 0.00248
 C26 C 0.41121 -0.00057 0.10582
 C27 C 0.59291 -0.11867 0.01100
 C28 C 0.57523 0.02132 0.12823
 C29 C 0.39235 -0.10291 -0.02824
 O30 O -0.11470 0.44088 -0.05115
 O31 O 0.03158 0.55940 0.10742
 O32 O 0.02279 0.39380 0.06658
 O33 O -0.07496 0.60517 -0.03971
 O34 O 0.01546 0.46511 0.11607
 O35 O -0.12393 0.53352 -0.03234
 O36 O -0.04297 0.59447 0.06271
 O37 O -0.07640 0.40572 0.02606
 C38 C -0.12012 0.41349 -0.00549
 C39 C -0.01395 0.58791 0.10839
 C40 C 0.00936 0.41460 0.11256
 C41 C -0.12143 0.58398 -0.02695
 O42 O -0.04056 0.55789 -0.11789
 O43 O 0.10581 0.44368 0.04046
 O44 O -0.03348 0.39332 -0.07611
 O45 O 0.06288 0.60854 0.02950
 O46 O 0.11543 0.54002 0.02234
 O47 O -0.02130 0.46423 -0.12499
 O48 O 0.03194 0.59531 -0.07165
 O49 O 0.06586 0.40535 -0.03518
 Co50 Co -0.06885 0.49935 -0.07488
 Co51 Co 0.06080 0.50196 0.06447
 Co52 Co -0.00538 0.40968 -0.00476
 Co53 Co -0.00588 0.59093 -0.00496
 O54 O -0.00476 0.50039 -0.00510
 C55 C 0.00444 0.58820 -0.11798
 C56 C 0.10958 0.41273 -0.00309
 C57 C -0.01715 0.41363 -0.12142
 C58 C 0.11051 0.59057 0.01725
 O59 O -0.01090 -0.11346 0.44303
 O60 O 0.11898 0.05517 0.54048
 O61 O 0.06931 -0.02243 0.39970
 O62 O 0.01635 -0.06383 0.62235
 O63 O 0.10578 0.05169 0.43529
 O64 O 0.00301 -0.11799 0.54803
 O65 O 0.10064 -0.02295 0.57680
 O66 O -0.02876 -0.05583 0.37429
 C67 C -0.02050 -0.10443 0.39078
 C68 C 0.13656 0.01397 0.56781
 C69 C 0.11146 0.00927 0.40476
 C70 C 0.01370 -0.11155 0.60087
 O71 O -0.09014 -0.05644 0.56393
 O72 O 0.00147 0.10123 0.44199
 O73 O -0.07692 0.02769 0.41656
 O74 O 0.04680 0.05340 0.63281
 O75 O 0.01584 0.09976 0.55452
 O76 O -0.10667 -0.05102 0.45354
 O77 O -0.04876 0.01763 0.60338
 O78 O 0.00460 0.05559 0.35840
 Co79 Co -0.04656 -0.07849 0.50160
 Co80 Co 0.05570 0.06974 0.49321
 Co81 Co -0.00095 0.00488 0.41376
 Co82 Co 0.02620 0.00024 0.58262
 O83 O 0.00845 -0.00834 0.49813
 C84 C -0.09087 -0.01661 0.59980
 C85 C 0.00246 0.10272 0.38641
 C86 C -0.11730 -0.00668 0.42551
 C87 C 0.03374 0.10032 0.60790
 C88 C -0.30781 0.25979 0.01556
 C89 C -0.34683 0.25124 -0.03157
 C90 C -0.38441 0.20490 -0.03171
 C91 C -0.38103 0.16684 0.01396
 C92 C -0.34300 0.17703 0.06143
 C93 C -0.30646 0.22345 0.06266
 C94 C -0.26497 0.30544 0.01399
 C95 C -0.22435 0.31210 0.05997
 C96 C -0.18002 0.35178 0.05570
 C97 C -0.17462 0.38292 0.00497
 C98 C -0.21785 0.37836 -0.03918
 C99 C -0.26298 0.33922 -0.03507
 C100 C -0.26687 0.23280 0.10895
 C101 C -0.22660 0.27665 0.10775
 C102 C -0.34540 0.28775 -0.07862
 C103 C -0.30402 0.33089 -0.08044
 H104 H -0.26598 0.20512 0.14569
 H105 H -0.19565 0.28160 0.14354
 H106 H -0.37528 0.28186 -0.11512
 H107 H -0.30310 0.35693 -0.11839
 H108 H -0.41359 0.19677 -0.06834
 H109 H -0.34073 0.14777 0.09679
 H110 H -0.14785 0.35609 0.09040
 H111 H -0.21430 0.40250 -0.07830
 C112 C 0.27804 0.76292 -0.02315
 C113 C 0.25737 0.81521 -0.03994
 C114 C 0.29620 0.86003 -0.04314
 C115 C 0.35550 0.85333 -0.02863
 C116 C 0.37560 0.79994 -0.01306
 C117 C 0.33699 0.75474 -0.01012
 C118 C 0.23677 0.71630 -0.01728
 C119 C 0.25670 0.66406 0.00095
 C120 C 0.21617 0.62064 0.00943
 C121 C 0.15645 0.63038 0.00076
 C122 C 0.13826 0.68275 -0.01886
 C123 C 0.17770 0.72557 -0.02790
 C124 C 0.35587 0.70181 0.00680
 C125 C 0.31644 0.65725 0.01218
 C126 C 0.19790 0.82211 -0.05179
 C127 C 0.15864 0.77806 -0.04553
 H128 H 0.40144 0.69494 0.01678
 H129 H 0.33275 0.61746 0.02619
 H130 H 0.18141 0.86211 -0.06494
 H131 H 0.11286 0.78529 -0.05402
 H132 H 0.27978 0.90034 -0.05555
 H133 H 0.42113 0.79351 -0.00219
 H134 H 0.23060 0.58075 0.02518
 H135 H 0.09273 0.69103 -0.02603
 C136 C 0.27553 0.23958 -0.00576
 C137 C 0.27415 0.20227 -0.05230
 C138 C 0.30658 0.15357 -0.04803
 C139 C 0.34111 0.14322 0.00165
 C140 C 0.34307 0.18140 0.04733
 C141 C 0.30965 0.22941 0.04422
 C142 C 0.23913 0.28931 -0.00864
 C143 C 0.23792 0.32482 0.03921
 C144 C 0.19898 0.36894 0.03849
 C145 C 0.16081 0.37708 -0.00929
 C146 C 0.16607 0.34381 -0.05871
 C147 C 0.20439 0.29913 -0.05822
 C148 C 0.30899 0.26705 0.09035
 C149 C 0.27347 0.31379 0.08802
 C150 C 0.24024 0.21443 -0.10193
 C151 C 0.20648 0.26238 -0.10506
 H152 H 0.33525 0.25971 0.12904
 H153 H 0.27306 0.34099 0.12514
 H154 H 0.23936 0.18642 -0.13843
 H155 H 0.18076 0.27007 -0.14398
 H156 H 0.30565 0.12418 -0.08336
 H157 H 0.36961 0.17309 0.08562
 H158 H 0.19560 0.39439 0.07669
 H159 H 0.13820 0.35079 -0.09625
 C160 C -0.29537 0.74291 0.02112
 C161 C -0.27661 0.79448 0.04323
 C162 C -0.31556 0.83801 0.04454
 C163 C -0.37240 0.83133 0.02179
 C164 C -0.39185 0.77865 0.00254
 C165 C -0.35307 0.73412 0.00182
 C166 C -0.25271 0.69870 0.01432
 C167 C -0.27021 0.64763 -0.01020
 C168 C -0.22794 0.60729 -0.02056
 C169 C -0.16891 0.61943 -0.00821
 C170 C -0.15308 0.67034 0.01742
 C171 C -0.19434 0.70985 0.02896
 C172 C -0.36965 0.68196 -0.02073
 C173 C -0.32900 0.63938 -0.02637
 C174 C -0.21823 0.80285 0.06006
 C175 C -0.17758 0.76137 0.05235
 H176 H -0.41409 0.67445 -0.03552
 H177 H -0.34336 0.60034 -0.04523
 H178 H -0.20344 0.84249 0.07721
 H179 H -0.13243 0.77006 0.06377
 H180 H -0.30043 0.87824 0.05990
 H181 H -0.43564 0.77326 -0.01512
 H182 H -0.24030 0.56843 -0.04113
 H183 H -0.10795 0.68026 0.02689
 C184 C -0.02885 -0.29273 0.24094
 C185 C 0.01601 -0.33142 0.24483
 C186 C 0.01725 -0.37430 0.20438
 C187 C -0.02531 -0.37797 0.15960
 C188 C -0.07274 -0.34178 0.15948
 C189 C -0.07417 -0.29834 0.19949
 C190 C -0.02698 -0.24423 0.27939
 C191 C -0.07015 -0.20387 0.27350
 C192 C -0.06669 -0.15660 0.30862
 C193 C -0.02147 -0.15085 0.35025
 C194 C 0.02075 -0.19203 0.35641
 C195 C 0.01872 -0.23851 0.32047
 C196 C -0.11825 -0.25871 0.19699
 C197 C -0.11597 -0.21191 0.23292
 C198 C 0.06046 -0.32475 0.28711
 C199 C 0.06160 -0.27918 0.32457
 H200 H -0.15423 -0.26335 0.16628
 H201 H -0.15013 -0.18166 0.22866
 H202 H 0.09518 -0.35448 0.29062
 H203 H 0.09691 -0.27522 0.35627
 H204 H 0.05364 -0.40231 0.20540
 H205 H -0.10649 -0.34527 0.12630
 H206 H -0.09986 -0.12525 0.30494
 H207 H 0.05536 -0.18748 0.38886
 C208 C 0.02288 0.29114 0.75485
 C209 C -0.00290 0.34029 0.73484
 C210 C -0.01209 0.38369 0.77426
 C211 C 0.00289 0.37651 0.83308
 C212 C 0.02994 0.32748 0.85135
 C213 C 0.04024 0.28497 0.81283
 C214 C 0.02873 0.24388 0.71537
 C215 C 0.05286 0.19455 0.73655
 C216 C 0.05577 0.14887 0.70016
 C217 C 0.03344 0.15123 0.64317
 C218 C 0.01053 0.20135 0.62178
 C219 C 0.00798 0.24803 0.65805
 C220 C 0.06499 0.23532 0.83210
 C221 C 0.07184 0.19100 0.79438
 C222 C -0.02141 0.34360 0.67662
 C223 C -0.01620 0.29825 0.63895
 H224 H 0.07834 0.23038 0.87697
 H225 H 0.09061 0.15311 0.81102
 H226 H -0.04136 0.38106 0.66036
 H227 H -0.03215 0.30223 0.59477
 H228 H -0.03413 0.42089 0.76018
 H229 H 0.04058 0.32111 0.89656
 H230 H 0.07434 0.11095 0.71694
 H231 H -0.00632 0.20364 0.57775
 C232 C -0.01977 0.29402 0.24207
 C233 C -0.04398 0.28674 0.18636
 C234 C -0.03758 0.32879 0.14588
 C235 C -0.00758 0.37818 0.16029
 C236 C 0.01342 0.38667 0.21729
 C237 C 0.00824 0.34397 0.25834
 C238 C -0.01990 0.24690 0.28247
 C239 C 0.00790 0.25240 0.33693
 C240 C 0.01220 0.20571 0.37306
 C241 C -0.00963 0.15393 0.35385
 C242 C -0.03958 0.14999 0.30028
 C243 C -0.04463 0.19612 0.26434
 C244 C 0.03335 0.34870 0.31416
 C245 C 0.03317 0.30373 0.35276
 C246 C -0.07096 0.23623 0.17093
 C247 C -0.07141 0.19165 0.20938
 H248 H 0.05489 0.38691 0.32753
 H249 H 0.05451 0.30872 0.39472
 H250 H -0.09024 0.23055 0.12812
 H251 H -0.09111 0.15279 0.19525
 H252 H -0.05298 0.32167 0.10191
 H253 H 0.03740 0.42429 0.22828
 H254 H 0.03520 0.20891 0.41437
 H255 H -0.05736 0.11046 0.28568
 C256 C 0.02771 -0.30028 0.74962
 C257 C -0.01363 -0.34310 0.74211
 C258 C -0.01822 -0.38388 0.78472
 C259 C 0.01766 -0.38148 0.83520
 C260 C 0.06322 -0.34164 0.83834
 C261 C 0.06708 -0.29987 0.79683
 C262 C 0.02755 -0.25338 0.70911
 C263 C 0.06555 -0.20818 0.71941
 C264 C 0.06148 -0.16144 0.68368
 C265 C 0.02093 -0.16084 0.63722
 C266 C -0.01488 -0.20744 0.62597
 C267 C -0.01263 -0.25340 0.66247
 C268 C 0.10707 -0.25575 0.80360
 C269 C 0.10584 -0.21030 0.76596
 C270 C -0.05192 -0.34243 0.69387
 C271 C -0.05115 -0.29847 0.65445
 H272 H 0.13824 -0.25543 0.83943
 H273 H 0.13603 -0.17619 0.77391
 H274 H -0.08373 -0.37542 0.68732
 H275 H -0.08218 -0.29894 0.61842
 H276 H -0.05235 -0.41506 0.78016
 H277 H 0.09306 -0.34036 0.87515
 H278 H 0.08947 -0.12571 0.69190
 H279 H -0.04636 -0.20685 0.59031
 C280 C 0.32947 0.01594 0.72969
 C281 C 0.33630 0.06153 0.76698
 C282 C 0.37411 0.05777 0.81548
 C283 C 0.40552 0.00879 0.82684
 C284 C 0.40188 -0.03450 0.78548
 C285 C 0.36231 -0.03196 0.73831
 C286 C 0.28453 0.01710 0.68282
 C287 C 0.27341 -0.03065 0.64933
 C288 C 0.22640 -0.03129 0.60907
 C289 C 0.19229 0.01613 0.60097
 C290 C 0.20617 0.06455 0.63270
 C291 C 0.25117 0.06480 0.67478
 C292 C 0.35222 -0.07780 0.70177
 C293 C 0.30809 -0.07741 0.65857
 C294 C 0.30286 0.10896 0.75668
 C295 C 0.26141 0.11074 0.71108
 H296 H 0.37717 -0.11514 0.70803
 H297 H 0.30043 -0.11437 0.63284
 H298 H 0.30791 0.14459 0.78484
 H299 H 0.23577 0.14774 0.70542
 H300 H 0.37700 0.09212 0.84557
 H301 H 0.42563 -0.07249 0.79257
 H302 H 0.21534 -0.06880 0.58529
 H303 H 0.17902 0.10068 0.62775
 C304 C -0.32128 0.01754 0.28163
 C305 C -0.33187 0.06869 0.25469
 C306 C -0.37248 0.07117 0.20839
 C307 C -0.39963 0.02244 0.18729
 C308 C -0.39085 -0.02786 0.21661
 C309 C -0.35176 -0.03056 0.26395
 C310 C -0.27385 0.01325 0.32554
 C311 C -0.26118 -0.03855 0.35001
 C312 C -0.21249 -0.04364 0.38726
 C313 C -0.17526 0.00210 0.39818
 C314 C -0.18991 0.05428 0.37520
 C315 C -0.23921 0.06007 0.33878
 C316 C -0.33946 -0.08115 0.29120
 C317 C -0.29517 -0.08500 0.33379
 C318 C -0.29841 0.11530 0.27158
 C319 C -0.25265 0.11100 0.31267
 H320 H -0.36297 -0.11844 0.27816
 H321 H -0.28590 -0.12515 0.35245
 H322 H -0.30606 0.15496 0.25111
 H323 H -0.22644 0.14749 0.32274
 H324 H -0.37858 0.10977 0.18537
 H325 H -0.41142 -0.06548 0.20002
 H326 H -0.20120 -0.08406 0.40414
 H327 H -0.16140 0.08967 0.38327
 C328 C 0.29910 -0.01362 0.24859
 C329 C 0.29388 -0.05308 0.20407
 C330 C 0.33368 -0.05188 0.15925
 C331 C 0.37805 -0.01120 0.15866
 C332 C 0.38448 0.02587 0.20559
 C333 C 0.34467 0.02542 0.25010
 C334 C 0.25408 -0.01097 0.29252
 C335 C 0.25723 0.03085 0.33474
 C336 C 0.21180 0.03602 0.37348
 C337 C 0.16350 -0.00028 0.37002
 C338 C 0.16250 -0.04348 0.32888
 C339 C 0.20721 -0.04854 0.28961
 C340 C 0.34771 0.06519 0.29440
 C341 C 0.30469 0.06796 0.33586
 C342 C 0.24718 -0.09106 0.20379
 C343 C 0.20474 -0.08896 0.24593
 H344 H 0.38280 0.09549 0.29607
 H345 H 0.30794 0.10022 0.36830
 H346 H 0.24264 -0.12187 0.16995
 H347 H 0.16881 -0.11832 0.24334
 H348 H 0.32803 -0.08033 0.12330
 H349 H 0.41834 0.05743 0.20573
 H350 H 0.21308 0.06930 0.40486
 H351 H 0.12558 -0.07170 0.32560
 C352 C -0.27382 -0.01131 0.76361
 C353 C -0.31516 -0.05462 0.76409
 C354 C -0.35551 -0.05692 0.80845
 C355 C -0.35415 -0.01648 0.85230
 C356 C -0.31330 0.02753 0.84983
 C357 C -0.27293 0.03010 0.80596
 C358 C -0.22932 -0.01029 0.71908
 C359 C -0.18673 0.03192 0.71999
 C360 C -0.14267 0.03106 0.67946
 C361 C -0.14086 -0.01182 0.63837
 C362 C -0.18504 -0.05293 0.63720
 C363 C -0.22908 -0.05257 0.67768
 C364 C -0.23057 0.07246 0.80463
 C365 C -0.18818 0.07331 0.76244
 C366 C -0.31415 -0.09556 0.72109
 C367 C -0.27192 -0.09453 0.67864
 H368 H -0.22957 0.10475 0.83708
 H369 H -0.15577 0.10620 0.76360
 H370 H -0.34575 -0.12916 0.72073
 H371 H -0.27227 -0.12738 0.64682
 H372 H -0.38649 -0.09098 0.80987
 H373 H -0.31176 0.05918 0.88300
 H374 H -0.10898 0.06281 0.68097
 H375 H -0.18419 -0.08629 0.60599
   
