data_POSCAR
  _audit_creation_date              2014-09-24
  _audit_creation_method            'ToBaCCo'
  _symmetry_space_group_name_H-M    'P1'
  _symmetry_Int_Tables_number       1
  _symmetry_cell_setting            triclinic
  loop_
  _symmetry_equiv_pos_as_xyz
 x,y,z
_cell_length_a 17.8140
_cell_length_b 17.6807
_cell_length_c 22.1843
_cell_angle_alpha 88.654100
_cell_angle_beta 91.007700
_cell_angle_gamma 88.751500
loop_
  _atom_site_label
  _atom_site_type_symbol
  _atom_site_fract_x
  _atom_site_fract_y
  _atom_site_fract_z
Si1 Si 1.24787 0.26185 0.23828
 Si2 Si 0.76103 -0.23982 0.25242
 Si3 Si 0.74232 0.25774 -0.25153
 Si4 Si 1.24501 -0.23871 -0.26220
 Si5 Si 0.27116 0.24485 0.75294
 Si6 Si 0.76654 0.74934 0.75061
 Si7 Si 0.75003 0.24896 0.25431
 Si8 Si 0.23878 0.74324 0.24663
 O9 O 1.15492 0.04043 0.04515
 O10 O 0.83562 -0.03929 0.02797
 O11 O 0.94903 0.16536 0.03729
 O12 O 1.04148 -0.16314 0.02940
 O13 O 0.88087 0.07539 0.06593
 O14 O 1.10893 -0.07979 0.06822
 O15 O 0.92322 -0.11264 0.06253
 O16 O 1.06600 0.11326 0.07483
 C17 C 1.12863 0.08319 0.08400
 C18 C 0.86019 -0.08392 0.06850
 C19 C 0.90826 0.13726 0.07672
 C20 C 1.08072 -0.14238 0.07264
 O21 O 1.11315 -0.11571 -0.05180
 O22 O 0.88741 0.13255 -0.04990
 O23 O 1.12158 0.12202 -0.03602
 O24 O 0.87624 -0.10237 -0.05491
 O25 O 0.86768 0.00998 -0.08783
 O26 O 1.13700 0.01481 -0.07552
 O27 O 1.00131 -0.12500 -0.08537
 O28 O 0.99868 0.14428 -0.07863
 Co29 Co 1.11577 -0.03140 -0.00392
 Co30 Co 0.87950 0.04089 -0.01070
 Co31 Co 1.02969 0.12347 -0.00143
 Co32 Co 0.96399 -0.11342 -0.01135
 O33 O 0.99738 0.00473 -0.00643
 C34 C 1.06919 -0.13283 -0.09363
 C35 C 0.93108 0.14882 -0.09113
 C36 C 1.14896 0.08329 -0.07637
 C37 C 0.86318 -0.05782 -0.09816
 O38 O 1.14368 0.49374 0.58031
 O39 O 0.87510 0.49137 0.57513
 O40 O 1.00642 0.62589 0.57784
 O41 O 1.01391 0.35599 0.57708
 O42 O 0.89657 0.61874 0.54266
 O43 O 1.12462 0.36791 0.54590
 O44 O 0.88920 0.37922 0.54323
 O45 O 1.13132 0.60567 0.54517
 C46 C 1.15019 0.56212 0.58794
 C47 C 0.86360 0.42325 0.58126
 C48 C 0.93853 0.63100 0.58675
 C49 C 1.08186 0.34884 0.58717
 O50 O 1.12560 0.42179 0.42979
 O51 O 0.89579 0.56978 0.42614
 O52 O 1.08133 0.60919 0.42869
 O53 O 0.93593 0.38265 0.42671
 O54 O 0.84862 0.45313 0.45983
 O55 O 1.17077 0.53837 0.46307
 O56 O 1.05572 0.33362 0.46041
 O57 O 0.96369 0.65709 0.45861
 Co58 Co 1.12882 0.45925 0.50477
 Co59 Co 0.89147 0.52991 0.50111
 Co60 Co 1.04205 0.61258 0.50272
 Co61 Co 0.97731 0.37542 0.50177
 O62 O 1.00991 0.49420 0.50228
 C63 C 1.09570 0.36103 0.42009
 C64 C 0.92591 0.63044 0.41644
 C65 C 1.14419 0.58085 0.42190
 C66 C 0.87295 0.41207 0.41939
 O67 O 0.63681 0.06582 0.56078
 O68 O 0.33460 -0.06893 0.50073
 O69 O 0.41899 0.14728 0.53183
 O70 O 0.54525 -0.15752 0.54713
 O71 O 0.35630 0.04861 0.54775
 O72 O 0.59582 -0.06244 0.59088
 O73 O 0.41814 -0.13192 0.54901
 O74 O 0.53102 0.11164 0.57881
 C75 C 0.59475 0.09726 0.59698
 C76 C 0.35320 -0.10749 0.54623
 C77 C 0.37921 0.10892 0.56625
 C78 C 0.57842 -0.13038 0.59203
 O79 O 0.63203 -0.10949 0.48337
 O80 O 0.37468 0.11423 0.43798
 O81 O 0.60598 0.12702 0.46783
 O82 O 0.40828 -0.12501 0.42475
 O83 O 0.38217 -0.01029 0.39648
 O84 O 0.64342 0.01683 0.44657
 O85 O 0.54482 -0.13271 0.42205
 O86 O 0.48826 0.13547 0.42069
 Co87 Co 0.61454 -0.01943 0.51794
 Co88 Co 0.37482 0.01932 0.47302
 Co89 Co 0.51000 0.11876 0.49940
 Co90 Co 0.48078 -0.12420 0.48588
 O91 O 0.49488 -0.00146 0.49386
 C92 C 0.61304 -0.12852 0.43226
 C93 C 0.42228 0.14264 0.40460
 C94 C 0.63895 0.08405 0.43214
 C95 C 0.37901 -0.07875 0.38682
 O96 O 0.63814 0.57929 0.07076
 O97 O 0.34051 0.45552 0.01621
 O98 O 0.42050 0.67190 0.03021
 O99 O 0.55801 0.36030 0.04089
 O100 O 0.36224 0.57629 0.05725
 O101 O 0.60597 0.45232 0.08711
 O102 O 0.42866 0.39012 0.05883
 O103 O 0.53215 0.63291 0.08727
 C104 C 0.59546 0.61290 0.10596
 C105 C 0.36346 0.41556 0.06007
 C106 C 0.38318 0.64026 0.06905
 C107 C 0.58675 0.38557 0.08758
 O108 O 0.63544 0.42040 -0.02755
 O109 O 0.37919 0.63134 -0.06077
 O110 O 0.60961 0.65086 -0.01285
 O111 O 0.40313 0.39611 -0.06148
 O112 O 0.38393 0.50764 -0.09536
 O113 O 0.64610 0.55288 -0.05433
 O114 O 0.53815 0.39192 -0.07857
 O115 O 0.49349 0.66149 -0.07281
 Co116 Co 0.61922 0.50375 0.01656
 Co117 Co 0.37873 0.54092 -0.01856
 Co118 Co 0.51251 0.64232 0.00707
 Co119 Co 0.48355 0.39783 -0.00946
 O120 O 0.49846 0.52105 -0.00113
 C121 C 0.60731 0.39898 -0.07568
 C122 C 0.42769 0.66251 -0.09211
 C123 C 0.64064 0.62254 -0.05635
 C124 C 0.38647 0.43925 -0.10484
 C125 C 1.22694 0.17653 0.19609
 C126 C 1.27160 0.11193 0.19635
 C127 C 1.23859 0.06609 0.15563
 C128 C 1.17609 0.10628 0.13426
 O129 O 1.16886 0.17328 0.15865
 H130 H 1.32330 0.10065 0.22162
 H131 H 1.25870 0.01106 0.14181
 C132 C 1.22141 0.66958 0.70546
 C133 C 1.22068 0.60148 0.73688
 C134 C 1.19574 0.55035 0.69629
 C135 C 1.18262 0.59170 0.64354
 O136 O 1.19795 0.66393 0.64905
 H137 H 1.23537 0.59078 0.78389
 H138 H 1.18613 0.49079 0.70453
 C139 C 0.67514 0.18984 0.71911
 C140 C 0.60785 0.17354 0.74518
 C141 C 0.57106 0.13124 0.70404
 C142 C 0.61893 0.12464 0.65607
 O143 O 0.68230 0.16031 0.66511
 H144 H 0.58658 0.19347 0.78748
 H145 H 0.51445 0.11102 0.70717
 C146 C 0.68940 0.69368 0.22697
 C147 C 0.62278 0.68031 0.25572
 C148 C 0.57912 0.64444 0.21471
 C149 C 0.62286 0.63786 0.16449
 O150 O 0.68961 0.66760 0.17169
 H151 H 0.60595 0.69823 0.29977
 H152 H 0.52134 0.62801 0.21976
 C153 C 0.77140 -0.16955 0.19094
 C154 C 0.71446 -0.11907 0.17422
 C155 C 0.74106 -0.07881 0.12658
 C156 C 0.81219 -0.10817 0.11778
 O157 O 0.83107 -0.16333 0.15686
 H158 H 0.65972 -0.11305 0.19421
 H159 H 0.71182 -0.03426 0.10071
 C160 C 0.75805 0.32879 0.68876
 C161 C 0.71168 0.39177 0.68054
 C162 C 0.74673 0.43674 0.64002
 C163 C 0.81097 0.39689 0.62588
 O164 O 0.81840 0.33127 0.65529
 H165 H 0.65986 0.40460 0.70333
 H166 H 0.72763 0.49157 0.62237
 C167 C 0.25746 -0.17240 0.67326
 C168 C 0.20653 -0.11614 0.65539
 C169 C 0.23448 -0.08526 0.60375
 C170 C 0.30053 -0.12487 0.59437
 O171 O 0.31464 -0.17775 0.63641
 H172 H 0.15477 -0.10009 0.67695
 H173 H 0.21050 -0.03863 0.57684
 C174 C 0.26528 0.33784 0.18211
 C175 C 0.21796 0.39915 0.17044
 C176 C 0.24850 0.43662 0.12263
 C177 C 0.31252 0.39549 0.10915
 O178 O 0.32281 0.33542 0.14515
 H179 H 0.16653 0.41366 0.19315
 H180 H 0.22682 0.48778 0.10022
 C181 C 0.82750 0.21073 -0.21928
 C182 C 0.89541 0.20220 -0.24726
 C183 C 0.94461 0.17727 -0.20269
 C184 C 0.90272 0.17340 -0.15106
 O185 O 0.83182 0.19314 -0.16114
 H186 H 0.90781 0.21437 -0.29399
 H187 H 1.00366 0.16348 -0.20715
 C188 C 0.84780 0.71553 0.28481
 C189 C 0.91755 0.74771 0.28113
 C190 C 0.95793 0.71927 0.32993
 C191 C 0.90974 0.67172 0.35938
 O192 O 0.84343 0.66910 0.33206
 H193 H 0.93433 0.79244 0.25043
 H194 H 1.01435 0.73366 0.34363
 C195 C 0.33194 0.24078 0.28496
 C196 C 0.40294 0.26677 0.27425
 C197 C 0.44771 0.23257 0.31786
 C198 C 0.40002 0.18893 0.35167
 O199 O 0.33000 0.19365 0.33174
 H200 H 0.42023 0.30491 0.23854
 H201 H 0.50762 0.23870 0.32435
 C202 C 0.33109 0.74838 -0.21518
 C203 C 0.40032 0.77771 -0.22771
 C204 C 0.44771 0.74910 -0.18319
 C205 C 0.40340 0.70479 -0.14700
 O206 O 0.33290 0.70426 -0.16645
 H207 H 0.41482 0.81439 -0.26526
 H208 H 0.50702 0.75918 -0.17800
 C209 C 1.16310 -0.20799 -0.21811
 C210 C 1.09090 -0.21068 -0.24082
 C211 C 1.04659 -0.18364 -0.19669
 C212 C 1.09505 -0.16620 -0.15008
 O213 O 1.16624 -0.18101 -0.16285
 H214 H 1.07292 -0.22984 -0.28463
 H215 H 0.98609 -0.17671 -0.19844
 C216 C 1.16963 0.28101 0.28994
 C217 C 1.10711 0.23673 0.29435
 C218 C 1.07007 0.26161 0.34359
 C219 C 1.11271 0.31935 0.36538
 O220 O 1.17307 0.33151 0.33287
 H221 H 1.09190 0.18980 0.26655
 H222 H 1.01891 0.23956 0.36206
 C223 C 0.73087 -0.18381 0.31616
 C224 C 0.78081 -0.14032 0.34714
 C225 C 0.74270 -0.11528 0.39503
 C226 C 0.67142 -0.14332 0.38856
 O227 O 0.66378 -0.18543 0.34065
 H228 H 0.83903 -0.13028 0.33714
 H229 H 0.76423 -0.08006 0.43028
 C230 C 0.71456 0.32020 -0.19027
 C231 C 0.76480 0.37211 -0.16986
 C232 C 0.72885 0.40975 -0.12646
 C233 C 0.65877 0.37846 -0.12356
 O234 O 0.64927 0.32360 -0.16254
 H235 H 0.82154 0.38090 -0.18485
 H236 H 0.75167 0.45376 -0.09892
 C237 C 1.25491 0.18797 -0.17763
 C238 C 1.31218 0.16551 -0.13816
 C239 C 1.28009 0.11882 -0.09698
 C240 C 1.20581 0.11618 -0.11461
 O241 O 1.18982 0.15879 -0.16309
 H242 H 1.37068 0.18055 -0.13996
 H243 H 1.30687 0.09176 -0.05770
 C244 C 1.22753 0.66731 0.29729
 C245 C 1.27663 0.60602 0.30329
 C246 C 1.25153 0.56447 0.35105
 C247 C 1.18886 0.60342 0.37012
 O248 O 1.17406 0.66581 0.33767
 H249 H 1.32604 0.59402 0.27716
 H250 H 1.27612 0.51250 0.37003
 C251 C 0.72103 0.16974 0.30379
 C252 C 0.71763 0.09712 0.28371
 C253 C 0.68649 0.05712 0.32934
 C254 C 0.67304 0.10797 0.37447
 O255 O 0.69312 0.17733 0.35874
 H256 H 0.73351 0.07644 0.24010
 H257 H 0.67239 -0.00190 0.32872
 C258 C 0.71398 0.72290 -0.18110
 C259 C 0.66990 0.77879 -0.15692
 C260 C 0.63995 0.74759 -0.10757
 C261 C 0.66562 0.67348 -0.10524
 O262 O 0.71154 0.65746 -0.15022
 H263 H 0.66128 0.83659 -0.17325
 H264 H 0.60236 0.77579 -0.07724
 C265 C 0.80856 -0.16230 -0.22312
 C266 C 0.80266 -0.09200 -0.25125
 C267 C 0.82446 -0.04190 -0.20848
 C268 C 0.84090 -0.08575 -0.15749
 O269 O 0.83173 -0.15834 -0.16646
 H270 H 0.78137 -0.07843 -0.29625
 H271 H 0.82556 0.01914 -0.21317
 C272 C 0.77312 0.32921 0.30202
 C273 C 0.72968 0.39434 0.30524
 C274 C 0.76276 0.43540 0.34911
 C275 C 0.82418 0.39230 0.36877
 O276 O 0.83069 0.32775 0.34038
 H277 H 0.67866 0.40906 0.28007
 H278 H 0.74375 0.48951 0.36566
 C279 C 0.26427 -0.17572 0.28553
 C280 C 0.23863 -0.10338 0.27083
 C281 C 0.28092 -0.05709 0.30518
 C282 C 0.32931 -0.10456 0.33825
 O283 O 0.31928 -0.17666 0.32652
 H284 H 0.19555 -0.08588 0.23817
 H285 H 0.27600 0.00394 0.30695
 C286 C 0.31997 0.32999 -0.22276
 C287 C 0.32775 0.39573 -0.25645
 C288 C 0.35510 0.44713 -0.21684
 C289 C 0.36208 0.40813 -0.16238
 O290 O 0.34080 0.33748 -0.16598
 H291 H 0.31203 0.40587 -0.30333
 H292 H 0.36707 0.50596 -0.22615
 C293 C 1.16119 -0.23868 0.19848
 C294 C 1.09930 -0.28364 0.19266
 C295 C 1.05951 -0.25362 0.14406
 C296 C 1.10024 -0.19261 0.12443
 O297 O 1.16174 -0.18368 0.15723
 H298 H 1.08611 -0.33360 0.21918
 H299 H 1.00754 -0.27388 0.12504
 C300 C 1.18342 0.27415 0.71281
 C301 C 1.11352 0.27481 0.73819
 C302 C 1.06567 0.30183 0.69380
 C303 C 1.11020 0.31591 0.64476
 O304 O 1.18187 0.29976 0.65626
 H305 H 1.09940 0.25958 0.78400
 H306 H 1.00582 0.31216 0.69715
 C307 C 0.68849 -0.23476 0.69655
 C308 C 0.64001 -0.29105 0.68152
 C309 C 0.58832 -0.25729 0.64343
 C310 C 0.60919 -0.18276 0.63842
 O311 O 0.66998 -0.16871 0.67087
 H312 H 0.64252 -0.34981 0.69642
 H313 H 0.54275 -0.28434 0.61999
 C314 C 0.66954 0.27682 0.20511
 C315 C 0.60482 0.23617 0.19933
 C316 C 0.56356 0.27326 0.15514
 C317 C 0.60592 0.33427 0.13829
 O318 O 0.67033 0.33658 0.16834
 H319 H 0.59046 0.18448 0.22307
 H320 H 0.50979 0.25717 0.13656
 C321 C 0.82935 0.22407 0.20393
 C322 C 0.89528 0.26327 0.20217
 C323 C 0.93391 0.23486 0.15491
 C324 C 0.88913 0.17980 0.13131
 O325 O 0.82545 0.17296 0.16103
 H326 H 0.91203 0.30909 0.23059
 H327 H 0.98787 0.25287 0.13889
 C328 C 0.84086 0.69108 0.71532
 C329 C 0.90820 0.67182 0.74353
 C330 C 0.95327 0.64589 0.69903
 C331 C 0.91013 0.65119 0.64673
 O332 O 0.84169 0.67854 0.65649
 H333 H 0.92392 0.68004 0.79022
 H334 H 1.01139 0.62714 0.70378
 C335 C 0.32527 0.18061 0.70491
 C336 C 0.34334 0.10719 0.72309
 C337 C 0.36865 0.07303 0.67344
 C338 C 0.36506 0.12796 0.62857
 O339 O 0.33842 0.19372 0.64703
 H340 H 0.33484 0.07950 0.76624
 H341 H 0.38522 0.01406 0.66959
 C342 C 0.31162 0.72215 0.19841
 C343 C 0.37540 0.76435 0.19370
 C344 C 0.41135 0.73683 0.14542
 C345 C 0.36727 0.67939 0.12472
 O346 O 0.30647 0.67005 0.15679
 H347 H 0.39227 0.81192 0.22014
 H348 H 0.46257 0.75788 0.12642
   
