data_POSCAR
  _audit_creation_date              2014-09-24
  _audit_creation_method            'ToBaCCo'
  _symmetry_space_group_name_H-M    'P1'
  _symmetry_Int_Tables_number       1
  _symmetry_cell_setting            triclinic
  loop_
  _symmetry_equiv_pos_as_xyz
 x,y,z
_cell_length_a 38.3224
_cell_length_b 39.0094
_cell_length_c 39.3475
_cell_angle_alpha 89.732400
_cell_angle_beta 90.169200
_cell_angle_gamma 89.909100
loop_
  _atom_site_label
  _atom_site_type_symbol
  _atom_site_fract_x
  _atom_site_fract_y
  _atom_site_fract_z
C1 C 0.18308 1.23486 0.18526
 C2 C 0.16891 1.21883 0.21437
 C3 C 0.18147 1.18709 0.22679
 C4 C 0.21015 1.17209 0.21009
 C5 C 0.22564 1.18787 0.18181
 C6 C 0.21206 1.21908 0.16971
 H7 H 0.14934 1.23226 0.22885
 H8 H 0.21934 1.14691 0.21752
 H9 H 0.22357 1.23007 0.14716
 C10 C 0.81213 0.76690 0.19197
 C11 C 0.82432 0.77911 0.22364
 C12 C 0.81145 0.80951 0.23798
 C13 C 0.78379 0.82669 0.22183
 C14 C 0.76994 0.81462 0.19109
 C15 C 0.78466 0.78531 0.17614
 H16 H 0.84353 0.76485 0.23804
 H17 H 0.77338 0.84987 0.23291
 H18 H 0.77571 0.77849 0.15103
 C19 C 0.82037 1.22543 -0.18230
 C20 C 0.78963 1.21003 -0.16982
 C21 C 0.77315 1.18319 -0.18726
 C22 C 0.78755 1.17143 -0.21782
 C23 C 0.81904 1.18495 -0.23036
 C24 C 0.83463 1.21233 -0.21268
 H25 H 0.77940 1.21721 -0.14528
 H26 H 0.77508 1.15024 -0.23066
 H27 H 0.85676 1.22489 -0.22421
 C28 C 0.18537 0.76871 -0.19132
 C29 C 0.21610 0.78083 -0.17639
 C30 C 0.23242 0.81051 -0.18879
 C31 C 0.21833 0.82712 -0.21757
 C32 C 0.18776 0.81498 -0.23378
 C33 C 0.17145 0.78567 -0.21978
 H34 H 0.22666 0.76762 -0.15437
 H35 H 0.23172 0.84940 -0.22731
 H36 H 0.14690 0.77648 -0.22980
 C37 C 0.54671 1.05314 -0.01496
 H38 H 0.54306 1.05892 0.01166
 C39 C 0.57055 1.07201 -0.03415
 H40 H 0.58524 1.09236 -0.02215
 C41 C 0.53337 1.01830 -0.06244
 H42 H 0.51960 0.99670 -0.07308
 C43 C 0.55729 1.03624 -0.08245
 H44 H 0.56117 1.02877 -0.10864
 N45 N 0.52846 1.02708 -0.02937
 C46 C 0.45106 1.01354 0.05049
 H47 H 0.45530 0.98669 0.05618
 C48 C 0.42661 1.03221 0.06903
 H49 H 0.41207 1.01961 0.08906
 C50 C 0.46373 1.06215 0.01634
 H51 H 0.47762 1.07344 -0.00477
 C52 C 0.43909 1.08164 0.03390
 H53 H 0.43466 1.10810 0.02660
 Zn54 Zn 0.49947 1.00060 -0.00067
 N55 N 0.46930 1.02877 0.02497
 C56 C 0.53455 0.98380 0.06110
 N57 N 0.52970 0.97514 0.02796
 C58 C 0.54863 0.94968 0.01334
 C59 C 0.57291 0.93108 0.03245
 C60 C 0.55904 0.96622 0.08101
 C61 C 0.45190 0.98563 -0.05229
 C62 C 0.42881 0.96585 -0.07137
 C63 C 0.44304 0.91708 -0.03581
 C64 C 0.46638 0.93767 -0.01778
 N65 N 0.47051 0.97124 -0.02642
 H66 H 0.52012 1.00491 0.07190
 H67 H 0.54498 0.94400 -0.01332
 H68 H 0.58791 0.91099 0.02039
 H69 H 0.56284 0.97347 0.10729
 H70 H 0.45493 1.01262 -0.05798
 H71 H 0.41405 0.97772 -0.09179
 H72 H 0.43973 0.89048 -0.02854
 H73 H 0.48048 0.92703 0.00364
 C74 C 0.42019 1.06662 0.06058
 C75 C 0.57629 1.06338 -0.06825
 C76 C 0.42403 0.93120 -0.06303
 C77 C 0.57848 0.93946 0.06665
 C78 C -0.01315 0.55792 1.04145
 H79 H 0.01472 0.56048 1.03795
 C80 C -0.03111 0.58180 1.06099
 H81 H -0.01670 0.60296 1.07181
 C82 C -0.06554 0.52812 1.02962
 H83 H -0.07898 0.50754 1.01687
 C84 C -0.08451 0.55108 1.04963
 H85 H -0.11228 0.54718 1.05263
 N86 N -0.03042 0.53174 1.02626
 C87 C 0.05091 0.45525 1.01257
 H88 H 0.05296 0.45513 0.98515
 C89 C 0.07120 0.43278 1.03202
 H90 H 0.08887 0.41530 1.01943
 C91 C 0.02382 0.47688 1.06217
 H92 H 0.00475 0.49358 1.07370
 C93 C 0.04326 0.45446 1.08257
 H94 H 0.03936 0.45437 1.10982
 Zn95 Zn -0.00220 0.50260 0.99953
 N96 N 0.02774 0.47661 1.02782
 C97 C 0.05872 0.53552 0.97438
 N98 N 0.02373 0.53147 0.97024
 C99 C 0.00564 0.55034 0.94700
 C100 C 0.02280 0.57412 0.92643
 C101 C 0.07685 0.55946 0.95473
 C102 C -0.04985 0.44869 0.99193
 C103 C -0.06818 0.42301 0.97492
 C104 C -0.04228 0.44222 0.92228
 C105 C -0.02485 0.46784 0.94021
 N106 N -0.02900 0.47070 0.97442
 H107 H 0.07243 0.52111 0.99378
 H108 H -0.02230 0.54707 0.94468
 H109 H 0.00784 0.58841 0.90777
 H110 H 0.10444 0.56312 0.95938
 H111 H -0.05172 0.45070 1.01928
 H112 H -0.08437 0.40544 0.98927
 H113 H -0.03850 0.44008 0.89511
 H114 H -0.00720 0.48469 0.92687
 C115 C 0.06702 0.43182 1.06743
 C116 C -0.06732 0.57851 1.06563
 C117 C -0.06419 0.41939 0.93970
 C118 C 0.05886 0.57938 0.93046
 C119 C 1.06531 -0.01952 0.52923
 H120 H 1.07730 -0.00042 0.51309
 C121 C 1.08575 -0.03773 0.55268
 H122 H 1.11355 -0.03296 0.55404
 C123 C 1.01438 -0.04804 0.54835
 H124 H 0.98639 -0.05132 0.54695
 C125 C 1.03383 -0.06707 0.57175
 H126 H 1.02062 -0.08499 0.58840
 N127 N 1.03031 -0.02508 0.52747
 C128 C 1.01953 0.06160 0.46283
 H129 H 0.99962 0.07407 0.47770
 C130 C 1.03737 0.08035 0.43808
 H131 H 1.03168 0.10737 0.43492
 C132 C 1.05007 0.01108 0.44775
 H133 H 1.05430 -0.01613 0.45127
 C134 C 1.06856 0.02886 0.42275
 H135 H 1.08694 0.01509 0.40702
 Zn136 Zn 1.00058 0.00088 0.49882
 N137 N 1.02638 0.02766 0.46744
 C138 C 0.99009 0.05526 0.54347
 N139 N 0.97366 0.02873 0.52796
 C140 C 0.94027 0.02026 0.53598
 C141 C 0.92209 0.03889 0.56052
 C142 C 0.97260 0.07518 0.56731
 C143 C 0.97998 -0.06217 0.46949
 C144 C 0.96089 -0.08289 0.44740
 C145 C 0.92498 -0.03394 0.43294
 C146 C 0.94502 -0.01405 0.45502
 N147 N 0.97185 -0.02839 0.47279
 H148 H 1.01702 0.06081 0.53742
 H149 H 0.92817 -0.00181 0.52437
 H150 H 0.89611 0.03067 0.56746
 H151 H 0.98614 0.09673 0.57840
 H152 H 1.00206 -0.07283 0.48304
 H153 H 0.96802 -0.10960 0.44461
 H154 H 0.90420 -0.02197 0.41841
 H155 H 0.93966 0.01306 0.45752
 C156 C 1.06219 0.06396 0.41756
 C157 C 1.06995 -0.06188 0.57425
 C158 C 0.93320 -0.06871 0.42858
 C159 C 0.93827 0.06679 0.57676
 C160 C 0.13579 0.32283 1.14046
 C161 C 0.17126 0.31637 1.13474
 C162 C 0.18717 0.28800 1.15049
 C163 C 0.16776 0.26527 1.17139
 C164 C 0.13202 0.27293 1.17698
 C165 C 0.11610 0.30153 1.16177
 C166 C 0.11869 0.35200 1.12313
 C167 C 0.08303 0.35815 1.12855
 C168 C 0.06662 0.38518 1.11117
 C169 C 0.08546 0.40555 1.08801
 C170 C 0.12130 0.39932 1.08314
 C171 C 0.13811 0.37262 1.10079
 C172 C 0.08054 0.30870 1.16682
 C173 C 0.06431 0.33660 1.15059
 C174 C 0.19008 0.33815 1.11292
 C175 C 0.17375 0.36569 1.09611
 H176 H 0.06502 0.29244 1.18326
 H177 H 0.03678 0.34106 1.15497
 H178 H 0.21755 0.33353 1.10835
 H179 H 0.18908 0.38149 1.07907
 H180 H 0.21487 0.28438 1.14672
 H181 H 0.11559 0.25580 1.19152
 H182 H 0.03891 0.38956 1.11464
 H183 H 0.13593 0.41506 1.06545
 C184 C -0.13919 0.68301 1.14195
 C185 C -0.12139 0.70006 1.16799
 C186 C -0.13762 0.72750 1.18454
 C187 C -0.17207 0.73795 1.17595
 C188 C -0.18973 0.71930 1.15020
 C189 C -0.17326 0.69242 1.13285
 C190 C -0.12152 0.65518 1.12339
 C191 C -0.13880 0.63899 1.09639
 C192 C -0.12126 0.61363 1.07783
 C193 C -0.08680 0.60401 1.08646
 C194 C -0.07046 0.61984 1.11448
 C195 C -0.08743 0.64578 1.13260
 C196 C -0.19010 0.67500 1.10625
 C197 C -0.17307 0.64893 1.08817
 C198 C -0.08730 0.68980 1.17659
 C199 C -0.07071 0.66294 1.15937
 H200 H -0.21647 0.68195 1.09896
 H201 H -0.18681 0.63656 1.06748
 H202 H -0.07326 0.70271 1.19674
 H203 H -0.04437 0.65594 1.16672
 H204 H -0.12219 0.74148 1.20283
 H205 H -0.21658 0.72488 1.14370
 H206 H -0.13414 0.60217 1.05616
 H207 H -0.04439 0.61223 1.12214
 C208 C -0.13081 0.30786 0.86968
 C209 C -0.11096 0.28701 0.84820
 C210 C -0.12707 0.25962 0.83145
 C211 C -0.16324 0.25298 0.83534
 C212 C -0.18256 0.27464 0.85725
 C213 C -0.16648 0.30180 0.87451
 C214 C -0.11385 0.33659 0.88751
 C215 C -0.13362 0.35722 0.90941
 C216 C -0.11727 0.38430 0.92655
 C217 C -0.08157 0.39102 0.92145
 C218 C -0.06221 0.37023 0.89921
 C219 C -0.07817 0.34282 0.88236
 C220 C -0.18550 0.32320 0.89640
 C221 C -0.16932 0.35034 0.91366
 C222 C -0.07523 0.29386 0.84393
 C223 C -0.05915 0.32138 0.86061
 H224 H -0.21311 0.31884 0.90035
 H225 H -0.18491 0.36610 0.93041
 H226 H -0.05957 0.27791 0.82742
 H227 H -0.03158 0.32584 0.85651
 H228 H -0.11072 0.24293 0.81644
 H229 H -0.21045 0.27156 0.86014
 H230 H -0.13228 0.40039 0.94351
 H231 H -0.03462 0.37505 0.89556
 C232 C 0.13078 0.68646 0.85722
 C233 C 0.16600 0.68201 0.84847
 C234 C 0.18379 0.70889 0.83225
 C235 C 0.16637 0.73976 0.82444
 C236 C 0.13093 0.74357 0.83293
 C237 C 0.11307 0.71710 0.84960
 C238 C 0.11221 0.65872 0.87519
 C239 C 0.07733 0.66360 0.88480
 C240 C 0.06007 0.63755 0.90267
 C241 C 0.07721 0.60647 0.91059
 C242 C 0.11214 0.60189 0.90023
 C243 C 0.12984 0.62805 0.88281
 C244 C 0.07802 0.72086 0.85926
 C245 C 0.06050 0.69461 0.87669
 C246 C 0.18273 0.65089 0.85639
 C247 C 0.16492 0.62432 0.87313
 H248 H 0.06411 0.74441 0.85357
 H249 H 0.03355 0.69866 0.88394
 H250 H 0.20986 0.64708 0.84969
 H251 H 0.17883 0.60077 0.87885
 H252 H 0.21107 0.70590 0.82564
 H253 H 0.11760 0.76750 0.82737
 H254 H 0.03353 0.64187 0.91104
 H255 H 0.12555 0.57801 0.90566
 C256 C 1.13167 0.13627 0.30908
 C257 C 1.11255 0.15916 0.28872
 C258 C 1.12920 0.17605 0.26179
 C259 C 1.16503 0.17039 0.25476
 C260 C 1.18367 0.14719 0.27595
 C261 C 1.16715 0.13015 0.30296
 C262 C 1.11407 0.11812 0.33719
 C263 C 1.13313 0.09500 0.35747
 C264 C 1.11615 0.07751 0.38391
 C265 C 1.08037 0.08305 0.39010
 C266 C 1.06175 0.10648 0.36955
 C267 C 1.07846 0.12404 0.34306
 C268 C 1.18545 0.10705 0.32400
 C269 C 1.16873 0.08976 0.35077
 C270 C 1.07694 0.16445 0.29541
 C271 C 1.06019 0.14720 0.32213
 H272 H 1.21291 0.10214 0.31964
 H273 H 1.18378 0.07204 0.36625
 H274 H 1.06185 0.18203 0.27981
 H275 H 1.03268 0.15197 0.32637
 H276 H 1.11346 0.19232 0.24547
 H277 H 1.21135 0.14303 0.27242
 H278 H 1.13078 0.05980 0.39979
 H279 H 1.03411 0.11053 0.37374
 C280 C 1.14222 -0.13365 0.68148
 C281 C 1.13619 -0.16876 0.68626
 C282 C 1.15186 -0.18571 0.71385
 C283 C 1.17319 -0.16786 0.73738
 C284 C 1.17906 -0.13240 0.73155
 C285 C 1.16375 -0.11535 0.70377
 C286 C 1.12512 -0.11556 0.65291
 C287 C 1.13082 -0.08029 0.64835
 C288 C 1.11365 -0.06302 0.62176
 C289 C 1.09050 -0.08073 0.60025
 C290 C 1.08549 -0.11619 0.60490
 C291 C 1.10280 -0.13376 0.63115
 C292 C 1.16905 -0.08010 0.69823
 C293 C 1.15294 -0.06289 0.67095
 C294 C 1.11431 -0.18626 0.66347
 C295 C 1.09780 -0.16904 0.63646
 H296 H 1.18564 -0.06562 0.71526
 H297 H 1.15755 -0.03567 0.66775
 H298 H 1.10953 -0.21344 0.66681
 H299 H 1.08075 -0.18340 0.61977
 H300 H 1.14796 -0.21308 0.71614
 H301 H 1.19396 -0.11723 0.74934
 H302 H 1.11729 -0.03564 0.61853
 H303 H 1.06790 -0.12998 0.58823
 C304 C 0.86236 -0.14342 0.32321
 C305 C 0.88217 -0.16150 0.29930
 C306 C 0.86523 -0.17734 0.27201
 C307 C 0.82860 -0.17557 0.26856
 C308 C 0.80906 -0.15793 0.29331
 C309 C 0.82586 -0.14152 0.32051
 C310 C 0.88027 -0.12543 0.35114
 C311 C 0.86061 -0.10627 0.37440
 C312 C 0.87794 -0.08812 0.40013
 C313 C 0.91460 -0.08938 0.40277
 C314 C 0.93380 -0.10926 0.37961
 C315 C 0.91680 -0.12710 0.35358
 C316 C 0.80700 -0.12271 0.34470
 C317 C 0.82409 -0.10528 0.37112
 C318 C 0.91865 -0.16281 0.30274
 C319 C 0.93567 -0.14600 0.32950
 H320 H 0.77883 -0.12105 0.34295
 H321 H 0.80859 -0.09071 0.38896
 H322 H 0.93421 -0.17676 0.28446
 H323 H 0.96386 -0.14746 0.33111
 H324 H 0.88073 -0.19013 0.25287
 H325 H 0.78089 -0.15670 0.29130
 H326 H 0.86305 -0.07298 0.41802
 H327 H 0.96204 -0.10991 0.38121
 C328 C 0.86906 0.13836 0.68584
 C329 C 0.83251 0.13994 0.68652
 C330 C 0.81588 0.15559 0.71416
 C331 C 0.83554 0.17045 0.74082
 C332 C 0.87241 0.16929 0.73888
 C333 C 0.88917 0.15284 0.71189
 C334 C 0.88666 0.12071 0.65756
 C335 C 0.92314 0.11782 0.65774
 C336 C 0.93970 0.10007 0.63146
 C337 C 0.92023 0.08599 0.60439
 C338 C 0.88356 0.08979 0.60439
 C339 C 0.86665 0.10667 0.63116
 C340 C 0.92570 0.14992 0.71088
 C341 C 0.94238 0.13248 0.68440
 C342 C 0.81332 0.12565 0.65959
 C343 C 0.83010 0.10951 0.63227
 H344 H 0.94151 0.16086 0.73095
 H345 H 0.97059 0.13049 0.68478
 H346 H 0.78507 0.12686 0.65966
 H347 H 0.81430 0.09879 0.61207
 H348 H 0.78765 0.15705 0.71421
 H349 H 0.88833 0.17926 0.75937
 H350 H 0.96773 0.09674 0.63261
 H351 H 0.86811 0.07972 0.58364
 C352 C 0.31027 1.13812 0.13018
 C353 C 0.30896 1.13719 0.16583
 C354 C 0.28149 1.15381 0.18258
 C355 C 0.25514 1.17087 0.16392
 C356 C 0.25686 1.17127 0.12811
 C357 C 0.28448 1.15518 0.11115
 C358 C 0.33900 1.12057 0.11242
 C359 C 0.34036 1.12162 0.07676
 C360 C 0.36752 1.10460 0.05998
 C361 C 0.39281 1.08615 0.07860
 C362 C 0.39110 1.08540 0.11435
 C363 C 0.36433 1.10276 0.13142
 C364 C 0.28671 1.15564 0.07551
 C365 C 0.31425 1.13925 0.05861
 C366 C 0.33505 1.11950 0.18398
 C367 C 0.36219 1.10247 0.16707
 H368 H 0.26698 1.16877 0.06054
 H369 H 0.31496 1.14019 0.03110
 H370 H 0.33435 1.11860 0.21150
 H371 H 0.38162 1.08889 0.18202
 H372 H 0.28072 1.15362 0.21011
 H373 H 0.23645 1.18360 0.11335
 H374 H 0.36849 1.10488 0.03245
 H375 H 0.41065 1.07138 0.12876
 C376 C 0.68601 1.13260 -0.14064
 C377 C 0.68835 1.16848 -0.13924
 C378 C 0.71635 1.18500 -0.15530
 C379 C 0.74223 1.16585 -0.17219
 C380 C 0.73925 1.12984 -0.17342
 C381 C 0.71114 1.11312 -0.15785
 C382 C 0.65708 1.11501 -0.12316
 C383 C 0.65493 1.07910 -0.12436
 C384 C 0.62785 1.06245 -0.10708
 C385 C 0.60338 1.08142 -0.08825
 C386 C 0.60577 1.11743 -0.08747
 C387 C 0.63254 1.13439 -0.10502
 C388 C 0.70799 1.07725 -0.15866
 C389 C 0.68029 1.06054 -0.14229
 C390 C 0.66291 1.18705 -0.12138
 C391 C 0.63554 1.17029 -0.10447
 H392 H 0.72721 1.06195 -0.17191
 H393 H 0.67893 1.03282 -0.14338
 H394 H 0.66440 1.21475 -0.12013
 H395 H 0.61671 1.18554 -0.09066
 H396 H 0.71813 1.21271 -0.15448
 H397 H 0.75929 1.11469 -0.18567
 H398 H 0.62640 1.03470 -0.10739
 H399 H 0.58686 1.13214 -0.07318
 C400 C 0.31790 0.85699 -0.13534
 C401 C 0.31763 0.85746 -0.17102
 C402 C 0.29032 0.84123 -0.18847
 C403 C 0.26292 0.82533 -0.17047
 C404 C 0.26389 0.82499 -0.13462
 C405 C 0.29138 0.84056 -0.11696
 C406 C 0.34605 0.87474 -0.11684
 C407 C 0.34618 0.87440 -0.08114
 C408 C 0.37251 0.89201 -0.06367
 C409 C 0.39805 0.91048 -0.08167
 C410 C 0.39770 0.91040 -0.11746
 C411 C 0.37184 0.89236 -0.13521
 C412 C 0.29252 0.84059 -0.08126
 C413 C 0.31956 0.85709 -0.06365
 C414 C 0.34436 0.87467 -0.18851
 C415 C 0.37091 0.89197 -0.17091
 H416 H 0.27223 0.82791 -0.06680
 H417 H 0.31935 0.85667 -0.03612
 H418 H 0.34448 0.87520 -0.21604
 H419 H 0.39073 0.90534 -0.18536
 H420 H 0.29030 0.84123 -0.21600
 H421 H 0.24275 0.81351 -0.12035
 H422 H 0.37250 0.89237 -0.03612
 H423 H 0.41747 0.92448 -0.13136
 C424 C 0.68648 0.86802 0.14029
 C425 C 0.68744 0.83206 0.13975
 C426 C 0.71448 0.81480 0.15678
 C427 C 0.74086 0.83323 0.17380
 C428 C 0.73946 0.86938 0.17394
 C429 C 0.71221 0.88687 0.15743
 C430 C 0.65821 0.88630 0.12224
 C431 C 0.65717 0.92229 0.12288
 C432 C 0.63045 0.93955 0.10534
 C433 C 0.60535 0.92106 0.08677
 C434 C 0.60672 0.88500 0.08646
 C435 C 0.63300 0.86746 0.10434
 C436 C 0.71030 0.92285 0.15749
 C437 C 0.68317 0.94026 0.14062
 C438 C 0.66144 0.81407 0.12200
 C439 C 0.63476 0.83148 0.10447
 H440 H 0.72996 0.93770 0.17067
 H441 H 0.68271 0.96802 0.14125
 H442 H 0.66189 0.78631 0.12141
 H443 H 0.61541 0.81665 0.09085
 H444 H 0.71490 0.78702 0.15689
 H445 H 0.75984 0.88396 0.18635
 H446 H 0.62970 0.96734 0.10531
 H447 H 0.58729 0.87069 0.07235
   
