data_POSCAR
  _audit_creation_date              2014-09-24
  _audit_creation_method            'ToBaCCo'
  _symmetry_space_group_name_H-M    'P1'
  _symmetry_Int_Tables_number       1
  _symmetry_cell_setting            triclinic
  loop_
  _symmetry_equiv_pos_as_xyz
 x,y,z
_cell_length_a 42.2690
_cell_length_b 42.1494
_cell_length_c 42.2681
_cell_angle_alpha 90.407600
_cell_angle_beta 90.044700
_cell_angle_gamma 90.401700
loop_
  _atom_site_label
  _atom_site_type_symbol
  _atom_site_fract_x
  _atom_site_fract_y
  _atom_site_fract_z
C1 C 0.72327 0.67286 0.95528
 H2 H 0.74522 0.67031 0.94240
 C3 C 0.69752 0.68792 0.94113
 H4 H 0.69997 0.69700 0.91736
 C5 C 0.69259 0.66158 1.00077
 H6 H 0.69029 0.65049 1.02358
 C7 C 0.66641 0.67651 0.98763
 H8 H 0.64456 0.67736 1.00095
 N9 N 0.72016 0.65947 0.98431
 C10 C 0.81099 0.63690 1.02747
 H11 H 0.80553 0.61254 1.03341
 C12 C 0.83991 0.65012 1.03648
 H13 H 0.85638 0.63589 1.04982
 C14 C 0.79561 0.68500 1.00337
 H15 H 0.77821 0.69836 0.99038
 C16 C 0.82438 0.69931 1.01211
 H17 H 0.82902 0.72372 1.00565
 Zn18 Zn 0.75225 0.63214 0.99924
 N19 N 0.78973 0.65418 1.01085
 C20 C 0.79214 0.59818 0.95783
 N21 N 0.76149 0.60294 0.96626
 C22 C 0.73730 0.58957 0.94943
 C23 C 0.74359 0.57118 0.92248
 C24 C 0.79946 0.57962 0.93151
 C25 C 0.73639 0.62886 1.06263
 C26 C 0.72466 0.61602 1.09055
 C27 C 0.71622 0.56634 1.06297
 C28 C 0.72829 0.58029 1.03552
 N29 N 0.73751 0.61117 1.03576
 H30 H 0.81109 0.60949 0.97085
 H31 H 0.71310 0.59413 0.95633
 H32 H 0.72415 0.56128 0.90884
 H33 H 0.82401 0.57688 0.92474
 H34 H 0.74455 0.65325 1.06227
 H35 H 0.72578 0.63114 1.11125
 H36 H 0.70756 0.54230 1.06064
 H37 H 0.72949 0.56663 1.01382
 C38 C 0.84709 0.68163 1.02859
 C39 C 0.66833 0.68909 0.95703
 C40 C 0.71344 0.58425 1.09144
 C41 C 0.77506 0.56624 0.91320
 C42 C 0.72685 0.33107 0.52305
 H43 H 0.74911 0.33090 0.53569
 C44 C 0.70056 0.31501 0.53533
 H45 H 0.70286 0.30250 0.55748
 C46 C 0.69622 0.34973 0.48015
 H47 H 0.69422 0.36396 0.45914
 C48 C 0.66949 0.33396 0.49147
 H49 H 0.64746 0.33572 0.47852
 N50 N 0.72410 0.34843 0.49619
 C51 C 0.81691 0.36986 0.45612
 H52 H 0.81437 0.39530 0.45429
 C53 C 0.84412 0.35529 0.44468
 H54 H 0.86230 0.36972 0.43373
 C55 C 0.79560 0.32024 0.47180
 H56 H 0.77651 0.30677 0.48230
 C57 C 0.82249 0.30461 0.46051
 H58 H 0.82404 0.27910 0.46270
 Zn59 Zn 0.75794 0.37539 0.48393
 N60 N 0.79350 0.35235 0.46965
 C61 C 0.79972 0.40079 0.52993
 N62 N 0.76922 0.40045 0.51965
 C63 C 0.74612 0.41576 0.53603
 C64 C 0.75338 0.43224 0.56399
 C65 C 0.80804 0.41717 0.55749
 C66 C 0.74160 0.38564 0.42152
 C67 C 0.72926 0.40140 0.39549
 C68 C 0.72417 0.44859 0.42783
 C69 C 0.73678 0.43189 0.45335
 N70 N 0.74445 0.40077 0.44989
 H71 H 0.81763 0.38779 0.51725
 H72 H 0.72193 0.41460 0.52770
 H73 H 0.73474 0.44415 0.57689
 H74 H 0.83235 0.41659 0.56556
 H75 H 0.74814 0.36095 0.41941
 H76 H 0.72681 0.38874 0.37323
 H77 H 0.71694 0.47296 0.43127
 H78 H 0.73950 0.44352 0.47605
 C79 C 0.84728 0.32226 0.44690
 C80 C 0.67119 0.31696 0.51984
 C81 C 0.71964 0.43307 0.39862
 C82 C 0.78472 0.43301 0.57501
 C83 C 0.23219 -0.17063 0.02956
 H84 H 0.25498 -0.17071 0.04124
 C85 C 0.20682 -0.18770 0.04237
 H86 H 0.21045 -0.20138 0.06363
 C87 C 0.19947 -0.15164 -0.01160
 H88 H 0.19628 -0.13674 -0.03200
 C89 C 0.17356 -0.16834 0.00033
 H90 H 0.15080 -0.16599 -0.01116
 N91 N 0.22801 -0.15276 0.00325
 C92 C 0.31991 -0.12946 -0.03802
 H93 H 0.31695 -0.10405 -0.03970
 C94 C 0.34716 -0.14357 -0.04996
 H95 H 0.36495 -0.12882 -0.06112
 C96 C 0.29952 -0.17947 -0.02241
 H97 H 0.28074 -0.19331 -0.01186
 C98 C 0.32647 -0.19464 -0.03417
 H99 H 0.32836 -0.22015 -0.03222
 Zn100 Zn 0.26092 -0.12507 -0.00989
 N101 N 0.29691 -0.14739 -0.02433
 C102 C 0.30238 -0.09824 0.03566
 N103 N 0.27191 -0.09919 0.02532
 C104 C 0.24857 -0.08389 0.04136
 C105 C 0.25553 -0.06680 0.06902
 C106 C 0.31040 -0.08126 0.06295
 C107 C 0.24308 -0.11648 -0.07204
 C108 C 0.23058 -0.10145 -0.09842
 C109 C 0.22604 -0.05342 -0.06740
 C110 C 0.23887 -0.06951 -0.04159
 N111 N 0.24634 -0.10067 -0.04419
 H112 H 0.32048 -0.11125 0.02326
 H113 H 0.22441 -0.08553 0.03298
 H114 H 0.23669 -0.05490 0.08163
 H115 H 0.33469 -0.08140 0.07111
 H116 H 0.24995 -0.14112 -0.07363
 H117 H 0.22991 -0.11521 -0.12004
 H118 H 0.21876 -0.02929 -0.06310
 H119 H 0.24192 -0.05728 -0.01924
 C120 C 0.35078 -0.17658 -0.04810
 C121 C 0.17685 -0.18621 0.02802
 C122 C 0.22068 -0.06940 -0.09665
 C123 C 0.28683 -0.06544 0.08014
 C124 C 0.22002 0.17210 0.46161
 H125 H 0.24205 0.16945 0.44887
 C126 C 0.19455 0.18754 0.44740
 H127 H 0.19729 0.19678 0.42372
 C128 C 0.18889 0.16070 0.50675
 H129 H 0.18630 0.14942 0.52944
 C130 C 0.16296 0.17602 0.49354
 H131 H 0.14100 0.17695 0.50668
 N132 N 0.21656 0.15849 0.49049
 C133 C 0.30706 0.13581 0.53419
 H134 H 0.30151 0.11157 0.54047
 C135 C 0.33601 0.14909 0.54305
 H136 H 0.35242 0.13501 0.55662
 C137 C 0.29191 0.18357 0.50928
 H138 H 0.27463 0.19678 0.49600
 C139 C 0.32071 0.19791 0.51781
 H140 H 0.32547 0.22215 0.51088
 Zn141 Zn 0.24845 0.13093 0.50541
 N142 N 0.28591 0.15289 0.51721
 C143 C 0.28842 0.09648 0.46443
 N144 N 0.25773 0.10193 0.47227
 C145 C 0.23358 0.08953 0.45468
 C146 C 0.23997 0.07160 0.42746
 C147 C 0.29583 0.07832 0.43785
 C148 C 0.23186 0.12724 0.56871
 C149 C 0.21988 0.11398 0.59635
 C150 C 0.21223 0.06441 0.56817
 C151 C 0.22447 0.07867 0.54097
 N152 N 0.23349 0.10970 0.54167
 H153 H 0.30736 0.10696 0.47814
 H154 H 0.20937 0.09460 0.46115
 H155 H 0.22058 0.06257 0.41317
 H156 H 0.32043 0.07510 0.43152
 H157 H 0.23949 0.15179 0.56861
 H158 H 0.21873 0.12843 0.61759
 H159 H 0.20424 0.03997 0.56701
 H160 H 0.22616 0.06517 0.51920
 C161 C 0.34334 0.18042 0.53460
 C162 C 0.16526 0.18888 0.46308
 C163 C 0.20943 0.08229 0.59623
 C164 C 0.27148 0.06608 0.41868
 C165 C 0.17977 0.46293 0.21799
 H166 H 0.18052 0.45077 0.24043
 C167 C 0.19487 0.44983 0.19156
 H168 H 0.20722 0.42757 0.19396
 C169 C 0.16030 0.50519 0.18705
 H170 H 0.14595 0.52615 0.18497
 C171 C 0.17513 0.49307 0.16016
 H172 H 0.17263 0.50541 0.13793
 N173 N 0.16237 0.48978 0.21514
 C174 C 0.14080 0.52827 0.30864
 H175 H 0.11548 0.52999 0.30540
 C176 C 0.15448 0.53810 0.33703
 H177 H 0.13953 0.54790 0.35540
 C178 C 0.19088 0.51373 0.28813
 H179 H 0.20482 0.50407 0.26896
 C180 C 0.20566 0.52351 0.31629
 H181 H 0.23104 0.52119 0.31869
 Zn182 Zn 0.13591 0.50212 0.24915
 N183 N 0.15893 0.51595 0.28510
 C184 C 0.11600 0.45333 0.28941
 N185 N 0.11146 0.46598 0.26026
 C186 C 0.09262 0.45121 0.23846
 C187 C 0.07747 0.42252 0.24576
 C188 C 0.10163 0.42475 0.29753
 C189 C 0.12663 0.56451 0.23272
 C190 C 0.11101 0.59135 0.22200
 C191 C 0.06241 0.56086 0.22016
 C192 C 0.07902 0.53450 0.23112
 N193 N 0.11070 0.53668 0.23650
 H194 H 0.13170 0.46471 0.30619
 H195 H 0.09008 0.46126 0.21512
 H196 H 0.06300 0.41067 0.22806
 H197 H 0.10581 0.41500 0.32080
 H198 H 0.15180 0.56557 0.23734
 H199 H 0.12447 0.61292 0.21809
 H200 H 0.03728 0.55873 0.21553
 H201 H 0.06669 0.51231 0.23483
 C202 C 0.18727 0.53550 0.34132
 C203 C 0.19191 0.46451 0.16195
 C204 C 0.07855 0.58968 0.21519
 C205 C 0.08245 0.40874 0.27547
 C206 C -0.16784 0.02709 0.22677
 H207 H -0.16758 0.03919 0.24943
 C208 C -0.18436 0.04009 0.20132
 H209 H -0.19612 0.06245 0.20528
 C210 C -0.14983 -0.01501 0.19440
 H211 H -0.13592 -0.03619 0.19145
 C212 C -0.16599 -0.00300 0.16841
 H213 H -0.16511 -0.01653 0.14662
 N214 N -0.15062 0.00029 0.22277
 C215 C -0.12839 -0.04261 0.31361
 H216 H -0.10308 -0.04451 0.31040
 C217 C -0.14255 -0.05515 0.34053
 H218 H -0.12785 -0.06636 0.35815
 C219 C -0.17802 -0.02530 0.29442
 H220 H -0.19169 -0.01392 0.27616
 C221 C -0.19324 -0.03754 0.32116
 H222 H -0.21869 -0.03564 0.32321
 Zn223 Zn -0.12347 -0.01323 0.25566
 N224 N -0.14612 -0.02795 0.29130
 C225 C -0.09688 0.03154 0.29818
 N226 N -0.09761 0.02179 0.26745
 C227 C -0.08200 0.03820 0.24458
 C228 C -0.06481 0.06566 0.25233
 C229 C -0.07981 0.05859 0.30698
 C230 C -0.11495 -0.07555 0.23700
 C231 C -0.09982 -0.10189 0.22418
 C232 C -0.05171 -0.07082 0.22050
 C233 C -0.06782 -0.04496 0.23353
 N234 N -0.09907 -0.04763 0.24079
 H235 H -0.11011 0.01883 0.31592
 H236 H -0.08344 0.03028 0.22022
 H237 H -0.05265 0.07860 0.23388
 H238 H -0.08011 0.06627 0.33148
 H239 H -0.13972 -0.07705 0.24331
 H240 H -0.11304 -0.12379 0.22108
 H241 H -0.02715 -0.06804 0.21375
 H242 H -0.05557 -0.02263 0.23707
 C243 C -0.17542 -0.05289 0.34454
 C244 C -0.18302 0.02560 0.17104
 C245 C -0.06795 -0.09958 0.21513
 C246 C -0.06365 0.07615 0.28392
 C247 C 0.32879 0.52771 0.72548
 H248 H 0.32742 0.53830 0.74883
 C249 C 0.31209 0.54101 0.70033
 H250 H 0.29740 0.56153 0.70466
 C251 C 0.35062 0.48889 0.69124
 H252 H 0.36652 0.46932 0.68742
 C253 C 0.33435 0.50137 0.66551
 H254 H 0.33798 0.49107 0.64227
 N255 N 0.34783 0.50231 0.72047
 C256 C 0.36939 0.45959 0.81158
 H257 H 0.39487 0.45916 0.80919
 C258 C 0.35511 0.44643 0.83814
 H259 H 0.36986 0.43623 0.85633
 C260 C 0.31946 0.47380 0.79063
 H261 H 0.30573 0.48414 0.77181
 C262 C 0.30412 0.46087 0.81697
 H263 H 0.27854 0.46128 0.81817
 Zn264 Zn 0.37461 0.48867 0.75359
 N265 N 0.35157 0.47302 0.78857
 C266 C 0.39650 0.53537 0.79646
 N267 N 0.39935 0.52416 0.76635
 C268 C 0.41710 0.53985 0.74455
 C269 C 0.43271 0.56814 0.75272
 C270 C 0.41154 0.56349 0.80557
 C271 C 0.38347 0.42733 0.73302
 C272 C 0.39879 0.40110 0.72022
 C273 C 0.44769 0.43117 0.72055
 C274 C 0.43134 0.45696 0.73349
 N275 N 0.39965 0.45474 0.73873
 H276 H 0.38173 0.52311 0.81330
 H277 H 0.41837 0.53086 0.72055
 H278 H 0.44611 0.58077 0.73492
 H279 H 0.40877 0.57207 0.82961
 H280 H 0.35835 0.42615 0.73782
 H281 H 0.38533 0.37962 0.71560
 H282 H 0.47268 0.43359 0.71545
 H283 H 0.44383 0.47885 0.73865
 C284 C 0.32204 0.44678 0.84106
 C285 C 0.31521 0.52813 0.66972
 C286 C 0.43119 0.40299 0.71320
 C287 C 0.42953 0.58053 0.78348
 C288 C 0.68081 0.96448 0.72246
 H289 H 0.68000 0.95191 0.74467
 C290 C 0.69626 0.95105 0.69639
 H291 H 0.70734 0.92812 0.69886
 C292 C 0.66473 1.00818 0.69155
 H293 H 0.65155 1.02987 0.68926
 C294 C 0.68002 0.99577 0.66505
 H295 H 0.67902 1.00860 0.64298
 N296 N 0.66481 0.99218 0.71939
 C297 C 0.63936 1.03128 0.81161
 H298 H 0.61430 1.03350 0.80696
 C299 C 0.65162 1.04111 0.84063
 H300 H 0.63545 1.05195 0.85722
 C301 C 0.69011 1.01596 0.79387
 H302 H 0.70484 1.00582 0.77555
 C303 C 0.70358 1.02578 0.82266
 H304 H 0.72866 1.02220 0.82596
 Zn305 Zn 0.63700 1.00497 0.75215
 N306 N 0.65845 1.01856 0.78915
 C307 C 0.61463 0.95667 0.79162
 N308 N 0.61150 0.96919 0.76222
 C309 C 0.59369 0.95434 0.73962
 C310 C 0.57828 0.92560 0.74629
 C311 C 0.59997 0.92806 0.79914
 C312 C 0.62972 1.06763 0.73616
 C313 C 0.61568 1.09466 0.72390
 C314 C 0.56707 1.06486 0.71711
 C315 C 0.58211 1.03826 0.72969
 N316 N 0.61314 1.03998 0.73814
 H317 H 0.62954 0.96807 0.80907
 H318 H 0.59232 0.96423 0.71612
 H319 H 0.56475 0.91360 0.72797
 H320 H 0.60315 0.91834 0.82257
 H321 H 0.65427 1.06838 0.74339
 H322 H 0.62951 1.11630 0.72223
 H323 H 0.54274 1.06284 0.70931
 H324 H 0.56923 1.01616 0.73187
 C325 C 0.68425 1.03826 0.84704
 C326 C 0.69516 0.96631 0.66693
 C327 C 0.58417 1.09335 0.71348
 C328 C 0.58198 0.91190 0.77623
 C329 C 0.02344 0.22351 -0.16479
 H330 H 0.03582 0.24601 -0.16620
 C331 C 0.03562 0.19677 -0.18016
 H332 H 0.05744 0.19894 -0.19338
 C333 C -0.01873 0.19291 -0.14381
 H334 H -0.03942 0.19118 -0.12896
 C335 C -0.00746 0.16567 -0.15880
 H336 H -0.02012 0.14347 -0.15584
 N337 N -0.00305 0.22104 -0.14672
 C338 C -0.04204 0.31512 -0.12921
 H339 H -0.04372 0.31371 -0.10372
 C340 C -0.05312 0.34186 -0.14475
 H341 H -0.06364 0.36083 -0.13102
 C342 C -0.02714 0.29142 -0.17794
 H343 H -0.01715 0.27156 -0.19069
 C344 C -0.03814 0.31779 -0.19454
 H345 H -0.03623 0.31818 -0.22008
 Zn346 Zn -0.01532 0.25606 -0.12132
 N347 N -0.02904 0.29076 -0.14582
 C348 C 0.03113 0.29872 -0.09799
 N349 N 0.02021 0.26833 -0.09662
 C350 C 0.03575 0.24596 -0.07964
 C351 C 0.06342 0.25390 -0.06311
 C352 C 0.05842 0.30771 -0.08164
 C353 C -0.07784 0.23992 -0.11085
 C354 C -0.10454 0.22948 -0.09457
 C355 C -0.07330 0.22818 -0.04676
 C356 C -0.04723 0.23894 -0.06410
 N357 N -0.04983 0.24389 -0.09566
 H358 H 0.01917 0.31599 -0.11233
 H359 H 0.02692 0.22181 -0.07943
 H360 H 0.07561 0.23584 -0.04981
 H361 H 0.06699 0.33189 -0.08356
 H362 H -0.07919 0.24402 -0.13605
 H363 H -0.12537 0.22490 -0.10870
 H364 H -0.07000 0.22549 -0.02159
 H365 H -0.02487 0.24304 -0.05230
 C366 C -0.05115 0.34355 -0.17784
 C367 C 0.02044 0.16720 -0.17671
 C368 C -0.10289 0.22262 -0.06181
 C369 C 0.07503 0.28517 -0.06403
 C370 C 0.45395 0.22666 0.18118
 H371 H 0.44299 0.24974 0.18005
 C372 C 0.43919 0.20210 0.19783
 H373 H 0.41716 0.20668 0.21003
 C374 C 0.49508 0.19218 0.16522
 H375 H 0.51615 0.18790 0.15150
 C376 C 0.48122 0.16707 0.18159
 H377 H 0.49201 0.14388 0.18021
 N378 N 0.48111 0.22116 0.16489
 C379 C 0.52714 0.31002 0.13852
 H380 H 0.53062 0.30423 0.11379
 C381 C 0.53901 0.33844 0.15072
 H382 H 0.55139 0.35452 0.13508
 C383 C 0.50608 0.29606 0.18852
 H384 H 0.49337 0.27930 0.20309
 C385 C 0.51760 0.32445 0.20179
 H386 H 0.51388 0.32925 0.22670
 Zn387 Zn 0.49640 0.25232 0.13653
 N388 N 0.51086 0.28960 0.15731
 C389 C 0.45434 0.29352 0.10561
 N390 N 0.46273 0.26263 0.10894
 C391 C 0.44574 0.23886 0.09488
 C392 C 0.41890 0.24583 0.07687
 C393 C 0.42810 0.30153 0.08752
 C394 C 0.55834 0.23228 0.13101
 C395 C 0.58554 0.22062 0.11660
 C396 C 0.55697 0.21732 0.06712
 C397 C 0.53021 0.22918 0.08252
 N398 N 0.53135 0.23606 0.11399
 H399 H 0.46746 0.31207 0.11757
 H400 H 0.45261 0.21445 0.09834
 H401 H 0.40529 0.22672 0.06616
 H402 H 0.42147 0.32622 0.08572
 H403 H 0.55856 0.23815 0.15597
 H404 H 0.60654 0.21713 0.13080
 H405 H 0.55577 0.21195 0.04206
 H406 H 0.50861 0.23282 0.06938
 C407 C 0.53442 0.34599 0.18276
 C408 C 0.45251 0.17162 0.19758
 C409 C 0.58509 0.21287 0.08426
 C410 C 0.40984 0.27756 0.07312
 C411 C 0.95756 0.71821 0.67690
 H412 H 0.94533 0.74065 0.67605
 C413 C 0.94353 0.69225 0.69203
 H414 H 0.92049 0.69500 0.70282
 C415 C 1.00112 0.68667 0.66138
 H416 H 1.02306 0.68414 0.64862
 C417 C 0.98810 0.66027 0.67633
 H418 H 1.00070 0.63800 0.67548
 N419 N 0.98554 0.71480 0.66141
 C420 C 1.03093 0.80510 0.63961
 H421 H 1.03489 0.80042 0.61474
 C422 C 1.04263 0.83291 0.65328
 H423 H 1.05541 0.84963 0.63864
 C424 C 1.00873 0.78906 0.68849
 H425 H 0.99557 0.77175 0.70201
 C426 C 1.02000 0.81683 0.70320
 H427 H 1.01566 0.82064 0.72818
 Zn428 Zn 0.99996 0.74768 0.63454
 N429 N 1.01422 0.78393 0.65716
 C430 C 0.95773 0.79025 0.60595
 N431 N 0.96582 0.75917 0.60803
 C432 C 0.94831 0.73610 0.59346
 C433 C 0.92121 0.74400 0.57624
 C434 C 0.93124 0.79919 0.58868
 C435 C 1.06236 0.72978 0.62668
 C436 C 1.08939 0.71912 0.61123
 C437 C 1.05935 0.71587 0.56261
 C438 C 1.03280 0.72676 0.57906
 N439 N 1.03474 0.73308 0.61060
 H440 H 0.97132 0.80824 0.61824
 H441 H 0.95497 0.71150 0.59590
 H442 H 0.90721 0.72543 0.56511
 H443 H 0.92488 0.82402 0.58787
 H444 H 1.06321 0.73516 0.65174
 H445 H 1.11091 0.71592 0.62470
 H446 H 1.05750 0.71082 0.53752
 H447 H 1.01068 0.72998 0.56668
 C448 C 1.03732 0.83910 0.68549
 C449 C 0.95847 0.66255 0.69109
 C450 C 1.08811 0.71187 0.57879
 C451 C 0.91245 0.77595 0.57379
 C452 C 0.52738 0.73233 0.33133
 H453 H 0.53849 0.75548 0.33005
 C454 C 0.54015 0.70674 0.31456
 H455 H 0.56080 0.71056 0.29990
 C456 C 0.48771 0.69900 0.35301
 H457 H 0.46799 0.69570 0.36888
 C458 C 0.49967 0.67283 0.33669
 H459 H 0.48884 0.64978 0.34024
 N460 N 0.50180 0.72798 0.35034
 C461 C 0.46164 0.82067 0.37229
 H462 H 0.46045 0.81813 0.39771
 C463 C 0.44998 0.84795 0.35816
 H464 H 0.43909 0.86539 0.37345
 C465 C 0.47542 0.79909 0.32242
 H466 H 0.48534 0.77990 0.30864
 C467 C 0.46379 0.82598 0.30714
 H468 H 0.46607 0.82704 0.28170
 Zn469 Zn 0.48892 0.76160 0.37728
 N470 N 0.47438 0.79712 0.35446
 C471 C 0.53512 0.80382 0.40207
 N472 N 0.52431 0.77336 0.40239
 C473 C 0.53977 0.75051 0.41880
 C474 C 0.56718 0.75804 0.43592
 C475 C 0.56217 0.81241 0.41903
 C476 C 0.42709 0.74218 0.38709
 C477 C 0.40078 0.73073 0.40334
 C478 C 0.43156 0.73178 0.45155
 C479 C 0.45736 0.74335 0.43432
 N480 N 0.45479 0.74772 0.40258
 H481 H 0.52323 0.82148 0.38816
 H482 H 0.53102 0.72634 0.41819
 H483 H 0.57926 0.73961 0.44882
 H484 H 0.57066 0.83668 0.41799
 H485 H 0.42572 0.74605 0.36185
 H486 H 0.37930 0.72546 0.39030
 H487 H 0.43400 0.72808 0.47676
 H488 H 0.47944 0.74844 0.44626
 C489 C 0.45087 0.85133 0.32495
 C490 C 0.52660 0.67635 0.31760
 C491 C 0.40288 0.72505 0.43595
 C492 C 0.57865 0.78939 0.43616
 C493 C 0.35523 0.00648 0.25186
 C494 C 0.11776 1.00781 0.75571
 C495 C 0.61908 0.51426 0.24887
 C496 C 0.85622 0.50076 0.74695
 C497 C 0.24651 0.35911 0.00222
 C498 C 0.74691 0.12242 1.01440
 C499 C 0.24974 0.62238 0.50831
 C500 C 0.74924 0.86124 0.50668
 C501 C 0.00745 0.24646 0.35785
 C502 C 1.01178 0.74707 0.11672
 C503 C 0.51084 0.24913 0.61570
 C504 C 0.50773 0.74846 0.85663
 C505 C 0.40987 -0.06721 0.28296
 C506 C 0.41270 -0.09529 0.26544
 C507 C 0.42703 -0.12189 0.27878
 C508 C 0.43851 -0.12108 0.31026
 C509 C 0.43638 -0.09198 0.32706
 C510 C 0.42216 -0.06551 0.31357
 C511 C 0.39224 -0.04091 0.27070
 C512 C 0.37625 -0.01919 0.26161
 H513 H 0.40296 -0.09695 0.24176
 H514 H 0.42717 -0.14346 0.26480
 H515 H 0.44615 -0.08908 0.35055
 H516 H 0.42029 -0.04379 0.32731
 C517 C 0.90850 0.42512 0.77758
 C518 C 0.90417 0.39495 0.76410
 C519 C 0.91822 0.36844 0.77790
 C520 C 0.93659 0.37182 0.80550
 C521 C 0.94163 0.40240 0.81823
 C522 C 0.92763 0.42882 0.80438
 C523 C 0.89139 0.45188 0.76557
 C524 C 0.87609 0.47415 0.75662
 H525 H 0.88921 0.39179 0.74347
 H526 H 0.91368 0.34520 0.76775
 H527 H 0.95602 0.40580 0.83920
 H528 H 0.93109 0.45204 0.81505
 C529 C 0.06423 1.08278 0.78666
 C530 C 0.06395 1.11048 0.76855
 C531 C 0.04924 1.13783 0.78012
 C532 C 0.03461 1.13781 0.81000
 C533 C 0.03462 1.10967 0.82778
 C534 C 0.04935 1.08239 0.81618
 C535 C 0.08149 1.05548 0.77581
 C536 C 0.09711 1.03334 0.76683
 H537 H 0.07555 1.11108 0.74571
 H538 H 0.04938 1.15900 0.76576
 H539 H 0.02407 1.10899 0.85110
 H540 H 0.04970 1.06119 0.83054
 C541 C 0.57042 0.59256 0.27963
 C542 C 0.53747 0.59548 0.27880
 C543 C 0.52316 0.62306 0.29040
 C544 C 0.54166 0.64806 0.30298
 C545 C 0.57478 0.64504 0.30318
 C546 C 0.58901 0.61750 0.29159
 C547 C 0.58553 0.56405 0.26861
 C548 C 0.59971 0.54093 0.25966
 H549 H 0.52286 0.57638 0.26945
 H550 H 0.49762 0.62479 0.28964
 H551 H 0.58969 0.66355 0.31317
 H552 H 0.61454 0.61548 0.29237
 C553 C 0.57229 0.43428 0.21822
 C554 C 0.58993 0.41548 0.19744
 C555 C 0.57776 0.38663 0.18639
 C556 C 0.54761 0.37607 0.19591
 C557 C 0.53012 0.39488 0.21717
 C558 C 0.54242 0.42388 0.22825
 C559 C 0.58585 0.46363 0.22960
 C560 C 0.59951 0.48728 0.23850
 H561 H 0.61323 0.42311 0.18981
 H562 H 0.59206 0.37246 0.17051
 H563 H 0.50676 0.38748 0.22472
 H564 H 0.52865 0.43818 0.24451
 C565 C 0.07381 0.92646 0.72436
 C566 C 0.09229 0.90807 0.70396
 C567 C 0.08061 0.87941 0.69193
 C568 C 0.05014 0.86864 0.70009
 C569 C 0.03186 0.88692 0.72113
 C570 C 0.04365 0.91575 0.73317
 C571 C 0.08654 0.95599 0.73619
 C572 C 0.09938 0.98003 0.74529
 H573 H 0.11578 0.91597 0.69723
 H574 H 0.09545 0.86563 0.67622
 H575 H 0.00824 0.87932 0.72764
 H576 H 0.02920 0.92975 0.74909
 C577 C 0.90963 0.57902 0.72360
 C578 C 0.90787 0.60728 0.74113
 C579 C 0.92410 0.63444 0.73095
 C580 C 0.94231 0.63359 0.70309
 C581 C 0.94409 0.60493 0.68588
 C582 C 0.92790 0.57790 0.69608
 C583 C 0.89160 0.55150 0.73281
 C584 C 0.87601 0.52844 0.73959
 H585 H 0.89368 0.60843 0.76244
 H586 H 0.92242 0.65605 0.74483
 H587 H 0.95732 0.60359 0.66399
 H588 H 0.92919 0.55625 0.68216
 C589 C 0.40378 0.08857 0.23105
 C590 C 0.43632 0.09204 0.23624
 C591 C 0.45206 0.11960 0.22647
 C592 C 0.43542 0.14402 0.21131
 C593 C 0.40254 0.14064 0.20706
 C594 C 0.38688 0.11310 0.21684
 C595 C 0.38776 0.05946 0.23907
 C596 C 0.37360 0.03529 0.24510
 H597 H 0.44962 0.07324 0.24730
 H598 H 0.47731 0.12162 0.23037
 H599 H 0.38912 0.15871 0.19503
 H600 H 0.36169 0.11062 0.21263
 C601 C 0.27969 0.40468 -0.07672
 C602 C 0.30482 0.38974 -0.09215
 C603 C 0.31819 0.40323 -0.11910
 C604 C 0.30667 0.43199 -0.13106
 C605 C 0.28104 0.44666 -0.11571
 C606 C 0.26766 0.43308 -0.08862
 C607 C 0.26670 0.39049 -0.04867
 C608 C 0.25699 0.37716 -0.02542
 H609 H 0.31418 0.36765 -0.08326
 H610 H 0.33751 0.39106 -0.13068
 H611 H 0.27183 0.46894 -0.12423
 H612 H 0.24818 0.44483 -0.07686
 C613 C 0.78257 0.90665 0.42775
 C614 C 0.80628 0.89046 0.41136
 C615 C 0.81952 0.90344 0.38411
 C616 C 0.80929 0.93295 0.37279
 C617 C 0.78506 0.94893 0.38912
 C618 C 0.77181 0.93584 0.41651
 C619 C 0.76961 0.89281 0.45598
 C620 C 0.75986 0.87953 0.47925
 H621 H 0.81462 0.86775 0.41972
 H622 H 0.83772 0.89029 0.37178
 H623 H 0.77688 0.97179 0.38110
 H624 H 0.75341 0.94855 0.42901
 C625 C 0.77775 0.07055 1.09023
 C626 C 0.80205 0.04861 1.08670
 C627 C 0.81453 0.03339 1.11312
 C628 C 0.80301 0.03986 1.14398
 C629 C 0.77794 0.06178 1.14688
 C630 C 0.76554 0.07691 1.12030
 C631 C 0.76646 0.08768 1.06319
 C632 C 0.75749 0.10281 1.04082
 H633 H 0.81196 0.04379 1.06353
 H634 H 0.83443 0.01796 1.10905
 H635 H 0.76712 0.06696 1.16947
 H636 H 0.74654 0.09380 1.12327
 C637 C 0.27795 0.57349 0.58703
 C638 C 0.27693 0.54040 0.58937
 C639 C 0.28819 0.52559 0.61664
 C640 C 0.30065 0.54373 0.64191
 C641 C 0.30094 0.57701 0.63952
 C642 C 0.28968 0.59173 0.61227
 C643 C 0.26768 0.58901 0.55863
 C644 C 0.25948 0.60326 0.53541
 H645 H 0.26778 0.52606 0.57002
 H646 H 0.28735 0.49995 0.61790
 H647 H 0.31083 0.59164 0.65827
 H648 H 0.29063 0.61737 0.61068
 C649 C 0.22516 0.57105 0.42902
 C650 C 0.19813 0.55174 0.42897
 C651 C 0.18654 0.53916 0.40054
 C652 C 0.20177 0.54586 0.37171
 C653 C 0.22966 0.56423 0.37212
 C654 C 0.24121 0.57685 0.40063
 C655 C 0.23463 0.58724 0.45762
 C656 C 0.24174 0.60222 0.48102
 H657 H 0.18547 0.54716 0.45076
 H658 H 0.16528 0.52469 0.40101
 H659 H 0.24173 0.57000 0.35030
 H660 H 0.26203 0.59199 0.40039
 C661 C 0.72009 0.07223 0.93512
 C662 C 0.74008 0.07028 0.90885
 C663 C 0.72874 0.05815 0.88003
 C664 C 0.69687 0.04814 0.87679
 C665 C 0.67752 0.04917 0.90413
 C666 C 0.68901 0.06117 0.93280
 C667 C 0.73042 0.08799 0.96366
 C668 C 0.73818 0.10265 0.98706
 H669 H 0.76419 0.07908 0.91033
 H670 H 0.74466 0.05863 0.86004
 H671 H 0.65348 0.04026 0.90388
 H672 H 0.67336 0.06235 0.95307
 C673 C 0.72711 0.91749 0.58323
 C674 C 0.74489 0.91598 0.61116
 C675 C 0.73500 0.93237 0.63830
 C676 C 0.70715 0.95047 0.63781
 C677 C 0.68976 0.95215 0.60943
 C678 C 0.69968 0.93580 0.58240
 C679 C 0.73577 0.89881 0.55598
 C680 C 0.74217 0.88239 0.53341
 H681 H 0.76611 0.90174 0.61209
 H682 H 0.74902 0.93077 0.65967
 H683 H 0.66787 0.96529 0.60836
 H684 H 0.68555 0.93687 0.56104
 C685 C 0.22394 0.41603 0.07812
 C686 C 0.19550 0.43275 0.07783
 C687 C 0.18552 0.44905 0.10487
 C688 C 0.20387 0.44889 0.13270
 C689 C 0.23273 0.43244 0.13260
 C690 C 0.24268 0.41610 0.10546
 C691 C 0.23272 0.39721 0.05101
 C692 C 0.23927 0.38058 0.02864
 H693 H 0.18065 0.43258 0.05692
 H694 H 0.16289 0.46091 0.10428
 H695 H 0.24749 0.43207 0.15354
 H696 H 0.26469 0.40310 0.10598
 C697 C -0.06963 0.27966 0.40685
 C698 C -0.06703 0.30743 0.42501
 C699 C -0.09394 0.32078 0.43874
 C700 C -0.12389 0.30658 0.43442
 C701 C -0.12615 0.27818 0.41685
 C702 C -0.09918 0.26487 0.40308
 C703 C -0.04230 0.26744 0.39066
 C704 C -0.01962 0.25777 0.37632
 H705 H -0.04429 0.31908 0.42809
 H706 H -0.09136 0.34240 0.45253
 H707 H -0.14890 0.26687 0.41284
 H708 H -0.10147 0.24345 0.38893
 C709 C 0.43310 0.78186 0.90916
 C710 C 0.43597 0.80961 0.92732
 C711 C 0.40936 0.82264 0.94194
 C712 C 0.37943 0.80813 0.93852
 C713 C 0.37694 0.77977 0.92091
 C714 C 0.40360 0.76678 0.90628
 C715 C 0.45993 0.76990 0.89198
 C716 C 0.48192 0.76018 0.87660
 H717 H 0.45867 0.82149 0.92970
 H718 H 0.41214 0.84424 0.95571
 H719 H 0.35420 0.76823 0.91753
 H720 H 0.40107 0.74538 0.89212
 C721 C 1.09274 0.77570 0.07101
 C722 C 1.09689 0.77331 0.03824
 C723 C 1.12465 0.78483 0.02427
 C724 C 1.14862 0.79892 0.04293
 C725 C 1.14444 0.80055 0.07592
 C726 C 1.11670 0.78903 0.08982
 C727 C 1.06374 0.76521 0.08555
 C728 C 1.03988 0.75688 0.09887
 H729 H 1.07854 0.76292 0.02347
 H730 H 1.12729 0.78293 -0.00115
 H731 H 1.16214 0.81170 0.09091
 H732 H 1.11371 0.79105 0.11521
 C733 C 0.58726 0.27937 0.56372
 C734 C 0.58633 0.30838 0.54794
 C735 C 0.61349 0.32027 0.53327
 C736 C 0.64206 0.30330 0.53417
 C737 C 0.64267 0.27394 0.54978
 C738 C 0.61542 0.26207 0.56446
 C739 C 0.55984 0.26832 0.58067
 C740 C 0.53729 0.25954 0.59583
 H741 H 0.56477 0.32212 0.54750
 H742 H 0.61233 0.34322 0.52200
 H743 H 0.66420 0.26020 0.55067
 H744 H 0.61643 0.23963 0.57675
 C745 C 0.43220 0.21883 0.56676
 C746 C 0.43074 0.18833 0.55359
 C747 C 0.40203 0.17627 0.54214
 C748 C 0.37431 0.19453 0.54385
 C749 C 0.37622 0.22560 0.55608
 C750 C 0.40500 0.23761 0.56758
 C751 C 0.46079 0.22972 0.58198
 C752 C 0.48399 0.23850 0.59628
 H753 H 0.45160 0.17355 0.55293
 H754 H 0.40140 0.15245 0.53239
 H755 H 0.35526 0.24010 0.55797
 H756 H 0.40581 0.26117 0.57799
 C757 C 0.93528 0.71938 0.06317
 C758 C 0.93420 0.68938 0.04884
 C759 C 0.90575 0.67766 0.03643
 C760 C 0.87792 0.69573 0.03832
 C761 C 0.87951 0.72640 0.05157
 C762 C 0.90802 0.73808 0.06403
 C763 C 0.96333 0.72954 0.07981
 C764 C 0.98593 0.73755 0.09547
 H765 H 0.95509 0.67465 0.04816
 H766 H 0.90536 0.65414 0.02594
 H767 H 0.85844 0.74073 0.05361
 H768 H 0.90853 0.76123 0.07535
 C769 C 0.58499 0.72180 0.90904
 C770 C 0.61376 0.73805 0.90537
 C771 C 0.64086 0.72779 0.92127
 C772 C 0.63948 0.70113 0.94108
 C773 C 0.61033 0.68517 0.94477
 C774 C 0.58333 0.69545 0.92888
 C775 C 0.55745 0.73135 0.89154
 C776 C 0.53467 0.73906 0.87625
 H777 H 0.61532 0.75845 0.88999
 H778 H 0.66285 0.74071 0.91811
 H779 H 0.60855 0.66420 0.95932
 H780 H 0.56127 0.68254 0.93169
 C781 C 0.08290 0.22207 0.41381
 C782 C 0.11178 0.23826 0.41072
 C783 C 0.13852 0.22794 0.42718
 C784 C 0.13667 0.20127 0.44694
 C785 C 0.10739 0.18547 0.45017
 C786 C 0.08074 0.19581 0.43373
 C787 C 0.05594 0.23124 0.39527
 C788 C 0.03368 0.23830 0.37894
 H789 H 0.11373 0.25857 0.39525
 H790 H 0.16063 0.24074 0.42437
 H791 H 0.10525 0.16450 0.46467
 H792 H 0.05861 0.18292 0.43606
 C793 C 0.54406 0.17407 0.66700
 C794 C 0.52555 0.15633 0.68801
 C795 C 0.53845 0.12998 0.70324
 C796 C 0.57003 0.12119 0.69762
 C797 C 0.58828 0.13918 0.67636
 C798 C 0.57540 0.16540 0.66123
 C799 C 0.53110 0.20069 0.65045
 C800 C 0.52141 0.22280 0.63542
 H801 H 0.50121 0.16280 0.69254
 H802 H 0.52389 0.11672 0.71963
 H803 H 0.61244 0.13269 0.67101
 H804 H 0.58984 0.17878 0.64480
 C805 C 1.03736 0.67065 0.17051
 C806 C 1.02903 0.64001 0.16041
 C807 C 1.04137 0.61357 0.17580
 C808 C 1.06235 0.61749 0.20141
 C809 C 1.06963 0.64839 0.21210
 C810 C 1.05725 0.67478 0.19670
 C811 C 1.02744 0.69772 0.15262
 C812 C 1.02001 0.72020 0.13684
 H813 H 1.01378 0.63656 0.14004
 H814 H 1.03561 0.59011 0.16680
 H815 H 1.08539 0.65215 0.23201
 H816 H 1.06386 0.69839 0.20471
 C817 C 0.97623 0.82187 0.16772
 C818 C 0.94499 0.82993 0.16075
 C819 C 0.93076 0.85545 0.17618
 C820 C 0.94758 0.87333 0.19893
 C821 C 0.97909 0.86519 0.20574
 C822 C 0.99332 0.83953 0.19021
 C823 C 0.99041 0.79566 0.15119
 C824 C 1.00083 0.77365 0.13622
 H825 H 0.93163 0.81655 0.14321
 H826 H 0.90670 0.86148 0.16995
 H827 H 0.99254 0.87838 0.22329
 H828 H 1.01757 0.83348 0.19573
 C829 C 0.47592 0.32429 0.66654
 C830 C 0.44554 0.33369 0.65771
 C831 C 0.43122 0.35934 0.67281
 C832 C 0.44704 0.37602 0.69711
 C833 C 0.47775 0.36664 0.70572
 C834 C 0.49209 0.34083 0.69051
 C835 C 0.49009 0.29784 0.65039
 C836 C 0.50032 0.27569 0.63548
 H837 H 0.43292 0.32120 0.63903
 H838 H 0.40784 0.36635 0.66520
 H839 H 0.49041 0.37892 0.72446
 H840 H 0.51567 0.33376 0.69746
 C841 C 0.47111 0.66930 0.81272
 C842 C 0.48854 0.64829 0.79385
 C843 C 0.47487 0.61961 0.78362
 C844 C 0.44375 0.61159 0.79246
 C845 C 0.42629 0.63324 0.81078
 C846 C 0.43989 0.66183 0.82083
 C847 C 0.48542 0.69756 0.82577
 C848 C 0.49618 0.72089 0.83864
 H849 H 0.51281 0.65376 0.78762
 H850 H 0.48890 0.60331 0.76966
 H851 H 0.40210 0.62798 0.81748
 H852 H 0.42620 0.67788 0.83546
 C853 C -0.02080 0.16383 0.31413
 C854 C -0.01611 0.13613 0.33150
 C855 C -0.02907 0.10737 0.32102
 C856 C -0.04695 0.10592 0.29298
 C857 C -0.05056 0.13363 0.27499
 C858 C -0.03764 0.16248 0.28561
 C859 C -0.01030 0.19372 0.32714
 C860 C -0.00204 0.21806 0.33996
 H861 H -0.00315 0.13692 0.35362
 H862 H -0.02561 0.08634 0.33515
 H863 H -0.06448 0.13325 0.25347
 H864 H -0.04157 0.18384 0.27208
 C865 C 0.04211 0.32050 0.30578
 C866 C 0.07446 0.32652 0.30960
 C867 C 0.08770 0.35474 0.29860
 C868 C 0.06875 0.37743 0.28363
 C869 C 0.03652 0.37066 0.27851
 C870 C 0.02320 0.34236 0.28975
 C871 C 0.02832 0.29357 0.32141
 C872 C 0.01817 0.27174 0.33673
 H873 H 0.08928 0.30986 0.32208
 H874 H 0.11268 0.35920 0.30245
 H875 H 0.02143 0.38784 0.26715
 H876 H -0.00194 0.33804 0.28693
 C877 C 0.54200 0.82302 0.80505
 C878 C 0.52319 0.84472 0.78868
 C879 C 0.53644 0.87323 0.77783
 C880 C 0.56845 0.88035 0.78374
 C881 C 0.58734 0.85781 0.79902
 C882 C 0.57419 0.82939 0.80958
 C883 C 0.52822 0.79590 0.82039
 C884 C 0.51819 0.77391 0.83557
 H885 H 0.49817 0.84013 0.78529
 H886 H 0.52142 0.89030 0.76621
 H887 H 0.61217 0.86258 0.80348
 H888 H 0.58893 0.81286 0.82233
 C889 C 0.67047 0.54652 0.17313
 C890 C 0.68174 0.52621 0.14958
 C891 C 0.69637 0.53853 0.12259
 C892 C 0.70009 0.57179 0.11834
 C893 C 0.68868 0.59171 0.14305
 C894 C 0.67415 0.57919 0.16988
 C895 C 0.65367 0.53422 0.20000
 C896 C 0.63861 0.52480 0.22230
 H897 H 0.67914 0.50075 0.15199
 H898 H 0.70560 0.52140 0.10596
 H899 H 0.68883 0.61725 0.14148
 H900 H 0.66503 0.59519 0.18782
 C901 C 0.16624 1.04282 0.67930
 C902 C 0.18673 1.02430 0.66099
 C903 C 0.20093 1.03706 0.63396
 C904 C 0.19476 1.06851 0.62498
 C905 C 0.17414 1.08686 0.64362
 C906 C 0.16002 1.07409 0.67055
 C907 C 0.15059 1.02973 0.70648
 C908 C 0.13640 1.01950 0.72898
 H909 H 0.19161 1.00001 0.66752
 H910 H 0.21691 1.02245 0.62025
 H911 H 0.16844 1.11094 0.63706
 H912 H 0.14397 1.08854 0.68440
 C913 C 0.17329 0.97411 0.82742
 C914 C 0.18688 0.99276 0.85127
 C915 C 0.20305 0.97854 0.87632
 C916 C 0.20599 0.94501 0.87825
 C917 C 0.19220 0.92685 0.85326
 C918 C 0.17620 0.94125 0.82841
 C919 C 0.15503 0.98806 0.80248
 C920 C 0.13872 0.99796 0.78138
 H921 H 0.18492 1.01837 0.85059
 H922 H 0.21398 0.99445 0.89327
 H923 H 0.19160 0.90126 0.85323
 H924 H 0.16533 0.92652 0.81023
 C925 C 0.67164 0.47852 0.32178
 C926 C 0.66555 0.44668 0.32865
 C927 C 0.68125 0.43203 0.35355
 C928 C 0.70342 0.44901 0.37199
 C929 C 0.70941 0.48110 0.36499
 C930 C 0.69359 0.49577 0.33996
 C931 C 0.65466 0.49310 0.29631
 C932 C 0.63922 0.50359 0.27485
 H933 H 0.64844 0.43319 0.31487
 H934 H 0.67561 0.40751 0.35871
 H935 H 0.72648 0.49471 0.37865
 H936 H 0.69843 0.52048 0.33483
 C937 C 0.81332 0.47383 0.66389
 C938 C 0.83129 0.47919 0.63665
 C939 C 0.82136 0.46689 0.60753
 C940 C 0.79325 0.44899 0.60523
 C941 C 0.77466 0.44470 0.63250
 C942 C 0.78474 0.45695 0.66173
 C943 C 0.82580 0.48371 0.69409
 C944 C 0.83836 0.49158 0.71857
 H945 H 0.85347 0.49219 0.63806
 H946 H 0.83594 0.47087 0.58686
 H947 H 0.75306 0.43075 0.63146
 H948 H 0.77075 0.45250 0.68272
 C949 C 0.31421 -0.02259 0.16851
 C950 C 0.28579 -0.03974 0.16638
 C951 C 0.27615 -0.05271 0.13731
 C952 C 0.29500 -0.04885 0.11015
 C953 C 0.32297 -0.03071 0.11240
 C954 C 0.33247 -0.01770 0.14137
 C955 C 0.32617 -0.01189 0.19865
 C956 C 0.33818 -0.00339 0.22321
 H957 H 0.27158 -0.04384 0.18729
 H958 H 0.25467 -0.06684 0.13634
 H959 H 0.33775 -0.02704 0.09181
 H960 H 0.35453 -0.00450 0.14276
 C961 C 0.30236 0.02675 0.33046
 C962 C 0.27666 0.04753 0.33109
 C963 C 0.26514 0.05887 0.36007
 C964 C 0.27952 0.04979 0.38861
 C965 C 0.30423 0.02768 0.38775
 C966 C 0.31555 0.01625 0.35886
 C967 C 0.31793 0.01903 0.30119
 C968 C 0.33346 0.01315 0.27799
 H969 H 0.26647 0.05604 0.30924
 H970 H 0.24630 0.07615 0.36008
 H971 H 0.31555 0.02015 0.40941
 H972 H 0.33554 0.00029 0.35865
 C973 C 0.80514 0.52449 0.82580
 C974 C 0.81908 0.51530 0.85431
 C975 C 0.80808 0.52755 0.88298
 C976 C 0.78293 0.54917 0.88352
 C977 C 0.76786 0.55697 0.85495
 C978 C 0.77907 0.54480 0.82617
 C979 C 0.82014 0.51570 0.79653
 C980 C 0.83515 0.50880 0.77326
 H981 H 0.83934 0.49969 0.85429
 H982 H 0.81993 0.52101 0.90468
 H983 H 0.74866 0.57383 0.85472
 H984 H 0.76827 0.55226 0.80422
 C985 C 0.17087 0.67143 0.53624
 C986 C 0.17375 0.69761 0.55659
 C987 C 0.14675 0.71146 0.56959
 C988 C 0.11648 0.69922 0.56248
 C989 C 0.11376 0.67356 0.54117
 C990 C 0.14083 0.65971 0.52821
 C991 C 0.19872 0.65525 0.52544
 C992 C 0.22194 0.64089 0.51730
 H993 H 0.19689 0.70684 0.56298
 H994 H 0.14955 0.73148 0.58557
 H995 H 0.09083 0.66341 0.53552
 H996 H 0.13836 0.63932 0.51263
 C997 C 0.66826 0.17105 1.04380
 C998 C 0.63825 0.15970 1.03517
 C999 C 0.61111 0.17387 1.04760
 C1000 C 0.61369 0.19951 1.06895
 C1001 C 0.64397 0.21125 1.07682
 C1002 C 0.67106 0.19707 1.06435
 C1003 C 0.69613 0.15494 1.03293
 C1004 C 0.71928 0.14071 1.02438
 H1005 H 0.63585 0.13945 1.01939
 H1006 H 0.58816 0.16408 1.04137
 H1007 H 0.64671 0.23124 1.09284
 H1008 H 0.69418 0.20605 1.07117
 C1009 C 0.81954 0.17933 0.98355
 C1010 C 0.81489 0.19712 0.95631
 C1011 C 0.84036 0.21245 0.94184
 C1012 C 0.87158 0.21016 0.95407
 C1013 C 0.87525 0.19327 0.98282
 C1014 C 0.84959 0.17791 0.99710
 C1015 C 0.79393 0.16056 0.99594
 C1016 C 0.77256 0.14385 1.00497
 H1017 H 0.79155 0.19874 0.94583
 H1018 H 0.83481 0.22666 0.92144
 H1019 H 0.89810 0.18944 0.99351
 H1020 H 0.85347 0.16393 1.01815
 C1021 C 0.32390 0.67882 0.48020
 C1022 C 0.31882 0.70396 0.45943
 C1023 C 0.34455 0.71985 0.44594
 C1024 C 0.37571 0.71070 0.45299
 C1025 C 0.38057 0.68615 0.47479
 C1026 C 0.35480 0.67026 0.48824
 C1027 C 0.29758 0.66018 0.49121
 C1028 C 0.27576 0.64361 0.49942
 H1029 H 0.29500 0.71072 0.45300
 H1030 H 0.34007 0.73894 0.42955
 H1031 H 0.40425 0.67830 0.48040
 H1032 H 0.35898 0.65067 0.50414
 C1033 C 0.66602 0.81844 0.47963
 C1034 C 0.66413 0.78928 0.46365
 C1035 C 0.63534 0.77909 0.45053
 C1036 C 0.60824 0.79817 0.45304
 C1037 C 0.61020 0.82689 0.47007
 C1038 C 0.63889 0.83693 0.48324
 C1039 C 0.69602 0.83101 0.49005
 C1040 C 0.72053 0.84355 0.49799
 H1041 H 0.68505 0.77490 0.46051
 H1042 H 0.63457 0.75702 0.43728
 H1043 H 0.58964 0.84186 0.47269
 H1044 H 0.64010 0.85958 0.49549
 C1045 C 0.16323 0.31541 -0.02314
 C1046 C 0.16103 0.28579 -0.03821
 C1047 C 0.13197 0.27522 -0.05043
 C1048 C 0.10493 0.29436 -0.04793
 C1049 C 0.10721 0.32356 -0.03178
 C1050 C 0.13616 0.33398 -0.01949
 C1051 C 0.19338 0.32825 -0.01352
 C1052 C 0.21792 0.34106 -0.00611
 H1053 H 0.18189 0.27132 -0.04133
 H1054 H 0.13094 0.25277 -0.06301
 H1055 H 0.08670 0.33861 -0.02918
 H1056 H 0.13760 0.35697 -0.00791
 C1057 C 0.32405 0.30851 0.02959
 C1058 C 0.32359 0.28184 0.04915
 C1059 C 0.35186 0.27052 0.06205
 C1060 C 0.38071 0.28608 0.05575
 C1061 C 0.38102 0.31196 0.03499
 C1062 C 0.35288 0.32306 0.02200
 C1063 C 0.29517 0.32328 0.01966
 C1064 C 0.27227 0.33815 0.01168
 H1065 H 0.30137 0.27055 0.05535
 H1066 H 0.35098 0.25071 0.07821
 H1067 H 0.40296 0.32418 0.02956
 H1068 H 0.35349 0.34378 0.00697
 C1069 C 0.82644 0.80936 0.53258
 C1070 C 0.85532 0.82386 0.52513
 C1071 C 0.88349 0.81202 0.53736
 C1072 C 0.88317 0.78543 0.55722
 C1073 C 0.85423 0.76999 0.56339
 C1074 C 0.82593 0.78204 0.55125
 C1075 C 0.79761 0.82464 0.52330
 C1076 C 0.77482 0.83989 0.51577
 H1077 H 0.85598 0.84505 0.51076
 H1078 H 0.90550 0.82416 0.53203
 H1079 H 0.85334 0.74964 0.57887
 H1080 H 0.80366 0.77076 0.55733
   
