data_POSCAR
  _audit_creation_date              2014-09-24
  _audit_creation_method            'ToBaCCo'
  _symmetry_space_group_name_H-M    'P1'
  _symmetry_Int_Tables_number       1
  _symmetry_cell_setting            triclinic
  loop_
  _symmetry_equiv_pos_as_xyz
 x,y,z
_cell_length_a 41.7053
_cell_length_b 40.5961
_cell_length_c 43.3135
_cell_angle_alpha 90.731800
_cell_angle_beta 90.031400
_cell_angle_gamma 90.348900
loop_
  _atom_site_label
  _atom_site_type_symbol
  _atom_site_fract_x
  _atom_site_fract_y
  _atom_site_fract_z
C1 C 0.17292 0.13632 0.19159
 C2 C 0.15529 0.12477 0.21697
 C3 C 0.12948 0.14311 0.22931
 C4 C 0.12217 0.17369 0.21595
 C5 C 0.14029 0.18601 0.19143
 C6 C 0.16569 0.16726 0.17908
 C7 C 0.19768 0.11737 0.17857
 C8 C 0.21632 0.12931 0.15378
 C9 C 0.20909 0.16077 0.14206
 C10 C 0.18381 0.17950 0.15419
 C11 C 0.17616 0.21025 0.14166
 C12 C 0.15111 0.22905 0.15420
 C13 C 0.13339 0.21694 0.17912
 H14 H 0.16089 0.10077 0.22614
 H15 H 0.10326 0.18888 0.22553
 H16 H 0.20316 0.09385 0.18880
 H17 H 0.22209 0.17030 0.12242
 H18 H 0.18979 0.21976 0.12238
 H19 H 0.11392 0.23150 0.18858
 C20 C -0.16695 0.86943 0.18401
 C21 C -0.14952 0.87984 0.21023
 C22 C -0.11927 0.86619 0.21707
 C23 C -0.10710 0.84148 0.19721
 C24 C -0.12501 0.82971 0.17195
 C25 C -0.15500 0.84376 0.16521
 C26 C -0.19605 0.88448 0.17623
 C27 C -0.21411 0.87370 0.15030
 C28 C -0.20251 0.84673 0.13270
 C29 C -0.17298 0.83210 0.13967
 C30 C -0.16092 0.80621 0.12126
 C31 C -0.13126 0.79175 0.12824
 C32 C -0.11344 0.80380 0.15352
 H33 H -0.15895 0.89964 0.22451
 H34 H -0.08439 0.82990 0.20230
 H35 H -0.20501 0.90406 0.19105
 H36 H -0.21534 0.83825 0.11232
 H37 H -0.17477 0.79696 0.10177
 H38 H -0.09038 0.79300 0.15877
 C39 C -0.19282 0.13810 -0.19151
 C40 C -0.17392 0.12072 -0.21282
 C41 C -0.14640 0.13529 -0.22529
 C42 C -0.13769 0.16750 -0.21654
 C43 C -0.15600 0.18492 -0.19472
 C44 C -0.18353 0.17004 -0.18188
 C45 C -0.22102 0.12409 -0.18002
 C46 C -0.23976 0.14088 -0.15788
 C47 C -0.22937 0.17220 -0.14719
 C48 C -0.20188 0.18717 -0.15961
 C49 C -0.19271 0.21921 -0.15056
 C50 C -0.16564 0.23438 -0.16372
 C51 C -0.14735 0.21699 -0.18566
 H52 H -0.18095 0.09613 -0.22033
 H53 H -0.11666 0.17884 -0.22670
 H54 H -0.22770 0.09943 -0.18760
 H55 H -0.24363 0.18585 -0.13054
 H56 H -0.20692 0.23261 -0.13367
 H57 H -0.12603 0.22828 -0.19532
 C58 C 0.17060 0.87256 -0.17785
 C59 C 0.15490 0.88254 -0.20492
 C60 C 0.12688 0.86609 -0.21553
 C61 C 0.11606 0.83820 -0.19926
 C62 C 0.13201 0.82736 -0.17283
 C63 C 0.15906 0.84484 -0.16178
 C64 C 0.19704 0.89039 -0.16594
 C65 C 0.21172 0.88070 -0.13832
 C66 C 0.20046 0.85287 -0.12283
 C67 C 0.17424 0.83488 -0.13431
 C68 C 0.16256 0.80747 -0.11838
 C69 C 0.13598 0.78965 -0.12960
 C70 C 0.12090 0.79961 -0.15691
 H71 H 0.16343 0.90443 -0.21647
 H72 H 0.09556 0.82415 -0.20758
 H73 H 0.20580 0.91208 -0.17768
 H74 H 0.21191 0.84562 -0.10150
 H75 H 0.17420 0.79985 -0.09727
 H76 H 0.10000 0.78620 -0.16527
 C77 C 0.15953 1.18447 0.80488
 C78 C 0.14910 1.17229 0.77601
 C79 C 0.16297 1.14372 0.76272
 C80 C 0.18572 1.12626 0.78008
 C81 C 0.19542 1.13745 0.80926
 C82 C 0.18323 1.16725 0.82124
 C83 C 0.14742 1.21410 0.81728
 C84 C 0.16032 1.22783 0.84477
 C85 C 0.18419 1.21033 0.86059
 C86 C 0.19499 1.17990 0.84951
 C87 C 0.21757 1.16199 0.86625
 C88 C 0.22850 1.13149 0.85507
 C89 C 0.21756 1.11944 0.82647
 H90 H 0.13177 1.18639 0.76313
 H91 H 0.19538 1.10325 0.77133
 H92 H 0.12941 1.22742 0.80450
 H93 H 0.19350 1.21971 0.88239
 H94 H 0.22639 1.17152 0.88818
 H95 H 0.22678 1.09635 0.81740
 C96 C 0.85848 0.81848 0.81817
 C97 C 0.87716 0.83070 0.79390
 C98 C 0.86922 0.86045 0.77929
 C99 C 0.84260 0.87843 0.79038
 C100 C 0.82453 0.86718 0.81553
 C101 C 0.83205 0.83668 0.82893
 C102 C 0.86569 0.78807 0.83152
 C103 C 0.84644 0.77498 0.85532
 C104 C 0.82010 0.79365 0.86586
 C105 C 0.81318 0.82441 0.85321
 C106 C 0.78785 0.84329 0.86486
 C107 C 0.78092 0.87431 0.85255
 C108 C 0.79917 0.88600 0.82765
 H109 H 0.89688 0.81591 0.78534
 H110 H 0.83663 0.90193 0.78034
 H111 H 0.88552 0.77403 0.82219
 H112 H 0.80570 0.78514 0.88501
 H113 H 0.77392 0.83414 0.88410
 H114 H 0.79355 0.90965 0.81771
 C115 C 0.12602 0.82596 1.18030
 C116 C 0.11195 0.84098 1.20618
 C117 C 0.12579 0.86921 1.21958
 C118 C 0.15364 0.88292 1.20681
 C119 C 0.16768 0.86842 1.18054
 C120 C 0.15422 0.83937 1.16759
 C121 C 0.11186 0.79810 1.16668
 C122 C 0.12575 0.78248 1.14074
 C123 C 0.15482 0.79522 1.12895
 C124 C 0.16857 0.82411 1.14164
 C125 C 0.19568 0.83878 1.12813
 C126 C 0.20811 0.86868 1.13996
 C127 C 0.19439 0.88295 1.16651
 H128 H 0.09020 0.83080 1.21603
 H129 H 0.16388 0.90515 1.21698
 H130 H 0.09031 0.78803 1.17702
 H131 H 0.16564 0.78409 1.10864
 H132 H 0.20631 0.82774 1.10767
 H133 H 0.20434 0.90565 1.17601
 C134 C 0.87819 1.16492 1.17527
 C135 C 0.89581 1.15235 1.19996
 C136 C 0.88341 1.12658 1.21803
 C137 C 0.85342 1.11266 1.20992
 C138 C 0.83624 1.12405 1.18440
 C139 C 0.84824 1.15084 1.16743
 C140 C 0.89020 1.19127 1.15811
 C141 C 0.87256 1.20382 1.13341
 C142 C 0.84264 1.19003 1.12572
 C143 C 0.83057 1.16316 1.14228
 C144 C 0.80176 1.14763 1.13351
 C145 C 0.79074 1.11979 1.14933
 C146 C 0.80764 1.10854 1.17510
 H147 H 0.91849 1.16393 1.20599
 H148 H 0.84399 1.09188 1.22258
 H149 H 0.91332 1.20209 1.16387
 H150 H 0.82929 1.19965 1.10637
 H151 H 0.78866 1.15616 1.11355
 H152 H 0.79874 1.08732 1.18748
 O153 O 0.45403 1.05552 1.06468
 O154 O 0.41918 1.02445 1.03527
 C155 C 0.42537 1.04741 1.05553
 O156 O 0.54918 1.05749 0.96193
 O157 O 0.58218 1.02540 0.99126
 C158 C 0.57724 1.04838 0.97147
 O159 O 0.45945 1.06240 0.96147
 O160 O 0.42203 1.02856 0.98377
 C161 C 0.43011 1.05344 0.96694
 O162 O 0.54323 1.04984 1.07241
 O163 O 0.57952 1.02066 1.04331
 C164 C 0.57233 1.04162 1.06506
 Zr165 Zr 0.49871 1.03401 1.05352
 O166 O 0.50102 1.08493 1.06412
 O167 O 0.49252 1.02477 1.10118
 Zr168 Zr 0.50306 1.04106 0.97569
 O169 O 0.50749 1.09293 0.97967
 O170 O 0.50163 1.04458 0.92697
 O171 O 0.47269 1.04453 1.01375
 O172 O 0.52857 1.04332 1.01641
 O173 O 0.54158 0.93253 1.06263
 O174 O 0.57869 0.96581 1.03899
 C175 C 0.57088 0.94197 1.05719
 O176 O 0.45680 0.94276 0.94941
 O177 O 0.42052 0.97187 0.97846
 C178 C 0.42768 0.95134 0.95635
 O179 O 0.54637 0.94244 0.95235
 O180 O 0.58113 0.96930 0.98533
 C181 C 0.57495 0.94943 0.96232
 O182 O 0.45189 0.93046 1.05451
 O183 O 0.41831 0.96625 1.02995
 C184 C 0.42356 0.94062 1.04677
 Zr185 Zr 0.49744 0.95174 1.04614
 O186 O 0.49887 0.89974 1.04611
 O187 O 0.49129 0.95149 1.09468
 Zr188 Zr 0.50131 0.95842 0.96840
 O189 O 0.50326 0.90647 0.96367
 O190 O 0.50096 0.96312 0.91978
 Zr191 Zr 0.45222 0.99710 1.00854
 Zr192 Zr 0.54795 0.99560 1.01307
 O193 O 0.52699 0.94852 1.00800
 O194 O 0.47080 0.94894 1.00527
 O195 O 0.52671 0.99197 1.05714
 O196 O 0.47457 1.00078 0.96511
 O197 O 0.46941 0.99288 1.05401
 O198 O 0.53127 0.99971 0.96732
 H199 H 0.54293 1.06275 1.01850
 H200 H 0.46119 1.00283 0.94633
 H201 H 0.54083 0.92880 1.00692
 H202 H 0.45337 0.99166 1.07084
 H203 H 0.52038 1.03262 0.91863
 H204 H 0.52010 0.97615 0.91399
 H205 H 0.48380 0.89723 0.97344
 H206 H 0.49554 0.89249 1.02449
 H207 H 0.51174 0.95881 1.10419
 H208 H 0.51354 1.01819 1.10964
 H209 H 0.50351 1.09637 1.04427
 H210 H 0.49014 1.10072 0.99347
 O211 O 0.04983 0.53651 -0.06855
 O212 O 0.03103 0.57446 -0.03347
 C213 C 0.04673 0.56651 -0.05829
 O214 O -0.07173 0.45646 -0.05107
 O215 O -0.04177 0.41707 -0.02691
 C216 C -0.06588 0.42620 -0.04343
 O217 O -0.05751 0.54896 -0.05422
 O218 O -0.02048 0.58059 -0.02780
 C219 C -0.04364 0.57696 -0.04747
 O220 O 0.04375 0.44435 -0.06711
 O221 O 0.01214 0.41136 -0.03689
 C222 C 0.03237 0.41586 -0.05914
 Zr223 Zr 0.03320 0.49181 -0.04914
 O224 O 0.02854 0.48983 -0.09777
 O225 O 0.08366 0.48781 -0.05148
 Zr226 Zr -0.04701 0.50070 -0.03829
 O227 O -0.05700 0.49776 -0.08615
 O228 O -0.09596 0.51056 -0.02909
 O229 O -0.00448 0.52523 -0.04920
 O230 O -0.01092 0.46814 -0.04995
 O231 O 0.05948 0.44147 0.03824
 O232 O 0.02105 0.40980 0.01385
 C233 C 0.04682 0.41321 0.03035
 O234 O -0.04226 0.54576 0.05959
 O235 O -0.01582 0.57946 0.02586
 C236 C -0.03300 0.57454 0.05031
 O237 O -0.05708 0.45489 0.05485
 O238 O -0.03390 0.41646 0.02292
 C239 C -0.05288 0.42478 0.04535
 O240 O 0.06715 0.53436 0.04362
 O241 O 0.03692 0.57376 0.01980
 C242 C 0.05991 0.56480 0.03787
 Zr243 Zr 0.04440 0.49005 0.02802
 O244 O 0.05012 0.48508 0.07631
 O245 O 0.09465 0.48777 0.02188
 Zr246 Zr -0.03545 0.49885 0.03895
 O247 O -0.02855 0.49354 0.08706
 O248 O -0.08478 0.50848 0.04583
 Zr249 Zr 0.00412 0.54390 -0.00434
 Zr250 Zr -0.00668 0.44683 -0.00613
 O251 O 0.00212 0.46581 0.03850
 O252 O 0.00855 0.52347 0.04001
 O253 O 0.04155 0.46104 -0.01202
 O254 O -0.04382 0.52896 0.00156
 O255 O 0.04767 0.51890 -0.01088
 O256 O -0.05059 0.47134 0.00066
 H257 H -0.01533 0.45384 -0.06818
 H258 H -0.06043 0.54615 0.00406
 H259 H 0.00310 0.45031 0.05596
 H260 H 0.06771 0.53189 -0.01313
 H261 H -0.10535 0.49078 -0.01940
 H262 H -0.09700 0.49198 0.03354
 H263 H -0.01205 0.50977 0.09367
 H264 H 0.04229 0.50558 0.08624
 H265 H 0.09859 0.47272 0.00417
 H266 H 0.08925 0.48824 -0.07369
 H267 H 0.01237 0.50645 -0.10330
 H268 H -0.04127 0.51210 -0.09661
 O269 O 1.06164 -0.05278 0.54928
 O270 O 1.02699 -0.02552 0.58170
 C271 C 1.05164 -0.04414 0.57659
 O272 O 1.05814 0.05601 0.46026
 O273 O 1.02943 0.02360 0.42614
 C274 C 1.05073 0.04602 0.43256
 O275 O 1.05510 0.05907 0.54717
 O276 O 1.02318 0.02986 0.58047
 C277 C 1.04452 0.05216 0.57462
 O278 O 1.06002 -0.06195 0.46293
 O279 O 1.03068 -0.03310 0.42778
 C280 C 1.05221 -0.05460 0.43479
 Zr281 Zr 1.04147 -0.04316 0.50542
 O282 O 1.09197 -0.04661 0.50406
 O283 O 1.03853 -0.09487 0.51078
 Zr284 Zr 1.03990 0.04021 0.50333
 O285 O 1.09068 0.04173 0.50273
 O286 O 1.03764 0.09231 0.50410
 O287 O 1.04603 -0.00003 0.53199
 O288 O 1.04746 -0.00244 0.47790
 O289 O 0.94534 -0.06413 0.45915
 O290 O 0.97641 -0.03452 0.42553
 C291 C 0.95449 -0.05629 0.43147
 O292 O 0.93948 0.05527 0.54246
 O293 O 0.96890 0.02744 0.57830
 C294 C 0.94700 0.04836 0.57070
 O295 O 0.94344 0.05255 0.45638
 O296 O 0.97560 0.02191 0.42415
 C297 C 0.95297 0.04308 0.42917
 O298 O 0.93861 -0.05678 0.54552
 O299 O 0.97036 -0.02805 0.57984
 C300 C 0.94692 -0.04799 0.57336
 Zr301 Zr 0.96100 -0.04574 0.50288
 O302 O 0.91093 -0.05336 0.49991
 O303 O 0.96675 -0.09720 0.50762
 Zr304 Zr 0.95911 0.03766 0.50050
 O305 O 0.90851 0.03670 0.49659
 O306 O 0.95878 0.08983 0.50151
 Zr307 Zr 0.99866 -0.00073 0.54910
 Zr308 Zr 1.00189 -0.00449 0.45704
 O309 O 0.95495 -0.00530 0.47498
 O310 O 0.95270 -0.00293 0.52883
 O311 O 1.00229 -0.05195 0.47641
 O312 O 0.99832 0.04602 0.52846
 O313 O 1.00044 -0.04930 0.53163
 O314 O 1.00037 0.04432 0.47408
 H315 H 1.06700 -0.00257 0.46493
 H316 H 0.99716 0.06629 0.54139
 H317 H 0.93617 -0.00621 0.46096
 H318 H 1.00047 -0.06742 0.54677
 H319 H 1.02688 0.09923 0.48490
 H320 H 0.97092 0.09758 0.48335
 H321 H 0.90019 0.02253 0.51322
 H322 H 0.90117 -0.03133 0.49844
 H323 H 0.97330 -0.10622 0.48726
 H324 H 1.03140 -0.10446 0.49079
 H325 H 1.10037 -0.02423 0.50842
 H326 H 1.09838 0.03023 0.52131
 C327 C 1.12574 0.11313 0.27833
 C328 C 1.10792 0.10321 0.30419
 C329 C 1.07477 0.11004 0.30578
 C330 C 1.06019 0.12747 0.28198
 C331 C 1.07824 0.13840 0.25697
 C332 C 1.11128 0.13138 0.25457
 C333 C 1.05680 0.09992 0.33138
 C334 C 1.07180 0.08410 0.35602
 C335 C 1.10521 0.07829 0.35498
 C336 C 1.12295 0.08742 0.32889
 C337 C 1.12035 0.06355 0.38016
 C338 C 1.10254 0.05439 0.40599
 C339 C 1.06932 0.05922 0.40677
 C340 C 1.05399 0.07412 0.38181
 H341 H 1.15128 0.10837 0.27780
 H342 H 1.03481 0.13298 0.28284
 H343 H 1.06580 0.15131 0.23888
 H344 H 1.03130 0.10493 0.33239
 H345 H 1.14851 0.08272 0.32804
 H346 H 1.14589 0.05883 0.37979
 H347 H 1.11448 0.04232 0.42494
 H348 H 1.02836 0.07806 0.38262
 C349 C 0.88263 -0.11507 0.27130
 C350 C 0.90019 -0.10636 0.29790
 C351 C 0.93396 -0.10386 0.29640
 C352 C 0.94970 -0.11160 0.26874
 C353 C 0.93221 -0.12183 0.24279
 C354 C 0.89837 -0.12336 0.24345
 C355 C 0.95148 -0.09387 0.32260
 C356 C 0.93571 -0.08751 0.35062
 C357 C 0.90209 -0.09178 0.35258
 C358 C 0.88449 -0.10067 0.32610
 C359 C 0.88661 -0.08694 0.38100
 C360 C 0.90413 -0.07704 0.40703
 C361 C 0.93727 -0.07120 0.40497
 C362 C 0.95302 -0.07681 0.37673
 H363 H 0.85677 -0.11709 0.27292
 H364 H 0.97560 -0.10996 0.26722
 H365 H 0.94533 -0.12720 0.22178
 H366 H 0.97735 -0.09130 0.32124
 H367 H 0.85864 -0.10337 0.32750
 H368 H 0.86093 -0.09047 0.38304
 H369 H 0.89156 -0.07261 0.42855
 H370 H 0.97863 -0.07262 0.37503
 C371 C 0.87247 0.12916 0.72072
 C372 C 0.88772 0.11111 0.69727
 C373 C 0.90357 0.08141 0.70436
 C374 C 0.90355 0.07016 0.73486
 C375 C 0.88749 0.08788 0.75795
 C376 C 0.87200 0.11744 0.75096
 C377 C 0.91866 0.06325 0.68080
 C378 C 0.91747 0.07406 0.65018
 C379 C 0.90108 0.10345 0.64313
 C380 C 0.88664 0.12194 0.66674
 C381 C 0.89921 0.11385 0.61251
 C382 C 0.91362 0.09548 0.58900
 C383 C 0.93042 0.06652 0.59568
 C384 C 0.93223 0.05590 0.62641
 H385 H 0.86004 0.15177 0.71537
 H386 H 0.91547 0.04744 0.74074
 H387 H 0.88708 0.07856 0.78127
 H388 H 0.93089 0.04053 0.68621
 H389 H 0.87419 0.14453 0.66129
 H390 H 0.88666 0.13623 0.60673
 H391 H 0.91211 0.10438 0.56558
 H392 H 0.94503 0.03352 0.63181
 C393 C 1.12498 -0.10769 0.73329
 C394 C 1.10743 -0.09739 0.70739
 C395 C 1.07362 -0.10007 0.70734
 C396 C 1.05801 -0.11399 0.73264
 C397 C 1.07563 -0.12549 0.75766
 C398 C 1.10939 -0.12241 0.75864
 C399 C 1.05593 -0.08913 0.68190
 C400 C 1.07170 -0.07669 0.65589
 C401 C 1.10559 -0.07534 0.65532
 C402 C 1.12321 -0.08511 0.68127
 C403 C 1.12132 -0.06451 0.62865
 C404 C 1.10366 -0.05503 0.60284
 C405 C 1.07001 -0.05541 0.60352
 C406 C 1.05413 -0.06603 0.63022
 H407 H 1.15089 -0.10577 0.73283
 H408 H 1.03210 -0.11617 0.73304
 H409 H 1.06240 -0.13549 0.77692
 H410 H 1.02996 -0.09083 0.68212
 H411 H 1.14918 -0.08360 0.68094
 H412 H 1.14727 -0.06358 0.62768
 H413 H 1.11629 -0.04668 0.58250
 H414 H 1.02816 -0.06655 0.63074
 C415 C 0.26909 1.12564 1.12829
 C416 C 0.29421 1.10697 1.11562
 C417 C 0.29181 1.07226 1.11447
 C418 C 0.26471 1.05680 1.12690
 C419 C 0.24018 1.07547 1.14030
 C420 C 0.24164 1.11027 1.14091
 C421 C 0.31669 1.05359 1.10126
 C422 C 0.34451 1.06919 1.09025
 C423 C 0.34733 1.10391 1.09248
 C424 C 0.32198 1.12256 1.10462
 C425 C 0.37566 1.11942 1.08286
 C426 C 0.40107 1.10078 1.07128
 C427 C 0.39833 1.06642 1.06831
 C428 C 0.36985 1.05070 1.07756
 H429 H 0.27184 1.15217 1.12959
 H430 H 0.26250 1.03018 1.12633
 H431 H 0.21939 1.06240 1.14889
 H432 H 0.31463 1.02695 1.10001
 H433 H 0.32406 1.14920 1.10591
 H434 H 0.37829 1.14596 1.08456
 H435 H 0.42280 1.11329 1.06412
 H436 H 0.36780 1.02412 1.07562
 C437 C 0.27001 0.89223 0.86932
 C438 C 0.29499 0.90714 0.88636
 C439 C 0.28774 0.93044 0.90991
 C440 C 0.25568 0.93887 0.91558
 C441 C 0.23099 0.92367 0.89873
 C442 C 0.23799 0.90014 0.87575
 C443 C 0.31253 0.94423 0.92795
 C444 C 0.34446 0.93473 0.92301
 C445 C 0.35171 0.91186 0.89913
 C446 C 0.32698 0.89831 0.88091
 C447 C 0.38358 0.90254 0.89409
 C448 C 0.40806 0.91527 0.91281
 C449 C 0.40125 0.93762 0.93700
 C450 C 0.36926 0.94745 0.94178
 H451 H 0.27533 0.87361 0.85191
 H452 H 0.24964 0.95649 0.93365
 H453 H 0.20631 0.92949 0.90426
 H454 H 0.30688 0.96183 0.94618
 H455 H 0.33260 0.88043 0.86290
 H456 H 0.38961 0.88529 0.87572
 H457 H 0.43243 0.90754 0.90821
 H458 H 0.36357 0.96493 0.96007
 C459 C 0.73165 0.87313 1.12714
 C460 C 0.70389 0.88983 1.11776
 C461 C 0.70207 0.92437 1.12168
 C462 C 0.72730 0.94141 1.13615
 C463 C 0.75435 0.92456 1.14636
 C464 C 0.75739 0.89023 1.14157
 C465 C 0.67511 0.94136 1.11100
 C466 C 0.64956 0.92415 1.09705
 C467 C 0.65060 0.88940 1.09452
 C468 C 0.67789 0.87249 1.10461
 C469 C 0.62439 0.87222 1.08165
 C470 C 0.59780 0.88935 1.07063
 C471 C 0.59728 0.92388 1.07180
 C472 C 0.62305 0.94114 1.08535
 H473 H 0.73256 0.84662 1.12412
 H474 H 0.72626 0.96790 1.13938
 H475 H 0.77366 0.93900 1.15646
 H476 H 0.67402 0.96795 1.11352
 H477 H 0.67892 0.84589 1.10214
 H478 H 0.62462 0.84559 1.07976
 H479 H 0.57813 0.87571 1.06016
 H480 H 0.62239 0.96776 1.08680
 C481 C 0.72218 1.13027 0.88417
 C482 C 0.69451 1.11452 0.89523
 C483 C 0.67469 1.09634 0.87463
 C484 C 0.68346 1.09322 0.84358
 C485 C 0.71184 1.10754 0.83305
 C486 C 0.73154 1.12650 0.85305
 C487 C 0.64674 1.08104 0.88548
 C488 C 0.63913 1.08240 0.91696
 C489 C 0.65972 1.09933 0.93785
 C490 C 0.68688 1.11588 0.92675
 C491 C 0.65305 1.09896 0.96957
 C492 C 0.62630 1.08188 0.98049
 C493 C 0.60534 1.06595 0.95977
 C494 C 0.61161 1.06644 0.92804
 H495 H 0.73738 1.14376 0.90029
 H496 H 0.66857 1.07937 0.82746
 H497 H 0.71761 1.10478 0.80878
 H498 H 0.63133 1.06745 0.86957
 H499 H 0.70245 1.12917 0.94273
 H500 H 0.66870 1.11152 0.98593
 H501 H 0.62165 1.08146 1.00510
 H502 H 0.59556 1.05363 0.91218
 C503 C 0.12952 0.26274 0.11132
 C504 C 0.11834 0.29280 0.09996
 C505 C 0.12140 0.32183 0.11820
 C506 C 0.13559 0.32022 0.14752
 C507 C 0.14575 0.29001 0.15901
 C508 C 0.14272 0.26117 0.14104
 C509 C 0.10944 0.35173 0.10724
 C510 C 0.09352 0.35278 0.07872
 C511 C 0.09025 0.32367 0.06065
 C512 C 0.10315 0.29403 0.07113
 C513 C 0.07348 0.32449 0.03264
 C514 C 0.05951 0.35371 0.02286
 C515 C 0.06261 0.38280 0.04058
 C516 C 0.08008 0.38230 0.06832
 H517 H 0.12675 0.24034 0.09764
 H518 H 0.13810 0.34216 0.16185
 H519 H 0.15573 0.28901 0.18207
 H520 H 0.11173 0.37396 0.12126
 H521 H 0.10061 0.27175 0.05723
 H522 H 0.07071 0.30241 0.01854
 H523 H 0.04634 0.35357 0.00129
 H524 H 0.08230 0.40457 0.08226
 C525 C -0.15399 0.27643 -0.12248
 C526 C -0.14148 0.30704 -0.11296
 C527 C -0.13122 0.32999 -0.13526
 C528 C -0.13418 0.32206 -0.16673
 C529 C -0.14609 0.29124 -0.17599
 C530 C -0.15568 0.26803 -0.15397
 C531 C -0.11714 0.35993 -0.12574
 C532 C -0.11217 0.36666 -0.09425
 C533 C -0.12271 0.34373 -0.07200
 C534 C -0.13783 0.31442 -0.08148
 C535 C -0.11673 0.34980 -0.04062
 C536 C -0.09906 0.37746 -0.03145
 C537 C -0.08801 0.40000 -0.05337
 C538 C -0.09542 0.39515 -0.08466
 H539 H -0.16098 0.25851 -0.10535
 H540 H -0.12652 0.33934 -0.18414
 H541 H -0.14753 0.28538 -0.20042
 H542 H -0.10890 0.37733 -0.14285
 H543 H -0.14558 0.29676 -0.06439
 H544 H -0.12467 0.33256 -0.02328
 H545 H -0.09344 0.38100 -0.00720
 H546 H -0.08649 0.41241 -0.10156
 C547 C 0.11791 0.73076 -0.12718
 C548 C 0.10598 0.70379 -0.11065
 C549 C 0.09885 0.70757 -0.07887
 C550 C 0.10445 0.73796 -0.06404
 C551 C 0.11683 0.76448 -0.08055
 C552 C 0.12342 0.76119 -0.11223
 C553 C 0.08612 0.68097 -0.06247
 C554 C 0.08066 0.65058 -0.07735
 C555 C 0.08860 0.64645 -0.10887
 C556 C 0.10109 0.67315 -0.12538
 C557 C 0.08371 0.61570 -0.12335
 C558 C 0.07060 0.58943 -0.10685
 C559 C 0.06197 0.59357 -0.07567
 C560 C 0.06727 0.62427 -0.06110
 H561 H 0.12321 0.72806 -0.15158
 H562 H 0.09916 0.74128 -0.03970
 H563 H 0.12072 0.78783 -0.06872
 H564 H 0.08040 0.68389 -0.03816
 H565 H 0.10694 0.67012 -0.14964
 H566 H 0.08985 0.61205 -0.14746
 H567 H 0.06666 0.56608 -0.11866
 H568 H 0.06090 0.62775 -0.03702
 C569 C -0.10560 0.73631 0.12396
 C570 C -0.09247 0.71038 0.10650
 C571 C -0.09216 0.71205 0.07392
 C572 C -0.10548 0.73949 0.05940
 C573 C -0.11877 0.76512 0.07700
 C574 C -0.11865 0.76392 0.10940
 C575 C -0.07880 0.68619 0.05643
 C576 C -0.06642 0.65838 0.07113
 C577 C -0.06728 0.65655 0.10373
 C578 C -0.07989 0.68272 0.12119
 C579 C -0.05599 0.62827 0.11835
 C580 C -0.04457 0.60173 0.10086
 C581 C -0.04341 0.60337 0.06855
 C582 C -0.05387 0.63197 0.05377
 H583 H -0.10594 0.73490 0.14894
 H584 H -0.10558 0.74115 0.03445
 H585 H -0.12857 0.78623 0.06530
 H586 H -0.07845 0.68750 0.03144
 H587 H -0.08031 0.68137 0.14619
 H588 H -0.05655 0.62644 0.14328
 H589 H -0.03655 0.57985 0.11258
 H590 H -0.05343 0.63310 0.02877
 C591 C 1.12315 0.13591 0.72120
 C592 C 1.11448 0.12214 0.69245
 C593 C 1.13785 0.10636 0.67393
 C594 C 1.16942 0.10440 0.68454
 C595 C 1.17759 0.11683 0.71366
 C596 C 1.15461 0.13253 0.73266
 C597 C 1.12916 0.09190 0.64554
 C598 C 1.09703 0.09151 0.63610
 C599 C 1.07350 0.10676 0.65494
 C600 C 1.08249 0.12267 0.68256
 C601 C 1.04115 0.10483 0.64639
 C602 C 1.03211 0.08730 0.61988
 C603 C 1.05529 0.07228 0.60101
 C604 C 1.08781 0.07490 0.60880
 H605 H 1.10475 0.14711 0.73545
 H606 H 1.18771 0.09262 0.67058
 H607 H 1.20237 0.11489 0.72085
 H608 H 1.14717 0.07986 0.63138
 H609 H 1.06442 0.13436 0.69691
 H610 H 1.02277 0.11602 0.66067
 H611 H 1.00688 0.08523 0.61412
 H612 H 1.10560 0.06271 0.59450
 C613 C 0.87238 -0.11229 0.72897
 C614 C 0.89006 -0.10275 0.70294
 C615 C 0.92361 -0.10737 0.70231
 C616 C 0.93871 -0.12267 0.72715
 C617 C 0.92076 -0.13362 0.75226
 C618 C 0.88736 -0.12832 0.75382
 C619 C 0.94148 -0.09699 0.67674
 C620 C 0.92604 -0.08329 0.65119
 C621 C 0.89227 -0.08018 0.65114
 C622 C 0.87456 -0.08935 0.67723
 C623 C 0.87678 -0.06807 0.62488
 C624 C 0.89459 -0.05872 0.59907
 C625 C 0.92815 -0.06060 0.59942
 C626 C 0.94378 -0.07288 0.62553
 H627 H 0.84662 -0.10888 0.72896
 H628 H 0.96441 -0.12646 0.72704
 H629 H 0.93344 -0.14509 0.77107
 H630 H 0.96730 -0.10005 0.67652
 H631 H 0.84872 -0.08649 0.67736
 H632 H 0.85091 -0.06582 0.62431
 H633 H 0.88226 -0.04904 0.57916
 H634 H 0.96970 -0.07458 0.62568
 C635 C 1.12345 -0.11818 0.27600
 C636 C 1.10709 -0.10559 0.30188
 C637 C 1.07751 -0.08927 0.29773
 C638 C 1.06462 -0.08618 0.26802
 C639 C 1.08075 -0.09933 0.24256
 C640 C 1.11018 -0.11524 0.24639
 C641 C 1.06105 -0.07661 0.32333
 C642 C 1.07348 -0.08038 0.35312
 C643 C 1.10266 -0.09717 0.35753
 C644 C 1.11942 -0.10957 0.33180
 C645 C 1.11454 -0.10107 0.38761
 C646 C 1.09781 -0.08814 0.41301
 C647 C 1.06914 -0.07073 0.40867
 C648 C 1.05711 -0.06728 0.37857
 H649 H 1.14595 -0.13104 0.27885
 H650 H 1.04186 -0.07404 0.26453
 H651 H 1.07021 -0.09725 0.21980
 H652 H 1.03849 -0.06395 0.32008
 H653 H 1.14188 -0.12241 0.33507
 H654 H 1.13694 -0.11377 0.39146
 H655 H 1.10771 -0.09105 0.43592
 H656 H 1.03503 -0.05399 0.37476
 C657 C 0.88407 0.10536 0.27078
 C658 C 0.90093 0.09497 0.29690
 C659 C 0.93470 0.09257 0.29583
 C660 C 0.95113 0.10222 0.26924
 C661 C 0.93432 0.11395 0.24380
 C662 C 0.90051 0.11517 0.24392
 C663 C 0.95152 0.08094 0.32147
 C664 C 0.93515 0.07324 0.34871
 C665 C 0.90154 0.07746 0.35037
 C666 C 0.88456 0.08764 0.32427
 C667 C 0.88548 0.07143 0.37816
 C668 C 0.90254 0.06129 0.40405
 C669 C 0.93574 0.05596 0.40229
 C670 C 0.95187 0.06166 0.37445
 H671 H 0.85820 0.10743 0.27205
 H672 H 0.97706 0.10097 0.26820
 H673 H 0.94791 0.12073 0.22354
 H674 H 0.97735 0.07830 0.32036
 H675 H 0.85871 0.09034 0.32541
 H676 H 0.85975 0.07455 0.37986
 H677 H 0.88963 0.05667 0.42527
 H678 H 0.97741 0.05734 0.37294
 C679 C 0.11710 0.26708 -0.14401
 C680 C 0.10651 0.29605 -0.12919
 C681 C 0.12914 0.31806 -0.11582
 C682 C 0.16175 0.31034 -0.11658
 C683 C 0.17188 0.28059 -0.12953
 C684 C 0.14982 0.25848 -0.14343
 C685 C 0.11881 0.34700 -0.10106
 C686 C 0.08602 0.35337 -0.09787
 C687 C 0.06323 0.33070 -0.11001
 C688 C 0.07363 0.30263 -0.12633
 C689 C 0.03044 0.33618 -0.10497
 C690 C 0.02040 0.36375 -0.08797
 C691 C 0.04292 0.38674 -0.07671
 C692 C 0.07567 0.38161 -0.08191
 H693 H 0.09958 0.25015 -0.15388
 H694 H 0.17940 0.32694 -0.10644
 H695 H 0.19732 0.27535 -0.12942
 H696 H 0.13626 0.36402 -0.09116
 H697 H 0.05617 0.28541 -0.13590
 H698 H 0.01264 0.31891 -0.11374
 H699 H -0.00498 0.36743 -0.08397
 H700 H 0.09306 0.39910 -0.07267
 C701 C -0.12487 0.26264 0.11759
 C702 C -0.10966 0.28828 0.10167
 C703 C -0.08328 0.28118 0.08216
 C704 C -0.07260 0.24863 0.07892
 C705 C -0.08743 0.22345 0.09539
 C706 C -0.11349 0.23032 0.11478
 C707 C -0.06762 0.30674 0.06668
 C708 C -0.07752 0.33943 0.07094
 C709 C -0.10374 0.34662 0.09051
 C710 C -0.11989 0.32095 0.10549
 C711 C -0.11311 0.37944 0.09509
 C712 C -0.09651 0.40496 0.08060
 C713 C -0.07048 0.39804 0.06100
 C714 C -0.06126 0.36511 0.05621
 H715 H -0.14487 0.26787 0.13285
 H716 H -0.05246 0.24274 0.06410
 H717 H -0.07846 0.19854 0.09320
 H718 H -0.04740 0.30127 0.05175
 H719 H -0.14003 0.32645 0.12049
 H720 H -0.13313 0.38538 0.11006
 H721 H -0.10419 0.43009 0.08462
 H722 H -0.04107 0.35943 0.04134
 C723 C -0.11448 0.73313 -0.12914
 C724 C -0.10721 0.70325 -0.11490
 C725 C -0.13212 0.68304 -0.10355
 C726 C -0.16393 0.69341 -0.10620
 C727 C -0.17099 0.72368 -0.11957
 C728 C -0.14643 0.74409 -0.13139
 C729 C -0.12478 0.65312 -0.08928
 C730 C -0.09272 0.64378 -0.08525
 C731 C -0.06782 0.66460 -0.09595
 C732 C -0.07523 0.69382 -0.11114
 C733 C -0.03581 0.65620 -0.09083
 C734 C -0.02843 0.62765 -0.07494
 C735 C -0.05282 0.60657 -0.06448
 C736 C -0.08501 0.61442 -0.07005
 H737 H -0.09485 0.74859 -0.13680
 H738 H -0.18340 0.67822 -0.09774
 H739 H -0.19597 0.73033 -0.12164
 H740 H -0.14392 0.63752 -0.08070
 H741 H -0.05605 0.70956 -0.11945
 H742 H -0.01646 0.67192 -0.09872
 H743 H -0.00349 0.62180 -0.07106
 H744 H -0.10387 0.59831 -0.06176
 C745 C 0.12743 0.72861 0.11379
 C746 C 0.11129 0.70097 0.10130
 C747 C 0.07740 0.70076 0.09993
 C748 C 0.06020 0.72748 0.11176
 C749 C 0.07623 0.75409 0.12535
 C750 C 0.11005 0.75526 0.12657
 C751 C 0.06109 0.67373 0.08706
 C752 C 0.07808 0.64630 0.07637
 C753 C 0.11187 0.64562 0.07871
 C754 C 0.12836 0.67324 0.09075
 C755 C 0.12841 0.61727 0.06898
 C756 C 0.11159 0.59018 0.05654
 C757 C 0.07815 0.59149 0.05313
 C758 C 0.06158 0.61948 0.06337
 H759 H 0.15337 0.72842 0.11511
 H760 H 0.03422 0.72768 0.11078
 H761 H 0.06191 0.77441 0.13388
 H762 H 0.03510 0.67390 0.08564
 H763 H 0.15433 0.67305 0.09219
 H764 H 0.15429 0.61611 0.07088
 H765 H 0.12470 0.56867 0.04878
 H766 H 0.03567 0.62029 0.06128
 C767 C 0.28043 1.12863 0.88309
 C768 C 0.30379 1.11105 0.89906
 C769 C 0.29875 1.07730 0.90536
 C770 C 0.27048 1.06167 0.89524
 C771 C 0.24756 1.07929 0.87881
 C772 C 0.25238 1.11285 0.87272
 C773 C 0.32223 1.05966 0.92123
 C774 C 0.35096 1.07519 0.93018
 C775 C 0.35611 1.10883 0.92344
 C776 C 0.33233 1.12663 0.90827
 C777 C 0.38523 1.12402 0.93155
 C778 C 0.40928 1.10593 0.94577
 C779 C 0.40433 1.07258 0.95268
 C780 C 0.37495 1.05743 0.94518
 H781 H 0.28437 1.15444 0.87803
 H782 H 0.26627 1.03580 0.89974
 H783 H 0.22592 1.06683 0.87104
 H784 H 0.31840 1.03379 0.92612
 H785 H 0.33628 1.15243 0.90313
 H786 H 0.38955 1.14975 0.92654
 H787 H 0.43173 1.11808 0.95153
 H788 H 0.37113 1.03159 0.95017
 C789 C 0.26290 0.86912 1.11612
 C790 C 0.28846 0.88591 1.10206
 C791 C 0.28540 0.91974 1.09515
 C792 C 0.25695 0.93621 1.10258
 C793 C 0.23190 0.91948 1.11707
 C794 C 0.23466 0.88589 1.12403
 C795 C 0.31098 0.93667 1.08140
 C796 C 0.33993 0.92048 1.07524
 C797 C 0.34314 0.88678 1.08251
 C798 C 0.31724 0.86960 1.09543
 C799 C 0.37245 0.87095 1.07721
 C800 C 0.39852 0.88846 1.06540
 C801 C 0.39558 0.92193 1.05811
 C802 C 0.36600 0.93766 1.06261
 H803 H 0.26524 0.84328 1.12168
 H804 H 0.25422 0.96212 1.09750
 H805 H 0.21018 0.93274 1.12271
 H806 H 0.30859 0.96259 1.07608
 H807 H 0.31970 0.84373 1.10089
 H808 H 0.37535 0.84516 1.08265
 H809 H 0.42102 0.87578 1.06184
 H810 H 0.36356 0.96352 1.05717
 C811 C 0.73253 1.11514 1.13591
 C812 C 0.70655 1.09723 1.12343
 C813 C 0.71144 1.06501 1.11152
 C814 C 0.74189 1.05074 1.11354
 C815 C 0.76739 1.06844 1.12664
 C816 C 0.76301 1.10084 1.13742
 C817 C 0.68592 1.04766 1.09767
 C818 C 0.65533 1.06175 1.09630
 C819 C 0.65013 1.09332 1.10950
 C820 C 0.67582 1.11101 1.12265
 C821 C 0.61931 1.10683 1.10913
 C822 C 0.59390 1.08945 1.09551
 C823 C 0.59895 1.05852 1.08144
 C824 C 0.62983 1.04485 1.08186
 H825 H 0.72914 1.14007 1.14455
 H826 H 0.74600 1.02595 1.10490
 H827 H 0.79083 1.05715 1.12774
 H828 H 0.68987 1.02325 1.08798
 H829 H 0.67188 1.13546 1.13226
 H830 H 0.61488 1.13093 1.11922
 H831 H 0.57043 1.10072 1.09522
 H832 H 0.63409 1.02119 1.07081
 C833 C 0.72563 0.87903 0.87411
 C834 C 0.70180 0.89657 0.88990
 C835 C 0.70683 0.93008 0.89792
 C836 C 0.73557 0.94559 0.88924
 C837 C 0.75933 0.92782 0.87351
 C838 C 0.75475 0.89425 0.86630
 C839 C 0.68317 0.94728 0.91461
 C840 C 0.65451 0.93135 0.92308
 C841 C 0.64954 0.89795 0.91440
 C842 C 0.67320 0.88081 0.89807
 C843 C 0.62084 0.88207 0.92205
 C844 C 0.59699 0.89909 0.93788
 C845 C 0.60152 0.93214 0.94685
 C846 C 0.63052 0.94820 0.93974
 H847 H 0.72167 0.85329 0.86819
 H848 H 0.73988 0.97129 0.89503
 H849 H 0.78169 0.94001 0.86786
 H850 H 0.68703 0.97293 0.92097
 H851 H 0.66937 0.85514 0.89173
 H852 H 0.61670 0.85653 0.91551
 H853 H 0.57486 0.88629 0.94327
 H854 H 0.63394 0.97385 0.94631
   
