data_POSCAR
  _audit_creation_date              2014-09-24
  _audit_creation_method            'ToBaCCo'
  _symmetry_space_group_name_H-M    'P1'
  _symmetry_Int_Tables_number       1
  _symmetry_cell_setting            triclinic
  loop_
  _symmetry_equiv_pos_as_xyz
 x,y,z
_cell_length_a 63.4822
_cell_length_b 32.9326
_cell_length_c 16.1583
_cell_angle_alpha 89.816000
_cell_angle_beta 89.887300
_cell_angle_gamma 90.152000
loop_
  _atom_site_label
  _atom_site_type_symbol
  _atom_site_fract_x
  _atom_site_fract_y
  _atom_site_fract_z
C1 C 0.75085 0.25404 0.53689
 C2 C 0.75095 0.25145 0.45267
 C3 C 0.76837 0.23102 0.40806
 C4 C 0.73367 0.26938 0.40320
 C5 C 0.73191 0.26838 0.58185
 C6 C 0.76952 0.24210 0.58613
 C7 C 0.78082 0.25289 0.35149
 C8 C 0.79916 0.23561 0.31896
 C9 C 0.80505 0.19616 0.34218
 C10 C 0.79206 0.17351 0.39534
 C11 C 0.77375 0.19076 0.42764
 C12 C 0.72905 0.31091 0.41028
 C13 C 0.71086 0.32675 0.37434
 C14 C 0.69722 0.30133 0.33039
 C15 C 0.70226 0.26029 0.31968
 C16 C 0.72052 0.24438 0.35560
 C17 C 0.71254 0.24830 0.57168
 C18 C 0.69413 0.26469 0.60482
 C19 C 0.69490 0.30112 0.64905
 C20 C 0.71429 0.32043 0.66236
 C21 C 0.73277 0.30399 0.62920
 C22 C 0.76804 0.21023 0.64372
 C23 C 0.78625 0.19457 0.68035
 C24 C 0.80600 0.21094 0.66023
 C25 C 0.80742 0.24416 0.60628
 C26 C 0.78926 0.25986 0.56980
 H27 H 0.77689 0.28395 0.33573
 H28 H 0.80901 0.25352 0.27777
 H29 H 0.79634 0.14294 0.41381
 H30 H 0.76418 0.17331 0.47053
 H31 H 0.73911 0.33063 0.44646
 H32 H 0.70710 0.35854 0.38297
 H33 H 0.72383 0.21226 0.34986
 H34 H 0.71163 0.22063 0.53579
 H35 H 0.67922 0.24946 0.59436
 H36 H 0.71505 0.34864 0.69654
 H37 H 0.74758 0.31989 0.63737
 H38 H 0.75295 0.19617 0.65693
 H39 H 0.78500 0.16884 0.72204
 H40 H 0.82262 0.25706 0.59034
 H41 H 0.79065 0.28471 0.52606
 H42 H 0.69177 0.24037 0.28589
 C43 C 0.25017 0.75227 0.45768
 C44 C 0.25032 0.75461 0.54190
 C45 C 0.23306 0.77495 0.58772
 C46 C 0.26765 0.73611 0.59021
 C47 C 0.26893 0.73770 0.41196
 C48 C 0.23130 0.76397 0.40941
 C49 C 0.22748 0.81515 0.56841
 C50 C 0.20940 0.83236 0.60269
 C51 C 0.19687 0.80976 0.65739
 C52 C 0.20293 0.77042 0.68019
 C53 C 0.22104 0.75312 0.64578
 C54 C 0.28130 0.76065 0.63656
 C55 C 0.29951 0.74403 0.67149
 C56 C 0.30402 0.70272 0.66098
 C57 C 0.28992 0.67784 0.61797
 C58 C 0.27178 0.69439 0.58306
 C59 C 0.26793 0.70162 0.36616
 C60 C 0.28634 0.68461 0.33370
 C61 C 0.30580 0.70382 0.34614
 C62 C 0.30671 0.74073 0.38863
 C63 C 0.28835 0.75769 0.42108
 C64 C 0.21172 0.74573 0.42642
 C65 C 0.19339 0.76074 0.39002
 C66 C 0.19448 0.79381 0.33561
 C67 C 0.21407 0.81081 0.31511
 C68 C 0.23245 0.79578 0.35155
 H69 H 0.23672 0.83259 0.52441
 H70 H 0.20487 0.86284 0.58476
 H71 H 0.19333 0.75271 0.72254
 H72 H 0.22510 0.72211 0.66138
 H73 H 0.27838 0.79292 0.64218
 H74 H 0.31035 0.76354 0.70454
 H75 H 0.26134 0.67504 0.54770
 H76 H 0.25309 0.68571 0.35905
 H77 H 0.28550 0.65598 0.30102
 H78 H 0.32167 0.75583 0.39859
 H79 H 0.28936 0.78564 0.45602
 H80 H 0.21058 0.72089 0.47034
 H81 H 0.17832 0.74733 0.40617
 H82 H 0.21505 0.83642 0.27304
 H83 H 0.24742 0.81018 0.33776
 H84 H 0.29326 0.64587 0.60948
 C85 C 0.25016 0.24616 -0.46000
 C86 C 0.25043 0.24614 -0.54442
 C87 C 0.26786 0.26585 -0.59092
 C88 C 0.23328 0.22661 -0.59229
 C89 C 0.23110 0.23350 -0.41333
 C90 C 0.26885 0.25940 -0.41211
 C91 C 0.27285 0.30682 -0.57662
 C92 C 0.29108 0.32386 -0.61058
 C93 C 0.30438 0.30026 -0.66004
 C94 C 0.29892 0.25996 -0.67800
 C95 C 0.28065 0.24287 -0.64386
 C96 C 0.22125 0.24952 -0.64818
 C97 C 0.20331 0.23260 -0.68473
 C98 C 0.19742 0.19251 -0.66628
 C99 C 0.20997 0.16896 -0.61368
 C100 C 0.22787 0.18584 -0.57726
 C101 C 0.23202 0.20078 -0.35762
 C102 C 0.21355 0.18571 -0.32131
 C103 C 0.19409 0.20359 -0.33978
 C104 C 0.19326 0.23740 -0.39242
 C105 C 0.21168 0.25241 -0.42867
 C106 C 0.28851 0.24102 -0.42556
 C107 C 0.30667 0.25723 -0.38986
 C108 C 0.30532 0.29163 -0.33957
 C109 C 0.28563 0.30885 -0.32250
 C110 C 0.26743 0.29266 -0.35832
 H111 H 0.26303 0.32509 -0.53652
 H112 H 0.29508 0.35508 -0.59627
 H113 H 0.30907 0.24137 -0.71624
 H114 H 0.27703 0.21124 -0.65545
 H115 H 0.22520 0.28099 -0.66045
 H116 H 0.19373 0.25116 -0.72533
 H117 H 0.23712 0.16759 -0.53498
 H118 H 0.24687 0.18591 -0.34507
 H119 H 0.21440 0.15954 -0.28064
 H120 H 0.17833 0.25160 -0.40708
 H121 H 0.21074 0.27801 -0.47075
 H122 H 0.28985 0.21508 -0.46626
 H123 H 0.32181 0.24368 -0.40343
 H124 H 0.28445 0.33552 -0.28368
 H125 H 0.25240 0.30722 -0.34737
 H126 H 0.20562 0.13791 -0.59892
 C127 C -0.24954 0.74582 -0.54421
 C128 C -0.25007 0.74714 -0.45987
 C129 C -0.26927 0.73507 -0.41347
 C130 C -0.23152 0.76104 -0.41194
 C131 C -0.23208 0.76529 -0.59095
 C132 C -0.26650 0.72542 -0.59165
 C133 C -0.28867 0.75360 -0.43119
 C134 C -0.30724 0.73867 -0.39600
 C135 C -0.30659 0.70536 -0.34202
 C136 C -0.28717 0.68800 -0.32098
 C137 C -0.26855 0.70298 -0.35625
 C138 C -0.23305 0.79504 -0.36014
 C139 C -0.21494 0.81152 -0.32408
 C140 C -0.19524 0.79386 -0.33890
 C141 C -0.19379 0.75886 -0.38741
 C142 C -0.21185 0.74237 -0.42335
 C143 C -0.21887 0.74190 -0.64150
 C144 C -0.20058 0.75903 -0.67543
 C145 C -0.19553 0.79976 -0.65969
 C146 C -0.20924 0.82368 -0.61268
 C147 C -0.22748 0.80660 -0.57891
 C148 C -0.27193 0.68489 -0.57409
 C149 C -0.28980 0.66744 -0.60966
 C150 C -0.30229 0.69016 -0.66399
 C151 C -0.29635 0.72992 -0.68503
 C152 C -0.27845 0.74742 -0.64930
 H153 H -0.28947 0.77870 -0.47453
 H154 H -0.32214 0.75245 -0.41269
 H155 H -0.28645 0.66221 -0.27924
 H156 H -0.25372 0.68839 -0.34189
 H157 H -0.24808 0.80984 -0.35083
 H158 H -0.21621 0.83866 -0.28670
 H159 H -0.21042 0.71589 -0.46252
 H160 H -0.22218 0.71000 -0.65129
 H161 H -0.19010 0.74019 -0.71173
 H162 H -0.20556 0.85522 -0.60008
 H163 H -0.23762 0.82516 -0.54062
 H164 H -0.26275 0.66734 -0.53037
 H165 H -0.29418 0.63665 -0.59290
 H166 H -0.30588 0.74784 -0.72701
 H167 H -0.27450 0.77869 -0.66349
 H168 H -0.17864 0.74497 -0.39927
 O169 O -0.02989 0.92879 0.15278
 O170 O -0.05298 0.96638 0.07493
 C171 C -0.04873 0.93950 0.13087
 O172 O 0.02983 1.07474 0.14428
 O173 O 0.05233 1.03548 0.06726
 C174 C 0.04851 1.06369 0.12052
 O175 O -0.02961 1.07154 0.15534
 O176 O -0.05293 1.03457 0.07721
 C177 C -0.04852 1.06095 0.13371
 O178 O 0.02930 0.92524 0.14173
 O179 O 0.05211 0.96494 0.06608
 C180 C 0.04806 0.93620 0.11842
 Zr181 Zr -0.00040 0.94922 0.10625
 O182 O 0.00236 0.95046 0.23680
 O183 O -0.00284 0.88512 0.10866
 Zr184 Zr -0.00011 1.05166 0.10815
 O185 O 0.00268 1.04905 0.23862
 O186 O -0.00213 1.11575 0.11252
 O187 O -0.01909 1.00045 0.12413
 O188 O 0.01816 1.00024 0.12107
 O189 O 0.02842 0.92705 -0.14413
 O190 O 0.05166 0.96586 -0.06940
 C191 C 0.04731 0.93783 -0.12253
 O192 O -0.03032 1.07349 -0.14618
 O193 O -0.05313 1.03630 -0.06561
 C194 C -0.04908 1.06292 -0.12239
 O195 O 0.02895 1.07650 -0.14062
 O196 O 0.05194 1.03634 -0.06771
 C197 C 0.04778 1.06529 -0.11925
 O198 O -0.03106 0.93086 -0.14757
 O199 O -0.05364 0.96767 -0.06585
 C200 C -0.04976 0.94142 -0.12319
 Zr201 Zr -0.00110 0.95032 -0.10391
 O202 O 0.00080 0.95240 -0.23469
 O203 O -0.00352 0.88623 -0.10677
 Zr204 Zr -0.00071 1.05288 -0.10214
 O205 O 0.00133 1.05197 -0.23294
 O206 O -0.00281 1.11701 -0.10328
 Zr207 Zr -0.03191 1.00126 0.00372
 Zr208 Zr 0.03058 1.00079 0.00028
 O209 O 0.01739 1.00156 -0.11901
 O210 O -0.01984 1.00183 -0.11801
 O211 O 0.01787 0.94162 -0.00004
 O212 O -0.01856 1.05988 0.00412
 O213 O -0.01892 0.94247 0.00204
 O214 O 0.01823 1.06015 0.00212
 H215 H 0.02803 0.99988 0.16850
 H216 H -0.02790 1.08393 0.00512
 H217 H 0.02694 1.00184 -0.16756
 H218 H -0.02832 0.91841 0.00213
 H219 H 0.00865 1.12671 0.07417
 H220 H 0.00830 1.12747 -0.06614
 H221 H -0.01121 1.03740 -0.25384
 H222 H -0.01167 0.96737 -0.25492
 H223 H 0.00772 0.87529 -0.07084
 H224 H 0.00779 0.87443 0.06963
 H225 H -0.01013 0.96474 0.25884
 H226 H -0.00998 1.03499 0.26033
 O227 O 0.47051 0.42651 0.14961
 O228 O 0.44735 0.46461 0.07327
 C229 C 0.45165 0.43742 0.12849
 O230 O 0.53028 0.57217 0.14397
 O231 O 0.55289 0.53370 0.06565
 C232 C 0.54900 0.56140 0.11995
 O233 O 0.47094 0.56956 0.15533
 O234 O 0.44752 0.53352 0.07596
 C235 C 0.45200 0.55941 0.13331
 O236 O 0.52948 0.42308 0.13899
 O237 O 0.55232 0.46326 0.06470
 C238 C 0.54824 0.43425 0.11635
 Zr239 Zr 0.49992 0.44720 0.10267
 O240 O 0.50266 0.44723 0.23327
 O241 O 0.49748 0.38308 0.10171
 Zr242 Zr 0.50026 0.54969 0.10674
 O243 O 0.50305 0.54711 0.23721
 O244 O 0.49827 0.61382 0.11069
 O245 O 0.48127 0.49838 0.12210
 O246 O 0.51849 0.49819 0.11856
 O247 O 0.52848 0.42635 -0.14907
 O248 O 0.55180 0.46494 -0.07457
 C249 C 0.54739 0.43709 -0.12793
 O250 O 0.46955 0.57230 -0.14575
 O251 O 0.44674 0.53418 -0.06666
 C252 C 0.45078 0.56129 -0.12256
 O253 O 0.52877 0.57624 -0.14211
 O254 O 0.55197 0.53575 -0.07120
 C255 C 0.54764 0.56496 -0.12191
 O256 O 0.46939 0.43001 -0.15145
 O257 O 0.44679 0.46623 -0.06888
 C258 C 0.45069 0.44033 -0.12684
 Zr259 Zr 0.49921 0.44960 -0.10698
 O260 O 0.50100 0.45268 -0.23773
 O261 O 0.49681 0.38551 -0.11089
 Zr262 Zr 0.49938 0.55197 -0.10276
 O263 O 0.50130 0.55186 -0.23362
 O264 O 0.49718 0.61608 -0.10248
 Zr265 Zr 0.46830 0.49979 0.00208
 Zr266 Zr 0.53110 0.49950 -0.00200
 O267 O 0.51763 0.50093 -0.12092
 O268 O 0.48036 0.50101 -0.11967
 O269 O 0.51830 0.44034 -0.00364
 O270 O 0.48162 0.55839 0.00349
 O271 O 0.48133 0.44107 -0.00128
 O272 O 0.51857 0.55874 0.00106
 H273 H 0.52825 0.49764 0.16633
 H274 H 0.47228 0.58244 0.00484
 H275 H 0.52702 0.50153 -0.16996
 H276 H 0.47193 0.41702 -0.00161
 H277 H 0.50975 0.62482 0.07571
 H278 H 0.50814 0.62640 -0.06453
 H279 H 0.48868 0.53763 -0.25478
 H280 H 0.48850 0.46769 -0.25746
 H281 H 0.50811 0.37440 -0.07548
 H282 H 0.50866 0.37271 0.06477
 H283 H 0.49034 0.46186 0.25583
 H284 H 0.49079 0.53173 0.25869
 C285 C 0.39925 0.38108 0.22054
 C286 C 0.38959 0.35116 0.17037
 C287 C 0.36982 0.33436 0.19386
 C288 C 0.35995 0.34719 0.26791
 C289 C 0.36977 0.37664 0.31875
 C290 C 0.38948 0.39363 0.29497
 C291 C 0.39894 0.42317 0.34647
 C292 C 0.38918 0.43565 0.41938
 C293 C 0.36988 0.41913 0.44256
 C294 C 0.36022 0.38991 0.39315
 C295 C 0.36028 0.30510 0.14192
 C296 C 0.37006 0.29261 0.06905
 C297 C 0.38948 0.30877 0.04642
 C298 C 0.39921 0.33772 0.09623
 C299 C 0.33977 0.33003 0.29202
 C300 C 0.32307 0.31593 0.31339
 C301 C 0.41855 0.40052 0.19273
 C302 C 0.43406 0.41712 0.16589
 H303 H 0.41398 0.43683 0.33106
 H304 H 0.39667 0.45817 0.45819
 H305 H 0.36240 0.42881 0.49941
 H306 H 0.34525 0.37783 0.41402
 H307 H 0.34518 0.29163 0.15693
 H308 H 0.36250 0.27033 0.02987
 H309 H 0.39699 0.29905 -0.01034
 H310 H 0.41428 0.34950 0.07578
 C311 C -0.10103 0.88262 0.22234
 C312 C -0.11095 0.89495 0.29662
 C313 C -0.13058 0.87747 0.32013
 C314 C -0.14011 0.84767 0.26927
 C315 C -0.13005 0.83501 0.19548
 C316 C -0.11040 0.85238 0.17217
 C317 C -0.10061 0.83917 0.09819
 C318 C -0.11006 0.80988 0.04838
 C319 C -0.12936 0.79312 0.07089
 C320 C -0.13930 0.80538 0.14357
 C321 C -0.14031 0.89060 0.39425
 C322 C -0.13091 0.92008 0.44375
 C323 C -0.11167 0.93703 0.42093
 C324 C -0.10174 0.92473 0.34824
 C325 C -0.16021 0.83005 0.29301
 C326 C -0.17686 0.81564 0.31406
 C327 C -0.08183 0.90249 0.19479
 C328 C -0.06635 0.91924 0.16807
 H329 H -0.08564 0.85143 0.07781
 H330 H -0.10243 0.80040 -0.00829
 H331 H -0.13668 0.77055 0.03173
 H332 H -0.15430 0.79146 0.15845
 H333 H -0.15524 0.87821 0.41478
 H334 H -0.13854 0.92966 0.50037
 H335 H -0.10440 0.95979 0.45980
 H336 H -0.08677 0.93872 0.33309
 C337 C 0.60274 0.61315 0.20972
 C338 C 0.61484 0.59211 0.26955
 C339 C 0.63480 0.60764 0.29389
 C340 C 0.64248 0.64424 0.25855
 C341 C 0.63037 0.66525 0.19873
 C342 C 0.61046 0.64962 0.17412
 C343 C 0.59873 0.67098 0.11368
 C344 C 0.60643 0.70679 0.07865
 C345 C 0.62586 0.72215 0.10293
 C346 C 0.63776 0.70176 0.16225
 C347 C 0.64668 0.58590 0.35328
 C348 C 0.63906 0.54987 0.38772
 C349 C 0.61953 0.53476 0.36413
 C350 C 0.60749 0.55549 0.30570
 C351 C 0.66265 0.66059 0.28470
 C352 C 0.67924 0.67440 0.30773
 C353 C 0.58291 0.59617 0.18153
 C354 C 0.56696 0.58109 0.15536
 H355 H 0.58350 0.66029 0.09293
 H356 H 0.59725 0.72272 0.03249
 H357 H 0.63176 0.75001 0.07564
 H358 H 0.65281 0.71487 0.17899
 H359 H 0.66198 0.59642 0.37356
 H360 H 0.64838 0.53358 0.43294
 H361 H 0.61370 0.50671 0.39091
 H362 H 0.59242 0.54244 0.28911
 C363 C 0.10250 1.11570 0.20715
 C364 C 0.11465 1.09478 0.26697
 C365 C 0.13460 1.11042 0.29101
 C366 C 0.14224 1.14693 0.25522
 C367 C 0.13014 1.16769 0.19501
 C368 C 0.11023 1.15197 0.17074
 C369 C 0.09851 1.17301 0.10980
 C370 C 0.10623 1.20862 0.07398
 C371 C 0.12566 1.22410 0.09800
 C372 C 0.13755 1.20401 0.15781
 C373 C 0.14652 1.08885 0.35057
 C374 C 0.13895 1.05286 0.38535
 C375 C 0.11943 1.03760 0.36191
 C376 C 0.10736 1.05817 0.30338
 C377 C 0.16238 1.16342 0.28133
 C378 C 0.17895 1.17713 0.30471
 C379 C 0.08256 1.09880 0.17998
 C380 C 0.06653 1.08364 0.15479
 H381 H 0.08329 1.16221 0.08920
 H382 H 0.09707 1.22430 0.02740
 H383 H 0.13157 1.25181 0.07010
 H384 H 0.15259 1.21718 0.17430
 H385 H 0.16182 1.09946 0.37071
 H386 H 0.14830 1.03670 0.43067
 H387 H 0.11365 1.00957 0.38892
 H388 H 0.09231 1.04501 0.28695
 C389 C 0.60005 0.38368 -0.22294
 C390 C 0.60687 0.34596 -0.19050
 C391 C 0.62651 0.32950 -0.21595
 C392 C 0.63923 0.35091 -0.27354
 C393 C 0.63238 0.38860 -0.30620
 C394 C 0.61271 0.40500 -0.28089
 C395 C 0.60621 0.44275 -0.31417
 C396 C 0.61877 0.46369 -0.37092
 C397 C 0.63803 0.44771 -0.39552
 C398 C 0.64483 0.41059 -0.36377
 C399 C 0.63300 0.29178 -0.18252
 C400 C 0.62049 0.27099 -0.12539
 C401 C 0.60132 0.28714 -0.10034
 C402 C 0.59450 0.32416 -0.13235
 C403 C 0.65923 0.33388 -0.29978
 C404 C 0.67564 0.31920 -0.32224
 C405 C 0.58060 0.40153 -0.19319
 C406 C 0.56497 0.41712 -0.16542
 H407 H 0.59139 0.45648 -0.29673
 H408 H 0.61359 0.49258 -0.39559
 H409 H 0.64775 0.46418 -0.43940
 H410 H 0.65993 0.39940 -0.38473
 H411 H 0.64780 0.27799 -0.19999
 H412 H 0.62571 0.24219 -0.10043
 H413 H 0.59166 0.27088 -0.05592
 H414 H 0.57944 0.33543 -0.11110
 C415 C 0.10036 0.88569 -0.21679
 C416 C 0.10770 0.84837 -0.18422
 C417 C 0.12762 0.83305 -0.20917
 C418 C 0.14012 0.85521 -0.26637
 C419 C 0.13274 0.89247 -0.29924
 C420 C 0.11277 0.90771 -0.27450
 C421 C 0.10574 0.94506 -0.30801
 C422 C 0.11808 0.96675 -0.36431
 C423 C 0.13764 0.95194 -0.38826
 C424 C 0.14495 0.91522 -0.35638
 C425 C 0.13465 0.79573 -0.17555
 C426 C 0.12238 0.77425 -0.11866
 C427 C 0.10292 0.78929 -0.09410
 C428 C 0.09557 0.82589 -0.12636
 C429 C 0.16045 0.83947 -0.29190
 C430 C 0.17718 0.82608 -0.31400
 C431 C 0.08070 0.90265 -0.18705
 C432 C 0.06496 0.91786 -0.15948
 H433 H 0.09067 0.95790 -0.29106
 H434 H 0.11249 0.99534 -0.38909
 H435 H 0.14720 0.96901 -0.43174
 H436 H 0.16027 0.90494 -0.37687
 H437 H 0.14969 0.78280 -0.19268
 H438 H 0.12801 0.74578 -0.09350
 H439 H 0.09345 0.77250 -0.04988
 H440 H 0.08031 0.83628 -0.10555
 C441 C 0.39771 0.61579 -0.21114
 C442 C 0.38062 0.61834 -0.15489
 C443 C 0.36156 0.63731 -0.17966
 C444 C 0.35957 0.65296 -0.26097
 C445 C 0.37655 0.64981 -0.31766
 C446 C 0.39570 0.63125 -0.29255
 C447 C 0.41244 0.62838 -0.35018
 C448 C 0.41032 0.64341 -0.43046
 C449 C 0.39162 0.66163 -0.45501
 C450 C 0.37485 0.66478 -0.39961
 C451 C 0.34478 0.63994 -0.12207
 C452 C 0.34666 0.62374 -0.04265
 C453 C 0.36517 0.60461 -0.01883
 C454 C 0.38204 0.60204 -0.07385
 C455 C 0.33990 0.67133 -0.28696
 C456 C 0.32352 0.68602 -0.30959
 C457 C 0.41726 0.59711 -0.18462
 C458 C 0.43298 0.58112 -0.15880
 H459 H 0.42729 0.61444 -0.33388
 H460 H 0.42325 0.64085 -0.47389
 H461 H 0.39004 0.67316 -0.51751
 H462 H 0.36057 0.67898 -0.42179
 H463 H 0.33004 0.65443 -0.13780
 H464 H 0.33368 0.62600 0.00060
 H465 H 0.36654 0.59200 0.04288
 H466 H 0.39615 0.58709 -0.05209
 C467 C -0.10207 1.11733 -0.21183
 C468 C -0.11933 1.11960 -0.15629
 C469 C -0.13821 1.13916 -0.18116
 C470 C -0.13984 1.15575 -0.26182
 C471 C -0.12282 1.15236 -0.31820
 C472 C -0.10384 1.13319 -0.29300
 C473 C -0.08704 1.13012 -0.35029
 C474 C -0.08895 1.14542 -0.43044
 C475 C -0.10750 1.16418 -0.45513
 C476 C -0.12430 1.16768 -0.39996
 C477 C -0.15518 1.14142 -0.12437
 C478 C -0.15365 1.12426 -0.04567
 C479 C -0.13529 1.10462 -0.02171
 C480 C -0.11823 1.10244 -0.07591
 C481 C -0.15913 1.17571 -0.28734
 C482 C -0.17510 1.19202 -0.30992
 C483 C -0.08258 1.09861 -0.18486
 C484 C -0.06686 1.08268 -0.15884
 H485 H -0.07231 1.11572 -0.33389
 H486 H -0.07599 1.14261 -0.47368
 H487 H -0.10894 1.17585 -0.51758
 H488 H -0.13844 1.18231 -0.42226
 H489 H -0.16982 1.15626 -0.14027
 H490 H -0.16679 1.12619 -0.00306
 H491 H -0.13418 1.09131 0.03947
 H492 H -0.10425 1.08705 -0.05411
 C493 C 0.60036 0.62007 -0.21401
 C494 C 0.60145 0.66226 -0.23036
 C495 C 0.62083 0.68008 -0.25584
 C496 C 0.63898 0.65557 -0.26475
 C497 C 0.63783 0.61328 -0.24921
 C498 C 0.61846 0.59548 -0.22367
 C499 C 0.61773 0.55315 -0.20799
 C500 C 0.63562 0.52916 -0.21717
 C501 C 0.65453 0.54655 -0.24256
 C502 C 0.65573 0.58811 -0.25844
 C503 C 0.62155 0.72235 -0.27184
 C504 C 0.60363 0.74631 -0.26289
 C505 C 0.58469 0.72887 -0.23788
 C506 C 0.58352 0.68734 -0.22166
 C507 C 0.65877 0.67375 -0.29082
 C508 C 0.67512 0.68870 -0.31379
 C509 C 0.58087 0.60201 -0.18448
 C510 C 0.56524 0.58589 -0.15757
 H511 H 0.60336 0.53813 -0.18853
 H512 H 0.63480 0.49688 -0.20465
 H513 H 0.66837 0.52774 -0.24987
 H514 H 0.67081 0.60025 -0.27788
 H515 H 0.63592 0.73730 -0.29146
 H516 H 0.60445 0.77858 -0.27548
 H517 H 0.57081 0.74761 -0.23108
 H518 H 0.56843 0.67513 -0.20252
 C519 C 0.10096 1.11994 -0.20820
 C520 C 0.11900 1.09506 -0.21709
 C521 C 0.13846 1.11250 -0.24255
 C522 C 0.13979 1.15471 -0.25873
 C523 C 0.12178 1.17959 -0.24960
 C524 C 0.10230 1.16214 -0.22422
 C525 C 0.08452 1.18759 -0.21524
 C526 C 0.08594 1.22914 -0.23098
 C527 C 0.10498 1.24621 -0.25593
 C528 C 0.12274 1.22187 -0.26525
 C529 C 0.15627 1.08704 -0.25105
 C530 C 0.15492 1.04557 -0.23432
 C531 C 0.13592 1.02856 -0.20890
 C532 C 0.11809 1.05281 -0.20063
 C533 C 0.15959 1.17243 -0.28599
 C534 C 0.17589 1.18711 -0.31015
 C535 C 0.08129 1.10213 -0.17997
 C536 C 0.06551 1.08612 -0.15409
 H537 H 0.06937 1.17568 -0.19608
 H538 H 0.07219 1.24818 -0.22385
 H539 H 0.10599 1.27850 -0.26813
 H540 H 0.13720 1.23656 -0.28472
 H541 H 0.17142 1.09890 -0.27039
 H542 H 0.16870 1.02656 -0.24096
 H543 H 0.13497 0.99635 -0.19568
 H544 H 0.10365 1.03807 -0.18111
 C545 C 0.39758 0.38548 -0.21459
 C546 C 0.39557 0.36995 -0.29575
 C547 C 0.37657 0.35047 -0.32003
 C548 C 0.35971 0.34664 -0.26288
 C549 C 0.36165 0.36255 -0.18197
 C550 C 0.38060 0.38224 -0.15787
 C551 C 0.38204 0.39849 -0.07698
 C552 C 0.36525 0.39533 -0.02161
 C553 C 0.34682 0.37566 -0.04491
 C554 C 0.34495 0.35939 -0.12408
 C555 C 0.37491 0.33521 -0.40160
 C556 C 0.39156 0.33906 -0.45747
 C557 C 0.41010 0.35827 -0.43379
 C558 C 0.41218 0.37355 -0.35387
 C559 C 0.34030 0.32685 -0.28787
 C560 C 0.32426 0.31063 -0.31011
 C561 C 0.41708 0.40463 -0.18865
 C562 C 0.43282 0.42075 -0.16318
 H563 H 0.39609 0.41384 -0.05564
 H564 H 0.36663 0.40792 0.03996
 H565 H 0.33389 0.37299 -0.00141
 H566 H 0.33027 0.34445 -0.13940
 H567 H 0.36076 0.32024 -0.42313
 H568 H 0.39000 0.32732 -0.51967
 H569 H 0.42292 0.36141 -0.47760
 H570 H 0.42691 0.38826 -0.33825
 C571 C -0.10288 0.88648 -0.21091
 C572 C -0.10487 0.87125 -0.29232
 C573 C -0.12389 0.85196 -0.31703
 C574 C -0.14082 0.84818 -0.26021
 C575 C -0.13889 0.86373 -0.17899
 C576 C -0.11988 0.88307 -0.15434
 C577 C -0.11841 0.89882 -0.07306
 C578 C -0.13523 0.89557 -0.01787
 C579 C -0.15373 0.87630 -0.04175
 C580 C -0.15563 0.86050 -0.12131
 C581 C -0.12550 0.83683 -0.39872
 C582 C -0.10881 0.84071 -0.45436
 C583 C -0.09027 0.85985 -0.43035
 C584 C -0.08822 0.87493 -0.35026
 C585 C -0.16029 0.82879 -0.28582
 C586 C -0.17635 0.81279 -0.30870
 C587 C -0.08340 0.90563 -0.18470
 C588 C -0.06765 0.92177 -0.15924
 H589 H -0.10430 0.91381 -0.05122
 H590 H -0.13383 0.90778 0.04402
 H591 H -0.16668 0.87355 0.00161
 H592 H -0.17036 0.84587 -0.13711
 H593 H -0.13964 0.82194 -0.42053
 H594 H -0.11032 0.82903 -0.51663
 H595 H -0.07742 0.86304 -0.47402
 H596 H -0.07350 0.88956 -0.33436
 C597 C 0.40002 0.61586 0.22659
 C598 C 0.39014 0.60370 0.30129
 C599 C 0.37066 0.62145 0.32500
 C600 C 0.36116 0.65114 0.27366
 C601 C 0.37112 0.66347 0.19921
 C602 C 0.39070 0.64605 0.17598
 C603 C 0.40049 0.65923 0.10172
 C604 C 0.39110 0.68848 0.05151
 C605 C 0.37182 0.70514 0.07373
 C606 C 0.36189 0.69294 0.14670
 C607 C 0.36105 0.60875 0.39990
 C608 C 0.37041 0.57935 0.44989
 C609 C 0.38946 0.56202 0.42668
 C610 C 0.39927 0.57391 0.35325
 C611 C 0.34132 0.66944 0.29798
 C612 C 0.32500 0.68496 0.31897
 C613 C 0.41915 0.59597 0.19906
 C614 C 0.43454 0.57933 0.17184
 H615 H 0.41545 0.64707 0.08154
 H616 H 0.39874 0.69802 -0.00528
 H617 H 0.36451 0.72761 0.03419
 H618 H 0.34691 0.70680 0.16134
 H619 H 0.34627 0.62147 0.42076
 H620 H 0.36290 0.57016 0.50719
 H621 H 0.39670 0.53931 0.46588
 H622 H 0.41410 0.55964 0.33782
 C623 C -0.10063 1.11702 0.22695
 C624 C -0.11035 1.14659 0.17600
 C625 C -0.13011 1.16326 0.19928
 C626 C -0.13986 1.15073 0.27401
 C627 C -0.12983 1.12208 0.32623
 C628 C -0.11017 1.10509 0.30248
 C629 C -0.10051 1.07628 0.35524
 C630 C -0.10996 1.06469 0.42961
 C631 C -0.12916 1.08134 0.45294
 C632 C -0.13906 1.10970 0.40207
 C633 C -0.13971 1.19219 0.14659
 C634 C -0.12996 1.20465 0.07343
 C635 C -0.11053 1.18869 0.05106
 C636 C -0.10079 1.15990 0.10138
 C637 C -0.16015 1.16740 0.29739
 C638 C -0.17693 1.18121 0.31793
 C639 C -0.08145 1.09743 0.19904
 C640 C -0.06603 1.08086 0.17184
 H641 H -0.08554 1.06257 0.33976
 H642 H -0.10231 1.04276 0.46943
 H643 H -0.13638 1.07242 0.51100
 H644 H -0.15395 1.12190 0.42305
 H645 H -0.15482 1.20549 0.16135
 H646 H -0.13754 1.22678 0.03384
 H647 H -0.10304 1.19839 -0.00593
 H648 H -0.08573 1.14825 0.08108
 C649 C 0.60163 0.38113 0.20498
 C650 C 0.60318 0.33914 0.22262
 C651 C 0.62284 0.32239 0.24701
 C652 C 0.64079 0.34778 0.25362
 C653 C 0.63917 0.38989 0.23695
 C654 C 0.61953 0.40662 0.21243
 C655 C 0.61833 0.44879 0.19554
 C656 C 0.63601 0.47367 0.20263
 C657 C 0.65518 0.45735 0.22713
 C658 C 0.65684 0.41596 0.24410
 C659 C 0.62403 0.28030 0.26430
 C660 C 0.60629 0.25548 0.25778
 C661 C 0.58708 0.27188 0.23389
 C662 C 0.58545 0.31321 0.21636
 C663 C 0.66086 0.33075 0.27869
 C664 C 0.67750 0.31705 0.30095
 C665 C 0.58186 0.39814 0.17659
 C666 C 0.56603 0.41367 0.15068
 H667 H 0.60374 0.46302 0.17676
 H668 H 0.63483 0.50581 0.18923
 H669 H 0.66885 0.47684 0.23287
 H670 H 0.67211 0.40468 0.26274
 H671 H 0.63863 0.26614 0.28307
 H672 H 0.60747 0.22336 0.27138
 H673 H 0.57335 0.25248 0.22898
 H674 H 0.57017 0.32460 0.19815
 C675 C 0.10095 0.88103 0.20677
 C676 C 0.10183 0.83887 0.22349
 C677 C 0.12114 0.82089 0.24840
 C678 C 0.13945 0.84521 0.25630
 C679 C 0.13853 0.88747 0.24030
 C680 C 0.11922 0.90544 0.21540
 C681 C 0.11869 0.94774 0.19939
 C682 C 0.13673 0.97157 0.20767
 C683 C 0.15559 0.95402 0.23238
 C684 C 0.15658 0.91247 0.24856
 C685 C 0.12162 0.77866 0.26491
 C686 C 0.10355 0.75490 0.25700
 C687 C 0.08467 0.77249 0.23251
 C688 C 0.08373 0.81398 0.21583
 C689 C 0.15914 0.82686 0.28216
 C690 C 0.17536 0.81169 0.30519
 C691 C 0.08149 0.89926 0.17826
 C692 C 0.06582 0.91540 0.15244
 H693 H 0.10438 0.96287 0.18038
 H694 H 0.13606 1.00384 0.19496
 H695 H 0.16954 0.97269 0.23895
 H696 H 0.17162 0.90020 0.26746
 H697 H 0.13593 0.76359 0.28416
 H698 H 0.10419 0.72265 0.26997
 H699 H 0.07067 0.75390 0.22651
 H700 H 0.06868 0.82631 0.19713
   
