data_POSCAR
  _audit_creation_date              2014-09-24
  _audit_creation_method            'ToBaCCo'
  _symmetry_space_group_name_H-M    'P1'
  _symmetry_Int_Tables_number       1
  _symmetry_cell_setting            triclinic
  loop_
  _symmetry_equiv_pos_as_xyz
 x,y,z
_cell_length_a 62.9027
_cell_length_b 62.5767
_cell_length_c 18.9824
_cell_angle_alpha 89.999100
_cell_angle_beta 90.008200
_cell_angle_gamma 119.706800
loop_
  _atom_site_label
  _atom_site_type_symbol
  _atom_site_fract_x
  _atom_site_fract_y
  _atom_site_fract_z
C1 C 0.22292 0.49220 0.46168
 C2 C 0.22340 0.49319 0.53690
 C3 C 0.24245 0.49229 0.57307
 C4 C 0.26086 0.48988 0.53802
 C5 C 0.26037 0.48901 0.46321
 C6 C 0.24143 0.48987 0.42662
 H7 H 0.24175 0.48958 0.36951
 H8 H 0.24270 0.49309 0.63015
 C9 C 0.52859 -0.25664 0.46298
 C10 C 0.52938 -0.25481 0.53797
 C11 C 0.52903 -0.23485 0.57063
 C12 C 0.52693 -0.21684 0.53176
 C13 C 0.52640 -0.21852 0.45710
 C14 C 0.52685 -0.23834 0.42421
 H15 H 0.52759 -0.23835 0.36716
 H16 H 0.52847 -0.23454 0.62770
 C17 C 1.27319 0.76753 0.46597
 C18 C 1.27185 0.76636 0.54104
 C19 C 1.25135 0.74716 0.57400
 C20 C 1.23257 0.72822 0.53505
 C21 C 1.23507 0.72766 0.46103
 C22 C 1.25510 0.74738 0.42745
 H23 H 1.25576 0.74735 0.37045
 H24 H 1.25000 0.74700 0.63096
 C25 C 0.77345 0.51177 0.46019
 C26 C 0.77685 0.51526 0.53436
 C27 C 0.75814 0.51562 0.57425
 C28 C 0.73674 0.51330 0.54318
 C29 C 0.73456 0.51176 0.46840
 C30 C 0.75279 0.51067 0.42854
 H31 H 0.75090 0.50893 0.37173
 H32 H 0.76020 0.51767 0.63084
 C33 C 0.47728 0.25868 0.47221
 C34 C 0.47600 0.25664 0.54681
 C35 C 0.47764 0.23718 0.57868
 C36 C 0.47895 0.21885 0.53865
 C37 C 0.48054 0.22141 0.46390
 C38 C 0.47938 0.24102 0.43218
 H39 H 0.48144 0.24329 0.37549
 H40 H 0.47543 0.23503 0.63531
 C41 C 0.73044 0.23177 0.46694
 C42 C 0.73401 0.22778 0.53812
 C43 C 0.75498 0.24541 0.57347
 C44 C 0.77246 0.26731 0.54028
 C45 C 0.76870 0.27101 0.46826
 C46 C 0.74761 0.25339 0.43319
 H47 H 0.74517 0.25592 0.37783
 H48 H 0.75682 0.24254 0.62893
 N49 N 0.97502 0.52892 0.07946
 N50 N 0.95653 0.53309 0.08663
 N51 N 1.02556 0.53674 0.12907
 N52 N 1.04460 0.54754 0.17187
 N53 N 1.02642 0.55237 0.08153
 N54 N 1.04595 0.57416 0.09064
 N55 N 0.97390 0.51318 0.12704
 N56 N 0.95455 0.50615 0.16778
 C57 C 0.94393 0.51881 0.14209
 C58 C 1.05714 0.57094 0.14725
 N59 N 1.02222 0.47459 0.07465
 N60 N 1.04056 0.47016 0.08175
 N61 N 0.97128 0.46596 0.12298
 N62 N 0.95306 0.45395 0.16766
 N63 N 0.97081 0.45116 0.07319
 N64 N 0.95246 0.42864 0.08314
 N65 N 1.02282 0.48938 0.12471
 N66 N 1.04158 0.49542 0.16705
 Mn67 Mn 0.99839 0.50131 0.12689
 C68 C 1.05246 0.48323 0.13980
 C69 C 0.94143 0.43069 0.14199
 N70 N 1.02744 0.55400 -0.06956
 N71 N 1.04682 0.57608 -0.07676
 N72 N 0.97551 0.51609 -0.12255
 N73 N 0.95771 0.51127 -0.16759
 N74 N 0.97579 0.53049 -0.07188
 N75 N 0.95796 0.53562 -0.08054
 N76 N 1.02669 0.53932 -0.12003
 N77 N 1.04528 0.55102 -0.16353
 Mn78 Mn 1.00117 0.54171 0.00495
 C79 C 1.05772 0.57391 -0.13577
 C80 C 0.94689 0.52353 -0.14061
 N81 N 0.97148 0.45289 -0.07915
 N82 N 0.95263 0.43089 -0.09240
 N83 N 1.02425 0.49220 -0.12376
 N84 N 1.04210 0.49735 -0.16897
 N85 N 1.02274 0.47595 -0.07734
 N86 N 1.03929 0.46933 -0.09030
 N87 N 0.97283 0.46889 -0.12627
 N88 N 0.95494 0.45830 -0.17245
 Mn89 Mn 0.99677 0.46336 -0.00212
 Mn90 Mn 0.99985 0.50412 -0.12388
 Cl91 Cl 0.99904 0.50261 0.00148
 C92 C 0.94244 0.43462 -0.15072
 C93 C 1.05134 0.48299 -0.14727
 N94 N 0.46911 0.44819 0.07844
 N95 N 0.46328 0.42516 0.09038
 N96 N 0.46248 0.49230 0.12187
 N97 N 0.45161 0.49991 0.16676
 N98 N 0.44674 0.47735 0.07505
 N99 N 0.42467 0.47410 0.08757
 N100 N 0.48490 0.46290 0.12552
 N101 N 0.49023 0.45021 0.17078
 C102 C 0.47659 0.42667 0.14811
 C103 C 0.42805 0.48845 0.14463
 N104 N 0.52463 0.54930 0.06649
 N105 N 0.53071 0.57263 0.07406
 N106 N 0.53260 0.50693 0.12126
 N107 N 0.54427 0.50061 0.16729
 N108 N 0.54740 0.52017 0.07028
 N109 N 0.56938 0.52283 0.07947
 N110 N 0.51005 0.53594 0.11767
 N111 N 0.50607 0.54983 0.16195
 Mn112 Mn 0.49750 0.49949 0.12246
 C113 C 0.51896 0.57265 0.13384
 C114 C 0.56717 0.51056 0.14019
 N115 N 0.44591 0.47530 -0.07767
 N116 N 0.42407 0.47280 -0.08968
 N117 N 0.48389 0.45944 -0.12200
 N118 N 0.49033 0.44617 -0.16111
 N119 N 0.46822 0.44582 -0.07322
 N120 N 0.46327 0.42274 -0.07854
 N121 N 0.46130 0.48852 -0.12748
 N122 N 0.45053 0.49548 -0.17429
 Mn123 Mn 0.45717 0.46143 0.00069
 C124 C 0.42735 0.48564 -0.15021
 C125 C 0.47724 0.42332 -0.13370
 N126 N 0.54659 0.51809 -0.08089
 N127 N 0.56847 0.52061 -0.09155
 N128 N 0.50825 0.53200 -0.13218
 N129 N 0.50200 0.54400 -0.17705
 N130 N 0.52375 0.54708 -0.08528
 N131 N 0.52856 0.56986 -0.09723
 N132 N 0.53090 0.50300 -0.12732
 N133 N 0.54157 0.49480 -0.17079
 Mn134 Mn 0.53586 0.53394 -0.00733
 Mn135 Mn 0.49608 0.49570 -0.12788
 Cl136 Cl 0.49665 0.49765 -0.00289
 C137 C 0.56499 0.50586 -0.14777
 C138 C 0.51482 0.56761 -0.15481
 N139 N 0.45018 -0.02754 0.08186
 N140 N 0.42880 -0.04765 0.09003
 N141 N 0.48894 0.02588 0.12515
 N142 N 0.49523 0.04525 0.16571
 N143 N 0.47329 0.02422 0.07679
 N144 N 0.46844 0.04237 0.08321
 N145 N 0.46554 -0.02587 0.13119
 N146 N 0.45489 -0.04471 0.17497
 C147 C 0.43195 -0.05811 0.14853
 C148 C 0.48226 0.05536 0.13895
 N149 N 0.55077 0.02873 0.07513
 N150 N 0.57314 0.04728 0.08469
 N151 N 0.51260 -0.02321 0.12962
 N152 N 0.50630 -0.04186 0.17306
 N153 N 0.52773 -0.02278 0.08122
 N154 N 0.53238 -0.04097 0.09102
 N155 N 0.53595 0.02860 0.12405
 N156 N 0.54779 0.04725 0.16775
 Mn157 Mn 0.50078 0.00137 0.12842
 C158 C 0.57096 0.05878 0.14236
 C159 C 0.51888 -0.05268 0.14858
 N160 N 0.47218 0.02216 -0.07428
 N161 N 0.46784 0.04056 -0.08290
 N162 N 0.46361 -0.02959 -0.11777
 N163 N 0.45208 -0.04909 -0.15870
 N164 N 0.44887 -0.02954 -0.06897
 N165 N 0.42688 -0.04900 -0.07538
 N166 N 0.48653 0.02207 -0.12432
 N167 N 0.49214 0.04030 -0.16893
 Mn168 Mn 0.46088 -0.00267 0.00387
 C169 C 0.48031 0.05164 -0.14232
 C170 C 0.42916 -0.06105 -0.13155
 N171 N 0.52646 -0.02496 -0.07058
 N172 N 0.53265 -0.04206 -0.07987
 N173 N 0.53362 0.02490 -0.12518
 N174 N 0.54419 0.04258 -0.17228
 N175 N 0.54946 0.02665 -0.07723
 N176 N 0.57135 0.04555 -0.09088
 N177 N 0.51077 -0.02667 -0.11897
 N178 N 0.50588 -0.04500 -0.16250
 Mn179 Mn 0.53889 0.00195 0.00215
 Mn180 Mn 0.49861 -0.00236 -0.12240
 Cl181 Cl 0.49982 -0.00041 0.00301
 C182 C 0.51959 -0.05450 -0.13726
 C183 C 0.56771 0.05536 -0.15030
 C184 C 1.19861 0.51257 0.43916
 C185 C 1.18032 0.51412 0.40167
 C186 C 1.16893 0.49866 0.34424
 C187 C 1.17671 0.48218 0.32270
 C188 C 1.19506 0.48060 0.36009
 C189 C 1.20567 0.49514 0.42065
 N190 N 1.14893 0.49946 0.31077
 N191 N 1.13725 0.48562 0.25913
 C192 C 1.11664 0.48599 0.22824
 C193 C 1.10483 0.47074 0.17055
 C194 C 1.08406 0.46996 0.14114
 C195 C 1.07472 0.48439 0.16944
 C196 C 1.08674 0.49987 0.22690
 C197 C 1.10754 0.50070 0.25604
 H198 H 1.20727 0.52515 0.48262
 H199 H 1.17475 0.52719 0.41808
 H200 H 1.16824 0.47011 0.27812
 H201 H 1.19990 0.46698 0.34377
 H202 H 1.11162 0.45927 0.14874
 H203 H 1.07517 0.45789 0.09680
 H204 H 1.08002 0.51128 0.24961
 H205 H 1.11630 0.51262 0.30071
 C206 C 0.54503 0.71487 0.45020
 C207 C 0.54526 0.69527 0.41573
 C208 C 0.53165 0.68543 0.35431
 C209 C 0.51782 0.69552 0.32716
 C210 C 0.51701 0.71470 0.36256
 C211 C 0.53016 0.72440 0.42589
 N212 N 0.53139 0.66464 0.32204
 N213 N 0.52555 0.65903 0.25776
 C214 C 0.52409 0.63739 0.22747
 C215 C 0.52686 0.63631 0.15460
 C216 C 0.52555 0.61534 0.12399
 C217 C 0.52061 0.59488 0.16578
 C218 C 0.51733 0.59580 0.23863
 C219 C 0.51936 0.61701 0.26942
 H220 H 0.55694 0.72279 0.49520
 H221 H 0.55633 0.68789 0.43653
 H222 H 0.50698 0.68803 0.27990
 H223 H 0.50507 0.72104 0.34175
 H224 H 0.53037 0.65185 0.12169
 H225 H 0.52801 0.61497 0.06761
 H226 H 0.51353 0.58024 0.27190
 H227 H 0.51687 0.61737 0.32576
 C228 C 0.29961 -0.18752 0.45603
 C229 C 0.31844 -0.16693 0.42304
 C230 C 0.32879 -0.16942 0.36085
 C231 C 0.31994 -0.19288 0.33123
 C232 C 0.30143 -0.21369 0.36519
 C233 C 0.29136 -0.21145 0.42949
 N234 N 0.34848 -0.14785 0.32975
 N235 N 0.35470 -0.14695 0.26559
 C236 C 0.37476 -0.12513 0.23673
 C237 C 0.37525 -0.12062 0.16441
 C238 C 0.39389 -0.09875 0.13567
 C239 C 0.41275 -0.08144 0.17871
 C240 C 0.41276 -0.08638 0.25080
 C241 C 0.39372 -0.10793 0.27984
 H242 H 0.29123 -0.18449 0.50185
 H243 H 0.32476 -0.14887 0.44555
 H244 H 0.32777 -0.19519 0.28302
 H245 H 0.29594 -0.23155 0.34252
 H246 H 0.36080 -0.13377 0.13063
 H247 H 0.39362 -0.09540 0.07977
 H248 H 0.42713 -0.07330 0.28493
 H249 H 0.39380 -0.11119 0.33583
 C250 C 0.79524 0.48845 0.43161
 C251 C 0.81304 0.48607 0.39396
 C252 C 0.82567 0.50220 0.33865
 C253 C 0.81956 0.52020 0.31929
 C254 C 0.80178 0.52262 0.35699
 C255 C 0.79004 0.50725 0.41481
 N256 N 0.84551 0.50089 0.30604
 N257 N 0.85811 0.51535 0.25655
 C258 C 0.87878 0.51494 0.22648
 C259 C 0.89126 0.53086 0.17068
 C260 C 0.91230 0.53192 0.14262
 C261 C 0.92127 0.51711 0.17039
 C262 C 0.90855 0.50087 0.22580
 C263 C 0.88744 0.49975 0.25363
 H264 H 0.78614 0.47622 0.47549
 H265 H 0.81752 0.47210 0.40921
 H266 H 0.82902 0.53284 0.27656
 H267 H 0.79795 0.53716 0.34309
 H268 H 0.88481 0.54269 0.14945
 H269 H 0.92170 0.54456 0.09977
 H270 H 0.91500 0.48917 0.24800
 H271 H 0.87814 0.48733 0.29695
 C272 C 0.49768 0.30438 0.45478
 C273 C 0.49953 0.32499 0.42056
 C274 C 0.48362 0.32219 0.36534
 C275 C 0.46582 0.29839 0.34421
 C276 C 0.46389 0.27775 0.37864
 C277 C 0.47961 0.28059 0.43478
 N278 N 0.48574 0.34373 0.33224
 N279 N 0.47235 0.34243 0.28033
 C280 C 0.47412 0.36387 0.24764
 C281 C 0.45937 0.36090 0.18921
 C282 C 0.46030 0.38135 0.15658
 C283 C 0.47600 0.40517 0.18221
 C284 C 0.49090 0.40817 0.24075
 C285 C 0.49001 0.38767 0.27323
 H286 H 0.51027 0.30696 0.49717
 H287 H 0.51337 0.34321 0.43712
 H288 H 0.45332 0.29575 0.30159
 H289 H 0.44990 0.25957 0.36225
 H290 H 0.44706 0.34266 0.16906
 H291 H 0.44862 0.37849 0.11153
 H292 H 0.50319 0.42632 0.26150
 H293 H 0.50158 0.39042 0.31844
 C294 C 0.69142 0.21684 0.39955
 C295 C 0.67175 0.19840 0.36192
 C296 C 0.67083 0.17600 0.34764
 C297 C 0.68969 0.17206 0.37233
 C298 C 0.70904 0.19024 0.41128
 C299 C 0.71002 0.21273 0.42511
 N300 N 0.65046 0.15734 0.30934
 N301 N 0.65163 0.13979 0.27923
 C302 C 0.63120 0.12034 0.24328
 C303 C 0.63535 0.10550 0.19660
 C304 C 0.61577 0.08583 0.16237
 C305 C 0.59163 0.08035 0.17581
 C306 C 0.58744 0.09523 0.22276
 C307 C 0.60712 0.11526 0.25579
 H308 H 0.69193 0.23411 0.40999
 H309 H 0.65729 0.20162 0.34339
 H310 H 0.68925 0.15481 0.36247
 H311 H 0.72329 0.18683 0.43065
 H312 H 0.65383 0.10919 0.18682
 H313 H 0.61947 0.07457 0.12667
 H314 H 0.56898 0.09137 0.23386
 H315 H 0.60350 0.12640 0.29216
 C316 C 0.48896 0.20070 -0.36009
 C317 C 0.48823 0.18043 -0.32665
 C318 C 0.47619 0.15716 -0.35856
 C319 C 0.46432 0.15425 -0.42284
 C320 C 0.46450 0.17431 -0.45551
 C321 C 0.47760 0.19814 -0.42619
 N322 N 0.47611 0.13629 -0.32754
 N323 N 0.48073 0.13556 -0.26263
 C324 C 0.48122 0.11476 -0.23320
 C325 C 0.47731 0.11020 -0.16089
 C326 C 0.47687 0.08953 -0.13129
 C327 C 0.48109 0.07356 -0.17348
 C328 C 0.48573 0.07855 -0.24564
 C329 C 0.48550 0.09884 -0.27553
 H330 H 0.49941 0.21856 -0.33538
 H331 H 0.49763 0.18307 -0.27688
 H332 H 0.45456 0.13627 -0.44726
 H333 H 0.45388 0.17091 -0.50317
 H334 H 0.47411 0.12241 -0.12774
 H335 H 0.47342 0.08613 -0.07537
 H336 H 0.48905 0.06648 -0.27912
 H337 H 0.48882 0.10221 -0.33147
 C338 C 0.72398 0.52738 -0.35240
 C339 C 0.70560 0.52671 -0.30965
 C340 C 0.68098 0.51068 -0.32505
 C341 C 0.67484 0.49479 -0.38312
 C342 C 0.69318 0.49539 -0.42595
 C343 C 0.71807 0.51210 -0.41232
 N344 N 0.66262 0.51144 -0.28237
 N345 N 0.63992 0.49782 -0.29506
 C346 C 0.62145 0.49909 -0.25427
 C347 C 0.59697 0.48442 -0.27398
 C348 C 0.57856 0.48631 -0.23838
 C349 C 0.58440 0.50292 -0.18220
 C350 C 0.60893 0.51717 -0.16111
 C351 C 0.62737 0.51533 -0.19701
 H352 H 0.74278 0.54077 -0.34020
 H353 H 0.71054 0.53909 -0.26510
 H354 H 0.65590 0.48199 -0.39562
 H355 H 0.68781 0.48244 -0.46914
 H356 H 0.59221 0.47184 -0.31796
 H357 H 0.55978 0.47500 -0.25551
 H358 H 0.61391 0.53007 -0.11787
 H359 H 0.64621 0.52683 -0.18075
 C360 C 0.80388 0.27784 -0.36819
 C361 C 0.82331 0.29533 -0.32779
 C362 C 0.83170 0.32040 -0.33715
 C363 C 0.82029 0.32787 -0.38723
 C364 C 0.80084 0.31046 -0.42750
 C365 C 0.79247 0.28511 -0.41959
 N366 N 0.85171 0.33791 -0.29524
 N367 N 0.86062 0.36094 -0.30402
 C368 C 0.88066 0.37890 -0.26327
 C369 C 0.89043 0.40372 -0.28063
 C370 C 0.91039 0.42181 -0.24352
 C371 C 0.92082 0.41534 -0.18788
 C372 C 0.91075 0.39042 -0.16955
 C373 C 0.89083 0.37227 -0.20718
 H374 H 0.79836 0.25863 -0.36057
 H375 H 0.83197 0.28933 -0.28934
 H376 H 0.82615 0.34717 -0.39464
 H377 H 0.79172 0.31697 -0.46251
 H378 H 0.88269 0.40901 -0.32362
 H379 H 0.91771 0.44087 -0.25862
 H380 H 0.91846 0.38496 -0.12687
 H381 H 0.88349 0.35316 -0.19271
 C382 C 0.50775 -0.19097 -0.45526
 C383 C 0.50527 -0.17285 -0.41951
 C384 C 0.51894 -0.16196 -0.35890
 C385 C 0.53510 -0.16959 -0.33364
 C386 C 0.53765 -0.18774 -0.36939
 C387 C 0.52436 -0.19844 -0.43178
 N388 N 0.51607 -0.14320 -0.32441
 N389 N 0.52766 -0.13255 -0.26854
 C390 C 0.52480 -0.11358 -0.23531
 C391 C 0.53826 -0.10237 -0.17439
 C392 C 0.53637 -0.08332 -0.14189
 C393 C 0.52094 -0.07519 -0.17005
 C394 C 0.50720 -0.08668 -0.23069
 C395 C 0.50910 -0.10571 -0.26312
 H396 H 0.49583 -0.19981 -0.49967
 H397 H 0.49242 -0.16743 -0.43878
 H398 H 0.54588 -0.16142 -0.28668
 H399 H 0.55074 -0.19271 -0.34940
 H400 H 0.55039 -0.10827 -0.15243
 H401 H 0.54715 -0.07483 -0.09513
 H402 H 0.49513 -0.08082 -0.25345
 H403 H 0.49846 -0.11411 -0.31014
 C404 C 0.27201 0.47386 -0.35884
 C405 C 0.28948 0.47217 -0.31748
 C406 C 0.31415 0.48490 -0.33640
 C407 C 0.32127 0.49948 -0.39751
 C408 C 0.30383 0.50116 -0.43912
 C409 C 0.27881 0.48815 -0.42100
 N410 N 0.33160 0.48276 -0.29283
 N411 N 0.35435 0.49436 -0.30688
 C412 C 0.37214 0.49235 -0.26477
 C413 C 0.39664 0.50544 -0.28553
 C414 C 0.41452 0.50344 -0.24750
 C415 C 0.40820 0.48826 -0.18766
 C416 C 0.38363 0.47541 -0.16591
 C417 C 0.36567 0.47739 -0.20433
 H418 H 0.25299 0.46325 -0.34316
 H419 H 0.28375 0.46083 -0.27056
 H420 H 0.34034 0.50981 -0.41279
 H421 H 0.31021 0.51358 -0.48356
 H422 H 0.40183 0.51705 -0.33187
 H423 H 0.43332 0.51367 -0.26539
 H424 H 0.37829 0.46360 -0.11998
 H425 H 0.34679 0.46712 -0.18725
 C426 C 1.21196 0.69838 -0.36566
 C427 C 1.19085 0.68129 -0.33010
 C428 C 1.16765 0.67523 -0.35626
 C429 C 1.16581 0.68672 -0.41724
 C430 C 1.18687 0.70433 -0.45156
 C431 C 1.21017 0.70992 -0.42715
 N432 N 1.14572 0.65687 -0.32338
 N433 N 1.14490 0.65125 -0.25864
 C434 C 1.12297 0.63192 -0.22825
 C435 C 1.11892 0.63199 -0.15574
 C436 C 1.09742 0.61333 -0.12540
 C437 C 1.08013 0.59397 -0.16712
 C438 C 1.08447 0.59369 -0.23953
 C439 C 1.10557 0.61266 -0.27005
 H440 H 1.22968 0.70237 -0.34567
 H441 H 1.19261 0.67240 -0.28330
 H442 H 1.14800 0.68222 -0.43769
 H443 H 1.18494 0.71351 -0.49746
 H444 H 1.13227 0.64669 -0.12297
 H445 H 1.09449 0.61380 -0.06931
 H446 H 1.07139 0.57893 -0.27271
 H447 H 1.10849 0.61212 -0.32608
 C448 C 0.82171 0.53245 -0.46145
 C449 C 0.84255 0.53469 -0.42828
 C450 C 0.84079 0.52413 -0.36222
 C451 C 0.81788 0.51125 -0.32929
 C452 C 0.79691 0.50843 -0.36311
 C453 C 0.79832 0.51859 -0.43064
 N454 N 0.86232 0.52598 -0.33077
 N455 N 0.86372 0.52279 -0.26509
 C456 C 0.88488 0.52342 -0.23492
 C457 C 0.90082 0.51895 -0.27612
 C458 C 0.92089 0.51879 -0.24514
 C459 C 0.92565 0.52366 -0.17293
 C460 C 0.90985 0.52840 -0.13197
 C461 C 0.88940 0.52791 -0.16270
 H462 H 0.82415 0.54210 -0.51067
 H463 H 0.86019 0.54498 -0.45377
 H464 H 0.81609 0.50271 -0.27839
 H465 H 0.77946 0.49725 -0.33737
 H466 H 0.89752 0.51517 -0.33191
 H467 H 0.93282 0.51509 -0.27777
 H468 H 0.91308 0.53204 -0.07607
 H469 H 0.87715 0.53124 -0.13035
 C470 C 0.45480 0.27992 -0.42858
 C471 C 0.45182 0.29676 -0.38750
 C472 C 0.46652 0.30745 -0.32830
 C473 C 0.48341 0.30010 -0.30813
 C474 C 0.48586 0.28261 -0.34781
 C475 C 0.47223 0.27294 -0.41018
 N476 N 0.46460 0.32631 -0.29114
 N477 N 0.48273 0.34317 -0.25789
 C478 C 0.48113 0.36242 -0.22195
 C479 C 0.50222 0.38545 -0.21583
 C480 C 0.50091 0.40525 -0.18659
 C481 C 0.47862 0.40199 -0.16052
 C482 C 0.45767 0.37861 -0.16351
 C483 C 0.45882 0.35899 -0.19517
 H484 H 0.44315 0.27205 -0.47424
 H485 H 0.43853 0.30208 -0.40307
 H486 H 0.49477 0.30800 -0.26199
 H487 H 0.49942 0.27771 -0.33177
 H488 H 0.51951 0.38829 -0.23622
 H489 H 0.51731 0.42313 -0.18446
 H490 H 0.44030 0.37577 -0.14380
 H491 H 0.44236 0.34123 -0.19901
 C492 C 0.72265 0.19156 -0.38273
 C493 C 0.70540 0.17157 -0.34329
 C494 C 0.68084 0.16569 -0.34259
 C495 C 0.67370 0.18019 -0.38165
 C496 C 0.69096 0.20028 -0.42048
 C497 C 0.71556 0.20603 -0.42195
 N498 N 0.66354 0.14515 -0.30162
 N499 N 0.64071 0.13768 -0.30466
 C500 C 0.62297 0.11734 -0.26410
 C501 C 0.59817 0.10832 -0.27834
 C502 C 0.58026 0.08824 -0.24103
 C503 C 0.58689 0.07700 -0.18795
 C504 C 0.61180 0.08634 -0.17263
 C505 C 0.62977 0.10630 -0.21077
 H506 H 0.74155 0.19572 -0.38277
 H507 H 0.71115 0.16059 -0.31332
 H508 H 0.65487 0.17620 -0.38148
 H509 H 0.68515 0.21156 -0.44860
 H510 H 0.59272 0.11675 -0.31911
 H511 H 0.56119 0.08152 -0.25373
 H512 H 0.61739 0.07799 -0.13199
 H513 H 0.64887 0.11308 -0.19860
 C514 C 1.21037 0.50957 -0.36541
 C515 C 1.19188 0.51025 -0.32647
 C516 C 1.16730 0.49377 -0.34111
 C517 C 1.16125 0.47664 -0.39588
 C518 C 1.17970 0.47644 -0.43650
 C519 C 1.20454 0.49308 -0.42221
 N520 N 1.14881 0.49526 -0.30119
 N521 N 1.12767 0.47668 -0.29202
 C522 C 1.10898 0.47870 -0.25477
 C523 C 1.09071 0.45811 -0.21966
 C524 C 1.07224 0.45966 -0.18301
 C525 C 1.07136 0.48164 -0.18327
 C526 C 1.08946 0.50218 -0.21943
 C527 C 1.10836 0.50084 -0.25412
 H528 H 1.22925 0.52274 -0.35312
 H529 H 1.19672 0.52359 -0.28447
 H530 H 1.14229 0.46379 -0.40808
 H531 H 1.17454 0.46301 -0.47839
 H532 H 1.09096 0.44093 -0.22009
 H533 H 1.05834 0.44355 -0.15584
 H534 H 1.08910 0.51931 -0.22027
 H535 H 1.12220 0.51689 -0.28160
 C536 C 0.54546 0.73095 -0.36253
 C537 C 0.54467 0.71224 -0.32044
 C538 C 0.52623 0.68782 -0.33011
 C539 C 0.50805 0.68235 -0.38127
 C540 C 0.50873 0.70106 -0.42306
 C541 C 0.52777 0.72544 -0.41514
 N542 N 0.52677 0.66889 -0.28902
 N543 N 0.51166 0.64622 -0.29954
 C544 C 0.51228 0.62700 -0.26031
 C545 C 0.49619 0.60259 -0.27921
 C546 C 0.49693 0.58331 -0.24444
 C547 C 0.51375 0.58816 -0.18964
 C548 C 0.52961 0.61267 -0.16965
 C549 C 0.52896 0.63199 -0.20491
 H550 H 0.56020 0.74966 -0.35529
 H551 H 0.55873 0.71670 -0.28111
 H552 H 0.49349 0.66363 -0.38944
 H553 H 0.49468 0.69650 -0.46251
 H554 H 0.48326 0.59852 -0.32175
 H555 H 0.48439 0.56461 -0.26075
 H556 H 0.54271 0.61690 -0.12751
 H557 H 0.54156 0.65075 -0.18929
 C558 C 0.31628 -0.21135 -0.42535
 C559 C 0.33578 -0.19322 -0.38665
 C560 C 0.33157 -0.17994 -0.33454
 C561 C 0.30744 -0.18552 -0.31992
 C562 C 0.28794 -0.20354 -0.35887
 C563 C 0.29227 -0.21618 -0.41311
 N564 N 0.35210 -0.16005 -0.30016
 N565 N 0.34952 -0.14767 -0.25109
 C566 C 0.36997 -0.12692 -0.21932
 C567 C 0.36583 -0.11510 -0.16283
 C568 C 0.38516 -0.09390 -0.13334
 C569 C 0.40897 -0.08409 -0.16050
 C570 C 0.41319 -0.09619 -0.21650
 C571 C 0.39386 -0.11749 -0.24564
 H572 H 0.31998 -0.22112 -0.46630
 H573 H 0.35428 -0.18913 -0.39828
 H574 H 0.30372 -0.17549 -0.27988
 H575 H 0.26958 -0.20697 -0.34854
 H576 H 0.34750 -0.12216 -0.14224
 H577 H 0.38140 -0.08498 -0.09011
 H578 H 0.43138 -0.08908 -0.23826
 H579 H 0.39750 -0.12627 -0.28947
 C580 C 0.54967 -0.17494 0.41565
 C581 C 0.55132 -0.15540 0.37582
 C582 C 0.53180 -0.15875 0.33293
 C583 C 0.51101 -0.18224 0.32744
 C584 C 0.50966 -0.20198 0.36567
 C585 C 0.52868 -0.19826 0.41159
 N586 N 0.53323 -0.13795 0.29716
 N587 N 0.51409 -0.13721 0.27954
 C588 C 0.51539 -0.11640 0.24418
 C589 C 0.49556 -0.11222 0.24919
 C590 C 0.49676 -0.09137 0.21837
 C591 C 0.51758 -0.07480 0.18015
 C592 C 0.53717 -0.07940 0.17315
 C593 C 0.53624 -0.09990 0.20577
 H594 H 0.56461 -0.17184 0.45034
 H595 H 0.56747 -0.13741 0.38019
 H596 H 0.49585 -0.18525 0.29391
 H597 H 0.49341 -0.21992 0.36168
 H598 H 0.47939 -0.12484 0.27853
 H599 H 0.48135 -0.08829 0.22400
 H600 H 0.55340 -0.06686 0.14387
 H601 H 0.55170 -0.10292 0.20082
 C602 C 0.27906 0.46373 0.42388
 C603 C 0.29662 0.46116 0.38525
 C604 C 0.31401 0.48075 0.34469
 C605 C 0.31312 0.50273 0.34109
 C606 C 0.29519 0.50508 0.37818
 C607 C 0.27839 0.48580 0.42099
 N608 N 0.33245 0.47804 0.30803
 N609 N 0.35266 0.49663 0.28996
 C610 C 0.37112 0.49428 0.25228
 C611 C 0.39536 0.51354 0.25521
 C612 C 0.41392 0.51159 0.22043
 C613 C 0.40835 0.49061 0.18031
 C614 C 0.38393 0.47155 0.17580
 C615 C 0.36546 0.47322 0.21228
 H616 H 0.26609 0.44862 0.45626
 H617 H 0.29704 0.44410 0.38818
 H618 H 0.32620 0.51799 0.30943
 H619 H 0.29481 0.52217 0.37515
 H620 H 0.39992 0.52990 0.28561
 H621 H 0.43260 0.52657 0.22441
 H622 H 0.37921 0.45517 0.14529
 H623 H 0.34679 0.45821 0.20879
 C624 C 1.21010 0.68247 0.43540
 C625 C 1.19089 0.66275 0.40006
 C626 C 1.17826 0.66701 0.34620
 C627 C 1.18562 0.69137 0.32637
 C628 C 1.20478 0.71111 0.36187
 C629 C 1.21678 0.70682 0.41784
 N630 N 1.15740 0.64645 0.31490
 N631 N 1.14527 0.64918 0.26549
 C632 C 1.12379 0.62898 0.23551
 C633 C 1.11241 0.63359 0.17892
 C634 C 1.09088 0.61464 0.14994
 C635 C 1.08023 0.59068 0.17750
 C636 C 1.09177 0.58597 0.23400
 C637 C 1.11343 0.60498 0.26280
 H638 H 1.21928 0.67875 0.47794
 H639 H 1.18547 0.64409 0.41573
 H640 H 1.17617 0.69517 0.28482
 H641 H 1.20957 0.72972 0.34757
 H642 H 1.12016 0.65200 0.15754
 H643 H 1.08246 0.61884 0.10633
 H644 H 1.08401 0.56766 0.25610
 H645 H 1.12188 0.60098 0.30674
 C646 C 0.50581 0.20192 0.43192
 C647 C 0.50913 0.18479 0.39326
 C648 C 0.49283 0.17124 0.33928
 C649 C 0.47360 0.17571 0.32240
 C650 C 0.47022 0.19278 0.36119
 C651 C 0.48586 0.20548 0.41763
 N652 N 0.49533 0.15213 0.30549
 N653 N 0.48112 0.13908 0.25615
 C654 C 0.48276 0.11908 0.22505
 C655 C 0.46724 0.10623 0.16890
 C656 C 0.46734 0.08572 0.14005
 C657 C 0.48289 0.07764 0.16745
 C658 C 0.49874 0.09078 0.22313
 C659 C 0.49872 0.11137 0.25168
 H660 H 0.51829 0.21179 0.47460
 H661 H 0.52405 0.18158 0.40662
 H662 H 0.46079 0.16550 0.28077
 H663 H 0.45479 0.19533 0.34915
 H664 H 0.45482 0.11195 0.14805
 H665 H 0.45497 0.07598 0.09704
 H666 H 0.51100 0.08501 0.24508
 H667 H 0.51085 0.12095 0.29524
 C668 C 0.70870 0.53158 0.44709
 C669 C 0.68920 0.53218 0.41371
 C670 C 0.67607 0.51535 0.36031
 C671 C 0.68261 0.49773 0.34063
 C672 C 0.70167 0.49664 0.37545
 C673 C 0.71473 0.51336 0.42972
 N674 N 0.65588 0.51615 0.32811
 N675 N 0.64811 0.50741 0.26697
 C676 C 0.62744 0.50766 0.23623
 C677 C 0.62573 0.50827 0.16283
 C678 C 0.60614 0.50934 0.13155
 C679 C 0.58750 0.50888 0.17334
 C680 C 0.58879 0.50745 0.24689
 C681 C 0.60882 0.50721 0.27823
 H682 H 0.71882 0.54508 0.48744
 H683 H 0.68441 0.54593 0.42908
 H684 H 0.67260 0.48445 0.29970
 H685 H 0.70592 0.48243 0.36094
 H686 H 0.63989 0.50850 0.12991
 H687 H 0.60544 0.51031 0.07468
 H688 H 0.57464 0.50713 0.28011
 H689 H 0.60968 0.50646 0.33508
 C690 C 0.78323 0.30881 0.39384
 C691 C 0.80163 0.32832 0.35551
 C692 C 0.82447 0.32996 0.34597
 C693 C 0.82884 0.31194 0.37591
 C694 C 0.81068 0.29279 0.41569
 C695 C 0.78779 0.29116 0.42522
 N696 N 0.84311 0.35029 0.30731
 N697 N 0.86120 0.34945 0.28027
 C698 C 0.88054 0.36999 0.24415
 C699 C 0.89562 0.36593 0.19844
 C700 C 0.91507 0.38563 0.16382
 C701 C 0.92015 0.40985 0.17605
 C702 C 0.90509 0.41397 0.22222
 C703 C 0.88524 0.39415 0.25548
 H704 H 0.76566 0.30780 0.40061
 H705 H 0.79805 0.34210 0.33283
 H706 H 0.84642 0.31294 0.36965
 H707 H 0.81445 0.27924 0.43919
 H708 H 0.89225 0.34741 0.18956
 H709 H 0.92649 0.38198 0.12876
 H710 H 0.90863 0.43248 0.23240
 H711 H 0.87393 0.39773 0.29111
   
