data_POSCAR
  _audit_creation_date              2014-09-24
  _audit_creation_method            'ToBaCCo'
  _symmetry_space_group_name_H-M    'P1'
  _symmetry_Int_Tables_number       1
  _symmetry_cell_setting            triclinic
  loop_
  _symmetry_equiv_pos_as_xyz
 x,y,z
_cell_length_a 58.2820
_cell_length_b 51.0604
_cell_length_c 55.9898
_cell_angle_alpha 89.828000
_cell_angle_beta 87.508100
_cell_angle_gamma 87.876400
loop_
  _atom_site_label
  _atom_site_type_symbol
  _atom_site_fract_x
  _atom_site_fract_y
  _atom_site_fract_z
N1 N 0.60336 0.66521 0.60384
 N2 N 0.59320 0.65412 0.62249
 C3 C 0.57359 0.66780 0.62845
 C4 C 0.57169 0.68875 0.61288
 C5 C 0.59084 0.68658 0.59752
 H6 H 0.56210 0.66348 0.64352
 H7 H 0.59541 0.69963 0.58296
 Cu8 Cu 0.60751 0.62408 0.63831
 Cu9 Cu 0.63203 0.65079 0.58941
 Cu10 Cu 0.66531 0.62067 0.63181
 N11 N 0.62608 0.60122 0.65817
 N12 N 0.64862 0.60057 0.65607
 C13 C 0.65715 0.58462 0.67293
 C14 C 0.63893 0.57438 0.68637
 C15 C 0.61943 0.58545 0.67627
 H16 H 0.67531 0.58078 0.67495
 H17 H 0.60169 0.58300 0.68198
 N18 N 0.67804 0.63339 0.60077
 N19 N 0.66504 0.64358 0.58415
 C20 C 0.67814 0.64808 0.56431
 C21 C 0.70059 0.64048 0.56867
 C22 C 0.69993 0.63135 0.59200
 H23 H 0.67179 0.65638 0.54797
 H24 H 0.71415 0.62284 0.60151
 H25 H 0.63941 0.61622 0.60923
 H26 H 0.64032 0.64897 0.62393
 N27 N 0.89663 0.33061 0.09931
 N28 N 0.90230 0.33831 0.12055
 C29 C 0.92258 0.32671 0.12580
 C30 C 0.93031 0.31101 0.10665
 C31 C 0.91329 0.31416 0.09012
 H32 H 0.93123 0.33013 0.14213
 H33 H 0.91264 0.30473 0.07293
 Cu34 Cu 0.88324 0.36349 0.13915
 Cu35 Cu 0.86758 0.34156 0.08574
 Cu36 Cu 0.83710 0.39251 0.11441
 N37 N 0.86847 0.39531 0.15238
 N38 N 0.85035 0.40641 0.14282
 C39 C 0.84324 0.42746 0.15591
 C40 C 0.85778 0.42983 0.17464
 C41 C 0.87366 0.40909 0.17177
 H42 H 0.82863 0.44018 0.15202
 H43 H 0.88767 0.40408 0.18318
 N44 N 0.82654 0.37558 0.08553
 N45 N 0.83777 0.35555 0.07501
 C46 C 0.82551 0.34721 0.05684
 C47 C 0.80578 0.36298 0.05572
 C48 C 0.80704 0.38081 0.07409
 H49 H 0.83054 0.33092 0.04523
 H50 H 0.79428 0.39591 0.07920
 H51 H 0.86886 0.37815 0.10117
 H52 H 0.84968 0.35409 0.11659
 N53 N 0.40901 0.15927 -0.11332
 N54 N 0.41914 0.14869 -0.13259
 C55 C 0.43599 0.16412 -0.14072
 C56 C 0.43673 0.18531 -0.12553
 C57 C 0.41944 0.18158 -0.10825
 H58 H 0.44719 0.16000 -0.15627
 H59 H 0.41457 0.19439 -0.09338
 Cu60 Cu 0.41028 0.11521 -0.14470
 Cu61 Cu 0.38253 0.14364 -0.09704
 Cu62 Cu 0.36248 0.08757 -0.12276
 N63 N 0.39694 0.08638 -0.16099
 N64 N 0.37820 0.07560 -0.15239
 C65 C 0.37267 0.05625 -0.16712
 C66 C 0.38890 0.05475 -0.18596
 C67 C 0.40404 0.07423 -0.18143
 H68 H 0.35807 0.04401 -0.16419
 H69 H 0.41896 0.07943 -0.19232
 N70 N 0.34893 0.10288 -0.09288
 N71 N 0.35600 0.12471 -0.08348
 C72 C 0.34265 0.13065 -0.06384
 C73 C 0.32669 0.11144 -0.06057
 C74 C 0.33122 0.09413 -0.07924
 H75 H 0.34458 0.14745 -0.05248
 H76 H 0.32197 0.07671 -0.08282
 H77 H 0.38950 0.10529 -0.10715
 H78 H 0.37205 0.12601 -0.12767
 N79 N 0.10125 0.82781 0.39229
 N80 N 0.08831 0.84154 0.37786
 C81 C 0.07034 0.82732 0.37220
 C82 C 0.07231 0.80305 0.38343
 C83 C 0.09226 0.80420 0.39601
 H84 H 0.05731 0.83394 0.36017
 H85 H 0.09945 0.78941 0.40766
 Cu86 Cu 0.09689 0.87612 0.36676
 Cu87 Cu 0.12764 0.84255 0.40656
 Cu88 Cu 0.15207 0.89212 0.37313
 N89 N 0.11105 0.90344 0.34769
 N90 N 0.13282 0.90871 0.34941
 C91 C 0.13823 0.92771 0.33367
 C92 C 0.11880 0.93481 0.32144
 C93 C 0.10184 0.91897 0.33087
 H94 H 0.15493 0.93619 0.33173
 H95 H 0.08422 0.91844 0.32564
 N96 N 0.16817 0.87315 0.39862
 N97 N 0.15830 0.85519 0.41212
 C98 C 0.17240 0.84789 0.42952
 C99 C 0.19222 0.86182 0.42676
 C100 C 0.18904 0.87755 0.40694
 H101 H 0.16849 0.83363 0.44327
 H102 H 0.20060 0.89204 0.39989
 H103 H 0.12594 0.88223 0.39650
 H104 H 0.13504 0.85736 0.37324
 N105 N 0.10778 0.17796 0.12261
 N106 N 0.10093 0.16697 0.14284
 C107 C 0.08155 0.17954 0.15130
 C108 C 0.07578 0.19916 0.13534
 C109 C 0.09273 0.19755 0.11729
 H110 H 0.07196 0.17447 0.16752
 H111 H 0.09416 0.20995 0.10163
 Cu112 Cu 0.11735 0.13636 0.15524
 Cu113 Cu 0.13614 0.16658 0.10519
 Cu114 Cu 0.16580 0.11234 0.12775
 N115 N 0.13379 0.10576 0.16765
 N116 N 0.15288 0.09659 0.15684
 C117 C 0.16092 0.07563 0.16895
 C118 C 0.14600 0.07127 0.18836
 C119 C 0.12894 0.09077 0.18693
 H120 H 0.17633 0.06421 0.16383
 H121 H 0.11427 0.09396 0.19920
 N122 N 0.17613 0.13104 0.09860
 N123 N 0.16520 0.15205 0.09031
 C124 C 0.17713 0.16093 0.07096
 C125 C 0.19633 0.14456 0.06676
 C126 C 0.19509 0.12581 0.08457
 H127 H 0.17220 0.17793 0.06056
 H128 H 0.20745 0.10992 0.08740
 H129 H 0.13516 0.12786 0.11569
 H130 H 0.15229 0.14986 0.13394
 N131 N 0.39206 0.82654 0.60194
 N132 N 0.40155 0.83741 0.62015
 C133 C 0.42042 0.82305 0.62569
 C134 C 0.42260 0.80187 0.61032
 C135 C 0.40432 0.80466 0.59548
 H136 H 0.43132 0.82723 0.64025
 H137 H 0.40029 0.79183 0.58102
 Cu138 Cu 0.38769 0.86851 0.63570
 Cu139 Cu 0.36477 0.84225 0.58802
 Cu140 Cu 0.33043 0.87565 0.63059
 N141 N 0.36918 0.89319 0.65533
 N142 N 0.34677 0.89551 0.65370
 C143 C 0.33816 0.91270 0.67022
 C144 C 0.35619 0.92183 0.68284
 C145 C 0.37564 0.90897 0.67282
 H146 H 0.32012 0.91818 0.67272
 H147 H 0.39312 0.91035 0.67829
 N148 N 0.31884 0.86268 0.60034
 N149 N 0.33230 0.85131 0.58356
 C150 C 0.31999 0.84684 0.56432
 C151 C 0.29758 0.85565 0.56930
 C152 C 0.29743 0.86550 0.59232
 H153 H 0.32678 0.83760 0.54803
 H154 H 0.28301 0.87489 0.60213
 H155 H 0.35793 0.87766 0.60714
 H156 H 0.35446 0.84551 0.62267
 N157 N 0.90519 0.66272 0.38169
 N158 N 0.91828 0.64850 0.36661
 C159 C 0.93692 0.66201 0.35997
 C160 C 0.93509 0.68610 0.37123
 C161 C 0.91479 0.68594 0.38486
 H162 H 0.95049 0.65512 0.34749
 H163 H 0.90777 0.70133 0.39657
 Cu164 Cu 0.90899 0.61438 0.35598
 Cu165 Cu 0.87776 0.64908 0.39734
 Cu166 Cu 0.85302 0.60063 0.36529
 N167 N 0.89458 0.58788 0.33753
 N168 N 0.87255 0.58353 0.34042
 C169 C 0.86696 0.56519 0.32471
 C170 C 0.88655 0.55757 0.31123
 C171 C 0.90380 0.57238 0.31993
 H172 H 0.84998 0.55760 0.32351
 H173 H 0.92159 0.57236 0.31360
 N174 N 0.83659 0.61999 0.39170
 N175 N 0.84649 0.63758 0.40462
 C176 C 0.83193 0.64538 0.42273
 C177 C 0.81179 0.63217 0.42106
 C178 C 0.81528 0.61633 0.40113
 H179 H 0.83574 0.65950 0.43621
 H180 H 0.80356 0.60230 0.39472
 H181 H 0.87868 0.60944 0.38734
 H182 H 0.87114 0.63465 0.36444
 N183 N 0.58470 0.35013 -0.09271
 N184 N 0.57459 0.35919 -0.11174
 C185 C 0.55634 0.34467 -0.11575
 C186 C 0.55476 0.32569 -0.09815
 C187 C 0.57301 0.32978 -0.08376
 H188 H 0.54484 0.34783 -0.13020
 H189 H 0.57766 0.31850 -0.06821
 Cu190 Cu 0.58595 0.38931 -0.12931
 Cu191 Cu 0.61255 0.36506 -0.08138
 Cu192 Cu 0.63350 0.41842 -0.11278
 N193 N 0.59829 0.41877 -0.14710
 N194 N 0.61709 0.42982 -0.14075
 C195 C 0.62227 0.44902 -0.15638
 C196 C 0.60572 0.45020 -0.17339
 C197 C 0.59074 0.43075 -0.16690
 H198 H 0.63689 0.46132 -0.15535
 H199 H 0.57575 0.42539 -0.17622
 N200 N 0.64778 0.40399 -0.08411
 N201 N 0.64044 0.38300 -0.07273
 C202 C 0.65443 0.37733 -0.05472
 C203 C 0.67110 0.39589 -0.05458
 C204 C 0.66633 0.41251 -0.07336
 H205 H 0.65244 0.36124 -0.04230
 H206 H 0.67597 0.42931 -0.07898
 H207 H 0.60595 0.40240 -0.09412
 H208 H 0.62391 0.37980 -0.11403
 C209 C -0.03588 0.29021 0.12455
 C210 C -0.01586 0.27404 0.12261
 C211 C -0.00850 0.26343 0.10017
 C212 C -0.02157 0.26866 0.08020
 C213 C -0.04183 0.28412 0.08238
 C214 C -0.04926 0.29531 0.10453
 C215 C 0.01163 0.24748 0.09813
 C216 C 0.02408 0.24130 0.11841
 C217 C 0.01632 0.25130 0.14100
 C218 C -0.00337 0.26794 0.14289
 C219 C 0.02822 0.24417 0.16140
 C220 C 0.04749 0.22710 0.15951
 C221 C 0.05556 0.21744 0.13712
 C222 C 0.04392 0.22483 0.11658
 H223 H -0.04126 0.29803 0.14193
 H224 H -0.01624 0.26059 0.06287
 H225 H -0.05134 0.28762 0.06645
 H226 H 0.01736 0.23952 0.08085
 H227 H -0.00919 0.27576 0.16019
 H228 H 0.02245 0.25153 0.17886
 H229 H 0.05629 0.22167 0.17553
 H230 H 0.04990 0.21711 0.09930
 C231 C 0.53063 0.70418 0.61321
 C232 C 0.51373 0.72451 0.61317
 C233 C 0.52027 0.75087 0.61458
 C234 C 0.54362 0.75646 0.61512
 C235 C 0.56034 0.73615 0.61420
 C236 C 0.55394 0.70997 0.61353
 C237 C 0.50342 0.77121 0.61512
 C238 C 0.48018 0.76562 0.61332
 C239 C 0.47373 0.73935 0.61089
 C240 C 0.49049 0.71893 0.61130
 C241 C 0.45061 0.73398 0.60782
 C242 C 0.43405 0.75443 0.60718
 C243 C 0.44023 0.78045 0.61032
 C244 C 0.46330 0.78595 0.61352
 H245 H 0.52576 0.68392 0.61235
 H246 H 0.54895 0.77653 0.61598
 H247 H 0.57831 0.74082 0.61443
 H248 H 0.50842 0.79138 0.61655
 H249 H 0.48550 0.69877 0.60976
 H250 H 0.44538 0.71400 0.60574
 H251 H 0.41630 0.74990 0.60473
 H252 H 0.46813 0.80609 0.61561
 C253 C 1.03511 0.78576 0.37387
 C254 C 1.01997 0.76500 0.37371
 C255 C 1.02747 0.73974 0.38111
 C256 C 1.04971 0.73586 0.38925
 C257 C 1.06436 0.75681 0.39030
 C258 C 1.05739 0.78202 0.38245
 C259 C 1.01250 0.71888 0.38068
 C260 C 0.98977 0.72320 0.37398
 C261 C 0.98198 0.74870 0.36745
 C262 C 0.99726 0.76930 0.36685
 C263 C 0.95887 0.75326 0.36212
 C264 C 0.94358 0.73282 0.36351
 C265 C 0.95134 0.70740 0.36941
 C266 C 0.97449 0.70257 0.37435
 H267 H 1.02905 0.80500 0.36821
 H268 H 1.05570 0.71665 0.39510
 H269 H 1.08137 0.75289 0.39674
 H270 H 1.01837 0.69944 0.38613
 H271 H 0.99133 0.78878 0.36159
 H272 H 0.95255 0.77270 0.35729
 H273 H 0.92571 0.73676 0.35974
 H274 H 0.98036 0.68297 0.37928
 C275 C 0.46138 0.21807 -0.10693
 C276 C 0.47766 0.23767 -0.10897
 C277 C 0.48478 0.24686 -0.13189
 C278 C 0.47583 0.23602 -0.15232
 C279 C 0.46019 0.21602 -0.15014
 C280 C 0.45280 0.20695 -0.12750
 C281 C 0.50095 0.26647 -0.13406
 C282 C 0.51060 0.27654 -0.11368
 C283 C 0.50395 0.26695 -0.09079
 C284 C 0.48728 0.24782 -0.08855
 C285 C 0.51426 0.27651 -0.07055
 C286 C 0.53101 0.29538 -0.07296
 C287 C 0.53740 0.30535 -0.09559
 C288 C 0.52706 0.29586 -0.11588
 H289 H 0.45595 0.21087 -0.08942
 H290 H 0.48116 0.24278 -0.17000
 H291 H 0.45370 0.20777 -0.16619
 H292 H 0.50626 0.27361 -0.15164
 H293 H 0.48206 0.24059 -0.07098
 H294 H 0.50946 0.26931 -0.05287
 H295 H 0.53867 0.30250 -0.05707
 H296 H 0.53214 0.30312 -0.13346
 C297 C 0.13622 -0.03648 0.28969
 C298 C 0.13431 -0.01695 0.27213
 C299 C 0.11252 -0.00534 0.26762
 C300 C 0.09300 -0.01374 0.28055
 C301 C 0.09502 -0.03336 0.29786
 C302 C 0.11663 -0.04480 0.30272
 C303 C 0.11061 0.01445 0.25030
 C304 C 0.13020 0.02262 0.23728
 C305 C 0.15193 0.01072 0.24155
 C306 C 0.15387 -0.00889 0.25901
 C307 C 0.17140 0.01863 0.22825
 C308 C 0.16940 0.03819 0.21090
 C309 C 0.14794 0.05038 0.20665
 C310 C 0.12838 0.04246 0.21997
 H311 H 0.15295 -0.04537 0.29300
 H312 H 0.07615 -0.00509 0.27731
 H313 H 0.07967 -0.03926 0.30770
 H314 H 0.09390 0.02344 0.24694
 H315 H 0.17058 -0.01790 0.26237
 H316 H 0.18818 0.00970 0.23127
 H317 H 0.18478 0.04403 0.20105
 H318 H 0.11168 0.05145 0.21668
 C319 C 0.61989 0.54674 -0.28332
 C320 C 0.62097 0.52968 -0.26365
 C321 C 0.64244 0.52298 -0.25407
 C322 C 0.66247 0.53311 -0.26455
 C323 C 0.66132 0.54981 -0.28429
 C324 C 0.64003 0.55709 -0.29393
 C325 C 0.64356 0.50624 -0.23422
 C326 C 0.62348 0.49581 -0.22398
 C327 C 0.60203 0.50213 -0.23381
 C328 C 0.60089 0.51915 -0.25348
 C329 C 0.58207 0.49123 -0.22383
 C330 C 0.58332 0.47423 -0.20429
 C331 C 0.60450 0.46808 -0.19419
 C332 C 0.62454 0.47902 -0.20413
 H333 H 0.60326 0.55155 -0.29037
 H334 H 0.67909 0.52811 -0.25748
 H335 H 0.67727 0.55720 -0.29162
 H336 H 0.66005 0.50124 -0.22681
 H337 H 0.58440 0.52411 -0.26091
 H338 H 0.56548 0.49581 -0.23116
 H339 H 0.56762 0.46621 -0.19687
 H340 H 0.64103 0.47414 -0.19671
 C341 C 0.37024 1.02337 0.78719
 C342 C 0.37121 1.00594 0.76779
 C343 C 0.39224 1.00119 0.75470
 C344 C 0.41186 1.01410 0.76110
 C345 C 0.41070 1.03155 0.78031
 C346 C 0.38995 1.03632 0.79359
 C347 C 0.39334 0.98365 0.73542
 C348 C 0.37363 0.97090 0.72895
 C349 C 0.35254 0.97584 0.74188
 C350 C 0.35148 0.99326 0.76126
 C351 C 0.33286 0.96325 0.73519
 C352 C 0.33403 0.94586 0.71592
 C353 C 0.35493 0.94061 0.70304
 C354 C 0.37469 0.95330 0.70969
 H355 H 0.35405 1.02706 0.79706
 H356 H 0.42812 1.01069 0.75127
 H357 H 0.42620 1.04103 0.78493
 H358 H 0.40951 0.97995 0.72545
 H359 H 0.33531 0.99697 0.77122
 H360 H 0.31655 0.96679 0.74489
 H361 H 0.31857 0.93626 0.71137
 H362 H 0.39087 0.94974 0.69979
 C363 C 0.87573 0.45575 0.20645
 C364 C 0.87421 0.47471 0.22463
 C365 C 0.85283 0.48762 0.23052
 C366 C 0.83344 0.48160 0.21795
 C367 C 0.83516 0.46295 0.19971
 C368 C 0.85624 0.44978 0.19384
 C369 C 0.85115 0.50634 0.24883
 C370 C 0.87063 0.51257 0.26121
 C371 C 0.89209 0.49999 0.25511
 C372 C 0.89373 0.48104 0.23694
 C373 C 0.91157 0.50665 0.26728
 C374 C 0.90981 0.52551 0.28538
 C375 C 0.88850 0.53789 0.29179
 C376 C 0.86897 0.53129 0.27955
 H377 H 0.89214 0.44593 0.20192
 H378 H 0.81693 0.49131 0.22222
 H379 H 0.81983 0.45857 0.19047
 H380 H 0.83470 0.51610 0.25341
 H381 H 0.91018 0.47129 0.23236
 H382 H 0.92818 0.49725 0.26283
 H383 H 0.92510 0.53010 0.29459
 H384 H 0.85248 0.54093 0.28406
 C385 C 0.29756 0.13237 -0.03174
 C386 C 0.27981 0.13051 -0.01407
 C387 C 0.27354 0.10557 -0.00548
 C388 C 0.28476 0.08295 -0.01503
 C389 C 0.30196 0.08496 -0.03301
 C390 C 0.30859 0.10961 -0.04141
 C391 C 0.25605 0.10359 0.01236
 C392 C 0.24435 0.12619 0.02137
 C393 C 0.25017 0.15110 0.01235
 C394 C 0.26804 0.15312 -0.00512
 C395 C 0.23791 0.17355 0.02091
 C396 C 0.22014 0.17138 0.03832
 C397 C 0.21459 0.14678 0.04776
 C398 C 0.22679 0.12425 0.03917
 H399 H 0.30239 0.15144 -0.03838
 H400 H 0.28012 0.06370 -0.00872
 H401 H 0.31032 0.06720 -0.04015
 H402 H 0.25141 0.08446 0.01908
 H403 H 0.27263 0.17225 -0.01189
 H404 H 0.24205 0.19279 0.01414
 H405 H 0.21104 0.18902 0.04475
 H406 H 0.22241 0.10514 0.04609
 C407 C 0.71778 0.63833 0.52702
 C408 C 0.73681 0.63832 0.51079
 C409 C 0.75903 0.64162 0.51927
 C410 C 0.76184 0.64436 0.54388
 C411 C 0.74285 0.64377 0.55996
 C412 C 0.72068 0.64094 0.55167
 C413 C 0.77806 0.64189 0.50306
 C414 C 0.77522 0.63826 0.47854
 C415 C 0.75307 0.63433 0.47014
 C416 C 0.73398 0.63472 0.48628
 C417 C 0.75043 0.62980 0.44574
 C418 C 0.76957 0.62901 0.42981
 C419 C 0.79158 0.63327 0.43792
 C420 C 0.79427 0.63807 0.46232
 H421 H 0.70078 0.63572 0.52049
 H422 H 0.77875 0.64680 0.55070
 H423 H 0.74545 0.64591 0.57887
 H424 H 0.79508 0.64459 0.50955
 H425 H 0.71697 0.63189 0.47980
 H426 H 0.73360 0.62665 0.43901
 H427 H 0.76713 0.62536 0.41106
 H428 H 0.81125 0.64096 0.46878
 C429 C 0.77433 0.38331 0.03212
 C430 C 0.75623 0.38136 0.01657
 C431 C 0.75021 0.35645 0.00839
 C432 C 0.76285 0.33403 0.01537
 C433 C 0.78120 0.33622 0.03042
 C434 C 0.78692 0.36080 0.03911
 C435 C 0.73175 0.35439 -0.00671
 C436 C 0.71963 0.37699 -0.01424
 C437 C 0.72617 0.40194 -0.00666
 C438 C 0.74420 0.40395 0.00894
 C439 C 0.71466 0.42454 -0.01498
 C440 C 0.69687 0.42248 -0.03072
 C441 C 0.68993 0.39781 -0.03795
 C442 C 0.70126 0.37508 -0.02951
 H443 H 0.77885 0.40239 0.03850
 H444 H 0.75858 0.31480 0.00917
 H445 H 0.79062 0.31861 0.03568
 H446 H 0.72698 0.33527 -0.01277
 H447 H 0.74902 0.42308 0.01494
 H448 H 0.71952 0.44381 -0.00946
 H449 H 0.68828 0.44021 -0.03698
 H450 H 0.69617 0.35599 -0.03531
 C451 C 0.20814 0.85698 0.46729
 C452 C 0.22653 0.85719 0.48262
 C453 C 0.24902 0.86111 0.47309
 C454 C 0.25260 0.86538 0.44847
 C455 C 0.23408 0.86582 0.43342
 C456 C 0.21178 0.86141 0.44266
 C457 C 0.26750 0.86093 0.48833
 C458 C 0.26370 0.85756 0.51305
 C459 C 0.24111 0.85439 0.52264
 C460 C 0.22272 0.85389 0.50733
 C461 C 0.23728 0.85199 0.54744
 C462 C 0.25565 0.85270 0.56262
 C463 C 0.27818 0.85527 0.55323
 C464 C 0.28210 0.85761 0.52839
 H465 H 0.19090 0.85401 0.47460
 H466 H 0.26969 0.86857 0.44088
 H467 H 0.23722 0.86923 0.41448
 H468 H 0.28478 0.86371 0.48100
 H469 H 0.20543 0.85123 0.51468
 H470 H 0.22008 0.84969 0.55510
 H471 H 0.25228 0.85079 0.58170
 H472 H 0.29941 0.86001 0.52104
   
