data_POSCAR
  _audit_creation_date              2014-09-24
  _audit_creation_method            'ToBaCCo'
  _symmetry_space_group_name_H-M    'P1'
  _symmetry_Int_Tables_number       1
  _symmetry_cell_setting            triclinic
  loop_
  _symmetry_equiv_pos_as_xyz
 x,y,z
_cell_length_a 31.8260
_cell_length_b 31.8537
_cell_length_c 78.6052
_cell_angle_alpha 86.794700
_cell_angle_beta 91.231100
_cell_angle_gamma 119.904500
loop_
  _atom_site_label
  _atom_site_type_symbol
  _atom_site_fract_x
  _atom_site_fract_y
  _atom_site_fract_z
C1 C 0.00944 0.08673 0.52105
 H2 H 0.04373 0.08751 0.52032
 C3 C 0.00525 0.11949 0.53089
 H4 H 0.03641 0.14499 0.53793
 C5 C -0.07284 0.05194 0.51280
 H6 H -0.10290 0.02594 0.50553
 C7 C -0.07872 0.08407 0.52259
 H8 H -0.11346 0.08255 0.52277
 N9 N -0.02928 0.05371 0.51233
 C10 C 0.00077 -0.06378 0.50601
 H11 H 0.00226 -0.06389 0.49227
 C12 C 0.00305 -0.10008 0.51614
 H13 H 0.00634 -0.12803 0.51010
 C14 C -0.00879 -0.02910 0.53049
 H15 H -0.01476 -0.00227 0.53605
 C16 C -0.00664 -0.06458 0.54108
 H17 H -0.00976 -0.06381 0.55473
 Zn18 Zn -0.01718 0.01329 0.49898
 N19 N -0.00552 -0.02954 0.51329
 C20 C 0.07827 0.05204 0.48484
 N21 N 0.03708 0.05497 0.48509
 C22 C 0.03320 0.08993 0.47566
 C23 C 0.07113 0.12304 0.46507
 C24 C 0.11737 0.08471 0.47441
 C25 C -0.11235 -0.06053 0.49282
 C26 C -0.15063 -0.09382 0.48311
 C27 C -0.10302 -0.05368 0.45774
 C28 C -0.06573 -0.02155 0.46798
 N29 N -0.07081 -0.02558 0.48518
 H30 H 0.08088 0.02449 0.49268
 H31 H 0.00032 0.09190 0.47637
 H32 H 0.06729 0.15074 0.45774
 H33 H 0.14970 0.08159 0.47413
 H34 H -0.11538 -0.06318 0.50657
 H35 H -0.18319 -0.11977 0.48994
 H36 H -0.09506 -0.05004 0.44428
 H37 H -0.03188 0.00536 0.46211
 C38 C -0.00161 -0.10127 0.53392
 C39 C -0.03921 0.11856 0.53173
 C40 C -0.14667 -0.09180 0.46509
 C41 C 0.11383 0.12056 0.46425
 C42 C 1.11222 0.04933 0.14359
 H43 H 1.11360 0.08396 0.14357
 C44 C 1.14545 0.04438 0.13389
 H45 H 1.17190 0.07528 0.12620
 C46 C 1.07566 -0.03295 0.15369
 H47 H 1.04887 -0.06267 0.16166
 C48 C 1.10826 -0.03958 0.14410
 H49 H 1.10627 -0.07457 0.14476
 N50 N 1.07817 0.01101 0.15318
 C51 C 0.96343 0.04560 0.15976
 H52 H 0.96275 0.04677 0.17347
 C53 C 0.92865 0.04995 0.14986
 H54 H 0.90178 0.05539 0.15604
 C55 C 0.99834 0.03536 0.13512
 H56 H 1.02445 0.02802 0.12944
 C57 C 0.96438 0.03965 0.12476
 H58 H 0.96498 0.03566 0.11119
 Zn59 Zn 1.03794 0.02434 0.16652
 N60 N 0.99714 0.03812 0.15229
 C61 C 1.07819 0.11962 0.17911
 N62 N 1.07992 0.07777 0.17938
 C63 C 1.11399 0.07269 0.18852
 C64 C 1.14784 0.11033 0.19807
 C65 C 1.11141 0.15831 0.18857
 C66 C 0.96189 -0.07017 0.17432
 C67 C 0.92680 -0.10804 0.18470
 C68 C 0.96525 -0.06131 0.20924
 C69 C 0.99946 -0.02439 0.19841
 N70 N 0.99698 -0.02920 0.18128
 H71 H 1.05138 0.12321 0.17149
 H72 H 1.11474 0.03913 0.18837
 H73 H 1.17415 0.10515 0.20547
 H74 H 1.10987 0.19155 0.18815
 H75 H 0.96014 -0.07263 0.16062
 H76 H 0.89813 -0.13961 0.17888
 H77 H 0.96764 -0.05653 0.22282
 H78 H 1.02693 0.00875 0.20371
 C79 C 0.92847 0.04634 0.13213
 C80 C 1.14396 -0.00044 0.13412
 C81 C 0.92770 -0.10344 0.20240
 C82 C 1.14693 0.15392 0.19816
 C83 C 0.03847 0.94096 0.85675
 H84 H 0.00538 0.90653 0.85586
 C85 C 0.07565 0.94443 0.86731
 H86 H 0.07102 0.91229 0.87443
 C87 C 0.08486 1.02424 0.84805
 H88 H 0.08831 1.05508 0.84041
 C89 C 0.12318 1.02933 0.85847
 H90 H 0.15571 1.06443 0.85895
 N91 N 0.04336 0.98061 0.84757
 C92 C -0.10506 0.94982 0.83994
 H93 H -0.10732 0.95054 0.82618
 C94 C -0.14366 0.94472 0.84972
 H95 H -0.17586 0.93961 0.84310
 C96 C -0.05983 0.95514 0.86479
 H97 H -0.02643 0.96114 0.87065
 C98 C -0.09751 0.94984 0.87507
 H99 H -0.09109 0.95266 0.88862
 Zn100 Zn -0.00994 0.97012 0.83372
 N101 N -0.06406 0.95528 0.84756
 C102 C -0.06586 0.87694 0.81961
 N103 N -0.02220 0.91846 0.81996
 C104 C 0.01645 0.92413 0.81097
 C105 C 0.01213 0.88737 0.80102
 C106 C -0.07186 0.83912 0.80974
 C107 C 0.01021 1.06601 0.82765
 C108 C 0.01456 1.10614 0.81796
 C109 C 0.00557 1.06346 0.79247
 C110 C 0.00127 1.02416 0.80264
 N111 N 0.00342 1.02600 0.81990
 H112 H -0.09585 0.87285 0.82712
 H113 H 0.05084 0.95740 0.81163
 H114 H 0.04327 0.89295 0.79381
 H115 H -0.10663 0.80604 0.80972
 H116 H 0.01093 1.06618 0.84142
 H117 H 0.01951 1.13751 0.82436
 H118 H 0.00215 1.06059 0.77879
 H119 H -0.00552 0.99161 0.79671
 C120 C -0.14034 0.94534 0.86768
 C121 C 0.11861 0.98910 0.86837
 C122 C 0.01166 1.10493 0.80012
 C123 C -0.03239 0.84403 0.80036
 C124 C 0.39645 0.01503 0.00958
 C125 C 0.39464 0.01494 -0.00786
 C126 C 0.42704 0.00088 -0.01295
 N127 N 0.44869 -0.00741 0.00078
 C128 C 0.43018 0.00142 0.01456
 C129 C 0.43356 -0.00750 -0.02990
 C130 C 0.46981 -0.01779 -0.03476
 C131 C 0.47004 -0.03821 -0.04985
 C132 C 0.51190 -0.04079 -0.05000
 C133 C 0.53631 -0.02145 -0.03507
 N134 N 0.51045 -0.00737 -0.02588
 C135 C 0.58259 -0.01475 -0.03078
 C136 C 0.60313 -0.00228 -0.01445
 C137 C 0.65121 0.01320 -0.01060
 C138 C 0.65580 0.01892 0.00663
 C139 C 0.61025 0.00628 0.01276
 N140 N 0.57811 -0.00671 -0.00015
 C141 C 0.59825 0.00369 0.03014
 C142 C 0.55232 -0.00569 0.03573
 C143 C 0.53452 -0.02095 0.05221
 C144 C 0.48986 -0.02406 0.05258
 C145 C 0.48181 -0.01017 0.03635
 N146 N 0.52016 0.00109 0.02618
 C147 C 0.44119 -0.00542 0.03163
 H148 H 0.37534 0.02407 0.01768
 H149 H 0.37168 0.02372 -0.01585
 H150 H 0.52654 0.01762 0.01400
 H151 H 0.44279 -0.05015 -0.05970
 H152 H 0.52321 -0.05495 -0.06005
 H153 H 0.67998 0.01972 -0.01931
 H154 H 0.68882 0.03057 0.01383
 H155 H 0.46626 -0.03487 0.06361
 H156 H 0.52220 0.01295 -0.01513
 H157 H 0.55188 -0.02909 0.06286
 C158 C -0.00672 0.36467 0.67447
 C159 C -0.01015 0.36558 0.65704
 C160 C -0.02556 0.39837 0.65248
 N161 N -0.03211 0.41713 0.66652
 C162 C -0.02053 0.39665 0.67998
 C163 C -0.03574 0.40850 0.63566
 C164 C -0.04249 0.44826 0.63098
 C165 C -0.05989 0.45511 0.61535
 C166 C -0.05759 0.49939 0.61535
 C167 C -0.03925 0.51817 0.63103
 N168 N -0.02991 0.48694 0.64045
 C169 C -0.02940 0.56419 0.63594
 C170 C -0.02300 0.57725 0.65308
 C171 C -0.00921 0.62316 0.65834
 C172 C -0.01086 0.61969 0.67581
 C173 C -0.02525 0.57187 0.68064
 N174 N -0.03287 0.54595 0.66673
 C175 C -0.03366 0.55240 0.69761
 C176 C -0.03931 0.50639 0.70242
 C177 C -0.05490 0.48291 0.71835
 C178 C -0.05203 0.44123 0.71830
 C179 C -0.03518 0.44019 0.70230
 N180 N -0.02728 0.48011 0.69273
 C181 C -0.02524 0.40415 0.69722
 H182 H 0.00433 0.34268 0.68218
 H183 H -0.00212 0.34458 0.64868
 H184 H -0.00948 0.49136 0.68102
 H185 H -0.07245 0.43098 0.60493
 H186 H -0.06819 0.51590 0.60499
 H187 H 0.00065 0.65571 0.65044
 H188 H -0.00238 0.64903 0.68402
 H189 H -0.06129 0.41472 0.72884
 H190 H -0.01091 0.49423 0.65183
 H191 H -0.06662 0.49480 0.72898
 C192 C 0.64856 0.63708 0.34440
 C193 C 0.65360 0.63746 0.32710
 C194 C 0.60851 0.60428 0.32099
 N195 N 0.57622 0.58350 0.33398
 C196 C 0.60069 0.60337 0.34831
 C197 C 0.59694 0.59619 0.30358
 C198 C 0.55160 0.55941 0.29796
 C199 C 0.53391 0.55780 0.28159
 C200 C 0.48982 0.51579 0.28114
 C201 C 0.48200 0.49268 0.29720
 N202 N 0.51995 0.51946 0.30735
 C203 C 0.44193 0.44667 0.30177
 C204 C 0.43092 0.42749 0.31876
 C205 C 0.39774 0.37972 0.32349
 C206 C 0.39554 0.37663 0.34095
 C207 C 0.42717 0.42273 0.34629
 N208 N 0.44874 0.45376 0.33270
 C209 C 0.43292 0.43625 0.36337
 C210 C 0.46840 0.48253 0.36847
 C211 C 0.46773 0.50172 0.38380
 C212 C 0.50896 0.54648 0.38409
 C213 C 0.53389 0.55321 0.36900
 N214 N 0.50899 0.51392 0.35959
 C215 C 0.57972 0.59371 0.36473
 H216 H 0.67689 0.65914 0.35312
 H217 H 0.68659 0.66001 0.31985
 H218 H 0.52135 0.50663 0.34863
 H219 H 0.55094 0.58423 0.27108
 H220 H 0.46642 0.50352 0.27017
 H221 H 0.37720 0.35020 0.31522
 H222 H 0.37280 0.34425 0.34879
 H223 H 0.51948 0.57108 0.39433
 H224 H 0.52646 0.50867 0.31937
 H225 H 0.44028 0.48527 0.39371
 C226 C -0.04922 0.21844 0.56366
 C227 C -0.00884 0.23414 0.55306
 C228 C -0.00616 0.20193 0.54238
 C229 C -0.04388 0.15343 0.54219
 C230 C -0.08494 0.13824 0.55258
 C231 C -0.08750 0.17057 0.56329
 C232 C -0.05005 0.25101 0.57544
 C233 C -0.04936 0.27860 0.58548
 C234 C -0.04725 0.31166 0.59767
 C235 C -0.01059 0.36039 0.59641
 C236 C -0.00709 0.39210 0.60868
 C237 C -0.04024 0.37528 0.62233
 C238 C -0.07722 0.32650 0.62343
 C239 C -0.08067 0.29483 0.61116
 H240 H 0.02096 0.27111 0.55322
 H241 H 0.02557 0.21489 0.53434
 H242 H -0.11432 0.10104 0.55281
 H243 H -0.11886 0.15800 0.57150
 H244 H 0.01558 0.37372 0.58606
 H245 H 0.02172 0.42957 0.60768
 H246 H -0.10310 0.31300 0.63387
 H247 H -0.10904 0.25717 0.61229
 C248 C 0.81275 0.78882 0.23466
 C249 C 0.83209 0.83814 0.23727
 C250 C 0.86954 0.87301 0.22683
 C251 C 0.88835 0.85907 0.21359
 C252 C 0.86862 0.80936 0.21102
 C253 C 0.83107 0.77445 0.22153
 C254 C 0.77425 0.75338 0.24559
 C255 C 0.74221 0.72485 0.25507
 C256 C 0.70438 0.69204 0.26675
 C257 C 0.68309 0.70996 0.27749
 C258 C 0.64763 0.67868 0.28933
 C259 C 0.63328 0.62917 0.29058
 C260 C 0.65413 0.61120 0.27960
 C261 C 0.68962 0.64255 0.26775
 H262 H 0.81807 0.84968 0.24736
 H263 H 0.88325 0.91095 0.22894
 H264 H 0.88256 0.79750 0.20102
 H265 H 0.81641 0.73633 0.21942
 H266 H 0.69424 0.74818 0.27682
 H267 H 0.63168 0.69304 0.29765
 H268 H 0.64337 0.57308 0.28040
 H269 H 0.70587 0.62832 0.25951
 C270 C 0.23211 -0.00298 -0.09897
 C271 C 0.24369 0.02176 -0.11499
 C272 C 0.20692 0.01996 -0.12556
 C273 C 0.15814 -0.00679 -0.12023
 C274 C 0.14707 -0.03087 -0.10400
 C275 C 0.18380 -0.02897 -0.09348
 C276 C 0.26932 -0.00259 -0.08815
 C277 C 0.29925 -0.00344 -0.07870
 C278 C 0.33356 -0.00552 -0.06696
 C279 C 0.38293 0.02905 -0.06836
 C280 C 0.41570 0.02788 -0.05645
 C281 C 0.39925 -0.00777 -0.04304
 C282 C 0.34988 -0.04287 -0.04190
 C283 C 0.31720 -0.04168 -0.05379
 H284 H 0.28100 0.04196 -0.11937
 H285 H 0.21648 0.03849 -0.13804
 H286 H 0.10997 -0.05112 -0.09943
 H287 H 0.17446 -0.04806 -0.08108
 H288 H 0.39595 0.05717 -0.07850
 H289 H 0.45369 0.05519 -0.05750
 H290 H 0.33669 -0.07072 -0.03167
 H291 H 0.27909 -0.06860 -0.05261
 C292 C -0.00962 0.78068 0.56578
 C293 C 0.02368 0.80053 0.55224
 C294 C 0.02649 0.83901 0.54183
 C295 C -0.00390 0.85816 0.54492
 C296 C -0.03731 0.83775 0.55854
 C297 C -0.04008 0.79937 0.56888
 C298 C -0.01257 0.74152 0.57671
 C299 C -0.01590 0.70904 0.58627
 C300 C -0.02056 0.67085 0.59813
 C301 C 0.01338 0.65506 0.59811
 C302 C 0.00995 0.61961 0.61024
 C303 C -0.02734 0.59986 0.62251
 C304 C -0.06182 0.61512 0.62226
 C305 C -0.05836 0.65053 0.61014
 H306 H 0.04753 0.78640 0.54976
 H307 H 0.05279 0.85417 0.53153
 H308 H -0.06185 0.85102 0.56106
 H309 H -0.06608 0.78419 0.57929
 H310 H 0.04280 0.67059 0.58889
 H311 H 0.03680 0.60818 0.61027
 H312 H -0.09091 0.60007 0.63160
 H313 H -0.08479 0.66251 0.61027
 C314 C 0.24985 0.26598 0.22936
 C315 C 0.20190 0.25643 0.22853
 C316 C 0.16857 0.22080 0.21804
 C317 C 0.18282 0.19414 0.20835
 C318 C 0.23139 0.20487 0.20899
 C319 C 0.26461 0.24049 0.21943
 C320 C 0.28343 0.30016 0.24098
 C321 C 0.31158 0.32774 0.25097
 C322 C 0.34497 0.35950 0.26320
 C323 C 0.32860 0.37801 0.27559
 C324 C 0.36039 0.40691 0.28801
 C325 C 0.40883 0.41748 0.28816
 C326 C 0.42525 0.39932 0.27559
 C327 C 0.39340 0.37042 0.26317
 H328 H 0.19004 0.27582 0.23622
 H329 H 0.13134 0.21304 0.21794
 H330 H 0.24363 0.18548 0.20147
 H331 H 0.30164 0.24762 0.21997
 H332 H 0.29118 0.36965 0.27578
 H333 H 0.34720 0.42070 0.29761
 H334 H 0.46247 0.40704 0.27557
 H335 H 0.40637 0.35609 0.25368
 C336 C 0.75353 -0.05259 -0.10092
 C337 C 0.78321 -0.07007 -0.09424
 C338 C 0.81717 -0.07203 -0.10463
 C339 C 0.82249 -0.05627 -0.12206
 C340 C 0.79081 -0.04029 -0.12869
 C341 C 0.75696 -0.03830 -0.11819
 C342 C 0.72111 -0.04757 -0.08981
 C343 C 0.69507 -0.04282 -0.08013
 C344 C 0.66513 -0.03682 -0.06816
 C345 C 0.64799 -0.06763 -0.05347
 C346 C 0.62075 -0.06065 -0.04140
 C347 C 0.61048 -0.02270 -0.04389
 C348 C 0.62735 0.00787 -0.05871
 C349 C 0.65461 0.00083 -0.07079
 H350 H 0.78047 -0.08178 -0.08090
 H351 H 0.83838 -0.08696 -0.09889
 H352 H 0.79362 -0.02646 -0.14174
 H353 H 0.73426 -0.02444 -0.12349
 H354 H 0.65607 -0.09674 -0.05127
 H355 H 0.60792 -0.08459 -0.03005
 H356 H 0.61981 0.03736 -0.06079
 H357 H 0.66790 0.02502 -0.08207
 C358 C 0.24676 -0.01267 0.10325
 C359 C 0.19860 -0.05052 0.10430
 C360 C 0.16525 -0.04720 0.11466
 C361 C 0.17970 -0.00578 0.12400
 C362 C 0.22844 0.03152 0.12313
 C363 C 0.26167 0.02809 0.11281
 C364 C 0.28048 -0.01435 0.09179
 C365 C 0.30893 -0.01450 0.08194
 C366 C 0.34282 -0.01358 0.06989
 C367 C 0.32714 -0.04935 0.05796
 C368 C 0.35941 -0.04705 0.04567
 C369 C 0.40765 -0.00888 0.04519
 C370 C 0.42339 0.02656 0.05732
 C371 C 0.39107 0.02421 0.06962
 H372 H 0.18663 -0.08216 0.09689
 H373 H 0.12790 -0.07628 0.11496
 H374 H 0.24084 0.06350 0.13038
 H375 H 0.29885 0.05756 0.11211
 H376 H 0.28986 -0.07862 0.05802
 H377 H 0.34674 -0.07468 0.03640
 H378 H 0.46043 0.05631 0.05708
 H379 H 0.40350 0.05219 0.07875
 C380 C 0.74849 0.80129 0.43443
 C381 C 0.74848 0.79213 0.45199
 C382 C 0.78227 0.82795 0.46231
 C383 C 0.81769 0.87411 0.45526
 C384 C 0.81547 0.88273 0.43741
 C385 C 0.78154 0.84681 0.42723
 C386 C 0.71593 0.76370 0.42359
 C387 C 0.68989 0.73290 0.41407
 C388 C 0.66011 0.69708 0.40222
 C389 C 0.65095 0.64931 0.40457
 C390 C 0.62424 0.61534 0.39249
 C391 C 0.60657 0.62898 0.37795
 C392 C 0.61535 0.67675 0.37577
 C393 C 0.64202 0.71062 0.38784
 H394 H 0.72308 0.75678 0.45770
 H395 H 0.78188 0.81729 0.47561
 H396 H 0.83860 0.91761 0.43104
 H397 H 0.78134 0.85458 0.41364
 H398 H 0.66499 0.63852 0.41561
 H399 H 0.61787 0.57867 0.39433
 H400 H 0.60191 0.68780 0.36463
 H401 H 0.64907 0.74752 0.38585
 C402 C 0.00673 0.21656 0.76830
 C403 C 0.03341 0.19538 0.76311
 C404 C 0.03614 0.16000 0.77365
 C405 C 0.01214 0.14528 0.78953
 C406 C -0.01364 0.16762 0.79480
 C407 C -0.01637 0.20297 0.78423
 C408 C 0.00130 0.25053 0.75693
 C409 C -0.00382 0.27812 0.74713
 C410 C -0.01031 0.31016 0.73511
 C411 C 0.02282 0.36003 0.73442
 C412 C 0.01748 0.39074 0.72224
 C413 C -0.02096 0.37177 0.71063
 C414 C -0.05457 0.32187 0.71158
 C415 C -0.04919 0.29120 0.72375
 H416 H 0.05146 0.20566 0.75081
 H417 H 0.05672 0.14388 0.76932
 H418 H -0.03307 0.15661 0.80684
 H419 H -0.03731 0.21896 0.78834
 H420 H 0.05304 0.37506 0.74314
 H421 H 0.04369 0.42917 0.72168
 H422 H -0.08454 0.30672 0.70276
 H423 H -0.07503 0.25268 0.72417
 C424 C 0.81464 0.04042 0.10011
 C425 C 0.80385 0.01812 0.11651
 C426 C 0.84103 0.02120 0.12712
 C427 C 0.88953 0.04657 0.12143
 C428 C 0.90008 0.06979 0.10505
 C429 C 0.86286 0.06669 0.09448
 C430 C 0.77617 0.03455 0.08877
 C431 C 0.74416 0.02898 0.07905
 C432 C 0.70635 0.02183 0.06719
 C433 C 0.68671 -0.01812 0.05692
 C434 C 0.65108 -0.02442 0.04499
 C435 C 0.63490 0.00932 0.04319
 C436 C 0.65417 0.04892 0.05369
 C437 C 0.68980 0.05518 0.06563
 H438 H 0.76663 -0.00251 0.12097
 H439 H 0.83163 0.00235 0.13955
 H440 H 0.93708 0.09003 0.10038
 H441 H 0.87162 0.08413 0.08181
 H442 H 0.69922 -0.04415 0.05803
 H443 H 0.63637 -0.05530 0.03705
 H444 H 0.64200 0.07521 0.05247
 H445 H 0.70475 0.08620 0.07351
 C446 C 0.22960 0.22569 0.43176
 C447 C 0.18171 0.20335 0.42605
 C448 C 0.14428 0.16852 0.43651
 C449 C 0.15420 0.15551 0.45287
 C450 C 0.20258 0.17740 0.45839
 C451 C 0.24008 0.21241 0.44789
 C452 C 0.26741 0.26295 0.42107
 C453 C 0.29768 0.29423 0.41172
 C454 C 0.33222 0.33133 0.40008
 C455 C 0.31600 0.35175 0.38715
 C456 C 0.34890 0.38652 0.37537
 C457 C 0.39837 0.40108 0.37639
 C458 C 0.41465 0.38120 0.38955
 C459 C 0.38166 0.34636 0.40134
 H460 H 0.17322 0.21322 0.41356
 H461 H 0.10750 0.15177 0.43180
 H462 H 0.21125 0.16841 0.47098
 H463 H 0.27705 0.22954 0.45244
 H464 H 0.27785 0.34041 0.38606
 H465 H 0.33583 0.40169 0.36533
 H466 H 0.45272 0.39212 0.39050
 H467 H 0.39458 0.33080 0.41130
 C468 C -0.04307 0.73315 0.76885
 C469 C -0.08124 0.74303 0.76938
 C470 C -0.07837 0.77838 0.77991
 C471 C -0.03711 0.80443 0.78996
 C472 C 0.00057 0.79347 0.78959
 C473 C -0.00241 0.75813 0.77909
 C474 C -0.04441 0.69900 0.75731
 C475 C -0.04428 0.67140 0.74746
 C476 C -0.04298 0.63957 0.73545
 C477 C -0.07775 0.62155 0.72258
 C478 C -0.07509 0.59259 0.71041
 C479 C -0.03753 0.58149 0.71098
 C480 C -0.00308 0.59915 0.72402
 C481 C -0.00580 0.62810 0.73620
 H482 H -0.11281 0.72403 0.76144
 H483 H -0.10773 0.78632 0.77982
 H484 H 0.03245 0.81235 0.79738
 H485 H 0.02731 0.75073 0.77881
 H486 H -0.10655 0.63035 0.72185
 H487 H -0.10196 0.57921 0.70043
 H488 H 0.02619 0.59104 0.72460
 H489 H 0.02141 0.64203 0.74606
   
