data_POSCAR
  _audit_creation_date              2014-09-24
  _audit_creation_method            'ToBaCCo'
  _symmetry_space_group_name_H-M    'P1'
  _symmetry_Int_Tables_number       1
  _symmetry_cell_setting            triclinic
  loop_
  _symmetry_equiv_pos_as_xyz
 x,y,z
_cell_length_a 38.8403
_cell_length_b 40.6205
_cell_length_c 56.7317
_cell_angle_alpha 89.965700
_cell_angle_beta 90.029500
_cell_angle_gamma 117.724900
loop_
  _atom_site_label
  _atom_site_type_symbol
  _atom_site_fract_x
  _atom_site_fract_y
  _atom_site_fract_z
C1 C 0.01466 0.52060 1.27260
 C2 C -0.02263 0.48849 1.27269
 C3 C -0.03978 0.47236 1.25093
 C4 C -0.02325 0.48889 1.22916
 C5 C 0.01359 0.52109 1.22930
 C6 C 0.03108 0.53713 1.25083
 H7 H 0.05992 0.56078 1.25041
 H8 H -0.06833 0.44836 1.25097
 C9 C 0.47688 0.49934 1.27185
 C10 C 0.49891 0.47942 1.27224
 C11 C 0.51115 0.47054 1.25100
 C12 C 0.50095 0.47945 1.22911
 C13 C 0.47813 0.49813 1.22843
 C14 C 0.46653 0.50778 1.24962
 H15 H 0.44958 0.52269 1.24852
 H16 H 0.52823 0.45569 1.25156
 C17 C 0.51431 1.02345 1.22886
 C18 C 0.49785 0.98398 1.22861
 C19 C 0.49147 0.96435 1.24986
 C20 C 0.49786 0.98210 1.27193
 C21 C 0.51303 1.02136 1.27228
 C22 C 0.52133 1.04120 1.25100
 H23 H 0.53372 1.07122 1.25196
 H24 H 0.47914 0.93431 1.24898
 C25 C 0.98340 0.48978 0.72868
 C26 C 1.02100 0.52057 0.72861
 C27 C 1.03922 0.53585 0.75016
 C28 C 1.02169 0.52022 0.77195
 C29 C 0.98372 0.48937 0.77173
 C30 C 0.96557 0.47426 0.75019
 H31 H 0.93613 0.45155 0.75018
 H32 H 1.06846 0.55881 0.74979
 C33 C 0.49040 0.51377 0.77238
 C34 C 0.50144 0.48512 0.77242
 C35 C 0.50616 0.47075 0.75086
 C36 C 0.50116 0.48486 0.72927
 C37 C 0.49022 0.51354 0.72926
 C38 C 0.48559 0.52802 0.75077
 H39 H 0.47613 0.54928 0.75068
 H40 H 0.51562 0.44948 0.75090
 C41 C 0.48916 -0.02295 0.77229
 C42 C 0.51421 0.01598 0.77190
 C43 C 0.52515 0.03460 0.75024
 C44 C 0.51151 0.01603 0.72875
 C45 C 0.48729 -0.02316 0.72857
 C46 C 0.47597 -0.04151 0.75055
 H47 H 0.45732 -0.07128 0.75077
 H48 H 0.54349 0.06451 0.75012
 O49 O 0.39022 0.67660 0.97447
 O50 O 0.39287 0.74101 0.98245
 C51 C 0.36860 0.74682 0.97040
 O52 O 0.33250 0.73100 0.97465
 O53 O 0.26668 0.67212 0.98134
 C54 C 0.26118 0.64326 0.96978
 O55 O 0.27829 0.62407 0.97444
 O56 O 0.34231 0.61946 0.98154
 C57 C 0.37174 0.64222 0.96980
 O58 O 0.39181 0.66455 1.02125
 O59 O 0.39027 0.72719 1.02915
 C60 C 0.37216 0.74554 1.03362
 O61 O 0.34298 0.74244 1.02174
 O62 O 0.27845 0.68140 1.02853
 C63 C 0.26076 0.64691 1.03301
 O64 O 0.26574 0.62284 1.02123
 O65 O 0.33099 0.62132 1.02848
 C66 C 0.36703 0.63692 1.03292
 Cr67 Cr 0.38916 0.70139 1.00183
 Cr68 Cr 0.30619 0.70568 1.00158
 Cr69 Cr 0.30545 0.62395 1.00142
 O70 O 0.33354 0.67698 1.00161
 O71 O 0.60694 0.32178 0.97231
 O72 O 0.60818 0.25901 0.97897
 C73 C 0.63354 0.25397 0.96762
 O74 O 0.66946 0.27053 0.97252
 O75 O 0.73313 0.33213 0.97915
 C76 C 0.73689 0.36059 0.96770
 O77 O 0.71821 0.37828 0.97256
 O78 O 0.65252 0.37951 0.98015
 C79 C 0.62380 0.35635 0.96817
 O80 O 0.60424 0.33120 1.01946
 O81 O 0.60857 0.26947 1.02586
 C82 C 0.62917 0.25375 1.03088
 O83 O 0.65987 0.25957 1.01972
 O84 O 0.72166 0.32211 1.02642
 C85 C 0.73778 0.35650 1.03101
 O86 O 0.73139 0.37970 1.01924
 O87 O 0.66396 0.37682 1.02692
 C88 C 0.62796 0.35906 1.03145
 Cr89 Cr 0.60916 0.29646 0.99917
 Cr90 Cr 0.69488 0.29709 0.99943
 Cr91 Cr 0.69047 0.37649 0.99970
 O92 O 0.66483 0.32326 0.99942
 O93 O 0.65206 0.38014 0.52133
 O94 O 0.71742 0.37810 0.52861
 C95 C 0.73612 0.36031 0.53310
 O96 O 0.73197 0.33191 0.52147
 O97 O 0.66770 0.27101 0.52863
 C98 C 0.63166 0.25439 0.53320
 O99 O 0.60656 0.25940 0.52148
 O100 O 0.60598 0.32238 0.52882
 C101 C 0.62315 0.35689 0.53319
 O102 O 0.66339 0.37822 0.47447
 O103 O 0.73023 0.37961 0.48187
 C104 C 0.73597 0.35618 0.46989
 O105 O 0.71940 0.32167 0.47435
 O106 O 0.65692 0.25906 0.48171
 C107 C 0.62715 0.25462 0.46997
 O108 O 0.60780 0.27173 0.47455
 O109 O 0.60355 0.33300 0.48186
 C110 C 0.62736 0.36091 0.46999
 Cr111 Cr 0.68974 0.37697 0.50158
 Cr112 Cr 0.69292 0.29696 0.50154
 Cr113 Cr 0.60808 0.29762 0.50168
 O114 O 0.66359 0.32383 0.50165
 O115 O 0.33243 0.62179 0.52677
 O116 O 0.26723 0.62372 0.51893
 C117 C 0.26228 0.64810 0.53032
 O118 O 0.28014 0.68248 0.52556
 O119 O 0.34482 0.74342 0.51852
 C120 C 0.37402 0.74661 0.53036
 O121 O 0.39218 0.72827 0.52593
 O122 O 0.39304 0.66541 0.51936
 C123 C 0.36848 0.63808 0.53130
 O124 O 0.34345 0.61851 0.48009
 O125 O 0.27981 0.62377 0.47232
 C126 C 0.26306 0.64316 0.46715
 O127 O 0.26875 0.67247 0.47830
 O128 O 0.33468 0.73194 0.47169
 C129 C 0.37066 0.74659 0.46713
 O130 O 0.39449 0.73963 0.47875
 O131 O 0.39137 0.67517 0.47216
 C132 C 0.37266 0.64065 0.46802
 Cr133 Cr 0.30684 0.62405 0.49950
 Cr134 Cr 0.30808 0.70638 0.49855
 Cr135 Cr 0.39067 0.70122 0.49905
 O136 O 0.33518 0.67725 0.49899
 C137 C 0.44679 0.53928 0.33140
 N138 N 0.46125 0.51480 0.33353
 N139 N 0.47098 0.50187 0.31444
 C140 C 0.46619 0.51237 0.29241
 N141 N 0.45129 0.53668 0.29052
 N142 N 0.44204 0.55003 0.30955
 C143 C 0.43682 0.55437 0.35228
 N144 N 0.43519 0.58697 0.35086
 N145 N 0.42610 0.60087 0.36971
 C146 C 0.41780 0.58243 0.39057
 N147 N 0.41922 0.54971 0.39198
 N148 N 0.42885 0.53604 0.37320
 C149 C 0.40701 0.59757 0.41110
 N150 N 0.38608 0.57505 0.42906
 N151 N 0.37520 0.58876 0.44727
 C152 C 0.38534 0.62555 0.44832
 N153 N 0.40661 0.64809 0.43048
 N154 N 0.41703 0.63431 0.41213
 C155 C 0.46426 0.91574 0.33149
 N156 N 0.47261 0.90341 0.31117
 N157 N 0.48344 0.92489 0.29205
 C158 C 0.48715 0.95989 0.29252
 N159 N 0.47870 0.97202 0.31299
 N160 N 0.46730 0.95037 0.33204
 C161 C 0.45154 0.89170 0.35235
 N162 N 0.42946 0.89658 0.36915
 N163 N 0.41700 0.87400 0.38776
 C164 C 0.42669 0.84611 0.39038
 N165 N 0.44910 0.84149 0.37370
 N166 N 0.46107 0.86371 0.35493
 C167 C 0.41260 0.82091 0.41066
 N168 N 0.43179 0.80206 0.41794
 N169 N 0.41869 0.77875 0.43615
 C170 C 0.38562 0.77304 0.44751
 N171 N 0.36632 0.79176 0.44017
 N172 N 0.37974 0.81548 0.42217
 C173 C 0.08583 0.55844 0.33122
 N174 N 0.05818 0.52243 0.32968
 N175 N 0.03488 0.51043 0.31097
 C176 C 0.03816 0.53385 0.29298
 N177 N 0.06660 0.56974 0.29436
 N178 N 0.08969 0.58189 0.31320
 C179 C 0.11155 0.57147 0.35185
 N180 N 0.13297 0.60837 0.35638
 N181 N 0.15635 0.62000 0.37511
 C182 C 0.15943 0.59514 0.38985
 N183 N 0.13810 0.55827 0.38527
 N184 N 0.11444 0.54665 0.36669
 C185 C 0.18587 0.60772 0.41018
 N186 N 0.19656 0.58407 0.42098
 N187 N 0.22108 0.59542 0.43915
 C188 C 0.23547 0.63073 0.44739
 N189 N 0.22457 0.65436 0.43671
 N190 N 0.20034 0.64311 0.41835
 C191 C 0.53472 0.44596 0.33319
 N192 N 0.49690 0.42825 0.32631
 N193 N 0.48535 0.43912 0.30703
 C194 C 0.51119 0.46823 0.29405
 N195 N 0.54904 0.48572 0.30078
 N196 N 0.56057 0.47485 0.32006
 C197 C 0.54776 0.43376 0.35421
 N198 N 0.58570 0.45146 0.36079
 N199 N 0.59784 0.44015 0.37960
 C200 C 0.57250 0.41072 0.39255
 N201 N 0.53451 0.39304 0.38602
 N202 N 0.52235 0.40437 0.36719
 C203 C 0.58631 0.39801 0.41300
 N204 N 0.56146 0.36823 0.42592
 N205 N 0.57438 0.35648 0.44421
 C206 C 0.61262 0.37410 0.45022
 N207 N 0.63739 0.40391 0.43732
 N208 N 0.62448 0.41564 0.41907
 C209 C 0.54460 0.08665 0.33338
 N210 N 0.51945 0.08884 0.31762
 N211 N 0.50918 0.06779 0.29832
 C212 C 0.52340 0.04350 0.29418
 N213 N 0.54879 0.04145 0.30985
 N214 N 0.55916 0.06262 0.32914
 C215 C 0.55628 0.11046 0.35439
 N216 N 0.58406 0.11108 0.36921
 N217 N 0.59504 0.13334 0.38800
 C218 C 0.57854 0.15567 0.39266
 N219 N 0.55067 0.15489 0.37790
 N220 N 0.53978 0.13275 0.35910
 C221 C 0.59089 0.18073 0.41308
 N222 N 0.57272 0.20144 0.41818
 N223 N 0.58415 0.22472 0.43642
 C224 C 0.61425 0.22827 0.45021
 N225 N 0.63243 0.20753 0.44514
 N226 N 0.62092 0.18414 0.42692
 C227 C 0.90873 0.44849 0.33225
 N228 N 0.93745 0.48411 0.33137
 N229 N 0.95988 0.49683 0.31233
 C230 C 0.95473 0.47450 0.29338
 N231 N 0.92533 0.43901 0.29421
 N232 N 0.90301 0.42617 0.31330
 C233 C 0.88389 0.43451 0.35321
 N234 N 0.85840 0.39782 0.35537
 N235 N 0.83566 0.38522 0.37431
 C236 C 0.83743 0.40888 0.39172
 N237 N 0.86291 0.44558 0.38955
 N238 N 0.88581 0.45814 0.37068
 C239 C 0.81177 0.39514 0.41235
 N240 N 0.80925 0.41932 0.42790
 N241 N 0.78530 0.40690 0.44632
 C242 C 0.76319 0.36984 0.44996
 N243 N 0.76590 0.34565 0.43449
 N244 N 0.78967 0.35807 0.41599
 C245 C 0.53679 0.44445 1.16865
 N246 N 0.49984 0.43954 1.17039
 N247 N 0.48846 0.45101 1.18948
 C248 C 0.51361 0.46774 1.20753
 N249 N 0.55043 0.47232 1.20584
 N250 N 0.56186 0.46107 1.18671
 C251 C 0.54961 0.43182 1.14775
 N252 N 0.58779 0.44141 1.14484
 N253 N 0.59970 0.42989 1.12605
 C254 C 0.57385 0.40812 1.10953
 N255 N 0.53560 0.39843 1.11243
 N256 N 0.52371 0.41016 1.13119
 C257 C 0.58740 0.39539 1.08899
 N258 N 0.56185 0.36930 1.07406
 N259 N 0.57460 0.35760 1.05567
 C260 C 0.61334 0.37177 1.05150
 N261 N 0.63878 0.39793 1.06638
 N262 N 0.62607 0.40943 1.08481
 C263 C 0.91024 0.44807 1.16883
 N264 N 0.94075 0.48278 1.16916
 N265 N 0.96253 0.49566 1.18844
 C266 C 0.95482 0.47450 1.20825
 N267 N 0.92387 0.43983 1.20784
 N268 N 0.90221 0.42679 1.18852
 C269 C 0.88577 0.43414 1.14771
 N270 N 0.85896 0.39780 1.14598
 N271 N 0.83635 0.38533 1.12698
 C272 C 0.83952 0.40880 1.10909
 N273 N 0.86632 0.44515 1.11082
 N274 N 0.88913 0.45756 1.12975
 C275 C 0.81387 0.39523 1.08843
 N276 N 0.81176 0.41949 1.07275
 N277 N 0.78771 0.40719 1.05436
 C278 C 0.76512 0.37015 1.05088
 N279 N 0.76744 0.34589 1.06648
 N280 N 0.79128 0.35821 1.08496
 C281 C 0.54789 0.08932 1.16891
 N282 N 0.55953 0.10449 1.19057
 N283 N 0.54821 0.08322 1.20977
 C284 C 0.52530 0.04576 1.20820
 N285 N 0.51409 0.03084 1.18634
 N286 N 0.52480 0.05213 1.16712
 C287 C 0.56020 0.11280 1.14781
 N288 N 0.53695 0.10381 1.12849
 N289 N 0.54790 0.12562 1.10949
 C290 C 0.58277 0.15679 1.10901
 N291 N 0.60618 0.16555 1.12824
 N292 N 0.59494 0.14410 1.14738
 C293 C 0.59472 0.18106 1.08827
 N294 N 0.63295 0.20135 1.08279
 N295 N 0.64388 0.22398 1.06419
 C296 C 0.61699 0.22757 1.05066
 N297 N 0.57876 0.20743 1.05621
 N298 N 0.56779 0.18431 1.07457
 C299 C 0.44717 0.53465 1.16674
 N300 N 0.48416 0.54015 1.16978
 N301 N 0.49394 0.52783 1.18915
 C302 C 0.46710 0.50962 1.20615
 N303 N 0.43021 0.50427 1.20308
 N304 N 0.42039 0.51637 1.18370
 C305 C 0.43619 0.54909 1.14589
 N306 N 0.39834 0.54007 1.14213
 N307 N 0.38805 0.55383 1.12372
 C308 C 0.41524 0.57735 1.10844
 N309 N 0.45317 0.58640 1.11214
 N310 N 0.46346 0.57244 1.13053
 C311 C 0.40337 0.59284 1.08850
 N312 N 0.43006 0.61985 1.07455
 N313 N 0.41870 0.63409 1.05679
 C314 C 0.38025 0.62169 1.05235
 N315 N 0.35370 0.59463 1.06627
 N316 N 0.36503 0.58056 1.08404
 C317 C 0.08422 0.56016 1.16924
 N318 N 0.06405 0.52319 1.17379
 N319 N 0.04133 0.51090 1.19272
 C320 C 0.03765 0.53507 1.20776
 N321 N 0.05823 0.57213 1.20339
 N322 N 0.08097 0.58444 1.18441
 C323 C 0.10960 0.57344 1.14845
 N324 N 0.12982 0.61032 1.14354
 N325 N 0.15318 0.62215 1.12481
 C326 C 0.15719 0.59751 1.11034
 N327 N 0.13691 0.56065 1.11524
 N328 N 0.11354 0.54884 1.13394
 C329 C 0.18348 0.61041 1.08994
 N330 N 0.18855 0.58568 1.07617
 N331 N 0.21293 0.59729 1.05792
 C332 C 0.23309 0.63407 1.05275
 N333 N 0.22793 0.65881 1.06647
 N334 N 0.20357 0.64720 1.08474
 C335 C 0.46295 0.91690 1.16843
 N336 N 0.44327 0.93535 1.17555
 N337 N 0.45472 0.95715 1.19452
 C338 C 0.48648 0.96152 1.20692
 N339 N 0.50591 0.94277 1.19998
 N340 N 0.49444 0.92096 1.18102
 C341 C 0.44993 0.89231 1.14780
 N342 N 0.46897 0.87302 1.14118
 N343 N 0.45680 0.85018 1.12272
 C344 C 0.42515 0.84580 1.11019
 N345 N 0.40616 0.86518 1.11677
 N346 N 0.41833 0.88801 1.13525
 C347 C 0.41150 0.82015 1.09009
 N348 N 0.37996 0.81566 1.07739
 N349 N 0.36743 0.79200 1.05932
 C350 C 0.38600 0.77196 1.05333
 N351 N 0.41754 0.77651 1.06602
 N352 N 0.43007 0.80016 1.08406
 C353 C 0.53126 0.44622 0.66810
 N354 N 0.51145 0.42238 0.68579
 N355 N 0.50137 0.43456 0.70506
 C356 C 0.51040 0.47098 0.70728
 N357 N 0.53021 0.49479 0.68955
 N358 N 0.54045 0.48265 0.67033
 C359 C 0.54362 0.43299 0.64728
 N360 N 0.56788 0.45744 0.63111
 N361 N 0.58002 0.44548 0.61260
 C362 C 0.56822 0.40863 0.60954
 N363 N 0.54378 0.38418 0.62563
 N364 N 0.53179 0.39615 0.64419
 C365 C 0.58212 0.39537 0.58942
 N366 N 0.56758 0.35838 0.58531
 N367 N 0.58051 0.34621 0.56730
 C368 C 0.60861 0.37056 0.55279
 N369 N 0.62319 0.40758 0.55689
 N370 N 0.61011 0.41977 0.57485
 C371 C 0.54605 0.08422 0.66895
 N372 N 0.57254 0.07923 0.68204
 N373 N 0.56146 0.05723 0.70094
 C374 C 0.52345 0.03919 0.70731
 N375 N 0.49699 0.04453 0.69442
 N376 N 0.50808 0.06655 0.67552
 C377 C 0.55842 0.10877 0.64824
 N378 N 0.53212 0.11421 0.63524
 N379 N 0.54350 0.13681 0.61661
 C380 C 0.58158 0.15478 0.61031
 N381 N 0.60783 0.14927 0.62328
 N382 N 0.59647 0.12668 0.64190
 C383 C 0.59434 0.18015 0.58999
 N384 N 0.63254 0.19839 0.58402
 N385 N 0.64433 0.22183 0.56583
 C386 C 0.61836 0.22790 0.55293
 N387 N 0.58013 0.20959 0.55887
 N388 N 0.56833 0.18613 0.57707
 C389 C 0.91555 0.45022 0.66769
 N390 N 0.93633 0.48728 0.67180
 N391 N 0.95840 0.49979 0.69098
 C392 C 0.96044 0.47571 0.70683
 N393 N 0.93944 0.43860 0.70283
 N394 N 0.91756 0.42608 0.68353
 C395 C 0.89033 0.43666 0.64688
 N396 N 0.87411 0.40030 0.64048
 N397 N 0.85055 0.38809 0.62185
 C398 C 0.84214 0.41175 0.60910
 N399 N 0.85838 0.44807 0.61552
 N400 N 0.88216 0.46032 0.63401
 C401 C 0.81517 0.39834 0.58906
 N402 N 0.80050 0.42001 0.57981
 N403 N 0.77539 0.40783 0.56196
 C404 C 0.76426 0.37365 0.55255
 N405 N 0.77912 0.35201 0.56169
 N406 N 0.80401 0.36409 0.57971
 C407 C 0.45868 0.55054 0.66799
 N408 N 0.44477 0.51364 0.67220
 N409 N 0.45537 0.50193 0.69149
 C410 C 0.48013 0.52668 0.70732
 N411 N 0.49383 0.56360 0.70320
 N412 N 0.48349 0.57532 0.68380
 C413 C 0.44621 0.56335 0.64701
 N414 N 0.46528 0.59951 0.64018
 N415 N 0.45349 0.61117 0.62134
 C416 C 0.42198 0.58717 0.60880
 N417 N 0.40289 0.55103 0.61566
 N418 N 0.41489 0.53931 0.63436
 C419 C 0.40837 0.60016 0.58841
 N420 N 0.37236 0.57892 0.57933
 N421 N 0.35965 0.59098 0.56112
 C422 C 0.38264 0.62457 0.55118
 N423 N 0.41876 0.64571 0.56016
 N424 N 0.43133 0.63380 0.57852
 C425 C 0.45429 0.91190 0.66813
 N426 N 0.47186 0.94952 0.66643
 N427 N 0.48249 0.97054 0.68579
 C428 C 0.47550 0.95500 0.70766
 N429 N 0.45755 0.91720 0.70908
 N430 N 0.44741 0.89614 0.68980
 C431 C 0.44340 0.88837 0.64702
 N432 N 0.43938 0.85339 0.64822
 N433 N 0.42938 0.83169 0.62922
 C434 C 0.42248 0.84397 0.60839
 N435 N 0.42627 0.87890 0.60718
 N436 N 0.43683 0.90083 0.62613
 C437 C 0.41078 0.81952 0.58770
 N438 N 0.39040 0.82454 0.56984
 N439 N 0.37868 0.80137 0.55150
 C440 C 0.38742 0.77269 0.55023
 N441 N 0.40814 0.76794 0.56798
 N442 N 0.41936 0.79078 0.58645
 C443 C 0.08704 0.56109 0.66692
 N444 N 0.08959 0.58474 0.68454
 N445 N 0.06824 0.57199 0.70401
 C446 C 0.04331 0.53518 0.70651
 N447 N 0.04092 0.51160 0.68887
 N448 N 0.06231 0.52431 0.66945
 C449 C 0.11150 0.57469 0.64579
 N450 N 0.11161 0.55030 0.62949
 N451 N 0.13463 0.56231 0.61067
 C452 C 0.15829 0.59918 0.60738
 N453 N 0.15801 0.62365 0.62359
 N454 N 0.13507 0.61161 0.64249
 C455 C 0.18450 0.61212 0.58696
 N456 N 0.20656 0.64900 0.58264
 N457 N 0.23102 0.66053 0.56442
 C458 C 0.23440 0.63559 0.54993
 N459 N 0.21228 0.59873 0.55424
 N460 N 0.18772 0.58722 0.57238
 C461 C 0.45941 0.55180 0.83345
 N462 N 0.44891 0.51515 0.83071
 N463 N 0.45931 0.50315 0.81148
 C464 C 0.48064 0.52735 0.79429
 N465 N 0.49092 0.56397 0.79699
 N466 N 0.48066 0.57600 0.81626
 C467 C 0.44723 0.56498 0.85437
 N468 N 0.46049 0.60193 0.85802
 N469 N 0.44892 0.61394 0.87675
 C470 C 0.42352 0.58946 0.89245
 N471 N 0.41026 0.55249 0.88882
 N472 N 0.42197 0.54047 0.87013
 C473 C 0.41032 0.60288 0.91282
 N474 N 0.38164 0.57874 0.92713
 N475 N 0.36932 0.59116 0.94535
 C476 C 0.38538 0.62817 0.94996
 N477 N 0.41415 0.65224 0.93569
 N478 N 0.42633 0.63984 0.91744
 C479 C 0.08712 0.55985 0.83268
 N480 N 0.05570 0.52573 0.83231
 N481 N 0.03422 0.51329 0.81290
 C482 C 0.04333 0.53422 0.79295
 N483 N 0.07517 0.56831 0.79338
 N484 N 0.09644 0.58100 0.81289
 C485 C 0.11140 0.57293 0.85389
 N486 N 0.13609 0.60962 0.85707
 N487 N 0.15870 0.62117 0.87614
 C488 C 0.15773 0.59637 0.89253
 N489 N 0.13308 0.55971 0.88930
 N490 N 0.11015 0.54822 0.87041
 C491 C 0.18380 0.60864 0.91299
 N492 N 0.19255 0.58421 0.92452
 N493 N 0.21711 0.59531 0.94267
 C494 C 0.23341 0.63113 0.95016
 N495 N 0.22438 0.65553 0.93878
 N496 N 0.20019 0.64453 0.92041
 C497 C 0.45616 0.91293 0.83293
 N498 N 0.48769 0.94705 0.83315
 N499 N 0.49820 0.96800 0.81373
 C500 C 0.47782 0.95568 0.79329
 N501 N 0.44658 0.92123 0.79324
 N502 N 0.43580 0.90046 0.81263
 C503 C 0.44387 0.88955 0.85414
 N504 N 0.40779 0.86006 0.85513
 N505 N 0.39632 0.83831 0.87410
 C506 C 0.42062 0.84495 0.89270
 N507 N 0.45682 0.87440 0.89173
 N508 N 0.46820 0.89644 0.87281
 C509 C 0.40758 0.82031 0.91332
 N510 N 0.43333 0.82021 0.92951
 N511 N 0.42108 0.79685 0.94778
 C512 C 0.38263 0.77307 0.95060
 N513 N 0.35698 0.77345 0.93450
 N514 N 0.36923 0.79649 0.91616
 C515 C 0.53214 0.44669 0.83350
 N516 N 0.51118 0.42266 0.81618
 N517 N 0.50097 0.43481 0.79693
 C518 C 0.51101 0.47142 0.79438
 N519 N 0.53203 0.49545 0.81171
 N520 N 0.54238 0.48332 0.83092
 C521 C 0.54448 0.43339 0.85432
 N522 N 0.56932 0.45779 0.87029
 N523 N 0.58136 0.44570 0.88881
 C524 C 0.56889 0.40876 0.89207
 N525 N 0.54387 0.38437 0.87617
 N526 N 0.53196 0.39647 0.85762
 C527 C 0.58270 0.39533 0.91217
 N528 N 0.56795 0.35831 0.91626
 N529 N 0.58087 0.34597 0.93421
 C530 C 0.60915 0.37019 0.94869
 N531 N 0.62391 0.40724 0.94462
 N532 N 0.61087 0.41959 0.92670
 C533 C 0.91381 0.45020 0.83189
 N534 N 0.93147 0.48693 0.82641
 N535 N 0.95407 0.49936 0.80743
 C536 C 0.95983 0.47550 0.79322
 N537 N 0.94184 0.43867 0.79854
 N538 N 0.91940 0.42626 0.81762
 C539 C 0.88845 0.43669 0.85264
 N540 N 0.87473 0.40107 0.86023
 N541 N 0.85136 0.38893 0.87894
 C542 C 0.84069 0.41193 0.89062
 N543 N 0.85441 0.44750 0.88301
 N544 N 0.87795 0.45969 0.86443
 C545 C 0.81423 0.39858 0.91089
 N546 N 0.79854 0.41961 0.91980
 N547 N 0.77400 0.40748 0.93793
 C548 C 0.76446 0.37398 0.94796
 N549 N 0.78030 0.35299 0.93914
 N550 N 0.80466 0.36503 0.92087
 C551 C 0.54939 0.08400 0.83184
 N552 N 0.51115 0.06071 0.82792
 N553 N 0.49997 0.03874 0.80901
 C554 C 0.52665 0.03915 0.79339
 N555 N 0.56485 0.06277 0.79715
 N556 N 0.57603 0.08466 0.81609
 C557 C 0.56176 0.10852 0.85255
 N558 N 0.60012 0.13025 0.85713
 N559 N 0.61139 0.15280 0.87575
 C560 C 0.58471 0.15455 0.89045
 N561 N 0.54633 0.13280 0.88589
 N562 N 0.53506 0.11015 0.86730
 C563 C 0.59724 0.17989 0.91077
 N564 N 0.57078 0.18395 0.92445
 N565 N 0.58229 0.20741 0.94263
 C566 C 0.62067 0.22758 0.94784
 N567 N 0.64710 0.22341 0.93421
 N568 N 0.63560 0.20004 0.91599
   
