data_POSCAR
  _audit_creation_date              2014-09-24
  _audit_creation_method            'ToBaCCo'
  _symmetry_space_group_name_H-M    'P1'
  _symmetry_Int_Tables_number       1
  _symmetry_cell_setting            triclinic
  loop_
  _symmetry_equiv_pos_as_xyz
 x,y,z
_cell_length_a 38.5388
_cell_length_b 38.5226
_cell_length_c 38.6022
_cell_angle_alpha 89.919100
_cell_angle_beta 89.945000
_cell_angle_gamma 90.017600
loop_
  _atom_site_label
  _atom_site_type_symbol
  _atom_site_fract_x
  _atom_site_fract_y
  _atom_site_fract_z
C1 C 0.25017 0.27627 0.22360
 C2 C 0.27605 0.27609 0.19801
 C3 C 0.30172 0.25035 0.19809
 C4 C 0.30174 0.22459 0.22374
 C5 C 0.27606 0.22437 0.24953
 C6 C 0.25014 0.25031 0.24951
 C7 C 0.22433 0.30192 0.22377
 C8 C 0.19862 0.30183 0.24945
 C9 C 0.19853 0.27613 0.27516
 C10 C 0.22417 0.25028 0.27539
 C11 C 0.22433 0.22441 0.30100
 C12 C 0.25006 0.19872 0.30097
 C13 C 0.27583 0.19869 0.27534
 H14 H 0.27626 0.29592 0.17803
 H15 H 0.32173 0.20477 0.22357
 H16 H 0.22417 0.32193 0.20398
 H17 H 0.17850 0.27630 0.29493
 H18 H 0.20449 0.22420 0.32095
 H19 H 0.29563 0.17869 0.27555
 C20 C 0.74959 -0.27614 0.22365
 C21 C 0.72367 -0.27602 0.19815
 C22 C 0.69789 -0.25035 0.19828
 C23 C 0.69786 -0.22461 0.22393
 C24 C 0.72360 -0.22436 0.24961
 C25 C 0.74960 -0.25022 0.24952
 C26 C 0.77551 -0.30172 0.22375
 C27 C 0.80129 -0.30162 0.24935
 C28 C 0.80134 -0.27592 0.27503
 C29 C 0.77562 -0.25015 0.27530
 C30 C 0.77542 -0.22432 0.30088
 C31 C 0.74962 -0.19872 0.30092
 C32 C 0.72380 -0.19872 0.27540
 H33 H 0.72355 -0.29588 0.17824
 H34 H 0.67784 -0.20480 0.22389
 H35 H 0.77561 -0.32169 0.20395
 H36 H 0.82136 -0.27597 0.29478
 H37 H 0.79530 -0.22408 0.32077
 H38 H 0.70394 -0.17878 0.27566
 C39 C 0.75026 0.27655 0.77596
 C40 C 0.72442 0.27630 0.80159
 C41 C 0.69875 0.25050 0.80159
 C42 C 0.69876 0.22475 0.77596
 C43 C 0.72442 0.22463 0.75014
 C44 C 0.75031 0.25062 0.75010
 C45 C 0.77606 0.30226 0.77573
 C46 C 0.80177 0.30228 0.75001
 C47 C 0.80185 0.27658 0.72432
 C48 C 0.77624 0.25068 0.72419
 C49 C 0.77609 0.22484 0.69861
 C50 C 0.75039 0.19911 0.69871
 C51 C 0.72466 0.19899 0.72437
 H52 H 0.72427 0.29616 0.82150
 H53 H 0.67883 0.20485 0.77610
 H54 H 0.77614 0.32222 0.79554
 H55 H 0.82182 0.27673 0.70448
 H56 H 0.79589 0.22470 0.67863
 H57 H 0.70488 0.17895 0.72421
 C58 C 0.24940 -0.27698 0.77688
 C59 C 0.27518 -0.27680 0.80251
 C60 C 0.30094 -0.25113 0.80240
 C61 C 0.30114 -0.22544 0.77667
 C62 C 0.27556 -0.22523 0.75084
 C63 C 0.24954 -0.25109 0.75090
 C64 C 0.22347 -0.30256 0.77675
 C65 C 0.19783 -0.30250 0.75101
 C66 C 0.19794 -0.27683 0.72521
 C67 C 0.22367 -0.25107 0.72497
 C68 C 0.22402 -0.22527 0.69928
 C69 C 0.24983 -0.19966 0.69928
 C70 C 0.27551 -0.19963 0.72495
 H71 H 0.27526 -0.29657 0.82255
 H72 H 0.32120 -0.20568 0.77681
 H73 H 0.22325 -0.32249 0.79665
 H74 H 0.17802 -0.27692 0.70536
 H75 H 0.20425 -0.22506 0.67930
 H76 H 0.29538 -0.17968 0.72471
 C77 C 0.75021 -0.27640 0.77656
 C78 C 0.72441 -0.27621 0.80222
 C79 C 0.69870 -0.25051 0.80214
 C80 C 0.69855 -0.22482 0.77643
 C81 C 0.72415 -0.22462 0.75057
 C82 C 0.75012 -0.25051 0.75059
 C83 C 0.77608 -0.30201 0.77640
 C84 C 0.80174 -0.30196 0.75063
 C85 C 0.80170 -0.27630 0.72484
 C86 C 0.77601 -0.25051 0.72464
 C87 C 0.77573 -0.22471 0.69896
 C88 C 0.74995 -0.19908 0.69900
 C89 C 0.72426 -0.19902 0.72469
 H90 H 0.72428 -0.29598 0.82225
 H91 H 0.67852 -0.20504 0.77660
 H92 H 0.77626 -0.32195 0.79629
 H93 H 0.82163 -0.27641 0.70496
 H94 H 0.79551 -0.22451 0.67895
 H95 H 0.70442 -0.17906 0.72449
 C96 C 0.25004 0.27575 0.77562
 C97 C 0.27596 0.27560 0.80110
 C98 C 0.30169 0.24993 0.80094
 C99 C 0.30173 0.22420 0.77533
 C100 C 0.27601 0.22396 0.74965
 C101 C 0.25002 0.24984 0.74974
 C102 C 0.22415 0.30134 0.77552
 C103 C 0.19840 0.30123 0.74993
 C104 C 0.19831 0.27557 0.72425
 C105 C 0.22400 0.24979 0.72396
 C106 C 0.22417 0.22397 0.69838
 C107 C 0.24997 0.19836 0.69835
 C108 C 0.27579 0.19834 0.72387
 H109 H 0.27617 0.29540 0.82105
 H110 H 0.32177 0.20444 0.77545
 H111 H 0.22398 0.32132 0.79528
 H112 H 0.17825 0.27573 0.70456
 H113 H 0.20430 0.22374 0.67850
 H114 H 0.29564 0.17839 0.72361
 C115 C 0.24974 -0.27664 0.22350
 C116 C 0.27569 -0.27653 0.19799
 C117 C 0.30157 -0.25095 0.19819
 C118 C 0.30169 -0.22529 0.22391
 C119 C 0.27593 -0.22503 0.24960
 C120 C 0.24981 -0.25079 0.24945
 C121 C 0.22373 -0.30212 0.22355
 C122 C 0.19792 -0.30199 0.24917
 C123 C 0.19794 -0.27637 0.27492
 C124 C 0.22377 -0.25071 0.27524
 C125 C 0.22403 -0.22496 0.30090
 C126 C 0.24995 -0.19946 0.30098
 C127 C 0.27580 -0.19948 0.27545
 H128 H 0.27576 -0.29633 0.17801
 H129 H 0.32179 -0.20556 0.22391
 H130 H 0.22356 -0.32203 0.20368
 H131 H 0.17789 -0.27642 0.29468
 H132 H 0.20414 -0.22470 0.32079
 H133 H 0.29574 -0.17961 0.27576
 C134 C 0.75088 0.27701 0.22387
 C135 C 0.72515 0.27672 0.19820
 C136 C 0.69955 0.25090 0.19824
 C137 C 0.69944 0.22518 0.22391
 C138 C 0.72498 0.22507 0.24979
 C139 C 0.75084 0.25109 0.24982
 C140 C 0.77665 0.30273 0.22408
 C141 C 0.80224 0.30277 0.24986
 C142 C 0.80225 0.27709 0.27562
 C143 C 0.77667 0.25117 0.27578
 C144 C 0.77642 0.22534 0.30143
 C145 C 0.75075 0.19959 0.30133
 C146 C 0.72513 0.19944 0.27563
 H147 H 0.72499 0.29652 0.17819
 H148 H 0.67950 0.20530 0.22370
 H149 H 0.77679 0.32269 0.20421
 H150 H 0.82214 0.27726 0.29551
 H151 H 0.79615 0.22520 0.32145
 H152 H 0.70537 0.17938 0.27579
 O153 O 0.27865 0.03309 0.46607
 O154 O 0.27866 -0.03452 0.53361
 O155 O 0.27866 -0.03449 0.46615
 O156 O 0.27863 0.03306 0.53351
 O157 O 0.22140 0.03303 0.53355
 O158 O 0.22143 -0.03452 0.46620
 O159 O 0.22143 -0.03455 0.53366
 O160 O 0.22142 0.03306 0.46612
 Cu161 Cu 0.28438 -0.00072 0.49983
 Cu162 Cu 0.21569 -0.00075 0.49989
 C163 C 0.25003 0.04467 0.45452
 C164 C 0.25005 -0.04612 0.54522
 C165 C 0.25005 -0.04608 0.45463
 C166 C 0.25001 0.04462 0.54507
 O167 O 0.77882 0.03373 0.53369
 O168 O 0.77864 -0.03375 0.46618
 O169 O 0.77886 0.03384 0.46625
 O170 O 0.77868 -0.03386 0.53364
 O171 O 0.72145 -0.03373 0.53370
 O172 O 0.72163 0.03398 0.46629
 O173 O 0.72141 -0.03361 0.46623
 O174 O 0.72159 0.03385 0.53373
 Cu175 Cu 0.78448 -0.00003 0.49993
 Cu176 Cu 0.71579 0.00013 0.49999
 C177 C 0.75023 0.04536 0.54528
 C178 C 0.74999 -0.04524 0.45463
 C179 C 0.75028 0.04552 0.45473
 C180 C 0.75004 -0.04539 0.54523
 O181 O 0.46717 0.27902 0.03288
 O182 O 0.53477 0.27902 -0.03462
 O183 O 0.46721 0.27894 -0.03456
 O184 O 0.53473 0.27911 0.03283
 O185 O 0.53478 0.22185 0.03298
 O186 O 0.46727 0.22169 -0.03441
 O187 O 0.53483 0.22177 -0.03448
 O188 O 0.46723 0.22177 0.03303
 Cu189 Cu 0.50097 0.28476 -0.00088
 Cu190 Cu 0.50104 0.21603 -0.00071
 C191 C 0.45561 0.25039 0.04452
 C192 C 0.54638 0.25040 -0.04612
 C193 C 0.45566 0.25029 -0.04603
 C194 C 0.54632 0.25051 0.04446
 O195 O 0.53359 0.77789 0.03496
 O196 O 0.46605 0.77774 -0.03247
 O197 O 0.46602 0.77775 0.03497
 O198 O 0.53359 0.77787 -0.03249
 O199 O 0.53369 0.72062 -0.03240
 O200 O 0.46611 0.72050 0.03506
 O201 O 0.46614 0.72049 -0.03238
 O202 O 0.53369 0.72064 0.03506
 Cu203 Cu 0.49980 0.78355 0.00124
 Cu204 Cu 0.49992 0.71483 0.00135
 C205 C 0.54522 0.74929 0.04656
 C206 C 0.45452 0.74909 -0.04399
 C207 C 0.45447 0.74911 0.04657
 C208 C 0.54522 0.74927 -0.04402
 O209 O 0.03326 0.46724 0.27792
 O210 O -0.03434 0.53479 0.27788
 O211 O -0.03428 0.46720 0.27802
 O212 O 0.03324 0.53481 0.27782
 O213 O 0.03323 0.53480 0.22069
 O214 O -0.03430 0.46719 0.22089
 O215 O -0.03435 0.53478 0.22075
 O216 O 0.03325 0.46722 0.22079
 Cu217 Cu -0.00053 0.50102 0.28364
 Cu218 Cu -0.00055 0.50100 0.21506
 C219 C 0.04484 0.45565 0.24936
 C220 C -0.04594 0.54636 0.24931
 C221 C -0.04585 0.45559 0.24949
 C222 C 0.04483 0.54638 0.24923
 O223 O 0.03316 0.53396 0.77917
 O224 O -0.03451 0.46643 0.77893
 O225 O 0.03304 0.46639 0.77896
 O226 O -0.03442 0.53403 0.77908
 O227 O -0.03431 0.53426 0.72195
 O228 O 0.03314 0.46663 0.72183
 O229 O -0.03440 0.46666 0.72179
 O230 O 0.03326 0.53420 0.72204
 Cu231 Cu -0.00070 0.50018 0.78476
 Cu232 Cu -0.00057 0.50047 0.71618
 C233 C 0.04482 0.54564 0.75065
 C234 C -0.04604 0.45496 0.75032
 C235 C 0.04466 0.45492 0.75037
 C236 C -0.04593 0.54574 0.75054
 C237 C 0.37673 0.25037 0.12326
 C238 C 0.38971 0.21895 0.11054
 C239 C 0.41538 0.21891 0.08492
 C240 C 0.32816 0.25036 0.17172
 C241 C 0.41519 0.28184 0.08464
 C242 C 0.38951 0.28180 0.11026
 C243 C 0.35030 0.25035 0.14963
 C244 C 0.42842 0.25038 0.07167
 H245 H 0.37999 0.19446 0.12043
 H246 H 0.42500 0.19426 0.07551
 H247 H 0.42465 0.30651 0.07500
 H248 H 0.37964 0.30627 0.11992
 C249 C 0.62415 0.74947 0.12513
 C250 C 0.61137 0.71802 0.11228
 C251 C 0.58568 0.71792 0.08673
 C252 C 0.67280 0.74959 0.17342
 C253 C 0.58543 0.78085 0.08676
 C254 C 0.61113 0.78087 0.11232
 C255 C 0.65061 0.74953 0.15141
 C256 C 0.57241 0.74935 0.07366
 H257 H 0.62128 0.69356 0.12202
 H258 H 0.57623 0.69324 0.07721
 H259 H 0.57579 0.80549 0.07727
 H260 H 0.62083 0.80537 0.12208
 C261 C 0.62521 0.25041 -0.12492
 C262 C 0.61230 0.21898 -0.11204
 C263 C 0.58665 0.21894 -0.08639
 C264 C 0.67375 0.25045 -0.17343
 C265 C 0.58673 0.28187 -0.08642
 C266 C 0.61238 0.28184 -0.11206
 C267 C 0.65162 0.25042 -0.15132
 C268 C 0.57356 0.25040 -0.07328
 H269 H 0.62206 0.19451 -0.12182
 H270 H 0.57709 0.19428 -0.07685
 H271 H 0.57722 0.30653 -0.07690
 H272 H 0.62220 0.30632 -0.12185
 C273 C 0.37575 0.74893 -0.12270
 C274 C 0.38859 0.71753 -0.10973
 C275 C 0.41423 0.71754 -0.08411
 C276 C 0.32730 0.74887 -0.17119
 C277 C 0.41425 0.78047 -0.08433
 C278 C 0.38862 0.78038 -0.10995
 C279 C 0.34938 0.74888 -0.14909
 C280 C 0.42736 0.74903 -0.07112
 H281 H 0.37880 0.69303 -0.11942
 H282 H 0.42374 0.69290 -0.07451
 H283 H 0.42379 0.80515 -0.07490
 H284 H 0.37886 0.80484 -0.11982
 C285 C 0.12368 0.37679 0.24938
 C286 C 0.11086 0.38973 0.21802
 C287 C 0.08520 0.41539 0.21797
 C288 C 0.17220 0.32825 0.24941
 C289 C 0.08510 0.41528 0.28077
 C290 C 0.11075 0.38961 0.28074
 C291 C 0.15008 0.35037 0.24939
 C292 C 0.07202 0.42847 0.24937
 H293 H 0.12069 0.37999 0.19359
 H294 H 0.07571 0.42498 0.19336
 H295 H 0.07552 0.42477 0.30538
 H296 H 0.12050 0.37977 0.30517
 C297 C 0.12399 0.62421 0.75093
 C298 C 0.11106 0.61119 0.78225
 C299 C 0.08528 0.58564 0.78220
 C300 C 0.17274 0.67257 0.75103
 C301 C 0.08527 0.58603 0.71940
 C302 C 0.11104 0.61159 0.71953
 C303 C 0.15052 0.65052 0.75101
 C304 C 0.07209 0.57275 0.75075
 H305 H 0.12091 0.62079 0.80671
 H306 H 0.07572 0.57598 0.80677
 H307 H 0.07568 0.57668 0.69475
 H308 H 0.12086 0.62149 0.69513
 C309 C -0.12496 0.62504 0.24927
 C310 C -0.11197 0.61227 0.28064
 C311 C -0.08625 0.58668 0.28069
 C312 C -0.17364 0.67344 0.24929
 C313 C -0.08640 0.58653 0.21789
 C314 C -0.11212 0.61212 0.21792
 C315 C -0.15145 0.65137 0.24927
 C316 C -0.07316 0.57350 0.24930
 H317 H -0.12172 0.62210 0.30507
 H318 H -0.07663 0.57722 0.30531
 H319 H -0.07690 0.57695 0.19329
 H320 H -0.12200 0.62182 0.19349
 C321 C -0.12480 0.37598 0.75008
 C322 C -0.11207 0.38884 0.78147
 C323 C -0.08645 0.41455 0.78159
 C324 C -0.17326 0.32733 0.74999
 C325 C -0.08621 0.41465 0.71879
 C326 C -0.11183 0.38894 0.71875
 C327 C -0.15117 0.34951 0.75001
 C328 C -0.07321 0.42776 0.75023
 H329 H -0.12194 0.37900 0.80588
 H330 H -0.07702 0.42407 0.80623
 H331 H -0.07659 0.42424 0.69421
 H332 H -0.12151 0.37916 0.69429
 C333 C 0.25001 0.12365 0.37580
 C334 C 0.21860 0.11080 0.38875
 C335 C 0.21857 0.08509 0.41436
 C336 C 0.25002 0.17227 0.32735
 C337 C 0.28147 0.08500 0.41417
 C338 C 0.28143 0.11070 0.38856
 C339 C 0.25001 0.15011 0.34944
 C340 C 0.25002 0.07189 0.42737
 H341 H 0.19413 0.12065 0.37905
 H342 H 0.19392 0.07558 0.42396
 H343 H 0.30613 0.07540 0.42362
 H344 H 0.30590 0.12047 0.37871
 C345 C 0.75038 0.12417 0.62395
 C346 C 0.78177 0.11130 0.61102
 C347 C 0.78176 0.08565 0.58543
 C348 C 0.75042 0.17270 0.67236
 C349 C 0.71886 0.08564 0.58559
 C350 C 0.71894 0.11129 0.61118
 C351 C 0.75042 0.15058 0.65029
 C352 C 0.75029 0.07252 0.57241
 H353 H 0.80626 0.12109 0.62072
 H354 H 0.80640 0.07612 0.57585
 H355 H 0.69419 0.07611 0.57614
 H356 H 0.69449 0.12107 0.62101
 C357 C 0.25003 -0.12485 0.62419
 C358 C 0.28145 -0.11193 0.61132
 C359 C 0.28149 -0.08632 0.58561
 C360 C 0.24995 -0.17329 0.67282
 C361 C 0.21859 -0.08646 0.58554
 C362 C 0.21862 -0.11207 0.61124
 C363 C 0.25001 -0.15121 0.65066
 C364 C 0.25005 -0.07328 0.57243
 H365 H 0.30592 -0.12165 0.62116
 H366 H 0.30615 -0.07674 0.57609
 H367 H 0.19394 -0.07699 0.57596
 H368 H 0.19415 -0.12189 0.62102
 C369 C 0.74976 -0.12388 0.37579
 C370 C 0.71838 -0.11089 0.38864
 C371 C 0.71842 -0.08531 0.41430
 C372 C 0.74964 -0.17232 0.32729
 C373 C 0.78132 -0.08559 0.41435
 C374 C 0.78121 -0.11118 0.38869
 C375 C 0.74968 -0.15023 0.34939
 C376 C 0.74991 -0.07235 0.42745
 H377 H 0.69388 -0.12055 0.37883
 H378 H 0.69380 -0.07569 0.42381
 H379 H 0.80600 -0.07619 0.42390
 H380 H 0.80565 -0.12105 0.37892
 C381 C 0.62393 0.74941 -0.12287
 C382 C 0.61120 0.71796 -0.10987
 C383 C 0.58559 0.71787 -0.08420
 C384 C 0.67234 0.74947 -0.17144
 C385 C 0.58535 0.78081 -0.08443
 C386 C 0.61096 0.78081 -0.11010
 C387 C 0.65027 0.74945 -0.14930
 C388 C 0.57237 0.74932 -0.07118
 H389 H 0.62107 0.69349 -0.11958
 H390 H 0.57616 0.69319 -0.07456
 H391 H 0.57573 0.80545 -0.07498
 H392 H 0.62064 0.80531 -0.12000
 C393 C 0.37678 0.25009 -0.12454
 C394 C 0.38977 0.21869 -0.11172
 C395 C 0.41545 0.21872 -0.08617
 C396 C 0.32816 0.24997 -0.17281
 C397 C 0.41525 0.28165 -0.08620
 C398 C 0.38957 0.28155 -0.11175
 C399 C 0.35033 0.25002 -0.15081
 C400 C 0.42849 0.25022 -0.07311
 H401 H 0.38004 0.19419 -0.12146
 H402 H 0.42507 0.19408 -0.07665
 H403 H 0.42472 0.30634 -0.07671
 H404 H 0.37968 0.30600 -0.12151
 C405 C 0.37540 0.74900 0.12506
 C406 C 0.38829 0.71759 0.11224
 C407 C 0.41405 0.71758 0.08671
 C408 C 0.32667 0.74899 0.17332
 C409 C 0.41409 0.78052 0.08673
 C410 C 0.38834 0.78044 0.11227
 C411 C 0.34889 0.74898 0.15132
 C412 C 0.42724 0.74907 0.07365
 H413 H 0.37844 0.69310 0.12198
 H414 H 0.42359 0.69293 0.07720
 H415 H 0.42368 0.80519 0.07724
 H416 H 0.37853 0.80491 0.12202
 C417 C 0.62494 0.25069 0.12324
 C418 C 0.61208 0.21923 0.11051
 C419 C 0.58650 0.21913 0.08485
 C420 C 0.67327 0.25081 0.17180
 C421 C 0.58656 0.28207 0.08458
 C422 C 0.61214 0.28209 0.11023
 C423 C 0.65124 0.25075 0.14966
 C424 C 0.57344 0.25057 0.07160
 H425 H 0.62182 0.19478 0.12041
 H426 H 0.57696 0.19445 0.07543
 H427 H 0.57707 0.30671 0.07494
 H428 H 0.62193 0.30659 0.11992
 C429 C -0.12470 0.62458 0.75062
 C430 C -0.11198 0.61153 0.78197
 C431 C -0.08633 0.58587 0.78199
 C432 C -0.17324 0.67308 0.75064
 C433 C -0.08605 0.58624 0.71918
 C434 C -0.11170 0.61190 0.71925
 C435 C -0.15111 0.65097 0.75064
 C436 C -0.07307 0.57293 0.75057
 H437 H -0.12188 0.62118 0.80641
 H438 H -0.07690 0.57619 0.80659
 H439 H -0.07641 0.57685 0.69456
 H440 H -0.12138 0.62184 0.69483
 C441 C -0.12445 0.37653 0.24974
 C442 C -0.11155 0.38939 0.28107
 C443 C -0.08597 0.41514 0.28102
 C444 C -0.17282 0.32784 0.24986
 C445 C -0.08613 0.41524 0.21822
 C446 C -0.11170 0.38950 0.21834
 C447 C -0.15077 0.35003 0.24982
 C448 C -0.07296 0.42836 0.24958
 H449 H -0.12125 0.37952 0.30553
 H450 H -0.07640 0.42466 0.30560
 H451 H -0.07668 0.42485 0.19358
 H452 H -0.12153 0.37971 0.19394
 C453 C 0.12342 0.37606 0.75017
 C454 C 0.11053 0.38900 0.71884
 C455 C 0.08489 0.41467 0.71887
 C456 C 0.17196 0.32758 0.75002
 C457 C 0.08493 0.41452 0.78167
 C458 C 0.11057 0.38885 0.78157
 C459 C 0.14982 0.34968 0.75009
 C460 C 0.07179 0.42772 0.75030
 H461 H 0.12030 0.37927 0.69438
 H462 H 0.07534 0.42426 0.69428
 H463 H 0.07542 0.42400 0.80631
 H464 H 0.12039 0.37901 0.80597
 C465 C 0.12395 0.62492 0.24907
 C466 C 0.11092 0.61219 0.28045
 C467 C 0.08515 0.58665 0.28054
 C468 C 0.17277 0.67316 0.24907
 C469 C 0.08532 0.58650 0.21773
 C470 C 0.11110 0.61205 0.21772
 C471 C 0.15051 0.65117 0.24904
 C472 C 0.07206 0.57350 0.24916
 H473 H 0.12070 0.62199 0.30486
 H474 H 0.07551 0.57720 0.30517
 H475 H 0.07581 0.57694 0.19314
 H476 H 0.12102 0.62174 0.19328
 C477 C 0.74990 -0.12423 0.62402
 C478 C 0.78134 -0.11149 0.61103
 C479 C 0.78141 -0.08584 0.58538
 C480 C 0.74989 -0.17271 0.67258
 C481 C 0.71851 -0.08560 0.58560
 C482 C 0.71850 -0.11125 0.61126
 C483 C 0.74987 -0.15061 0.65044
 C484 C 0.74998 -0.07259 0.57237
 H485 H 0.80579 -0.12137 0.62074
 H486 H 0.80608 -0.07640 0.57576
 H487 H 0.69387 -0.07596 0.57615
 H488 H 0.69402 -0.12094 0.62114
 C489 C 0.25004 -0.12476 0.37590
 C490 C 0.21863 -0.11200 0.38886
 C491 C 0.21859 -0.08639 0.41449
 C492 C 0.25000 -0.17314 0.32739
 C493 C 0.28150 -0.08625 0.41431
 C494 C 0.28146 -0.11185 0.38867
 C495 C 0.25003 -0.15109 0.34951
 C496 C 0.25005 -0.07322 0.42751
 H497 H 0.19416 -0.12182 0.37915
 H498 H 0.19394 -0.07693 0.42409
 H499 H 0.30615 -0.07668 0.42376
 H500 H 0.30593 -0.12157 0.37881
 C501 C 0.75055 0.12457 0.37615
 C502 C 0.71909 0.11169 0.38893
 C503 C 0.71896 0.08596 0.41451
 C504 C 0.75070 0.17317 0.32772
 C505 C 0.78187 0.08591 0.41460
 C506 C 0.78192 0.11164 0.38902
 C507 C 0.75064 0.15102 0.34980
 C508 C 0.75037 0.07277 0.42764
 H509 H 0.69466 0.12152 0.37913
 H510 H 0.69428 0.07641 0.42398
 H511 H 0.80649 0.07633 0.42414
 H512 H 0.80642 0.12145 0.37929
 C513 C 0.24997 0.12346 0.62364
 C514 C 0.28139 0.11054 0.61086
 C515 C 0.28145 0.08488 0.58528
 C516 C 0.24995 0.17197 0.67202
 C517 C 0.21853 0.08497 0.58520
 C518 C 0.21856 0.11063 0.61077
 C519 C 0.24995 0.14986 0.64996
 C520 C 0.25000 0.07180 0.57216
 H521 H 0.30585 0.12030 0.62066
 H522 H 0.30610 0.07531 0.57581
 H523 H 0.19389 0.07547 0.57565
 H524 H 0.19408 0.12046 0.62050
   
