data_POSCAR
  _audit_creation_date              2014-09-24
  _audit_creation_method            'ToBaCCo'
  _symmetry_space_group_name_H-M    'P1'
  _symmetry_Int_Tables_number       1
  _symmetry_cell_setting            triclinic
  loop_
  _symmetry_equiv_pos_as_xyz
 x,y,z
_cell_length_a 28.1323
_cell_length_b 31.1108
_cell_length_c 30.3790
_cell_angle_alpha 89.760100
_cell_angle_beta 90.216800
_cell_angle_gamma 90.150400
loop_
  _atom_site_label
  _atom_site_type_symbol
  _atom_site_fract_x
  _atom_site_fract_y
  _atom_site_fract_z
C1 C 0.28086 0.34488 0.01417
 C2 C 0.29605 0.33850 -0.02990
 C3 C 0.32453 0.30233 -0.03896
 C4 C 0.33767 0.27250 -0.00607
 C5 C 0.32449 0.28085 0.03812
 C6 C 0.29448 0.31552 0.04708
 H7 H 0.28564 0.32239 0.08106
 H8 H 0.33460 0.29611 -0.07271
 C9 C 0.71395 0.66841 0.02433
 C10 C 0.72379 0.66094 -0.02079
 C11 C 0.69797 0.68377 -0.05319
 C12 C 0.66434 0.71574 -0.04225
 C13 C 0.65888 0.72591 0.00301
 C14 C 0.68205 0.70123 0.03501
 H15 H 0.67590 0.70889 0.06929
 H16 H 0.70495 0.67678 -0.08748
 C17 C 0.73573 0.33850 0.96615
 C18 C 0.73674 0.35297 1.01050
 C19 C 0.70445 0.33430 1.04024
 C20 C 0.67465 0.29963 1.02891
 C21 C 0.67532 0.28452 0.98477
 C22 C 0.70479 0.30512 0.95388
 H23 H 0.70560 0.29344 0.92029
 H24 H 0.70386 0.34544 1.07380
 C25 C 0.25515 0.66859 0.97572
 C26 C 0.24952 0.65922 1.02111
 C27 C 0.28070 0.67900 1.05139
 C28 C 0.31467 0.71011 1.03847
 C29 C 0.31627 0.72195 0.99321
 C30 C 0.28777 0.70022 0.96279
 H31 H 0.29093 0.70847 0.92818
 H32 H 0.27727 0.67127 1.08598
 C33 C 0.00285 0.27261 0.34162
 C34 C -0.04540 0.28545 0.33767
 C35 C -0.05608 0.32133 0.31084
 C36 C -0.02016 0.34550 0.28992
 C37 C 0.02790 0.33219 0.29438
 C38 C 0.03838 0.29625 0.32025
 H39 H 0.07512 0.28610 0.32341
 H40 H -0.09259 0.33207 0.30818
 C41 C 0.05192 0.71213 0.65842
 C42 C 0.00361 0.72477 0.65176
 C43 C -0.03168 0.70408 0.67722
 C44 C -0.02098 0.67207 0.70879
 C45 C 0.02767 0.66231 0.71669
 C46 C 0.06277 0.68144 0.69064
 H47 H 0.09968 0.67265 0.69593
 H48 H -0.06847 0.71291 0.67238
 C49 C 0.99623 0.72095 0.34598
 C50 C 1.04467 0.71051 0.33965
 C51 C 1.05586 0.67368 0.31463
 C52 C 1.02020 0.64550 0.29880
 C53 C 0.97176 0.65629 0.30670
 C54 C 0.96086 0.69338 0.33008
 H55 H 0.92377 0.70172 0.33463
 H56 H 1.09288 0.66543 0.31005
 C57 C 0.95920 0.27681 0.66771
 C58 C 1.00864 0.27113 0.65984
 C59 C 1.04030 0.30321 0.67468
 C60 C 1.02437 0.34002 0.69694
 C61 C 0.97521 0.34573 0.70345
 C62 C 0.94372 0.31342 0.69024
 H63 H 0.90589 0.31891 0.69412
 H64 H 1.07817 0.29924 0.66969
 C65 C 0.34012 0.01794 0.27105
 C66 C 0.33152 -0.02641 0.27941
 C67 C 0.29811 -0.03703 0.31210
 C68 C 0.27616 -0.00634 0.33912
 C69 C 0.28718 0.03787 0.33194
 C70 C 0.31856 0.04896 0.29789
 H71 H 0.32650 0.08269 0.29226
 H72 H 0.28890 -0.07047 0.31671
 C73 C 0.65204 0.01772 0.71178
 C74 C 0.64272 -0.02680 0.71358
 C75 C 0.67412 -0.05532 0.69327
 C76 C 0.71322 -0.04084 0.66860
 C77 C 0.72163 0.00401 0.66534
 C78 C 0.69135 0.03236 0.68750
 H79 H 0.69840 0.06661 0.68551
 H80 H 0.66590 -0.08940 0.69433
 C81 C 0.30702 0.98473 0.73974
 C82 C 0.32387 1.02779 0.74181
 C83 C 0.31574 1.05513 0.70564
 C84 C 0.28998 1.04154 0.66828
 C85 C 0.27475 0.99805 0.66606
 C86 C 0.28171 0.97103 0.70248
 H87 H 0.27179 0.93742 0.69984
 H88 H 0.32724 1.08832 0.70778
 C89 C 0.67278 0.97918 0.25895
 C90 C 0.68608 1.02286 0.26352
 C91 C 0.71148 1.03610 0.30089
 C92 C 0.72298 1.00702 0.33509
 C93 C 0.71184 0.96265 0.32925
 C94 C 0.68691 0.94973 0.29151
 H95 H 0.67863 0.91596 0.28749
 H96 H 0.71904 1.07006 0.30444
 O97 O 0.91218 0.86027 0.45189
 O98 O 0.83555 0.89973 0.54085
 O99 O 0.91551 0.85509 0.53580
 O100 O 0.83023 0.89710 0.45394
 O101 O 0.79055 0.83589 0.45770
 O102 O 0.87634 0.79345 0.53841
 O103 O 0.79928 0.83678 0.54442
 O104 O 0.87395 0.79815 0.45432
 Cu105 Cu 0.87657 0.88465 0.49591
 Cu106 Cu 0.83050 0.81017 0.49847
 C107 C 0.90670 0.82197 0.43874
 C108 C 0.80539 0.87473 0.55854
 C109 C 0.91123 0.81672 0.55002
 C110 C 0.79616 0.87315 0.44138
 O111 O 0.17585 0.10097 0.53936
 O112 O 0.08895 0.14095 0.45839
 O113 O 0.17260 0.10636 0.45357
 O114 O 0.09489 0.14183 0.54426
 O115 O 0.13067 0.20508 0.54386
 O116 O 0.21015 0.16879 0.45549
 O117 O 0.12556 0.20383 0.45803
 O118 O 0.21130 0.16440 0.54039
 Cu119 Cu 0.12948 0.11622 0.49894
 Cu120 Cu 0.17284 0.19193 0.49936
 C121 C 0.20831 0.12571 0.55365
 C122 C 0.09265 0.17916 0.44421
 C123 C 0.20517 0.13138 0.43969
 C124 C 0.09948 0.17972 0.55937
 O125 O 0.12875 0.82393 0.55235
 O126 O 0.15553 0.90294 0.46707
 O127 O 0.12011 0.82232 0.46321
 O128 O 0.17163 0.89606 0.54718
 O129 O 0.24187 0.86759 0.53321
 O130 O 0.19157 0.79673 0.44935
 O131 O 0.22422 0.87120 0.45361
 O132 O 0.19534 0.78959 0.53785
 Cu133 Cu 0.13631 0.86248 0.50754
 Cu134 Cu 0.21960 0.82659 0.49444
 C135 C 0.15686 0.79296 0.55937
 C136 C 0.19496 0.90172 0.44703
 C137 C 0.14748 0.79806 0.44100
 C138 C 0.21658 0.89563 0.55221
 O139 O 0.88871 0.16963 0.54181
 O140 O 0.83981 0.09540 0.45901
 O141 O 0.88666 0.16959 0.45578
 O142 O 0.85315 0.09311 0.54277
 O143 O 0.78209 0.12292 0.54736
 O144 O 0.81670 0.20101 0.46052
 O145 O 0.76919 0.12562 0.46614
 O146 O 0.81691 0.19688 0.55056
 Cu147 Cu 0.87432 0.12935 0.49863
 Cu148 Cu 0.79025 0.16633 0.50502
 C149 C 0.86024 0.19442 0.56178
 C150 C 0.79560 0.09683 0.45011
 C151 C 0.85781 0.19844 0.44342
 C152 C 0.81204 0.09462 0.55976
 O153 O 0.53608 0.83183 0.89074
 O154 O 0.43652 0.89918 0.84956
 O155 O 0.44694 0.84954 0.91540
 O156 O 0.52668 0.89972 0.83619
 O157 O 0.50276 0.85336 0.78594
 O158 O 0.43372 0.79485 0.87084
 O159 O 0.41358 0.84460 0.80802
 O160 O 0.52019 0.78478 0.83853
 Cu161 Cu 0.48974 0.87410 0.87807
 Cu162 Cu 0.46744 0.81467 0.82106
 C163 C 0.54544 0.79692 0.87069
 C164 C 0.40717 0.88221 0.82250
 C165 C 0.42602 0.81450 0.90688
 C166 C 0.52586 0.88707 0.79672
 O167 O 0.54911 0.18338 0.09797
 O168 O 0.46859 0.10071 0.14117
 O169 O 0.45873 0.17755 0.10665
 O170 O 0.56219 0.11376 0.14241
 O171 O 0.55864 0.14438 0.20778
 O172 O 0.45588 0.20845 0.17195
 O173 O 0.46672 0.13246 0.20600
 O174 O 0.54850 0.21541 0.16276
 Cu175 Cu 0.50941 0.14013 0.11587
 Cu176 Cu 0.50735 0.17834 0.19354
 C177 C 0.56272 0.21344 0.12300
 C178 C 0.45313 0.10269 0.18026
 C179 C 0.43991 0.20399 0.13320
 C180 C 0.57841 0.11880 0.18123
 O181 O 0.54797 0.08860 0.84832
 O182 O 0.46792 0.13816 0.93118
 O183 O 0.46003 0.08290 0.87057
 O184 O 0.56156 0.13730 0.92013
 O185 O 0.54894 0.19532 0.87987
 O186 O 0.44881 0.13737 0.82477
 O187 O 0.45737 0.19350 0.88644
 O188 O 0.53939 0.14717 0.80791
 Cu189 Cu 0.51163 0.10663 0.89720
 Cu190 Cu 0.49830 0.17369 0.84514
 C191 C 0.55573 0.10962 0.81293
 C192 C 0.44758 0.17362 0.92164
 C193 C 0.43668 0.10059 0.83984
 C194 C 0.57157 0.17588 0.91045
 O195 O 0.43977 0.82787 0.10086
 O196 O 0.52886 0.90744 0.13658
 O197 O 0.52761 0.85251 0.07730
 O198 O 0.44248 0.89662 0.15531
 O199 O 0.46269 0.84760 0.20479
 O200 O 0.54803 0.80267 0.12585
 O201 O 0.55261 0.86126 0.18754
 O202 O 0.46295 0.78268 0.15288
 Cu203 Cu 0.48070 0.87428 0.11211
 Cu204 Cu 0.50933 0.81903 0.17293
 C205 C 0.43584 0.79205 0.12101
 C206 C 0.55613 0.89745 0.16843
 C207 C 0.55275 0.82052 0.08829
 C208 C 0.43812 0.87999 0.19324
 O209 O 0.90513 0.55306 0.82048
 O210 O 0.86245 0.45883 0.88307
 O211 O 0.91694 0.47115 0.81730
 O212 O 0.86578 0.54354 0.89934
 O213 O 0.79750 0.54558 0.86361
 O214 O 0.85048 0.47573 0.77859
 O215 O 0.79498 0.46113 0.84561
 O216 O 0.83619 0.55646 0.78539
 Cu217 Cu 0.89377 0.50706 0.85954
 Cu218 Cu 0.81324 0.51014 0.81611
 C219 C 0.87806 0.57030 0.79164
 C220 C 0.82184 0.44305 0.87366
 C221 C 0.89280 0.46176 0.78345
 C222 C 0.82364 0.55742 0.89561
 O223 O 0.07830 0.51562 0.17482
 O224 O 0.15093 0.45111 0.09924
 O225 O 0.09934 0.43568 0.16876
 O226 O 0.12309 0.53073 0.10003
 O227 O 0.18645 0.54681 0.13998
 O228 O 0.16233 0.45170 0.20902
 O229 O 0.21490 0.47150 0.13619
 O230 O 0.14236 0.53611 0.21153
 Cu231 Cu 0.10649 0.48190 0.13165
 Cu232 Cu 0.18235 0.50124 0.17918
 C233 C 0.09764 0.53645 0.20611
 C234 C 0.19578 0.45167 0.10424
 C235 C 0.12614 0.42821 0.20148
 C236 C 0.15921 0.55424 0.10739
 O237 O 0.83795 0.55804 0.11010
 O238 O 0.91631 0.48314 0.16952
 O239 O 0.86257 0.47893 0.09740
 O240 O 0.89223 0.56179 0.17880
 O241 O 0.83510 0.53777 0.22225
 O242 O 0.80021 0.45992 0.13692
 O243 O 0.85544 0.45803 0.20757
 O244 O 0.77946 0.53998 0.15496
 Cu245 Cu 0.88334 0.52202 0.13447
 Cu246 Cu 0.81130 0.49624 0.18421
 C247 C 0.79579 0.56293 0.12384
 C248 C 0.89963 0.45873 0.19934
 C249 C 0.82525 0.45652 0.10240
 C250 C 0.86951 0.56329 0.21481
 O251 O 0.11156 0.44712 0.81760
 O252 O 0.16424 0.53001 0.89141
 O253 O 0.09660 0.52896 0.83974
 O254 O 0.17595 0.44783 0.88692
 O255 O 0.22838 0.46139 0.83491
 O256 O 0.14659 0.54099 0.78497
 O257 O 0.21318 0.54733 0.83731
 O258 O 0.16505 0.46379 0.76739
 Cu259 Cu 0.13184 0.48474 0.86305
 Cu260 Cu 0.19497 0.50286 0.80205
 C261 C 0.12861 0.44285 0.77898
 C262 C 0.19549 0.55488 0.87471
 C263 C 0.10839 0.54976 0.80548
 C264 C 0.21632 0.44156 0.86989
 N265 N 0.26106 0.45105 0.05227
 N266 N 0.28335 0.42381 0.02611
 C267 C 0.26056 0.38575 0.02965
 C268 C 0.22370 0.39043 0.05920
 N269 N 0.22533 0.43155 0.07235
 H270 H 0.20014 0.36584 0.07198
 N271 N 0.75033 0.62815 0.13010
 N272 N 0.73019 0.65730 0.10443
 C273 C 0.73490 0.64415 0.06227
 C274 C 0.75844 0.60499 0.06334
 N275 N 0.76743 0.59662 0.10603
 H276 H 0.76701 0.58367 0.03656
 N277 N 0.83547 0.37143 0.90333
 N278 N 0.81277 0.34171 0.92656
 C279 C 0.76805 0.35610 0.93245
 C280 C 0.76400 0.39571 0.91205
 N281 N 0.80686 0.40406 0.89448
 H282 H 0.73446 0.41789 0.91343
 N283 N 0.20584 0.63171 0.87448
 N284 N 0.22006 0.66305 0.90067
 C285 C 0.23076 0.64498 0.93990
 C286 C 0.22313 0.60103 0.93666
 N287 N 0.20732 0.59444 0.89549
 H288 H 0.23075 0.57622 0.96075
 N289 N 0.02691 0.17092 0.39210
 N290 N 0.00177 0.19483 0.36428
 C291 C 0.01886 0.23527 0.36766
 C292 C 0.05570 0.23527 0.39760
 N293 N 0.05936 0.19473 0.41230
 H294 H 0.07757 0.26216 0.40779
 N295 N 0.14539 0.71850 0.57947
 N296 N 0.11523 0.69599 0.60383
 C297 C 0.09173 0.72434 0.62917
 C298 C 0.11042 0.76459 0.62132
 N299 N 0.14269 0.75983 0.58920
 H300 H 0.09944 0.79493 0.63527
 N301 N 0.97233 0.82652 0.38638
 N302 N 0.99792 0.80030 0.36165
 C303 C 0.98005 0.76042 0.36793
 C304 C 0.94231 0.76313 0.39636
 N305 N 0.93873 0.80465 0.40718
 H306 H 0.92023 0.73723 0.40875
 N307 N 0.85155 0.22469 0.63475
 N308 N 0.87774 0.24466 0.66468
 C309 C 0.92138 0.25036 0.64712
 C310 C 0.92052 0.23425 0.60482
 N311 N 0.87673 0.21823 0.59875
 H312 H 0.94824 0.23529 0.58021
 N313 N 0.39402 0.04644 0.16862
 N314 N 0.36309 0.02336 0.19162
 C315 C 0.36936 0.03408 0.23425
 C316 C 0.40414 0.06535 0.23653
 N317 N 0.41900 0.07171 0.19503
 H318 H 0.41699 0.08210 0.26542
 N319 N 0.58942 0.11285 0.74017
 N320 N 0.61344 0.08916 0.71203
 C321 C 0.62088 0.05071 0.73141
 C322 C 0.60077 0.05177 0.77311
 N323 N 0.58175 0.09135 0.77713
 H324 H 0.60141 0.02715 0.79836
 N325 N 0.32369 0.88916 0.80339
 N326 N 0.29560 0.91600 0.78160
 C327 C 0.32210 0.95082 0.77126
 C328 C 0.36769 0.94401 0.78699
 N329 N 0.36683 0.90573 0.80740
 H330 H 0.39921 0.96320 0.78100
 N331 N 0.60383 0.96220 0.16061
 N332 N 0.63527 0.98463 0.18354
 C333 C 0.64251 0.96361 0.22194
 C334 C 0.61453 0.92702 0.22149
 N335 N 0.59105 0.92755 0.18294
 H336 H 0.60992 0.90327 0.24726
 N337 N 0.39467 0.17214 0.98526
 N338 N 0.36410 0.19797 1.00503
 C339 C 0.36319 0.23529 0.98198
 C340 C 0.39338 0.23082 0.94659
 N341 N 0.41288 0.19157 0.95040
 H342 H 0.40257 0.25454 0.92185
 N343 N 0.61426 0.75140 0.85734
 N344 N 0.64660 0.72960 0.88002
 C345 C 0.63757 0.73538 0.92334
 C346 C 0.59734 0.76127 0.92589
 N347 N 0.58482 0.77102 0.88440
 H348 H 0.57642 0.76988 0.95419
 N349 N 0.37277 0.74082 0.13655
 N350 N 0.33947 0.71922 0.11503
 C351 C 0.34482 0.72758 0.07153
 C352 C 0.38396 0.75469 0.06752
 N353 N 0.39942 0.76253 0.10848
 H354 H 0.40186 0.76636 0.03854
 N355 N 0.62273 0.26873 0.13243
 N356 N 0.65317 0.29103 0.10834
 C357 C 0.64582 0.28066 0.06561
 C358 C 0.60874 0.25119 0.06462
 N359 N 0.59588 0.24453 0.10681
 H360 H 0.59199 0.23616 0.03657
 N361 N 0.27566 0.13411 0.60312
 N362 N 0.29841 0.11215 0.63402
 C363 C 0.27847 0.07258 0.63596
 C364 C 0.24222 0.07132 0.60493
 N365 N 0.24174 0.11022 0.58546
 H366 H 0.21641 0.04613 0.59909
 N367 N 0.75771 0.02767 0.44424
 N368 N 0.73738 0.00296 0.41431
 C369 C 0.74139 0.02316 0.37506
 C370 C 0.76408 0.06222 0.38241
 N371 N 0.77431 0.06302 0.42563
 H372 H 0.77302 0.08725 0.35900
 N373 N 0.76627 0.86268 0.62838
 N374 N 0.74303 0.88444 0.65875
 C375 C 0.74118 0.92585 0.64525
 C376 C 0.76385 0.92850 0.60488
 N377 N 0.77910 0.88858 0.59594
 H378 H 0.76678 0.95578 0.58286
 N379 N 0.18821 0.97478 0.41946
 N380 N 0.21053 1.00083 0.39183
 C381 C 0.24546 0.97826 0.37250
 C382 C 0.24361 0.93686 0.38965
 N383 N 0.20760 0.93621 0.41837
 H384 H 0.26695 0.91000 0.38333
 N385 N 0.12482 0.40912 0.70754
 N386 N 0.09759 0.38290 0.68433
 C387 C 0.06027 0.37238 0.70990
 C388 C 0.06594 0.39261 0.75020
 N389 N 0.10674 0.41517 0.74719
 H390 H 0.04384 0.39005 0.77913
 N391 N 0.02562 0.54422 0.24803
 N392 N 0.00408 0.57246 0.27335
 C393 C 0.03309 0.60685 0.27746
 C394 C 0.07479 0.59758 0.25492
 N395 N 0.06788 0.55873 0.23637
 H396 H 0.10534 0.61814 0.24956
 N397 N 0.97243 0.45020 0.24083
 N398 N 0.99419 0.42166 0.26616
 C399 C 0.96669 0.38607 0.26697
 C400 C 0.92616 0.39440 0.24230
 N401 N 0.93179 0.43440 0.22601
 H402 H 0.89639 0.37323 0.23580
 N403 N 0.86834 0.63664 0.74969
 N404 N 0.89490 0.66452 0.72763
 C405 C 0.94051 0.65080 0.72984
 C406 C 0.94029 0.61254 0.75359
 N407 N 0.89517 0.60553 0.76583
 H408 H 0.96869 0.58987 0.75911
 N409 N 0.83254 0.60533 0.95829
 N410 N 0.80724 0.63320 0.98124
 C411 C 0.76275 0.63254 0.96449
 C412 C 0.76192 0.60399 0.92970
 N413 N 0.80598 0.58739 0.92730
 H414 H 0.73241 0.59636 0.90812
 N415 N 0.28533 0.39458 0.86958
 N416 N 0.30705 0.36657 0.89567
 C417 C 0.28371 0.36600 0.93453
 C418 C 0.24610 0.39469 0.93082
 N419 N 0.24858 0.41167 0.88998
 H420 H 0.21831 0.40132 0.95431
 N421 N 0.14791 0.59560 0.04001
 N422 N 0.17223 0.62296 0.01523
 C423 C 0.21289 0.63231 0.03705
 C424 C 0.21182 0.61051 0.07682
 N425 N 0.17116 0.58778 0.07708
 H426 H 0.23943 0.60848 0.10165
 N427 N 0.83137 0.42574 0.02924
 N428 N 0.80773 0.39892 0.00344
 C429 C 0.77008 0.38376 0.02630
 C430 C 0.77199 0.40258 0.06773
 N431 N 0.81050 0.42819 0.06801
 H432 H 0.74763 0.39915 0.09497
 N433 N 0.99201 0.81201 0.57765
 N434 N 1.01802 0.78692 0.60338
 C435 C 0.98929 0.75662 0.62081
 C436 C 0.94386 0.76433 0.60432
 N437 N 0.94733 0.79898 0.57784
 H438 H 0.91159 0.74610 0.60974
 N439 N 0.84344 0.24478 0.37950
 N440 N 0.86845 0.26719 0.35037
 C441 C 0.91477 0.26427 0.36214
 C442 C 0.91680 0.23991 0.40039
 N443 N 0.87201 0.22798 0.40961
 H444 H 0.94723 0.23229 0.42073
 N445 N 0.03183 0.17200 0.60878
 N446 N 0.00626 0.19588 0.63584
 C447 C 0.02705 0.23504 0.63759
 C448 C 0.06722 0.23381 0.61134
 N449 N 0.06833 0.19431 0.59344
 H450 H 0.09115 0.25998 0.60328
 N451 N 0.15554 0.75796 0.37290
 N452 N 0.12937 0.73518 0.34510
 C453 C 0.08438 0.73525 0.36038
 C454 C 0.08428 0.75864 0.39933
 N455 N 0.12912 0.77252 0.40552
 H456 H 0.05531 0.76355 0.42206
 N457 N 0.53628 0.91326 0.72192
 N458 N 0.56507 0.93877 0.69936
 C459 C 0.59704 0.95504 0.72811
 C460 C 0.58755 0.93772 0.76906
 N461 N 0.54943 0.91198 0.76371
 H462 H 0.60829 0.94096 0.79896
 N463 N 0.37401 0.87254 0.24539
 N464 N 0.34438 0.89706 0.26761
 C465 C 0.35529 0.93871 0.25892
 C466 C 0.39384 0.93835 0.23035
 N467 N 0.40375 0.89678 0.22279
 H468 H 0.41500 0.96460 0.21790
 N469 N 0.65592 0.08586 0.16959
 N470 N 0.68690 0.06163 0.19136
 C471 C 0.66932 0.05594 0.23226
 C472 C 0.62666 0.07747 0.23495
 N473 N 0.61953 0.09546 0.19520
 H474 H 0.60156 0.07719 0.26188
 N475 N 0.37403 0.04788 0.84549
 N476 N 0.34367 0.02703 0.82002
 C477 C 0.34727 0.04415 0.77930
 C478 C 0.38000 0.07766 0.78118
 N479 N 0.39628 0.07818 0.82285
 H480 H 0.39403 0.09675 0.75431
 N481 N 0.60821 0.82815 0.02751
 N482 N 0.63700 0.80395 0.00375
 C483 C 0.63255 0.76345 0.01934
 C484 C 0.60153 0.76380 0.05432
 N485 N 0.58685 0.80455 0.05795
 H486 H 0.58995 0.73697 0.07445
 N487 N 0.36014 0.23361 0.14112
 N488 N 0.32769 0.25273 0.11601
 C489 C 0.34785 0.25937 0.07624
 C490 C 0.39424 0.24525 0.07853
 N491 N 0.40010 0.22870 0.11888
 H492 H 0.42129 0.24642 0.05329
 N493 N 0.63316 0.17776 0.96655
 N494 N 0.66026 0.20562 0.98797
 C495 C 0.65105 0.24468 0.97066
 C496 C 0.61815 0.23970 0.93693
 N497 N 0.60767 0.19740 0.93576
 H498 H 0.60245 0.26441 0.91638
 N499 N 0.37042 0.82249 0.96705
 N500 N 0.34032 0.79916 0.99060
 C501 C 0.34395 0.75846 0.97592
 C502 C 0.37603 0.75773 0.94164
 N503 N 0.39222 0.79820 0.93772
 H504 H 0.38697 0.73052 0.92207
 N505 N 0.72109 0.87133 0.40115
 N506 N 0.69749 0.89467 0.37177
 C507 C 0.72576 0.92815 0.36075
 C508 C 0.76817 0.92373 0.38344
 N509 N 0.76334 0.88855 0.40888
 H510 H 0.79905 0.94455 0.38237
 N511 N 0.27583 0.95160 0.55928
 N512 N 0.29087 0.98064 0.58786
 C513 C 0.26308 0.97700 0.62376
 C514 C 0.23041 0.94433 0.61629
 N515 N 0.23977 0.92946 0.57572
 H516 H 0.20421 0.93136 0.63875
 N517 N 0.28486 0.12249 0.41124
 N518 N 0.30782 0.09686 0.38390
 C519 C 0.27478 0.07284 0.36298
 C520 C 0.23054 0.08611 0.37713
 N521 N 0.23849 0.11614 0.40799
 H522 H 0.19588 0.07467 0.36691
 N523 N 0.82872 0.03524 0.61029
 N524 N 0.80596 0.01012 0.63869
 C525 C 0.76024 0.02312 0.63874
 C526 C 0.75590 0.05746 0.61011
 N527 N 0.79923 0.06378 0.59283
 H528 H 0.72412 0.07538 0.60189
 N529 N 0.86779 0.59246 0.28897
 N530 N 0.89499 0.61648 0.31479
 C531 C 0.93074 0.63155 0.28955
 C532 C 0.92355 0.61748 0.24707
 N533 N 0.88462 0.59243 0.24834
 H534 H 0.94655 0.62213 0.21892
 N535 N 0.90243 0.43844 0.70783
 N536 N 0.92606 0.40918 0.68528
 C537 C 0.95382 0.38760 0.71417
 C538 C 0.94566 0.40410 0.75558
 N539 N 0.91362 0.43579 0.75003
 H540 H 0.95856 0.39212 0.78690
 N541 N 0.05122 0.60679 0.81749
 N542 N 0.02958 0.63784 0.79525
 C543 C 0.04423 0.63466 0.75315
 C544 C 0.07658 0.60153 0.75047
 N545 N 0.07928 0.58464 0.79112
 H546 H 0.09537 0.59023 0.72173
 N547 N 0.13574 0.38837 0.26991
 N548 N 0.10968 0.36362 0.29601
 C549 C 0.06883 0.35507 0.27426
 C550 C 0.07163 0.37397 0.23316
 N551 N 0.11338 0.39515 0.23213
 H552 H 0.04447 0.37502 0.20783
   
