data_POSCAR
  _audit_creation_date              2014-09-24
  _audit_creation_method            'ToBaCCo'
  _symmetry_space_group_name_H-M    'P1'
  _symmetry_Int_Tables_number       1
  _symmetry_cell_setting            triclinic
  loop_
  _symmetry_equiv_pos_as_xyz
 x,y,z
_cell_length_a 37.0886
_cell_length_b 37.0814
_cell_length_c 8.7306
_cell_angle_alpha 90.304000
_cell_angle_beta 90.000300
_cell_angle_gamma 90.072400
loop_
  _atom_site_label
  _atom_site_type_symbol
  _atom_site_fract_x
  _atom_site_fract_y
  _atom_site_fract_z
O1 O 0.29039 0.21426 0.16135
 O2 O 0.22211 0.28424 0.09116
 O3 O 0.29036 0.28444 0.16100
 O4 O 0.22214 0.21403 0.09155
 O5 O 0.20850 0.21436 0.33717
 O6 O 0.27671 0.28478 0.40685
 O7 O 0.20846 0.28457 0.33700
 O8 O 0.27674 0.21459 0.40719
 Cu9 Cu 0.25766 0.24920 0.10183
 Cu10 Cu 0.24118 0.24961 0.39648
 C11 C 0.29530 0.20245 0.29606
 C12 C 0.20356 0.29640 0.20232
 C13 C 0.29526 0.29666 0.29562
 C14 C 0.20353 0.20206 0.20260
 O15 O 0.72328 0.21546 0.40722
 O16 O 0.79150 0.28564 0.33678
 O17 O 0.72326 0.28565 0.40680
 O18 O 0.79153 0.21544 0.33738
 O19 O 0.77788 0.21503 0.09153
 O20 O 0.70961 0.28525 0.16095
 O21 O 0.77787 0.28524 0.09116
 O22 O 0.70963 0.21506 0.16137
 Cu23 Cu 0.75881 0.25059 0.39647
 Cu24 Cu 0.74234 0.25011 0.10181
 C25 C 0.70472 0.20325 0.29610
 C26 C 0.79647 0.29754 0.20211
 C27 C 0.70470 0.29746 0.29555
 C28 C 0.79642 0.20320 0.20280
 O29 O 0.79139 0.71532 0.66310
 O30 O 0.72339 0.78557 0.59280
 O31 O 0.79165 0.78553 0.66270
 O32 O 0.72316 0.71539 0.59315
 O33 O 0.70950 0.71580 0.83899
 O34 O 0.77802 0.78594 0.90832
 O35 O 0.70974 0.78598 0.83865
 O36 O 0.77773 0.71573 0.90894
 Cu37 Cu 0.75882 0.75042 0.60351
 Cu38 Cu 0.74234 0.75092 0.89816
 C39 C 0.79622 0.70348 0.79780
 C40 C 0.70486 0.79779 0.70392
 C41 C 0.79668 0.79782 0.79724
 C42 C 0.70457 0.70358 0.70439
 O43 O 0.29037 0.78562 0.83864
 O44 O 0.22214 0.71542 0.90892
 O45 O 0.29038 0.71543 0.83904
 O46 O 0.22210 0.78563 0.90839
 O47 O 0.20847 0.78524 0.66277
 O48 O 0.27672 0.71504 0.59320
 O49 O 0.20849 0.71503 0.66307
 O50 O 0.27672 0.78522 0.59279
 Cu51 Cu 0.25766 0.75058 0.89819
 Cu52 Cu 0.24118 0.75010 0.60353
 C53 C 0.29528 0.79743 0.70391
 C54 C 0.20361 0.70319 0.79777
 C55 C 0.29528 0.70321 0.70444
 C56 C 0.20349 0.79753 0.79732
 O57 O 0.96532 -0.02751 -0.15961
 O58 O 1.03565 0.04069 -0.08686
 O59 O 1.03556 -0.02754 -0.15954
 O60 O 0.96546 0.04071 -0.08699
 O61 O 0.96540 0.02671 0.15890
 O62 O 1.03550 -0.04155 0.08636
 O63 O 1.03562 0.02668 0.15903
 O64 O 0.96530 -0.04151 0.08629
 Cu65 Cu 1.00050 0.00803 -0.14790
 Cu66 Cu 1.00045 -0.00887 0.14729
 C67 C 0.95344 -0.04604 -0.04873
 C68 C 1.04748 0.04523 0.04817
 C69 C 1.04736 -0.04608 -0.04863
 C70 C 0.95362 0.04526 0.04800
 O71 O 0.53497 0.45911 0.58641
 O72 O 0.46472 0.52718 0.65953
 O73 O 0.46477 0.45898 0.58646
 O74 O 0.53495 0.52729 0.65953
 O75 O 0.53492 0.54139 0.41373
 O76 O 0.46474 0.47308 0.34066
 O77 O 0.46473 0.54128 0.41372
 O78 O 0.53497 0.47321 0.34061
 Cu79 Cu 0.49985 0.49168 0.64763
 Cu80 Cu 0.49984 0.50869 0.35253
 C81 C 0.54683 0.45466 0.45137
 C82 C 0.45288 0.54574 0.54877
 C83 C 0.45291 0.45449 0.45143
 C84 C 0.54677 0.54589 0.54877
 O85 O 0.03465 0.52647 -0.15838
 O86 O -0.03566 0.45836 -0.08722
 O87 O -0.03555 0.52650 -0.15832
 O88 O 0.03454 0.45833 -0.08734
 O89 O 0.03459 0.47267 0.15886
 O90 O -0.03550 0.54084 0.08787
 O91 O -0.03563 0.47270 0.15897
 O92 O 0.03468 0.54081 0.08782
 Cu93 Cu -0.00051 0.49093 -0.14752
 Cu94 Cu -0.00046 0.50822 0.14809
 C95 C 0.04651 0.54517 -0.04713
 C96 C -0.04749 0.45400 0.04773
 C97 C -0.04732 0.54522 -0.04705
 C98 C 0.04638 0.45397 0.04757
 O99 O 0.46503 1.04141 0.58703
 O100 O 0.53528 0.97345 0.65883
 O101 O 0.53523 1.04154 0.58706
 O102 O 0.46505 0.97334 0.65885
 O103 O 0.46506 0.95884 0.41282
 O104 O 0.53525 1.02704 0.34102
 O105 O 0.53528 0.95896 0.41279
 O106 O 0.46502 1.02692 0.34099
 Cu107 Cu 0.50015 1.00892 0.64765
 Cu108 Cu 0.50016 0.99145 0.35221
 C109 C 0.45318 1.04565 0.45206
 C110 C 0.54713 0.95472 0.54776
 C111 C 0.54708 1.04582 0.45209
 C112 C 0.45321 0.95457 0.54778
 C113 C 1.12467 0.12164 0.12497
 C114 C 1.14515 0.13478 0.00281
 C115 C 1.17131 0.16133 0.02817
 C116 C 1.17739 0.17522 0.17673
 C117 C 1.15656 0.16164 0.29884
 C118 C 1.13045 0.13508 0.27288
 C119 C 1.09755 0.09453 0.09840
 C120 C 1.07473 0.07194 0.07584
 H121 H 1.14086 0.12455 -0.11226
 H122 H 1.18667 0.17096 -0.06894
 H123 H 1.16032 0.17149 0.41478
 H124 H 1.11472 0.12509 0.36827
 C125 C 0.62408 0.62218 0.62560
 C126 C 0.63015 0.63537 0.77381
 C127 C 0.65638 0.66182 0.79959
 C128 C 0.67691 0.67543 0.67717
 C129 C 0.67065 0.66192 0.52857
 C130 C 0.64438 0.63548 0.50311
 C131 C 0.59688 0.59515 0.59910
 C132 C 0.57403 0.57260 0.57651
 H133 H 0.61457 0.62527 0.86943
 H134 H 0.66053 0.67162 0.91532
 H135 H 0.68596 0.67182 0.43190
 H136 H 0.63987 0.62545 0.38788
 C137 C -0.12466 0.37773 0.12394
 C138 C -0.14513 0.36423 0.00184
 C139 C -0.17129 0.33775 0.02737
 C140 C -0.17737 0.32430 0.17602
 C141 C -0.15656 0.33823 0.29806
 C142 C -0.13045 0.36471 0.27194
 C143 C -0.09755 0.40478 0.09731
 C144 C -0.07474 0.42733 0.07492
 H145 H -0.14083 0.37413 -0.11328
 H146 H -0.18664 0.32784 -0.06968
 H147 H -0.16032 0.32871 0.41407
 H148 H -0.11472 0.37498 0.36728
 C149 C 0.37579 0.87857 0.62433
 C150 C 0.35549 0.86491 0.50195
 C151 C 0.32920 0.83856 0.52767
 C152 C 0.32290 0.82553 0.67641
 C153 C 0.34342 0.83951 0.79872
 C154 C 0.36968 0.86586 0.77268
 C155 C 0.40303 0.90549 0.59764
 C156 C 0.42591 0.92795 0.57514
 H157 H 0.36002 0.87456 0.38661
 H158 H 0.31389 0.82835 0.43108
 H159 H 0.33925 0.83008 0.91456
 H160 H 0.38525 0.87625 0.86823
 C161 C -0.12407 0.62172 -0.12305
 C162 C -0.14423 0.63551 -0.00059
 C163 C -0.17023 0.66209 -0.02614
 C164 C -0.17638 0.67523 -0.17480
 C165 C -0.15599 0.66113 -0.29717
 C166 C -0.13002 0.63456 -0.27130
 C167 C -0.09712 0.59458 -0.09654
 C168 C -0.07444 0.57196 -0.07420
 H169 H -0.13981 0.62577 0.11468
 H170 H -0.18545 0.67237 0.07049
 H171 H -0.16005 0.67064 -0.41295
 H172 H -0.11455 0.62408 -0.36690
 C173 C 0.37578 1.12147 0.37552
 C174 C 0.36968 1.13419 0.22719
 C175 C 0.34344 1.16049 0.20120
 C176 C 0.32292 1.17442 0.32351
 C177 C 0.32920 1.16138 0.47224
 C178 C 0.35548 1.13508 0.49791
 C179 C 0.40300 1.09461 0.40218
 C180 C 0.42588 1.07220 0.42467
 H181 H 0.38525 1.12384 0.13164
 H182 H 0.33928 1.16992 0.08537
 H183 H 0.31390 1.17154 0.56884
 H184 H 0.36000 1.12542 0.61324
 C185 C 1.12452 -0.12234 -0.12517
 C186 C 1.13032 -0.13578 -0.27306
 C187 C 1.15646 -0.16224 -0.29898
 C188 C 1.17730 -0.17573 -0.17684
 C189 C 1.17121 -0.16186 -0.02830
 C190 C 1.14501 -0.13540 -0.00298
 C191 C 1.09738 -0.09531 -0.09867
 C192 C 1.07458 -0.07277 -0.07619
 H193 H 1.11458 -0.12585 -0.36848
 H194 H 1.16023 -0.17209 -0.41491
 H195 H 1.18657 -0.17142 0.06883
 H196 H 1.14071 -0.12518 0.11207
 C197 C 0.62424 0.37868 0.37444
 C198 C 0.63033 0.36554 0.22620
 C199 C 0.65657 0.33916 0.20037
 C200 C 0.67709 0.32558 0.32278
 C201 C 0.67082 0.33905 0.47141
 C202 C 0.64455 0.36542 0.49692
 C203 C 0.59701 0.40561 0.40101
 C204 C 0.57412 0.42806 0.42362
 H205 H 0.61476 0.37561 0.13059
 H206 H 0.66073 0.32939 0.08462
 H207 H 0.68612 0.32917 0.56808
 H208 H 0.64002 0.37541 0.61218
 C209 C 0.87597 -0.12218 -0.12529
 C210 C 0.87011 -0.13560 -0.27318
 C211 C 0.84386 -0.16202 -0.29908
 C212 C 0.82297 -0.17548 -0.17693
 C213 C 0.82913 -0.16161 -0.02840
 C214 C 0.85543 -0.13520 -0.00309
 C215 C 0.90322 -0.09519 -0.09881
 C216 C 0.92612 -0.07269 -0.07632
 H217 H 0.88589 -0.12570 -0.36861
 H218 H 0.84004 -0.17186 -0.41501
 H219 H 0.81372 -0.17116 0.06874
 H220 H 0.85978 -0.12499 0.11195
 C221 C 0.37561 0.37820 0.37454
 C222 C 0.35533 0.36485 0.49702
 C223 C 0.32910 0.33837 0.47151
 C224 C 0.32284 0.32488 0.32288
 C225 C 0.34334 0.33855 0.20047
 C226 C 0.36954 0.36502 0.22630
 C227 C 0.40280 0.40523 0.40110
 C228 C 0.42565 0.42778 0.42369
 H229 H 0.35984 0.37485 0.61228
 H230 H 0.31381 0.32842 0.56818
 H231 H 0.33919 0.32876 0.08471
 H232 H 0.38510 0.37517 0.13068
 C233 C 0.12357 0.62156 -0.12314
 C234 C 0.14378 0.63531 -0.00067
 C235 C 0.16989 0.66185 -0.02620
 C236 C 0.17610 0.67498 -0.17485
 C237 C 0.15566 0.66091 -0.29724
 C238 C 0.12958 0.63438 -0.27139
 C239 C 0.09651 0.59446 -0.09665
 C240 C 0.07373 0.57188 -0.07431
 H241 H 0.13932 0.62558 0.11460
 H242 H 0.18515 0.67210 0.07045
 H243 H 0.15977 0.67042 -0.41302
 H244 H 0.11407 0.62393 -0.36700
 C245 C 0.62436 1.12195 0.37558
 C246 C 0.63044 1.13470 0.22725
 C247 C 0.65663 1.16110 0.20126
 C248 C 0.67713 1.17512 0.32357
 C249 C 0.67087 1.16206 0.47230
 C250 C 0.64463 1.13565 0.49798
 C251 C 0.59718 1.09498 0.40223
 C252 C 0.57433 1.07248 0.42472
 H253 H 0.61488 1.12429 0.13170
 H254 H 0.66078 1.17055 0.08543
 H255 H 0.68616 1.17228 0.56890
 H256 H 0.64012 1.12598 0.61330
 C257 C 0.12342 0.37773 0.12334
 C258 C 0.14364 0.36406 0.00084
 C259 C 0.16979 0.33762 0.02633
 C260 C 0.17602 0.32451 0.17498
 C261 C 0.15556 0.33848 0.29738
 C262 C 0.12945 0.36492 0.27157
 C263 C 0.09634 0.40475 0.09691
 C264 C 0.07357 0.42729 0.07465
 H265 H 0.13917 0.37378 -0.11441
 H266 H 0.18505 0.32743 -0.07033
 H267 H 0.15968 0.32899 0.41315
 H268 H 0.11393 0.37531 0.36720
 C269 C 0.62453 0.87890 0.62434
 C270 C 0.64480 0.86524 0.50195
 C271 C 0.67104 0.83891 0.52767
 C272 C 0.67732 0.82589 0.67643
 C273 C 0.65684 0.83988 0.79874
 C274 C 0.63063 0.86621 0.77270
 C275 C 0.59731 0.90577 0.59763
 C276 C 0.57443 0.92818 0.57513
 H277 H 0.64027 0.87488 0.38660
 H278 H 0.68632 0.82871 0.43107
 H279 H 0.66100 0.83046 0.91459
 H280 H 0.61508 0.87660 0.86825
 C281 C 0.87656 0.12164 0.12435
 C282 C 0.85633 0.13496 0.00178
 C283 C 0.83018 0.16146 0.02712
 C284 C 0.82396 0.17501 0.17567
 C285 C 0.84442 0.16138 0.29816
 C286 C 0.87054 0.13487 0.27250
 C287 C 0.90365 0.09456 0.09798
 C288 C 0.92643 0.07198 0.07555
 H289 H 0.86080 0.12491 -0.11342
 H290 H 0.81492 0.17138 -0.06961
 H291 H 0.84030 0.17120 0.41386
 H292 H 0.88606 0.12475 0.36818
 C293 C 0.37560 0.62185 0.62565
 C294 C 0.35532 0.63514 0.50316
 C295 C 0.32911 0.66157 0.52862
 C296 C 0.32286 0.67506 0.67723
 C297 C 0.34336 0.66145 0.79966
 C298 C 0.36954 0.63503 0.77387
 C299 C 0.40278 0.59486 0.59912
 C300 C 0.42562 0.57237 0.57653
 H301 H 0.35982 0.62513 0.38791
 H302 H 0.31381 0.67147 0.43194
 H303 H 0.33922 0.67125 0.91540
 H304 H 0.38510 0.62493 0.86949
   
