data_POSCAR
  _audit_creation_date              2014-09-24
  _audit_creation_method            'ToBaCCo'
  _symmetry_space_group_name_H-M    'P1'
  _symmetry_Int_Tables_number       1
  _symmetry_cell_setting            triclinic
  loop_
  _symmetry_equiv_pos_as_xyz
 x,y,z
_cell_length_a 41.2420
_cell_length_b 41.2418
_cell_length_c 33.0582
_cell_angle_alpha 89.965400
_cell_angle_beta 89.965500
_cell_angle_gamma 90.036100
loop_
  _atom_site_label
  _atom_site_type_symbol
  _atom_site_fract_x
  _atom_site_fract_y
  _atom_site_fract_z
O1 O -0.03140 0.29529 0.03874
 O2 O 0.03228 0.29507 -0.03976
 O3 O -0.03116 0.29515 -0.04000
 O4 O 0.03202 0.29527 0.03897
 O5 O 0.03175 0.24179 0.03905
 O6 O -0.03104 0.24168 -0.03966
 O7 O 0.03202 0.24164 -0.03939
 O8 O -0.03129 0.24182 0.03879
 Cu9 Cu 0.00044 0.30058 -0.00054
 Cu10 Cu 0.00035 0.23641 -0.00029
 C11 C -0.04237 0.26851 0.05202
 C12 C 0.04326 0.26824 -0.05288
 C13 C -0.04205 0.26832 -0.05315
 C14 C 0.04282 0.26848 0.05235
 O15 O 0.46844 0.79533 0.53989
 O16 O 0.53173 0.79526 0.46093
 O17 O 0.46828 0.79531 0.46115
 O18 O 0.53190 0.79521 0.53966
 O19 O 0.53162 0.74174 0.53955
 O20 O 0.46836 0.74183 0.46132
 O21 O 0.53145 0.74179 0.46108
 O22 O 0.46852 0.74186 0.53980
 Cu23 Cu 0.50010 0.80066 0.50041
 Cu24 Cu 0.49998 0.73648 0.50045
 C25 C 0.45751 0.76854 0.55316
 C26 C 0.54255 0.76844 0.44768
 C27 C 0.45731 0.76851 0.44798
 C28 C 0.54279 0.76838 0.55284
 O29 O 0.96825 0.70557 -0.04049
 O30 O 1.03181 0.70534 0.03810
 O31 O 0.96837 0.70535 0.03825
 O32 O 1.03172 0.70553 -0.04065
 O33 O 1.03158 0.75895 -0.04037
 O34 O 0.96861 0.75882 0.03828
 O35 O 1.03168 0.75881 0.03811
 O36 O 0.96848 0.75899 -0.04019
 Cu37 Cu 1.00003 0.70008 -0.00122
 Cu38 Cu 1.00009 0.76421 -0.00104
 C39 C 0.95726 0.73239 -0.05364
 C40 C 1.04274 0.73212 0.05138
 C41 C 0.95752 0.73213 0.05159
 C42 C 1.04272 0.73234 -0.05387
 O43 O 0.53147 0.20397 0.53985
 O44 O 0.46826 0.20393 0.46092
 O45 O 0.53168 0.20408 0.46111
 O46 O 0.46803 0.20395 0.53967
 O47 O 0.46820 0.25743 0.53953
 O48 O 0.53144 0.25756 0.46127
 O49 O 0.46840 0.25741 0.46106
 O50 O 0.53125 0.25745 0.53972
 Cu51 Cu 0.49986 0.19860 0.50039
 Cu52 Cu 0.49982 0.26279 0.50040
 C53 C 0.54231 0.23079 0.55310
 C54 C 0.45739 0.23073 0.44765
 C55 C 0.54257 0.23092 0.44793
 C56 C 0.45710 0.23075 0.55286
 O57 O 0.70468 -0.03144 0.03857
 O58 O 0.70492 0.03224 -0.03992
 O59 O 0.70484 -0.03120 -0.04016
 O60 O 0.70470 0.03198 0.03880
 O61 O 0.75818 0.03179 0.03882
 O62 O 0.75831 -0.03100 -0.03989
 O63 O 0.75835 0.03206 -0.03962
 O64 O 0.75815 -0.03125 0.03857
 Cu65 Cu 0.69940 0.00040 -0.00070
 Cu66 Cu 0.76357 0.00040 -0.00052
 C67 C 0.73146 -0.04236 0.05183
 C68 C 0.73175 0.04326 -0.05308
 C69 C 0.73167 -0.04205 -0.05335
 C70 C 0.73149 0.04282 0.05215
 O71 O 0.20461 0.53146 0.46058
 O72 O 0.20457 0.46817 0.53955
 O73 O 0.20452 0.53162 0.53933
 O74 O 0.20473 0.46801 0.46082
 O75 O 0.25820 0.46829 0.46105
 O76 O 0.25800 0.53154 0.53928
 O77 O 0.25804 0.46845 0.53951
 O78 O 0.25808 0.53138 0.46080
 Cu79 Cu 0.19923 0.49981 0.50006
 Cu80 Cu 0.26341 0.49993 0.50017
 C81 C 0.23142 0.54238 0.44736
 C82 C 0.23137 0.45734 0.55285
 C83 C 0.23130 0.54260 0.55256
 C84 C 0.23158 0.45713 0.44769
 O85 O 0.29453 1.03268 0.03931
 O86 O 0.29455 0.96911 -0.03927
 O87 O 0.29440 1.03257 -0.03942
 O88 O 0.29472 0.96922 0.03948
 O89 O 0.24125 0.96926 0.03955
 O90 O 0.24098 1.03223 -0.03909
 O91 O 0.24108 0.96914 -0.03893
 O92 O 0.24111 1.03235 0.03936
 Cu93 Cu 0.29992 1.00091 0.00001
 Cu94 Cu 0.23579 1.00073 0.00024
 C95 C 0.26775 1.04361 0.05265
 C96 C 0.26774 0.95811 -0.05236
 C97 C 0.26757 1.04346 -0.05262
 C98 C 0.26796 0.95826 0.05283
 O99 O 0.79585 0.46834 0.46062
 O100 O 0.79604 0.53155 0.53955
 O101 O 0.79585 0.46812 0.53935
 O102 O 0.79591 0.53177 0.46080
 O103 O 0.74243 0.53163 0.46106
 O104 O 0.74238 0.46838 0.53931
 O105 O 0.74256 0.53144 0.53952
 O106 O 0.74238 0.46858 0.46087
 Cu107 Cu 0.80130 0.49994 0.50007
 Cu108 Cu 0.73710 0.50002 0.50021
 C109 C 0.76901 0.45752 0.44742
 C110 C 0.76926 0.54244 0.55286
 C111 C 0.76903 0.45723 0.55258
 C112 C 0.76909 0.54270 0.44766
 O113 O 0.24321 0.19827 0.24225
 O114 O 0.22878 0.27236 0.30180
 O115 O 0.19887 0.24287 0.24264
 O116 O 0.27314 0.22777 0.30145
 O117 O 0.30151 0.25622 0.25708
 O118 O 0.22724 0.27132 0.19826
 O119 O 0.25715 0.30081 0.25743
 O120 O 0.27158 0.22672 0.19788
 Cu121 Cu 0.23315 0.23245 0.27651
 Cu122 Cu 0.26724 0.26663 0.22319
 C123 C 0.25953 0.20006 0.20978
 C124 C 0.24080 0.29903 0.28988
 C125 C 0.20058 0.25936 0.21030
 C126 C 0.29980 0.23974 0.28942
 O127 O 0.75673 0.80145 0.24223
 O128 O 0.77174 0.72732 0.30150
 O129 O 0.80135 0.75713 0.24224
 O130 O 0.72709 0.77163 0.30147
 O131 O 0.69880 0.74313 0.25716
 O132 O 0.77306 0.72863 0.19793
 O133 O 0.74344 0.69882 0.25720
 O134 O 0.72844 0.77295 0.19792
 Cu135 Cu 0.76708 0.76726 0.27633
 Cu136 Cu 0.73308 0.73300 0.22308
 C137 C 0.74034 0.79965 0.20985
 C138 C 0.75984 0.70062 0.28957
 C139 C 0.79967 0.74071 0.20987
 C140 C 0.70047 0.75955 0.28953
 O141 O 0.74322 0.30137 0.25722
 O142 O 0.72841 0.22711 0.19827
 O143 O 0.69877 0.25682 0.25748
 O144 O 0.77289 0.27162 0.19804
 O145 O 0.80134 0.24332 0.24240
 O146 O 0.72722 0.22851 0.30182
 O147 O 0.75687 0.19880 0.24262
 O148 O 0.77168 0.27306 0.30158
 Cu149 Cu 0.73295 0.26709 0.22328
 Cu150 Cu 0.76715 0.23307 0.27658
 C151 C 0.75967 0.29969 0.28956
 C152 C 0.74042 0.20048 0.21028
 C153 C 0.70055 0.24044 0.28989
 C154 C 0.79956 0.25969 0.20997
 O155 O 0.19861 0.75691 0.24234
 O156 O 0.27267 0.77160 0.30187
 O157 O 0.24301 0.80151 0.24277
 O158 O 0.22825 0.72701 0.30149
 O159 O 0.25679 0.69888 0.25705
 O160 O 0.27154 0.77339 0.19832
 O161 O 0.30120 0.74348 0.25743
 O162 O 0.22714 0.72878 0.19790
 Cu163 Cu 0.23275 0.76709 0.27660
 Cu164 Cu 0.26704 0.73329 0.22319
 C165 C 0.20044 0.74067 0.20985
 C166 C 0.29937 0.75973 0.28991
 C167 C 0.25948 0.79996 0.21041
 C168 C 0.24032 0.70044 0.28941
 O169 O 0.75685 0.19811 0.75754
 O170 O 0.77152 0.27227 0.69812
 O171 O 0.80140 0.24256 0.75714
 O172 O 0.72696 0.22782 0.69850
 O173 O 0.69878 0.25627 0.74299
 O174 O 0.77323 0.27100 0.80164
 O175 O 0.74335 0.30071 0.74263
 O176 O 0.72868 0.22655 0.80204
 Cu177 Cu 0.76702 0.23232 0.72333
 Cu178 Cu 0.73316 0.26650 0.77681
 C179 C 0.74057 0.19988 0.79004
 C180 C 0.75965 0.29895 0.71015
 C181 C 0.79981 0.25900 0.78949
 C182 C 0.70037 0.23984 0.71063
 O183 O 0.30068 0.74346 0.74308
 O184 O 0.22615 0.72883 0.80178
 O185 O 0.25610 0.69903 0.74281
 O186 O 0.27073 0.77326 0.80203
 O187 O 0.24262 0.80167 0.75743
 O188 O 0.22799 0.72744 0.69822
 O189 O 0.19804 0.75724 0.75719
 O190 O 0.27258 0.77186 0.69848
 Cu191 Cu 0.26625 0.73328 0.77692
 Cu192 Cu 0.23247 0.76741 0.72333
 C193 C 0.29915 0.75984 0.71065
 C194 C 0.19958 0.74086 0.78962
 C195 C 0.23987 0.70077 0.71029
 C196 C 0.25885 0.79994 0.78995
 O197 O 0.25648 0.30089 0.74315
 O198 O 0.27094 0.22659 0.80231
 O199 O 0.30079 0.25625 0.74311
 O200 O 0.22662 0.27120 0.80233
 O201 O 0.19815 0.24294 0.75795
 O202 O 0.27232 0.22798 0.69875
 O203 O 0.24247 0.19832 0.75795
 O204 O 0.22801 0.27263 0.69878
 Cu205 Cu 0.26658 0.26658 0.77720
 Cu206 Cu 0.23237 0.23262 0.72388
 C207 C 0.24009 0.29924 0.71076
 C208 C 0.25886 0.19998 0.79034
 C209 C 0.29902 0.23987 0.71072
 C210 C 0.19993 0.25930 0.79036
 O211 O 0.74415 0.69877 0.74296
 O212 O 0.72921 0.77321 0.80151
 O213 O 0.69956 0.74313 0.74260
 O214 O 0.77382 0.72886 0.80189
 O215 O 0.80214 0.75711 0.75729
 O216 O 0.72789 0.77138 0.69799
 O217 O 0.75754 0.80145 0.75690
 O218 O 0.77248 0.72702 0.69835
 Cu219 Cu 0.73383 0.73314 0.77674
 Cu220 Cu 0.76787 0.76708 0.72313
 C221 C 0.76054 0.70039 0.71054
 C222 C 0.74113 0.79983 0.78930
 C223 C 0.70125 0.75939 0.71008
 C224 C 0.80045 0.74086 0.78982
 C225 C 0.26633 0.12047 0.13718
 C226 C 0.23731 0.10672 0.12364
 C227 C 0.23778 0.08100 0.09620
 C228 C 0.26743 0.06854 0.08167
 C229 C 0.29657 0.08224 0.09613
 C230 C 0.29596 0.10805 0.12361
 C231 C 0.26533 0.14811 0.16374
 C232 C 0.26333 0.17164 0.18522
 H233 H 0.21422 0.11619 0.13391
 H234 H 0.21481 0.07121 0.08604
 H235 H 0.31988 0.07340 0.08583
 H236 H 0.31859 0.11858 0.13385
 C237 C 0.76778 0.62043 0.63883
 C238 C 0.73881 0.60592 0.62633
 C239 C 0.73936 0.58018 0.59893
 C240 C 0.76898 0.56855 0.58357
 C241 C 0.79806 0.58289 0.59686
 C242 C 0.79743 0.60873 0.62429
 C243 C 0.76666 0.64818 0.66513
 C244 C 0.76453 0.67184 0.68634
 H245 H 0.71572 0.61485 0.63730
 H246 H 0.71654 0.56969 0.58938
 H247 H 0.82125 0.57453 0.58558
 H248 H 0.82001 0.61987 0.63368
 C249 C 0.73300 0.87941 0.13762
 C250 C 0.70333 0.89111 0.12314
 C251 C 0.70268 0.91700 0.09573
 C252 C 0.73176 0.93139 0.08242
 C253 C 0.76138 0.91973 0.09769
 C254 C 0.76196 0.89394 0.12506
 C255 C 0.73414 0.85169 0.16404
 C256 C 0.73631 0.82810 0.18541
 H257 H 0.68077 0.87996 0.13258
 H258 H 0.67949 0.92538 0.08452
 H259 H 0.78419 0.93026 0.08812
 H260 H 0.78506 0.88502 0.13599
 C261 C 0.23298 0.37916 0.63873
 C262 C 0.26194 0.39369 0.62614
 C263 C 0.26134 0.41949 0.59877
 C264 C 0.23171 0.43115 0.58353
 C265 C 0.20264 0.41677 0.59690
 C266 C 0.20331 0.39088 0.62430
 C267 C 0.23412 0.35140 0.66509
 C268 C 0.23621 0.32776 0.68639
 H269 H 0.28504 0.38476 0.63703
 H270 H 0.28415 0.43001 0.58915
 H271 H 0.17944 0.42515 0.58571
 H272 H 0.18075 0.37973 0.63376
 C273 C 0.87934 0.26696 0.13773
 C274 C 0.89110 0.29663 0.12324
 C275 C 0.91701 0.29728 0.09586
 C276 C 0.93136 0.26821 0.08258
 C277 C 0.91965 0.23858 0.09787
 C278 C 0.89383 0.23800 0.12521
 C279 C 0.85161 0.26582 0.16414
 C280 C 0.82801 0.26367 0.18551
 H281 H 0.87999 0.31919 0.13266
 H282 H 0.92544 0.32047 0.08464
 H283 H 0.93014 0.21577 0.08832
 H284 H 0.88487 0.21490 0.13615
 C285 C 0.37927 0.76697 0.63895
 C286 C 0.39373 0.73801 0.62639
 C287 C 0.41956 0.73858 0.59906
 C288 C 0.43131 0.76822 0.58383
 C289 C 0.41700 0.79729 0.59718
 C290 C 0.39108 0.79664 0.62454
 C291 C 0.35145 0.76584 0.66522
 C292 C 0.32775 0.76374 0.68643
 H293 H 0.38472 0.71490 0.63727
 H294 H 0.43003 0.71577 0.58946
 H295 H 0.42545 0.82049 0.58599
 H296 H 0.37998 0.81920 0.63397
 C297 C 0.12083 0.73359 0.13732
 C298 C 0.10645 0.76257 0.12465
 C299 C 0.08071 0.76202 0.09722
 C300 C 0.06896 0.73241 0.08200
 C301 C 0.08322 0.70332 0.09542
 C302 C 0.10904 0.70394 0.12288
 C303 C 0.14849 0.73469 0.16384
 C304 C 0.17203 0.73677 0.18530
 H305 H 0.11543 0.78566 0.13554
 H306 H 0.07029 0.78485 0.08757
 H307 H 0.07476 0.68013 0.08425
 H308 H 0.12007 0.68136 0.13240
 C309 C 0.62037 0.23252 0.63896
 C310 C 0.60583 0.26145 0.62641
 C311 C 0.58006 0.26081 0.59905
 C312 C 0.56844 0.23116 0.58379
 C313 C 0.58283 0.20212 0.59714
 C314 C 0.60869 0.20282 0.62453
 C315 C 0.64814 0.23371 0.66524
 C316 C 0.67181 0.23587 0.68644
 H317 H 0.61474 0.28457 0.63731
 H318 H 0.56953 0.28360 0.58944
 H319 H 0.57447 0.17890 0.58593
 H320 H 0.61985 0.18029 0.63396
 C321 C 0.73346 0.12018 0.86245
 C322 C 0.70377 0.10770 0.87581
 C323 C 0.70307 0.08185 0.90328
 C324 C 0.73216 0.06821 0.91792
 C325 C 0.76186 0.08074 0.90358
 C326 C 0.76243 0.10649 0.87616
 C327 C 0.73455 0.14786 0.83594
 C328 C 0.73665 0.17143 0.81452
 H329 H 0.68118 0.11819 0.86543
 H330 H 0.67972 0.07295 0.91343
 H331 H 0.78480 0.07098 0.91389
 H332 H 0.78555 0.11602 0.86605
 C333 C 0.23310 0.62045 0.36133
 C334 C 0.20342 0.60866 0.37571
 C335 C 0.20273 0.58280 0.40316
 C336 C 0.23179 0.56853 0.41663
 C337 C 0.26144 0.58026 0.40144
 C338 C 0.26205 0.60603 0.37402
 C339 C 0.23426 0.64821 0.33496
 C340 C 0.23638 0.67187 0.31368
 H341 H 0.18086 0.61972 0.36617
 H342 H 0.17952 0.57436 0.41431
 H343 H 0.28424 0.56983 0.41114
 H344 H 0.28517 0.61503 0.36318
 C345 C 0.26604 0.87980 0.86202
 C346 C 0.29573 0.89168 0.87623
 C347 C 0.29642 0.91759 0.90356
 C348 C 0.26737 0.93185 0.91709
 C349 C 0.23771 0.92002 0.90209
 C350 C 0.23709 0.89419 0.87479
 C351 C 0.26488 0.85205 0.83566
 C352 C 0.26277 0.82843 0.81434
 H353 H 0.31829 0.88064 0.86663
 H354 H 0.31964 0.92611 0.91456
 H355 H 0.21491 0.93043 0.91183
 H356 H 0.21397 0.88514 0.86408
 C357 C 0.76713 0.37954 0.36146
 C358 C 0.79685 0.39120 0.37584
 C359 C 0.79761 0.41703 0.40327
 C360 C 0.76859 0.43140 0.41672
 C361 C 0.73890 0.41980 0.40153
 C362 C 0.73822 0.39406 0.37413
 C363 C 0.76589 0.35181 0.33512
 C364 C 0.76369 0.32819 0.31385
 H365 H 0.81937 0.38004 0.36632
 H366 H 0.82084 0.42537 0.41443
 H367 H 0.71613 0.43032 0.41121
 H368 H 0.71508 0.38516 0.36327
 C369 C 0.12020 0.26654 0.86267
 C370 C 0.10645 0.23756 0.87641
 C371 C 0.08070 0.23813 0.90382
 C372 C 0.06822 0.26783 0.91812
 C373 C 0.08191 0.29693 0.90345
 C374 C 0.10776 0.29622 0.87600
 C375 C 0.14789 0.26543 0.83619
 C376 C 0.17147 0.26330 0.81479
 H377 H 0.11595 0.21444 0.86633
 H378 H 0.07091 0.21519 0.91415
 H379 H 0.07304 0.32027 0.91358
 H380 H 0.11830 0.31881 0.86560
 C381 C 0.62063 0.76672 0.36168
 C382 C 0.60613 0.73778 0.37437
 C383 C 0.58036 0.73841 0.40178
 C384 C 0.56871 0.76807 0.41697
 C385 C 0.58307 0.79712 0.40351
 C386 C 0.60893 0.79641 0.37606
 C387 C 0.64836 0.76555 0.33527
 C388 C 0.67198 0.76344 0.31393
 H389 H 0.61506 0.71466 0.36351
 H390 H 0.56986 0.71562 0.41147
 H391 H 0.57469 0.82033 0.41465
 H392 H 0.62006 0.81896 0.36653
 C393 C 0.88025 0.73402 0.86205
 C394 C 0.89276 0.70435 0.87539
 C395 C 0.91863 0.70368 0.90278
 C396 C 0.93230 0.73279 0.91738
 C397 C 0.91976 0.76247 0.90307
 C398 C 0.89398 0.76301 0.87572
 C399 C 0.85254 0.73507 0.83561
 C400 C 0.82894 0.73708 0.81425
 H401 H 0.88225 0.68175 0.86504
 H402 H 0.92753 0.68034 0.91291
 H403 H 0.92953 0.78542 0.91335
 H404 H 0.88444 0.78612 0.86564
 C405 C 0.37956 0.23237 0.36147
 C406 C 0.39122 0.20269 0.37596
 C407 C 0.41700 0.20201 0.40348
 C408 C 0.43131 0.23107 0.41690
 C409 C 0.41971 0.26072 0.40160
 C410 C 0.39402 0.26132 0.37411
 C411 C 0.35188 0.23353 0.33505
 C412 C 0.32828 0.23571 0.31373
 H413 H 0.38011 0.18013 0.36646
 H414 H 0.42535 0.17881 0.41471
 H415 H 0.43018 0.28352 0.41125
 H416 H 0.38512 0.28443 0.36318
 C417 C 0.73357 0.87988 0.86082
 C418 C 0.76247 0.89448 0.87340
 C419 C 0.76179 0.92026 0.90074
 C420 C 0.73210 0.93183 0.91596
 C421 C 0.70308 0.91740 0.90257
 C422 C 0.70385 0.89153 0.87520
 C423 C 0.73483 0.85209 0.83459
 C424 C 0.73706 0.82841 0.81344
 H425 H 0.78562 0.88559 0.86254
 H426 H 0.78455 0.93082 0.91037
 H427 H 0.67985 0.92572 0.91375
 H428 H 0.68133 0.88032 0.86575
 C429 C 0.23351 0.37880 0.36210
 C430 C 0.26242 0.39330 0.37484
 C431 C 0.26172 0.41913 0.40213
 C432 C 0.23203 0.43085 0.41716
 C433 C 0.20301 0.41647 0.40367
 C434 C 0.20378 0.39056 0.37634
 C435 C 0.23474 0.35107 0.33571
 C436 C 0.23689 0.32748 0.31435
 H437 H 0.28557 0.38435 0.36409
 H438 H 0.28449 0.42964 0.41184
 H439 H 0.17977 0.42490 0.41469
 H440 H 0.18126 0.37944 0.36677
 C441 C 0.26585 0.12022 0.86265
 C442 C 0.23688 0.10646 0.87638
 C443 C 0.23745 0.08075 0.90387
 C444 C 0.26715 0.06833 0.91825
 C445 C 0.29624 0.08201 0.90356
 C446 C 0.29554 0.10781 0.87604
 C447 C 0.26476 0.14789 0.83614
 C448 C 0.26270 0.17148 0.81475
 H449 H 0.21376 0.11593 0.86626
 H450 H 0.21451 0.07097 0.91422
 H451 H 0.31958 0.07319 0.91374
 H452 H 0.31812 0.11835 0.86564
 C453 C 0.76733 0.62088 0.36180
 C454 C 0.73841 0.60636 0.37450
 C455 C 0.73905 0.58059 0.40190
 C456 C 0.76872 0.56893 0.41705
 C457 C 0.79776 0.58331 0.40359
 C458 C 0.79704 0.60918 0.37616
 C459 C 0.76612 0.64858 0.33537
 C460 C 0.76391 0.67217 0.31400
 H461 H 0.71528 0.61528 0.36366
 H462 H 0.71627 0.57007 0.41158
 H463 H 0.82098 0.57493 0.41472
 H464 H 0.81957 0.62032 0.36661
 C465 C 0.11959 0.73391 0.86156
 C466 C 0.10706 0.70425 0.87495
 C467 C 0.08121 0.70360 0.90241
 C468 C 0.06760 0.73271 0.91703
 C469 C 0.08015 0.76239 0.90264
 C470 C 0.10590 0.76291 0.87522
 C471 C 0.14734 0.73495 0.83517
 C472 C 0.17100 0.73700 0.81389
 H473 H 0.11754 0.68164 0.86461
 H474 H 0.07229 0.68027 0.91259
 H475 H 0.07042 0.78534 0.91293
 H476 H 0.11547 0.78602 0.86510
 C477 C 0.62078 0.23289 0.36212
 C478 C 0.60911 0.20316 0.37651
 C479 C 0.58323 0.20237 0.40392
 C480 C 0.56881 0.23137 0.41733
 C481 C 0.58044 0.26107 0.40215
 C482 C 0.60623 0.26178 0.37478
 C483 C 0.64850 0.23416 0.33571
 C484 C 0.67209 0.23640 0.31434
 H485 H 0.62028 0.18065 0.36700
 H486 H 0.57486 0.17913 0.41506
 H487 H 0.56990 0.28383 0.41180
 H488 H 0.61513 0.28493 0.36392
 C489 C 0.87986 0.26645 0.86104
 C490 C 0.89441 0.23754 0.87367
 C491 C 0.92020 0.23822 0.90100
 C492 C 0.93182 0.26790 0.91616
 C493 C 0.91744 0.29693 0.90273
 C494 C 0.89156 0.29617 0.87537
 C495 C 0.85207 0.26521 0.83482
 C496 C 0.82839 0.26301 0.81365
 H497 H 0.88548 0.21440 0.86285
 H498 H 0.93072 0.21545 0.91066
 H499 H 0.92581 0.32016 0.91387
 H500 H 0.88040 0.31869 0.86588
 C501 C 0.37907 0.76691 0.36227
 C502 C 0.39347 0.73795 0.37498
 C503 C 0.41926 0.73854 0.40232
 C504 C 0.43105 0.76818 0.41742
 C505 C 0.41678 0.79725 0.40397
 C506 C 0.39089 0.79658 0.37659
 C507 C 0.35136 0.76577 0.33583
 C508 C 0.32780 0.76366 0.31442
 H509 H 0.38446 0.71484 0.36418
 H510 H 0.42969 0.71573 0.41201
 H511 H 0.42526 0.82045 0.41505
 H512 H 0.37985 0.81915 0.36703
 C513 C 0.26658 0.88004 0.13864
 C514 C 0.23759 0.89451 0.12619
 C515 C 0.23811 0.92034 0.09885
 C516 C 0.26771 0.93207 0.08350
 C517 C 0.29681 0.91775 0.09674
 C518 C 0.29621 0.89184 0.12411
 C519 C 0.26549 0.85223 0.16493
 C520 C 0.26340 0.82854 0.18616
 H521 H 0.21451 0.88552 0.13716
 H522 H 0.21528 0.93080 0.08934
 H523 H 0.31998 0.92619 0.08546
 H524 H 0.31880 0.88073 0.13346
 C525 C 0.76714 0.37884 0.63814
 C526 C 0.79686 0.39052 0.62371
 C527 C 0.79762 0.41647 0.59640
 C528 C 0.76861 0.43094 0.58312
 C529 C 0.73893 0.41931 0.59834
 C530 C 0.73824 0.39345 0.62562
 C531 C 0.76588 0.35106 0.66445
 C532 C 0.76367 0.32743 0.68575
 H533 H 0.81937 0.37931 0.63313
 H534 H 0.82085 0.42484 0.58522
 H535 H 0.71616 0.42989 0.58879
 H536 H 0.71510 0.38455 0.63651
 C537 C 0.73309 0.12069 0.13827
 C538 C 0.70342 0.10907 0.12370
 C539 C 0.70275 0.08327 0.09621
 C540 C 0.73181 0.06890 0.08290
 C541 C 0.76144 0.08046 0.09829
 C542 C 0.76204 0.10616 0.12575
 C543 C 0.73426 0.14839 0.16466
 C544 C 0.73643 0.17199 0.18596
 H545 H 0.68087 0.12023 0.13311
 H546 H 0.67956 0.07496 0.08490
 H547 H 0.78424 0.06994 0.08872
 H548 H 0.78514 0.11503 0.13675
 C549 C 0.23279 0.62092 0.63818
 C550 C 0.20314 0.60909 0.62380
 C551 C 0.20251 0.58317 0.59646
 C552 C 0.23159 0.56887 0.58310
 C553 C 0.26121 0.58067 0.59827
 C554 C 0.26177 0.60649 0.62557
 C555 C 0.23389 0.64867 0.66455
 C556 C 0.23598 0.67228 0.68589
 H557 H 0.18056 0.62015 0.63327
 H558 H 0.17932 0.57469 0.58533
 H559 H 0.28404 0.57022 0.58865
 H560 H 0.28486 0.61550 0.63642
 C561 C 0.87947 0.73364 0.13764
 C562 C 0.89397 0.76261 0.12504
 C563 C 0.91972 0.76205 0.09761
 C564 C 0.93136 0.73243 0.08230
 C565 C 0.91701 0.70335 0.09567
 C566 C 0.89117 0.70399 0.12314
 C567 C 0.85176 0.73476 0.16408
 C568 C 0.82816 0.73684 0.18545
 H569 H 0.88505 0.78571 0.13599
 H570 H 0.93021 0.78486 0.08799
 H571 H 0.92539 0.68016 0.08443
 H572 H 0.88005 0.68142 0.13261
 C573 C 0.37884 0.23243 0.63861
 C574 C 0.39053 0.20274 0.62419
 C575 C 0.41643 0.20204 0.59681
 C576 C 0.43085 0.23109 0.58345
 C577 C 0.41920 0.26074 0.59866
 C578 C 0.39339 0.26137 0.62600
 C579 C 0.35110 0.23362 0.66499
 C580 C 0.32749 0.23582 0.68633
 H581 H 0.37937 0.18020 0.63367
 H582 H 0.42481 0.17884 0.58564
 H583 H 0.42974 0.28354 0.58905
 H584 H 0.38448 0.28448 0.63689
 C585 C 0.12074 0.26683 0.13840
 C586 C 0.10917 0.29651 0.12379
 C587 C 0.08336 0.29720 0.09633
 C588 C 0.06892 0.26815 0.08309
 C589 C 0.08042 0.23851 0.09852
 C590 C 0.10614 0.23790 0.12595
 C591 C 0.14846 0.26564 0.16476
 C592 C 0.17208 0.26343 0.18603
 H593 H 0.12039 0.31905 0.13314
 H594 H 0.07508 0.32040 0.08498
 H595 H 0.06985 0.21571 0.08901
 H596 H 0.11497 0.21479 0.13699
 C597 C 0.62128 0.76657 0.63820
 C598 C 0.60950 0.79627 0.62392
 C599 C 0.58353 0.79701 0.59668
 C600 C 0.56911 0.76798 0.58332
 C601 C 0.58084 0.73830 0.59840
 C602 C 0.60672 0.73764 0.62560
 C603 C 0.64908 0.76537 0.66447
 C604 C 0.67273 0.76326 0.68573
 H605 H 0.62066 0.81881 0.63338
 H606 H 0.57509 0.82023 0.58561
 H607 H 0.57030 0.71552 0.58878
 H608 H 0.61569 0.71451 0.63638
   
