data_POSCAR
  _audit_creation_date              2014-09-24
  _audit_creation_method            'ToBaCCo'
  _symmetry_space_group_name_H-M    'P1'
  _symmetry_Int_Tables_number       1
  _symmetry_cell_setting            triclinic
  loop_
  _symmetry_equiv_pos_as_xyz
 x,y,z
_cell_length_a 19.9141
_cell_length_b 20.1525
_cell_length_c 32.4738
_cell_angle_alpha 89.158900
_cell_angle_beta 90.235200
_cell_angle_gamma 90.691000
loop_
  _atom_site_label
  _atom_site_type_symbol
  _atom_site_fract_x
  _atom_site_fract_y
  _atom_site_fract_z
O1 O -0.05533 0.44235 1.04104
 O2 O -0.05273 0.56514 0.95599
 O3 O -0.05394 0.43536 0.96177
 O4 O -0.05659 0.57099 1.03635
 O5 O 0.05421 0.57278 1.03768
 O6 O 0.05685 0.43671 0.96330
 O7 O 0.05794 0.56613 0.95738
 O8 O 0.05551 0.44432 1.04289
 Cu9 Cu -0.06578 0.50368 0.99844
 Cu10 Cu 0.06725 0.50545 1.00030
 C11 C -0.00031 0.42217 1.05638
 C12 C 0.00309 0.58671 0.94203
 C13 C 0.00182 0.41197 0.95039
 C14 C -0.00166 0.59440 1.05023
 O15 O 0.56765 0.05845 0.45712
 O16 O 0.43859 0.06116 0.53783
 O17 O 0.57010 0.05995 0.53577
 O18 O 0.43685 0.05985 0.45686
 O19 O 0.43431 -0.04963 0.45887
 O20 O 0.56603 -0.04960 0.53866
 O21 O 0.43585 -0.04832 0.53954
 O22 O 0.56557 -0.05102 0.45918
 Cu23 Cu 0.50273 0.07092 0.49677
 Cu24 Cu 0.49958 -0.06062 0.49915
 C25 C 0.59021 0.00325 0.44518
 C26 C 0.41580 0.00690 0.55287
 C27 C 0.59177 0.00517 0.55000
 C28 C 0.41347 0.00502 0.44396
 C29 C 0.13678 0.01252 0.26290
 H30 H 0.13982 0.01786 0.22976
 C31 C 0.19535 0.01359 0.28671
 H32 H 0.24373 0.01956 0.27190
 C33 C 0.07013 -0.00135 0.32282
 H34 H 0.02134 -0.00586 0.33695
 C35 C 0.12746 -0.00104 0.34773
 H36 H 0.12236 -0.00547 0.38083
 N37 N 0.07580 0.00406 0.28112
 C38 C -0.05414 -0.08584 0.18809
 H39 H -0.09525 -0.05123 0.18728
 C40 C -0.05604 -0.14173 0.16314
 H41 H -0.09851 -0.14907 0.14275
 C42 C 0.05143 -0.11731 0.21544
 H43 H 0.09277 -0.10830 0.23630
 C44 C 0.05154 -0.17381 0.19112
 H45 H 0.09324 -0.20762 0.19366
 Zn46 Zn -0.00113 0.00215 0.24644
 N47 N -0.00057 -0.07427 0.21319
 C48 C -0.00309 0.07810 0.17169
 N49 N 0.00101 0.08039 0.21350
 C50 C 0.00753 0.13916 0.23331
 C51 C 0.00787 0.19893 0.21104
 C52 C -0.00338 0.13675 0.14826
 C53 C -0.09175 -0.05441 0.30336
 C54 C -0.14697 -0.05634 0.32973
 C55 C -0.18098 0.04993 0.30193
 C56 C -0.12490 0.04998 0.27630
 N57 N -0.08054 -0.00074 0.27836
 H58 H -0.00638 0.03097 0.15640
 H59 H 0.01167 0.13946 0.26653
 H60 H 0.01220 0.24553 0.22709
 H61 H -0.00678 0.13445 0.11504
 H62 H -0.05639 -0.09476 0.30377
 H63 H -0.15319 -0.09818 0.35070
 H64 H -0.21520 0.09117 0.29997
 H65 H -0.11655 0.09111 0.25519
 C66 C -0.00263 -0.18668 0.16444
 C67 C 0.19080 0.00580 0.32953
 C68 C -0.19165 -0.00285 0.33000
 C69 C 0.00134 0.19784 0.16813
 C70 C -0.04741 0.12415 0.78302
 H71 H -0.08601 0.11806 0.75991
 C72 C -0.04879 0.17948 0.80844
 H73 H -0.08869 0.21457 0.80409
 C74 C 0.05260 0.08724 0.81494
 H75 H 0.09312 0.05241 0.81684
 C76 C 0.05297 0.14157 0.84106
 H77 H 0.09269 0.14576 0.86376
 N78 N 0.00254 0.07894 0.78680
 C79 C 0.09742 -0.04654 0.69652
 H80 H 0.06382 -0.08911 0.69745
 C81 C 0.15470 -0.04732 0.67192
 H82 H 0.16426 -0.09067 0.65366
 C83 C 0.12380 0.06245 0.71832
 H84 H 0.11111 0.10536 0.73613
 C85 C 0.18173 0.06375 0.69419
 H86 H 0.21376 0.10753 0.69426
 Zn87 Zn 0.00397 0.00475 0.75097
 N88 N 0.08318 0.00773 0.71911
 C89 C -0.06128 0.02008 0.67409
 N90 N -0.07159 0.00852 0.71498
 C91 C -0.13476 0.00028 0.73030
 C92 C -0.19024 -0.00053 0.70383
 C93 C -0.11542 0.02144 0.64672
 C94 C 0.05633 -0.09015 0.80710
 C95 C 0.05807 -0.14891 0.83041
 C96 C -0.04736 -0.18177 0.79963
 C97 C -0.04712 -0.12233 0.77697
 N98 N 0.00347 -0.07697 0.78170
 H99 H -0.01100 0.02813 0.66255
 H100 H -0.14189 -0.00700 0.76307
 H101 H -0.24008 -0.00878 0.71624
 H102 H -0.10633 0.02974 0.61418
 H103 H 0.09795 -0.05563 0.80894
 H104 H 0.09996 -0.15716 0.85111
 H105 H -0.08812 -0.21704 0.79524
 H106 H -0.08709 -0.11342 0.75522
 C107 C 0.19800 0.00826 0.67063
 C108 C 0.00191 0.18899 0.83807
 C109 C 0.00549 -0.19560 0.82705
 C110 C -0.18061 0.00974 0.66147
 C111 C 0.05715 -0.32580 0.09683
 C112 C -0.00260 -0.35394 0.08201
 C113 C -0.06316 -0.33307 0.09984
 C114 C -0.06344 -0.28026 0.12784
 C115 C -0.00315 -0.24698 0.13859
 C116 C 0.05686 -0.27382 0.12433
 C117 C 0.11560 -0.24037 0.10410
 C118 C 0.11588 -0.29734 0.07393
 H119 H -0.11057 -0.35575 0.09107
 H120 H -0.11106 -0.26443 0.14000
 H121 H 0.16055 -0.23934 0.12449
 H122 H 0.10250 -0.19189 0.08959
 H123 H 0.16098 -0.32903 0.07699
 H124 H 0.10293 -0.28197 0.04187
 C125 C -0.06069 0.33780 0.10026
 C126 C -0.00141 0.37211 0.08999
 C127 C 0.05738 0.35529 0.11209
 C128 C 0.05764 0.30014 0.13934
 C129 C -0.00051 0.26045 0.14435
 C130 C -0.06019 0.28308 0.12656
 C131 C -0.11334 0.24786 0.10244
 C132 C -0.11383 0.30793 0.07351
 H133 H 0.10393 0.38230 0.10667
 H134 H 0.10414 0.28598 0.15427
 H135 H -0.16067 0.24149 0.12016
 H136 H -0.09512 0.20230 0.08747
 H137 H -0.16148 0.33600 0.07456
 H138 H -0.09542 0.29709 0.04205
 C139 C 0.33657 0.06716 0.59854
 C140 C 0.36628 0.00795 0.58658
 C141 C 0.34785 -0.05048 0.60839
 C142 C 0.29531 -0.05012 0.63732
 C143 C 0.25964 0.00861 0.64491
 C144 C 0.28464 0.06746 0.62691
 C145 C 0.24865 0.12120 0.60403
 C146 C 0.30554 0.12084 0.57296
 H147 H 0.37191 -0.09705 0.60190
 H148 H 0.28113 -0.09639 0.65242
 H149 H 0.24674 0.16781 0.62184
 H150 H 0.19970 0.10411 0.59115
 H151 H 0.33631 0.16723 0.57292
 H152 H 0.28964 0.10355 0.54200
 C153 C -0.30065 0.05437 0.57542
 C154 C -0.35029 0.00482 0.57831
 C155 C -0.33904 -0.04853 0.60598
 C156 C -0.28369 -0.04726 0.63318
 C157 C -0.23764 0.00646 0.63238
 C158 C -0.24532 0.05476 0.60144
 C159 C -0.24538 0.12856 0.60452
 C160 C -0.30621 0.12813 0.57605
 H161 H -0.37431 -0.08979 0.60775
 H162 H -0.27748 -0.08760 0.65522
 H163 H -0.20007 0.15175 0.59021
 H164 H -0.25677 0.14554 0.63614
 H165 H -0.29592 0.15121 0.54539
 H166 H -0.35296 0.14479 0.59118
 C167 C -0.05539 -0.34081 0.89301
 C168 C 0.00414 -0.36668 0.90952
 C169 C 0.06511 -0.34323 0.89211
 C170 C 0.06574 -0.28989 0.86353
 C171 C 0.00553 -0.25838 0.85173
 C172 C -0.05465 -0.28828 0.86492
 C173 C -0.11555 -0.25809 0.88319
 C174 C -0.11639 -0.31556 0.91403
 H175 H 0.11272 -0.36362 0.90198
 H176 H 0.11365 -0.27172 0.85217
 H177 H -0.15907 -0.25893 0.86166
 H178 H -0.10472 -0.20924 0.89743
 H179 H -0.16043 -0.34938 0.91024
 H180 H -0.10607 -0.30005 0.94619
 C181 C -0.05689 0.32089 0.91228
 C182 C 0.00258 0.35414 0.92297
 C183 C 0.06318 0.32853 0.90802
 C184 C 0.06280 0.27557 0.88019
 C185 C 0.00182 0.24650 0.86645
 C186 C -0.05753 0.26909 0.88450
 C187 C -0.12232 0.29225 0.86595
 C188 C -0.12180 0.34781 0.89700
 H189 H 0.11087 0.35076 0.91665
 H190 H 0.11040 0.25920 0.86829
 H191 H -0.16398 0.25582 0.87087
 H192 H -0.11682 0.31144 0.83386
 H193 H -0.16223 0.34263 0.92037
 H194 H -0.11629 0.39805 0.88270
 C195 C -0.32850 -0.05764 0.40471
 C196 C -0.35559 0.00232 0.41780
 C197 C -0.32252 0.06146 0.40490
 C198 C -0.26864 0.05989 0.37703
 C199 C -0.24660 -0.00073 0.36082
 C200 C -0.27555 -0.05908 0.37708
 C201 C -0.30424 -0.11780 0.35542
 C202 C -0.36228 -0.11624 0.38564
 H203 H -0.33871 0.10925 0.41573
 H204 H -0.24504 0.10642 0.36787
 H205 H -0.27241 -0.16240 0.35935
 H206 H -0.31929 -0.10606 0.32314
 H207 H -0.36380 -0.15995 0.40691
 H208 H -0.41109 -0.10360 0.37092
 C209 C 0.32890 -0.05426 0.40018
 C210 C 0.36211 0.00458 0.41103
 C211 C 0.34502 0.06297 0.38897
 C212 C 0.29076 0.06291 0.36089
 C213 C 0.25213 0.00482 0.35494
 C214 C 0.27500 -0.05409 0.37307
 C215 C 0.23886 -0.10762 0.39662
 C216 C 0.29804 -0.10778 0.42642
 H217 H 0.37146 0.10920 0.39470
 H218 H 0.27657 0.10893 0.34576
 H219 H 0.23414 -0.15412 0.37880
 H220 H 0.19163 -0.09058 0.41092
 H221 H 0.32727 -0.15439 0.42573
 H222 H 0.28503 -0.09041 0.45771
   
