data_POSCAR
  _audit_creation_date              2014-09-24
  _audit_creation_method            'ToBaCCo'
  _symmetry_space_group_name_H-M    'P1'
  _symmetry_Int_Tables_number       1
  _symmetry_cell_setting            triclinic
  loop_
  _symmetry_equiv_pos_as_xyz
 x,y,z
_cell_length_a 14.5463
_cell_length_b 14.6511
_cell_length_c 37.1728
_cell_angle_alpha 90.800200
_cell_angle_beta 90.799300
_cell_angle_gamma 118.479300
loop_
  _atom_site_label
  _atom_site_type_symbol
  _atom_site_fract_x
  _atom_site_fract_y
  _atom_site_fract_z
C1 C -0.02872 0.06429 0.52524
 C2 C -0.12549 -0.01530 0.50292
 C3 C -0.10378 -0.07566 0.47950
 C4 C 0.01226 -0.04948 0.48042
 C5 C 0.01325 -0.00204 0.54313
 C6 C 0.03287 -0.06302 0.52014
 C7 C 0.05074 0.12581 0.49714
 C8 C 0.07270 0.06806 0.47371
 H9 H -0.20422 -0.02833 0.50686
 H10 H 0.03300 -0.09537 0.46136
 H11 H 0.00879 -0.01406 0.57192
 H12 H 0.08430 0.20938 0.49512
 C13 C 0.93213 -0.11461 0.19500
 C14 C 1.01364 -0.12967 0.17273
 C15 C 1.07678 -0.04422 0.15283
 C16 C 1.05089 0.04612 0.15714
 C17 C 0.99326 -0.02052 0.21596
 C18 C 1.06192 0.06710 0.19592
 C19 C 0.87280 -0.08720 0.16696
 C20 C 0.93318 -0.00419 0.14704
 H21 H 1.02332 -0.19827 0.17351
 H22 H 1.09833 0.11522 0.14082
 H23 H 0.99902 -0.02093 0.24510
 H24 H 0.78978 -0.13549 0.16131
 C25 C 0.08682 1.04706 0.86192
 C26 C 0.10208 1.14498 0.84172
 C27 C 0.02240 1.12624 0.81746
 C28 C -0.06369 1.01185 0.81563
 C29 C -0.02067 1.00610 0.87846
 C30 C -0.09907 0.98945 0.85476
 C31 C 0.07314 0.96950 0.83206
 C32 C -0.00418 0.95069 0.80781
 H33 H 0.16638 1.22192 0.84689
 H34 H -0.12849 0.99356 0.79594
 H35 H -0.03018 1.00805 0.90731
 H36 H 0.12417 0.93487 0.82960
 O37 O 0.38131 -0.04852 -0.02796
 O38 O 0.58327 -0.05704 0.03097
 O39 O 0.39185 -0.08578 0.04027
 O40 O 0.54232 -0.07713 -0.03745
 O41 O 0.62855 0.09406 -0.03458
 O42 O 0.46713 0.08509 0.04374
 O43 O 0.66251 0.11394 0.03548
 O44 O 0.46836 0.12274 -0.02527
 Cu45 Cu 0.46655 -0.08290 0.00134
 Cu46 Cu 0.56444 0.11991 0.00585
 C47 C 0.39175 0.03955 -0.03713
 C48 C 0.65878 0.02834 0.04298
 C49 C 0.39926 -0.00388 0.05467
 C50 C 0.61075 0.00793 -0.04966
 O51 O -0.08825 0.40071 0.70436
 O52 O -0.08509 0.55738 0.62586
 O53 O -0.11667 0.36973 0.63403
 O54 O -0.11217 0.57006 0.69469
 O55 O 0.06026 0.65133 0.69559
 O56 O 0.05574 0.44464 0.63672
 O57 O 0.08722 0.63056 0.62715
 O58 O 0.08412 0.48379 0.70522
 Cu59 Cu -0.11667 0.46680 0.66529
 Cu60 Cu 0.08774 0.56061 0.66688
 C61 C -0.00073 0.41480 0.71764
 C62 C 0.00339 0.62080 0.61301
 C63 C -0.03207 0.37219 0.62490
 C64 C -0.02612 0.64653 0.70477
 O65 O 0.55878 0.59632 0.30129
 O66 O 0.36429 0.41117 0.36191
 O67 O 0.53001 0.60380 0.36877
 O68 O 0.38213 0.43869 0.29189
 O69 O 0.46353 0.34528 0.29859
 O70 O 0.62303 0.52165 0.37346
 O71 O 0.45994 0.33252 0.36865
 O72 O 0.64793 0.50987 0.30452
 Cu73 Cu 0.44880 0.51911 0.33160
 Cu74 Cu 0.55724 0.41873 0.33688
 C75 C 0.63588 0.58352 0.29198
 C76 C 0.37763 0.33839 0.37509
 C77 C 0.60451 0.59500 0.38337
 C78 C 0.39586 0.36290 0.28236
 C79 C -0.12884 0.14590 0.55763
 C80 C -0.03722 0.13825 0.55239
 C81 C 0.05428 0.20656 0.57203
 C82 C 0.05542 0.28163 0.59555
 C83 C -0.03524 0.29039 0.60045
 C84 C -0.12785 0.22110 0.58162
 H85 H -0.20066 0.09585 0.54305
 H86 H 0.12631 0.20295 0.56853
 H87 H 0.12775 0.33317 0.60980
 H88 H -0.19909 0.22626 0.58493
 C89 C 0.77937 0.81891 0.23573
 C90 C 0.85569 0.80070 0.21899
 C91 C 0.85944 0.70876 0.22662
 C92 C 0.78805 0.63728 0.25045
 C93 C 0.71186 0.65653 0.26672
 C94 C 0.70839 0.74793 0.25893
 H95 H 0.77530 0.88971 0.23096
 H96 H 0.91746 0.69220 0.21482
 H97 H 0.79235 0.56710 0.25612
 H98 H 0.65150 0.76575 0.27117
 C99 C 0.26188 0.14243 -0.10237
 C100 C 0.16715 0.05230 -0.11043
 C101 C 0.14668 -0.04044 -0.09319
 C102 C 0.21921 -0.04423 -0.06939
 C103 C 0.31420 0.04501 -0.06175
 C104 C 0.33452 0.13878 -0.07808
 H105 H 0.28134 0.21522 -0.11492
 H106 H 0.07438 -0.11130 -0.09883
 H107 H 0.20087 -0.11734 -0.05706
 H108 H 0.40749 0.20897 -0.07260
 C109 C 0.11752 0.84329 0.54856
 C110 C 0.02717 0.84138 0.53438
 C111 C -0.07125 0.75845 0.54231
 C112 C -0.07950 0.68240 0.56631
 C113 C 0.01074 0.68826 0.58267
 C114 C 0.10951 0.76680 0.57226
 H115 H 0.19379 0.90786 0.54334
 H116 H -0.14205 0.75731 0.53228
 H117 H -0.15647 0.62282 0.57362
 H118 H 0.18077 0.77332 0.58421
 C119 C 0.19829 0.24769 0.20522
 C120 C 0.15615 0.14161 0.21239
 C121 C 0.20682 0.11058 0.23834
 C122 C 0.29144 0.18356 0.25872
 C123 C 0.32577 0.28943 0.25449
 C124 C 0.28084 0.32146 0.22692
 H125 H 0.16203 0.27378 0.18508
 H126 H 0.18004 0.02919 0.24337
 H127 H 0.32502 0.15687 0.27960
 H128 H 0.30689 0.40326 0.22314
 C129 C 0.72588 -0.09791 -0.11867
 C130 C 0.80904 -0.00682 -0.13107
 C131 C 0.81848 0.08982 -0.12045
 C132 C 0.75047 0.09543 -0.09533
 C133 C 0.67185 0.00426 -0.08068
 C134 C 0.65718 -0.09254 -0.09396
 H135 H 0.71896 -0.17283 -0.12596
 H136 H 0.88403 0.16111 -0.12918
 H137 H 0.76325 0.17092 -0.08588
 H138 H 0.59673 -0.16450 -0.08351
 C139 C 0.16003 -0.12297 0.11302
 C140 C 0.16473 -0.03539 0.13053
 C141 C 0.25242 0.06229 0.12517
 C142 C 0.33062 0.07287 0.10140
 C143 C 0.32373 -0.01425 0.08286
 C144 C 0.23864 -0.11258 0.08959
 H145 H 0.09370 -0.19915 0.11630
 H146 H 0.26073 0.13120 0.13912
 H147 H 0.39543 0.14941 0.09710
 H148 H 0.23056 -0.18161 0.07573
 C149 C 0.72836 0.83975 0.44258
 C150 C 0.81593 0.83615 0.45733
 C151 C 0.82871 0.74853 0.44964
 C152 C 0.75829 0.66858 0.42665
 C153 C 0.67293 0.67394 0.41079
 C154 C 0.65775 0.75964 0.41955
 H155 H 0.71633 0.90613 0.44779
 H156 H 0.89355 0.74144 0.46125
 H157 H 0.77202 0.60356 0.42071
 H158 H 0.59280 0.76640 0.40779
 C159 C -0.08069 0.19801 0.78467
 C160 C 0.01685 0.20702 0.79513
 C161 C 0.10812 0.29027 0.78230
 C162 C 0.10191 0.35991 0.75833
 C163 C 0.00425 0.34798 0.74646
 C164 C -0.08697 0.26743 0.76049
 H165 H -0.15265 0.13657 0.79482
 H166 H 0.18438 0.29930 0.78956
 H167 H 0.17401 0.42119 0.74812
 H168 H -0.16325 0.25651 0.75216
 C169 C 0.82821 -0.06551 0.09038
 C170 C 0.88634 0.01685 0.11489
 C171 C 0.87829 0.10815 0.11288
 C172 C 0.80718 0.11389 0.08833
 C173 C 0.74255 0.02780 0.06588
 C174 C 0.75651 -0.06046 0.06631
 H175 H 0.83322 -0.13687 0.09161
 H176 H 0.92129 0.17180 0.13189
 H177 H 0.79869 0.18340 0.08830
 H178 H 0.70950 -0.12706 0.04889
 C179 C 0.23636 0.11684 0.43963
 C180 C 0.14163 0.11891 0.44335
 C181 C 0.12186 0.18688 0.42236
 C182 C 0.19784 0.25643 0.39978
 C183 C 0.29544 0.25940 0.39750
 C184 C 0.31285 0.18659 0.41675
 H185 H 0.25355 0.06596 0.45597
 H186 H 0.04914 0.18972 0.42490
 H187 H 0.18095 0.30982 0.38482
 H188 H 0.38693 0.18619 0.41519
 C189 C 0.07073 0.90027 0.75660
 C190 C -0.01806 0.88402 0.77586
 C191 C -0.11305 0.79393 0.76875
 C192 C -0.11704 0.71768 0.74455
 C193 C -0.02586 0.73069 0.72737
 C194 C 0.06707 0.82434 0.73276
 H195 H 0.14483 0.96969 0.76159
 H196 H -0.18203 0.77954 0.78361
 H197 H -0.19016 0.64660 0.74060
 H198 H 0.13800 0.83770 0.71942
   
