data_POSCAR
  _audit_creation_date              2014-09-24
  _audit_creation_method            'ToBaCCo'
  _symmetry_space_group_name_H-M    'P1'
  _symmetry_Int_Tables_number       1
  _symmetry_cell_setting            triclinic
  loop_
  _symmetry_equiv_pos_as_xyz
 x,y,z
_cell_length_a 62.4018
_cell_length_b 60.1155
_cell_length_c 60.8980
_cell_angle_alpha 89.373600
_cell_angle_beta 90.252700
_cell_angle_gamma 89.263500
loop_
  _atom_site_label
  _atom_site_type_symbol
  _atom_site_fract_x
  _atom_site_fract_y
  _atom_site_fract_z
N1 N 0.59321 0.65524 0.60811
 N2 N 0.58675 0.64762 0.62725
 C3 C 0.56891 0.65885 0.63318
 C4 C 0.56386 0.67425 0.61682
 C5 C 0.57963 0.67141 0.60114
 H6 H 0.56028 0.65612 0.64831
 H7 H 0.58155 0.68098 0.58617
 Cu8 Cu 0.60258 0.62404 0.64263
 Cu9 Cu 0.61971 0.64507 0.59451
 Cu10 Cu 0.64964 0.60519 0.62310
 N11 N 0.61875 0.60048 0.65765
 N12 N 0.63744 0.59371 0.65027
 C13 C 0.64506 0.57723 0.66334
 C14 C 0.63026 0.57315 0.67984
 C15 C 0.61375 0.58839 0.67562
 H16 H 0.65994 0.56840 0.66042
 H17 H 0.59908 0.59048 0.68475
 N18 N 0.65905 0.61861 0.59516
 N19 N 0.64711 0.63287 0.58370
 C20 C 0.65727 0.63788 0.56485
 C21 C 0.67660 0.62640 0.56453
 C22 C 0.67723 0.61440 0.58402
 H23 H 0.65128 0.64936 0.55241
 H24 H 0.68981 0.60305 0.58940
 H25 H 0.62058 0.61363 0.60874
 H26 H 0.63476 0.63616 0.62361
 N27 N 0.90137 0.34022 0.11751
 N28 N 0.91045 0.35088 0.13370
 C29 C 0.92991 0.34181 0.13779
 C30 C 0.93310 0.32409 0.12364
 C31 C 0.91448 0.32365 0.11102
 H32 H 0.94047 0.34722 0.15073
 H33 H 0.91070 0.31235 0.09792
 Cu34 Cu 0.89523 0.37422 0.14925
 Cu35 Cu 0.87310 0.34855 0.10633
 Cu36 Cu 0.85369 0.39978 0.12375
 N37 N 0.88387 0.40248 0.15931
 N38 N 0.86829 0.41293 0.14870
 C39 C 0.86393 0.43226 0.15880
 C40 C 0.87736 0.43386 0.17685
 C41 C 0.88978 0.41464 0.17669
 H42 H 0.85145 0.44393 0.15384
 H43 H 0.90231 0.40997 0.18823
 N44 N 0.84106 0.38349 0.09903
 N45 N 0.84859 0.36412 0.09229
 C46 C 0.83672 0.35737 0.07513
 C47 C 0.82073 0.37304 0.07118
 C48 C 0.82391 0.38933 0.08666
 H49 H 0.83925 0.34198 0.06643
 H50 H 0.81446 0.40436 0.08864
 H51 H 0.87980 0.38102 0.11309
 H52 H 0.86032 0.36738 0.13186
 N53 N 0.39693 0.16971 -0.11692
 N54 N 0.40814 0.15826 -0.13122
 C55 C 0.42597 0.16960 -0.13630
 C56 C 0.42580 0.18927 -0.12468
 C57 C 0.40710 0.18878 -0.11258
 H58 H 0.43803 0.16416 -0.14782
 H59 H 0.40154 0.20116 -0.10111
 Cu60 Cu 0.39782 0.13011 -0.14240
 Cu61 Cu 0.37052 0.15864 -0.10414
 Cu62 Cu 0.35230 0.10809 -0.12307
 N63 N 0.38710 0.10199 -0.15327
 N64 N 0.36905 0.09377 -0.14593
 C65 C 0.36458 0.07512 -0.15697
 C66 C 0.38072 0.07136 -0.17205
 C67 C 0.39480 0.08872 -0.16917
 H68 H 0.35053 0.06512 -0.15433
 H69 H 0.40915 0.09187 -0.17854
 N70 N 0.33758 0.12510 -0.10001
 N71 N 0.34426 0.14457 -0.09312
 C72 C 0.33101 0.15183 -0.07726
 C73 C 0.31530 0.13613 -0.07389
 C74 C 0.31998 0.11942 -0.08864
 H75 H 0.33303 0.16710 -0.06831
 H76 H 0.31123 0.10422 -0.09087
 H77 H 0.37721 0.12528 -0.10882
 H78 H 0.36158 0.14004 -0.13090
 N79 N 0.10628 0.83040 0.38052
 N80 N 0.09542 0.84164 0.36548
 C81 C 0.07792 0.83009 0.35989
 C82 C 0.07786 0.81031 0.37192
 C83 C 0.09630 0.81113 0.38474
 H84 H 0.06622 0.83566 0.34785
 H85 H 0.10161 0.79915 0.39703
 Cu86 Cu 0.10538 0.87021 0.35466
 Cu87 Cu 0.13122 0.84268 0.39524
 Cu88 Cu 0.14700 0.89542 0.37855
 N89 N 0.11527 0.89897 0.34431
 N90 N 0.13102 0.90917 0.35428
 C91 C 0.13479 0.92855 0.34378
 C92 C 0.12084 0.93044 0.32611
 C93 C 0.10870 0.91137 0.32694
 H94 H 0.14739 0.93992 0.34804
 H95 H 0.09617 0.90682 0.31559
 N96 N 0.16124 0.87854 0.40256
 N97 N 0.15578 0.85815 0.40829
 C98 C 0.16886 0.85089 0.42456
 C99 C 0.18321 0.86752 0.42940
 C100 C 0.17787 0.88481 0.41513
 H101 H 0.16775 0.83487 0.43267
 H102 H 0.18574 0.90068 0.41381
 H103 H 0.12254 0.87561 0.39017
 H104 H 0.14111 0.86304 0.36968
 N105 N 0.09869 0.15945 0.11426
 N106 N 0.08863 0.14851 0.12983
 C107 C 0.07063 0.15979 0.13511
 C108 C 0.06949 0.17891 0.12234
 C109 C 0.08761 0.17825 0.10936
 H110 H 0.05912 0.15449 0.14724
 H111 H 0.09187 0.19005 0.09663
 Cu112 Cu 0.09985 0.12050 0.14155
 Cu113 Cu 0.12395 0.14722 0.09980
 Cu114 Cu 0.14305 0.09607 0.11898
 N115 N 0.11199 0.09298 0.15350
 N116 N 0.12834 0.08303 0.14406
 C117 C 0.13329 0.06425 0.15532
 C118 C 0.11947 0.06251 0.17294
 C119 C 0.10619 0.08105 0.17130
 H120 H 0.14643 0.05308 0.15145
 H121 H 0.09325 0.08544 0.18224
 N122 N 0.15586 0.11209 0.09399
 N123 N 0.14910 0.13190 0.08719
 C124 C 0.16132 0.13855 0.07022
 C125 C 0.17646 0.12212 0.06607
 C126 C 0.17250 0.10561 0.08148
 H127 H 0.15906 0.15399 0.06119
 H128 H 0.18125 0.09010 0.08356
 H129 H 0.11730 0.11427 0.10636
 H130 H 0.13502 0.12859 0.12639
 N131 N 0.39799 0.84031 0.62094
 N132 N 0.40589 0.84851 0.63914
 C133 C 0.42279 0.83590 0.64567
 C134 C 0.42571 0.81896 0.63069
 C135 C 0.40966 0.82233 0.61520
 H136 H 0.43243 0.83894 0.66010
 H137 H 0.40648 0.81227 0.60098
 Cu138 Cu 0.39329 0.87495 0.65234
 Cu139 Cu 0.37295 0.85319 0.60620
 Cu140 Cu 0.34996 0.90000 0.62962
 N141 N 0.38036 0.90141 0.66518
 N142 N 0.36318 0.91083 0.65640
 C143 C 0.35717 0.92830 0.66864
 C144 C 0.37140 0.93007 0.68600
 C145 C 0.38596 0.91275 0.68325
 H146 H 0.34359 0.93909 0.66500
 H147 H 0.39939 0.90853 0.69384
 N148 N 0.33893 0.88655 0.60253
 N149 N 0.34754 0.86860 0.59374
 C150 C 0.33625 0.86331 0.57568
 C151 C 0.31979 0.87875 0.57288
 C152 C 0.32202 0.89325 0.59020
 H153 H 0.33986 0.84939 0.56519
 H154 H 0.31185 0.90743 0.59375
 H155 H 0.37730 0.88530 0.61702
 H156 H 0.35950 0.86719 0.63385
 N157 N 0.90111 0.66284 0.38386
 N158 N 0.90995 0.65267 0.36711
 C159 C 0.92751 0.66385 0.36088
 C160 C 0.92956 0.68216 0.37424
 C161 C 0.91250 0.68105 0.38860
 H162 H 0.93789 0.65928 0.34746
 H163 H 0.90893 0.69239 0.40179
 Cu164 Cu 0.89727 0.62619 0.35472
 Cu165 Cu 0.87613 0.65115 0.39894
 Cu166 Cu 0.85427 0.60290 0.37826
 N167 N 0.88476 0.59921 0.34324
 N168 N 0.86835 0.58983 0.35292
 C169 C 0.86326 0.57120 0.34212
 C170 C 0.87707 0.56892 0.32456
 C171 C 0.89047 0.58702 0.32573
 H172 H 0.85021 0.56035 0.34642
 H173 H 0.90356 0.59080 0.31479
 N174 N 0.84231 0.61863 0.40374
 N175 N 0.85091 0.63671 0.41191
 C176 C 0.83959 0.64303 0.42962
 C177 C 0.82292 0.62839 0.43256
 C178 C 0.82509 0.61318 0.41583
 H179 H 0.84301 0.65739 0.43952
 H180 H 0.81506 0.59896 0.41297
 H181 H 0.88124 0.61833 0.39035
 H182 H 0.86318 0.63534 0.37209
 N183 N 0.60206 0.33966 -0.11303
 N184 N 0.59057 0.35244 -0.12633
 C185 C 0.57223 0.34203 -0.13134
 C186 C 0.57234 0.32153 -0.12074
 C187 C 0.59154 0.32061 -0.10927
 H188 H 0.56004 0.34862 -0.14237
 H189 H 0.59741 0.30711 -0.09893
 Cu190 Cu 0.60107 0.38088 -0.13691
 Cu191 Cu 0.62982 0.34860 -0.10172
 Cu192 Cu 0.65286 0.39352 -0.12782
 N193 N 0.61548 0.40373 -0.15389
 N194 N 0.63585 0.40809 -0.15082
 C195 C 0.64166 0.42433 -0.16487
 C196 C 0.62396 0.43058 -0.17740
 C197 C 0.60760 0.41711 -0.16994
 H198 H 0.65746 0.43146 -0.16552
 H199 H 0.59125 0.41689 -0.17586
 N200 N 0.66718 0.37676 -0.10382
 N201 N 0.65791 0.36029 -0.09316
 C202 C 0.67058 0.35373 -0.07628
 C203 C 0.68883 0.36654 -0.07650
 C204 C 0.68619 0.38090 -0.09423
 H205 H 0.66678 0.34074 -0.06458
 H206 H 0.69687 0.39407 -0.09907
 H207 H 0.62812 0.38269 -0.10807
 H208 H 0.63626 0.36424 -0.13136
 C209 C -0.03009 0.31390 0.13447
 C210 C -0.01270 0.29902 0.13409
 C211 C -0.01414 0.27901 0.12276
 C212 C -0.03293 0.27435 0.11104
 C213 C -0.05013 0.28947 0.11085
 C214 C -0.04916 0.30935 0.12290
 N215 N 0.00351 0.26357 0.12354
 N216 N 0.00085 0.24291 0.12030
 C217 C 0.01832 0.22726 0.12070
 C218 C 0.01403 0.20478 0.12453
 C219 C 0.03072 0.18910 0.12538
 C220 C 0.05195 0.19562 0.12173
 C221 C 0.05623 0.21812 0.11742
 C222 C 0.03955 0.23392 0.11718
 H223 H -0.02834 0.32907 0.14366
 H224 H 0.00178 0.30285 0.14307
 H225 H -0.03429 0.25903 0.10198
 H226 H -0.06435 0.28508 0.10176
 H227 H -0.00229 0.19947 0.12717
 H228 H 0.02699 0.17181 0.12850
 H229 H 0.07248 0.22353 0.11459
 H230 H 0.04317 0.25121 0.11401
 C231 C 0.53907 0.70058 0.59669
 C232 C 0.52280 0.71678 0.59650
 C233 C 0.51358 0.72386 0.61615
 C234 C 0.52052 0.71421 0.63611
 C235 C 0.53663 0.69781 0.63630
 C236 C 0.54621 0.69097 0.61660
 N237 N 0.49737 0.74094 0.61539
 N238 N 0.49016 0.75007 0.63266
 C239 C 0.47393 0.76714 0.63181
 C240 C 0.46849 0.77827 0.65109
 C241 C 0.45291 0.79520 0.65076
 C242 C 0.44231 0.80110 0.63108
 C243 C 0.44769 0.78976 0.61176
 C244 C 0.46341 0.77299 0.61209
 H245 H 0.54595 0.69552 0.58121
 H246 H 0.51752 0.72403 0.58101
 H247 H 0.51356 0.71936 0.65152
 H248 H 0.54185 0.69086 0.65192
 H249 H 0.47645 0.77388 0.66640
 H250 H 0.44901 0.80344 0.66596
 H251 H 0.43997 0.79400 0.59631
 H252 H 0.46731 0.76461 0.59695
 C253 C 1.06599 0.77293 0.38242
 C254 C 1.05033 0.75650 0.38250
 C255 C 1.03040 0.76052 0.37262
 C256 C 1.02644 0.78095 0.36192
 C257 C 1.04226 0.79719 0.36124
 C258 C 1.06221 0.79359 0.37178
 N259 N 1.01443 0.74367 0.37361
 N260 N 0.99456 0.74839 0.37175
 C261 C 0.97855 0.73156 0.37224
 C262 C 0.95751 0.73747 0.37779
 C263 C 0.94160 0.72133 0.37874
 C264 C 0.94641 0.69915 0.37346
 C265 C 0.96743 0.69332 0.36744
 C266 C 0.98346 0.70936 0.36709
 H267 H 1.08111 0.76914 0.39044
 H268 H 1.05361 0.74072 0.39067
 H269 H 1.01117 0.78429 0.35397
 H270 H 1.03845 0.81273 0.35293
 H271 H 0.95353 0.75455 0.38170
 H272 H 0.92547 0.72625 0.38326
 H273 H 0.97154 0.67630 0.36338
 H274 H 0.99960 0.70449 0.36257
 C275 C 0.43646 0.22892 -0.11970
 C276 C 0.45192 0.24554 -0.11970
 C277 C 0.47331 0.24041 -0.12446
 C278 C 0.47907 0.21842 -0.12969
 C279 C 0.46356 0.20184 -0.13006
 C280 C 0.44213 0.20689 -0.12489
 N281 N 0.48883 0.25773 -0.12380
 N282 N 0.50888 0.25359 -0.12401
 C283 C 0.52445 0.27087 -0.12349
 C284 C 0.54590 0.26518 -0.11932
 C285 C 0.56146 0.28165 -0.11829
 C286 C 0.55584 0.30412 -0.12183
 C287 C 0.53434 0.30978 -0.12639
 C288 C 0.51872 0.29331 -0.12705
 H289 H 0.42005 0.23336 -0.11586
 H290 H 0.44727 0.26244 -0.11572
 H291 H 0.49551 0.21407 -0.13354
 H292 H 0.46842 0.18500 -0.13400
 H293 H 0.55052 0.24793 -0.11665
 H294 H 0.57792 0.27674 -0.11500
 H295 H 0.52953 0.32696 -0.12909
 H296 H 0.50224 0.29809 -0.13041
 C297 C 0.12579 -0.02997 0.31427
 C298 C 0.12529 -0.01329 0.29807
 C299 C 0.11973 -0.01834 0.27642
 C300 C 0.11414 -0.04022 0.27118
 C301 C 0.11416 -0.05679 0.28745
 C302 C 0.12016 -0.05186 0.30911
 N303 N 0.11980 -0.00104 0.26007
 N304 N 0.12020 -0.00532 0.23966
 C305 C 0.11982 0.01188 0.22322
 C306 C 0.12608 0.00676 0.20181
 C307 C 0.12616 0.02326 0.18546
 C308 C 0.11942 0.04506 0.19020
 C309 C 0.11275 0.05009 0.21161
 C310 C 0.11315 0.03369 0.22806
 H311 H 0.13033 -0.02571 0.33087
 H312 H 0.12954 0.00354 0.30232
 H313 H 0.10964 -0.04447 0.25457
 H314 H 0.10990 -0.07355 0.28299
 H315 H 0.13115 -0.01002 0.19786
 H316 H 0.13119 0.01891 0.16905
 H317 H 0.10760 0.06679 0.21573
 H318 H 0.10809 0.03798 0.24448
 C319 C 0.64995 0.54323 -0.30069
 C320 C 0.65091 0.52663 -0.28446
 C321 C 0.63340 0.52283 -0.27079
 C322 C 0.61489 0.53614 -0.27324
 C323 C 0.61393 0.55294 -0.28930
 C324 C 0.63139 0.55666 -0.30347
 N325 N 0.63487 0.50541 -0.25461
 N326 N 0.61883 0.49937 -0.24327
 C327 C 0.62047 0.48205 -0.22699
 C328 C 0.60184 0.47468 -0.21667
 C329 C 0.60290 0.45781 -0.20069
 C330 C 0.62273 0.44817 -0.19460
 C331 C 0.64143 0.45566 -0.20497
 C332 C 0.64032 0.47238 -0.22108
 H333 H 0.66393 0.54544 -0.31086
 H334 H 0.66533 0.51654 -0.28265
 H335 H 0.60115 0.53357 -0.26275
 H336 H 0.59929 0.56266 -0.29065
 H337 H 0.58645 0.48203 -0.22104
 H338 H 0.58821 0.45259 -0.19290
 H339 H 0.65693 0.44847 -0.20082
 H340 H 0.65497 0.47779 -0.22882
 C341 C 0.40171 1.04722 0.80222
 C342 C 0.40274 1.03054 0.78640
 C343 C 0.38407 1.02005 0.77937
 C344 C 0.36431 1.02614 0.78866
 C345 C 0.36329 1.04260 0.80465
 C346 C 0.38196 1.05344 0.81149
 N347 N 0.38553 1.00347 0.76269
 N348 N 0.36889 0.99569 0.75355
 C349 C 0.36998 0.97908 0.73690
 C350 C 0.35126 0.97378 0.72550
 C351 C 0.35173 0.95791 0.70893
 C352 C 0.37096 0.94680 0.70366
 C353 C 0.38972 0.95193 0.71534
 C354 C 0.38928 0.96804 0.73175
 H355 H 0.41639 1.05512 0.80728
 H356 H 0.41807 1.02595 0.77942
 H357 H 0.34965 1.01822 0.78355
 H358 H 0.34780 1.04711 0.81132
 H359 H 0.33629 0.98212 0.72939
 H360 H 0.33696 0.95417 0.70043
 H361 H 0.40480 0.94377 0.71158
 H362 H 0.40395 0.97183 0.74041
 C363 C 0.87214 0.47375 0.18710
 C364 C 0.87246 0.49072 0.20262
 C365 C 0.87785 0.48596 0.22451
 C366 C 0.88344 0.46405 0.23068
 C367 C 0.88361 0.44716 0.21508
 C368 C 0.87777 0.45183 0.19319
 N369 N 0.87761 0.50359 0.24013
 N370 N 0.87705 0.49975 0.26071
 C371 C 0.87724 0.51729 0.27641
 C372 C 0.87081 0.51276 0.29796
 C373 C 0.87055 0.52961 0.31360
 C374 C 0.87726 0.55114 0.30801
 C375 C 0.88409 0.55557 0.28646
 C376 C 0.88388 0.53883 0.27070
 H377 H 0.86776 0.47782 0.17029
 H378 H 0.86822 0.50756 0.19765
 H379 H 0.88782 0.46002 0.24750
 H380 H 0.88789 0.43039 0.22024
 H381 H 0.86576 0.49620 0.30256
 H382 H 0.86540 0.52571 0.33014
 H383 H 0.88924 0.57206 0.28170
 H384 H 0.88906 0.54266 0.25416
 C385 C 0.29122 0.15687 -0.04809
 C386 C 0.27500 0.15728 -0.03232
 C387 C 0.26530 0.13755 -0.02547
 C388 C 0.27180 0.11731 -0.03483
 C389 C 0.28788 0.11690 -0.05073
 C390 C 0.29787 0.13666 -0.05745
 N391 N 0.24905 0.13848 -0.00895
 N392 N 0.24102 0.12096 -0.00065
 C393 C 0.22477 0.12172 0.01587
 C394 C 0.21816 0.10180 0.02560
 C395 C 0.20253 0.10191 0.04196
 C396 C 0.19306 0.12203 0.04874
 C397 C 0.19960 0.14203 0.03878
 C398 C 0.21538 0.14190 0.02255
 H399 H 0.29841 0.17241 -0.05304
 H400 H 0.27009 0.17299 -0.02528
 H401 H 0.26452 0.10182 -0.02984
 H402 H 0.29271 0.10102 -0.05744
 H403 H 0.22523 0.08614 0.02054
 H404 H 0.19772 0.08619 0.04907
 H405 H 0.19276 0.15782 0.04372
 H406 H 0.22021 0.15754 0.01523
 C407 C 0.68703 0.63057 0.52509
 C408 C 0.70252 0.63060 0.50857
 C409 C 0.72420 0.62739 0.51381
 C410 C 0.73026 0.62375 0.53583
 C411 C 0.71474 0.62323 0.55231
 C412 C 0.69299 0.62677 0.54710
 N413 N 0.73968 0.62759 0.49653
 N414 N 0.75960 0.62988 0.50032
 C415 C 0.77513 0.62949 0.48309
 C416 C 0.79565 0.63765 0.48718
 C417 C 0.81114 0.63757 0.47066
 C418 C 0.80646 0.62879 0.44992
 C419 C 0.78594 0.62031 0.44594
 C420 C 0.77032 0.62085 0.46232
 H421 H 0.67037 0.63313 0.52060
 H422 H 0.69765 0.63331 0.49165
 H423 H 0.74692 0.62107 0.54024
 H424 H 0.71978 0.62038 0.56915
 H425 H 0.79957 0.64426 0.50315
 H426 H 0.82688 0.64402 0.47423
 H427 H 0.78188 0.61356 0.43007
 H428 H 0.75460 0.61430 0.45885
 C429 C 0.78331 0.38163 0.05868
 C430 C 0.76699 0.38072 0.04295
 C431 C 0.77084 0.37111 0.02250
 C432 C 0.79117 0.36195 0.01805
 C433 C 0.80736 0.36234 0.03400
 C434 C 0.80361 0.37234 0.05439
 N435 N 0.75381 0.37062 0.00670
 N436 N 0.75727 0.36792 -0.01368
 C437 C 0.74004 0.36700 -0.02925
 C438 C 0.74413 0.37157 -0.05141
 C439 C 0.72745 0.37151 -0.06682
 C440 C 0.70654 0.36620 -0.06034
 C441 C 0.70258 0.36102 -0.03820
 C442 C 0.71915 0.36166 -0.02271
 H443 H 0.77994 0.38925 0.07435
 H444 H 0.75135 0.38774 0.04659
 H445 H 0.79444 0.35428 0.00239
 H446 H 0.82291 0.35514 0.03028
 H447 H 0.76018 0.37562 -0.05665
 H448 H 0.73092 0.37541 -0.08383
 H449 H 0.68657 0.35700 -0.03276
 H450 H 0.71567 0.35789 -0.00568
 C451 C 0.20843 0.84658 0.45451
 C452 C 0.22447 0.84608 0.47060
 C453 C 0.23251 0.86587 0.47900
 C454 C 0.22449 0.88633 0.47091
 C455 C 0.20859 0.88687 0.45466
 C456 C 0.20031 0.86699 0.44635
 N457 N 0.24874 0.86473 0.49569
 N458 N 0.25529 0.88196 0.50551
 C459 C 0.27158 0.88078 0.52215
 C460 C 0.27641 0.89997 0.53388
 C461 C 0.29204 0.89934 0.55040
 C462 C 0.30328 0.87946 0.55532
 C463 C 0.29853 0.86026 0.54335
 C464 C 0.28276 0.86087 0.52697
 H465 H 0.20258 0.83097 0.44831
 H466 H 0.23059 0.83021 0.47665
 H467 H 0.23048 0.90187 0.47713
 H468 H 0.20257 0.90285 0.44887
 H469 H 0.26796 0.91543 0.53026
 H470 H 0.29545 0.91448 0.55913
 H471 H 0.30675 0.84465 0.54682
 H472 H 0.27934 0.84581 0.51809
   
