data_POSCAR
  _audit_creation_date              2014-09-24
  _audit_creation_method            'ToBaCCo'
  _symmetry_space_group_name_H-M    'P1'
  _symmetry_Int_Tables_number       1
  _symmetry_cell_setting            triclinic
  loop_
  _symmetry_equiv_pos_as_xyz
 x,y,z
_cell_length_a 38.1644
_cell_length_b 36.3018
_cell_length_c 36.2846
_cell_angle_alpha 89.940800
_cell_angle_beta 89.992700
_cell_angle_gamma 89.961700
loop_
  _atom_site_label
  _atom_site_type_symbol
  _atom_site_fract_x
  _atom_site_fract_y
  _atom_site_fract_z
C1 C 0.30322 0.30034 0.23573
 H2 H 0.30473 0.30097 0.26550
 C3 C 0.32584 0.32210 0.21472
 H4 H 0.34479 0.33968 0.22827
 C5 C 0.27695 0.27640 0.18157
 H6 H 0.25825 0.25819 0.16872
 C7 C 0.29910 0.29771 0.15953
 H8 H 0.29712 0.29611 0.12979
 N9 N 0.27908 0.27845 0.21897
 C10 C 0.19616 0.26345 0.30043
 H11 H 0.19464 0.23370 0.30114
 C12 C 0.17357 0.28450 0.32219
 H13 H 0.15463 0.27098 0.33985
 C14 C 0.22241 0.31754 0.27626
 H15 H 0.24108 0.33036 0.25795
 C16 C 0.20030 0.33961 0.29755
 H17 H 0.20227 0.36933 0.29586
 Zn18 Zn 0.24966 0.24960 0.24954
 N19 N 0.22027 0.28016 0.27842
 C20 C 0.27706 0.22294 0.31750
 N21 N 0.27909 0.22071 0.28010
 C22 C 0.30319 0.19870 0.26337
 C23 C 0.32592 0.17707 0.28443
 C24 C 0.29931 0.20177 0.33958
 C25 C 0.19607 0.23594 0.19877
 C26 C 0.17335 0.21499 0.17710
 C27 C 0.20001 0.15976 0.20163
 C28 C 0.22225 0.18173 0.22284
 N29 N 0.22020 0.21912 0.22070
 H30 H 0.25840 0.24124 0.33032
 H31 H 0.30463 0.19793 0.23360
 H32 H 0.34487 0.15943 0.27090
 H33 H 0.29744 0.20355 0.36932
 H34 H 0.19462 0.26570 0.19808
 H35 H 0.15439 0.22860 0.15952
 H36 H 0.20191 0.13003 0.20332
 H37 H 0.24095 0.16884 0.24108
 C38 C 0.17577 0.32292 0.32081
 C39 C 0.32365 0.32086 0.17627
 C40 C 0.17544 0.17656 0.17847
 C41 C 0.32386 0.17855 0.32287
 C42 C 0.80394 0.80171 0.23527
 H43 H 0.80548 0.80243 0.26504
 C44 C 0.82642 0.82354 0.21417
 H45 H 0.84527 0.84125 0.22774
 C46 C 0.77772 0.77745 0.18123
 H47 H 0.75910 0.75909 0.16847
 C48 C 0.79972 0.79882 0.15907
 H49 H 0.79763 0.79705 0.12934
 N50 N 0.77989 0.77962 0.21861
 C51 C 0.69710 0.76432 0.30017
 H52 H 0.69571 0.73456 0.30088
 C53 C 0.67441 0.78525 0.32193
 H54 H 0.65554 0.77163 0.33960
 C55 C 0.72311 0.81854 0.27600
 H56 H 0.74172 0.83145 0.25770
 C57 C 0.70089 0.84050 0.29730
 H58 H 0.70273 0.87023 0.29561
 Zn59 Zn 0.75062 0.75069 0.24928
 N60 N 0.72114 0.78115 0.27816
 C61 C 0.77808 0.72410 0.31724
 N62 N 0.78016 0.72193 0.27985
 C63 C 0.80429 0.69994 0.26312
 C64 C 0.82694 0.67822 0.28419
 C65 C 0.80025 0.70284 0.33933
 C66 C 0.69703 0.73672 0.19858
 C67 C 0.67437 0.71562 0.17698
 C68 C 0.70123 0.66056 0.20165
 C69 C 0.72341 0.68267 0.22278
 N70 N 0.72124 0.72005 0.22053
 H71 H 0.75939 0.74238 0.33006
 H72 H 0.80576 0.69921 0.23336
 H73 H 0.84587 0.66056 0.27066
 H74 H 0.79830 0.70454 0.36906
 H75 H 0.69548 0.76647 0.19780
 H76 H 0.65536 0.72910 0.15937
 H77 H 0.70322 0.63084 0.20343
 H78 H 0.74215 0.66990 0.24105
 C79 C 0.67644 0.82368 0.32057
 C80 C 0.82419 0.82219 0.17570
 C81 C 0.67660 0.67720 0.17846
 C82 C 0.82477 0.67960 0.32263
 C83 C 0.80443 0.29968 0.73699
 H84 H 0.80600 0.30038 0.76676
 C85 C 0.82696 0.32147 0.71588
 H86 H 0.84588 0.33914 0.72936
 C87 C 0.77812 0.27557 0.68294
 H88 H 0.75943 0.25728 0.67016
 C89 C 0.80015 0.29690 0.66081
 H90 H 0.79811 0.29524 0.63107
 N91 N 0.78031 0.27770 0.72033
 C92 C 0.69742 0.26282 0.80186
 H93 H 0.69594 0.23307 0.80267
 C94 C 0.67476 0.28390 0.82350
 H95 H 0.65581 0.27041 0.84118
 C96 C 0.72361 0.31687 0.77754
 H97 H 0.74228 0.32966 0.75920
 C98 C 0.70142 0.33898 0.79871
 H99 H 0.70334 0.36870 0.79689
 Zn100 Zn 0.75092 0.24888 0.75098
 N101 N 0.72153 0.27950 0.77982
 C102 C 0.77830 0.22221 0.81895
 N103 N 0.78035 0.22000 0.78156
 C104 C 0.80441 0.19796 0.76483
 C105 C 0.82707 0.17621 0.78586
 C106 C 0.80045 0.20096 0.84105
 C107 C 0.69729 0.23522 0.70028
 C108 C 0.67460 0.21427 0.67857
 C109 C 0.70129 0.15904 0.70304
 C110 C 0.72351 0.18100 0.72429
 N111 N 0.72144 0.21839 0.72219
 H112 H 0.75965 0.24055 0.83176
 H113 H 0.80585 0.19721 0.73506
 H114 H 0.84593 0.15857 0.77215
 H115 H 0.79842 0.20283 0.87080
 H116 H 0.69582 0.26497 0.69960
 H117 H 0.65564 0.22788 0.66098
 H118 H 0.70322 0.12930 0.70469
 H119 H 0.74221 0.16811 0.74252
 C120 C 0.67688 0.32233 0.82198
 C121 C 0.82467 0.32016 0.67744
 C122 C 0.67673 0.17584 0.67988
 C123 C 0.82498 0.17762 0.82436
 C124 C 0.30308 0.80117 0.73640
 H125 H 0.30457 0.80188 0.76616
 C126 C 0.32567 0.82291 0.71533
 H127 H 0.34458 0.84057 0.72885
 C128 C 0.27690 0.77701 0.68228
 H129 H 0.25825 0.75870 0.66947
 C130 C 0.29901 0.79829 0.66020
 H131 H 0.29707 0.79659 0.63046
 N132 N 0.27900 0.77916 0.71968
 C133 C 0.19616 0.76393 0.80121
 H134 H 0.19478 0.73418 0.80200
 C135 C 0.17343 0.78492 0.82287
 H136 H 0.15454 0.77134 0.84055
 C137 C 0.22216 0.81811 0.77692
 H138 H 0.24078 0.83097 0.75858
 C139 C 0.19991 0.84011 0.79812
 H140 H 0.20172 0.86984 0.79632
 Zn141 Zn 0.24968 0.75024 0.75029
 N142 N 0.22021 0.78072 0.77917
 C143 C 0.27718 0.72352 0.81821
 N144 N 0.27921 0.72143 0.78081
 C145 C 0.30336 0.69955 0.76400
 C146 C 0.32612 0.67788 0.78497
 C147 C 0.29946 0.70230 0.84021
 C148 C 0.19613 0.73636 0.69952
 C149 C 0.17351 0.71531 0.67784
 C150 C 0.20033 0.66020 0.70245
 C151 C 0.22247 0.68227 0.72367
 N152 N 0.22030 0.71965 0.72149
 H153 H 0.25846 0.74172 0.83110
 H154 H 0.30480 0.69888 0.73423
 H155 H 0.34510 0.66032 0.77137
 H156 H 0.29758 0.70395 0.86996
 H157 H 0.19458 0.76612 0.69879
 H158 H 0.15452 0.72883 0.66022
 H159 H 0.20232 0.63048 0.70417
 H160 H 0.24119 0.66947 0.74194
 C161 C 0.17543 0.82335 0.82138
 C162 C 0.32351 0.82154 0.67689
 C163 C 0.17573 0.67689 0.67924
 C164 C 0.32405 0.67919 0.82342
 Si165 Si -0.00130 0.00036 -0.00032
 Si166 Si -0.00001 0.49989 0.50018
 Si167 Si 0.50041 0.00009 0.50020
 Si168 Si 0.50049 0.49993 0.00005
 C169 C 0.15243 -0.15446 -0.15638
 C170 C 0.13328 -0.13579 -0.13770
 C171 C 0.11056 -0.11341 -0.11533
 C172 C 0.08981 -0.12973 -0.08796
 C173 C 0.06798 -0.10791 -0.06600
 C174 C 0.06681 -0.06970 -0.07133
 C175 C 0.08750 -0.05339 -0.09875
 C176 C 0.10933 -0.07521 -0.12070
 C177 C 0.04463 -0.04719 -0.04851
 C178 C 0.02619 -0.02827 -0.02932
 H179 H 0.09058 -0.15924 -0.08356
 H180 H 0.05210 -0.12079 -0.04486
 H181 H 0.08682 -0.02387 -0.10307
 H182 H 0.12529 -0.06231 -0.14177
 C183 C 0.15299 0.34517 0.34322
 C184 C 0.13404 0.36391 0.36206
 C185 C 0.11158 0.38637 0.38464
 C186 C 0.08176 0.37105 0.40115
 C187 C 0.06007 0.39287 0.42327
 C188 C 0.06813 0.43009 0.42897
 C189 C 0.09792 0.44541 0.41241
 C190 C 0.11960 0.42360 0.39029
 C191 C 0.04597 0.45251 0.45189
 C192 C 0.02753 0.47137 0.47113
 H193 H 0.07532 0.34230 0.39697
 H194 H 0.03710 0.38075 0.43596
 H195 H 0.10440 0.47415 0.41665
 H196 H 0.14260 0.43571 0.37767
 C197 C 0.65354 -0.15420 0.34297
 C198 C 0.63446 -0.13562 0.36183
 C199 C 0.61184 -0.11338 0.38444
 C200 C 0.60497 -0.07673 0.37468
 C201 C 0.58325 -0.05500 0.39684
 C202 C 0.56831 -0.06984 0.42886
 C203 C 0.57511 -0.10652 0.43857
 C204 C 0.59684 -0.12825 0.41641
 C205 C 0.54623 -0.04738 0.45183
 C206 C 0.52786 -0.02849 0.47111
 H207 H 0.61646 -0.06495 0.35004
 H208 H 0.57817 -0.02666 0.38909
 H209 H 0.56372 -0.11825 0.46328
 H210 H 0.60200 -0.15655 0.42422
 C211 C 0.65396 0.34462 -0.15580
 C212 C 0.63487 0.36337 -0.13714
 C213 C 0.61222 0.38585 -0.11479
 C214 C 0.59105 0.36956 -0.08775
 C215 C 0.56927 0.39147 -0.06582
 C216 C 0.56858 0.42974 -0.07083
 C217 C 0.58969 0.44601 -0.09792
 C218 C 0.61146 0.42411 -0.11985
 C219 C 0.54643 0.45232 -0.04805
 C220 C 0.52800 0.47129 -0.02891
 H221 H 0.59146 0.34001 -0.08359
 H222 H 0.55307 0.37861 -0.04493
 H223 H 0.58937 0.47558 -0.10201
 H224 H 0.62774 0.43699 -0.14065
 C225 C -0.15423 0.15732 -0.15541
 C226 C -0.13517 0.13854 -0.13668
 C227 C -0.11259 0.11605 -0.11423
 C228 C -0.11357 0.11925 -0.07576
 C229 C -0.09187 0.09716 -0.05390
 C230 C -0.06910 0.07179 -0.07041
 C231 C -0.06805 0.06864 -0.10888
 C232 C -0.08975 0.09073 -0.13075
 C233 C -0.04703 0.04883 -0.04788
 C234 C -0.02868 0.02953 -0.02894
 H235 H -0.13115 0.13872 -0.06271
 H236 H -0.09291 0.09980 -0.02418
 H237 H -0.05055 0.04909 -0.12192
 H238 H -0.08880 0.08802 -0.16046
 C239 C -0.15241 0.65721 0.34490
 C240 C -0.13344 0.63837 0.36366
 C241 C -0.11097 0.61581 0.38616
 C242 C -0.11206 0.61896 0.42463
 C243 C -0.09047 0.59680 0.44653
 C244 C -0.06770 0.57139 0.43006
 C245 C -0.06655 0.56829 0.39159
 C246 C -0.08814 0.59046 0.36968
 C247 C -0.04572 0.54838 0.45262
 C248 C -0.02741 0.52905 0.47157
 H249 H -0.12963 0.63845 0.43765
 H250 H -0.09158 0.59940 0.47625
 H251 H -0.04905 0.54872 0.37857
 H252 H -0.08711 0.58778 0.33996
 C253 C 0.34687 0.15637 0.34514
 C254 C 0.36602 0.13773 0.36388
 C255 C 0.38873 0.11541 0.38636
 C256 C 0.38602 0.11676 0.42485
 C257 C 0.40784 0.09481 0.44671
 C258 C 0.43247 0.07143 0.43019
 C259 C 0.43525 0.07015 0.39170
 C260 C 0.41342 0.09210 0.36983
 C261 C 0.45463 0.04856 0.45270
 C262 C 0.47303 0.02929 0.47161
 H263 H 0.36700 0.13467 0.43791
 H264 H 0.40546 0.09599 0.47644
 H265 H 0.45418 0.05215 0.37864
 H266 H 0.41571 0.09083 0.34010
 C267 C 0.34705 0.65690 -0.15442
 C268 C 0.36620 0.63814 -0.13580
 C269 C 0.38892 0.61566 -0.11349
 C270 C 0.38996 0.62066 -0.07522
 C271 C 0.41176 0.59857 -0.05348
 C272 C 0.43261 0.57138 -0.06992
 C273 C 0.43164 0.56643 -0.10819
 C274 C 0.40984 0.58853 -0.12994
 C275 C 0.45474 0.54840 -0.04748
 C276 C 0.47312 0.52909 -0.02859
 H277 H 0.37387 0.64154 -0.06222
 H278 H 0.41229 0.60260 -0.02390
 H279 H 0.44764 0.54547 -0.12118
 H280 H 0.40921 0.58442 -0.15950
 C281 C -0.15436 -0.15652 0.15457
 C282 C -0.13549 -0.13759 0.13580
 C283 C -0.11313 -0.11492 0.11331
 C284 C -0.12735 -0.09465 0.08403
 C285 C -0.10567 -0.07254 0.06219
 C286 C -0.06967 -0.07062 0.06954
 C287 C -0.05545 -0.09090 0.09882
 C288 C -0.07713 -0.11301 0.12066
 C289 C -0.04742 -0.04780 0.04709
 C290 C -0.02892 -0.02863 0.02822
 H291 H -0.15514 -0.09592 0.07811
 H292 H -0.11694 -0.05697 0.03963
 H293 H -0.02765 -0.08960 0.10474
 H294 H -0.06587 -0.12857 0.14324
 C295 C -0.15267 0.34265 0.65512
 C296 C -0.13383 0.36159 0.63634
 C297 C -0.11153 0.38430 0.61383
 C298 C -0.12556 0.40341 0.58368
 C299 C -0.10395 0.42557 0.56182
 C300 C -0.06820 0.42870 0.57002
 C301 C -0.05415 0.40958 0.60015
 C302 C -0.07577 0.38741 0.62202
 C303 C -0.04602 0.45159 0.54756
 C304 C -0.02757 0.47082 0.52869
 H305 H -0.15318 0.40120 0.57711
 H306 H -0.11508 0.44025 0.53859
 H307 H -0.02654 0.41182 0.60673
 H308 H -0.06465 0.37276 0.64527
 C309 C 0.34635 -0.15611 0.65462
 C310 C 0.36536 -0.13731 0.63589
 C311 C 0.38790 -0.11479 0.61346
 C312 C 0.37377 -0.09393 0.58455
 C313 C 0.39562 -0.07195 0.56277
 C314 C 0.43170 -0.07074 0.56982
 C315 C 0.44584 -0.09162 0.59872
 C316 C 0.42398 -0.11360 0.62050
 C317 C 0.45411 -0.04802 0.54745
 C318 C 0.47272 -0.02890 0.52864
 H319 H 0.34591 -0.09464 0.57887
 H320 H 0.38442 -0.05591 0.54050
 H321 H 0.47370 -0.09087 0.60440
 H322 H 0.43518 -0.12962 0.64280
 C323 C 0.34647 0.34328 0.15406
 C324 C 0.36547 0.36216 0.13541
 C325 C 0.38800 0.38479 0.11307
 C326 C 0.37371 0.40676 0.08508
 C327 C 0.39555 0.42884 0.06340
 C328 C 0.43178 0.42904 0.06961
 C329 C 0.44609 0.40706 0.09759
 C330 C 0.42424 0.38497 0.11928
 C331 C 0.45419 0.45181 0.04730
 C332 C 0.47280 0.47097 0.02852
 H333 H 0.34572 0.40683 0.08006
 H334 H 0.38422 0.44573 0.04184
 H335 H 0.47407 0.40701 0.10262
 H336 H 0.43556 0.36809 0.14085
 C337 C 0.15247 0.15442 0.15620
 C338 C 0.13332 0.13582 0.13747
 C339 C 0.11061 0.11355 0.11503
 C340 C 0.09122 0.12972 0.08648
 C341 C 0.06939 0.10800 0.06445
 C342 C 0.06686 0.07003 0.07090
 C343 C 0.08618 0.05388 0.09950
 C344 C 0.10801 0.07560 0.12152
 C345 C 0.04467 0.04763 0.04802
 C346 C 0.02622 0.02880 0.02878
 H347 H 0.09306 0.15904 0.08120
 H348 H 0.05459 0.12076 0.04239
 H349 H 0.08444 0.02455 0.10470
 H350 H 0.12290 0.06281 0.14351
 C351 C 0.15289 0.65464 0.65694
 C352 C 0.13386 0.63594 0.63818
 C353 C 0.11130 0.61355 0.61569
 C354 C 0.09236 0.62951 0.58669
 C355 C 0.07068 0.60767 0.56462
 C356 C 0.06785 0.56980 0.57147
 C357 C 0.08673 0.55385 0.60052
 C358 C 0.10841 0.57569 0.62258
 C359 C 0.04580 0.54728 0.54857
 C360 C 0.02743 0.52838 0.52931
 H361 H 0.09443 0.65875 0.58111
 H362 H 0.05621 0.62027 0.54222
 H363 H 0.08474 0.52459 0.60603
 H364 H 0.12296 0.56307 0.64492
 C365 C 0.65383 0.15372 0.65752
 C366 C 0.63474 0.13515 0.63869
 C367 C 0.61209 0.11294 0.61611
 C368 C 0.59247 0.12926 0.58783
 C369 C 0.57071 0.10761 0.56567
 C370 C 0.56848 0.06956 0.57171
 C371 C 0.58804 0.05325 0.60004
 C372 C 0.60980 0.07490 0.62220
 C373 C 0.54634 0.04723 0.54870
 C374 C 0.52792 0.02846 0.52938
 H375 H 0.59407 0.15865 0.58287
 H376 H 0.55571 0.12050 0.54382
 H377 H 0.58652 0.02385 0.60493
 H378 H 0.62488 0.06200 0.64398
 C379 C 0.65369 0.65491 0.15626
 C380 C 0.63462 0.63617 0.13760
 C381 C 0.61199 0.61373 0.11523
 C382 C 0.59166 0.62991 0.08743
 C383 C 0.56992 0.60804 0.06546
 C384 C 0.56843 0.56990 0.07121
 C385 C 0.58870 0.55373 0.09906
 C386 C 0.61044 0.57560 0.12103
 C387 C 0.54633 0.54735 0.04838
 C388 C 0.52795 0.52843 0.02916
 H389 H 0.59268 0.65936 0.08269
 H390 H 0.55437 0.62082 0.04398
 H391 H 0.58776 0.52426 0.10372
 H392 H 0.62607 0.56280 0.14243
   
