data_POSCAR
  _audit_creation_date              2014-09-24
  _audit_creation_method            'ToBaCCo'
  _symmetry_space_group_name_H-M    'P1'
  _symmetry_Int_Tables_number       1
  _symmetry_cell_setting            triclinic
  loop_
  _symmetry_equiv_pos_as_xyz
 x,y,z
_cell_length_a 41.0827
_cell_length_b 43.5774
_cell_length_c 35.9900
_cell_angle_alpha 90.736900
_cell_angle_beta 86.930000
_cell_angle_gamma 90.522700
loop_
  _atom_site_label
  _atom_site_type_symbol
  _atom_site_fract_x
  _atom_site_fract_y
  _atom_site_fract_z
C1 C 0.30241 0.30031 0.22956
 H2 H 0.30206 0.30368 0.25941
 C3 C 0.32234 0.31885 0.20641
 H4 H 0.33732 0.33644 0.21863
 C5 C 0.28411 0.27259 0.17746
 H6 H 0.26930 0.25445 0.16626
 C7 C 0.30429 0.29011 0.15337
 H8 H 0.30475 0.28547 0.12370
 N9 N 0.28319 0.27819 0.21479
 C10 C 0.19993 0.26569 0.29445
 H11 H 0.19714 0.24104 0.29337
 C12 C 0.17698 0.28323 0.31519
 H13 H 0.15716 0.27184 0.33072
 C14 C 0.22773 0.31064 0.27377
 H15 H 0.24672 0.32150 0.25671
 C16 C 0.20544 0.32902 0.29420
 H17 H 0.20789 0.35369 0.29229
 Zn18 Zn 0.25549 0.25411 0.24714
 N19 N 0.22520 0.27949 0.27494
 C20 C 0.26678 0.21516 0.30753
 N21 N 0.28149 0.23175 0.27954
 C22 C 0.31444 0.23142 0.27331
 C23 C 0.33384 0.21405 0.29567
 C24 C 0.28521 0.19756 0.33068
 C25 C 0.20681 0.23764 0.19897
 C26 C 0.18795 0.21796 0.17784
 C27 C 0.21988 0.17536 0.19742
 C28 C 0.23803 0.19590 0.21827
 N29 N 0.23124 0.22635 0.21863
 H30 H 0.24061 0.21504 0.31164
 H31 H 0.32580 0.24411 0.25045
 H32 H 0.36000 0.21402 0.28982
 H33 H 0.27216 0.18455 0.35209
 H34 H 0.20193 0.26200 0.19982
 H35 H 0.16856 0.22754 0.16246
 H36 H 0.22617 0.15141 0.19822
 H37 H 0.25767 0.18748 0.23406
 C38 C 0.17996 0.31527 0.31583
 C39 C 0.32315 0.31393 0.16777
 C40 C 0.19427 0.18628 0.17666
 C41 C 0.31943 0.19666 0.32488
 C42 C 0.78628 0.81117 0.24691
 H43 H 0.78511 0.81015 0.27697
 C44 C 0.80538 0.83362 0.22878
 H45 H 0.81891 0.84968 0.24545
 C46 C 0.76974 0.79135 0.18931
 H47 H 0.75553 0.77500 0.17406
 C48 C 0.78814 0.81370 0.16995
 H49 H 0.78787 0.81317 0.13999
 N50 N 0.76947 0.79026 0.22704
 C51 C 0.71142 0.78181 0.32087
 H52 H 0.72888 0.76839 0.33492
 C53 C 0.68876 0.79952 0.34182
 H54 H 0.68858 0.79872 0.37185
 C55 C 0.69078 0.79933 0.26476
 H56 H 0.69213 0.79946 0.23466
 C57 C 0.66759 0.81718 0.28460
 H58 H 0.65097 0.83095 0.26958
 Zn59 Zn 0.74430 0.76052 0.25387
 N60 N 0.71201 0.78202 0.28304
 C61 C 0.75604 0.71512 0.30536
 N62 N 0.77090 0.73730 0.28420
 C63 C 0.80383 0.74102 0.28278
 C64 C 0.82309 0.72220 0.30356
 C65 C 0.77430 0.69583 0.32671
 C66 C 0.69261 0.72760 0.22076
 C67 C 0.67965 0.70548 0.19710
 C68 C 0.73442 0.69324 0.17425
 C69 C 0.74625 0.71545 0.19843
 N70 N 0.72536 0.73226 0.22083
 H71 H 0.72986 0.71221 0.30529
 H72 H 0.81538 0.75807 0.26488
 H73 H 0.84931 0.72548 0.30169
 H74 H 0.76129 0.67844 0.34274
 H75 H 0.67644 0.74069 0.23942
 H76 H 0.65350 0.70270 0.19802
 H77 H 0.75167 0.68022 0.15667
 H78 H 0.77224 0.71929 0.19950
 C79 C 0.66671 0.81783 0.32359
 C80 C 0.80664 0.83534 0.18968
 C81 C 0.70071 0.68774 0.17331
 C82 C 0.80854 0.69908 0.32592
 C83 C 0.82166 0.26446 0.72049
 H84 H 0.83325 0.24985 0.73968
 C85 C 0.84101 0.28350 0.69730
 H86 H 0.86728 0.28287 0.69855
 C87 C 0.77373 0.28456 0.69687
 H88 H 0.74749 0.28597 0.69797
 C89 C 0.79212 0.30399 0.67324
 H90 H 0.77943 0.31985 0.65640
 N91 N 0.78858 0.26490 0.71950
 C92 C 0.70036 0.26227 0.78239
 H93 H 0.68990 0.24237 0.76915
 C94 C 0.68015 0.28261 0.80294
 H95 H 0.65412 0.27829 0.80512
 C96 C 0.74695 0.29186 0.79622
 H97 H 0.77311 0.29509 0.79362
 C98 C 0.72769 0.31272 0.81709
 H99 H 0.73965 0.33157 0.83075
 Zn100 Zn 0.76140 0.24034 0.75201
 N101 N 0.73310 0.26727 0.77940
 C102 C 0.77958 0.22178 0.82296
 N103 N 0.78677 0.21874 0.78579
 C104 C 0.81056 0.19937 0.77251
 C105 C 0.82838 0.18232 0.79689
 C106 C 0.79650 0.20497 0.84831
 C107 C 0.71619 0.22156 0.69860
 C108 C 0.69807 0.20069 0.67808
 C109 C 0.72223 0.15941 0.71079
 C110 C 0.73963 0.18106 0.73082
 N111 N 0.73673 0.21155 0.72422
 H112 H 0.76020 0.23677 0.83309
 H113 H 0.81530 0.19671 0.74278
 H114 H 0.84656 0.16684 0.78494
 H115 H 0.78998 0.20759 0.87776
 H116 H 0.71342 0.24581 0.69429
 H117 H 0.68234 0.20982 0.65791
 H118 H 0.72524 0.13528 0.71659
 H119 H 0.75528 0.17328 0.75183
 C120 C 0.69369 0.30835 0.82042
 C121 C 0.82633 0.30340 0.67302
 C122 C 0.70102 0.16893 0.68393
 C123 C 0.82133 0.18485 0.83559
 C124 C 0.26888 0.79434 0.72421
 H125 H 0.25218 0.80340 0.74571
 C126 C 0.28819 0.81454 0.70260
 H127 H 0.28600 0.83891 0.70805
 C128 C 0.29353 0.75158 0.69306
 H129 H 0.29555 0.72695 0.68978
 C130 C 0.31342 0.77097 0.67089
 H131 H 0.33071 0.76115 0.65040
 N132 N 0.27149 0.76350 0.71873
 C133 C 0.21461 0.75514 0.81776
 H134 H 0.23064 0.73949 0.83068
 C135 C 0.19281 0.77266 0.84012
 H136 H 0.19258 0.77020 0.86999
 C137 C 0.19398 0.77574 0.76326
 H138 H 0.19461 0.77674 0.73321
 C139 C 0.17171 0.79355 0.78451
 H140 H 0.15530 0.80838 0.77065
 Zn141 Zn 0.24569 0.73589 0.74821
 N142 N 0.21551 0.75771 0.78008
 C143 C 0.29050 0.72611 0.80339
 N144 N 0.27434 0.71223 0.77571
 C145 C 0.27883 0.68202 0.76724
 C146 C 0.29888 0.66413 0.78821
 C147 C 0.31013 0.70896 0.82572
 C148 C 0.21879 0.71467 0.68100
 C149 C 0.19949 0.69535 0.65977
 C150 C 0.18476 0.66674 0.71534
 C151 C 0.20362 0.68703 0.73554
 N152 N 0.22071 0.70998 0.71809
 H153 H 0.28740 0.75041 0.80881
 H154 H 0.26678 0.67161 0.74424
 H155 H 0.30079 0.64001 0.78125
 H156 H 0.32188 0.72033 0.84844
 H157 H 0.23205 0.73349 0.66784
 H158 H 0.19909 0.69942 0.63025
 H159 H 0.17191 0.64823 0.72984
 H160 H 0.20509 0.68422 0.76523
 C161 C 0.17152 0.79274 0.82343
 C162 C 0.31054 0.80288 0.67514
 C163 C 0.18227 0.67073 0.67694
 C164 C 0.31449 0.67745 0.81849
 C165 C -0.02821 -0.01920 0.02504
 C166 C -0.00522 0.00054 0.00758
 C167 C -0.01567 0.02458 -0.01423
 C168 C -0.04900 0.02886 -0.01898
 C169 C -0.07186 0.00871 -0.00156
 C170 C -0.06168 -0.01506 0.02090
 C171 C 0.02983 -0.00490 0.01101
 C172 C 0.04383 -0.03195 -0.00371
 C173 C 0.07703 -0.03787 0.00006
 C174 C 0.09570 -0.01690 0.01996
 C175 C 0.08209 0.01035 0.03477
 C176 C 0.04899 0.01634 0.02990
 H177 H -0.01981 -0.03812 0.04114
 H178 H 0.00221 0.03960 -0.02804
 H179 H 0.02855 -0.04834 -0.01763
 H180 H 0.03755 0.03670 0.04190
 H181 H -0.09760 0.01106 -0.00587
 H182 H 0.12121 -0.02164 0.02353
 C183 C -0.04864 0.47754 0.49673
 C184 C -0.03327 0.50423 0.48283
 C185 C -0.05214 0.52799 0.46951
 C186 C -0.08626 0.52493 0.46918
 C187 C -0.10123 0.49827 0.48372
 C188 C -0.08278 0.47470 0.49809
 C189 C 0.00257 0.50746 0.48299
 C190 C 0.02279 0.48484 0.46612
 C191 C 0.05692 0.48752 0.46682
 C192 C 0.07039 0.51270 0.48542
 C193 C 0.05043 0.53523 0.50269
 C194 C 0.01657 0.53290 0.50060
 H195 H -0.03382 0.45929 0.50670
 H196 H -0.03993 0.54861 0.45956
 H197 H 0.01163 0.46588 0.45175
 H198 H 0.00104 0.55027 0.51389
 H199 H -0.12756 0.49596 0.48423
 H200 H 0.09666 0.51500 0.48602
 C201 C 0.44828 -0.01462 0.52505
 C202 C 0.46640 0.00908 0.50748
 C203 C 0.45016 0.03345 0.49150
 C204 C 0.41590 0.03415 0.49281
 C205 C 0.39822 0.01066 0.51123
 C206 C 0.41402 -0.01385 0.52731
 C207 C 0.50239 0.00895 0.50736
 C208 C 0.51994 -0.01645 0.49305
 C209 C 0.55411 -0.01701 0.49391
 C210 C 0.57036 0.00754 0.51070
 C211 C 0.55302 0.03293 0.52560
 C212 C 0.51912 0.03378 0.52293
 H213 H 0.46113 -0.03270 0.53826
 H214 H 0.46441 0.05182 0.47862
 H215 H 0.50681 -0.03569 0.48154
 H216 H 0.50553 0.05325 0.53436
 H217 H 0.37180 0.01139 0.51292
 H218 H 0.59668 0.00708 0.51125
 C219 C 0.47291 0.48482 0.01462
 C220 C 0.49231 0.50238 -0.01038
 C221 C 0.47768 0.52023 -0.03680
 C222 C 0.44365 0.52176 -0.03724
 C223 C 0.42427 0.50464 -0.01150
 C224 C 0.43878 0.48554 0.01388
 C225 C 0.52777 0.50383 -0.00709
 C226 C 0.54835 0.48413 -0.02815
 C227 C 0.58230 0.48556 -0.02468
 C228 C 0.59531 0.50764 -0.00062
 C229 C 0.57469 0.52774 0.02045
 C230 C 0.54092 0.52532 0.01720
 H231 H 0.48446 0.47126 0.03516
 H232 H 0.49281 0.53372 -0.05619
 H233 H 0.53770 0.46816 -0.04741
 H234 H 0.52465 0.54048 0.03332
 H235 H 0.39793 0.50531 -0.01205
 H236 H 0.62139 0.50847 0.00204
 C237 C 0.14909 -0.18681 -0.15455
 C238 C 0.15507 -0.17656 -0.11863
 C239 C 0.13499 -0.15292 -0.09926
 N240 N 0.14427 -0.14091 -0.06647
 N241 N 0.12722 -0.11849 -0.04938
 C242 C 0.10020 -0.10728 -0.06443
 N243 N 0.09071 -0.11953 -0.09701
 N244 N 0.10780 -0.14191 -0.11415
 C245 C 0.08189 -0.08165 -0.04676
 C246 C 0.09297 -0.06574 -0.01592
 H247 H 0.17639 -0.18426 -0.10515
 H248 H 0.06041 -0.07404 -0.05999
 H249 H 0.12875 -0.17729 -0.16838
 H250 H 0.11574 -0.07257 -0.00473
 C251 C 0.15573 0.33368 0.33817
 C252 C 0.16258 0.36313 0.35145
 C253 C 0.13848 0.38175 0.37309
 N254 N 0.14738 0.40970 0.38625
 N255 N 0.12593 0.42723 0.40545
 C256 C 0.09470 0.41749 0.41223
 N257 N 0.08576 0.38950 0.39908
 N258 N 0.10726 0.37192 0.37986
 C259 C 0.07070 0.43705 0.43288
 C260 C 0.07962 0.46560 0.44743
 H261 H 0.18667 0.37296 0.34653
 H262 H 0.04596 0.42858 0.43655
 H263 H 0.13231 0.32322 0.34569
 H264 H 0.10505 0.47243 0.44458
 C265 C 0.64281 -0.16212 0.34408
 C266 C 0.64764 -0.15004 0.37951
 C267 C 0.62516 -0.12778 0.39793
 N268 N 0.63333 -0.11362 0.42994
 N269 N 0.61378 -0.09272 0.44642
 C270 C 0.58525 -0.08525 0.43155
 N271 N 0.57691 -0.09964 0.39973
 N272 N 0.59651 -0.12048 0.38318
 C273 C 0.56387 -0.06150 0.44881
 C274 C 0.57364 -0.04295 0.47818
 H275 H 0.66953 -0.15546 0.39342
 H276 H 0.54086 -0.05741 0.43651
 H277 H 0.62190 -0.15466 0.32955
 H278 H 0.59778 -0.04602 0.48822
 C279 C 0.67174 0.32940 -0.15755
 C280 C 0.68090 0.35869 -0.14552
 C281 C 0.65847 0.37872 -0.12331
 N282 N 0.66873 0.40687 -0.11208
 N283 N 0.64879 0.42529 -0.09191
 C284 C 0.61781 0.41620 -0.08220
 N285 N 0.60754 0.38807 -0.09345
 N286 N 0.62750 0.36965 -0.11360
 C287 C 0.59530 0.43627 -0.06021
 C288 C 0.60481 0.46488 -0.04639
 H289 H 0.70493 0.36775 -0.15276
 H290 H 0.57079 0.42776 -0.05422
 H291 H 0.64695 0.32165 -0.15122
 H292 H 0.63009 0.47198 -0.05038
 C293 C -0.16296 0.16744 -0.13807
 C294 C -0.13632 0.14821 -0.14606
 C295 C -0.12347 0.12827 -0.11765
 N296 N -0.09536 0.11271 -0.12512
 N297 N -0.08410 0.09370 -0.10018
 C298 C -0.10063 0.08945 -0.06691
 N299 N -0.12874 0.10498 -0.05947
 N300 N -0.13992 0.12409 -0.08432
 C301 C -0.08946 0.06743 -0.03981
 C302 C -0.05916 0.05325 -0.04401
 H303 H -0.12414 0.14748 -0.17340
 H304 H -0.10565 0.06233 -0.01592
 H305 H -0.17216 0.16906 -0.10931
 H306 H -0.04195 0.06067 -0.06601
 C307 C -0.17112 0.67982 0.34544
 C308 C -0.18199 0.65617 0.36910
 C309 C -0.15930 0.63526 0.38616
 N310 N -0.17116 0.61290 0.40914
 N311 N -0.15112 0.59317 0.42398
 C312 C -0.11842 0.59503 0.41634
 N313 N -0.10653 0.61746 0.39346
 N314 N -0.12658 0.63721 0.37863
 C315 C -0.09604 0.57287 0.43171
 C316 C -0.10732 0.54901 0.45469
 H317 H -0.20762 0.65212 0.37544
 H318 H -0.07046 0.57500 0.42342
 H319 H -0.14501 0.68335 0.34156
 H320 H -0.13331 0.54700 0.46111
 C321 C 0.33965 0.17864 0.34615
 C322 C 0.32884 0.16081 0.37654
 C323 C 0.35063 0.14037 0.39573
 N324 N 0.33849 0.12356 0.42483
 N325 N 0.35740 0.10412 0.44183
 C326 C 0.38922 0.10069 0.43040
 N327 N 0.40146 0.11764 0.40142
 N328 N 0.38252 0.13712 0.38438
 C329 C 0.40998 0.07836 0.44815
 C330 C 0.39742 0.05913 0.47627
 H331 H 0.30371 0.16105 0.38690
 H332 H 0.43494 0.07610 0.43740
 H333 H 0.36549 0.17831 0.33824
 H334 H 0.37189 0.06114 0.48510
 C335 C 0.33310 0.66038 -0.15755
 C336 C 0.34356 0.63033 -0.16469
 C337 C 0.35949 0.61246 -0.13657
 N338 N 0.37826 0.58811 -0.14719
 N339 N 0.39202 0.57115 -0.12190
 C340 C 0.38713 0.57769 -0.08503
 N341 N 0.36808 0.60184 -0.07439
 N342 N 0.35461 0.61902 -0.09970
 C343 C 0.40151 0.55867 -0.05686
 C344 C 0.42891 0.54080 -0.06531
 H345 H 0.34136 0.61970 -0.19174
 H346 H 0.39127 0.55984 -0.02852
 H347 H 0.34030 0.67135 -0.13201
 H348 H 0.44133 0.54253 -0.09255
 C349 C -0.17430 -0.14276 0.17304
 C350 C -0.17206 -0.13668 0.13482
 C351 C -0.14901 -0.11369 0.11891
 N352 N -0.15153 -0.10437 0.08336
 N353 N -0.13047 -0.08400 0.06837
 C354 C -0.10598 -0.07236 0.08835
 N355 N -0.10334 -0.08182 0.12381
 N356 N -0.12451 -0.10204 0.13886
 C357 C -0.08197 -0.05053 0.07195
 C358 C -0.08629 -0.03616 0.03819
 H359 H -0.18775 -0.14800 0.11570
 H360 H -0.06071 -0.04515 0.08741
 H361 H -0.15968 -0.12833 0.19058
 H362 H -0.10909 -0.03938 0.02477
 C363 C -0.15274 0.32423 0.64968
 C364 C -0.16341 0.33933 0.61863
 C365 C -0.14292 0.36183 0.59784
 N366 N -0.15507 0.37671 0.56882
 N367 N -0.13735 0.39798 0.55052
 C368 C -0.10676 0.40514 0.56056
 N369 N -0.09451 0.39008 0.58941
 N370 N -0.11226 0.36883 0.60774
 C371 C -0.08737 0.42947 0.54166
 C372 C -0.10010 0.44768 0.51438
 H373 H -0.18759 0.33498 0.60920
 H374 H -0.06334 0.43425 0.55132
 H375 H -0.12775 0.32762 0.65716
 H376 H -0.12497 0.44356 0.50686
 C377 C 0.33169 -0.17675 0.65147
 C378 C 0.32335 -0.14661 0.64375
 C379 C 0.34461 -0.12614 0.62088
 N380 N 0.33410 -0.09768 0.61296
 N381 N 0.35304 -0.07855 0.59277
 C382 C 0.38328 -0.08712 0.57974
 N383 N 0.39385 -0.11560 0.58768
 N384 N 0.37486 -0.13479 0.60787
 C385 C 0.40458 -0.06588 0.55788
 C386 C 0.39372 -0.03702 0.54781
 H387 H 0.30011 -0.13760 0.65413
 H388 H 0.42889 -0.07340 0.54943
 H389 H 0.35389 -0.18619 0.63854
 H390 H 0.36857 -0.03109 0.55490
 C391 C 0.34396 0.33282 0.14221
 C392 C 0.34835 0.36424 0.14805
 C393 C 0.36853 0.38311 0.12212
 N394 N 0.36475 0.41401 0.12203
 N395 N 0.38296 0.43139 0.09872
 C396 C 0.40584 0.41849 0.07491
 N397 N 0.40985 0.38763 0.07528
 N398 N 0.39142 0.37023 0.09833
 C399 C 0.42655 0.43735 0.04952
 C400 C 0.41798 0.46696 0.03982
 H401 H 0.33535 0.37560 0.17124
 H402 H 0.44837 0.42709 0.03672
 H403 H 0.35403 0.32223 0.11678
 H404 H 0.39439 0.47585 0.04930
 C405 C 0.17469 0.16711 0.15507
 C406 C 0.17874 0.13543 0.15017
 C407 C 0.15714 0.11665 0.12754
 N408 N 0.16322 0.08632 0.12240
 N409 N 0.14396 0.06885 0.10217
 C410 C 0.11782 0.08104 0.08632
 N411 N 0.11167 0.11139 0.09151
 N412 N 0.13098 0.12889 0.11172
 C413 C 0.09624 0.06187 0.06409
 C414 C 0.10298 0.03103 0.05638
 H415 H 0.19825 0.12349 0.16256
 H416 H 0.07519 0.07258 0.05314
 H417 H 0.15510 0.17770 0.14095
 H418 H 0.12536 0.02160 0.06586
 C419 C 0.16351 0.64950 0.65735
 C420 C 0.15439 0.65295 0.62078
 C421 C 0.13713 0.62817 0.60165
 N422 N 0.11903 0.63443 0.57225
 N423 N 0.10377 0.61192 0.55450
 C424 C 0.10641 0.58233 0.56532
 N425 N 0.12478 0.57608 0.59445
 N426 N 0.13971 0.59858 0.61241
 C427 C 0.09099 0.55702 0.54531
 C428 C 0.06481 0.56126 0.52291
 H429 H 0.15849 0.67430 0.60623
 H430 H 0.09980 0.53403 0.54948
 H431 H 0.15471 0.62918 0.67197
 H432 H 0.05336 0.58353 0.52216
 C433 C 0.68400 0.14630 0.66426
 C434 C 0.66055 0.15194 0.63838
 C435 C 0.64435 0.12669 0.61869
 N436 N 0.61908 0.13267 0.59714
 N437 N 0.60422 0.11001 0.57924
 C438 C 0.61419 0.08053 0.58214
 N439 N 0.63956 0.07460 0.60349
 N440 N 0.65433 0.09722 0.62147
 C441 C 0.59823 0.05511 0.56266
 C442 C 0.56967 0.05884 0.54394
 H443 H 0.65299 0.17497 0.63260
 H444 H 0.60871 0.03252 0.56459
 H445 H 0.68917 0.12252 0.66996
 H446 H 0.55791 0.08101 0.54490
 C447 C 0.68979 0.66471 0.14897
 C448 C 0.65727 0.65556 0.14602
 C449 C 0.64776 0.63092 0.12027
 N450 N 0.61608 0.62196 0.11988
 N451 N 0.60695 0.59972 0.09684
 C452 C 0.62916 0.58558 0.07325
 N453 N 0.66086 0.59456 0.07360
 N454 N 0.67000 0.61680 0.09670
 C455 C 0.61927 0.56114 0.04739
 C456 C 0.58689 0.55120 0.04662
 H457 H 0.63787 0.66596 0.16308
 H458 H 0.63780 0.55162 0.02829
 H459 H 0.70804 0.65282 0.13147
 H460 H 0.56898 0.56211 0.06552
   
