data_POSCAR
  _audit_creation_date              2014-09-24
  _audit_creation_method            'ToBaCCo'
  _symmetry_space_group_name_H-M    'P1'
  _symmetry_Int_Tables_number       1
  _symmetry_cell_setting            triclinic
  loop_
  _symmetry_equiv_pos_as_xyz
 x,y,z
_cell_length_a 41.3718
_cell_length_b 35.6340
_cell_length_c 41.9087
_cell_angle_alpha 90.940300
_cell_angle_beta 94.659300
_cell_angle_gamma 92.540700
loop_
  _atom_site_label
  _atom_site_type_symbol
  _atom_site_fract_x
  _atom_site_fract_y
  _atom_site_fract_z
N1 N 0.64640 0.62191 0.62724
 N2 N 0.88479 0.36000 0.12013
 N3 N 0.36431 0.13180 -0.13727
 N4 N 0.11321 0.88558 0.37857
 N5 N 0.10959 0.17470 0.09013
 N6 N 0.10013 0.16640 0.11846
 C7 C 0.07591 0.18860 0.12504
 C8 C 0.06963 0.21196 0.09932
 C9 C 0.09160 0.20223 0.07762
 H10 H 0.06310 0.18692 0.14648
 H11 H 0.09416 0.21381 0.05424
 Cu12 Cu 0.11872 0.12529 0.14272
 Cu13 Cu 0.14298 0.14735 0.07064
 Cu14 Cu 0.19084 0.09597 0.12411
 N15 N 0.14093 0.08696 0.16751
 N16 N 0.16920 0.07576 0.15995
 C17 C 0.17981 0.05006 0.18094
 C18 C 0.15692 0.04456 0.20299
 C19 C 0.13249 0.06854 0.19363
 H20 H 0.20247 0.03631 0.17989
 H21 H 0.11044 0.07265 0.20515
 N22 N 0.20286 0.10803 0.08088
 N23 N 0.18473 0.12749 0.06040
 C24 C 0.19932 0.13025 0.03288
 C25 C 0.22776 0.11105 0.03607
 C26 C 0.22915 0.09733 0.06681
 H27 H 0.18962 0.14443 0.01183
 H28 H 0.24786 0.08060 0.07810
 H29 H 0.14696 0.09938 0.09891
 H30 H 0.16588 0.14518 0.11478
 N31 N 0.40987 0.79519 0.59941
 N32 N 0.42718 0.81223 0.62351
 C33 C 0.45597 0.79604 0.62794
 C34 C 0.45679 0.76736 0.60530
 C35 C 0.42702 0.76771 0.58764
 H36 H 0.47513 0.80491 0.64590
 H37 H 0.41839 0.74941 0.56764
 Cu38 Cu 0.41039 0.85428 0.64618
 Cu39 Cu 0.36703 0.81087 0.58408
 Cu40 Cu 0.33771 0.88791 0.62228
 N41 N 0.39355 0.89711 0.66768
 N42 N 0.36490 0.90975 0.65870
 C43 C 0.35904 0.93882 0.67805
 C44 C 0.38560 0.94493 0.70010
 C45 C 0.40702 0.91798 0.69275
 H46 H 0.33732 0.95470 0.67591
 H47 H 0.43050 0.91366 0.70507
 N48 N 0.31389 0.86157 0.58511
 N49 N 0.32441 0.83106 0.57180
 C50 C 0.30249 0.81859 0.54811
 C51 C 0.27721 0.84265 0.54604
 C52 C 0.28522 0.86972 0.56972
 H53 H 0.30506 0.79442 0.53275
 H54 H 0.27100 0.89328 0.57545
 H55 H 0.37498 0.86674 0.59857
 H56 H 0.35494 0.83486 0.62671
 N57 N 0.87852 0.69672 0.37742
 N58 N 0.89212 0.68253 0.35294
 C59 C 0.91481 0.70760 0.34387
 C60 C 0.91546 0.73921 0.36377
 C61 C 0.89190 0.73119 0.38464
 H62 H 0.93061 0.70254 0.32511
 H63 H 0.88626 0.74810 0.40490
 Cu64 Cu 0.88143 0.63099 0.33786
 Cu65 Cu 0.84752 0.66814 0.40111
 Cu66 Cu 0.82514 0.57849 0.37234
 N67 N 0.87001 0.57930 0.32351
 N68 N 0.84848 0.55893 0.33785
 C69 C 0.84527 0.52443 0.32428
 C70 C 0.86591 0.52275 0.29998
 C71 C 0.88122 0.55823 0.30008
 H72 H 0.82863 0.50243 0.33130
 H73 H 0.89931 0.56782 0.28450
 N74 N 0.80888 0.59996 0.41108
 N75 N 0.81658 0.63455 0.42163
 C76 C 0.80184 0.64069 0.44865
 C77 C 0.78449 0.60818 0.45561
 C78 C 0.78953 0.58298 0.43131
 H79 H 0.80447 0.66636 0.46292
 H80 H 0.77992 0.55428 0.42869
 H81 H 0.86281 0.61542 0.38981
 H82 H 0.83029 0.63569 0.36256
 N83 N 0.55610 0.36868 -0.08923
 N84 N 0.54591 0.39304 -0.11054
 C85 C 0.51661 0.38102 -0.12417
 C86 C 0.50783 0.34730 -0.11048
 C87 C 0.53350 0.34049 -0.08831
 H88 H 0.50324 0.39525 -0.14326
 H89 H 0.53628 0.31596 -0.07368
 Cu90 Cu 0.57294 0.43644 -0.12044
 Cu91 Cu 0.59882 0.37400 -0.06594
 Cu92 Cu 0.64781 0.45099 -0.08403
 N93 N 0.60551 0.46844 -0.13881
 N94 N 0.63477 0.47418 -0.12449
 C95 C 0.65237 0.49698 -0.14239
 C96 C 0.63316 0.50588 -0.16969
 C97 C 0.60350 0.48716 -0.16645
 H98 H 0.67744 0.50577 -0.13604
 H99 H 0.58202 0.48673 -0.18297
 N100 N 0.66076 0.41486 -0.05093
 N101 N 0.64272 0.38473 -0.04489
 C102 C 0.65940 0.36409 -0.02312
 C103 C 0.68928 0.38222 -0.01494
 C104 C 0.68923 0.41438 -0.03300
 H105 H 0.65055 0.33771 -0.01398
 H106 H 0.70902 0.43507 -0.03404
 H107 H 0.60389 0.43134 -0.06814
 H108 H 0.62091 0.40430 -0.10087
 C109 C -0.03901 0.30704 0.12057
 C110 C -0.03288 0.30937 0.08888
 C111 C -0.05222 0.32883 0.06670
 C112 C -0.07915 0.34625 0.07760
 C113 C -0.08612 0.34416 0.11015
 C114 C -0.06540 0.32459 0.13200
 O115 O -0.01860 0.28574 0.13736
 C116 C 0.00084 0.27438 0.11580
 C117 C -0.00677 0.28814 0.08581
 C118 C 0.00995 0.27894 0.05953
 C119 C 0.03544 0.25438 0.06431
 C120 C 0.04363 0.23932 0.09498
 C121 C 0.02602 0.24987 0.12110
 H122 H -0.04714 0.32997 0.04180
 H123 H -0.09486 0.36110 0.06070
 H124 H -0.07036 0.32179 0.15682
 H125 H 0.00337 0.28992 0.03608
 H126 H 0.04822 0.24664 0.04387
 H127 H 0.03139 0.23914 0.14484
 C128 C 0.57527 0.68354 0.62433
 C129 C 0.56050 0.67394 0.59456
 C130 C 0.57281 0.64779 0.57434
 C131 C 0.60148 0.63078 0.58531
 C132 C 0.61722 0.64012 0.61601
 C133 C 0.60379 0.66704 0.63569
 O134 O 0.55944 0.70870 0.63992
 C135 C 0.53411 0.71508 0.61954
 C136 C 0.53360 0.69451 0.59145
 C137 C 0.50901 0.69655 0.56699
 C138 C 0.48386 0.72070 0.57172
 C139 C 0.48370 0.74224 0.60056
 C140 C 0.50942 0.73932 0.62473
 H141 H 0.56068 0.64054 0.55106
 H142 H 0.61119 0.60994 0.57010
 H143 H 0.61525 0.67486 0.65914
 H144 H 0.50913 0.68007 0.54507
 H145 H 0.46472 0.72266 0.55273
 H146 H 0.51010 0.75493 0.64714
 C147 C 1.03448 0.83281 0.35767
 C148 C 1.01489 0.85076 0.37751
 C149 C 1.02590 0.88154 0.39694
 C150 C 1.05856 0.89385 0.39625
 C151 C 1.07908 0.87565 0.37610
 C152 C 1.06672 0.84526 0.35602
 O153 O 1.02034 0.80202 0.34356
 C154 C 0.99120 0.80042 0.35472
 C155 C 0.98656 0.82970 0.37540
 C156 C 0.95855 0.83226 0.39134
 C157 C 0.93462 0.80314 0.38622
 C158 C 0.93918 0.77189 0.36578
 C159 C 0.96776 0.77114 0.34931
 H160 H 1.01029 0.89464 0.41293
 H161 H 1.06824 0.91682 0.41191
 H162 H 1.08239 0.83044 0.34117
 H163 H 0.95555 0.85541 0.40772
 H164 H 0.91292 0.80476 0.39882
 H165 H 0.97254 0.74767 0.33399
 C166 C 0.41323 0.22014 -0.11573
 C167 C 0.40826 0.23962 -0.14367
 C168 C 0.38767 0.22594 -0.16957
 C169 C 0.37199 0.19054 -0.16668
 C170 C 0.37688 0.16998 -0.13818
 C171 C 0.39740 0.18529 -0.11216
 O172 O 0.43572 0.23648 -0.09507
 C173 C 0.44519 0.26691 -0.11026
 C174 C 0.42906 0.27029 -0.14000
 C175 C 0.43644 0.29911 -0.16057
 C176 C 0.46170 0.32520 -0.15020
 C177 C 0.47925 0.32181 -0.11989
 C178 C 0.47037 0.29245 -0.09951
 H179 H 0.38472 0.24131 -0.19160
 H180 H 0.35674 0.17851 -0.18683
 H181 H 0.40239 0.16938 -0.09067
 H182 H 0.42370 0.30099 -0.18405
 H183 H 0.46822 0.34716 -0.16633
 H184 H 0.48313 0.28890 -0.07626
 C185 C 0.12366 -0.04861 0.31079
 C186 C 0.15562 -0.05353 0.30570
 C187 C 0.17484 -0.07788 0.32352
 C188 C 0.16056 -0.09799 0.34763
 C189 C 0.12759 -0.09337 0.35367
 C190 C 0.10897 -0.06822 0.33472
 O191 O 0.10960 -0.02445 0.29089
 C192 C 0.13323 -0.01395 0.27285
 C193 C 0.16185 -0.03092 0.28096
 C194 C 0.18963 -0.02424 0.26503
 C195 C 0.18781 0.00084 0.23957
 C196 C 0.15849 0.01867 0.23043
 C197 C 0.13085 0.01112 0.24760
 H198 H 0.19988 -0.08148 0.31889
 H199 H 0.17516 -0.11747 0.36132
 H200 H 0.08383 -0.06392 0.33854
 H201 H 0.21191 -0.03792 0.27191
 H202 H 0.20940 0.00627 0.22719
 H203 H 0.10800 0.02385 0.24136
 C204 C 0.63282 0.58020 -0.29344
 C205 C 0.66299 0.58689 -0.27752
 C206 C 0.68842 0.60556 -0.29139
 C207 C 0.68250 0.61760 -0.32298
 C208 C 0.65157 0.61105 -0.33983
 C209 C 0.62634 0.59228 -0.32468
 O210 O 0.61244 0.56063 -0.27654
 C211 C 0.63011 0.55482 -0.24936
 C212 C 0.66116 0.57038 -0.24867
 C213 C 0.68395 0.56671 -0.22280
 C214 C 0.67441 0.54595 -0.19667
 C215 C 0.64257 0.52911 -0.19689
 C216 C 0.62011 0.53409 -0.22372
 H217 H 0.71206 0.61018 -0.27854
 H218 H 0.70194 0.63183 -0.33451
 H219 H 0.60273 0.58632 -0.33727
 H220 H 0.70832 0.57905 -0.22285
 H221 H 0.69208 0.54284 -0.17656
 H222 H 0.59568 0.52176 -0.22510
 C223 C 0.36487 1.05664 0.79957
 C224 C 0.39775 1.05474 0.79723
 C225 C 0.42067 1.07709 0.81578
 C226 C 0.40923 1.10261 0.83755
 C227 C 0.37548 1.10501 0.84054
 C228 C 0.35298 1.08148 0.82145
 O229 O 0.34727 1.03346 0.77920
 C230 C 0.36954 1.01656 0.76374
 C231 C 0.40078 1.02847 0.77401
 C232 C 0.42786 1.01438 0.76127
 C233 C 0.42254 0.98677 0.73696
 C234 C 0.39055 0.97412 0.72571
 C235 C 0.36367 0.98943 0.73930
 H236 H 0.44641 1.07514 0.81341
 H237 H 0.42655 1.12044 0.85225
 H238 H 0.32712 1.08309 0.82325
 H239 H 0.45221 1.02427 0.76976
 H240 H 0.44338 0.97567 0.72665
 H241 H 0.33899 0.98019 0.73144
 C242 C 0.88850 0.42789 0.18906
 C243 C 0.87554 0.40552 0.21172
 C244 C 0.86623 0.36786 0.20599
 C245 C 0.87017 0.35272 0.17553
 C246 C 0.88346 0.37518 0.15185
 C247 C 0.89304 0.41318 0.15873
 O248 O 0.89394 0.46344 0.19883
 C249 C 0.88416 0.46350 0.22826
 C250 C 0.87276 0.42873 0.23724
 C251 C 0.85996 0.42262 0.26642
 C252 C 0.85856 0.45366 0.28714
 C253 C 0.86970 0.49009 0.27843
 C254 C 0.88313 0.49484 0.24861
 H255 H 0.85564 0.35101 0.22405
 H256 H 0.86250 0.32372 0.17004
 H257 H 0.90251 0.43088 0.14059
 H258 H 0.85092 0.39501 0.27281
 H259 H 0.84855 0.44913 0.30989
 H260 H 0.89144 0.52220 0.24094
 C261 C 0.30666 0.12970 -0.07296
 C262 C 0.31449 0.09667 -0.05831
 C263 C 0.33785 0.07361 -0.06887
 C264 C 0.35390 0.08513 -0.09554
 C265 C 0.34661 0.11938 -0.11084
 C266 C 0.32257 0.14189 -0.09929
 O267 O 0.28374 0.14746 -0.05919
 C268 C 0.27704 0.12523 -0.03524
 C269 C 0.29533 0.09391 -0.03354
 C270 C 0.29286 0.06741 -0.00978
 C271 C 0.27060 0.07341 0.01314
 C272 C 0.25114 0.10529 0.01173
 C273 C 0.25443 0.13147 -0.01298
 H274 H 0.34364 0.04777 -0.05690
 H275 H 0.37250 0.06785 -0.10385
 H276 H 0.31654 0.16811 -0.11050
 H277 H 0.30766 0.04309 -0.00881
 H278 H 0.26831 0.05295 0.03172
 H279 H 0.24027 0.15630 -0.01452
 C280 C 0.70221 0.62578 0.56150
 C281 C 0.71060 0.58889 0.56017
 C282 C 0.69943 0.56188 0.58074
 C283 C 0.67861 0.57336 0.60348
 C284 C 0.66916 0.61109 0.60492
 C285 C 0.68129 0.63768 0.58370
 O286 O 0.71530 0.64688 0.53967
 C287 C 0.73221 0.62274 0.52413
 C288 C 0.72999 0.58686 0.53563
 C289 C 0.74494 0.55694 0.52219
 C290 C 0.76285 0.56428 0.49577
 C291 C 0.76575 0.60112 0.48361
 C292 C 0.75033 0.63080 0.49821
 H293 H 0.70630 0.53299 0.57918
 H294 H 0.66921 0.55283 0.61953
 H295 H 0.67437 0.66660 0.58442
 H296 H 0.74269 0.52890 0.53155
 H297 H 0.77473 0.54134 0.48504
 H298 H 0.75175 0.65909 0.48923
 C299 C 0.80873 0.37707 0.06951
 C300 C 0.79637 0.34079 0.06423
 C301 C 0.81214 0.30977 0.07643
 C302 C 0.84182 0.31648 0.09479
 C303 C 0.85473 0.35364 0.10081
 C304 C 0.83791 0.38436 0.08814
 O305 O 0.79045 0.40246 0.05507
 C306 C 0.76600 0.38179 0.04040
 C307 C 0.76831 0.34393 0.04542
 C308 C 0.74520 0.31730 0.03228
 C309 C 0.71881 0.33022 0.01292
 C310 C 0.71626 0.36911 0.00681
 C311 C 0.74020 0.39519 0.02101
 H312 H 0.80207 0.28147 0.07185
 H313 H 0.85471 0.29299 0.10469
 H314 H 0.84756 0.41290 0.09238
 H315 H 0.74749 0.28764 0.03661
 H316 H 0.70085 0.30981 0.00217
 H317 H 0.73885 0.42504 0.01713
 C318 C 0.17441 0.87818 0.44865
 C319 C 0.17358 0.83987 0.45237
 C320 C 0.15287 0.81537 0.43334
 C321 C 0.13229 0.83097 0.40934
 C322 C 0.13307 0.87032 0.40460
 C323 C 0.15432 0.89426 0.42473
 O324 O 0.19642 0.89631 0.46879
 C325 C 0.20987 0.86882 0.48545
 C326 C 0.19687 0.83374 0.47618
 C327 C 0.20848 0.80083 0.48921
 C328 C 0.23476 0.80419 0.51258
 C329 C 0.24850 0.84002 0.52270
 C330 C 0.23557 0.87283 0.50919
 H331 H 0.15283 0.78530 0.43660
 H332 H 0.11639 0.81237 0.39389
 H333 H 0.15542 0.92434 0.42140
 H334 H 0.19810 0.77353 0.48123
 H335 H 0.24446 0.77889 0.52278
 H336 H 0.24603 0.90048 0.51601
   
