data_POSCAR
  _audit_creation_date              2014-09-24
  _audit_creation_method            'ToBaCCo'
  _symmetry_space_group_name_H-M    'P1'
  _symmetry_Int_Tables_number       1
  _symmetry_cell_setting            triclinic
  loop_
  _symmetry_equiv_pos_as_xyz
 x,y,z
_cell_length_a 43.1400
_cell_length_b 45.8532
_cell_length_c 35.6752
_cell_angle_alpha 89.973000
_cell_angle_beta 89.416400
_cell_angle_gamma 89.970000
loop_
  _atom_site_label
  _atom_site_type_symbol
  _atom_site_fract_x
  _atom_site_fract_y
  _atom_site_fract_z
C1 C 0.27398 0.28002 0.23142
 C2 C 0.25015 0.26467 0.24984
 C3 C 0.22635 0.28008 0.26826
 C4 C 0.22659 0.31062 0.26860
 C5 C 0.25022 0.32582 0.24984
 C6 C 0.27381 0.31056 0.23107
 C7 C 0.25011 0.23255 0.24985
 C8 C 0.27396 0.21713 0.26755
 C9 C 0.27372 0.18659 0.26793
 C10 C 0.25000 0.17139 0.24990
 C11 C 0.22634 0.18668 0.23184
 C12 C 0.22620 0.21722 0.23217
 H13 H 0.29227 0.26820 0.21690
 H14 H 0.20804 0.26831 0.28278
 H15 H 0.29233 0.22890 0.28150
 H16 H 0.20786 0.22905 0.21821
 H17 H 0.25025 0.34948 0.24984
 H18 H 0.24996 0.14773 0.24993
 C19 C 0.77368 0.78137 0.23130
 C20 C 0.74996 0.76597 0.24985
 C21 C 0.72620 0.78130 0.26844
 C22 C 0.72635 0.81186 0.26884
 C23 C 0.74988 0.82714 0.24992
 C24 C 0.77346 0.81193 0.23097
 C25 C 0.75000 0.73385 0.24983
 C26 C 0.77383 0.71849 0.26768
 C27 C 0.77368 0.68795 0.26802
 C28 C 0.75010 0.67270 0.24981
 C29 C 0.72647 0.68793 0.23161
 C30 C 0.72623 0.71847 0.23198
 H31 H 0.79191 0.76952 0.21668
 H32 H 0.70800 0.76940 0.28304
 H33 H 0.79210 0.73030 0.28176
 H34 H 0.70792 0.73026 0.21790
 H35 H 0.74986 0.85082 0.24995
 H36 H 0.75013 0.64904 0.24980
 C37 C 0.77369 0.28004 0.73252
 C38 C 0.74990 0.26470 0.75103
 C39 C 0.72612 0.28011 0.76949
 C40 C 0.72632 0.31067 0.76978
 C41 C 0.74994 0.32586 0.75090
 C42 C 0.77350 0.31058 0.73211
 C43 C 0.74990 0.23258 0.75108
 C44 C 0.77373 0.21721 0.76891
 C45 C 0.77355 0.18664 0.76929
 C46 C 0.74990 0.17142 0.75111
 C47 C 0.72628 0.18668 0.73294
 C48 C 0.72608 0.21722 0.73329
 H49 H 0.79196 0.26822 0.71797
 H50 H 0.70786 0.26826 0.78405
 H51 H 0.79201 0.22908 0.78292
 H52 H 0.70778 0.22903 0.71922
 H53 H 0.75002 0.34953 0.75078
 H54 H 0.74984 0.14775 0.75105
 C55 C 0.27426 0.78094 0.73123
 C56 C 0.25045 0.76557 0.74964
 C57 C 0.22660 0.78093 0.76802
 C58 C 0.22676 0.81147 0.76836
 C59 C 0.25037 0.82673 0.74961
 C60 C 0.27404 0.81151 0.73086
 C61 C 0.25046 0.73344 0.74965
 C62 C 0.27436 0.71806 0.76733
 C63 C 0.27417 0.68752 0.76770
 C64 C 0.25048 0.67228 0.74967
 C65 C 0.22678 0.68753 0.73162
 C66 C 0.22658 0.71807 0.73197
 H67 H 0.29256 0.76908 0.71676
 H68 H 0.20831 0.76912 0.78252
 H69 H 0.29271 0.72985 0.78128
 H70 H 0.20822 0.72988 0.71802
 H71 H 0.25027 0.85040 0.74966
 H72 H 0.25049 0.64863 0.74967
 C73 C 0.04149 0.04602 0.01419
 H74 H 0.04183 0.04759 -0.01607
 C75 C 0.06045 0.06418 0.03540
 H76 H 0.07553 0.07976 0.02149
 C77 C 0.02161 0.02365 0.06937
 H78 H 0.00629 0.00802 0.08253
 C79 C 0.04021 0.04141 0.09165
 H80 H 0.03939 0.03919 0.12188
 N81 N 0.02303 0.02587 0.03133
 C82 C 0.01237 -0.04294 -0.05212
 H83 H -0.01262 -0.04436 -0.05375
 C84 C 0.03096 -0.06147 -0.07387
 H85 H 0.02033 -0.07715 -0.09246
 C86 C 0.05688 -0.02107 -0.02564
 H87 H 0.06696 -0.00568 -0.00641
 C88 C 0.07628 -0.03917 -0.04684
 H89 H 0.10120 -0.03739 -0.04416
 Zn90 Zn -0.00084 0.00143 0.00002
 N91 N 0.02554 -0.02296 -0.02900
 C92 C -0.02329 0.02385 -0.06926
 N93 N -0.02473 0.02596 -0.03121
 C94 C -0.04322 0.04606 -0.01401
 C95 C -0.06216 0.06430 -0.03518
 C96 C -0.04187 0.04170 -0.09149
 C97 C -0.01398 -0.04308 0.05202
 C98 C -0.03254 -0.06166 0.07374
 C99 C -0.07790 -0.03927 0.04683
 C100 C -0.05854 -0.02113 0.02566
 N101 N -0.02719 -0.02303 0.02897
 H102 H -0.00794 0.00825 -0.08246
 H103 H -0.04358 0.04754 0.01625
 H104 H -0.07726 0.07985 -0.02123
 H105 H -0.04102 0.03957 -0.12173
 H106 H 0.01101 -0.04450 0.05361
 H107 H -0.02188 -0.07738 0.09227
 H108 H -0.10283 -0.03747 0.04419
 H109 H -0.06865 -0.00568 0.00649
 C110 C 0.06321 -0.05944 -0.07127
 C111 C 0.05999 0.06166 0.07446
 C112 C -0.06479 -0.05961 0.07120
 C113 C -0.06167 0.06191 -0.07424
 C114 C 0.04230 0.54615 0.51427
 H115 H 0.04262 0.54767 0.48401
 C116 C 0.06124 0.56436 0.53543
 H117 H 0.07631 0.57993 0.52146
 C118 C 0.02245 0.52386 0.56953
 H119 H 0.00714 0.50824 0.58274
 C120 C 0.04104 0.54168 0.59175
 H121 H 0.04022 0.53952 0.62198
 N122 N 0.02385 0.52602 0.53148
 C123 C 0.01299 0.45712 0.44820
 H124 H -0.01199 0.45573 0.44666
 C125 C 0.03151 0.43852 0.42647
 H126 H 0.02082 0.42282 0.40797
 C127 C 0.05760 0.47899 0.47447
 H128 H 0.06774 0.49441 0.49362
 C129 C 0.07692 0.46082 0.45328
 H130 H 0.10186 0.46257 0.45589
 Zn131 Zn -0.00006 0.50156 0.50026
 N132 N 0.02625 0.47713 0.47122
 C133 C -0.02254 0.52395 0.43099
 N134 N -0.02398 0.52606 0.46904
 C135 C -0.04246 0.54618 0.48623
 C136 C -0.06138 0.56444 0.46506
 C137 C -0.04110 0.54182 0.40876
 C138 C -0.01309 0.45707 0.55229
 C139 C -0.03160 0.43845 0.57401
 C140 C -0.07703 0.46080 0.54722
 C141 C -0.05772 0.47900 0.52605
 N142 N -0.02636 0.47712 0.52929
 H143 H -0.00720 0.50835 0.41779
 H144 H -0.04282 0.54767 0.51650
 H145 H -0.07646 0.58001 0.47901
 H146 H -0.04023 0.53970 0.37852
 H147 H 0.01190 0.45567 0.55382
 H148 H -0.02089 0.42272 0.59249
 H149 H -0.10196 0.46257 0.54463
 H150 H -0.06787 0.49444 0.50692
 C151 C 0.06378 0.44051 0.42897
 C152 C 0.06079 0.56192 0.57449
 C153 C -0.06386 0.44045 0.57152
 C154 C -0.06087 0.56206 0.42600
 C155 C 0.54263 0.04529 0.51448
 H156 H 0.54304 0.04681 0.48421
 C157 C 0.56150 0.06352 0.53571
 H158 H 0.57660 0.07909 0.52181
 C159 C 0.52262 0.02302 0.56965
 H160 H 0.50726 0.00741 0.58280
 C161 C 0.54113 0.04085 0.59195
 H162 H 0.54022 0.03869 0.62218
 N163 N 0.52413 0.02517 0.53161
 C164 C 0.51354 -0.04374 0.44826
 H165 H 0.48856 -0.04516 0.44664
 C166 C 0.53214 -0.06227 0.42651
 H167 H 0.52151 -0.07794 0.40793
 C168 C 0.55805 -0.02183 0.47471
 H169 H 0.56813 -0.00642 0.49391
 C170 C 0.57745 -0.03993 0.45351
 H171 H 0.60238 -0.03813 0.45617
 Zn172 Zn 0.50031 0.00069 0.50030
 N173 N 0.52671 -0.02373 0.47136
 C174 C 0.47795 0.02303 0.43093
 N175 N 0.47646 0.02518 0.46898
 C176 C 0.45794 0.04530 0.48610
 C177 C 0.43902 0.06350 0.46486
 C178 C 0.45939 0.04084 0.40863
 C179 C 0.48709 -0.04375 0.55237
 C180 C 0.46850 -0.06230 0.57410
 C181 C 0.42318 -0.03996 0.54702
 C182 C 0.44258 -0.02184 0.52585
 N183 N 0.47392 -0.02374 0.52925
 H184 H 0.49332 0.00742 0.41779
 H185 H 0.45754 0.04681 0.51636
 H186 H 0.42389 0.07906 0.47876
 H187 H 0.46028 0.03868 0.37840
 H188 H 0.51208 -0.04517 0.55403
 H189 H 0.47913 -0.07799 0.59270
 H190 H 0.39826 -0.03816 0.54432
 H191 H 0.43250 -0.00643 0.50662
 C192 C 0.56439 -0.06022 0.42908
 C193 C 0.56093 0.06108 0.57477
 C194 C 0.43625 -0.06025 0.57147
 C195 C 0.43956 0.06106 0.42580
 C196 C 0.54312 0.54582 0.01352
 H197 H 0.54351 0.54728 -0.01675
 C198 C 0.56198 0.56410 0.03469
 H199 H 0.57706 0.57966 0.02073
 C200 C 0.52313 0.52364 0.06878
 H201 H 0.50778 0.50805 0.08199
 C202 C 0.54164 0.54153 0.09101
 H203 H 0.54073 0.53944 0.12125
 N204 N 0.52463 0.52572 0.03073
 C205 C 0.51387 0.45670 -0.05241
 H206 H 0.48888 0.45533 -0.05401
 C207 C 0.53241 0.43805 -0.07406
 H208 H 0.52174 0.42233 -0.09253
 C209 C 0.55845 0.47859 -0.02610
 H210 H 0.56857 0.49404 -0.00697
 C211 C 0.57779 0.46037 -0.04719
 H212 H 0.60272 0.46211 -0.04454
 Zn213 Zn 0.50076 0.50122 -0.00048
 N214 N 0.52710 0.47674 -0.02942
 C215 C 0.47832 0.52351 -0.06983
 N216 N 0.47687 0.52568 -0.03178
 C217 C 0.45840 0.54583 -0.01464
 C218 C 0.43949 0.56406 -0.03585
 C219 C 0.45976 0.54136 -0.09211
 C220 C 0.48765 0.45682 0.05165
 C221 C 0.46910 0.43824 0.07338
 C222 C 0.42372 0.46054 0.04641
 C223 C 0.44307 0.47869 0.02523
 N224 N 0.47442 0.47682 0.02856
 H225 H 0.49365 0.50788 -0.08299
 H226 H 0.45805 0.54736 0.01562
 H227 H 0.42442 0.57965 -0.02194
 H228 H 0.46062 0.53919 -0.12234
 H229 H 0.51263 0.45542 0.05325
 H230 H 0.47977 0.42254 0.09194
 H231 H 0.39880 0.46230 0.04374
 H232 H 0.43295 0.49410 0.00602
 C233 C 0.56467 0.44002 -0.07149
 C234 C 0.56142 0.56175 0.07376
 C235 C 0.43685 0.44024 0.07081
 C236 C 0.43999 0.56162 -0.07491
 C237 C 0.16153 -0.14170 -0.17230
 C238 C 0.14788 -0.15779 -0.13820
 C239 C 0.12722 -0.14152 -0.11796
 C240 C 0.12226 -0.11076 -0.13382
 C241 C 0.11269 -0.11548 -0.17471
 C242 C 0.13335 -0.13176 -0.19495
 C243 C 0.17541 -0.11355 -0.15640
 C244 C 0.15479 -0.09730 -0.13619
 C245 C 0.18406 -0.15898 -0.19391
 C246 C 0.20321 -0.17271 -0.21131
 C247 C 0.10037 -0.09301 -0.11189
 C248 C 0.08305 -0.07796 -0.09353
 H249 H 0.15386 -0.18002 -0.13065
 H250 H 0.11551 -0.14980 -0.09307
 H251 H 0.09155 -0.10684 -0.18668
 H252 H 0.12991 -0.13707 -0.22427
 H253 H 0.19936 -0.10694 -0.16065
 H254 H 0.16108 -0.07678 -0.12314
 C255 C 0.16161 0.35772 0.32800
 C256 C 0.13721 0.37299 0.30386
 C257 C 0.11666 0.38938 0.32410
 C258 C 0.12254 0.38888 0.36647
 C259 C 0.15636 0.39861 0.37069
 C260 C 0.17688 0.38225 0.35049
 C261 C 0.14294 0.34006 0.35699
 C262 C 0.12239 0.35645 0.37723
 C263 C 0.18404 0.34032 0.30639
 C264 C 0.20310 0.32651 0.28897
 C265 C 0.10076 0.40674 0.38840
 C266 C 0.08353 0.42190 0.40674
 H267 H 0.13614 0.37107 0.27357
 H268 H 0.09798 0.40151 0.31115
 H269 H 0.16356 0.41678 0.38805
 H270 H 0.20165 0.38641 0.35054
 H271 H 0.14559 0.31675 0.36121
 H272 H 0.10743 0.34718 0.39880
 C273 C 0.66255 -0.14228 0.32757
 C274 C 0.64902 -0.15843 0.36170
 C275 C 0.62841 -0.14220 0.38207
 C276 C 0.62337 -0.11142 0.36629
 C277 C 0.61367 -0.11611 0.32544
 C278 C 0.63428 -0.13235 0.30507
 C279 C 0.67645 -0.11414 0.34346
 C280 C 0.65587 -0.09793 0.36380
 C281 C 0.68503 -0.15951 0.30582
 C282 C 0.70414 -0.17319 0.28828
 C283 C 0.60151 -0.09373 0.38835
 C284 C 0.58422 -0.07870 0.40678
 H285 H 0.65505 -0.18066 0.36918
 H286 H 0.61679 -0.15052 0.40700
 H287 H 0.59248 -0.10748 0.31358
 H288 H 0.63076 -0.13762 0.27576
 H289 H 0.70037 -0.10751 0.33911
 H290 H 0.66218 -0.07742 0.37686
 C291 C 0.66257 0.35697 -0.17201
 C292 C 0.65848 0.38799 -0.18737
 C293 C 0.63794 0.40442 -0.16724
 C294 C 0.62348 0.38823 -0.13370
 C295 C 0.65113 0.37748 -0.11074
 C296 C 0.67167 0.36105 -0.13087
 C297 C 0.62974 0.34408 -0.17055
 C298 C 0.60916 0.36053 -0.15039
 C299 C 0.68501 0.33953 -0.19354
 C300 C 0.70411 0.32572 -0.21092
 C301 C 0.60168 0.40616 -0.11187
 C302 C 0.58445 0.42136 -0.09361
 H303 H 0.67062 0.39631 -0.21194
 H304 H 0.63248 0.42681 -0.17456
 H305 H 0.65429 0.38232 -0.08124
 H306 H 0.69241 0.35182 -0.11860
 H307 H 0.62323 0.32384 -0.18414
 H308 H 0.58502 0.35439 -0.14670
 C309 C -0.16204 0.14127 -0.17386
 C310 C -0.16843 0.14113 -0.13146
 C311 C -0.14749 0.12531 -0.11162
 C312 C -0.12218 0.11116 -0.13610
 C313 C -0.10761 0.13646 -0.15832
 C314 C -0.12859 0.15230 -0.17818
 C315 C -0.16072 0.10898 -0.18509
 C316 C -0.13977 0.09316 -0.16525
 C317 C -0.18485 0.15815 -0.19502
 C318 C -0.20414 0.17169 -0.21198
 C319 C -0.09990 0.09397 -0.11453
 C320 C -0.08216 0.07952 -0.09638
 H321 H -0.18770 0.15248 -0.11817
 H322 H -0.14882 0.12311 -0.08134
 H323 H -0.08302 0.14147 -0.15844
 H324 H -0.12197 0.17090 -0.19532
 H325 H -0.17496 0.09940 -0.20676
 H326 H -0.13607 0.07001 -0.16993
 C327 C -0.16084 0.64165 0.32611
 C328 C -0.13852 0.62375 0.30146
 C329 C -0.11765 0.60786 0.32139
 C330 C -0.12116 0.61145 0.36401
 C331 C -0.15504 0.60356 0.37273
 C332 C -0.17588 0.61942 0.35282
 C333 C -0.13987 0.66031 0.35100
 C334 C -0.11900 0.64443 0.37094
 C335 C -0.18356 0.65858 0.30487
 C336 C -0.20277 0.67215 0.28783
 C337 C -0.09897 0.59421 0.38566
 C338 C -0.08130 0.57971 0.40384
 H339 H -0.13904 0.62358 0.27104
 H340 H -0.10029 0.59409 0.30806
 H341 H -0.16206 0.58695 0.39279
 H342 H -0.20075 0.61640 0.35583
 H343 H -0.14127 0.68391 0.35278
 H344 H -0.10252 0.65442 0.38980
 C345 C 0.33933 0.14032 0.32585
 C346 C 0.35375 0.15728 0.35840
 C347 C 0.37467 0.14146 0.37832
 C348 C 0.37912 0.11023 0.36373
 C349 C 0.38793 0.11371 0.32216
 C350 C 0.36699 0.12954 0.30223
 C351 C 0.32558 0.11274 0.34384
 C352 C 0.34648 0.09694 0.36374
 C353 C 0.31655 0.15719 0.30463
 C354 C 0.29730 0.17076 0.28765
 C355 C 0.40137 0.09306 0.38538
 C356 C 0.41909 0.07863 0.40359
 H357 H 0.34806 0.17975 0.36518
 H358 H 0.38690 0.15038 0.40216
 H359 H 0.40876 0.10457 0.30951
 H360 H 0.36989 0.13396 0.27250
 H361 H 0.30152 0.10619 0.34117
 H362 H 0.34032 0.07685 0.37812
 C363 C 0.33983 0.64119 -0.17455
 C364 C 0.33469 0.64265 -0.13196
 C365 C 0.35559 0.62677 -0.11213
 C366 C 0.37962 0.61098 -0.13682
 C367 C 0.39448 0.63501 -0.16101
 C368 C 0.37354 0.65090 -0.18086
 C369 C 0.33959 0.60854 -0.18401
 C370 C 0.36050 0.59266 -0.16418
 C371 C 0.31705 0.65812 -0.19569
 C372 C 0.29778 0.67170 -0.21262
 C373 C 0.40185 0.59373 -0.11526
 C374 C 0.41955 0.57925 -0.09709
 H375 H 0.31626 0.65509 -0.11854
 H376 H 0.35506 0.62562 -0.08174
 H377 H 0.41924 0.63916 -0.16242
 H378 H 0.38036 0.66868 -0.19928
 H379 H 0.32436 0.59875 -0.20452
 H380 H 0.36318 0.56927 -0.16771
 C381 C -0.16282 -0.14201 0.17242
 C382 C -0.17452 -0.11119 0.16352
 C383 C -0.15397 -0.09491 0.14325
 C384 C -0.12369 -0.11102 0.13382
 C385 C -0.13380 -0.13907 0.11390
 C386 C -0.15437 -0.15537 0.13420
 C387 C -0.13170 -0.13746 0.19209
 C388 C -0.11111 -0.12115 0.17178
 C389 C -0.18527 -0.15932 0.19410
 C390 C -0.20436 -0.17305 0.21158
 C391 C -0.10186 -0.09324 0.11183
 C392 C -0.08459 -0.07816 0.09345
 H393 H -0.19699 -0.10287 0.17239
 H394 H -0.15884 -0.07265 0.13476
 H395 H -0.12549 -0.14558 0.08632
 H396 H -0.16369 -0.17584 0.12400
 H397 H -0.12631 -0.14628 0.21951
 H398 H -0.08807 -0.11599 0.18180
 C399 C -0.16156 0.35758 0.67255
 C400 C -0.17336 0.38840 0.66379
 C401 C -0.15287 0.40478 0.64356
 C402 C -0.12256 0.38877 0.63403
 C403 C -0.13260 0.36074 0.61402
 C404 C -0.15311 0.34434 0.63427
 C405 C -0.13044 0.36217 0.69220
 C406 C -0.10992 0.37858 0.67193
 C407 C -0.18396 0.34018 0.69420
 C408 C -0.20301 0.32640 0.71166
 C409 C -0.10080 0.40665 0.61208
 C410 C -0.08360 0.42182 0.59374
 H411 H -0.19584 0.39665 0.67272
 H412 H -0.15782 0.42705 0.63516
 H413 H -0.12430 0.35432 0.58640
 H414 H -0.16238 0.32387 0.62401
 H415 H -0.12500 0.35330 0.71958
 H416 H -0.08689 0.38377 0.68193
 C417 C 0.33797 -0.14250 0.67254
 C418 C 0.32630 -0.11168 0.66353
 C419 C 0.34692 -0.09544 0.64331
 C420 C 0.37721 -0.11157 0.63403
 C421 C 0.36715 -0.13964 0.61414
 C422 C 0.34651 -0.15590 0.63438
 C423 C 0.36903 -0.13793 0.69233
 C424 C 0.38968 -0.12165 0.67206
 C425 C 0.31544 -0.15977 0.69416
 C426 C 0.29629 -0.17348 0.71157
 C427 C 0.39910 -0.09383 0.61208
 C428 C 0.41641 -0.07877 0.59372
 H429 H 0.30382 -0.10334 0.67230
 H430 H 0.34208 -0.07318 0.63475
 H431 H 0.37553 -0.14618 0.58660
 H432 H 0.33721 -0.17638 0.62420
 H433 H 0.37435 -0.14671 0.71978
 H434 H 0.41269 -0.11649 0.68216
 C435 C 0.33888 0.35754 0.17170
 C436 C 0.32612 0.36828 0.13414
 C437 C 0.34667 0.38463 0.11395
 C438 C 0.37800 0.38867 0.13326
 C439 C 0.38950 0.35762 0.14134
 C440 C 0.36892 0.34124 0.16157
 C441 C 0.34946 0.38523 0.19206
 C442 C 0.37002 0.40159 0.17186
 C443 C 0.31643 0.34017 0.19329
 C444 C 0.29733 0.32640 0.21070
 C445 C 0.39982 0.40651 0.11136
 C446 C 0.41706 0.42165 0.09303
 H447 H 0.30297 0.36344 0.12424
 H448 H 0.34112 0.39379 0.08676
 H449 H 0.41183 0.34925 0.13203
 H450 H 0.37360 0.31883 0.16959
 H451 H 0.34153 0.39142 0.21992
 H452 H 0.37971 0.42180 0.18241
 C453 C 0.16053 0.14062 0.17411
 C454 C 0.15965 0.14862 0.13235
 C455 C 0.13867 0.13287 0.11252
 C456 C 0.12060 0.11065 0.13637
 C457 C 0.10600 0.12855 0.16836
 C458 C 0.12701 0.14432 0.18822
 C459 C 0.16649 0.10763 0.17494
 C460 C 0.14551 0.09188 0.15511
 C461 C 0.18338 0.15743 0.19525
 C462 C 0.20269 0.17093 0.21218
 C463 C 0.09828 0.09354 0.11480
 C464 C 0.08051 0.07917 0.09663
 H465 H 0.17421 0.16522 0.11949
 H466 H 0.13526 0.13598 0.08267
 H467 H 0.08135 0.12881 0.17483
 H468 H 0.12036 0.15809 0.21171
 H469 H 0.18551 0.09752 0.18983
 H470 H 0.14657 0.06828 0.15302
 C471 C 0.16109 0.64130 0.67394
 C472 C 0.16815 0.64019 0.63172
 C473 C 0.14723 0.62436 0.61192
 C474 C 0.12126 0.61117 0.63627
 C475 C 0.10685 0.63716 0.65726
 C476 C 0.12781 0.65302 0.67708
 C477 C 0.15894 0.60927 0.68625
 C478 C 0.13801 0.59344 0.66645
 C479 C 0.18389 0.65819 0.69505
 C480 C 0.20317 0.67174 0.71196
 C481 C 0.09899 0.59396 0.61474
 C482 C 0.08126 0.57951 0.59661
 H483 H 0.18786 0.65092 0.61851
 H484 H 0.14901 0.62153 0.58176
 H485 H 0.08237 0.64262 0.65662
 H486 H 0.12129 0.67206 0.69343
 H487 H 0.17263 0.59987 0.70858
 H488 H 0.13376 0.57047 0.67182
 C489 C 0.66082 0.14046 0.67484
 C490 C 0.63182 0.13186 0.69756
 C491 C 0.61096 0.11601 0.67760
 C492 C 0.62117 0.11034 0.63689
 C493 C 0.65310 0.09579 0.63976
 C494 C 0.67393 0.11161 0.65970
 C495 C 0.64848 0.15650 0.64027
 C496 C 0.62763 0.14066 0.62032
 C497 C 0.68353 0.15735 0.69610
 C498 C 0.70274 0.17090 0.71314
 C499 C 0.59899 0.09314 0.61521
 C500 C 0.58133 0.07869 0.59699
 H501 H 0.62801 0.13771 0.72673
 H502 H 0.58926 0.10828 0.68966
 H503 H 0.65885 0.07487 0.62725
 H504 H 0.69752 0.10424 0.66425
 H505 H 0.65547 0.17838 0.63221
 H506 H 0.61676 0.14898 0.59516
 C507 C 0.66112 0.64154 0.17355
 C508 C 0.67022 0.63761 0.13216
 C509 C 0.64943 0.62171 0.11227
 C510 C 0.62153 0.61126 0.13570
 C511 C 0.60770 0.63907 0.15305
 C512 C 0.62853 0.65501 0.17297
 C513 C 0.65643 0.61048 0.18861
 C514 C 0.63562 0.59456 0.16872
 C515 C 0.68379 0.65851 0.19477
 C516 C 0.70296 0.67211 0.21179
 C517 C 0.59940 0.59397 0.11409
 C518 C 0.58178 0.57944 0.09591
 H519 H 0.69116 0.64657 0.11955
 H520 H 0.65255 0.61704 0.08264
 H521 H 0.58369 0.64566 0.14998
 H522 H 0.62237 0.67524 0.18696
 H523 H 0.66837 0.60176 0.21281
 H524 H 0.62973 0.57221 0.17588
   
