data_POSCAR
  _audit_creation_date              2014-09-24
  _audit_creation_method            'ToBaCCo'
  _symmetry_space_group_name_H-M    'P1'
  _symmetry_Int_Tables_number       1
  _symmetry_cell_setting            triclinic
  loop_
  _symmetry_equiv_pos_as_xyz
 x,y,z
_cell_length_a 29.9407
_cell_length_b 29.2132
_cell_length_c 30.0791
_cell_angle_alpha 118.287300
_cell_angle_beta 71.406000
_cell_angle_gamma 53.252700
loop_
  _atom_site_label
  _atom_site_type_symbol
  _atom_site_fract_x
  _atom_site_fract_y
  _atom_site_fract_z
O1 O 0.52491 0.53312 0.05766
 O2 O 0.34332 0.61959 0.10257
 O3 O 0.44912 0.51583 0.09484
 O4 O 0.43316 0.61739 0.04885
 O5 O 0.57154 0.44023 -0.10645
 O6 O 0.59083 0.33723 -0.06146
 O7 O 0.48186 0.44242 -0.05267
 O8 O 0.66543 0.35626 -0.09877
 Cu9 Cu 0.42451 0.58855 0.09115
 Cu10 Cu 0.59114 0.37624 -0.09506
 C11 C 0.62483 0.43299 -0.02744
 C12 C 0.38114 0.54565 0.03289
 C13 C 0.52124 0.40953 0.02454
 C14 C 0.50055 0.54566 -0.03697
 O15 O -0.03328 0.61227 0.54826
 O16 O -0.11494 0.55862 0.57294
 O17 O -0.05298 0.57507 0.60806
 O18 O -0.11458 0.61820 0.52953
 O19 O 0.05021 0.42834 0.37678
 O20 O 0.11157 0.38420 0.45622
 O21 O 0.04936 0.36862 0.41996
 O22 O 0.13114 0.42241 0.39604
 Cu23 Cu -0.09532 0.60985 0.57942
 Cu24 Cu 0.10181 0.38230 0.39732
 C25 C 0.06313 0.52635 0.46729
 C26 C -0.04623 0.45404 0.50153
 C27 C 0.03907 0.47208 0.54603
 C28 C -0.04310 0.53225 0.44033
 O29 O 0.37583 0.15410 0.67399
 O30 O 0.39055 0.15473 0.54945
 O31 O 0.31112 0.16335 0.63088
 O32 O 0.47266 0.12247 0.57598
 O33 O 0.61963 -0.07066 0.43883
 O34 O 0.45979 -0.03011 0.49427
 O35 O 0.53770 -0.03820 0.41154
 O36 O 0.52349 -0.03888 0.53915
 Cu37 Cu 0.37298 0.16761 0.62106
 Cu38 Cu 0.54980 -0.06368 0.45742
 C39 C 0.44617 0.05934 0.62960
 C40 C 0.46527 0.05984 0.45996
 C41 C 0.35876 0.07262 0.57064
 C42 C 0.57426 0.01817 0.49745
 O43 O 0.46864 0.01486 -0.04143
 O44 O 0.49002 0.01599 0.07442
 O45 O 0.50406 0.06084 0.01890
 O46 O 0.41655 0.01521 0.04759
 O47 O 0.58432 -0.17796 -0.09467
 O48 O 0.67303 -0.13076 -0.12611
 O49 O 0.65929 -0.17569 -0.07115
 O50 O 0.63616 -0.17795 -0.18332
 Cu51 Cu 0.45389 0.04540 0.03854
 Cu52 Cu 0.65428 -0.18398 -0.13271
 C53 C 0.55012 -0.08358 -0.13329
 C54 C 0.57900 -0.08224 0.02001
 C55 C 0.60164 -0.02468 -0.05735
 C56 C 0.48464 -0.08806 -0.01608
 O57 O -0.17495 0.63913 1.10947
 O58 O -0.03181 0.62191 1.07138
 O59 O -0.11307 0.65297 1.04315
 O60 O -0.08457 0.59739 1.12859
 O61 O 0.06920 0.40611 0.97822
 O62 O 0.03835 0.46133 0.89445
 O63 O 0.11941 0.43189 0.92054
 O64 O -0.02194 0.44744 0.96017
 Cu65 Cu -0.11686 0.64735 1.10336
 Cu66 Cu 0.06626 0.41778 0.92379
 C67 C -0.12318 0.54655 1.04164
 C68 C 0.06908 0.52294 0.98870
 C69 C -0.04152 0.56583 0.95361
 C70 C -0.00154 0.49146 1.06722
 O71 O 0.08498 -0.14253 0.44626
 O72 O 0.07288 -0.04622 0.39631
 O73 O 0.15464 -0.11815 0.41598
 O74 O -0.01779 -0.04426 0.44897
 O75 O -0.16117 0.13688 0.60443
 O76 O 0.00929 0.06224 0.57270
 O77 O -0.06998 0.13433 0.55197
 O78 O -0.06077 0.03840 0.60278
 Cu79 Cu 0.08749 -0.10539 0.41180
 Cu80 Cu -0.08473 0.11064 0.59833
 C81 C 0.01353 -0.06895 0.53259
 C82 C 0.00159 0.05933 0.46475
 C83 C 0.11000 -0.03827 0.48966
 C84 C -0.11907 0.05890 0.53271
 C85 C -0.35706 0.50072 1.03657
 C86 C -0.29881 0.48802 1.02264
 C87 C -0.18886 0.38197 0.92818
 C88 C -0.13890 0.28974 0.84949
 C89 C -0.19815 0.30399 0.86385
 C90 C -0.30814 0.41021 0.95732
 C91 C -0.13159 0.37114 0.91387
 C92 C -0.18357 0.46595 0.99268
 C93 C -0.29348 0.57163 1.08713
 C94 C -0.35004 0.58150 1.10160
 C95 C -0.34564 0.66664 1.16557
 C96 C -0.29008 0.65808 1.15067
 C97 C -0.18103 0.55402 1.05718
 C98 C -0.12797 0.45763 0.97850
 H99 H -0.44184 0.58340 1.10916
 H100 H -0.05461 0.20770 0.77657
 H101 H -0.15846 0.23303 0.80149
 H102 H -0.04731 0.29003 0.84138
 H103 H -0.43450 0.66293 1.17408
 H104 H -0.42976 0.74809 1.23843
 H105 H -0.33261 0.73306 1.21259
 H106 H -0.04388 0.37682 0.90600
 C107 C 0.35139 0.49836 0.97412
 C108 C 0.28374 0.52583 0.99258
 C109 C 0.17479 0.63293 1.08919
 C110 C 0.13434 0.71313 1.16557
 C111 C 0.20176 0.68598 1.14673
 C112 C 0.31176 0.57701 1.05097
 C113 C 0.10866 0.65715 1.10786
 C114 C 0.15020 0.57558 1.03093
 C115 C 0.25820 0.47069 0.93428
 C116 C 0.32413 0.44654 0.91572
 C117 C 0.29945 0.39005 0.85743
 C118 C 0.23588 0.41050 0.87582
 C119 C 0.13010 0.51118 0.97127
 C120 C 0.08662 0.59538 1.04886
 H121 H 0.43529 0.41476 0.89973
 H122 H 0.05079 0.79626 1.24002
 H123 H 0.16781 0.74948 1.20783
 H124 H 0.02565 0.73822 1.18206
 H125 H 0.40740 0.36497 0.84152
 H126 H 0.38164 0.30989 0.78301
 H127 H 0.27068 0.34573 0.81480
 H128 H 0.00499 0.67373 1.12289
 C129 C 0.01846 -0.33774 0.53489
 C130 C 0.04290 -0.31277 0.52142
 C131 C 0.14323 -0.40333 0.42763
 C132 C 0.22027 -0.51922 0.34997
 C133 C 0.19569 -0.54380 0.36385
 C134 C 0.09307 -0.45255 0.45577
 C135 C 0.16297 -0.37551 0.41253
 C136 C 0.08303 -0.25801 0.49004
 C137 C -0.01393 -0.16947 0.58486
 C138 C -0.03345 -0.19735 0.59991
 C139 C -0.09191 -0.05323 0.66269
 C140 C -0.07824 -0.02247 0.64640
 C141 C 0.01247 -0.10702 0.55152
 C142 C 0.09559 -0.22617 0.47388
 H143 H -0.06043 -0.26640 0.60660
 H144 H 0.29843 -0.59034 0.27793
 H145 H 0.25591 -0.63368 0.30142
 H146 H 0.23860 -0.44434 0.34013
 H147 H -0.10987 -0.12836 0.67187
 H148 H -0.16522 0.01453 0.73561
 H149 H -0.14145 0.06881 0.70778
 H150 H 0.16727 -0.29297 0.40040
 C151 C -0.00349 0.31718 0.43813
 C152 C -0.02533 0.29180 0.45564
 C153 C -0.12127 0.38173 0.55195
 C154 C -0.19647 0.49633 0.62792
 C155 C -0.17439 0.52089 0.61036
 C156 C -0.07634 0.43113 0.51598
 C157 C -0.13886 0.35509 0.57162
 C158 C -0.06149 0.23930 0.49630
 C159 C 0.03163 0.15032 0.39925
 C160 C 0.04891 0.17725 0.37938
 C161 C 0.10772 0.03500 0.32418
 C162 C 0.09512 0.00660 0.34532
 C163 C 0.00593 0.09318 0.44205
 C164 C -0.07387 0.21034 0.51704
 H165 H 0.07195 0.24733 0.36480
 H166 H -0.27065 0.56595 0.70139
 H167 H -0.23230 0.60929 0.67177
 H168 H -0.21058 0.42338 0.64585
 H169 H 0.12156 0.10849 0.30524
 H170 H 0.17849 -0.03390 0.24932
 H171 H 0.15743 -0.08425 0.28586
 H172 H -0.14343 0.27819 0.59185
 C173 C 0.50985 -0.03447 -0.36042
 C174 C 0.49859 -0.02383 -0.30521
 C175 C 0.41382 0.08795 -0.20661
 C176 C 0.34137 0.18696 -0.16444
 C177 C 0.35294 0.17581 -0.21915
 C178 C 0.43693 0.06579 -0.31775
 C179 C 0.40333 0.09937 -0.15165
 C180 C 0.47746 0.00006 -0.19401
 C181 C 0.56181 -0.11184 -0.29228
 C182 C 0.57126 -0.12296 -0.34696
 C183 C 0.63676 -0.21127 -0.33483
 C184 C 0.63007 -0.20052 -0.28158
 C185 C 0.54811 -0.09023 -0.18447
 C186 C 0.47039 0.01045 -0.14039
 H187 H 0.57546 -0.12040 -0.43615
 H188 H 0.27596 0.27332 -0.08907
 H189 H 0.29601 0.25445 -0.18360
 H190 H 0.33859 0.18531 -0.07637
 H191 H 0.63635 -0.20899 -0.42238
 H192 H 0.70199 -0.29782 -0.40993
 H193 H 0.69047 -0.27944 -0.31728
 H194 H 0.40708 0.09590 -0.06582
 C195 C 0.54237 -0.03436 0.31619
 C196 C 0.53745 -0.02481 0.27558
 C197 C 0.45418 0.08688 0.33356
 C198 C 0.37900 0.18641 0.43018
 C199 C 0.38409 0.17640 0.47006
 C200 C 0.46504 0.06641 0.41405
 C201 C 0.44655 0.09776 0.29454
 C202 C 0.52175 -0.00188 0.19776
 C203 C 0.60638 -0.11401 0.13916
 C204 C 0.61368 -0.12481 0.17834
 C205 C 0.68219 -0.21369 0.04223
 C206 C 0.67437 -0.20268 0.00362
 C207 C 0.58941 -0.09145 0.06150
 C208 C 0.51321 0.00889 0.15882
 H209 H 0.60533 -0.11961 0.27210
 H210 H 0.31499 0.27256 0.47556
 H211 H 0.32334 0.25578 0.54563
 H212 H 0.38177 0.18381 0.33964
 H213 H 0.67821 -0.21079 0.13337
 H214 H 0.74785 -0.30037 -0.00394
 H215 H 0.73406 -0.28160 -0.07153
 H216 H 0.44736 0.09500 0.20412
 C217 C 0.42907 -0.30392 0.01824
 C218 C 0.44137 -0.27489 -0.00225
 C219 C 0.52598 -0.35956 -0.09928
 C220 C 0.59260 -0.46928 -0.17348
 C221 C 0.58006 -0.49774 -0.15245
 C222 C 0.50081 -0.41694 -0.05693
 C223 C 0.54545 -0.33507 -0.12079
 C224 C 0.48226 -0.22778 -0.04661
 C225 C 0.39335 -0.14038 0.05091
 C226 C 0.37352 -0.16449 0.07246
 C227 C 0.32818 -0.03185 0.12514
 C228 C 0.35438 -0.01254 0.10273
 C229 C 0.44754 -0.10224 0.00579
 C230 C 0.50920 -0.20830 -0.06843
 H231 H 0.36743 -0.24076 0.09212
 H232 H 0.65677 -0.53458 -0.24807
 H233 H 0.63533 -0.58486 -0.21163
 H234 H 0.61183 -0.40083 -0.19523
 H235 H 0.30833 -0.09942 0.14684
 H236 H 0.25916 0.03652 0.20026
 H237 H 0.30458 0.07061 0.16143
 H238 H 0.57963 -0.27652 -0.14274
 C239 C 0.60708 0.25209 -0.03202
 C240 C 0.59683 0.21736 -0.01837
 C241 C 0.49674 0.30468 0.07297
 C242 C 0.41112 0.42419 0.15028
 C243 C 0.42212 0.45770 0.13603
 C244 C 0.51860 0.37240 0.04388
 C245 C 0.48228 0.27167 0.08457
 C246 C 0.56605 0.15251 0.00563
 C247 C 0.66774 0.06437 -0.08465
 C248 C 0.68295 0.09738 -0.09566
 C249 C 0.75091 -0.05469 -0.16315
 C250 C 0.73162 -0.08538 -0.15389
 C251 C 0.62906 0.00254 -0.06562
 C252 C 0.54792 0.12095 0.01471
 H253 H 0.68206 0.18612 -0.10251
 H254 H 0.33405 0.49220 0.22072
 H255 H 0.35290 0.55086 0.19598
 H256 H 0.40437 0.33920 0.15383
 H257 H 0.76025 0.03037 -0.16507
 H258 H 0.82984 -0.12360 -0.23248
 H259 H 0.79587 -0.17728 -0.21659
 H260 H 0.46865 0.18989 0.08379
 C261 C -0.40542 0.09132 0.54676
 C262 C -0.34087 0.07027 0.52718
 C263 C -0.22864 -0.04405 0.43318
 C264 C -0.18310 -0.13489 0.36012
 C265 C -0.24766 -0.11380 0.38077
 C266 C -0.35914 -0.00103 0.47443
 C267 C -0.16353 -0.06649 0.41439
 C268 C -0.20897 0.02322 0.48898
 C269 C -0.32129 0.13780 0.58271
 C270 C -0.38659 0.16091 0.60095
 C271 C -0.36627 0.22674 0.65740
 C272 C -0.30053 0.20173 0.64025
 C273 C -0.18856 0.08745 0.54790
 C274 C -0.14351 -0.00091 0.47206
 H275 H -0.49120 0.17854 0.61910
 H276 H -0.09734 -0.22287 0.28761
 H277 H -0.21006 -0.18629 0.32346
 H278 H -0.07740 -0.15446 0.34255
 H279 H -0.47261 0.24850 0.67312
 H280 H -0.45213 0.31499 0.72963
 H281 H -0.33745 0.27154 0.70002
 H282 H -0.05733 -0.08947 0.40069
 C283 C 0.35143 -0.01333 0.51087
 C284 C 0.29461 -0.00229 0.52340
 C285 C 0.18189 0.10874 0.61444
 C286 C 0.12812 0.20675 0.69118
 C287 C 0.18537 0.19530 0.67750
 C288 C 0.29741 0.08532 0.58733
 C289 C 0.12474 0.12042 0.62659
 C290 C 0.17871 0.02317 0.54820
 C291 C 0.29137 -0.08777 0.45708
 C292 C 0.34877 -0.10011 0.44553
 C293 C 0.34437 -0.18374 0.37845
 C294 C 0.28599 -0.16913 0.38929
 C295 C 0.17386 -0.05872 0.47926
 C296 C 0.12114 0.03639 0.55885
 H297 H 0.43776 -0.09846 0.44059
 H298 H 0.04171 0.29258 0.76127
 H299 H 0.14192 0.27255 0.73741
 H300 H 0.03818 0.20570 0.69624
 H301 H 0.43520 -0.18501 0.37549
 H302 H 0.43067 -0.26929 0.30806
 H303 H 0.32840 -0.24357 0.32685
 H304 H 0.03458 0.12238 0.62856
 C305 C 0.00961 0.46212 1.31233
 C306 C -0.01043 0.48552 1.28363
 C307 C -0.10961 0.60349 1.35420
 C308 C -0.18785 0.69572 1.45233
 C309 C -0.16721 0.67178 1.48026
 C310 C -0.06791 0.55512 1.41063
 C311 C -0.12824 0.62758 1.32547
 C312 C -0.04874 0.53515 1.22694
 C313 C 0.04957 0.41701 1.15654
 C314 C 0.06808 0.39294 1.18530
 C315 C 0.12831 0.32480 1.05828
 C316 C 0.11065 0.34928 1.02974
 C317 C 0.01423 0.46649 1.09880
 C318 C -0.06555 0.55910 1.19759
 H319 H 0.08651 0.37182 1.25789
 H320 H -0.26431 0.78660 1.50739
 H321 H -0.22838 0.74529 1.55650
 H322 H -0.20391 0.71821 1.37961
 H323 H 0.14404 0.30240 1.13111
 H324 H 0.20386 0.23376 1.00342
 H325 H 0.17330 0.27615 0.95321
 H326 H -0.14036 0.64980 1.25161
 C327 C -0.01638 0.55191 0.67736
 C328 C -0.00298 0.53612 0.71206
 C329 C 0.08839 0.42075 0.64781
 C330 C 0.16570 0.32329 0.54976
 C331 C 0.15193 0.33976 0.51573
 C332 C 0.05994 0.45411 0.57944
 C333 C 0.10000 0.40472 0.68288
 C334 C 0.02086 0.50266 0.78159
 C335 C -0.06945 0.61793 0.84562
 C336 C -0.08080 0.63400 0.81041
 C337 C -0.14769 0.71522 0.94411
 C338 C -0.13835 0.69870 0.97946
 C339 C -0.05031 0.58460 0.91676
 C340 C 0.02989 0.48691 0.81748
 H341 H -0.08761 0.64059 0.72723
 H342 H 0.23610 0.23433 0.49963
 H343 H 0.21181 0.26299 0.44005
 H344 H 0.16963 0.31623 0.63373
 H345 H -0.15091 0.72252 0.85973
 H346 H -0.21730 0.80422 0.99420
 H347 H -0.20095 0.77539 1.05614
 H348 H 0.09898 0.39821 0.76790
   
