data_POSCAR
  _audit_creation_date              2014-09-24
  _audit_creation_method            'ToBaCCo'
  _symmetry_space_group_name_H-M    'P1'
  _symmetry_Int_Tables_number       1
  _symmetry_cell_setting            triclinic
  loop_
  _symmetry_equiv_pos_as_xyz
 x,y,z
_cell_length_a 36.6140
_cell_length_b 36.6851
_cell_length_c 36.7758
_cell_angle_alpha 89.653500
_cell_angle_beta 89.583400
_cell_angle_gamma 90.541000
loop_
  _atom_site_label
  _atom_site_type_symbol
  _atom_site_fract_x
  _atom_site_fract_y
  _atom_site_fract_z
C1 C 0.28710 0.46820 0.99889
 C2 C 0.26874 0.50143 1.00164
 C3 C 0.28857 0.53417 1.00475
 C4 C 0.32701 0.53395 1.00593
 C5 C 0.34498 0.50027 1.00289
 C6 C 0.32535 0.46750 0.99888
 C7 C 0.22862 0.50190 1.00109
 C8 C 0.20876 0.49922 1.03377
 C9 C 0.17029 0.49836 1.03355
 C10 C 0.15235 0.50143 0.99989
 C11 C 0.17204 0.50501 0.96713
 C12 C 0.21030 0.50460 0.96787
 H13 H 0.27157 0.44310 0.99599
 H14 H 0.27381 0.55955 1.00686
 H15 H 0.22350 0.49699 1.05912
 H16 H 0.22590 0.50702 0.94280
 H17 H 0.37454 0.49934 1.00332
 H18 H 0.12278 0.50120 0.99896
 C19 C 0.71105 0.46851 0.00130
 C20 C 0.73056 0.50148 -0.00185
 C21 C 0.71183 0.53446 -0.00550
 C22 C 0.67351 0.53462 -0.00645
 C23 C 0.65425 0.50149 -0.00279
 C24 C 0.67273 0.46837 0.00133
 C25 C 0.77068 0.50139 -0.00126
 C26 C 0.79049 0.49856 -0.03390
 C27 C 0.82892 0.49734 -0.03364
 C28 C 0.84693 0.50018 0.00000
 C29 C 0.82731 0.50391 0.03271
 C30 C 0.78905 0.50387 0.03194
 H31 H 0.72575 0.44318 0.00437
 H32 H 0.72713 0.55978 -0.00814
 H33 H 0.77569 0.49654 -0.05924
 H34 H 0.77351 0.50645 0.05697
 H35 H 0.62466 0.50148 -0.00310
 H36 H 0.87649 0.49971 0.00095
 C37 C 0.03443 0.21190 0.50395
 C38 C 0.00164 0.23074 0.49912
 C39 C -0.03116 0.21133 0.49431
 C40 C -0.03135 0.17309 0.49415
 C41 C 0.00163 0.15452 0.49913
 C42 C 0.03460 0.17365 0.50415
 C43 C 0.00151 0.27082 0.49947
 C44 C -0.00287 0.29039 0.46692
 C45 C -0.00378 0.32877 0.46699
 C46 C 0.00019 0.34696 0.50042
 C47 C 0.00515 0.32759 0.53305
 C48 C 0.00551 0.28941 0.53240
 H49 H 0.05964 0.22707 0.50785
 H50 H -0.05638 0.22608 0.49058
 H51 H -0.00593 0.27548 0.44175
 H52 H 0.00915 0.27408 0.55739
 H53 H 0.00162 0.12499 0.49919
 H54 H -0.00033 0.37647 0.50127
 C55 C 1.03395 0.78878 0.49700
 C56 C 1.00117 0.76894 0.50080
 C57 C 0.96795 0.78724 0.50467
 C58 C 0.96727 0.82542 0.50483
 C59 C 1.00010 0.84506 0.50036
 C60 C 1.03379 0.82717 0.49646
 C61 C 1.00156 0.72887 0.50045
 C62 C 0.99795 0.70918 0.53313
 C63 C 0.99734 0.67079 0.53305
 C64 C 1.00098 0.65273 0.49950
 C65 C 1.00523 0.67222 0.46675
 C66 C 1.00517 0.71041 0.46738
 H67 H 1.05933 0.77408 0.49401
 H68 H 0.94278 0.77171 0.50788
 H69 H 0.99513 0.72400 0.55839
 H70 H 1.00821 0.72584 0.44230
 H71 H 0.99920 0.87457 0.50017
 H72 H 1.00070 0.62321 0.49866
 C73 C 0.49686 0.03238 0.21057
 C74 C 0.50180 -0.00036 0.22971
 C75 C 0.50664 -0.03303 0.21074
 C76 C 0.50666 -0.03315 0.17258
 C77 C 0.50158 -0.00021 0.15369
 C78 C 0.49660 0.03265 0.17242
 C79 C 0.50171 -0.00045 0.26969
 C80 C 0.46891 0.00454 0.28887
 C81 C 0.46860 0.00463 0.32702
 C82 C 0.50148 -0.00056 0.34571
 C83 C 0.53448 -0.00567 0.32678
 C84 C 0.53441 -0.00547 0.28863
 H85 H 0.49300 0.05749 0.22543
 H86 H 0.51049 -0.05821 0.22573
 H87 H 0.44377 0.00851 0.27403
 H88 H 0.55964 -0.00939 0.27362
 H89 H 0.50146 -0.00015 0.12423
 H90 H 0.50140 -0.00060 0.37517
 C91 C 0.50236 0.03292 0.78928
 C92 C 0.49901 -0.00029 0.77090
 C93 C 0.49521 -0.03301 0.79057
 C94 C 0.49419 -0.03285 0.82885
 C95 C 0.49755 0.00083 0.84684
 C96 C 0.50199 0.03363 0.82737
 C97 C 0.49934 -0.00080 0.73095
 C98 C 0.53241 0.00335 0.71180
 C99 C 0.53282 0.00324 0.67365
 C100 C 0.49982 -0.00148 0.65495
 C101 C 0.46659 -0.00587 0.67384
 C102 C 0.46653 -0.00531 0.71198
 H103 H 0.50561 0.05804 0.77388
 H104 H 0.49266 -0.05838 0.77580
 H105 H 0.55763 0.00699 0.72665
 H106 H 0.44111 -0.00859 0.72698
 H107 H 0.49699 0.00174 0.87628
 H108 H 0.50001 -0.00172 0.62549
 C109 C 0.30922 0.03486 0.46685
 H110 H 0.30956 0.05017 0.49190
 C111 C 0.33810 0.03844 0.44216
 H112 H 0.36036 0.05704 0.44822
 C113 C 0.28090 -0.00989 0.43002
 H114 H 0.25925 -0.02971 0.42618
 C115 C 0.30911 -0.00682 0.40427
 H116 H 0.30873 -0.02422 0.38060
 N117 N 0.28193 0.01031 0.46089
 C118 C 0.19283 0.03459 0.53516
 H119 H 0.19232 0.00948 0.55075
 C120 C 0.16431 0.05924 0.53868
 H121 H 0.14220 0.05311 0.55751
 C122 C 0.22108 0.07155 0.48974
 H123 H 0.24249 0.07543 0.46966
 C124 C 0.19325 0.09726 0.49273
 H125 H 0.19371 0.12096 0.47503
 Zn126 Zn 0.25055 0.00062 0.50076
 N127 N 0.21990 0.04061 0.51031
 C128 C 0.28053 0.01094 0.57140
 N129 N 0.28129 -0.00927 0.54052
 C130 C 0.30796 -0.03406 0.53444
 C131 C 0.33642 -0.03799 0.55906
 C132 C 0.30833 0.00755 0.59707
 C133 C 0.19145 -0.03207 0.46777
 C134 C 0.16236 -0.05653 0.46442
 C135 C 0.19206 -0.09679 0.50700
 C136 C 0.22032 -0.07107 0.51018
 N137 N 0.21907 -0.03917 0.49116
 H138 H 0.25946 0.03100 0.57533
 H139 H 0.30816 -0.04933 0.50936
 H140 H 0.35819 -0.05682 0.55292
 H141 H 0.30820 0.02493 0.62076
 H142 H 0.19097 -0.00628 0.45335
 H143 H 0.13969 -0.04960 0.44701
 H144 H 0.19249 -0.12137 0.52345
 H145 H 0.24221 -0.07585 0.52913
 C146 C 0.16375 0.09055 0.51656
 C147 C 0.33880 0.01670 0.41089
 C148 C 0.16203 -0.08891 0.48487
 C149 C 0.33739 -0.01631 0.59036
 C150 C 0.69306 0.03189 0.53348
 H151 H 0.69329 0.04758 0.50847
 C152 C 0.66432 0.03562 0.55818
 H153 H 0.64276 0.05469 0.55217
 C154 C 0.71974 -0.01386 0.57023
 H155 H 0.74064 -0.03411 0.57404
 C156 C 0.69165 -0.01067 0.59599
 H157 H 0.69139 -0.02839 0.61964
 N158 N 0.71949 0.00684 0.53941
 C159 C 0.80938 0.03189 0.46543
 H160 H 0.80952 0.00690 0.44996
 C161 C 0.83820 0.05675 0.46171
 H162 H 0.86021 0.05089 0.44288
 C163 C 0.78161 0.06844 0.51060
 H164 H 0.76023 0.07212 0.53062
 C165 C 0.80975 0.09436 0.50739
 H166 H 0.80956 0.11800 0.52488
 Zn167 Zn 0.75079 -0.00237 0.49957
 N168 N 0.78236 0.03764 0.49020
 C169 C 0.72097 0.00928 0.42899
 N170 N 0.71990 -0.01152 0.45974
 C171 C 0.69284 -0.03649 0.46568
 C172 C 0.66424 -0.03998 0.44111
 C173 C 0.69305 0.00633 0.40335
 C174 C 0.80769 -0.03684 0.53418
 C175 C 0.83607 -0.06157 0.53800
 C176 C 0.80855 -0.09873 0.49137
 C177 C 0.78078 -0.07297 0.48815
 N178 N 0.78134 -0.04243 0.50895
 H179 H 0.74238 0.02945 0.42517
 H180 H 0.69244 -0.05227 0.49063
 H181 H 0.64216 -0.05895 0.44715
 H182 H 0.69344 0.02416 0.37978
 H183 H 0.80772 -0.01203 0.54994
 H184 H 0.85760 -0.05578 0.55721
 H185 H 0.80863 -0.12209 0.47352
 H186 H 0.75994 -0.07650 0.46778
 C187 C 0.83912 0.08801 0.48353
 C188 C 0.66286 0.01350 0.58944
 C189 C 0.83731 -0.09247 0.51570
 C190 C 0.66359 -0.01769 0.40996
 C191 C 0.46362 0.19217 1.03388
 H192 H 0.44744 0.19204 1.00938
 C193 C 0.46068 0.16325 1.05850
 H194 H 0.44170 0.14118 1.05298
 C195 C 0.50989 0.21997 1.06929
 H196 H 0.53004 0.24139 1.07255
 C197 C 0.50746 0.19173 1.09497
 H198 H 0.52567 0.19188 1.11803
 N199 N 0.48859 0.21923 1.03914
 C200 C 0.46193 0.30779 0.96546
 H201 H 0.48645 0.30790 0.94885
 C202 C 0.43732 0.33637 0.96261
 H203 H 0.44286 0.35813 0.94326
 C204 C 0.42657 0.28049 1.01271
 H205 H 0.42336 0.25943 1.03319
 C206 C 0.40091 0.30845 1.01047
 H207 H 0.37792 0.30845 1.02915
 Zn208 Zn 0.49702 0.25061 0.99905
 N209 N 0.45672 0.28117 0.99086
 C210 C 0.48436 0.22003 0.92892
 N211 N 0.50576 0.21990 0.95901
 C212 C 0.53135 0.19386 0.96428
 C213 C 0.53497 0.16537 0.93969
 C214 C 0.48738 0.19214 0.90329
 C215 C 0.53172 0.30867 1.03222
 C216 C 0.55658 0.33747 1.03524
 C217 C 0.59359 0.30994 0.98837
 C218 C 0.56767 0.28181 0.98588
 N219 N 0.53717 0.28210 1.00723
 H220 H 0.46370 0.24062 0.92566
 H221 H 0.54759 0.19418 0.98873
 H222 H 0.55452 0.14411 0.94522
 H223 H 0.46909 0.19170 0.88029
 H224 H 0.50695 0.30847 1.04844
 H225 H 0.55095 0.35912 1.05431
 H226 H 0.61698 0.31014 0.97018
 H227 H 0.57110 0.26082 0.96568
 C228 C 0.40690 0.33751 0.98602
 C229 C 0.48347 0.16229 1.08900
 C230 C 0.58751 0.33885 1.01249
 C231 C 0.51212 0.16371 0.90925
 C232 C 0.46685 0.80922 -0.03153
 H233 H 0.45265 0.80958 -0.00563
 C234 C 0.46318 0.83831 -0.05570
 H235 H 0.44572 0.86083 -0.04843
 C236 C 0.50913 0.78070 -0.07109
 H237 H 0.52818 0.75897 -0.07619
 C238 C 0.50565 0.80899 -0.09651
 H239 H 0.52194 0.80871 -0.12119
 N240 N 0.49034 0.78177 -0.03905
 C241 C 0.46777 0.69102 0.03389
 H242 H 0.49359 0.69026 0.04798
 C243 C 0.44325 0.66192 0.03734
 H244 H 0.45018 0.63898 0.05455
 C245 C 0.42876 0.72064 -0.00791
 H246 H 0.42402 0.74286 -0.02667
 C247 C 0.40301 0.69233 -0.00464
 H248 H 0.37843 0.69308 -0.02082
 Zn249 Zn 0.50059 0.75046 0.00041
 N250 N 0.46070 0.71902 0.01071
 C251 C 0.49059 0.78010 0.07131
 N252 N 0.51074 0.78122 0.04009
 C253 C 0.53552 0.80832 0.03358
 C254 C 0.53939 0.83694 0.05802
 C255 C 0.49394 0.80806 0.09682
 C256 C 0.53438 0.69327 -0.03474
 C257 C 0.55906 0.66485 -0.03870
 C258 C 0.59731 0.69302 0.00666
 C259 C 0.57160 0.72078 0.01008
 N260 N 0.54053 0.71994 -0.00999
 H261 H 0.47059 0.75862 0.07558
 H262 H 0.55076 0.80875 0.00826
 H263 H 0.55815 0.85907 0.05152
 H264 H 0.47656 0.80766 0.12078
 H265 H 0.50916 0.69297 -0.04988
 H266 H 0.55283 0.64305 -0.05746
 H267 H 0.62110 0.69321 0.02398
 H268 H 0.57558 0.74185 0.03012
 C269 C 0.41088 0.66192 0.01720
 C270 C 0.48344 0.83885 -0.08820
 C271 C 0.59050 0.66392 -0.01709
 C272 C 0.51769 0.83760 0.08962
 C273 C 1.03043 0.46765 0.19112
 H274 H 1.00470 0.45292 0.19066
 C275 C 1.05466 0.46492 0.16189
 H276 H 1.04763 0.44762 0.13919
 C277 C 1.06941 0.51040 0.21999
 H278 H 1.07424 0.52930 0.24189
 C279 C 1.09491 0.50782 0.19159
 H280 H 1.11938 0.52462 0.19200
 N281 N 1.03761 0.49094 0.21882
 C282 C 0.96488 0.46721 0.30966
 H283 H 0.95029 0.49271 0.31035
 C284 C 0.96199 0.44299 0.33888
 H285 H 0.94471 0.44980 0.36184
 C286 C 1.00744 0.42885 0.28012
 H287 H 1.02629 0.42430 0.25789
 C288 C 1.00472 0.40337 0.30855
 H289 H 1.02140 0.37916 0.30788
 Zn290 Zn 0.99782 0.50028 0.25029
 N291 N 0.98819 0.46036 0.28166
 C292 C 0.92702 0.48843 0.22033
 N293 N 0.95772 0.50961 0.21975
 C294 C 0.96371 0.53484 0.19313
 C295 C 0.93935 0.53811 0.16440
 C296 C 0.90160 0.49111 0.19220
 C297 C 1.03301 0.53442 0.30713
 C298 C 1.03705 0.55901 0.33557
 C299 C 0.99066 0.59660 0.30835
 C300 C 0.98720 0.57097 0.28052
 N301 N 1.00778 0.54028 0.28088
 H302 H 0.92320 0.46808 0.24143
 H303 H 0.98865 0.55089 0.19310
 H304 H 0.94551 0.55727 0.14264
 H305 H 0.87815 0.47290 0.19211
 H306 H 1.04855 0.50948 0.30705
 H307 H 1.05625 0.55300 0.35700
 H308 H 0.97297 0.62009 0.30857
 H309 H 0.96677 0.57471 0.25979
 C310 C 0.98280 0.41111 0.33897
 C311 C 1.08690 0.48587 0.16150
 C312 C 1.01498 0.59007 0.33699
 C313 C 0.90839 0.51530 0.16310
 C314 C -0.03187 0.46635 0.80919
 H315 H -0.00636 0.45173 0.80992
 C316 C -0.05617 0.46365 0.83843
 H317 H -0.04942 0.44646 0.86142
 C318 C -0.07018 0.50881 0.77956
 H319 H -0.07467 0.52756 0.75729
 C320 C -0.09573 0.50629 0.80799
 H321 H -0.11995 0.52299 0.80727
 N322 N -0.03866 0.48951 0.78113
 C323 C 0.03601 0.46503 0.69251
 H324 H 0.05188 0.49006 0.69232
 C325 C 0.03946 0.44056 0.66389
 H326 H 0.05856 0.44673 0.64205
 C327 C -0.01012 0.42818 0.72004
 H328 H -0.03043 0.42431 0.74123
 C329 C -0.00723 0.40264 0.69205
 H330 H -0.02525 0.37907 0.69214
 Zn331 Zn 0.00135 0.49906 0.74974
 N332 N 0.01083 0.45900 0.71924
 C333 C 0.07200 0.48830 0.78004
 N334 N 0.04139 0.50904 0.78031
 C335 C 0.03554 0.53423 0.80660
 C336 C 0.05998 0.53796 0.83523
 C337 C 0.09748 0.49145 0.80805
 C338 C -0.03169 0.53131 0.69079
 C339 C -0.03490 0.55548 0.66165
 C340 C 0.00802 0.59599 0.69099
 C341 C 0.01106 0.57055 0.71932
 N342 N -0.00820 0.53866 0.71828
 H343 H 0.07573 0.46791 0.75928
 H344 H 0.01065 0.54989 0.80646
 H345 H 0.05393 0.55708 0.85672
 H346 H 0.12086 0.47359 0.80836
 H347 H -0.04627 0.50553 0.69045
 H348 H -0.05239 0.54833 0.63911
 H349 H 0.02465 0.62055 0.69128
 H350 H 0.03012 0.57552 0.74107
 C351 C 0.01691 0.40943 0.66285
 C352 C -0.08807 0.48452 0.83848
 C353 C -0.01420 0.58783 0.66112
 C354 C 0.09087 0.51564 0.83678
 N355 N 0.06780 0.11918 0.52387
 C356 C 0.06884 0.15330 0.50942
 N357 N 0.10162 0.16751 0.49867
 N358 N 0.13203 0.14800 0.50160
 C359 C 0.13088 0.11371 0.51584
 N360 N 0.09818 0.09986 0.52710
 N361 N 0.66728 0.60135 0.00016
 C362 C 0.65321 0.56896 -0.01113
 N363 N 0.61927 0.56837 -0.02572
 N364 N 0.59998 0.59878 -0.02857
 C365 C 0.61368 0.63108 -0.01677
 N366 N 0.64779 0.63179 -0.00241
 N367 N 0.93297 -0.12106 0.52485
 C368 C 0.93268 -0.15467 0.50967
 N369 N 0.90042 -0.16867 0.49782
 N370 N 0.86981 -0.14937 0.50040
 C371 C 0.87024 -0.11555 0.51534
 N372 N 0.90241 -0.10196 0.52772
 N373 N 0.33108 0.40064 1.00580
 C374 C 0.34533 0.43302 0.99407
 N375 N 0.37904 0.43344 0.97852
 N376 N 0.39797 0.40287 0.97512
 C377 C 0.38410 0.37057 0.98730
 N378 N 0.35022 0.37002 1.00270
 N379 N 0.90167 0.16588 0.50010
 C380 C 0.93433 0.15219 0.48929
 N381 N 0.93516 0.11807 0.47528
 N382 N 0.90469 0.09826 0.47250
 C383 C 0.87211 0.11162 0.48382
 N384 N 0.87117 0.14590 0.49761
 N385 N 0.38398 0.56514 0.01573
 C386 C 0.34742 0.56643 0.00982
 N387 N 0.33148 0.59973 0.00738
 N388 N 0.35137 0.63025 0.01008
 C389 C 0.38791 0.62868 0.01601
 N390 N 0.40373 0.59553 0.01891
 N391 N 0.06509 -0.11577 0.48690
 C392 C 0.06635 -0.15240 0.49236
 N393 N 0.09970 -0.16839 0.49429
 N394 N 0.13030 -0.14846 0.49157
 C395 C 0.12874 -0.11185 0.48610
 N396 N 0.09555 -0.09598 0.48367
 N397 N 0.66538 0.40166 0.99462
 C398 C 0.65165 0.43405 1.00579
 N399 N 0.61749 0.43461 1.02031
 N400 N 0.59767 0.40415 1.02327
 C401 C 0.61106 0.37184 1.01166
 N402 N 0.64537 0.37117 0.99728
 N403 N 0.50201 0.09957 1.16570
 C404 C 0.49135 0.06692 1.15186
 N405 N 0.47686 0.06612 1.11801
 N406 N 0.47345 0.09662 1.09863
 C407 C 0.48459 0.12920 1.11214
 N408 N 0.49891 0.13010 1.14613
 N409 N -0.00459 0.66679 0.59867
 C410 C -0.00665 0.65055 0.56554
 N411 N -0.01220 0.61390 0.56446
 N412 N -0.01542 0.59435 0.59488
 C413 C -0.01289 0.61048 0.62785
 N414 N -0.00730 0.64711 0.62923
 N415 N 0.49263 0.90137 -0.16706
 C416 C 0.49024 0.93459 -0.15094
 N417 N 0.48452 0.93570 -0.11442
 N418 N 0.48148 0.90521 -0.09487
 C419 C 0.48438 0.87215 -0.11088
 N420 N 0.49010 0.87076 -0.14738
 N421 N 0.98597 0.38536 0.43569
 C422 C 0.99170 0.34884 0.43456
 N423 N 0.99349 0.33256 0.40141
 N424 N 0.99033 0.35209 0.37088
 C425 C 0.98457 0.38858 0.37229
 N426 N 0.98231 0.40474 0.40529
 N427 N 0.50098 0.89996 0.16657
 C428 C 0.51156 0.93263 0.15217
 N429 N 0.52547 0.93354 0.11787
 N430 N 0.52837 0.90313 0.09858
 C431 C 0.51729 0.87053 0.11265
 N432 N 0.50359 0.86952 0.14710
 N433 N -0.00116 0.33316 0.59981
 C434 C 0.00997 0.34768 0.56745
 N435 N 0.02462 0.38179 0.56698
 N436 N 0.02773 0.40080 0.59750
 C437 C 0.01612 0.38663 0.62980
 N438 N 0.00164 0.35236 0.63038
 N439 N 0.52151 0.06813 0.88091
 C440 C 0.50642 0.06821 0.84732
 N441 N 0.49444 0.10028 0.83332
 N442 N 0.49684 0.13092 0.85257
 C443 C 0.51174 0.13070 0.88633
 N444 N 0.52420 0.09872 0.89994
 N445 N 0.99795 0.66632 0.40020
 C446 C 1.00969 0.65220 0.43226
 N447 N 1.02449 0.61843 0.43240
 N448 N 1.02711 0.59933 0.40188
 C449 C 1.01485 0.61307 0.36991
 N450 N 1.00027 0.64703 0.36964
 N451 N 1.16604 0.49662 0.09917
 C452 C 1.14990 0.49445 0.06600
 N453 N 1.11323 0.48857 0.06484
 N454 N 1.09358 0.48506 0.09523
 C455 C 1.10963 0.48763 0.12823
 N456 N 1.14626 0.49362 0.12968
 N457 N 0.56694 0.02212 0.61884
 C458 C 0.56733 0.00788 0.65297
 N459 N 0.59968 -0.00325 0.66689
 N460 N 0.63030 -0.00083 0.64710
 C461 C 0.62980 0.01322 0.61282
 N462 N 0.59753 0.02484 0.59924
 N463 N -0.16690 0.49567 0.90075
 C464 C -0.15079 0.49335 0.93394
 N465 N -0.11427 0.48724 0.93514
 N466 N -0.09474 0.48367 0.90478
 C467 C -0.11074 0.48639 0.87175
 N468 N -0.14722 0.49260 0.87026
 N469 N 0.43511 0.02375 0.38172
 C470 C 0.43426 0.00979 0.34765
 N471 N 0.40152 -0.00057 0.33369
 N472 N 0.37096 0.00229 0.35338
 C473 C 0.37190 0.01604 0.38760
 N474 N 0.40457 0.02691 0.40123
 N475 N 0.16652 0.49769 0.90052
 C476 C 0.15217 0.50938 0.93254
 N477 N 0.11845 0.52439 0.93249
 N478 N 0.09961 0.52727 0.90184
 C479 C 0.11359 0.51511 0.86991
 N480 N 0.14749 0.50028 0.86983
 N481 N 0.60146 -0.00004 0.33306
 C482 C 0.56868 -0.01085 0.34719
 N483 N 0.56763 -0.02523 0.38127
 N484 N 0.59801 -0.02836 0.40062
 C485 C 0.63071 -0.01704 0.38683
 N486 N 0.63187 -0.00287 0.35260
 N487 N 0.83263 0.49670 0.09945
 C488 C 0.84726 0.50827 0.06726
 N489 N 0.88127 0.52329 0.06713
 N490 N 0.90007 0.52635 0.09778
 C491 C 0.88580 0.51436 0.12990
 N492 N 0.85164 0.49947 0.13015
 N493 N 0.43302 -0.02490 0.61943
 C494 C 0.43229 -0.01064 0.65338
 N495 N 0.39978 0.00042 0.66733
 N496 N 0.36935 -0.00205 0.64773
 C497 C 0.37021 -0.01609 0.61361
 N498 N 0.40263 -0.02766 0.60001
   
