data_POSCAR
  _audit_creation_date              2014-09-24
  _audit_creation_method            'ToBaCCo'
  _symmetry_space_group_name_H-M    'P1'
  _symmetry_Int_Tables_number       1
  _symmetry_cell_setting            triclinic
  loop_
  _symmetry_equiv_pos_as_xyz
 x,y,z
_cell_length_a 23.5847
_cell_length_b 24.8940
_cell_length_c 23.9183
_cell_angle_alpha 88.324700
_cell_angle_beta 90.779300
_cell_angle_gamma 88.768600
loop_
  _atom_site_label
  _atom_site_type_symbol
  _atom_site_fract_x
  _atom_site_fract_y
  _atom_site_fract_z
C1 C 0.38193 0.90339 -0.54911
 C2 C 0.35971 0.90698 -0.49507
 C3 C 0.39426 0.91051 -0.44768
 C4 C 0.45369 0.90991 -0.45313
 C5 C 0.47793 0.90587 -0.50686
 C6 C 0.44218 0.90217 -0.55510
 C7 C 0.46787 0.89296 -0.60684
 C8 C 0.52666 0.89056 -0.61183
 C9 C 0.56271 0.89666 -0.56523
 C10 C 0.53815 0.90393 -0.51197
 C11 C 0.48938 0.91247 -0.40595
 C12 C 0.54782 0.90976 -0.41084
 C13 C 0.57354 0.90729 -0.46342
 C14 C 0.63353 0.90375 -0.46832
 C15 C 0.65615 0.89319 -0.52085
 C16 C 0.62251 0.89090 -0.56942
 H17 H 0.44294 0.88530 -0.64388
 H18 H 0.54358 0.88185 -0.65248
 H19 H 0.47260 0.91545 -0.36429
 H20 H 0.57238 0.90782 -0.37236
 H21 H 0.31414 0.90934 -0.48952
 H22 H 0.70189 0.89228 -0.52535
 C23 C -0.56481 1.41086 0.08135
 C24 C -0.51589 1.37850 0.08844
 C25 C -0.46170 1.39995 0.08660
 C26 C -0.45580 1.45606 0.07824
 C27 C -0.50484 1.48956 0.07041
 C28 C -0.55965 1.46706 0.07294
 C29 C -0.60755 1.50127 0.06626
 C30 C -0.60193 1.55653 0.05920
 C31 C -0.54818 1.57950 0.05511
 C32 C -0.49903 1.54568 0.05976
 C33 C -0.40228 1.47971 0.07908
 C34 C -0.39655 1.53440 0.06798
 C35 C -0.44408 1.56794 0.05540
 C36 C -0.43860 1.62389 0.04325
 C37 C -0.48808 1.65646 0.04111
 C38 C -0.54204 1.63554 0.04789
 H39 H -0.65005 1.48592 0.06706
 H40 H -0.64040 1.58088 0.05649
 H41 H -0.36415 1.45627 0.08909
 H42 H -0.35436 1.55026 0.07114
 H43 H -0.52013 1.33532 0.09365
 H44 H -0.48532 1.69925 0.03195
 C45 C 0.01235 0.41329 0.42404
 C46 C 0.03000 0.38258 0.47163
 C47 C 0.03669 0.40449 0.52477
 C48 C 0.02833 0.46093 0.52975
 C49 C 0.00771 0.49263 0.48311
 C50 C -0.00154 0.46863 0.43057
 C51 C -0.02796 0.49988 0.38728
 C52 C -0.03867 0.55452 0.39292
 C53 C -0.02422 0.58027 0.44239
 C54 C -0.00348 0.54874 0.48896
 C55 C 0.04397 0.48727 0.57868
 C56 C 0.03354 0.54203 0.58418
 C57 C 0.00681 0.57321 0.54107
 C58 C -0.00561 0.62906 0.54697
 C59 C -0.02230 0.65962 0.49887
 C60 C -0.03122 0.63655 0.44694
 H61 H -0.04169 0.48230 0.34873
 H62 H -0.05914 0.57627 0.35813
 H63 H 0.06607 0.46609 0.61286
 H64 H 0.04832 0.55991 0.62221
 H65 H 0.03843 0.34004 0.46715
 H66 H -0.03074 0.70236 0.50192
 O67 O -0.14966 1.04177 -0.09246
 O68 O 0.14087 1.01730 -0.09076
 O69 O -0.00171 1.11340 -0.14951
 O70 O -0.00312 0.96943 -0.16582
 O71 O -0.00947 0.89478 -0.10704
 O72 O 0.00228 1.16954 -0.07442
 O73 O 0.07146 1.03523 -0.15804
 O74 O -0.08028 1.04422 -0.15938
 Zr75 Zr -0.00423 1.03527 -0.11273
 O76 O 0.04421 0.97685 -0.07094
 O77 O -0.05221 1.08183 -0.06090
 C78 C -0.13269 1.04421 -0.14381
 C79 C 0.12354 1.02616 -0.14201
 C80 C 0.00053 1.16048 -0.12762
 C81 C -0.00432 0.91792 -0.15614
 H82 H 0.07522 1.09694 -0.08091
 O83 O 0.04983 1.07315 -0.05951
 H84 H -0.08347 0.96479 -0.09716
 O85 O -0.05804 0.98387 -0.07160
 O86 O 0.14209 1.00566 0.06031
 O87 O -0.15008 1.02342 0.05658
 O88 O 0.08186 1.15305 0.00293
 O89 O 0.06470 0.87984 -0.03345
 O90 O -0.08952 0.89022 -0.02323
 O91 O -0.07170 1.16542 -0.00302
 O92 O -0.00036 1.07400 0.13599
 O93 O -0.00923 0.93093 0.11920
 O94 O 0.00436 1.14879 0.07706
 O95 O -0.00991 0.87464 0.04412
 O96 O 0.14607 1.08285 -0.00761
 O97 O -0.14452 1.10542 -0.01074
 O98 O -0.15286 0.96174 -0.01789
 O99 O 0.13725 0.93970 -0.02267
 O100 O 0.07373 0.99927 0.12820
 O101 O -0.08205 1.00393 0.12495
 Zr102 Zr 0.09542 1.01481 -0.01506
 Zr103 Zr -0.10279 1.03013 -0.01686
 Zr104 Zr 0.00214 1.11610 -0.00406
 Zr105 Zr -0.00951 0.92801 -0.02629
 Zr106 Zr -0.00374 1.00876 0.08230
 O107 O -0.05752 0.97152 0.02841
 O108 O 0.05067 1.05983 0.04123
 C109 C 0.12609 1.00042 0.11178
 C110 C -0.13426 1.01107 0.10743
 C111 C 0.13297 1.13309 -0.00085
 C112 C 0.11783 0.89199 -0.02996
 C113 C -0.14004 0.91088 -0.01646
 C114 C -0.12482 1.15332 -0.00615
 C115 C 0.00186 1.12549 0.12639
 C116 C -0.01022 0.88383 0.09729
 H117 H -0.07520 1.08813 0.06567
 O118 O -0.05175 1.06717 0.03981
 H119 H 0.06783 0.93667 0.05086
 O120 O 0.04443 0.96366 0.02936
 C121 C 0.34702 0.93762 0.35839
 C122 C 0.30317 0.94202 0.31783
 C123 C 0.25386 0.91123 0.32433
 C124 C 0.24979 0.87558 0.37028
 C125 C 0.29318 0.87162 0.41044
 C126 C 0.34231 0.90279 0.40565
 C127 C 0.20888 0.91721 0.28546
 C128 C 0.21249 0.95354 0.23983
 C129 C 0.26233 0.98349 0.23251
 C130 C 0.30718 0.97775 0.27164
 C131 C 0.26650 1.01873 0.18606
 C132 C 0.22191 1.02414 0.14716
 C133 C 0.17187 0.99524 0.15446
 C134 C 0.16721 0.96020 0.20116
 H135 H 0.38308 0.96373 0.35477
 H136 H 0.21252 0.85136 0.37574
 H137 H 0.28822 0.84389 0.44571
 H138 H 0.17092 0.89387 0.29095
 H139 H 0.34503 1.00125 0.26626
 H140 H 0.30437 1.04187 0.17962
 H141 H 0.22633 1.05139 0.11140
 H142 H 0.12903 0.93720 0.20658
 C143 C -0.35431 0.92826 0.33813
 C144 C -0.31357 0.93356 0.29599
 C145 C -0.26812 0.89565 0.29371
 C146 C -0.26517 0.85216 0.33204
 C147 C -0.30423 0.84846 0.37504
 C148 C -0.34838 0.88709 0.37962
 C149 C -0.22466 0.90322 0.25514
 C150 C -0.22503 0.94900 0.21975
 C151 C -0.27118 0.98620 0.22060
 C152 C -0.31545 0.97801 0.25841
 C153 C -0.27173 1.03139 0.18413
 C154 C -0.22673 1.03980 0.14765
 C155 C -0.18003 1.00383 0.14793
 C156 C -0.17956 0.95843 0.18387
 H157 H -0.38699 0.95921 0.34193
 H158 H -0.23083 0.82261 0.33067
 H159 H -0.29876 0.81633 0.40635
 H160 H -0.18954 0.87446 0.25403
 H161 H -0.35026 1.00711 0.25986
 H162 H -0.30688 1.06015 0.18379
 H163 H -0.22816 1.07463 0.11941
 H164 H -0.14441 0.92989 0.18288
 C165 C -0.33483 0.95631 -0.38783
 C166 C -0.29356 0.96719 -0.34697
 C167 C -0.24335 0.93517 -0.34310
 C168 C -0.23600 0.89193 -0.37844
 C169 C -0.27756 0.88069 -0.41801
 C170 C -0.32758 0.91266 -0.42379
 C171 C -0.20102 0.94682 -0.30407
 C172 C -0.20878 0.98917 -0.26756
 C173 C -0.25966 1.02027 -0.26964
 C174 C -0.30144 1.00967 -0.31010
 C175 C -0.26800 1.06069 -0.23051
 C176 C -0.22659 1.06953 -0.18934
 C177 C -0.17557 1.03951 -0.18837
 C178 C -0.16678 0.99985 -0.22792
 H179 H -0.37144 0.98316 -0.39298
 H180 H -0.19798 0.86669 -0.37552
 H181 H -0.27062 0.84633 -0.44404
 H182 H -0.16226 0.92252 -0.30168
 H183 H -0.34024 1.03386 -0.31236
 H184 H -0.30694 1.08460 -0.23101
 H185 H -0.23421 1.09973 -0.15846
 H186 H -0.12799 0.97554 -0.22615
 C187 C 0.33339 0.96386 -0.38480
 C188 C 0.30322 0.96967 -0.33525
 C189 C 0.30608 0.92837 -0.29332
 C190 C 0.33934 0.88196 -0.30186
 C191 C 0.36862 0.87619 -0.35185
 C192 C 0.36591 0.91717 -0.39341
 C193 C 0.27459 0.93359 -0.24432
 C194 C 0.23910 0.97887 -0.23755
 C195 C 0.23633 1.02002 -0.27972
 C196 C 0.26906 1.01552 -0.32780
 C197 C 0.19937 1.06426 -0.27404
 C198 C 0.16383 1.06680 -0.22808
 C199 C 0.16586 1.02601 -0.18636
 C200 C 0.20450 0.98272 -0.19044
 H201 H 0.33094 0.99522 -0.41726
 H202 H 0.34185 0.84978 -0.27036
 H203 H 0.39310 0.83966 -0.35841
 H204 H 0.27643 0.90181 -0.21230
 H205 H 0.26665 1.04697 -0.36018
 H206 H 0.19667 1.09604 -0.30597
 H207 H 0.13412 1.10035 -0.22536
 H208 H 0.20530 0.95077 -0.15860
 C209 C 0.37356 1.34417 0.03711
 C210 C 0.32510 1.31283 0.03589
 C211 C 0.28159 1.32126 0.07496
 C212 C 0.28796 1.36089 0.11508
 C213 C 0.33746 1.39095 0.11705
 C214 C 0.38038 1.38294 0.07784
 C215 C 0.23333 1.28907 0.07401
 C216 C 0.22921 1.24752 0.03567
 C217 C 0.27360 1.23883 -0.00256
 C218 C 0.32061 1.27207 -0.00283
 C219 C 0.27092 1.19629 -0.03938
 C220 C 0.22510 1.16203 -0.03805
 C221 C 0.18049 1.17036 -0.00082
 C222 C 0.18221 1.21364 0.03556
 H223 H 0.40702 1.33746 0.00725
 H224 H 0.25535 1.36769 0.14572
 H225 H 0.34266 1.41996 0.14951
 H226 H 0.19979 1.29548 0.10383
 H227 H 0.35444 1.26534 -0.03229
 H228 H 0.30465 1.18909 -0.06875
 H229 H 0.22415 1.12916 -0.06676
 H230 H 0.14796 1.21988 0.06462
 C231 C 0.36739 0.67766 0.00842
 C232 C 0.32524 0.71844 0.00889
 C233 C 0.32693 0.75745 0.05077
 C234 C 0.36930 0.75411 0.09235
 C235 C 0.41037 0.71310 0.09203
 C236 C 0.41003 0.67486 0.05007
 C237 C 0.28666 0.79956 0.05023
 C238 C 0.24395 0.80280 0.00901
 C239 C 0.24070 0.76292 -0.03177
 C240 C 0.28181 0.72124 -0.03195
 C241 C 0.19623 0.76550 -0.07149
 C242 C 0.15558 0.80729 -0.07082
 C243 C 0.15984 0.84770 -0.03140
 C244 C 0.20410 0.84529 0.00830
 H245 H 0.36764 0.64867 -0.02454
 H246 H 0.37102 0.78354 0.12481
 H247 H 0.44333 0.71167 0.12407
 H248 H 0.28856 0.82982 0.08192
 H249 H 0.27994 0.69104 -0.06367
 H250 H 0.19274 0.73512 -0.10281
 H251 H 0.12137 0.80860 -0.10155
 H252 H 0.20673 0.87601 0.03945
 C253 C -0.37602 0.70015 0.05327
 C254 C -0.32849 0.72907 0.03729
 C255 C -0.28850 0.70651 0.00086
 C256 C -0.29710 0.65465 -0.01869
 C257 C -0.34568 0.62640 -0.00364
 C258 C -0.38615 0.64892 0.03235
 C259 C -0.24167 0.73677 -0.01633
 C260 C -0.23560 0.78979 0.00146
 C261 C -0.27641 0.81179 0.03777
 C262 C -0.32175 0.78112 0.05609
 C263 C -0.27207 0.86467 0.05476
 C264 C -0.22823 0.89614 0.03555
 C265 C -0.18693 0.87539 -0.00040
 C266 C -0.19021 0.82167 -0.01679
 H267 H -0.40561 0.71796 0.08211
 H268 H -0.26727 0.63666 -0.04708
 H269 H -0.35283 0.58805 -0.02249
 H270 H -0.21089 0.71963 -0.04438
 H271 H -0.35280 0.79840 0.08384
 H272 H -0.30288 0.88193 0.08268
 H273 H -0.22616 0.93688 0.05000
 H274 H -0.15839 0.80523 -0.04414
 C275 C -0.37432 1.36002 0.04478
 C276 C -0.33067 1.32094 0.04464
 C277 C -0.32626 1.28185 0.08872
 C278 C -0.36450 1.28364 0.13303
 C279 C -0.40734 1.32322 0.13321
 C280 C -0.41272 1.36152 0.08907
 C281 C -0.28427 1.24122 0.08739
 C282 C -0.24623 1.23961 0.04290
 C283 C -0.24944 1.27980 -0.00021
 C284 C -0.29191 1.31998 0.00075
 C285 C -0.21034 1.27881 -0.04387
 C286 C -0.16887 1.23799 -0.04516
 C287 C -0.16653 1.19742 -0.00334
 C288 C -0.20512 1.19827 0.04063
 H289 H -0.37913 1.38877 0.01001
 H290 H -0.36164 1.25411 0.16721
 H291 H -0.43695 1.32356 0.16742
 H292 H -0.28142 1.21073 0.12071
 H293 H -0.29495 1.35029 -0.03274
 H294 H -0.21206 1.30933 -0.07712
 H295 H -0.13958 1.23720 -0.07955
 H296 H -0.20283 1.16690 0.07306
 C297 C -0.00936 1.33429 0.36921
 C298 C -0.00488 1.30510 0.32028
 C299 C 0.01836 1.32902 0.27177
 C300 C 0.03676 1.38219 0.27342
 C301 C 0.03351 1.41073 0.32301
 C302 C 0.01053 1.38719 0.37187
 C303 C 0.02373 1.29897 0.22303
 C304 C 0.00712 1.24498 0.22291
 C305 C -0.01563 1.22143 0.27206
 C306 C -0.02212 1.25172 0.31996
 C307 C -0.03121 1.16760 0.27298
 C308 C -0.02439 1.13696 0.22579
 C309 C -0.00233 1.15944 0.17619
 C310 C 0.01318 1.21384 0.17490
 H311 H -0.02857 1.31549 0.40557
 H312 H 0.05527 1.40119 0.23686
 H313 H 0.05151 1.45036 0.32369
 H314 H 0.04155 1.31724 0.18569
 H315 H -0.03963 1.23334 0.35745
 H316 H -0.04865 1.14906 0.31034
 H317 H -0.03747 1.09552 0.22806
 H318 H 0.03028 1.23168 0.13702
 C319 C 0.01960 1.37263 -0.37809
 C320 C 0.02559 1.33236 -0.33578
 C321 C 0.06023 1.28647 -0.34475
 C322 C 0.09093 1.28305 -0.39413
 C323 C 0.08553 1.32348 -0.43551
 C324 C 0.04872 1.36834 -0.42911
 C325 C 0.06272 1.24409 -0.30486
 C326 C 0.03166 1.24728 -0.25552
 C327 C -0.00040 1.29443 -0.24480
 C328 C -0.00375 1.33648 -0.28529
 C329 C -0.02900 1.29835 -0.19397
 C330 C -0.02704 1.25541 -0.15486
 C331 C 0.00196 1.20734 -0.16674
 C332 C 0.03176 1.20378 -0.21693
 H333 H -0.01054 1.40544 -0.37246
 H334 H 0.11856 1.24864 -0.40119
 H335 H 0.11036 1.31935 -0.47297
 H336 H 0.08820 1.20832 -0.31255
 H337 H -0.02958 1.37204 -0.27776
 H338 H -0.05309 1.33445 -0.18458
 H339 H -0.04944 1.25923 -0.11596
 H340 H 0.05514 1.16713 -0.22583
 C341 C 0.01486 0.70865 -0.39831
 C342 C 0.00962 0.73790 -0.34942
 C343 C -0.01379 0.71377 -0.30110
 C344 C -0.03140 0.66037 -0.30277
 C345 C -0.02729 0.63176 -0.35221
 C346 C -0.00426 0.65544 -0.40098
 C347 C -0.02024 0.74382 -0.25252
 C348 C -0.00449 0.79803 -0.25228
 C349 C 0.01874 0.82180 -0.30107
 C350 C 0.02624 0.79151 -0.34890
 C351 C 0.03365 0.87583 -0.30171
 C352 C 0.02539 0.90649 -0.25469
 C353 C 0.00245 0.88383 -0.20558
 C354 C -0.01205 0.82917 -0.20450
 H355 H 0.03405 0.72765 -0.43455
 H356 H -0.05002 0.64123 -0.26634
 H357 H -0.04488 0.59196 -0.35286
 H358 H -0.03831 0.72537 -0.21539
 H359 H 0.04397 0.81006 -0.38618
 H360 H 0.05156 0.89455 -0.33874
 H361 H 0.03781 0.94814 -0.25673
 H362 H -0.02971 0.81114 -0.16698
 C363 C -0.01337 0.67279 0.34947
 C364 C -0.02273 0.71182 0.30655
 C365 C -0.06356 0.75344 0.31361
 C366 C -0.09676 0.75337 0.36174
 C367 C -0.08827 0.71355 0.40348
 C368 C -0.04576 0.67356 0.39844
 C369 C -0.06975 0.79503 0.27307
 C370 C -0.03673 0.79483 0.22477
 C371 C 0.00153 0.75149 0.21593
 C372 C 0.00884 0.71058 0.25723
 C373 C 0.03251 0.75036 0.16628
 C374 C 0.02673 0.79248 0.12648
 C375 C -0.00899 0.83693 0.13636
 C376 C -0.04081 0.83772 0.18547
 H377 H 0.02014 0.64270 0.34552
 H378 H -0.12871 0.78458 0.36750
 H379 H -0.11393 0.71480 0.44066
 H380 H -0.09973 0.82783 0.27943
 H381 H 0.03939 0.67814 0.25123
 H382 H 0.06166 0.71726 0.15853
 H383 H 0.05188 0.79137 0.08894
 H384 H -0.06835 0.87189 0.19325
   
