data_POSCAR
  _audit_creation_date              2014-09-24
  _audit_creation_method            'ToBaCCo'
  _symmetry_space_group_name_H-M    'P1'
  _symmetry_Int_Tables_number       1
  _symmetry_cell_setting            triclinic
  loop_
  _symmetry_equiv_pos_as_xyz
 x,y,z
_cell_length_a 46.4177
_cell_length_b 45.9733
_cell_length_c 45.6292
_cell_angle_alpha 90.030600
_cell_angle_beta 90.000000
_cell_angle_gamma 89.744300
loop_
  _atom_site_label
  _atom_site_type_symbol
  _atom_site_fract_x
  _atom_site_fract_y
  _atom_site_fract_z
C1 C 0.60135 0.64718 0.62534
 C2 C 0.62309 0.64716 0.60403
 C3 C 0.64484 0.62592 0.60425
 C4 C 0.64473 0.60450 0.62619
 C5 C 0.62310 0.60383 0.64799
 C6 C 0.60145 0.62555 0.64707
 H7 H 0.62309 0.66377 0.58719
 H8 H 0.66129 0.58791 0.62548
 H9 H 0.58489 0.62643 0.66371
 C10 C 0.89887 0.35160 0.12539
 C11 C 0.87651 0.35125 0.10439
 C12 C 0.85494 0.37277 0.10409
 C13 C 0.85542 0.39480 0.12534
 C14 C 0.87718 0.39565 0.14663
 C15 C 0.89882 0.37420 0.14638
 H16 H 0.87659 0.33524 0.08700
 H17 H 0.83876 0.41137 0.12532
 H18 H 0.91464 0.37438 0.16379
 C19 C 0.39870 0.14813 -0.12546
 C20 C 0.37717 0.14831 -0.10384
 C21 C 0.35561 0.12697 -0.10352
 C22 C 0.35573 0.10532 -0.12527
 C23 C 0.37706 0.10481 -0.14712
 C24 C 0.39851 0.12628 -0.14697
 H25 H 0.37765 0.16468 -0.08676
 H26 H 0.33915 0.08882 -0.12520
 H27 H 0.41464 0.12646 -0.16413
 C28 C 0.10052 0.85131 0.37453
 C29 C 0.10103 0.87295 0.35253
 C30 C 0.12234 0.89455 0.35210
 C31 C 0.14361 0.89459 0.37390
 C32 C 0.14380 0.87342 0.39599
 C33 C 0.12229 0.85202 0.39619
 H34 H 0.08443 0.87380 0.33595
 H35 H 0.16012 0.91117 0.37366
 H36 H 0.12331 0.83548 0.41299
 N37 N 0.09275 0.17275 0.11342
 N38 N 0.07996 0.15930 0.13522
 C39 C 0.05596 0.17415 0.14264
 C40 C 0.05373 0.19832 0.12467
 C41 C 0.07751 0.19672 0.10643
 H42 H 0.04140 0.16814 0.16008
 H43 H 0.08305 0.21163 0.08902
 Cu44 Cu 0.09650 0.12414 0.15208
 Cu45 Cu 0.12770 0.15772 0.09508
 Cu46 Cu 0.15665 0.09428 0.12420
 N47 N 0.11300 0.08878 0.16854
 N48 N 0.13654 0.07722 0.15747
 C49 C 0.14363 0.05334 0.17296
 C50 C 0.12349 0.04968 0.19507
 C51 C 0.10435 0.07265 0.19153
 H52 H 0.16237 0.03996 0.16871
 H53 H 0.08553 0.07728 0.20468
 N54 N 0.17379 0.11484 0.09057
 N55 N 0.16283 0.13900 0.07956
 C56 C 0.17908 0.14744 0.05666
 C57 C 0.20141 0.12768 0.05304
 C58 C 0.19733 0.10733 0.07501
 H59 H 0.17494 0.16660 0.04360
 H60 H 0.21027 0.08817 0.07908
 H61 H 0.12114 0.11461 0.10589
 H62 H 0.14341 0.13656 0.13170
 N63 N 0.40835 0.82923 0.61093
 N64 N 0.42030 0.84174 0.63376
 C65 C 0.44373 0.82630 0.64175
 C66 C 0.44669 0.80279 0.62291
 C67 C 0.42375 0.80544 0.60362
 H68 H 0.45745 0.83164 0.66009
 H69 H 0.41867 0.79129 0.58545
 Cu70 Cu 0.40403 0.87694 0.65088
 Cu71 Cu 0.37375 0.84466 0.59237
 Cu72 Cu 0.34355 0.90665 0.62312
 N73 N 0.38637 0.91130 0.66831
 N74 N 0.36281 0.92285 0.65729
 C75 C 0.35527 0.94626 0.67332
 C76 C 0.37515 0.94963 0.69572
 C77 C 0.39458 0.92697 0.69180
 H78 H 0.33652 0.95961 0.66909
 H79 H 0.41342 0.92234 0.70492
 N80 N 0.32724 0.88708 0.58850
 N81 N 0.33877 0.86352 0.57675
 C82 C 0.32283 0.85548 0.55348
 C83 C 0.30011 0.87487 0.55037
 C84 C 0.30366 0.89460 0.57302
 H85 H 0.32732 0.83671 0.53995
 H86 H 0.29022 0.91327 0.57775
 H87 H 0.37962 0.88748 0.60471
 H88 H 0.35752 0.86437 0.62967
 N89 N 0.90859 0.67097 0.38870
 N90 N 0.92057 0.65843 0.36585
 C91 C 0.94395 0.67376 0.35788
 C92 C 0.94688 0.69721 0.37677
 C93 C 0.92393 0.69464 0.39606
 H94 H 0.95783 0.66814 0.33972
 H95 H 0.91861 0.70892 0.41409
 Cu96 Cu 0.90445 0.62333 0.34868
 Cu97 Cu 0.87403 0.65571 0.40724
 Cu98 Cu 0.84409 0.59391 0.37642
 N99 N 0.88689 0.58910 0.33119
 N100 N 0.86339 0.57766 0.34222
 C101 C 0.85592 0.55432 0.32617
 C102 C 0.87577 0.55089 0.30373
 C103 C 0.89512 0.57345 0.30765
 H104 H 0.83721 0.54107 0.33039
 H105 H 0.91392 0.57799 0.29449
 N106 N 0.82771 0.61351 0.41106
 N107 N 0.83912 0.63700 0.42283
 C108 C 0.82316 0.64506 0.44614
 C109 C 0.80054 0.62574 0.44924
 C110 C 0.80419 0.60603 0.42654
 H111 H 0.82758 0.66376 0.45973
 H112 H 0.79087 0.58741 0.42181
 H113 H 0.88009 0.61289 0.39485
 H114 H 0.85791 0.63614 0.36992
 N115 N 0.59159 0.32815 -0.11217
 N116 N 0.57890 0.34156 -0.13410
 C117 C 0.55529 0.32653 -0.14194
 C118 C 0.55305 0.30235 -0.12398
 C119 C 0.57654 0.30413 -0.10535
 H120 H 0.54099 0.33252 -0.15964
 H121 H 0.58213 0.28928 -0.08788
 Cu122 Cu 0.59457 0.37714 -0.15069
 Cu123 Cu 0.62639 0.34296 -0.09382
 Cu124 Cu 0.65612 0.40513 -0.12381
 N125 N 0.61247 0.41129 -0.16797
 N126 N 0.63650 0.42205 -0.15743
 C127 C 0.64419 0.44528 -0.17350
 C128 C 0.62391 0.44943 -0.19544
 C129 C 0.60408 0.42733 -0.19116
 H130 H 0.66327 0.45805 -0.16948
 H131 H 0.58500 0.42312 -0.20398
 N132 N 0.67284 0.38493 -0.08974
 N133 N 0.66150 0.36128 -0.07828
 C134 C 0.67754 0.35292 -0.05514
 C135 C 0.70015 0.37223 -0.05185
 C136 C 0.69641 0.39222 -0.07424
 H137 H 0.67313 0.33410 -0.04175
 H138 H 0.70963 0.41099 -0.07868
 H139 H 0.62032 0.38613 -0.10495
 H140 H 0.64154 0.36327 -0.13116
 C141 C -0.03548 0.28652 0.12530
 C142 C -0.06314 0.28020 0.11485
 C143 C -0.08465 0.30156 0.11465
 C144 C -0.07924 0.32987 0.12539
 C145 C -0.05130 0.33585 0.13610
 C146 C -0.02973 0.31455 0.13581
 C147 C -0.01263 0.26394 0.12518
 C148 C 0.01494 0.27027 0.11433
 C149 C 0.03644 0.24890 0.11398
 C150 C 0.03091 0.22089 0.12488
 C151 C 0.00337 0.21464 0.13594
 C152 C -0.01825 0.23590 0.13589
 H153 H -0.10582 0.29526 0.10712
 H154 H -0.04545 0.35733 0.14366
 H155 H 0.05750 0.25443 0.10551
 H156 H -0.00162 0.19322 0.14429
 H157 H -0.00852 0.31995 0.14402
 H158 H 0.01974 0.29168 0.10577
 H159 H -0.06810 0.25869 0.10660
 H160 H -0.03930 0.23056 0.14454
 C161 C 0.53533 0.71344 0.62434
 C162 C 0.54402 0.69976 0.59822
 C163 C 0.56543 0.67829 0.59855
 C164 C 0.57858 0.66998 0.62501
 C165 C 0.56989 0.68364 0.65113
 C166 C 0.54852 0.70515 0.65080
 C167 C 0.51262 0.73631 0.62399
 C168 C 0.51530 0.76136 0.64140
 C169 C 0.49395 0.78289 0.64106
 C170 C 0.46938 0.77990 0.62329
 C171 C 0.46674 0.75480 0.60588
 C172 C 0.48810 0.73328 0.60622
 H173 H 0.57152 0.66797 0.57812
 H174 H 0.57985 0.67793 0.67181
 H175 H 0.49699 0.80199 0.65454
 H176 H 0.44806 0.75149 0.59214
 H177 H 0.54209 0.71507 0.67132
 H178 H 0.53415 0.76454 0.65500
 H179 H 0.53450 0.70589 0.57745
 H180 H 0.48521 0.71403 0.59288
 C181 C 1.03538 0.78600 0.37549
 C182 C 1.04346 0.79940 0.34916
 C183 C 1.06475 0.82079 0.34880
 C184 C 1.07880 0.82951 0.37485
 C185 C 1.07045 0.81578 0.40124
 C186 C 1.04911 0.79444 0.40151
 C187 C 1.01272 0.76328 0.37582
 C188 C 0.99210 0.76255 0.39834
 C189 C 0.97078 0.74118 0.39864
 C190 C 0.96954 0.71998 0.37644
 C191 C 0.99023 0.72077 0.35391
 C192 C 1.01153 0.74215 0.35362
 H193 H 1.07076 0.82947 0.32767
 H194 H 1.07942 0.82210 0.42215
 H195 H 0.95536 0.74141 0.41639
 H196 H 0.99010 0.70495 0.33639
 H197 H 1.04345 0.78441 0.42217
 H198 H 0.99221 0.77875 0.41557
 H199 H 1.03318 0.79346 0.32873
 H200 H 1.02734 0.74190 0.33616
 C201 C 0.46461 0.21382 -0.12544
 C202 C 0.43565 0.22138 -0.12046
 C203 C 0.41429 0.20007 -0.12042
 C204 C 0.42140 0.17076 -0.12554
 C205 C 0.45033 0.16321 -0.13067
 C206 C 0.47172 0.18451 -0.13052
 C207 C 0.48732 0.23643 -0.12522
 C208 C 0.51374 0.23131 -0.11109
 C209 C 0.53504 0.25269 -0.11065
 C210 C 0.53047 0.27963 -0.12450
 C211 C 0.50407 0.28468 -0.13877
 C212 C 0.48271 0.26335 -0.13904
 H213 H 0.39213 0.20654 -0.11667
 H214 H 0.45646 0.14076 -0.13443
 H215 H 0.55516 0.24795 -0.09963
 H216 H 0.49971 0.30521 -0.14949
 H217 H 0.49382 0.17808 -0.13469
 H218 H 0.51780 0.21086 -0.10002
 H219 H 0.42957 0.24376 -0.11622
 H220 H 0.46266 0.26781 -0.15034
 C221 C 0.12238 -0.03966 0.28476
 C222 C 0.09652 -0.04798 0.29835
 C223 C 0.09650 -0.06931 0.32017
 C224 C 0.12233 -0.08281 0.32888
 C225 C 0.14819 -0.07450 0.31531
 C226 C 0.14822 -0.05318 0.29349
 C227 C 0.12245 -0.01691 0.26164
 C228 C 0.14009 -0.01983 0.23678
 C229 C 0.14035 0.00169 0.21516
 C230 C 0.12295 0.02666 0.21787
 C231 C 0.10520 0.02950 0.24268
 C232 C 0.10496 0.00798 0.26431
 H233 H 0.07627 -0.07500 0.33045
 H234 H 0.16840 -0.08470 0.32137
 H235 H 0.15404 -0.00147 0.19624
 H236 H 0.09173 0.04852 0.24574
 H237 H 0.16854 -0.04702 0.28369
 H238 H 0.15346 -0.03897 0.23384
 H239 H 0.07623 -0.03820 0.29191
 H240 H 0.09145 0.01109 0.28341
 C241 C 0.62321 0.53845 -0.28560
 C242 C 0.64898 0.54695 -0.29907
 C243 C 0.64899 0.56831 -0.32085
 C244 C 0.62313 0.58201 -0.32986
 C245 C 0.59730 0.57325 -0.31604
 C246 C 0.59739 0.55180 -0.29435
 C247 C 0.62329 0.51573 -0.26246
 C248 C 0.60179 0.49434 -0.26174
 C249 C 0.60196 0.47289 -0.24005
 C250 C 0.62363 0.47231 -0.21848
 C251 C 0.64509 0.49382 -0.21923
 C252 C 0.64492 0.51524 -0.24095
 H253 H 0.66966 0.57467 -0.32959
 H254 H 0.57661 0.58194 -0.32257
 H255 H 0.58511 0.45674 -0.24042
 H256 H 0.66207 0.49435 -0.20303
 H257 H 0.57716 0.54578 -0.28427
 H258 H 0.58504 0.49393 -0.27825
 H259 H 0.66926 0.53695 -0.29288
 H260 H 0.66156 0.53167 -0.24068
 C261 C 0.37637 1.03863 0.78586
 C262 C 0.35058 1.05195 0.79502
 C263 C 0.35081 1.07338 0.81675
 C264 C 0.37683 1.08200 0.82982
 C265 C 0.40262 1.06869 0.82066
 C266 C 0.40240 1.04724 0.79895
 C267 C 0.37612 1.01586 0.76275
 C268 C 0.39382 0.99110 0.76513
 C269 C 0.39353 0.96965 0.74341
 C270 C 0.37551 0.97243 0.71878
 C271 C 0.35783 0.99724 0.71642
 C272 C 0.35814 1.01868 0.73814
 H273 H 0.33061 1.08344 0.82309
 H274 H 0.42298 1.07467 0.83051
 H275 H 0.40722 0.95076 0.74620
 H276 H 0.34392 1.00037 0.69767
 H277 H 0.42266 1.03762 0.79215
 H278 H 0.40760 0.98807 0.78404
 H279 H 0.33015 1.04558 0.78560
 H280 H 0.34458 1.03772 0.73543
 C281 C 0.87680 0.46214 0.21335
 C282 C 0.85103 0.44870 0.20469
 C283 C 0.85116 0.42721 0.18302
 C284 C 0.87705 0.41868 0.16949
 C285 C 0.90282 0.43216 0.17809
 C286 C 0.90270 0.45366 0.19977
 C287 C 0.87665 0.48485 0.23653
 C288 C 0.89401 0.50968 0.23396
 C289 C 0.89377 0.53107 0.25575
 C290 C 0.87614 0.52814 0.28063
 C291 C 0.85882 0.50326 0.28320
 C292 C 0.85909 0.48188 0.26143
 H293 H 0.83099 0.41701 0.17712
 H294 H 0.92308 0.42624 0.16788
 H295 H 0.90717 0.55003 0.25282
 H296 H 0.84524 0.50003 0.30216
 H297 H 0.92295 0.46339 0.20616
 H298 H 0.90747 0.51282 0.21485
 H299 H 0.83069 0.45497 0.21449
 H300 H 0.84583 0.46278 0.26430
 C301 C 0.29021 0.12767 -0.03639
 C302 C 0.30299 0.10138 -0.04542
 C303 C 0.32418 0.10115 -0.06717
 C304 C 0.33309 0.12721 -0.08039
 C305 C 0.32034 0.15351 -0.07135
 C306 C 0.29913 0.15373 -0.04960
 C307 C 0.26760 0.12788 -0.01334
 C308 C 0.24333 0.14608 -0.01592
 C309 C 0.22195 0.14611 0.00564
 C310 C 0.22429 0.12791 0.03030
 C311 C 0.24865 0.10980 0.03291
 C312 C 0.27003 0.10979 0.01135
 H313 H 0.33382 0.08057 -0.07343
 H314 H 0.32655 0.17391 -0.08132
 H315 H 0.20341 0.16013 0.00266
 H316 H 0.25143 0.09575 0.05171
 H317 H 0.28991 0.17437 -0.04292
 H318 H 0.24062 0.15996 -0.03489
 H319 H 0.29637 0.08090 -0.03589
 H320 H 0.28869 0.09585 0.01420
 C321 C 0.71107 0.62613 0.53798
 C322 C 0.70227 0.65221 0.55145
 C323 C 0.68077 0.65214 0.57289
 C324 C 0.66763 0.62599 0.58140
 C325 C 0.67641 0.59992 0.56794
 C326 C 0.69788 0.59999 0.54647
 C327 C 0.73392 0.62617 0.51519
 C328 C 0.73147 0.60852 0.49018
 C329 C 0.75303 0.60842 0.46880
 C330 C 0.77757 0.62598 0.47189
 C331 C 0.77995 0.64370 0.49690
 C332 C 0.75839 0.64379 0.51828
 H333 H 0.67463 0.67254 0.58306
 H334 H 0.66646 0.57948 0.57380
 H335 H 0.75019 0.59475 0.44973
 H336 H 0.79862 0.65728 0.50027
 H337 H 0.70438 0.57951 0.53674
 H338 H 0.71267 0.59504 0.48692
 H339 H 0.71180 0.67274 0.54516
 H340 H 0.76110 0.65732 0.53751
 C341 C 0.78901 0.37200 0.03751
 C342 C 0.80205 0.39822 0.04599
 C343 C 0.82337 0.39846 0.06759
 C344 C 0.83215 0.37249 0.08123
 C345 C 0.81910 0.34626 0.07278
 C346 C 0.79775 0.34602 0.05118
 C347 C 0.76638 0.37179 0.01449
 C348 C 0.74192 0.35413 0.01740
 C349 C 0.72051 0.35417 -0.00414
 C350 C 0.72303 0.37189 -0.02912
 C351 C 0.74760 0.38943 -0.03206
 C352 C 0.76900 0.38937 -0.01053
 H353 H 0.83324 0.41897 0.07339
 H354 H 0.82524 0.32594 0.08307
 H355 H 0.70181 0.34058 -0.00091
 H356 H 0.75055 0.40308 -0.05111
 H357 H 0.78832 0.32543 0.04492
 H358 H 0.73907 0.34063 0.03662
 H359 H 0.79557 0.41863 0.03611
 H360 H 0.78782 0.40286 -0.01366
 C361 C 0.21027 0.87392 0.46201
 C362 C 0.19672 0.89994 0.45338
 C363 C 0.17516 0.89977 0.43200
 C364 C 0.16663 0.87357 0.41879
 C365 C 0.18015 0.84753 0.42742
 C366 C 0.20173 0.84771 0.44878
 C367 C 0.23325 0.87412 0.48466
 C368 C 0.25790 0.85654 0.48154
 C369 C 0.27955 0.85676 0.50282
 C370 C 0.27708 0.87459 0.52777
 C371 C 0.25239 0.89215 0.53087
 C372 C 0.23074 0.89192 0.50958
 H373 H 0.16496 0.92014 0.42597
 H374 H 0.17427 0.82704 0.41741
 H375 H 0.29834 0.84318 0.49944
 H376 H 0.24950 0.90591 0.54988
 H377 H 0.21155 0.82726 0.45516
 H378 H 0.26067 0.84291 0.46238
 H379 H 0.20302 0.92052 0.46292
 H380 H 0.21181 0.90538 0.51284
   
