data_POSCAR
  _audit_creation_date              2014-09-24
  _audit_creation_method            'ToBaCCo'
  _symmetry_space_group_name_H-M    'P1'
  _symmetry_Int_Tables_number       1
  _symmetry_cell_setting            triclinic
  loop_
  _symmetry_equiv_pos_as_xyz
 x,y,z
_cell_length_a 65.4504
_cell_length_b 65.4442
_cell_length_c 48.8893
_cell_angle_alpha 89.975900
_cell_angle_beta 89.959900
_cell_angle_gamma 89.690100
loop_
  _atom_site_label
  _atom_site_type_symbol
  _atom_site_fract_x
  _atom_site_fract_y
  _atom_site_fract_z
O1 O 0.02141 0.28981 -0.02900
 O2 O -0.01888 0.29046 0.02388
 O3 O 0.02108 0.29012 0.02430
 O4 O -0.01855 0.29019 -0.02937
 O5 O -0.01858 0.25649 -0.02892
 O6 O 0.02082 0.25643 0.02455
 O7 O -0.01890 0.25680 0.02413
 O8 O 0.02114 0.25611 -0.02853
 Cu9 Cu 0.00129 0.29354 -0.00258
 Cu10 Cu 0.00112 0.25310 -0.00216
 C11 C 0.02822 0.27279 -0.03773
 C12 C -0.02590 0.27370 0.03298
 C13 C 0.02779 0.27321 0.03352
 C14 C -0.02543 0.27331 -0.03821
 O15 O 0.48150 0.78943 0.52947
 O16 O 0.52132 0.79050 0.47598
 O17 O 0.48134 0.79031 0.47619
 O18 O 0.52144 0.78960 0.52923
 O19 O 0.52164 0.75591 0.52813
 O20 O 0.48179 0.75662 0.47528
 O21 O 0.52152 0.75681 0.47509
 O22 O 0.48194 0.75574 0.52835
 Cu23 Cu 0.50136 0.79335 0.50280
 Cu24 Cu 0.50175 0.75291 0.50160
 C25 C 0.47486 0.77235 0.53799
 C26 C 0.52831 0.77378 0.46650
 C27 C 0.47463 0.77353 0.46676
 C28 C 0.52846 0.77258 0.53767
 O29 O 0.98172 0.71012 -0.02518
 O30 O 1.02193 0.71051 0.02768
 O31 O 0.98193 0.71062 0.02803
 O32 O 1.02174 0.71017 -0.02552
 O33 O 1.02140 0.74383 -0.02598
 O34 O 0.98193 0.74432 0.02744
 O35 O 1.02168 0.74420 0.02704
 O36 O 0.98163 0.74378 -0.02559
 Cu37 Cu 1.00185 0.70697 0.00129
 Cu38 Cu 1.00165 0.74738 0.00067
 C39 C 0.97462 0.72692 -0.03429
 C40 C 1.02879 0.72747 0.03626
 C41 C 0.97503 0.72761 0.03675
 C42 C 1.02854 0.72698 -0.03479
 O43 O 0.52204 0.20798 0.52322
 O44 O 0.48175 0.20785 0.47042
 O45 O 0.52177 0.20831 0.47003
 O46 O 0.48203 0.20748 0.52360
 O47 O 0.48155 0.24118 0.52389
 O48 O 0.52105 0.24200 0.47049
 O49 O 0.48129 0.24154 0.47087
 O50 O 0.52130 0.24168 0.52350
 Cu51 Cu 0.50196 0.20451 0.49678
 Cu52 Cu 0.50124 0.24496 0.49722
 C53 C 0.52867 0.22491 0.53223
 C54 C 0.47451 0.22472 0.46179
 C55 C 0.52832 0.22534 0.46126
 C56 C 0.47487 0.22424 0.53274
 O57 O 0.70810 0.02244 -0.02896
 O58 O 0.70836 -0.01722 0.02478
 O59 O 0.70829 0.02279 0.02424
 O60 O 0.70809 -0.01759 -0.02842
 O61 O 0.74179 -0.01765 -0.02862
 O62 O 0.74198 0.02250 0.02385
 O63 O 0.74202 -0.01725 0.02439
 O64 O 0.74180 0.02211 -0.02916
 Cu65 Cu 0.70482 0.00262 -0.00207
 Cu66 Cu 0.74525 0.00241 -0.00242
 C67 C 0.72497 0.02917 -0.03808
 C68 C 0.72528 -0.02417 0.03367
 C69 C 0.72522 0.02966 0.03289
 C70 C 0.72495 -0.02466 -0.03735
 O71 O 0.20928 0.52172 0.47493
 O72 O 0.20942 0.48124 0.52749
 O73 O 0.20992 0.52123 0.52815
 O74 O 0.20890 0.48169 0.47433
 O75 O 0.24259 0.48128 0.47371
 O76 O 0.24361 0.52053 0.52736
 O77 O 0.24311 0.48078 0.52671
 O78 O 0.24297 0.52106 0.47433
 Cu79 Cu 0.20599 0.50154 0.50128
 Cu80 Cu 0.24643 0.50087 0.50045
 C81 C 0.22615 0.52842 0.46579
 C82 C 0.22633 0.47397 0.53592
 C83 C 0.22700 0.52773 0.53683
 C84 C 0.22562 0.47459 0.46500
 O85 O 0.28934 1.02210 0.02709
 O86 O 0.29010 0.98147 -0.02527
 O87 O 0.28961 1.02146 -0.02619
 O88 O 0.28984 0.98215 0.02798
 O89 O 0.25615 0.98205 0.02763
 O90 O 0.25596 1.02109 -0.02636
 O91 O 0.25641 0.98135 -0.02543
 O92 O 0.25569 1.02176 0.02671
 Cu93 Cu 0.29311 1.00183 0.00092
 Cu94 Cu 0.25270 1.00155 0.00060
 C95 C 0.27233 1.02898 0.03582
 C96 C 0.27334 0.97437 -0.03417
 C97 C 0.27269 1.02812 -0.03549
 C98 C 0.27298 0.97530 0.03697
 O99 O 0.79005 0.52249 0.52412
 O100 O 0.78993 0.48295 0.47034
 O101 O 0.78964 0.52290 0.47081
 O102 O 0.79025 0.48254 0.52359
 O103 O 0.75655 0.48264 0.52393
 O104 O 0.75594 0.52274 0.47136
 O105 O 0.75623 0.48302 0.47087
 O106 O 0.75636 0.52235 0.52445
 Cu107 Cu 0.79336 0.50274 0.49717
 Cu108 Cu 0.75291 0.50270 0.49770
 C109 C 0.77318 0.52923 0.53342
 C110 C 0.77302 0.47614 0.46152
 C111 C 0.77263 0.52977 0.46213
 C112 C 0.77345 0.47561 0.53268
 C113 C 0.23777 0.21289 0.21563
 C114 C 0.21941 0.22102 0.20572
 C115 C 0.21135 0.23935 0.21578
 C116 C 0.22175 0.24990 0.23679
 C117 C 0.24037 0.24183 0.24719
 C118 C 0.24839 0.22323 0.23663
 C119 C 0.26646 0.21517 0.24790
 C120 C 0.27668 0.22531 0.26879
 C121 C 0.26924 0.24393 0.27923
 C122 C 0.25080 0.25219 0.26851
 C123 C 0.21375 0.26796 0.24820
 C124 C 0.22396 0.27809 0.26910
 C125 C 0.24259 0.27059 0.27940
 C126 C 0.25296 0.28067 0.30087
 C127 C 0.27104 0.27227 0.31126
 C128 C 0.27940 0.25422 0.30068
 H129 H 0.27276 0.20076 0.24097
 H130 H 0.29035 0.21821 0.27693
 H131 H 0.19933 0.27429 0.24137
 H132 H 0.21690 0.29175 0.27736
 H133 H 0.21143 0.21309 0.18946
 H134 H 0.27899 0.28015 0.32759
 C135 C 0.73929 0.71624 0.28445
 C136 C 0.72104 0.72438 0.29468
 C137 C 0.71358 0.74336 0.28600
 C138 C 0.72452 0.75459 0.26613
 C139 C 0.74291 0.74639 0.25516
 C140 C 0.75031 0.72713 0.26429
 C141 C 0.76821 0.71904 0.25253
 C142 C 0.77891 0.72983 0.23267
 C143 C 0.77215 0.74914 0.22377
 C144 C 0.75382 0.75739 0.23484
 C145 C 0.71740 0.77360 0.25659
 C146 C 0.72817 0.78444 0.23685
 C147 C 0.74629 0.77653 0.22546
 C148 C 0.75718 0.78731 0.20509
 C149 C 0.77532 0.77906 0.19461
 C150 C 0.78294 0.76022 0.20359
 H151 H 0.77400 0.70414 0.25832
 H152 H 0.79247 0.72274 0.22417
 H153 H 0.70334 0.78026 0.26419
 H154 H 0.72211 0.79912 0.23059
 H155 H 0.71271 0.71601 0.31023
 H156 H 0.78360 0.78741 0.17900
 C157 C 0.71698 0.26072 0.28893
 C158 C 0.72512 0.27883 0.29932
 C159 C 0.74323 0.28704 0.28902
 C160 C 0.75363 0.27696 0.26749
 C161 C 0.74561 0.25852 0.25677
 C162 C 0.72724 0.25033 0.26754
 C163 C 0.71951 0.23214 0.25645
 C164 C 0.72975 0.22197 0.23551
 C165 C 0.74792 0.22981 0.22444
 C166 C 0.75599 0.24822 0.23522
 C167 C 0.77193 0.28468 0.25663
 C168 C 0.78201 0.27468 0.23539
 C169 C 0.77441 0.25635 0.22452
 C170 C 0.78458 0.24602 0.20301
 C171 C 0.77648 0.22787 0.19271
 C172 C 0.75841 0.21962 0.20308
 H173 H 0.70542 0.22555 0.26384
 H174 H 0.72325 0.20786 0.22810
 H175 H 0.77866 0.29855 0.26446
 H176 H 0.79586 0.28150 0.22758
 H177 H 0.71720 0.28668 0.31579
 H178 H 0.78441 0.21998 0.17628
 C179 C 0.28457 0.74499 0.29577
 C180 C 0.27643 0.72681 0.30595
 C181 C 0.25837 0.71862 0.29549
 C182 C 0.24793 0.72892 0.27419
 C183 C 0.25604 0.74736 0.26353
 C184 C 0.27445 0.75542 0.27431
 C185 C 0.28210 0.77378 0.26356
 C186 C 0.27209 0.78387 0.24235
 C187 C 0.25381 0.77622 0.23142
 C188 C 0.24573 0.75776 0.24203
 C189 C 0.22977 0.72116 0.26305
 C190 C 0.21957 0.73143 0.24216
 C191 C 0.22735 0.74966 0.23119
 C192 C 0.21715 0.76016 0.20985
 C193 C 0.22537 0.77827 0.19955
 C194 C 0.24348 0.78640 0.20991
 H195 H 0.29594 0.78055 0.27144
 H196 H 0.27886 0.79777 0.23462
 H197 H 0.22322 0.70703 0.27037
 H198 H 0.20549 0.72490 0.23470
 H199 H 0.28432 0.71885 0.32234
 H200 H 0.21750 0.78620 0.18311
 C201 C 0.78529 0.24395 0.78945
 C202 C 0.77702 0.22588 0.79980
 C203 C 0.75895 0.21772 0.78934
 C204 C 0.74865 0.22791 0.76783
 C205 C 0.75688 0.24625 0.75701
 C206 C 0.77529 0.25429 0.76781
 C207 C 0.78305 0.27255 0.75691
 C208 C 0.77314 0.28258 0.73556
 C209 C 0.75485 0.27495 0.72461
 C210 C 0.74668 0.25656 0.73534
 C211 C 0.73050 0.22015 0.75666
 C212 C 0.72042 0.23033 0.73558
 C213 C 0.72832 0.24846 0.72446
 C214 C 0.71822 0.25887 0.70297
 C215 C 0.72651 0.27692 0.69257
 C216 C 0.74461 0.28507 0.70298
 H217 H 0.79690 0.27931 0.76479
 H218 H 0.77999 0.29640 0.72772
 H219 H 0.72387 0.20610 0.76409
 H220 H 0.70634 0.22380 0.72811
 H221 H 0.78481 0.21800 0.81635
 H222 H 0.71869 0.28480 0.67604
 C223 C 0.28964 0.73851 0.71730
 C224 C 0.28155 0.72035 0.70697
 C225 C 0.26260 0.71300 0.71562
 C226 C 0.25135 0.72396 0.73557
 C227 C 0.25949 0.74224 0.74664
 C228 C 0.27873 0.74952 0.73755
 C229 C 0.28676 0.76731 0.74942
 C230 C 0.27594 0.77802 0.76935
 C231 C 0.25665 0.77137 0.77822
 C232 C 0.24845 0.75316 0.76702
 C233 C 0.23236 0.71695 0.74507
 C234 C 0.22147 0.72775 0.76484
 C235 C 0.22931 0.74576 0.77631
 C236 C 0.21847 0.75669 0.79668
 C237 C 0.22668 0.77470 0.80731
 C238 C 0.24553 0.78217 0.79845
 H239 H 0.30164 0.77301 0.74366
 H240 H 0.28298 0.79149 0.77794
 H241 H 0.22574 0.70296 0.73742
 H242 H 0.20680 0.72177 0.77105
 H243 H 0.28994 0.71203 0.69135
 H244 H 0.21827 0.78300 0.82292
 C245 C 0.23938 0.21057 0.78217
 C246 C 0.22107 0.21873 0.79216
 C247 C 0.21306 0.23712 0.78218
 C248 C 0.22350 0.24769 0.76119
 C249 C 0.24208 0.23957 0.75071
 C250 C 0.25003 0.22091 0.76116
 C251 C 0.26806 0.21280 0.74980
 C252 C 0.27830 0.22296 0.72891
 C253 C 0.27093 0.24163 0.71856
 C254 C 0.25255 0.24995 0.72939
 C255 C 0.21557 0.26581 0.74987
 C256 C 0.22582 0.27597 0.72901
 C257 C 0.24442 0.26843 0.71863
 C258 C 0.25482 0.27853 0.69720
 C259 C 0.27284 0.27008 0.68667
 C260 C 0.28110 0.25193 0.69710
 H261 H 0.27431 0.19835 0.75667
 H262 H 0.29193 0.21583 0.72070
 H263 H 0.20118 0.27218 0.75676
 H264 H 0.21882 0.28968 0.72084
 H265 H 0.21306 0.21080 0.80842
 H266 H 0.28080 0.27797 0.67035
 C267 C 0.73989 0.71161 0.71784
 C268 C 0.72149 0.71958 0.70788
 C269 C 0.71331 0.73790 0.71784
 C270 C 0.72365 0.74858 0.73878
 C271 C 0.74231 0.74065 0.74923
 C272 C 0.75045 0.72207 0.73880
 C273 C 0.76857 0.71416 0.75012
 C274 C 0.77871 0.72443 0.77096
 C275 C 0.77115 0.74303 0.78129
 C276 C 0.75268 0.75115 0.77049
 C277 C 0.71553 0.76662 0.75008
 C278 C 0.72569 0.77691 0.77088
 C279 C 0.74437 0.76956 0.78122
 C280 C 0.75469 0.77980 0.80258
 C281 C 0.77279 0.77153 0.81309
 C282 C 0.78122 0.75345 0.80271
 H283 H 0.77496 0.69977 0.74325
 H284 H 0.79242 0.71745 0.77915
 H285 H 0.70107 0.77284 0.74323
 H286 H 0.71855 0.79055 0.77905
 H287 H 0.71356 0.71157 0.69166
 H288 H 0.78068 0.77953 0.82937
 C289 C 0.25238 0.06856 0.08371
 C290 C 0.27051 0.07719 0.09329
 C291 C 0.28933 0.06953 0.08425
 C292 C 0.29003 0.05340 0.06545
 C293 C 0.27183 0.04474 0.05536
 C294 C 0.25299 0.05249 0.06495
 C295 C 0.26954 0.09427 0.11181
 C296 C 0.26792 0.10874 0.12692
 C297 C 0.26508 0.12583 0.14413
 C298 C 0.26185 0.14053 0.15837
 C299 C 0.25700 0.15817 0.17476
 C300 C 0.26904 0.17577 0.17320
 C301 C 0.26318 0.19347 0.18729
 C302 C 0.24526 0.19366 0.20310
 C303 C 0.23345 0.17587 0.20495
 C304 C 0.23932 0.15821 0.19090
 H305 H 0.23772 0.07439 0.09056
 H306 H 0.30347 0.07614 0.09152
 H307 H 0.30482 0.04791 0.05867
 H308 H 0.23863 0.04630 0.05782
 H309 H 0.28264 0.17597 0.16056
 H310 H 0.27229 0.20716 0.18530
 H311 H 0.21947 0.17584 0.21683
 H312 H 0.22980 0.14474 0.19208
 C313 C 0.75395 0.56830 0.58460
 C314 C 0.77220 0.57711 0.59349
 C315 C 0.79089 0.56995 0.58324
 C316 C 0.79130 0.55416 0.56393
 C317 C 0.77298 0.54540 0.55462
 C318 C 0.75432 0.55256 0.56532
 C319 C 0.77146 0.59391 0.61245
 C320 C 0.77001 0.60818 0.62793
 C321 C 0.76732 0.62506 0.64554
 C322 C 0.76418 0.63961 0.66008
 C323 C 0.75938 0.65710 0.67676
 C324 C 0.77133 0.67476 0.67526
 C325 C 0.76542 0.69238 0.68948
 C326 C 0.74753 0.69243 0.70536
 C327 C 0.73584 0.67456 0.70720
 C328 C 0.74177 0.65698 0.69302
 H329 H 0.73940 0.57375 0.59235
 H330 H 0.80511 0.57671 0.58995
 H331 H 0.80591 0.54900 0.55608
 H332 H 0.73994 0.54615 0.55862
 H333 H 0.78488 0.67508 0.66252
 H334 H 0.77443 0.70614 0.68750
 H335 H 0.72188 0.67442 0.71913
 H336 H 0.73231 0.64346 0.69415
 C337 C 0.70785 0.93535 0.08198
 C338 C 0.72660 0.92745 0.09093
 C339 C 0.74481 0.93609 0.08162
 C340 C 0.74436 0.95231 0.06308
 C341 C 0.72561 0.96020 0.05342
 C342 C 0.70732 0.95164 0.06342
 C343 C 0.72740 0.90996 0.10876
 C344 C 0.72888 0.89506 0.12315
 C345 C 0.73153 0.87739 0.13936
 C346 C 0.73456 0.86215 0.15264
 C347 C 0.73909 0.84382 0.16780
 C348 C 0.75665 0.84289 0.18409
 C349 C 0.76218 0.82461 0.19694
 C350 C 0.75013 0.80710 0.19372
 C351 C 0.73235 0.80816 0.17771
 C352 C 0.72683 0.82648 0.16484
 H353 H 0.69365 0.92873 0.08904
 H354 H 0.75941 0.93007 0.08839
 H355 H 0.75879 0.95843 0.05605
 H356 H 0.69258 0.95725 0.05659
 H357 H 0.76634 0.85616 0.18633
 H358 H 0.77606 0.82397 0.20898
 H359 H 0.72307 0.79470 0.17467
 H360 H 0.71332 0.82697 0.15206
 C361 C 0.24564 0.43246 0.58348
 C362 C 0.22739 0.42326 0.59169
 C363 C 0.20868 0.43119 0.58260
 C364 C 0.20825 0.44804 0.56495
 C365 C 0.22657 0.45709 0.55611
 C366 C 0.24526 0.44925 0.56584
 C367 C 0.22809 0.40507 0.60822
 C368 C 0.22929 0.38953 0.62138
 C369 C 0.23142 0.37103 0.63597
 C370 C 0.23384 0.35500 0.64772
 C371 C 0.23746 0.33564 0.66087
 C372 C 0.23732 0.31769 0.64530
 C373 C 0.24241 0.29900 0.65738
 C374 C 0.24760 0.29806 0.68520
 C375 C 0.24745 0.31605 0.70086
 C376 C 0.24236 0.33477 0.68874
 H377 H 0.26021 0.42641 0.59032
 H378 H 0.19446 0.42414 0.58875
 H379 H 0.19362 0.45369 0.55781
 H380 H 0.25963 0.45586 0.55947
 H381 H 0.23371 0.31821 0.62368
 H382 H 0.24265 0.28530 0.64496
 H383 H 0.25172 0.31562 0.72225
 H384 H 0.24270 0.34859 0.70092
 C385 C 0.93345 0.29210 0.08067
 C386 C 0.92550 0.27354 0.08995
 C387 C 0.93411 0.25513 0.08100
 C388 C 0.95038 0.25519 0.06252
 C389 C 0.95834 0.27375 0.05256
 C390 C 0.94979 0.29224 0.06217
 C391 C 0.90790 0.27317 0.10762
 C392 C 0.89286 0.27215 0.12179
 C393 C 0.87492 0.27015 0.13757
 C394 C 0.85932 0.26777 0.15028
 C395 C 0.84041 0.26413 0.16445
 C396 C 0.84043 0.25849 0.19211
 C397 C 0.82212 0.25321 0.20506
 C398 C 0.80367 0.25358 0.19042
 C399 C 0.80371 0.25956 0.16285
 C400 C 0.82198 0.26485 0.14996
 H401 H 0.92684 0.30646 0.08741
 H402 H 0.92803 0.24067 0.08801
 H403 H 0.95650 0.24062 0.05579
 H404 H 0.95545 0.30684 0.05510
 H405 H 0.85463 0.25770 0.20345
 H406 H 0.82237 0.24835 0.22623
 H407 H 0.78963 0.25971 0.15121
 H408 H 0.82180 0.26902 0.12851
 C409 C 0.43563 0.75199 0.58790
 C410 C 0.42657 0.77003 0.59745
 C411 C 0.43364 0.78894 0.58809
 C412 C 0.44957 0.78978 0.56901
 C413 C 0.45858 0.77168 0.55902
 C414 C 0.45151 0.75278 0.56885
 C415 C 0.40957 0.76890 0.61608
 C416 C 0.39512 0.76722 0.63120
 C417 C 0.37799 0.76441 0.64830
 C418 C 0.36317 0.76130 0.66234
 C419 C 0.34530 0.75674 0.67833
 C420 C 0.32794 0.76929 0.67666
 C421 C 0.30996 0.76375 0.69019
 C422 C 0.30923 0.74564 0.70559
 C423 C 0.32679 0.73331 0.70758
 C424 C 0.34475 0.73887 0.69407
 H425 H 0.43025 0.73727 0.59496
 H426 H 0.42669 0.80301 0.59529
 H427 H 0.45465 0.80457 0.56184
 H428 H 0.45810 0.73856 0.56162
 H429 H 0.32813 0.78305 0.66433
 H430 H 0.29645 0.77324 0.68805
 H431 H 0.32643 0.71918 0.71911
 H432 H 0.35803 0.72896 0.69531
 C433 C 0.07112 0.71015 0.08414
 C434 C 0.07852 0.72892 0.09347
 C435 C 0.06924 0.74710 0.08482
 C436 C 0.05283 0.74659 0.06659
 C437 C 0.04546 0.72784 0.05672
 C438 C 0.05466 0.70959 0.06589
 C439 C 0.09609 0.72978 0.11112
 C440 C 0.11098 0.73127 0.12546
 C441 C 0.12857 0.73393 0.14173
 C442 C 0.14367 0.73700 0.15519
 C443 C 0.16172 0.74166 0.17072
 C444 C 0.16200 0.75910 0.18730
 C445 C 0.17995 0.76475 0.20068
 C446 C 0.19778 0.75296 0.19771
 C447 C 0.19739 0.73531 0.18140
 C448 C 0.17941 0.72967 0.16798
 H449 H 0.07823 0.69598 0.09067
 H450 H 0.07487 0.76172 0.09187
 H451 H 0.04610 0.76091 0.05997
 H452 H 0.04936 0.69491 0.05865
 H453 H 0.14846 0.76858 0.18939
 H454 H 0.18007 0.77851 0.21297
 H455 H 0.21112 0.72622 0.17860
 H456 H 0.17941 0.71625 0.15500
 C457 C 0.57174 0.20764 0.57896
 C458 C 0.57876 0.22640 0.58887
 C459 C 0.56893 0.24452 0.58107
 C460 C 0.55238 0.24397 0.56308
 C461 C 0.54540 0.22524 0.55259
 C462 C 0.55512 0.20704 0.56095
 C463 C 0.59652 0.22737 0.60614
 C464 C 0.61157 0.22901 0.62015
 C465 C 0.62932 0.23189 0.63602
 C466 C 0.64454 0.23517 0.64915
 C467 C 0.66270 0.24008 0.66431
 C468 C 0.66303 0.25767 0.68059
 C469 C 0.68102 0.26346 0.69373
 C470 C 0.69885 0.25166 0.69083
 C471 C 0.69843 0.23388 0.67477
 C472 C 0.68039 0.22809 0.66159
 H473 H 0.57927 0.19353 0.58482
 H474 H 0.57426 0.25912 0.58857
 H475 H 0.54525 0.25825 0.55709
 H476 H 0.55014 0.19240 0.55321
 H477 H 0.64948 0.26713 0.68266
 H478 H 0.68117 0.27732 0.70584
 H479 H 0.71215 0.22477 0.67205
 H480 H 0.68035 0.21455 0.64885
 C481 C 0.70738 0.07170 0.91447
 C482 C 0.72609 0.07875 0.90437
 C483 C 0.74426 0.06907 0.91225
 C484 C 0.74383 0.05268 0.93052
 C485 C 0.72516 0.04570 0.94121
 C486 C 0.70690 0.05524 0.93275
 C487 C 0.72697 0.09641 0.88686
 C488 C 0.72857 0.11138 0.87268
 C489 C 0.73146 0.12906 0.85662
 C490 C 0.73477 0.14421 0.84336
 C491 C 0.73975 0.16231 0.82807
 C492 C 0.75736 0.16253 0.81180
 C493 C 0.76328 0.18048 0.79861
 C494 C 0.75158 0.19839 0.80145
 C495 C 0.73377 0.19807 0.81748
 C496 C 0.72787 0.18008 0.83072
 H497 H 0.69322 0.07912 0.90855
 H498 H 0.75883 0.07442 0.90461
 H499 H 0.75816 0.04568 0.93657
 H500 H 0.69229 0.05025 0.94065
 H501 H 0.76676 0.14893 0.80979
 H502 H 0.77716 0.18054 0.78652
 H503 H 0.72474 0.21185 0.82017
 H504 H 0.71432 0.18013 0.84346
 C505 C 0.24538 0.56896 0.41698
 C506 C 0.22718 0.57866 0.40926
 C507 C 0.20850 0.57147 0.41925
 C508 C 0.20806 0.55483 0.43724
 C509 C 0.22634 0.54523 0.44550
 C510 C 0.24499 0.55237 0.43495
 C511 C 0.22797 0.59644 0.39198
 C512 C 0.22943 0.61152 0.37795
 C513 C 0.23208 0.62931 0.36205
 C514 C 0.23517 0.64456 0.34889
 C515 C 0.23986 0.66280 0.33372
 C516 C 0.22784 0.68044 0.33671
 C517 C 0.23350 0.69857 0.32360
 C518 C 0.25119 0.69914 0.30736
 C519 C 0.26301 0.68135 0.30415
 C520 C 0.25734 0.66326 0.31721
 H521 H 0.25993 0.57442 0.40942
 H522 H 0.19431 0.57891 0.41346
 H523 H 0.19346 0.54971 0.44502
 H524 H 0.25934 0.54534 0.44086
 H525 H 0.21439 0.68030 0.34963
 H526 H 0.22438 0.71225 0.32658
 H527 H 0.27681 0.68160 0.29191
 H528 H 0.26684 0.64975 0.31493
 C529 C 0.29168 0.93181 0.91895
 C530 C 0.27311 0.92420 0.90920
 C531 C 0.25474 0.93346 0.91719
 C532 C 0.25486 0.95002 0.93519
 C533 C 0.27341 0.95758 0.94553
 C534 C 0.29185 0.94843 0.93698
 C535 C 0.27265 0.90632 0.89207
 C536 C 0.27157 0.89106 0.87836
 C537 C 0.26952 0.87290 0.86307
 C538 C 0.26711 0.85715 0.85073
 C539 C 0.26343 0.83809 0.83693
 C540 C 0.26229 0.82002 0.85216
 C541 C 0.25705 0.80169 0.83940
 C542 C 0.25298 0.80124 0.81122
 C543 C 0.25445 0.81933 0.79590
 C544 C 0.25968 0.83769 0.80871
 H545 H 0.30599 0.92471 0.91298
 H546 H 0.24028 0.92766 0.90983
 H547 H 0.24040 0.95671 0.94132
 H548 H 0.30637 0.95387 0.94458
 H549 H 0.26500 0.82017 0.87402
 H550 H 0.25579 0.78791 0.85154
 H551 H 0.25107 0.81928 0.77421
 H552 H 0.26035 0.85162 0.79677
 C553 C 0.79061 0.43468 0.41245
 C554 C 0.77189 0.42738 0.40279
 C555 C 0.75366 0.43648 0.41159
 C556 C 0.75406 0.45259 0.43031
 C557 C 0.77276 0.45983 0.44054
 C558 C 0.79106 0.45084 0.43119
 C559 C 0.77116 0.40991 0.38495
 C560 C 0.76989 0.39496 0.37068
 C561 C 0.76766 0.37711 0.35479
 C562 C 0.76513 0.36159 0.34201
 C563 C 0.76136 0.34274 0.32778
 C564 C 0.76212 0.32425 0.34218
 C565 C 0.75679 0.30603 0.32923
 C566 C 0.75074 0.30610 0.30170
 C567 C 0.75030 0.32461 0.28717
 C568 C 0.75562 0.34287 0.30018
 H569 H 0.80482 0.42768 0.40586
 H570 H 0.73908 0.43090 0.40432
 H571 H 0.73970 0.45916 0.43705
 H572 H 0.80570 0.45605 0.43868
 H573 H 0.76638 0.32399 0.36359
 H574 H 0.75701 0.29190 0.34077
 H575 H 0.74537 0.32494 0.26603
 H576 H 0.75480 0.35712 0.28892
 C577 C 0.06802 0.25273 0.91267
 C578 C 0.07710 0.27082 0.90363
 C579 C 0.06989 0.28967 0.91324
 C580 C 0.05376 0.29041 0.93206
 C581 C 0.04472 0.27226 0.94153
 C582 C 0.05195 0.25342 0.93145
 C583 C 0.09423 0.26975 0.88520
 C584 C 0.10874 0.26803 0.87017
 C585 C 0.12589 0.26507 0.85308
 C586 C 0.14063 0.26171 0.83895
 C587 C 0.15831 0.25672 0.82271
 C588 C 0.17598 0.26865 0.82436
 C589 C 0.19370 0.26266 0.81040
 C590 C 0.19384 0.24472 0.79463
 C591 C 0.17599 0.23303 0.79270
 C592 C 0.15830 0.23903 0.80662
 H593 H 0.07351 0.23806 0.90541
 H594 H 0.07685 0.30377 0.90643
 H595 H 0.04856 0.30514 0.93944
 H596 H 0.04534 0.23917 0.93828
 H597 H 0.17622 0.28226 0.83696
 H598 H 0.20745 0.27167 0.81244
 H599 H 0.17591 0.21905 0.78085
 H600 H 0.14478 0.22960 0.80538
 C601 C 0.56971 0.79231 0.41816
 C602 C 0.57711 0.77378 0.40771
 C603 C 0.56818 0.75539 0.41588
 C604 C 0.55211 0.75545 0.43468
 C605 C 0.54472 0.77394 0.44562
 C606 C 0.55358 0.79241 0.43699
 C607 C 0.59431 0.77333 0.38935
 C608 C 0.60890 0.77211 0.37437
 C609 C 0.62615 0.76968 0.35732
 C610 C 0.64098 0.76676 0.34319
 C611 C 0.65876 0.76225 0.32690
 C612 C 0.65848 0.74562 0.30889
 C613 C 0.67621 0.73991 0.29487
 C614 C 0.69438 0.75084 0.29863
 C615 C 0.69453 0.76773 0.31633
 C616 C 0.67676 0.77343 0.33039
 H617 H 0.57656 0.80663 0.41202
 H618 H 0.57381 0.74096 0.40797
 H619 H 0.54564 0.74097 0.44085
 H620 H 0.54825 0.80690 0.44505
 H621 H 0.64469 0.73675 0.30622
 H622 H 0.67592 0.72671 0.28152
 H623 H 0.70852 0.77612 0.31977
 H624 H 0.67720 0.78619 0.34447
 C625 C 0.93392 0.74564 0.91864
 C626 C 0.92518 0.72725 0.91017
 C627 C 0.93339 0.70867 0.91925
 C628 C 0.95006 0.70848 0.93717
 C629 C 0.95870 0.72694 0.94641
 C630 C 0.95053 0.74552 0.93655
 C631 C 0.90715 0.72767 0.89332
 C632 C 0.89174 0.72866 0.87989
 C633 C 0.87336 0.73054 0.86500
 C634 C 0.85742 0.73278 0.85300
 C635 C 0.83812 0.73622 0.83961
 C636 C 0.82008 0.73602 0.85499
 C637 C 0.80145 0.74103 0.84271
 C638 C 0.80067 0.74620 0.81486
 C639 C 0.81875 0.74608 0.79938
 C640 C 0.83741 0.74107 0.81171
 H641 H 0.92765 0.76011 0.91178
 H642 H 0.92669 0.69434 0.91286
 H643 H 0.95587 0.69385 0.94416
 H644 H 0.95671 0.76007 0.94301
 H645 H 0.82047 0.73245 0.87663
 H646 H 0.78767 0.74126 0.85500
 H647 H 0.81845 0.75034 0.77797
 H648 H 0.85131 0.74146 0.79967
 C649 C 0.43325 0.24391 0.41381
 C650 C 0.42391 0.22567 0.40592
 C651 C 0.43168 0.20698 0.41533
 C652 C 0.44851 0.20657 0.43299
 C653 C 0.45769 0.22489 0.44153
 C654 C 0.45001 0.24355 0.43146
 C655 C 0.40572 0.22639 0.38942
 C656 C 0.39018 0.22767 0.37629
 C657 C 0.37169 0.22993 0.36174
 C658 C 0.35568 0.23250 0.35002
 C659 C 0.33635 0.23632 0.33690
 C660 C 0.31840 0.23628 0.35249
 C661 C 0.29975 0.24156 0.34045
 C662 C 0.29887 0.24685 0.31265
 C663 C 0.31686 0.24661 0.29698
 C664 C 0.33553 0.24133 0.30906
 H665 H 0.42732 0.25847 0.40672
 H666 H 0.42452 0.19276 0.40944
 H667 H 0.45403 0.19196 0.44041
 H668 H 0.45673 0.25793 0.43759
 H669 H 0.31888 0.23259 0.37409
 H670 H 0.28605 0.24187 0.35288
 H671 H 0.31648 0.25096 0.27560
 H672 H 0.34936 0.24160 0.29687
 C673 C 0.74410 0.93416 0.91451
 C674 C 0.72588 0.92460 0.90702
 C675 C 0.70721 0.93220 0.91673
 C676 C 0.70679 0.94908 0.93432
 C677 C 0.72510 0.95848 0.94247
 C678 C 0.74374 0.95098 0.93208
 C679 C 0.72663 0.90635 0.89064
 C680 C 0.72793 0.89077 0.87761
 C681 C 0.73022 0.87223 0.86317
 C682 C 0.73282 0.85619 0.85155
 C683 C 0.73669 0.83682 0.83855
 C684 C 0.73676 0.81893 0.85426
 C685 C 0.74209 0.80026 0.84231
 C686 C 0.74729 0.79929 0.81448
 C687 C 0.74694 0.81722 0.79869
 C688 C 0.74162 0.83592 0.81069
 H689 H 0.75865 0.92837 0.90718
 H690 H 0.69301 0.92486 0.91115
 H691 H 0.69220 0.95447 0.94198
 H692 H 0.75810 0.95786 0.93791
 H693 H 0.73313 0.81948 0.87587
 H694 H 0.74248 0.78660 0.85482
 H695 H 0.75122 0.81678 0.77730
 H696 H 0.74179 0.84970 0.79841
 C697 C 0.24403 0.43391 0.41557
 C698 C 0.22568 0.42458 0.40815
 C699 C 0.20714 0.43220 0.41832
 C700 C 0.20701 0.44886 0.43629
 C701 C 0.22546 0.45801 0.44438
 C702 C 0.24395 0.45050 0.43353
 C703 C 0.22615 0.40652 0.39136
 C704 C 0.22723 0.39108 0.37798
 C705 C 0.22929 0.37268 0.36314
 C706 C 0.23168 0.35674 0.35119
 C707 C 0.23532 0.33747 0.33781
 C708 C 0.23527 0.31942 0.35319
 C709 C 0.24043 0.30083 0.34091
 C710 C 0.24562 0.30008 0.31306
 C711 C 0.24537 0.31817 0.29758
 C712 C 0.24021 0.33679 0.30991
 H713 H 0.25847 0.42810 0.40789
 H714 H 0.19285 0.42504 0.41279
 H715 H 0.19253 0.45425 0.44431
 H716 H 0.25841 0.45720 0.43930
 H717 H 0.23167 0.31979 0.37482
 H718 H 0.24075 0.28705 0.35319
 H719 H 0.24964 0.31790 0.27618
 H720 H 0.24049 0.35069 0.29788
 C721 C 0.29017 0.06780 0.91504
 C722 C 0.27143 0.07528 0.90545
 C723 C 0.25322 0.06675 0.91492
 C724 C 0.25364 0.05098 0.93417
 C725 C 0.27239 0.04345 0.94436
 C726 C 0.29068 0.05198 0.93432
 C727 C 0.27063 0.09217 0.88660
 C728 C 0.26912 0.10652 0.87126
 C729 C 0.26640 0.12351 0.85384
 C730 C 0.26325 0.13817 0.83947
 C731 C 0.25849 0.15578 0.82300
 C732 C 0.24080 0.15587 0.80690
 C733 C 0.23497 0.17355 0.79285
 C734 C 0.24684 0.19130 0.79465
 C735 C 0.26478 0.19105 0.81039
 C736 C 0.27059 0.17334 0.82449
 H737 H 0.30437 0.07434 0.90786
 H738 H 0.23862 0.07245 0.90766
 H739 H 0.23922 0.04488 0.94123
 H740 H 0.30541 0.04664 0.94156
 H741 H 0.23123 0.14244 0.80579
 H742 H 0.22098 0.17356 0.78102
 H743 H 0.27392 0.20472 0.81234
 H744 H 0.28420 0.17350 0.83709
 C745 C 0.78960 0.57129 0.41294
 C746 C 0.77076 0.57857 0.40337
 C747 C 0.75266 0.56957 0.41249
 C748 C 0.75331 0.55354 0.43133
 C749 C 0.77213 0.54624 0.44136
 C750 C 0.79030 0.55519 0.43180
 C751 C 0.76975 0.59570 0.38495
 C752 C 0.76814 0.61026 0.36997
 C753 C 0.76538 0.62751 0.35302
 C754 C 0.76227 0.64241 0.33909
 C755 C 0.75768 0.66037 0.32320
 C756 C 0.73991 0.66105 0.30730
 C757 C 0.73430 0.67907 0.29387
 C758 C 0.74648 0.69658 0.29612
 C759 C 0.76450 0.69574 0.31168
 C760 C 0.77009 0.67768 0.32513
 H761 H 0.80371 0.57818 0.40607
 H762 H 0.73799 0.57512 0.40527
 H763 H 0.73904 0.54700 0.43822
 H764 H 0.80503 0.54994 0.43914
 H765 H 0.73011 0.64780 0.30586
 H766 H 0.72025 0.67953 0.28220
 H767 H 0.77388 0.70921 0.31401
 H768 H 0.78377 0.67739 0.33760
 C769 C 0.06836 0.74588 0.91721
 C770 C 0.07729 0.72755 0.90850
 C771 C 0.06953 0.70892 0.91782
 C772 C 0.05310 0.70863 0.93617
 C773 C 0.04426 0.72705 0.94559
 C774 C 0.05200 0.74568 0.93554
 C775 C 0.09495 0.72813 0.89098
 C776 C 0.10999 0.72944 0.87686
 C777 C 0.12783 0.73189 0.86098
 C778 C 0.14320 0.73477 0.84797
 C779 C 0.16167 0.73914 0.83314
 C780 C 0.17900 0.72673 0.83641
 C781 C 0.19742 0.73208 0.82383
 C782 C 0.19861 0.74985 0.80781
 C783 C 0.18112 0.76206 0.80429
 C784 C 0.16273 0.75670 0.81684
 H785 H 0.07427 0.76039 0.91015
 H786 H 0.07637 0.69463 0.91123
 H787 H 0.04761 0.69398 0.94332
 H788 H 0.04566 0.76019 0.94212
 H789 H 0.17841 0.71322 0.84920
 H790 H 0.21087 0.72267 0.82709
 H791 H 0.18184 0.77593 0.79223
 H792 H 0.14946 0.76651 0.81437
 C793 C 0.56822 0.24552 0.41221
 C794 C 0.57794 0.22749 0.40383
 C795 C 0.57095 0.20861 0.41342
 C796 C 0.55448 0.20781 0.43167
 C797 C 0.54488 0.22592 0.44062
 C798 C 0.55182 0.24476 0.43044
 C799 C 0.59559 0.22864 0.38633
 C800 C 0.61056 0.23039 0.37216
 C801 C 0.62823 0.23337 0.35612
 C802 C 0.64339 0.23671 0.34288
 C803 C 0.66151 0.24167 0.32763
 C804 C 0.67926 0.22977 0.33035
 C805 C 0.69728 0.23562 0.31713
 C806 C 0.69762 0.25339 0.30103
 C807 C 0.67974 0.26511 0.29811
 C808 C 0.66176 0.25924 0.31129
 H809 H 0.57354 0.26021 0.40496
 H810 H 0.57840 0.19456 0.40711
 H811 H 0.54953 0.19307 0.43915
 H812 H 0.54477 0.25898 0.43688
 H813 H 0.67929 0.21624 0.34314
 H814 H 0.71104 0.22659 0.31988
 H815 H 0.67982 0.27896 0.28598
 H816 H 0.64817 0.26864 0.30922
 C817 C 0.93303 0.29106 0.91296
 C818 C 0.92566 0.27237 0.90327
 C819 C 0.93475 0.25410 0.91198
 C820 C 0.95091 0.25445 0.93062
 C821 C 0.95821 0.27312 0.94088
 C822 C 0.94924 0.29145 0.93162
 C823 C 0.90816 0.27169 0.88549
 C824 C 0.89319 0.27046 0.87125
 C825 C 0.87533 0.26826 0.85538
 C826 C 0.85981 0.26576 0.84259
 C827 C 0.84097 0.26201 0.82833
 C828 C 0.82246 0.26281 0.84268
 C829 C 0.80425 0.25751 0.82970
 C830 C 0.80435 0.25145 0.80217
 C831 C 0.82287 0.25098 0.78768
 C832 C 0.84113 0.25627 0.80072
 H833 H 0.92604 0.30529 0.90643
 H834 H 0.92913 0.23954 0.90469
 H835 H 0.95747 0.24006 0.93729
 H836 H 0.95449 0.30607 0.93914
 H837 H 0.82218 0.26707 0.86410
 H838 H 0.79011 0.25775 0.84122
 H839 H 0.82323 0.24605 0.76653
 H840 H 0.85538 0.25543 0.78949
 C841 C 0.43245 0.79174 0.41922
 C842 C 0.42531 0.77316 0.40886
 C843 C 0.43474 0.75485 0.41670
 C844 C 0.45102 0.75503 0.43515
 C845 C 0.45811 0.77357 0.44607
 C846 C 0.44879 0.79197 0.43769
 C847 C 0.40770 0.77261 0.39126
 C848 C 0.39266 0.77145 0.37714
 C849 C 0.37473 0.76931 0.36140
 C850 C 0.35916 0.76683 0.34870
 C851 C 0.34029 0.76309 0.33451
 C852 C 0.32183 0.76371 0.34899
 C853 C 0.30360 0.75840 0.33605
 C854 C 0.30363 0.75250 0.30846
 C855 C 0.32211 0.75221 0.29385
 C856 C 0.34038 0.75751 0.30684
 H857 H 0.42520 0.80601 0.41337
 H858 H 0.42930 0.74038 0.40888
 H859 H 0.45786 0.74060 0.44113
 H860 H 0.45387 0.80648 0.44574
 H861 H 0.32160 0.76784 0.37045
 H862 H 0.28949 0.75850 0.34766
 H863 H 0.32242 0.74741 0.27266
 H864 H 0.35460 0.75680 0.29552
 C865 C 0.25389 0.93578 0.08736
 C866 C 0.27217 0.92673 0.09605
 C867 C 0.29084 0.93404 0.08618
 C868 C 0.29120 0.95015 0.06735
 C869 C 0.27284 0.95907 0.05809
 C870 C 0.25420 0.95184 0.06854
 C871 C 0.27153 0.90928 0.11396
 C872 C 0.27031 0.89434 0.12828
 C873 C 0.26810 0.87650 0.14421
 C874 C 0.26558 0.86097 0.15701
 C875 C 0.26180 0.84211 0.17124
 C876 C 0.25598 0.84223 0.19884
 C877 C 0.25061 0.82396 0.21182
 C878 C 0.25108 0.80546 0.19728
 C879 C 0.25723 0.80540 0.16978
 C880 C 0.26261 0.82363 0.15686
 H881 H 0.23935 0.93020 0.09479
 H882 H 0.30509 0.92708 0.09269
 H883 H 0.30580 0.95536 0.05968
 H884 H 0.23980 0.95837 0.06189
 H885 H 0.25513 0.85646 0.21009
 H886 H 0.24562 0.82427 0.23294
 H887 H 0.25746 0.79128 0.15823
 H888 H 0.26692 0.82338 0.13546
 C889 C 0.79161 0.43342 0.58030
 C890 C 0.77300 0.42605 0.59030
 C891 C 0.75468 0.43532 0.58219
 C892 C 0.75487 0.45166 0.56382
 C893 C 0.77345 0.45899 0.55326
 C894 C 0.79185 0.44983 0.56191
 C895 C 0.77245 0.40839 0.60784
 C896 C 0.77129 0.39331 0.62192
 C897 C 0.76914 0.37534 0.63761
 C898 C 0.76665 0.35975 0.65028
 C899 C 0.76289 0.34084 0.66443
 C900 C 0.76362 0.32240 0.64995
 C901 C 0.75825 0.30415 0.66283
 C902 C 0.75221 0.30414 0.69038
 C903 C 0.75182 0.32260 0.70499
 C904 C 0.75717 0.34090 0.69206
 H905 H 0.80588 0.42631 0.58637
 H906 H 0.74019 0.42969 0.58973
 H907 H 0.74044 0.45837 0.55763
 H908 H 0.80639 0.45510 0.55414
 H909 H 0.76785 0.32220 0.62853
 H910 H 0.75843 0.29006 0.65121
 H911 H 0.74690 0.32288 0.72615
 H912 H 0.75638 0.35510 0.70338
 C913 C 0.70785 0.07249 0.07996
 C914 C 0.72661 0.07981 0.08945
 C915 C 0.74478 0.07027 0.08125
 C916 C 0.74427 0.05370 0.06327
 C917 C 0.72554 0.04642 0.05321
 C918 C 0.70730 0.05586 0.06197
 C919 C 0.72750 0.09758 0.10672
 C920 C 0.72906 0.11265 0.12071
 C921 C 0.73184 0.13043 0.13655
 C922 C 0.73502 0.14569 0.14964
 C923 C 0.73982 0.16391 0.16474
 C924 C 0.75732 0.16431 0.18117
 C925 C 0.76304 0.18238 0.19422
 C926 C 0.75125 0.20019 0.19108
 C927 C 0.73355 0.19968 0.17488
 C928 C 0.72784 0.18158 0.16178
 H929 H 0.69369 0.07980 0.08614
 H930 H 0.75939 0.07583 0.08843
 H931 H 0.75859 0.04679 0.05697
 H932 H 0.69264 0.05064 0.05457
 H933 H 0.76678 0.15078 0.18343
 H934 H 0.77684 0.18259 0.20644
 H935 H 0.72446 0.21339 0.17196
 H936 H 0.71437 0.18148 0.14892
 C937 C 0.21048 0.56963 0.58593
 C938 C 0.22939 0.57655 0.59543
 C939 C 0.24739 0.56707 0.58647
 C940 C 0.24656 0.55096 0.56779
 C941 C 0.22767 0.54408 0.55775
 C942 C 0.20960 0.55347 0.56722
 C943 C 0.23060 0.59382 0.61357
 C944 C 0.23238 0.60846 0.62831
 C945 C 0.23535 0.62576 0.64505
 C946 C 0.23864 0.64062 0.65889
 C947 C 0.24347 0.65842 0.67486
 C948 C 0.26025 0.65795 0.69261
 C949 C 0.26610 0.67563 0.70650
 C950 C 0.25515 0.69393 0.70288
 C951 C 0.23815 0.69428 0.68536
 C952 C 0.23232 0.67657 0.67144
 H953 H 0.19644 0.57690 0.59268
 H954 H 0.26212 0.57232 0.59365
 H955 H 0.26076 0.54408 0.56095
 H956 H 0.19482 0.54855 0.55986
 H957 H 0.26909 0.64404 0.69523
 H958 H 0.27937 0.67517 0.71971
 H959 H 0.22975 0.70836 0.68202
 H960 H 0.21943 0.67715 0.65757
 C961 C 0.93480 0.74748 0.08585
 C962 C 0.92534 0.72939 0.09413
 C963 C 0.93267 0.71057 0.08454
 C964 C 0.94919 0.70988 0.06635
 C965 C 0.95849 0.72805 0.05744
 C966 C 0.95125 0.74684 0.06767
 C967 C 0.90746 0.73041 0.11124
 C968 C 0.89218 0.73197 0.12487
 C969 C 0.87397 0.73457 0.14000
 C970 C 0.85819 0.73744 0.15216
 C971 C 0.83909 0.74161 0.16571
 C972 C 0.83854 0.74555 0.19388
 C973 C 0.82012 0.75110 0.20648
 C974 C 0.80212 0.75268 0.19098
 C975 C 0.80273 0.74848 0.16285
 C976 C 0.82111 0.74293 0.15030
 H977 H 0.92921 0.76213 0.09307
 H978 H 0.92540 0.69647 0.09074
 H979 H 0.95438 0.69518 0.05883
 H980 H 0.95808 0.76111 0.06127
 H981 H 0.85240 0.74474 0.20595
 H982 H 0.81995 0.75457 0.22814
 H983 H 0.78901 0.74982 0.15058
 H984 H 0.82138 0.74006 0.12848
 C985 C 0.43259 0.20584 0.57972
 C986 C 0.42487 0.22440 0.58967
 C987 C 0.43409 0.24276 0.58196
 C988 C 0.45066 0.24265 0.56396
 C989 C 0.45827 0.22413 0.55334
 C990 C 0.44922 0.20568 0.56170
 C991 C 0.40684 0.22487 0.60653
 C992 C 0.39142 0.22595 0.61995
 C993 C 0.37304 0.22799 0.63485
 C994 C 0.35711 0.23039 0.64683
 C995 C 0.33784 0.23405 0.66022
 C996 C 0.31981 0.23403 0.64484
 C997 C 0.30122 0.23927 0.65712
 C998 C 0.30048 0.24448 0.68494
 C999 C 0.31855 0.24418 0.70042
 C1000 C 0.33716 0.23895 0.68810
 H1001 H 0.42551 0.19154 0.58546
 H1002 H 0.42820 0.25722 0.58947
 H1003 H 0.45727 0.25711 0.55798
 H1004 H 0.45470 0.19118 0.55387
 H1005 H 0.32018 0.23043 0.62322
 H1006 H 0.28746 0.23963 0.64483
 H1007 H 0.31828 0.24847 0.72182
 H1008 H 0.35105 0.23920 0.70013
 C1009 C 0.06699 0.25375 0.08432
 C1010 C 0.07598 0.27194 0.09310
 C1011 C 0.06888 0.29068 0.08294
 C1012 C 0.05297 0.29118 0.06382
 C1013 C 0.04403 0.27292 0.05460
 C1014 C 0.05114 0.25421 0.06523
 C1015 C 0.09294 0.27109 0.11181
 C1016 C 0.10732 0.26955 0.12706
 C1017 C 0.12435 0.26678 0.14440
 C1018 C 0.13901 0.26358 0.15871
 C1019 C 0.15662 0.25874 0.17514
 C1020 C 0.17422 0.27077 0.17359
 C1021 C 0.19192 0.26487 0.18763
 C1022 C 0.19210 0.24692 0.20338
 C1023 C 0.17430 0.23513 0.20525
 C1024 C 0.15664 0.24104 0.19125
 H1025 H 0.07240 0.23916 0.09201
 H1026 H 0.07578 0.30485 0.08955
 H1027 H 0.04785 0.30583 0.05601
 H1028 H 0.04459 0.23988 0.05861
 H1029 H 0.17443 0.28438 0.16097
 H1030 H 0.20563 0.27395 0.18564
 H1031 H 0.17426 0.22113 0.21708
 H1032 H 0.14317 0.23153 0.19241
 C1033 C 0.56838 0.75254 0.58704
 C1034 C 0.57718 0.77065 0.59644
 C1035 C 0.56972 0.78950 0.58717
 C1036 C 0.55364 0.79022 0.56831
 C1037 C 0.54489 0.77204 0.55847
 C1038 C 0.55237 0.75320 0.56821
 C1039 C 0.59427 0.76963 0.61491
 C1040 C 0.60877 0.76797 0.62995
 C1041 C 0.62592 0.76510 0.64704
 C1042 C 0.64067 0.76185 0.66115
 C1043 C 0.65839 0.75700 0.67737
 C1044 C 0.67595 0.76909 0.67569
 C1045 C 0.69372 0.76326 0.68962
 C1046 C 0.69402 0.74532 0.70540
 C1047 C 0.67628 0.73345 0.70735
 C1048 C 0.65854 0.73930 0.69346
 H1049 H 0.57407 0.73786 0.59404
 H1050 H 0.57646 0.80362 0.59428
 H1051 H 0.54825 0.80496 0.56120
 H1052 H 0.54598 0.73893 0.56108
 H1053 H 0.67606 0.78271 0.66309
 H1054 H 0.70738 0.77240 0.68756
 H1055 H 0.67632 0.71946 0.71921
 H1056 H 0.64511 0.72975 0.69472
   
