data_POSCAR
  _audit_creation_date              2014-09-24
  _audit_creation_method            'ToBaCCo'
  _symmetry_space_group_name_H-M    'P1'
  _symmetry_Int_Tables_number       1
  _symmetry_cell_setting            triclinic
  loop_
  _symmetry_equiv_pos_as_xyz
 x,y,z
_cell_length_a 25.9711
_cell_length_b 26.0795
_cell_length_c 26.0052
_cell_angle_alpha 94.779200
_cell_angle_beta 96.889800
_cell_angle_gamma 93.823600
loop_
  _atom_site_label
  _atom_site_type_symbol
  _atom_site_fract_x
  _atom_site_fract_y
  _atom_site_fract_z
C1 C 0.58866 0.54640 -0.00604
 C2 C 0.57574 0.59793 -0.00761
 C3 C 0.52415 0.61210 -0.00949
 C4 C 0.48335 0.57163 -0.01476
 C5 C 0.49538 0.51929 -0.01264
 C6 C 0.54762 0.50642 -0.01146
 C7 C 0.55647 0.45394 -0.02143
 C8 C 0.51677 0.41498 -0.02362
 C9 C 0.46578 0.42655 -0.01732
 C10 C 0.45455 0.47927 -0.01448
 C11 C 0.43092 0.58069 -0.02847
 C12 C 0.39136 0.54206 -0.02859
 C13 C 0.40232 0.49216 -0.01605
 C14 C 0.36224 0.45351 -0.01097
 C15 C 0.37443 0.40163 -0.01364
 C16 C 0.42504 0.38714 -0.01774
 H17 H 0.59396 0.44216 -0.02965
 H18 H 0.52659 0.37582 -0.03190
 H19 H 0.41975 0.61731 -0.04093
 H20 H 0.35201 0.55141 -0.04046
 H21 H 0.60713 0.62818 -0.00272
 H22 H 0.34437 0.37167 -0.01019
 C23 C 0.00958 0.60083 0.46505
 C24 C 0.01660 0.58451 0.41405
 C25 C 0.01586 0.53194 0.39676
 C26 C 0.01600 0.49548 0.43443
 C27 C 0.00593 0.51134 0.48553
 C28 C 0.00038 0.56393 0.50015
 C29 C -0.01506 0.57800 0.54900
 C30 C -0.02038 0.54174 0.58453
 C31 C -0.00947 0.49032 0.57290
 C32 C 0.00183 0.47459 0.52227
 C33 C 0.02954 0.44471 0.42383
 C34 C 0.02594 0.40869 0.45993
 C35 C 0.00958 0.42231 0.50847
 C36 C 0.00280 0.38555 0.54449
 C37 C -0.00586 0.40194 0.59504
 C38 C -0.01035 0.45393 0.61019
 H39 H -0.02388 0.61704 0.56004
 H40 H -0.03336 0.55449 0.62113
 H41 H 0.04423 0.43261 0.38791
 H42 H 0.03705 0.37030 0.44965
 H43 H 0.02008 0.61362 0.38696
 H44 H -0.00851 0.37379 0.62325
 C45 C 0.57085 0.00925 0.61547
 C46 C 0.62082 0.00481 0.60039
 C47 C 0.63017 -0.00170 0.54827
 C48 C 0.58795 0.00128 0.50852
 C49 C 0.53668 0.00451 0.52176
 C50 C 0.52774 0.00751 0.57514
 C51 C 0.47629 0.01182 0.58601
 C52 C 0.43502 0.01072 0.54663
 C53 C 0.44308 0.01015 0.49419
 C54 C 0.49433 0.00663 0.48135
 C55 C 0.59591 0.00498 0.45626
 C56 C 0.55467 0.00407 0.41693
 C57 C 0.50333 0.00502 0.42819
 C58 C 0.46074 0.00470 0.38811
 C59 C 0.41069 0.00890 0.40227
 C60 C 0.40123 0.01259 0.45420
 H61 H 0.46620 0.01712 0.62488
 H62 H 0.39658 0.01083 0.55841
 H63 H 0.63433 0.00984 0.44469
 H64 H 0.56433 0.00353 0.37775
 H65 H 0.65307 0.00150 0.63017
 H66 H 0.37828 0.01044 0.37211
 O67 O 0.47241 -0.00719 -0.07771
 O68 O 0.46901 0.00151 0.06477
 O69 O 0.46138 0.06774 -0.00674
 O70 O 0.48004 -0.07227 -0.00628
 O71 O 0.56505 -0.05407 0.00326
 O72 O 0.54635 0.08555 0.00940
 O73 O 0.55420 0.01866 0.07757
 O74 O 0.55688 0.01438 -0.06471
 Cu75 Cu 0.46227 -0.00419 -0.00774
 Cu76 Cu 0.56404 0.01766 0.00768
 C77 C 0.51521 0.00238 -0.09553
 C78 C 0.51106 0.01157 0.09544
 C79 C 0.50071 0.10051 0.00201
 C80 C 0.52591 -0.08699 -0.00238
 O81 O -0.07729 0.55954 0.99497
 O82 O 0.05741 0.52265 0.99876
 O83 O -0.01882 0.52690 0.92643
 O84 O 0.00076 0.55424 1.06784
 O85 O -0.02336 0.47279 1.07601
 O86 O -0.05015 0.44739 0.93411
 O87 O 0.02999 0.44109 1.00217
 O88 O -0.10345 0.47963 1.00718
 Cu89 Cu -0.00712 0.54915 0.99625
 Cu90 Cu -0.03959 0.45211 1.00593
 C91 C -0.11330 0.52587 1.00070
 C92 C 0.06649 0.47550 0.99995
 C93 C -0.03759 0.48266 0.90616
 C94 C -0.00675 0.51776 1.09606
 O95 O -0.00928 -0.07207 0.45133
 O96 O 0.00743 0.06821 0.47789
 O97 O 0.06592 -0.00330 0.44610
 O98 O -0.06676 -0.00264 0.48227
 O99 O -0.03591 -0.00824 0.56444
 O100 O 0.09689 -0.00856 0.52833
 O101 O 0.03894 0.06077 0.55950
 O102 O 0.02238 -0.07986 0.53282
 Cu103 Cu -0.00357 -0.00135 0.45607
 Cu104 Cu 0.03366 -0.01014 0.55455
 C105 C 0.00356 -0.09989 0.48774
 C106 C 0.02560 0.08841 0.52306
 C107 C 0.10390 -0.00603 0.48113
 C108 C -0.07388 -0.00519 0.52945
 C109 C -0.27045 0.56110 0.98999
 C110 C -0.25349 0.51926 1.01617
 N111 N -0.28813 0.48923 1.03768
 C112 C -0.33943 0.49789 1.03256
 C113 C -0.35777 0.53738 1.00270
 N114 N -0.32188 0.56912 0.98389
 N115 N -0.23540 0.59228 0.97004
 C116 C -0.18418 0.58297 0.97444
 C117 C -0.16740 0.53988 0.99901
 N118 N -0.20265 0.50926 1.01960
 H119 H -0.36529 0.47461 1.05248
 H120 H -0.15718 0.60804 0.95759
 C121 C 0.22060 0.43796 0.98844
 C122 C 0.21034 0.48594 1.01178
 N123 N 0.25040 0.52103 1.03051
 C124 C 0.30029 0.51116 1.02524
 C125 C 0.31098 0.46461 0.99797
 N126 N 0.27035 0.42852 0.98199
 N127 N 0.18055 0.40198 0.97168
 C128 C 0.13055 0.41224 0.97656
 C129 C 0.12006 0.46113 0.99810
 N130 N 0.16047 0.49670 1.01548
 H131 H 0.33113 0.53913 1.04328
 H132 H 0.09926 0.38316 0.96228
 C133 C -0.01236 -0.26135 0.45684
 C134 C 0.01916 -0.23787 0.50133
 N135 N 0.04655 -0.26739 0.53359
 C136 C 0.04371 -0.31950 0.52339
 C137 C 0.01145 -0.34314 0.47934
 N138 N -0.01545 -0.31326 0.44691
 N139 N -0.03848 -0.23184 0.42367
 C140 C -0.03436 -0.17965 0.43286
 C141 C -0.00289 -0.15602 0.47741
 N142 N 0.02299 -0.18582 0.51074
 H143 H 0.06683 -0.34222 0.54899
 H144 H -0.05548 -0.15693 0.40568
 C145 C 0.03284 0.24973 0.55395
 C146 C 0.00260 0.22475 0.50940
 N147 N -0.02683 0.25253 0.47704
 C148 C -0.02719 0.30440 0.48711
 C149 C 0.00394 0.32969 0.53108
 N150 N 0.03281 0.30151 0.56377
 N151 N 0.06092 0.22168 0.58720
 C152 C 0.05994 0.16957 0.57800
 C153 C 0.02973 0.14454 0.53336
 N154 N 0.00192 0.17290 0.50003
 H155 H -0.05182 0.32567 0.46136
 H156 H 0.08241 0.14797 0.60527
 C157 C 0.52161 -0.00638 -0.25845
 C158 C 0.56218 0.01913 -0.22332
 N159 N 0.60382 0.04183 -0.24172
 C160 C 0.60708 0.03993 -0.29363
 C161 C 0.56674 0.01376 -0.32987
 N162 N 0.52510 -0.00891 -0.31044
 N163 N 0.47933 -0.02809 -0.23997
 C164 C 0.47587 -0.02545 -0.18793
 C165 C 0.51690 -0.00045 -0.15244
 N166 N 0.55916 0.02123 -0.17134
 H167 H 0.64039 0.06013 -0.30627
 H168 H 0.44174 -0.04323 -0.17442
 C169 C 0.50530 0.02439 0.25837
 C170 C 0.46940 -0.00921 0.22474
 N171 N 0.43282 -0.03834 0.24479
 C172 C 0.43030 -0.03531 0.29690
 C173 C 0.46555 -0.00101 0.33103
 N174 N 0.50203 0.02839 0.31043
 N175 N 0.54298 0.05224 0.23839
 C176 C 0.54631 0.04813 0.18633
 C177 C 0.50961 0.01545 0.15233
 N178 N 0.47189 -0.01243 0.17261
 H179 H 0.40086 -0.05940 0.31160
 H180 H 0.57665 0.07093 0.17152
 C181 C 0.54701 -0.24738 -0.01403
 C182 C 0.50374 -0.22865 0.00652
 N183 N 0.46911 -0.26230 0.02385
 C184 C 0.47482 -0.31398 0.02014
 C185 C 0.51636 -0.33395 -0.00386
 N186 N 0.55215 -0.29909 -0.01882
 N187 N 0.58324 -0.21357 -0.02888
 C188 C 0.57791 -0.16184 -0.02447
 C189 C 0.53376 -0.14286 -0.00527
 N190 N 0.49768 -0.17703 0.00989
 H191 H 0.44814 -0.33863 0.03772
 H192 H 0.60727 -0.13589 -0.03693
 C193 C 0.48132 0.26123 0.00740
 C194 C 0.44477 0.22556 -0.02298
 N195 N 0.40361 0.24301 -0.05182
 C196 C 0.39716 0.29440 -0.05155
 C197 C 0.43322 0.33057 -0.02056
 N198 N 0.47438 0.31260 0.00850
 N199 N 0.52337 0.24390 0.03500
 C200 C 0.53058 0.19258 0.03360
 C201 C 0.49362 0.15652 0.00392
 N202 N 0.45138 0.17413 -0.02365
 H203 H 0.36413 0.30695 -0.07541
 H204 H 0.56453 0.18000 0.05600
 C205 C -0.22729 0.00475 0.56484
 C206 C -0.21729 -0.02424 0.51981
 N207 N -0.25751 -0.04892 0.48704
 C208 C -0.30753 -0.04414 0.49608
 C209 C -0.31835 -0.01104 0.53868
 N210 N -0.27724 0.01082 0.57302
 N211 N -0.18693 0.02737 0.59905
 C212 C -0.13691 0.02299 0.58968
 C213 C -0.12692 -0.00398 0.54332
 N214 N -0.16751 -0.02729 0.50959
 H215 H -0.33833 -0.06659 0.47050
 H216 H -0.10539 0.04196 0.61715
 C217 C 0.25751 -0.01165 0.44546
 C218 C 0.24526 0.02514 0.48374
 N219 N 0.28337 0.05914 0.50956
 C220 C 0.33351 0.05715 0.49982
 C221 C 0.34663 0.01791 0.46427
 N222 N 0.30781 -0.01472 0.43696
 N223 N 0.21899 -0.04403 0.41784
 C224 C 0.16876 -0.04177 0.42732
 C225 C 0.15682 -0.00654 0.46717
 N226 N 0.19542 0.02628 0.49437
 H227 H 0.36303 0.08528 0.52029
 H228 H 0.13872 -0.06828 0.40518
 C229 C 0.02241 0.54515 1.25907
 C230 C -0.00448 0.49923 1.23550
 N231 N -0.02337 0.46418 1.26548
 C232 C -0.01632 0.47276 1.31818
 C233 C 0.01166 0.51853 1.34250
 N234 N 0.02959 0.55364 1.31152
 N235 N 0.03958 0.58126 1.22918
 C236 C 0.03084 0.57351 1.17649
 C237 C 0.00382 0.52746 1.15270
 N238 N -0.01302 0.49129 1.18295
 H239 H -0.03526 0.44541 1.34023
 H240 H 0.04492 0.60295 1.15351
 C241 C -0.04517 0.45062 0.74410
 C242 C -0.01238 0.49171 0.77087
 N243 N 0.02008 0.51978 0.74499
 C244 C 0.02106 0.50884 0.69323
 C245 C -0.01276 0.46866 0.66584
 N246 N -0.04465 0.44004 0.69226
 N247 N -0.07588 0.42113 0.77067
 C248 C -0.07504 0.43079 0.82298
 C249 C -0.04236 0.47210 0.84967
 N250 N -0.01199 0.50163 0.82277
 H251 H 0.04844 0.53083 0.67375
 H252 H -0.09948 0.40649 0.84345
   
