data_POSCAR
  _audit_creation_date              2014-09-24
  _audit_creation_method            'ToBaCCo'
  _symmetry_space_group_name_H-M    'P1'
  _symmetry_Int_Tables_number       1
  _symmetry_cell_setting            triclinic
  loop_
  _symmetry_equiv_pos_as_xyz
 x,y,z
_cell_length_a 26.4831
_cell_length_b 28.0903
_cell_length_c 26.6483
_cell_angle_alpha 85.852900
_cell_angle_beta 95.200200
_cell_angle_gamma 94.359000
loop_
  _atom_site_label
  _atom_site_type_symbol
  _atom_site_fract_x
  _atom_site_fract_y
  _atom_site_fract_z
C1 C 0.21011 0.28947 0.28797
 C2 C 0.24547 0.31964 0.25380
 C3 C 0.27425 0.29313 0.22807
 C4 C 0.26541 0.23884 0.23908
 C5 C 0.17892 0.25505 0.25310
 C6 C 0.20790 0.22858 0.22752
 C7 C 0.24514 0.25781 0.32238
 C8 C 0.27401 0.23129 0.29676
 H9 H 0.24730 0.35848 0.24996
 H10 H 0.28920 0.21721 0.21870
 H11 H 0.13764 0.25177 0.24912
 H12 H 0.24609 0.25609 0.36325
 C13 C 0.71039 0.78936 0.28781
 C14 C 0.74590 0.81945 0.25376
 C15 C 0.77461 0.79289 0.22803
 C16 C 0.76557 0.73860 0.23892
 C17 C 0.67911 0.75508 0.25284
 C18 C 0.70804 0.72856 0.22724
 C19 C 0.74522 0.75753 0.32222
 C20 C 0.77403 0.73093 0.29662
 H21 H 0.74778 0.85829 0.24989
 H22 H 0.78933 0.71695 0.21855
 H23 H 0.63783 0.75187 0.24886
 H24 H 0.74602 0.75570 0.36309
 C25 C 0.71139 0.29080 0.78579
 C26 C 0.74363 0.31925 0.75211
 C27 C 0.77328 0.29143 0.72446
 C28 C 0.76563 0.23999 0.73615
 C29 C 0.67945 0.25539 0.75241
 C30 C 0.70795 0.22871 0.72644
 C31 C 0.74743 0.25973 0.81994
 C32 C 0.77582 0.23303 0.79391
 H33 H 0.74557 0.35811 0.74837
 H34 H 0.78858 0.21794 0.71552
 H35 H 0.63818 0.25198 0.74930
 H36 H 0.74931 0.25797 0.86092
 C37 C 0.20898 0.78842 0.78741
 C38 C 0.24448 0.81856 0.75339
 C39 C 0.27279 0.79208 0.72717
 C40 C 0.26337 0.73776 0.73749
 C41 C 0.17724 0.75463 0.75222
 C42 C 0.20573 0.72817 0.72609
 C43 C 0.24380 0.75608 0.82127
 C44 C 0.27212 0.72947 0.79514
 H45 H 0.24675 0.85742 0.75000
 H46 H 0.28660 0.71635 0.71634
 H47 H 0.13596 0.75153 0.74868
 H48 H 0.24560 0.75408 0.86225
 C49 C 0.08219 0.06648 0.01489
 H50 H 0.08212 0.07031 -0.02581
 C51 C 0.11246 0.09845 0.04455
 H52 H 0.13585 0.12667 0.02643
 C53 C 0.04978 0.02633 0.08778
 H54 H 0.02419 -0.00075 0.10451
 C55 C 0.07938 0.05753 0.11878
 H56 H 0.07686 0.05385 0.15924
 N57 N 0.05164 0.03132 0.03679
 C58 C 0.01617 -0.07224 -0.07844
 H59 H -0.02493 -0.07404 -0.08103
 C60 C 0.04114 -0.10097 -0.10749
 H61 H 0.01900 -0.12465 -0.13264
 C62 C 0.09496 -0.03980 -0.04152
 H63 H 0.11582 -0.01664 -0.01508
 C64 C 0.12140 -0.06788 -0.06986
 H65 H 0.16256 -0.06579 -0.06555
 Zn66 Zn 0.00684 -0.00638 -0.00640
 N67 N 0.04326 -0.04222 -0.04653
 C68 C -0.03776 0.03946 -0.09797
 N69 N -0.03383 0.03684 -0.04658
 C70 C -0.05832 0.06669 -0.02067
 C71 C -0.08948 0.09990 -0.04631
 C72 C -0.06857 0.07240 -0.12521
 C73 C -0.01259 -0.08326 0.06467
 C74 C -0.04186 -0.11373 0.09623
 C75 C -0.11689 -0.07726 0.05782
 C76 C -0.08627 -0.04741 0.02720
 N77 N -0.03495 -0.04996 0.03208
 H78 H -0.01713 0.01613 -0.11789
 H79 H -0.05387 0.06431 0.02018
 H80 H -0.10886 0.12292 -0.02478
 H81 H -0.07189 0.07410 -0.16610
 H82 H 0.02823 -0.08510 0.06716
 H83 H -0.02338 -0.13896 0.12310
 H84 H -0.15757 -0.07403 0.05456
 H85 H -0.10361 -0.02181 0.00007
 C86 C 0.09438 -0.09889 -0.10318
 C87 C 0.11069 0.09432 0.09708
 C88 C -0.09454 -0.11015 0.09344
 C89 C -0.09509 0.10278 -0.09921
 C90 C 0.07867 0.56505 0.51483
 H91 H 0.07851 0.56859 0.47412
 C92 C 0.10864 0.59748 0.54415
 H93 H 0.13174 0.62576 0.52576
 C94 C 0.04686 0.52505 0.58808
 H95 H 0.02170 0.49772 0.60507
 C96 C 0.07621 0.55670 0.61876
 H97 H 0.07393 0.55318 0.65925
 N98 N 0.04857 0.52973 0.53707
 C99 C 0.01494 0.42395 0.42404
 H100 H -0.02616 0.42130 0.42179
 C101 C 0.04038 0.39585 0.39477
 H102 H 0.01860 0.37165 0.36992
 C103 C 0.09328 0.45838 0.45990
 H104 H 0.11378 0.48225 0.48583
 C105 C 0.12019 0.43094 0.43133
 H106 H 0.16135 0.43409 0.43509
 Zn107 Zn 0.00443 0.49113 0.49424
 N108 N 0.04156 0.45479 0.45538
 C109 C -0.03838 0.53455 0.40090
 N110 N -0.03564 0.53345 0.45224
 C111 C -0.06070 0.56427 0.47636
 C112 C -0.09118 0.59694 0.44882
 C113 C -0.06851 0.56685 0.37180
 C114 C -0.01580 0.41469 0.56557
 C115 C -0.04540 0.38429 0.59692
 C116 C -0.11998 0.42162 0.55870
 C117 C -0.08908 0.45126 0.52815
 N118 N -0.03782 0.44817 0.53296
 H119 H -0.01725 0.51053 0.38242
 H120 H -0.05720 0.56312 0.51719
 H121 H -0.11140 0.62094 0.46850
 H122 H -0.07076 0.56717 0.33104
 H123 H 0.02497 0.41249 0.56808
 H124 H -0.02724 0.35875 0.62366
 H125 H -0.16061 0.42520 0.55545
 H126 H -0.10616 0.47707 0.50110
 C127 C 0.09363 0.39939 0.39830
 C128 C 0.10710 0.59363 0.59671
 C129 C -0.09801 0.38827 0.59403
 C130 C -0.09544 0.59824 0.39601
 C131 C 0.58123 0.06608 0.51460
 H132 H 0.58158 0.06941 0.47393
 C133 C 0.61135 0.09826 0.54411
 H134 H 0.63507 0.12618 0.52591
 C135 C 0.54800 0.02685 0.58755
 H136 H 0.52223 -0.00003 0.60433
 C137 C 0.57741 0.05831 0.61839
 H138 H 0.57456 0.05506 0.65880
 N139 N 0.55042 0.03120 0.53661
 C140 C 0.51640 -0.07432 0.42335
 H141 H 0.47529 -0.07666 0.42107
 C142 C 0.54157 -0.10270 0.39416
 H143 H 0.51960 -0.12677 0.36931
 C144 C 0.59497 -0.04048 0.45932
 H145 H 0.61566 -0.01679 0.48532
 C146 C 0.62163 -0.06821 0.43082
 H147 H 0.66280 -0.06543 0.43466
 Zn148 Zn 0.50629 -0.00731 0.49366
 N149 N 0.54327 -0.04366 0.45472
 C150 C 0.46346 0.03635 0.40046
 N151 N 0.46610 0.03501 0.45181
 C152 C 0.44071 0.06547 0.47606
 C153 C 0.40999 0.09800 0.44865
 C154 C 0.43307 0.06852 0.37149
 C155 C 0.48639 -0.08343 0.56529
 C156 C 0.45693 -0.11383 0.59674
 C157 C 0.38202 -0.07771 0.55749
 C158 C 0.41282 -0.04795 0.52696
 N159 N 0.46416 -0.05041 0.53226
 H160 H 0.48483 0.01260 0.38188
 H161 H 0.44412 0.06410 0.51690
 H162 H 0.38949 0.12170 0.46843
 H163 H 0.43089 0.06902 0.33072
 H164 H 0.52723 -0.08518 0.56813
 H165 H 0.47530 -0.13889 0.62388
 H166 H 0.34131 -0.07460 0.55387
 H167 H 0.39561 -0.02254 0.49953
 C168 C 0.59481 -0.09963 0.39780
 C169 C 0.60914 0.09469 0.59659
 C170 C 0.40420 -0.11042 0.59344
 C171 C 0.40579 0.09953 0.39583
 C172 C 0.58206 0.56642 0.01479
 H173 H 0.58168 0.57042 -0.02593
 C174 C 0.61221 0.59851 0.04438
 H175 H 0.63522 0.62699 0.02620
 C176 C 0.55050 0.52572 0.08781
 H177 H 0.52529 0.49834 0.10463
 C178 C 0.58001 0.55703 0.11875
 H179 H 0.57780 0.55316 0.15924
 N180 N 0.55198 0.53092 0.03678
 C181 C 0.51717 0.42707 -0.07833
 H182 H 0.47607 0.42462 -0.08059
 C183 C 0.54244 0.39883 -0.10765
 H184 H 0.52052 0.37487 -0.13265
 C185 C 0.59569 0.46070 -0.04207
 H186 H 0.61637 0.48416 -0.01582
 C187 C 0.62242 0.43320 -0.07074
 H188 H 0.66359 0.43600 -0.06683
 Zn189 Zn 0.50731 0.49302 -0.00636
 N190 N 0.54397 0.45746 -0.04661
 C191 C 0.46141 0.53805 -0.09781
 N192 N 0.46636 0.53606 -0.04643
 C193 C 0.44243 0.56625 -0.02040
 C194 C 0.41083 0.59919 -0.04587
 C195 C 0.43005 0.57064 -0.12488
 C196 C 0.48780 0.41607 0.06489
 C197 C 0.45839 0.38579 0.09653
 C198 C 0.38355 0.42246 0.05798
 C199 C 0.41428 0.45210 0.02729
 N200 N 0.46559 0.44937 0.03220
 H201 H 0.48153 0.51441 -0.11785
 H202 H 0.44759 0.56429 0.02042
 H203 H 0.39185 0.62242 -0.02423
 H204 H 0.42582 0.57177 -0.16574
 H205 H 0.52860 0.41409 0.06743
 H206 H 0.47675 0.36056 0.12348
 H207 H 0.34289 0.42585 0.05469
 H208 H 0.39704 0.47771 0.00011
 C209 C 0.59571 0.40183 -0.10387
 C210 C 0.61083 0.59416 0.09696
 C211 C 0.40574 0.38959 0.09371
 C212 C 0.40412 0.60137 -0.09872
 C213 C 0.16044 -0.16544 -0.10856
 C214 C 0.13833 -0.20226 -0.14668
 C215 C 0.17725 -0.18171 -0.18344
 C216 C 0.19968 -0.14522 -0.14563
 C217 C 0.13971 -0.14593 -0.20802
 C218 C 0.10040 -0.16615 -0.17095
 C219 C 0.12289 -0.12960 -0.13310
 C220 C 0.16183 -0.10912 -0.16990
 H221 H 0.16870 -0.17328 -0.06733
 H222 H 0.12908 -0.24092 -0.13740
 H223 H 0.24083 -0.13694 -0.13550
 H224 H 0.13158 -0.13820 -0.24928
 H225 H 0.05957 -0.17522 -0.18186
 H226 H 0.17123 -0.07051 -0.17929
 C227 C 0.10070 0.33293 0.32997
 C228 C 0.13942 0.35405 0.29266
 C229 C 0.17786 0.31899 0.31690
 C230 C 0.13954 0.29755 0.35388
 C231 C 0.19973 0.35566 0.35473
 C232 C 0.16095 0.39105 0.33084
 C233 C 0.12262 0.36964 0.36786
 C234 C 0.16110 0.33453 0.39201
 H235 H 0.05997 0.32312 0.31930
 H236 H 0.13093 0.36179 0.25145
 H237 H 0.13114 0.25875 0.36308
 H238 H 0.24079 0.36471 0.36460
 H239 H 0.16946 0.42983 0.32156
 H240 H 0.16975 0.32666 0.43319
 C241 C 0.66165 -0.16512 0.39174
 C242 C 0.63980 -0.20203 0.35364
 C243 C 0.67830 -0.18095 0.31669
 C244 C 0.70045 -0.14434 0.35448
 C245 C 0.64019 -0.14561 0.29235
 C246 C 0.60130 -0.16637 0.32963
 C247 C 0.62351 -0.12972 0.36749
 C248 C 0.66202 -0.10868 0.33049
 H249 H 0.67020 -0.17296 0.43293
 H250 H 0.63107 -0.24078 0.36288
 H251 H 0.74156 -0.13560 0.36439
 H252 H 0.63180 -0.13789 0.25112
 H253 H 0.56051 -0.17588 0.31894
 H254 H 0.67087 -0.06996 0.32116
 C255 C 0.60243 0.33445 -0.17133
 C256 C 0.64065 0.35527 -0.20925
 C257 C 0.67950 0.32057 -0.18497
 C258 C 0.64165 0.29944 -0.14737
 C259 C 0.70157 0.35777 -0.14778
 C260 C 0.66243 0.39279 -0.17174
 C261 C 0.62456 0.37170 -0.13411
 C262 C 0.66341 0.33695 -0.10989
 H263 H 0.56166 0.32436 -0.18148
 H264 H 0.63169 0.36253 -0.25047
 H265 H 0.63350 0.26070 -0.13759
 H266 H 0.74266 0.36707 -0.13839
 H267 H 0.67069 0.43150 -0.18160
 H268 H 0.67249 0.32957 -0.06870
 C269 C -0.16258 0.17123 -0.10429
 C270 C -0.14460 0.21262 -0.14138
 C271 C -0.18901 0.19813 -0.17968
 C272 C -0.20726 0.15702 -0.14298
 C273 C -0.15584 0.16475 -0.20353
 C274 C -0.11094 0.17877 -0.16474
 C275 C -0.12922 0.13768 -0.12787
 C276 C -0.17366 0.12320 -0.16633
 H277 H -0.16636 0.17477 -0.06363
 H278 H -0.13290 0.24980 -0.13150
 H279 H -0.24729 0.14831 -0.13440
 H280 H -0.15296 0.16198 -0.24448
 H281 H -0.07095 0.18753 -0.17340
 H282 H -0.18547 0.08607 -0.17632
 C283 C -0.13973 0.64169 0.30920
 C284 C -0.19723 0.64166 0.31596
 C285 C -0.19074 0.69577 0.32239
 C286 C -0.13377 0.69637 0.31515
 C287 C -0.18003 0.68696 0.37989
 C288 C -0.18621 0.63249 0.37377
 C289 C -0.12914 0.63299 0.36682
 C290 C -0.12268 0.68720 0.37298
 H291 H -0.12323 0.62315 0.27981
 H292 H -0.22842 0.62342 0.29221
 H293 H -0.11268 0.72319 0.29076
 H294 H -0.19621 0.70531 0.40962
 H295 H -0.20761 0.60581 0.39801
 H296 H -0.09160 0.70572 0.39658
 C297 C 0.36110 0.14284 0.30916
 C298 C 0.30356 0.14229 0.31594
 C299 C 0.30955 0.19639 0.32250
 C300 C 0.36656 0.19750 0.31525
 C301 C 0.32032 0.18752 0.37999
 C302 C 0.31465 0.13306 0.37373
 C303 C 0.37176 0.13407 0.36676
 C304 C 0.37770 0.18826 0.37306
 H305 H 0.37780 0.12455 0.27971
 H306 H 0.27254 0.12387 0.29216
 H307 H 0.38742 0.22454 0.29091
 H308 H 0.30392 0.20562 0.40976
 H309 H 0.29348 0.10615 0.39793
 H310 H 0.40863 0.20696 0.39670
 C311 C 0.33739 0.67047 -0.10336
 C312 C 0.35391 0.71053 -0.14263
 C313 C 0.30791 0.69505 -0.17859
 C314 C 0.29110 0.65526 -0.13972
 C315 C 0.33959 0.66050 -0.20264
 C316 C 0.38609 0.67553 -0.16619
 C317 C 0.36926 0.63576 -0.12716
 C318 C 0.32322 0.62029 -0.16328
 H319 H 0.33552 0.67550 -0.06269
 H320 H 0.36627 0.74805 -0.13452
 H321 H 0.25160 0.64714 -0.12919
 H322 H 0.34053 0.65626 -0.24361
 H323 H 0.42555 0.68368 -0.17679
 H324 H 0.31076 0.58282 -0.17150
 C325 C -0.17355 -0.17238 0.11326
 C326 C -0.15770 -0.20907 0.15707
 C327 C -0.18914 -0.18427 0.19197
 C328 C -0.20541 -0.14803 0.14861
 C329 C -0.14277 -0.15092 0.20822
 C330 C -0.11078 -0.17527 0.17286
 C331 C -0.12717 -0.13890 0.12948
 C332 C -0.15874 -0.11439 0.16456
 H333 H -0.18593 -0.18103 0.07384
 H334 H -0.15734 -0.24821 0.15389
 H335 H -0.24469 -0.13706 0.13895
 H336 H -0.13050 -0.14234 0.24768
 H337 H -0.07183 -0.18679 0.18319
 H338 H -0.15893 -0.07518 0.16746
 C339 C -0.16166 0.38278 0.66634
 C340 C -0.20873 0.34969 0.65060
 C341 C -0.19222 0.31355 0.69015
 C342 C -0.14734 0.34374 0.70788
 C343 C -0.16384 0.28922 0.65574
 C344 C -0.17847 0.32698 0.61272
 C345 C -0.13093 0.35916 0.62949
 C346 C -0.11533 0.32086 0.67150
 H347 H -0.16176 0.42156 0.67186
 H348 H -0.24846 0.36025 0.64346
 H349 H -0.13626 0.34933 0.74835
 H350 H -0.16564 0.25008 0.65170
 H351 H -0.19264 0.31917 0.57348
 H352 H -0.07714 0.30751 0.68183
 C353 C 0.38762 -0.17564 0.67261
 C354 C 0.35531 -0.15146 0.70780
 C355 C 0.30913 -0.18492 0.69127
 C356 C 0.34089 -0.20955 0.65652
 C357 C 0.29297 -0.14866 0.64789
 C358 C 0.33946 -0.11492 0.66412
 C359 C 0.37135 -0.13926 0.62921
 C360 C 0.32515 -0.17284 0.61269
 H361 H 0.42657 -0.18708 0.68317
 H362 H 0.36732 -0.14292 0.74733
 H363 H 0.34144 -0.24866 0.65328
 H364 H 0.25367 -0.13780 0.63804
 H365 H 0.33911 -0.07572 0.66707
 H366 H 0.31303 -0.18144 0.57321
 C367 C 0.32640 0.32778 0.11345
 C368 C 0.34199 0.29100 0.15725
 C369 C 0.31064 0.31595 0.19212
 C370 C 0.29464 0.35230 0.14877
 C371 C 0.35717 0.34908 0.20846
 C372 C 0.38907 0.32457 0.17313
 C373 C 0.37294 0.36103 0.12976
 C374 C 0.34147 0.38571 0.16480
 H375 H 0.31402 0.31920 0.07402
 H376 H 0.34216 0.25185 0.15400
 H377 H 0.25544 0.36348 0.13905
 H378 H 0.36943 0.35759 0.24794
 H379 H 0.42793 0.31284 0.18352
 H380 H 0.34151 0.42493 0.16772
 C381 C 0.17460 0.17357 0.11385
 C382 C 0.14712 0.20523 0.14637
 C383 C 0.18469 0.19255 0.19189
 C384 C 0.21259 0.16131 0.15987
 C385 C 0.14940 0.14929 0.20814
 C386 C 0.11153 0.16162 0.16227
 C387 C 0.13919 0.13024 0.13013
 C388 C 0.17687 0.11756 0.17568
 H389 H 0.18544 0.18406 0.07512
 H390 H 0.13510 0.24169 0.13468
 H391 H 0.25435 0.16102 0.15877
 H392 H 0.13933 0.13966 0.24731
 H393 H 0.06968 0.16155 0.16299
 H394 H 0.18895 0.08115 0.18746
 C395 C 0.17054 0.67333 0.61262
 C396 C 0.14350 0.70472 0.64583
 C397 C 0.18195 0.69218 0.69067
 C398 C 0.20939 0.66122 0.65795
 C399 C 0.14725 0.64867 0.70745
 C400 C 0.10850 0.66085 0.66226
 C401 C 0.13572 0.62975 0.62943
 C402 C 0.17427 0.61723 0.67430
 H403 H 0.18058 0.68401 0.57367
 H404 H 0.13108 0.74109 0.63448
 H405 H 0.25106 0.66120 0.65600
 H406 H 0.13796 0.63889 0.74683
 H407 H 0.06672 0.66049 0.66376
 H408 H 0.18675 0.58089 0.68574
 C409 C 0.67430 0.17316 0.61316
 C410 C 0.64724 0.20572 0.64508
 C411 C 0.68418 0.19272 0.69101
 C412 C 0.71166 0.16058 0.65958
 C413 C 0.64793 0.15022 0.70730
 C414 C 0.61067 0.16285 0.66102
 C415 C 0.63792 0.13058 0.62948
 C416 C 0.67497 0.11760 0.67543
 H417 H 0.68561 0.18309 0.57450
 H418 H 0.63607 0.24237 0.63298
 H419 H 0.75337 0.15943 0.65887
 H420 H 0.63737 0.14113 0.74640
 H421 H 0.56885 0.16359 0.66133
 H422 H 0.68621 0.08100 0.68765
 C423 C 0.67416 0.67379 0.11354
 C424 C 0.64670 0.70506 0.14650
 C425 C 0.68478 0.69252 0.19165
 C426 C 0.71265 0.66167 0.15918
 C427 C 0.65001 0.64893 0.20806
 C428 C 0.61163 0.66111 0.16256
 C429 C 0.63927 0.63013 0.12997
 C430 C 0.67745 0.61760 0.17515
 H431 H 0.68457 0.68454 0.07472
 H432 H 0.63428 0.74142 0.13508
 H433 H 0.75439 0.66176 0.15766
 H434 H 0.64038 0.63906 0.24732
 H435 H 0.56980 0.66068 0.16368
 H436 H 0.68994 0.58128 0.18666
   
