data_POSCAR
  _audit_creation_date              2014-09-24
  _audit_creation_method            'ToBaCCo'
  _symmetry_space_group_name_H-M    'P1'
  _symmetry_Int_Tables_number       1
  _symmetry_cell_setting            triclinic
  loop_
  _symmetry_equiv_pos_as_xyz
 x,y,z
_cell_length_a 47.7895
_cell_length_b 47.2712
_cell_length_c 47.8464
_cell_angle_alpha 89.928100
_cell_angle_beta 90.001700
_cell_angle_gamma 90.017200
loop_
  _atom_site_label
  _atom_site_type_symbol
  _atom_site_fract_x
  _atom_site_fract_y
  _atom_site_fract_z
N1 N 0.59275 0.66983 0.61286
 N2 N 0.58182 0.65827 0.63538
 C3 C 0.55908 0.67323 0.64308
 C4 C 0.55579 0.69515 0.62436
 C5 C 0.57738 0.69251 0.60546
 H6 H 0.54591 0.66860 0.66088
 H7 H 0.58156 0.70604 0.58770
 Cu8 Cu 0.59843 0.62483 0.65235
 Cu9 Cu 0.62605 0.65468 0.59483
 Cu10 Cu 0.65598 0.59505 0.62476
 N11 N 0.61538 0.59139 0.66896
 N12 N 0.63792 0.57984 0.65804
 C13 C 0.64533 0.55714 0.67339
 C14 C 0.62639 0.55449 0.69494
 C15 C 0.60766 0.57640 0.69168
 H16 H 0.66309 0.54362 0.66919
 H17 H 0.58983 0.58102 0.70484
 N18 N 0.67117 0.61352 0.59107
 N19 N 0.65977 0.63624 0.57967
 C20 C 0.67484 0.64376 0.55704
 C21 C 0.69660 0.62489 0.55424
 C22 C 0.69379 0.60601 0.57599
 H23 H 0.67039 0.66159 0.54357
 H24 H 0.70724 0.58817 0.58043
 H25 H 0.62053 0.61335 0.60785
 H26 H 0.64298 0.63637 0.63024
 N27 N 0.90768 0.32957 0.11288
 N28 N 0.91829 0.34076 0.13572
 C29 C 0.94098 0.32574 0.14349
 C30 C 0.94453 0.30417 0.12447
 C31 C 0.92320 0.30706 0.10532
 H32 H 0.95391 0.33011 0.16153
 H33 H 0.91926 0.29384 0.08731
 Cu34 Cu 0.90143 0.37385 0.15304
 Cu35 Cu 0.87460 0.34498 0.09466
 Cu36 Cu 0.84476 0.40461 0.12444
 N37 N 0.88481 0.40768 0.16914
 N38 N 0.86264 0.41960 0.15785
 C39 C 0.85547 0.44249 0.17297
 C40 C 0.87416 0.44491 0.19475
 C41 C 0.89251 0.42263 0.19185
 H42 H 0.83801 0.45632 0.16847
 H43 H 0.91009 0.41776 0.20525
 N44 N 0.82971 0.38634 0.09064
 N45 N 0.84109 0.36363 0.07928
 C46 C 0.82609 0.35622 0.05659
 C47 C 0.80441 0.37517 0.05369
 C48 C 0.80718 0.39398 0.07546
 H49 H 0.83051 0.33838 0.04316
 H50 H 0.79375 0.41183 0.07987
 H51 H 0.88041 0.38610 0.10820
 H52 H 0.85720 0.36310 0.12990
 N53 N 0.40732 0.17042 -0.11271
 N54 N 0.41829 0.15882 -0.13517
 C55 C 0.44104 0.17377 -0.14287
 C56 C 0.44431 0.19572 -0.12423
 C57 C 0.42269 0.19310 -0.10536
 H58 H 0.45425 0.16912 -0.16064
 H59 H 0.41848 0.20666 -0.08767
 Cu60 Cu 0.40168 0.12537 -0.15204
 Cu61 Cu 0.37398 0.15528 -0.09467
 Cu62 Cu 0.34406 0.09562 -0.12445
 N63 N 0.38473 0.09191 -0.16857
 N64 N 0.36216 0.08039 -0.15765
 C65 C 0.35477 0.05769 -0.17295
 C66 C 0.37373 0.05499 -0.19447
 C67 C 0.39246 0.07690 -0.19122
 H68 H 0.33699 0.04418 -0.16875
 H69 H 0.41031 0.08148 -0.20436
 N70 N 0.32884 0.11412 -0.09084
 N71 N 0.34024 0.13685 -0.07950
 C72 C 0.32513 0.14439 -0.05691
 C73 C 0.30337 0.12552 -0.05408
 C74 C 0.30619 0.10662 -0.07577
 H75 H 0.32958 0.16222 -0.04350
 H76 H 0.29274 0.08878 -0.08016
 H77 H 0.37950 0.11394 -0.10754
 H78 H 0.35711 0.13694 -0.13005
 N79 N 0.09225 0.82920 0.38706
 N80 N 0.08162 0.84045 0.36423
 C81 C 0.05893 0.82544 0.35647
 C82 C 0.05538 0.80382 0.37548
 C83 C 0.07673 0.80666 0.39462
 H84 H 0.04598 0.82986 0.33845
 H85 H 0.08068 0.79339 0.41263
 Cu86 Cu 0.09848 0.87360 0.34693
 Cu87 Cu 0.12535 0.84456 0.40527
 Cu88 Cu 0.15518 0.90429 0.37549
 N89 N 0.11509 0.90749 0.33083
 N90 N 0.13727 0.91938 0.34211
 C91 C 0.14444 0.94232 0.32700
 C92 C 0.12573 0.94480 0.30523
 C93 C 0.10737 0.92251 0.30814
 H94 H 0.16190 0.95615 0.33149
 H95 H 0.08979 0.91768 0.29475
 N96 N 0.17026 0.88592 0.40927
 N97 N 0.15888 0.86317 0.42062
 C98 C 0.17390 0.85569 0.44331
 C99 C 0.19558 0.87464 0.44620
 C100 C 0.19281 0.89351 0.42443
 H101 H 0.16948 0.83782 0.45672
 H102 H 0.20624 0.91138 0.42002
 H103 H 0.11954 0.88572 0.39175
 H104 H 0.14273 0.86279 0.37002
 C105 C 0.10330 0.12546 0.14616
 C106 C 0.08253 0.14642 0.14595
 C107 C 0.08244 0.16728 0.12512
 C108 C 0.10310 0.16736 0.10436
 C109 C 0.12404 0.14656 0.10425
 C110 C 0.12417 0.12549 0.12523
 C111 C 0.10359 0.10446 0.16691
 C112 C 0.12444 0.08363 0.16691
 C113 C 0.14515 0.08361 0.14619
 C114 C 0.14517 0.10445 0.12529
 C115 C 0.16581 0.10464 0.10443
 C116 C 0.16563 0.12555 0.08366
 C117 C 0.14483 0.14643 0.08356
 H118 H 0.06643 0.14654 0.16193
 H119 H 0.10284 0.18361 0.08832
 H120 H 0.08765 0.10429 0.18304
 H121 H 0.16119 0.06739 0.14638
 H122 H 0.18200 0.08857 0.10432
 H123 H 0.14488 0.16253 0.06738
 C124 C 0.39585 0.87493 0.64626
 C125 C 0.41667 0.85401 0.64600
 C126 C 0.41673 0.83318 0.62519
 C127 C 0.39600 0.83309 0.60449
 C128 C 0.37502 0.85385 0.60443
 C129 C 0.37491 0.87489 0.62540
 C130 C 0.39558 0.89589 0.66699
 C131 C 0.37469 0.91667 0.66705
 C132 C 0.35392 0.91668 0.64639
 C133 C 0.35387 0.89589 0.62550
 C134 C 0.33317 0.89569 0.60471
 C135 C 0.33332 0.87481 0.58395
 C136 C 0.35416 0.85398 0.58380
 H137 H 0.43281 0.85389 0.66193
 H138 H 0.39623 0.81688 0.58847
 H139 H 0.41157 0.89606 0.68308
 H140 H 0.33784 0.93287 0.64662
 H141 H 0.31694 0.91173 0.60464
 H142 H 0.35410 0.83791 0.56764
 C143 C 0.89654 0.62512 0.35387
 C144 C 0.91733 0.64608 0.35408
 C145 C 0.91743 0.66689 0.37490
 C146 C 0.89676 0.66692 0.39567
 C147 C 0.87581 0.64612 0.39577
 C148 C 0.87567 0.62510 0.37479
 C149 C 0.89624 0.60417 0.33312
 C150 C 0.87539 0.58334 0.33312
 C151 C 0.85467 0.58327 0.35384
 C152 C 0.85465 0.60406 0.37474
 C153 C 0.83402 0.60419 0.39559
 C154 C 0.83421 0.62505 0.41637
 C155 C 0.85501 0.64593 0.41647
 H156 H 0.93343 0.64624 0.33811
 H157 H 0.89702 0.68312 0.41170
 H158 H 0.91219 0.60403 0.31699
 H159 H 0.83862 0.56705 0.35364
 H160 H 0.81782 0.58812 0.39570
 H161 H 0.85498 0.66199 0.43264
 C162 C 0.60427 0.37558 -0.14649
 C163 C 0.58346 0.35464 -0.14619
 C164 C 0.58338 0.33382 -0.12533
 C165 C 0.60410 0.33374 -0.10461
 C166 C 0.62507 0.35451 -0.10460
 C167 C 0.62520 0.37555 -0.12561
 C168 C 0.60456 0.39654 -0.16727
 C169 C 0.62544 0.41734 -0.16736
 C170 C 0.64621 0.41736 -0.14669
 C171 C 0.64624 0.39656 -0.12575
 C172 C 0.66693 0.39637 -0.10495
 C173 C 0.66676 0.37550 -0.08414
 C174 C 0.64592 0.35465 -0.08395
 H175 H 0.56732 0.35452 -0.16213
 H176 H 0.60385 0.31752 -0.08856
 H177 H 0.58858 0.39670 -0.18337
 H178 H 0.66229 0.43356 -0.14695
 H179 H 0.68316 0.41242 -0.10491
 H180 H 0.64598 0.33858 -0.06775
 C181 C -0.03511 0.28410 0.12461
 C182 C -0.01707 0.26627 0.12471
 C183 C 0.00402 0.24538 0.12482
 C184 C 0.02201 0.22752 0.12490
 C185 C 0.04306 0.20658 0.12498
 C186 C 0.06101 0.18868 0.12505
 C187 C 0.53431 0.71639 0.62451
 C188 C 0.51629 0.73423 0.62463
 C189 C 0.49520 0.75513 0.62476
 C190 C 0.47721 0.77299 0.62487
 C191 C 0.45615 0.79392 0.62498
 C192 C 0.43818 0.81181 0.62508
 C193 C 1.03502 0.78374 0.37536
 C194 C 1.01697 0.76591 0.37527
 C195 C 0.99587 0.74501 0.37518
 C196 C 0.97788 0.72715 0.37511
 C197 C 0.95682 0.70620 0.37504
 C198 C 0.93886 0.68830 0.37498
 C199 C 0.46580 0.21697 -0.12444
 C200 C 0.48382 0.23481 -0.12459
 C201 C 0.50491 0.25572 -0.12476
 C202 C 0.52290 0.27359 -0.12490
 C203 C 0.54396 0.29453 -0.12505
 C204 C 0.56193 0.31243 -0.12518
 C205 C 0.12545 -0.03380 0.28389
 C206 C 0.12525 -0.01584 0.26599
 C207 C 0.12504 0.00519 0.24503
 C208 C 0.12488 0.02316 0.22713
 C209 C 0.12471 0.04420 0.20618
 C210 C 0.12457 0.06217 0.18828
 C211 C 0.62621 0.53435 -0.28476
 C212 C 0.62607 0.51648 -0.26677
 C213 C 0.62593 0.49554 -0.24571
 C214 C 0.62581 0.47764 -0.22775
 C215 C 0.62568 0.45667 -0.20673
 C216 C 0.62558 0.43875 -0.18878
 C217 C 0.37393 1.03370 0.78414
 C218 C 0.37407 1.01582 0.76620
 C219 C 0.37423 0.99487 0.74521
 C220 C 0.37434 0.97698 0.72729
 C221 C 0.37447 0.95601 0.70632
 C222 C 0.37457 0.93809 0.68841
 C223 C 0.87443 0.46624 0.21610
 C224 C 0.87463 0.48415 0.23401
 C225 C 0.87483 0.50512 0.25498
 C226 C 0.87497 0.52303 0.27288
 C227 C 0.87512 0.54401 0.29384
 C228 C 0.87524 0.56193 0.31175
 C229 C 0.28211 0.12552 -0.03285
 C230 C 0.26428 0.12552 -0.01504
 C231 C 0.24339 0.12554 0.00582
 C232 C 0.22557 0.12556 0.02363
 C233 C 0.20470 0.12558 0.04451
 C234 C 0.18689 0.12558 0.06235
 C235 C 0.71782 0.62487 0.53298
 C236 C 0.73563 0.62488 0.51514
 C237 C 0.75649 0.62490 0.49425
 C238 C 0.77430 0.62493 0.47642
 C239 C 0.79515 0.62497 0.45553
 C240 C 0.81295 0.62501 0.43769
 C241 C 0.78322 0.37525 0.03240
 C242 C 0.76543 0.37531 0.01455
 C243 C 0.74458 0.37536 -0.00635
 C244 C 0.72677 0.37540 -0.02418
 C245 C 0.70590 0.37544 -0.04506
 C246 C 0.68807 0.37547 -0.06287
 C247 C 0.21679 0.87467 0.46748
 C248 C 0.23459 0.87469 0.48532
 C249 C 0.25545 0.87471 0.50621
 C250 C 0.27327 0.87473 0.52403
 C251 C 0.29415 0.87475 0.54489
 C252 C 0.31200 0.87478 0.56270
   
