data_POSCAR
  _audit_creation_date              2014-09-24
  _audit_creation_method            'ToBaCCo'
  _symmetry_space_group_name_H-M    'P1'
  _symmetry_Int_Tables_number       1
  _symmetry_cell_setting            triclinic
  loop_
  _symmetry_equiv_pos_as_xyz
 x,y,z
_cell_length_a 38.0855
_cell_length_b 38.9720
_cell_length_c 37.5717
_cell_angle_alpha 90.007500
_cell_angle_beta 89.152000
_cell_angle_gamma 90.003800
loop_
  _atom_site_label
  _atom_site_type_symbol
  _atom_site_fract_x
  _atom_site_fract_y
  _atom_site_fract_z
O1 O 0.37539 0.32572 -0.02886
 O2 O 0.33904 0.37556 0.04609
 O3 O 0.38219 0.32508 0.04005
 O4 O 0.33324 0.37729 -0.02356
 O5 O 0.28765 0.34270 -0.01842
 O6 O 0.33835 0.28804 0.04327
 O7 O 0.29461 0.33937 0.05072
 O8 O 0.33071 0.28974 -0.02516
 Cu9 Cu 0.36180 0.35458 0.00795
 Cu10 Cu 0.30821 0.31145 0.01290
 C11 C 0.35947 0.29915 -0.03965
 C12 C 0.31095 0.36569 0.06161
 C13 C 0.36882 0.29768 0.05240
 C14 C 0.30216 0.36917 -0.03201
 O15 O 0.62005 0.67241 -0.03876
 O16 O 0.67069 0.62375 0.02620
 O17 O 0.62450 0.67234 0.02984
 O18 O 0.66515 0.62446 -0.04306
 O19 O 0.71008 0.66014 -0.04380
 O20 O 0.66533 0.71244 0.02568
 O21 O 0.71256 0.66299 0.02464
 O22 O 0.66311 0.71025 -0.04332
 Cu23 Cu 0.64095 0.64431 -0.00588
 Cu24 Cu 0.69210 0.69043 -0.00955
 C25 C 0.63305 0.69944 -0.05238
 C26 C 0.70015 0.63494 0.03653
 C27 C 0.63708 0.70090 0.03959
 C28 C 0.69479 0.63353 -0.05562
 O29 O 0.62321 0.32942 1.03920
 O30 O 0.66361 0.37691 0.96510
 O31 O 0.61699 0.32882 0.97099
 O32 O 0.66940 0.37666 1.03440
 O33 O 0.71312 0.34014 1.02719
 O34 O 0.65738 0.28823 0.96773
 O35 O 0.70465 0.33717 0.95926
 O36 O 0.66569 0.29087 1.03592
 Cu37 Cu 0.63924 0.35699 1.00267
 Cu38 Cu 0.68951 0.31012 0.99711
 C39 C 0.63744 0.30205 1.05018
 C40 C 0.69091 0.36527 0.94951
 C41 C 0.62748 0.29997 0.95938
 C42 C 0.70041 0.36718 1.04130
 O43 O 0.37977 0.67383 1.02951
 O44 O 0.33308 0.62930 0.95807
 O45 O 0.37780 0.67581 0.95778
 O46 O 0.33438 0.62075 1.02258
 O47 O 0.29725 0.66177 1.03789
 O48 O 0.33563 0.71432 0.96427
 O49 O 0.28795 0.66382 0.96776
 O50 O 0.33889 0.71392 1.03225
 Cu51 Cu 0.36145 0.64718 0.99283
 Cu52 Cu 0.31012 0.69199 1.00072
 C53 C 0.36797 0.70184 1.04230
 C54 C 0.30175 0.63830 0.95172
 C55 C 0.36381 0.70399 0.94904
 C56 C 0.30861 0.63123 1.04135
 O57 O -0.03643 0.38116 0.32837
 O58 O 0.02609 0.33089 0.38034
 O59 O 0.03098 0.38281 0.33678
 O60 O -0.04226 0.33072 0.37059
 O61 O -0.03300 0.29231 0.32840
 O62 O 0.03764 0.34742 0.29135
 O63 O 0.03380 0.29501 0.33537
 O64 O -0.03060 0.34449 0.28382
 Cu65 Cu -0.00581 0.35989 0.35865
 Cu66 Cu 0.00273 0.31634 0.30500
 C67 C -0.04471 0.37105 0.29752
 C68 C 0.04043 0.30437 0.36692
 C69 C 0.04645 0.37446 0.30793
 C70 C -0.05004 0.30252 0.35576
 O71 O 0.04553 0.66950 0.63505
 O72 O -0.03400 0.62339 0.66363
 O73 O -0.01681 0.67805 0.62171
 O74 O 0.03519 0.62099 0.67738
 O75 O 0.02595 0.65562 0.72301
 O76 O -0.03602 0.70601 0.66914
 O77 O -0.03937 0.65576 0.71159
 O78 O 0.03366 0.70856 0.67606
 Cu79 Cu 0.00673 0.64348 0.64551
 Cu80 Cu -0.00363 0.68570 0.69928
 C81 C 0.05183 0.69820 0.64941
 C82 C -0.04958 0.63073 0.69277
 C83 C -0.03507 0.70199 0.63559
 C84 C 0.04027 0.62903 0.70963
 O85 O 0.96227 0.66351 0.37954
 O86 O 1.03326 0.62464 0.32578
 O87 O 1.03112 0.66662 0.37913
 O88 O 0.96508 0.62053 0.32787
 O89 O 0.96385 0.66266 0.28854
 O90 O 1.02598 0.71155 0.34400
 O91 O 1.03182 0.66852 0.28863
 O92 O 0.95836 0.70591 0.34082
 Cu93 Cu 0.99839 0.63959 0.35689
 Cu94 Cu 0.99516 0.69158 0.31163
 C95 C 0.94768 0.69095 0.36899
 C96 C 1.04445 0.63979 0.29795
 C97 C 1.03919 0.69729 0.37119
 C98 C 0.95325 0.63355 0.29953
 O99 O 0.98132 0.33151 0.61547
 O100 O 1.03436 0.37695 0.68132
 O101 O 1.04635 0.33444 0.63063
 O102 O 0.96756 0.37713 0.66455
 O103 O 0.96021 0.33676 0.70524
 O104 O 1.03581 0.29010 0.66565
 O105 O 1.02702 0.33394 0.71900
 O106 O 0.96869 0.29122 0.65506
 Cu107 Cu 1.00803 0.35951 0.64444
 Cu108 Cu 0.99720 0.30879 0.69032
 C109 C 0.96604 0.30367 0.62399
 C110 C 1.04038 0.36282 0.71105
 C111 C 1.05380 0.30437 0.64092
 C112 C 0.95063 0.36464 0.69079
 O113 O 0.37008 0.02952 0.32705
 O114 O 0.31621 -0.03557 0.37209
 O115 O 0.36825 -0.03690 0.32769
 O116 O 0.31864 0.03174 0.37190
 O117 O 0.28061 0.03253 0.32805
 O118 O 0.33159 -0.03569 0.28270
 O119 O 0.27839 -0.03456 0.32807
 O120 O 0.33325 0.03041 0.28219
 Cu121 Cu 0.34684 -0.00292 0.35430
 Cu122 Cu 0.30199 -0.00177 0.30086
 C123 C 0.36113 0.04085 0.29686
 C124 C 0.28843 -0.04645 0.35769
 C125 C 0.35880 -0.04764 0.29746
 C126 C 0.29156 0.04414 0.35747
 O127 O 0.63568 0.03842 0.67896
 O128 O 0.69276 -0.01998 0.62793
 O129 O 0.63825 -0.02848 0.67080
 O130 O 0.68787 0.04495 0.63583
 O131 O 0.72587 0.04011 0.67943
 O132 O 0.67240 -0.03053 0.71772
 O133 O 0.72699 -0.02636 0.67447
 O134 O 0.67189 0.03594 0.72425
 Cu135 Cu 0.65976 0.00870 0.64901
 Cu136 Cu 0.70282 0.00443 0.70367
 C137 C 0.64437 0.04774 0.70997
 C138 C 0.71982 -0.03262 0.64222
 C139 C 0.64630 -0.04165 0.70048
 C140 C 0.71576 0.05451 0.65097
 O141 O 0.38431 0.96833 0.65636
 O142 O 0.33654 1.03567 0.60950
 O143 O 0.38379 1.03509 0.65782
 O144 O 0.33560 0.96862 0.60963
 O145 O 0.29466 0.96816 0.65184
 O146 O 0.34294 1.03552 0.70012
 O147 O 0.29500 1.03533 0.65113
 O148 O 0.34429 0.96876 0.69951
 Cu149 Cu 0.36407 1.00196 0.62906
 Cu150 Cu 0.31502 1.00187 0.67988
 C151 C 0.37264 0.95710 0.68591
 C152 C 0.30786 1.04721 0.62224
 C153 C 0.37164 1.04682 0.68705
 C154 C 0.30713 0.95673 0.62261
 O155 O 0.66900 1.02876 0.38827
 O156 O 0.62041 0.96414 0.33776
 O157 O 0.66521 0.96190 0.38833
 O158 O 0.62389 1.03097 0.33721
 O159 O 0.66703 1.02870 0.29738
 O160 O 0.70809 0.95867 0.34829
 O161 O 0.66290 0.96237 0.29712
 O162 O 0.71317 1.02518 0.34985
 Cu163 Cu 0.64034 0.99687 0.36682
 Cu164 Cu 0.69223 0.99379 0.31918
 C165 C 0.69974 1.03750 0.37832
 C166 C 0.63325 0.95219 0.30895
 C167 C 0.69347 0.94821 0.37692
 C168 C 0.63808 1.04129 0.30839
 C169 C 0.86375 0.75728 0.47377
 C170 C 0.88309 0.75003 0.50408
 C171 C 0.88114 0.77044 0.53476
 C172 C 0.85715 0.79838 0.53577
 C173 C 0.83544 0.80467 0.50594
 C174 C 0.83897 0.78421 0.47479
 C175 C 0.81736 0.79090 0.44562
 C176 C 0.79321 0.81764 0.44655
 C177 C 0.78976 0.83878 0.47667
 C178 C 0.81078 0.83208 0.50683
 C179 C 0.85497 0.82090 0.56497
 C180 C 0.83056 0.84752 0.56599
 C181 C 0.80765 0.85312 0.53761
 C182 C 0.78254 0.87997 0.53844
 C183 C 0.76176 0.88569 0.50861
 C184 C 0.76548 0.86620 0.47763
 H185 H 0.81858 0.77516 0.42191
 H186 H 0.77695 0.82131 0.42348
 H187 H 0.87237 0.81865 0.58726
 H188 H 0.83031 0.86403 0.58912
 H189 H 0.90140 0.72875 0.50306
 H190 H 0.74279 0.90645 0.50915
 C191 C 0.11933 0.23049 0.47134
 C192 C 0.10916 0.24224 0.50506
 C193 C 0.12587 0.23107 0.53587
 C194 C 0.15225 0.20569 0.53330
 C195 C 0.16170 0.19211 0.49942
 C196 C 0.14542 0.20475 0.46827
 C197 C 0.15644 0.19208 0.43488
 C198 C 0.18261 0.16724 0.43209
 C199 C 0.19899 0.15430 0.46254
 C200 C 0.18863 0.16699 0.49654
 C201 C 0.17047 0.19463 0.56343
 C202 C 0.19685 0.17014 0.56061
 C203 C 0.20603 0.15556 0.52756
 C204 C 0.23318 0.13093 0.52443
 C205 C 0.24272 0.11849 0.49077
 C206 C 0.22644 0.12999 0.45991
 H207 H 0.14518 0.20146 0.41049
 H208 H 0.19025 0.15868 0.40570
 H209 H 0.16500 0.20514 0.58955
 H210 H 0.21039 0.16336 0.58468
 H211 H 0.08841 0.26116 0.50739
 H212 H 0.26337 0.09940 0.48849
 C213 C 0.11781 0.76832 0.47746
 C214 C 0.10709 0.75875 0.51191
 C215 C 0.12394 0.77120 0.54209
 C216 C 0.15107 0.79557 0.53833
 C217 C 0.16095 0.80731 0.50393
 C218 C 0.14482 0.79324 0.47328
 C219 C 0.15677 0.80399 0.43945
 C220 C 0.18223 0.82943 0.43578
 C221 C 0.19765 0.84435 0.46576
 C222 C 0.18759 0.83266 0.50017
 C223 C 0.16883 0.80814 0.56813
 C224 C 0.19535 0.83242 0.56438
 C225 C 0.20455 0.84580 0.53077
 C226 C 0.23086 0.87129 0.52667
 C227 C 0.23908 0.88360 0.49260
 C228 C 0.22342 0.87019 0.46227
 H229 H 0.14669 0.79291 0.41531
 H230 H 0.19003 0.83710 0.40911
 H231 H 0.16249 0.79915 0.59472
 H232 H 0.20853 0.84039 0.58824
 H233 H 0.08539 0.74114 0.51550
 H234 H 0.25827 0.90401 0.48955
 C235 C 0.77766 0.11899 0.47799
 C236 C 0.77071 0.10868 0.51309
 C237 C 0.78790 0.12335 0.54198
 C238 C 0.81513 0.14728 0.53574
 C239 C 0.82189 0.15904 0.50056
 C240 C 0.80254 0.14548 0.47165
 C241 C 0.80775 0.15961 0.43754
 C242 C 0.83217 0.18564 0.43164
 C243 C 0.85235 0.19854 0.45959
 C244 C 0.84720 0.18529 0.49447
 C245 C 0.83545 0.16005 0.56367
 C246 C 0.86158 0.18436 0.55737
 C247 C 0.86677 0.19873 0.52338
 C248 C 0.89136 0.22560 0.51711
 C249 C 0.89715 0.23664 0.48206
 C250 C 0.87725 0.22475 0.45377
 H251 H 0.79245 0.15128 0.41513
 H252 H 0.83504 0.19567 0.40489
 H253 H 0.83181 0.15090 0.59064
 H254 H 0.87772 0.19157 0.57955
 H255 H 0.75130 0.08892 0.51828
 H256 H 0.91661 0.25628 0.47656
 C257 C 0.53044 0.77293 0.86845
 C258 C 0.49755 0.76198 0.88105
 C259 C 0.46642 0.77571 0.86796
 C260 C 0.46794 0.80141 0.84146
 C261 C 0.50107 0.81313 0.82857
 C262 C 0.53247 0.79887 0.84211
 C263 C 0.56489 0.80974 0.82773
 C264 C 0.56658 0.83449 0.80111
 C265 C 0.53593 0.84927 0.78751
 C266 C 0.50279 0.83810 0.80100
 C267 C 0.43722 0.81455 0.82643
 C268 C 0.43889 0.83855 0.79910
 C269 C 0.47135 0.85090 0.78614
 C270 C 0.47330 0.87476 0.75780
 C271 C 0.50611 0.88597 0.74532
 C272 C 0.53740 0.87384 0.75973
 H273 H 0.58941 0.79881 0.83636
 H274 H 0.59229 0.84117 0.79067
 H275 H 0.41151 0.80584 0.83514
 H276 H 0.41432 0.84681 0.78791
 H277 H 0.49612 0.74194 0.90107
 H278 H 0.50728 0.90493 0.72420
 C279 C 0.53691 0.12078 0.23461
 C280 C 0.50480 0.10671 0.24579
 C281 C 0.47287 0.11931 0.23328
 C282 C 0.47286 0.14608 0.20785
 C283 C 0.50524 0.15999 0.19551
 C284 C 0.53737 0.14751 0.20917
 C285 C 0.56907 0.16239 0.19739
 C286 C 0.56930 0.18880 0.17245
 C287 C 0.53784 0.20116 0.15807
 C288 C 0.50546 0.18681 0.16989
 C289 C 0.44132 0.15968 0.19488
 C290 C 0.44153 0.18595 0.16979
 C291 C 0.47327 0.19972 0.15672
 C292 C 0.47371 0.22655 0.13136
 C293 C 0.50585 0.23982 0.11943
 C294 C 0.53775 0.22808 0.13284
 H295 H 0.59405 0.15386 0.20754
 H296 H 0.59446 0.19954 0.16475
 H297 H 0.41607 0.15029 0.20415
 H298 H 0.41646 0.19551 0.16090
 H299 H 0.50473 0.08548 0.26441
 H300 H 0.50615 0.25968 0.09924
 C301 C 0.46937 0.12694 0.76627
 C302 C 0.50260 0.11350 0.75796
 C303 C 0.53297 0.12569 0.77401
 C304 C 0.53025 0.15103 0.80080
 C305 C 0.49666 0.16382 0.81097
 C306 C 0.46611 0.15223 0.79328
 C307 C 0.43348 0.16701 0.80242
 C308 C 0.43051 0.19107 0.82966
 C309 C 0.46019 0.20213 0.84809
 C310 C 0.49373 0.18897 0.83823
 C311 C 0.56026 0.16447 0.81708
 C312 C 0.55742 0.18950 0.84341
 C313 C 0.52441 0.20156 0.85497
 C314 C 0.52104 0.22658 0.88211
 C315 C 0.48757 0.23767 0.89272
 C316 C 0.45738 0.22662 0.87565
 H317 H 0.40977 0.16046 0.78858
 H318 H 0.40470 0.20127 0.83588
 H319 H 0.58633 0.15594 0.80937
 H320 H 0.58144 0.19928 0.85452
 H321 H 0.50491 0.09322 0.73832
 H322 H 0.48499 0.25587 0.91445
 C323 C 0.53485 0.77330 0.12337
 C324 C 0.50298 0.76167 0.10986
 C325 C 0.47084 0.77223 0.12415
 C326 C 0.47010 0.79735 0.15123
 C327 C 0.50218 0.81063 0.16432
 C328 C 0.53476 0.79813 0.15076
 C329 C 0.56611 0.81019 0.16549
 C330 C 0.56556 0.83465 0.19259
 C331 C 0.53365 0.84822 0.20568
 C332 C 0.50164 0.83584 0.19159
 C333 C 0.43820 0.80908 0.16594
 C334 C 0.43766 0.83403 0.19235
 C335 C 0.46902 0.84803 0.20528
 C336 C 0.46858 0.87346 0.23206
 C337 C 0.50025 0.88596 0.24508
 C338 C 0.53265 0.87316 0.23311
 H339 H 0.59135 0.80064 0.15633
 H340 H 0.59048 0.84269 0.20320
 H341 H 0.41328 0.79904 0.15720
 H342 H 0.41231 0.84198 0.20279
 H343 H 0.50328 0.74366 0.08787
 H344 H 0.49978 0.90619 0.26486
 C345 C 0.75699 0.46606 0.86102
 C346 C 0.74664 0.49755 0.87548
 C347 C 0.75733 0.52870 0.86044
 C348 C 0.78138 0.52854 0.83139
 C349 C 0.79417 0.49680 0.81792
 C350 C 0.78136 0.46541 0.83225
 C351 C 0.79247 0.43438 0.81676
 C352 C 0.81696 0.43404 0.78895
 C353 C 0.83134 0.46472 0.77548
 C354 C 0.81909 0.49645 0.78939
 C355 C 0.79222 0.55913 0.81479
 C356 C 0.81666 0.55878 0.78696
 C357 C 0.83134 0.52783 0.77457
 C358 C 0.85714 0.52731 0.74703
 C359 C 0.86934 0.49577 0.73411
 C360 C 0.85687 0.46458 0.74774
 H361 H 0.78224 0.40996 0.82576
 H362 H 0.82409 0.40937 0.77787
 H363 H 0.78174 0.58374 0.82292
 H364 H 0.82347 0.58314 0.77495
 H365 H 0.72971 0.49766 0.89886
 H366 H 0.88985 0.49546 0.71377
 C367 C 0.25087 0.46862 0.14909
 C368 C 0.26294 0.49802 0.13173
 C369 C 0.24518 0.52964 0.13351
 C370 C 0.21450 0.53196 0.15566
 C371 C 0.20359 0.50280 0.17598
 C372 C 0.22173 0.47112 0.17246
 C373 C 0.21090 0.44291 0.19308
 C374 C 0.18206 0.44520 0.21596
 C375 C 0.16272 0.47578 0.21907
 C376 C 0.17407 0.50508 0.19953
 C377 C 0.19383 0.56186 0.15779
 C378 C 0.16632 0.56474 0.18254
 C379 C 0.15640 0.53682 0.20403
 C380 C 0.12900 0.53957 0.22966
 C381 C 0.11689 0.51012 0.24719
 C382 C 0.13293 0.47816 0.24200
 H383 H 0.22511 0.41888 0.19229
 H384 H 0.17572 0.42284 0.23178
 H385 H 0.19816 0.58334 0.14021
 H386 H 0.15221 0.58882 0.18402
 H387 H 0.28629 0.49562 0.11517
 H388 H 0.09466 0.51228 0.26544
 C389 C 0.77779 0.53335 0.11123
 C390 C 0.76687 0.50206 0.09709
 C391 C 0.77761 0.47079 0.11144
 C392 C 0.80254 0.47058 0.13897
 C393 C 0.81549 0.50219 0.15229
 C394 C 0.80274 0.53372 0.13868
 C395 C 0.81421 0.56465 0.15381
 C396 C 0.83805 0.56474 0.18148
 C397 C 0.85135 0.53389 0.19517
 C398 C 0.83979 0.50227 0.18061
 C399 C 0.81385 0.43975 0.15443
 C400 C 0.83789 0.43982 0.18190
 C401 C 0.85136 0.47073 0.19527
 C402 C 0.87492 0.47106 0.22398
 C403 C 0.88628 0.50237 0.23775
 C404 C 0.87473 0.53367 0.22407
 H405 H 0.80459 0.58919 0.14472
 H406 H 0.84538 0.58933 0.19242
 H407 H 0.80397 0.41517 0.14577
 H408 H 0.84521 0.41529 0.19303
 H409 H 0.74855 0.50218 0.07531
 H410 H 0.90448 0.50239 0.25970
 C411 C 0.11279 0.46167 0.79270
 C412 C 0.09789 0.49200 0.78003
 C413 C 0.11149 0.52409 0.78907
 C414 C 0.13963 0.52612 0.81317
 C415 C 0.15434 0.49555 0.82717
 C416 C 0.14127 0.46319 0.81634
 C417 C 0.15744 0.43323 0.82884
 C418 C 0.18580 0.43493 0.85175
 C419 C 0.19864 0.46664 0.86390
 C420 C 0.18298 0.49734 0.85101
 C421 C 0.15414 0.55786 0.82277
 C422 C 0.18216 0.55967 0.84598
 C423 C 0.19675 0.52983 0.86073
 C424 C 0.22563 0.53153 0.88385
 C425 C 0.23997 0.50122 0.89719
 C426 C 0.22751 0.46876 0.88738
 H427 H 0.14848 0.40811 0.82067
 H428 H 0.19772 0.41094 0.85927
 H429 H 0.14416 0.58170 0.81217
 H430 H 0.19248 0.58485 0.85180
 H431 H 0.07616 0.49048 0.76178
 H432 H 0.26173 0.50305 0.91541
 C433 C 0.26158 0.38415 0.10218
 C434 C 0.29717 0.38526 0.09242
 C435 C 0.31892 0.40785 0.11145
 C436 C 0.30414 0.43253 0.13463
 C437 C 0.26734 0.43539 0.13866
 C438 C 0.24697 0.40889 0.12452
 C439 C 0.21385 0.41042 0.10387
 C440 C 0.22981 0.38339 0.07940
 H441 H 0.34695 0.40845 0.10618
 H442 H 0.32116 0.45172 0.14609
 H443 H 0.20998 0.43564 0.09064
 H444 H 0.19089 0.40089 0.11958
 H445 H 0.23531 0.39302 0.05209
 H446 H 0.21596 0.35831 0.08085
 C447 C 0.75708 0.61520 0.06189
 C448 C 0.72030 0.61468 0.06215
 C449 C 0.70319 0.59168 0.08555
 C450 C 0.72250 0.56689 0.10409
 C451 C 0.75918 0.56450 0.09933
 C452 C 0.77611 0.59042 0.07989
 C453 C 0.80315 0.58790 0.05092
 C454 C 0.78238 0.61500 0.03111
 H455 H 0.67479 0.59122 0.08756
 H456 H 0.70853 0.54786 0.11983
 H457 H 0.80323 0.56242 0.03758
 H458 H 0.82926 0.59711 0.05965
 H459 H 0.77044 0.60528 0.00620
 H460 H 0.79659 0.63979 0.02835
 C461 C 0.74341 0.38451 0.91400
 C462 C 0.70707 0.38509 0.92026
 C463 C 0.68685 0.40784 0.89986
 C464 C 0.70326 0.43237 0.87778
 C465 C 0.74018 0.43481 0.87595
 C466 C 0.75961 0.40908 0.89258
 C467 C 0.79049 0.41183 0.91633
 C468 C 0.77283 0.38496 0.93988
 H469 H 0.65853 0.40835 0.90292
 H470 H 0.68720 0.45125 0.86450
 H471 H 0.79251 0.43744 0.92921
 H472 H 0.81500 0.40247 0.90316
 H473 H 0.76465 0.39495 0.96648
 H474 H 0.78724 0.36018 0.94034
 C475 C 0.24442 0.61664 0.92832
 C476 C 0.28119 0.61780 0.92648
 C477 C 0.29823 0.59496 0.90275
 C478 C 0.27939 0.56847 0.88623
 C479 C 0.24322 0.56420 0.89323
 C480 C 0.22597 0.59014 0.91242
 C481 C 0.19993 0.58803 0.94233
 C482 C 0.21987 0.61728 0.95972
 H483 H 0.32650 0.59567 0.89931
 H484 H 0.29361 0.54963 0.87047
 H485 H 0.20162 0.56344 0.95722
 H486 H 0.17312 0.59542 0.93392
 H487 H 0.23270 0.60990 0.98494
 H488 H 0.20454 0.64152 0.96110
 C489 C 0.09186 0.29959 0.40709
 C490 C 0.06479 0.28404 0.38832
 C491 C 0.06082 0.24819 0.39192
 C492 C 0.07988 0.23003 0.41789
 C493 C 0.10366 0.24740 0.44003
 C494 C 0.11088 0.28182 0.43206
 C495 C 0.11557 0.31321 0.45444
 C496 C 0.09438 0.33264 0.42684
 H497 H 0.04102 0.23479 0.37688
 H498 H 0.07441 0.20307 0.42220
 H499 H 0.14347 0.32148 0.45529
 H500 H 0.10197 0.31198 0.48072
 H501 H 0.11011 0.35208 0.41196
 H502 H 0.06855 0.34173 0.43727
 C503 C 0.10835 0.70769 0.61561
 C504 C 0.07812 0.72081 0.63247
 C505 C 0.06954 0.75542 0.62564
 C506 C 0.08664 0.77347 0.59778
 C507 C 0.11304 0.75734 0.57714
 C508 C 0.12578 0.72582 0.58907
 C509 C 0.13602 0.69402 0.56943
 C510 C 0.11655 0.67399 0.59833
 H511 H 0.04677 0.76697 0.63843
 H512 H 0.07696 0.79850 0.59018
 H513 H 0.16488 0.68975 0.56949
 H514 H 0.12370 0.69200 0.54295
 H515 H 0.13419 0.65794 0.61474
 H516 H 0.09303 0.66056 0.58808
 C517 C 0.90866 0.74022 0.38610
 C518 C 0.91824 0.70574 0.38987
 C519 C 0.90019 0.68630 0.41600
 C520 C 0.87794 0.70254 0.44111
 C521 C 0.87361 0.73850 0.44070
 C522 C 0.88703 0.75627 0.41109
 C523 C 0.90752 0.78888 0.40918
 C524 C 0.93121 0.77135 0.38181
 H525 H 0.90549 0.65916 0.41892
 H526 H 0.86730 0.68758 0.46305
 H527 H 0.92100 0.79492 0.43449
 H528 H 0.89191 0.81026 0.39790
 H529 H 0.95844 0.76725 0.39122
 H530 H 0.92926 0.78269 0.35476
 C531 C 0.96028 0.27936 0.56338
 C532 C 0.94573 0.28547 0.59705
 C533 C 0.91072 0.27517 0.60330
 C534 C 0.89246 0.25629 0.57730
 C535 C 0.90971 0.24525 0.54565
 C536 C 0.94307 0.25928 0.53889
 C537 C 0.97629 0.24333 0.52544
 C538 C 0.99536 0.26555 0.55231
 H539 H 0.89758 0.28162 0.62818
 H540 H 0.86518 0.24996 0.58233
 H541 H 0.98231 0.25052 0.49737
 H542 H 0.97773 0.21542 0.53138
 H543 H 1.01229 0.28549 0.53969
 H544 H 1.00806 0.25048 0.57356
 C545 C 0.40146 0.09142 0.29766
 C546 C 0.38383 0.06602 0.27864
 C547 C 0.39100 0.06366 0.24177
 C548 C 0.41910 0.08239 0.22631
 C549 C 0.43997 0.10402 0.24745
 C550 C 0.42866 0.11003 0.28247
 C551 C 0.44772 0.11217 0.31685
 C552 C 0.41765 0.09176 0.33357
 H553 H 0.37715 0.04519 0.22565
 H554 H 0.42601 0.07819 0.19858
 H555 H 0.44938 0.13890 0.32698
 H556 H 0.47272 0.09763 0.31665
 H557 H 0.40186 0.10683 0.35317
 H558 H 0.42583 0.06587 0.34270
 C559 C 0.60692 0.10039 0.71187
 C560 C 0.62204 0.07251 0.72935
 C561 C 0.61316 0.06793 0.76566
 C562 C 0.58556 0.08719 0.78148
 C563 C 0.56705 0.11164 0.76135
 C564 C 0.58039 0.11958 0.72745
 C565 C 0.56342 0.12624 0.69250
 C566 C 0.59261 0.10484 0.67540
 H567 H 0.62509 0.04744 0.78073
 H568 H 0.57687 0.08106 0.80831
 H569 H 0.56470 0.15378 0.68492
 H570 H 0.53715 0.11424 0.68998
 H571 H 0.61048 0.12007 0.65788
 H572 H 0.58293 0.08045 0.66373
 C573 C 0.39245 0.92817 0.74157
 C574 C 0.39247 0.93025 0.70440
 C575 C 0.41430 0.90743 0.68516
 C576 C 0.43871 0.88674 0.70291
 C577 C 0.44182 0.88865 0.74018
 C578 C 0.41677 0.90793 0.75906
 C579 C 0.42185 0.93376 0.78775
 C580 C 0.39574 0.95622 0.76839
 H581 H 0.41424 0.90730 0.65633
 H582 H 0.45702 0.87139 0.68737
 H583 H 0.44891 0.94450 0.78785
 H584 H 0.41186 0.92445 0.81396
 H585 H 0.40806 0.97956 0.75672
 H586 H 0.37093 0.96053 0.78369
 C587 C 0.61468 0.92424 0.25210
 C588 C 0.61338 0.92610 0.28932
 C589 C 0.59049 0.90352 0.30754
 C590 C 0.56635 0.88343 0.28873
 C591 C 0.56437 0.88579 0.25137
 C592 C 0.59042 0.90477 0.23354
 C593 C 0.58722 0.93105 0.20494
 C594 C 0.61371 0.95243 0.22519
 H595 H 0.58959 0.90312 0.33636
 H596 H 0.54722 0.86836 0.30354
 H597 H 0.56063 0.94282 0.20421
 H598 H 0.59751 0.92157 0.17890
 H599 H 0.60251 0.97664 0.23619
 H600 H 0.63922 0.95535 0.21075
 C601 C 0.39222 0.29406 0.90224
 C602 C 0.37531 0.27861 0.93142
 C603 C 0.37792 0.24260 0.93436
 C604 C 0.40226 0.22426 0.91288
 C605 C 0.42361 0.24167 0.88777
 C606 C 0.41549 0.27602 0.88071
 C607 C 0.43773 0.30705 0.87409
 C608 C 0.41223 0.32678 0.89803
 H609 H 0.36445 0.22929 0.95587
 H610 H 0.40707 0.19745 0.91858
 H611 H 0.43702 0.31543 0.84584
 H612 H 0.46442 0.30522 0.88537
 H613 H 0.39706 0.34659 0.88355
 H614 H 0.42440 0.33562 0.92312
 C615 C 0.61318 0.75415 0.91951
 C616 C 0.61261 0.71829 0.92117
 C617 C 0.58927 0.70073 0.89881
 C618 C 0.56420 0.71887 0.87921
 C619 C 0.56176 0.75485 0.88190
 C620 C 0.58802 0.77202 0.90057
 C621 C 0.58503 0.79944 0.92811
 C622 C 0.61253 0.77992 0.94897
 H623 H 0.58883 0.67294 0.89835
 H624 H 0.54502 0.70466 0.86413
 H625 H 0.55878 0.79995 0.94147
 H626 H 0.59455 0.82463 0.91800
 H627 H 0.60227 0.76914 0.97449
 H628 H 0.63784 0.79394 0.95095
 C629 C 0.40736 0.70408 0.09501
 C630 C 0.38843 0.72087 0.06864
 C631 C 0.39089 0.75700 0.06722
 C632 C 0.41621 0.77447 0.08749
 C633 C 0.43880 0.75610 0.10998
 C634 C 0.43171 0.72118 0.11528
 C635 C 0.45435 0.68996 0.11827
 C636 C 0.42751 0.67130 0.09560
 H637 H 0.37568 0.77133 0.04816
 H638 H 0.42001 0.80174 0.08343
 H639 H 0.45523 0.68019 0.14603
 H640 H 0.48032 0.69228 0.10475
 H641 H 0.41322 0.65072 0.11030
 H642 H 0.43803 0.66388 0.06892
 C643 C 0.62026 0.24686 0.07962
 C644 C 0.62002 0.28279 0.07907
 C645 C 0.59812 0.29985 0.10392
 C646 C 0.57344 0.28140 0.12448
 C647 C 0.57012 0.24563 0.12038
 C648 C 0.59560 0.22867 0.09970
 C649 C 0.59138 0.20206 0.07157
 C650 C 0.61828 0.22192 0.04950
 H651 H 0.59786 0.32762 0.10516
 H652 H 0.55476 0.29538 0.14097
 H653 H 0.56469 0.20211 0.05994
 H654 H 0.60099 0.17652 0.08028
 H655 H 0.60719 0.23349 0.02504
 H656 H 0.64334 0.20776 0.04538
 C657 C 0.25355 0.08041 0.60734
 C658 C 0.28968 0.07483 0.60312
 C659 C 0.30801 0.09540 0.57816
 C660 C 0.28967 0.11665 0.55459
 C661 C 0.25267 0.11752 0.55534
 C662 C 0.23545 0.10101 0.58370
 C663 C 0.20422 0.07800 0.58385
 C664 C 0.22404 0.05525 0.60957
 H665 H 0.33624 0.09323 0.57510
 H666 H 0.30419 0.13002 0.53382
 H667 H 0.19980 0.06577 0.55754
 H668 H 0.18077 0.09048 0.59615
 H669 H 0.23132 0.03004 0.59795
 H670 H 0.21182 0.05427 0.63660
 C671 C 0.70347 0.07710 0.42843
 C672 C 0.71895 0.06014 0.39954
 C673 C 0.75559 0.06578 0.39471
 C674 C 0.77487 0.08568 0.41956
 C675 C 0.75794 0.10155 0.44919
 C676 C 0.72172 0.09676 0.45163
 C677 C 0.69033 0.10322 0.47489
 C678 C 0.66973 0.08095 0.44858
 H679 H 0.76974 0.05350 0.37299
 H680 H 0.80308 0.08767 0.41622
 H681 H 0.68239 0.13066 0.47488
 H682 H 0.69238 0.09126 0.50162
 H683 H 0.64985 0.09549 0.43332
 H684 H 0.66048 0.05627 0.46022
 C685 C 0.75190 0.91266 0.62845
 C686 C 0.74395 0.94676 0.62024
 C687 C 0.75757 0.96040 0.58825
 C688 C 0.77470 0.93912 0.56333
 C689 C 0.77715 0.90345 0.56922
 C690 C 0.76769 0.89131 0.60317
 C691 C 0.74558 0.86136 0.61384
 C692 C 0.72829 0.88462 0.64150
 H693 H 0.75259 0.98689 0.58124
 H694 H 0.78254 0.94990 0.53785
 H695 H 0.76141 0.84045 0.62573
 H696 H 0.72748 0.85314 0.59250
 H697 H 0.73414 0.87705 0.66931
 H698 H 0.70011 0.88983 0.63628
 C699 C 0.28397 0.89676 0.38793
 C700 C 0.26791 0.92676 0.37584
 C701 C 0.23234 0.93197 0.38524
 C702 C 0.21600 0.91094 0.41127
 C703 C 0.23494 0.88422 0.42752
 C704 C 0.26783 0.87583 0.41292
 C705 C 0.30200 0.86651 0.42943
 C706 C 0.31973 0.88971 0.40194
 H707 H 0.21853 0.95434 0.37560
 H708 H 0.19007 0.91769 0.42120
 H709 H 0.30848 0.83894 0.42561
 H710 H 0.30473 0.87604 0.45710
 H711 H 0.33643 0.87545 0.38247
 H712 H 0.33220 0.91265 0.41397
 C713 C 0.09645 0.39206 0.72640
 C714 C 0.06301 0.38046 0.73650
 C715 C 0.05051 0.38925 0.77081
 C716 C 0.06849 0.41389 0.79127
 C717 C 0.09965 0.42905 0.77802
 C718 C 0.11460 0.41540 0.74692
 C719 C 0.13040 0.43252 0.71494
 C720 C 0.11026 0.40697 0.69238
 H721 H 0.02522 0.37995 0.78016
 H722 H 0.05654 0.42322 0.81575
 H723 H 0.15932 0.42889 0.71332
 H724 H 0.12138 0.45940 0.71166
 H725 H 0.12762 0.38876 0.67767
 H726 H 0.08952 0.41925 0.67622
 C727 C 0.10296 0.61141 0.29089
 C728 C 0.07176 0.62308 0.27598
 C729 C 0.06514 0.61365 0.24042
 C730 C 0.08597 0.58830 0.22331
 C731 C 0.11414 0.57289 0.24128
 C732 C 0.12383 0.58725 0.27386
 C733 C 0.13447 0.57141 0.30830
 C734 C 0.11133 0.59794 0.32697
 H735 H 0.04182 0.62291 0.22740
 H736 H 0.07809 0.57855 0.19764
 H737 H 0.16289 0.57505 0.31345
 H738 H 0.12477 0.54475 0.31196
 H739 H 0.12646 0.61671 0.34290
 H740 H 0.08827 0.58637 0.34091
 C741 C 0.92879 0.39164 0.24066
 C742 C 0.92872 0.39051 0.27789
 C743 C 0.90369 0.41065 0.29638
 C744 C 0.88335 0.43486 0.27817
 C745 C 0.88777 0.43942 0.24120
 C746 C 0.90886 0.41579 0.22271
 C747 C 0.93690 0.42180 0.19533
 C748 C 0.95889 0.39564 0.21507
 H749 H 0.90166 0.40952 0.32514
 H750 H 0.86647 0.45201 0.29333
 H751 H 0.94778 0.44827 0.19632
 H752 H 0.92892 0.41296 0.16851
 H753 H 0.98228 0.40712 0.22776
 H754 H 0.96398 0.37186 0.19950
 C755 C 0.91176 0.60811 0.74157
 C756 C 0.92071 0.60958 0.70535
 C757 C 0.90191 0.58837 0.68193
 C758 C 0.87847 0.56337 0.69532
 C759 C 0.87367 0.55892 0.73236
 C760 C 0.88916 0.58313 0.75473
 C761 C 0.90994 0.57821 0.78765
 C762 C 0.93484 0.60558 0.77330
 H763 H 0.90701 0.58952 0.65352
 H764 H 0.86623 0.54582 0.67690
 H765 H 0.92206 0.55230 0.78917
 H766 H 0.89516 0.58644 0.81192
 H767 H 0.96148 0.59558 0.76655
 H768 H 0.93448 0.62952 0.78938
 C769 C 0.69074 0.59097 0.89712
 C770 C 0.71055 0.61343 0.91782
 C771 C 0.74738 0.61271 0.91212
 C772 C 0.76303 0.58592 0.89185
 C773 C 0.74205 0.56062 0.87548
 C774 C 0.70578 0.56606 0.87617
 C775 C 0.67347 0.54419 0.87773
 C776 C 0.65697 0.57194 0.90133
 H777 H 0.76427 0.63021 0.92632
 H778 H 0.79137 0.58365 0.89107
 H779 H 0.67660 0.51957 0.89211
 H780 H 0.66079 0.54203 0.85137
 H781 H 0.65201 0.56312 0.92910
 H782 H 0.63476 0.58549 0.88860
 C783 C 0.24794 0.38655 0.93806
 C784 C 0.28424 0.38956 0.94331
 C785 C 0.30225 0.41457 0.92277
 C786 C 0.28382 0.43817 0.90172
 C787 C 0.24676 0.43829 0.90137
 C788 C 0.22973 0.41077 0.91830
 C789 C 0.19867 0.41018 0.94280
 C790 C 0.21842 0.38377 0.96459
 H791 H 0.33054 0.41699 0.92405
 H792 H 0.29851 0.45798 0.88783
 H793 H 0.17502 0.39953 0.92980
 H794 H 0.19463 0.43499 0.95690
 H795 H 0.20599 0.35797 0.96435
 H796 H 0.22573 0.39333 0.99128
 C797 C 0.29582 0.57307 0.05844
 C798 C 0.29305 0.60816 0.06526
 C799 C 0.27649 0.61812 0.09758
 C800 C 0.26208 0.59306 0.12105
 C801 C 0.26026 0.55805 0.11079
 C802 C 0.27876 0.54936 0.07956
 C803 C 0.26915 0.52723 0.04883
 C804 C 0.28817 0.55321 0.02533
 H805 H 0.27589 0.64488 0.10535
 H806 H 0.25249 0.60131 0.14689
 H807 H 0.24034 0.52641 0.04451
 H808 H 0.28244 0.50184 0.04939
 H809 H 0.27053 0.56708 0.00699
 H810 H 0.31246 0.54280 0.01261
 C811 C 0.70456 0.41076 0.08752
 C812 C 0.72047 0.38725 0.06418
 C813 C 0.75766 0.38666 0.06346
 C814 C 0.77695 0.41310 0.08023
 C815 C 0.75941 0.43940 0.09936
 C816 C 0.72330 0.43542 0.10506
 C817 C 0.69239 0.45907 0.10738
 C818 C 0.67174 0.43165 0.08761
 H819 H 0.77171 0.36827 0.04699
 H820 H 0.80515 0.41424 0.07628
 H821 H 0.69530 0.48300 0.09166
 H822 H 0.68306 0.46280 0.13528
 H823 H 0.66403 0.43988 0.06049
 H824 H 0.65049 0.41984 0.10409
 C825 C 0.91612 0.74131 0.62429
 C826 C 0.94713 0.72466 0.61347
 C827 C 0.96021 0.73172 0.57894
 C828 C 0.94053 0.75117 0.55497
 C829 C 0.90603 0.76181 0.56382
 C830 C 0.89549 0.75835 0.59959
 C831 C 0.86205 0.74536 0.61560
 C832 C 0.88438 0.72674 0.64272
 H833 H 0.98528 0.72144 0.57004
 H834 H 0.95100 0.75491 0.52829
 H835 H 0.84781 0.72777 0.59751
 H836 H 0.84592 0.76632 0.62747
 H837 H 0.88288 0.69831 0.64056
 H838 H 0.88103 0.73698 0.67017
 C839 C 0.89667 0.29650 0.39229
 C840 C 0.92315 0.28233 0.37056
 C841 C 0.92361 0.24612 0.36768
 C842 C 0.90452 0.22589 0.39261
 C843 C 0.88324 0.24168 0.41899
 C844 C 0.87628 0.27673 0.41484
 C845 C 0.87052 0.30613 0.44000
 C846 C 0.89360 0.32765 0.41519
 H847 H 0.94241 0.23348 0.35019
 H848 H 0.90974 0.19861 0.39395
 H849 H 0.88203 0.30272 0.46670
 H850 H 0.84268 0.31470 0.44051
 H851 H 0.91884 0.33511 0.42751
 H852 H 0.87912 0.34874 0.40196
 C853 C 0.08508 0.25100 0.62593
 C854 C 0.08084 0.28672 0.62315
 C855 C 0.10179 0.30382 0.59727
 C856 C 0.11976 0.28522 0.57073
 C857 C 0.11713 0.24926 0.56945
 C858 C 0.10221 0.23271 0.59909
 C859 C 0.07749 0.20320 0.60173
 C860 C 0.05890 0.22279 0.63157
 H861 H 0.10150 0.33154 0.59514
 H862 H 0.13259 0.29908 0.54919
 H863 H 0.09068 0.17946 0.61099
 H864 H 0.06130 0.20023 0.57753
 H865 H 0.06178 0.21041 0.65802
 H866 H 0.03163 0.23044 0.62525
 C867 C 0.08393 0.69819 0.41713
 C868 C 0.06248 0.71530 0.39296
 C869 C 0.06454 0.75160 0.39301
 C870 C 0.08293 0.76912 0.42012
 C871 C 0.10106 0.75083 0.44674
 C872 C 0.10271 0.71515 0.44270
 C873 C 0.10141 0.68493 0.46727
 C874 C 0.08070 0.66624 0.43871
 H875 H 0.04955 0.76654 0.37427
 H876 H 0.08159 0.79686 0.42123
 H877 H 0.08531 0.68906 0.49171
 H878 H 0.12782 0.67368 0.47160
 H879 H 0.05315 0.66064 0.44701
 H880 H 0.09530 0.64442 0.42648
 C881 C 0.62152 0.92513 0.75209
 C882 C 0.62452 0.93036 0.71531
 C883 C 0.60349 0.90993 0.69312
 C884 C 0.57703 0.88876 0.70779
 C885 C 0.57086 0.88781 0.74490
 C886 C 0.59509 0.90462 0.76650
 C887 C 0.58915 0.92811 0.79732
 C888 C 0.61804 0.95067 0.78160
 H889 H 0.60578 0.91216 0.66445
 H890 H 0.55956 0.87536 0.69003
 H891 H 0.59642 0.91597 0.82295
 H892 H 0.56277 0.94036 0.79713
 H893 H 0.64189 0.95161 0.79826
 H894 H 0.60845 0.97606 0.77233
 C895 C 0.39828 0.90100 0.29775
 C896 C 0.38038 0.92644 0.27901
 C897 C 0.38661 0.92841 0.24195
 C898 C 0.41424 0.90947 0.22597
 C899 C 0.43553 0.88792 0.24674
 C900 C 0.42492 0.88206 0.28202
 C901 C 0.44437 0.87905 0.31614
 C902 C 0.41507 0.90020 0.33338
 H903 H 0.37258 0.94692 0.22604
 H904 H 0.42063 0.91364 0.19812
 H905 H 0.47002 0.89255 0.31602
 H906 H 0.44514 0.85217 0.32598
 H907 H 0.42406 0.92589 0.34235
 H908 H 0.39924 0.88551 0.35324
 C909 C 0.60345 0.09566 0.30296
 C910 C 0.61999 0.06737 0.28706
 C911 C 0.61521 0.06265 0.25020
 C912 C 0.58977 0.08204 0.23195
 C913 C 0.56937 0.10680 0.25022
 C914 C 0.57913 0.11513 0.28491
 C915 C 0.55823 0.12211 0.31805
 C916 C 0.58489 0.10046 0.33786
 H917 H 0.62830 0.04173 0.23642
 H918 H 0.58397 0.07568 0.20460
 H919 H 0.53175 0.11038 0.31782
 H920 H 0.55885 0.14967 0.32562
 H921 H 0.57351 0.07628 0.34867
 H922 H 0.60075 0.11557 0.35690
 C923 C 0.38502 0.08163 0.74163
 C924 C 0.39135 0.07381 0.70571
 C925 C 0.41889 0.09160 0.68822
 C926 C 0.44247 0.11180 0.70767
 C927 C 0.43936 0.11428 0.74506
 C928 C 0.40887 0.10074 0.76087
 C929 C 0.40343 0.07996 0.79375
 C930 C 0.37694 0.05910 0.77285
 H931 H 0.42378 0.08799 0.66000
 H932 H 0.46482 0.12309 0.69386
 H933 H 0.39123 0.09517 0.81568
 H934 H 0.42720 0.06512 0.80105
 H935 H 0.34949 0.06243 0.78271
 H936 H 0.38507 0.03215 0.76843
 C937 C 0.59297 0.70366 0.08805
 C938 C 0.61698 0.72091 0.06605
 C939 C 0.61490 0.75702 0.06437
 C940 C 0.58979 0.77494 0.08526
 C941 C 0.56691 0.75704 0.10853
 C942 C 0.56867 0.72126 0.10879
 C943 C 0.57342 0.69782 0.13971
 C944 C 0.60008 0.67848 0.11700
 H945 H 0.63143 0.77116 0.04583
 H946 H 0.58733 0.80247 0.08228
 H947 H 0.54931 0.68269 0.14571
 H948 H 0.58512 0.71097 0.16299
 H949 H 0.59137 0.65215 0.10993
 H950 H 0.62734 0.68028 0.12705
 C951 C 0.40605 0.29253 0.10631
 C952 C 0.38912 0.27711 0.07768
 C953 C 0.39457 0.24163 0.07254
 C954 C 0.42072 0.22414 0.09186
 C955 C 0.44123 0.24183 0.11696
 C956 C 0.43117 0.27539 0.12557
 C957 C 0.45128 0.30763 0.13235
 C958 C 0.42360 0.32643 0.11088
 H959 H 0.38114 0.22825 0.05145
 H960 H 0.42675 0.19772 0.08526
 H961 H 0.47764 0.30822 0.11938
 H962 H 0.45083 0.31478 0.16099
 H963 H 0.43416 0.33711 0.08545
 H964 H 0.40743 0.34444 0.12716
 C965 C 0.57693 0.29719 0.91918
 C966 C 0.60343 0.27999 0.93722
 C967 C 0.60204 0.24382 0.93844
 C968 C 0.57575 0.22581 0.91992
 C969 C 0.55114 0.24373 0.89923
 C970 C 0.55167 0.27954 0.90055
 C971 C 0.55228 0.30480 0.87073
 C972 C 0.58005 0.32424 0.89118
 H973 H 0.62069 0.22960 0.95414
 H974 H 0.57460 0.19811 0.92180
 H975 H 0.52712 0.31906 0.86872
 H976 H 0.56229 0.29352 0.84535
 H977 H 0.57085 0.34966 0.90097
 H978 H 0.60624 0.32437 0.87769
 C979 C 0.38501 0.76020 0.92427
 C980 C 0.38123 0.72458 0.92110
 C981 C 0.39992 0.70804 0.89333
 C982 C 0.42553 0.72583 0.87331
 C983 C 0.43300 0.76042 0.88081
 C984 C 0.41057 0.77774 0.90460
 C985 C 0.41916 0.80066 0.93505
 C986 C 0.39131 0.78151 0.95661
 H987 H 0.39707 0.68067 0.88930
 H988 H 0.44175 0.71177 0.85441
 H989 H 0.41205 0.82782 0.92970
 H990 H 0.44625 0.79665 0.94489
 H991 H 0.36823 0.79768 0.96376
 H992 H 0.40226 0.76639 0.97898
 C993 C 0.74448 0.91017 0.39147
 C994 C 0.70951 0.92006 0.39738
 C995 C 0.69081 0.90355 0.42520
 C996 C 0.70839 0.88230 0.44948
 C997 C 0.74495 0.87717 0.44637
 C998 C 0.76183 0.88937 0.41553
 C999 C 0.79535 0.90882 0.41127
 C1000 C 0.77642 0.93165 0.38494
 H1001 H 0.66330 0.90917 0.42996
 H1002 H 0.69412 0.87266 0.47253
 H1003 H 0.81641 0.89299 0.39870
 H1004 H 0.80297 0.92242 0.43601
 H1005 H 0.78665 0.92902 0.35722
 H1006 H 0.77308 0.95852 0.39439
 C1007 C 0.25307 0.92230 0.60913
 C1008 C 0.28882 0.92913 0.60343
 C1009 C 0.30667 0.90943 0.57737
 C1010 C 0.28800 0.88778 0.55441
 C1011 C 0.25107 0.88561 0.55677
 C1012 C 0.23461 0.90144 0.58600
 C1013 C 0.20257 0.92328 0.58809
 C1014 C 0.22270 0.94625 0.61340
 H1015 H 0.33468 0.91245 0.57310
 H1016 H 0.30210 0.87498 0.53296
 H1017 H 0.18016 0.90974 0.60114
 H1018 H 0.19655 0.93583 0.56231
 H1019 H 0.21173 0.94614 0.64099
 H1020 H 0.22834 0.97200 0.60220
 C1021 C 0.23662 0.07304 0.37943
 C1022 C 0.27319 0.07263 0.37525
 C1023 C 0.29257 0.09846 0.39230
 C1024 C 0.27618 0.12042 0.41710
 C1025 C 0.24025 0.11658 0.42561
 C1026 C 0.22049 0.09442 0.40443
 C1027 C 0.19438 0.06763 0.41501
 C1028 C 0.21196 0.04422 0.38770
 H1029 H 0.32083 0.09975 0.38876
 H1030 H 0.29225 0.13785 0.43233
 H1031 H 0.16719 0.07500 0.40784
 H1032 H 0.19758 0.05880 0.44292
 H1033 H 0.19486 0.03806 0.36485
 H1034 H 0.22533 0.02177 0.39977
 C1035 C 0.77347 0.07911 0.63041
 C1036 C 0.73685 0.08169 0.63383
 C1037 C 0.71996 0.10692 0.61337
 C1038 C 0.73819 0.12391 0.58579
 C1039 C 0.77349 0.11571 0.57795
 C1040 C 0.79131 0.09540 0.60256
 C1041 C 0.81573 0.06596 0.59696
 C1042 C 0.79655 0.04819 0.62761
 H1043 H 0.69184 0.11064 0.61595
 H1044 H 0.72365 0.14036 0.56802
 H1045 H 0.84330 0.07280 0.60320
 H1046 H 0.81204 0.05309 0.57086
 H1047 H 0.81306 0.04497 0.65152
 H1048 H 0.78210 0.02483 0.61949
 C1049 C 0.92686 0.61402 0.24233
 C1050 C 0.92678 0.61441 0.27957
 C1051 C 0.90235 0.59332 0.29765
 C1052 C 0.88246 0.56911 0.27893
 C1053 C 0.88696 0.56531 0.24185
 C1054 C 0.90758 0.58971 0.22388
 C1055 C 0.93583 0.58486 0.19646
 C1056 C 0.95707 0.61132 0.21666
 H1057 H 0.90050 0.59378 0.32645
 H1058 H 0.86598 0.55134 0.29375
 H1059 H 0.92765 0.59387 0.16977
 H1060 H 0.94744 0.55868 0.19705
 H1061 H 0.96135 0.63549 0.20151
 H1062 H 0.98093 0.60042 0.22906
 C1063 C 0.91245 0.38461 0.74126
 C1064 C 0.91986 0.38322 0.70473
 C1065 C 0.89918 0.40332 0.68197
 C1066 C 0.87555 0.42767 0.69607
 C1067 C 0.87258 0.43264 0.73315
 C1068 C 0.88961 0.40909 0.75516
 C1069 C 0.91174 0.41508 0.78697
 C1070 C 0.93689 0.38835 0.77178
 H1071 H 0.90323 0.40211 0.65340
 H1072 H 0.86207 0.44470 0.67804
 H1073 H 0.89837 0.40671 0.81199
 H1074 H 0.92306 0.44138 0.78762
 H1075 H 0.93814 0.36464 0.78816
 H1076 H 0.96280 0.39916 0.76360
 C1077 C 0.08879 0.58621 0.71588
 C1078 C 0.06287 0.60697 0.73156
 C1079 C 0.05811 0.60447 0.76885
 C1080 C 0.07514 0.57836 0.78826
 C1081 C 0.09745 0.55469 0.77071
 C1082 C 0.10567 0.56090 0.73491
 C1083 C 0.10812 0.53770 0.70332
 C1084 C 0.08958 0.56559 0.68239
 H1085 H 0.03925 0.62079 0.78250
 H1086 H 0.06924 0.57535 0.81637
 H1087 H 0.09199 0.51411 0.70618
 H1088 H 0.13573 0.53346 0.69439
 H1089 H 0.06298 0.55784 0.67361
 H1090 H 0.10656 0.57747 0.66146
 C1091 C 0.08803 0.39281 0.25894
 C1092 C 0.07462 0.39683 0.29359
 C1093 C 0.08766 0.42453 0.31375
 C1094 C 0.10905 0.44983 0.29769
 C1095 C 0.11779 0.44805 0.26113
 C1096 C 0.10866 0.41799 0.24308
 C1097 C 0.09267 0.41289 0.20753
 C1098 C 0.07001 0.38515 0.22479
 H1099 H 0.07943 0.42798 0.34123
 H1100 H 0.11668 0.47196 0.31322
 H1101 H 0.11190 0.40264 0.18768
 H1102 H 0.07744 0.43560 0.19867
 H1103 H 0.07618 0.35896 0.21481
 H1104 H 0.04166 0.39168 0.22576
   
