data_POSCAR
  _audit_creation_date              2014-09-24
  _audit_creation_method            'ToBaCCo'
  _symmetry_space_group_name_H-M    'P1'
  _symmetry_Int_Tables_number       1
  _symmetry_cell_setting            triclinic
  loop_
  _symmetry_equiv_pos_as_xyz
 x,y,z
_cell_length_a 27.0659
_cell_length_b 28.0747
_cell_length_c 27.1774
_cell_angle_alpha 87.272100
_cell_angle_beta 95.825800
_cell_angle_gamma 94.324000
loop_
  _atom_site_label
  _atom_site_type_symbol
  _atom_site_fract_x
  _atom_site_fract_y
  _atom_site_fract_z
C1 C 0.20565 0.27521 0.28902
 C2 C 0.24218 0.30268 0.25572
 C3 C 0.26672 0.27433 0.22863
 C4 C 0.25329 0.22064 0.23722
 C5 C 0.17189 0.24356 0.25314
 C6 C 0.19646 0.21491 0.22658
 C7 C 0.23934 0.24111 0.32030
 C8 C 0.26299 0.21157 0.29362
 H9 H 0.25080 0.34083 0.25457
 H10 H 0.27340 0.19762 0.21503
 H11 H 0.13168 0.24396 0.24911
 H12 H 0.24461 0.24103 0.36035
 C13 C 0.71546 0.78675 0.28197
 C14 C 0.75149 0.81583 0.24917
 C15 C 0.77932 0.78875 0.22394
 C16 C 0.76841 0.73462 0.23287
 C17 C 0.68460 0.75367 0.24523
 C18 C 0.71188 0.72602 0.22020
 C19 C 0.74946 0.75422 0.31461
 C20 C 0.77684 0.72705 0.28930
 H21 H 0.75392 0.85410 0.24319
 H22 H 0.79054 0.71214 0.21212
 H23 H 0.64428 0.75161 0.24027
 H24 H 0.75230 0.75352 0.35470
 C25 C 0.71268 0.30115 0.78531
 C26 C 0.74777 0.33048 0.75762
 C27 C 0.77936 0.30441 0.73123
 C28 C 0.76811 0.25276 0.73548
 C29 C 0.68303 0.26928 0.74596
 C30 C 0.71213 0.24463 0.71965
 C31 C 0.74351 0.26498 0.81714
 C32 C 0.77274 0.24016 0.79126
 H33 H 0.75034 0.36918 0.75781
 H34 H 0.79041 0.23123 0.71392
 H35 H 0.64313 0.26220 0.74172
 H36 H 0.74134 0.25870 0.85653
 C37 C 0.21965 0.79313 0.78242
 C38 C 0.25824 0.82241 0.75357
 C39 C 0.28914 0.79597 0.73147
 C40 C 0.27773 0.74174 0.73853
 C41 C 0.19202 0.75938 0.74367
 C42 C 0.22236 0.73314 0.72057
 C43 C 0.24945 0.75873 0.81748
 C44 C 0.28011 0.73252 0.79482
 H45 H 0.26001 0.86109 0.75004
 H46 H 0.30218 0.71976 0.71990
 H47 H 0.15219 0.75263 0.73727
 H48 H 0.24561 0.75465 0.85678
 C49 C 0.02891 0.07898 0.01347
 H50 H -0.00059 0.09311 -0.01141
 C51 C 0.05819 0.10960 0.04536
 H52 H 0.05060 0.14693 0.04546
 C53 C 0.07432 0.01327 0.04501
 H54 H 0.07979 -0.02452 0.04505
 C55 C 0.10446 0.04263 0.07756
 H56 H 0.13310 0.02748 0.10301
 N57 N 0.03621 0.03144 0.01519
 C58 C 0.02751 -0.09488 -0.05731
 H59 H 0.00202 -0.11419 -0.03417
 C60 C 0.05850 -0.12017 -0.08295
 H61 H 0.05641 -0.15886 -0.07985
 C62 C 0.06309 -0.02113 -0.08842
 H63 H 0.06513 0.01753 -0.08960
 C64 C 0.09484 -0.04501 -0.11456
 H65 H 0.12113 -0.02479 -0.13639
 Zn66 Zn -0.00816 -0.01143 -0.02251
 N67 N 0.03023 -0.04624 -0.06058
 C68 C -0.05144 0.03206 -0.11230
 N69 N -0.05440 0.02404 -0.06286
 C70 C -0.08859 0.04466 -0.03902
 C71 C -0.11926 0.07736 -0.06423
 C72 C -0.08139 0.06475 -0.13898
 C73 C -0.03453 -0.04967 0.07037
 C74 C -0.06149 -0.07919 0.10231
 C75 C -0.10913 -0.11419 0.03129
 C76 C -0.08106 -0.08403 0.00056
 N77 N -0.04419 -0.05295 0.02046
 H78 H -0.02444 0.01486 -0.13065
 H79 H -0.09018 0.03749 0.00027
 H80 H -0.14467 0.09539 -0.04440
 H81 H -0.07716 0.07291 -0.17774
 H82 H -0.00640 -0.02376 0.08569
 H83 H -0.05366 -0.07604 0.14196
 H84 H -0.13843 -0.13878 0.01519
 H85 H -0.08874 -0.08519 -0.03923
 C86 C 0.09295 -0.09506 -0.11140
 C87 C 0.09531 0.09101 0.07880
 C88 C -0.09891 -0.11216 0.08277
 C89 C -0.11444 0.08882 -0.11430
 C90 C 0.05266 0.58295 0.52450
 H91 H 0.02550 0.59765 0.49725
 C92 C 0.08533 0.61383 0.55306
 H93 H 0.08271 0.65210 0.54805
 C94 C 0.08934 0.51566 0.56483
 H95 H 0.09070 0.47725 0.56910
 C96 C 0.12257 0.54531 0.59440
 H97 H 0.14934 0.52976 0.62168
 N98 N 0.05461 0.53475 0.53129
 C99 C 0.01600 0.42001 0.42745
 H100 H -0.02407 0.41615 0.42589
 C101 C 0.04085 0.38962 0.40075
 H102 H 0.01977 0.36235 0.37889
 C103 C 0.09252 0.46087 0.45619
 H104 H 0.11267 0.48922 0.47695
 C105 C 0.11882 0.43108 0.43034
 H106 H 0.15901 0.43628 0.43196
 Zn107 Zn 0.00765 0.49361 0.49342
 N108 N 0.04206 0.45431 0.45523
 C109 C -0.03172 0.53618 0.40193
 N110 N -0.03534 0.53122 0.45153
 C111 C -0.06889 0.55461 0.47347
 C112 C -0.09945 0.58578 0.44558
 C113 C -0.06171 0.56708 0.37256
 C114 C -0.02115 0.45581 0.58619
 C115 C -0.05090 0.42865 0.61758
 C116 C -0.10452 0.40241 0.54605
 C117 C -0.07343 0.42980 0.51588
 N118 N -0.03218 0.45534 0.53619
 H119 H -0.00465 0.51727 0.38540
 H120 H -0.07093 0.54991 0.51297
 H121 H -0.12519 0.60518 0.46359
 H122 H -0.05777 0.57197 0.33335
 H123 H 0.01026 0.47760 0.60220
 H124 H -0.04165 0.42920 0.65729
 H125 H -0.13731 0.38232 0.52962
 H126 H -0.08295 0.43157 0.47631
 C127 C 0.09295 0.39443 0.40303
 C128 C 0.12059 0.59496 0.58857
 C129 C -0.09283 0.40142 0.59742
 C130 C -0.09522 0.59290 0.39477
 C131 C 0.60688 0.03711 0.53402
 H132 H 0.62429 0.01188 0.51378
 C133 C 0.63647 0.07047 0.56277
 H134 H 0.67666 0.07060 0.56498
 C135 C 0.53349 0.06820 0.55626
 H136 H 0.49326 0.06694 0.55351
 C137 C 0.56154 0.10212 0.58511
 H138 H 0.54287 0.12713 0.60464
 N139 N 0.55635 0.03632 0.53182
 C140 C 0.53999 -0.04251 0.40529
 H141 H 0.51342 -0.01898 0.38714
 C142 C 0.56491 -0.07118 0.37681
 H143 H 0.55791 -0.06916 0.33684
 C144 C 0.58089 -0.07504 0.47923
 H145 H 0.58648 -0.07655 0.51924
 C146 C 0.60656 -0.10440 0.45215
 H147 H 0.63244 -0.12825 0.47128
 Zn148 Zn 0.51323 -0.00758 0.49450
 N149 N 0.54863 -0.04464 0.45554
 C150 C 0.48655 0.06384 0.42304
 N151 N 0.46775 0.02903 0.45395
 C152 C 0.41798 0.02260 0.45811
 C153 C 0.38491 0.05090 0.42948
 C154 C 0.45473 0.09308 0.39378
 C155 C 0.48710 -0.04544 0.58762
 C156 C 0.45963 -0.07464 0.61947
 C157 C 0.41681 -0.11394 0.54844
 C158 C 0.44539 -0.08419 0.51791
 N159 N 0.47874 -0.04989 0.53777
 H160 H 0.52637 0.06897 0.42134
 H161 H 0.40375 -0.00393 0.48408
 H162 H 0.34537 0.04556 0.43312
 H163 H 0.46996 0.12059 0.36917
 H164 H 0.51455 -0.01880 0.60285
 H165 H 0.46554 -0.06990 0.65900
 H166 H 0.38920 -0.14012 0.53228
 H167 H 0.43999 -0.08739 0.47818
 C168 C 0.59831 -0.10275 0.40036
 C169 C 0.61357 0.10351 0.58846
 C170 C 0.42373 -0.10895 0.59978
 C171 C 0.40329 0.08624 0.39660
 C172 C 0.53030 0.57281 0.03469
 H173 H 0.50240 0.58725 0.00810
 C174 C 0.56285 0.60403 0.06293
 H175 H 0.55927 0.64221 0.05845
 C176 C 0.57027 0.50608 0.07225
 H177 H 0.57317 0.46781 0.07517
 C178 C 0.60347 0.53613 0.10157
 H179 H 0.63185 0.52102 0.12735
 N180 N 0.53411 0.52473 0.04010
 C181 C 0.52667 0.40112 -0.03850
 H182 H 0.50055 0.38056 -0.01699
 C183 C 0.55715 0.37747 -0.06635
 H184 H 0.55415 0.33879 -0.06647
 C185 C 0.56367 0.47632 -0.06407
 H186 H 0.56608 0.51488 -0.06266
 C187 C 0.59488 0.45413 -0.09230
 H188 H 0.62130 0.47559 -0.11295
 Zn189 Zn 0.49033 0.48308 -0.00013
 N190 N 0.53013 0.44973 -0.03824
 C191 C 0.44963 0.52553 -0.09139
 N192 N 0.44603 0.51989 -0.04181
 C193 C 0.41238 0.54297 -0.01962
 C194 C 0.38316 0.57578 -0.04681
 C195 C 0.42122 0.55819 -0.11996
 C196 C 0.45896 0.44079 0.08954
 C197 C 0.43041 0.40947 0.11853
 C198 C 0.38657 0.37797 0.04382
 C199 C 0.41610 0.40988 0.01616
 N200 N 0.45190 0.44003 0.03929
 H201 H 0.47581 0.50615 -0.10857
 H202 H 0.40998 0.53747 0.01976
 H203 H 0.35802 0.59553 -0.02841
 H204 H 0.42595 0.56415 -0.15892
 H205 H 0.48635 0.46595 0.10736
 H206 H 0.43621 0.41057 0.15850
 H207 H 0.35824 0.35406 0.02510
 H208 H 0.41052 0.41069 -0.02385
 C209 C 0.59186 0.40416 -0.09331
 C210 C 0.59996 0.58570 0.09667
 C211 C 0.39415 0.37725 0.09562
 C212 C 0.38886 0.58479 -0.09717
 C213 C 0.21012 -0.14580 -0.15027
 C214 C 0.18848 -0.17478 -0.19011
 C215 C 0.13688 -0.17332 -0.20380
 C216 C 0.10703 -0.14754 -0.17779
 C217 C 0.12716 -0.12128 -0.13744
 C218 C 0.17894 -0.12004 -0.12322
 C219 C 0.26206 -0.14144 -0.13647
 C220 C 0.28224 -0.11486 -0.09630
 C221 C 0.25144 -0.09161 -0.06896
 C222 C 0.20030 -0.09398 -0.08217
 H223 H 0.28806 -0.15773 -0.15654
 H224 H 0.32208 -0.11235 -0.08634
 H225 H 0.26729 -0.07131 -0.03756
 H226 H 0.17776 -0.07528 -0.05984
 H227 H 0.11826 -0.19145 -0.23517
 H228 H 0.06752 -0.14790 -0.18955
 C229 C 0.14490 0.28288 0.35672
 C230 C 0.17485 0.30458 0.31988
 C231 C 0.17403 0.35443 0.31089
 C232 C 0.14784 0.38242 0.33844
 C233 C 0.12046 0.36217 0.37586
 C234 C 0.11900 0.31215 0.38569
 C235 C 0.13950 0.23275 0.36555
 C236 C 0.11207 0.21241 0.40289
 C237 C 0.08925 0.24128 0.43253
 C238 C 0.09262 0.29064 0.42422
 H239 H 0.15590 0.20828 0.34395
 H240 H 0.10879 0.17397 0.40903
 H241 H 0.06856 0.22532 0.46194
 H242 H 0.07448 0.31167 0.44844
 H243 H 0.19244 0.37300 0.28158
 H244 H 0.14839 0.42055 0.32988
 C245 C 0.64793 -0.21032 0.34371
 C246 C 0.68301 -0.18599 0.31315
 C247 C 0.68792 -0.13558 0.31306
 C248 C 0.65979 -0.10984 0.34092
 C249 C 0.62562 -0.13286 0.37065
 C250 C 0.61888 -0.18335 0.37196
 C251 C 0.64078 -0.26088 0.34723
 C252 C 0.60578 -0.28374 0.37623
 C253 C 0.57690 -0.25719 0.40247
 C254 C 0.58318 -0.20752 0.40042
 H255 H 0.66176 -0.28388 0.32803
 H256 H 0.60091 -0.32239 0.37816
 H257 H 0.54949 -0.27519 0.42458
 H258 H 0.55954 -0.18832 0.42111
 H259 H 0.71394 -0.11453 0.29223
 H260 H 0.66537 -0.07117 0.33980
 C261 C 0.70646 0.35708 -0.14175
 C262 C 0.68313 0.33126 -0.18328
 C263 C 0.63132 0.33361 -0.19468
 C264 C 0.60282 0.35691 -0.16491
 C265 C 0.62461 0.37979 -0.12289
 C266 C 0.67670 0.38022 -0.11086
 C267 C 0.75874 0.36082 -0.12998
 C268 C 0.78059 0.38413 -0.08824
 C269 C 0.75119 0.40466 -0.05723
 C270 C 0.69976 0.40290 -0.06830
 H271 H 0.78372 0.34656 -0.15285
 H272 H 0.82065 0.38620 -0.07990
 H273 H 0.76835 0.42238 -0.02462
 H274 H 0.67835 0.41939 -0.04312
 H275 H 0.61157 0.31812 -0.22710
 H276 H 0.56308 0.35742 -0.17509
 C277 C -0.15502 0.21437 -0.14933
 C278 C -0.19550 0.20324 -0.18523
 C279 C -0.20624 0.15594 -0.19917
 C280 C -0.17911 0.11928 -0.17642
 C281 C -0.14047 0.12906 -0.13923
 C282 C -0.12736 0.17696 -0.12602
 C283 C -0.14037 0.26207 -0.13729
 C284 C -0.10026 0.27259 -0.10224
 C285 C -0.07351 0.23600 -0.07905
 C286 C -0.08652 0.18864 -0.09095
 H287 H -0.15885 0.29164 -0.15572
 H288 H -0.08953 0.30937 -0.09345
 H289 H -0.04211 0.24439 -0.05217
 H290 H -0.06385 0.16152 -0.07293
 H291 H -0.23663 0.14720 -0.22713
 H292 H -0.18895 0.08285 -0.18717
 C293 C -0.14667 0.71184 0.34849
 C294 C -0.18681 0.69495 0.31453
 C295 C -0.19316 0.64625 0.30482
 C296 C -0.16231 0.61375 0.33020
 C297 C -0.12414 0.62916 0.36580
 C298 C -0.11513 0.67863 0.37434
 C299 C -0.13622 0.76116 0.35630
 C300 C -0.09630 0.77718 0.38931
 C301 C -0.06575 0.74467 0.41480
 C302 C -0.07474 0.69589 0.40734
 H303 H -0.15793 0.78792 0.33628
 H304 H -0.08875 0.81507 0.39477
 H305 H -0.03458 0.75736 0.44010
 H306 H -0.04931 0.67203 0.42707
 H307 H -0.22325 0.63308 0.27845
 H308 H -0.16912 0.57608 0.32302
 C309 C 0.29575 0.12818 0.30647
 C310 C 0.29832 0.17732 0.31763
 C311 C 0.33608 0.19504 0.35266
 C312 C 0.37064 0.16536 0.37659
 C313 C 0.36855 0.11683 0.36652
 C314 C 0.33164 0.09796 0.33053
 C315 C 0.25760 0.10782 0.27309
 C316 C 0.25595 0.05979 0.26183
 C317 C 0.29218 0.03086 0.28379
 C318 C 0.32971 0.04957 0.31790
 H319 H 0.22841 0.12843 0.25589
 H320 H 0.22639 0.04499 0.23590
 H321 H 0.29100 -0.00634 0.27462
 H322 H 0.35721 0.02586 0.33404
 H323 H 0.33901 0.23246 0.36143
 H324 H 0.39872 0.18020 0.40403
 C325 C 0.34892 0.70921 -0.13988
 C326 C 0.31101 0.69667 -0.17799
 C327 C 0.30168 0.64878 -0.19034
 C328 C 0.32758 0.61302 -0.16414
 C329 C 0.36367 0.62422 -0.12496
 C330 C 0.37549 0.67271 -0.11319
 C331 C 0.36219 0.75739 -0.12881
 C332 C 0.40002 0.76935 -0.09186
 C333 C 0.42589 0.73372 -0.06569
 C334 C 0.41417 0.68587 -0.07635
 H335 H 0.34452 0.78625 -0.14947
 H336 H 0.40975 0.80650 -0.08396
 H337 H 0.45562 0.74323 -0.03739
 H338 H 0.43623 0.65957 -0.05596
 H339 H 0.27323 0.63886 -0.21978
 H340 H 0.31878 0.57617 -0.17391
 C341 C -0.13665 -0.19898 0.18770
 C342 C -0.18752 -0.18947 0.18722
 C343 C -0.20804 -0.15754 0.15082
 C344 C -0.17928 -0.13452 0.11604
 C345 C -0.12884 -0.14237 0.11654
 C346 C -0.10731 -0.17567 0.15168
 C347 C -0.11364 -0.22989 0.22394
 C348 C -0.06381 -0.23921 0.22372
 C349 C -0.03575 -0.21779 0.18750
 C350 C -0.05711 -0.18626 0.15176
 H351 H -0.13355 -0.24680 0.25295
 H352 H -0.04693 -0.26322 0.25179
 H353 H 0.00282 -0.22543 0.18724
 H354 H -0.03406 -0.17052 0.12412
 H355 H -0.24690 -0.15017 0.14942
 H356 H -0.19620 -0.10917 0.08937
 C357 C -0.13879 0.30990 0.69434
 C358 C -0.18607 0.32731 0.70028
 C359 C -0.20019 0.36850 0.67231
 C360 C -0.17034 0.39082 0.63809
 C361 C -0.12494 0.37328 0.63061
 C362 C -0.10895 0.33231 0.65820
 C363 C -0.11825 0.27347 0.72590
 C364 C -0.07261 0.25628 0.71888
 C365 C -0.04558 0.27579 0.68106
 C366 C -0.06318 0.31378 0.65122
 H367 H -0.13610 0.25897 0.75732
 H368 H -0.05795 0.22796 0.74325
 H369 H -0.01024 0.26219 0.67559
 H370 H -0.04046 0.32873 0.62293
 H371 H -0.23584 0.38274 0.67512
 H372 H -0.18264 0.42247 0.61744
 C373 C 0.37692 -0.19204 0.70375
 C374 C 0.32599 -0.18181 0.69876
 C375 C 0.30884 -0.14968 0.66088
 C376 C 0.34077 -0.12785 0.62830
 C377 C 0.39113 -0.13697 0.63271
 C378 C 0.40960 -0.16975 0.67012
 C379 C 0.39661 -0.22278 0.74212
 C380 C 0.44656 -0.23280 0.74629
 C381 C 0.47800 -0.21225 0.71249
 C382 C 0.45988 -0.18096 0.67471
 H383 H 0.37397 -0.23897 0.76948
 H384 H 0.46092 -0.25664 0.77593
 H385 H 0.51668 -0.22040 0.71570
 H386 H 0.48551 -0.16584 0.64911
 H387 H 0.27005 -0.14170 0.65618
 H388 H 0.32623 -0.10274 0.59994
 C389 C 0.35205 0.28646 0.19538
 C390 C 0.30076 0.29498 0.19235
 C391 C 0.28121 0.32664 0.15521
 C392 C 0.31161 0.35118 0.12270
 C393 C 0.36265 0.34491 0.12621
 C394 C 0.38303 0.31112 0.16155
 C395 C 0.37381 0.25525 0.23212
 C396 C 0.42409 0.24679 0.23428
 C397 C 0.45383 0.26949 0.20011
 C398 C 0.43370 0.30144 0.16407
 H399 H 0.35250 0.23736 0.25959
 H400 H 0.44000 0.22244 0.26260
 H401 H 0.49277 0.26251 0.20171
 H402 H 0.45805 0.31817 0.13807
 H403 H 0.24210 0.33338 0.15219
 H404 H 0.29547 0.37676 0.09579
 C405 C 0.13505 0.14426 0.20461
 C406 C 0.17046 0.18112 0.19072
 C407 C 0.18133 0.18638 0.14140
 C408 C 0.15674 0.15684 0.10554
 C409 C 0.12091 0.12098 0.11815
 C410 C 0.10946 0.11455 0.16787
 C411 C 0.12542 0.13537 0.25443
 C412 C 0.08978 0.09982 0.26741
 C413 C 0.06322 0.07220 0.23117
 C414 C 0.07287 0.07927 0.18185
 H415 H 0.14607 0.15493 0.28389
 H416 H 0.08283 0.09362 0.30580
 H417 H 0.03531 0.04484 0.24137
 H418 H 0.05140 0.05686 0.15497
 H419 H 0.20854 0.21414 0.13042
 H420 H 0.16561 0.16203 0.06758
 C421 C 0.21145 0.69781 0.63522
 C422 C 0.20221 0.69579 0.68576
 C423 C 0.17045 0.65860 0.70350
 C424 C 0.14628 0.62488 0.67184
 C425 C 0.15301 0.62733 0.62138
 C426 C 0.18700 0.66299 0.60288
 C427 C 0.24323 0.73439 0.61560
 C428 C 0.25221 0.73577 0.56592
 C429 C 0.22948 0.70094 0.53472
 C430 C 0.19709 0.66485 0.55283
 H431 H 0.26120 0.76222 0.63823
 H432 H 0.27698 0.76400 0.55160
 H433 H 0.23683 0.70200 0.49626
 H434 H 0.18037 0.63831 0.52745
 H435 H 0.16331 0.65641 0.74210
 H436 H 0.12049 0.59772 0.68648
 C437 C 0.69768 0.21219 0.63316
 C438 C 0.69085 0.20828 0.68429
 C439 C 0.66130 0.16965 0.70246
 C440 C 0.63785 0.13554 0.67093
 C441 C 0.64323 0.13883 0.62016
 C442 C 0.67362 0.17715 0.60076
 C443 C 0.72625 0.25109 0.61310
 C444 C 0.73181 0.25506 0.56261
 C445 C 0.70836 0.22091 0.53101
 C446 C 0.67917 0.18250 0.54964
 H447 H 0.74396 0.27904 0.63593
 H448 H 0.75400 0.28509 0.54787
 H449 H 0.71240 0.22447 0.49176
 H450 H 0.66079 0.15744 0.52355
 H451 H 0.65592 0.16618 0.74148
 H452 H 0.61461 0.10653 0.68619
 C453 C 0.69444 0.68860 0.13584
 C454 C 0.68801 0.68862 0.18703
 C455 C 0.65617 0.65297 0.20742
 C456 C 0.62974 0.61855 0.17798
 C457 C 0.63417 0.61876 0.12713
 C458 C 0.66773 0.65304 0.10582
 C459 C 0.72552 0.72391 0.11330
 C460 C 0.73181 0.72325 0.06307
 C461 C 0.70698 0.68764 0.03416
 C462 C 0.67511 0.65284 0.05513
 H463 H 0.74486 0.75243 0.13399
 H464 H 0.75608 0.75055 0.04652
 H465 H 0.71222 0.68712 -0.00477
 H466 H 0.65660 0.62570 0.03140
 H467 H 0.65102 0.65234 0.24649
 H468 H 0.60421 0.59252 0.19471
   
