data_POSCAR
  _audit_creation_date              2014-09-24
  _audit_creation_method            'ToBaCCo'
  _symmetry_space_group_name_H-M    'P1'
  _symmetry_Int_Tables_number       1
  _symmetry_cell_setting            triclinic
  loop_
  _symmetry_equiv_pos_as_xyz
 x,y,z
_cell_length_a 18.2258
_cell_length_b 18.3144
_cell_length_c 19.6600
_cell_angle_alpha 90.002600
_cell_angle_beta 90.275900
_cell_angle_gamma 120.147500
loop_
  _atom_site_label
  _atom_site_type_symbol
  _atom_site_fract_x
  _atom_site_fract_y
  _atom_site_fract_z
O1 O 0.35119 0.53886 0.30647
 O2 O 0.21157 0.54202 0.32645
 C3 C 0.17370 0.58234 0.33938
 O4 O 0.18511 0.64669 0.30623
 O5 O 0.32836 0.78601 0.32691
 C6 C 0.40699 0.82401 0.34008
 O7 O 0.46012 0.81252 0.30715
 O8 O 0.45660 0.67013 0.32729
 C9 C 0.41605 0.59187 0.33991
 O10 O 0.32819 0.54242 0.17095
 O11 O 0.18486 0.53830 0.19090
 C12 C 0.17303 0.59100 0.15767
 O13 O 0.21108 0.66923 0.17077
 O14 O 0.35075 0.81209 0.19150
 C15 C 0.41566 0.82402 0.15865
 O16 O 0.45636 0.78645 0.17164
 O17 O 0.46000 0.64762 0.19179
 C18 C 0.40680 0.58302 0.15840
 Cr19 Cr 0.27132 0.54514 0.24870
 Cr20 Cr 0.27120 0.72614 0.24885
 Cr21 Cr 0.45351 0.72680 0.24945
 O22 O 0.33202 0.66604 0.24900
 O23 O 0.53994 0.35336 0.69318
 O24 O 0.54384 0.21493 0.67144
 C25 C 0.58308 0.17567 0.65916
 O26 O 0.64694 0.18667 0.69397
 O27 O 0.78619 0.32929 0.67248
 C28 C 0.82556 0.40769 0.65982
 O29 O 0.81494 0.46049 0.69426
 O30 O 0.67179 0.45629 0.67186
 C31 C 0.59295 0.41702 0.65895
 O32 O 0.54389 0.32900 0.82837
 O33 O 0.53994 0.18662 0.80662
 C34 C 0.59293 0.17596 0.84136
 O35 O 0.67179 0.21548 0.82919
 O36 O 0.81506 0.35423 0.80775
 C37 C 0.82601 0.41783 0.84220
 O38 O 0.78652 0.45681 0.82938
 O39 O 0.64723 0.46029 0.80693
 C40 C 0.58324 0.40748 0.84107
 Cr41 Cr 0.54645 0.27325 0.74993
 Cr42 Cr 0.72773 0.27368 0.75084
 Cr43 Cr 0.72785 0.45394 0.75061
 O44 O 0.66734 0.33363 0.75048
 C45 C 0.49391 -0.00455 0.49525
 C46 C 0.45240 0.04023 0.51021
 C47 C 0.48139 0.09887 0.56346
 C48 C 0.43795 -0.11571 0.39464
 C49 C 0.59384 0.06820 0.58705
 C50 C 0.56468 0.00957 0.53373
 C51 C 0.46367 -0.06505 0.44051
 C52 C 0.55244 0.11352 0.60262
 H53 H 0.39757 0.02979 0.48072
 H54 H 0.44805 0.13264 0.57393
 H55 H 0.64873 0.07796 0.61604
 H56 H 0.59729 -0.02477 0.52255
 C57 C 1.00391 0.49825 0.49517
 C58 C 0.95925 0.41214 0.51077
 C59 C 0.90132 0.38267 0.56434
 C60 C 1.11383 0.55309 0.39403
 C61 C 0.93253 0.52563 0.58700
 C62 C 0.99045 0.55491 0.53336
 C63 C 1.06368 0.52830 0.44011
 C64 C 0.88727 0.43909 0.60317
 H65 H 0.96920 0.36773 0.48153
 H66 H 0.86757 0.31569 0.57526
 H67 H 0.92320 0.57076 0.61571
 H68 H 1.02473 0.62173 0.52169
 C69 C 0.50131 0.50557 0.49500
 C70 C 0.58799 0.54698 0.51057
 C71 C 0.61784 0.51818 0.56383
 C72 C 0.44570 0.56120 0.39443
 C73 C 0.47412 0.40608 0.58618
 C74 C 0.44446 0.43506 0.53285
 C75 C 0.47085 0.53564 0.44027
 C76 C 0.56123 0.44740 0.60237
 H77 H 0.63255 0.60162 0.48157
 H78 H 0.68525 0.55145 0.57479
 H79 H 0.42883 0.35140 0.61468
 H80 H 0.37720 0.40252 0.52118
 C81 C 0.50100 -0.00433 1.00440
 C82 C 0.44424 0.00945 0.96602
 C83 C 0.47400 0.06814 0.91301
 C84 C 0.44525 -0.11565 1.10440
 C85 C 0.61766 0.09956 0.93672
 C86 C 0.58771 0.04086 0.98967
 C87 C 0.47044 -0.06492 1.05881
 C88 C 0.56113 0.11385 0.89765
 H89 H 0.37697 -0.02521 0.97704
 H90 H 0.42876 0.07761 0.88408
 H91 H 0.68508 0.13364 0.92641
 H92 H 0.63220 0.03069 1.01909
 C93 C 1.00662 0.50695 1.00689
 C94 C 0.96160 0.54816 0.99129
 C95 C 0.90286 0.51921 0.93777
 C96 C 1.11808 0.56292 1.10796
 C97 C 0.93389 0.40738 0.91519
 C98 C 0.99264 0.43651 0.96878
 C99 C 1.06725 0.53718 1.06189
 C100 C 0.88833 0.44847 0.89898
 H101 H 0.97194 0.60275 1.02048
 H102 H 0.86890 0.55231 0.92681
 H103 H 0.92423 0.35273 0.88651
 H104 H 1.02716 0.40412 0.98046
 C105 C 0.49380 0.49853 1.00401
 C106 C 0.45227 0.41228 0.98862
 C107 C 0.48136 0.38262 0.93570
 C108 C 0.43771 0.55369 1.10408
 C109 C 0.59397 0.52568 0.91330
 C110 C 0.56471 0.55515 0.96630
 C111 C 0.46347 0.52877 1.05845
 C112 C 0.55255 0.43900 0.89730
 H113 H 0.39733 0.36790 1.01753
 H114 H 0.44799 0.31554 0.92488
 H115 H 0.64897 0.57079 0.88490
 H116 H 0.59735 0.62208 0.97783
   
