data_POSCAR
  _audit_creation_date              2014-09-24
  _audit_creation_method            'ToBaCCo'
  _symmetry_space_group_name_H-M    'P1'
  _symmetry_Int_Tables_number       1
  _symmetry_cell_setting            triclinic
  loop_
  _symmetry_equiv_pos_as_xyz
 x,y,z
_cell_length_a 36.3394
_cell_length_b 39.1738
_cell_length_c 37.2086
_cell_angle_alpha 91.900800
_cell_angle_beta 94.571600
_cell_angle_gamma 85.995100
loop_
  _atom_site_label
  _atom_site_type_symbol
  _atom_site_fract_x
  _atom_site_fract_y
  _atom_site_fract_z
C1 C 0.27372 0.21985 0.22230
 C2 C 0.25248 0.24836 0.23504
 C3 C 0.23700 0.24774 0.26853
 C4 C 0.24359 0.21836 0.28951
 C5 C 0.26529 0.18989 0.27734
 C6 C 0.27973 0.19080 0.24356
 H7 H 0.24805 0.27098 0.21888
 H8 H 0.23212 0.21776 0.31545
 H9 H 0.29635 0.16886 0.23393
 C10 C 0.75344 -0.22116 0.22204
 C11 C 0.77608 -0.25158 0.21792
 C12 C 0.80728 -0.26003 0.24190
 C13 C 0.81518 -0.23729 0.27123
 C14 C 0.79334 -0.20672 0.27595
 C15 C 0.76284 -0.19888 0.25133
 H16 H 0.76943 -0.26891 0.19568
 H17 H 0.83906 -0.24251 0.28996
 H18 H 0.74599 -0.17556 0.25593
 C19 C 0.71333 0.27366 0.78425
 C20 C 0.74357 0.29294 0.77843
 C21 C 0.76908 0.28157 0.75315
 C22 C 0.76498 0.24911 0.73638
 C23 C 0.73354 0.23090 0.73928
 C24 C 0.70788 0.24343 0.76359
 H25 H 0.74609 0.31719 0.79281
 H26 H 0.78680 0.23756 0.72099
 H27 H 0.68303 0.23028 0.76601
 C28 C 0.23955 -0.26220 0.78346
 C29 C 0.24786 -0.23535 0.76233
 C30 C 0.22769 -0.22843 0.72942
 C31 C 0.19680 -0.24713 0.71909
 C32 C 0.18711 -0.27423 0.74013
 C33 C 0.20930 -0.28135 0.77241
 H34 H 0.27159 -0.22094 0.77065
 H35 H 0.18088 -0.24040 0.69434
 H36 H 0.20479 -0.30295 0.78842
 C37 C 0.69418 -0.22350 0.76403
 C38 C 0.70449 -0.20110 0.73848
 C39 C 0.73470 -0.20997 0.71809
 C40 C 0.75377 -0.24220 0.72214
 C41 C 0.74422 -0.26541 0.74749
 C42 C 0.71421 -0.25541 0.76827
 H43 H 0.68982 -0.17624 0.73521
 H44 H 0.77757 -0.24799 0.70678
 H45 H 0.70599 -0.27252 0.78785
 C46 C 0.26391 0.24841 0.74345
 C47 C 0.26031 0.22199 0.71704
 C48 C 0.23624 0.22638 0.68597
 C49 C 0.21685 0.25818 0.68044
 C50 C 0.22047 0.28521 0.70590
 C51 C 0.24374 0.28008 0.73762
 H52 H 0.27564 0.19753 0.72098
 H53 H 0.19823 0.26172 0.65643
 H54 H 0.24580 0.30060 0.75775
 C55 C 0.30849 -0.30089 0.23852
 C56 C 0.31275 -0.27713 0.26744
 C57 C 0.28684 -0.27306 0.29363
 C58 C 0.25493 -0.29170 0.28973
 C59 C 0.24963 -0.31484 0.26038
 C60 C 0.27700 -0.31998 0.23581
 H61 H 0.33703 -0.26244 0.27049
 H62 H 0.23432 -0.28807 0.30924
 H63 H 0.27249 -0.33782 0.21330
 C64 C 0.71076 0.28088 0.25715
 C65 C 0.73732 0.30506 0.26562
 C66 C 0.76733 0.29791 0.29093
 C67 C 0.77117 0.26607 0.30730
 C68 C 0.74546 0.24141 0.29880
 C69 C 0.71500 0.24901 0.27407
 H70 H 0.73474 0.32948 0.25247
 H71 H 0.79475 0.26013 0.32633
 H72 H 0.69504 0.23000 0.26768
 O73 O 0.24366 -0.00321 0.45086
 O74 O 0.23867 -0.05980 0.52881
 O75 O 0.22582 0.00596 0.51723
 O76 O 0.25046 -0.06937 0.46097
 O77 O 0.30952 -0.06457 0.47776
 O78 O 0.28475 0.01305 0.53242
 O79 O 0.29742 -0.05201 0.54422
 O80 O 0.30308 0.00066 0.46678
 Cu81 Cu 0.23369 -0.03206 0.48796
 Cu82 Cu 0.30447 -0.02499 0.50688
 C83 C 0.27485 0.00792 0.44556
 C84 C 0.26795 -0.06589 0.54945
 C85 C 0.25073 0.02269 0.53410
 C86 C 0.28407 -0.08030 0.46012
 O87 O 0.72215 0.03871 0.53532
 O88 O 0.75141 -0.02498 0.46670
 O89 O 0.73972 -0.02639 0.53430
 O90 O 0.73527 0.04115 0.46596
 O91 O 0.79446 0.04819 0.48013
 O92 O 0.79772 -0.01558 0.54981
 O93 O 0.80998 -0.01671 0.48265
 O94 O 0.78047 0.04999 0.54855
 Cu95 Cu 0.73109 0.00661 0.49895
 Cu96 Cu 0.80137 0.01783 0.51692
 C97 C 0.74642 0.05467 0.55413
 C98 C 0.78562 -0.03228 0.46338
 C99 C 0.76983 -0.03251 0.55359
 C100 C 0.76492 0.05498 0.46048
 O101 O 0.46275 0.23095 0.03010
 O102 O 0.53250 0.25391 -0.02931
 O103 O 0.52918 0.25272 0.04092
 O104 O 0.46585 0.23271 -0.03809
 O105 O 0.44242 0.28626 -0.03830
 O106 O 0.50553 0.30610 0.04109
 O107 O 0.50921 0.30741 -0.02911
 O108 O 0.43909 0.28443 0.03122
 Cu109 Cu 0.50030 0.23735 0.00094
 Cu110 Cu 0.47196 0.30150 0.00130
 C111 C 0.43857 0.25344 0.04017
 C112 C 0.53257 0.28440 -0.03987
 C113 C 0.52786 0.28280 0.05483
 C114 C 0.44283 0.25581 -0.05121
 O115 O 0.54935 0.74187 0.03023
 O116 O 0.47198 0.71653 -0.03300
 O117 O 0.53459 0.74303 -0.03997
 O118 O 0.48822 0.71242 0.03518
 O119 O 0.46031 0.76372 0.04297
 O120 O 0.50744 0.79474 -0.03301
 O121 O 0.44446 0.76809 -0.02619
 O122 O 0.52137 0.79329 0.03661
 Cu123 Cu 0.51412 0.72343 -0.00266
 Cu124 Cu 0.48063 0.78514 0.00575
 C125 C 0.54838 0.77187 0.04444
 C126 C 0.44471 0.73802 -0.04002
 C127 C 0.52900 0.77385 -0.04956
 C128 C 0.46595 0.73251 0.05160
 O129 O 0.04561 0.44360 0.25797
 O130 O -0.02540 0.51200 0.23703
 O131 O 0.04533 0.50739 0.23906
 O132 O -0.02645 0.45052 0.26006
 O133 O -0.02093 0.46915 0.31669
 O134 O 0.05131 0.52507 0.29604
 O135 O -0.02030 0.53162 0.29334
 O136 O 0.05128 0.46145 0.31483
 Cu137 Cu 0.00943 0.47624 0.24300
 Cu138 Cu 0.01577 0.49842 0.31101
 C139 C 0.06085 0.44069 0.28967
 C140 C -0.03453 0.53398 0.26104
 C141 C 0.05998 0.52646 0.26379
 C142 C -0.03627 0.45050 0.29211
 O143 O -0.00759 0.54325 0.68690
 O144 O -0.06133 0.46890 0.69192
 O145 O -0.07445 0.53500 0.70212
 O146 O 0.00694 0.47800 0.68138
 O147 O 0.02287 0.47348 0.73959
 O148 O -0.05730 0.53101 0.76016
 O149 O -0.04603 0.46499 0.75034
 O150 O 0.01035 0.54004 0.74479
 Cu151 Cu -0.03598 0.50655 0.68486
 Cu152 Cu -0.01588 0.50209 0.75458
 C153 C 0.01094 0.55433 0.71457
 C154 C -0.06280 0.45395 0.72140
 C155 C -0.07946 0.54298 0.73488
 C156 C 0.02880 0.46598 0.70702
 C157 C 0.33048 0.24532 0.14774
 C158 C 0.33060 0.21583 0.12661
 C159 C 0.31069 0.18813 0.13368
 C160 C 0.29048 0.19053 0.16431
 C161 C 0.29083 0.22012 0.18741
 C162 C 0.31049 0.24827 0.17843
 O163 O 0.35271 0.26794 0.13710
 C164 C 0.36732 0.25225 0.10882
 C165 C 0.35479 0.22022 0.10148
 C166 C 0.36827 0.19825 0.07478
 C167 C 0.39588 0.20970 0.05481
 C168 C 0.40908 0.24273 0.06149
 C169 C 0.39426 0.26450 0.08866
 H170 H 0.31139 0.16515 0.11671
 H171 H 0.27527 0.16895 0.17055
 H172 H 0.31190 0.27090 0.19585
 H173 H 0.35841 0.17294 0.06996
 H174 H 0.40693 0.19285 0.03403
 H175 H 0.40433 0.28959 0.09471
 C176 C 0.67456 0.76898 0.15230
 C177 C 0.66253 0.80256 0.14715
 C178 C 0.67881 0.82946 0.16603
 C179 C 0.70892 0.82145 0.19108
 C180 C 0.72236 0.78677 0.19717
 C181 C 0.70405 0.76034 0.17722
 O182 O 0.65536 0.74713 0.13174
 C183 C 0.63066 0.76742 0.11307
 C184 C 0.63375 0.80160 0.12155
 C185 C 0.61021 0.82724 0.10557
 C186 C 0.58228 0.81718 0.07994
 C187 C 0.57861 0.78204 0.07065
 C188 C 0.60340 0.75687 0.08743
 H189 H 0.66904 0.85578 0.16129
 H190 H 0.72244 0.84271 0.20426
 H191 H 0.71120 0.73346 0.18148
 H192 H 0.61307 0.85398 0.11275
 H193 H 0.56356 0.83680 0.06735
 H194 H 0.60115 0.72986 0.08124
 C195 C 0.64685 0.27232 -0.14272
 C196 C 0.63451 0.30626 -0.14037
 C197 C 0.64725 0.33102 -0.16142
 C198 C 0.67360 0.32029 -0.18590
 C199 C 0.68655 0.28531 -0.18896
 C200 C 0.67296 0.26116 -0.16673
 O201 O 0.63088 0.25268 -0.12103
 C202 C 0.60785 0.27463 -0.10462
 C203 C 0.60892 0.30777 -0.11539
 C204 C 0.58631 0.33460 -0.10200
 C205 C 0.56151 0.32688 -0.07670
 C206 C 0.55977 0.29278 -0.06535
 C207 C 0.58362 0.26643 -0.07952
 H208 H 0.63696 0.35755 -0.15937
 H209 H 0.68322 0.33907 -0.20303
 H210 H 0.68237 0.23434 -0.16815
 H211 H 0.58745 0.36049 -0.11094
 H212 H 0.54350 0.34740 -0.06625
 H213 H 0.58295 0.24009 -0.07177
 C214 C 0.31020 0.74311 -0.13715
 C215 C 0.32328 0.70938 -0.13481
 C216 C 0.30797 0.68340 -0.15622
 C217 C 0.27871 0.69272 -0.18174
 C218 C 0.26554 0.72755 -0.18541
 C219 C 0.28103 0.75287 -0.16202
 O220 O 0.32989 0.76415 -0.11608
 C221 C 0.35615 0.74333 -0.10023
 C222 C 0.35346 0.70955 -0.11074
 C223 C 0.37957 0.68381 -0.09906
 C224 C 0.40959 0.69332 -0.07559
 C225 C 0.41289 0.72806 -0.06436
 C226 C 0.38549 0.75329 -0.07681
 H227 H 0.31905 0.65709 -0.15430
 H228 H 0.26774 0.67310 -0.19991
 H229 H 0.27185 0.77967 -0.16432
 H230 H 0.37723 0.65745 -0.10811
 H231 H 0.43027 0.67366 -0.06631
 H232 H 0.38736 0.78008 -0.06922
 C233 C 0.16614 0.32301 0.27029
 C234 C 0.17012 0.33342 0.30598
 C235 C 0.19553 0.31708 0.33081
 C236 C 0.21757 0.28891 0.31830
 C237 C 0.21390 0.27771 0.28153
 C238 C 0.18772 0.29521 0.25731
 O239 O 0.14045 0.34175 0.25105
 C240 C 0.12791 0.36454 0.27505
 C241 C 0.14505 0.36069 0.30910
 C242 C 0.13588 0.38206 0.33818
 C243 C 0.10800 0.40844 0.33179
 C244 C 0.08998 0.41286 0.29679
 C245 C 0.10028 0.39039 0.26815
 H246 H 0.19831 0.32571 0.35877
 H247 H 0.23775 0.27609 0.33715
 H248 H 0.18382 0.28714 0.22923
 H249 H 0.14971 0.37860 0.36479
 H250 H 0.10054 0.42537 0.35403
 H251 H 0.08725 0.39290 0.24108
 C252 C 0.11392 0.66286 0.73993
 C253 C 0.10264 0.66133 0.70392
 C254 C 0.11709 0.68079 0.67870
 C255 C 0.14473 0.70253 0.69095
 C256 C 0.15753 0.70497 0.72826
 C257 C 0.14083 0.68478 0.75294
 O258 O 0.09780 0.64101 0.75919
 C259 C 0.07595 0.62525 0.73461
 C260 C 0.07783 0.63695 0.70041
 C261 C 0.05813 0.62359 0.67036
 C262 C 0.03573 0.59684 0.67568
 C263 C 0.03358 0.58374 0.71061
 C264 C 0.05389 0.59845 0.74059
 H265 H 0.10821 0.67853 0.65030
 H266 H 0.15714 0.71569 0.67045
 H267 H 0.14781 0.68598 0.78170
 H268 H 0.06025 0.63314 0.64369
 H269 H 0.02054 0.58601 0.65232
 H270 H 0.05307 0.58901 0.76751
 C271 C -0.12930 0.66159 0.25873
 C272 C -0.12865 0.64808 0.22428
 C273 C -0.14701 0.66394 0.19466
 C274 C -0.16754 0.69484 0.20073
 C275 C -0.17007 0.70944 0.23625
 C276 C -0.14973 0.69234 0.26557
 O277 O -0.10947 0.64231 0.28299
 C278 C -0.09609 0.61610 0.26323
 C279 C -0.10722 0.61849 0.22717
 C280 C -0.09687 0.59401 0.20146
 C281 C -0.07366 0.56596 0.21328
 C282 C -0.06105 0.56290 0.25029
 C283 C -0.07273 0.58837 0.27569
 H284 H -0.14533 0.65306 0.16768
 H285 H -0.18025 0.70768 0.17716
 H286 H -0.15092 0.70147 0.29323
 H287 H -0.10616 0.59650 0.17324
 H288 H -0.06511 0.54690 0.19334
 H289 H -0.06359 0.58689 0.30404
 C290 C -0.16223 0.34908 0.75302
 C291 C -0.15012 0.34284 0.71928
 C292 C -0.16310 0.31747 0.69594
 C293 C -0.18967 0.29732 0.70774
 C294 C -0.20305 0.30231 0.74282
 C295 C -0.18887 0.32919 0.76561
 O296 O -0.14685 0.37553 0.77021
 C297 C -0.12480 0.38612 0.74652
 C298 C -0.12602 0.36683 0.71496
 C299 C -0.10671 0.37386 0.68570
 C300 C -0.08547 0.40233 0.68879
 C301 C -0.08366 0.42299 0.72085
 C302 C -0.10320 0.41448 0.75046
 H303 H -0.15369 0.31376 0.66911
 H304 H -0.20093 0.27901 0.68822
 H305 H -0.19741 0.33429 0.79254
 H306 H -0.10847 0.35834 0.66108
 H307 H -0.07058 0.40846 0.66601
 H308 H -0.10274 0.43014 0.77500
 C309 C 0.25756 0.11696 0.34048
 C310 C 0.29296 0.10203 0.34090
 C311 C 0.32038 0.11466 0.32218
 C312 C 0.31090 0.14375 0.30173
 C313 C 0.27442 0.15956 0.30012
 C314 C 0.24741 0.14598 0.32010
 O315 O 0.23627 0.10144 0.36146
 C316 C 0.25884 0.07623 0.37540
 C317 C 0.29377 0.07557 0.36349
 C318 C 0.32237 0.05240 0.37542
 C319 C 0.31500 0.02934 0.40139
 C320 C 0.27950 0.02973 0.41488
 C321 C 0.25070 0.05310 0.40111
 H322 H 0.34821 0.10273 0.32353
 H323 H 0.33220 0.15420 0.28747
 H324 H 0.21938 0.15742 0.31953
 H325 H 0.34966 0.05260 0.36573
 H326 H 0.33729 0.01159 0.41160
 H327 H 0.22357 0.05439 0.41139
 C328 C 0.73794 0.16734 0.66026
 C329 C 0.71684 0.14226 0.67077
 C330 C 0.70039 0.14427 0.70338
 C331 C 0.70611 0.17322 0.72605
 C332 C 0.72734 0.19988 0.71552
 C333 C 0.74283 0.19669 0.68159
 O334 O 0.75289 0.15999 0.62932
 C335 C 0.74088 0.12956 0.61990
 C336 C 0.71826 0.11771 0.64404
 C337 C 0.70250 0.08637 0.63912
 C338 C 0.71077 0.06638 0.60835
 C339 C 0.73515 0.07762 0.58394
 C340 C 0.75029 0.10972 0.58976
 H341 H 0.68439 0.12393 0.71145
 H342 H 0.69447 0.17436 0.75196
 H343 H 0.75833 0.21646 0.67157
 H344 H 0.68473 0.07752 0.65837
 H345 H 0.69932 0.04163 0.60421
 H346 H 0.76903 0.11880 0.57154
 C347 C 0.23263 -0.16124 0.65857
 C348 C 0.27035 -0.16090 0.65799
 C349 C 0.29514 -0.18161 0.67919
 C350 C 0.28055 -0.20367 0.70226
 C351 C 0.24169 -0.20427 0.70444
 C352 C 0.21735 -0.18271 0.68193
 O353 O 0.21427 -0.14001 0.63514
 C354 C 0.24115 -0.12604 0.61961
 C355 C 0.27587 -0.13796 0.63299
 C356 C 0.30816 -0.12716 0.62107
 C357 C 0.30472 -0.10303 0.59404
 C358 C 0.26937 -0.09033 0.57909
 C359 C 0.23698 -0.10208 0.59213
 H360 H 0.32472 -0.18122 0.67762
 H361 H 0.29975 -0.22076 0.71793
 H362 H 0.18763 -0.18250 0.68267
 H363 H 0.33510 -0.13706 0.63212
 H364 H 0.32987 -0.09472 0.58437
 H365 H 0.20966 -0.09297 0.58128
 C366 C 0.78345 -0.14133 0.35219
 C367 C 0.81972 -0.13416 0.36040
 C368 C 0.84875 -0.15040 0.34279
 C369 C 0.83995 -0.17474 0.31540
 C370 C 0.80263 -0.18237 0.30625
 C371 C 0.77413 -0.16552 0.32535
 O372 O 0.75988 -0.12261 0.37142
 C373 C 0.78171 -0.10312 0.39221
 C374 C 0.81858 -0.10916 0.38663
 C375 C 0.84607 -0.09112 0.40531
 C376 C 0.83505 -0.06588 0.43073
 C377 C 0.79708 -0.05909 0.43682
 C378 C 0.77015 -0.07818 0.41717
 H379 H 0.87708 -0.14418 0.34948
 H380 H 0.86208 -0.18695 0.30074
 H381 H 0.74543 -0.17088 0.31938
 H382 H 0.87493 -0.09621 0.40042
 H383 H 0.85607 -0.05153 0.44544
 H384 H 0.74097 -0.07372 0.42104
 C385 C 0.61762 0.77181 -0.17343
 C386 C 0.61401 0.80511 -0.16062
 C387 C 0.63425 0.83068 -0.17274
 C388 C 0.65971 0.82137 -0.19849
 C389 C 0.66423 0.78700 -0.21188
 C390 C 0.64189 0.76221 -0.19963
 O391 O 0.59836 0.75073 -0.15647
 C392 C 0.58228 0.77109 -0.13233
 C393 C 0.59058 0.80471 -0.13385
 C394 C 0.57781 0.82994 -0.10972
 C395 C 0.55609 0.81994 -0.08273
 C396 C 0.54833 0.78515 -0.08002
 C397 C 0.56123 0.76060 -0.10561
 H398 H 0.63164 0.85658 -0.16173
 H399 H 0.67696 0.84069 -0.20667
 H400 H 0.64411 0.73582 -0.20920
 H401 H 0.58495 0.85619 -0.11115
 H402 H 0.54653 0.83897 -0.06320
 H403 H 0.55593 0.73383 -0.10421
 C404 C 0.33311 0.26028 -0.17569
 C405 C 0.33596 0.22783 -0.16232
 C406 C 0.31512 0.20174 -0.17713
 C407 C 0.29072 0.20919 -0.20736
 C408 C 0.28803 0.24213 -0.22277
 C409 C 0.30934 0.26818 -0.20616
 O410 O 0.35529 0.28136 -0.15727
 C411 C 0.37258 0.26166 -0.13189
 C412 C 0.36192 0.22861 -0.13406
 C413 C 0.37720 0.20335 -0.11095
 C414 C 0.40447 0.21255 -0.08428
 C415 C 0.41548 0.24664 -0.08084
 C416 C 0.39920 0.27157 -0.10506
 H417 H 0.31752 0.17652 -0.16580
 H418 H 0.27393 0.18914 -0.21869
 H419 H 0.30829 0.29350 -0.21713
 H420 H 0.36851 0.17745 -0.11341
 H421 H 0.41648 0.19326 -0.06584
 H422 H 0.40719 0.29772 -0.10322
 C423 C 0.37614 0.71885 0.17333
 C424 C 0.38276 0.68703 0.15761
 C425 C 0.36651 0.65821 0.16781
 C426 C 0.34201 0.66238 0.19510
 C427 C 0.33458 0.69498 0.21222
 C428 C 0.35277 0.72346 0.20130
 O429 O 0.39241 0.74328 0.15794
 C430 C 0.40984 0.72642 0.13205
 C431 C 0.40508 0.69186 0.13100
 C432 C 0.42026 0.66938 0.10568
 C433 C 0.44108 0.68309 0.08024
 C434 C 0.44574 0.71879 0.08014
 C435 C 0.42995 0.74074 0.10659
 H436 H 0.37196 0.63347 0.15476
 H437 H 0.32963 0.63985 0.20337
 H438 H 0.34712 0.74901 0.21238
 H439 H 0.41595 0.64230 0.10532
 H440 H 0.45274 0.66597 0.06002
 H441 H 0.43295 0.76807 0.10714
 C442 C 0.63940 0.27342 0.17773
 C443 C 0.62229 0.30586 0.17808
 C444 C 0.63198 0.33085 0.20384
 C445 C 0.66070 0.32215 0.23012
 C446 C 0.67918 0.28896 0.23020
 C447 C 0.66799 0.26418 0.20367
 O448 O 0.62634 0.25366 0.15063
 C449 C 0.60044 0.27409 0.13350
 C450 C 0.59689 0.30630 0.14920
 C451 C 0.57176 0.33188 0.13540
 C452 C 0.54929 0.32392 0.10421
 C453 C 0.55223 0.29081 0.08746
 C454 C 0.57833 0.26558 0.10250
 H455 H 0.61808 0.35620 0.20360
 H456 H 0.66851 0.34128 0.25045
 H457 H 0.68176 0.23880 0.20263
 H458 H 0.56956 0.35710 0.14816
 H459 H 0.52953 0.34358 0.09323
 H460 H 0.58143 0.24010 0.09046
 C461 C -0.19266 0.65667 0.73220
 C462 C -0.19048 0.64258 0.76563
 C463 C -0.20972 0.65688 0.79378
 C464 C -0.23198 0.68711 0.78737
 C465 C -0.23469 0.70291 0.75308
 C466 C -0.21462 0.68668 0.72510
 O467 O -0.17110 0.63973 0.70949
 C468 C -0.15473 0.61453 0.72918
 C469 C -0.16562 0.61516 0.76377
 C470 C -0.15056 0.59225 0.78957
 C471 C -0.12277 0.56798 0.77945
 C472 C -0.11080 0.56691 0.74398
 C473 C -0.12751 0.59028 0.71836
 H474 H -0.20701 0.64560 0.82011
 H475 H -0.24515 0.69886 0.81014
 H476 H -0.21619 0.69650 0.69816
 H477 H -0.15930 0.59348 0.81675
 H478 H -0.11027 0.55031 0.79939
 H479 H -0.11852 0.59055 0.69132
 C480 C -0.15918 0.36039 0.28289
 C481 C -0.14943 0.36739 0.31873
 C482 C -0.16634 0.35338 0.34651
 C483 C -0.19421 0.33096 0.33697
 C484 C -0.20478 0.32324 0.30021
 C485 C -0.18722 0.33852 0.27279
 O486 O -0.13886 0.37556 0.26079
 C487 C -0.11583 0.39253 0.28318
 C488 C -0.12126 0.38846 0.31890
 C489 C -0.10009 0.40376 0.34689
 C490 C -0.07222 0.42419 0.33772
 C491 C -0.06580 0.42873 0.30106
 C492 C -0.08804 0.41251 0.27343
 H493 H -0.15801 0.35911 0.37451
 H494 H -0.20749 0.31945 0.35817
 H495 H -0.19434 0.33267 0.24455
 H496 H -0.10485 0.40010 0.37481
 H497 H -0.05551 0.43628 0.35925
 H498 H -0.08399 0.41546 0.24521
 C499 C 0.15218 0.36139 0.71743
 C500 C 0.14944 0.37405 0.68319
 C501 C 0.17092 0.36048 0.65621
 C502 C 0.19562 0.33222 0.66461
 C503 C 0.19828 0.31798 0.69942
 C504 C 0.17675 0.33336 0.72643
 O505 O 0.12800 0.37695 0.73853
 C506 C 0.10952 0.39978 0.71710
 C507 C 0.12148 0.39899 0.68293
 C508 C 0.10457 0.41937 0.65558
 C509 C 0.07410 0.44149 0.66380
 C510 C 0.06132 0.44298 0.69893
 C511 C 0.07958 0.42188 0.72598
 H512 H 0.16811 0.37072 0.62940
 H513 H 0.21204 0.32084 0.64372
 H514 H 0.17754 0.32266 0.75296
 H515 H 0.11415 0.41793 0.62873
 H516 H 0.06049 0.45742 0.64279
 H517 H 0.07018 0.42197 0.75288
 C518 C 0.17265 0.62711 0.27224
 C519 C 0.15740 0.62494 0.23725
 C520 C 0.16892 0.64365 0.20968
 C521 C 0.19805 0.66481 0.21827
 C522 C 0.21542 0.66658 0.25382
 C523 C 0.20185 0.64804 0.28143
 O524 O 0.15798 0.60653 0.29408
 C525 C 0.13316 0.59098 0.27229
 C526 C 0.13195 0.60120 0.23722
 C527 C 0.10913 0.58726 0.20959
 C528 C 0.08622 0.56197 0.21854
 C529 C 0.08624 0.55141 0.25466
 C530 C 0.11020 0.56617 0.28191
 H531 H 0.15639 0.64158 0.18239
 H532 H 0.20776 0.67921 0.19697
 H533 H 0.21479 0.64857 0.30867
 H534 H 0.10902 0.59551 0.18211
 H535 H 0.06795 0.55112 0.19743
 H536 H 0.11105 0.55851 0.30967
 C537 C 0.73922 -0.14032 0.65064
 C538 C 0.77656 -0.13589 0.65395
 C539 C 0.80140 -0.15475 0.67710
 C540 C 0.78720 -0.17925 0.69779
 C541 C 0.74878 -0.18441 0.69506
 C542 C 0.72442 -0.16449 0.67115
 O543 O 0.72058 -0.11967 0.62693
 C544 C 0.74677 -0.10181 0.61514
 C545 C 0.78144 -0.11077 0.63098
 C546 C 0.81290 -0.09527 0.62303
 C547 C 0.80854 -0.06944 0.59763
 C548 C 0.77314 -0.05967 0.58057
 C549 C 0.74178 -0.07624 0.58953
 H550 H 0.83065 -0.15065 0.67928
 H551 H 0.80609 -0.19381 0.71643
 H552 H 0.69500 -0.16789 0.66846
 H553 H 0.83986 -0.10277 0.63596
 H554 H 0.83290 -0.05721 0.59114
 H555 H 0.71441 -0.06936 0.57714
 C556 C 0.27550 -0.19968 0.36144
 C557 C 0.31081 -0.20002 0.37789
 C558 C 0.33858 -0.22453 0.36963
 C559 C 0.32982 -0.24930 0.34282
 C560 C 0.29386 -0.24908 0.32472
 C561 C 0.26611 -0.22421 0.33475
 O562 O 0.25360 -0.17352 0.37250
 C563 C 0.27561 -0.15699 0.39631
 C564 C 0.31092 -0.17210 0.40054
 C565 C 0.33877 -0.15837 0.42323
 C566 C 0.32980 -0.12791 0.44253
 C567 C 0.29346 -0.11191 0.43892
 C568 C 0.26603 -0.12684 0.41539
 H569 H 0.36617 -0.22425 0.38289
 H570 H 0.35125 -0.26835 0.33567
 H571 H 0.23863 -0.22306 0.32108
 H572 H 0.36646 -0.17060 0.42586
 H573 H 0.35110 -0.11697 0.46044
 H574 H 0.23810 -0.11525 0.41178
 C575 C 0.73782 0.16414 0.35542
 C576 C 0.77169 0.14726 0.35088
 C577 C 0.79670 0.15851 0.32829
 C578 C 0.78677 0.18885 0.31004
 C579 C 0.75239 0.20725 0.31464
 C580 C 0.72716 0.19437 0.33710
 O581 O 0.71942 0.15012 0.38009
 C582 C 0.74232 0.12398 0.39142
 C583 C 0.77466 0.12132 0.37433
 C584 C 0.80377 0.09761 0.38353
 C585 C 0.79961 0.07582 0.41173
 C586 C 0.76664 0.07777 0.42995
 C587 C 0.73723 0.10190 0.41928
 H588 H 0.82339 0.14498 0.32564
 H589 H 0.80626 0.19864 0.29306
 H590 H 0.70116 0.20843 0.34169
 H591 H 0.82914 0.09645 0.37002
 H592 H 0.82225 0.05741 0.41953
 H593 H 0.71208 0.10433 0.43318
 C594 C 0.25104 0.14661 0.62704
 C595 C 0.21512 0.14147 0.61472
 C596 C 0.18524 0.16312 0.62403
 C597 C 0.19264 0.19121 0.64715
 C598 C 0.22945 0.19716 0.66045
 C599 C 0.25906 0.17441 0.65011
 O600 O 0.27531 0.12285 0.61498
 C601 C 0.25418 0.10226 0.59466
 C602 C 0.21716 0.11255 0.59370
 C603 C 0.19004 0.09473 0.57434
 C604 C 0.20152 0.06507 0.55505
 C605 C 0.23959 0.05380 0.55534
 C606 C 0.26628 0.07281 0.57557
 H607 H 0.15719 0.15839 0.61409
 H608 H 0.16959 0.20792 0.65527
 H609 H 0.28744 0.17829 0.65963
 H610 H 0.16107 0.10334 0.57407
 H611 H 0.18062 0.05102 0.53975
 H612 H 0.29550 0.06499 0.57643
   
