data_POSCAR
  _audit_creation_date              2014-09-24
  _audit_creation_method            'ToBaCCo'
  _symmetry_space_group_name_H-M    'P1'
  _symmetry_Int_Tables_number       1
  _symmetry_cell_setting            triclinic
  loop_
  _symmetry_equiv_pos_as_xyz
 x,y,z
_cell_length_a 21.9070
_cell_length_b 22.0107
_cell_length_c 21.8849
_cell_angle_alpha 87.569400
_cell_angle_beta 93.953500
_cell_angle_gamma 89.061600
loop_
  _atom_site_label
  _atom_site_type_symbol
  _atom_site_fract_x
  _atom_site_fract_y
  _atom_site_fract_z
C1 C 0.63202 0.55199 0.00400
 C2 C 0.61315 0.61314 -0.00157
 C3 C 0.55155 0.63106 -0.00029
 C4 C 0.50672 0.58565 0.00620
 C5 C 0.52468 0.52317 0.00839
 C6 C 0.58729 0.50629 0.00652
 C7 C 0.60338 0.44425 0.00437
 C8 C 0.55947 0.39958 0.00681
 C9 C 0.49754 0.41507 0.01087
 C10 C 0.47973 0.47734 0.01083
 C11 C 0.44409 0.60068 0.00701
 C12 C 0.40052 0.55588 0.01180
 C13 C 0.41694 0.49385 0.01187
 C14 C 0.37233 0.44775 0.01374
 C15 C 0.39141 0.38659 0.01690
 C16 C 0.45272 0.36985 0.01352
 H17 H 0.65019 0.42957 0.00004
 H18 H 0.57461 0.35267 0.00518
 H19 H 0.42761 0.64731 0.00319
 H20 H 0.35345 0.57057 0.01434
 H21 H 0.64767 0.64792 -0.00352
 H22 H 0.35753 0.35117 0.01780
 C23 C 0.00278 0.62456 0.45401
 C24 C -0.00105 0.60949 0.39256
 C25 C -0.00514 0.54904 0.37516
 C26 C -0.00460 0.50158 0.42139
 C27 C -0.00137 0.51633 0.48412
 C28 C 0.00186 0.57797 0.50045
 C29 C 0.00359 0.59150 0.56274
 C30 C 0.00391 0.54548 0.60828
 C31 C 0.00030 0.48414 0.59332
 C32 C -0.00257 0.46939 0.53070
 C33 C -0.01055 0.44014 0.40676
 C34 C -0.01037 0.39417 0.45239
 C35 C -0.00661 0.40777 0.51460
 C36 C -0.00726 0.36135 0.56126
 C37 C -0.00418 0.37658 0.62266
 C38 C -0.00020 0.43705 0.63933
 H39 H 0.00499 0.63792 0.57704
 H40 H 0.00680 0.55867 0.65543
 H41 H -0.01619 0.42673 0.35979
 H42 H -0.01408 0.34775 0.43830
 H43 H 0.00017 0.64574 0.35747
 H44 H -0.00473 0.34070 0.65817
 C45 C 0.55660 0.01513 0.64465
 C46 C 0.61765 0.01144 0.62938
 C47 C 0.63337 0.00469 0.56892
 C48 C 0.58589 0.00622 0.52107
 C49 C 0.52371 0.00817 0.53563
 C50 C 0.50889 0.01234 0.59750
 C51 C 0.44681 0.01773 0.60995
 C52 C 0.40038 0.01562 0.56348
 C53 C 0.41394 0.00984 0.50223
 C54 C 0.47612 0.00763 0.48791
 C55 C 0.59894 0.00907 0.45889
 C56 C 0.55246 0.00866 0.41233
 C57 C 0.49078 0.00646 0.42583
 C58 C 0.44321 0.00532 0.37874
 C59 C 0.38222 0.00496 0.39391
 C60 C 0.36691 0.00819 0.45465
 H61 H 0.43320 0.02464 0.65573
 H62 H 0.35361 0.01978 0.57602
 H63 H 0.64544 0.01218 0.44549
 H64 H 0.56550 0.01058 0.36551
 H65 H 0.65365 0.01023 0.66612
 H66 H 0.34598 0.00372 0.35763
 O67 O 0.46586 -0.00173 -0.08236
 O68 O 0.43947 -0.00538 0.08189
 O69 O 0.44641 0.07878 -0.00396
 O70 O 0.46192 -0.08812 0.00197
 O71 O 0.56187 -0.08020 0.02063
 O72 O 0.54501 0.08621 0.02334
 O73 O 0.53916 -0.00208 0.10498
 O74 O 0.56472 0.01002 -0.05973
 Cu75 Cu 0.44333 -0.00540 -0.00235
 Cu76 Cu 0.56274 0.00358 0.02503
 C77 C 0.51951 0.00698 -0.09903
 C78 C 0.48465 -0.00319 0.12120
 C79 C 0.49305 0.11081 0.00826
 C80 C 0.51504 -0.11225 0.00996
 O81 O -0.07889 0.55418 0.99393
 O82 O 0.08857 0.54045 1.00185
 O83 O 0.00202 0.53211 0.91571
 O84 O 0.00600 0.55856 1.08093
 O85 O 0.00108 0.45952 1.10093
 O86 O -0.00310 0.43312 0.93609
 O87 O 0.08279 0.44160 1.02200
 O88 O -0.08508 0.45540 1.01453
 Cu89 Cu 0.00525 0.55628 0.99611
 Cu90 Cu -0.00166 0.43742 1.02034
 C91 C -0.11039 0.50756 1.00455
 C92 C 0.11412 0.48849 1.01165
 C93 C -0.00027 0.47794 0.89806
 C94 C 0.00255 0.51357 1.11881
 O95 O -0.00918 -0.08182 0.44978
 O96 O -0.01785 0.08320 0.46924
 O97 O 0.06933 0.00685 0.44848
 O98 O -0.09512 -0.00427 0.47272
 O99 O -0.07241 -0.01626 0.57253
 O100 O 0.09211 -0.01165 0.54754
 O101 O 0.00846 0.06822 0.56817
 O102 O 0.01159 -0.09730 0.54948
 Cu103 Cu -0.01533 0.00218 0.44998
 Cu104 Cu 0.01207 -0.01610 0.56942
 C105 C 0.00280 -0.11764 0.49619
 C106 C -0.00617 0.10370 0.52202
 C107 C 0.10860 -0.00005 0.49390
 C108 C -0.11166 -0.01090 0.52704
 C109 C -0.27315 0.50695 1.05819
 C110 C -0.30454 0.53870 1.00695
 C111 C -0.27101 0.56054 0.95853
 C112 C -0.20859 0.54870 0.95828
 C113 C -0.17718 0.51511 1.00660
 C114 C -0.20904 0.49460 1.05771
 C115 C -0.30318 0.49074 1.11155
 C116 C -0.27154 0.46137 1.16209
 C117 C -0.20932 0.44848 1.16120
 C118 C -0.17813 0.46512 1.10990
 H119 H -0.35104 0.50162 1.11533
 H120 H -0.29530 0.44925 1.20249
 H121 H -0.18480 0.42638 1.20093
 H122 H -0.12945 0.45598 1.11264
 H123 H -0.29370 0.58597 0.91968
 H124 H -0.18447 0.56586 0.91972
 C125 C 0.27737 0.49205 0.95929
 C126 C 0.30881 0.46040 1.01054
 C127 C 0.27516 0.43729 1.05830
 C128 C 0.21249 0.44785 1.05800
 C129 C 0.18103 0.48168 1.00991
 C130 C 0.21314 0.50376 0.95952
 C131 C 0.30757 0.50890 0.90620
 C132 C 0.27610 0.53893 0.85596
 C133 C 0.21388 0.55184 0.85687
 C134 C 0.18247 0.53424 0.90775
 H135 H 0.35547 0.49817 0.90249
 H136 H 0.29999 0.55165 0.81582
 H137 H 0.18951 0.57457 0.81742
 H138 H 0.13378 0.54330 0.90485
 H139 H 0.29791 0.41168 1.09701
 H140 H 0.18827 0.42965 1.09604
 C141 C 0.05845 -0.28376 0.49663
 C142 C 0.00599 -0.30982 0.46729
 C143 C -0.04430 -0.27241 0.44712
 C144 C -0.04394 -0.21036 0.45644
 C145 C 0.00597 -0.18381 0.48776
 C146 C 0.05800 -0.22043 0.50806
 C147 C 0.11178 -0.31904 0.51374
 C148 C 0.16294 -0.29294 0.54277
 C149 C 0.16227 -0.23134 0.55467
 C150 C 0.11057 -0.19524 0.53733
 H151 H 0.11458 -0.36687 0.50454
 H152 H 0.20343 -0.32059 0.55582
 H153 H 0.20225 -0.21127 0.57694
 H154 H 0.11260 -0.14750 0.54651
 H155 H -0.08418 -0.29151 0.42353
 H156 H -0.08338 -0.18292 0.43937
 C157 C -0.06456 0.26796 0.52665
 C158 C -0.00979 0.29586 0.54810
 C159 C 0.04363 0.26047 0.56072
 C160 C 0.04375 0.19824 0.55200
 C161 C -0.00944 0.16969 0.52998
 C162 C -0.06436 0.20429 0.51725
 C163 C -0.11978 0.30179 0.51545
 C164 C -0.17356 0.27354 0.49528
 C165 C -0.17349 0.21129 0.48635
 C166 C -0.11960 0.17677 0.49732
 H167 H -0.12193 0.35012 0.52247
 H168 H -0.21560 0.30002 0.48689
 H169 H -0.21550 0.18954 0.47119
 H170 H -0.12191 0.12844 0.49069
 H171 H 0.08554 0.28130 0.57783
 H172 H 0.08587 0.17212 0.56214
 C173 C 0.56928 0.06479 -0.25533
 C174 C 0.54550 0.01792 -0.29259
 C175 C 0.51313 -0.02940 -0.26536
 C176 C 0.50477 -0.03150 -0.20292
 C177 C 0.52922 0.01299 -0.16509
 C178 C 0.56099 0.06228 -0.19115
 C179 C 0.59802 0.11601 -0.28105
 C180 C 0.61936 0.16253 -0.24446
 C181 C 0.61169 0.15977 -0.18189
 C182 C 0.58253 0.11051 -0.15537
 H183 H 0.60310 0.12137 -0.32977
 H184 H 0.64124 0.20137 -0.26494
 H185 H 0.62763 0.19644 -0.15385
 H186 H 0.57601 0.11158 -0.10695
 H187 H 0.49549 -0.06614 -0.29250
 H188 H 0.48014 -0.06921 -0.18361
 C189 C 0.43919 0.05735 0.27284
 C190 C 0.45511 0.00621 0.31266
 C191 C 0.48066 -0.04591 0.28908
 C192 C 0.49050 -0.04808 0.22694
 C193 C 0.47344 0.00113 0.18646
 C194 C 0.44746 0.05442 0.20909
 C195 C 0.41612 0.11179 0.29523
 C196 C 0.40012 0.16157 0.25552
 C197 C 0.40715 0.15835 0.19303
 C198 C 0.43069 0.10547 0.16988
 H199 H 0.41103 0.11666 0.34355
 H200 H 0.38239 0.20294 0.27336
 H201 H 0.39478 0.19717 0.16238
 H202 H 0.43582 0.10518 0.12120
 H203 H 0.49299 -0.08521 0.31914
 H204 H 0.51069 -0.08885 0.21009
 C205 C 0.55683 -0.26624 -0.05111
 C206 C 0.53779 -0.30576 -0.00303
 C207 C 0.51016 -0.28036 0.04638
 C208 C 0.50214 -0.21767 0.04933
 C209 C 0.52290 -0.17820 0.00392
 C210 C 0.55006 -0.20210 -0.04705
 C211 C 0.57993 -0.28918 -0.10459
 C212 C 0.59835 -0.25000 -0.15127
 C213 C 0.59342 -0.18737 -0.14629
 C214 C 0.56931 -0.16348 -0.09495
 H215 H 0.58294 -0.33749 -0.11142
 H216 H 0.61612 -0.26835 -0.19173
 H217 H 0.60758 -0.15712 -0.18275
 H218 H 0.56533 -0.11461 -0.09356
 H219 H 0.49656 -0.30922 0.08426
 H220 H 0.48116 -0.19967 0.08835
 C221 C 0.45272 0.27436 -0.04687
 C222 C 0.46717 0.30436 0.00817
 C223 C 0.49298 0.27128 0.05984
 C224 C 0.50308 0.20877 0.05826
 C225 C 0.48641 0.17755 0.00539
 C226 C 0.46223 0.21033 -0.04826
 C227 C 0.42939 0.30682 -0.10074
 C228 C 0.41593 0.27682 -0.15474
 C229 C 0.42556 0.21426 -0.15623
 C230 C 0.44847 0.18114 -0.10367
 H231 H 0.42198 0.35560 -0.10180
 H232 H 0.39827 0.30230 -0.19575
 H233 H 0.41549 0.19128 -0.19842
 H234 H 0.45602 0.13282 -0.10725
 H235 H 0.50435 0.29395 0.10200
 H236 H 0.52217 0.18421 0.09932
 C237 C -0.28083 -0.05277 0.52610
 C238 C -0.30373 -0.00337 0.55864
 C239 C -0.26185 0.03835 0.58345
 C240 C -0.19995 0.03447 0.57326
 C241 C -0.17745 -0.01095 0.53767
 C242 C -0.21763 -0.05536 0.51410
 C243 C -0.31839 -0.10151 0.50814
 C244 C -0.29546 -0.14898 0.47568
 C245 C -0.23450 -0.14985 0.46166
 C246 C -0.19571 -0.10389 0.48107
 H247 H -0.36551 -0.10392 0.51968
 H248 H -0.32505 -0.18556 0.46178
 H249 H -0.21687 -0.18695 0.43666
 H250 H -0.14827 -0.10724 0.47095
 H251 H -0.27749 0.07580 0.60934
 H252 H -0.16948 0.06831 0.59211
 C253 C 0.26271 0.06152 0.44954
 C254 C 0.30087 0.01001 0.46639
 C255 C 0.27570 -0.04185 0.49316
 C256 C 0.21353 -0.04376 0.50258
 C257 C 0.17438 0.00562 0.48438
 C258 C 0.19888 0.05927 0.45837
 C259 C 0.28688 0.11569 0.42518
 C260 C 0.24906 0.16628 0.40936
 C261 C 0.18678 0.16419 0.41810
 C262 C 0.16176 0.11144 0.44261
 H263 H 0.33520 0.11972 0.41902
 H264 H 0.26828 0.20752 0.39074
 H265 H 0.15777 0.20383 0.40630
 H266 H 0.11342 0.11238 0.44976
 H267 H 0.30446 -0.08139 0.50641
 H268 H 0.19568 -0.08470 0.52318
 C269 C -0.05404 0.56562 1.26984
 C270 C -0.00793 0.53831 1.31182
 C271 C 0.03893 0.50327 1.28909
 C272 C 0.04140 0.49576 1.22651
 C273 C -0.00200 0.52409 1.18437
 C274 C -0.05069 0.55883 1.20567
 C275 C -0.10538 0.59659 1.29045
 C276 C -0.15094 0.62180 1.24899
 C277 C -0.14696 0.61617 1.18637
 C278 C -0.09760 0.58494 1.16474
 H279 H -0.11162 0.60042 1.33874
 H280 H -0.18990 0.64528 1.26560
 H281 H -0.18277 0.63534 1.15438
 H282 H -0.09748 0.58054 1.11581
 H283 H 0.07499 0.48275 1.32003
 H284 H 0.07833 0.46853 1.21067
 C285 C 0.05500 0.43046 0.74522
 C286 C 0.00341 0.44890 0.70572
 C287 C -0.04716 0.47647 0.72997
 C288 C -0.04725 0.48620 0.79241
 C289 C 0.00235 0.46680 0.83253
 C290 C 0.05401 0.43848 0.80934
 C291 C 0.10793 0.40495 0.72225
 C292 C 0.15825 0.38685 0.76172
 C293 C 0.15685 0.39365 0.82453
 C294 C 0.10530 0.41904 0.84831
 H295 H 0.11120 0.39938 0.67369
 H296 H 0.19857 0.36750 0.74346
 H297 H 0.19606 0.37960 0.85497
 H298 H 0.10638 0.42379 0.89729
 H299 H -0.08690 0.49048 0.70018
 H300 H -0.08681 0.50805 0.80977
   
