data_POSCAR
  _audit_creation_date              2014-09-24
  _audit_creation_method            'ToBaCCo'
  _symmetry_space_group_name_H-M    'P1'
  _symmetry_Int_Tables_number       1
  _symmetry_cell_setting            triclinic
  loop_
  _symmetry_equiv_pos_as_xyz
 x,y,z
_cell_length_a 43.8316
_cell_length_b 43.8419
_cell_length_c 28.2596
_cell_angle_alpha 89.921800
_cell_angle_beta 89.609500
_cell_angle_gamma 82.781700
loop_
  _atom_site_label
  _atom_site_type_symbol
  _atom_site_fract_x
  _atom_site_fract_y
  _atom_site_fract_z
C1 C -0.00156 0.25577 -0.01814
 C2 C -0.00298 0.25655 0.03000
 C3 C -0.03213 0.25347 0.05499
 C4 C 0.02479 0.25875 0.05939
 C5 C 0.02841 0.25265 -0.04343
 C6 C -0.02986 0.25758 -0.04707
 C7 C -0.05274 0.27949 0.06615
 C8 C -0.08058 0.27639 0.08896
 C9 C -0.08772 0.24705 0.10274
 C10 C -0.06625 0.22119 0.09253
 C11 C -0.03918 0.22431 0.06779
 C12 C 0.04301 0.28253 0.05178
 C13 C 0.07051 0.28311 0.07649
 C14 C 0.08027 0.25990 0.10955
 C15 C 0.06125 0.23705 0.11864
 C16 C 0.03386 0.23644 0.09388
 C17 C 0.05165 0.22892 -0.03140
 C18 C 0.08125 0.22852 -0.04994
 C19 C 0.08790 0.25116 -0.08211
 C20 C 0.06420 0.27393 -0.09632
 C21 C 0.03463 0.27461 -0.07710
 C22 C -0.03695 0.23183 -0.07209
 C23 C -0.06395 0.23345 -0.09874
 C24 C -0.08416 0.26111 -0.10129
 C25 C -0.07672 0.28684 -0.07630
 C26 C -0.04976 0.28516 -0.04977
 H27 H -0.04732 0.30221 0.05700
 H28 H -0.09549 0.29725 0.09730
 H29 H -0.07074 0.19826 0.10246
 H30 H -0.02356 0.20395 0.05892
 H31 H 0.03614 0.30038 0.02608
 H32 H 0.08384 0.30179 0.06962
 H33 H 0.02038 0.21787 0.10073
 H34 H 0.04713 0.21140 -0.00615
 H35 H 0.09911 0.21070 -0.03868
 H36 H 0.06875 0.29199 -0.12054
 H37 H 0.01700 0.29307 -0.08683
 H38 H -0.02182 0.21034 -0.07028
 H39 H -0.06909 0.21282 -0.11628
 H40 H -0.09179 0.30838 -0.07744
 H41 H -0.04439 0.30541 -0.03128
 H42 H 0.06796 0.21910 0.14427
 C43 C 0.49627 0.77455 0.47864
 C44 C 0.49818 0.76986 0.52631
 C45 C 0.47017 0.76825 0.55580
 C46 C 0.52824 0.76489 0.55081
 C47 C 0.52372 0.77775 0.44859
 C48 C 0.46673 0.77418 0.45372
 C49 C 0.44583 0.79235 0.55571
 C50 C 0.41893 0.78990 0.58157
 C51 C 0.41588 0.76320 0.60811
 C52 C 0.44081 0.73972 0.60960
 C53 C 0.46767 0.74220 0.58372
 C54 C 0.53327 0.78249 0.59077
 C55 C 0.56191 0.77892 0.61287
 C56 C 0.58594 0.75760 0.59528
 C57 C 0.58064 0.73953 0.55602
 C58 C 0.55187 0.74271 0.53450
 C59 C 0.53024 0.75830 0.40948
 C60 C 0.55677 0.75968 0.38239
 C61 C 0.57745 0.78055 0.39363
 C62 C 0.57026 0.80097 0.43177
 C63 C 0.54362 0.79955 0.45893
 C64 C 0.45175 0.74774 0.45467
 C65 C 0.42396 0.74734 0.43110
 C66 C 0.41081 0.77336 0.40591
 C67 C 0.42571 0.79988 0.40543
 C68 C 0.45371 0.80016 0.42868
 H69 H 0.44763 0.81301 0.53536
 H70 H 0.40084 0.80908 0.58094
 H71 H 0.43928 0.71910 0.63020
 H72 H 0.48628 0.72345 0.58459
 H73 H 0.51525 0.79956 0.60407
 H74 H 0.56549 0.79359 0.64257
 H75 H 0.54821 0.72823 0.50458
 H76 H 0.51516 0.74141 0.40063
 H77 H 0.56147 0.74390 0.35302
 H78 H 0.58489 0.81815 0.44077
 H79 H 0.53864 0.81527 0.48830
 H80 H 0.46163 0.72745 0.47370
 H81 H 0.41264 0.72681 0.43315
 H82 H 0.41589 0.82022 0.38647
 H83 H 0.46507 0.82072 0.42765
 H84 H 0.59883 0.72292 0.54198
 C85 C 1.00338 0.73448 -0.01393
 C86 C 1.00476 0.73281 0.03429
 C87 C 1.03393 0.73398 0.06022
 C88 C 0.97664 0.73148 0.06370
 C89 C 0.97328 0.73904 -0.03836
 C90 C 1.03159 0.73249 -0.04405
 C91 C 1.04224 0.71287 0.09670
 C92 C 1.06913 0.71434 0.12231
 C93 C 1.08835 0.73667 0.11145
 C94 C 1.07981 0.75815 0.07547
 C95 C 1.05265 0.75701 0.05045
 C96 C 0.95749 0.70857 0.05636
 C97 C 0.93009 0.70884 0.08210
 C98 C 0.92151 0.73170 0.11616
 C99 C 0.94113 0.75429 0.12404
 C100 C 0.96850 0.75397 0.09832
 C101 C 0.95084 0.76338 -0.02535
 C102 C 0.92128 0.76537 -0.04398
 C103 C 0.91399 0.74382 -0.07728
 C104 C 0.93693 0.72043 -0.09231
 C105 C 0.96640 0.71810 -0.07296
 C106 C 1.03462 0.75513 -0.07821
 C107 C 1.06174 0.75459 -0.10467
 C108 C 1.08660 0.73135 -0.09784
 C109 C 1.08284 0.70785 -0.06474
 C110 C 1.05562 0.70845 -0.03838
 H111 H 1.02788 0.69522 0.10531
 H112 H 1.07511 0.69785 0.15036
 H113 H 1.09365 0.77631 0.06748
 H114 H 1.04608 0.77430 0.02377
 H115 H 0.96351 0.69082 0.03012
 H116 H 0.91541 0.69127 0.07511
 H117 H 0.98288 0.77195 0.10429
 H118 H 0.95594 0.78020 0.00051
 H119 H 0.90399 0.78364 -0.03208
 H120 H 0.93182 0.70319 -0.11742
 H121 H 0.98345 0.69925 -0.08352
 H122 H 1.01627 0.77377 -0.08350
 H123 H 1.06344 0.77289 -0.13001
 H124 H 1.10049 0.68884 -0.05851
 H125 H 1.05345 0.69029 -0.01303
 H126 H 0.93510 0.77288 0.14876
 C127 C 0.50319 0.22005 0.47486
 C128 C 0.50521 0.21499 0.52241
 C129 C 0.53483 0.21344 0.54837
 C130 C 0.47725 0.21295 0.55114
 C131 C 0.47333 0.22218 0.44959
 C132 C 0.53053 0.22429 0.44551
 C133 C 0.56075 0.19320 0.53449
 C134 C 0.58908 0.19417 0.55668
 C135 C 0.59206 0.21510 0.59350
 C136 C 0.56557 0.23411 0.60908
 C137 C 0.53738 0.23330 0.58664
 C138 C 0.47072 0.18434 0.56780
 C139 C 0.44365 0.18214 0.59330
 C140 C 0.42340 0.20865 0.60390
 C141 C 0.43030 0.23740 0.58784
 C142 C 0.45696 0.23948 0.56131
 C143 C 0.46300 0.24885 0.42395
 C144 C 0.43566 0.25085 0.39832
 C145 C 0.41802 0.22624 0.39772
 C146 C 0.42869 0.19925 0.42292
 C147 C 0.45610 0.19728 0.44855
 C148 C 0.54954 0.24672 0.45681
 C149 C 0.57590 0.24942 0.42989
 C150 C 0.58326 0.23018 0.39059
 C151 C 0.56342 0.20886 0.37803
 C152 C 0.53737 0.20581 0.40541
 H153 H 0.55920 0.17717 0.50575
 H154 H 0.60888 0.17885 0.54444
 H155 H 0.56623 0.24971 0.63848
 H156 H 0.51765 0.24885 0.59847
 H157 H 0.48623 0.16369 0.56004
 H158 H 0.43857 0.15978 0.60499
 H159 H 0.46175 0.26169 0.54848
 H160 H 0.47617 0.26817 0.42379
 H161 H 0.42823 0.27178 0.37895
 H162 H 0.41646 0.17933 0.42210
 H163 H 0.46420 0.17610 0.46679
 H164 H 0.54407 0.26194 0.48665
 H165 H 0.59019 0.26686 0.43938
 H166 H 0.56842 0.19415 0.34745
 H167 H 0.52275 0.18868 0.39573
 H168 H 0.41468 0.25811 0.59464
 C169 C 0.73589 0.00566 -0.03309
 C170 C 0.73224 0.00798 0.01455
 C171 C 0.73259 -0.01947 0.04507
 C172 C 0.73110 0.03793 0.03878
 C173 C 0.74109 0.03288 -0.06159
 C174 C 0.73558 -0.02403 -0.05816
 C175 C 0.70585 -0.02551 0.06876
 C176 C 0.70634 -0.05126 0.09812
 C177 C 0.73389 -0.07081 0.10592
 C178 C 0.76076 -0.06445 0.08182
 C179 C 0.75996 -0.03915 0.05152
 C180 C 0.70480 0.05962 0.03603
 C181 C 0.70401 0.08803 0.05868
 C182 C 0.72933 0.09501 0.08491
 C183 C 0.75583 0.07323 0.08702
 C184 C 0.75656 0.04486 0.06440
 C185 C 0.77099 0.04002 -0.06901
 C186 C 0.77596 0.06609 -0.09496
 C187 C 0.75106 0.08629 -0.11237
 C188 C 0.72094 0.07885 -0.10471
 C189 C 0.71614 0.05219 -0.08003
 C190 C 0.75994 -0.03539 -0.08821
 C191 C 0.75997 -0.06370 -0.11082
 C192 C 0.73572 -0.08149 -0.10380
 C193 C 0.71073 -0.06938 -0.07475
 C194 C 0.71072 -0.04097 -0.05246
 H195 H 0.68453 -0.01043 0.06409
 H196 H 0.68520 -0.05549 0.11563
 H197 H 0.78232 -0.07922 0.08486
 H198 H 0.78078 -0.03475 0.03327
 H199 H 0.68492 0.05448 0.01645
 H200 H 0.68346 0.10447 0.05617
 H201 H 0.77715 0.02842 0.06632
 H202 H 0.79049 0.02542 -0.05456
 H203 H 0.79940 0.07092 -0.10027
 H204 H 0.70097 0.09283 -0.11869
 H205 H 0.69292 0.04678 -0.07476
 H206 H 0.77932 -0.02271 -0.09358
 H207 H 0.77943 -0.07196 -0.13321
 H208 H 0.69083 -0.08118 -0.06921
 H209 H 0.69116 -0.03212 -0.03071
 H210 H 0.77624 0.07812 0.10532
 C211 C 0.24768 0.49784 0.46487
 C212 C 0.24944 0.49643 0.51298
 C213 C 0.25218 0.46651 0.53834
 C214 C 0.24869 0.52475 0.54213
 C215 C 0.25139 0.52659 0.43917
 C216 C 0.24418 0.47030 0.43569
 C217 C 0.23153 0.46176 0.57496
 C218 C 0.23266 0.43297 0.59669
 C219 C 0.25461 0.40850 0.58216
 C220 C 0.27566 0.41353 0.54631
 C221 C 0.27482 0.44240 0.52514
 C222 C 0.22457 0.54882 0.53751
 C223 C 0.22391 0.57536 0.56500
 C224 C 0.24708 0.57832 0.59817
 C225 C 0.27125 0.55406 0.60283
 C226 C 0.27185 0.52747 0.57531
 C227 C 0.27939 0.53889 0.44096
 C228 C 0.28332 0.56543 0.41542
 C229 C 0.25908 0.58043 0.38868
 C230 C 0.23102 0.56805 0.38688
 C231 C 0.22735 0.54109 0.41157
 C232 C 0.26548 0.46131 0.39953
 C233 C 0.26386 0.43417 0.37438
 C234 C 0.24095 0.41542 0.38476
 C235 C 0.21869 0.42523 0.41954
 C236 C 0.22032 0.45244 0.44469
 H237 H 0.21393 0.48007 0.58570
 H238 H 0.21571 0.42968 0.62362
 H239 H 0.29281 0.39506 0.53466
 H240 H 0.29144 0.44577 0.49770
 H241 H 0.20616 0.54699 0.51272
 H242 H 0.20507 0.59362 0.56049
 H243 H 0.29069 0.50917 0.57934
 H244 H 0.29829 0.52767 0.46164
 H245 H 0.30519 0.57445 0.41690
 H246 H 0.21220 0.57881 0.36561
 H247 H 0.20573 0.53163 0.40948
 H248 H 0.28396 0.47481 0.39176
 H249 H 0.28106 0.42742 0.34740
 H250 H 0.19994 0.41217 0.42743
 H251 H 0.20320 0.45938 0.47169
 H252 H 0.29007 0.55558 0.62685
 C253 C 0.26474 0.99520 -0.03297
 C254 C 0.26405 0.99634 0.01512
 C255 C 0.26427 1.02561 0.04149
 C256 C 0.26157 0.96850 0.04379
 C257 C 0.26382 0.96601 -0.05933
 C258 C 0.26466 1.02343 -0.06163
 C259 C 0.28876 1.04314 0.03690
 C260 C 0.28881 1.07048 0.06240
 C261 C 0.26426 1.08085 0.09352
 C262 C 0.24015 1.06263 0.09853
 C263 C 0.24018 1.03541 0.07292
 C264 C 0.28574 0.95704 0.07364
 C265 C 0.28384 0.93052 0.10038
 C266 C 0.25746 0.91533 0.09810
 C267 C 0.23294 0.92740 0.06919
 C268 C 0.23506 0.95366 0.04191
 C269 C 0.24026 0.96368 -0.09188
 C270 C 0.23864 0.93635 -0.11655
 C271 C 0.26090 0.91048 -0.10955
 C272 C 0.28460 0.91315 -0.07689
 C273 C 0.28614 0.94059 -0.05231
 C274 C 0.23743 1.04335 -0.06786
 C275 C 0.23718 1.06947 -0.09634
 C276 C 0.26449 1.07645 -0.11849
 C277 C 0.29184 1.05659 -0.11091
 C278 C 0.29178 1.03003 -0.08357
 H279 H 0.30807 1.03546 0.01394
 H280 H 0.30842 1.08280 0.05760
 H281 H 0.22097 1.06955 0.12219
 H282 H 0.22118 1.02204 0.07736
 H283 H 0.30619 0.96850 0.07581
 H284 H 0.30275 0.92226 0.12337
 H285 H 0.21604 0.96251 0.01946
 H286 H 0.22269 0.98296 -0.09770
 H287 H 0.21955 0.93603 -0.14032
 H288 H 0.30218 0.89395 -0.07039
 H289 H 0.30480 0.94201 -0.02780
 H290 H 0.21633 1.03852 -0.05085
 H291 H 0.21572 1.08442 -0.09936
 H292 H 0.31330 1.06127 -0.12698
 H293 H 0.31299 1.01476 -0.07900
 H294 H 0.21228 0.91626 0.06733
 C295 C 0.76295 0.50415 0.46117
 C296 C 0.76089 0.50464 0.50932
 C297 C 0.75740 0.53412 0.53586
 C298 C 0.76143 0.47589 0.53759
 C299 C 0.76106 0.47568 0.43388
 C300 C 0.76483 0.53252 0.43298
 C301 C 0.77778 0.53866 0.57250
 C302 C 0.77571 0.56695 0.59582
 C303 C 0.75310 0.59112 0.58284
 C304 C 0.73231 0.58627 0.54696
 C305 C 0.73407 0.55786 0.52425
 C306 C 0.78513 0.45144 0.53185
 C307 C 0.78547 0.42473 0.55910
 C308 C 0.76247 0.42212 0.59318
 C309 C 0.73865 0.44663 0.59867
 C310 C 0.73832 0.47328 0.57139
 C311 C 0.73467 0.46067 0.43667
 C312 C 0.73210 0.43505 0.40836
 C313 C 0.75596 0.42409 0.37686
 C314 C 0.78259 0.43877 0.37496
 C315 C 0.78494 0.46466 0.40276
 C316 C 0.74271 0.54118 0.39825
 C317 C 0.74307 0.56857 0.37311
 C318 C 0.76599 0.58768 0.38163
 C319 C 0.78838 0.57870 0.41599
 C320 C 0.78796 0.55128 0.44121
 H321 H 0.79584 0.52057 0.58210
 H322 H 0.79243 0.57016 0.62277
 H323 H 0.71466 0.60454 0.53650
 H324 H 0.71759 0.55458 0.49693
 H325 H 0.80349 0.45312 0.50651
 H326 H 0.80396 0.40616 0.55392
 H327 H 0.71972 0.49178 0.57621
 H328 H 0.71591 0.46911 0.46024
 H329 H 0.71162 0.42371 0.41148
 H330 H 0.80133 0.43054 0.35123
 H331 H 0.80538 0.47613 0.40008
 H332 H 0.72453 0.52716 0.39164
 H333 H 0.72477 0.57497 0.34821
 H334 H 0.80617 0.59302 0.42348
 H335 H 0.80541 0.54486 0.46759
 H336 H 0.71989 0.44520 0.62327
 O337 O 0.22337 0.26126 0.18805
 O338 O 0.29981 0.24763 0.24461
 O339 O 0.26879 0.21685 0.18669
 O340 O 0.25549 0.29312 0.24224
 O341 O 0.23541 0.27309 0.30515
 O342 O 0.24740 0.19656 0.24818
 O343 O 0.27891 0.22690 0.30614
 O344 O 0.20276 0.24176 0.25095
 Cu345 Cu 0.26396 0.25670 0.20920
 Cu346 Cu 0.23907 0.23253 0.28379
 C347 C 0.20002 0.25378 0.21012
 C348 C 0.30231 0.23503 0.28519
 C349 C 0.26009 0.19375 0.20756
 C350 C 0.24348 0.29616 0.28317
 O351 O 0.76209 0.73397 0.30722
 O352 O 0.75253 0.80857 0.24518
 O353 O 0.71888 0.78050 0.30481
 O354 O 0.79524 0.76221 0.24894
 O355 O 0.77391 0.74194 0.18787
 O356 O 0.69777 0.75878 0.24492
 O357 O 0.73004 0.78769 0.18581
 O358 O 0.74159 0.71273 0.24629
 Cu359 Cu 0.75917 0.77352 0.28266
 Cu360 Cu 0.73363 0.74818 0.21026
 C361 C 0.75368 0.71057 0.28710
 C362 C 0.74003 0.81070 0.20465
 C363 C 0.69535 0.77235 0.28468
 C364 C 0.79755 0.74924 0.20865
 O365 O 0.78465 0.25456 0.21665
 O366 O 0.71712 0.24444 0.29048
 O367 O 0.74729 0.21358 0.22271
 O368 O 0.75641 0.28401 0.28769
 O369 O 0.72419 0.31090 0.23899
 O370 O 0.71929 0.24060 0.16894
 O371 O 0.68702 0.26935 0.23697
 O372 O 0.75491 0.28443 0.16826
 Cu373 Cu 0.75439 0.24644 0.25955
 Cu374 Cu 0.71833 0.27898 0.19798
 C375 C 0.78130 0.27165 0.18019
 C376 C 0.69049 0.25506 0.27596
 C377 C 0.73227 0.21499 0.18439
 C378 C 0.74145 0.30932 0.27514
 O379 O 0.26389 0.78334 0.20974
 O380 O 0.25131 0.71265 0.27353
 O381 O 0.22289 0.74557 0.20639
 O382 O 0.29261 0.74989 0.27559
 O383 O 0.26544 0.77831 0.32925
 O384 O 0.19509 0.77254 0.26100
 O385 O 0.22383 0.74044 0.32761
 O386 O 0.23549 0.81098 0.26296
 Cu387 Cu 0.26044 0.74506 0.23587
 Cu388 Cu 0.22729 0.77841 0.30076
 C389 C 0.25154 0.80919 0.22530
 C390 C 0.23546 0.71454 0.31149
 C391 C 0.19713 0.75825 0.22187
 C392 C 0.29097 0.76479 0.31418
 O393 O 0.69781 0.27790 0.75273
 O394 O 0.77132 0.27848 0.81497
 O395 O 0.74194 0.31209 0.74871
 O396 O 0.72627 0.24467 0.81819
 O397 O 0.75136 0.21396 0.76514
 O398 O 0.76429 0.28153 0.69320
 O399 O 0.79509 0.24879 0.75959
 O400 O 0.72077 0.24580 0.69956
 Cu401 Cu 0.73219 0.28143 0.78915
 Cu402 Cu 0.76037 0.24458 0.72382
 C403 C 0.69661 0.26133 0.71616
 C404 C 0.79571 0.26364 0.79811
 C405 C 0.75514 0.30835 0.70860
 C406 C 0.73608 0.21786 0.80351
 O407 O 0.23612 0.72067 0.68964
 O408 O 0.23870 0.79217 0.75683
 O409 O 0.27412 0.76158 0.69448
 O410 O 0.20053 0.75119 0.75266
 O411 O 0.22578 0.72482 0.80987
 O412 O 0.29935 0.73525 0.75177
 O413 O 0.26391 0.76594 0.81421
 O414 O 0.26132 0.69418 0.74680
 Cu415 Cu 0.23479 0.75900 0.71772
 Cu416 Cu 0.26505 0.72736 0.78641
 C417 C 0.24845 0.69527 0.70654
 C418 C 0.25183 0.79132 0.79685
 C419 C 0.29929 0.75023 0.71328
 C420 C 0.20061 0.73635 0.79128
 O421 O 0.25689 0.29950 0.77393
 O422 O 0.26845 0.22122 0.82269
 O423 O 0.30283 0.25594 0.77623
 O424 O 0.22178 0.26379 0.81532
 O425 O 0.20826 0.24854 0.74486
 O426 O 0.28962 0.23446 0.71006
 O427 O 0.25155 0.20317 0.75616
 O428 O 0.24659 0.28082 0.70407
 Cu429 Cu 0.26389 0.26188 0.80397
 Cu430 Cu 0.24784 0.23978 0.72186
 C431 C 0.25040 0.30347 0.73053
 C432 C 0.26088 0.19908 0.79848
 C433 C 0.30997 0.24368 0.73633
 C434 C 0.20120 0.25788 0.78638
 O435 O 0.74671 0.69893 0.77676
 O436 O 0.73435 0.77752 0.82428
 O437 O 0.70029 0.74243 0.78048
 O438 O 0.78119 0.73514 0.81819
 O439 O 0.79476 0.75169 0.74820
 O440 O 0.71398 0.76105 0.71195
 O441 O 0.74894 0.79569 0.75597
 O442 O 0.75881 0.71718 0.70714
 Cu443 Cu 0.73934 0.73665 0.80691
 Cu444 Cu 0.75550 0.75832 0.72393
 C445 C 0.75436 0.69471 0.73366
 C446 C 0.73969 0.79997 0.79842
 C447 C 0.69346 0.75291 0.73948
 C448 C 0.80172 0.74207 0.78951
 C449 C 0.26254 0.10841 0.11988
 C450 C 0.28248 0.12930 0.11642
 C451 C 0.27885 0.15877 0.14260
 C452 C 0.26414 0.16338 0.18429
 H453 H 0.30113 0.12658 0.09109
 H454 H 0.28964 0.17728 0.12684
 H455 H 0.24297 0.11351 0.14344
 H456 H 0.25477 0.14467 0.20197
 C457 C 0.75154 0.62200 0.60420
 C458 C 0.75927 0.62671 0.64900
 C459 C 0.75706 0.65813 0.66795
 C460 C 0.75777 0.66332 0.71444
 H461 H 0.76634 0.60744 0.67218
 H462 H 0.75387 0.67733 0.64348
 H463 H 0.74248 0.64153 0.58269
 H464 H 0.75944 0.64418 0.73902
 C465 C 0.73334 0.90382 0.13651
 C466 C 0.75854 0.88748 0.15475
 C467 C 0.75727 0.86041 0.18545
 C468 C 0.73769 0.83980 0.17814
 H469 H 0.78100 0.89477 0.14998
 H470 H 0.77525 0.85569 0.21153
 H471 H 0.71108 0.89789 0.14757
 H472 H 0.72163 0.84288 0.14905
 C473 C 0.25533 0.37724 0.60211
 C474 C 0.24720 0.37191 0.64672
 C475 C 0.24890 0.34028 0.66483
 C476 C 0.24753 0.33482 0.71122
 H477 H 0.24030 0.39090 0.67057
 H478 H 0.25225 0.32126 0.64007
 H479 H 0.26420 0.35797 0.57985
 H480 H 0.24561 0.35387 0.73595
 C481 C 0.88612 0.24276 0.12596
 C482 C 0.86017 0.26472 0.12987
 C483 C 0.83506 0.25876 0.15718
 C484 C 0.80663 0.27668 0.15269
 H485 H 0.85833 0.28572 0.10936
 H486 H 0.83734 0.23903 0.18069
 H487 H 0.88420 0.22013 0.14057
 H488 H 0.80354 0.29405 0.12516
 C489 C 0.38748 0.75904 0.63509
 C490 C 0.35966 0.77404 0.62487
 C491 C 0.33067 0.76935 0.64961
 C492 C 0.32896 0.75419 0.69065
 H493 H 0.35717 0.78969 0.59516
 H494 H 0.30964 0.77958 0.63298
 H495 H 0.38963 0.74163 0.66239
 H496 H 0.34954 0.74452 0.70882
 C497 C 0.11638 0.73795 0.13954
 C498 C 0.14210 0.74665 0.12094
 C499 C 0.17006 0.74805 0.14898
 C500 C 0.16908 0.75642 0.19456
 H501 H 0.14349 0.75125 0.08338
 H502 H 0.19195 0.74382 0.13061
 H503 H 0.11623 0.73009 0.17590
 H504 H 0.14718 0.76316 0.21199
 C505 C 0.62294 0.21618 0.61469
 C506 C 0.63010 0.23928 0.64187
 C507 C 0.66115 0.23925 0.66180
 C508 C 0.66654 0.26056 0.69350
 H509 H 0.61317 0.25877 0.64964
 H510 H 0.67939 0.22144 0.65144
 H511 H 0.64082 0.19748 0.60654
 H512 H 0.64779 0.27755 0.70481
 C513 C 0.75733 0.11268 0.86273
 C514 C 0.73649 0.13704 0.85369
 C515 C 0.74511 0.16346 0.82678
 C516 C 0.72887 0.19121 0.83112
 H517 H 0.71331 0.13855 0.86762
 H518 H 0.76515 0.16026 0.80376
 H519 H 0.78095 0.11404 0.85197
 H520 H 0.70998 0.19466 0.85629
 C521 C 0.26396 0.60830 0.36176
 C522 C 0.24212 0.63228 0.35761
 C523 C 0.24798 0.65986 0.33111
 C524 C 0.23011 0.68656 0.33732
 H525 H 0.22007 0.63199 0.37512
 H526 H 0.26754 0.65847 0.30716
 H527 H 0.28669 0.60980 0.34722
 H528 H 0.21160 0.68822 0.36319
 C529 C 0.26053 0.88217 0.86663
 C530 C 0.24045 0.87693 0.83259
 C531 C 0.24049 0.84733 0.80740
 C532 C 0.25325 0.81994 0.82371
 H533 H 0.22368 0.89510 0.81981
 H534 H 0.22812 0.84836 0.77427
 H535 H 0.27822 0.86367 0.87587
 H536 H 0.26454 0.81808 0.85768
 C537 C 0.75409 0.39697 0.34661
 C538 C 0.72752 0.39018 0.32866
 C539 C 0.72549 0.36303 0.29862
 C540 C 0.74444 0.33681 0.30348
 H541 H 0.70659 0.40574 0.33406
 H542 H 0.70656 0.36418 0.27398
 H543 H 0.77548 0.38322 0.33688
 H544 H 0.76191 0.33476 0.33061
 C545 C 0.12007 0.25138 0.90223
 C546 C 0.12779 0.26140 0.85971
 C547 C 0.16033 0.26030 0.84616
 C548 C 0.16872 0.26136 0.80080
 H549 H 0.11020 0.26915 0.83411
 H550 H 0.17772 0.25706 0.87346
 H551 H 0.13810 0.24161 0.92591
 H552 H 0.15140 0.26272 0.77340
 C553 C 0.60598 0.77987 0.36462
 C554 C 0.63115 0.79208 0.37827
 C555 C 0.66076 0.78878 0.35178
 C556 C 0.66480 0.77781 0.30753
 H557 H 0.63133 0.80343 0.41215
 H558 H 0.68036 0.79538 0.37061
 H559 H 0.60659 0.76686 0.33214
 H560 H 0.64565 0.77163 0.28739
 C561 C 0.88190 0.74525 0.90663
 C562 C 0.87445 0.73704 0.86317
 C563 C 0.84203 0.73891 0.84938
 C564 C 0.83405 0.73913 0.80392
 H565 H 0.89222 0.72985 0.83724
 H566 H 0.82442 0.74117 0.87675
 H567 H 0.86382 0.75454 0.93090
 H568 H 0.85159 0.73863 0.77659
 C569 C 0.38931 0.22946 0.36941
 C570 C 0.36623 0.21254 0.37674
 C571 C 0.33674 0.21686 0.35080
 C572 C 0.33268 0.23037 0.30823
 H573 H 0.36763 0.19607 0.40539
 H574 H 0.31758 0.20774 0.36777
 H575 H 0.38655 0.24777 0.34348
 H576 H 0.35182 0.23836 0.28962
 C577 C 0.73769 0.88952 0.87399
 C578 C 0.71839 0.86851 0.88200
 C579 C 0.72238 0.83766 0.86023
 C580 C 0.73552 0.83137 0.81779
 H581 H 0.70035 0.87225 0.90829
 H582 H 0.71305 0.81964 0.87977
 H583 H 0.75708 0.88328 0.85044
 H584 H 0.74307 0.84954 0.79638
 C585 C 0.24126 0.38609 0.35841
 C586 C 0.22736 0.36223 0.37369
 C587 C 0.22971 0.33199 0.34956
 C588 C 0.23955 0.32695 0.30487
 H589 H 0.21525 0.36370 0.40721
 H590 H 0.22293 0.31304 0.37009
 H591 H 0.25541 0.38363 0.32684
 H592 H 0.24550 0.34563 0.28310
 C593 C 0.26574 0.10284 0.85340
 C594 C 0.24102 0.12005 0.83534
 C595 C 0.24327 0.14850 0.80833
 C596 C 0.26230 0.16866 0.82081
 H597 H 0.21842 0.11274 0.83776
 H598 H 0.22638 0.15455 0.78098
 H599 H 0.28825 0.10908 0.84442
 H600 H 0.27697 0.16411 0.85138
 C601 C 0.76634 0.61772 0.35736
 C602 C 0.75213 0.62477 0.31608
 C603 C 0.75051 0.65497 0.29209
 C604 C 0.75777 0.68082 0.31209
 H605 H 0.74130 0.60750 0.29752
 H606 H 0.74146 0.65593 0.25647
 H607 H 0.77931 0.63410 0.37402
 H608 H 0.76618 0.68078 0.34795
 C609 C 0.11397 0.73305 0.87600
 C610 C 0.14035 0.71398 0.88108
 C611 C 0.16929 0.71742 0.85526
 C612 C 0.17097 0.73297 0.81457
 H613 H 0.14231 0.69593 0.90724
 H614 H 0.19021 0.70583 0.87057
 H615 H 0.11383 0.75197 0.85134
 H616 H 0.15032 0.74351 0.79738
 C617 C 0.61078 0.23254 0.36112
 C618 C 0.63710 0.24000 0.37898
 C619 C 0.66466 0.24240 0.34964
 C620 C 0.66304 0.25118 0.30424
 H621 H 0.63926 0.24302 0.41677
 H622 H 0.68676 0.23871 0.36703
 H623 H 0.60976 0.22625 0.32416
 H624 H 0.64089 0.25729 0.28772
 C625 C 0.88641 0.26394 0.87212
 C626 C 0.88044 0.24480 0.83720
 C627 C 0.85114 0.24715 0.81057
 C628 C 0.82470 0.26362 0.82448
 H629 H 0.89809 0.22683 0.82576
 H630 H 0.85133 0.23332 0.77881
 H631 H 0.86963 0.28337 0.88088
 H632 H 0.82355 0.27664 0.85704
 C633 C 0.38149 0.77353 0.38043
 C634 C 0.37347 0.74826 0.35980
 C635 C 0.34500 0.74798 0.33258
 C636 C 0.31894 0.76645 0.34194
 H637 H 0.38929 0.72721 0.35978
 H638 H 0.34529 0.73059 0.30531
 H639 H 0.36723 0.79538 0.37601
 H640 H 0.31768 0.78235 0.37139
 C641 C 0.25448 0.88757 0.12660
 C642 C 0.27852 0.86657 0.13660
 C643 C 0.27537 0.83837 0.16375
 C644 C 0.25511 0.83759 0.19927
 H645 H 0.30094 0.86883 0.12168
 H646 H 0.29120 0.81807 0.15536
 H647 H 0.23155 0.88344 0.13718
 H648 H 0.24085 0.85844 0.21008
 C649 C 0.76346 0.39329 0.62119
 C650 C 0.75016 0.39216 0.66402
 C651 C 0.74934 0.36403 0.69289
 C652 C 0.75936 0.33524 0.67886
 H653 H 0.73916 0.41314 0.68000
 H654 H 0.73861 0.36758 0.72743
 H655 H 0.77633 0.37288 0.60625
 H656 H 0.76982 0.33080 0.64442
 C657 C 0.72760 0.12528 0.10877
 C658 C 0.74419 0.12981 0.14726
 C659 C 0.74360 0.15930 0.17266
 C660 C 0.73016 0.18667 0.15723
 H661 H 0.75871 0.11065 0.16272
 H662 H 0.75607 0.15811 0.20572
 H663 H 0.71121 0.14365 0.09524
 H664 H 0.71807 0.18881 0.12395
 C665 C 0.24553 0.60736 0.62574
 C666 C 0.26128 0.61043 0.66575
 C667 C 0.26019 0.63930 0.69345
 C668 C 0.24781 0.66712 0.67824
 H669 H 0.27528 0.59074 0.68059
 H670 H 0.27115 0.63734 0.72775
 H671 H 0.22985 0.62651 0.61286
 H672 H 0.23747 0.66998 0.64368
 C673 C 0.89127 0.73227 0.14047
 C674 C 0.88416 0.74725 0.18129
 C675 C 0.85362 0.75015 0.20480
 C676 C 0.82773 0.74306 0.18481
 H677 H 0.90155 0.75802 0.19960
 H678 H 0.85242 0.76026 0.23982
 H679 H 0.87468 0.71945 0.12406
 H680 H 0.82800 0.73365 0.14947
 C681 C 0.39432 0.20574 0.62908
 C682 C 0.38256 0.22612 0.66152
 C683 C 0.35195 0.22443 0.68216
 C684 C 0.34203 0.24145 0.71968
 H685 H 0.39527 0.24465 0.67207
 H686 H 0.33692 0.20994 0.66525
 H687 H 0.38248 0.18611 0.62103
 H688 H 0.35748 0.25503 0.73756
 C689 C 0.10980 0.25852 0.13547
 C690 C 0.13390 0.27230 0.12073
 C691 C 0.16426 0.26894 0.14442
 C692 C 0.16920 0.25846 0.18869
 H693 H 0.13249 0.28509 0.08793
 H694 H 0.18335 0.27563 0.12401
 H695 H 0.11219 0.24368 0.16615
 H696 H 0.15036 0.25267 0.21038
 C697 C 0.61719 0.75500 0.61514
 C698 C 0.62276 0.75950 0.66086
 C699 C 0.65460 0.75746 0.67757
 C700 C 0.66141 0.75534 0.72353
 H701 H 0.60400 0.76421 0.68601
 H702 H 0.67293 0.75709 0.65150
 H703 H 0.63635 0.74824 0.59131
 H704 H 0.64334 0.75417 0.74960
   
