data_POSCAR
  _audit_creation_date              2014-09-24
  _audit_creation_method            'ToBaCCo'
  _symmetry_space_group_name_H-M    'P1'
  _symmetry_Int_Tables_number       1
  _symmetry_cell_setting            triclinic
  loop_
  _symmetry_equiv_pos_as_xyz
 x,y,z
_cell_length_a 39.6774
_cell_length_b 39.5658
_cell_length_c 39.7141
_cell_angle_alpha 90.056200
_cell_angle_beta 90.026900
_cell_angle_gamma 90.014000
loop_
  _atom_site_label
  _atom_site_type_symbol
  _atom_site_fract_x
  _atom_site_fract_y
  _atom_site_fract_z
C1 C 0.34468 0.34393 1.38674
 C2 C 0.31523 0.35721 1.40125
 C3 C 0.29856 0.38536 1.38697
 C4 C 0.31327 0.40063 1.35829
 C5 C 0.34269 0.38764 1.34363
 C6 C 0.35844 0.35914 1.35788
 C7 C 0.35983 0.31487 1.40013
 C8 C 0.38846 0.29997 1.38487
 C9 C 0.40248 0.31632 1.35647
 C10 C 0.38758 0.34547 1.34286
 C11 C 0.40067 0.36037 1.31359
 C12 C 0.38475 0.38846 1.29875
 C13 C 0.35600 0.40220 1.31428
 H14 H 0.30435 0.34392 1.42242
 H15 H 0.30245 0.42325 1.34744
 H16 H 0.34934 0.30440 1.42301
 H17 H 0.42372 0.30540 1.34329
 H18 H 0.42311 0.34983 1.30211
 H19 H 0.34317 0.42344 1.30279
 C20 C 1.15505 0.65566 0.88771
 C21 C 1.18449 0.64245 0.90233
 C22 C 1.20123 0.61429 0.88810
 C23 C 1.18655 0.59887 0.85945
 C24 C 1.15714 0.61178 0.84469
 C25 C 1.14135 0.64033 0.85883
 C26 C 1.13990 0.68480 0.90097
 C27 C 1.11135 0.69967 0.88554
 C28 C 1.09736 0.68319 0.85716
 C29 C 1.11226 0.65396 0.84368
 C30 C 1.09928 0.63897 0.81437
 C31 C 1.11527 0.61085 0.79961
 C32 C 1.14393 0.59713 0.81530
 H33 H 1.19534 0.65582 0.92350
 H34 H 1.19742 0.57623 0.84867
 H35 H 1.15036 0.69539 0.92383
 H36 H 1.07617 0.69407 0.84387
 H37 H 1.07691 0.64951 0.80275
 H38 H 1.15680 0.57586 0.80388
 C39 C 0.65416 -0.15508 0.11211
 C40 C 0.68370 -0.14206 0.09760
 C41 C 0.69976 -0.11359 0.11149
 C42 C 0.68526 -0.09759 0.13965
 C43 C 0.65582 -0.11037 0.15447
 C44 C 0.64019 -0.13926 0.14063
 C45 C 0.63917 -0.18442 0.09916
 C46 C 0.61052 -0.19910 0.11456
 C47 C 0.59631 -0.18224 0.14261
 C48 C 0.61109 -0.15279 0.15580
 C49 C 0.59802 -0.13753 0.18492
 C50 C 0.61398 -0.10928 0.19951
 C51 C 0.64258 -0.09552 0.18372
 H52 H 0.69497 -0.15499 0.07633
 H53 H 0.69716 -0.07538 0.15036
 H54 H 0.64984 -0.19531 0.07654
 H55 H 0.57506 -0.19301 0.15589
 H56 H 0.57568 -0.14804 0.19661
 H57 H 0.65541 -0.07413 0.19498
 C58 C -0.15398 1.15518 -0.38778
 C59 C -0.18340 1.14201 -0.40245
 C60 C -0.20021 1.11389 -0.38824
 C61 C -0.18557 1.09845 -0.35959
 C62 C -0.15623 1.11139 -0.34470
 C63 C -0.14042 1.13995 -0.35874
 C64 C -0.13874 1.18433 -0.40092
 C65 C -0.11048 1.19891 -0.38510
 C66 C -0.09669 1.18306 -0.35657
 C67 C -0.11152 1.15377 -0.34325
 C68 C -0.09867 1.13888 -0.31390
 C69 C -0.11464 1.11068 -0.29932
 C70 C -0.14315 1.09682 -0.31522
 H71 H -0.19416 1.15536 -0.42365
 H72 H -0.19646 1.07581 -0.34888
 H73 H -0.14927 1.19604 -0.42323
 H74 H -0.07526 1.19431 -0.34385
 H75 H -0.07643 1.14955 -0.30212
 H76 H -0.15603 1.07552 -0.30390
 C77 C 0.66673 0.66968 0.62415
 C78 C 0.69555 0.65630 0.60865
 C79 C 0.71164 0.62771 0.62205
 C80 C 0.69864 0.61236 0.65115
 C81 C 0.67014 0.62572 0.66719
 C82 C 0.65415 0.65458 0.65370
 C83 C 0.65061 0.69817 0.61074
 C84 C 0.62238 0.71270 0.62690
 C85 C 0.61033 0.69745 0.65671
 C86 C 0.62570 0.66840 0.66987
 C87 C 0.61305 0.65296 0.69902
 C88 C 0.62883 0.62423 0.71252
 C89 C 0.65747 0.61084 0.69660
 H90 H 0.70545 0.66797 0.58602
 H91 H 0.71119 0.59042 0.66165
 H92 H 0.66130 0.70991 0.58855
 H93 H 0.58806 0.70723 0.66912
 H94 H 0.59118 0.66353 0.71155
 H95 H 0.66960 0.58860 0.70695
 C96 C 0.83114 0.32929 0.12563
 C97 C 0.80236 0.34282 0.11013
 C98 C 0.78693 0.37247 0.12258
 C99 C 0.80113 0.38824 0.15119
 C100 C 0.82930 0.37443 0.16744
 C101 C 0.84439 0.34485 0.15462
 C102 C 0.84671 0.30030 0.11255
 C103 C 0.87499 0.28574 0.12858
 C104 C 0.88747 0.30124 0.15811
 C105 C 0.87268 0.33077 0.17089
 C106 C 0.88580 0.34649 0.19973
 C107 C 0.87068 0.37579 0.21277
 C108 C 0.84240 0.38959 0.19658
 H109 H 0.79289 0.33080 0.08750
 H110 H 0.78933 0.41038 0.16210
 H111 H 0.83565 0.28829 0.09064
 H112 H 0.90971 0.29137 0.17049
 H113 H 0.90747 0.33568 0.21240
 H114 H 0.83085 0.41232 0.20656
 C115 C 0.33129 0.17019 0.87429
 C116 C 0.30212 0.15722 0.88947
 C117 C 0.28679 0.12734 0.87739
 C118 C 0.30132 0.11097 0.84928
 C119 C 0.32993 0.12419 0.83334
 C120 C 0.34515 0.15378 0.84598
 C121 C 0.34687 0.19937 0.88700
 C122 C 0.37575 0.21264 0.87143
 C123 C 0.38916 0.19649 0.84294
 C124 C 0.37415 0.16705 0.83021
 C125 C 0.38753 0.15079 0.80183
 C126 C 0.37205 0.12167 0.78876
 C127 C 0.34333 0.10846 0.80465
 H128 H 0.29231 0.16980 0.91163
 H129 H 0.28951 0.08874 0.83855
 H130 H 0.33629 0.21209 0.90877
 H131 H 0.41152 0.20666 0.83096
 H132 H 0.40957 0.16115 0.78944
 H133 H 0.33157 0.08581 0.79471
 C134 C 0.16695 0.83038 0.37583
 C135 C 0.19575 0.84376 0.39143
 C136 C 0.21181 0.87242 0.37815
 C137 C 0.19881 0.88785 0.34909
 C138 C 0.17034 0.87450 0.33295
 C139 C 0.15438 0.84557 0.34631
 C140 C 0.15083 0.80183 0.38912
 C141 C 0.12261 0.78734 0.37288
 C142 C 0.11058 0.80266 0.34309
 C143 C 0.12595 0.83175 0.33005
 C144 C 0.11331 0.84728 0.30093
 C145 C 0.12906 0.87609 0.28757
 C146 C 0.15768 0.88946 0.30357
 H147 H 0.20564 0.83202 0.41403
 H148 H 0.21133 0.90985 0.33868
 H149 H 0.16151 0.79003 0.41130
 H150 H 0.08832 0.79290 0.33061
 H151 H 0.09145 0.83672 0.28833
 H152 H 0.16979 0.91177 0.29333
 Zn153 Zn 0.04102 0.97982 0.00485
 Zn154 Zn -0.02721 0.97185 -0.02708
 Zn155 Zn -0.01928 1.00408 0.04125
 Zn156 Zn 0.00468 1.04048 -0.01927
 O157 O -0.00034 0.99894 -0.00019
 O158 O 0.04387 0.94045 -0.01615
 O159 O -0.06567 0.95923 -0.00588
 O160 O 0.00615 0.98796 0.07469
 O161 O -0.00612 0.93312 -0.03970
 O162 O 0.05178 0.97102 0.04774
 O163 O -0.05829 0.98247 0.04433
 O164 O -0.01197 1.07400 0.00583
 O165 O -0.03992 0.99298 -0.06555
 O166 O -0.02848 1.04716 0.05173
 O167 O -0.01668 1.04334 -0.05837
 O168 O 0.04769 1.05115 -0.02820
 O169 O 0.07438 1.00497 -0.01183
 C170 C 0.02367 0.92285 -0.03361
 C171 C -0.07575 0.96497 0.02401
 C172 C 0.03526 0.97476 0.07482
 C173 C -0.02514 1.07418 0.03491
 C174 C -0.03418 1.02293 -0.07573
 C175 C 0.07462 1.03421 -0.02485
 Zn176 Zn 0.49579 -0.03998 0.47996
 Zn177 Zn 0.51989 -0.00440 0.54090
 Zn178 Zn 0.52778 0.02864 0.47301
 Zn179 Zn 0.45952 0.02037 0.50496
 O180 O 0.50089 0.00129 0.49957
 O181 O 0.51211 -0.07391 0.50470
 O182 O 0.55915 0.01669 0.54403
 O183 O 0.54052 0.00786 0.43427
 O184 O 0.52861 -0.04763 0.55097
 O185 O 0.51719 -0.04252 0.44093
 O186 O 0.56632 0.04104 0.49439
 O187 O 0.45656 0.05983 0.48414
 O188 O 0.49479 0.01173 0.57460
 O189 O 0.50659 0.06740 0.46076
 O190 O 0.44910 0.02902 0.54797
 O191 O 0.42598 -0.00480 0.48848
 O192 O 0.45282 -0.05038 0.47082
 C193 C 0.52507 -0.07448 0.53387
 C194 C 0.57661 0.03453 0.52406
 C195 C 0.53474 -0.02201 0.42380
 C196 C 0.47675 0.07755 0.46682
 C197 C 0.46574 0.02505 0.57495
 C198 C 0.42576 -0.03380 0.47486
 Zn199 Zn 1.01926 0.50467 0.45889
 Zn200 Zn 1.02789 0.47207 0.52685
 Zn201 Zn 0.99554 0.54047 0.51986
 Zn202 Zn 0.95928 0.47982 0.49551
 O203 O 1.00063 0.49912 0.50040
 O204 O 1.05859 0.48372 0.45553
 O205 O 1.04090 0.49310 0.56538
 O206 O 1.01169 0.57427 0.49490
 O207 O 1.06624 0.45967 0.50524
 O208 O 1.02780 0.54790 0.44855
 O209 O 1.01716 0.54328 0.55878
 O210 O 0.92577 0.50509 0.51182
 O211 O 1.00698 0.43335 0.53956
 O212 O 0.95259 0.55085 0.52911
 O213 O 0.95649 0.44068 0.51697
 O214 O 0.94863 0.47056 0.45266
 O215 O 0.99392 0.48814 0.42553
 C216 C 1.07627 0.46604 0.47546
 C217 C 1.03499 0.52294 0.57584
 C218 C 1.02444 0.57478 0.46564
 C219 C 0.92554 0.53418 0.52525
 C220 C 0.97700 0.42320 0.53418
 C221 C 0.96501 0.47448 0.42551
 Zn222 Zn 0.48090 0.49599 0.95894
 Zn223 Zn 0.54107 0.52058 0.99540
 Zn224 Zn 0.47272 0.52815 1.02719
 Zn225 Zn 0.50508 0.45965 1.01932
 O226 O 0.49980 0.50121 1.00036
 O227 O 0.50618 0.51238 0.92553
 O228 O 0.54369 0.55989 1.01651
 O229 O 0.43416 0.54065 1.00592
 O230 O 0.55175 0.52955 0.95252
 O231 O 0.44172 0.51714 0.95592
 O232 O 0.49364 0.56694 1.03999
 O233 O 0.48359 0.45656 1.05834
 O234 O 0.57463 0.49561 1.01205
 O235 O 0.46007 0.50679 1.06557
 O236 O 0.54810 0.44931 1.02838
 O237 O 0.48892 0.42598 0.99401
 O238 O 0.47196 0.45293 0.94840
 C239 C 0.53522 0.52576 0.92543
 C240 C 0.52341 0.57734 1.03400
 C241 C 0.42407 0.53459 0.97607
 C242 C 0.46595 0.47684 1.07569
 C243 C 0.57498 0.46636 1.02505
 C244 C 0.47566 0.42579 0.96496
 C245 C 1.20452 0.41934 0.42545
 C246 C 1.21257 0.42479 0.39152
 C247 C 1.24371 0.41376 0.37911
 C248 C 1.26732 0.39722 0.40022
 C249 C 1.25847 0.39218 0.43449
 C250 C 1.22722 0.40313 0.44711
 C251 C 1.17160 0.43078 0.43848
 C252 C 1.16340 0.42542 0.47248
 C253 C 1.13201 0.43657 0.48471
 C254 C 1.10911 0.45308 0.46309
 C255 C 1.11790 0.45795 0.42902
 C256 C 1.14898 0.44691 0.41663
 C257 C 1.21821 0.39827 0.48103
 C258 C 1.18687 0.40919 0.49348
 C259 C 1.18915 0.44090 0.37042
 C260 C 1.15790 0.45182 0.38278
 H261 H 1.23552 0.38584 0.49811
 H262 H 1.18098 0.40490 0.51977
 H263 H 1.19503 0.44518 0.34413
 H264 H 1.14060 0.46422 0.36568
 H265 H 1.24850 0.41680 0.35247
 H266 H 1.27611 0.38083 0.45192
 H267 H 1.12559 0.43272 0.51095
 H268 H 1.10058 0.47048 0.41201
 C269 C 0.29552 0.58089 0.92642
 C270 C 0.27279 0.59696 0.94815
 C271 C 0.24145 0.60774 0.93559
 C272 C 0.23254 0.60262 0.90133
 C273 C 0.25619 0.58622 0.88016
 C274 C 0.28742 0.57539 0.89250
 C275 C 0.32854 0.56963 0.93938
 C276 C 0.35118 0.55364 0.91745
 C277 C 0.38234 0.54274 0.92976
 C278 C 0.39118 0.54757 0.96384
 C279 C 0.36826 0.56394 0.98555
 C280 C 0.33679 0.57497 0.97338
 C281 C 0.31089 0.55943 0.87132
 C282 C 0.34222 0.54871 0.88359
 C283 C 0.28185 0.60186 0.98207
 C284 C 0.31328 0.59108 0.99446
 H285 H 0.30496 0.55513 0.84502
 H286 H 0.35955 0.53641 0.86643
 H287 H 0.26452 0.61419 0.99920
 H288 H 0.31921 0.59537 1.02075
 H289 H 0.22378 0.61903 0.95304
 H290 H 0.25136 0.58315 0.85351
 H291 H 0.39967 0.53031 0.91267
 H292 H 0.37472 0.56776 1.01180
 C293 C -0.20424 0.91865 0.07324
 C294 C -0.22935 0.90844 0.05050
 C295 C -0.26091 0.89829 0.06297
 C296 C -0.26730 0.89815 0.09794
 C297 C -0.24162 0.90836 0.12027
 C298 C -0.21018 0.91876 0.10809
 C299 C -0.17109 0.92950 0.06037
 C300 C -0.14623 0.94004 0.08321
 C301 C -0.11506 0.95100 0.07095
 C302 C -0.10840 0.95144 0.03608
 C303 C -0.13339 0.94017 0.01345
 C304 C -0.16495 0.92937 0.02552
 C305 C -0.18451 0.92916 0.13014
 C306 C -0.15310 0.93971 0.11790
 C307 C -0.22233 0.90861 0.01579
 C308 C -0.19068 0.91883 0.00352
 H309 H -0.18880 0.92931 0.15709
 H310 H -0.13404 0.94775 0.13575
 H311 H -0.24145 0.90076 -0.00206
 H312 H -0.18637 0.91863 -0.02341
 H313 H -0.28052 0.89075 0.04551
 H314 H -0.24588 0.90767 0.14722
 H315 H -0.09599 0.95935 0.08866
 H316 H -0.12858 0.94054 -0.01341
 C317 C 0.70533 0.08067 0.57357
 C318 C 0.71350 0.07513 0.60746
 C319 C 0.74478 0.08591 0.61975
 C320 C 0.76842 0.10228 0.59857
 C321 C 0.75944 0.10745 0.56434
 C322 C 0.72804 0.09673 0.55183
 C323 C 0.67226 0.06946 0.56066
 C324 C 0.66393 0.07486 0.52670
 C325 C 0.63241 0.06388 0.51458
 C326 C 0.60953 0.04748 0.53628
 C327 C 0.61845 0.04259 0.57032
 C328 C 0.64964 0.05346 0.58260
 C329 C 0.71889 0.10168 0.51795
 C330 C 0.68741 0.09096 0.50562
 C331 C 0.69006 0.05917 0.62865
 C332 C 0.65868 0.04848 0.61642
 H333 H 0.73620 0.11401 0.50081
 H334 H 0.68142 0.09530 0.47935
 H335 H 0.69604 0.05484 0.65492
 H336 H 0.64137 0.03618 0.63358
 H337 H 0.74965 0.08282 0.64638
 H338 H 0.77708 0.11872 0.54687
 H339 H 0.62590 0.06774 0.48836
 H340 H 0.60114 0.03015 0.58741
 C341 C 0.42705 0.20604 0.41960
 C342 C 0.44868 0.22852 0.40300
 C343 C 0.43605 0.25975 0.39178
 C344 C 0.40181 0.26880 0.39697
 C345 C 0.38074 0.24539 0.41388
 C346 C 0.39316 0.21428 0.42517
 C347 C 0.44006 0.17312 0.43128
 C348 C 0.41821 0.15072 0.44774
 C349 C 0.43055 0.11960 0.45894
 C350 C 0.46456 0.11054 0.45389
 C351 C 0.48620 0.13325 0.43710
 C352 C 0.47402 0.16468 0.42578
 C353 C 0.37207 0.19108 0.44165
 C354 C 0.38439 0.15984 0.45279
 C355 C 0.48257 0.21929 0.39801
 C356 C 0.49500 0.18794 0.40917
 H357 H 0.34579 0.19712 0.44603
 H358 H 0.36730 0.14270 0.46546
 H359 H 0.49963 0.23642 0.38528
 H360 H 0.52126 0.18188 0.40476
 H361 H 0.45343 0.27723 0.38007
 H362 H 0.35410 0.25026 0.41702
 H363 H 0.41351 0.10245 0.47170
 H364 H 0.51240 0.12663 0.43309
 C365 C 0.92788 0.29478 0.58170
 C366 C 0.89300 0.28885 0.58181
 C367 C 0.88081 0.25746 0.59256
 C368 C 0.90316 0.23181 0.60290
 C369 C 0.93817 0.23819 0.60259
 C370 C 0.95066 0.26971 0.59206
 C371 C 0.94076 0.32788 0.57045
 C372 C 0.97565 0.33403 0.57036
 C373 C 0.98771 0.36556 0.55922
 C374 C 0.96502 0.39050 0.54786
 C375 C 0.93012 0.38381 0.54850
 C376 C 0.91788 0.35268 0.55979
 C377 C 0.98540 0.27675 0.59167
 C378 C 0.99768 0.30836 0.58106
 C379 C 0.87091 0.31446 0.57125
 C380 C 0.88315 0.34582 0.56034
 H381 H 1.00328 0.25766 0.59963
 H382 H 1.02464 0.31267 0.58111
 H383 H 0.84394 0.31017 0.57128
 H384 H 0.86527 0.36484 0.55221
 H385 H 0.85383 0.25322 0.59340
 H386 H 0.95564 0.21860 0.61026
 H387 H 1.01459 0.37041 0.55872
 H388 H 0.91236 0.40284 0.54010
 C389 C 0.07304 0.79401 -0.08042
 C390 C 0.05134 0.77146 -0.09689
 C391 C 0.06387 0.74009 -0.10789
 C392 C 0.09808 0.73097 -0.10258
 C393 C 0.11921 0.75446 -0.08580
 C394 C 0.10690 0.78570 -0.07475
 C395 C 0.06013 0.82707 -0.06896
 C396 C 0.08205 0.84953 -0.05261
 C397 C 0.06980 0.88074 -0.04156
 C398 C 0.03579 0.88983 -0.04661
 C399 C 0.01408 0.86708 -0.06332
 C400 C 0.02619 0.83555 -0.07450
 C401 C 0.12807 0.80899 -0.05841
 C402 C 0.11584 0.84035 -0.04749
 C403 C 0.01748 0.78075 -0.10196
 C404 C 0.00513 0.81222 -0.09099
 H405 H 0.15432 0.80290 -0.05397
 H406 H 0.13299 0.85755 -0.03491
 H407 H 0.00036 0.76356 -0.11459
 H408 H -0.02111 0.81832 -0.09545
 H409 H 0.04644 0.72256 -0.11951
 H410 H 0.14584 0.74952 -0.08258
 H411 H 0.08689 0.89793 -0.02888
 H412 H -0.01211 0.87373 -0.06732
 C413 C 0.57250 0.70622 1.08107
 C414 C 0.55065 0.72891 1.09711
 C415 C 0.56310 0.76036 1.10801
 C416 C 0.59737 0.76943 1.10298
 C417 C 0.61867 0.74577 1.08670
 C418 C 0.60645 0.71445 1.07576
 C419 C 0.55967 0.67312 1.06962
 C420 C 0.58173 0.65054 1.05367
 C421 C 0.56954 0.61933 1.04256
 C422 C 0.53544 0.61033 1.04717
 C423 C 0.51359 0.63317 1.06353
 C424 C 0.52564 0.66472 1.07476
 C425 C 0.62777 0.69104 1.05984
 C426 C 0.61561 0.65963 1.04894
 C427 C 0.51672 0.71969 1.10183
 C428 C 0.50444 0.68817 1.09086
 H429 H 0.65408 0.69707 1.05569
 H430 H 0.63286 0.64235 1.03667
 H431 H 0.49949 0.73697 1.11413
 H432 H 0.47814 0.68214 1.09501
 H433 H 0.54558 0.77800 1.11930
 H434 H 0.64533 0.75067 1.08376
 H435 H 0.58675 0.60206 1.03017
 H436 H 0.48733 0.62659 1.06718
 C437 C 0.41843 0.42709 1.20346
 C438 C 0.41878 0.39212 1.20943
 C439 C 0.40791 0.37982 1.24064
 C440 C 0.39697 0.40215 1.26605
 C441 C 0.39690 0.43724 1.25964
 C442 C 0.40751 0.44984 1.22831
 C443 C 0.42973 0.44010 1.17053
 C444 C 0.42931 0.47507 1.16435
 C445 C 0.44045 0.48726 1.13298
 C446 C 0.45233 0.46464 1.10823
 C447 C 0.45223 0.42965 1.11496
 C448 C 0.44094 0.41726 1.14594
 C449 C 0.40743 0.48466 1.22125
 C450 C 0.41808 0.49705 1.18982
 C451 C 0.42990 0.37009 1.18403
 C452 C 0.44087 0.38245 1.15284
 H453 H 0.39905 0.50251 1.24018
 H454 H 0.41764 0.52408 1.18547
 H455 H 0.43025 0.34305 1.18834
 H456 H 0.44943 0.36461 1.13398
 H457 H 0.40742 0.35277 1.24490
 H458 H 0.38882 0.45471 1.27906
 H459 H 0.44053 0.51421 1.12811
 H460 H 0.46106 0.41194 1.09608
 C461 C 0.58143 -0.07098 0.29537
 C462 C 0.58132 -0.10595 0.28930
 C463 C 0.59181 -0.11811 0.25790
 C464 C 0.60213 -0.09566 0.23238
 C465 C 0.60202 -0.06057 0.23889
 C466 C 0.59175 -0.04810 0.27043
 C467 C 0.57047 -0.05813 0.32849
 C468 C 0.57059 -0.02316 0.33478
 C469 C 0.55969 -0.01113 0.36633
 C470 C 0.54834 -0.03393 0.39113
 C471 C 0.54881 -0.06890 0.38431
 C472 C 0.55986 -0.08112 0.35317
 C473 C 0.59158 -0.01328 0.27760
 C474 C 0.58124 -0.00104 0.30922
 C475 C 0.57082 -0.12813 0.31479
 C476 C 0.56019 -0.11592 0.34617
 H477 H 0.59951 0.00467 0.25861
 H478 H 0.58144 0.02599 0.31364
 H479 H 0.57068 -0.15517 0.31040
 H480 H 0.55209 -0.13388 0.36510
 H481 H 0.59250 -0.14515 0.25356
 H482 H 0.60967 -0.04302 0.21941
 H483 H 0.55931 0.01581 0.37128
 H484 H 0.54043 -0.08675 0.40324
 C485 C -0.08160 1.07228 -0.20370
 C486 C -0.09210 1.04945 -0.22867
 C487 C -0.10258 1.06197 -0.26009
 C488 C -0.10274 1.09707 -0.26647
 C489 C -0.09226 1.11948 -0.24093
 C490 C -0.08154 1.10725 -0.20964
 C491 C -0.07037 1.05936 -0.17071
 C492 C -0.05955 1.08229 -0.14601
 C493 C -0.04827 1.06999 -0.11499
 C494 C -0.04782 1.03500 -0.10831
 C495 C -0.05935 1.01227 -0.13315
 C496 C -0.07046 1.02438 -0.16457
 C497 C -0.07083 1.12939 -0.18412
 C498 C -0.05994 1.11710 -0.15287
 C499 C -0.09188 1.01461 -0.22165
 C500 C -0.08130 1.00230 -0.19015
 H501 H -0.07073 1.15643 -0.18840
 H502 H -0.05168 1.13502 -0.13393
 H503 H -0.09994 0.99670 -0.24066
 H504 H -0.08148 0.97527 -0.18584
 H505 H -0.11032 1.04444 -0.27960
 H506 H -0.09297 1.14652 -0.24517
 H507 H -0.03974 1.08778 -0.09603
 H508 H -0.05899 0.98532 -0.12832
 C509 C 1.08228 0.57236 0.70393
 C510 C 1.09288 0.54956 0.72883
 C511 C 1.10328 0.56210 0.76029
 C512 C 1.10327 0.59720 0.76679
 C513 C 1.09265 0.61958 0.74132
 C514 C 1.08202 0.60733 0.70998
 C515 C 1.07117 0.55942 0.67088
 C516 C 1.06025 0.58232 0.64625
 C517 C 1.04906 0.57000 0.61518
 C518 C 1.04876 0.53501 0.60839
 C519 C 1.06040 0.51232 0.63315
 C520 C 1.07145 0.52445 0.66462
 C521 C 1.07122 0.62943 0.68453
 C522 C 1.06044 0.61713 0.65322
 C523 C 1.09286 0.51474 0.72169
 C524 C 1.08238 0.50240 0.69013
 H525 H 1.07096 0.65647 0.68890
 H526 H 1.05211 0.63502 0.63433
 H527 H 1.10101 0.49684 0.74065
 H528 H 1.08271 0.47538 0.68574
 H529 H 1.11114 0.54460 0.77974
 H530 H 1.09322 0.64662 0.74566
 H531 H 1.04044 0.58777 0.59628
 H532 H 1.06015 0.48537 0.62823
 C533 C 0.80164 0.58848 0.57752
 C534 C 0.77468 0.56651 0.58435
 C535 C 0.74519 0.57951 0.59883
 C536 C 0.74247 0.61423 0.60604
 C537 C 0.76952 0.63600 0.59857
 C538 C 0.79933 0.62319 0.58457
 C539 C 0.83306 0.57480 0.56314
 C540 C 0.86038 0.59658 0.55726
 C541 C 0.89054 0.58325 0.54451
 C542 C 0.89330 0.54849 0.53730
 C543 C 0.86540 0.52715 0.54277
 C544 C 0.83532 0.54012 0.55600
 C545 C 0.82701 0.64428 0.57787
 C546 C 0.85707 0.63118 0.56456
 C547 C 0.77787 0.53197 0.57676
 C548 C 0.80764 0.51902 0.56270
 H549 H 0.82554 0.67110 0.58323
 H550 H 0.87794 0.64826 0.56006
 H551 H 0.75721 0.51479 0.58181
 H552 H 0.80910 0.49220 0.55732
 H553 H 0.72428 0.56276 0.60435
 H554 H 0.76758 0.66270 0.60442
 H555 H 0.91183 0.59988 0.54026
 H556 H 0.86735 0.50032 0.53753
 C557 C 0.69852 0.41231 1.07803
 C558 C 0.70382 0.37727 1.07792
 C559 C 0.73356 0.36423 1.09189
 C560 C 0.75765 0.38585 1.10706
 C561 C 0.75154 0.42110 1.10687
 C562 C 0.72234 0.43439 1.09209
 C563 C 0.66722 0.42613 1.06350
 C564 C 0.66225 0.46126 1.06305
 C565 C 0.63236 0.47427 1.04945
 C566 C 0.60715 0.45236 1.03733
 C567 C 0.61244 0.41718 1.03807
 C568 C 0.64267 0.40393 1.05078
 C569 C 0.71647 0.46941 1.09116
 C570 C 0.68702 0.48263 1.07669
 C571 C 0.67895 0.35588 1.06439
 C572 C 0.64880 0.36897 1.05126
 H573 H 0.73477 0.48675 1.10176
 H574 H 0.68345 0.50978 1.07653
 H575 H 0.68267 0.32875 1.06426
 H576 H 0.63013 0.35157 1.04141
 H577 H 0.73685 0.33706 1.09253
 H578 H 0.77001 0.43848 1.11708
 H579 H 0.62825 0.50136 1.04923
 H580 H 0.59315 0.40024 1.02861
 C581 C 0.19816 1.08801 -0.07810
 C582 C 0.20332 1.12307 -0.07859
 C583 C 0.23311 1.13599 -0.09258
 C584 C 0.25738 1.11419 -0.10716
 C585 C 0.25139 1.07893 -0.10637
 C586 C 0.22214 1.06578 -0.09158
 C587 C 0.16683 1.07431 -0.06352
 C588 C 0.16202 1.03917 -0.06247
 C589 C 0.13213 1.02626 -0.04882
 C590 C 0.10676 1.04824 -0.03721
 C591 C 0.11189 1.08343 -0.03855
 C592 C 0.14212 1.09660 -0.05134
 C593 C 0.21642 1.03077 -0.09006
 C594 C 0.18695 1.01767 -0.07556
 C595 C 0.17828 1.14458 -0.06560
 C596 C 0.14811 1.13158 -0.05242
 H597 H 0.23486 1.01332 -0.10021
 H598 H 0.18349 0.99052 -0.07493
 H599 H 0.18189 1.17173 -0.06594
 H600 H 0.12932 1.14906 -0.04300
 H601 H 0.23632 1.16315 -0.09367
 H602 H 0.27000 1.06143 -0.11608
 H603 H 0.12816 0.99915 -0.04816
 H604 H 0.09247 1.10043 -0.02949
 C605 C 0.30179 -0.08827 0.42276
 C606 C 0.27476 -0.06635 0.41607
 C607 C 0.24526 -0.07938 0.40159
 C608 C 0.24261 -0.11409 0.39425
 C609 C 0.26971 -0.13581 0.40160
 C610 C 0.29953 -0.12296 0.41559
 C611 C 0.33322 -0.07454 0.43710
 C612 C 0.36062 -0.09626 0.44282
 C613 C 0.39080 -0.08289 0.45553
 C614 C 0.39351 -0.04814 0.46284
 C615 C 0.36553 -0.02686 0.45754
 C616 C 0.33543 -0.03988 0.44435
 C617 C 0.32729 -0.14400 0.42215
 C618 C 0.35737 -0.13085 0.43542
 C619 C 0.27788 -0.03183 0.42377
 C620 C 0.30767 -0.01884 0.43780
 H621 H 0.32586 -0.17080 0.41670
 H622 H 0.37829 -0.14788 0.43981
 H623 H 0.25717 -0.01470 0.41882
 H624 H 0.30909 0.00796 0.44326
 H625 H 0.22430 -0.06267 0.39616
 H626 H 0.26783 -0.16249 0.39565
 H627 H 0.41214 -0.09948 0.45966
 H628 H 0.36744 -0.00005 0.46286
 C629 C 0.57771 -0.19860 0.58747
 C630 C 0.57812 -0.20373 0.62240
 C631 C 0.59214 -0.23355 0.63533
 C632 C 0.60684 -0.25790 0.61368
 C633 C 0.60611 -0.25196 0.57855
 C634 C 0.59130 -0.22266 0.56538
 C635 C 0.56316 -0.16719 0.57376
 C636 C 0.56224 -0.16236 0.53875
 C637 C 0.54870 -0.13234 0.52585
 C638 C 0.53710 -0.10687 0.54774
 C639 C 0.53825 -0.11205 0.58279
 C640 C 0.55092 -0.14240 0.59594
 C641 C 0.58988 -0.21695 0.53048
 C642 C 0.57541 -0.18739 0.51738
 C643 C 0.56504 -0.17861 0.64378
 C644 C 0.55188 -0.14837 0.63079
 H645 H 0.60011 -0.23545 0.51314
 H646 H 0.57489 -0.18393 0.49033
 H647 H 0.56531 -0.18220 0.67083
 H648 H 0.54241 -0.12951 0.64817
 H649 H 0.59319 -0.23671 0.66240
 H650 H 0.61592 -0.27063 0.56116
 H651 H 0.54818 -0.12832 0.49885
 H652 H 0.52919 -0.09257 0.59972
 C653 C 1.07761 0.69872 0.41214
 C654 C 1.07809 0.70386 0.37721
 C655 C 1.09226 0.73364 0.36433
 C656 C 1.10700 0.75794 0.38603
 C657 C 1.10621 0.75198 0.42116
 C658 C 1.09126 0.72273 0.43427
 C659 C 1.06290 0.66737 0.42580
 C660 C 1.06190 0.66254 0.46080
 C661 C 1.04822 0.63257 0.47366
 C662 C 1.03653 0.60714 0.45175
 C663 C 1.03776 0.61232 0.41670
 C664 C 1.05058 0.64263 0.40359
 C665 C 1.08976 0.71701 0.46916
 C666 C 1.07514 0.68751 0.48221
 C667 C 1.06494 0.67880 0.35579
 C668 C 1.05163 0.64861 0.36874
 H669 H 1.10004 0.73546 0.48653
 H670 H 1.07456 0.68404 0.50926
 H671 H 1.06527 0.68240 0.32875
 H672 H 1.04210 0.62979 0.35133
 H673 H 1.09336 0.73681 0.33727
 H674 H 1.11606 0.77061 0.43858
 H675 H 1.04766 0.62856 0.50066
 H676 H 1.02865 0.59286 0.39975
 C677 C -0.07995 1.19723 0.08897
 C678 C -0.08030 1.20237 0.12391
 C679 C -0.09462 1.23205 0.13692
 C680 C -0.10962 1.25624 0.11535
 C681 C -0.10909 1.25021 0.08021
 C682 C -0.09397 1.22109 0.06696
 C683 C -0.06491 1.16609 0.07517
 C684 C -0.06396 1.16131 0.04014
 C685 C -0.04986 1.13158 0.02714
 C686 C -0.03772 1.10631 0.04894
 C687 C -0.03896 1.11141 0.08401
 C688 C -0.05218 1.14150 0.09726
 C689 C -0.09256 1.21541 0.03205
 C690 C -0.07762 1.18611 0.01886
 C691 C -0.06678 1.17746 0.14522
 C692 C -0.05317 1.14744 0.13213
 H693 H -0.10313 1.23374 0.01477
 H694 H -0.07709 1.18268 -0.00821
 H695 H -0.06701 1.18105 0.17227
 H696 H -0.04333 1.12874 0.14945
 H697 H -0.09553 1.23526 0.16399
 H698 H -0.11916 1.26876 0.06287
 H699 H -0.04929 1.12761 0.00013
 H700 H -0.02951 1.09206 0.10087
 C701 C 0.42144 0.30238 0.91062
 C702 C 0.41437 0.27537 0.93243
 C703 C 0.39936 0.24605 0.91945
 C704 C 0.39186 0.24354 0.88490
 C705 C 0.39951 0.27065 0.86329
 C706 C 0.41406 0.30030 0.87609
 C707 C 0.43648 0.33360 0.92428
 C708 C 0.44263 0.36098 0.90266
 C709 C 0.45595 0.39099 0.91599
 C710 C 0.46343 0.39354 0.95059
 C711 C 0.45774 0.36555 0.97175
 C712 C 0.44396 0.33562 0.95878
 C713 C 0.42104 0.32804 0.85516
 C714 C 0.43497 0.35792 0.86825
 C715 C 0.42233 0.27830 0.96678
 C716 C 0.43698 0.30788 0.97972
 H717 H 0.41543 0.32675 0.82848
 H718 H 0.43967 0.37884 0.85130
 H719 H 0.41709 0.25760 0.98383
 H720 H 0.44261 0.30916 1.00639
 H721 H 0.39376 0.22506 0.93607
 H722 H 0.39349 0.26886 0.83671
 H723 H 0.46034 0.41236 0.89950
 H724 H 0.46317 0.36734 0.99845
 C725 C 0.58966 0.57921 0.80223
 C726 C 0.56787 0.58584 0.77515
 C727 C 0.58086 0.60059 0.74582
 C728 C 0.61540 0.60828 0.74338
 C729 C 0.63701 0.60105 0.77056
 C730 C 0.62419 0.58676 0.80021
 C731 C 0.57598 0.56445 0.83344
 C732 C 0.59757 0.55873 0.86088
 C733 C 0.58422 0.54563 0.89085
 C734 C 0.54963 0.53795 0.89332
 C735 C 0.52850 0.54325 0.86528
 C736 C 0.54148 0.55680 0.83539
 C737 C 0.64510 0.58021 0.82802
 C738 C 0.63199 0.56655 0.85789
 C739 C 0.53352 0.57773 0.77801
 C740 C 0.52057 0.56334 0.80759
 H741 H 0.67177 0.58595 0.82678
 H742 H 0.64892 0.56217 0.87885
 H743 H 0.51648 0.58263 0.75726
 H744 H 0.49390 0.55757 0.80882
 H745 H 0.56424 0.60587 0.72479
 H746 H 0.66357 0.60721 0.76882
 H747 H 0.60069 0.54153 0.91225
 H748 H 0.50180 0.53766 0.86700
 C749 C 0.41131 0.07685 0.69892
 C750 C 0.37671 0.08402 0.70113
 C751 C 0.36389 0.09807 0.73090
 C752 C 0.38553 0.10548 0.75802
 C753 C 0.42013 0.09812 0.75542
 C754 C 0.43315 0.08359 0.72596
 C755 C 0.42501 0.06249 0.66752
 C756 C 0.45959 0.05529 0.66534
 C757 C 0.47260 0.04215 0.63524
 C758 C 0.45139 0.03685 0.60725
 C759 C 0.41673 0.04408 0.60995
 C760 C 0.40337 0.05674 0.64011
 C761 C 0.46757 0.07590 0.72287
 C762 C 0.48055 0.06187 0.69311
 C763 C 0.35575 0.07741 0.67337
 C764 C 0.36888 0.06412 0.64332
 H765 H 0.48464 0.08089 0.74359
 H766 H 0.50728 0.05644 0.69171
 H767 H 0.32903 0.08286 0.67476
 H768 H 0.35191 0.05971 0.62239
 H769 H 0.33728 0.10403 0.73274
 H770 H 0.43679 0.10359 0.77639
 H771 H 0.49934 0.03690 0.63334
 H772 H 0.40021 0.03996 0.58859
 C773 C 0.08985 0.92136 0.19799
 C774 C 0.06806 0.91461 0.22503
 C775 C 0.08107 0.89979 0.25432
 C776 C 0.11562 0.89214 0.25676
 C777 C 0.13722 0.89951 0.22963
 C778 C 0.12439 0.91387 0.20001
 C779 C 0.07614 0.93617 0.16681
 C780 C 0.09771 0.94200 0.13940
 C781 C 0.08434 0.95511 0.10943
 C782 C 0.04972 0.96268 0.10695
 C783 C 0.02861 0.95730 0.13496
 C784 C 0.04163 0.94374 0.16485
 C785 C 0.14528 0.92054 0.17225
 C786 C 0.13215 0.93425 0.14240
 C787 C 0.03370 0.92265 0.22216
 C788 C 0.02072 0.93709 0.19261
 H789 H 0.17196 0.91485 0.17349
 H790 H 0.14907 0.93871 0.12146
 H791 H 0.01668 0.91766 0.24289
 H792 H -0.00596 0.94279 0.19137
 H793 H 0.06446 0.89441 0.27531
 H794 H 0.16379 0.89338 0.23138
 H795 H 0.10079 0.95926 0.08805
 H796 H 0.00190 0.96280 0.13323
 C797 C 0.91026 0.42087 0.30238
 C798 C 0.87563 0.41380 0.30026
 C799 C 0.86270 0.39953 0.27062
 C800 C 0.88428 0.39181 0.24356
 C801 C 0.91892 0.39899 0.24610
 C802 C 0.93204 0.41376 0.27542
 C803 C 0.92405 0.43562 0.33359
 C804 C 0.95864 0.44283 0.33563
 C805 C 0.97171 0.45643 0.36551
 C806 C 0.95057 0.46217 0.39344
 C807 C 0.91590 0.45490 0.39089
 C808 C 0.90246 0.44180 0.36092
 C809 C 0.96648 0.42141 0.27838
 C810 C 0.97954 0.43582 0.30795
 C811 C 0.85473 0.42080 0.32796
 C812 C 0.86795 0.43444 0.35783
 H813 H 0.98351 0.41614 0.25772
 H814 H 1.00628 0.44124 0.30925
 H815 H 0.82799 0.41543 0.32664
 H816 H 0.85102 0.43917 0.37871
 H817 H 0.83605 0.39374 0.26879
 H818 H 0.93552 0.39330 0.22517
 H819 H 0.99847 0.46170 0.36731
 H820 H 0.89943 0.45936 0.41221
   
