data_POSCAR
  _audit_creation_date              2014-09-24
  _audit_creation_method            'ToBaCCo'
  _symmetry_space_group_name_H-M    'P1'
  _symmetry_Int_Tables_number       1
  _symmetry_cell_setting            triclinic
  loop_
  _symmetry_equiv_pos_as_xyz
 x,y,z
_cell_length_a 45.5204
_cell_length_b 44.9364
_cell_length_c 44.1728
_cell_angle_alpha 90.604000
_cell_angle_beta 90.613000
_cell_angle_gamma 93.219700
loop_
  _atom_site_label
  _atom_site_type_symbol
  _atom_site_fract_x
  _atom_site_fract_y
  _atom_site_fract_z
N1 N 0.58778 0.67073 0.61000
 N2 N 0.57713 0.65888 0.63497
 C3 C 0.55367 0.67377 0.64359
 C4 C 0.54926 0.69574 0.62265
 C5 C 0.57118 0.69315 0.60158
 H6 H 0.54058 0.66892 0.66341
 H7 H 0.57506 0.70693 0.58194
 Cu8 Cu 0.59470 0.62484 0.65334
 Cu9 Cu 0.62308 0.65710 0.59093
 Cu10 Cu 0.65503 0.59683 0.62370
 N11 N 0.61211 0.59021 0.67073
 N12 N 0.63658 0.58037 0.65985
 C13 C 0.64486 0.55743 0.67667
 C14 C 0.62417 0.55225 0.69895
 C15 C 0.60358 0.57335 0.69449
 H16 H 0.66414 0.54502 0.67261
 H17 H 0.58418 0.57642 0.70783
 N18 N 0.67041 0.61645 0.58703
 N19 N 0.65887 0.64000 0.57506
 C20 C 0.67480 0.64865 0.55081
 C21 C 0.69701 0.62927 0.54716
 C22 C 0.69357 0.60912 0.57036
 H23 H 0.67028 0.66722 0.53644
 H24 H 0.70714 0.59063 0.57480
 H25 H 0.61746 0.61355 0.60519
 H26 H 0.64121 0.63959 0.62937
 N27 N 0.91569 0.32874 0.10781
 N28 N 0.92620 0.33935 0.13385
 C29 C 0.94882 0.32326 0.14264
 C30 C 0.95296 0.30180 0.12066
 C31 C 0.93166 0.30599 0.09879
 H32 H 0.96157 0.32701 0.16327
 H33 H 0.92766 0.29301 0.07825
 Cu34 Cu 0.90981 0.37367 0.15324
 Cu35 Cu 0.88105 0.34407 0.08844
 Cu36 Cu 0.85074 0.40449 0.12331
 N37 N 0.89302 0.40802 0.17219
 N38 N 0.86923 0.41921 0.16089
 C39 C 0.86139 0.44176 0.17880
 C40 C 0.88158 0.44516 0.20228
 C41 C 0.90146 0.42352 0.19741
 H42 H 0.84265 0.45503 0.17483
 H43 H 0.92031 0.41919 0.21146
 N44 N 0.83515 0.38646 0.08519
 N45 N 0.84599 0.36278 0.07246
 C46 C 0.82957 0.35482 0.04780
 C47 C 0.80779 0.37478 0.04467
 C48 C 0.81200 0.39459 0.06859
 H49 H 0.83325 0.33610 0.03302
 H50 H 0.79869 0.41312 0.07381
 H51 H 0.88781 0.38704 0.10504
 H52 H 0.86316 0.36108 0.12728
 N53 N 0.40628 0.16766 -0.11078
 N54 N 0.41762 0.15511 -0.13466
 C55 C 0.44164 0.17167 -0.14323
 C56 C 0.44572 0.19549 -0.12334
 C57 C 0.42302 0.19225 -0.10296
 H58 H 0.45543 0.16662 -0.16218
 H59 H 0.41872 0.20700 -0.08421
 Cu60 Cu 0.40049 0.11780 -0.15148
 Cu61 Cu 0.36994 0.15199 -0.09255
 Cu62 Cu 0.33880 0.08559 -0.12217
 N63 N 0.38356 0.07984 -0.16690
 N64 N 0.35880 0.06796 -0.15615
 C65 C 0.35116 0.04278 -0.17180
 C66 C 0.37253 0.03846 -0.19311
 C67 C 0.39283 0.06226 -0.18935
 H68 H 0.33168 0.02851 -0.16784
 H69 H 0.41248 0.06669 -0.20247
 N70 N 0.32189 0.10685 -0.08781
 N71 N 0.33320 0.13266 -0.07724
 C72 C 0.31608 0.14213 -0.05481
 C73 C 0.29326 0.12106 -0.05081
 C74 C 0.29761 0.09894 -0.07194
 H75 H 0.32008 0.16260 -0.04196
 H76 H 0.28383 0.07883 -0.07568
 H77 H 0.37578 0.10788 -0.10366
 H78 H 0.35306 0.12920 -0.13037
 N79 N 0.09526 0.83310 0.38175
 N80 N 0.07580 0.85173 0.37265
 C81 C 0.04919 0.83721 0.37037
 C82 C 0.05231 0.80774 0.37791
 C83 C 0.08186 0.80584 0.38485
 H84 H 0.02927 0.84713 0.36294
 H85 H 0.09273 0.78630 0.39213
 Cu86 Cu 0.08741 0.89247 0.36201
 Cu87 Cu 0.13627 0.84589 0.38976
 Cu88 Cu 0.15272 0.92176 0.38595
 N89 N 0.10554 0.92799 0.34354
 N90 N 0.13166 0.93895 0.35237
 C91 C 0.13983 0.96223 0.33486
 C92 C 0.11749 0.96612 0.31408
 C93 C 0.09598 0.94414 0.32029
 H94 H 0.16053 0.97517 0.33694
 H95 H 0.07542 0.93961 0.30816
 N96 N 0.17728 0.89497 0.40829
 N97 N 0.17191 0.86580 0.40863
 C98 C 0.19203 0.85372 0.42667
 C99 C 0.21063 0.87652 0.43833
 C100 C 0.20069 0.90233 0.42617
 H101 H 0.19201 0.83038 0.43239
 H102 H 0.20930 0.92488 0.43072
 H103 H 0.12366 0.88701 0.40218
 H104 H 0.13991 0.88396 0.36364
 C105 C 0.09798 0.15017 0.12346
 N106 N 0.11836 0.14878 0.10132
 C107 C 0.13856 0.12765 0.10214
 N108 N 0.13830 0.10788 0.12520
 C109 C 0.11796 0.10916 0.14738
 N110 N 0.09788 0.13036 0.14646
 C111 C 0.39796 0.84333 0.62476
 N112 N 0.39706 0.86315 0.64814
 C113 C 0.37633 0.88373 0.64854
 N114 N 0.35652 0.88447 0.62542
 C115 C 0.35734 0.86482 0.60192
 N116 N 0.37811 0.84428 0.60164
 C117 C 0.89855 0.64765 0.37794
 N118 N 0.87450 0.64980 0.39564
 C119 C 0.85316 0.62743 0.39568
 N120 N 0.85551 0.60335 0.37726
 C121 C 0.87924 0.60126 0.35917
 N122 N 0.90096 0.62325 0.35989
 C123 C 0.60361 0.35367 -0.12674
 N124 N 0.62616 0.35348 -0.10637
 C125 C 0.64830 0.37501 -0.10692
 N126 N 0.64782 0.39680 -0.12795
 C127 C 0.62531 0.39716 -0.14836
 N128 N 0.60324 0.37555 -0.14771
 C129 C 0.01447 0.23836 0.12127
 N130 N -0.00245 0.24219 0.09627
 N131 N -0.02252 0.26266 0.09611
 C132 C -0.02610 0.28036 0.12078
 N133 N -0.00896 0.27667 0.14566
 N134 N 0.01080 0.25589 0.14598
 C135 C 0.03621 0.21549 0.12173
 N136 N 0.04458 0.20352 0.14833
 N137 N 0.06412 0.18255 0.14882
 C138 C 0.07634 0.17313 0.12277
 N139 N 0.06815 0.18525 0.09618
 N140 N 0.04825 0.20591 0.09564
 C141 C 0.48446 0.75805 0.62349
 N142 N 0.49848 0.75163 0.59745
 N143 N 0.51922 0.73185 0.59722
 C144 C 0.52640 0.71751 0.62292
 N145 N 0.51224 0.72377 0.64892
 N146 N 0.49176 0.74383 0.64924
 C147 C 0.46190 0.78012 0.62383
 N148 N 0.45445 0.79341 0.65018
 N149 N 0.43418 0.81368 0.65045
 C150 C 0.42037 0.82110 0.62443
 N151 N 0.42768 0.80766 0.59811
 N152 N 0.44821 0.78767 0.59779
 C153 C 0.98766 0.74023 0.37846
 N154 N 0.98070 0.76889 0.37434
 N155 N 1.00170 0.79076 0.37397
 C156 C 1.03038 0.78483 0.37817
 N157 N 1.03728 0.75616 0.38255
 N158 N 1.01632 0.73423 0.38245
 C159 C 0.96456 0.71613 0.37848
 N160 N 0.97081 0.68783 0.37098
 N161 N 0.94973 0.66602 0.37062
 C162 C 0.92174 0.67166 0.37821
 N163 N 0.91554 0.69992 0.38596
 N164 N 0.93653 0.72182 0.38587
 C165 C 0.51258 0.26309 -0.12475
 N166 N 0.50441 0.24789 -0.15048
 N167 N 0.48324 0.22620 -0.14999
 C168 C 0.46918 0.21925 -0.12384
 N169 N 0.47718 0.23460 -0.09815
 N170 N 0.49866 0.25600 -0.09855
 C171 C 0.53612 0.28673 -0.12523
 N172 N 0.55190 0.29414 -0.09974
 N173 N 0.57353 0.31537 -0.10026
 C174 C 0.57984 0.33026 -0.12618
 N175 N 0.56390 0.32302 -0.15162
 N176 N 0.54257 0.30148 -0.15120
 C177 C 0.11747 0.02747 0.24364
 N178 N 0.09178 0.01458 0.25377
 N179 N 0.09177 -0.00502 0.27621
 C180 C 0.11740 -0.01209 0.28958
 N181 N 0.14306 0.00098 0.27961
 N182 N 0.14310 0.02028 0.25692
 C183 C 0.11756 0.04869 0.21863
 N184 N 0.14223 0.05424 0.20215
 N185 N 0.14230 0.07334 0.17929
 C186 C 0.11780 0.08787 0.17234
 N187 N 0.09318 0.08247 0.18894
 N188 N 0.09301 0.06307 0.21155
 C189 C 0.62429 0.48740 -0.23623
 N190 N 0.64793 0.49255 -0.25428
 N191 N 0.64777 0.51345 -0.27542
 C192 C 0.62416 0.53032 -0.27899
 N193 N 0.60060 0.52532 -0.26073
 N194 N 0.60058 0.50408 -0.23989
 C195 C 0.62445 0.46413 -0.21322
 N196 N 0.59889 0.45039 -0.20379
 N197 N 0.59916 0.42889 -0.18325
 C198 C 0.62496 0.42070 -0.17108
 N199 N 0.65049 0.43462 -0.18032
 N200 N 0.65026 0.45578 -0.20120
 C201 C 0.37417 0.97032 0.74190
 N202 N 0.39941 0.98567 0.75072
 N203 N 0.39888 1.00739 0.77145
 C204 C 0.37317 1.01424 0.78439
 N205 N 0.34798 0.99868 0.77581
 N206 N 0.34845 0.97725 0.75477
 C207 C 0.37459 0.94717 0.71827
 N208 N 0.34996 0.93958 0.70172
 N209 N 0.35052 0.91929 0.67956
 C210 C 0.37562 0.90553 0.67345
 N211 N 0.40018 0.91287 0.69021
 N212 N 0.39973 0.93348 0.71210
 C213 C 0.88165 0.50878 0.27198
 N214 N 0.85652 0.50072 0.25644
 N215 N 0.85657 0.48045 0.23424
 C216 C 0.88167 0.46722 0.22702
 N217 N 0.90677 0.47505 0.24273
 N218 N 0.90681 0.49563 0.26469
 C219 C 0.88151 0.53182 0.29574
 N220 N 0.90669 0.54751 0.30418
 N221 N 0.90613 0.56946 0.32468
 C222 C 0.88042 0.57619 0.33775
 N223 N 0.85534 0.56023 0.32956
 N224 N 0.85585 0.53857 0.30881
 C225 C 0.22616 0.12365 0.01286
 N226 N 0.23341 0.09731 0.00048
 N227 N 0.25459 0.09651 -0.02006
 C228 C 0.26955 0.12197 -0.02861
 N229 N 0.26240 0.14828 -0.01611
 N230 N 0.24095 0.14913 0.00411
 C231 C 0.20300 0.12454 0.03566
 N232 N 0.18920 0.15005 0.04102
 N233 N 0.16838 0.15094 0.06193
 C234 C 0.16090 0.12646 0.07852
 N235 N 0.17480 0.10099 0.07325
 N236 N 0.19534 0.09999 0.05205
 C237 C 0.76117 0.62953 0.48018
 N238 N 0.74743 0.65480 0.48688
 N239 N 0.72672 0.65471 0.50800
 C240 C 0.71935 0.62946 0.52345
 N241 N 0.73319 0.60427 0.51684
 N242 N 0.75359 0.60426 0.49546
 C243 C 0.78422 0.62942 0.45724
 N244 N 0.79151 0.60336 0.44432
 N245 N 0.81306 0.60292 0.42421
 C246 C 0.82836 0.62846 0.41655
 N247 N 0.82111 0.65457 0.42947
 N248 N 0.79927 0.65507 0.44932
 C249 C 0.74103 0.37468 -0.02103
 N250 N 0.74978 0.40015 -0.00591
 N251 N 0.77103 0.40014 0.01505
 C252 C 0.78460 0.37475 0.02133
 N253 N 0.77605 0.34932 0.00602
 N254 N 0.75450 0.34924 -0.01465
 C255 C 0.71719 0.37464 -0.04364
 N256 N 0.70124 0.34906 -0.05085
 N257 N 0.67919 0.34920 -0.07092
 C258 C 0.67257 0.37483 -0.08481
 N259 N 0.68868 0.40035 -0.07778
 N260 N 0.71046 0.40030 -0.05740
 C261 C 0.27493 0.87092 0.50599
 N262 N 0.26426 0.89754 0.49868
 N263 N 0.24415 0.89929 0.47677
 C264 C 0.23375 0.87445 0.46153
 N265 N 0.24440 0.84779 0.46881
 N266 N 0.26476 0.84607 0.49056
 C267 C 0.29656 0.86916 0.53070
 N268 N 0.31224 0.84457 0.53423
 N269 N 0.33177 0.84319 0.55682
 C270 C 0.33606 0.86621 0.57684
 N271 N 0.32029 0.89071 0.57335
 N272 N 0.30100 0.89221 0.55062
   
