data_POSCAR
  _audit_creation_date              2014-09-24
  _audit_creation_method            'ToBaCCo'
  _symmetry_space_group_name_H-M    'P1'
  _symmetry_Int_Tables_number       1
  _symmetry_cell_setting            triclinic
  loop_
  _symmetry_equiv_pos_as_xyz
 x,y,z
_cell_length_a 21.8935
_cell_length_b 14.9779
_cell_length_c 9.2935
_cell_angle_alpha 90.942300
_cell_angle_beta 90.273500
_cell_angle_gamma 90.203700
loop_
  _atom_site_label
  _atom_site_type_symbol
  _atom_site_fract_x
  _atom_site_fract_y
  _atom_site_fract_z
O1 O 0.76773 0.12868 0.62765
 O2 O 0.67476 0.24528 0.35497
 O3 O 0.77022 0.14174 0.34163
 O4 O 0.67292 0.23635 0.63176
 O5 O 0.72970 0.35817 0.64640
 O6 O 0.83001 0.25956 0.36803
 O7 O 0.73347 0.36519 0.36309
 O8 O 0.82347 0.25132 0.64440
 Cu9 Cu 0.71579 0.17686 0.48721
 Cu10 Cu 0.78493 0.31931 0.50697
 C11 C 0.81259 0.17176 0.68212
 C12 C 0.68673 0.32384 0.31422
 C13 C 0.81822 0.18456 0.30823
 C14 C 0.68348 0.31348 0.68560
 O15 O 0.23123 0.85939 0.65899
 O16 O 0.32840 0.76142 0.37207
 O17 O 0.23541 0.87433 0.37633
 O18 O 0.32429 0.74989 0.64571
 O19 O 0.26350 0.63214 0.63326
 O20 O 0.17761 0.75379 0.35480
 O21 O 0.26929 0.64199 0.35331
 O22 O 0.16927 0.74421 0.62804
 Cu23 Cu 0.28584 0.82244 0.51548
 Cu24 Cu 0.21377 0.68225 0.49050
 C25 C 0.18173 0.81905 0.68786
 C26 C 0.31707 0.68443 0.31834
 C27 C 0.18953 0.83393 0.32180
 C28 C 0.31125 0.67073 0.68195
 O29 O 0.26672 0.36905 -0.63979
 O30 O 0.17287 0.25095 -0.36921
 O31 O 0.26666 0.36286 -0.35458
 O32 O 0.17162 0.26130 -0.64111
 O33 O 0.23436 0.14752 -0.66819
 O34 O 0.32204 0.23990 -0.35764
 O35 O 0.22947 0.12961 -0.38561
 O36 O 0.33019 0.25559 -0.62717
 Cu37 Cu 0.21375 0.32242 -0.49950
 Cu38 Cu 0.28477 0.18174 -0.51201
 C39 C 0.31723 0.33261 -0.67327
 C40 C 0.18310 0.17027 -0.33630
 C41 C 0.31162 0.31813 -0.30872
 C42 C 0.18510 0.18722 -0.70096
 O43 O -0.22901 0.87029 -0.61786
 O44 O -0.33068 0.74741 -0.37283
 O45 O -0.23420 0.85342 -0.33611
 O46 O -0.32201 0.76225 -0.64616
 O47 O -0.26692 0.63917 -0.65003
 O48 O -0.17484 0.73500 -0.35195
 O49 O -0.26943 0.63132 -0.36254
 O50 O -0.17210 0.74916 -0.62664
 Cu51 Cu -0.28480 0.81923 -0.49125
 Cu52 Cu -0.21527 0.67749 -0.50018
 C53 C -0.18221 0.82910 -0.66380
 C54 C -0.31862 0.67029 -0.32577
 C55 C -0.18761 0.81011 -0.29507
 C56 C -0.31120 0.68485 -0.69752
 O57 O 0.08227 0.82996 -0.24261
 O58 O 0.15283 0.92361 -0.13542
 C59 C 0.13772 0.85879 -0.22393
 O60 O -0.08596 1.15459 -0.25287
 O61 O -0.15519 1.06908 -0.13149
 C62 C -0.14110 1.12873 -0.22677
 O63 O 0.08069 1.14160 -0.28553
 O64 O 0.15260 1.07164 -0.14637
 C65 C 0.13668 1.12374 -0.25105
 O66 O -0.08661 0.82335 -0.22282
 O67 O -0.15546 0.91631 -0.11144
 C68 C -0.14161 0.85088 -0.19903
 Zr69 Zr -0.00127 0.87367 -0.15427
 O70 O -0.00796 0.82755 -0.36916
 O71 O 0.00425 0.73821 -0.09191
 Zr72 Zr -0.00205 1.09751 -0.19628
 O73 O -0.00680 1.06259 -0.41485
 O74 O -0.00055 1.23320 -0.25527
 O75 O 0.05215 0.98417 -0.20896
 O76 O -0.05502 0.98361 -0.20131
 O77 O -0.07958 0.85512 0.28152
 O78 O -0.15154 0.92912 0.14806
 C79 C -0.13560 0.87422 0.24899
 O80 O 0.08608 1.17579 0.23041
 O81 O 0.15505 1.08159 0.12242
 C82 C 0.14109 1.14699 0.21026
 O83 O -0.08305 1.17726 0.23185
 O84 O -0.15290 1.07973 0.13207
 C85 C -0.13821 1.14672 0.21648
 O86 O 0.08785 0.85952 0.27390
 O87 O 0.15650 0.93416 0.13304
 C88 C 0.14285 0.88029 0.23724
 Zr89 Zr 0.00311 0.90299 0.19646
 O90 O 0.00528 0.92637 0.41902
 O91 O 0.00436 0.76232 0.21383
 Zr92 Zr 0.00136 1.12759 0.15565
 O93 O 0.00448 1.16683 0.37417
 O94 O 0.00372 1.26463 0.10174
 Zr95 Zr 0.09358 1.00204 -0.00422
 Zr96 Zr -0.09306 0.99953 0.00551
 O97 O -0.04998 1.01624 0.20787
 O98 O 0.05660 1.01819 0.20359
 O99 O -0.05540 0.87093 0.02712
 O100 O 0.05443 1.12939 -0.02507
 O101 O 0.05617 0.87365 0.01982
 O102 O -0.05641 1.12900 -0.02010
 H103 H -0.08283 0.97872 -0.28531
 H104 H 0.08175 1.18196 -0.03290
 H105 H -0.07437 1.02076 0.29713
 H106 H 0.08433 0.82207 0.02372
 H107 H 0.01051 1.26825 -0.16795
 H108 H -0.03758 1.28213 0.06900
 H109 H 0.00216 1.23300 0.37882
 H110 H 0.04532 0.95359 0.44416
 H111 H 0.00576 0.74912 0.31804
 H112 H -0.03737 0.71749 -0.06752
 H113 H -0.00416 0.76150 -0.36905
 H114 H -0.04904 1.07224 -0.44956
 O115 O 0.41754 0.35305 0.27413
 O116 O 0.34682 0.43465 0.14971
 C117 C 0.36179 0.37649 0.24659
 O118 O 0.58779 0.67221 0.23147
 O119 O 0.65610 0.58046 0.11571
 C120 C 0.64262 0.64482 0.20593
 O121 O 0.41938 0.66565 0.25356
 O122 O 0.34763 0.58112 0.13178
 C123 C 0.36348 0.64183 0.22670
 O124 O 0.58481 0.34401 0.25307
 O125 O 0.65475 0.42745 0.12991
 C126 C 0.64025 0.36811 0.22515
 Zr127 Zr 0.50093 0.40077 0.19368
 O128 O 0.50228 0.43621 0.41265
 O129 O 0.49982 0.26519 0.25303
 Zr130 Zr 0.50232 0.62528 0.15838
 O131 O 0.50917 0.67576 0.37099
 O132 O 0.49789 0.76027 0.09308
 O133 O 0.44793 0.51508 0.20970
 O134 O 0.55496 0.51362 0.20243
 O135 O 0.58182 0.32773 -0.24220
 O136 O 0.65281 0.41762 -0.12892
 C137 C 0.63742 0.35402 -0.21907
 O138 O 0.41317 0.64460 -0.26971
 O139 O 0.34395 0.56774 -0.13342
 C140 C 0.35795 0.62338 -0.23476
 O141 O 0.58138 0.65235 -0.26740
 O142 O 0.65245 0.56907 -0.14694
 C143 C 0.63717 0.62841 -0.24180
 O144 O 0.41331 0.33437 -0.24445
 O145 O 0.34447 0.42101 -0.12034
 C146 C 0.35833 0.35978 -0.21573
 Zr147 Zr 0.49800 0.37520 -0.15956
 O148 O 0.49549 0.32952 -0.37535
 O149 O 0.49442 0.23891 -0.10169
 Zr150 Zr 0.49810 0.60032 -0.19301
 O151 O 0.49878 0.57626 -0.41583
 O152 O 0.49602 0.74082 -0.21344
 Zr153 Zr 0.40671 0.50053 0.00421
 Zr154 Zr 0.59322 0.49931 -0.00456
 O155 O 0.55044 0.48635 -0.20785
 O156 O 0.44376 0.48627 -0.20414
 O157 O 0.55529 0.37015 0.01688
 O158 O 0.44505 0.62861 -0.01596
 O159 O 0.44451 0.37199 0.02058
 O160 O 0.55673 0.62899 -0.02222
 H161 H 0.58257 0.51686 0.28697
 H162 H 0.41689 0.68025 -0.01886
 H163 H 0.57537 0.48302 -0.29642
 H164 H 0.41628 0.32024 0.02525
 H165 H 0.54020 0.78265 0.08233
 H166 H 0.49517 0.75326 -0.31797
 H167 H 0.45773 0.55421 -0.44453
 H168 H 0.49635 0.26321 -0.37542
 H169 H 0.53682 0.21783 -0.08787
 H170 H 0.49151 0.22994 0.16425
 H171 H 0.54422 0.42685 0.44950
 H172 H 0.50549 0.74179 0.36770
   
