data_POSCAR
  _audit_creation_date              2014-09-24
  _audit_creation_method            'ToBaCCo'
  _symmetry_space_group_name_H-M    'P1'
  _symmetry_Int_Tables_number       1
  _symmetry_cell_setting            triclinic
  loop_
  _symmetry_equiv_pos_as_xyz
 x,y,z
_cell_length_a 44.2722
_cell_length_b 42.3999
_cell_length_c 44.0791
_cell_angle_alpha 89.993800
_cell_angle_beta 90.003100
_cell_angle_gamma 118.738300
loop_
  _atom_site_label
  _atom_site_type_symbol
  _atom_site_fract_x
  _atom_site_fract_y
  _atom_site_fract_z
C1 C 0.00022 0.50234 1.33215
 C2 C 0.03111 0.51360 1.31644
 C3 C 0.03116 0.51251 1.28467
 C4 C 0.00048 0.50204 1.26800
 C5 C -0.03032 0.49176 1.28442
 C6 C -0.03054 0.49096 1.31619
 C7 C 0.00057 0.50177 1.23388
 C8 C -0.03000 0.48056 1.21731
 C9 C -0.03001 0.48113 1.18556
 C10 C 0.00070 0.50120 1.16976
 C11 C 0.03134 0.52155 1.18558
 C12 C 0.03121 0.52268 1.21732
 H13 H 0.00010 0.50242 1.35679
 H14 H 0.05526 0.51969 1.27333
 H15 H -0.05434 0.48447 1.27287
 H16 H -0.05400 0.46327 1.22866
 H17 H 0.00075 0.50096 1.14514
 H18 H 0.05517 0.54012 1.22866
 C19 C 0.49965 0.50079 1.32251
 C20 C 0.47685 0.50876 1.30666
 C21 C 0.47601 0.50754 1.27489
 C22 C 0.49927 0.50005 1.25843
 C23 C 0.52274 0.49298 1.27498
 C24 C 0.52227 0.49248 1.30677
 C25 C 0.49905 0.49959 1.22434
 C26 C 0.51193 0.47989 1.20800
 C27 C 0.51255 0.48029 1.17623
 C28 C 0.49871 0.49879 1.16021
 C29 C 0.48503 0.51767 1.17588
 C30 C 0.48599 0.51886 1.20764
 H31 H 0.49977 0.50104 1.34716
 H32 H 0.45697 0.51222 1.26334
 H33 H 0.54164 0.48801 1.26350
 H34 H 0.52140 0.46393 1.21961
 H35 H 0.49859 0.49849 1.13560
 H36 H 0.47663 0.53510 1.21895
 C37 C 0.50009 1.00021 1.34200
 C38 C 0.48817 0.96782 1.32622
 C39 C 0.48943 0.96778 1.29451
 C40 C 0.50114 1.00006 1.27795
 C41 C 0.51222 1.03242 1.29426
 C42 C 0.51250 1.03257 1.32602
 C43 C 0.50187 1.00002 1.24398
 C44 C 0.52527 1.03092 1.22773
 C45 C 0.52530 1.03107 1.19600
 C46 C 0.50323 1.00007 1.18003
 C47 C 0.48049 0.96904 1.19563
 C48 C 0.47918 0.96912 1.22734
 H49 H 0.49971 1.00018 1.36662
 H50 H 0.48141 0.94242 1.28304
 H51 H 0.52057 1.05768 1.28250
 H52 H 0.54371 1.05496 1.23941
 H53 H 0.50372 1.00012 1.15541
 H54 H 0.46026 0.94507 1.23869
 C55 C 1.00059 0.49835 0.66782
 C56 C 0.96990 0.48877 0.68331
 C57 C 0.96978 0.49072 0.71501
 C58 C 1.00016 0.50046 0.73192
 C59 C 1.03077 0.50907 0.71574
 C60 C 1.03111 0.50898 0.68396
 C61 C 0.99995 0.50164 0.76602
 C62 C 1.03070 0.52220 0.78253
 C63 C 1.03060 0.52235 0.81428
 C64 C 0.99968 0.50373 0.83010
 C65 C 0.96887 0.48409 0.81432
 C66 C 0.96903 0.48221 0.78261
 H67 H 1.00065 0.49753 0.64320
 H68 H 0.94581 0.48475 0.72604
 H69 H 1.05453 0.51572 0.72748
 H70 H 1.05495 0.53839 0.77114
 H71 H 0.99959 0.50448 0.85471
 H72 H 0.94487 0.46529 0.77132
 C73 C 0.49924 0.49833 0.67957
 C74 C 0.52124 0.48924 0.69538
 C75 C 0.52175 0.48982 0.72711
 C76 C 0.49896 0.49801 0.74354
 C77 C 0.47631 0.50634 0.72705
 C78 C 0.47710 0.50725 0.69532
 C79 C 0.49881 0.49788 0.77753
 C80 C 0.48767 0.51898 0.79396
 C81 C 0.48672 0.51814 0.82569
 C82 C 0.49843 0.49760 0.84159
 C83 C 0.51035 0.47722 0.82574
 C84 C 0.50980 0.47667 0.79400
 H85 H 0.49935 0.49846 0.65495
 H86 H 0.54012 0.48407 0.73865
 H87 H 0.45782 0.51195 0.73852
 H88 H 0.47981 0.53636 0.78239
 H89 H 0.49828 0.49750 0.86620
 H90 H 0.51784 0.45943 0.78245
 C91 C 0.49925 -0.00034 0.65864
 C92 C 0.51325 0.03213 0.67459
 C93 C 0.51246 0.03201 0.70635
 C94 C 0.49931 -0.00055 0.72280
 C95 C 0.48611 -0.03303 0.70621
 C96 C 0.48525 -0.03296 0.67442
 C97 C 0.49942 -0.00062 0.75690
 C98 C 0.47598 -0.03134 0.77341
 C99 C 0.47675 -0.03160 0.80519
 C100 C 0.49965 -0.00075 0.82097
 C101 C 0.52241 0.03013 0.80519
 C102 C 0.52297 0.03002 0.77343
 H103 H 0.49934 -0.00015 0.63402
 H104 H 0.52209 0.05754 0.71789
 H105 H 0.47660 -0.05860 0.71771
 H106 H 0.45686 -0.05512 0.76190
 H107 H 0.49979 -0.00070 0.84561
 H108 H 0.54200 0.05391 0.76201
 O109 O 0.37688 0.67605 0.96395
 O110 O 0.37591 0.73637 0.97399
 C111 C 0.35364 0.74109 0.95944
 O112 O 0.32167 0.72393 0.96486
 O113 O 0.26474 0.66426 0.97479
 C114 C 0.26043 0.63686 0.95980
 O115 O 0.27761 0.62054 0.96431
 O116 O 0.33588 0.61983 0.97352
 C117 C 0.36238 0.64250 0.95921
 O118 O 0.37909 0.66561 1.02385
 O119 O 0.37531 0.72433 1.03418
 C120 C 0.35838 0.74067 1.03966
 O121 O 0.33170 0.73542 1.02502
 O122 O 0.27631 0.67418 1.03478
 C123 C 0.26083 0.64062 1.03948
 O124 O 0.26676 0.61851 1.02462
 O125 O 0.32634 0.62066 1.03366
 C126 C 0.35854 0.63741 1.03822
 Cr127 Cr 0.37487 0.69961 0.99902
 Cr128 Cr 0.29964 0.69848 0.99984
 Cr129 Cr 0.30253 0.62189 0.99902
 O130 O 0.32569 0.67330 0.99928
 O131 O 0.62240 0.32272 0.96607
 O132 O 0.62511 0.26317 0.97558
 C133 C 0.64747 0.25926 0.96040
 O134 O 0.67952 0.27734 0.96514
 O135 O 0.73581 0.33783 0.97477
 C136 C 0.73934 0.36533 0.96040
 O137 O 0.72156 0.38083 0.96563
 O138 O 0.66251 0.37938 0.97566
 C139 C 0.63620 0.35625 0.96139
 O140 O 0.62066 0.33274 1.02603
 O141 O 0.62656 0.27507 1.03579
 C142 C 0.64428 0.25945 1.04068
 O143 O 0.67076 0.26531 1.02538
 O144 O 0.72545 0.32719 1.03482
 C145 C 0.74013 0.36064 1.03998
 O146 O 0.73319 0.38246 1.02579
 O147 O 0.67297 0.37843 1.03573
 C148 C 0.64083 0.36107 1.04042
 Cr149 Cr 0.62561 0.29944 1.00087
 Cr150 Cr 0.70180 0.30284 1.00003
 Cr151 Cr 0.69672 0.37827 1.00069
 O152 O 0.67473 0.32690 1.00051
 O153 O 0.66900 0.40405 0.52439
 O154 O 0.72428 0.39802 0.53365
 C155 C 0.73962 0.37982 0.53814
 O156 O 0.73333 0.35165 0.52327
 O157 O 0.67362 0.29426 0.53256
 C158 C 0.64147 0.27892 0.53738
 O159 O 0.62092 0.28660 0.52316
 O160 O 0.62518 0.34931 0.53363
 C161 C 0.64232 0.38263 0.53912
 O162 O 0.67847 0.40260 0.46415
 O163 O 0.73529 0.39963 0.47357
 C164 C 0.73942 0.37647 0.45855
 O165 O 0.72207 0.34290 0.46303
 O166 O 0.66364 0.28394 0.47244
 C167 C 0.63711 0.28017 0.45831
 O168 O 0.62276 0.29926 0.46325
 O169 O 0.62421 0.36076 0.47351
 C170 C 0.64647 0.38784 0.45894
 Cr171 Cr 0.70071 0.39906 0.49891
 Cr172 Cr 0.69729 0.31932 0.49783
 Cr173 Cr 0.62520 0.32493 0.49839
 O174 O 0.67439 0.34774 0.49836
 O175 O 0.33047 0.59492 0.52518
 O176 O 0.27513 0.60050 0.53523
 C177 C 0.25985 0.61859 0.54052
 O178 O 0.26604 0.64717 0.52631
 O179 O 0.32578 0.70451 0.53577
 C180 C 0.35801 0.72010 0.54014
 O181 O 0.37841 0.71252 0.52556
 O182 O 0.37406 0.64957 0.53524
 C183 C 0.35700 0.61611 0.54021
 O184 O 0.32076 0.59766 0.46506
 O185 O 0.26388 0.60021 0.47530
 C186 C 0.25962 0.62372 0.46095
 O187 O 0.27690 0.65715 0.46605
 O188 O 0.33541 0.71587 0.47564
 C189 C 0.36180 0.71974 0.46115
 O190 O 0.37619 0.70058 0.46560
 O191 O 0.37500 0.63902 0.47498
 C192 C 0.35278 0.61237 0.45998
 Cr193 Cr 0.29861 0.60033 0.50019
 Cr194 Cr 0.30190 0.68004 0.50092
 Cr195 Cr 0.37399 0.67448 0.50037
 O196 O 0.32481 0.65164 0.50049
 C197 C 0.38906 0.56785 0.39722
 C198 C 0.39556 0.57978 0.36673
 C199 C 0.41118 0.56568 0.34658
 C200 C 0.42022 0.53976 0.35708
 C201 C 0.41261 0.52690 0.38727
 C202 C 0.39697 0.54097 0.40739
 C203 C 0.38987 0.52789 0.43756
 C204 C 0.39797 0.50167 0.44753
 C205 C 0.41331 0.48796 0.42786
 C206 C 0.42062 0.50033 0.39807
 C207 C 0.41771 0.57822 0.31628
 C208 C 0.40900 0.60395 0.30614
 C209 C 0.39374 0.61775 0.32584
 C210 C 0.38706 0.60592 0.35583
 C211 C 0.43923 0.52789 0.33757
 C212 C 0.45625 0.51858 0.32246
 C213 C 0.37546 0.58399 0.41851
 C214 C 0.36481 0.59718 0.43701
 H215 H 0.37791 0.53767 0.45372
 H216 H 0.39227 0.49191 0.47063
 H217 H 0.41956 0.46759 0.43572
 H218 H 0.43247 0.48874 0.38361
 H219 H 0.42945 0.56819 0.30012
 H220 H 0.41412 0.61321 0.28287
 H221 H 0.38703 0.63773 0.31785
 H222 H 0.37510 0.61739 0.37030
 C223 C 0.41047 0.80796 0.40662
 C224 C 0.40378 0.80805 0.37524
 C225 C 0.42095 0.84055 0.35839
 C226 C 0.44463 0.87276 0.37308
 C227 C 0.45183 0.87252 0.40434
 C228 C 0.43475 0.84001 0.42116
 C229 C 0.44241 0.84045 0.45241
 C230 C 0.46630 0.87204 0.46658
 C231 C 0.48286 0.90386 0.45016
 C232 C 0.47581 0.90427 0.41940
 C233 C 0.41382 0.84002 0.32703
 C234 C 0.39041 0.80826 0.31273
 C235 C 0.37360 0.77649 0.32923
 C236 C 0.38010 0.77623 0.36014
 C237 C 0.46080 0.90633 0.35630
 C238 C 0.47369 0.93436 0.34256
 C239 C 0.39215 0.77524 0.42428
 C240 C 0.37767 0.74911 0.44026
 H241 H 0.43016 0.81642 0.46622
 H242 H 0.47197 0.87184 0.49045
 H243 H 0.50133 0.92836 0.46130
 H244 H 0.48943 0.92967 0.40757
 H245 H 0.42630 0.86405 0.31325
 H246 H 0.38530 0.80831 0.28872
 H247 H 0.35544 0.75190 0.31801
 H248 H 0.36644 0.75087 0.37203
 C249 C 0.17780 0.58392 0.40267
 C250 C 0.18100 0.58808 0.37077
 C251 C 0.15103 0.57266 0.35221
 C252 C 0.11807 0.55318 0.36568
 C253 C 0.11488 0.54890 0.39758
 C254 C 0.14481 0.56434 0.41613
 C255 C 0.14092 0.55984 0.44800
 C256 C 0.10842 0.54071 0.46113
 C257 C 0.07916 0.52556 0.44298
 C258 C 0.08219 0.52950 0.41157
 C259 C 0.15485 0.57724 0.32039
 C260 C 0.18735 0.59654 0.30726
 C261 C 0.21664 0.61162 0.32541
 C262 C 0.21366 0.60751 0.35682
 C263 C 0.08729 0.53839 0.34698
 C264 C 0.06116 0.52645 0.33225
 C265 C 0.20821 0.59940 0.42186
 C266 C 0.23241 0.61124 0.43900
 H267 H 0.16287 0.57108 0.46313
 H268 H 0.10593 0.53769 0.48553
 H269 H 0.05397 0.51069 0.45329
 H270 H 0.05865 0.51719 0.39844
 H271 H 0.13281 0.56597 0.30535
 H272 H 0.18981 0.59981 0.28287
 H273 H 0.24182 0.62659 0.31510
 H274 H 0.23716 0.61974 0.37002
 C275 C 0.61016 0.43318 0.39695
 C276 C 0.60483 0.42252 0.36612
 C277 C 0.58920 0.43680 0.34616
 C278 C 0.57897 0.46160 0.35719
 C279 C 0.58539 0.47319 0.38777
 C280 C 0.60104 0.45895 0.40771
 C281 C 0.60692 0.47072 0.43827
 C282 C 0.59762 0.49585 0.44879
 C283 C 0.58227 0.50973 0.42930
 C284 C 0.57616 0.49863 0.39913
 C285 C 0.58386 0.42555 0.31549
 C286 C 0.59371 0.40090 0.30482
 C287 C 0.60897 0.38692 0.32434
 C288 C 0.61451 0.39750 0.35467
 C289 C 0.55996 0.47354 0.33776
 C290 C 0.54291 0.48281 0.32266
 C291 C 0.62381 0.41682 0.41798
 C292 C 0.63447 0.40339 0.43625
 H293 H 0.61882 0.46076 0.45431
 H294 H 0.60239 0.50462 0.47220
 H295 H 0.57510 0.52925 0.43759
 H296 H 0.56425 0.51030 0.38483
 H297 H 0.57215 0.43577 0.29945
 H298 H 0.58948 0.39261 0.28128
 H299 H 0.61657 0.36777 0.31594
 H300 H 0.62652 0.38594 0.36899
 C301 C 0.58862 0.19138 0.40448
 C302 C 0.58875 0.19199 0.37238
 C303 C 0.57168 0.15921 0.35588
 C304 C 0.55460 0.12606 0.37162
 C305 C 0.55405 0.12549 0.40372
 C306 C 0.57113 0.15823 0.42021
 C307 C 0.57040 0.15693 0.45234
 C308 C 0.55329 0.12426 0.46769
 C309 C 0.53657 0.09225 0.45154
 C310 C 0.53686 0.09269 0.41993
 C311 C 0.57228 0.16046 0.32379
 C312 C 0.58926 0.19316 0.30844
 C313 C 0.60595 0.22520 0.32459
 C314 C 0.60579 0.22478 0.35621
 C315 C 0.53859 0.09245 0.35490
 C316 C 0.52592 0.06433 0.34131
 C317 C 0.60664 0.22455 0.42161
 C318 C 0.62105 0.25087 0.43739
 H319 H 0.58299 0.18108 0.46596
 H320 H 0.55302 0.12379 0.49224
 H321 H 0.52330 0.06693 0.46356
 H322 H 0.52344 0.06707 0.40839
 H323 H 0.55962 0.13624 0.31025
 H324 H 0.58946 0.19363 0.28388
 H325 H 0.61911 0.25052 0.31256
 H326 H 0.61911 0.25037 0.36781
 C327 C 0.82147 0.41897 0.40059
 C328 C 0.81921 0.41178 0.36908
 C329 C 0.84942 0.42790 0.35084
 C330 C 0.88168 0.45105 0.36427
 C331 C 0.88385 0.45870 0.39570
 C332 C 0.85366 0.44265 0.41392
 C333 C 0.85651 0.45075 0.44532
 C334 C 0.88823 0.47407 0.45829
 C335 C 0.91775 0.48966 0.44049
 C336 C 0.91575 0.48215 0.40956
 C337 C 0.84656 0.42031 0.31939
 C338 C 0.81475 0.39746 0.30630
 C339 C 0.78522 0.38167 0.32414
 C340 C 0.78728 0.38865 0.35519
 C341 C 0.91286 0.46606 0.34610
 C342 C 0.93924 0.47809 0.33172
 C343 C 0.79091 0.40228 0.41954
 C344 C 0.76662 0.38959 0.43657
 H345 H 0.83433 0.43928 0.46017
 H346 H 0.88989 0.48011 0.48229
 H347 H 0.94234 0.50772 0.45069
 H348 H 0.93944 0.49504 0.39666
 H349 H 0.86880 0.43201 0.30459
 H350 H 0.81300 0.39198 0.28219
 H351 H 0.76058 0.36393 0.31387
 H352 H 0.76363 0.37578 0.36816
 C353 C 0.59471 0.40331 1.09512
 C354 C 0.58996 0.39716 1.12676
 C355 C 0.57241 0.41199 1.14367
 C356 C 0.55966 0.43283 1.12883
 C357 C 0.56441 0.43897 1.09717
 C358 C 0.58203 0.42424 1.08029
 C359 C 0.58661 0.43097 1.04869
 C360 C 0.57423 0.45168 1.03423
 C361 C 0.55686 0.46592 1.05071
 C362 C 0.55193 0.45973 1.08182
 C363 C 0.56806 0.40556 1.17529
 C364 C 0.58067 0.38506 1.18979
 C365 C 0.59780 0.37055 1.17326
 C366 C 0.60246 0.37644 1.14209
 C367 C 0.54233 0.44865 1.14608
 C368 C 0.52838 0.46257 1.16000
 C369 C 0.61211 0.38782 1.07751
 C370 C 0.62582 0.37536 1.06148
 H371 H 0.59987 0.42043 1.03481
 H372 H 0.57814 0.45671 1.01009
 H373 H 0.54720 0.48191 1.03935
 H374 H 0.53827 0.47142 1.09364
 H375 H 0.55488 0.41625 1.18909
 H376 H 0.57714 0.38042 1.21400
 H377 H 0.60754 0.35465 1.18464
 H378 H 0.61597 0.36465 1.13017
 C379 C 0.82199 0.40107 1.09823
 C380 C 0.85484 0.41240 1.08512
 C381 C 0.88468 0.42710 1.10378
 C382 C 0.88152 0.43034 1.13545
 C383 C 0.84864 0.41843 1.14863
 C384 C 0.81877 0.40377 1.12996
 C385 C 0.78620 0.39216 1.14361
 C386 C 0.78320 0.39491 1.17485
 C387 C 0.81239 0.40923 1.19312
 C388 C 0.84482 0.42093 1.18028
 C389 C 0.91725 0.43840 1.09013
 C390 C 0.92022 0.43512 1.05896
 C391 C 0.89103 0.42064 1.04072
 C392 C 0.85867 0.40946 1.05350
 C393 C 0.91227 0.44708 1.15415
 C394 C 0.93832 0.46197 1.16892
 C395 C 0.79173 0.38669 1.07889
 C396 C 0.76754 0.37483 1.06175
 H397 H 0.76276 0.38082 1.13032
 H398 H 0.75807 0.38587 1.18494
 H399 H 0.80991 0.41128 1.21738
 H400 H 0.86678 0.43183 1.19540
 H401 H 0.94072 0.44974 1.10336
 H402 H 0.94531 0.44381 1.04892
 H403 H 0.89346 0.41801 1.01654
 H404 H 0.83677 0.39842 1.03832
 C405 C 0.61114 0.17953 1.10407
 C406 C 0.60545 0.18509 1.13474
 C407 C 0.59088 0.15548 1.15511
 C408 C 0.58209 0.12056 1.14463
 C409 C 0.58909 0.11525 1.11427
 C410 C 0.60368 0.14484 1.09392
 C411 C 0.61014 0.13883 1.06357
 C412 C 0.60242 0.10457 1.05365
 C413 C 0.58810 0.07561 1.07356
 C414 C 0.58144 0.08072 1.10354
 C415 C 0.58511 0.16155 1.18561
 C416 C 0.59355 0.19597 1.19571
 C417 C 0.60777 0.22494 1.17578
 C418 C 0.61369 0.21971 1.14560
 C419 C 0.56366 0.08970 1.16426
 C420 C 0.54694 0.06332 1.17942
 C421 C 0.62347 0.20901 1.08258
 C422 C 0.63315 0.23257 1.06387
 H423 H 0.62131 0.16050 1.04722
 H424 H 0.60762 0.10048 1.03040
 H425 H 0.58215 0.04903 1.06575
 H426 H 0.57039 0.05736 1.11818
 H427 H 0.57418 0.13985 1.20195
 H428 H 0.58903 0.20017 1.21914
 H429 H 0.61427 0.25161 1.18373
 H430 H 0.62486 0.24306 1.13093
 C431 C 0.40315 0.59398 1.09346
 C432 C 0.41174 0.56908 1.07979
 C433 C 0.42905 0.55420 1.09694
 C434 C 0.43763 0.56423 1.12768
 C435 C 0.42885 0.58894 1.14140
 C436 C 0.41159 0.60388 1.12422
 C437 C 0.40316 0.62858 1.13840
 C438 C 0.41149 0.63821 1.16871
 C439 C 0.42831 0.62357 1.18551
 C440 C 0.43697 0.59921 1.17212
 C441 C 0.43741 0.52943 1.08274
 C442 C 0.42884 0.51956 1.05252
 C443 C 0.41183 0.53401 1.03578
 C444 C 0.40340 0.55856 1.04910
 C445 C 0.45504 0.54867 1.14517
 C446 C 0.46907 0.53503 1.15932
 C447 C 0.38636 0.60983 1.07547
 C448 C 0.37311 0.62265 1.05928
 H449 H 0.39004 0.64063 1.12625
 H450 H 0.40485 0.65714 1.17921
 H451 H 0.43470 0.63112 1.20905
 H452 H 0.45007 0.58856 1.18610
 H453 H 0.45063 0.51743 1.09481
 H454 H 0.43541 0.50056 1.04204
 H455 H 0.40518 0.52622 1.01232
 H456 H 0.39024 0.56908 1.03508
 C457 C 0.17921 0.59934 1.09795
 C458 C 0.14630 0.57796 1.08487
 C459 C 0.11644 0.56342 1.10350
 C460 C 0.11965 0.57024 1.13512
 C461 C 0.15254 0.59158 1.14820
 C462 C 0.18243 0.60621 1.12954
 C463 C 0.21503 0.62745 1.14310
 C464 C 0.21805 0.63400 1.17424
 C465 C 0.18883 0.61965 1.19249
 C466 C 0.15638 0.59867 1.17973
 C467 C 0.08382 0.54212 1.08990
 C468 C 0.08081 0.53528 1.05882
 C469 C 0.11002 0.54939 1.04062
 C470 C 0.14243 0.57057 1.05334
 C471 C 0.08909 0.55444 1.15408
 C472 C 0.06308 0.54018 1.16895
 C473 C 0.20950 0.61444 1.07864
 C474 C 0.23363 0.62658 1.06143
 H475 H 0.23848 0.63914 1.12982
 H476 H 0.24319 0.65028 1.18425
 H477 H 0.19132 0.62480 1.21666
 H478 H 0.13439 0.58811 1.19482
 H479 H 0.06030 0.53051 1.10308
 H480 H 0.05567 0.51888 1.04882
 H481 H 0.10757 0.54386 1.01651
 H482 H 0.16435 0.58095 1.03819
 C483 C 0.39533 0.82159 1.10224
 C484 C 0.39482 0.81537 1.13384
 C485 C 0.40981 0.84498 1.15419
 C486 C 0.42520 0.88054 1.14278
 C487 C 0.42485 0.88673 1.11124
 C488 C 0.40988 0.85717 1.09090
 C489 C 0.41010 0.86403 1.05942
 C490 C 0.42471 0.89910 1.04839
 C491 C 0.43934 0.92803 1.06829
 C492 C 0.43949 0.92209 1.09937
 C493 C 0.40923 0.83819 1.18568
 C494 C 0.39420 0.80310 1.19675
 C495 C 0.37955 0.77413 1.17684
 C496 C 0.37980 0.78004 1.14571
 C497 C 0.44309 0.91088 1.16304
 C498 C 0.45935 0.93696 1.17866
 C499 C 0.38162 0.79165 1.08116
 C500 C 0.37080 0.76778 1.06270
 H501 H 0.39900 0.84244 1.04300
 H502 H 0.42468 0.90384 1.02427
 H503 H 0.45064 0.95524 1.05962
 H504 H 0.45112 0.94550 1.11392
 H505 H 0.42025 0.85988 1.20202
 H506 H 0.39392 0.79836 1.22091
 H507 H 0.36791 0.74693 1.18556
 H508 H 0.36807 0.75668 1.13109
 C509 C 0.60589 0.42682 0.60185
 C510 C 0.60723 0.42187 0.63349
 C511 C 0.59236 0.43649 0.65391
 C512 C 0.57628 0.45594 0.64252
 C513 C 0.57580 0.46175 0.61093
 C514 C 0.59064 0.44713 0.59052
 C515 C 0.58959 0.45304 0.55899
 C516 C 0.57430 0.47279 0.54797
 C517 C 0.55979 0.48710 0.56793
 C518 C 0.56046 0.48174 0.59906
 C519 C 0.59375 0.43102 0.68543
 C520 C 0.60947 0.41168 0.69648
 C521 C 0.62403 0.39738 0.67651
 C522 C 0.62297 0.40231 0.64534
 C523 C 0.55854 0.46840 0.66290
 C524 C 0.54236 0.47825 0.67853
 C525 C 0.61946 0.41054 0.58073
 C526 C 0.63013 0.39742 0.56223
 H527 H 0.60057 0.44252 0.54252
 H528 H 0.57369 0.47699 0.52381
 H529 H 0.54796 0.50245 0.55927
 H530 H 0.54890 0.49352 0.61365
 H531 H 0.58284 0.44172 0.70182
 H532 H 0.61037 0.40778 0.72067
 H533 H 0.63622 0.38239 0.68521
 H534 H 0.63466 0.39073 0.63067
 C535 C 0.59750 0.19213 0.59429
 C536 C 0.57030 0.18697 0.61408
 C537 C 0.55276 0.15450 0.63097
 C538 C 0.56252 0.12737 0.62799
 C539 C 0.59011 0.13280 0.60858
 C540 C 0.60765 0.16525 0.59170
 C541 C 0.63502 0.16993 0.57234
 C542 C 0.64480 0.14335 0.56973
 C543 C 0.62767 0.11163 0.58622
 C544 C 0.60063 0.10627 0.60545
 C545 C 0.52554 0.14990 0.65046
 C546 C 0.51590 0.17660 0.65319
 C547 C 0.53303 0.20832 0.63668
 C548 C 0.55994 0.21359 0.61731
 C549 C 0.54422 0.09382 0.64470
 C550 C 0.52964 0.06576 0.65837
 C551 C 0.61393 0.22416 0.57545
 C552 C 0.62699 0.24983 0.55875
 H553 H 0.64920 0.19417 0.55910
 H554 H 0.66581 0.14740 0.55484
 H555 H 0.63538 0.09106 0.58412
 H556 H 0.58813 0.08114 0.61780
 H557 H 0.51146 0.12569 0.66376
 H558 H 0.49501 0.17264 0.66820
 H559 H 0.52544 0.22897 0.63890
 H560 H 0.57254 0.23873 0.60498
 C561 C 0.82179 0.41966 0.59600
 C562 C 0.81904 0.42454 0.62745
 C563 C 0.84907 0.43953 0.64593
 C564 C 0.88164 0.44958 0.63280
 C565 C 0.88439 0.44470 0.60134
 C566 C 0.85438 0.42966 0.58289
 C567 C 0.85777 0.42488 0.55150
 C568 C 0.88987 0.43462 0.53874
 C569 C 0.91922 0.44943 0.55677
 C570 C 0.91668 0.45448 0.58771
 C571 C 0.84570 0.44404 0.67733
 C572 C 0.81356 0.43406 0.69013
 C573 C 0.78421 0.41945 0.67205
 C574 C 0.78676 0.41468 0.64105
 C575 C 0.91233 0.46421 0.65160
 C576 C 0.93834 0.47583 0.66647
 C577 C 0.79135 0.40475 0.57688
 C578 C 0.76705 0.39292 0.55987
 H579 H 0.83573 0.41350 0.53648
 H580 H 0.89196 0.43060 0.51475
 H581 H 0.94411 0.45701 0.54675
 H582 H 0.94028 0.46608 0.60076
 H583 H 0.86781 0.45531 0.69229
 H584 H 0.81143 0.43769 0.71419
 H585 H 0.75931 0.41175 0.68210
 H586 H 0.76322 0.40318 0.62791
 C587 C 0.39290 0.57092 0.60252
 C588 C 0.40589 0.54853 0.59121
 C589 C 0.42060 0.53363 0.61147
 C590 C 0.42224 0.54122 0.64290
 C591 C 0.40839 0.56276 0.65431
 C592 C 0.39366 0.57769 0.63404
 C593 C 0.38021 0.59940 0.64589
 C594 C 0.38126 0.60614 0.67693
 C595 C 0.39566 0.59154 0.69676
 C596 C 0.40913 0.57009 0.68570
 C597 C 0.43372 0.51157 0.59962
 C598 C 0.43234 0.50448 0.56864
 C599 C 0.41796 0.51907 0.54881
 C600 C 0.40483 0.54084 0.55983
 C601 C 0.43999 0.52849 0.66300
 C602 C 0.45611 0.51844 0.67849
 C603 C 0.37958 0.58753 0.58148
 C604 C 0.36907 0.60093 0.56310
 H605 H 0.36873 0.61130 0.63134
 H606 H 0.37083 0.62279 0.68564
 H607 H 0.39640 0.59685 0.72085
 H608 H 0.42002 0.55925 0.70198
 H609 H 0.44509 0.49951 0.61411
 H610 H 0.44249 0.48757 0.55997
 H611 H 0.41697 0.51351 0.52476
 H612 H 0.39386 0.55150 0.54348
 C613 C 0.40347 0.80910 0.59443
 C614 C 0.40902 0.80797 0.62595
 C615 C 0.42654 0.84054 0.64271
 C616 C 0.43846 0.87407 0.62784
 C617 C 0.43281 0.87519 0.59633
 C618 C 0.41520 0.84264 0.57960
 C619 C 0.40969 0.84451 0.54814
 C620 C 0.42114 0.87754 0.53368
 C621 C 0.43851 0.90934 0.55000
 C622 C 0.44435 0.90834 0.58096
 C623 C 0.43168 0.83871 0.67422
 C624 C 0.41987 0.80566 0.68875
 C625 C 0.40280 0.77384 0.67235
 C626 C 0.39738 0.77483 0.64130
 C627 C 0.45596 0.90741 0.64495
 C628 C 0.47004 0.93534 0.65886
 C629 C 0.38631 0.77602 0.57694
 C630 C 0.37280 0.74965 0.56104
 H631 H 0.39638 0.82056 0.53439
 H632 H 0.41652 0.87845 0.50966
 H633 H 0.44746 0.93492 0.53863
 H634 H 0.45796 0.93383 0.59267
 H635 H 0.44485 0.86273 0.68792
 H636 H 0.42399 0.80474 0.71287
 H637 H 0.39369 0.74825 0.68375
 H638 H 0.38392 0.74939 0.62950
 C639 C 0.17859 0.57530 0.59938
 C640 C 0.14734 0.54705 0.58798
 C641 C 0.11739 0.53180 0.60652
 C642 C 0.11886 0.54485 0.63634
 C643 C 0.15033 0.57237 0.64804
 C644 C 0.18029 0.58767 0.62948
 C645 C 0.21139 0.61533 0.64156
 C646 C 0.21288 0.62749 0.67118
 C647 C 0.18360 0.61251 0.68935
 C648 C 0.15260 0.58527 0.67802
 C649 C 0.08640 0.50377 0.59456
 C650 C 0.08506 0.49108 0.56516
 C651 C 0.11436 0.50593 0.54705
 C652 C 0.14518 0.53364 0.55817
 C653 C 0.08763 0.53114 0.65434
 C654 C 0.06125 0.52034 0.66858
 C655 C 0.20862 0.59187 0.57979
 C656 C 0.23264 0.60477 0.56248
 H657 H 0.23484 0.62775 0.62830
 H658 H 0.23689 0.64865 0.68009
 H659 H 0.18490 0.62204 0.71235
 H660 H 0.13053 0.57438 0.69302
 H661 H 0.06294 0.49127 0.60780
 H662 H 0.06117 0.46957 0.55641
 H663 H 0.11321 0.49591 0.52426
 H664 H 0.16724 0.54430 0.54318
 C665 C 0.41071 0.60237 0.90515
 C666 C 0.40678 0.59865 0.87328
 C667 C 0.42368 0.58289 0.85671
 C668 C 0.44436 0.57090 0.87215
 C669 C 0.44882 0.57525 0.90396
 C670 C 0.43199 0.59107 0.92051
 C671 C 0.43686 0.59512 0.95233
 C672 C 0.45779 0.58394 0.96731
 C673 C 0.47412 0.56833 0.95112
 C674 C 0.46977 0.56395 0.91981
 C675 C 0.41930 0.57935 0.82485
 C676 C 0.39882 0.59107 0.80980
 C677 C 0.38228 0.60647 0.82602
 C678 C 0.38611 0.61027 0.85741
 C679 C 0.46016 0.55309 0.85551
 C680 C 0.47270 0.53758 0.84191
 C681 C 0.39263 0.61725 0.92246
 C682 C 0.37825 0.62908 0.93830
 H683 H 0.42468 0.60705 0.96598
 H684 H 0.46137 0.58745 0.99160
 H685 H 0.49029 0.55962 0.96287
 H686 H 0.48310 0.55175 0.90821
 H687 H 0.43169 0.56759 0.81126
 H688 H 0.39578 0.58820 0.78542
 H689 H 0.36641 0.61553 0.81422
 H690 H 0.37278 0.62244 0.86907
 C691 C 0.17901 0.59798 0.90120
 C692 C 0.18159 0.59245 0.86985
 C693 C 0.15172 0.57874 0.85121
 C694 C 0.11947 0.57059 0.86408
 C695 C 0.11700 0.57667 0.89535
 C696 C 0.14685 0.59042 0.91396
 C697 C 0.14370 0.59627 0.94518
 C698 C 0.11202 0.58882 0.95759
 C699 C 0.08282 0.57528 0.93940
 C700 C 0.08511 0.56919 0.90863
 C701 C 0.15490 0.57341 0.81993
 C702 C 0.18671 0.58142 0.80741
 C703 C 0.21590 0.59478 0.82564
 C704 C 0.21352 0.60027 0.85653
 C705 C 0.08858 0.55472 0.84554
 C706 C 0.06240 0.54059 0.83088
 C707 C 0.20924 0.61150 0.92053
 C708 C 0.23333 0.62290 0.93775
 H709 H 0.16564 0.60673 0.96031
 H710 H 0.11013 0.59364 0.98146
 H711 H 0.05825 0.56950 0.94916
 H712 H 0.06167 0.55872 0.89541
 H713 H 0.13292 0.56313 0.80485
 H714 H 0.18870 0.57724 0.78342
 H715 H 0.24053 0.60094 0.81580
 H716 H 0.23693 0.61073 0.86981
 C717 C 0.38952 0.82197 0.89661
 C718 C 0.39440 0.81615 0.86578
 C719 C 0.40981 0.84579 0.84547
 C720 C 0.42026 0.88104 0.85613
 C721 C 0.41428 0.88671 0.88670
 C722 C 0.39886 0.85709 0.90700
 C723 C 0.39343 0.86349 0.93754
 C724 C 0.40294 0.89813 0.94771
 C725 C 0.41806 0.92710 0.92787
 C726 C 0.42374 0.92162 0.89770
 C727 C 0.41472 0.83939 0.81482
 C728 C 0.40465 0.80466 0.80451
 C729 C 0.38959 0.77567 0.82438
 C730 C 0.38449 0.78120 0.85470
 C731 C 0.43911 0.91176 0.83635
 C732 C 0.45609 0.93802 0.82108
 C733 C 0.37607 0.79224 0.91797
 C734 C 0.36555 0.76840 0.93650
 H735 H 0.38172 0.84184 0.95386
 H736 H 0.39853 0.90251 0.97111
 H737 H 0.42541 0.95396 0.93587
 H738 H 0.43549 0.94501 0.88312
 H739 H 0.42625 0.86110 0.79853
 H740 H 0.40854 0.80022 0.78098
 H741 H 0.38182 0.74875 0.81626
 H742 H 0.37263 0.75783 0.86930
 C743 C 0.58653 0.39408 0.90644
 C744 C 0.59351 0.40105 0.87510
 C745 C 0.57642 0.41631 0.85812
 C746 C 0.55252 0.42456 0.87263
 C747 C 0.54491 0.41675 0.90380
 C748 C 0.56192 0.40142 0.92075
 C749 C 0.55390 0.39391 0.95193
 C750 C 0.52972 0.40123 0.96589
 C751 C 0.51320 0.41637 0.94932
 C752 C 0.52061 0.42411 0.91864
 C753 C 0.58390 0.42317 0.82683
 C754 C 0.60755 0.41515 0.81271
 C755 C 0.62427 0.40025 0.82933
 C756 C 0.61744 0.39324 0.86019
 C757 C 0.53672 0.44225 0.85580
 C758 C 0.52424 0.45773 0.84206
 C759 C 0.60504 0.38014 0.92430
 C760 C 0.61981 0.36901 0.94041
 H761 H 0.56609 0.38220 0.96583
 H762 H 0.52379 0.39516 0.98970
 H763 H 0.49449 0.42209 0.96030
 H764 H 0.50700 0.43577 0.90669
 H765 H 0.57150 0.43468 0.81295
 H766 H 0.61293 0.42051 0.78875
 H767 H 0.64262 0.39406 0.81826
 H768 H 0.63103 0.38159 0.87218
 C769 C 0.82055 0.40932 0.90159
 C770 C 0.81743 0.40213 0.87005
 C771 C 0.84736 0.41668 0.85145
 C772 C 0.88021 0.43828 0.86453
 C773 C 0.88328 0.44573 0.89605
 C774 C 0.85337 0.43126 0.91461
 C775 C 0.85712 0.43919 0.94605
 C776 C 0.88945 0.46083 0.95874
 C777 C 0.91871 0.47489 0.94060
 C778 C 0.91583 0.46751 0.90962
 C779 C 0.84363 0.40918 0.81998
 C780 C 0.81123 0.38789 0.80723
 C781 C 0.78198 0.37363 0.82543
 C782 C 0.78489 0.38057 0.85650
 C783 C 0.91090 0.45330 0.84572
 C784 C 0.93700 0.46670 0.83092
 C785 C 0.79032 0.39355 0.92097
 C786 C 0.76629 0.38059 0.93826
 H787 H 0.83516 0.42891 0.96115
 H788 H 0.89180 0.46677 0.98278
 H789 H 0.94378 0.49165 0.95057
 H790 H 0.93937 0.47910 0.89647
 H791 H 0.86565 0.41966 0.80493
 H792 H 0.80882 0.38244 0.78311
 H793 H 0.75687 0.35712 0.81541
 H794 H 0.76141 0.36894 0.86974
 C795 C 0.61093 0.17765 0.89823
 C796 C 0.61073 0.18377 0.86667
 C797 C 0.59510 0.15411 0.84639
 C798 C 0.57980 0.11854 0.85780
 C799 C 0.58096 0.11244 0.88927
 C800 C 0.59656 0.14207 0.90954
 C801 C 0.59709 0.13526 0.94094
 C802 C 0.58262 0.10020 0.95199
 C803 C 0.56737 0.07123 0.93217
 C804 C 0.56648 0.07711 0.90116
 C805 C 0.59491 0.16086 0.81497
 C806 C 0.60980 0.19593 0.80388
 C807 C 0.62510 0.22493 0.82370
 C808 C 0.62561 0.21908 0.85477
 C809 C 0.56117 0.08815 0.83764
 C810 C 0.54431 0.06212 0.82209
 C811 C 0.62482 0.20769 0.91929
 C812 C 0.63555 0.23178 0.93760
 H813 H 0.60870 0.15688 0.95729
 H814 H 0.58323 0.09549 0.97606
 H815 H 0.55618 0.04404 0.94086
 H816 H 0.55439 0.05367 0.88667
 H817 H 0.58337 0.13914 0.79869
 H818 H 0.60948 0.20063 0.77977
 H819 H 0.63664 0.25212 0.81497
 H820 H 0.63784 0.24247 0.86931
   
