data_POSCAR
  _audit_creation_date              2014-09-24
  _audit_creation_method            'ToBaCCo'
  _symmetry_space_group_name_H-M    'P1'
  _symmetry_Int_Tables_number       1
  _symmetry_cell_setting            triclinic
  loop_
  _symmetry_equiv_pos_as_xyz
 x,y,z
_cell_length_a 59.4203
_cell_length_b 56.5536
_cell_length_c 57.3886
_cell_angle_alpha 90.125500
_cell_angle_beta 88.663000
_cell_angle_gamma 90.016100
loop_
  _atom_site_label
  _atom_site_type_symbol
  _atom_site_fract_x
  _atom_site_fract_y
  _atom_site_fract_z
N1 N 0.59552 0.65498 0.61061
 N2 N 0.58662 0.64536 0.62949
 C3 C 0.56754 0.65698 0.63540
 C4 C 0.56425 0.67482 0.61931
 C5 C 0.58238 0.67295 0.60380
 H6 H 0.55686 0.65279 0.65032
 H7 H 0.58609 0.68418 0.58900
 Cu8 Cu 0.60101 0.61890 0.64484
 Cu9 Cu 0.62398 0.64425 0.59687
 Cu10 Cu 0.65141 0.59901 0.62532
 N11 N 0.61668 0.59347 0.66050
 N12 N 0.63649 0.58604 0.65302
 C13 C 0.64345 0.56848 0.66689
 C14 C 0.62706 0.56449 0.68411
 C15 C 0.61031 0.58085 0.67939
 H16 H 0.65917 0.55916 0.66426
 H17 H 0.59461 0.58346 0.68889
 N18 N 0.66372 0.61429 0.59694
 N19 N 0.65298 0.63106 0.58576
 C20 C 0.66526 0.63730 0.56673
 C21 C 0.68474 0.62390 0.56594
 C22 C 0.68320 0.60953 0.58540
 H23 H 0.66055 0.65082 0.55450
 H24 H 0.69521 0.59628 0.59051
 H25 H 0.62251 0.60990 0.60917
 H26 H 0.63680 0.63216 0.62786
 N27 N 0.90150 0.34196 0.10890
 N28 N 0.91342 0.35548 0.12257
 C29 C 0.93250 0.34415 0.12794
 C30 C 0.93263 0.32212 0.11714
 C31 C 0.91251 0.32146 0.10523
 H32 H 0.94508 0.35142 0.13921
 H33 H 0.90639 0.30737 0.09432
 Cu34 Cu 0.90287 0.38643 0.13261
 Cu35 Cu 0.87309 0.35246 0.09613
 Cu36 Cu 0.85056 0.40394 0.11933
 N37 N 0.88785 0.41214 0.14919
 N38 N 0.86742 0.41888 0.14403
 C39 C 0.86103 0.43661 0.15838
 C40 C 0.87840 0.44128 0.17346
 C41 C 0.89518 0.42534 0.16703
 H42 H 0.84490 0.44538 0.15783
 H43 H 0.91136 0.42313 0.17496
 N44 N 0.83622 0.38608 0.09421
 N45 N 0.84465 0.36628 0.08551
 C46 C 0.83131 0.35855 0.06843
 C47 C 0.81363 0.37430 0.06619
 C48 C 0.81733 0.39150 0.08288
 H49 H 0.83458 0.34297 0.05796
 H50 H 0.80709 0.40692 0.08648
 H51 H 0.87695 0.38855 0.10040
 H52 H 0.86529 0.37155 0.12597
 N53 N 0.40219 0.15890 -0.11310
 N54 N 0.41154 0.14880 -0.13156
 C55 C 0.43043 0.16067 -0.13760
 C56 C 0.43314 0.17917 -0.12204
 C57 C 0.41485 0.17744 -0.10672
 H58 H 0.44151 0.15605 -0.15210
 H59 H 0.41086 0.18898 -0.09216
 Cu60 Cu 0.39816 0.12107 -0.14585
 Cu61 Cu 0.37421 0.14743 -0.09885
 Cu62 Cu 0.34941 0.09876 -0.12461
 N63 N 0.38373 0.09408 -0.16039
 N64 N 0.36463 0.08554 -0.15207
 C65 C 0.35830 0.06717 -0.16533
 C66 C 0.37432 0.06392 -0.18298
 C67 C 0.39023 0.08137 -0.17925
 H68 H 0.34326 0.05681 -0.16218
 H69 H 0.40529 0.08473 -0.18964
 N70 N 0.33657 0.11458 -0.09672
 N71 N 0.34591 0.13322 -0.08701
 C72 C 0.33313 0.13998 -0.06847
 C73 C 0.31489 0.12484 -0.06633
 C74 C 0.31767 0.10896 -0.08457
 H75 H 0.33699 0.15467 -0.05717
 H76 H 0.30660 0.09449 -0.08882
 H77 H 0.37773 0.11266 -0.10944
 H78 H 0.36180 0.13269 -0.12895
 N79 N 0.09897 0.84185 0.39055
 N80 N 0.08694 0.85525 0.37695
 C81 C 0.06788 0.84380 0.37165
 C82 C 0.06790 0.82181 0.38244
 C83 C 0.08806 0.82130 0.39426
 H84 H 0.05521 0.85097 0.36046
 H85 H 0.09428 0.80731 0.40516
 Cu86 Cu 0.09732 0.88624 0.36693
 Cu87 Cu 0.12733 0.85257 0.40328
 Cu88 Cu 0.14956 0.90415 0.38022
 N89 N 0.11219 0.91202 0.35040
 N90 N 0.13258 0.91891 0.35557
 C91 C 0.13887 0.93662 0.34123
 C92 C 0.12149 0.94111 0.32615
 C93 C 0.10480 0.92510 0.33256
 H94 H 0.15496 0.94550 0.34178
 H95 H 0.08864 0.92274 0.32461
 N96 N 0.16402 0.88643 0.40528
 N97 N 0.15570 0.86657 0.41390
 C98 C 0.16911 0.85891 0.43090
 C99 C 0.18673 0.87475 0.43318
 C100 C 0.18291 0.89195 0.41660
 H101 H 0.16594 0.84329 0.44129
 H102 H 0.19308 0.90743 0.41305
 H103 H 0.12326 0.88864 0.39910
 H104 H 0.13501 0.87168 0.37348
 C105 C 0.10336 0.14587 0.12352
 C106 C 0.12096 0.14594 0.10678
 C107 C 0.13786 0.12860 0.10708
 C108 C 0.13719 0.11132 0.12463
 C109 C 0.11986 0.11117 0.14171
 C110 C 0.10286 0.12839 0.14086
 H111 H 0.12114 0.15913 0.09311
 H112 H 0.15027 0.09800 0.12504
 H113 H 0.08961 0.12869 0.15415
 C114 C 0.39199 0.85165 0.62040
 C115 C 0.39178 0.86918 0.63778
 C116 C 0.37532 0.88701 0.63819
 C117 C 0.35894 0.88716 0.62094
 C118 C 0.35888 0.86978 0.60342
 C119 C 0.37548 0.85209 0.60329
 H120 H 0.40446 0.86894 0.65104
 H121 H 0.34619 0.90085 0.62115
 H122 H 0.37554 0.83863 0.58983
 C123 C 0.89704 0.64554 0.37750
 C124 C 0.87944 0.64556 0.39424
 C125 C 0.86206 0.62881 0.39326
 C126 C 0.86233 0.61202 0.37520
 C127 C 0.87986 0.61168 0.35833
 C128 C 0.89724 0.62846 0.35972
 H129 H 0.87924 0.65870 0.40802
 H130 H 0.84914 0.59881 0.37463
 H131 H 0.91056 0.62874 0.34650
 C132 C 0.60845 0.35277 -0.12159
 C133 C 0.62498 0.35285 -0.10449
 C134 C 0.64184 0.37027 -0.10449
 C135 C 0.64206 0.38770 -0.12190
 C136 C 0.62564 0.38792 -0.13910
 C137 C 0.60891 0.37039 -0.13881
 H138 H 0.62470 0.33935 -0.09112
 H139 H 0.65502 0.40118 -0.12203
 H140 H 0.59618 0.37047 -0.15203
 C141 C -0.01669 0.26923 0.11945
 C142 C -0.01323 0.29155 0.12947
 C143 C -0.02996 0.30888 0.12891
 C144 C -0.05057 0.30450 0.11797
 C145 C -0.05388 0.28206 0.10784
 C146 C -0.03724 0.26463 0.10874
 C147 C 0.00106 0.25089 0.12011
 N148 N -0.00390 0.22779 0.11621
 N149 N 0.01209 0.21130 0.11685
 C150 C 0.03373 0.21726 0.12125
 N151 N 0.03870 0.24036 0.12508
 N152 N 0.02269 0.25682 0.12459
 C153 C 0.05154 0.19897 0.12184
 C154 C 0.07438 0.20537 0.11998
 C155 C 0.09119 0.18810 0.12036
 C156 C 0.08552 0.16413 0.12296
 C157 C 0.06273 0.15772 0.12500
 C158 C 0.04590 0.17494 0.12428
 H159 H 0.00241 0.29563 0.13794
 H160 H -0.02640 0.32578 0.13685
 H161 H -0.06938 0.27761 0.09937
 H162 H -0.04041 0.24760 0.10079
 H163 H 0.07927 0.22371 0.11802
 H164 H 0.10865 0.19350 0.11892
 H165 H 0.05795 0.13932 0.12686
 H166 H 0.02847 0.16945 0.12583
 C167 C 0.51116 0.72682 0.61909
 C168 C 0.52464 0.72280 0.59901
 C169 C 0.54179 0.70589 0.59907
 C170 C 0.54582 0.69251 0.61916
 C171 C 0.53221 0.69639 0.63916
 C172 C 0.51513 0.71337 0.63914
 C173 C 0.49322 0.74505 0.61917
 N174 N 0.48137 0.75028 0.63905
 N175 N 0.46541 0.76681 0.63919
 C176 C 0.46057 0.77881 0.61945
 N177 N 0.47238 0.77354 0.59956
 N178 N 0.48837 0.75704 0.59942
 C179 C 0.44290 0.79734 0.61966
 C180 C 0.43684 0.80859 0.59889
 C181 C 0.42027 0.82613 0.59913
 C182 C 0.40946 0.83290 0.62013
 C183 C 0.41549 0.82167 0.64088
 C184 C 0.43198 0.80405 0.64065
 H185 H 0.52205 0.73281 0.58324
 H186 H 0.55177 0.70324 0.58327
 H187 H 0.53491 0.68658 0.65501
 H188 H 0.50507 0.71597 0.65492
 H189 H 0.44490 0.80389 0.58242
 H190 H 0.41614 0.83466 0.58290
 H191 H 0.40725 0.82633 0.65728
 H192 H 0.43620 0.79576 0.65696
 C193 C 1.01733 0.76874 0.38066
 C194 C 1.01374 0.79098 0.37060
 C195 C 1.03045 0.80836 0.37096
 C196 C 1.05115 0.80412 0.38174
 C197 C 1.05460 0.78174 0.39187
 C198 C 1.03798 0.76427 0.39117
 C199 C 0.99957 0.75038 0.38026
 N200 N 1.00458 0.72731 0.38415
 N201 N 0.98858 0.71081 0.38377
 C202 C 0.96688 0.71673 0.37964
 N203 N 0.96187 0.73981 0.37582
 N204 N 0.97789 0.75628 0.37605
 C205 C 0.94905 0.69844 0.37928
 C206 C 0.92625 0.70489 0.38143
 C207 C 0.90940 0.68767 0.38111
 C208 C 0.91497 0.66369 0.37830
 C209 C 0.93773 0.65721 0.37603
 C210 C 0.95462 0.67440 0.37671
 H211 H 0.99802 0.79496 0.36227
 H212 H 1.02679 0.82519 0.36302
 H213 H 1.07018 0.77740 0.40021
 H214 H 1.04124 0.74731 0.39913
 H215 H 0.92141 0.72324 0.38352
 H216 H 0.89195 0.69311 0.38269
 H217 H 0.94244 0.63881 0.37398
 H218 H 0.97203 0.66888 0.37494
 C219 C 0.48653 0.23085 -0.12158
 C220 C 0.47261 0.22739 -0.10173
 C221 C 0.45528 0.21067 -0.10190
 C222 C 0.45152 0.19693 -0.12187
 C223 C 0.46549 0.20033 -0.14168
 C224 C 0.48274 0.21712 -0.14156
 C225 C 0.50482 0.24870 -0.12147
 N226 N 0.51703 0.25352 -0.14121
 N227 N 0.53338 0.26963 -0.14116
 C228 C 0.53827 0.28160 -0.12136
 N229 N 0.52610 0.27676 -0.10162
 N230 N 0.50972 0.26067 -0.10167
 C231 C 0.55639 0.29964 -0.12136
 C232 C 0.56267 0.31065 -0.10049
 C233 C 0.57965 0.32777 -0.10055
 C234 C 0.59065 0.33435 -0.12147
 C235 C 0.58443 0.32334 -0.14232
 C236 C 0.56754 0.30615 -0.14227
 H237 H 0.47504 0.23764 -0.08603
 H238 H 0.44501 0.20840 -0.08625
 H239 H 0.46298 0.19023 -0.15744
 H240 H 0.49312 0.21931 -0.15716
 H241 H 0.55445 0.30609 -0.08408
 H242 H 0.58393 0.33614 -0.08425
 H243 H 0.59280 0.32788 -0.15867
 H244 H 0.56317 0.29803 -0.15866
 C245 C 0.12044 -0.00765 0.27054
 C246 C 0.10059 -0.01926 0.27785
 C247 C 0.10091 -0.03584 0.29588
 C248 C 0.12108 -0.04120 0.30707
 C249 C 0.14091 -0.02953 0.29977
 C250 C 0.14059 -0.01299 0.28174
 C251 C 0.12020 0.00990 0.25137
 N252 N 0.13947 0.02084 0.24416
 N253 N 0.13932 0.03659 0.22695
 C254 C 0.11990 0.04209 0.21619
 N255 N 0.10061 0.03115 0.22339
 N256 N 0.10076 0.01538 0.24061
 C257 C 0.11981 0.05968 0.19705
 C258 C 0.09968 0.06567 0.18607
 C259 C 0.09967 0.08234 0.16810
 C260 C 0.11979 0.09334 0.16067
 C261 C 0.13990 0.08733 0.17162
 C262 C 0.13991 0.07071 0.18958
 H263 H 0.08475 -0.01556 0.26965
 H264 H 0.08526 -0.04430 0.30110
 H265 H 0.15681 -0.03327 0.30778
 H266 H 0.15622 -0.00442 0.27658
 H267 H 0.08389 0.05750 0.19133
 H268 H 0.08395 0.08643 0.15983
 H269 H 0.15562 0.09576 0.16652
 H270 H 0.15572 0.06660 0.19766
 C271 C 0.62721 0.51271 -0.26227
 C272 C 0.64590 0.51540 -0.27745
 C273 C 0.64589 0.53244 -0.29505
 C274 C 0.62720 0.54743 -0.29793
 C275 C 0.60857 0.54478 -0.28246
 C276 C 0.60857 0.52763 -0.26497
 C277 C 0.62707 0.49437 -0.24383
 N278 N 0.60810 0.48989 -0.23092
 N279 N 0.60791 0.47328 -0.21450
 C280 C 0.62670 0.46047 -0.21023
 N281 N 0.64569 0.46498 -0.22310
 N282 N 0.64586 0.48155 -0.23957
 C283 C 0.62645 0.44193 -0.19199
 C284 C 0.64646 0.43050 -0.18581
 C285 C 0.64621 0.41304 -0.16861
 C286 C 0.62593 0.40650 -0.15731
 C287 C 0.60592 0.41785 -0.16349
 C288 C 0.60618 0.43542 -0.18059
 H289 H 0.66056 0.50420 -0.27588
 H290 H 0.66070 0.53370 -0.30627
 H291 H 0.59375 0.55571 -0.28378
 H292 H 0.59389 0.52611 -0.25353
 H293 H 0.66237 0.43506 -0.19423
 H294 H 0.66184 0.40441 -0.16435
 H295 H 0.59009 0.41334 -0.15489
 H296 H 0.59046 0.44384 -0.18490
 C297 C 0.37463 1.01093 0.76281
 C298 C 0.39428 1.02367 0.76770
 C299 C 0.39417 1.04090 0.78522
 C300 C 0.37443 1.04574 0.79833
 C301 C 0.35477 1.03300 0.79343
 C302 C 0.35486 1.01584 0.77586
 C303 C 0.37473 0.99262 0.74425
 N304 N 0.35548 0.98123 0.73861
 N305 N 0.35557 0.96476 0.72198
 C306 C 0.37493 0.95894 0.71029
 N307 N 0.39419 0.97033 0.71593
 N308 N 0.39409 0.98682 0.73254
 C309 C 0.37504 0.94055 0.69181
 C310 C 0.39531 0.93354 0.68071
 C311 C 0.39541 0.91616 0.66336
 C312 C 0.37522 0.90545 0.65664
 C313 C 0.35495 0.91247 0.66767
 C314 C 0.35485 0.92979 0.68508
 H315 H 0.40982 1.02036 0.75801
 H316 H 0.40967 1.05019 0.78860
 H317 H 0.33920 1.03637 0.80299
 H318 H 0.33940 1.00640 0.77257
 H319 H 0.41117 0.94146 0.68542
 H320 H 0.41126 0.91129 0.65498
 H321 H 0.33917 0.90433 0.66304
 H322 H 0.33893 0.93472 0.69326
 C323 C 0.87927 0.49285 0.22900
 C324 C 0.89913 0.48118 0.22179
 C325 C 0.89887 0.46450 0.20378
 C326 C 0.87874 0.45908 0.19252
 C327 C 0.85889 0.47079 0.19972
 C328 C 0.85915 0.48745 0.21772
 C329 C 0.87947 0.51049 0.24816
 N330 N 0.86022 0.52160 0.25523
 N331 N 0.86035 0.53741 0.27245
 C332 C 0.87973 0.54280 0.28338
 N333 N 0.89899 0.53170 0.27632
 N334 N 0.89886 0.51588 0.25908
 C335 C 0.87981 0.56041 0.30258
 C336 C 0.89989 0.56612 0.31381
 C337 C 0.89992 0.58274 0.33189
 C338 C 0.87987 0.59400 0.33917
 C339 C 0.85981 0.58830 0.32795
 C340 C 0.85978 0.57172 0.30987
 H341 H 0.91495 0.48492 0.23004
 H342 H 0.91453 0.45601 0.19864
 H343 H 0.84302 0.46702 0.19165
 H344 H 0.84352 0.49605 0.22282
 H345 H 0.91562 0.55773 0.30869
 H346 H 0.91560 0.58656 0.34038
 H347 H 0.84415 0.59692 0.33295
 H348 H 0.84401 0.56783 0.30159
 C349 C 0.26140 0.12637 -0.01424
 C350 C 0.26547 0.10594 -0.02768
 C351 C 0.28276 0.10547 -0.04459
 C352 C 0.29649 0.12539 -0.04842
 C353 C 0.29247 0.14582 -0.03496
 C354 C 0.27509 0.14632 -0.01811
 C355 C 0.24302 0.12682 0.00369
 N356 N 0.23771 0.14709 0.01532
 N357 N 0.22120 0.14746 0.03143
 C358 C 0.20932 0.12755 0.03663
 N359 N 0.21465 0.10729 0.02502
 N360 N 0.23112 0.10694 0.00888
 C361 C 0.19099 0.12789 0.05462
 C362 C 0.18019 0.10680 0.06147
 C363 C 0.16300 0.10705 0.07849
 C364 C 0.15612 0.12840 0.08899
 C365 C 0.16680 0.14950 0.08211
 C366 C 0.18409 0.14925 0.06516
 H367 H 0.25527 0.09024 -0.02517
 H368 H 0.28548 0.08936 -0.05445
 H369 H 0.30257 0.16155 -0.03755
 H370 H 0.27245 0.16237 -0.00809
 H371 H 0.18504 0.09003 0.05372
 H372 H 0.15488 0.09055 0.08325
 H373 H 0.16198 0.16618 0.09007
 H374 H 0.19202 0.16582 0.06032
 C375 C 0.73823 0.62605 0.51401
 C376 C 0.74220 0.61743 0.53650
 C377 C 0.72481 0.61662 0.55331
 C378 C 0.70314 0.62468 0.54810
 C379 C 0.69920 0.63345 0.52568
 C380 C 0.71652 0.63400 0.50878
 C381 C 0.75660 0.62670 0.49611
 N382 N 0.75202 0.63018 0.47330
 N383 N 0.76852 0.63063 0.45719
 C384 C 0.79031 0.62774 0.46323
 N385 N 0.79490 0.62434 0.48605
 N386 N 0.77839 0.62377 0.50215
 C387 C 0.80866 0.62820 0.44530
 C388 C 0.83125 0.63027 0.45182
 C389 C 0.84856 0.63068 0.43491
 C390 C 0.84367 0.62875 0.41116
 C391 C 0.82114 0.62661 0.40461
 C392 C 0.80380 0.62648 0.42150
 H393 H 0.75871 0.61113 0.54109
 H394 H 0.72845 0.60995 0.57048
 H395 H 0.68266 0.63960 0.52104
 H396 H 0.71290 0.64080 0.49164
 H397 H 0.83557 0.63169 0.46999
 H398 H 0.86581 0.63214 0.44041
 H399 H 0.81693 0.62529 0.38640
 H400 H 0.78660 0.62482 0.41589
 C401 C 0.76066 0.37214 0.01607
 C402 C 0.76514 0.39299 0.02851
 C403 C 0.78219 0.39362 0.04485
 C404 C 0.79526 0.37345 0.04912
 C405 C 0.79074 0.35256 0.03675
 C406 C 0.77362 0.35190 0.02045
 C407 C 0.74274 0.37164 -0.00149
 N408 N 0.73748 0.35127 -0.01272
 N409 N 0.72150 0.35092 -0.02863
 C410 C 0.71012 0.37094 -0.03401
 N411 N 0.71536 0.39129 -0.02276
 N412 N 0.73131 0.39163 -0.00684
 C413 C 0.69248 0.37067 -0.05189
 C414 C 0.68195 0.39178 -0.05857
 C415 C 0.66553 0.39162 -0.07560
 C416 C 0.65918 0.37035 -0.08628
 C417 C 0.66957 0.34921 -0.07953
 C418 C 0.68607 0.34937 -0.06256
 H419 H 0.75551 0.40892 0.02561
 H420 H 0.78526 0.41008 0.05386
 H421 H 0.80031 0.33662 0.03971
 H422 H 0.77062 0.33553 0.01121
 H423 H 0.68642 0.40851 -0.05071
 H424 H 0.65761 0.40814 -0.08024
 H425 H 0.66517 0.33259 -0.08764
 H426 H 0.69383 0.33279 -0.05785
 C427 C 0.23981 0.87258 0.48315
 C428 C 0.23528 0.89346 0.47088
 C429 C 0.21819 0.89411 0.45457
 C430 C 0.20515 0.87391 0.45019
 C431 C 0.20974 0.85300 0.46238
 C432 C 0.22689 0.85233 0.47864
 C433 C 0.25776 0.87203 0.50068
 N434 N 0.26298 0.85162 0.51177
 N435 N 0.27897 0.85119 0.52765
 C436 C 0.29042 0.87116 0.53316
 N437 N 0.28522 0.89155 0.52205
 N438 N 0.26925 0.89198 0.50615
 C439 C 0.30808 0.87075 0.55100
 C440 C 0.31882 0.89176 0.55774
 C441 C 0.33530 0.89143 0.57472
 C442 C 0.34147 0.87009 0.58529
 C443 C 0.33084 0.84906 0.57849
 C444 C 0.31430 0.84939 0.56157
 H445 H 0.24489 0.90941 0.47390
 H446 H 0.21506 0.91059 0.44569
 H447 H 0.20021 0.83704 0.45932
 H448 H 0.22993 0.83592 0.48773
 H449 H 0.31449 0.90852 0.54996
 H450 H 0.34340 0.90786 0.57941
 H451 H 0.33509 0.83239 0.58652
 H452 H 0.30638 0.83288 0.55683
   
