data_POSCAR
  _audit_creation_date              2014-09-24
  _audit_creation_method            'ToBaCCo'
  _symmetry_space_group_name_H-M    'P1'
  _symmetry_Int_Tables_number       1
  _symmetry_cell_setting            triclinic
  loop_
  _symmetry_equiv_pos_as_xyz
 x,y,z
_cell_length_a 41.5475
_cell_length_b 42.1556
_cell_length_c 13.7911
_cell_angle_alpha 89.709700
_cell_angle_beta 90.499800
_cell_angle_gamma 119.688200
loop_
  _atom_site_label
  _atom_site_type_symbol
  _atom_site_fract_x
  _atom_site_fract_y
  _atom_site_fract_z
C1 C 0.22646 0.44663 0.54054
 C2 C 0.22675 0.44630 0.44193
 C3 C 0.19612 0.44532 0.38408
 C4 C 0.25951 0.45165 0.38650
 C5 C 0.25819 0.44991 0.59859
 C6 C 0.19610 0.44775 0.59362
 C7 C 0.15943 0.41706 0.39429
 C8 C 0.13081 0.41813 0.34296
 C9 C 0.13834 0.44716 0.27898
 C10 C 0.17571 0.47501 0.26805
 C11 C 0.20397 0.47391 0.31981
 C12 C 0.25697 0.42337 0.32818
 C13 C 0.28707 0.42865 0.27210
 C14 C 0.31971 0.46267 0.27060
 C15 C 0.32210 0.49121 0.32817
 C16 C 0.29225 0.48563 0.38622
 C17 C 0.27557 0.47815 0.66658
 C18 C 0.30719 0.48336 0.71651
 C19 C 0.32224 0.46045 0.69886
 C20 C 0.30377 0.43124 0.63380
 C21 C 0.27197 0.42590 0.58446
 C22 C 0.19268 0.47921 0.59027
 C23 C 0.16377 0.48016 0.63872
 C24 C 0.13756 0.44950 0.69069
 C25 C 0.14075 0.41787 0.69275
 C26 C 0.17019 0.41720 0.64585
 H27 H 0.15293 0.39441 0.44275
 H28 H 0.10269 0.39613 0.35371
 H29 H 0.18412 0.49873 0.22297
 H30 H 0.23209 0.49616 0.31159
 H31 H 0.23176 0.39713 0.32692
 H32 H 0.28482 0.40617 0.22917
 H33 H 0.29444 0.50786 0.43011
 H34 H 0.26519 0.49678 0.67948
 H35 H 0.31943 0.50537 0.76845
 H36 H 0.31429 0.41277 0.61999
 H37 H 0.25843 0.40335 0.53412
 H38 H 0.21239 0.50296 0.54990
 H39 H 0.16157 0.50467 0.63422
 H40 H 0.12077 0.39390 0.73191
 H41 H 0.17240 0.39267 0.64868
 H42 H 0.34726 0.51746 0.33016
 C43 C 0.49615 -0.24099 0.54980
 C44 C 0.49668 -0.24169 0.45136
 C45 C 0.50230 -0.26920 0.39959
 C46 C 0.49285 -0.21417 0.39203
 C47 C 0.49952 -0.20879 0.60121
 C48 C 0.49348 -0.27167 0.60939
 C49 C 0.53389 -0.27229 0.41825
 C50 C 0.53903 -0.29847 0.37012
 C51 C 0.51292 -0.32180 0.30169
 C52 C 0.48122 -0.31853 0.28314
 C53 C 0.47623 -0.29219 0.33104
 C54 C 0.52193 -0.18989 0.33241
 C55 C 0.51904 -0.16287 0.28001
 C56 C 0.48666 -0.16015 0.28500
 C57 C 0.45711 -0.18531 0.34209
 C58 C 0.46034 -0.21182 0.39612
 C59 C 0.47127 -0.21231 0.66249
 C60 C 0.47365 -0.18151 0.70692
 C61 C 0.50484 -0.14671 0.69213
 C62 C 0.53312 -0.14347 0.63100
 C63 C 0.53060 -0.17424 0.58637
 C64 C 0.46155 -0.30618 0.60573
 C65 C 0.45936 -0.33520 0.66078
 C66 C 0.48955 -0.33072 0.71815
 C67 C 0.52128 -0.29556 0.72295
 C68 C 0.52294 -0.26640 0.66995
 H69 H 0.55460 -0.25434 0.47006
 H70 H 0.56354 -0.30046 0.38623
 H71 H 0.45968 -0.33661 0.23364
 H72 H 0.45163 -0.29023 0.31616
 H73 H 0.54713 -0.19144 0.32799
 H74 H 0.54192 -0.14443 0.23471
 H75 H 0.43749 -0.23054 0.44117
 H76 H 0.44693 -0.23875 0.67373
 H77 H 0.45059 -0.18512 0.75060
 H78 H 0.55728 -0.11706 0.61798
 H79 H 0.55279 -0.17114 0.53957
 H80 H 0.43832 -0.31061 0.56015
 H81 H 0.43437 -0.36157 0.65588
 H82 H 0.54469 -0.28989 0.76906
 H83 H 0.54758 -0.23978 0.67470
 H84 H 0.43176 -0.18400 0.34626
 C85 C 1.25602 0.74916 0.55225
 C86 C 1.25795 0.74957 0.45381
 C87 C 1.28835 0.78019 0.40100
 C88 C 1.22761 0.72108 0.39401
 C89 C 1.22322 0.72063 0.60330
 C90 C 1.28563 0.77762 0.61423
 C91 C 1.29546 0.81595 0.41484
 C92 C 1.32328 0.84473 0.36273
 C93 C 1.34456 0.83829 0.29424
 C94 C 1.33692 0.80213 0.28047
 C95 C 1.30902 0.77339 0.33300
 C96 C 1.20469 0.73014 0.33926
 C97 C 1.17422 0.70316 0.28854
 C98 C 1.16685 0.66689 0.28898
 C99 C 1.19043 0.65797 0.34178
 C100 C 1.22046 0.68487 0.39453
 C101 C 1.22756 0.69780 0.66933
 C102 C 1.19705 0.67069 0.71821
 C103 C 1.16119 0.66594 0.70233
 C104 C 1.15733 0.68953 0.63667
 C105 C 1.18804 0.71674 0.58816
 C106 C 1.32210 0.78393 0.61293
 C107 C 1.34928 0.81052 0.67341
 C108 C 1.34078 0.83193 0.73497
 C109 C 1.30371 0.82459 0.73741
 C110 C 1.27662 0.79772 0.67814
 H111 H 1.27903 0.82155 0.46521
 H112 H 1.32693 0.87148 0.37630
 H113 H 1.35247 0.79595 0.22853
 H114 H 1.30358 0.74579 0.32074
 H115 H 1.20973 0.75793 0.33854
 H116 H 1.15629 0.71058 0.24894
 H117 H 1.23784 0.67744 0.43676
 H118 H 1.25468 0.70076 0.68227
 H119 H 1.20245 0.65383 0.76711
 H120 H 1.13045 0.68702 0.62273
 H121 H 1.18440 0.73483 0.53891
 H122 H 1.32946 0.76816 0.56544
 H123 H 1.37727 0.81496 0.67012
 H124 H 1.29486 0.83874 0.78606
 H125 H 1.24846 0.79278 0.68153
 H126 H 1.18496 0.63006 0.34495
 C127 C 0.75755 0.50998 0.54858
 C128 C 0.75499 0.50414 0.45127
 C129 C 0.78385 0.50110 0.39622
 C130 C 0.72363 0.50184 0.39440
 C131 C 0.73109 0.51789 0.60073
 C132 C 0.78562 0.50662 0.60804
 C133 C 0.82069 0.52954 0.39847
 C134 C 0.84735 0.52809 0.34064
 C135 C 0.83774 0.49783 0.27976
 C136 C 0.80072 0.46951 0.27751
 C137 C 0.77400 0.47118 0.33485
 C138 C 0.72977 0.52942 0.32768
 C139 C 0.70008 0.52826 0.27662
 C140 C 0.66400 0.49898 0.28993
 C141 C 0.65812 0.47069 0.35399
 C142 C 0.68771 0.47236 0.40704
 C143 C 0.71159 0.49630 0.67997
 C144 C 0.68578 0.50242 0.72817
 C145 C 0.67882 0.53074 0.69861
 C146 C 0.69889 0.55256 0.61936
 C147 C 0.72504 0.54653 0.57185
 C148 C 0.78474 0.47303 0.61607
 C149 C 0.81058 0.46971 0.67461
 C150 C 0.83853 0.50015 0.72422
 C151 C 0.83874 0.53374 0.71687
 C152 C 0.81233 0.53672 0.66009
 H153 H 0.82858 0.55342 0.44300
 H154 H 0.87504 0.55129 0.34247
 H155 H 0.79239 0.44606 0.23089
 H156 H 0.74556 0.44917 0.33111
 H157 H 0.75744 0.55218 0.31684
 H158 H 0.70533 0.54996 0.22586
 H159 H 0.68273 0.45072 0.45779
 H160 H 0.71570 0.47397 0.70330
 H161 H 0.67084 0.48367 0.78598
 H162 H 0.69454 0.57455 0.59420
 H163 H 0.74047 0.56419 0.51221
 H164 H 0.76379 0.44932 0.57762
 H165 H 0.80921 0.44339 0.67910
 H166 H 0.85840 0.55770 0.75652
 H167 H 0.81287 0.56265 0.65611
 H168 H 0.63052 0.44773 0.36428
 C169 C 0.49607 0.25921 0.55586
 C170 C 0.49466 0.25724 0.45729
 C171 C 0.49204 0.28588 0.40089
 C172 C 0.49573 0.22723 0.40308
 C173 C 0.49546 0.23031 0.61825
 C174 C 0.49515 0.28943 0.60669
 C175 C 0.45753 0.28344 0.38438
 C176 C 0.45543 0.31238 0.34070
 C177 C 0.48776 0.34414 0.31244
 C178 C 0.52238 0.34649 0.32986
 C179 C 0.52441 0.31750 0.37326
 C180 C 0.47080 0.20964 0.32609
 C181 C 0.46977 0.17971 0.27966
 C182 C 0.49330 0.16656 0.31042
 C183 C 0.51897 0.18468 0.38496
 C184 C 0.52093 0.21538 0.42893
 C185 C 0.52458 0.23854 0.68355
 C186 C 0.52450 0.21118 0.74106
 C187 C 0.49515 0.17496 0.73535
 C188 C 0.46538 0.16716 0.67099
 C189 C 0.46565 0.19461 0.61346
 C190 C 0.52808 0.32029 0.63552
 C191 C 0.52703 0.34834 0.68611
 C192 C 0.49276 0.34616 0.70728
 C193 C 0.45993 0.31549 0.67488
 C194 C 0.46110 0.28713 0.62649
 H195 H 0.43233 0.25943 0.40727
 H196 H 0.42850 0.30999 0.32911
 H197 H 0.54805 0.37096 0.31277
 H198 H 0.55127 0.32012 0.38809
 H199 H 0.45134 0.21831 0.30360
 H200 H 0.44970 0.16600 0.22220
 H201 H 0.54166 0.22937 0.48468
 H202 H 0.54786 0.26600 0.68856
 H203 H 0.54780 0.21840 0.78951
 H204 H 0.44179 0.14019 0.66273
 H205 H 0.44266 0.18795 0.56438
 H206 H 0.55460 0.32266 0.61868
 H207 H 0.55321 0.37188 0.70543
 H208 H 0.43315 0.31300 0.68889
 H209 H 0.43546 0.26339 0.60403
 H210 H 0.53768 0.17520 0.40869
 C211 C 0.75854 0.24266 0.54824
 C212 C 0.75953 0.24357 0.44961
 C213 C 0.73060 0.21400 0.38973
 C214 C 0.79056 0.27351 0.39649
 C215 C 0.78894 0.27176 0.60646
 C216 C 0.72755 0.21217 0.60091
 C217 C 0.72412 0.17816 0.39741
 C218 C 0.69629 0.15036 0.34194
 C219 C 0.67462 0.15786 0.27702
 C220 C 0.68178 0.19410 0.26808
 C221 C 0.70971 0.22189 0.32363
 C222 C 0.81564 0.26642 0.34708
 C223 C 0.84579 0.29454 0.29915
 C224 C 0.85071 0.32992 0.29739
 C225 C 0.82526 0.33696 0.34608
 C226 C 0.79545 0.30890 0.39576
 C227 C 0.78220 0.29519 0.66373
 C228 C 0.81144 0.32495 0.71121
 C229 C 0.84822 0.33172 0.70258
 C230 C 0.85433 0.30722 0.64717
 C231 C 0.82509 0.27759 0.60010
 C232 C 0.69118 0.20578 0.59082
 C233 C 0.66173 0.17529 0.63441
 C234 C 0.66815 0.15054 0.68870
 C235 C 0.70458 0.15702 0.69848
 C236 C 0.73409 0.18783 0.65602
 H237 H 0.74049 0.17170 0.44676
 H238 H 0.69147 0.12279 0.35043
 H239 H 0.66565 0.20127 0.22033
 H240 H 0.71456 0.24952 0.31659
 H241 H 0.81223 0.23922 0.34738
 H242 H 0.86520 0.28860 0.26267
 H243 H 0.77628 0.31473 0.43388
 H244 H 0.75438 0.29104 0.66930
 H245 H 0.80471 0.34247 0.75277
 H246 H 0.88201 0.31116 0.63916
 H247 H 0.83077 0.25954 0.55696
 H248 H 0.68560 0.22412 0.54788
 H249 H 0.63390 0.17069 0.62375
 H250 H 0.71021 0.13834 0.73964
 H251 H 0.76195 0.19214 0.66372
 H252 H 0.82885 0.36420 0.34766
 O253 O 0.94756 0.41819 0.16954
 O254 O 0.90984 0.43422 0.08482
 C255 C 0.91533 0.41458 0.14833
 O256 O 1.06631 0.57838 0.17106
 O257 O 1.10163 0.56225 0.07890
 C258 C 1.09795 0.58223 0.14412
 O259 O 0.96342 0.53389 0.19025
 O260 O 0.91772 0.48980 0.09503
 C261 C 0.92897 0.51275 0.16689
 O262 O 1.05102 0.45563 0.15436
 O263 O 1.09407 0.50453 0.06698
 C264 C 1.08482 0.47782 0.12703
 Zr265 Zr 1.00100 0.45474 0.11444
 O266 O 1.00657 0.45412 0.26711
 O267 O 0.99013 0.40015 0.10708
 Zr268 Zr 1.01190 0.53981 0.12553
 O269 O 1.01769 0.54217 0.27827
 O270 O 1.01621 0.59188 0.12008
 O271 O 0.97397 0.48426 0.14118
 O272 O 1.03841 0.50944 0.13621
 O273 O 1.04765 0.45968 -0.18106
 O274 O 1.09272 0.50728 -0.09304
 C275 C 1.08209 0.48182 -0.15771
 O276 O 0.96003 0.54070 -0.16671
 O277 O 0.91606 0.49210 -0.07984
 C278 C 0.92604 0.51819 -0.14316
 O279 O 1.06325 0.58264 -0.16435
 O280 O 1.09986 0.56408 -0.08487
 C281 C 1.09521 0.58567 -0.14291
 O282 O 0.94434 0.42151 -0.18099
 O283 O 0.90848 0.43533 -0.08347
 C284 C 0.91251 0.41666 -0.15211
 Zr285 Zr 0.99858 0.45801 -0.12993
 O286 O 1.00096 0.46265 -0.28301
 O287 O 0.98820 0.40363 -0.13919
 Zr288 Zr 1.00939 0.54295 -0.11810
 O289 O 1.01158 0.54614 -0.27136
 O290 O 1.01306 0.59476 -0.10908
 Zr291 Zr 0.95012 0.47735 0.00165
 Zr292 Zr 1.05974 0.52014 -0.00517
 O293 O 1.03563 0.51313 -0.14386
 O294 O 0.97087 0.48785 -0.14097
 O295 O 1.03176 0.46262 -0.01074
 O296 O 0.97899 0.53475 0.00696
 O297 O 0.96700 0.43782 -0.00632
 O298 O 1.04442 0.56072 0.00263
 H299 H 1.05554 0.51516 0.19214
 H300 H 0.96459 0.54767 0.01140
 H301 H 1.05165 0.52032 -0.20186
 H302 H 0.94803 0.41158 -0.00727
 H303 H 1.01829 0.59999 0.18829
 H304 H 1.03288 0.60939 -0.06156
 H305 H 0.98917 0.52449 -0.29672
 H306 H 0.98011 0.46605 -0.30468
 H307 H 1.00694 0.40189 -0.09832
 H308 H 1.00965 0.40003 0.06677
 H309 H 0.98726 0.45829 0.29597
 H310 H 1.00085 0.51735 0.30304
 O311 O 0.58750 0.54868 0.18672
 O312 O 0.58252 0.49990 0.10069
 C313 C 0.59753 0.52474 0.16727
 O314 O 0.41989 0.47698 0.15401
 O315 O 0.42823 0.52658 0.06444
 C316 C 0.40997 0.50035 0.12614
 O317 O 0.48004 0.43408 0.17880
 O318 O 0.53210 0.44618 0.09383
 C319 C 0.50707 0.42810 0.15797
 O320 O 0.53205 0.59715 0.16274
 O321 O 0.48140 0.58318 0.06639
 C322 C 0.50559 0.60272 0.13174
 Zr323 Zr 0.54495 0.55607 0.12319
 O324 O 0.54205 0.55963 0.27558
 O325 O 0.59446 0.60689 0.11688
 Zr326 Zr 0.46718 0.47325 0.11903
 O327 O 0.46372 0.47676 0.27137
 O328 O 0.42023 0.42030 0.11874
 O329 O 0.52398 0.50021 0.14567
 O330 O 0.48788 0.52886 0.13346
 O331 O 0.54075 0.59792 -0.16866
 O332 O 0.48570 0.58391 -0.09608
 C333 C 0.51366 0.60405 -0.15178
 O334 O 0.48633 0.43438 -0.17340
 O335 O 0.53562 0.44658 -0.07339
 C336 C 0.51274 0.42868 -0.14310
 O337 O 0.42452 0.47606 -0.17752
 O338 O 0.43112 0.52662 -0.09768
 C339 C 0.41403 0.49965 -0.15753
 O340 O 0.59330 0.54610 -0.16691
 O341 O 0.58605 0.49988 -0.06501
 C342 C 0.60285 0.52286 -0.13405
 Zr343 Zr 0.54903 0.55471 -0.12167
 O344 O 0.54725 0.55481 -0.27518
 O345 O 0.60018 0.60414 -0.12239
 Zr346 Zr 0.47068 0.47243 -0.12542
 O347 O 0.46972 0.47261 -0.27889
 O348 O 0.42322 0.41995 -0.11994
 Zr349 Zr 0.53816 0.48987 0.00784
 Zr350 Zr 0.47744 0.53859 -0.01021
 O351 O 0.49234 0.52793 -0.14656
 O352 O 0.52825 0.49885 -0.13713
 O353 O 0.53471 0.57628 -0.00420
 O354 O 0.48105 0.45258 0.00117
 O355 O 0.57040 0.54713 0.00662
 O356 O 0.44478 0.48123 -0.00861
 H357 H 0.47761 0.53629 0.18779
 H358 H 0.47234 0.42604 0.00214
 H359 H 0.48385 0.53534 -0.20539
 H360 H 0.59775 0.55870 0.01039
 H361 H 0.40521 0.41874 0.06100
 H362 H 0.41679 0.41179 -0.18813
 H363 H 0.49490 0.47929 -0.30080
 H364 H 0.54959 0.53383 -0.29794
 H365 H 0.59974 0.61877 -0.06708
 H366 H 0.60088 0.61536 0.18484
 H367 H 0.53695 0.53586 0.30287
 H368 H 0.48620 0.47806 0.30039
 O369 O 0.53306 -0.03606 0.17688
 O370 O 0.47980 -0.07969 0.10320
 C371 C 0.50745 -0.06968 0.16295
 O372 O 0.46751 0.06470 0.16827
 O373 O 0.51307 0.10175 0.06163
 C374 C 0.49042 0.09647 0.13177
 O375 O 0.42078 -0.03675 0.20170
 O376 O 0.42506 -0.08025 0.11195
 C377 C 0.41155 -0.07029 0.18254
 O378 O 0.58400 0.06518 0.14472
 O379 O 0.56945 0.10208 0.05359
 C380 C 0.59045 0.09699 0.11446
 Zr381 Zr 0.53940 0.01262 0.11352
 O382 O 0.54749 0.02172 0.26487
 O383 O 0.58857 0.00950 0.10286
 Zr384 Zr 0.45801 0.01201 0.12972
 O385 O 0.46393 0.02075 0.28134
 O386 O 0.40598 0.00958 0.12894
 O387 O 0.48366 -0.01949 0.14893
 O388 O 0.51487 0.04450 0.13157
 O389 O 0.57135 0.05460 -0.18953
 O390 O 0.56176 0.09669 -0.10888
 C391 C 0.57894 0.08795 -0.17174
 O392 O 0.40475 -0.04939 -0.15134
 O393 O 0.41913 -0.08638 -0.05987
 C394 C 0.39896 -0.08116 -0.12343
 O395 O 0.45128 0.05160 -0.16647
 O396 O 0.50569 0.09545 -0.09760
 C397 C 0.47671 0.08523 -0.15285
 O398 O 0.51683 -0.04877 -0.17494
 O399 O 0.47277 -0.08566 -0.06494
 C400 C 0.49371 -0.08059 -0.13887
 Zr401 Zr 0.52929 0.00431 -0.12972
 O402 O 0.52475 0.00346 -0.28283
 O403 O 0.57804 0.00044 -0.13962
 Zr404 Zr 0.44769 0.00313 -0.11260
 O405 O 0.44396 0.00173 -0.26594
 O406 O 0.39502 -0.00087 -0.10169
 Zr407 Zr 0.46698 -0.04650 0.01417
 Zr408 Zr 0.51996 0.06221 -0.01319
 O409 O 0.50308 0.03472 -0.14684
 O410 O 0.47187 -0.02943 -0.13178
 O411 O 0.55654 0.04107 -0.01720
 O412 O 0.43139 -0.02441 0.01786
 O413 O 0.52473 -0.02318 -0.00143
 O414 O 0.46238 0.03999 0.00170
 H415 H 0.52512 0.06276 0.18446
 H416 H 0.40442 -0.04110 0.02545
 H417 H 0.50866 0.04921 -0.20738
 H418 H 0.53574 -0.03934 -0.00122
 H419 H 0.40068 0.01220 0.19744
 H420 H 0.39731 0.01746 -0.05350
 H421 H 0.44516 -0.01993 -0.28816
 H422 H 0.50085 -0.01814 -0.30070
 H423 H 0.59800 0.02175 -0.10533
 H424 H 0.60550 0.02918 0.05871
 H425 H 0.52602 0.00145 0.29768
 H426 H 0.47348 0.00517 0.30791
 C427 C 1.10972 0.44781 0.23309
 C428 C 1.11391 0.47414 0.16434
 H429 H 1.08170 0.42687 0.25078
 H430 H 1.14089 0.49355 0.13705
 C431 C 0.51912 0.65014 0.25448
 C432 C 0.50144 0.63244 0.17364
 H433 H 0.53898 0.64382 0.28798
 H434 H 0.48221 0.63885 0.13729
 C435 C 0.37244 -0.13391 0.23759
 C436 C 0.38338 -0.09825 0.24548
 H437 H 0.38593 -0.14196 0.18384
 H438 H 0.37203 -0.08821 0.29944
 C439 C 0.86502 0.49520 0.21596
 C440 C 0.90175 0.51563 0.22828
 H441 H 0.85440 0.47500 0.15856
 H442 H 0.91301 0.53476 0.28770
 C443 C 0.48445 0.37443 0.26699
 C444 C 0.51025 0.39879 0.20761
 H445 H 0.45928 0.37556 0.27897
 H446 H 0.53435 0.39648 0.19019
 C447 C 0.64396 0.12669 0.22492
 C448 C 0.62291 0.12955 0.15473
 H449 H 0.63789 0.09968 0.24799
 H450 H 0.62829 0.15587 0.12825
 C451 C 0.49744 0.14826 -0.20762
 C452 C 0.47183 0.11272 -0.20664
 H453 H 0.52205 0.15699 -0.16307
 H454 H 0.44663 0.10221 -0.24875
 C455 C 0.65192 0.53718 -0.25720
 C456 C 0.63427 0.52073 -0.17523
 H457 H 0.64494 0.55618 -0.29175
 H458 H 0.64171 0.50322 -0.13533
 C459 C 0.87926 0.36168 -0.25407
 C460 C 0.87848 0.38725 -0.19756
 H461 H 0.90604 0.36392 -0.26675
 H462 H 0.85277 0.38632 -0.17981
 C463 C 0.50852 -0.11319 -0.26311
 C464 C 0.49042 -0.11372 -0.18290
 H465 H 0.52757 -0.08719 -0.29598
 H466 H 0.47249 -0.13925 -0.14671
 C467 C 0.35664 0.46562 -0.25326
 C468 C 0.38048 0.49588 -0.20489
 H469 H 0.36285 0.44359 -0.25969
 H470 H 0.37556 0.51863 -0.19787
 C471 C 1.12914 0.63861 -0.25177
 C472 C 1.12905 0.61478 -0.18691
 H473 H 1.10279 0.63661 -0.27067
 H474 H 1.15427 0.61547 -0.16414
 C475 C 0.86508 0.49587 -0.22137
 C476 C 0.89759 0.52379 -0.19144
 H477 H 0.86018 0.46839 -0.20891
 H478 H 0.90595 0.55156 -0.21206
 C479 C 0.48991 0.37355 -0.24242
 C480 C 0.51754 0.40039 -0.19144
 H481 H 0.46305 0.37203 -0.24198
 H482 H 0.54379 0.40132 -0.18075
 C483 C 0.63741 0.11783 -0.26482
 C484 C 0.60841 0.11862 -0.22604
 H485 H 0.64012 0.09371 -0.25560
 H486 H 0.60754 0.14389 -0.22718
 C487 C 1.10664 0.45004 -0.25808
 C488 C 1.11179 0.47955 -0.20911
 H489 H 1.07987 0.42534 -0.25669
 H490 H 1.13941 0.50301 -0.20394
 C491 C 0.48696 0.63866 -0.23208
 C492 C 0.51641 0.63696 -0.19757
 H493 H 0.46004 0.61418 -0.22749
 H494 H 0.54421 0.65889 -0.21117
 C495 C 0.36951 -0.14000 -0.20974
 C496 C 0.36683 -0.11278 -0.16729
 H497 H 0.39631 -0.13862 -0.20771
 H498 H 0.34243 -0.11015 -0.17689
 C499 C 0.48274 -0.13200 0.22959
 C500 C 0.51104 -0.09799 0.21748
 H501 H 0.45543 -0.13894 0.20269
 H502 H 0.53758 -0.09014 0.25132
 C503 C 0.35175 0.46647 0.21534
 C504 C 0.37634 0.49731 0.17054
 H505 H 0.35487 0.44246 0.21088
 H506 H 0.37213 0.52068 0.16795
 C507 C 1.13318 0.63870 0.23895
 C508 C 1.13200 0.61040 0.19200
 H509 H 1.10908 0.64229 0.23747
 H510 H 1.15685 0.60826 0.18636
 C511 C 0.49041 0.13319 0.26826
 C512 C 0.49117 0.12891 0.17261
 H513 H 0.49038 0.11294 0.31713
 H514 H 0.49531 0.15086 0.12392
 C515 C 0.63249 0.49711 0.23553
 C516 C 0.62842 0.52644 0.22363
 H517 H 0.61140 0.47073 0.20859
 H518 H 0.64764 0.55203 0.25824
 C519 C 0.88336 0.35906 0.24747
 C520 C 0.88262 0.38636 0.19946
 H521 H 0.90816 0.35668 0.24573
 H522 H 0.85710 0.38737 0.19432
   
