data_POSCAR
  _audit_creation_date              2014-09-24
  _audit_creation_method            'ToBaCCo'
  _symmetry_space_group_name_H-M    'P1'
  _symmetry_Int_Tables_number       1
  _symmetry_cell_setting            triclinic
  loop_
  _symmetry_equiv_pos_as_xyz
 x,y,z
_cell_length_a 27.8396
_cell_length_b 27.7262
_cell_length_c 82.1237
_cell_angle_alpha 90.566100
_cell_angle_beta 88.543700
_cell_angle_gamma 119.916200
loop_
  _atom_site_label
  _atom_site_type_symbol
  _atom_site_fract_x
  _atom_site_fract_y
  _atom_site_fract_z
C1 C -0.03249 -0.07475 0.48627
 C2 C -0.00036 -0.04651 0.49968
 C3 C 0.00003 -0.07662 0.51319
 C4 C -0.03151 -0.13517 0.51361
 C5 C -0.06516 -0.16256 0.50016
 C6 C -0.06627 -0.13326 0.48628
 C7 C 0.03302 0.01501 0.49959
 C8 C 0.02899 0.04541 0.51279
 C9 C 0.05939 0.10380 0.51275
 C10 C 0.09483 0.13164 0.49939
 C11 C 0.09955 0.10182 0.48610
 C12 C 0.06823 0.04342 0.48628
 H13 H -0.02981 -0.05017 0.47580
 H14 H 0.02772 -0.05372 0.52293
 H15 H 0.00172 0.02346 0.52306
 H16 H 0.07202 0.01991 0.47621
 H17 H -0.09393 -0.20662 0.50116
 H18 H 0.11739 0.17671 0.49910
 C19 C 1.05427 0.05081 0.15270
 C20 C 1.02552 0.05650 0.16619
 C21 C 1.05518 0.08973 0.17931
 C22 C 1.11320 0.11700 0.17912
 C23 C 1.14141 0.10955 0.16577
 C24 C 1.11277 0.07652 0.15224
 C25 C 0.96414 0.02602 0.16672
 C26 C 0.93521 -0.00707 0.18028
 C27 C 0.87707 -0.04033 0.18042
 C28 C 0.84814 -0.03835 0.16685
 C29 C 0.87644 -0.00379 0.15344
 C30 C 0.93451 0.02784 0.15342
 H31 H 1.03004 0.02655 0.14256
 H32 H 1.03293 0.09516 0.18953
 H33 H 0.95843 -0.00743 0.19061
 H34 H 0.95681 0.05355 0.14296
 H35 H 1.18575 0.12760 0.16657
 H36 H 0.80347 -0.06383 0.16663
 C37 C 0.04023 0.97070 0.84673
 C38 C 0.00522 0.96354 0.83382
 C39 C -0.00135 0.92619 0.82131
 C40 C 0.02628 0.89561 0.82166
 C41 C 0.06078 0.90271 0.83475
 C42 C 0.06865 0.94050 0.84747
 C43 C -0.02480 0.99506 0.83347
 C44 C -0.02233 1.02469 0.81949
 C45 C -0.04881 1.05643 0.81920
 C46 C -0.07996 1.05621 0.83301
 C47 C -0.08470 1.02534 0.84721
 C48 C -0.05538 0.99585 0.84720
 H49 H 0.04357 0.99884 0.85643
 H50 H -0.02799 0.92105 0.81126
 H51 H 0.00089 1.02332 0.80889
 H52 H -0.05477 0.97396 0.85793
 H53 H 0.08275 0.87971 0.83459
 H54 H -0.10135 1.07950 0.83235
 O55 O 0.42031 -0.04469 -0.01536
 O56 O 0.51279 -0.03861 0.01656
 O57 O 0.42012 -0.03744 0.01641
 O58 O 0.51476 -0.04180 -0.01521
 O59 O 0.56138 0.05007 -0.01577
 O60 O 0.46363 0.05412 0.01424
 O61 O 0.55669 0.05312 0.01582
 O62 O 0.46620 0.04688 -0.01730
 Cu63 Cu 0.46245 -0.04982 0.00075
 Cu64 Cu 0.51647 0.06024 -0.00089
 C65 C 0.42759 -0.00025 -0.02195
 C66 C 0.55029 0.00804 0.02177
 C67 C 0.42563 0.00931 0.02060
 C68 C 0.55456 0.00365 -0.02076
 O69 O -0.04795 0.50484 0.65134
 O70 O -0.04555 0.40802 0.68097
 O71 O -0.04801 0.50086 0.68312
 O72 O -0.04119 0.41465 0.64945
 O73 O 0.05011 0.46303 0.64993
 O74 O 0.04329 0.55060 0.68257
 O75 O 0.04572 0.45852 0.68174
 O76 O 0.04342 0.55328 0.65082
 Cu77 Cu -0.05484 0.45230 0.66623
 Cu78 Cu 0.05477 0.51129 0.66624
 C79 C -0.00290 0.54511 0.64580
 C80 C 0.00024 0.41683 0.68651
 C81 C -0.00320 0.54053 0.68861
 C82 C 0.00591 0.42412 0.64400
 O83 O 0.58177 0.53207 0.34683
 O84 O 0.48452 0.44332 0.31578
 O85 O 0.57597 0.53779 0.31530
 O86 O 0.48787 0.43811 0.34735
 O87 O 0.43992 0.48163 0.34970
 O88 O 0.53200 0.58486 0.31933
 O89 O 0.43943 0.48975 0.31815
 O90 O 0.53324 0.57450 0.35080
 Cu91 Cu 0.53723 0.48334 0.33105
 Cu92 Cu 0.48151 0.53723 0.33478
 C93 C 0.57383 0.56791 0.35428
 C94 C 0.44583 0.45170 0.31145
 C95 C 0.56910 0.57856 0.31195
 C96 C 0.44840 0.44262 0.35390
 C97 C 0.04078 0.19742 0.55218
 C98 C -0.00570 0.15036 0.54594
 C99 C 0.00041 0.11983 0.53323
 C100 C 0.05311 0.13570 0.52645
 C101 C 0.09961 0.18260 0.53271
 C102 C 0.09353 0.21306 0.54546
 C103 C 0.03428 0.23029 0.56558
 C104 C 0.06617 0.28868 0.56551
 C105 C 0.06060 0.31968 0.57817
 C106 C 0.02291 0.29305 0.59119
 C107 C -0.00944 0.23471 0.59120
 C108 C -0.00376 0.20366 0.57854
 C109 C 0.01813 0.32612 0.60480
 C110 C -0.03397 0.31304 0.61151
 C111 C -0.03813 0.34475 0.62425
 C112 C 0.00976 0.38999 0.63059
 C113 C 0.06181 0.40272 0.62394
 C114 C 0.06592 0.37122 0.61119
 H115 H -0.04696 0.13774 0.55067
 H116 H -0.03628 0.08439 0.52847
 H117 H 0.14080 0.19535 0.52788
 H118 H 0.13026 0.24852 0.55018
 H119 H 0.09504 0.31053 0.55555
 H120 H 0.08541 0.36462 0.57769
 H121 H -0.03831 0.21302 0.60117
 H122 H -0.02840 0.15872 0.57907
 H123 H -0.07155 0.27880 0.60674
 H124 H -0.07882 0.33390 0.62911
 H125 H 0.09955 0.43720 0.62856
 H126 H 0.10667 0.38181 0.60643
 C127 C 0.78885 0.84892 0.22090
 C128 C 0.76434 0.87390 0.21204
 C129 C 0.79316 0.91044 0.19917
 C130 C 0.84686 0.92207 0.19450
 C131 C 0.87121 0.89679 0.20328
 C132 C 0.84296 0.86138 0.21641
 C133 C 0.75809 0.80984 0.23465
 C134 C 0.76703 0.76542 0.23822
 C135 C 0.73837 0.72896 0.25111
 C136 C 0.69882 0.73488 0.26059
 C137 C 0.68955 0.77902 0.25693
 C138 C 0.71921 0.81632 0.24431
 C139 C 0.66699 0.69498 0.27407
 C140 C 0.64873 0.71233 0.28792
 C141 C 0.61696 0.67447 0.30021
 C142 C 0.60401 0.61876 0.29920
 C143 C 0.62328 0.60144 0.28569
 C144 C 0.65378 0.63890 0.27316
 H145 H 0.72247 0.86483 0.21486
 H146 H 0.77319 0.92970 0.19295
 H147 H 0.91199 0.90363 0.19994
 H148 H 0.86392 0.84405 0.22306
 H149 H 0.79575 0.75815 0.23095
 H150 H 0.74763 0.69628 0.25365
 H151 H 0.65881 0.78464 0.26368
 H152 H 0.71170 0.85044 0.24222
 H153 H 0.65914 0.75526 0.28936
 H154 H 0.60298 0.68890 0.31061
 H155 H 0.61327 0.55847 0.28457
 H156 H 0.66582 0.62338 0.26261
 C157 C 0.17455 -0.03731 -0.11313
 C158 C 0.16654 0.00633 -0.11810
 C159 C 0.13157 -0.00095 -0.13095
 C160 C 0.10407 -0.05205 -0.13940
 C161 C 0.11298 -0.09549 -0.13435
 C162 C 0.14738 -0.08826 -0.12136
 C163 C 0.21105 -0.02991 -0.09937
 C164 C 0.19380 -0.07111 -0.08730
 C165 C 0.22852 -0.06494 -0.07451
 C166 C 0.28164 -0.01769 -0.07359
 C167 C 0.29859 0.02387 -0.08560
 C168 C 0.26355 0.01791 -0.09832
 C169 C 0.31943 -0.01260 -0.06036
 C170 C 0.35489 0.03922 -0.05321
 C171 C 0.39034 0.04352 -0.04079
 C172 C 0.39076 -0.00398 -0.03517
 C173 C 0.35542 -0.05566 -0.04233
 C174 C 0.32046 -0.05987 -0.05481
 H175 H 0.18705 0.04610 -0.11194
 H176 H 0.12823 0.03464 -0.13457
 H177 H 0.09174 -0.13623 -0.13988
 H178 H 0.15299 -0.12260 -0.11778
 H179 H 0.15315 -0.10795 -0.08768
 H180 H 0.21357 -0.09716 -0.06529
 H181 H 0.33946 0.06041 -0.08541
 H182 H 0.27803 0.05006 -0.10756
 H183 H 0.35470 0.07637 -0.05704
 H184 H 0.41696 0.08389 -0.03546
 H185 H 0.35512 -0.09299 -0.03840
 H186 H 0.29470 -0.10021 -0.06026
 C187 C -0.02304 0.77338 0.55388
 C188 C -0.03681 0.74925 0.53838
 C189 C -0.04004 0.77899 0.52523
 C190 C -0.02937 0.83419 0.52712
 C191 C -0.01563 0.85801 0.54282
 C192 C -0.01260 0.82803 0.55595
 C193 C -0.01974 0.74149 0.56783
 C194 C 0.02236 0.76744 0.57929
 C195 C 0.02561 0.73714 0.59231
 C196 C -0.01324 0.68025 0.59419
 C197 C -0.05533 0.65440 0.58273
 C198 C -0.05858 0.68464 0.56973
 C199 C -0.00999 0.64769 0.60795
 C200 C -0.05859 0.60744 0.61598
 C201 C -0.05606 0.57491 0.62843
 C202 C -0.00484 0.58192 0.63320
 C203 C 0.04395 0.62302 0.62544
 C204 C 0.04139 0.65555 0.61294
 H205 H -0.04390 0.70759 0.53630
 H206 H -0.04843 0.75901 0.51344
 H207 H -0.00927 0.89913 0.54531
 H208 H -0.00309 0.84738 0.56784
 H209 H 0.05326 0.81104 0.57807
 H210 H 0.05822 0.75836 0.60101
 H211 H -0.08547 0.61048 0.58370
 H212 H -0.09186 0.66356 0.56123
 H213 H -0.09873 0.60108 0.61265
 H214 H -0.09442 0.54390 0.63423
 H215 H 0.08404 0.62935 0.62881
 H216 H 0.07954 0.68585 0.60689
 C217 C 0.20668 0.22093 0.21905
 C218 C 0.15707 0.17078 0.22205
 C219 C 0.12645 0.13717 0.20912
 C220 C 0.14475 0.15309 0.19293
 C221 C 0.19387 0.20372 0.18995
 C222 C 0.22449 0.23720 0.20285
 C223 C 0.24062 0.25551 0.23273
 C224 C 0.29856 0.27941 0.23201
 C225 C 0.33075 0.31120 0.24493
 C226 C 0.30580 0.31994 0.25888
 C227 C 0.24790 0.29653 0.25956
 C228 C 0.21560 0.26444 0.24664
 C229 C 0.34032 0.35276 0.27270
 C230 C 0.33050 0.39207 0.28078
 C231 C 0.36441 0.42405 0.29346
 C232 C 0.40861 0.41709 0.29837
 C233 C 0.41773 0.37710 0.29044
 C234 C 0.38405 0.34540 0.27776
 H235 H 0.14268 0.15684 0.23441
 H236 H 0.08912 0.09809 0.21182
 H237 H 0.20847 0.21764 0.17760
 H238 H 0.26204 0.27608 0.20016
 H239 H 0.31899 0.27280 0.22154
 H240 H 0.37532 0.32923 0.24398
 H241 H 0.22754 0.30227 0.27020
 H242 H 0.17108 0.24692 0.24747
 H243 H 0.29732 0.39890 0.27705
 H244 H 0.35631 0.45451 0.29933
 H245 H 0.45125 0.37049 0.29395
 H246 H 0.39208 0.31482 0.27194
 C247 C 0.81253 0.01806 -0.11203
 C248 C 0.83220 0.06168 -0.12341
 C249 C 0.86664 0.06480 -0.13652
 C250 C 0.88184 0.02355 -0.13904
 C251 C 0.86163 -0.02023 -0.12748
 C252 C 0.82822 -0.02251 -0.11418
 C253 C 0.77559 0.01476 -0.09807
 C254 C 0.73420 -0.03703 -0.09189
 C255 C 0.69948 -0.04003 -0.07886
 C256 C 0.70431 0.00866 -0.07185
 C257 C 0.74549 0.06041 -0.07810
 C258 C 0.78099 0.06341 -0.09087
 C259 C 0.66631 0.00570 -0.05825
 C260 C 0.68460 0.04766 -0.04633
 C261 C 0.64829 0.04669 -0.03412
 C262 C 0.59322 0.00299 -0.03325
 C263 C 0.57511 -0.04001 -0.04472
 C264 C 0.61105 -0.03836 -0.05721
 H265 H 0.82070 0.09356 -0.12234
 H266 H 0.88215 0.10100 -0.14427
 H267 H 0.86926 -0.05463 -0.12878
 H268 H 0.81469 -0.05642 -0.10558
 H269 H 0.72795 -0.07552 -0.09722
 H270 H 0.66902 -0.08068 -0.07427
 H271 H 0.75005 0.09893 -0.07331
 H272 H 0.81287 0.10412 -0.09502
 H273 H 0.72709 0.08142 -0.04636
 H274 H 0.66339 0.08003 -0.02528
 H275 H 0.53263 -0.07392 -0.04437
 H276 H 0.59491 -0.07094 -0.06627
 C277 C 0.20030 0.05324 0.11206
 C278 C 0.22730 0.09881 0.12257
 C279 C 0.19863 0.10688 0.13554
 C280 C 0.14183 0.06891 0.13876
 C281 C 0.11520 0.02292 0.12813
 C282 C 0.14379 0.01560 0.11498
 C283 C 0.23099 0.04514 0.09812
 C284 C 0.21783 -0.00857 0.09299
 C285 C 0.24682 -0.01596 0.07995
 C286 C 0.29044 0.03017 0.07185
 C287 C 0.30374 0.08384 0.07706
 C288 C 0.27409 0.09120 0.08987
 C289 C 0.32247 0.02268 0.05819
 C290 C 0.34466 0.06151 0.04533
 C291 C 0.37766 0.05670 0.03307
 C292 C 0.38817 0.01221 0.03311
 C293 C 0.36450 -0.02787 0.04554
 C294 C 0.33247 -0.02240 0.05804
 H295 H 0.27099 0.12849 0.12088
 H296 H 0.22153 0.14432 0.14259
 H297 H 0.07260 -0.00924 0.13007
 H298 H 0.12124 -0.01975 0.10707
 H299 H 0.18553 -0.04514 0.09916
 H300 H 0.23471 -0.05794 0.07619
 H301 H 0.33766 0.12051 0.07140
 H302 H 0.28493 0.13322 0.09321
 H303 H 0.33668 0.09585 0.04470
 H304 H 0.39491 0.08780 0.02350
 H305 H 0.37239 -0.06235 0.04589
 H306 H 0.31694 -0.05269 0.06782
 C307 C 0.82908 0.78106 0.44628
 C308 C 0.84843 0.83790 0.44883
 C309 C 0.88233 0.86586 0.46192
 C310 C 0.89913 0.83826 0.47286
 C311 C 0.87997 0.78116 0.47000
 C312 C 0.84524 0.75311 0.45708
 C313 C 0.79215 0.75107 0.43245
 C314 C 0.79534 0.70765 0.42444
 C315 C 0.76015 0.67893 0.41167
 C316 C 0.72144 0.69349 0.40630
 C317 C 0.71869 0.73735 0.41418
 C318 C 0.75318 0.76540 0.42716
 C319 C 0.68395 0.66275 0.39266
 C320 C 0.62957 0.65395 0.39245
 C321 C 0.59419 0.62425 0.37979
 C322 C 0.61196 0.60171 0.36723
 C323 C 0.66616 0.61053 0.36734
 C324 C 0.70192 0.64118 0.37980
 H325 H 0.83754 0.86119 0.44068
 H326 H 0.89321 0.90879 0.46357
 H327 H 0.89278 0.75761 0.47733
 H328 H 0.83082 0.70916 0.45565
 H329 H 0.82534 0.69591 0.42794
 H330 H 0.76300 0.64483 0.40615
 H331 H 0.69011 0.75045 0.41028
 H332 H 0.74874 0.79794 0.43316
 H333 H 0.61374 0.66890 0.40225
 H334 H 0.55240 0.61761 0.38006
 H335 H 0.68109 0.59407 0.35770
 H336 H 0.74380 0.64817 0.37927
 C337 C -0.03108 0.15836 0.77733
 C338 C -0.08091 0.13228 0.78659
 C339 C -0.08717 0.09827 0.79985
 C340 C -0.04326 0.09049 0.80455
 C341 C 0.00658 0.11656 0.79531
 C342 C 0.01235 0.14942 0.78180
 C343 C -0.02432 0.19509 0.76325
 C344 C 0.02775 0.24112 0.75913
 C345 C 0.03382 0.27588 0.74608
 C346 C -0.01221 0.26651 0.73699
 C347 C -0.06426 0.22056 0.74115
 C348 C -0.07007 0.18501 0.75392
 C349 C -0.00643 0.30486 0.72347
 C350 C -0.04182 0.28500 0.71009
 C351 C -0.03919 0.32144 0.69803
 C352 C 0.00001 0.37828 0.69876
 C353 C 0.03698 0.39815 0.71166
 C354 C 0.03334 0.36199 0.72401
 H355 H -0.11512 0.13865 0.78380
 H356 H -0.12664 0.07806 0.80638
 H357 H 0.04169 0.11237 0.79864
 H358 H 0.05099 0.16768 0.77485
 H359 H 0.06394 0.25106 0.76613
 H360 H 0.07481 0.31008 0.74315
 H361 H -0.10108 0.21225 0.73474
 H362 H -0.11066 0.14951 0.75640
 H363 H -0.07182 0.24125 0.70888
 H364 H -0.06773 0.30513 0.68805
 H365 H 0.06723 0.44202 0.71253
 H366 H 0.06069 0.37934 0.73420
 C367 C 0.78581 0.00475 0.11285
 C368 C 0.77163 -0.04680 0.11991
 C369 C 0.80104 -0.04961 0.13305
 C370 C 0.84542 -0.00096 0.13939
 C371 C 0.85980 0.05056 0.13229
 C372 C 0.83022 0.05341 0.11918
 C373 C 0.75406 0.00763 0.09900
 C374 C 0.73905 0.04904 0.09842
 C375 C 0.70756 0.05053 0.08563
 C376 C 0.69050 0.01070 0.07315
 C377 C 0.70646 -0.03005 0.07360
 C378 C 0.73778 -0.03162 0.08639
 C379 C 0.65497 0.01057 0.05992
 C380 C 0.61128 -0.03997 0.05428
 C381 C 0.57753 -0.04058 0.04191
 C382 C 0.58648 0.00935 0.03489
 C383 C 0.63005 0.06001 0.04054
 C384 C 0.66395 0.06060 0.05294
 H385 H 0.73725 -0.08495 0.11540
 H386 H 0.78936 -0.08994 0.13818
 H387 H 0.89352 0.08878 0.13701
 H388 H 0.84240 0.09366 0.11391
 H389 H 0.75046 0.07946 0.10807
 H390 H 0.69534 0.08199 0.08575
 H391 H 0.69493 -0.06066 0.06400
 H392 H 0.74958 -0.06339 0.08635
 H393 H 0.60259 -0.07917 0.05959
 H394 H 0.54416 -0.08034 0.03791
 H395 H 0.63810 0.09918 0.03535
 H396 H 0.69763 0.10019 0.05691
 C397 C 0.20538 0.19079 0.44497
 C398 C 0.15300 0.14378 0.44262
 C399 C 0.11894 0.11454 0.45596
 C400 C 0.13644 0.13176 0.47194
 C401 C 0.18909 0.17835 0.47429
 C402 C 0.22320 0.20749 0.46096
 C403 C 0.24056 0.22344 0.43083
 C404 C 0.29823 0.24503 0.43072
 C405 C 0.33151 0.27801 0.41773
 C406 C 0.30785 0.29030 0.40463
 C407 C 0.25008 0.26779 0.40461
 C408 C 0.21681 0.23471 0.41755
 C409 C 0.34338 0.32821 0.39135
 C410 C 0.33264 0.36906 0.38533
 C411 C 0.36656 0.40582 0.37313
 C412 C 0.41204 0.40259 0.36660
 C413 C 0.42262 0.36146 0.37251
 C414 C 0.38871 0.32473 0.38480
 H415 H 0.13835 0.12960 0.43046
 H416 H 0.07841 0.07910 0.45375
 H417 H 0.20394 0.19224 0.48646
 H418 H 0.26307 0.24388 0.46316
 H419 H 0.31763 0.23656 0.44070
 H420 H 0.37594 0.29511 0.41815
 H421 H 0.23059 0.27601 0.39459
 H422 H 0.17260 0.21911 0.41735
 H423 H 0.29855 0.37334 0.39029
 H424 H 0.35727 0.43706 0.36888
 H425 H 0.45731 0.35787 0.36773
 H426 H 0.39769 0.29334 0.38911
 C427 C 0.00790 0.78272 0.78269
 C428 C -0.03860 0.78385 0.78931
 C429 C -0.03268 0.82055 0.80193
 C430 C 0.01983 0.85679 0.80821
 C431 C 0.06630 0.85587 0.80154
 C432 C 0.06043 0.81935 0.78892
 C433 C 0.00203 0.74374 0.76932
 C434 C 0.03410 0.71748 0.76906
 C435 C 0.03089 0.68303 0.75613
 C436 C -0.00462 0.67380 0.74316
 C437 C -0.03795 0.69867 0.74360
 C438 C -0.03458 0.73340 0.75653
 C439 C -0.00507 0.63997 0.72899
 C440 C -0.05505 0.60056 0.72194
 C441 C -0.05476 0.56823 0.70875
 C442 C -0.00443 0.57513 0.70230
 C443 C 0.04545 0.61516 0.70924
 C444 C 0.04512 0.64706 0.72243
 H445 H -0.07969 0.75572 0.78492
 H446 H -0.06929 0.81999 0.80696
 H447 H 0.10740 0.88404 0.80593
 H448 H 0.09724 0.82039 0.78386
 H449 H 0.06173 0.72352 0.77889
 H450 H 0.05627 0.66355 0.75627
 H451 H -0.06532 0.69265 0.73369
 H452 H -0.05944 0.75343 0.75628
 H453 H -0.09435 0.59408 0.72681
 H454 H -0.09387 0.53775 0.70367
 H455 H 0.08499 0.62168 0.70457
 H456 H 0.08432 0.67773 0.72743
   
