data_POSCAR
  _audit_creation_date              2014-09-24
  _audit_creation_method            'ToBaCCo'
  _symmetry_space_group_name_H-M    'P1'
  _symmetry_Int_Tables_number       1
  _symmetry_cell_setting            triclinic
  loop_
  _symmetry_equiv_pos_as_xyz
 x,y,z
_cell_length_a 48.8573
_cell_length_b 31.5126
_cell_length_c 15.6853
_cell_angle_alpha 89.818200
_cell_angle_beta 90.610500
_cell_angle_gamma 89.539300
loop_
  _atom_site_label
  _atom_site_type_symbol
  _atom_site_fract_x
  _atom_site_fract_y
  _atom_site_fract_z
C1 C 0.72125 0.25672 0.52425
 C2 C 0.72375 0.24639 0.43046
 C3 C 0.74505 0.22099 0.40050
 C4 C 0.76664 0.20603 0.45316
 C5 C 0.76748 0.21755 0.54123
 C6 C 0.74525 0.23922 0.57707
 H7 H 0.74557 0.24624 0.64466
 H8 H 0.74382 0.21164 0.33431
 C9 C 0.21721 0.72309 0.54480
 C10 C 0.21395 0.72102 0.44853
 C11 C 0.23364 0.70103 0.39878
 C12 C 0.25784 0.68449 0.43350
 C13 C 0.26298 0.68499 0.52273
 C14 C 0.24339 0.70370 0.57662
 H15 H 0.24624 0.70363 0.64491
 H16 H 0.23065 0.70008 0.33013
 C17 C 0.27326 0.27691 -0.55008
 C18 C 0.27014 0.29307 -0.46681
 C19 C 0.24675 0.28222 -0.42067
 C20 C 0.22751 0.25320 -0.45257
 C21 C 0.23025 0.23808 -0.53811
 C22 C 0.25392 0.24875 -0.58341
 H23 H 0.25657 0.23722 -0.64797
 H24 H 0.24437 0.29459 -0.35670
 C25 C -0.21949 0.77603 -0.52670
 C26 C -0.21955 0.75946 -0.44281
 C27 C -0.24134 0.73467 -0.41532
 C28 C -0.26399 0.72645 -0.46880
 C29 C -0.26315 0.74042 -0.55548
 C30 C -0.24146 0.76644 -0.58177
 H31 H -0.24079 0.77676 -0.64765
 H32 H -0.24141 0.72515 -0.34894
 N33 N -0.02307 0.92834 -0.09070
 N34 N -0.04469 0.90373 -0.09937
 N35 N 0.03510 0.95538 -0.14350
 N36 N 0.05324 0.94381 -0.20071
 N37 N 0.03461 0.92799 -0.08026
 N38 N 0.05253 0.89700 -0.09300
 N39 N -0.02213 0.95592 -0.15344
 N40 N -0.04290 0.95092 -0.20652
 C41 C -0.05666 0.91819 -0.17232
 C42 C 0.06426 0.90783 -0.16786
 N43 N 0.03411 1.07812 -0.10350
 N44 N 0.05541 1.10309 -0.11498
 N45 N -0.02242 1.04665 -0.16799
 N46 N -0.04150 1.05083 -0.22763
 N47 N -0.02358 1.07829 -0.11399
 N48 N -0.04362 1.10482 -0.13511
 N49 N 0.03493 1.04600 -0.15651
 N50 N 0.05672 1.04784 -0.20484
 Mn51 Mn 0.00637 1.00101 -0.15598
 C52 C 0.06922 1.08354 -0.17857
 C53 C -0.05464 1.08709 -0.20602
 N54 N 0.03151 0.93515 0.10356
 N55 N 0.05116 0.90816 0.12554
 N56 N -0.02726 0.96621 0.14679
 N57 N -0.04949 0.96275 0.19383
 N58 N -0.02595 0.93501 0.09158
 N59 N -0.04722 0.90984 0.09887
 N60 N 0.03039 0.96680 0.15783
 N61 N 0.04931 0.96228 0.21794
 Mn62 Mn 0.00434 0.93113 0.00628
 C63 C 0.06211 0.92565 0.19680
 C64 C -0.06163 0.92726 0.16305
 N65 N -0.02653 1.08506 0.06844
 N66 N -0.04837 1.10992 0.06747
 N67 N 0.03024 1.05838 0.14338
 N68 N 0.04883 1.06847 0.20178
 N69 N 0.03076 1.08548 0.07959
 N70 N 0.04934 1.11487 0.09316
 N71 N -0.02762 1.05773 0.13172
 N72 N -0.05037 1.06315 0.17525
 Mn73 Mn 0.00372 1.08224 -0.01738
 Mn74 Mn 0.00143 1.01235 0.14617
 Cl75 Cl 0.00403 1.00665 -0.00505
 C76 C -0.06297 1.09600 0.13454
 C77 C 0.06066 1.10367 0.16892
 N78 N 0.53934 0.57689 -0.09736
 N79 N 0.56186 0.59879 -0.11028
 N80 N 0.48002 0.55783 -0.16070
 N81 N 0.45795 0.56338 -0.20911
 N82 N 0.48252 0.58927 -0.10640
 N83 N 0.46253 0.61718 -0.11709
 N84 N 0.53747 0.54547 -0.15188
 N85 N 0.55887 0.54475 -0.20258
 C86 C 0.57382 0.57824 -0.17602
 C87 C 0.44751 0.60084 -0.18159
 N88 N 0.46937 0.44021 -0.08700
 N89 N 0.44677 0.41813 -0.09857
 N90 N 0.52972 0.45509 -0.14003
 N91 N 0.55107 0.44412 -0.18629
 N92 N 0.52648 0.42817 -0.07692
 N93 N 0.54550 0.39826 -0.07832
 N94 N 0.47262 0.46732 -0.14978
 N95 N 0.45241 0.46434 -0.20587
 Mn96 Mn 0.50497 0.50644 -0.15177
 C97 C 0.43644 0.43362 -0.17304
 C98 C 0.56058 0.40849 -0.14695
 N99 N 0.48022 0.59544 0.07634
 N100 N 0.46041 0.62426 0.07655
 N101 N 0.53382 0.55584 0.14882
 N102 N 0.55425 0.55783 0.20421
 N103 N 0.53735 0.58293 0.08620
 N104 N 0.56028 0.60424 0.09744
 N105 N 0.47677 0.56780 0.13804
 N106 N 0.45453 0.57682 0.18143
 Mn107 Mn 0.50997 0.58665 -0.01037
 C108 C 0.44464 0.61224 0.14268
 C109 C 0.57051 0.58815 0.17149
 N110 N 0.52465 0.43457 0.10592
 N111 N 0.54448 0.40658 0.12042
 N112 N 0.46911 0.47771 0.15062
 N113 N 0.44796 0.47769 0.20224
 N114 N 0.46740 0.44637 0.09597
 N115 N 0.44503 0.42413 0.10884
 N116 N 0.52610 0.46583 0.16091
 N117 N 0.54680 0.45996 0.21433
 Mn118 Mn 0.49693 0.43680 0.00954
 Mn119 Mn 0.50141 0.51687 0.15050
 Cl120 Cl 0.50333 0.51166 -0.00060
 C121 C 0.55795 0.42284 0.18874
 C122 C 0.43312 0.44419 0.17522
 C123 C 0.29640 0.28887 0.39543
 C124 C 0.29974 0.33090 0.36965
 C125 C 0.32336 0.34638 0.32046
 C126 C 0.32901 0.38996 0.32172
 C127 C 0.35164 0.40604 0.27907
 C128 C 0.36915 0.37873 0.23403
 C129 C 0.36292 0.33539 0.22992
 C130 C 0.34031 0.31925 0.27287
 C131 C 0.39388 0.39431 0.19056
 C132 C 0.40758 0.43097 0.21547
 H133 H 0.28509 0.35425 0.39213
 H134 H 0.31604 0.41164 0.35680
 H135 H 0.35514 0.43987 0.28114
 H136 H 0.37584 0.31382 0.19440
 H137 H 0.33622 0.28570 0.26796
 H138 H 0.40266 0.37473 0.14102
 H139 H 0.30981 0.26392 0.37318
 H140 H 0.40033 0.44968 0.26842
 C141 C -0.19541 0.80016 0.44225
 C142 C -0.19661 0.83067 0.37745
 C143 C -0.17219 0.85483 0.35116
 C144 C -0.16942 0.86656 0.26540
 C145 C -0.14615 0.88813 0.23820
 C146 C -0.12537 0.89907 0.29673
 C147 C -0.12877 0.88921 0.38324
 C148 C -0.15184 0.86696 0.41025
 C149 C -0.09998 0.92016 0.26856
 C150 C -0.08784 0.90977 0.19132
 H151 H -0.21559 0.83631 0.34296
 H152 H -0.18505 0.85823 0.21902
 H153 H -0.14449 0.89637 0.17141
 H154 H -0.11323 0.89785 0.42968
 H155 H -0.15382 0.85964 0.47739
 H156 H -0.08935 0.94097 0.31241
 H157 H -0.17584 0.79412 0.47305
 H158 H -0.09699 0.88555 0.15163
 C159 C 0.71778 0.72772 0.38148
 C160 C 0.70505 0.68810 0.38288
 C161 C 0.68301 0.67492 0.32353
 C162 C 0.67606 0.63185 0.32113
 C163 C 0.65361 0.61821 0.27330
 C164 C 0.63735 0.64755 0.22743
 C165 C 0.64495 0.69039 0.22656
 C166 C 0.66747 0.70413 0.27476
 C167 C 0.61209 0.63429 0.18240
 C168 C 0.59627 0.60089 0.21231
 H169 H 0.71200 0.66474 0.42927
 H170 H 0.68778 0.60867 0.35772
 H171 H 0.64893 0.58470 0.27295
 H172 H 0.63281 0.71351 0.19121
 H173 H 0.67192 0.73768 0.27600
 H174 H 0.60468 0.65313 0.12891
 H175 H 0.71559 0.74680 0.32422
 H176 H 0.60228 0.58415 0.26995
 C177 C 0.21000 1.21517 0.41678
 C178 C 0.18184 1.22011 0.42959
 C179 C 0.16115 1.19282 0.38797
 C180 C 0.13499 1.20946 0.37025
 C181 C 0.11478 1.18406 0.33327
 C182 C 0.12016 1.14115 0.31513
 C183 C 0.14604 1.12408 0.33540
 C184 C 0.16650 1.14979 0.37058
 C185 C 0.09897 1.11393 0.27572
 C186 C 0.08165 1.12945 0.21156
 H187 H 0.17455 1.24575 0.46941
 H188 H 0.13025 1.24230 0.38457
 H189 H 0.09479 1.19782 0.32017
 H190 H 0.15054 1.09098 0.32290
 H191 H 0.18624 1.13576 0.38602
 H192 H 0.09839 1.08057 0.29247
 H193 H 0.21622 1.19626 0.36258
 H194 H 0.08448 1.16144 0.18800
 C195 C 0.69588 0.28314 -0.44025
 C196 C 0.69217 0.29328 -0.35514
 C197 C 0.66846 0.31925 -0.32816
 C198 C 0.66308 0.32365 -0.24099
 C199 C 0.64064 0.34763 -0.21376
 C200 C 0.62316 0.36781 -0.27346
 C201 C 0.62896 0.36436 -0.36051
 C202 C 0.65125 0.34009 -0.38781
 C203 C 0.59905 0.39298 -0.24686
 C204 C 0.58480 0.38407 -0.17258
 H205 H 0.70658 0.28182 -0.30724
 H206 H 0.67620 0.30836 -0.19382
 H207 H 0.63729 0.35074 -0.14599
 H208 H 0.61597 0.37998 -0.40761
 H209 H 0.65499 0.33782 -0.45558
 H210 H 0.59130 0.41750 -0.28950
 H211 H 0.70932 0.26952 -0.45461
 H212 H 0.59094 0.35752 -0.13265
 C213 C 0.19525 0.74421 -0.38512
 C214 C 0.16706 0.74579 -0.39740
 C215 C 0.14894 0.76951 -0.33945
 C216 C 0.12376 0.78475 -0.37098
 C217 C 0.10675 0.80939 -0.31966
 C218 C 0.11442 0.81873 -0.23518
 C219 C 0.13909 0.80207 -0.20235
 C220 C 0.15644 0.77810 -0.25439
 C221 C 0.09689 0.84590 -0.18140
 C222 C 0.08362 0.88143 -0.21561
 H223 H 0.15819 0.73224 -0.45464
 H224 H 0.11752 0.77840 -0.43617
 H225 H 0.08752 0.82102 -0.34600
 H226 H 0.14525 0.80857 -0.13718
 H227 H 0.17565 0.76633 -0.22819
 H228 H 0.09547 0.83915 -0.11384
 H229 H 0.20501 0.73409 -0.42526
 H230 H 0.08744 0.89043 -0.28110
 C231 C 0.28714 0.66553 -0.44411
 C232 C 0.29688 0.66814 -0.35998
 C233 C 0.32335 0.64868 -0.33289
 C234 C 0.33779 0.66665 -0.26447
 C235 C 0.36338 0.65052 -0.23954
 C236 C 0.37517 0.61593 -0.28290
 C237 C 0.36018 0.59681 -0.34896
 C238 C 0.33453 0.61285 -0.37365
 C239 C 0.40249 0.59824 -0.25966
 C240 C 0.42168 0.62023 -0.21091
 H241 H 0.28680 0.68830 -0.31429
 H242 H 0.32941 0.69369 -0.23083
 H243 H 0.37353 0.66516 -0.18581
 H244 H 0.36843 0.56951 -0.38204
 H245 H 0.32353 0.59678 -0.42413
 H246 H 0.40779 0.56680 -0.28231
 H247 H 0.29997 0.64819 -0.48757
 H248 H 0.41749 0.65217 -0.18964
 C249 C -0.21000 1.20916 -0.40341
 C250 C -0.18267 1.20851 -0.42965
 C251 C -0.15966 1.19254 -0.37618
 C252 C -0.13706 1.17433 -0.41708
 C253 C -0.11524 1.15724 -0.36974
 C254 C -0.11548 1.15832 -0.28016
 C255 C -0.13759 1.17797 -0.23917
 C256 C -0.15962 1.19469 -0.28660
 C257 C -0.09277 1.13991 -0.22858
 C258 C -0.07745 1.10515 -0.25622
 H259 H -0.17791 1.21734 -0.49455
 H260 H -0.13647 1.17270 -0.48605
 H261 H -0.09811 1.14363 -0.40356
 H262 H -0.13799 1.17981 -0.17023
 H263 H -0.17630 1.20962 -0.25290
 H264 H -0.08894 1.15257 -0.16545
 H265 H -0.21393 1.20681 -0.33579
 H266 H -0.08267 1.08973 -0.31570
 C267 C 0.71181 0.71001 -0.43327
 C268 C 0.71106 0.68501 -0.35945
 C269 C 0.68498 0.67111 -0.32217
 C270 C 0.68310 0.63028 -0.28696
 C271 C 0.65868 0.61675 -0.25031
 C272 C 0.63598 0.64432 -0.24640
 C273 C 0.63811 0.68552 -0.27962
 C274 C 0.66229 0.69868 -0.31819
 C275 C 0.61025 0.63124 -0.20580
 C276 C 0.59988 0.59042 -0.21445
 H277 H 0.72981 0.67198 -0.33250
 H278 H 0.70048 0.60875 -0.28847
 H279 H 0.65777 0.58511 -0.22343
 H280 H 0.62094 0.70739 -0.27640
 H281 H 0.66344 0.73069 -0.34315
 H282 H 0.59812 0.65518 -0.17376
 H283 H 0.69253 0.71603 -0.46596
 H284 H 0.61026 0.56755 -0.25437
 C285 C 0.20808 1.23830 -0.39410
 C286 C 0.19835 1.19677 -0.39449
 C287 C 0.17493 1.18266 -0.34347
 C288 C 0.15847 1.15049 -0.37698
 C289 C 0.13571 1.13641 -0.33284
 C290 C 0.12929 1.15341 -0.25251
 C291 C 0.14565 1.18587 -0.21904
 C292 C 0.16837 1.20039 -0.26397
 C293 C 0.10544 1.13828 -0.20385
 C294 C 0.09459 1.09811 -0.21704
 H295 H 0.20671 1.17419 -0.43932
 H296 H 0.16292 1.13675 -0.43859
 H297 H 0.12301 1.11275 -0.36302
 H298 H 0.14102 1.19966 -0.15763
 H299 H 0.18090 1.22481 -0.23558
 H300 H 0.09640 1.15892 -0.15655
 H301 H 0.20250 1.25869 -0.34156
 H302 H 0.10446 1.07616 -0.25994
 C303 C 0.29202 0.31861 -0.42538
 C304 C 0.29932 0.31314 -0.33957
 C305 C 0.32317 0.33413 -0.29908
 C306 C 0.33382 0.37246 -0.33006
 C307 C 0.35681 0.39065 -0.29128
 C308 C 0.36970 0.37082 -0.22074
 C309 C 0.35843 0.33332 -0.18837
 C310 C 0.33541 0.31524 -0.22695
 C311 C 0.39463 0.38805 -0.17880
 C312 C 0.41121 0.41897 -0.21503
 H313 H 0.28876 0.28941 -0.30248
 H314 H 0.32430 0.38887 -0.38343
 H315 H 0.36404 0.42039 -0.31654
 H316 H 0.36768 0.31760 -0.13356
 H317 H 0.32742 0.28598 -0.20113
 H318 H 0.40088 0.37443 -0.11804
 H319 H 0.30465 0.33848 -0.46456
 H320 H 0.40629 0.43248 -0.27672
 C321 C -0.19798 0.76952 -0.37971
 C322 C -0.19154 0.81156 -0.36173
 C323 C -0.16854 0.82512 -0.30642
 C324 C -0.16296 0.86864 -0.30216
 C325 C -0.14018 0.88321 -0.25724
 C326 C -0.12234 0.85443 -0.21587
 C327 C -0.12864 0.81115 -0.21591
 C328 C -0.15146 0.79645 -0.26123
 C329 C -0.09673 0.86893 -0.17520
 C330 C -0.08225 0.90269 -0.20926
 H331 H -0.20329 0.83615 -0.39435
 H332 H -0.17593 0.89148 -0.33537
 H333 H -0.13644 0.91701 -0.25571
 H334 H -0.11533 0.78853 -0.18344
 H335 H -0.15509 0.76272 -0.26158
 H336 H -0.08813 0.85103 -0.12211
 H337 H -0.18877 0.74354 -0.34436
 H338 H -0.08961 0.91834 -0.26671
 C339 C 0.27819 0.66800 0.37275
 C340 C 0.30313 0.68851 0.36263
 C341 C 0.32675 0.66927 0.31869
 C342 C 0.34774 0.69561 0.28972
 C343 C 0.37158 0.67817 0.25528
 C344 C 0.37495 0.63390 0.25022
 C345 C 0.35391 0.60760 0.27897
 C346 C 0.32998 0.62502 0.31253
 C347 C 0.40069 0.61403 0.22112
 C348 C 0.41912 0.63376 0.16681
 H349 H 0.30588 0.71921 0.39240
 H350 H 0.34589 0.72977 0.29522
 H351 H 0.38767 0.69939 0.23585
 H352 H 0.35619 0.57339 0.27673
 H353 H 0.31463 0.60370 0.33673
 H354 H 0.40494 0.58173 0.24160
 H355 H 0.27339 0.63973 0.33678
 H356 H 0.41444 0.66442 0.13885
 C357 C -0.21413 1.17677 0.41994
 C358 C -0.20657 1.17472 0.33405
 C359 C -0.18211 1.15110 0.30369
 C360 C -0.17180 1.16140 0.22313
 C361 C -0.14749 1.14315 0.19430
 C362 C -0.13273 1.11420 0.24590
 C363 C -0.14373 1.10214 0.32449
 C364 C -0.16817 1.12022 0.35319
 C365 C -0.10598 1.09604 0.22019
 C366 C -0.08965 1.11405 0.15749
 H367 H -0.21613 1.19611 0.28848
 H368 H -0.18230 1.18443 0.18281
 H369 H -0.14049 1.15201 0.13166
 H370 H -0.13310 1.07919 0.36468
 H371 H -0.17571 1.10986 0.41420
 H372 H -0.09825 1.06850 0.25464
 H373 H -0.20310 1.15691 0.46469
 H374 H -0.09615 1.14241 0.12390
 C375 C 0.70237 0.26083 0.36911
 C376 C 0.69262 0.30255 0.36972
 C377 C 0.66873 0.31831 0.31963
 C378 C 0.66347 0.36213 0.31865
 C379 C 0.64009 0.37857 0.27836
 C380 C 0.62116 0.35139 0.23876
 C381 C 0.62681 0.30769 0.23707
 C382 C 0.65025 0.29115 0.27767
 C383 C 0.59551 0.36791 0.19934
 C384 C 0.58277 0.40479 0.22836
 H385 H 0.70289 0.32501 0.41104
 H386 H 0.67739 0.38380 0.35009
 H387 H 0.63699 0.41259 0.27828
 H388 H 0.61264 0.28616 0.20640
 H389 H 0.65328 0.25715 0.27785
 H390 H 0.58580 0.34970 0.14912
 H391 H 0.69541 0.23881 0.32096
 H392 H 0.59118 0.42158 0.28255
 C393 C 0.19027 0.74031 0.40351
 C394 C 0.18137 0.78157 0.42035
 C395 C 0.15875 0.80273 0.37258
 C396 C 0.15654 0.84713 0.37514
 C397 C 0.13581 0.86833 0.32946
 C398 C 0.11666 0.84535 0.28087
 C399 C 0.11869 0.80096 0.27914
 C400 C 0.13930 0.77977 0.32508
 C401 C 0.09479 0.86638 0.22981
 C402 C 0.08459 0.90681 0.24737
 H403 H 0.19233 0.79981 0.46800
 H404 H 0.17118 0.86555 0.41147
 H405 H 0.13530 0.90263 0.33099
 H406 H 0.10410 0.78253 0.24259
 H407 H 0.13965 0.74548 0.32362
 H408 H 0.08533 0.84834 0.17883
 H409 H 0.18215 0.72355 0.34888
 H410 H 0.09220 0.92452 0.30146
   
