data_POSCAR
  _audit_creation_date              2014-09-24
  _audit_creation_method            'ToBaCCo'
  _symmetry_space_group_name_H-M    'P1'
  _symmetry_Int_Tables_number       1
  _symmetry_cell_setting            triclinic
  loop_
  _symmetry_equiv_pos_as_xyz
 x,y,z
_cell_length_a 31.9214
_cell_length_b 34.8767
_cell_length_c 27.8225
_cell_angle_alpha 87.887500
_cell_angle_beta 93.589300
_cell_angle_gamma 90.225900
loop_
  _atom_site_label
  _atom_site_type_symbol
  _atom_site_fract_x
  _atom_site_fract_y
  _atom_site_fract_z
C1 C 1.26512 0.22641 0.28636
 C2 C 1.23180 0.24446 0.25996
 C3 C 1.19907 0.22285 0.23942
 C4 C 1.19956 0.18258 0.24418
 C5 C 1.23387 0.16449 0.27033
 C6 C 1.26686 0.18619 0.29241
 C7 C 1.23424 0.28585 0.24908
 C8 C 1.26591 0.29980 0.22087
 C9 C 1.27104 0.33942 0.21158
 C10 C 1.24387 0.36483 0.23306
 C11 C 1.21216 0.35097 0.26240
 C12 C 1.20717 0.31114 0.26914
 H13 H 1.29074 0.24444 0.29916
 H14 H 1.17498 0.23778 0.21706
 H15 H 1.28717 0.27899 0.20819
 H16 H 1.18352 0.29952 0.29191
 H17 H 1.23459 0.13345 0.27368
 H18 H 1.24690 0.39537 0.22607
 C19 C 0.76419 -0.27386 0.28290
 C20 C 0.73015 -0.25620 0.25738
 C21 C 0.69756 -0.27821 0.23729
 C22 C 0.69882 -0.31848 0.24165
 C23 C 0.73374 -0.33618 0.26709
 C24 C 0.76664 -0.31409 0.28881
 C25 C 0.73142 -0.21473 0.24680
 C26 C 0.76169 -0.20000 0.21716
 C27 C 0.76445 -0.16049 0.20701
 C28 C 0.73723 -0.13559 0.22858
 C29 C 0.70740 -0.15003 0.25993
 C30 C 0.70411 -0.19000 0.26770
 H31 H 0.78963 -0.25548 0.29530
 H32 H 0.67290 -0.26354 0.21551
 H33 H 0.78350 -0.21966 0.20283
 H34 H 0.68163 -0.20203 0.29170
 H35 H 0.73498 -0.36721 0.27021
 H36 H 0.73931 -0.10511 0.22046
 C37 C 0.76329 0.22473 -0.21393
 C38 C 0.73093 0.24347 -0.24120
 C39 C 0.69750 0.22251 -0.26166
 C40 C 0.69626 0.18226 -0.25554
 C41 C 0.72925 0.16362 -0.22772
 C42 C 0.76266 0.18482 -0.20637
 C43 C 0.73426 0.28486 -0.25154
 C44 C 0.76658 0.29873 -0.27884
 C45 C 0.77211 0.33838 -0.28771
 C46 C 0.74475 0.36383 -0.26655
 C47 C 0.71256 0.35005 -0.23790
 C48 C 0.70711 0.31024 -0.23174
 H49 H 0.78964 0.24149 -0.19991
 H50 H 0.67416 0.23781 -0.28471
 H51 H 0.78780 0.27782 -0.29138
 H52 H 0.68298 0.29866 -0.20961
 H53 H 0.72907 0.13267 -0.22283
 H54 H 0.74803 0.39437 -0.27324
 C55 C 1.26372 -0.27450 -0.21557
 C56 C 1.22950 -0.25681 -0.24071
 C57 C 1.19659 -0.27876 -0.26017
 C58 C 1.19779 -0.31900 -0.25572
 C59 C 1.23288 -0.33675 -0.23072
 C60 C 1.26608 -0.31472 -0.20959
 C61 C 1.23095 -0.21546 -0.25183
 C62 C 1.26152 -0.20107 -0.28131
 C63 C 1.26437 -0.16167 -0.29200
 C64 C 1.23690 -0.13652 -0.27129
 C65 C 1.20684 -0.15060 -0.24008
 C66 C 1.20344 -0.19048 -0.23170
 H67 H 1.28938 -0.25618 -0.20364
 H68 H 1.17179 -0.26408 -0.28171
 H69 H 1.28347 -0.22089 -0.29507
 H70 H 1.18074 -0.20224 -0.20777
 H71 H 1.23406 -0.36778 -0.22759
 H72 H 1.23903 -0.10611 -0.27988
 C73 C 0.22451 0.26526 0.72450
 C74 C 0.24204 0.23541 0.75370
 C75 C 0.21590 0.20892 0.77632
 C76 C 0.17159 0.21231 0.77091
 C77 C 0.15470 0.24268 0.74003
 C78 C 0.18096 0.26880 0.71627
 C79 C 0.28818 0.23287 0.76029
 C80 C 0.31059 0.26222 0.78348
 C81 C 0.35481 0.26407 0.78452
 C82 C 0.37583 0.23524 0.76065
 C83 C 0.35370 0.20517 0.73764
 C84 C 0.30972 0.20424 0.73810
 H85 H 0.24533 0.28592 0.70831
 H86 H 0.23062 0.18622 0.79896
 H87 H 0.29279 0.28413 0.79983
 H88 H 0.29194 0.18215 0.71945
 H89 H 0.12135 0.24657 0.73342
 H90 H 0.40917 0.23666 0.75760
 C91 C 0.72659 0.76629 0.72634
 C92 C 0.74326 0.73553 0.75455
 C93 C 0.71657 0.70943 0.77665
 C94 C 0.67245 0.71418 0.77207
 C95 C 0.65627 0.74580 0.74278
 C96 C 0.68300 0.77172 0.71877
 C97 C 0.78930 0.73226 0.76156
 C98 C 0.81179 0.76085 0.78611
 C99 C 0.85577 0.76272 0.78652
 C100 C 0.87690 0.73512 0.76118
 C101 C 0.85484 0.70542 0.73737
 C102 C 0.81081 0.70430 0.73803
 H103 H 0.74869 0.78648 0.71191
 H104 H 0.73078 0.68597 0.79841
 H105 H 0.79448 0.78235 0.80381
 H106 H 0.79297 0.68272 0.71848
 H107 H 0.62296 0.75053 0.73767
 H108 H 0.91022 0.73780 0.75773
 C109 C 0.72436 0.26494 0.22412
 C110 C 0.74185 0.23482 0.25296
 C111 C 0.71569 0.20796 0.27475
 C112 C 0.67156 0.21144 0.26903
 C113 C 0.65450 0.24213 0.23915
 C114 C 0.68078 0.26846 0.21574
 C115 C 0.78790 0.23234 0.26003
 C116 C 0.80999 0.26124 0.28444
 C117 C 0.85403 0.26301 0.28577
 C118 C 0.87553 0.23523 0.26110
 C119 C 0.85384 0.20529 0.23745
 C120 C 0.80980 0.20411 0.23744
 H121 H 0.74522 0.28581 0.20840
 H122 H 0.73006 0.18487 0.29700
 H123 H 0.79237 0.28284 0.30156
 H124 H 0.79226 0.18221 0.21815
 H125 H 0.62102 0.24597 0.23351
 H126 H 0.90889 0.23782 0.25810
 C127 C 0.22611 0.76551 0.22490
 C128 C 0.24270 0.73473 0.25313
 C129 C 0.21596 0.70885 0.27550
 C130 C 0.17188 0.71383 0.27118
 C131 C 0.15575 0.74547 0.24186
 C132 C 0.18253 0.77119 0.21760
 C133 C 0.28872 0.73140 0.26021
 C134 C 0.31114 0.75978 0.28519
 C135 C 0.35513 0.76163 0.28584
 C136 C 0.37634 0.73420 0.26033
 C137 C 0.35434 0.70468 0.23609
 C138 C 0.31029 0.70360 0.23647
 H139 H 0.24828 0.78557 0.21035
 H140 H 0.23014 0.68540 0.29731
 H141 H 0.29376 0.78114 0.30304
 H142 H 0.29250 0.68217 0.21661
 H143 H 0.12245 0.75038 0.23698
 H144 H 0.40969 0.73686 0.25711
 O145 O 1.07462 0.01275 0.06589
 O146 O 0.92766 -0.01321 0.05213
 O147 O 0.97872 0.06611 0.05339
 O148 O 1.01856 -0.06585 0.06193
 O149 O 0.92182 0.05004 0.01713
 O150 O 1.07831 -0.05182 0.03796
 O151 O 0.94795 -0.06826 0.03333
 O152 O 1.05143 0.06808 0.04039
 C153 C 1.07164 0.04758 0.07188
 C154 C 0.92892 -0.04796 0.06092
 C155 C 0.94013 0.06634 0.05150
 C156 C 1.05683 -0.06915 0.06787
 O157 O 1.07326 -0.02240 -0.05394
 O158 O 0.93312 0.02164 -0.07019
 O159 O 1.03196 0.06576 -0.05756
 O160 O 0.97399 -0.06179 -0.05995
 O161 O 0.91683 -0.04141 -0.03782
 O162 O 1.08681 0.04093 -0.02303
 O163 O 1.04266 -0.07373 -0.03103
 O164 O 0.96005 0.07420 -0.04539
 Co165 Co 1.07033 -0.00471 0.00583
 Co166 Co 0.93302 0.00369 -0.00882
 Co167 Co 1.00511 0.06215 -0.00216
 Co168 Co 0.99625 -0.06112 0.00090
 O169 O 1.00132 0.00006 -0.00104
 C170 C 1.06384 -0.05615 -0.06113
 C171 C 0.93783 0.05659 -0.07638
 C172 C 1.07028 0.06174 -0.05638
 C173 C 0.93571 -0.06118 -0.06585
 O174 O 1.07414 0.51284 0.56306
 O175 O 0.92726 0.48807 0.55196
 O176 O 0.97745 0.56685 0.55055
 O177 O 1.01978 0.43539 0.56029
 O178 O 0.92056 0.55090 0.51457
 O179 O 1.07852 0.44834 0.53360
 O180 O 0.94879 0.43277 0.53507
 O181 O 1.04997 0.56826 0.53846
 C182 C 1.07070 0.54760 0.56952
 C183 C 0.92936 0.45349 0.56200
 C184 C 0.93891 0.56739 0.54871
 C185 C 1.05801 0.43167 0.56483
 O186 O 1.07183 0.47880 0.44286
 O187 O 0.93088 0.52052 0.42873
 O188 O 1.03093 0.56562 0.43978
 O189 O 0.97180 0.43828 0.43989
 O190 O 0.91517 0.45789 0.46396
 O191 O 1.08581 0.54186 0.47502
 O192 O 1.04100 0.42722 0.46524
 O193 O 0.95895 0.57353 0.45103
 Co194 Co 1.06949 0.49587 0.50288
 Co195 Co 0.93178 0.50379 0.49053
 Co196 Co 1.00394 0.56235 0.49515
 Co197 Co 0.99578 0.43952 0.49991
 O198 O 1.00036 0.50044 0.49709
 C199 C 1.06276 0.44496 0.43563
 C200 C 0.93598 0.55532 0.42113
 C201 C 1.06930 0.56229 0.44139
 C202 C 0.93347 0.43825 0.43538
 O203 O 0.57288 0.01205 0.56613
 O204 O 0.42646 -0.01437 0.55287
 O205 O 0.47679 0.06518 0.55282
 O206 O 0.51803 -0.06659 0.56234
 O207 O 0.41994 0.04880 0.51691
 O208 O 0.57749 -0.05254 0.53789
 O209 O 0.44746 -0.06939 0.53452
 O210 O 0.54929 0.06723 0.54032
 C211 C 0.56938 0.04686 0.57210
 C212 C 0.42836 -0.04906 0.56205
 C213 C 0.43824 0.06541 0.55104
 C214 C 0.55629 -0.06984 0.56804
 O215 O 0.57206 -0.02298 0.44626
 O216 O 0.43108 0.01953 0.43021
 O217 O 0.53030 0.06428 0.44202
 O218 O 0.47267 -0.06327 0.44081
 O219 O 0.41550 -0.04332 0.46345
 O220 O 0.58513 0.04036 0.47753
 O221 O 0.54163 -0.07453 0.46893
 O222 O 0.45822 0.07240 0.45373
 Co223 Co 0.56893 -0.00541 0.50605
 Co224 Co 0.43145 0.00213 0.49172
 Co225 Co 0.50327 0.06094 0.49737
 Co226 Co 0.49537 -0.06222 0.50145
 O227 O 0.49988 -0.00108 0.49913
 C228 C 0.56299 -0.05682 0.43906
 C229 C 0.43571 0.05441 0.42332
 C230 C 0.56869 0.06070 0.44372
 C231 C 0.43436 -0.06296 0.43525
 O232 O 0.57433 0.51217 0.06222
 O233 O 0.42738 0.48773 0.05109
 O234 O 0.47743 0.56616 0.04940
 O235 O 0.51965 0.43466 0.05927
 O236 O 0.42060 0.55039 0.01322
 O237 O 0.57842 0.44754 0.03265
 O238 O 0.44873 0.43229 0.03445
 O239 O 0.55001 0.56755 0.03752
 C240 C 0.57092 0.54699 0.06854
 C241 C 0.42936 0.45317 0.06128
 C242 C 0.43890 0.56689 0.04738
 C243 C 0.55787 0.43096 0.06387
 O244 O 0.57196 0.47797 -0.05796
 O245 O 0.43103 0.51961 -0.07233
 O246 O 0.53120 0.56482 -0.06119
 O247 O 0.47141 0.43762 -0.06113
 O248 O 0.41498 0.45712 -0.03656
 O249 O 0.58602 0.54106 -0.02582
 O250 O 0.54074 0.42648 -0.03583
 O251 O 0.45923 0.57264 -0.05023
 Co252 Co 0.56959 0.49510 0.00201
 Co253 Co 0.43186 0.50315 -0.01043
 Co254 Co 0.50406 0.56159 -0.00592
 Co255 Co 0.49559 0.43884 -0.00106
 O256 O 0.50042 0.49973 -0.00387
 C257 C 0.56271 0.44417 -0.06527
 C258 C 0.43623 0.55438 -0.08006
 C259 C 0.56959 0.56155 -0.05942
 C260 C 0.43305 0.43738 -0.06525
 C261 C 1.14877 0.10268 0.17689
 C262 C 1.11120 0.11969 0.15804
 N263 N 1.10101 0.15521 0.17158
 C264 C 1.12740 0.17516 0.20171
 C265 C 1.16676 0.15947 0.21789
 N266 N 1.17580 0.12303 0.20574
 N267 N 1.15853 0.06676 0.16419
 C268 C 1.13285 0.04744 0.13258
 C269 C 1.09635 0.06530 0.11154
 N270 N 1.08622 0.10098 0.12527
 H271 H 1.11769 0.20315 0.21208
 H272 H 1.14188 0.01915 0.12229
 C273 C 1.14772 0.60170 0.67546
 C274 C 1.10957 0.61837 0.65789
 N275 N 1.09874 0.65322 0.67310
 C276 C 1.12506 0.67290 0.70359
 C277 C 1.16499 0.65772 0.71835
 N278 N 1.17467 0.62187 0.70462
 N279 N 1.15814 0.56642 0.66115
 C280 C 1.13255 0.54743 0.62916
 C281 C 1.09545 0.56503 0.60936
 N282 N 1.08464 0.60004 0.62468
 H283 H 1.11493 0.70038 0.71525
 H284 H 1.14209 0.51965 0.61761
 C285 C 0.64478 0.10220 0.67838
 C286 C 0.60831 0.11983 0.65739
 N287 N 0.59885 0.15602 0.66911
 C288 C 0.62500 0.17599 0.69948
 C289 C 0.66335 0.15953 0.71790
 N290 N 0.67157 0.12251 0.70754
 N291 N 0.65388 0.06572 0.66736
 C292 C 0.62865 0.04638 0.63534
 C293 C 0.59332 0.06476 0.61219
 N294 N 0.58378 0.10102 0.62428
 H295 H 0.61594 0.20457 0.70828
 H296 H 0.63719 0.01761 0.62643
 C297 C 0.64855 0.60182 0.17344
 C298 C 0.61041 0.61846 0.15576
 N299 N 0.59976 0.65351 0.17049
 C300 C 0.62619 0.67338 0.20065
 C301 C 0.66607 0.65818 0.21561
 N302 N 0.67561 0.62216 0.20231
 N303 N 0.65876 0.56634 0.15961
 C304 C 0.63299 0.54711 0.12801
 C305 C 0.59587 0.56464 0.10813
 N306 N 0.58530 0.59987 0.12295
 H307 H 0.61612 0.70098 0.21198
 H308 H 0.64239 0.51918 0.11683
 C309 C 0.84311 -0.09463 0.15560
 C310 C 0.85839 -0.11655 0.11919
 N311 N 0.84242 -0.15198 0.11140
 C312 C 0.81199 -0.16673 0.13863
 C313 C 0.79686 -0.14512 0.17573
 N314 N 0.81288 -0.10940 0.18301
 N315 N 0.85808 -0.05862 0.16224
 C316 C 0.88727 -0.04333 0.13356
 C317 C 0.90224 -0.06513 0.09674
 N318 N 0.88757 -0.10138 0.09072
 H319 H 0.79936 -0.19474 0.13059
 H320 H 0.89804 -0.01421 0.13879
 C321 C 0.84452 0.40633 0.65773
 C322 C 0.86664 0.38275 0.62849
 N323 N 0.85758 0.34486 0.62748
 C324 C 0.82739 0.32924 0.65440
 C325 C 0.80451 0.35275 0.68398
 N326 N 0.81412 0.39091 0.68438
 N327 N 0.85295 0.44447 0.65800
 C328 C 0.88198 0.46021 0.62946
 C329 C 0.90330 0.43674 0.59894
 N330 N 0.89531 0.39841 0.59963
 H331 H 0.82080 0.29915 0.65047
 H332 H 0.88738 0.49087 0.62949
 C333 C 0.34320 -0.09596 0.65706
 C334 C 0.35891 -0.11801 0.62105
 N335 N 0.34333 -0.15362 0.61353
 C336 C 0.31280 -0.16838 0.64059
 C337 C 0.29714 -0.14655 0.67716
 N338 N 0.31285 -0.11071 0.68425
 N339 N 0.35775 -0.05978 0.66341
 C340 C 0.38687 -0.04441 0.63472
 C341 C 0.40215 -0.06631 0.59819
 N342 N 0.38798 -0.10275 0.59254
 H343 H 0.30045 -0.19653 0.63276
 H344 H 0.39726 -0.01515 0.63964
 C345 C 0.34386 0.40685 0.15677
 C346 C 0.36540 0.38312 0.12713
 N347 N 0.35556 0.34542 0.12562
 C348 C 0.32524 0.33009 0.15256
 C349 C 0.30311 0.35370 0.18276
 N350 N 0.31335 0.39171 0.18350
 N351 N 0.35306 0.44483 0.15746
 C352 C 0.38233 0.46027 0.12899
 C353 C 0.40312 0.43665 0.09816
 N354 N 0.39433 0.39848 0.09840
 H355 H 0.31794 0.30018 0.14819
 H356 H 0.38834 0.49083 0.12934
 C357 C 0.84447 0.11292 -0.16551
 C358 C 0.86567 0.13159 -0.12728
 N359 N 0.85246 0.16650 -0.11484
 C360 C 0.81914 0.18389 -0.13911
 C361 C 0.79794 0.16564 -0.17798
 N362 N 0.81118 0.13033 -0.19003
 N363 N 0.85690 0.07730 -0.17663
 C364 C 0.88903 0.05922 -0.15057
 C365 C 0.90974 0.07766 -0.11168
 N366 N 0.89763 0.11360 -0.10137
 H367 H 0.80906 0.21147 -0.12760
 H368 H 0.89737 0.03029 -0.15906
 C369 C 0.84284 0.61195 0.33184
 C370 C 0.87001 0.63247 0.36306
 N371 N 0.86275 0.67006 0.36937
 C372 C 0.82967 0.68837 0.34579
 C373 C 0.80174 0.66808 0.31415
 N374 N 0.80941 0.63004 0.30851
 N375 N 0.84962 0.57400 0.32650
 C376 C 0.88173 0.55546 0.35200
 C377 C 0.90802 0.57572 0.38483
 N378 N 0.90165 0.61394 0.38902
 H379 H 0.82477 0.71792 0.35402
 H380 H 0.88549 0.52490 0.34828
 C381 C 0.34245 0.11169 0.33503
 C382 C 0.36957 0.13190 0.36663
 N383 N 0.36232 0.16939 0.37358
 C384 C 0.32934 0.18793 0.35016
 C385 C 0.30156 0.16800 0.31800
 N386 N 0.30912 0.13003 0.31183
 N387 N 0.34923 0.07382 0.32906
 C388 C 0.38133 0.05506 0.35429
 C389 C 0.40762 0.07502 0.38743
 N390 N 0.40121 0.11316 0.39227
 H391 H 0.32439 0.21739 0.35884
 H392 H 0.38512 0.02456 0.35008
 C393 C 0.34260 0.61122 -0.16814
 C394 C 0.37020 0.63167 -0.13734
 N395 N 0.36313 0.66925 -0.13078
 C396 C 0.32981 0.68763 -0.15373
 C397 C 0.30143 0.66740 -0.18492
 N398 N 0.30892 0.62938 -0.19081
 N399 N 0.34919 0.57326 -0.17368
 C400 C 0.38152 0.55464 -0.14869
 C401 C 0.40821 0.57482 -0.11619
 N402 N 0.40204 0.61306 -0.11189
 H403 H 0.32508 0.71718 -0.14534
 H404 H 0.38511 0.52407 -0.15247
 C405 C 1.12273 -0.11797 -0.16495
 C406 C 1.13572 -0.08061 -0.15437
 N407 N 1.17014 -0.06565 -0.17433
 C408 C 1.19269 -0.08659 -0.20386
 C409 C 1.18043 -0.12457 -0.21369
 N410 N 1.14533 -0.13893 -0.19407
 N411 N 1.08916 -0.13351 -0.14378
 C412 C 1.06844 -0.11359 -0.11160
 C413 C 1.08218 -0.07656 -0.09981
 N414 N 1.11524 -0.06076 -0.12206
 H415 H 1.22084 -0.07406 -0.21733
 H416 H 1.04216 -0.12686 -0.09461
 C417 C 1.12551 0.38348 0.33432
 C418 C 1.13819 0.42071 0.34581
 N419 N 1.17347 0.43565 0.32769
 C420 C 1.19711 0.41484 0.29910
 C421 C 1.18509 0.37699 0.28824
 N422 N 1.14915 0.36267 0.30607
 N423 N 1.09108 0.36791 0.35372
 C424 C 1.06914 0.38770 0.38498
 C425 C 1.08241 0.42466 0.39762
 N426 N 1.11643 0.44045 0.37716
 H427 H 1.22579 0.42738 0.28706
 H428 H 1.04222 0.37437 0.40060
 C429 C 0.62318 -0.11828 0.33570
 C430 C 0.63580 -0.08084 0.34636
 N431 N 0.67013 -0.06561 0.32646
 C432 C 0.69288 -0.08631 0.29687
 C433 C 0.68095 -0.12434 0.28685
 N434 N 0.64598 -0.13901 0.30649
 N435 N 0.58965 -0.13407 0.35672
 C436 C 0.56860 -0.11431 0.38878
 C437 C 0.58188 -0.07716 0.40059
 N438 N 0.61495 -0.06114 0.37854
 H439 H 0.72091 -0.07353 0.28339
 H440 H 0.54235 -0.12780 0.40561
 C441 C 0.62564 0.38268 -0.16644
 C442 C 0.63842 0.41984 -0.15472
 N443 N 0.67386 0.43469 -0.17253
 C444 C 0.69756 0.41387 -0.20104
 C445 C 0.68544 0.37610 -0.21215
 N446 N 0.64933 0.36187 -0.19463
 N447 N 0.59104 0.36719 -0.14731
 C448 C 0.56904 0.38697 -0.11610
 C449 C 0.58241 0.42386 -0.10324
 N450 N 0.61660 0.43957 -0.12343
 H451 H 0.72636 0.42636 -0.21279
 H452 H 0.54199 0.37371 -0.10069
 C453 C 1.14246 0.13338 -0.14598
 C454 C 1.09866 0.13568 -0.14865
 N455 N 1.07924 0.16248 -0.17866
 C456 C 1.10150 0.18746 -0.20596
 C457 C 1.14601 0.18604 -0.20317
 N458 N 1.16482 0.15839 -0.17300
 N459 N 1.16202 0.10674 -0.11562
 C460 C 1.13965 0.08254 -0.08737
 C461 C 1.09559 0.08516 -0.08930
 N462 N 1.07624 0.11171 -0.12031
 H463 H 1.08385 0.20796 -0.22883
 H464 H 1.15613 0.06194 -0.06311
 C465 C 1.14175 0.63440 0.35282
 C466 C 1.09801 0.63731 0.35060
 N467 N 1.07888 0.66481 0.32137
 C468 C 1.10139 0.68988 0.29446
 C469 C 1.14586 0.68778 0.29682
 N470 N 1.16432 0.65944 0.32616
 N471 N 1.16110 0.60714 0.38239
 C472 C 1.13857 0.58284 0.41030
 C473 C 1.09458 0.58598 0.40878
 N474 N 1.07540 0.61318 0.37856
 H475 H 1.08400 0.71086 0.27204
 H476 H 1.15489 0.56170 0.43392
 C477 C 0.64127 0.13278 0.35536
 C478 C 0.59741 0.13274 0.34934
 N479 N 0.57807 0.15736 0.31624
 C480 C 0.60049 0.18242 0.28920
 C481 C 0.64476 0.18342 0.29577
 N482 N 0.66367 0.15800 0.32878
 N483 N 0.66077 0.10814 0.38839
 C484 C 0.63829 0.08372 0.41616
 C485 C 0.59416 0.08414 0.41108
 N486 N 0.57484 0.10866 0.37739
 H487 H 0.58341 0.20104 0.26319
 H488 H 0.65471 0.06477 0.44261
 C489 C 0.64226 0.63427 -0.14703
 C490 C 0.59849 0.63700 -0.14956
 N491 N 0.57939 0.66454 -0.17874
 C492 C 0.60194 0.68982 -0.20531
 C493 C 0.64643 0.68790 -0.20264
 N494 N 0.66487 0.65952 -0.17335
 N495 N 0.66156 0.60695 -0.11751
 C496 C 0.63898 0.58245 -0.08993
 C497 C 0.59496 0.58542 -0.09175
 N498 N 0.57583 0.61268 -0.12193
 H499 H 0.58455 0.71082 -0.22770
 H500 H 0.65526 0.56128 -0.06632
 C501 C 0.87488 -0.14552 -0.15024
 C502 C 0.91828 -0.14651 -0.13949
 N503 N 0.94089 -0.17670 -0.15293
 C504 C 0.92213 -0.20611 -0.17683
 C505 C 0.87840 -0.20539 -0.18827
 N506 N 0.85610 -0.17476 -0.17436
 N507 N 0.85206 -0.11591 -0.13515
 C508 C 0.87076 -0.08743 -0.10922
 C509 C 0.91430 -0.08857 -0.09808
 N510 N 0.93693 -0.11812 -0.11387
 H511 H 0.94140 -0.22997 -0.18540
 H512 H 0.85182 -0.06455 -0.09682
 C513 C 0.87247 0.35392 0.35116
 C514 C 0.91598 0.35337 0.36115
 N515 N 0.93884 0.32375 0.34668
 C516 C 0.92027 0.29447 0.32240
 C517 C 0.87643 0.29478 0.31154
 N518 N 0.85385 0.32484 0.32657
 N519 N 0.84946 0.38298 0.36733
 C520 C 0.86810 0.41135 0.39352
 C521 C 0.91177 0.41069 0.40372
 N522 N 0.93455 0.38167 0.38693
 H523 H 0.93986 0.27110 0.31305
 H524 H 0.84905 0.43384 0.40666
 C525 C 0.37383 -0.14713 0.35033
 C526 C 0.41725 -0.14799 0.36101
 N527 N 0.44000 -0.17794 0.34714
 C528 C 0.42138 -0.20723 0.32288
 C529 C 0.37764 -0.20663 0.31150
 N530 N 0.35519 -0.17624 0.32585
 N531 N 0.35087 -0.11777 0.36581
 C532 C 0.36945 -0.08939 0.39202
 C533 C 0.41301 -0.09037 0.40304
 N534 N 0.43577 -0.11969 0.38689
 H535 H 0.44077 -0.23089 0.31394
 H536 H 0.35041 -0.06668 0.40466
 C537 C 0.37179 0.35188 -0.14754
 C538 C 0.41554 0.35473 -0.14378
 N539 N 0.43887 0.32804 -0.16400
 C540 C 0.42061 0.29836 -0.18785
 C541 C 0.37625 0.29479 -0.19187
 N542 N 0.35340 0.32225 -0.17127
 N543 N 0.34840 0.37825 -0.12641
 C544 C 0.36701 0.40713 -0.10110
 C545 C 0.41103 0.40967 -0.09664
 N546 N 0.43412 0.38337 -0.11849
 H547 H 0.44129 0.27806 -0.20236
 H548 H 0.34770 0.42734 -0.08387
 C549 C 1.10833 -0.15704 0.16230
 C550 C 1.13326 -0.13695 0.13012
 N551 N 1.17361 -0.14765 0.12676
 C552 C 1.19057 -0.17725 0.15437
 C553 C 1.16602 -0.19774 0.18759
 N554 N 1.12509 -0.18686 0.18992
 N555 N 1.06760 -0.14668 0.16495
 C556 C 1.05063 -0.11744 0.13641
 C557 C 1.07544 -0.09765 0.10342
 N558 N 1.11635 -0.10794 0.10137
 H559 H 1.22238 -0.18513 0.14829
 H560 H 1.01786 -0.11028 0.13872
 C561 C 1.10935 0.34550 0.66193
 C562 C 1.13170 0.35941 0.62301
 N563 N 1.16888 0.34316 0.61453
 C564 C 1.18506 0.31388 0.64341
 C565 C 1.16325 0.30010 0.68317
 N566 N 1.12556 0.31630 0.69107
 N567 N 1.07157 0.36115 0.66958
 C568 C 1.05496 0.38980 0.63982
 C569 C 1.07719 0.40368 0.60061
 N570 N 1.11523 0.38810 0.59336
 H571 H 1.21439 0.30121 0.63477
 H572 H 1.02445 0.40128 0.64632
 C573 C 0.60839 -0.15713 0.66293
 C574 C 0.63326 -0.13690 0.63081
 N575 N 0.67376 -0.14725 0.62774
 C576 C 0.69091 -0.17666 0.65557
 C577 C 0.66638 -0.19732 0.68866
 N578 N 0.62533 -0.18677 0.69073
 N579 N 0.56754 -0.14710 0.66536
 C580 C 0.55038 -0.11806 0.63665
 C581 C 0.57511 -0.09815 0.60369
 N582 N 0.61615 -0.10810 0.60186
 H583 H 0.72284 -0.18426 0.64974
 H584 H 0.51753 -0.11116 0.63881
 C585 C 0.60913 0.34503 0.16128
 C586 C 0.63164 0.35909 0.12257
 N587 N 0.66897 0.34303 0.11433
 C588 C 0.68514 0.31379 0.14325
 C589 C 0.66315 0.29984 0.18279
 N590 N 0.62532 0.31585 0.19046
 N591 N 0.57121 0.36049 0.16867
 C592 C 0.55461 0.38909 0.13882
 C593 C 0.57699 0.40308 0.09979
 N594 N 0.61517 0.38770 0.09282
 H595 H 0.71458 0.30125 0.13478
 H596 H 0.52398 0.40043 0.14509
 C597 C 0.87493 0.13521 0.14386
 C598 C 0.91799 0.12820 0.15266
 N599 N 0.93912 0.14477 0.19032
 C600 C 0.91936 0.16870 0.21908
 C601 C 0.87637 0.17712 0.20936
 N602 N 0.85529 0.15950 0.17210
 N603 N 0.85362 0.11831 0.10653
 C604 C 0.87358 0.09506 0.07715
 C605 C 0.91703 0.08880 0.08500
 N606 N 0.93813 0.10544 0.12294
 H607 H 0.93723 0.18075 0.24918
 H608 H 0.85586 0.08233 0.04734
 C609 C 0.87475 0.63624 0.64219
 C610 C 0.91781 0.62898 0.65049
 N611 N 0.93931 0.64513 0.68821
 C612 C 0.91994 0.66887 0.71754
 C613 C 0.87694 0.67751 0.70843
 N614 N 0.85547 0.66034 0.67105
 N615 N 0.85310 0.61973 0.60479
 C616 C 0.87269 0.59659 0.57492
 C617 C 0.91611 0.59002 0.58235
 N618 N 0.93755 0.60631 0.62032
 H619 H 0.93811 0.68058 0.74765
 H620 H 0.85471 0.58412 0.54511
 C621 C 0.37376 0.13489 0.64367
 C622 C 0.41669 0.12728 0.65255
 N623 N 0.43799 0.14341 0.69043
 C624 C 0.41857 0.16749 0.71932
 C625 C 0.37575 0.17657 0.70953
 N626 N 0.35446 0.15937 0.67204
 N627 N 0.35229 0.11840 0.60611
 C628 C 0.37195 0.09498 0.57662
 C629 C 0.41529 0.08812 0.58455
 N630 N 0.43653 0.10436 0.62271
 H631 H 0.43658 0.17916 0.74957
 H632 H 0.35412 0.08259 0.54665
 C633 C 0.37456 0.63582 0.14063
 C634 C 0.41758 0.62846 0.14913
 N635 N 0.43896 0.64449 0.18701
 C636 C 0.41951 0.66817 0.21635
 C637 C 0.37655 0.67689 0.20706
 N638 N 0.35520 0.65986 0.16949
 N639 N 0.35301 0.61942 0.10307
 C640 C 0.37267 0.59630 0.07324
 C641 C 0.41605 0.58961 0.08089
 N642 N 0.43739 0.60579 0.11901
 H643 H 0.43759 0.67976 0.24660
 H644 H 0.35476 0.58391 0.04331
   
