data_POSCAR
  _audit_creation_date              2014-09-24
  _audit_creation_method            'ToBaCCo'
  _symmetry_space_group_name_H-M    'P1'
  _symmetry_Int_Tables_number       1
  _symmetry_cell_setting            triclinic
  loop_
  _symmetry_equiv_pos_as_xyz
 x,y,z
_cell_length_a 45.2974
_cell_length_b 47.0628
_cell_length_c 45.8928
_cell_angle_alpha 90.040900
_cell_angle_beta 90.788500
_cell_angle_gamma 90.174300
loop_
  _atom_site_label
  _atom_site_type_symbol
  _atom_site_fract_x
  _atom_site_fract_y
  _atom_site_fract_z
C1 C 0.35759 0.37209 1.37083
 C2 C 0.37842 0.37334 1.34852
 C3 C 0.39998 0.35275 1.34674
 C4 C 0.40097 0.33056 1.36711
 C5 C 0.38049 0.32934 1.38900
 C6 C 0.35854 0.35024 1.39083
 C7 C 0.33351 0.38853 1.37723
 N8 N 0.31940 0.37723 1.40068
 C9 C 0.33488 0.35365 1.40897
 C10 C 0.38592 0.30493 1.40460
 N11 N 0.40923 0.29092 1.39268
 C12 C 0.41843 0.30683 1.36962
 C13 C 0.41620 0.35844 1.32233
 N14 N 0.40496 0.38194 1.30900
 C15 C 0.38183 0.39120 1.32503
 H16 H 0.32644 0.40674 1.36464
 H17 H 0.32982 0.33975 1.42697
 H18 H 0.37269 0.29765 1.42255
 H19 H 0.43650 0.30192 1.35536
 H20 H 0.43472 0.34610 1.31483
 H21 H 0.36773 0.40898 1.31955
 C22 C 1.14697 0.62214 0.86782
 C23 C 1.12734 0.62148 0.84387
 C24 C 1.10561 0.64189 0.84131
 C25 C 1.10324 0.66325 0.86240
 C26 C 1.12254 0.66396 0.88584
 C27 C 1.14467 0.64327 0.88853
 C28 C 1.17105 0.60588 0.87538
 N29 N 1.18379 0.61660 0.90023
 C30 C 1.16748 0.63962 0.90823
 C31 C 1.11607 0.68787 0.90176
 N32 N 1.09327 0.70204 0.88849
 C33 C 1.08543 0.68671 0.86430
 C34 C 1.09087 0.63719 0.81542
 N35 N 1.10314 0.61447 0.80190
 C36 C 1.12546 0.60466 0.81930
 H37 H 1.17912 0.58828 0.86265
 H38 H 1.17143 0.65296 0.92706
 H39 H 1.12828 0.69475 0.92090
 H40 H 1.06814 0.69188 0.84877
 H41 H 1.07266 0.64970 0.80701
 H42 H 1.14004 0.58728 0.81404
 C43 C 0.65186 -0.11233 0.13587
 C44 C 0.63127 -0.11292 0.15836
 C45 C 0.61036 -0.13434 0.15940
 C46 C 0.60972 -0.15545 0.13772
 C47 C 0.62995 -0.15470 0.11552
 C48 C 0.65135 -0.13310 0.11472
 C49 C 0.67542 -0.09480 0.13031
 N50 N 0.68972 -0.10442 0.10625
 C51 C 0.67479 -0.12798 0.09666
 C52 C 0.62476 -0.17801 0.09817
 N53 N 0.60178 -0.19332 0.10913
 C54 C 0.59262 -0.17940 0.13353
 C55 C 0.59429 -0.13013 0.18431
 N56 N 0.60495 -0.10666 0.19833
 C57 C 0.62760 -0.09608 0.18249
 H58 H 0.68210 -0.07713 0.14396
 H59 H 0.68016 -0.14074 0.07789
 H60 H 0.63784 -0.18359 0.07951
 H61 H 0.57464 -0.18570 0.14737
 H62 H 0.57624 -0.14329 0.19169
 H63 H 0.64115 -0.07797 0.18852
 C64 C -0.15424 1.11794 -0.37777
 C65 C -0.13295 1.11826 -0.35524
 C66 C -0.11117 1.13890 -0.35489
 C67 C -0.11037 1.15950 -0.37693
 C68 C -0.13124 1.15911 -0.39905
 C69 C -0.15343 1.13824 -0.39941
 C70 C -0.17875 1.10129 -0.38306
 N71 N -0.19322 1.11098 -0.40741
 C72 C -0.17751 1.13371 -0.41740
 C73 C -0.12594 1.18228 -0.41648
 N74 N -0.10233 1.19712 -0.40545
 C75 C -0.09279 1.18297 -0.38113
 C76 C -0.09450 1.13501 -0.32999
 N77 N -0.10560 1.11255 -0.31500
 C78 C -0.12914 1.10215 -0.33042
 H79 H -0.18583 1.08414 -0.36914
 H80 H -0.18274 1.14634 -0.43642
 H81 H -0.13947 1.18824 -0.43504
 H82 H -0.07440 1.18892 -0.36715
 H83 H -0.07572 1.14781 -0.32330
 H84 H -0.14316 1.08477 -0.32366
 C85 C 0.67021 0.61648 0.64105
 C86 C 0.64883 0.61362 0.66270
 C87 C 0.62487 0.63173 0.66296
 C88 C 0.62200 0.65300 0.64177
 C89 C 0.64323 0.65611 0.62077
 C90 C 0.66746 0.63762 0.62028
 C91 C 0.69616 0.60236 0.63572
 N92 N 0.70921 0.61438 0.61221
 C93 C 0.69175 0.63603 0.60271
 C94 C 0.63561 0.67942 0.60427
 N95 N 0.61000 0.69060 0.61456
 C96 C 0.60161 0.67422 0.63754
 C97 C 0.60850 0.62508 0.68702
 N98 N 0.62192 0.60339 0.70153
 C99 C 0.64662 0.59622 0.68669
 H100 H 0.70513 0.58499 0.64847
 H101 H 0.69622 0.64956 0.58422
 H102 H 0.64796 0.68721 0.58592
 H103 H 0.58286 0.67799 0.65134
 H104 H 0.58890 0.63609 0.69404
 H105 H 0.66209 0.57980 0.69302
 C106 C 0.85043 0.38925 0.12224
 C107 C 0.87382 0.39165 0.14244
 C108 C 0.89608 0.37159 0.14283
 C109 C 0.89537 0.34903 0.12285
 C110 C 0.87220 0.34658 0.10319
 C111 C 0.84957 0.36686 0.10289
 C112 C 0.82498 0.40461 0.11805
 N113 N 0.80829 0.39213 0.09655
 C114 C 0.82356 0.36891 0.08726
 C115 C 0.87624 0.32183 0.08788
 N116 N 0.90156 0.30904 0.09751
 C117 C 0.91331 0.32586 0.11898
 C118 C 0.91442 0.37787 0.16611
 N119 N 0.90385 0.40127 0.17981
 C120 C 0.87909 0.40991 0.16535
 H121 H 0.81893 0.42287 0.13091
 H122 H 0.81669 0.35421 0.07038
 H123 H 0.86167 0.31417 0.07073
 H124 H 0.93278 0.32124 0.13202
 H125 H 0.93362 0.36586 0.17300
 H126 H 0.86511 0.42733 0.17191
 C127 C 0.34753 0.11821 0.87353
 C128 C 0.36887 0.11613 0.85179
 C129 C 0.39019 0.13700 0.84920
 C130 C 0.39041 0.16030 0.86827
 C131 C 0.36952 0.16220 0.88986
 C132 C 0.34799 0.14090 0.89258
 C133 C 0.32329 0.10189 0.88002
 N134 N 0.30884 0.11392 0.90282
 C135 C 0.32417 0.13782 0.91062
 C136 C 0.37415 0.18760 0.90410
 N137 N 0.39728 0.20123 0.89162
 C138 C 0.40738 0.18456 0.86971
 C139 C 0.40711 0.13010 0.82556
 N140 N 0.39662 0.10549 0.81373
 C141 C 0.37317 0.09686 0.82972
 H142 H 0.31710 0.08249 0.86886
 H143 H 0.31792 0.15290 0.92721
 H144 H 0.36088 0.19599 0.92153
 H145 H 0.42556 0.18976 0.85560
 H146 H 0.42518 0.14259 0.81714
 H147 H 0.36009 0.07795 0.82566
 C148 C 0.13904 0.88947 0.37035
 C149 C 0.11721 0.89106 0.34845
 C150 C 0.09601 0.86996 0.34593
 C151 C 0.09638 0.84692 0.36534
 C152 C 0.11808 0.84533 0.38678
 C153 C 0.13953 0.86676 0.38925
 C154 C 0.16319 0.90615 0.37696
 N155 N 0.17868 0.89417 0.39954
 C156 C 0.16397 0.86993 0.40704
 C157 C 0.11413 0.82016 0.40137
 N158 N 0.09048 0.80640 0.38945
 C159 C 0.07943 0.82266 0.36740
 C160 C 0.07888 0.87622 0.32178
 N161 N 0.08919 0.90057 0.30953
 C162 C 0.11260 0.90978 0.32588
 H163 H 0.16924 0.92505 0.36508
 H164 H 0.17017 0.85525 0.42412
 H165 H 0.12759 0.81237 0.41931
 H166 H 0.06100 0.81688 0.35334
 H167 H 0.06101 0.86329 0.31313
 H168 H 0.12567 0.92855 0.32155
 Zn169 Zn 0.00259 1.03855 -0.02311
 Zn170 Zn -0.02521 0.98098 -0.02779
 Zn171 Zn 0.03229 0.98896 0.00441
 Zn172 Zn -0.02319 1.01150 0.02946
 O173 O -0.00342 1.00495 -0.00429
 O174 O -0.01478 1.03937 -0.05820
 O175 O -0.00621 0.94836 -0.03529
 O176 O 0.06298 1.00940 -0.00833
 O177 O -0.03463 0.99657 -0.06252
 O178 O 0.04074 1.04587 -0.02943
 O179 O 0.03610 0.95458 -0.01145
 O180 O -0.00312 1.00025 0.06134
 O181 O -0.05966 0.97079 -0.01180
 O182 O 0.03822 0.98394 0.04267
 O183 O -0.05779 0.99331 0.03049
 O184 O -0.03145 1.04827 0.03486
 O185 O -0.01155 1.06847 -0.00370
 C186 C -0.02945 1.02113 -0.07279
 C187 C 0.01910 0.93946 -0.02733
 C188 C 0.06408 1.03249 -0.02254
 C189 C 0.02216 0.98901 0.06451
 C190 C -0.07105 0.97705 0.01251
 C191 C -0.02560 1.07024 0.01997
 Zn192 Zn 0.45889 0.00480 0.51548
 Zn193 Zn 0.48611 -0.04769 0.49235
 Zn194 Zn 0.51669 0.00846 0.48474
 Zn195 Zn 0.51301 -0.01847 0.54376
 O196 O 0.49376 -0.01318 0.50902
 O197 O 0.42738 -0.01508 0.50323
 O198 O 0.50176 -0.05065 0.45709
 O199 O 0.49941 0.04165 0.47502
 O200 O 0.44751 -0.05465 0.48708
 O201 O 0.45672 0.03833 0.49761
 O202 O 0.52444 -0.00943 0.45092
 O203 O 0.54795 -0.00106 0.54499
 O204 O 0.50080 -0.07682 0.51297
 O205 O 0.55187 0.01783 0.50109
 O206 O 0.52104 -0.05500 0.55099
 O207 O 0.49296 -0.00540 0.57443
 O208 O 0.45290 0.01200 0.55314
 C209 C 0.42491 -0.03959 0.49191
 C210 C 0.51704 -0.03395 0.44164
 C211 C 0.47445 0.05195 0.48161
 C212 C 0.56242 0.01305 0.52642
 C213 C 0.51535 -0.07756 0.53679
 C214 C 0.46819 0.00704 0.57592
 Zn215 Zn 0.97544 0.47802 0.48613
 Zn216 Zn 1.03474 0.47491 0.51570
 Zn217 Zn 1.02789 0.50379 0.45793
 Zn218 Zn 1.00284 0.53048 0.51074
 O219 O 1.01027 0.49675 0.49268
 O220 O 0.97461 0.44413 0.50345
 O221 O 1.06904 0.46660 0.49829
 O222 O 1.00719 0.49041 0.42741
 O223 O 1.01834 0.44136 0.52526
 O224 O 0.96826 0.47117 0.44829
 O225 O 1.06347 0.48790 0.45564
 O226 O 1.01441 0.56079 0.49014
 O227 O 1.04448 0.49210 0.54954
 O228 O 1.03346 0.54082 0.45112
 O229 O 1.02130 0.53323 0.54520
 O230 O 0.96451 0.53564 0.51804
 O231 O 0.94406 0.49682 0.49956
 C232 C 0.99322 0.43070 0.51906
 C233 C 1.07871 0.47301 0.47327
 C234 C 0.98286 0.47704 0.42565
 C235 C 1.02711 0.56280 0.46574
 C236 C 1.03781 0.51639 0.55955
 C237 C 0.94187 0.52044 0.51272
 Zn238 Zn 0.47640 0.49567 0.96929
 Zn239 Zn 0.46976 0.52634 1.02617
 Zn240 Zn 0.50464 0.47248 1.02283
 Zn241 Zn 0.52814 0.52530 0.99617
 O242 O 0.49467 0.50503 1.00366
 O243 O 0.44034 0.51045 0.96634
 O244 O 0.46162 0.50954 1.06050
 O245 O 0.49318 0.44100 1.00403
 O246 O 0.43476 0.53295 1.00824
 O247 O 0.47175 0.45811 0.96429
 O248 O 0.48800 0.47020 1.05761
 O249 O 0.56097 0.50836 1.00949
 O250 O 0.48503 0.56069 1.03516
 O251 O 0.54351 0.46902 1.02912
 O252 O 0.52795 0.55963 1.01277
 O253 O 0.53381 0.53090 0.95802
 O254 O 0.49580 0.50822 0.93812
 C255 C 0.42493 0.52548 0.98330
 C256 C 0.47049 0.48618 1.07135
 C257 C 0.47944 0.43719 0.98007
 C258 C 0.56506 0.48506 1.02281
 C259 C 0.50939 0.57236 1.02859
 C260 C 0.51927 0.52276 0.93567
 C261 C 1.27805 0.37093 0.43336
 C262 C 1.25159 0.38081 0.44493
 C263 C 1.24008 0.40724 0.43665
 C264 C 1.25627 0.42417 0.41732
 C265 C 1.28261 0.41431 0.40557
 C266 C 1.29394 0.38729 0.41300
 C267 C 1.21141 0.41646 0.44879
 C268 C 1.19382 0.43552 0.43551
 C269 C 1.16447 0.44442 0.44625
 C270 C 1.14572 0.45917 0.42698
 C271 C 1.11797 0.46834 0.43578
 C272 C 1.10821 0.46305 0.46421
 C273 C 1.12696 0.44843 0.48367
 C274 C 1.15487 0.43931 0.47487
 H275 H 1.28524 0.35003 0.43995
 H276 H 1.23974 0.36743 0.46004
 H277 H 1.24898 0.44527 0.41141
 H278 H 1.29417 0.42844 0.39110
 H279 H 1.20404 0.40579 0.46824
 H280 H 1.20040 0.44423 0.41477
 H281 H 1.15252 0.46357 0.40490
 H282 H 1.10415 0.47957 0.42021
 H283 H 1.12018 0.44424 0.50580
 H284 H 1.16880 0.42871 0.49074
 C285 C 0.22361 0.62273 0.93580
 C286 C 0.24978 0.61303 0.94882
 C287 C 0.26213 0.58703 0.94061
 C288 C 0.24701 0.57028 0.91983
 C289 C 0.22098 0.57998 0.90661
 C290 C 0.20887 0.60663 0.91399
 C291 C 0.29060 0.57814 0.95420
 C292 C 0.30898 0.55966 0.94159
 C293 C 0.33838 0.55137 0.95354
 C294 C 0.35737 0.53638 0.93521
 C295 C 0.38530 0.52800 0.94495
 C296 C 0.39506 0.53436 0.97342
 C297 C 0.37606 0.54915 0.99200
 C298 C 0.34794 0.55748 0.98225
 H299 H 0.21579 0.64335 0.94243
 H300 H 0.26078 0.62626 0.96500
 H301 H 0.25490 0.54944 0.91386
 H302 H 0.21024 0.56604 0.89103
 H303 H 0.29715 0.58867 0.97421
 H304 H 0.30308 0.55101 0.92045
 H305 H 0.35064 0.53122 0.91308
 H306 H 0.39931 0.51661 0.93003
 H307 H 0.38285 0.55417 1.01413
 H308 H 0.33390 0.56835 0.99745
 C309 C -0.27432 0.93380 0.10367
 C310 C -0.24798 0.94479 0.09290
 C311 C -0.23127 0.92947 0.07282
 C312 C -0.24187 0.90286 0.06331
 C313 C -0.26838 0.89187 0.07390
 C314 C -0.28498 0.90692 0.09468
 C315 C -0.20255 0.94171 0.06369
 C316 C -0.18548 0.93108 0.04262
 C317 C -0.15624 0.94330 0.03530
 C318 C -0.14461 0.93828 0.00757
 C319 C -0.11696 0.94918 0.00005
 C320 C -0.10028 0.96524 0.02023
 C321 C -0.11173 0.96989 0.04813
 C322 C -0.13925 0.95892 0.05566
 H323 H -0.28625 0.94687 0.11881
 H324 H -0.24051 0.96541 0.10057
 H325 H -0.22963 0.88993 0.04828
 H326 H -0.27496 0.87103 0.06638
 H327 H -0.19542 0.96081 0.07491
 H328 H -0.19318 0.91339 0.02954
 H329 H -0.15705 0.92602 -0.00840
 H330 H -0.10871 0.94511 -0.02158
 H331 H -0.09929 0.98183 0.06434
 H332 H -0.14673 0.96231 0.07766
 C333 C 0.76497 0.11531 0.55904
 C334 C 0.73805 0.10501 0.54806
 C335 C 0.72598 0.07961 0.55849
 C336 C 0.74206 0.06405 0.57943
 C337 C 0.76890 0.07433 0.59058
 C338 C 0.78082 0.10040 0.58093
 C339 C 0.69684 0.06999 0.54687
 C340 C 0.67890 0.05261 0.56167
 C341 C 0.64910 0.04335 0.55149
 C342 C 0.63065 0.03013 0.57174
 C343 C 0.60259 0.02052 0.56356
 C344 C 0.59214 0.02384 0.53480
 C345 C 0.61050 0.03705 0.51438
 C346 C 0.63876 0.04661 0.52256
 H347 H 0.77256 0.13543 0.55069
 H348 H 0.72629 0.11731 0.53169
 H349 H 0.73429 0.04367 0.58710
 H350 H 0.78032 0.06126 0.60639
 H351 H 0.68949 0.07900 0.52637
 H352 H 0.68563 0.04565 0.58321
 H353 H 0.63798 0.02719 0.59411
 H354 H 0.58908 0.01044 0.57989
 H355 H 0.60317 0.03971 0.49199
 H356 H 0.65237 0.05604 0.50599
 C357 C 0.44115 0.25025 0.38453
 C358 C 0.45176 0.22365 0.39318
 C359 C 0.44222 0.21101 0.41902
 C360 C 0.42261 0.22609 0.43672
 C361 C 0.41185 0.25262 0.42811
 C362 C 0.42056 0.26519 0.40161
 C363 C 0.45350 0.18240 0.42698
 C364 C 0.43879 0.16454 0.44440
 C365 C 0.44885 0.13555 0.45254
 C366 C 0.42869 0.11759 0.46647
 C367 C 0.43695 0.09043 0.47551
 C368 C 0.46570 0.08043 0.47086
 C369 C 0.48595 0.09822 0.45672
 C370 C 0.47770 0.12556 0.44777
 H371 H 0.44873 0.25839 0.36397
 H372 H 0.46713 0.21265 0.37928
 H373 H 0.41576 0.21775 0.45752
 H374 H 0.39711 0.26324 0.44281
 H375 H 0.47364 0.17558 0.41677
 H376 H 0.41748 0.17092 0.45248
 H377 H 0.40638 0.12465 0.47055
 H378 H 0.42076 0.07731 0.48632
 H379 H 0.50834 0.09121 0.45303
 H380 H 0.49424 0.13875 0.43771
 C381 C 0.90003 0.23257 0.55620
 C382 C 0.91065 0.25847 0.54577
 C383 C 0.93053 0.27490 0.56235
 C384 C 0.93980 0.26465 0.58974
 C385 C 0.92935 0.23864 0.60018
 C386 C 0.90892 0.22215 0.58380
 C387 C 0.93963 0.30303 0.55076
 C388 C 0.96201 0.31878 0.56159
 C389 C 0.96959 0.34741 0.55026
 C390 C 0.99815 0.35824 0.55518
 C391 C 1.00595 0.38529 0.54514
 C392 C 0.98523 0.40214 0.53007
 C393 C 0.95652 0.39146 0.52555
 C394 C 0.94871 0.36454 0.53567
 H395 H 0.88508 0.22082 0.54216
 H396 H 0.90310 0.26578 0.52456
 H397 H 0.95446 0.27684 0.60371
 H398 H 0.93672 0.23230 0.62167
 H399 H 0.92745 0.31070 0.53193
 H400 H 0.97604 0.31036 0.57873
 H401 H 1.01456 0.34566 0.56668
 H402 H 1.02822 0.39294 0.54908
 H403 H 0.93988 0.40402 0.51438
 H404 H 0.92613 0.35760 0.53244
 C405 C 0.06125 0.74248 -0.12100
 C406 C 0.04990 0.76874 -0.11256
 C407 C 0.05811 0.78100 -0.08585
 C408 C 0.07720 0.76589 -0.06714
 C409 C 0.08869 0.73965 -0.07553
 C410 C 0.08127 0.72746 -0.10283
 C411 C 0.04597 0.80927 -0.07824
 C412 C 0.05910 0.82698 -0.05912
 C413 C 0.04802 0.85578 -0.05199
 C414 C 0.06732 0.87475 -0.03772
 C415 C 0.05800 0.90194 -0.03000
 C416 C 0.02904 0.91086 -0.03634
 C417 C 0.00962 0.89194 -0.05062
 C418 C 0.01891 0.86463 -0.05822
 H419 H 0.05463 0.73468 -0.14221
 H420 H 0.03498 0.77979 -0.12730
 H421 H 0.08308 0.77396 -0.04576
 H422 H 0.10299 0.72895 -0.06009
 H423 H 0.02659 0.81614 -0.09027
 H424 H 0.07987 0.82085 -0.04908
 H425 H 0.08978 0.86852 -0.03248
 H426 H 0.07353 0.91595 -0.01898
 H427 H -0.01293 0.89807 -0.05551
 H428 H 0.00298 0.85053 -0.06841
 C429 C 0.59880 0.77182 1.07014
 C430 C 0.58822 0.74601 1.05915
 C431 C 0.56902 0.72902 1.07535
 C432 C 0.56036 0.73866 1.10296
 C433 C 0.57079 0.76463 1.11399
 C434 C 0.59057 0.78165 1.09796
 C435 C 0.56001 0.70104 1.06299
 C436 C 0.53871 0.68426 1.07371
 C437 C 0.53144 0.65583 1.06139
 C438 C 0.50351 0.64392 1.06649
 C439 C 0.49614 0.61693 1.05573
 C440 C 0.51667 0.60117 1.03971
 C441 C 0.54471 0.61299 1.03484
 C442 C 0.55209 0.63985 1.04568
 H443 H 0.61316 0.78399 1.05629
 H444 H 0.59527 0.73923 1.03779
 H445 H 0.54615 0.72607 1.11661
 H446 H 0.56393 0.77057 1.13558
 H447 H 0.57141 0.69432 1.04362
 H448 H 0.52540 0.69162 1.09154
 H449 H 0.48729 0.65559 1.07880
 H450 H 0.47440 0.60839 1.06000
 H451 H 0.56121 0.60129 1.02296
 H452 H 0.57426 0.64759 1.04221
 C453 C 0.43063 0.37734 1.26197
 C454 C 0.44022 0.38885 1.23573
 C455 C 0.43404 0.41716 1.22844
 C456 C 0.41849 0.43403 1.24831
 C457 C 0.40907 0.42256 1.27477
 C458 C 0.41493 0.39401 1.28190
 C459 C 0.44486 0.42810 1.20027
 C460 C 0.43234 0.44963 1.18546
 C461 C 0.44235 0.45870 1.15618
 C462 C 0.43561 0.48619 1.14624
 C463 C 0.44457 0.49529 1.11865
 C464 C 0.46040 0.47697 1.10044
 C465 C 0.46663 0.44932 1.11021
 C466 C 0.45755 0.44021 1.13756
 H467 H 0.43519 0.35520 1.26632
 H468 H 0.45221 0.37541 1.22083
 H469 H 0.41407 0.45619 1.24385
 H470 H 0.39758 0.43620 1.28978
 H471 H 0.46343 0.41702 1.19110
 H472 H 0.41399 0.46098 1.19476
 H473 H 0.42356 0.50075 1.15995
 H474 H 0.43929 0.51669 1.11169
 H475 H 0.47833 0.43447 1.09655
 H476 H 0.46206 0.41844 1.14360
 C477 C 0.59876 -0.06654 0.23257
 C478 C 0.59036 -0.05591 0.25964
 C479 C 0.57780 -0.07383 0.28053
 C480 C 0.57406 -0.10284 0.27380
 C481 C 0.58248 -0.11349 0.24671
 C482 C 0.59507 -0.09550 0.22581
 C483 C 0.57017 -0.06175 0.30935
 C484 C 0.54981 -0.07324 0.32677
 C485 C 0.54230 -0.06218 0.35609
 C486 C 0.52624 -0.07995 0.37464
 C487 C 0.51829 -0.07080 0.40236
 C488 C 0.52609 -0.04349 0.41229
 C489 C 0.54205 -0.02554 0.39375
 C490 C 0.55003 -0.03471 0.36591
 H491 H 0.60807 -0.05203 0.21687
 H492 H 0.59363 -0.03353 0.26427
 H493 H 0.56548 -0.11763 0.28962
 H494 H 0.57993 -0.13599 0.24248
 H495 H 0.58175 -0.04266 0.31596
 H496 H 0.53805 -0.09207 0.31955
 H497 H 0.51985 -0.10113 0.36770
 H498 H 0.50593 -0.08521 0.41600
 H499 H 0.54818 -0.00429 0.40066
 H500 H 0.56173 -0.01996 0.35219
 C501 C -0.07953 1.12074 -0.26800
 C502 C -0.06908 1.11105 -0.24106
 C503 C -0.07405 1.08293 -0.23224
 C504 C -0.08940 1.06444 -0.25127
 C505 C -0.09976 1.07413 -0.27838
 C506 C -0.09497 1.10243 -0.28707
 C507 C -0.06217 1.07393 -0.20343
 C508 C -0.07253 1.05186 -0.18807
 C509 C -0.06118 1.04438 -0.15853
 C510 C -0.06505 1.01656 -0.14815
 C511 C -0.05481 1.00885 -0.12033
 C512 C -0.04060 1.02892 -0.10223
 C513 C -0.03719 1.05687 -0.11245
 C514 C -0.04750 1.06457 -0.14012
 H515 H -0.07581 1.14275 -0.27365
 H516 H -0.05730 1.12574 -0.22687
 H517 H -0.09294 1.04239 -0.24569
 H518 H -0.11107 1.05931 -0.29272
 H519 H -0.04448 1.08679 -0.19435
 H520 H -0.08994 1.03865 -0.19717
 H521 H -0.07584 1.00068 -0.16171
 H522 H -0.05792 0.98718 -0.11306
 H523 H -0.02675 1.07299 -0.09893
 H524 H -0.04515 1.08653 -0.14659
 C525 C 1.08070 0.62158 0.75305
 C526 C 1.07209 0.61127 0.72573
 C527 C 1.07764 0.58303 0.71786
 C528 C 1.09180 0.56505 0.73814
 C529 C 1.10029 0.57535 0.76567
 C530 C 1.09476 0.60375 0.77348
 C531 C 1.06733 0.57328 0.68875
 C532 C 1.07889 0.55126 0.67426
 C533 C 1.06873 0.54288 0.64456
 C534 C 1.07326 0.51488 0.63503
 C535 C 1.06354 0.50620 0.60731
 C536 C 1.04916 0.52544 0.58853
 C537 C 1.04535 0.55363 0.59779
 C538 C 1.05519 0.56232 0.62532
 H539 H 1.07656 0.64367 0.75796
 H540 H 1.06122 0.62556 0.71054
 H541 H 1.09573 0.54293 0.73320
 H542 H 1.11062 0.56092 0.78101
 H543 H 1.04974 0.58549 0.67874
 H544 H 1.09621 0.53871 0.68433
 H545 H 1.08398 0.49958 0.64923
 H546 H 1.06694 0.48436 0.60076
 H547 H 1.03483 0.56913 0.58367
 H548 H 1.05246 0.58441 0.63113
 C549 C 0.75468 0.62578 0.58528
 C550 C 0.78157 0.61761 0.57334
 C551 C 0.79121 0.58936 0.57529
 C552 C 0.77354 0.56947 0.58997
 C553 C 0.74667 0.57766 0.60197
 C554 C 0.73689 0.60590 0.59973
 C555 C 0.82026 0.58186 0.56291
 C556 C 0.82771 0.55535 0.55518
 C557 C 0.85702 0.54770 0.54345
 C558 C 0.85973 0.52234 0.52761
 C559 C 0.88714 0.51370 0.51718
 C560 C 0.91256 0.53020 0.52254
 C561 C 0.90986 0.55564 0.53834
 C562 C 0.88247 0.56426 0.54879
 H563 H 0.74808 0.64780 0.58361
 H564 H 0.79490 0.63345 0.56250
 H565 H 0.78055 0.54769 0.59278
 H566 H 0.73344 0.56180 0.61284
 H567 H 0.83547 0.59918 0.55905
 H568 H 0.81146 0.53852 0.55646
 H569 H 0.84056 0.50906 0.52339
 H570 H 0.88844 0.49393 0.50519
 H571 H 0.92905 0.56871 0.54311
 H572 H 0.88161 0.58346 0.56168
 C573 C 0.76344 0.38345 1.06815
 C574 C 0.73529 0.39194 1.05900
 C575 C 0.72375 0.41811 1.06772
 C576 C 0.74084 0.43561 1.08616
 C577 C 0.76895 0.42715 1.09549
 C578 C 0.78089 0.40078 1.08682
 C579 C 0.69339 0.42577 1.05832
 C580 C 0.68385 0.45266 1.05636
 C581 C 0.65331 0.46015 1.04744
 C582 C 0.64802 0.48682 1.03479
 C583 C 0.61943 0.49485 1.02658
 C584 C 0.59542 0.47647 1.03120
 C585 C 0.60067 0.44990 1.04420
 C586 C 0.62928 0.44182 1.05228
 H587 H 0.77082 0.36286 1.06098
 H588 H 0.72241 0.37791 1.04503
 H589 H 0.73240 0.45565 1.09401
 H590 H 0.78111 0.44170 1.10935
 H591 H 0.67887 0.40857 1.05166
 H592 H 0.69919 0.47000 1.06015
 H593 H 0.66612 0.50143 1.03112
 H594 H 0.61612 0.51554 1.01676
 H595 H 0.58264 0.43534 1.04827
 H596 H 0.63233 0.42149 1.06286
 C597 C 0.27384 1.11429 -0.05759
 C598 C 0.24742 1.10476 -0.04549
 C599 C 0.22916 1.08567 -0.06073
 C600 C 0.23828 1.07533 -0.08782
 C601 C 0.26493 1.08432 -0.09971
 C602 C 0.28312 1.10431 -0.08503
 C603 C 0.20100 1.07640 -0.04782
 C604 C 0.17662 1.07224 -0.06413
 C605 C 0.14813 1.06309 -0.05186
 C606 C 0.12185 1.07227 -0.06527
 C607 C 0.09454 1.06297 -0.05516
 C608 C 0.09299 1.04370 -0.03186
 C609 C 0.11932 1.03444 -0.01843
 C610 C 0.14666 1.04418 -0.02821
 H611 H 0.28716 1.12894 -0.04489
 H612 H 0.24099 1.11268 -0.02434
 H613 H 0.22489 1.06007 -0.09978
 H614 H 0.27050 1.07613 -0.12092
 H615 H 0.19994 1.07463 -0.02433
 H616 H 0.17709 1.07701 -0.08722
 H617 H 0.12248 1.08665 -0.08368
 H618 H 0.07464 1.07030 -0.06610
 H619 H 0.11879 1.01952 -0.00049
 H620 H 0.16659 1.03624 -0.01785
 C621 C 0.21598 -0.06879 0.40440
 C622 C 0.24269 -0.05900 0.41627
 C623 C 0.25916 -0.07587 0.43559
 C624 C 0.24783 -0.10247 0.44369
 C625 C 0.22106 -0.11231 0.43199
 C626 C 0.20464 -0.09584 0.41176
 C627 C 0.28765 -0.06480 0.44717
 C628 C 0.30981 -0.08165 0.45615
 C629 C 0.33887 -0.07056 0.46619
 C630 C 0.36385 -0.08785 0.46342
 C631 C 0.39176 -0.07793 0.47197
 C632 C 0.39523 -0.05055 0.48382
 C633 C 0.37008 -0.03353 0.48737
 C634 C 0.34219 -0.04342 0.47871
 H635 H 0.20433 -0.05467 0.38976
 H636 H 0.25071 -0.03819 0.41002
 H637 H 0.25942 -0.11572 0.45931
 H638 H 0.21388 -0.13315 0.43870
 H639 H 0.29104 -0.04204 0.44633
 H640 H 0.30750 -0.10448 0.45424
 H641 H 0.36184 -0.10895 0.45413
 H642 H 0.41065 -0.09165 0.46910
 H643 H 0.37193 -0.01244 0.49668
 H644 H 0.32332 -0.02985 0.48214
 C645 C 0.56632 -0.27971 0.61212
 C646 C 0.55215 -0.25507 0.60239
 C647 C 0.56717 -0.23522 0.58538
 C648 C 0.59626 -0.24095 0.57713
 C649 C 0.61032 -0.26583 0.58631
 C650 C 0.59580 -0.28554 0.60443
 C651 C 0.55195 -0.20891 0.57617
 C652 C 0.56610 -0.18394 0.57461
 C653 C 0.55136 -0.15720 0.56596
 C654 C 0.56206 -0.13146 0.57738
 C655 C 0.54966 -0.10566 0.56863
 C656 C 0.52670 -0.10504 0.54774
 C657 C 0.51589 -0.13084 0.53634
 C658 C 0.52800 -0.15671 0.54546
 H659 H 0.55368 -0.29436 0.62513
 H660 H 0.52952 -0.25126 0.60862
 H661 H 0.60816 -0.22627 0.56340
 H662 H 0.63294 -0.26885 0.57987
 H663 H 0.52830 -0.20983 0.57250
 H664 H 0.58910 -0.18267 0.58134
 H665 H 0.58018 -0.13133 0.59305
 H666 H 0.55864 -0.08613 0.57763
 H667 H 0.49831 -0.13102 0.52011
 H668 H 0.51971 -0.17617 0.53575
 C669 C 1.04944 0.77248 0.39659
 C670 C 1.03906 0.74589 0.40553
 C671 C 1.05881 0.72503 0.41555
 C672 C 1.08913 0.73149 0.41711
 C673 C 1.09944 0.75813 0.40850
 C674 C 1.07973 0.77889 0.39810
 C675 C 1.04719 0.69723 0.42530
 C676 C 1.06271 0.67313 0.42311
 C677 C 1.05191 0.64525 0.43351
 C678 C 1.06258 0.62047 0.42040
 C679 C 1.05406 0.59372 0.43049
 C680 C 1.03504 0.59118 0.45430
 C681 C 1.02437 0.61602 0.46749
 C682 C 1.03266 0.64280 0.45718
 H683 H 1.03376 0.78822 0.38902
 H684 H 1.01558 0.74151 0.40445
 H685 H 1.10489 0.71621 0.42550
 H686 H 1.12290 0.76244 0.40976
 H687 H 1.02484 0.69654 0.43335
 H688 H 1.08380 0.67349 0.41228
 H689 H 1.07764 0.62181 0.40231
 H690 H 1.06281 0.57501 0.41995
 H691 H 1.00979 0.61477 0.48596
 H692 H 1.02465 0.66146 0.46832
 C693 C -0.05788 1.27561 0.09455
 C694 C -0.04663 1.24967 0.08493
 C695 C -0.06449 1.23073 0.06907
 C696 C -0.09359 1.23855 0.06204
 C697 C -0.10478 1.26466 0.07116
 C698 C -0.08725 1.28364 0.08791
 C699 C -0.05209 1.20330 0.05948
 C700 C -0.06837 1.17953 0.05787
 C701 C -0.05624 1.15189 0.04861
 C702 C -0.06821 1.12684 0.06010
 C703 C -0.05784 1.10033 0.05123
 C704 C -0.03571 1.09834 0.03017
 C705 C -0.02389 1.12344 0.01846
 C706 C -0.03395 1.14998 0.02768
 H707 H -0.04307 1.28950 0.10653
 H708 H -0.02396 1.24423 0.09022
 H709 H -0.10771 1.22463 0.04919
 H710 H -0.12750 1.26929 0.06562
 H711 H -0.02862 1.20239 0.05534
 H712 H -0.09107 1.17991 0.06503
 H713 H -0.08557 1.12781 0.07606
 H714 H -0.06754 1.08137 0.06048
 H715 H -0.00689 1.12258 0.00211
 H716 H -0.02480 1.16890 0.01787
 C717 C 0.42112 0.24667 0.87824
 C718 C 0.43098 0.27396 0.88554
 C719 C 0.42843 0.28424 0.91409
 C720 C 0.41536 0.26673 0.93520
 C721 C 0.40544 0.23945 0.92788
 C722 C 0.40818 0.22910 0.89932
 C723 C 0.43840 0.31364 0.92064
 C724 C 0.44606 0.32251 0.94749
 C725 C 0.45543 0.35202 0.95437
 C726 C 0.47169 0.35698 0.98012
 C727 C 0.47993 0.38454 0.98818
 C728 C 0.47186 0.40788 0.97074
 C729 C 0.45564 0.40297 0.94489
 C730 C 0.44741 0.37537 0.93681
 H731 H 0.42307 0.23958 0.85592
 H732 H 0.44062 0.28712 0.86878
 H733 H 0.41212 0.27413 0.95724
 H734 H 0.39567 0.22643 0.94463
 H735 H 0.44055 0.32799 0.90238
 H736 H 0.44659 0.30738 0.96524
 H737 H 0.47797 0.33944 0.99415
 H738 H 0.49233 0.38756 1.00829
 H739 H 0.44885 0.42050 0.93110
 H740 H 0.43410 0.37262 0.91727
 C741 C 0.63305 0.58017 0.74879
 C742 C 0.62397 0.57011 0.77589
 C743 C 0.59409 0.57089 0.78359
 C744 C 0.57342 0.58205 0.76351
 C745 C 0.58250 0.59209 0.73643
 C746 C 0.61244 0.59150 0.72882
 C747 C 0.58568 0.56140 0.81318
 C748 C 0.55816 0.55363 0.82021
 C749 C 0.54941 0.54532 0.85005
 C750 C 0.52365 0.52911 0.85349
 C751 C 0.51398 0.52161 0.88123
 C752 C 0.52978 0.53039 0.90625
 C753 C 0.55551 0.54675 0.90286
 C754 C 0.56519 0.55424 0.87510
 H755 H 0.65633 0.57981 0.74385
 H756 H 0.64040 0.56191 0.79103
 H757 H 0.55031 0.58386 0.76879
 H758 H 0.56605 0.60050 0.72149
 H759 H 0.60317 0.56009 0.82942
 H760 H 0.54128 0.55233 0.80335
 H761 H 0.51092 0.52220 0.83461
 H762 H 0.49402 0.50906 0.88305
 H763 H 0.56806 0.55405 0.92170
 H764 H 0.58459 0.56756 0.87351
 C765 C 0.43743 0.09485 0.78016
 C766 C 0.44802 0.08198 0.75493
 C767 C 0.42918 0.06577 0.73693
 C768 C 0.39965 0.06187 0.74526
 C769 C 0.38907 0.07475 0.77048
 C770 C 0.40775 0.09160 0.78811
 C771 C 0.44115 0.05318 0.70992
 C772 C 0.42423 0.04655 0.68664
 C773 C 0.43610 0.03569 0.65883
 C774 C 0.41910 0.03922 0.63331
 C775 C 0.42944 0.02977 0.60649
 C776 C 0.45700 0.01629 0.60458
 C777 C 0.47378 0.01214 0.63022
 C778 C 0.46343 0.02165 0.65709
 H779 H 0.45257 0.10721 0.79354
 H780 H 0.47095 0.08502 0.74925
 H781 H 0.38463 0.04876 0.73256
 H782 H 0.36609 0.07184 0.77586
 H783 H 0.46489 0.05126 0.70862
 H784 H 0.40083 0.05104 0.68704
 H785 H 0.39786 0.04970 0.63406
 H786 H 0.41587 0.03319 0.58722
 H787 H 0.49498 0.00160 0.62952
 H788 H 0.47677 0.01766 0.67637
 C789 C 0.04900 0.90935 0.27355
 C790 C 0.03888 0.92100 0.24725
 C791 C 0.05795 0.93671 0.22952
 C792 C 0.08718 0.94137 0.23919
 C793 C 0.09730 0.92969 0.26545
 C794 C 0.07842 0.91334 0.28286
 C795 C 0.04651 0.94802 0.20139
 C796 C 0.06394 0.95418 0.17881
 C797 C 0.05270 0.96396 0.15002
 C798 C 0.07054 0.96011 0.12558
 C799 C 0.06077 0.96850 0.09791
 C800 C 0.03294 0.98119 0.09405
 C801 C 0.01533 0.98571 0.11861
 C802 C 0.02511 0.97728 0.14632
 H803 H 0.03372 0.89733 0.28667
 H804 H 0.01615 0.91741 0.24053
 H805 H 0.10234 0.95415 0.22673
 H806 H 0.12011 0.93312 0.27180
 H807 H 0.02279 0.94946 0.19875
 H808 H 0.08740 0.95017 0.18062
 H809 H 0.09199 0.95018 0.12783
 H810 H 0.07496 0.96481 0.07950
 H811 H -0.00611 0.99567 0.11642
 H812 H 0.01110 0.98153 0.16470
 C813 C 0.91332 0.44266 0.21170
 C814 C 0.92334 0.45419 0.23814
 C815 C 0.93481 0.43652 0.26010
 C816 C 0.93720 0.40719 0.25474
 C817 C 0.92753 0.39574 0.22819
 C818 C 0.91519 0.41330 0.20653
 C819 C 0.94464 0.44921 0.28810
 C820 C 0.94246 0.43534 0.31349
 C821 C 0.95219 0.44756 0.34175
 C822 C 0.93875 0.43804 0.36733
 C823 C 0.94821 0.44813 0.39454
 C824 C 0.97170 0.46762 0.39676
 C825 C 0.98517 0.47717 0.37112
 C826 C 0.97550 0.46729 0.34389
 H827 H 0.90421 0.45668 0.19521
 H828 H 0.92164 0.47689 0.24166
 H829 H 0.94673 0.39310 0.27093
 H830 H 0.92911 0.37303 0.22484
 H831 H 0.95225 0.47104 0.28788
 H832 H 0.93195 0.41464 0.31388
 H833 H 0.92091 0.42267 0.36624
 H834 H 0.93750 0.44021 0.41388
 H835 H 1.00342 0.49207 0.37211
 H836 H 0.98690 0.47450 0.32468
   
