data_POSCAR
  _audit_creation_date              2014-09-24
  _audit_creation_method            'ToBaCCo'
  _symmetry_space_group_name_H-M    'P1'
  _symmetry_Int_Tables_number       1
  _symmetry_cell_setting            triclinic
  loop_
  _symmetry_equiv_pos_as_xyz
 x,y,z
_cell_length_a 56.2801
_cell_length_b 55.7750
_cell_length_c 55.3498
_cell_angle_alpha 89.786100
_cell_angle_beta 89.987100
_cell_angle_gamma 87.567300
loop_
  _atom_site_label
  _atom_site_type_symbol
  _atom_site_fract_x
  _atom_site_fract_y
  _atom_site_fract_z
C1 C 0.60427 0.62295 0.63903
 C2 C 0.58514 0.63994 0.63841
 C3 C 0.58289 0.65671 0.61943
 C4 C 0.59992 0.65621 0.60084
 C5 C 0.61923 0.63950 0.60133
 C6 C 0.62155 0.62294 0.62062
 C7 C 0.60638 0.60607 0.65785
 C8 C 0.62576 0.58909 0.65890
 C9 C 0.64321 0.58977 0.64052
 C10 C 0.64116 0.60640 0.62149
 C11 C 0.65836 0.60655 0.60312
 C12 C 0.65601 0.62282 0.58375
 C13 C 0.63637 0.63920 0.58293
 H14 H 0.57184 0.64000 0.65259
 H15 H 0.59841 0.66920 0.58624
 H16 H 0.59322 0.60694 0.67211
 H17 H 0.65792 0.57664 0.64014
 H18 H 0.67342 0.59378 0.60365
 H19 H 0.63466 0.65195 0.56812
 C20 C 0.89646 0.37466 0.14428
 C21 C 0.91549 0.35768 0.14264
 C22 C 0.91598 0.33972 0.12468
 C23 C 0.89686 0.33943 0.10814
 C24 C 0.87797 0.35663 0.10928
 C25 C 0.87769 0.37426 0.12746
 C26 C 0.89584 0.39194 0.16264
 C27 C 0.87692 0.40911 0.16411
 C28 C 0.85845 0.40891 0.14708
 C29 C 0.85861 0.39147 0.12888
 C30 C 0.83996 0.39090 0.11213
 C31 C 0.84024 0.37352 0.09381
 C32 C 0.85932 0.35650 0.09244
 H33 H 0.92934 0.35794 0.15621
 H34 H 0.89699 0.32646 0.09362
 H35 H 0.91020 0.39225 0.17569
 H36 H 0.84378 0.42209 0.14829
 H37 H 0.82533 0.40416 0.11312
 H38 H 0.85944 0.34293 0.07845
 C39 C 0.39872 0.13406 -0.14287
 C40 C 0.41560 0.15187 -0.14308
 C41 C 0.41493 0.17013 -0.12562
 C42 C 0.39715 0.17041 -0.10776
 C43 C 0.38006 0.15283 -0.10741
 C44 C 0.38081 0.13462 -0.12508
 C45 C 0.39944 0.11583 -0.16029
 C46 C 0.38225 0.09804 -0.16058
 C47 C 0.36436 0.09902 -0.14262
 C48 C 0.36362 0.11699 -0.12495
 C49 C 0.34594 0.11752 -0.10707
 C50 C 0.34510 0.13553 -0.08934
 C51 C 0.36221 0.15318 -0.08970
 H52 H 0.42946 0.15139 -0.15670
 H53 H 0.39639 0.18456 -0.09438
 H54 H 0.41291 0.11632 -0.17423
 H55 H 0.35142 0.08523 -0.14153
 H56 H 0.33259 0.10407 -0.10712
 H57 H 0.36182 0.16700 -0.07597
 C58 C 0.10687 0.86634 0.35556
 C59 C 0.09047 0.84811 0.35501
 C60 C 0.09198 0.82879 0.37161
 C61 C 0.11059 0.82819 0.38879
 C62 C 0.12676 0.84662 0.38987
 C63 C 0.12487 0.86581 0.37327
 C64 C 0.10558 0.88509 0.33858
 C65 C 0.12175 0.90357 0.33941
 C66 C 0.13922 0.90333 0.35753
 C67 C 0.14099 0.88449 0.37438
 C68 C 0.15868 0.88397 0.39222
 C69 C 0.16062 0.86494 0.40893
 C70 C 0.14464 0.84628 0.40756
 H71 H 0.07710 0.84865 0.34094
 H72 H 0.11191 0.81407 0.40226
 H73 H 0.09188 0.88546 0.32479
 H74 H 0.15176 0.91755 0.35814
 H75 H 0.17116 0.89823 0.39293
 H76 H 0.14586 0.83170 0.42056
 N77 N 0.09901 0.15561 0.11239
 N78 N 0.08795 0.14387 0.12937
 C79 C 0.06749 0.15600 0.13491
 C80 C 0.06577 0.17654 0.12085
 C81 C 0.08614 0.17577 0.10682
 H82 H 0.05482 0.15044 0.14828
 H83 H 0.09087 0.18857 0.09309
 Cu84 Cu 0.10147 0.11404 0.14273
 Cu85 Cu 0.12833 0.14296 0.09757
 Cu86 Cu 0.15107 0.08812 0.11900
 N87 N 0.11490 0.08378 0.15518
 N88 N 0.13389 0.07337 0.14533
 C89 C 0.13935 0.05274 0.15717
 C90 C 0.12304 0.05020 0.17561
 C91 C 0.10778 0.07024 0.17382
 H92 H 0.15451 0.04086 0.15317
 H93 H 0.09263 0.07458 0.18525
 N94 N 0.16599 0.10594 0.09263
 N95 N 0.15765 0.12703 0.08482
 C96 C 0.17186 0.13461 0.06700
 C97 C 0.19001 0.11745 0.06337
 C98 C 0.18568 0.09955 0.07999
 H99 H 0.16894 0.15120 0.05709
 H100 H 0.19620 0.08313 0.08282
 H101 H 0.12215 0.10736 0.10450
 H102 H 0.14056 0.12314 0.12700
 N103 N 0.39804 0.84061 0.62036
 N104 N 0.40771 0.85100 0.63899
 C105 C 0.42700 0.83769 0.64612
 C106 C 0.42963 0.81794 0.63108
 C107 C 0.41089 0.82045 0.61494
 H108 H 0.43839 0.84215 0.66102
 H109 H 0.40667 0.80836 0.60049
 Cu110 Cu 0.39419 0.88089 0.65218
 Cu111 Cu 0.36941 0.85374 0.60468
 Cu112 Cu 0.34346 0.90561 0.62897
 N113 N 0.37890 0.90973 0.66587
 N114 N 0.35886 0.91898 0.65702
 C115 C 0.35196 0.93836 0.67004
 C116 C 0.36861 0.94157 0.68802
 C117 C 0.38549 0.92305 0.68479
 H118 H 0.33617 0.94952 0.66647
 H119 H 0.40120 0.91937 0.69565
 N120 N 0.33053 0.88949 0.60055
 N121 N 0.34040 0.86970 0.59132
 C122 C 0.32760 0.86318 0.57206
 C123 C 0.30876 0.87969 0.56893
 C124 C 0.31124 0.89612 0.58736
 H125 H 0.33188 0.84773 0.56091
 H126 H 0.29975 0.91170 0.59100
 H127 H 0.37360 0.88917 0.61405
 H128 H 0.35596 0.87072 0.63522
 N129 N 0.90197 0.66728 0.38344
 N130 N 0.91229 0.65673 0.36476
 C131 C 0.93124 0.66919 0.35814
 C132 C 0.93268 0.68870 0.37334
 C133 C 0.91378 0.68697 0.38913
 H134 H 0.94292 0.66468 0.34318
 H135 H 0.90927 0.69890 0.40395
 Cu136 Cu 0.89958 0.62819 0.35039
 Cu137 Cu 0.87468 0.65416 0.39960
 Cu138 Cu 0.85127 0.60354 0.37438
 N139 N 0.88527 0.60065 0.33571
 N140 N 0.86680 0.59071 0.34550
 C141 C 0.86091 0.57179 0.33206
 C142 C 0.87635 0.56994 0.31264
 C143 C 0.89153 0.58859 0.31550
 H144 H 0.84621 0.56050 0.33585
 H145 H 0.90621 0.59283 0.30385
 N146 N 0.83803 0.61917 0.40358
 N147 N 0.84719 0.63823 0.41339
 C148 C 0.83469 0.64427 0.43337
 C149 C 0.81667 0.62839 0.43616
 C150 C 0.81929 0.61276 0.41691
 H151 H 0.83824 0.65928 0.44493
 H152 H 0.80854 0.59760 0.41316
 H153 H 0.88080 0.61896 0.38887
 H154 H 0.86123 0.63841 0.36898
 N155 N 0.59639 0.34292 -0.10668
 N156 N 0.58639 0.35214 -0.12625
 C157 C 0.56693 0.33992 -0.13152
 C158 C 0.56455 0.32210 -0.11429
 C159 C 0.58358 0.32462 -0.09877
 H160 H 0.55539 0.34366 -0.14679
 H161 H 0.58821 0.31353 -0.08327
 Cu162 Cu 0.60012 0.37886 -0.14321
 Cu163 Cu 0.62601 0.35437 -0.09371
 Cu164 Cu 0.65182 0.40069 -0.12487
 N165 N 0.61421 0.40556 -0.15986
 N166 N 0.63469 0.41366 -0.15290
 C167 C 0.64039 0.43200 -0.16735
 C168 C 0.62247 0.43573 -0.18425
 C169 C 0.60613 0.41858 -0.17893
 H170 H 0.65614 0.44225 -0.16530
 H171 H 0.58964 0.41576 -0.18829
 N172 N 0.66628 0.38533 -0.09597
 N173 N 0.65604 0.36831 -0.08362
 C174 C 0.66971 0.36229 -0.06438
 C175 C 0.68959 0.37605 -0.06473
 C176 C 0.68683 0.39042 -0.08504
 H177 H 0.66572 0.34865 -0.05124
 H178 H 0.69871 0.40393 -0.09109
 H179 H 0.62219 0.38902 -0.10703
 H180 H 0.63877 0.36658 -0.12630
 C181 C -0.04174 0.32782 0.13098
 C182 C -0.02299 0.31062 0.12996
 C183 C -0.02687 0.28737 0.12205
 C184 C -0.04970 0.28159 0.11446
 C185 C -0.06840 0.29889 0.11488
 C186 C -0.06489 0.32232 0.12346
 N187 N -0.00743 0.26997 0.12197
 N188 N -0.01071 0.24757 0.12087
 C189 C 0.00868 0.23011 0.12051
 C190 C 0.00424 0.20617 0.12582
 C191 C 0.02284 0.18877 0.12613
 C192 C 0.04614 0.19499 0.12054
 C193 C 0.05051 0.21894 0.11474
 C194 C 0.03196 0.23644 0.11496
 H195 H -0.03771 0.34568 0.13683
 H196 H -0.00538 0.31535 0.13562
 H197 H -0.05310 0.26369 0.10821
 H198 H -0.08583 0.29337 0.10955
 H199 H -0.01365 0.20107 0.13003
 H200 H 0.01893 0.17039 0.13042
 H201 H 0.06833 0.22422 0.11045
 H202 H 0.03577 0.25483 0.11064
 C203 C 0.55056 0.68042 0.59767
 C204 C 0.53226 0.69816 0.59730
 C205 C 0.52618 0.71091 0.61829
 C206 C 0.53842 0.70548 0.63989
 C207 C 0.55662 0.68762 0.64032
 C208 C 0.56299 0.67502 0.61917
 N209 N 0.50775 0.72940 0.61709
 N210 N 0.50239 0.74277 0.63503
 C211 C 0.48401 0.76131 0.63370
 C212 C 0.47996 0.77624 0.65365
 C213 C 0.46234 0.79468 0.65285
 C214 C 0.44834 0.79840 0.63201
 C215 C 0.45240 0.78326 0.61203
 C216 C 0.47010 0.76493 0.61283
 H217 H 0.55491 0.67082 0.58118
 H218 H 0.52291 0.70214 0.58057
 H219 H 0.53403 0.71508 0.65636
 H220 H 0.56606 0.68400 0.65707
 H221 H 0.49054 0.77362 0.66986
 H222 H 0.45959 0.80582 0.66864
 H223 H 0.44214 0.78571 0.59561
 H224 H 0.47290 0.75363 0.59714
 C225 C 1.08128 0.78687 0.37857
 C226 C 1.06450 0.76909 0.37834
 C227 C 1.04102 0.77463 0.37151
 C228 C 1.03453 0.79811 0.36421
 C229 C 1.05137 0.81580 0.36380
 C230 C 1.07507 0.81062 0.37125
 N231 N 1.02411 0.75618 0.37206
 N232 N 1.00182 0.76105 0.37245
 C233 C 0.98482 0.74267 0.37249
 C234 C 0.96149 0.74841 0.37984
 C235 C 0.94455 0.73079 0.38037
 C236 C 0.95060 0.70728 0.37291
 C237 C 0.97393 0.70164 0.36511
 C238 C 0.99099 0.71914 0.36514
 H239 H 1.09933 0.78159 0.38362
 H240 H 1.06977 0.75096 0.38376
 H241 H 1.01643 0.80277 0.35878
 H242 H 1.04533 0.83379 0.35872
 H243 H 0.95651 0.76652 0.38544
 H244 H 0.92665 0.73565 0.38626
 H245 H 0.97907 0.68362 0.35939
 H246 H 1.00890 0.71437 0.35922
 C247 C 0.43890 0.19985 -0.14811
 C248 C 0.45556 0.21773 -0.14862
 C249 C 0.46643 0.22499 -0.12729
 C250 C 0.46035 0.21422 -0.10527
 C251 C 0.44358 0.19643 -0.10471
 C252 C 0.43271 0.18902 -0.12615
 N253 N 0.48351 0.24328 -0.12854
 N254 N 0.49503 0.24987 -0.11010
 C255 C 0.51207 0.26821 -0.11148
 C256 C 0.52537 0.27335 -0.09094
 C257 C 0.54239 0.29089 -0.09179
 C258 C 0.54626 0.30374 -0.11325
 C259 C 0.53268 0.29868 -0.13379
 C260 C 0.51578 0.28104 -0.13295
 H261 H 0.43060 0.19472 -0.16486
 H262 H 0.46005 0.22594 -0.16569
 H263 H 0.46853 0.21953 -0.08853
 H264 H 0.43932 0.18823 -0.08757
 H265 H 0.52262 0.26364 -0.07427
 H266 H 0.55235 0.29447 -0.07557
 H267 H 0.53530 0.30805 -0.15067
 H268 H 0.50570 0.27741 -0.14908
 C269 C 0.12073 -0.05288 0.32808
 C270 C 0.11992 -0.03464 0.31067
 C271 C 0.11947 -0.04026 0.28605
 C272 C 0.11937 -0.06443 0.27897
 C273 C 0.11977 -0.08267 0.29638
 C274 C 0.12063 -0.07705 0.32107
 N275 N 0.11917 -0.02119 0.26865
 N276 N 0.12326 -0.02503 0.24635
 C277 C 0.12272 -0.00603 0.22886
 C278 C 0.13221 -0.01050 0.20587
 C279 C 0.13239 0.00779 0.18854
 C280 C 0.12262 0.03077 0.19384
 C281 C 0.11271 0.03511 0.21680
 C282 C 0.11292 0.01692 0.23425
 H283 H 0.12123 -0.04814 0.34703
 H284 H 0.11993 -0.01608 0.31634
 H285 H 0.11891 -0.06921 0.26005
 H286 H 0.11982 -0.10119 0.29056
 H287 H 0.13972 -0.02814 0.20148
 H288 H 0.13996 0.00387 0.17094
 H289 H 0.10521 0.05268 0.22145
 H290 H 0.10537 0.02076 0.25188
 C291 C 0.64985 0.56169 -0.31471
 C292 C 0.65147 0.54428 -0.29649
 C293 C 0.63100 0.53612 -0.28548
 C294 C 0.60870 0.54585 -0.29264
 C295 C 0.60698 0.56344 -0.31068
 C296 C 0.62753 0.57165 -0.32228
 N297 N 0.63332 0.51795 -0.26717
 N298 N 0.61535 0.50820 -0.25801
 C299 C 0.61762 0.49009 -0.23963
 C300 C 0.59725 0.47878 -0.23188
 C301 C 0.59881 0.46100 -0.21401
 C302 C 0.62084 0.45438 -0.20341
 C303 C 0.64128 0.46586 -0.21119
 C304 C 0.63971 0.48350 -0.22920
 H305 H 0.66631 0.56784 -0.32209
 H306 H 0.66880 0.53708 -0.29093
 H307 H 0.59256 0.53976 -0.28443
 H308 H 0.58932 0.56964 -0.31615
 H309 H 0.58012 0.48374 -0.23974
 H310 H 0.58268 0.45273 -0.20831
 H311 H 0.65854 0.46107 -0.20357
 H312 H 0.65573 0.49201 -0.23489
 C313 C 0.40455 1.07172 0.81071
 C314 C 0.40512 1.05353 0.79338
 C315 C 0.38419 1.04304 0.78616
 C316 C 0.36253 1.05082 0.79664
 C317 C 0.36189 1.06879 0.81417
 C318 C 0.38290 1.07971 0.82160
 N319 N 0.38539 1.02450 0.76829
 N320 N 0.36676 1.01602 0.75922
 C321 C 0.36774 0.99732 0.74154
 C322 C 0.34666 0.99100 0.73031
 C323 C 0.34693 0.97294 0.71287
 C324 C 0.36836 0.96066 0.70656
 C325 C 0.38950 0.96688 0.71805
 C326 C 0.38923 0.98514 0.73531
 H327 H 0.42137 1.07866 0.81618
 H328 H 0.42198 1.04754 0.78557
 H329 H 0.34605 1.04305 0.79126
 H330 H 0.34463 1.07466 0.82104
 H331 H 0.32997 1.00019 0.73503
 H332 H 0.33031 0.96843 0.70456
 H333 H 0.40631 0.95789 0.71348
 H334 H 0.40576 0.98967 0.74381
 C335 C 0.87929 0.41995 0.20780
 C336 C 0.87870 0.43699 0.22627
 C337 C 0.87576 0.46146 0.22081
 C338 C 0.87295 0.46875 0.19661
 C339 C 0.87306 0.45169 0.17816
 C340 C 0.87640 0.42716 0.18361
 N341 N 0.87553 0.47846 0.24013
 N342 N 0.87788 0.50076 0.23640
 C343 C 0.87725 0.51779 0.25570
 C344 C 0.88538 0.54079 0.25146
 C345 C 0.88529 0.55771 0.27003
 C346 C 0.87654 0.55202 0.29303
 C347 C 0.86803 0.52904 0.29715
 C348 C 0.86856 0.51197 0.27870
 H349 H 0.88170 0.40112 0.21241
 H350 H 0.88080 0.43116 0.24486
 H351 H 0.87049 0.48757 0.19199
 H352 H 0.87089 0.45762 0.15961
 H353 H 0.89202 0.54551 0.23378
 H354 H 0.89174 0.57536 0.26628
 H355 H 0.86132 0.52412 0.31474
 H356 H 0.86205 0.49434 0.28235
 C357 C 0.31447 0.15748 -0.06374
 C358 C 0.29654 0.15763 -0.04623
 C359 C 0.29023 0.13624 -0.03512
 C360 C 0.30214 0.11457 -0.04167
 C361 C 0.32001 0.11439 -0.05920
 C362 C 0.32634 0.13583 -0.07048
 N363 N 0.27158 0.13694 -0.01747
 N364 N 0.26538 0.11814 -0.00645
 C365 C 0.24662 0.11855 0.01106
 C366 C 0.24134 0.09719 0.02279
 C367 C 0.22303 0.09682 0.03983
 C368 C 0.20958 0.11792 0.04541
 C369 C 0.21496 0.13939 0.03356
 C370 C 0.23334 0.13972 0.01656
 H371 H 0.31878 0.17424 -0.07230
 H372 H 0.28746 0.17443 -0.04139
 H373 H 0.29763 0.09779 -0.03330
 H374 H 0.32904 0.09749 -0.06380
 H375 H 0.25141 0.08074 0.01865
 H376 H 0.21931 0.07991 0.04836
 H377 H 0.20515 0.15600 0.03751
 H378 H 0.23711 0.15649 0.00772
 C379 C 0.66715 0.62248 0.53996
 C380 C 0.68424 0.62241 0.52163
 C381 C 0.70843 0.62306 0.52732
 C382 C 0.71545 0.62339 0.55169
 C383 C 0.69840 0.62307 0.57005
 C384 C 0.67409 0.62276 0.56434
 N385 N 0.72545 0.62327 0.50810
 N386 N 0.74709 0.62799 0.51172
 C387 C 0.76420 0.62786 0.49256
 C388 C 0.78633 0.63758 0.49672
 C389 C 0.80335 0.63794 0.47834
 C390 C 0.79861 0.62813 0.45557
 C391 C 0.77648 0.61810 0.45153
 C392 C 0.75933 0.61811 0.46981
 H393 H 0.64853 0.62204 0.53514
 H394 H 0.67863 0.62206 0.50293
 H395 H 0.73406 0.62378 0.55652
 H396 H 0.70414 0.62341 0.58871
 H397 H 0.79032 0.64506 0.51421
 H398 H 0.82032 0.64557 0.48207
 H399 H 0.77227 0.61056 0.43413
 H400 H 0.74237 0.61039 0.46621
 C401 C 0.79679 0.37442 0.08396
 C402 C 0.77820 0.37410 0.06724
 C403 C 0.78301 0.37292 0.04246
 C404 C 0.80676 0.37168 0.03451
 C405 C 0.82537 0.37163 0.05124
 C406 C 0.82055 0.37315 0.07611
 N407 N 0.76354 0.37295 0.02580
 N408 N 0.76645 0.37571 0.00317
 C409 C 0.74701 0.37548 -0.01351
 C410 C 0.75063 0.38283 -0.03737
 C411 C 0.73195 0.38314 -0.05402
 C412 C 0.70938 0.37568 -0.04712
 C413 C 0.70587 0.36798 -0.02323
 C414 C 0.72448 0.36803 -0.00650
 H415 H 0.79263 0.37539 0.10305
 H416 H 0.75998 0.37498 0.07357
 H417 H 0.81092 0.37064 0.01544
 H418 H 0.84355 0.37078 0.04476
 H419 H 0.76794 0.38853 -0.04301
 H420 H 0.73527 0.38894 -0.07235
 H421 H 0.68865 0.36228 -0.01733
 H422 H 0.72128 0.36217 0.01184
 C423 C 0.19227 0.84327 0.43360
 C424 C 0.20974 0.84300 0.45156
 C425 C 0.21444 0.86395 0.46420
 C426 C 0.20149 0.88535 0.45861
 C427 C 0.18407 0.88567 0.44059
 C428 C 0.17925 0.86462 0.42792
 N429 N 0.23239 0.86301 0.48257
 N430 N 0.23699 0.88122 0.49525
 C431 C 0.25497 0.88036 0.51358
 C432 C 0.25850 0.90090 0.52730
 C433 C 0.27590 0.90071 0.54532
 C434 C 0.29020 0.87988 0.54989
 C435 C 0.28660 0.85926 0.53602
 C436 C 0.26914 0.85947 0.51805
 H437 H 0.18913 0.82685 0.42395
 H438 H 0.21965 0.82642 0.45566
 H439 H 0.20477 0.90178 0.46815
 H440 H 0.17414 0.90231 0.43681
 H441 H 0.24773 0.91713 0.52398
 H442 H 0.27826 0.91699 0.55544
 H443 H 0.29709 0.84284 0.53914
 H444 H 0.26673 0.84333 0.50769
   
