data_POSCAR
  _audit_creation_date              2014-09-24
  _audit_creation_method            'ToBaCCo'
  _symmetry_space_group_name_H-M    'P1'
  _symmetry_Int_Tables_number       1
  _symmetry_cell_setting            triclinic
  loop_
  _symmetry_equiv_pos_as_xyz
 x,y,z
_cell_length_a 44.7217
_cell_length_b 44.8743
_cell_length_c 44.7312
_cell_angle_alpha 89.876500
_cell_angle_beta 90.039200
_cell_angle_gamma 91.233000
loop_
  _atom_site_label
  _atom_site_type_symbol
  _atom_site_fract_x
  _atom_site_fract_y
  _atom_site_fract_z
N1 N 0.30267 0.25240 0.21698
 N2 N 0.28916 0.27600 0.20647
 C3 C 0.30309 0.28520 0.18127
 C4 C 0.32644 0.26637 0.17596
 C5 C 0.32563 0.24580 0.19888
 H6 H 0.29650 0.30378 0.16751
 H7 H 0.34026 0.22713 0.20181
 Cu8 Cu 0.25404 0.29146 0.22630
 Cu9 Cu 0.28869 0.23118 0.25257
 Cu10 Cu 0.22620 0.25887 0.28818
 N11 N 0.21902 0.30695 0.24628
 N12 N 0.20839 0.29411 0.27064
 C13 C 0.18377 0.30837 0.27952
 C14 C 0.17885 0.33127 0.25967
 C15 C 0.20145 0.32985 0.23881
 H16 H 0.17008 0.30217 0.29856
 H17 H 0.20443 0.34403 0.21942
 N18 N 0.24738 0.22346 0.30241
 N19 N 0.27114 0.21288 0.28884
 C20 C 0.27956 0.18789 0.30301
 C21 C 0.26022 0.18270 0.32648
 C22 C 0.24009 0.20547 0.32557
 H23 H 0.29785 0.17401 0.29634
 H24 H 0.22109 0.20818 0.34018
 H25 H 0.24429 0.24277 0.24905
 H26 H 0.26897 0.26719 0.27259
 N27 N 0.69809 -0.25495 0.21911
 N28 N 0.71110 -0.27920 0.20965
 C29 C 0.69737 -0.28873 0.18448
 C30 C 0.67465 -0.26943 0.17816
 C31 C 0.67562 -0.24823 0.20038
 H32 H 0.70378 -0.30781 0.17140
 H33 H 0.66151 -0.22905 0.20240
 Cu34 Cu 0.74557 -0.29535 0.23021
 Cu35 Cu 0.71209 -0.23314 0.25411
 Cu36 Cu 0.77473 -0.25955 0.29013
 N37 N 0.78154 -0.30891 0.25010
 N38 N 0.79278 -0.29491 0.27351
 C39 C 0.81802 -0.30833 0.28214
 C40 C 0.82266 -0.33186 0.26311
 C41 C 0.79932 -0.33171 0.24298
 H42 H 0.83225 -0.30112 0.30043
 H43 H 0.79595 -0.34663 0.22426
 N44 N 0.75338 -0.22409 0.30365
 N45 N 0.72947 -0.21404 0.28988
 C46 C 0.72053 -0.18914 0.30375
 C47 C 0.73971 -0.18343 0.32723
 C48 C 0.76029 -0.20583 0.32665
 H49 H 0.70182 -0.17581 0.29702
 H50 H 0.77914 -0.20827 0.34155
 H51 H 0.75625 -0.24569 0.25014
 H52 H 0.73172 -0.26862 0.27547
 N53 N 0.69646 0.24450 0.77821
 N54 N 0.70820 0.27024 0.78674
 C55 C 0.69435 0.27923 0.81178
 C56 C 0.67284 0.25799 0.81908
 C57 C 0.67468 0.23625 0.79748
 H58 H 0.69978 0.29943 0.82396
 H59 H 0.66148 0.21581 0.79615
 Cu60 Cu 0.74089 0.28920 0.76478
 Cu61 Cu 0.71095 0.22324 0.74336
 Cu62 Cu 0.77499 0.25207 0.70961
 N63 N 0.77943 0.30244 0.74911
 N64 N 0.79266 0.28791 0.72748
 C65 C 0.81912 0.30143 0.72130
 C66 C 0.82241 0.32559 0.74009
 C67 C 0.79701 0.32571 0.75752
 H68 H 0.83492 0.29401 0.70475
 H69 H 0.79190 0.34120 0.77520
 N70 N 0.75363 0.21606 0.69497
 N71 N 0.72917 0.20512 0.70784
 C72 C 0.72034 0.18014 0.69338
 C73 C 0.74017 0.17530 0.67047
 C74 C 0.76102 0.19830 0.67198
 H75 H 0.70126 0.16616 0.69936
 H76 H 0.78036 0.20150 0.65774
 H77 H 0.75413 0.23948 0.74898
 H78 H 0.73065 0.25877 0.72058
 N79 N 0.30476 -0.24129 0.78131
 N80 N 0.29144 -0.26521 0.79260
 C81 C 0.30617 -0.27357 0.81743
 C82 C 0.32984 -0.25386 0.82170
 C83 C 0.32841 -0.23364 0.79854
 H84 H 0.29990 -0.29217 0.83168
 H85 H 0.34308 -0.21450 0.79485
 Cu86 Cu 0.25547 -0.28231 0.77441
 Cu87 Cu 0.28967 -0.22114 0.74591
 Cu88 Cu 0.22557 -0.25136 0.71314
 N89 N 0.21952 -0.29906 0.75587
 N90 N 0.20800 -0.28686 0.73181
 C91 C 0.18286 -0.30202 0.72410
 C92 C 0.17860 -0.32482 0.74442
 C93 C 0.20205 -0.32244 0.76434
 H94 H 0.16846 -0.29647 0.70555
 H95 H 0.20570 -0.33625 0.78380
 N96 N 0.24656 -0.21553 0.69754
 N97 N 0.27097 -0.20401 0.71001
 C98 C 0.27919 -0.17906 0.69504
 C99 C 0.25903 -0.17490 0.67220
 C100 C 0.23863 -0.19822 0.67432
 H101 H 0.29795 -0.16455 0.70074
 H102 H 0.21907 -0.20180 0.66045
 H103 H 0.24538 -0.23420 0.75146
 H104 H 0.26888 -0.25818 0.72730
 N105 N 0.70065 -0.25327 0.77982
 N106 N 0.71364 -0.27737 0.78982
 C107 C 0.69946 -0.28686 0.81476
 C108 C 0.67650 -0.26770 0.82044
 C109 C 0.67778 -0.24662 0.79802
 H110 H 0.70578 -0.30575 0.82825
 H111 H 0.66366 -0.22750 0.79560
 Cu112 Cu 0.74887 -0.29281 0.77025
 Cu113 Cu 0.71537 -0.23140 0.74501
 Cu114 Cu 0.77827 -0.25855 0.70980
 N115 N 0.78406 -0.30790 0.75036
 N116 N 0.79552 -0.29435 0.72674
 C117 C 0.82055 -0.30828 0.71840
 C118 C 0.82475 -0.33170 0.73782
 C119 C 0.80143 -0.33092 0.75787
 H120 H 0.83507 -0.30133 0.70022
 H121 H 0.79798 -0.34539 0.77699
 N122 N 0.75754 -0.22266 0.69607
 N123 N 0.73357 -0.21238 0.70950
 C124 C 0.72509 -0.18734 0.69550
 C125 C 0.74462 -0.18175 0.67231
 C126 C 0.76494 -0.20437 0.67316
 H127 H 0.70640 -0.17386 0.70191
 H128 H 0.78390 -0.20699 0.65847
 H129 H 0.73517 -0.26711 0.72434
 H130 H 0.75959 -0.24361 0.74909
 N131 N 0.30202 0.25033 0.77875
 N132 N 0.29039 0.27534 0.78805
 C133 C 0.30500 0.28459 0.81281
 C134 C 0.32684 0.26432 0.81910
 C135 C 0.32445 0.24284 0.79722
 H136 H 0.29978 0.30420 0.82564
 H137 H 0.33764 0.22303 0.79523
 Cu138 Cu 0.25650 0.29312 0.76805
 Cu139 Cu 0.28653 0.22894 0.74415
 Cu140 Cu 0.22356 0.25693 0.71019
 N141 N 0.21959 0.30664 0.75007
 N142 N 0.20683 0.29255 0.72751
 C143 C 0.18122 0.30612 0.72036
 C144 C 0.17793 0.32986 0.73946
 C145 C 0.20248 0.32964 0.75808
 H146 H 0.16580 0.29887 0.70308
 H147 H 0.20709 0.34462 0.77651
 N148 N 0.24366 0.22112 0.69582
 N149 N 0.26768 0.21040 0.70884
 C150 C 0.27555 0.18532 0.69461
 C151 C 0.25555 0.18023 0.67168
 C152 C 0.23561 0.20315 0.67296
 H153 H 0.29407 0.17146 0.70076
 H154 H 0.21639 0.20612 0.65866
 H155 H 0.26752 0.26481 0.72292
 H156 H 0.24324 0.24341 0.74983
 N157 N 0.30650 -0.24309 0.21725
 N158 N 0.29252 -0.26684 0.20648
 C159 C 0.30653 -0.27559 0.18142
 C160 C 0.33043 -0.25631 0.17649
 C161 C 0.32986 -0.23594 0.19946
 H162 H 0.29959 -0.29414 0.16746
 H163 H 0.34490 -0.21701 0.20262
 Cu164 Cu 0.25666 -0.28300 0.22568
 Cu165 Cu 0.29255 -0.22231 0.25267
 Cu166 Cu 0.22875 -0.25127 0.28717
 N167 N 0.22092 -0.29919 0.24508
 N168 N 0.21026 -0.28664 0.26929
 C169 C 0.18514 -0.30136 0.27779
 C170 C 0.17991 -0.32422 0.25787
 C171 C 0.20285 -0.32235 0.23734
 H172 H 0.17137 -0.29551 0.29667
 H173 H 0.20577 -0.33642 0.21801
 N174 N 0.25063 -0.21565 0.30184
 N175 N 0.27489 -0.20455 0.28870
 C176 C 0.28363 -0.17944 0.30303
 C177 C 0.26397 -0.17476 0.32614
 C178 C 0.24333 -0.19790 0.32485
 H179 H 0.30231 -0.16512 0.29664
 H180 H 0.22394 -0.20100 0.33905
 H181 H 0.27157 -0.25878 0.27222
 H182 H 0.24792 -0.23459 0.24835
 N183 N 0.69476 0.24538 0.21851
 N184 N 0.70896 0.26930 0.20833
 C185 C 0.69546 0.27848 0.18309
 C186 C 0.67164 0.25933 0.17745
 C187 C 0.67175 0.23856 0.20017
 H188 H 0.70274 0.29719 0.16944
 H189 H 0.65668 0.21954 0.20274
 Cu190 Cu 0.74453 0.28494 0.22840
 Cu191 Cu 0.70812 0.22384 0.25379
 Cu192 Cu 0.77160 0.25176 0.28969
 N193 N 0.78007 0.30058 0.24852
 N194 N 0.79045 0.28748 0.27263
 C195 C 0.81557 0.30192 0.28162
 C196 C 0.82106 0.32518 0.26210
 C197 C 0.79831 0.32380 0.24132
 H198 H 0.82917 0.29561 0.30052
 H199 H 0.79567 0.33823 0.22215
 N200 N 0.74935 0.21588 0.30343
 N201 N 0.72519 0.20526 0.28976
 C202 C 0.71595 0.18001 0.30362
 C203 C 0.73518 0.17470 0.32698
 C204 C 0.75610 0.19766 0.32634
 H205 H 0.69712 0.16608 0.29684
 H206 H 0.77519 0.20039 0.34101
 H207 H 0.72900 0.25975 0.27430
 H208 H 0.75285 0.23601 0.25032
 C209 C 0.25104 -0.02472 0.56155
 C210 C 0.25004 0.00235 0.57691
 C211 C 0.25040 0.02964 0.56176
 C212 C 0.25118 0.03007 0.53012
 C213 C 0.25215 0.00281 0.51417
 C214 C 0.25186 -0.02469 0.52990
 C215 C 0.25153 -0.05142 0.51356
 C216 C 0.25242 -0.05119 0.48247
 C217 C 0.25367 -0.02421 0.46642
 C218 C 0.25306 0.00305 0.48239
 C219 C 0.25017 0.05696 0.51402
 C220 C 0.25102 0.05720 0.48293
 C221 C 0.25294 0.03055 0.46665
 C222 C 0.25385 0.03059 0.43501
 C223 C 0.25442 0.00352 0.41962
 C224 C 0.25462 -0.02376 0.43478
 H225 H 0.25018 -0.07287 0.52462
 H226 H 0.25169 -0.07247 0.47116
 H227 H 0.24829 0.07816 0.52526
 H228 H 0.24974 0.07856 0.47181
 H229 H 0.24974 0.00220 0.60117
 H230 H 0.25536 0.00371 0.39539
 C231 C 0.73642 -0.03187 0.43577
 C232 C 0.73527 -0.00482 0.42026
 C233 C 0.73563 0.02249 0.43527
 C234 C 0.73664 0.02296 0.46690
 C235 C 0.73777 -0.00427 0.48300
 C236 C 0.73749 -0.03180 0.46742
 C237 C 0.73731 -0.05850 0.48391
 C238 C 0.73816 -0.05822 0.51500
 C239 C 0.73921 -0.03123 0.53091
 C240 C 0.73864 -0.00398 0.51478
 C241 C 0.73561 0.04988 0.48286
 C242 C 0.73642 0.05015 0.51394
 C243 C 0.73831 0.02353 0.53037
 C244 C 0.73888 0.02360 0.56202
 C245 C 0.73942 -0.00346 0.57756
 C246 C 0.73982 -0.03075 0.56255
 H247 H 0.73607 -0.07996 0.47298
 H248 H 0.73751 -0.07950 0.52642
 H249 H 0.73369 0.07106 0.47151
 H250 H 0.73509 0.07153 0.52493
 H251 H 0.73465 -0.00500 0.39601
 H252 H 0.73996 -0.00325 0.60181
 C253 C 0.43675 0.26621 0.02495
 C254 C 0.42158 0.26739 -0.00236
 C255 C 0.43675 0.26552 -0.02958
 C256 C 0.46826 0.26312 -0.02975
 C257 C 0.48407 0.26245 -0.00226
 C258 C 0.46828 0.26386 0.02520
 C259 C 0.48446 0.26334 0.05214
 C260 C 0.51543 0.26101 0.05218
 C261 C 0.53158 0.25986 0.02527
 C262 C 0.51577 0.26049 -0.00223
 C263 C 0.48440 0.26181 -0.05666
 C264 C 0.51537 0.25950 -0.05662
 C265 C 0.53156 0.25914 -0.02968
 C266 C 0.56312 0.25706 -0.02943
 C267 C 0.57830 0.25596 -0.00213
 C268 C 0.56311 0.25770 0.02510
 H269 H 0.47338 0.26483 0.07355
 H270 H 0.52654 0.26007 0.07363
 H271 H 0.47327 0.26265 -0.07812
 H272 H 0.52645 0.25792 -0.07802
 H273 H 0.39740 0.26899 -0.00241
 H274 H 0.60250 0.25463 -0.00207
 C275 C 0.56739 0.73192 0.02693
 C276 C 0.58269 0.73022 -0.00025
 C277 C 0.56775 0.73257 -0.02759
 C278 C 0.53635 0.73596 -0.02801
 C279 C 0.52041 0.73716 -0.00065
 C280 C 0.53597 0.73524 0.02693
 C281 C 0.51965 0.73626 0.05374
 C282 C 0.48880 0.73962 0.05354
 C283 C 0.47288 0.74136 0.02650
 C284 C 0.48883 0.74021 -0.00087
 C285 C 0.52044 0.73777 -0.05506
 C286 C 0.48960 0.74116 -0.05527
 C287 C 0.47328 0.74214 -0.02846
 C288 C 0.44185 0.74537 -0.02846
 C289 C 0.42654 0.74695 -0.00128
 C290 C 0.44146 0.74460 0.02608
 H291 H 0.53053 0.73437 0.07524
 H292 H 0.47759 0.74091 0.07490
 H293 H 0.53165 0.73652 -0.07643
 H294 H 0.47872 0.74308 -0.07676
 H295 H 0.60679 0.72794 -0.00012
 H296 H 0.40243 0.74911 -0.00144
 C297 C 0.02787 0.43810 0.26160
 C298 C 0.00063 0.42223 0.26248
 C299 C -0.02669 0.43680 0.26241
 C300 C -0.02699 0.46834 0.26199
 C301 C 0.00045 0.48480 0.26110
 C302 C 0.02799 0.46965 0.26102
 C303 C 0.05488 0.48644 0.26137
 C304 C 0.05480 0.51743 0.26113
 C305 C 0.02782 0.53293 0.26057
 C306 C 0.00037 0.51649 0.26091
 C307 C -0.05393 0.48386 0.26344
 C308 C -0.05401 0.51485 0.26334
 C309 C -0.02716 0.53164 0.26172
 C310 C -0.02702 0.56320 0.26190
 C311 C 0.00024 0.57906 0.26159
 C312 C 0.02754 0.56447 0.26070
 H313 H 0.07634 0.47582 0.26227
 H314 H 0.07621 0.52909 0.26189
 H315 H -0.07528 0.47221 0.26517
 H316 H -0.07541 0.52549 0.26502
 H317 H 0.00069 0.39805 0.26275
 H318 H 0.00021 0.60324 0.26164
 C319 C 0.02756 0.43701 0.74960
 C320 C 0.00013 0.42143 0.74972
 C321 C -0.02702 0.43631 0.74935
 C322 C -0.02694 0.46787 0.74930
 C323 C 0.00069 0.48402 0.74942
 C324 C 0.02804 0.46856 0.74986
 C325 C 0.05509 0.48503 0.75142
 C326 C 0.05537 0.51603 0.75160
 C327 C 0.02862 0.53186 0.75011
 C328 C 0.00099 0.51571 0.74942
 C329 C -0.05372 0.48369 0.74999
 C330 C -0.05343 0.51470 0.74982
 C331 C -0.02635 0.53117 0.74909
 C332 C -0.02584 0.56273 0.74890
 C333 C 0.00157 0.57830 0.74978
 C334 C 0.02872 0.56341 0.75014
 H335 H 0.07637 0.47413 0.75299
 H336 H 0.07685 0.52744 0.75328
 H337 H -0.07525 0.47227 0.75103
 H338 H -0.07475 0.52560 0.75072
 H339 H -0.00008 0.39725 0.74932
 H340 H 0.00180 0.60248 0.74943
 C341 C 0.38208 0.26726 0.10367
 C342 C 0.39891 0.24215 0.09704
 C343 C 0.41703 0.24191 0.07159
 C344 C 0.34631 0.26690 0.15074
 C345 C 0.40170 0.29198 0.05935
 C346 C 0.38357 0.29220 0.08480
 C347 C 0.36275 0.26716 0.12938
 C348 C 0.41865 0.26689 0.05265
 H349 H 0.39779 0.22267 0.11139
 H350 H 0.42961 0.22220 0.06647
 H351 H 0.40247 0.31131 0.04480
 H352 H 0.37054 0.31168 0.08963
 C353 C 0.62134 0.73010 0.10620
 C354 C 0.60523 0.75559 0.09909
 C355 C 0.58737 0.75608 0.07343
 C356 C 0.65637 0.73007 0.15386
 C357 C 0.60156 0.70553 0.06194
 C358 C 0.61943 0.70506 0.08760
 C359 C 0.64030 0.72992 0.13221
 C360 C 0.58529 0.73099 0.05478
 H361 H 0.60668 0.77514 0.11322
 H362 H 0.57532 0.77606 0.06797
 H363 H 0.60044 0.68611 0.04761
 H364 H 0.63192 0.68529 0.09282
 C365 C 0.61793 0.25728 -0.10807
 C366 C 0.60063 0.28204 -0.10140
 C367 C 0.58246 0.28185 -0.07597
 C368 C 0.65335 0.25789 -0.15541
 C369 C 0.59871 0.23206 -0.06386
 C370 C 0.61689 0.23227 -0.08928
 C371 C 0.63712 0.25767 -0.13390
 C372 C 0.58126 0.25679 -0.05712
 H373 H 0.60138 0.30156 -0.11570
 H374 H 0.56949 0.30130 -0.07081
 H375 H 0.59829 0.21267 -0.04938
 H376 H 0.63027 0.21305 -0.09417
 C377 C 0.38719 0.74687 -0.10726
 C378 C 0.38931 0.77199 -0.08879
 C379 C 0.40752 0.77167 -0.06337
 C380 C 0.35049 0.74653 -0.15368
 C381 C 0.42179 0.72117 -0.07493
 C382 C 0.40357 0.72151 -0.10035
 C383 C 0.36744 0.74676 -0.13269
 C384 C 0.42393 0.74628 -0.05631
 H385 H 0.37662 0.79168 -0.09384
 H386 H 0.40870 0.79112 -0.04908
 H387 H 0.43395 0.70124 -0.06954
 H388 H 0.40196 0.70188 -0.11437
 C389 C 0.10702 0.38581 0.26060
 C390 C 0.10024 0.40388 0.23604
 C391 C 0.07461 0.42123 0.23643
 C392 C 0.15401 0.35104 0.25969
 C393 C 0.06258 0.40259 0.28600
 C394 C 0.08817 0.38527 0.28559
 C395 C 0.13279 0.36716 0.25996
 C396 C 0.05567 0.42075 0.26147
 H397 H 0.11457 0.40434 0.21653
 H398 H 0.06938 0.43483 0.21717
 H399 H 0.04808 0.40180 0.30539
 H400 H 0.09313 0.37128 0.30465
 C401 C 0.10792 0.61899 0.74814
 C402 C 0.10165 0.59948 0.72444
 C403 C 0.07606 0.58102 0.72525
 C404 C 0.15492 0.65571 0.74573
 C405 C 0.06303 0.60138 0.77357
 C406 C 0.08860 0.61983 0.77274
 C407 C 0.13365 0.63877 0.74685
 C408 C 0.05663 0.58179 0.74988
 H409 H 0.11634 0.59878 0.70522
 H410 H 0.07121 0.56636 0.70659
 H411 H 0.04812 0.60244 0.79260
 H412 H 0.09315 0.63495 0.79112
 C413 C -0.10617 0.61549 0.26294
 C414 C -0.08628 0.61654 0.28712
 C415 C -0.06067 0.59923 0.28688
 C416 C -0.15348 0.64987 0.26299
 C417 C -0.07478 0.57963 0.23827
 C418 C -0.10042 0.59696 0.23854
 C419 C -0.13206 0.63400 0.26293
 C420 C -0.05481 0.58058 0.26251
 H421 H -0.09044 0.63090 0.30604
 H422 H -0.04536 0.60039 0.30564
 H423 H -0.07037 0.56566 0.21913
 H424 H -0.11558 0.59611 0.21965
 C425 C -0.10623 0.38081 0.74526
 C426 C -0.09934 0.40043 0.72174
 C427 C -0.07374 0.41883 0.72320
 C428 C -0.15358 0.34462 0.74187
 C429 C -0.06190 0.39816 0.77181
 C430 C -0.08748 0.37976 0.77032
 C431 C -0.13211 0.36126 0.74343
 C432 C -0.05492 0.41791 0.74832
 H433 H -0.11358 0.40130 0.70217
 H434 H -0.06842 0.43360 0.70468
 H435 H -0.04746 0.39695 0.79121
 H436 H -0.09251 0.36456 0.78857
 C437 C 0.25714 0.10974 0.38109
 C438 C 0.28041 0.10395 0.40111
 C439 C 0.27923 0.07832 0.41896
 C440 C 0.25947 0.15731 0.34608
 C441 C 0.23145 0.06426 0.39689
 C442 C 0.23265 0.08987 0.37905
 C443 C 0.25854 0.13575 0.36221
 C444 C 0.25465 0.05839 0.41707
 H445 H 0.29953 0.11909 0.40274
 H446 H 0.29753 0.07387 0.43409
 H447 H 0.21247 0.04897 0.39496
 H448 H 0.21459 0.09407 0.36354
 C449 C 0.73946 0.10290 0.61539
 C450 C 0.76351 0.09730 0.59630
 C451 C 0.76325 0.07160 0.57863
 C452 C 0.74017 0.15024 0.65053
 C453 C 0.71484 0.05711 0.59901
 C454 C 0.71512 0.08279 0.61665
 C455 C 0.73997 0.12885 0.63427
 C456 C 0.73884 0.05140 0.57980
 H457 H 0.78253 0.11262 0.59528
 H458 H 0.78212 0.06732 0.56420
 H459 H 0.69596 0.04164 0.60035
 H460 H 0.69647 0.08683 0.63144
 C461 C 0.25493 -0.10322 0.61616
 C462 C 0.27870 -0.09577 0.59698
 C463 C 0.27728 -0.07043 0.57883
 C464 C 0.25790 -0.14996 0.65208
 C465 C 0.22823 -0.06001 0.59882
 C466 C 0.22967 -0.08534 0.61697
 C467 C 0.25667 -0.12879 0.63552
 C468 C 0.25198 -0.05243 0.57956
 H469 H 0.29842 -0.10936 0.59630
 H470 H 0.29599 -0.06464 0.56443
 H471 H 0.20868 -0.04621 0.59987
 H472 H 0.21121 -0.09082 0.63181
 C473 C 0.73793 -0.11099 0.38218
 C474 C 0.71287 -0.09281 0.38178
 C475 C 0.71227 -0.06721 0.39951
 C476 C 0.73928 -0.15827 0.34702
 C477 C 0.76181 -0.07790 0.41822
 C478 C 0.76238 -0.10352 0.40048
 C479 C 0.73875 -0.13687 0.36325
 C480 C 0.73668 -0.05966 0.41795
 H481 H 0.69389 -0.09829 0.36760
 H482 H 0.69284 -0.05323 0.39883
 H483 H 0.78100 -0.07215 0.43200
 H484 H 0.78195 -0.11732 0.40082
 C485 C 0.62195 0.73167 -0.10654
 C486 C 0.60657 0.75740 -0.09884
 C487 C 0.58871 0.75765 -0.07322
 C488 C 0.65696 0.73185 -0.15412
 C489 C 0.60151 0.70639 -0.06292
 C490 C 0.61938 0.70616 -0.08855
 C491 C 0.64086 0.73167 -0.13253
 C492 C 0.58593 0.73208 -0.05520
 H493 H 0.60856 0.77730 -0.11251
 H494 H 0.57716 0.77776 -0.06731
 H495 H 0.59981 0.68659 -0.04909
 H496 H 0.63131 0.68620 -0.09423
 C497 C 0.38231 0.26527 -0.10848
 C498 C 0.39851 0.23998 -0.10088
 C499 C 0.41656 0.24014 -0.07534
 C500 C 0.34672 0.26462 -0.15568
 C501 C 0.40236 0.29094 -0.06498
 C502 C 0.38432 0.29076 -0.09052
 C503 C 0.36311 0.26489 -0.13429
 C504 C 0.41868 0.26567 -0.05731
 H505 H 0.39697 0.22009 -0.11452
 H506 H 0.42870 0.22033 -0.06947
 H507 H 0.40356 0.31070 -0.05114
 H508 H 0.37177 0.31039 -0.09612
 C509 C 0.38640 0.74438 0.10449
 C510 C 0.40246 0.71901 0.09701
 C511 C 0.42071 0.71917 0.07164
 C512 C 0.35045 0.74378 0.15141
 C513 C 0.40698 0.77014 0.06120
 C514 C 0.38874 0.76995 0.08657
 C515 C 0.36699 0.74400 0.13014
 C516 C 0.42318 0.74479 0.05365
 H517 H 0.40068 0.69905 0.11063
 H518 H 0.43273 0.69929 0.06585
 H519 H 0.40843 0.78997 0.04738
 H520 H 0.37629 0.78965 0.09208
 C521 C 0.61734 0.25878 0.10415
 C522 C 0.60073 0.28380 0.09653
 C523 C 0.58281 0.28338 0.07091
 C524 C 0.65224 0.25947 0.15187
 C525 C 0.59800 0.23290 0.06048
 C526 C 0.61592 0.23334 0.08609
 C527 C 0.63621 0.25929 0.13021
 C528 C 0.58120 0.25785 0.05282
 H529 H 0.60180 0.30365 0.11026
 H530 H 0.57031 0.30297 0.06504
 H531 H 0.59722 0.21315 0.04659
 H532 H 0.62879 0.21393 0.09171
 C533 C -0.10419 0.61583 0.74281
 C534 C -0.08583 0.61767 0.76814
 C535 C -0.06048 0.60011 0.77026
 C536 C -0.15133 0.65018 0.73903
 C537 C -0.07181 0.57868 0.72172
 C538 C -0.09717 0.59626 0.71963
 C539 C -0.12994 0.63436 0.74054
 C540 C -0.05339 0.58039 0.74713
 H541 H -0.09101 0.63281 0.78616
 H542 H -0.04636 0.60189 0.78988
 H543 H -0.06639 0.56390 0.70349
 H544 H -0.11116 0.59476 0.69988
 C545 C -0.10592 0.38127 0.26259
 C546 C -0.09977 0.40003 0.23819
 C547 C -0.07406 0.41834 0.23819
 C548 C -0.15355 0.34532 0.26222
 C549 C -0.06063 0.39922 0.28702
 C550 C -0.08631 0.38092 0.28700
 C551 C -0.13197 0.36188 0.26235
 C552 C -0.05442 0.41816 0.26270
 H553 H -0.11469 0.40034 0.21911
 H554 H -0.06936 0.43254 0.21907
 H555 H -0.04556 0.39863 0.30598
 H556 H -0.09079 0.36637 0.30591
 C557 C 0.10604 0.38399 0.74481
 C558 C 0.09961 0.40403 0.72175
 C559 C 0.07422 0.42158 0.72345
 C560 C 0.15292 0.34930 0.74116
 C561 C 0.06168 0.39923 0.77136
 C562 C 0.08706 0.38168 0.76963
 C563 C 0.13168 0.36530 0.74275
 C564 C 0.05516 0.41939 0.74834
 H565 H 0.11407 0.40587 0.70237
 H566 H 0.06926 0.43671 0.70529
 H567 H 0.04707 0.39709 0.79058
 H568 H 0.09176 0.36616 0.78753
 C569 C 0.10694 0.61969 0.25870
 C570 C 0.09989 0.60127 0.23434
 C571 C 0.07410 0.58309 0.23500
 C572 C 0.15465 0.65549 0.25769
 C573 C 0.06237 0.60169 0.28440
 C574 C 0.08814 0.61984 0.28372
 C575 C 0.13308 0.63893 0.25794
 C576 C 0.05527 0.58308 0.26012
 H577 H 0.11421 0.60111 0.21482
 H578 H 0.06871 0.56913 0.21594
 H579 H 0.04796 0.60209 0.30384
 H580 H 0.09332 0.63410 0.30262
 C581 C 0.74286 -0.10932 0.61712
 C582 C 0.76667 -0.10221 0.59787
 C583 C 0.76566 -0.07671 0.57988
 C584 C 0.74448 -0.15662 0.65238
 C585 C 0.71700 -0.06540 0.60032
 C586 C 0.71804 -0.09086 0.61829
 C587 C 0.74397 -0.13520 0.63609
 C588 C 0.74072 -0.05824 0.58088
 H589 H 0.78605 -0.11626 0.59691
 H590 H 0.78432 -0.07127 0.56528
 H591 H 0.69772 -0.05124 0.60153
 H592 H 0.69957 -0.09607 0.63320
 C593 C 0.26005 -0.10204 0.38042
 C594 C 0.23513 -0.08378 0.37836
 C595 C 0.23325 -0.05844 0.39630
 C596 C 0.26318 -0.14937 0.34557
 C597 C 0.28126 -0.06951 0.41849
 C598 C 0.28311 -0.09488 0.40053
 C599 C 0.26199 -0.12788 0.36161
 C600 C 0.25622 -0.05123 0.41661
 H601 H 0.21723 -0.08905 0.36279
 H602 H 0.21393 -0.04442 0.39438
 H603 H 0.29937 -0.06400 0.43372
 H604 H 0.30255 -0.10878 0.40219
 C605 C 0.73485 0.10144 0.38115
 C606 C 0.75965 0.09557 0.39920
 C607 C 0.75988 0.06992 0.41698
 C608 C 0.73493 0.14917 0.34639
 C609 C 0.71048 0.05592 0.39874
 C610 C 0.71027 0.08157 0.38096
 C611 C 0.73485 0.12751 0.36237
 C612 C 0.73520 0.05003 0.41700
 H613 H 0.77886 0.11070 0.39937
 H614 H 0.77928 0.06547 0.43066
 H615 H 0.69137 0.04067 0.39834
 H616 H 0.69104 0.08584 0.36698
 C617 C 0.25250 0.10807 0.61637
 C618 C 0.27653 0.10212 0.59739
 C619 C 0.27572 0.07673 0.57931
 C620 C 0.25454 0.15510 0.65187
 C621 C 0.22678 0.06321 0.59907
 C622 C 0.22761 0.08860 0.61713
 C623 C 0.25362 0.13378 0.63553
 C624 C 0.25077 0.05719 0.57994
 H625 H 0.29596 0.11694 0.59675
 H626 H 0.29459 0.07216 0.56500
 H627 H 0.20750 0.04821 0.60001
 H628 H 0.20897 0.09293 0.63184
   
