data_POSCAR
  _audit_creation_date              2014-09-24
  _audit_creation_method            'ToBaCCo'
  _symmetry_space_group_name_H-M    'P1'
  _symmetry_Int_Tables_number       1
  _symmetry_cell_setting            triclinic
  loop_
  _symmetry_equiv_pos_as_xyz
 x,y,z
_cell_length_a 48.2561
_cell_length_b 48.5143
_cell_length_c 48.3462
_cell_angle_alpha 89.994100
_cell_angle_beta 89.941600
_cell_angle_gamma 89.964200
loop_
  _atom_site_label
  _atom_site_type_symbol
  _atom_site_fract_x
  _atom_site_fract_y
  _atom_site_fract_z
N1 N 0.14200 0.16144 0.21913
 N2 N 0.16142 0.14236 0.21888
 C3 C 0.15724 0.12499 0.24026
 C4 C 0.13408 0.13382 0.25444
 C5 C 0.12485 0.15692 0.24065
 H6 H 0.16997 0.10730 0.24515
 H7 H 0.10705 0.16946 0.24585
 Cu8 Cu 0.18998 0.14228 0.19038
 Cu9 Cu 0.14027 0.19072 0.19152
 Cu10 Cu 0.19113 0.19055 0.14072
 N11 N 0.21854 0.14216 0.16186
 N12 N 0.21881 0.16119 0.14243
 C13 C 0.24033 0.15652 0.12528
 C14 C 0.25413 0.13339 0.13452
 C15 C 0.23990 0.12469 0.15770
 H16 H 0.24555 0.16898 0.10747
 H17 H 0.24475 0.10702 0.17045
 N18 N 0.16141 0.21851 0.14247
 N19 N 0.14205 0.21856 0.16183
 C20 C 0.12486 0.24004 0.15746
 C21 C 0.13390 0.25400 0.13434
 C22 C 0.15702 0.23996 0.12529
 H23 H 0.10711 0.24521 0.17011
 H24 H 0.16966 0.24507 0.10754
 H25 H 0.15968 0.16903 0.16029
 H26 H 0.18201 0.19125 0.18250
 N27 N -0.14220 0.83864 0.21863
 N28 N -0.16110 0.85820 0.21789
 C29 C -0.15690 0.87561 0.23921
 C30 C -0.13422 0.86635 0.25384
 C31 C -0.12534 0.84294 0.24037
 H32 H -0.16933 0.89359 0.24382
 H33 H -0.10792 0.83006 0.24595
 Cu34 Cu -0.18929 0.85838 0.18915
 Cu35 Cu -0.14055 0.80920 0.19120
 Cu36 Cu -0.19108 0.80975 0.14007
 N37 N -0.21806 0.85848 0.16096
 N38 N -0.21860 0.83924 0.14176
 C39 C -0.24048 0.84359 0.12503
 C40 C -0.25424 0.86671 0.13435
 C41 C -0.23965 0.87573 0.15713
 H42 H -0.24601 0.83086 0.10752
 H43 H -0.24450 0.89335 0.16996
 N44 N -0.16149 0.78170 0.14191
 N45 N -0.14240 0.78138 0.16150
 C46 C -0.12534 0.75979 0.15721
 C47 C -0.13417 0.74607 0.13392
 C48 C -0.15702 0.76034 0.12464
 H49 H -0.10780 0.75441 0.17003
 H50 H -0.16942 0.75546 0.10668
 H51 H -0.15942 0.83048 0.15976
 H52 H -0.18239 0.80908 0.18211
 N53 N -0.14258 0.16156 -0.21857
 N54 N -0.16198 0.14250 -0.21833
 C55 C -0.15775 0.12513 -0.23969
 C56 C -0.13458 0.13392 -0.25386
 C57 C -0.12540 0.15701 -0.24005
 H58 H -0.17044 0.10744 -0.24460
 H59 H -0.10760 0.16951 -0.24525
 Cu60 Cu -0.19052 0.14238 -0.18984
 Cu61 Cu -0.14087 0.19081 -0.19097
 Cu62 Cu -0.19175 0.19062 -0.14017
 N63 N -0.21907 0.14227 -0.16133
 N64 N -0.21938 0.16127 -0.14189
 C65 C -0.24090 0.15658 -0.12475
 C66 C -0.25465 0.13347 -0.13403
 C67 C -0.24041 0.12480 -0.15720
 H68 H -0.24613 0.16902 -0.10692
 H69 H -0.24523 0.10714 -0.16997
 N70 N -0.16207 0.21856 -0.14193
 N71 N -0.14270 0.21862 -0.16128
 C72 C -0.12555 0.24010 -0.15692
 C73 C -0.13463 0.25405 -0.13381
 C74 C -0.15773 0.24002 -0.12476
 H75 H -0.10781 0.24528 -0.16957
 H76 H -0.17038 0.24513 -0.10702
 H77 H -0.16025 0.16909 -0.15974
 H78 H -0.18260 0.19134 -0.18195
 N79 N 0.14203 0.83917 -0.21814
 N80 N 0.16124 0.85841 -0.21757
 C81 C 0.15739 0.87563 -0.23913
 C82 C 0.13459 0.86661 -0.25371
 C83 C 0.12528 0.84352 -0.23998
 H84 H 0.17018 0.89328 -0.24398
 H85 H 0.10775 0.83080 -0.24552
 Cu86 Cu 0.18944 0.85833 -0.18880
 Cu87 Cu 0.14024 0.80967 -0.19076
 Cu88 Cu 0.19141 0.80917 -0.14025
 N89 N 0.21831 0.85817 -0.16068
 N90 N 0.21902 0.83862 -0.14179
 C91 C 0.24084 0.84289 -0.12497
 C92 C 0.25439 0.86629 -0.13387
 C93 C 0.23972 0.87555 -0.15653
 H94 H 0.24640 0.83000 -0.10758
 H95 H 0.24433 0.89350 -0.16898
 N96 N 0.16162 0.78130 -0.14214
 N97 N 0.14206 0.78163 -0.16126
 C98 C 0.12471 0.76030 -0.15687
 C99 C 0.13389 0.74601 -0.13402
 C100 C 0.15723 0.75972 -0.12512
 H101 H 0.10675 0.75546 -0.16930
 H102 H 0.16998 0.75433 -0.10755
 H103 H 0.15971 0.83046 -0.15922
 H104 H 0.18216 0.80906 -0.18211
 N105 N 0.16171 1.14243 0.78144
 N106 N 0.14256 1.16175 0.78165
 C107 C 0.12523 1.15769 0.76017
 C108 C 0.13412 1.13467 0.74600
 C109 C 0.15723 1.12544 0.75990
 H110 H 0.10754 1.17044 0.75513
 H111 H 0.16983 1.10773 0.75472
 Cu112 Cu 0.14239 1.19021 0.81002
 Cu113 Cu 0.19101 1.14066 0.80906
 Cu114 Cu 0.19091 1.19129 0.85975
 N115 N 0.14245 1.21855 0.83850
 N116 N 0.16155 1.21881 0.85790
 C117 C 0.15701 1.24033 0.87489
 C118 C 0.13388 1.25415 0.86559
 C119 C 0.12507 1.23996 0.84252
 H120 H 0.16956 1.24553 0.89265
 H121 H 0.10741 1.24495 0.82969
 N122 N 0.21878 1.16168 0.85807
 N123 N 0.21882 1.14240 0.83877
 C124 C 0.24031 1.12524 0.84322
 C125 C 0.25424 1.13425 0.86632
 C126 C 0.24025 1.15728 0.87531
 H127 H 0.24551 1.10753 0.83064
 H128 H 0.24539 1.16985 0.89305
 H129 H 0.16929 1.16016 0.84025
 H130 H 0.19167 1.18233 0.81796
 N131 N 0.83900 0.85738 0.78130
 N132 N 0.85818 0.83808 0.78151
 C133 C 0.87559 0.84220 0.76009
 C134 C 0.86674 0.86524 0.74594
 C135 C 0.84355 0.87442 0.75979
 H136 H 0.89335 0.82951 0.75514
 H137 H 0.83098 0.89214 0.75462
 Cu138 Cu 0.85841 0.80977 0.81001
 Cu139 Cu 0.80964 0.85913 0.80893
 Cu140 Cu 0.80959 0.80853 0.85958
 N141 N 0.85807 0.78128 0.83832
 N142 N 0.83890 0.78104 0.85770
 C143 C 0.84337 0.75953 0.87471
 C144 C 0.86651 0.74572 0.86543
 C145 C 0.87542 0.75988 0.84237
 H146 H 0.83078 0.75433 0.89247
 H147 H 0.89315 0.75492 0.82961
 N148 N 0.78174 0.83811 0.85794
 N149 N 0.78173 0.85738 0.83863
 C150 C 0.76022 0.87453 0.84308
 C151 C 0.74625 0.86551 0.86620
 C152 C 0.76025 0.84249 0.87519
 H153 H 0.75504 0.89222 0.83050
 H154 H 0.75511 0.82991 0.89294
 H155 H 0.83133 0.83963 0.84020
 H156 H 0.80913 0.81738 0.81782
 N157 N 0.16099 0.85689 1.21829
 N158 N 0.14187 0.83756 1.21811
 C159 C 0.12441 0.84171 1.23948
 C160 C 0.13321 0.86478 1.25359
 C161 C 0.15638 0.87398 1.23974
 H162 H 0.10667 0.82903 1.24444
 H163 H 0.16888 0.89176 1.24487
 Cu164 Cu 0.14192 0.80916 1.18975
 Cu165 Cu 0.19039 0.85860 1.19071
 Cu166 Cu 0.19042 0.80792 1.14005
 N167 N 0.14190 0.78079 1.16136
 N168 N 0.16103 0.78050 1.14194
 C169 C 0.15639 0.75910 1.12485
 C170 C 0.13319 0.74541 1.13414
 C171 C 0.12441 0.75955 1.15726
 H172 H 0.16889 0.75391 1.10701
 H173 H 0.10665 0.75470 1.17002
 N174 N 0.21832 0.83745 1.14176
 N175 N 0.21831 0.85675 1.16105
 C176 C 0.23984 0.87385 1.15662
 C177 C 0.25385 0.86477 1.13356
 C178 C 0.23986 0.84176 1.12456
 H179 H 0.24500 0.89156 1.16917
 H180 H 0.24504 0.82916 1.10685
 H181 H 0.16864 0.83913 1.15942
 H182 H 0.19105 0.81698 1.18171
 N183 N 0.83871 1.14298 1.21848
 N184 N 0.85787 1.16227 1.21808
 C185 C 0.87533 1.15827 1.23944
 C186 C 0.86654 1.13530 1.25376
 C187 C 0.84333 1.12604 1.24006
 H188 H 0.89303 1.17103 1.24428
 H189 H 0.83078 1.10835 1.24539
 Cu190 Cu 0.85779 1.19066 1.18968
 Cu191 Cu 0.80935 1.14110 1.19091
 Cu192 Cu 0.80952 1.19120 1.13971
 N193 N 0.85775 1.21874 1.16098
 N194 N 0.83878 1.21873 1.14144
 C195 C 0.84316 1.24026 1.12443
 C196 C 0.86601 1.25435 1.13390
 C197 C 0.87484 1.24034 1.15707
 H198 H 0.83062 1.24536 1.10661
 H199 H 0.89226 1.24560 1.17008
 N200 N 0.78170 1.16160 1.14156
 N201 N 0.78151 1.14263 1.16117
 C202 C 0.75993 1.12555 1.15694
 C203 C 0.74610 1.13428 1.13365
 C204 C 0.76026 1.15707 1.12432
 H205 H 0.75458 1.10811 1.16980
 H206 H 0.75524 1.16941 1.10639
 H207 H 0.83106 1.16043 1.15966
 H208 H 0.80856 1.18282 1.18163
 O209 O 0.46077 1.04997 1.04858
 O210 O 0.43055 1.02361 1.02317
 C211 C 0.43599 1.04256 1.04121
 O212 O 0.53909 1.04765 0.94977
 O213 O 0.56935 1.02238 0.97625
 C214 C 0.56387 1.04030 0.95718
 O215 O 0.46108 1.04989 0.95206
 O216 O 0.43070 1.02337 0.97722
 C217 C 0.43630 1.04241 0.95934
 O218 O 0.53882 1.04789 1.05065
 O219 O 0.56917 1.02304 1.02380
 C220 C 0.56360 1.04080 1.04297
 Zr221 Zr 0.49986 1.03461 1.03524
 O222 O 0.50272 1.07815 1.03473
 O223 O 0.49692 1.03466 1.07893
 Zr224 Zr 0.50003 1.03447 0.96528
 O225 O 0.50296 1.07800 0.96531
 O226 O 0.49716 1.03412 0.92160
 O227 O 0.47521 1.03990 1.00023
 O228 O 0.52397 1.03952 1.00025
 O229 O 0.53902 0.95161 1.05090
 O230 O 0.56930 0.97686 1.02441
 C231 C 0.56381 0.95895 1.04348
 O232 O 0.46095 0.94932 0.95201
 O233 O 0.43064 0.97563 0.97744
 C234 C 0.43614 0.95669 0.95939
 O235 O 0.53895 0.95148 0.94994
 O236 O 0.56926 0.97659 0.97653
 C237 C 0.56371 0.95872 0.95746
 O238 O 0.46105 0.94938 1.04862
 O239 O 0.43073 0.97624 1.02380
 C240 C 0.43629 0.95703 1.04150
 Zr241 Zr 0.49999 0.96485 1.03542
 O242 O 0.50297 0.92132 1.03554
 O243 O 0.49696 0.96536 1.07910
 Zr244 Zr 0.49996 0.96471 0.96538
 O245 O 0.50288 0.92117 0.96588
 O246 O 0.49712 0.96466 0.92169
 Zr247 Zr 0.45879 0.99963 1.00029
 Zr248 Zr 0.54113 0.99962 1.00034
 O249 O 0.52400 0.95974 1.00040
 O250 O 0.47526 0.95937 1.00042
 O251 O 0.52465 0.99975 1.04075
 O252 O 0.47598 0.99959 0.96027
 O253 O 0.47590 0.99973 1.04033
 O254 O 0.52471 0.99955 0.95994
 H255 H 0.53644 1.05574 1.00014
 H256 H 0.46347 0.99955 0.94404
 H257 H 0.53654 0.94356 1.00047
 H258 H 0.46340 0.99980 1.05660
 H259 H 0.51283 1.02302 0.91451
 H260 H 0.51256 0.97600 0.91454
 H261 H 0.48700 0.91411 0.97671
 H262 H 0.48772 0.91418 1.02393
 H263 H 0.51272 0.97629 1.08618
 H264 H 0.51239 1.02336 1.08609
 H265 H 0.48683 1.08519 1.02391
 H266 H 0.48750 1.08513 0.97668
 O267 O 0.04817 0.53879 -0.05049
 O268 O 0.02316 0.56889 -0.02359
 C269 C 0.04099 0.56344 -0.04283
 O270 O -0.05087 0.46112 -0.04827
 O271 O -0.02435 0.43099 -0.02290
 C272 C -0.04342 0.43647 -0.04088
 O273 O -0.04858 0.53876 -0.05060
 O274 O -0.02323 0.56887 -0.02410
 C275 C -0.04119 0.56339 -0.04316
 O276 O 0.05029 0.46111 -0.04841
 O277 O 0.02325 0.43101 -0.02357
 C278 C 0.04256 0.43647 -0.04133
 Zr279 Zr 0.03484 0.49994 -0.03508
 O280 O 0.03466 0.49708 -0.07877
 O281 O 0.07861 0.50282 -0.03489
 Zr282 Zr -0.03537 0.49995 -0.03508
 O283 O -0.03525 0.49701 -0.07876
 O284 O -0.07913 0.50291 -0.03480
 O285 O -0.00026 0.52452 -0.04051
 O286 O -0.00027 0.47608 -0.04011
 O287 O 0.05024 0.46107 0.04820
 O288 O 0.02380 0.43097 0.02277
 C289 C 0.04282 0.43642 0.04081
 O290 O -0.04870 0.53879 0.05041
 O291 O -0.02336 0.56888 0.02383
 C292 C -0.04134 0.56343 0.04292
 O293 O -0.05084 0.46121 0.04823
 O294 O -0.02382 0.43107 0.02337
 C295 C -0.04312 0.43657 0.04112
 O296 O 0.04790 0.53872 0.05040
 O297 O 0.02258 0.56887 0.02386
 C298 C 0.04052 0.56336 0.04295
 Zr299 Zr 0.03477 0.49990 0.03490
 O300 O 0.03465 0.49700 0.07858
 O301 O 0.07854 0.50284 0.03461
 Zr302 Zr -0.03538 0.49998 0.03493
 O303 O -0.03514 0.49708 0.07862
 O304 O -0.07915 0.50292 0.03480
 Zr305 Zr -0.00032 0.54087 -0.00012
 Zr306 Zr -0.00028 0.45901 -0.00009
 O307 O -0.00029 0.47606 0.03995
 O308 O -0.00031 0.52451 0.04029
 O309 O 0.04022 0.47531 -0.00010
 O310 O -0.04043 0.52388 -0.00008
 O311 O 0.03981 0.52382 -0.00008
 O312 O -0.04077 0.47537 -0.00005
 H313 H -0.00033 0.46366 -0.05637
 H314 H -0.05668 0.53637 -0.00009
 H315 H -0.00024 0.46366 0.05622
 H316 H 0.05610 0.53623 -0.00003
 H317 H -0.08626 0.48743 -0.02356
 H318 H -0.08630 0.48739 0.02367
 H319 H -0.02409 0.51270 0.08574
 H320 H 0.02321 0.51236 0.08571
 H321 H 0.08569 0.48721 0.02358
 H322 H 0.08572 0.48731 -0.02367
 H323 H 0.02349 0.51265 -0.08587
 H324 H -0.02386 0.51239 -0.08590
 O325 O 0.95211 0.05077 0.46085
 O326 O 0.97739 0.02425 0.43060
 C327 C 0.95946 0.04331 0.43612
 O328 O 1.05101 0.04839 0.53861
 O329 O 1.02440 0.02325 0.56889
 C330 C 1.04352 0.04112 0.56335
 O331 O 1.04879 0.05057 0.46072
 O332 O 1.02342 0.02415 0.43053
 C333 C 1.04143 0.04314 0.43599
 O334 O 0.94983 0.04852 0.53872
 O335 O 0.97642 0.02333 0.56896
 C336 C 0.95731 0.04123 0.56345
 Zr337 Zr 0.96537 0.03532 0.49978
 O338 O 0.96577 0.07886 0.50272
 O339 O 0.92161 0.03534 0.49689
 Zr340 Zr 1.03552 0.03514 0.49969
 O341 O 1.03552 0.07867 0.50258
 O342 O 1.07929 0.03466 0.49670
 O343 O 1.00045 0.04060 0.47507
 O344 O 1.00045 0.04025 0.52373
 O345 O 0.94982 -0.04777 0.53876
 O346 O 0.97636 -0.02254 0.56895
 C347 C 0.95732 -0.04049 0.56347
 O348 O 1.04851 -0.05017 0.46082
 O349 O 1.02330 -0.02362 0.43058
 C350 C 1.04116 -0.04274 0.43610
 O351 O 1.05086 -0.04788 0.53867
 O352 O 1.02431 -0.02261 0.56892
 C353 C 1.04337 -0.04057 0.56341
 O354 O 0.95199 -0.04991 0.46090
 O355 O 0.97733 -0.02350 0.43062
 C356 C 0.95935 -0.04249 0.43616
 Zr357 Zr 0.96522 -0.03443 0.49982
 O358 O 0.96516 -0.07797 0.50272
 O359 O 0.92145 -0.03390 0.49694
 Zr360 Zr 1.03537 -0.03462 0.49975
 O361 O 1.03513 -0.07815 0.50273
 O362 O 1.07913 -0.03451 0.49672
 Zr363 Zr 1.00037 0.00033 0.45868
 Zr364 Zr 1.00037 0.00037 0.54086
 O365 O 1.00030 -0.03953 0.52376
 O366 O 1.00029 -0.03991 0.47514
 O367 O 0.95989 0.00046 0.52448
 O368 O 1.04048 0.00023 0.47571
 O369 O 0.96026 0.00045 0.47580
 O370 O 1.04085 0.00026 0.52439
 H371 H 1.00047 0.05643 0.53623
 H372 H 1.05672 0.00017 0.46315
 H373 H 1.00029 -0.05572 0.53625
 H374 H 0.94401 0.00047 0.46330
 H375 H 1.08640 0.02375 0.51245
 H376 H 1.08630 -0.02333 0.51224
 H377 H 1.02382 -0.08524 0.48725
 H378 H 0.97657 -0.08512 0.48730
 H379 H 0.91435 -0.02319 0.51284
 H380 H 0.91446 0.02388 0.51223
 H381 H 0.97685 0.08592 0.48703
 H382 H 1.02414 0.08580 0.48715
 C383 C 1.10068 0.10056 0.32253
 N384 N 1.09372 0.11687 0.34426
 N385 N 1.08241 0.10602 0.36694
 C386 C 1.07772 0.07850 0.36860
 N387 N 1.08468 0.06219 0.34688
 N388 N 1.09599 0.07305 0.32420
 C389 C 1.11273 0.11232 0.29805
 C390 C 1.12279 0.12234 0.27752
 C391 C 1.06519 0.06676 0.39285
 C392 C 1.05447 0.05637 0.41284
 C393 C 0.90010 -0.09995 0.32302
 N394 N 0.92256 -0.11198 0.33479
 N395 N 0.93392 -0.10123 0.35746
 C396 C 0.92313 -0.07815 0.36908
 N397 N 0.90071 -0.06608 0.35727
 N398 N 0.88934 -0.07683 0.33460
 C399 C 0.88787 -0.11158 0.29863
 C400 C 0.87771 -0.12154 0.27817
 C401 C 0.93567 -0.06626 0.39318
 C402 C 0.94636 -0.05578 0.41309
 C403 C 0.89917 0.09954 0.67691
 N404 N 0.89295 0.07324 0.66973
 N405 N 0.90381 0.06209 0.64698
 C406 C 0.92116 0.07692 0.63067
 N407 N 0.92743 0.10320 0.63788
 N408 N 0.91657 0.11436 0.66064
 C409 C 0.88737 0.11158 0.70135
 C410 C 0.87738 0.12173 0.72182
 C411 C 0.93330 0.06468 0.60650
 C412 C 0.94391 0.05414 0.58656
 C413 C 1.10124 -0.09917 0.67680
 N414 N 1.09284 -0.11532 0.65550
 N415 N 1.08194 -0.10407 0.63282
 C416 C 1.07915 -0.07633 0.63075
 N417 N 1.08745 -0.06019 0.65210
 N418 N 1.09835 -0.07144 0.67477
 C419 C 1.11304 -0.11124 0.70122
 C420 C 1.12292 -0.12133 0.72177
 C421 C 1.06713 -0.06413 0.60651
 C422 C 1.05664 -0.05356 0.58653
 C423 C 0.32220 1.09991 1.10075
 N424 N 0.33402 1.07697 1.11167
 N425 N 0.35678 1.06621 1.10030
 C426 C 0.36848 1.07808 1.07771
 N427 N 0.35662 1.10097 1.06677
 N428 N 0.33386 1.11173 1.07813
 C429 C 0.29771 1.11165 1.11303
 C430 C 0.27720 1.12175 1.12319
 C431 C 0.39272 1.06616 1.06511
 C432 C 0.41274 1.05576 1.05432
 C433 C 0.32251 0.89946 0.89985
 N434 N 0.33497 0.92176 0.88836
 N435 N 0.35770 0.93248 0.89975
 C436 C 0.36872 0.92121 0.92296
 N437 N 0.35622 0.89895 0.93448
 N438 N 0.33349 0.88823 0.92309
 C439 C 0.29804 0.88779 0.88757
 C440 C 0.27751 0.87779 0.87741
 C441 C 0.39294 0.93308 0.93555
 C442 C 0.41294 0.94348 0.94631
 C443 C 0.67737 0.90036 1.10173
 N444 N 0.66508 0.92238 1.11393
 N445 N 0.64238 0.93359 1.10296
 C446 C 0.63123 0.92309 1.07947
 N447 N 0.64357 0.90110 1.06722
 N448 N 0.66627 0.88990 1.07820
 C449 C 0.70188 0.88831 1.11352
 C450 C 0.72249 0.87818 1.12336
 C451 C 0.60702 0.93545 1.06738
 C452 C 0.58701 0.94603 1.05683
 C453 C 0.67737 1.09925 0.89899
 N454 N 0.66553 1.07687 0.88704
 N455 N 0.64282 1.06559 0.89794
 C456 C 0.63120 1.07638 0.92110
 N457 N 0.64306 1.09873 0.93307
 N458 N 0.66578 1.11001 0.92217
 C459 C 0.70182 1.11146 0.88718
 C460 C 0.72231 1.12177 0.87723
 C461 C 0.60703 1.06389 0.93320
 C462 C 0.58707 1.05323 0.94380
 C463 C 0.10009 0.32307 0.09983
 N464 N 0.11099 0.33370 0.07626
 N465 N 0.10028 0.35641 0.06500
 C466 C 0.07837 0.36924 0.07700
 N467 N 0.06741 0.35857 0.10054
 N468 N 0.07813 0.33586 0.11180
 C469 C 0.11180 0.29869 0.11203
 C470 C 0.12181 0.27828 0.12223
 C471 C 0.06649 0.39340 0.06456
 C472 C 0.05607 0.41334 0.05386
 C473 C -0.10089 0.32311 -0.09943
 N474 N -0.07864 0.33556 -0.11120
 N475 N -0.06790 0.35828 -0.10002
 C476 C -0.07913 0.36930 -0.07677
 N477 N -0.10132 0.35681 -0.06496
 N478 N -0.11205 0.33409 -0.07614
 C479 C -0.11260 0.29873 -0.11155
 C480 C -0.12259 0.27832 -0.12172
 C481 C -0.06722 0.39346 -0.06443
 C482 C -0.05675 0.41340 -0.05383
 C483 C 0.09943 0.67686 -0.10044
 N484 N 0.11552 0.65804 -0.08729
 N485 N 0.10431 0.63533 -0.07652
 C486 C 0.07667 0.63072 -0.07863
 N487 N 0.06057 0.64958 -0.09170
 N488 N 0.07178 0.67228 -0.10247
 C489 C 0.11154 0.70126 -0.11217
 C490 C 0.12173 0.72170 -0.12209
 C491 C 0.06448 0.60650 -0.06663
 C492 C 0.05396 0.58653 -0.05613
 C493 C -0.10013 0.67672 0.10040
 N494 N -0.09380 0.65487 0.11674
 N495 N -0.08256 0.63221 0.10589
 C496 C -0.07734 0.63070 0.07836
 N497 N -0.08366 0.65255 0.06203
 N498 N -0.09489 0.67521 0.07287
 C499 C -0.11214 0.70116 0.11210
 C500 C -0.12220 0.72168 0.12199
 C501 C -0.06495 0.60646 0.06662
 C502 C -0.05433 0.58650 0.05622
 C503 C 1.10028 0.10031 0.67690
 N504 N 1.09954 0.07251 0.67410
 N505 N 1.08899 0.06110 0.65136
 C506 C 1.07895 0.07714 0.63069
 N507 N 1.07961 0.10495 0.63352
 N508 N 1.09016 0.11636 0.65627
 C509 C 1.11195 0.11257 0.70126
 C510 C 1.12196 0.12274 0.72169
 C511 C 1.06718 0.06477 0.60644
 C512 C 1.05679 0.05411 0.58645
 C513 C 0.90066 -0.10013 0.67695
 N514 N 0.92183 -0.11252 0.66329
 N515 N 0.93245 -0.10110 0.64055
 C516 C 0.92215 -0.07699 0.63075
 N517 N 0.90102 -0.06456 0.64445
 N518 N 0.89042 -0.07598 0.66718
 C519 C 0.88903 -0.11249 0.70130
 C520 C 0.87900 -0.12274 0.72169
 C521 C 0.93389 -0.06441 0.60657
 C522 C 0.94420 -0.05361 0.58660
 C523 C 1.09890 -0.10140 0.32272
 N524 N 1.09043 -0.07475 0.32271
 N525 N 1.07940 -0.06364 0.34540
 C526 C 1.07655 -0.07883 0.36878
 N527 N 1.08502 -0.10548 0.36880
 N528 N 1.09605 -0.11660 0.34611
 C529 C 1.11083 -0.11334 0.29833
 C530 C 1.12097 -0.12334 0.27788
 C531 C 1.06442 -0.06683 0.39304
 C532 C 1.05397 -0.05621 0.41301
 C533 C 0.90123 0.10166 0.32282
 N534 N 0.88965 0.07914 0.33476
 N535 N 0.90077 0.06817 0.35747
 C536 C 0.92375 0.07944 0.36895
 N537 N 0.93538 0.10191 0.35696
 N538 N 0.92427 0.11288 0.33425
 C539 C 0.88915 0.11356 0.29847
 C540 C 0.87889 0.12351 0.27805
 C541 C 0.93602 0.06731 0.39309
 C542 C 0.94656 0.05670 0.41302
 C543 C 0.09988 0.32317 -0.10022
 N544 N 0.11215 0.33515 -0.07804
 N545 N 0.10140 0.35785 -0.06681
 C546 C 0.07809 0.36931 -0.07745
 N547 N 0.06577 0.35728 -0.09959
 N548 N 0.07652 0.33457 -0.11083
 C549 C 0.11160 0.29881 -0.11238
 C550 C 0.12165 0.27841 -0.12251
 C551 C 0.06622 0.39347 -0.06505
 C552 C 0.05580 0.41341 -0.05439
 C553 C -0.10045 0.32357 0.10005
 N554 N -0.11283 0.34842 0.10366
 N555 N -0.10202 0.37102 0.09229
 C556 C -0.07852 0.36942 0.07698
 N557 N -0.06615 0.34457 0.07336
 N558 N -0.07696 0.32197 0.08472
 C559 C -0.11215 0.29924 0.11213
 C560 C -0.12206 0.27876 0.12215
 C561 C -0.06681 0.39364 0.06470
 C562 C -0.05640 0.41358 0.05411
 C563 C -0.09922 0.67677 -0.10080
 N564 N -0.11566 0.65637 -0.09087
 N565 N -0.10451 0.63366 -0.08007
 C566 C -0.07659 0.63064 -0.07896
 N567 N -0.06016 0.65109 -0.08880
 N568 N -0.07130 0.67380 -0.09959
 C569 C -0.11120 0.70110 -0.11265
 C570 C -0.12131 0.72149 -0.12266
 C571 C -0.06452 0.60641 -0.06700
 C572 C -0.05407 0.58644 -0.05650
 C573 C 0.09868 0.67649 0.10071
 N574 N 0.11223 0.66229 0.08067
 N575 N 0.10113 0.63956 0.06990
 C576 C 0.07618 0.63032 0.07891
 N577 N 0.06261 0.64455 0.09891
 N578 N 0.07371 0.66728 0.10968
 C579 C 0.11070 0.70084 0.11241
 C580 C 0.12090 0.72123 0.12230
 C581 C 0.06394 0.60623 0.06688
 C582 C 0.05340 0.58635 0.05632
 C583 C 0.32324 1.10039 0.90070
 N584 N 0.33547 1.07807 0.88902
 N585 N 0.35818 1.06718 0.90023
 C586 C 0.36935 1.07833 0.92339
 N587 N 0.35708 1.10061 0.93510
 N588 N 0.33437 1.11151 0.92389
 C589 C 0.29891 1.11220 0.88860
 C590 C 0.27849 1.12222 0.87843
 C591 C 0.39340 1.06628 0.93576
 C592 C 0.41328 1.05572 0.94639
 C593 C 0.32293 0.89870 1.09936
 N594 N 0.33431 0.92172 1.11047
 N595 N 0.35708 0.93269 1.09943
 C596 C 0.36916 0.92093 1.07702
 N597 N 0.35773 0.89796 1.06586
 N598 N 0.33496 0.88698 1.07689
 C599 C 0.29856 0.88681 1.11133
 C600 C 0.27813 0.87677 1.12145
 C601 C 0.39329 0.93305 1.06484
 C602 C 0.41322 0.94367 1.05436
 C603 C 0.67682 1.09998 1.10021
 N604 N 0.66368 1.11218 1.07866
 N605 N 0.64097 1.10086 1.06790
 C606 C 0.63070 1.07704 1.07842
 N607 N 0.64389 1.06481 1.09991
 N608 N 0.66660 1.07612 1.11067
 C609 C 0.70123 1.11213 1.11184
 C610 C 0.72172 1.12226 1.12174
 C611 C 0.60659 1.06459 1.06652
 C612 C 0.58667 1.05387 1.05612
 C613 C 0.67708 0.89982 0.90001
 N614 N 0.66569 0.92259 0.88838
 N615 N 0.64292 0.93384 0.89916
 C616 C 0.63085 0.92260 0.92184
 N617 N 0.64228 0.89987 0.93351
 N618 N 0.66505 0.88861 0.92273
 C619 C 0.70148 0.88768 0.88830
 C620 C 0.72194 0.87754 0.87829
 C621 C 0.60672 0.93503 0.93376
 C622 C 0.58679 0.94572 0.94422
   
