data_POSCAR
  _audit_creation_date              2014-09-24
  _audit_creation_method            'ToBaCCo'
  _symmetry_space_group_name_H-M    'P1'
  _symmetry_Int_Tables_number       1
  _symmetry_cell_setting            triclinic
  loop_
  _symmetry_equiv_pos_as_xyz
 x,y,z
_cell_length_a 18.6599
_cell_length_b 17.7071
_cell_length_c 19.7251
_cell_angle_alpha 89.005800
_cell_angle_beta 89.029500
_cell_angle_gamma 88.327500
loop_
  _atom_site_label
  _atom_site_type_symbol
  _atom_site_fract_x
  _atom_site_fract_y
  _atom_site_fract_z
N1 N 0.41320 0.44950 1.40245
 N2 N 1.09076 0.55248 0.88797
 N3 N 0.60915 -0.09530 0.09776
 N4 N -0.08263 1.08264 -0.39215
 N5 N 0.57379 0.57843 0.60547
 N6 N 0.91869 0.41877 0.09924
 N7 N 0.43212 0.05364 0.89946
 N8 N 0.09222 0.93814 0.39955
 Zn9 Zn 0.07191 1.05862 -0.04064
 Zn10 Zn -0.02040 0.93069 -0.06360
 Zn11 Zn 0.07891 0.92813 0.04930
 Zn12 Zn -0.04578 1.03586 0.05047
 O13 O 0.02056 0.98743 -0.00074
 O14 O 0.03858 1.07967 -0.12250
 O15 O 0.02355 0.83804 -0.06830
 O16 O 0.17198 0.93634 0.02387
 O17 O -0.02127 0.97692 -0.14612
 O18 O 0.16412 1.03252 -0.04934
 O19 O 0.05866 0.83149 0.03855
 O20 O -0.02712 1.02324 0.13833
 O21 O -0.11337 0.91654 -0.04196
 O22 O 0.06966 0.94699 0.13804
 O23 O -0.13316 0.99927 0.04027
 O24 O -0.04805 1.13672 0.03362
 O25 O 0.06641 1.14483 0.00468
 C26 C 0.00110 1.04213 -0.16231
 C27 C 0.04690 0.80000 -0.01739
 C28 C 0.20056 0.98084 -0.01935
 C29 C 0.02180 0.98600 0.16934
 C30 C -0.15477 0.94827 0.00169
 C31 C 0.00768 1.17566 0.02439
 Zn32 Zn 0.46851 -0.05203 0.43401
 Zn33 Zn 0.53841 -0.03692 0.56897
 Zn34 Zn 0.58379 0.06215 0.45270
 Zn35 Zn 0.44112 0.08555 0.51724
 O36 O 0.50811 0.01426 0.49289
 O37 O 0.47673 -0.14855 0.46413
 O38 O 0.63242 -0.03020 0.58115
 O39 O 0.59723 0.03295 0.36731
 O40 O 0.52359 -0.13594 0.56574
 O41 O 0.51093 -0.04800 0.34999
 O42 O 0.66700 0.04555 0.49695
 O43 O 0.46080 0.17796 0.48745
 O44 O 0.49715 -0.00221 0.64598
 O45 O 0.57004 0.16299 0.44386
 O46 O 0.42889 0.09222 0.60629
 O47 O 0.35517 0.06752 0.48602
 O48 O 0.37271 -0.03481 0.42425
 C49 C 0.49944 -0.17685 0.51971
 C50 C 0.68083 0.00557 0.54955
 C51 C 0.56406 -0.01015 0.32856
 C52 C 0.51536 0.20449 0.45768
 C53 C 0.45361 0.05316 0.65540
 C54 C 0.33147 0.01643 0.44914
 Zn55 Zn 0.92711 0.45386 0.44403
 Zn56 Zn 1.03963 0.44457 0.54995
 Zn57 Zn 1.05023 0.55539 0.43367
 Zn58 Zn 0.93837 0.57784 0.54275
 O59 O 0.98910 0.50804 0.49276
 O60 O 0.93927 0.35497 0.45678
 O61 O 1.13369 0.44589 0.53302
 O62 O 1.02908 0.54259 0.34604
 O63 O 1.01508 0.34742 0.54210
 O64 O 0.93558 0.46884 0.35490
 O65 O 1.14207 0.52414 0.44442
 O66 O 0.96237 0.67346 0.52241
 O67 O 1.02989 0.46934 0.63790
 O68 O 1.04825 0.65518 0.44475
 O69 O 0.95437 0.56772 0.63101
 O70 O 0.84313 0.56877 0.53703
 O71 O 0.83527 0.47326 0.46674
 C72 C 0.97467 0.31653 0.50006
 C73 C 1.17074 0.47978 0.48813
 C74 C 0.97972 0.50600 0.31924
 C75 C 1.01046 0.69862 0.48233
 C76 C 0.99319 0.52219 0.66553
 C77 C 0.80630 0.52111 0.50655
 Zn78 Zn 0.48074 0.43512 0.92593
 Zn79 Zn 0.42744 0.54666 1.02702
 Zn80 Zn 0.51645 0.41431 1.06721
 Zn81 Zn 0.57821 0.53984 0.98977
 O82 O 0.50051 0.48395 1.00224
 O83 O 0.38636 0.44038 0.90974
 O84 O 0.40752 0.53801 1.11608
 O85 O 0.48658 0.32397 1.04386
 O86 O 0.34748 0.52880 0.98135
 O87 O 0.50481 0.33537 0.93284
 O88 O 0.47581 0.43905 1.14648
 O89 O 0.65848 0.49428 1.02269
 O90 O 0.44932 0.64417 1.01633
 O91 O 0.60932 0.40169 1.08283
 O92 O 0.56588 0.62800 1.03256
 O93 O 0.59228 0.56114 0.90105
 O94 O 0.52337 0.47797 0.85233
 C95 C 0.33625 0.48195 0.93473
 C96 C 0.43267 0.49317 1.16125
 C97 C 0.49482 0.29457 0.98587
 C98 C 0.66396 0.43665 1.06188
 C99 C 0.50912 0.66947 1.03403
 C100 C 0.56622 0.53267 0.84828
 C101 C 1.35393 0.45521 0.44998
 C102 C 1.35692 0.43304 0.51737
 C103 C 1.28806 0.44006 0.54117
 C104 C 1.24869 0.46681 0.48677
 O105 O 1.28842 0.47624 0.43148
 H106 H 1.40325 0.41269 0.54525
 H107 H 1.26865 0.42669 0.59186
 C108 C 0.15718 0.50883 0.88728
 C109 C 0.16993 0.44206 0.85329
 C110 C 0.23979 0.42225 0.86639
 C111 C 0.26370 0.47795 0.90782
 O112 O 0.21386 0.53024 0.92046
 H113 H 0.13311 0.41122 0.82319
 H114 H 0.26957 0.37301 0.84835
 C115 C -0.33221 0.90898 0.04906
 C116 C -0.33387 0.88186 -0.01627
 C117 C -0.26691 0.89237 -0.04279
 C118 C -0.22982 0.92613 0.00773
 O119 O -0.26913 0.93638 0.06347
 H120 H -0.37831 0.85711 -0.04152
 H121 H -0.24757 0.87787 -0.09308
 C122 C 0.85703 0.03460 0.60085
 C123 C 0.84640 -0.03133 0.63757
 C124 C 0.77912 -0.05249 0.62149
 C125 C 0.75402 0.00182 0.57606
 O126 O 0.80107 0.05470 0.56353
 H127 H 0.88233 -0.05985 0.67270
 H128 H 0.75104 -0.10084 0.64155
 C129 C 0.46692 0.39033 0.41162
 C130 C 0.53559 0.39093 0.38440
 C131 C 0.56528 0.32157 0.40074
 C132 C 0.51225 0.28428 0.43628
 O133 O 0.45275 0.32586 0.44288
 H134 H 0.56034 0.43579 0.35528
 H135 H 0.61814 0.29992 0.38651
 C136 C 0.93656 0.13344 0.55280
 C137 C 0.91634 0.12632 0.48616
 C138 C 0.93334 0.19307 0.45511
 C139 C 0.96370 0.23508 0.50480
 O140 O 0.96690 0.19854 0.56331
 H141 H 0.88829 0.08054 0.46393
 H142 H 0.92082 0.21088 0.40379
 C143 C 0.08216 0.61178 -0.06335
 C144 C 0.10432 0.60543 0.00286
 C145 C 0.09139 0.67491 0.02948
 C146 C 0.06296 0.71862 -0.02268
 O147 O 0.05722 0.68049 -0.07928
 H148 H 0.12782 0.55630 0.02831
 H149 H 0.10303 0.69224 0.08038
 C150 C 0.55746 0.84704 1.09002
 C151 C 0.48495 0.85599 1.10334
 C152 C 0.45595 0.79045 1.08239
 C153 C 0.51323 0.74684 1.05859
 O154 O 0.57476 0.78086 1.06354
 H155 H 0.45665 0.90502 1.12362
 H156 H 0.40004 0.77588 1.08466
 C157 C 0.40755 0.48706 1.33743
 C158 C 0.37168 0.55530 1.32589
 C159 C 0.37503 0.56650 1.25731
 C160 C 0.41281 0.50444 1.23260
 O161 O 0.43288 0.45641 1.28104
 H162 H 0.34609 0.59210 1.36285
 H163 H 0.35330 0.61441 1.22879
 C164 C 0.60658 -0.04860 0.15708
 C165 C 0.64023 0.01950 0.16132
 C166 C 0.62854 0.04205 0.22620
 C167 C 0.58781 -0.01316 0.25681
 O168 O 0.57380 -0.06830 0.21482
 H169 H 0.66979 0.04927 0.12208
 H170 H 0.64718 0.09312 0.24864
 C171 C -0.05663 1.09632 -0.32505
 C172 C -0.04973 1.16748 -0.29841
 C173 C -0.02416 1.15548 -0.23518
 C174 C -0.01931 1.07818 -0.22678
 O175 O -0.03967 1.04169 -0.28089
 H176 H -0.06409 1.22192 -0.32066
 H177 H -0.01337 1.19803 -0.19824
 C178 C 1.03914 0.54682 0.83496
 C179 C 0.96917 0.57412 0.83979
 C180 C 0.94176 0.56579 0.77694
 C181 C 0.99661 0.53312 0.73885
 O182 O 1.05587 0.52151 0.77379
 H183 H 0.94220 0.59926 0.88322
 H184 H 0.88876 0.58322 0.76024
 C185 C 0.62907 0.54094 0.56646
 C186 C 0.61733 0.48443 0.52130
 C187 C 0.68263 0.46987 0.49127
 C188 C 0.72874 0.51924 0.52029
 O189 O 0.69629 0.56237 0.56611
 H190 H 0.56737 0.45739 0.51181
 H191 H 0.69529 0.42795 0.45328
 C192 C 0.84401 0.40337 1.10323
 C193 C 0.81614 0.34447 1.14072
 C194 C 0.74446 0.34900 1.12946
 C195 C 0.73439 0.41037 1.08607
 O196 O 0.79493 0.44384 1.07011
 H197 H 0.84485 0.30344 1.17211
 H198 H 0.70416 0.31218 1.15051
 C199 C 0.37810 1.00682 -0.07137
 C200 C 0.39130 0.94156 -0.03418
 C201 C 0.32543 0.92098 -0.00974
 C202 C 0.27778 0.97561 -0.03427
 O203 O 0.30972 1.02757 -0.07165
 H204 H 0.44269 0.91378 -0.02512
 H205 H 0.31367 0.87298 0.02283
 C206 C 0.15068 -0.01611 0.41703
 C207 C 0.14338 0.06015 0.42867
 C208 C 0.21085 0.08227 0.44192
 C209 C 0.25415 0.01798 0.43609
 O210 O 0.21763 -0.04231 0.42115
 H211 H 0.09466 0.09485 0.42807
 H212 H 0.22682 0.13861 0.45430
 C213 C 0.53099 -0.36546 0.57009
 C214 C 0.49196 -0.37979 0.51310
 C215 C 0.47175 -0.31035 0.48769
 C216 C 0.50034 -0.25913 0.53092
 O217 O 0.53617 -0.29243 0.58101
 H218 H 0.48214 -0.43398 0.49113
 H219 H 0.44234 -0.29844 0.44172
 C220 C 1.06584 0.88205 0.44571
 C221 C 1.03312 0.89793 0.50721
 C222 C 1.00604 0.83078 0.52936
 C223 C 1.02470 0.77965 0.47952
 O224 O 1.06041 0.81087 0.42844
 H225 H 1.02748 0.95223 0.53140
 H226 H 0.97655 0.82026 0.57612
 C227 C -0.03406 1.36257 0.06940
 C228 C 0.03707 1.37297 0.05229
 C229 C 0.06217 1.30401 0.03116
 C230 C 0.00458 1.25702 0.03737
 O231 O -0.05390 1.29246 0.06006
 H232 H 0.06732 1.42387 0.05560
 H233 H 0.11631 1.28930 0.01462
 C234 C 0.46411 0.10728 0.94283
 C235 C 0.47944 0.09375 1.01029
 C236 C 0.49637 0.16234 1.03487
 C237 C 0.49048 0.21226 0.98057
 O238 O 0.47146 0.17899 0.92458
 H239 H 0.47559 0.04127 1.03883
 H240 H 0.50883 0.17506 1.08677
 C241 C 0.58590 0.58676 0.67652
 C242 C 0.62896 0.64051 0.70287
 C243 C 0.62834 0.62641 0.77110
 C244 C 0.58519 0.56493 0.78106
 O245 O 0.55942 0.54053 0.72345
 H246 H 0.65745 0.68415 0.67550
 H247 H 0.65557 0.65758 0.80921
 C248 C 0.42308 0.07460 0.82975
 C249 C 0.37933 0.13397 0.80816
 C250 C 0.38484 0.13339 0.73933
 C251 C 0.43125 0.07352 0.72448
 O252 O 0.45446 0.03732 0.77943
 H253 H 0.34738 0.17253 0.83904
 H254 H 0.35836 0.17204 0.70407
 C255 C 0.04973 0.96015 0.34272
 C256 C -0.02127 0.98309 0.34744
 C257 C -0.04041 0.99977 0.28246
 C258 C 0.02028 0.98440 0.24347
 O259 O 0.07535 0.96055 0.28000
 H260 H -0.05466 0.98656 0.39264
 H261 H -0.09296 1.01809 0.26518
 C262 C 0.94589 0.46660 0.14996
 C263 C 0.99031 0.52593 0.13707
 C264 C 1.00917 0.55027 0.19950
 C265 C 0.97392 0.50395 0.24529
 O266 O 0.93532 0.45332 0.21529
 H267 H 1.00697 0.54778 0.08818
 H268 H 1.04457 0.59570 0.21034
   
