data_POSCAR
  _audit_creation_date              2014-09-24
  _audit_creation_method            'ToBaCCo'
  _symmetry_space_group_name_H-M    'P1'
  _symmetry_Int_Tables_number       1
  _symmetry_cell_setting            triclinic
  loop_
  _symmetry_equiv_pos_as_xyz
 x,y,z
_cell_length_a 36.1708
_cell_length_b 36.2113
_cell_length_c 36.2359
_cell_angle_alpha 89.986000
_cell_angle_beta 90.096100
_cell_angle_gamma 90.022300
loop_
  _atom_site_label
  _atom_site_type_symbol
  _atom_site_fract_x
  _atom_site_fract_y
  _atom_site_fract_z
C1 C 0.26393 1.09458 -0.00026
 C2 C 0.26552 1.07516 0.03319
 C3 C 0.26221 1.03663 0.03216
 C4 C 0.25485 1.01761 -0.00135
 C5 C 0.25166 1.03859 -0.03431
 C6 C 0.25681 1.07708 -0.03415
 C7 C 0.25042 0.97620 -0.00160
 C8 C 0.25400 0.95539 -0.03463
 C9 C 0.25012 0.91677 -0.03449
 C10 C 0.24428 0.89873 -0.00073
 C11 C 0.24137 0.91834 0.03245
 C12 C 0.24310 0.95688 0.03160
 H13 H 0.26740 1.12424 0.00027
 H14 H 0.26629 1.02189 0.05770
 H15 H 0.24445 1.02547 -0.06008
 H16 H 0.26065 0.96859 -0.06049
 H17 H 0.24224 0.86892 -0.00020
 H18 H 0.23818 0.97125 0.05718
 C19 C 0.75505 0.59708 0.49816
 C20 C 0.76052 0.57775 0.53109
 C21 C 0.76033 0.53916 0.53040
 C22 C 0.75258 0.51950 0.49739
 C23 C 0.74639 0.54009 0.46466
 C24 C 0.74838 0.57875 0.46481
 C25 C 0.75085 0.47796 0.49736
 C26 C 0.75364 0.45743 0.46411
 C27 C 0.75166 0.41872 0.46430
 C28 C 0.74901 0.40037 0.49830
 C29 C 0.74708 0.41974 0.53174
 C30 C 0.74657 0.45831 0.53089
 H31 H 0.75582 0.62696 0.49855
 H32 H 0.76698 0.52509 0.55580
 H33 H 0.73921 0.52670 0.43904
 H34 H 0.75796 0.47095 0.43795
 H35 H 0.74845 0.37050 0.49878
 H36 H 0.74242 0.47248 0.55672
 C37 C 0.74287 0.99902 1.09541
 C38 C 0.74228 0.96501 1.07686
 C39 C 0.74441 0.96520 1.03810
 C40 C 0.74909 0.99880 1.01828
 C41 C 0.75243 1.03209 1.03870
 C42 C 0.74787 1.03268 1.07701
 C43 C 0.74982 0.99972 0.97667
 C44 C 0.74394 1.03339 0.95754
 C45 C 0.74554 1.03521 0.91909
 C46 C 0.75063 1.00255 0.89903
 C47 C 0.75504 0.96834 0.91674
 C48 C 0.75567 0.96729 0.95550
 H49 H 0.74008 0.99929 1.12511
 H50 H 0.74154 0.93919 1.02388
 H51 H 0.75888 1.05786 1.02528
 H52 H 0.73710 1.05855 0.97188
 H53 H 0.75113 1.00386 0.86919
 H54 H 0.76107 0.94109 0.96859
 C55 C 0.24609 0.49921 0.59588
 C56 C 0.25348 0.46553 0.57842
 C57 C 0.25557 0.46459 0.53974
 C58 C 0.24882 0.49678 0.51841
 C59 C 0.24047 0.53006 0.53722
 C60 C 0.23999 0.53155 0.57573
 C61 C 0.25014 0.49593 0.47693
 C62 C 0.25464 0.52904 0.45654
 C63 C 0.25332 0.52915 0.41795
 C64 C 0.25012 0.49533 0.39936
 C65 C 0.24718 0.46174 0.41851
 C66 C 0.24631 0.46233 0.45721
 H67 H 0.24519 0.50037 0.62572
 H68 H 0.26310 0.43881 0.52682
 H69 H 0.23339 0.55497 0.52247
 H70 H 0.25955 0.55505 0.47021
 H71 H 0.24998 0.49513 0.36950
 H72 H 0.24182 0.43653 0.47144
 C73 C 1.09810 0.24479 -0.00029
 C74 C 1.08081 0.24872 0.03416
 C75 C 1.04205 0.25229 0.03503
 C76 C 1.02058 0.24984 0.00224
 C77 C 1.03937 0.24440 -0.03166
 C78 C 1.07789 0.24288 -0.03310
 C79 C 0.97898 0.25253 0.00313
 C80 C 0.95865 0.25952 -0.02968
 C81 C 0.91986 0.25949 -0.02997
 C82 C 0.90127 0.25559 0.00380
 C83 C 0.92032 0.24954 0.03697
 C84 C 0.95900 0.24732 0.03638
 H85 H 1.12796 0.24335 -0.00188
 H86 H 1.02911 0.25748 0.06133
 H87 H 1.02469 0.24038 -0.05726
 H88 H 0.97254 0.26534 -0.05532
 H89 H 0.87137 0.25674 0.00440
 H90 H 0.97285 0.24047 0.06187
 C91 C 0.59294 0.74789 0.50058
 C92 C 0.57452 0.75218 0.53426
 C93 C 0.53572 0.75282 0.53451
 C94 C 0.51527 0.74787 0.50142
 C95 C 0.53510 0.74232 0.46813
 C96 C 0.57369 0.74352 0.46741
 C97 C 0.47367 0.74904 0.50114
 C98 C 0.45434 0.75546 0.46774
 C99 C 0.41577 0.75494 0.46636
 C100 C 0.39592 0.75051 0.49926
 C101 C 0.41395 0.74552 0.53326
 C102 C 0.45278 0.74386 0.53383
 H103 H 0.62286 0.74816 0.50013
 H104 H 0.52207 0.75813 0.56044
 H105 H 0.52115 0.73646 0.44246
 H106 H 0.46874 0.76161 0.44244
 H107 H 0.36601 0.75078 0.49830
 H108 H 0.46620 0.73799 0.55980
 C109 C -0.00054 0.74716 -0.09657
 C110 C 0.03124 0.74065 -0.07567
 C111 C 0.02883 0.74089 -0.03730
 C112 C -0.00472 0.74971 -0.01916
 C113 C -0.03663 0.75603 -0.04113
 C114 C -0.03497 0.75395 -0.07996
 C115 C -0.00576 0.75220 0.02231
 C116 C -0.03936 0.74956 0.04242
 C117 C -0.03953 0.75132 0.08130
 C118 C -0.00532 0.75352 0.09980
 C119 C 0.02822 0.75593 0.08076
 C120 C 0.02758 0.75691 0.04231
 H121 H 0.00185 0.74670 -0.12635
 H122 H 0.05340 0.73330 -0.02216
 H123 H -0.06264 0.76324 -0.02846
 H124 H -0.06535 0.74559 0.02828
 H125 H -0.00458 0.75343 0.12965
 H126 H 0.05352 0.76164 0.02844
 C127 C 0.49776 0.24384 0.40543
 C128 C 0.53144 0.23846 0.42367
 C129 C 0.53195 0.23800 0.46224
 C130 C 0.49960 0.24536 0.48295
 C131 C 0.46601 0.25132 0.46353
 C132 C 0.46490 0.24992 0.42487
 C133 C 0.50134 0.24764 0.52437
 C134 C 0.46897 0.24449 0.54612
 C135 C 0.47044 0.24815 0.58465
 C136 C 0.50493 0.25293 0.60171
 C137 C 0.53760 0.25518 0.58111
 C138 C 0.53552 0.25354 0.54263
 H139 H 0.49713 0.24349 0.37556
 H140 H 0.55784 0.23152 0.47557
 H141 H 0.44077 0.25817 0.47781
 H142 H 0.44249 0.23881 0.53360
 H143 H 0.50647 0.25482 0.63149
 H144 H 0.56079 0.25791 0.52747
 C145 C 1.09921 -0.00306 0.24710
 C146 C 1.08212 0.03160 0.25114
 C147 C 1.04336 0.03263 0.25491
 C148 C 1.02168 -0.00003 0.25223
 C149 C 1.04017 -0.03398 0.24668
 C150 C 1.07865 -0.03580 0.24523
 C151 C 0.98008 0.00108 0.25448
 C152 C 0.95930 -0.03159 0.26119
 C153 C 0.92047 -0.03129 0.26089
 C154 C 0.90245 0.00275 0.25676
 C155 C 0.92194 0.03549 0.25053
 C156 C 0.96055 0.03452 0.24883
 H157 H 1.12904 -0.00483 0.24545
 H158 H 1.03054 0.05898 0.26025
 H159 H 1.02520 -0.05939 0.24248
 H160 H 0.97280 -0.05748 0.26705
 H161 H 0.87256 0.00395 0.25777
 H162 H 0.97468 0.05984 0.24193
 C163 C 0.60190 0.50365 0.74597
 C164 C 0.58339 0.53745 0.75035
 C165 C 0.54468 0.53733 0.75336
 C166 C 0.52435 0.50398 0.75049
 C167 C 0.54405 0.47066 0.74467
 C168 C 0.58268 0.47010 0.74364
 C169 C 0.48294 0.50349 0.75403
 C170 C 0.46446 0.47045 0.76384
 C171 C 0.42594 0.46886 0.76561
 C172 C 0.40546 0.50103 0.75957
 C173 C 0.42266 0.53456 0.75075
 C174 C 0.46137 0.53556 0.74745
 H175 H 0.63178 0.50340 0.74451
 H176 H 0.53088 0.56322 0.75871
 H177 H 0.52976 0.44483 0.74043
 H178 H 0.47957 0.44570 0.77081
 H179 H 0.37561 0.49980 0.76140
 H180 H 0.47413 0.56114 0.73891
 C181 C 1.00486 1.10311 0.75554
 C182 C 0.97075 1.08464 0.75795
 C183 C 0.97102 1.04588 0.75860
 C184 C 1.00419 1.02550 0.75350
 C185 C 1.03778 1.04531 0.75015
 C186 C 1.03837 1.08395 0.75200
 C187 C 1.00334 0.98399 0.75060
 C188 C 1.03574 0.96216 0.75536
 C189 C 1.03452 0.92339 0.75169
 C190 C 1.00008 0.90666 0.74515
 C191 C 0.96787 0.92735 0.74058
 C192 C 0.96974 0.96572 0.74233
 H193 H 1.00548 1.13299 0.75629
 H194 H 0.94506 1.03200 0.76329
 H195 H 1.06358 1.03125 0.74512
 H196 H 1.06183 0.97479 0.76241
 H197 H 0.99798 0.87688 0.74356
 H198 H 0.94473 0.98075 0.73622
 C199 C 0.50020 0.59963 0.24551
 C200 C 0.46685 0.58053 0.24072
 C201 C 0.46738 0.54194 0.24018
 C202 C 0.50040 0.52205 0.24686
 C203 C 0.53353 0.54225 0.25247
 C204 C 0.53374 0.58095 0.25097
 C205 C 0.49996 0.48059 0.24835
 C206 C 0.53282 0.45989 0.24343
 C207 C 0.53241 0.42124 0.24537
 C208 C 0.49869 0.40306 0.25074
 C209 C 0.46562 0.42259 0.25496
 C210 C 0.46651 0.46118 0.25469
 H211 H 0.49999 0.62952 0.24520
 H212 H 0.44178 0.52788 0.23408
 H213 H 0.55919 0.52843 0.25888
 H214 H 0.55877 0.47327 0.23729
 H215 H 0.49813 0.37317 0.25153
 H216 H 0.44097 0.47551 0.26027
 O217 O 0.26133 0.15044 0.19388
 O218 O 0.30147 0.14252 0.24834
 O219 O 0.16108 0.19045 0.24593
 O220 O 0.14617 0.23837 0.28265
 O221 O 0.20723 0.24559 0.14998
 O222 O 0.25744 0.28843 0.14128
 O223 O 0.25153 0.29940 0.34147
 O224 O 0.20988 0.24633 0.34963
 O225 O 0.34906 0.25043 0.29918
 O226 O 0.36266 0.20723 0.24846
 O227 O 0.30509 0.34264 0.25019
 O228 O 0.25222 0.35037 0.20260
 O229 O 0.25097 0.34191 0.29530
 O230 O 0.21396 0.35339 0.24303
 O231 O 0.34922 0.29800 0.25176
 O232 O 0.36290 0.24617 0.20852
 O233 O 0.30483 0.25154 0.34364
 O234 O 0.26075 0.20891 0.35545
 O235 O 0.26195 0.19649 0.15120
 O236 O 0.29823 0.24873 0.14045
 O237 O 0.16064 0.24322 0.19202
 O238 O 0.14887 0.28440 0.24384
 O239 O 0.20792 0.14860 0.24482
 O240 O 0.25862 0.13747 0.28495
 Zr241 Zr 0.25657 0.17974 0.24468
 O242 O 0.28829 0.21258 0.28093
 Zr243 Zr 0.18916 0.24198 0.24330
 O244 O 0.21927 0.27829 0.27811
 Zr245 Zr 0.25612 0.24535 0.18069
 O246 O 0.28937 0.28028 0.21266
 Zr247 Zr 0.25506 0.24822 0.31268
 O248 O 0.22240 0.21113 0.28027
 Zr249 Zr 0.32087 0.24816 0.24910
 O250 O 0.29189 0.21304 0.21303
 Zr251 Zr 0.25499 0.31193 0.24658
 O252 O 0.22111 0.27930 0.21177
 O253 O 0.22201 0.20926 0.20959
 O254 O 0.28933 0.28290 0.28243
 C255 C 0.26369 0.16241 0.16042
 C256 C 0.17356 0.15709 0.24629
 C257 C 0.17290 0.24519 0.15870
 C258 C 0.24999 0.33291 0.32942
 C259 C 0.33876 0.25225 0.33290
 C260 C 0.33895 0.33178 0.25251
 H261 H 0.30331 0.19648 0.29714
 H262 H 0.30495 0.29575 0.19647
 H263 H 0.20730 0.19294 0.19328
 H264 H 0.20165 0.29313 0.29275
 H265 H 0.19528 0.22407 0.34321
 H266 H 0.15401 0.25278 0.30448
 H267 H 0.35963 0.26761 0.19191
 H268 H 0.31967 0.23504 0.15052
 H269 H 0.25206 0.18521 0.34518
 H270 H 0.23905 0.14284 0.30322
 H271 H 0.27609 0.34976 0.18932
 H272 H 0.23839 0.30656 0.14872
 H273 H 0.31988 0.15053 0.22979
 H274 H 0.35767 0.18976 0.26884
 H275 H 0.15645 0.30278 0.22508
 H276 H 0.19257 0.34489 0.25773
 O277 O 0.74430 0.85030 0.20274
 O278 O 0.70314 0.86056 0.25473
 O279 O 0.84228 0.80954 0.25780
 O280 O 0.85498 0.76116 0.29499
 O281 O 0.80032 0.75525 0.15881
 O282 O 0.74826 0.71340 0.14939
 O283 O 0.74635 0.70605 0.34941
 O284 O 0.79027 0.75506 0.35866
 O285 O 0.65171 0.75304 0.30661
 O286 O 0.64206 0.79889 0.25283
 O287 O 0.69478 0.66060 0.25579
 O288 O 0.74906 0.65025 0.21301
 O289 O 0.74500 0.66053 0.30619
 O290 O 0.78702 0.64863 0.25410
 O291 O 0.65160 0.70619 0.25596
 O292 O 0.63849 0.75679 0.21569
 O293 O 0.69749 0.75173 0.34963
 O294 O 0.74043 0.79615 0.36140
 O295 O 0.74660 0.80707 0.15730
 O296 O 0.70766 0.75522 0.14687
 O297 O 0.84293 0.75721 0.20500
 O298 O 0.85268 0.71560 0.25515
 O299 O 0.79605 0.85203 0.25563
 O300 O 0.74323 0.86535 0.29182
 Zr301 Zr 0.74698 0.82196 0.25291
 O302 O 0.71347 0.79066 0.28813
 Zr303 Zr 0.81313 0.75870 0.25415
 O304 O 0.78164 0.72311 0.28782
 Zr305 Zr 0.74921 0.75725 0.18791
 O306 O 0.71393 0.72322 0.21997
 Zr307 Zr 0.74634 0.75540 0.31999
 O308 O 0.78036 0.79124 0.28937
 Zr309 Zr 0.68108 0.75540 0.25576
 O310 O 0.71233 0.78935 0.21984
 Zr311 Zr 0.74580 0.69007 0.25565
 O312 O 0.78136 0.72216 0.22145
 O313 O 0.78250 0.79227 0.21900
 O314 O 0.71162 0.72076 0.28996
 C315 C 0.74410 0.84063 0.16868
 C316 C 0.83021 0.84304 0.25820
 C317 C 0.83391 0.75519 0.17085
 C318 C 0.74501 0.67204 0.33981
 C319 C 0.66343 0.75079 0.34016
 C320 C 0.66106 0.67217 0.25628
 H321 H 0.69853 0.80714 0.30395
 H322 H 0.69850 0.70807 0.20330
 H323 H 0.79825 0.80837 0.20351
 H324 H 0.79823 0.70804 0.30344
 H325 H 0.80643 0.77628 0.35260
 H326 H 0.84721 0.74527 0.31577
 H327 H 0.64610 0.74053 0.19514
 H328 H 0.68721 0.77102 0.15577
 H329 H 0.75624 0.81713 0.35409
 H330 H 0.76129 0.86006 0.31164
 H331 H 0.72791 0.65428 0.19615
 H332 H 0.76655 0.69500 0.15807
 H333 H 0.68483 0.85275 0.23595
 H334 H 0.64354 0.81309 0.27611
 H335 H 0.84369 0.69627 0.23803
 H336 H 0.80582 0.65488 0.27294
 O337 O 0.75008 0.15735 0.80037
 O338 O 0.71966 0.14237 0.74871
 O339 O 0.85061 0.20592 0.75602
 O340 O 0.86432 0.25495 0.71892
 O341 O 0.79908 0.25532 0.84948
 O342 O 0.74867 0.28997 0.86133
 O343 O 0.75337 0.29974 0.65448
 O344 O 0.79145 0.25080 0.64223
 O345 O 0.65829 0.25621 0.70108
 O346 O 0.64280 0.21800 0.74948
 O347 O 0.70504 0.34963 0.74610
 O348 O 0.75340 0.36430 0.78523
 O349 O 0.75251 0.34674 0.69598
 O350 O 0.79861 0.35624 0.75171
 O351 O 0.65888 0.30714 0.74795
 O352 O 0.64978 0.25191 0.79451
 O353 O 0.70169 0.25332 0.65594
 O354 O 0.75702 0.20600 0.65014
 O355 O 0.74877 0.19995 0.84642
 O356 O 0.70503 0.25440 0.85289
 O357 O 0.84652 0.25725 0.80844
 O358 O 0.85597 0.29960 0.75382
 O359 O 0.80867 0.15916 0.75442
 O360 O 0.75692 0.15087 0.70670
 Zr361 Zr 0.75665 0.18739 0.75226
 O362 O 0.72000 0.21825 0.71896
 Zr363 Zr 0.81944 0.25401 0.75615
 O364 O 0.78869 0.28532 0.71777
 Zr365 Zr 0.75148 0.25152 0.81759
 O366 O 0.72011 0.28811 0.78476
 Zr367 Zr 0.75274 0.25209 0.68582
 O368 O 0.78975 0.22043 0.71841
 Zr369 Zr 0.68756 0.25554 0.75010
 O370 O 0.71817 0.21857 0.78362
 Zr371 Zr 0.75343 0.31921 0.74820
 O372 O 0.78496 0.28865 0.78699
 O373 O 0.78828 0.21845 0.78873
 O374 O 0.71862 0.28824 0.71461
 C375 C 0.74740 0.16639 0.83431
 C376 C 0.84218 0.17163 0.75532
 C377 C 0.83343 0.25779 0.84156
 C378 C 0.75224 0.33399 0.66269
 C379 C 0.66794 0.25579 0.66723
 C380 C 0.67090 0.34067 0.74587
 H381 H 0.70443 0.20139 0.70413
 H382 H 0.70502 0.30422 0.80081
 H383 H 0.80342 0.20303 0.80551
 H384 H 0.80570 0.29975 0.70202
 H385 H 0.81488 0.26065 0.65227
 H386 H 0.85592 0.24158 0.69661
 H387 H 0.64894 0.27630 0.80678
 H388 H 0.68994 0.23206 0.84824
 H389 H 0.73243 0.19410 0.64867
 H390 H 0.78043 0.15491 0.69333
 H391 H 0.74200 0.35541 0.80836
 H392 H 0.75985 0.31305 0.85188
 H393 H 0.69548 0.15171 0.75737
 H394 H 0.65251 0.19436 0.73993
 H395 H 0.85038 0.31550 0.77532
 H396 H 0.81116 0.35657 0.72747
 O397 O 0.24545 0.83725 0.80521
 O398 O 0.28469 0.84794 0.75145
 O399 O 0.14713 0.79419 0.75344
 O400 O 0.13230 0.74889 0.71481
 O401 O 0.19317 0.73889 0.84760
 O402 O 0.24623 0.69759 0.85406
 O403 O 0.23702 0.69262 0.65368
 O404 O 0.19435 0.74562 0.64785
 O405 O 0.33544 0.74184 0.69405
 O406 O 0.34847 0.78372 0.74734
 O407 O 0.29194 0.64784 0.74370
 O408 O 0.24224 0.63562 0.78920
 O409 O 0.23833 0.64873 0.69853
 O410 O 0.20104 0.63617 0.75301
 O411 O 0.33756 0.69103 0.74429
 O412 O 0.35092 0.74348 0.78567
 O413 O 0.28825 0.74095 0.65259
 O414 O 0.24455 0.78276 0.64189
 O415 O 0.24677 0.79054 0.84720
 O416 O 0.28571 0.73979 0.85596
 O417 O 0.14866 0.73944 0.80319
 O418 O 0.13657 0.70148 0.75064
 O419 O 0.19066 0.83948 0.75541
 O420 O 0.24132 0.85175 0.71370
 Zr421 Zr 0.24097 0.80925 0.75376
 O422 O 0.27342 0.77781 0.71648
 Zr423 Zr 0.17629 0.74444 0.75312
 O424 O 0.20585 0.71014 0.71724
 Zr425 Zr 0.24282 0.74203 0.81634
 O426 O 0.27660 0.70887 0.78254
 Zr427 Zr 0.24018 0.74267 0.68411
 O428 O 0.20737 0.77806 0.71740
 Zr429 Zr 0.30800 0.74148 0.74594
 O430 O 0.27783 0.77521 0.78351
 Zr431 Zr 0.24238 0.67727 0.74816
 O432 O 0.20871 0.70776 0.78439
 O433 O 0.20768 0.77750 0.78805
 O434 O 0.27585 0.70741 0.71235
 C435 C 0.24772 0.82484 0.83851
 C436 C 0.15688 0.82824 0.75436
 C437 C 0.15923 0.73711 0.83682
 C438 C 0.23630 0.65881 0.66475
 C439 C 0.32269 0.74116 0.66082
 C440 C 0.32608 0.65741 0.74318
 H441 H 0.28775 0.79470 0.70051
 H442 H 0.29253 0.69324 0.79826
 H443 H 0.19243 0.79261 0.80495
 H444 H 0.18817 0.69550 0.70241
 H445 H 0.18003 0.76789 0.65477
 H446 H 0.13998 0.73595 0.69206
 H447 H 0.34599 0.72401 0.80417
 H448 H 0.30635 0.75459 0.84584
 H449 H 0.24141 0.80697 0.65396
 H450 H 0.22073 0.84661 0.69642
 H451 H 0.26382 0.63966 0.80551
 H452 H 0.22762 0.67917 0.84614
 H453 H 0.30412 0.83884 0.76843
 H454 H 0.34262 0.80157 0.72752
 H455 H 0.14478 0.68202 0.76801
 H456 H 0.18162 0.64161 0.73454
 O457 O 0.25894 0.35096 0.70789
 O458 O 0.20961 0.35735 0.75767
 O459 O 0.35033 0.30724 0.76412
 O460 O 0.36103 0.25837 0.80209
 O461 O 0.31074 0.25453 0.66424
 O462 O 0.25813 0.21480 0.65193
 O463 O 0.25219 0.20391 0.85211
 O464 O 0.29393 0.25199 0.86399
 O465 O 0.15767 0.25238 0.80681
 O466 O 0.15141 0.30075 0.75364
 O467 O 0.20059 0.16092 0.75601
 O468 O 0.25593 0.14997 0.71507
 O469 O 0.25032 0.15889 0.80841
 O470 O 0.29254 0.14695 0.75698
 O471 O 0.15840 0.20734 0.75276
 O472 O 0.14679 0.25880 0.71648
 O473 O 0.20198 0.24922 0.85126
 O474 O 0.24592 0.29481 0.86427
 O475 O 0.25933 0.30809 0.66204
 O476 O 0.21874 0.25729 0.64925
 O477 O 0.35229 0.25488 0.71141
 O478 O 0.35987 0.21323 0.76122
 O479 O 0.30434 0.34988 0.76824
 O480 O 0.25303 0.36735 0.79302
 Zr481 Zr 0.25566 0.32124 0.75740
 O482 O 0.22057 0.28998 0.79125
 Zr483 Zr 0.32079 0.25674 0.75961
 O484 O 0.28766 0.22129 0.79169
 Zr485 Zr 0.25901 0.25760 0.69160
 O486 O 0.22229 0.22371 0.72194
 Zr487 Zr 0.25184 0.25354 0.82336
 O488 O 0.28723 0.28910 0.79428
 Zr489 Zr 0.18876 0.25585 0.75706
 O490 O 0.22164 0.28986 0.72255
 Zr491 Zr 0.25220 0.18925 0.75816
 O492 O 0.28936 0.22124 0.72549
 O493 O 0.29195 0.29151 0.72425
 O494 O 0.21735 0.21994 0.79182
 C495 C 0.25932 0.34165 0.67372
 C496 C 0.33847 0.34052 0.76853
 C497 C 0.34397 0.25340 0.67706
 C498 C 0.25115 0.16999 0.84220
 C499 C 0.16825 0.24899 0.84064
 C500 C 0.16720 0.17313 0.75333
 H501 H 0.20523 0.30625 0.80690
 H502 H 0.20719 0.20930 0.70432
 H503 H 0.30899 0.30742 0.70996
 H504 H 0.30372 0.20576 0.80740
 H505 H 0.31150 0.27210 0.85810
 H506 H 0.35275 0.24166 0.82202
 H507 H 0.15647 0.24639 0.69419
 H508 H 0.19936 0.27507 0.65673
 H509 H 0.26359 0.31469 0.85797
 H510 H 0.24639 0.35773 0.81767
 H511 H 0.23559 0.15489 0.69746
 H512 H 0.27511 0.19540 0.66106
 H513 H 0.19631 0.35377 0.73403
 H514 H 0.15049 0.31287 0.77809
 H515 H 0.35087 0.19396 0.74404
 H516 H 0.31133 0.15288 0.77594
 O517 O 0.75928 0.65750 0.69111
 O518 O 0.80152 0.65013 0.74365
 O519 O 0.66139 0.69902 0.74563
 O520 O 0.64901 0.74721 0.78356
 O521 O 0.70361 0.75332 0.64801
 O522 O 0.75423 0.79411 0.63582
 O523 O 0.75809 0.80840 0.83641
 O524 O 0.71511 0.75788 0.84699
 O525 O 0.85182 0.75869 0.79112
 O526 O 0.86357 0.71457 0.74095
 O527 O 0.80652 0.85012 0.73907
 O528 O 0.74994 0.85755 0.69712
 O529 O 0.75789 0.85050 0.78989
 O530 O 0.71567 0.86181 0.74085
 O531 O 0.85043 0.80523 0.73815
 O532 O 0.86238 0.75094 0.70001
 O533 O 0.80924 0.75949 0.83718
 O534 O 0.76497 0.71748 0.85048
 O535 O 0.75808 0.70255 0.64739
 O536 O 0.79410 0.75437 0.63407
 O537 O 0.65888 0.75110 0.69199
 O538 O 0.64982 0.79306 0.74299
 O539 O 0.70811 0.65703 0.74478
 O540 O 0.76094 0.64589 0.78197
 Zr541 Zr 0.75681 0.68769 0.74138
 O542 O 0.79029 0.72082 0.77555
 Zr543 Zr 0.68975 0.75033 0.74183
 O544 O 0.72166 0.78702 0.77475
 Zr545 Zr 0.75391 0.75202 0.67631
 O546 O 0.78868 0.78711 0.70623
 Zr547 Zr 0.75863 0.75710 0.80804
 O548 O 0.72429 0.71980 0.77782
 Zr549 Zr 0.82184 0.75557 0.74183
 O550 O 0.79094 0.72011 0.70765
 Zr551 Zr 0.75631 0.81978 0.74127
 O552 O 0.72072 0.78685 0.70843
 O553 O 0.72086 0.71673 0.70724
 O554 O 0.79217 0.79112 0.77600
 C555 C 0.76050 0.66873 0.65738
 C556 C 0.67383 0.66566 0.74676
 C557 C 0.66970 0.75336 0.65823
 C558 C 0.75835 0.84180 0.82414
 C559 C 0.84272 0.75971 0.82530
 C560 C 0.84029 0.83905 0.73728
 H561 H 0.80575 0.70479 0.79139
 H562 H 0.80331 0.80192 0.68860
 H563 H 0.70535 0.70033 0.69176
 H564 H 0.70514 0.80235 0.79012
 H565 H 0.69920 0.73630 0.84154
 H566 H 0.65678 0.76383 0.80378
 H567 H 0.85672 0.76962 0.68090
 H568 H 0.81536 0.73943 0.64265
 H569 H 0.75078 0.69552 0.84271
 H570 H 0.74265 0.65169 0.80137
 H571 H 0.77192 0.85538 0.68105
 H572 H 0.73595 0.81284 0.64367
 H573 H 0.81939 0.65799 0.72453
 H574 H 0.85891 0.69729 0.76157
 H575 H 0.65779 0.81183 0.72480
 H576 H 0.69543 0.85384 0.75734
 O577 O 0.25178 0.65053 0.29544
 O578 O 0.21384 0.63739 0.24663
 O579 O 0.34529 0.70175 0.24558
 O580 O 0.35785 0.75235 0.21225
 O581 O 0.29641 0.75053 0.34439
 O582 O 0.24482 0.78120 0.35927
 O583 O 0.24218 0.79665 0.15248
 O584 O 0.28156 0.74820 0.13764
 O585 O 0.15043 0.74874 0.20163
 O586 O 0.13780 0.71036 0.25038
 O587 O 0.19788 0.84309 0.24597
 O588 O 0.24672 0.85799 0.28438
 O589 O 0.24452 0.84251 0.19517
 O590 O 0.29142 0.85113 0.25021
 O591 O 0.15227 0.80001 0.24815
 O592 O 0.14584 0.74463 0.29533
 O593 O 0.19215 0.74933 0.15484
 O594 O 0.24766 0.70324 0.14527
 O595 O 0.25004 0.69230 0.34224
 O596 O 0.20259 0.74405 0.35070
 O597 O 0.34260 0.75161 0.30193
 O598 O 0.34935 0.79574 0.24771
 O599 O 0.30374 0.65463 0.24399
 O600 O 0.24888 0.64545 0.20193
 Zr601 Zr 0.25164 0.68188 0.24750
 O602 O 0.21351 0.71291 0.21616
 Zr603 Zr 0.31377 0.74942 0.25030
 O604 O 0.28116 0.78110 0.21382
 Zr605 Zr 0.24821 0.74433 0.31424
 O606 O 0.21512 0.78119 0.28349
 Zr607 Zr 0.24434 0.74812 0.18255
 O608 O 0.28285 0.71628 0.21307
 Zr609 Zr 0.18173 0.74884 0.24941
 O610 O 0.21404 0.71160 0.28107
 Zr611 Zr 0.24669 0.81358 0.24653
 O612 O 0.28001 0.78268 0.28335
 O613 O 0.28456 0.71268 0.28315
 O614 O 0.21095 0.78291 0.21360
 C615 C 0.25109 0.65889 0.32971
 C616 C 0.33698 0.66753 0.24295
 C617 C 0.33043 0.75301 0.33543
 C618 C 0.24210 0.83068 0.16166
 C619 C 0.15879 0.74989 0.16744
 C620 C 0.16391 0.83365 0.24598
 H621 H 0.19762 0.69608 0.20163
 H622 H 0.20035 0.79673 0.30037
 H623 H 0.30134 0.69740 0.29844
 H624 H 0.29733 0.79621 0.19783
 H625 H 0.30450 0.76020 0.14638
 H626 H 0.34814 0.74234 0.18875
 H627 H 0.14451 0.76917 0.30725
 H628 H 0.18894 0.72072 0.34641
 H629 H 0.22339 0.69062 0.14501
 H630 H 0.27028 0.65109 0.18589
 H631 H 0.23603 0.84852 0.30761
 H632 H 0.25374 0.80532 0.35001
 H633 H 0.19177 0.64582 0.26037
 H634 H 0.14774 0.68695 0.24049
 H635 H 0.34490 0.81060 0.27020
 H636 H 0.30363 0.85208 0.22582
 O637 O 0.74449 0.33977 0.30319
 O638 O 0.78517 0.35072 0.25084
 O639 O 0.64883 0.29419 0.24503
 O640 O 0.63528 0.24661 0.21010
 O641 O 0.69156 0.24149 0.34446
 O642 O 0.74500 0.20071 0.35353
 O643 O 0.74552 0.19308 0.15335
 O644 O 0.70118 0.24435 0.14491
 O645 O 0.84026 0.24496 0.19717
 O646 O 0.85020 0.28763 0.25054
 O647 O 0.79584 0.15092 0.24594
 O648 O 0.74445 0.13857 0.29025
 O649 O 0.74611 0.15027 0.19919
 O650 O 0.70522 0.13743 0.25129
 O651 O 0.84101 0.19457 0.24718
 O652 O 0.85169 0.24757 0.28949
 O653 O 0.79472 0.24182 0.15401
 O654 O 0.75105 0.28371 0.14121
 O655 O 0.74466 0.29351 0.34566
 O656 O 0.78321 0.24376 0.35711
 O657 O 0.64874 0.24205 0.29843
 O658 O 0.64043 0.20080 0.24647
 O659 O 0.69133 0.34021 0.25010
 O660 O 0.74436 0.35343 0.21162
 Zr661 Zr 0.74222 0.31112 0.25183
 O662 O 0.77669 0.27979 0.21636
 Zr663 Zr 0.67857 0.24513 0.24939
 O664 O 0.71022 0.21092 0.21526
 Zr665 Zr 0.74240 0.24480 0.31533
 O666 O 0.77828 0.21189 0.28360
 Zr667 Zr 0.74538 0.24359 0.18323
 O668 O 0.71065 0.27881 0.21456
 Zr669 Zr 0.81065 0.24459 0.24787
 O670 O 0.77827 0.27816 0.28363
 Zr671 Zr 0.74586 0.17942 0.24842
 O672 O 0.71010 0.20959 0.28269
 O673 O 0.70788 0.27939 0.28508
 O674 O 0.78028 0.20963 0.21370
 C675 C 0.74591 0.32768 0.33668
 C676 C 0.65799 0.32835 0.24612
 C677 C 0.65801 0.24004 0.33249
 C678 C 0.74605 0.15951 0.16514
 C679 C 0.82877 0.24297 0.16354
 C680 C 0.82981 0.16089 0.24569
 H681 H 0.79132 0.29672 0.20069
 H682 H 0.79380 0.19669 0.30013
 H683 H 0.69170 0.29477 0.30085
 H684 H 0.69369 0.19563 0.19977
 H685 H 0.68592 0.26630 0.15073
 H686 H 0.64480 0.23525 0.18721
 H687 H 0.84699 0.22738 0.30727
 H688 H 0.80467 0.25752 0.34723
 H689 H 0.74120 0.30695 0.15146
 H690 H 0.72464 0.34824 0.19338
 H691 H 0.76592 0.14251 0.30672
 H692 H 0.72653 0.18222 0.34546
 H693 H 0.80420 0.34210 0.26851
 H694 H 0.84493 0.30506 0.23019
 H695 H 0.64785 0.18261 0.26549
 H696 H 0.68672 0.14235 0.23176
 N697 N 0.26369 0.07922 0.10040
 C698 C 0.26888 0.09509 0.06659
 N699 N 0.27473 0.13202 0.06520
 N700 N 0.27430 0.15243 0.09550
 C701 C 0.26795 0.13708 0.12894
 N702 N 0.26310 0.09987 0.13109
 N703 N 0.77528 0.63492 0.56375
 C704 C 0.76526 0.59894 0.56577
 N705 N 0.75600 0.58471 0.59935
 N706 N 0.75577 0.60615 0.62943
 C707 C 0.76472 0.64252 0.62677
 N708 N 0.77497 0.65618 0.59351
 N709 N 0.74435 0.89781 0.08338
 C710 C 0.74017 0.93227 0.09809
 N711 N 0.73583 0.93510 0.13515
 N712 N 0.73639 0.90564 0.15672
 C713 C 0.74137 0.87154 0.14246
 N714 N 0.74500 0.86792 0.10522
 N715 N 0.25467 0.39724 0.58790
 C716 C 0.25835 0.43207 0.60166
 N717 N 0.26383 0.43618 0.63845
 N718 N 0.26487 0.40714 0.66074
 C719 C 0.26049 0.37251 0.64734
 N720 N 0.25577 0.36792 0.61036
 N721 N 0.75042 0.10393 0.91545
 C722 C 0.74217 0.07092 0.89918
 N723 N 0.73333 0.07069 0.86289
 N724 N 0.73367 0.10167 0.84339
 C725 C 0.74280 0.13445 0.85908
 N726 N 0.75081 0.13522 0.89574
 N727 N 0.25717 0.56238 0.35912
 C728 C 0.25456 0.56413 0.39634
 N729 N 0.25129 0.59807 0.41242
 N730 N 0.25044 0.62883 0.39189
 C731 C 0.25271 0.62660 0.35450
 N732 N 0.25630 0.59281 0.33878
 N733 N 0.25620 0.85714 0.93395
 C734 C 0.25221 0.89426 0.93116
 N735 N 0.24808 0.90924 0.89686
 N736 N 0.24737 0.88770 0.86683
 C737 C 0.25078 0.85041 0.87010
 N738 N 0.25550 0.83578 0.90421
 N739 N 0.75517 0.35926 0.43217
 C740 C 0.75221 0.39647 0.42969
 N741 N 0.74798 0.41181 0.39554
 N742 N 0.74640 0.39054 0.36532
 C743 C 0.74892 0.35316 0.36832
 N744 N 0.75357 0.33819 0.40229
 N745 N 0.14009 0.24630 0.06331
 C746 C 0.10279 0.24872 0.06646
 N747 N 0.08804 0.25004 0.10107
 N748 N 0.10984 0.24886 0.13095
 C749 C 0.14719 0.24633 0.12721
 N750 N 0.16169 0.24523 0.09284
 N751 N 0.63324 0.76528 0.56500
 C752 C 0.59709 0.75605 0.56829
 N753 N 0.58381 0.74762 0.60246
 N754 N 0.60628 0.74763 0.63186
 C755 C 0.64276 0.75597 0.62794
 N756 N 0.65551 0.76520 0.59407
 N757 N 0.09955 0.74628 0.91897
 C758 C 0.06665 0.73428 0.90500
 N759 N 0.06594 0.72016 0.87043
 N760 N 0.09630 0.71935 0.85002
 C761 C 0.12884 0.73250 0.86319
 N762 N 0.13022 0.74545 0.89837
 N763 N 0.56317 0.22852 0.36493
 C764 C 0.56577 0.23494 0.40166
 N765 N 0.59987 0.24128 0.41647
 N766 N 0.62995 0.24193 0.39506
 C767 C 0.62682 0.23635 0.35810
 N768 N 0.59297 0.22922 0.34369
 N769 N 0.89305 0.75083 0.08684
 C770 C 0.92750 0.75109 0.10237
 N771 N 0.92991 0.75226 0.13970
 N772 N 0.89993 0.75332 0.16060
 C773 C 0.86572 0.75335 0.14542
 N774 N 0.86266 0.75194 0.10798
 N775 N 0.43976 0.24724 0.64503
 C776 C 0.43648 0.24765 0.60776
 N777 N 0.40191 0.24937 0.59282
 N778 N 0.37201 0.25089 0.61445
 C779 C 0.37570 0.25081 0.65180
 N780 N 0.41012 0.24875 0.66651
 N781 N 0.86192 0.26239 0.93830
 C782 C 0.89935 0.26180 0.93685
 N783 N 0.91574 0.26121 0.90292
 N784 N 0.89538 0.26056 0.87202
 C785 C 0.85785 0.26055 0.87403
 N786 N 0.84175 0.26183 0.90774
 N787 N 0.35922 0.76677 0.43111
 C788 C 0.39562 0.75824 0.43077
 N789 N 0.41183 0.75019 0.39774
 N790 N 0.39200 0.74974 0.36651
 C791 C 0.35525 0.75745 0.36738
 N792 N 0.33958 0.76636 0.40019
 N793 N 0.14135 0.06110 0.24770
 C794 C 0.10409 0.06403 0.25089
 N795 N 0.08919 0.09863 0.25268
 N796 N 0.11076 0.12868 0.25123
 C797 C 0.14807 0.12523 0.24791
 N798 N 0.16274 0.09085 0.24632
 N799 N 0.64273 0.56985 0.75521
 C800 C 0.60549 0.57215 0.75181
 N801 N 0.58998 0.60628 0.74796
 N802 N 0.61114 0.63664 0.74701
 C803 C 0.64855 0.63383 0.74987
 N804 N 0.66369 0.59988 0.75425
 N805 N 0.93905 0.14260 0.75807
 C806 C 0.93746 0.10522 0.75867
 N807 N 0.90334 0.08895 0.75836
 N808 N 0.87244 0.10936 0.75733
 C809 C 0.87462 0.14685 0.75648
 N810 N 0.90852 0.16280 0.75707
 N811 N 0.43306 0.63846 0.23184
 C812 C 0.43175 0.60155 0.23764
 N813 N 0.39814 0.58546 0.24341
 N814 N 0.36727 0.60580 0.24410
 C815 C 0.36908 0.64294 0.23906
 N816 N 0.40248 0.65863 0.23255
 N817 N 0.06233 0.86355 0.75141
 C818 C 0.06633 0.90073 0.75387
 N819 N 0.10128 0.91460 0.75705
 N820 N 0.13065 0.89204 0.75738
 C821 C 0.12604 0.85482 0.75460
 N822 N 0.09132 0.84122 0.75183
 N823 N 0.60071 0.41304 0.24942
 C824 C 0.56656 0.39886 0.24219
 N825 N 0.56360 0.36233 0.23470
 N826 N 0.59310 0.34062 0.23515
 C827 C 0.62701 0.35438 0.24312
 N828 N 0.63050 0.39116 0.24986
 N829 N 0.91449 0.90162 0.26223
 C830 C 0.89913 0.93606 0.26305
 N831 N 0.86175 0.93867 0.26359
 N832 N 0.84062 0.90881 0.26270
 C833 C 0.85567 0.87463 0.26113
 N834 N 0.89314 0.87140 0.26127
 N835 N 0.37097 0.43451 0.78464
 C836 C 0.40616 0.43365 0.77198
 N837 N 0.42061 0.40062 0.76121
 N838 N 0.40002 0.36995 0.76186
 C839 C 0.36433 0.37139 0.77340
 N840 N 0.35055 0.40409 0.78530
 N841 N 0.08482 0.25417 0.89942
 C842 C 0.09823 0.23987 0.93158
 N843 N 0.13307 0.22624 0.93201
 N844 N 0.15420 0.22797 0.90223
 C845 C 0.14154 0.24329 0.87054
 N846 N 0.10613 0.25584 0.86930
 N847 N 0.63138 0.73333 0.43398
 C848 C 0.59488 0.74141 0.43247
 N849 N 0.57985 0.75086 0.39924
 N850 N 0.60094 0.75299 0.36899
 C851 C 0.63778 0.74586 0.37116
 N852 N 0.65229 0.73551 0.40408
 N853 N 0.89855 0.76010 0.91128
 C854 C 0.93348 0.75780 0.89733
 N855 N 0.93755 0.75750 0.86010
 N856 N 0.90852 0.75886 0.83778
 C857 C 0.87380 0.76046 0.85150
 N858 N 0.86920 0.76131 0.88876
 N859 N 0.39638 0.24584 0.41739
 C860 C 0.43021 0.25495 0.40355
 N861 N 0.43252 0.26553 0.36778
 N862 N 0.40283 0.26586 0.34630
 C863 C 0.36931 0.25574 0.35951
 N864 N 0.36635 0.24624 0.39571
 N865 N 0.09715 0.75193 0.08536
 C866 C 0.06355 0.75657 0.10183
 N867 N 0.06237 0.75973 0.13900
 N868 N 0.09301 0.75790 0.15899
 C869 C 0.12644 0.75279 0.14293
 N870 N 0.12816 0.75015 0.10554
 N871 N 0.57348 0.27196 0.63575
 C872 C 0.57344 0.25912 0.60070
 N873 N 0.60605 0.24733 0.58590
 N874 N 0.63717 0.24739 0.60600
 C875 C 0.63655 0.25932 0.64157
 N876 N 0.60425 0.27202 0.65564
 N877 N 0.86231 0.23580 0.06874
 C878 C 0.89857 0.24477 0.07142
 N879 N 0.91298 0.25141 0.10560
 N880 N 0.89149 0.24997 0.13564
 C881 C 0.85490 0.24181 0.13241
 N882 N 0.84104 0.23439 0.09845
 N883 N 0.35419 0.73904 0.56473
 C884 C 0.39142 0.74231 0.56754
 N885 N 0.40666 0.74432 0.60194
 N886 N 0.38532 0.74348 0.63209
 C887 C 0.34795 0.74063 0.62886
 N888 N 0.33301 0.73821 0.59460
 N889 N 0.24998 0.08441 0.89907
 C890 C 0.25458 0.09894 0.93356
 N891 N 0.25751 0.13613 0.93670
 N892 N 0.25611 0.15786 0.90740
 C893 C 0.25182 0.14368 0.87315
 N894 N 0.24871 0.10640 0.86932
 N895 N 0.73682 0.63770 0.43412
 C896 C 0.74388 0.60111 0.43083
 N897 N 0.74965 0.58697 0.39647
 N898 N 0.74917 0.60897 0.36679
 C899 C 0.74303 0.64582 0.37064
 N900 N 0.73643 0.65951 0.40476
 N901 N 0.74427 0.06380 0.13476
 C902 C 0.74800 0.06576 0.09764
 N903 N 0.75093 0.09990 0.08185
 N904 N 0.75014 0.13051 0.10262
 C905 C 0.74634 0.12784 0.13988
 N906 N 0.74353 0.09395 0.15528
 N907 N 0.22191 0.56503 0.63127
 C908 C 0.23398 0.56652 0.59597
 N909 N 0.24414 0.59989 0.58179
 N910 N 0.24339 0.63029 0.60277
 C911 C 0.23244 0.62816 0.63857
 N912 N 0.22121 0.59511 0.65207
 N913 N 0.75571 0.89973 0.90868
 C914 C 0.75825 0.93428 0.89391
 N915 N 0.76174 0.93748 0.85680
 N916 N 0.76225 0.90783 0.83530
 C917 C 0.75926 0.87344 0.84976
 N918 N 0.75625 0.86979 0.88700
 N919 N 0.25164 0.39296 0.41261
 C920 C 0.24507 0.42669 0.39711
 N921 N 0.23862 0.42836 0.36033
 N922 N 0.23939 0.39813 0.33972
 C923 C 0.24659 0.36461 0.35475
 N924 N 0.25240 0.36239 0.39179
 N925 N 0.22795 0.86170 0.06676
 C926 C 0.23773 0.89776 0.06771
 N927 N 0.24707 0.91298 0.10090
 N928 N 0.24744 0.89249 0.13167
 C929 C 0.23851 0.85607 0.13013
 N930 N 0.22834 0.84140 0.09721
 N931 N 0.74379 0.36167 0.56611
 C932 C 0.74640 0.39891 0.56712
 N933 N 0.75036 0.41569 0.60064
 N934 N 0.75191 0.39575 0.63175
 C935 C 0.74975 0.35830 0.63021
 N936 N 0.74539 0.34192 0.59684
 N937 N 0.07167 0.14202 0.74255
 C938 C 0.07338 0.10536 0.74972
 N939 N 0.10713 0.09000 0.75662
 N940 N 0.13771 0.11087 0.75703
 C941 C 0.13545 0.14780 0.75051
 N942 N 0.10191 0.16268 0.74297
 N943 N 0.56562 0.63951 0.26208
 C944 C 0.56826 0.60285 0.25523
 N945 N 0.60256 0.58801 0.25022
 N946 N 0.63279 0.60937 0.25131
 C947 C 0.62963 0.64629 0.25746
 N948 N 0.59552 0.66066 0.26315
 N949 N 0.08294 0.89590 0.25336
 C950 C 0.09821 0.92840 0.24185
 N951 N 0.13349 0.92820 0.22959
 N952 N 0.15315 0.89735 0.22982
 C953 C 0.13859 0.86515 0.24223
 N954 N 0.10281 0.86470 0.25360
 N955 N 0.58818 0.40141 0.74874
 C956 C 0.60376 0.43490 0.74111
 N957 N 0.64037 0.43615 0.73356
 N958 N 0.66074 0.40574 0.73430
 C959 C 0.64565 0.37247 0.74260
 N960 N 0.60874 0.37066 0.74946
 N961 N 0.91419 0.10376 0.25439
 C962 C 0.90057 0.06991 0.24513
 N963 N 0.86496 0.06736 0.23381
 N964 N 0.84336 0.09688 0.23291
 C965 C 0.85634 0.13041 0.24318
 N966 N 0.89240 0.13360 0.25341
 N967 N 0.41253 0.60271 0.74864
 C968 C 0.39912 0.56772 0.74516
 N969 N 0.36237 0.56319 0.73915
 N970 N 0.33978 0.59200 0.73753
 C971 C 0.35282 0.62681 0.74180
 N972 N 0.38976 0.63179 0.74700
 N973 N 0.89976 0.92134 0.74709
 C974 C 0.93256 0.90771 0.73463
 N975 N 0.93333 0.87320 0.72032
 N976 N 0.90313 0.85250 0.71974
 C977 C 0.87073 0.86537 0.73331
 N978 N 0.86924 0.90048 0.74644
 N979 N 0.43218 0.36599 0.26997
 C980 C 0.43065 0.40163 0.25879
 N981 N 0.39743 0.41563 0.24776
 N982 N 0.36724 0.39426 0.24694
 C983 C 0.36945 0.35817 0.25708
 N984 N 0.40232 0.34480 0.26911
   
