data_POSCAR
  _audit_creation_date              2014-09-24
  _audit_creation_method            'ToBaCCo'
  _symmetry_space_group_name_H-M    'P1'
  _symmetry_Int_Tables_number       1
  _symmetry_cell_setting            triclinic
  loop_
  _symmetry_equiv_pos_as_xyz
 x,y,z
_cell_length_a 42.2268
_cell_length_b 27.3721
_cell_length_c 14.6750
_cell_angle_alpha 90.640500
_cell_angle_beta 89.733000
_cell_angle_gamma 90.097300
loop_
  _atom_site_label
  _atom_site_type_symbol
  _atom_site_fract_x
  _atom_site_fract_y
  _atom_site_fract_z
C1 C 0.75470 0.27082 0.45267
 C2 C 0.75322 0.26258 0.54401
 C3 C 0.72660 0.28076 0.60094
 C4 C 0.77926 0.23705 0.59124
 C5 C 0.77951 0.24685 0.39616
 C6 C 0.73158 0.30291 0.40621
 C7 C 0.73278 0.31267 0.67371
 C8 C 0.70793 0.33366 0.72299
 C9 C 0.67601 0.32211 0.70301
 C10 C 0.67017 0.29012 0.62849
 C11 C 0.69517 0.26917 0.57921
 C12 C 0.81039 0.25478 0.58483
 C13 C 0.83522 0.22938 0.62449
 C14 C 0.82921 0.18647 0.67295
 C15 C 0.79812 0.16883 0.68032
 C16 C 0.77319 0.19420 0.64004
 C17 C 0.78248 0.19574 0.39576
 C18 C 0.80777 0.17334 0.35061
 C19 C 0.83023 0.20170 0.30465
 C20 C 0.82695 0.25264 0.30281
 C21 C 0.80160 0.27514 0.34818
 C22 C 0.71612 0.28620 0.32737
 C23 C 0.69224 0.31413 0.28817
 C24 C 0.68328 0.35908 0.32748
 C25 C 0.69918 0.37627 0.40523
 C26 C 0.72380 0.34918 0.44243
 H27 H 0.75690 0.32301 0.68990
 H28 H 0.71388 0.36080 0.77442
 H29 H 0.64634 0.27920 0.61045
 H30 H 0.69000 0.24437 0.52317
 H31 H 0.81543 0.28811 0.54835
 H32 H 0.85913 0.24343 0.61849
 H33 H 0.74930 0.18006 0.64551
 H34 H 0.76547 0.17337 0.43182
 H35 H 0.80977 0.13389 0.35087
 H36 H 0.84388 0.27476 0.26592
 H37 H 0.79963 0.31459 0.34794
 H38 H 0.72188 0.25089 0.29774
 H39 H 0.68030 0.30028 0.22800
 H40 H 0.69242 0.41055 0.43732
 H41 H 0.73608 0.36363 0.50146
 H42 H 0.79319 0.13583 0.71793
 C43 C 0.24136 0.73823 0.44940
 C44 C 0.24184 0.73305 0.54142
 C45 C 0.21661 0.75371 0.60115
 C46 C 0.26832 0.70726 0.58543
 C47 C 0.26614 0.71542 0.39169
 C48 C 0.21734 0.76860 0.40324
 C49 C 0.22441 0.78709 0.67089
 C50 C 0.20055 0.81101 0.72031
 C51 C 0.16857 0.80142 0.70143
 C52 C 0.16075 0.76689 0.63387
 C53 C 0.18458 0.74283 0.58471
 C54 C 0.29704 0.73152 0.60219
 C55 C 0.32217 0.70684 0.64286
 C56 C 0.31892 0.65751 0.66632
 C57 C 0.29059 0.63280 0.64554
 C58 C 0.26528 0.65775 0.60680
 C59 C 0.26655 0.66468 0.37740
 C60 C 0.29120 0.64298 0.32781
 C61 C 0.31562 0.67183 0.29163
 C62 C 0.31508 0.72265 0.30597
 C63 C 0.29031 0.74435 0.35496
 C64 C 0.19932 0.74875 0.33163
 C65 C 0.17596 0.77674 0.28983
 C66 C 0.17053 0.82504 0.31871
 C67 C 0.18852 0.84487 0.39031
 C68 C 0.21212 0.81719 0.43111
 H69 H 0.24891 0.79613 0.68461
 H70 H 0.20695 0.83777 0.77197
 H71 H 0.13618 0.75904 0.61858
 H72 H 0.17807 0.71681 0.53189
 H73 H 0.29982 0.76960 0.58451
 H74 H 0.34389 0.72639 0.65770
 H75 H 0.24341 0.63843 0.59269
 H76 H 0.24801 0.64197 0.40567
 H77 H 0.29137 0.60370 0.31802
 H78 H 0.33403 0.74536 0.27996
 H79 H 0.29039 0.78352 0.36636
 H80 H 0.20308 0.71140 0.30899
 H81 H 0.16229 0.76097 0.23456
 H82 H 0.18454 0.88206 0.41358
 H83 H 0.22617 0.83355 0.48496
 H84 H 0.28785 0.59452 0.66182
 C85 C 0.25096 0.25286 -0.45991
 C86 C 0.25243 0.25273 -0.55276
 C87 C 0.27900 0.27653 -0.60231
 C88 C 0.22786 0.22751 -0.60800
 C89 C 0.22607 0.22445 -0.41274
 C90 C 0.27391 0.28120 -0.40287
 C91 C 0.27297 0.31296 -0.66634
 C92 C 0.29782 0.33997 -0.70352
 C93 C 0.32928 0.33192 -0.67601
 C94 C 0.33542 0.29298 -0.61678
 C95 C 0.31056 0.26535 -0.58095
 C96 C 0.20286 0.25404 -0.64563
 C97 C 0.17996 0.23051 -0.69875
 C98 C 0.18117 0.17963 -0.71402
 C99 C 0.20547 0.15287 -0.67182
 C100 C 0.22887 0.17673 -0.62072
 C101 C 0.23293 0.17835 -0.37704
 C102 C 0.20925 0.15094 -0.33494
 C103 C 0.17783 0.16765 -0.33379
 C104 C 0.17094 0.21372 -0.37047
 C105 C 0.19497 0.24214 -0.40859
 C106 C 0.29082 0.25822 -0.33322
 C107 C 0.31549 0.28247 -0.28901
 C108 C 0.32429 0.32981 -0.31472
 C109 C 0.30582 0.35451 -0.37861
 C110 C 0.28054 0.33058 -0.42148
 H111 H 0.24903 0.32236 -0.68475
 H112 H 0.29215 0.36922 -0.74979
 H113 H 0.35949 0.28390 -0.59815
 H114 H 0.31585 0.23636 -0.53376
 H115 H 0.20080 0.29294 -0.63292
 H116 H 0.16064 0.25197 -0.72545
 H117 H 0.24773 0.15560 -0.59070
 H118 H 0.25644 0.16298 -0.38357
 H119 H 0.21512 0.11537 -0.30813
 H120 H 0.14696 0.22776 -0.36899
 H121 H 0.18926 0.27744 -0.43673
 H122 H 0.28620 0.22081 -0.31514
 H123 H 0.32876 0.26342 -0.23736
 H124 H 0.31168 0.39156 -0.39770
 H125 H 0.26711 0.34986 -0.47240
 H126 H 0.20703 0.11362 -0.68097
 C127 C -0.25215 0.75997 -0.46647
 C128 C -0.25226 0.76649 -0.55887
 C129 C -0.22858 0.79818 -0.60511
 C130 C -0.27583 0.74117 -0.61785
 C131 C -0.27883 0.73466 -0.41957
 C132 C -0.22586 0.77864 -0.40816
 C133 C -0.22314 0.84642 -0.57537
 C134 C -0.19846 0.87389 -0.61291
 C135 C -0.17867 0.85377 -0.68123
 C136 C -0.18596 0.80673 -0.71550
 C137 C -0.21046 0.77923 -0.67748
 C138 C -0.29371 0.76767 -0.68074
 C139 C -0.31837 0.74501 -0.72859
 C140 C -0.32606 0.69586 -0.71203
 C141 C -0.30609 0.66842 -0.65569
 C142 C -0.28108 0.69077 -0.60971
 C143 C -0.27284 0.69395 -0.36531
 C144 C -0.29786 0.66796 -0.32615
 C145 C -0.32959 0.68192 -0.34049
 C146 C -0.33526 0.72484 -0.39014
 C147 C -0.31019 0.75063 -0.42980
 C148 C -0.19397 0.77240 -0.43408
 C149 C -0.16994 0.79688 -0.38697
 C150 C -0.17726 0.82621 -0.31078
 C151 C -0.20859 0.82735 -0.27819
 C152 C -0.23278 0.80452 -0.32739
 H153 H -0.23756 0.86236 -0.52158
 H154 H -0.19497 0.91103 -0.58873
 H155 H -0.17161 0.79000 -0.76864
 H156 H -0.21448 0.74231 -0.70222
 H157 H -0.28950 0.80636 -0.68972
 H158 H -0.33285 0.76686 -0.77320
 H159 H -0.26655 0.66909 -0.56502
 H160 H -0.24877 0.68164 -0.35494
 H161 H -0.29232 0.63693 -0.28395
 H162 H -0.35919 0.73725 -0.40231
 H163 H -0.31527 0.78262 -0.46994
 H164 H -0.18780 0.75049 -0.49339
 H165 H -0.14581 0.79433 -0.41192
 H166 H -0.21455 0.84825 -0.21739
 H167 H -0.25703 0.80878 -0.30435
 H168 H -0.31033 0.62977 -0.64566
 O169 O -0.04651 0.93998 0.17717
 O170 O -0.07986 0.97981 0.07957
 C171 C -0.07453 0.95266 0.14977
 O172 O 0.04871 1.10249 0.13340
 O173 O 0.08147 1.04850 0.05805
 C174 C 0.07646 1.08582 0.11127
 O175 O -0.04044 1.10768 0.13884
 O176 O -0.07687 1.05999 0.06441
 C177 C -0.06950 1.09609 0.11786
 O178 O 0.04244 0.92795 0.17068
 O179 O 0.07850 0.96320 0.07475
 C180 C 0.07139 0.93613 0.14368
 Zr181 Zr -0.00141 0.95382 0.11853
 O182 O 0.00125 0.95729 0.26223
 O183 O -0.00759 0.87711 0.12498
 Zr184 Zr 0.00343 1.07611 0.09550
 O185 O 0.00657 1.08236 0.23921
 O186 O 0.00350 1.15312 0.08370
 O187 O -0.02721 1.01882 0.12503
 O188 O 0.02856 1.01349 0.12308
 O189 O 0.04049 0.90500 -0.14949
 O190 O 0.07761 0.95215 -0.07542
 C191 C 0.06944 0.91575 -0.12771
 O192 O -0.03869 1.09188 -0.18604
 O193 O -0.07540 1.05396 -0.09531
 C194 C -0.06746 1.08372 -0.16001
 O195 O 0.04849 1.08212 -0.18347
 O196 O 0.08165 1.03692 -0.09452
 C197 C 0.07641 1.06713 -0.16031
 O198 O -0.04787 0.91912 -0.15728
 O199 O -0.08056 0.97027 -0.07616
 C200 C -0.07583 0.93538 -0.13499
 Zr201 Zr -0.00225 0.93989 -0.11016
 O202 O 0.00090 0.93026 -0.25326
 O203 O -0.00917 0.86388 -0.09363
 Zr204 Zr 0.00334 1.06192 -0.13406
 O205 O 0.00437 1.04824 -0.27640
 O206 O 0.00463 1.13839 -0.15365
 Zr207 Zr -0.04638 1.01274 -0.00729
 Zr208 Zr 0.04803 1.00345 -0.00828
 O209 O 0.02808 0.99706 -0.13903
 O210 O -0.02792 1.00283 -0.13971
 O211 O 0.02610 0.93461 0.00571
 O212 O -0.02334 1.08030 -0.02049
 O213 O -0.02976 0.94073 0.00635
 O214 O 0.03200 1.07591 -0.02143
 H215 H 0.04278 1.01588 0.17648
 H216 H -0.03576 1.11054 -0.02425
 H217 H 0.04216 0.99206 -0.19252
 H218 H -0.04537 0.91386 0.01203
 H219 H 0.02058 1.16182 0.04047
 H220 H 0.02102 1.15199 -0.11264
 H221 H -0.01665 1.03570 -0.29498
 H222 H -0.01501 0.95192 -0.28098
 H223 H 0.00772 0.85207 -0.05293
 H224 H 0.01243 0.86162 0.10474
 H225 H -0.00786 0.98905 0.28109
 H226 H -0.01386 1.07146 0.26533
 O227 O 0.45946 0.43105 0.18516
 O228 O 0.42315 0.46473 0.08863
 C229 C 0.43057 0.43904 0.15905
 O230 O 0.54070 0.60942 0.13997
 O231 O 0.57774 0.56329 0.06289
 C232 C 0.56965 0.59823 0.11889
 O233 O 0.45261 0.59911 0.14385
 O234 O 0.41998 0.54533 0.06835
 C235 C 0.42490 0.58207 0.12274
 O236 O 0.54799 0.43655 0.18010
 O237 O 0.58120 0.47897 0.08525
 C238 C 0.57598 0.45069 0.15439
 Zr239 Zr 0.50298 0.45337 0.12589
 O240 O 0.50437 0.45686 0.26971
 O241 O 0.50374 0.37607 0.13170
 Zr242 Zr 0.49792 0.57597 0.09810
 O243 O 0.49953 0.58799 0.24078
 O244 O 0.49208 0.65174 0.07561
 O245 O 0.47241 0.51319 0.13114
 O246 O 0.52763 0.51867 0.12790
 O247 O 0.54856 0.41108 -0.13968
 O248 O 0.58179 0.46574 -0.06873
 C249 C 0.57655 0.42711 -0.11911
 O250 O 0.45192 0.57573 -0.18121
 O251 O 0.42012 0.53193 -0.08650
 C252 C 0.42402 0.56148 -0.15308
 O253 O 0.54151 0.58848 -0.18049
 O254 O 0.57839 0.55091 -0.09030
 C255 C 0.57052 0.57958 -0.15639
 O256 O 0.46048 0.41022 -0.15503
 O257 O 0.42391 0.45229 -0.07004
 C258 C 0.43148 0.41958 -0.13096
 Zr259 Zr 0.50354 0.43744 -0.10099
 O260 O 0.50719 0.42094 -0.24171
 O261 O 0.50436 0.36243 -0.06851
 Zr262 Zr 0.49821 0.55935 -0.13045
 O263 O 0.50127 0.54689 -0.27291
 O264 O 0.49208 0.63502 -0.15219
 Zr265 Zr 0.45371 0.50178 -0.00028
 Zr266 Zr 0.54805 0.51172 -0.00262
 O267 O 0.52850 0.50000 -0.13281
 O268 O 0.47280 0.49428 -0.13278
 O269 O 0.53223 0.43926 0.01407
 O270 O 0.47043 0.57356 -0.01737
 O271 O 0.47577 0.43363 0.01480
 O272 O 0.52602 0.58017 -0.01890
 H273 H 0.54133 0.52384 0.18142
 H274 H 0.45535 0.60085 -0.02360
 H275 H 0.54279 0.49724 -0.18635
 H276 H 0.46215 0.40430 0.02084
 H277 H 0.51123 0.66366 0.04364
 H278 H 0.50696 0.65242 -0.11133
 H279 H 0.48193 0.52907 -0.29178
 H280 H 0.49925 0.44983 -0.27416
 H281 H 0.50766 0.34464 -0.12691
 H282 H 0.52409 0.36482 0.10516
 H283 H 0.50379 0.49181 0.28693
 H284 H 0.48307 0.56719 0.26893
 C285 C 0.37806 0.38273 0.34611
 C286 C 0.35406 0.36144 0.28987
 C287 C 0.35471 0.37056 0.19591
 C288 C 0.37936 0.39637 0.15635
 C289 C 0.40421 0.41522 0.20887
 C290 C 0.40317 0.41011 0.30513
 C291 C 0.37633 0.38106 0.44248
 C292 C 0.39922 0.40365 0.49656
 C293 C 0.42370 0.42986 0.45651
 C294 C 0.42548 0.43378 0.36204
 H295 H 0.35683 0.36387 0.47757
 H296 H 0.39751 0.40184 0.57008
 H297 H 0.44097 0.44831 0.49901
 H298 H 0.44381 0.45703 0.33491
 H299 H 0.33680 0.35525 0.15121
 H300 H 0.37944 0.40032 0.08291
 C301 C -0.13036 0.90655 0.33737
 C302 C -0.15273 0.88033 0.28245
 C303 C -0.14888 0.88075 0.18712
 C304 C -0.12433 0.90635 0.14608
 C305 C -0.10224 0.93221 0.19826
 C306 C -0.10557 0.93372 0.29443
 C307 C -0.13038 0.90374 0.43373
 C308 C -0.10895 0.93078 0.48590
 C309 C -0.08655 0.96027 0.44369
 C310 C -0.08462 0.96155 0.34892
 H311 H -0.14628 0.87989 0.47014
 H312 H -0.10966 0.92867 0.55954
 H313 H -0.07019 0.98159 0.48458
 H314 H -0.06671 0.98469 0.31882
 H315 H -0.16552 0.86186 0.14306
 H316 H -0.12208 0.90480 0.07247
 C317 C 0.62432 0.64819 0.30527
 C318 C 0.64635 0.67467 0.25086
 C319 C 0.64097 0.67838 0.15671
 C320 C 0.61607 0.65332 0.11512
 C321 C 0.59507 0.62520 0.16657
 C322 C 0.59888 0.62268 0.26259
 C323 C 0.62597 0.64859 0.40178
 C324 C 0.60491 0.62131 0.45393
 C325 C 0.58139 0.59388 0.41174
 C326 C 0.57818 0.59476 0.31736
 H327 H 0.64303 0.67069 0.43830
 H328 H 0.60670 0.62173 0.52747
 H329 H 0.56518 0.57247 0.45245
 H330 H 0.55925 0.57348 0.28849
 H331 H 0.65722 0.69863 0.11393
 H332 H 0.61329 0.65559 0.04190
 C333 C 0.14594 1.17318 0.14966
 C334 C 0.15727 1.15562 0.23488
 C335 C 0.14293 1.11387 0.27219
 C336 C 0.11662 1.09228 0.23154
 C337 C 0.10424 1.11052 0.15072
 C338 C 0.11895 1.15077 0.10833
 C339 C 0.16203 1.21016 0.10113
 C340 C 0.15073 1.22652 0.01769
 C341 C 0.12351 1.20615 -0.01999
 C342 C 0.10774 1.16850 0.02449
 H343 H 0.18395 1.22581 0.12558
 H344 H 0.16334 1.25490 -0.01834
 H345 H 0.11491 1.21893 -0.08488
 H346 H 0.08708 1.15283 -0.00815
 H347 H 0.15087 1.09937 0.33657
 H348 H 0.10555 1.06127 0.26421
 C349 C 0.65354 0.35305 -0.15270
 C350 C 0.65173 0.34292 -0.24841
 C351 C 0.62401 0.35711 -0.29428
 C352 C 0.60067 0.38467 -0.25084
 C353 C 0.60360 0.39948 -0.15964
 C354 C 0.63006 0.38300 -0.10924
 C355 C 0.67616 0.32960 -0.09706
 C356 C 0.67826 0.34013 -0.00451
 C357 C 0.65702 0.37230 0.03572
 C358 C 0.63275 0.39265 -0.01514
 H359 H 0.69185 0.30166 -0.12361
 H360 H 0.69610 0.32258 0.03652
 H361 H 0.65874 0.38001 0.10740
 H362 H 0.61578 0.41469 0.02067
 H363 H 0.62110 0.35043 -0.36663
 H364 H 0.58035 0.39590 -0.29027
 C365 C 0.13734 0.82423 -0.15596
 C366 C 0.14327 0.82903 -0.25060
 C367 C 0.12456 0.86071 -0.30181
 C368 C 0.10070 0.88832 -0.26060
 C369 C 0.09478 0.88500 -0.16701
 C370 C 0.11274 0.85225 -0.11395
 C371 C 0.15467 0.79109 -0.10266
 C372 C 0.14788 0.78560 -0.01031
 C373 C 0.12355 0.81239 0.03024
 C374 C 0.10609 0.84547 -0.02071
 H375 H 0.17322 0.76859 -0.13195
 H376 H 0.16122 0.75987 0.02970
 H377 H 0.11794 0.80686 0.10121
 H378 H 0.08694 0.86477 0.01280
 H379 H 0.12875 0.86449 -0.37432
 H380 H 0.08690 0.91290 -0.30198
 C381 C 0.33931 0.61076 -0.19783
 C382 C 0.34454 0.63218 -0.28400
 C383 C 0.37441 0.62875 -0.32472
 C384 C 0.39912 0.60472 -0.28181
 C385 C 0.39489 0.58177 -0.19734
 C386 C 0.36381 0.58288 -0.15594
 C387 C 0.31021 0.61788 -0.15127
 C388 C 0.30411 0.59537 -0.06874
 C389 C 0.32664 0.56516 -0.03096
 C390 C 0.35591 0.55867 -0.07349
 H391 H 0.29199 0.64159 -0.17722
 H392 H 0.28168 0.60113 -0.03427
 H393 H 0.32155 0.54689 0.03255
 H394 H 0.37106 0.53382 -0.03900
 H395 H 0.37872 0.64511 -0.39055
 H396 H 0.42196 0.60417 -0.31571
 C397 C -0.12747 1.18407 -0.20948
 C398 C -0.14447 1.16139 -0.28133
 C399 C -0.13531 1.11512 -0.31334
 C400 C -0.10982 1.09083 -0.27447
 C401 C -0.09265 1.11240 -0.20340
 C402 C -0.10059 1.16025 -0.17269
 C403 C -0.13701 1.22959 -0.17215
 C404 C -0.11961 1.25209 -0.10300
 C405 C -0.09234 1.23008 -0.07043
 C406 C -0.08279 1.18482 -0.10510
 H407 H -0.15812 1.24795 -0.19521
 H408 H -0.12717 1.28696 -0.07511
 H409 H -0.07858 1.24803 -0.01774
 H410 H -0.06135 1.16970 -0.07875
 H411 H -0.14805 1.09766 -0.36877
 H412 H -0.10351 1.05479 -0.29980
 C413 C 0.64403 0.60227 -0.30572
 C414 C 0.64496 0.65445 -0.30333
 C415 C 0.61982 0.67950 -0.26024
 C416 C 0.59600 0.65453 -0.21397
 C417 C 0.59622 0.60356 -0.20869
 C418 C 0.61995 0.57684 -0.25638
 C419 C 0.66479 0.57476 -0.36228
 C420 C 0.66370 0.52391 -0.36414
 C421 C 0.64134 0.49927 -0.31234
 C422 C 0.61931 0.52528 -0.26019
 H423 H 0.68136 0.59207 -0.40808
 H424 H 0.67997 0.50353 -0.40723
 H425 H 0.64055 0.45983 -0.31479
 H426 H 0.60133 0.50463 -0.22521
 H427 H 0.61937 0.71906 -0.25771
 H428 H 0.57763 0.67538 -0.17951
 C429 C 0.12673 1.12396 -0.34945
 C430 C 0.15361 1.13834 -0.29757
 C431 C 0.15642 1.12225 -0.20743
 C432 C 0.13170 1.09748 -0.16505
 C433 C 0.10385 1.08632 -0.21236
 C434 C 0.10221 1.09634 -0.30713
 C435 C 0.12476 1.13318 -0.44408
 C436 C 0.09926 1.11604 -0.49520
 C437 C 0.07587 1.08791 -0.45442
 C438 C 0.07752 1.07746 -0.36187
 H439 H 0.14327 1.15229 -0.48034
 H440 H 0.09809 1.12347 -0.56739
 H441 H 0.05669 1.07321 -0.49510
 H442 H 0.06009 1.05267 -0.33493
 H443 H 0.17708 1.13179 -0.16735
 H444 H 0.13387 1.08879 -0.09349
 C445 C 0.38285 0.32857 -0.27680
 C446 C 0.35311 0.35261 -0.27521
 C447 C 0.35014 0.39727 -0.22901
 C448 C 0.37572 0.41768 -0.18278
 C449 C 0.40505 0.39351 -0.17834
 C450 C 0.40836 0.34730 -0.22333
 C451 C 0.38775 0.28617 -0.33085
 C452 C 0.41599 0.26019 -0.32593
 C453 C 0.43962 0.27549 -0.26651
 C454 C 0.43585 0.31828 -0.21520
 H455 H 0.36993 0.27288 -0.37772
 H456 H 0.41927 0.22746 -0.36696
 H457 H 0.46103 0.25413 -0.26017
 H458 H 0.45431 0.32694 -0.16746
 H459 H 0.32766 0.41630 -0.22767
 H460 H 0.37235 0.45295 -0.14999
 C461 C -0.15587 0.90782 -0.25301
 C462 C -0.15234 0.85671 -0.26703
 C463 C -0.12457 0.83387 -0.23865
 C464 C -0.10061 0.86035 -0.19619
 C465 C -0.10365 0.91061 -0.17791
 C466 C -0.13212 0.93471 -0.20453
 C467 C -0.18218 0.93308 -0.28859
 C468 C -0.18674 0.98247 -0.26990
 C469 C -0.16490 1.00797 -0.21751
 C470 C -0.13761 0.98489 -0.18694
 H471 H -0.19938 0.91526 -0.33198
 H472 H -0.20730 1.00106 -0.29627
 H473 H -0.16880 1.04624 -0.20218
 H474 H -0.12132 1.00747 -0.15008
 H475 H -0.12141 0.79494 -0.24924
 H476 H -0.07947 0.84090 -0.17612
 C477 C 0.35114 0.66125 0.15248
 C478 C 0.34256 0.64867 0.24283
 C479 C 0.36083 0.61462 0.29005
 C480 C 0.38758 0.59368 0.25008
 C481 C 0.39697 0.60649 0.16209
 C482 C 0.37898 0.64078 0.11258
 C483 C 0.33239 0.69307 0.10023
 C484 C 0.34166 0.70616 0.01250
 C485 C 0.36957 0.68776 -0.02495
 C486 C 0.38804 0.65524 0.02422
 H487 H 0.31030 0.70770 0.12611
 H488 H 0.32707 0.73060 -0.02674
 H489 H 0.37667 0.69804 -0.09308
 H490 H 0.40920 0.64126 -0.00799
 H491 H 0.35455 0.60466 0.35909
 H492 H 0.40112 0.56729 0.28818
 C493 C -0.14990 1.15990 0.16230
 C494 C -0.14450 1.17735 0.25174
 C495 C -0.11513 1.17011 0.29272
 C496 C -0.09118 1.14476 0.24702
 C497 C -0.09581 1.12558 0.15887
 C498 C -0.12548 1.13409 0.11482
 C499 C -0.17925 1.16807 0.11898
 C500 C -0.18451 1.15167 0.03029
 C501 C -0.16071 1.12725 -0.01694
 C502 C -0.13160 1.11887 0.02433
 H503 H -0.19833 1.18750 0.15289
 H504 H -0.20702 1.15837 -0.00222
 H505 H -0.16467 1.11524 -0.08648
 H506 H -0.11403 1.10175 -0.01724
 H507 H -0.11092 1.18344 0.36142
 H508 H -0.06903 1.13897 0.28222
 C509 C 0.65876 0.43577 0.26041
 C510 C 0.65628 0.38657 0.28925
 C511 C 0.62742 0.36183 0.27935
 C512 C 0.60165 0.38393 0.23827
 C513 C 0.60349 0.43201 0.20674
 C514 C 0.63182 0.45917 0.22202
 C515 C 0.68764 0.46183 0.26584
 C516 C 0.68931 0.51080 0.24134
 C517 C 0.66245 0.53459 0.21053
 C518 C 0.63403 0.50914 0.20105
 H519 H 0.70926 0.44480 0.28820
 H520 H 0.71148 0.53048 0.24697
 H521 H 0.66370 0.57286 0.19326
 H522 H 0.61375 0.52925 0.17940
 H523 H 0.62504 0.32440 0.30173
 H524 H 0.58031 0.36251 0.22850
 C525 C 0.15435 0.89904 0.22812
 C526 C 0.14638 0.85526 0.27332
 C527 C 0.11467 0.84089 0.27930
 C528 C 0.09089 0.86839 0.23929
 C529 C 0.09781 0.91197 0.19352
 C530 C 0.12989 0.92892 0.19203
 C531 C 0.18629 0.91373 0.21797
 C532 C 0.19393 0.95861 0.17998
 C533 C 0.17005 0.98972 0.15196
 C534 C 0.13848 0.97522 0.15809
 H535 H 0.20566 0.89081 0.23927
 H536 H 0.21847 0.96967 0.17382
 H537 H 0.17597 1.02536 0.12542
 H538 H 0.12122 1.00171 0.13909
 H539 H 0.10830 0.80761 0.31428
 H540 H 0.06685 0.85459 0.24245
   
