data_POSCAR
  _audit_creation_date              2014-09-24
  _audit_creation_method            'ToBaCCo'
  _symmetry_space_group_name_H-M    'P1'
  _symmetry_Int_Tables_number       1
  _symmetry_cell_setting            triclinic
  loop_
  _symmetry_equiv_pos_as_xyz
 x,y,z
_cell_length_a 35.6916
_cell_length_b 34.0897
_cell_length_c 34.9826
_cell_angle_alpha 90.596700
_cell_angle_beta 89.602600
_cell_angle_gamma 92.006200
loop_
  _atom_site_label
  _atom_site_type_symbol
  _atom_site_fract_x
  _atom_site_fract_y
  _atom_site_fract_z
C1 C 0.70931 0.70693 0.97456
 H2 H 0.73489 0.72162 0.98432
 C3 C 0.67955 0.72897 0.96145
 H4 H 0.68238 0.76068 0.96068
 C5 C 0.67392 0.64781 0.96348
 H6 H 0.67162 0.61613 0.96490
 C7 C 0.64375 0.66852 0.95039
 H8 H 0.61849 0.65267 0.94123
 N9 N 0.70595 0.66701 0.97526
 C10 C 0.78937 0.66481 1.05402
 H11 H 0.76701 0.65366 1.07232
 C12 C 0.82278 0.67918 1.07031
 H13 H 0.82585 0.67933 1.10110
 C14 C 0.81332 0.67696 0.99173
 H15 H 0.80976 0.67493 0.96108
 C16 C 0.84737 0.69148 1.00690
 H17 H 0.86977 0.70135 0.98790
 Zn18 Zn 0.74360 0.63433 0.99481
 N19 N 0.78546 0.66326 1.01535
 C20 C 0.79324 0.58125 0.96167
 N21 N 0.76128 0.60082 0.95537
 C22 C 0.74358 0.59816 0.92103
 C23 C 0.75772 0.57497 0.89164
 C24 C 0.80875 0.55827 0.93272
 C25 C 0.68791 0.61397 1.04869
 C26 C 0.67074 0.59284 1.07808
 C27 C 0.72389 0.55109 1.07924
 C28 C 0.73975 0.57271 1.04909
 N29 N 0.72157 0.60344 1.03435
 H30 H 0.80760 0.58477 0.98866
 H31 H 0.71910 0.61478 0.91569
 H32 H 0.74399 0.57397 0.86410
 H33 H 0.83498 0.54410 0.93743
 H34 H 0.67435 0.63933 1.03791
 H35 H 0.64314 0.60147 1.08717
 H36 H 0.74062 0.52892 1.09207
 H37 H 0.76713 0.56564 1.03834
 C38 C 0.85257 0.69167 1.04663
 C39 C 0.64624 0.70952 0.94947
 C40 C 0.68850 0.56064 1.09438
 C41 C 0.79080 0.55513 0.89732
 C42 C 0.70955 0.32159 0.54061
 H43 H 0.73561 0.32031 0.55609
 C44 C 0.67602 0.30844 0.55780
 H45 H 0.67633 0.29661 0.58641
 C46 C 0.67670 0.34192 0.48597
 H47 H 0.67657 0.35669 0.45887
 C48 C 0.64269 0.32865 0.50185
 H49 H 0.61686 0.33258 0.48650
 N50 N 0.70915 0.33907 0.50585
 C51 C 0.82418 0.35688 0.46516
 H52 H 0.82342 0.38846 0.46278
 C53 C 0.85633 0.33757 0.45437
 H54 H 0.88043 0.35422 0.44347
 C55 C 0.79330 0.29657 0.48172
 H56 H 0.76847 0.28093 0.49214
 C57 C 0.82514 0.27594 0.47119
 H58 H 0.82490 0.24427 0.47336
 Zn59 Zn 0.75271 0.36800 0.49039
 N60 N 0.79356 0.33633 0.47846
 C61 C 0.79601 0.39124 0.55307
 N62 N 0.76600 0.40133 0.53209
 C63 C 0.74438 0.43168 0.54305
 C64 C 0.75409 0.45466 0.57510
 C65 C 0.80573 0.41230 0.58597
 C66 C 0.73486 0.37359 0.41401
 C67 C 0.72295 0.39082 0.38049
 C68 C 0.72990 0.45441 0.41139
 C69 C 0.74189 0.43594 0.44436
 N70 N 0.74258 0.39608 0.44554
 H71 H 0.81193 0.36608 0.54495
 H72 H 0.71960 0.43806 0.52695
 H73 H 0.73768 0.47975 0.58264
 H74 H 0.82948 0.40347 0.60257
 H75 H 0.73634 0.34200 0.41559
 H76 H 0.71507 0.37257 0.35612
 H77 H 0.72767 0.48601 0.41109
 H78 H 0.74966 0.45347 0.46907
 C79 C 0.85694 0.29675 0.45732
 C80 C 0.64206 0.31345 0.53887
 C81 C 0.71958 0.43151 0.37948
 C82 C 0.78480 0.44453 0.59733
 C83 C 0.20121 -0.17618 0.05640
 H84 H 0.22248 -0.16732 0.07687
 C85 C 0.16841 -0.19559 0.06899
 H86 H 0.16421 -0.20050 0.09928
 C87 C 0.18074 -0.18054 -0.00769
 H88 H 0.18556 -0.17432 -0.03760
 C89 C 0.14802 -0.20126 0.00350
 H90 H 0.12783 -0.21100 -0.01784
 N91 N 0.20522 -0.16600 0.01907
 C92 C 0.31949 -0.15338 0.01048
 H93 H 0.32009 -0.13890 0.03805
 C94 C 0.35274 -0.16729 -0.00503
 H95 H 0.37883 -0.16235 0.01018
 C96 C 0.28520 -0.17708 -0.04323
 H97 H 0.25894 -0.17983 -0.05844
 C98 C 0.31754 -0.19248 -0.05920
 H99 H 0.31599 -0.20752 -0.08661
 Zn100 Zn 0.24385 -0.12861 0.00456
 N101 N 0.28707 -0.15635 -0.00986
 C102 C 0.28856 -0.07076 0.04166
 N103 N 0.25556 -0.09179 0.04468
 C104 C 0.23349 -0.08830 0.07638
 C105 C 0.24764 -0.06947 0.10914
 C106 C 0.30388 -0.05164 0.07369
 C107 C 0.25361 -0.08426 -0.06318
 C108 C 0.24198 -0.06200 -0.09408
 C109 C 0.17820 -0.07158 -0.07201
 C110 C 0.19118 -0.09228 -0.04103
 N111 N 0.22818 -0.09906 -0.03759
 H112 H 0.30473 -0.07206 0.01544
 H113 H 0.20579 -0.10200 0.07723
 H114 H 0.23164 -0.07060 0.13555
 H115 H 0.33215 -0.03908 0.07232
 H116 H 0.28310 -0.08935 -0.05939
 H117 H 0.26349 -0.04948 -0.11263
 H118 H 0.14813 -0.07072 -0.07529
 H119 H 0.17141 -0.10364 -0.02002
 C120 C 0.35220 -0.18532 -0.04120
 C121 C 0.14038 -0.20631 0.04257
 C122 C 0.20349 -0.05457 -0.09903
 C123 C 0.28419 -0.05319 0.10841
 C124 C 0.21841 0.18517 0.45622
 H125 H 0.24475 0.19014 0.44128
 C126 C 0.18565 0.20084 0.44195
 H127 H 0.18681 0.21830 0.41625
 C128 C 0.18393 0.15418 0.50634
 H129 H 0.18292 0.13484 0.53058
 C130 C 0.15062 0.16909 0.49297
 H131 H 0.12436 0.16163 0.50730
 N132 N 0.21701 0.16232 0.48792
 C133 C 0.32738 0.15385 0.53790
 H134 H 0.32440 0.12296 0.54443
 C135 C 0.35808 0.17568 0.55165
 H136 H 0.37845 0.16156 0.56920
 C137 C 0.30393 0.20982 0.50769
 H138 H 0.28257 0.22295 0.49081
 C139 C 0.33513 0.23260 0.51988
 H140 H 0.33789 0.26320 0.51196
 Zn141 Zn 0.26060 0.13637 0.50335
 N142 N 0.30072 0.17117 0.51701
 C143 C 0.30760 0.11684 0.44242
 N144 N 0.27605 0.10490 0.46166
 C145 C 0.25472 0.07344 0.44938
 C146 C 0.26574 0.05176 0.41728
 C147 C 0.31888 0.09689 0.40960
 C148 C 0.24066 0.12883 0.57927
 C149 C 0.22879 0.11076 0.61298
 C150 C 0.23801 0.04768 0.58280
 C151 C 0.24983 0.06704 0.54952
 N152 N 0.24943 0.10691 0.54795
 H153 H 0.32367 0.14248 0.45197
 H154 H 0.22918 0.06515 0.46453
 H155 H 0.24929 0.02594 0.40861
 H156 H 0.34384 0.10714 0.39442
 H157 H 0.24129 0.16050 0.57739
 H158 H 0.21952 0.12848 0.63688
 H159 H 0.23603 0.01591 0.58319
 H160 H 0.25809 0.05015 0.52479
 C161 C 0.36203 0.21566 0.54313
 C162 C 0.15134 0.19242 0.46033
 C163 C 0.22630 0.06979 0.61445
 C164 C 0.29784 0.06397 0.39654
 C165 C 0.18898 0.47106 0.22731
 H166 H 0.20246 0.47257 0.25483
 C167 C 0.20745 0.45406 0.19612
 H168 H 0.23493 0.44222 0.19985
 C169 C 0.13624 0.48268 0.18876
 H170 H 0.10817 0.49329 0.18618
 C171 C 0.15368 0.46612 0.15695
 H172 H 0.13891 0.46376 0.13004
 N173 N 0.15358 0.48409 0.22333
 C174 C 0.15366 0.55701 0.31976
 H175 H 0.13726 0.57756 0.30431
 C176 C 0.17296 0.56971 0.35244
 H177 H 0.17191 0.60014 0.36151
 C178 C 0.17482 0.49246 0.32749
 H179 H 0.17473 0.46215 0.31806
 C180 C 0.19436 0.50393 0.36063
 H181 H 0.21011 0.48271 0.37609
 Zn182 Zn 0.12437 0.50202 0.26552
 N183 N 0.15490 0.51896 0.30778
 C184 C 0.08812 0.45357 0.32017
 N185 N 0.09244 0.45966 0.28198
 C186 C 0.07815 0.43333 0.25591
 C187 C 0.06080 0.39816 0.26797
 C188 C 0.07123 0.41873 0.33343
 C189 C 0.11508 0.57195 0.22706
 C190 C 0.09692 0.60448 0.21348
 C191 C 0.03980 0.58051 0.24400
 C192 C 0.05902 0.54790 0.25662
 N193 N 0.09612 0.54456 0.24834
 H194 H 0.09904 0.47509 0.34047
 H195 H 0.08156 0.43873 0.22572
 H196 H 0.05062 0.37680 0.24703
 H197 H 0.06937 0.41353 0.36389
 H198 H 0.14448 0.56845 0.22067
 H199 H 0.11243 0.62583 0.19630
 H200 H 0.01046 0.58331 0.25125
 H201 H 0.04450 0.52560 0.27343
 C202 C 0.19347 0.54300 0.37328
 C203 C 0.18929 0.45079 0.16073
 C204 C 0.05906 0.60963 0.22270
 C205 C 0.05859 0.39004 0.30713
 C206 C -0.20331 0.02373 0.17787
 H207 H -0.22090 0.01270 0.20092
 C208 C -0.21960 0.03649 0.14418
 H209 H -0.24984 0.03458 0.14160
 C210 C -0.14261 0.03925 0.15339
 H211 H -0.11258 0.04068 0.15755
 C212 C -0.15763 0.05203 0.11922
 H213 H -0.13883 0.06440 0.09773
 N214 N -0.16542 0.02483 0.18155
 C215 C -0.17527 0.01475 0.29904
 H216 H -0.15793 0.04116 0.30166
 C217 C -0.19260 -0.00060 0.33170
 H218 H -0.18816 0.01399 0.35904
 C219 C -0.19794 -0.03947 0.26183
 H220 H -0.19816 -0.05543 0.23494
 C221 C -0.21555 -0.05603 0.29396
 H222 H -0.22907 -0.08490 0.29177
 Zn223 Zn -0.14191 0.00718 0.22600
 N224 N -0.17689 -0.00558 0.26534
 C225 C -0.12327 0.08413 0.24832
 N226 N -0.10884 0.04795 0.24374
 C227 C -0.07314 0.04079 0.25442
 C228 C -0.05156 0.06986 0.27331
 C229 C -0.10270 0.11397 0.26712
 C230 C -0.11356 -0.05278 0.17816
 C231 C -0.09392 -0.08645 0.16961
 C232 C -0.08010 -0.09280 0.23674
 C233 C -0.09992 -0.05878 0.24403
 N234 N -0.11549 -0.03907 0.21477
 H235 H -0.15164 0.08905 0.23932
 H236 H -0.06193 0.01208 0.24995
 H237 H -0.02392 0.06337 0.28358
 H238 H -0.11525 0.14196 0.27263
 H239 H -0.12698 -0.03756 0.15539
 H240 H -0.09176 -0.09656 0.14024
 H241 H -0.06700 -0.10776 0.26002
 H242 H -0.10257 -0.04778 0.27301
 C243 C -0.21130 -0.03729 0.32961
 C244 C -0.19668 0.04995 0.11368
 C245 C -0.07653 -0.10642 0.19903
 C246 C -0.06702 0.10637 0.28098
 C247 C 0.30123 0.50539 0.72006
 H248 H 0.28530 0.48981 0.74180
 C249 C 0.28322 0.51743 0.68683
 H250 H 0.25342 0.51155 0.68337
 C251 C 0.35851 0.53528 0.69889
 H252 H 0.38735 0.54401 0.70442
 C253 C 0.34184 0.54743 0.66540
 H254 H 0.35803 0.56518 0.64529
 N255 N 0.33832 0.51456 0.72548
 C256 C 0.33911 0.50585 0.84683
 H257 H 0.35825 0.53098 0.84918
 C258 C 0.32160 0.49115 0.87983
 H259 H 0.32702 0.50529 0.90719
 C260 C 0.31098 0.45469 0.80932
 H261 H 0.30833 0.43954 0.78211
 C262 C 0.29282 0.43910 0.84165
 H263 H 0.27572 0.41234 0.83911
 Zn264 Zn 0.36560 0.50275 0.77041
 N265 N 0.33413 0.48718 0.81250
 C266 C 0.43150 0.54847 0.78833
 N267 N 0.39366 0.54893 0.78397
 C268 C 0.37465 0.58250 0.78915
 C269 C 0.39353 0.61711 0.80077
 C270 C 0.45152 0.58252 0.79969
 C271 C 0.42108 0.46442 0.72755
 C272 C 0.44374 0.43367 0.71692
 C273 C 0.42181 0.39801 0.77246
 C274 C 0.39942 0.42953 0.78206
 N275 N 0.39881 0.46161 0.75919
 H276 H 0.44607 0.52152 0.78392
 H277 H 0.34461 0.58205 0.78513
 H278 H 0.37795 0.64330 0.80626
 H279 H 0.48145 0.58166 0.80433
 H280 H 0.42086 0.49014 0.70997
 H281 H 0.46000 0.43574 0.69070
 H282 H 0.42125 0.37220 0.79028
 H283 H 0.38223 0.42800 0.80755
 C284 C 0.29870 0.45707 0.87742
 C285 C 0.30373 0.53898 0.65934
 C286 C 0.44405 0.39984 0.73932
 C287 C 0.43225 0.61700 0.80692
 C288 C 0.69264 0.99648 0.67551
 H289 H 0.70589 1.00687 0.70154
 C290 C 0.71477 0.98363 0.64501
 H291 H 0.74498 0.98381 0.64774
 C292 C 0.63720 0.97961 0.64113
 H293 H 0.60691 0.97730 0.64032
 C294 C 0.65816 0.96665 0.61008
 H295 H 0.64402 0.95370 0.58546
 N296 N 0.65457 0.99383 0.67311
 C297 C 0.63887 1.00627 0.79247
 H298 H 0.61717 0.98345 0.79373
 C299 C 0.65520 1.01979 0.82635
 H300 H 0.64508 1.00731 0.85298
 C301 C 0.67369 1.05382 0.75691
 H302 H 0.67992 1.06762 0.72979
 C303 C 0.69110 1.06808 0.79021
 H304 H 0.71153 1.09220 0.78797
 Zn305 Zn 0.62226 1.00571 0.71427
 N306 N 0.64861 1.02294 0.75852
 C307 C 0.61699 0.92843 0.73675
 N308 N 0.59534 0.95870 0.72671
 C309 C 0.55737 0.95624 0.73046
 C310 C 0.54021 0.92388 0.74861
 C311 C 0.60108 0.89585 0.75534
 C312 C 0.56584 1.06012 0.72693
 C313 C 0.54589 1.09380 0.71967
 C314 C 0.57758 1.09912 0.65856
 C315 C 0.59680 1.06543 0.66689
 N316 N 0.59081 1.04674 0.70068
 H317 H 0.64710 0.93118 0.73322
 H318 H 0.54067 0.98040 0.72179
 H319 H 0.51030 0.92334 0.75409
 H320 H 0.61900 0.87355 0.76615
 H321 H 0.56243 1.04541 0.75405
 H322 H 0.52680 1.10493 0.74104
 H323 H 0.58330 1.11439 0.63203
 H324 H 0.61767 1.05535 0.64698
 C325 C 0.68242 1.05065 0.82577
 C326 C 0.69729 0.96790 0.61225
 C327 C 0.55213 1.11373 0.68527
 C328 C 0.56257 0.89445 0.76316
 C329 C 0.04537 0.22567 -0.18855
 H330 H 0.05719 0.25519 -0.19098
 C331 C 0.06318 0.19452 -0.20645
 H332 H 0.08830 0.20029 -0.22332
 C333 C -0.00012 0.18166 -0.16149
 H334 H -0.02410 0.17657 -0.14298
 C335 C 0.01745 0.14961 -0.17795
 H336 H 0.00675 0.12014 -0.17213
 N337 N 0.01455 0.21871 -0.16623
 C338 C -0.03713 0.33040 -0.14347
 H339 H -0.04220 0.32600 -0.11327
 C340 C -0.05207 0.36238 -0.16157
 H341 H -0.06899 0.38249 -0.14533
 C342 C -0.01065 0.30817 -0.20185
 H343 H 0.00453 0.28639 -0.21762
 C344 C -0.02451 0.34036 -0.22101
 H345 H -0.01977 0.34338 -0.25147
 Zn346 Zn -0.00391 0.25972 -0.13526
 N347 N -0.01744 0.30373 -0.16377
 C348 C 0.04827 0.31268 -0.10094
 N349 N 0.03458 0.27491 -0.10082
 C350 C 0.05122 0.24685 -0.08009
 C351 C 0.08359 0.25625 -0.05911
 C352 C 0.08032 0.32333 -0.08026
 C353 C -0.07778 0.23607 -0.13425
 C354 C -0.11268 0.22366 -0.12023
 C355 C -0.08652 0.22261 -0.05681
 C356 C -0.05192 0.23555 -0.07219
 N357 N -0.04828 0.24169 -0.11037
 H358 H 0.03534 0.33437 -0.11828
 H359 H 0.04023 0.21689 -0.08118
 H360 H 0.09743 0.23362 -0.04361
 H361 H 0.09159 0.35322 -0.08135
 H362 H -0.07414 0.24166 -0.16446
 H363 H -0.13559 0.22114 -0.14034
 H364 H -0.08768 0.21522 -0.02680
 H365 H -0.02791 0.23997 -0.05377
 C366 C -0.04658 0.36703 -0.20093
 C367 C 0.05027 0.15584 -0.19954
 C368 C -0.11811 0.21667 -0.08076
 C369 C 0.09857 0.29477 -0.05972
 C370 C 0.46214 0.16121 0.13521
 H371 H 0.45528 0.16571 0.10555
 C372 C 0.45044 0.12652 0.15311
 H373 H 0.43405 0.10455 0.13732
 C374 C 0.49158 0.18456 0.19199
 H375 H 0.50840 0.20682 0.20673
 C376 C 0.48023 0.15021 0.21112
 H377 H 0.48757 0.14657 0.24083
 N378 N 0.48200 0.18954 0.15477
 C379 C 0.54403 0.29904 0.13662
 H380 H 0.55389 0.29087 0.10851
 C381 C 0.55806 0.33362 0.15351
 H382 H 0.57903 0.35153 0.13862
 C383 C 0.50364 0.28706 0.18962
 H384 H 0.48165 0.26942 0.20312
 C385 C 0.51719 0.32146 0.20776
 H386 H 0.50605 0.32994 0.23538
 Zn387 Zn 0.49626 0.23399 0.12519
 N388 N 0.51714 0.27657 0.15457
 C389 C 0.42886 0.27184 0.12452
 N390 N 0.45220 0.25158 0.10128
 C391 C 0.44302 0.24367 0.06418
 C392 C 0.41000 0.25785 0.04888
 C393 C 0.39558 0.28614 0.11058
 C394 C 0.55936 0.19392 0.10609
 C395 C 0.59079 0.18285 0.08538
 C396 C 0.56985 0.22094 0.03229
 C397 C 0.53900 0.23197 0.05438
 N398 N 0.53407 0.21789 0.09045
 H399 H 0.43594 0.27684 0.15412
 H400 H 0.46075 0.22582 0.04656
 H401 H 0.40316 0.25193 0.01922
 H402 H 0.37744 0.30232 0.12951
 H403 H 0.55554 0.18405 0.13517
 H404 H 0.61079 0.16404 0.09849
 H405 H 0.57326 0.23182 0.00346
 H406 H 0.51990 0.25276 0.04311
 C407 C 0.54423 0.34530 0.18918
 C408 C 0.45961 0.12067 0.19144
 C409 C 0.59653 0.19666 0.04815
 C410 C 0.38584 0.27919 0.07238
 C411 C 0.95299 0.69241 0.63175
 H412 H 0.94023 0.70386 0.60651
 C413 C 0.93623 0.66001 0.64941
 H414 H 0.91027 0.64732 0.63814
 C415 C 1.00296 0.69354 0.67607
 H416 H 1.02952 0.70622 0.68559
 C417 C 0.98659 0.66129 0.69525
 H418 H 1.00000 0.64973 0.72020
 N419 N 0.98503 0.70946 0.64600
 C420 C 1.02718 0.83058 0.63333
 H421 H 1.02505 0.83132 0.60251
 C422 C 1.04099 0.86349 0.65322
 H423 H 1.05017 0.88944 0.63765
 C424 C 1.01961 0.79514 0.69100
 H425 H 1.01103 0.76858 0.70564
 C426 C 1.03368 0.82747 0.71211
 H427 H 1.03706 0.82527 0.74274
 Zn428 Zn 1.00368 0.75425 0.61958
 N429 N 1.01812 0.79682 0.65215
 C430 C 0.93501 0.78547 0.60983
 N431 N 0.96479 0.77243 0.58956
 C432 C 0.96558 0.77271 0.55068
 C433 C 0.93511 0.78659 0.53062
 C434 C 0.90413 0.79948 0.59103
 C435 C 1.07879 0.75711 0.59282
 C436 C 1.10979 0.74235 0.57375
 C437 C 1.06959 0.69076 0.54682
 C438 C 1.03923 0.70673 0.56609
 N439 N 1.04446 0.73887 0.58908
 H440 H 0.93541 0.78491 0.64074
 H441 H 0.98978 0.76247 0.53531
 H442 H 0.93584 0.78746 0.49969
 H443 H 0.88068 0.81032 0.60735
 H444 H 1.08259 0.78201 0.61188
 H445 H 1.13734 0.75592 0.57824
 H446 H 1.06563 0.66400 0.53016
 H447 H 1.01173 0.69251 0.56412
 C448 C 1.04538 0.86164 0.69286
 C449 C 0.95219 0.64518 0.68242
 C450 C 1.10531 0.70843 0.55115
 C451 C 0.90421 0.80017 0.55111
 C452 C 0.51662 0.69305 0.32119
 H453 H 0.50909 0.71901 0.30595
 C454 C 0.53062 0.66090 0.30118
 H455 H 0.53387 0.66203 0.27040
 C456 C 0.52541 0.66090 0.38018
 H457 H 0.52443 0.66181 0.41110
 C458 C 0.53915 0.62822 0.36141
 H459 H 0.54896 0.60387 0.37782
 N460 N 0.51495 0.69256 0.36004
 C461 C 0.49974 0.81583 0.37110
 H462 H 0.52308 0.82043 0.39032
 C463 C 0.48219 0.84826 0.35628
 H464 H 0.49266 0.87736 0.36432
 C465 C 0.45588 0.77236 0.34066
 H466 H 0.44536 0.74266 0.33539
 C467 C 0.43758 0.80393 0.32510
 H468 H 0.41395 0.79794 0.30642
 Zn469 Zn 0.50454 0.73628 0.39097
 N470 N 0.48608 0.77882 0.36354
 C471 C 0.57697 0.76365 0.38652
 N472 N 0.55107 0.75094 0.41266
 C473 C 0.55990 0.74732 0.45018
 C474 C 0.59591 0.75830 0.46279
 C475 C 0.61295 0.77527 0.39788
 C476 C 0.44325 0.69156 0.41540
 C477 C 0.41179 0.68141 0.43720
 C478 C 0.42949 0.73262 0.48255
 C479 C 0.46054 0.74234 0.45936
 N480 N 0.46700 0.72141 0.42673
 H481 H 0.56926 0.76549 0.35675
 H482 H 0.53924 0.73585 0.47024
 H483 H 0.60260 0.75624 0.49284
 H484 H 0.63263 0.78716 0.37694
 H485 H 0.44791 0.67645 0.38858
 H486 H 0.39279 0.65800 0.42736
 H487 H 0.42453 0.74914 0.50859
 H488 H 0.47897 0.76700 0.46695
 C489 C 0.44953 0.84276 0.33423
 C490 C 0.54263 0.62852 0.32164
 C491 C 0.40442 0.70225 0.47094
 C492 C 0.62281 0.77262 0.43640
 Si493 Si 0.37100 -0.02104 0.25910
 Si494 Si 0.13578 1.00660 0.75404
 Si495 Si 0.62938 0.49467 0.24525
 Si496 Si 0.85907 0.50339 0.74376
 Si497 Si 0.24316 0.36012 0.01698
 Si498 Si 0.73870 0.13033 0.97371
 Si499 Si 0.25446 0.62869 0.51687
 Si500 Si 0.76466 0.87109 0.48037
 Si501 Si 0.00233 0.23681 0.38517
 Si502 Si 0.99733 0.74780 0.13289
 Si503 Si 0.49856 0.27380 0.63351
 Si504 Si 0.50146 0.76997 0.87866
 C505 C 0.43176 -0.06093 0.29013
 C506 C 0.44982 -0.09156 0.30744
 C507 C 0.42957 -0.12468 0.32134
 C508 C 0.38961 -0.12441 0.32074
 C509 C 0.37136 -0.09404 0.30147
 C510 C 0.39289 -0.06239 0.28530
 C511 C 0.33196 -0.09659 0.29908
 N512 N 0.31225 -0.12541 0.31750
 N513 N 0.32919 -0.15194 0.33822
 C514 C 0.36702 -0.15218 0.34083
 H515 H 0.44866 -0.03638 0.27954
 H516 H 0.48017 -0.09008 0.30793
 H517 H 0.31644 -0.07608 0.28291
 H518 H 0.37890 -0.17352 0.35939
 C519 C 0.91890 0.46689 0.77716
 C520 C 0.94073 0.43697 0.79028
 C521 C 0.93328 0.39802 0.77923
 C522 C 0.90358 0.38908 0.75357
 C523 C 0.88124 0.41967 0.73971
 C524 C 0.88902 0.45936 0.75199
 C525 C 0.85115 0.40849 0.71563
 N526 N 0.84430 0.37035 0.70599
 N527 N 0.86512 0.34200 0.71915
 C528 C 0.89421 0.34997 0.74286
 H529 H 0.92489 0.49633 0.78798
 H530 H 0.96288 0.44412 0.81048
 H531 H 0.83202 0.42873 0.70496
 H532 H 0.90925 0.32543 0.75333
 C533 C 0.07484 1.05925 0.75461
 C534 C 0.05557 1.09247 0.76552
 C535 C 0.07264 1.12192 0.78828
 C536 C 0.11025 1.11788 0.79996
 C537 C 0.13061 1.08513 0.78712
 C538 C 0.11212 1.05445 0.76556
 C539 C 0.16870 1.08403 0.79734
 N540 N 0.18427 1.11200 0.82062
 N541 N 0.16446 1.14128 0.83449
 C542 C 0.12803 1.14504 0.82522
 H543 H 0.05996 1.03722 0.73781
 H544 H 0.02679 1.09502 0.75649
 H545 H 0.18654 1.06141 0.78729
 H546 H 0.11338 1.16898 0.83820
 C547 C 0.56601 0.53226 0.27552
 C548 C 0.54601 0.56265 0.29180
 C549 C 0.56432 0.59787 0.30266
 C550 C 0.60360 0.60242 0.29799
 C551 C 0.62405 0.57162 0.28137
 C552 C 0.60477 0.53643 0.26919
 C553 C 0.66314 0.57758 0.27722
 N554 N 0.68018 0.61165 0.28915
 N555 N 0.66089 0.64038 0.30495
 C556 C 0.62324 0.63697 0.30976
 H557 H 0.55084 0.50535 0.26788
 H558 H 0.51607 0.55858 0.29626
 H559 H 0.68046 0.55588 0.26428
 H560 H 0.60907 0.66132 0.32276
 C561 C 0.60309 0.41543 0.24836
 C562 C 0.58421 0.38142 0.23568
 C563 C 0.55816 0.38279 0.20624
 C564 C 0.54918 0.41946 0.19082
 C565 C 0.56808 0.45436 0.20395
 C566 C 0.59626 0.45213 0.23237
 C567 C 0.55839 0.49007 0.18741
 N568 N 0.53183 0.49054 0.15991
 N569 N 0.51422 0.45777 0.14769
 C570 C 0.52195 0.42228 0.16219
 H571 H 0.62474 0.41213 0.26933
 H572 H 0.59154 0.35347 0.24750
 H573 H 0.57107 0.51776 0.19630
 H574 H 0.50656 0.39664 0.15143
 C575 C 0.07140 0.95479 0.74673
 C576 C 0.05071 0.92224 0.73284
 C577 C 0.06828 0.89267 0.71221
 C578 C 0.10759 0.89467 0.70722
 C579 C 0.12869 0.92794 0.72070
 C580 C 0.11007 0.95920 0.73957
 C581 C 0.16774 0.92857 0.71414
 N582 N 0.18404 0.89825 0.69593
 N583 N 0.16411 0.86703 0.68361
 C584 C 0.12650 0.86419 0.68860
 H585 H 0.05660 0.97696 0.76229
 H586 H 0.02062 0.92067 0.73721
 H587 H 0.18579 0.95253 0.72311
 H588 H 0.11181 0.83796 0.67821
 C589 C 0.92533 0.54492 0.71947
 C590 C 0.94683 0.57694 0.70618
 C591 C 0.93140 0.61394 0.70354
 C592 C 0.89419 0.61929 0.71628
 C593 C 0.87173 0.58655 0.72821
 C594 C 0.88768 0.54888 0.73019
 C595 C 0.83397 0.59300 0.73766
 N596 N 0.82056 0.62969 0.73702
 N597 N 0.84221 0.66058 0.72734
 C598 C 0.87854 0.65668 0.71707
 H599 H 0.93787 0.51652 0.71943
 H600 H 0.97516 0.57241 0.69615
 H601 H 0.81489 0.56957 0.74594
 H602 H 0.89491 0.68290 0.70990
 C603 C 0.39975 0.05738 0.25622
 C604 C 0.41939 0.08957 0.24096
 C605 C 0.44515 0.08488 0.21120
 C606 C 0.45312 0.04650 0.19832
 C607 C 0.43315 0.01346 0.21393
 C608 C 0.40550 0.01904 0.24280
 C609 C 0.44127 -0.02390 0.19932
 N610 N 0.46782 -0.02783 0.17177
 N611 N 0.48685 0.00307 0.15767
 C612 C 0.48046 0.04006 0.17003
 H613 H 0.37839 0.06342 0.27722
 H614 H 0.41272 0.11872 0.25097
 H615 H 0.42727 -0.05012 0.20975
 H616 H 0.49705 0.06404 0.15787
 C617 C 0.29571 0.39172 -0.03673
 C618 C 0.30800 0.41255 -0.06871
 C619 C 0.28439 0.43785 -0.08733
 C620 C 0.24794 0.44329 -0.07263
 C621 C 0.23535 0.42242 -0.03962
 C622 C 0.25940 0.39567 -0.02175
 C623 C 0.19879 0.42889 -0.02619
 N624 N 0.17670 0.45409 -0.04458
 N625 N 0.18855 0.47336 -0.07553
 C626 C 0.22340 0.46883 -0.09017
 H627 H 0.31460 0.37102 -0.02503
 H628 H 0.33598 0.40799 -0.07976
 H629 H 0.18755 0.41473 -0.00103
 H630 H 0.23165 0.48527 -0.11533
 C631 C 0.74596 0.92132 0.42019
 C632 C 0.75051 0.94181 0.38603
 C633 C 0.78381 0.93980 0.36496
 C634 C 0.81310 0.91660 0.37821
 C635 C 0.80848 0.89571 0.41291
 C636 C 0.77476 0.89885 0.43458
 C637 C 0.83692 0.87152 0.42539
 N638 N 0.86924 0.86990 0.40307
 N639 N 0.87403 0.89068 0.36997
 C640 C 0.84685 0.91371 0.35740
 H641 H 0.71959 0.92306 0.43553
 H642 H 0.72793 0.95935 0.37595
 H643 H 0.86412 0.86099 0.41940
 H644 H 0.85193 0.92937 0.33107
 C645 C 0.74279 0.10669 1.05073
 C646 C 0.75664 0.08802 1.08247
 C647 C 0.78746 0.06366 1.07950
 C648 C 0.80250 0.05585 1.04238
 C649 C 0.78846 0.07532 1.00991
 C650 C 0.75835 0.10126 1.01428
 C651 C 0.80440 0.06702 0.97392
 N652 N 0.83128 0.04011 0.97048
 N653 N 0.84318 0.02058 1.00051
 C654 C 0.82944 0.02712 1.03611
 H655 H 0.72053 0.12682 1.05553
 H656 H 0.74452 0.09504 1.11008
 H657 H 0.79514 0.08057 0.94818
 H658 H 0.83902 0.00891 1.05889
 C659 C 0.26876 0.56055 0.56045
 C660 C 0.27996 0.53997 0.59258
 C661 C 0.28501 0.55916 0.62786
 C662 C 0.27734 0.59942 0.63129
 C663 C 0.26672 0.62062 0.59869
 C664 C 0.26275 0.60096 0.56261
 C665 C 0.26099 0.66109 0.60354
 N666 N 0.26502 0.67850 0.63834
 N667 N 0.27461 0.65836 0.66889
 C668 C 0.28092 0.61949 0.66658
 H669 H 0.26663 0.54508 0.53335
 H670 H 0.28629 0.50924 0.58953
 H671 H 0.25296 0.67923 0.58035
 H672 H 0.28853 0.60464 0.69242
 C673 C 0.21619 0.56934 0.47551
 C674 C 0.20078 0.55006 0.44360
 C675 C 0.21520 0.55717 0.40702
 C676 C 0.24741 0.58199 0.40277
 C677 C 0.26286 0.60260 0.43498
 C678 C 0.24633 0.59680 0.47215
 C679 C 0.29321 0.62908 0.42769
 N680 N 0.30767 0.63314 0.39197
 N681 N 0.29375 0.61288 0.36237
 C682 C 0.26406 0.58755 0.36653
 H683 H 0.20271 0.56444 0.50298
 H684 H 0.17607 0.53106 0.44727
 H685 H 0.30570 0.64719 0.44911
 H686 H 0.25380 0.57188 0.34145
 C687 C 0.71108 0.12421 0.89967
 C688 C 0.70062 0.10711 0.86500
 C689 C 0.69774 0.06611 0.86034
 C690 C 0.70684 0.04228 0.89209
 C691 C 0.71509 0.05998 0.92823
 C692 C 0.71985 0.10141 0.93120
 C693 C 0.71761 0.03520 0.95988
 N694 N 0.71768 -0.00426 0.95483
 N695 N 0.71484 -0.02064 0.92026
 C696 C 0.70976 0.00124 0.88873
 H697 H 0.71300 0.15597 0.90158
 H698 H 0.69309 0.12651 0.84219
 H699 H 0.71835 0.04640 0.98863
 H700 H 0.70841 -0.01366 0.86134
 C701 C 0.74288 0.94079 0.51884
 C702 C 0.72794 0.96297 0.54864
 C703 C 0.71865 0.94562 0.58366
 C704 C 0.72519 0.90546 0.58926
 C705 C 0.73935 0.88253 0.55878
 C706 C 0.74811 0.90049 0.52295
 C707 C 0.74260 0.84195 0.56503
 N708 N 0.73375 0.82626 0.59949
 N709 N 0.72134 0.84812 0.62827
 C710 C 0.71654 0.88707 0.62430
 H711 H 0.74956 0.95523 0.49217
 H712 H 0.72268 0.99366 0.54406
 H713 H 0.75105 0.82208 0.54288
 H714 H 0.70586 0.90317 0.64858
 C715 C 0.23237 0.42674 0.06488
 C716 C 0.22033 0.44743 0.09708
 C717 C 0.20518 0.42766 0.12879
 C718 C 0.20270 0.38614 0.12832
 C719 C 0.21462 0.36499 0.09546
 C720 C 0.22874 0.38566 0.06290
 C721 C 0.21106 0.32374 0.09626
 N722 N 0.19666 0.30530 0.12749
 N723 N 0.18536 0.32521 0.15811
 C724 C 0.18772 0.36493 0.15955
 H725 H 0.24405 0.44322 0.04112
 H726 H 0.22240 0.47921 0.09710
 H727 H 0.21897 0.30582 0.07234
 H728 H 0.17777 0.37946 0.18509
 C729 C -0.07193 0.25782 0.38919
 C730 C -0.10510 0.27152 0.40434
 C731 C -0.10955 0.27645 0.44370
 C732 C -0.08068 0.26548 0.46849
 C733 C -0.04679 0.25083 0.45313
 C734 C -0.04168 0.24905 0.41272
 C735 C -0.01986 0.23849 0.47908
 N736 N -0.02572 0.24225 0.51727
 N737 N -0.05686 0.25727 0.53145
 C738 C -0.08456 0.26899 0.50837
 H739 H -0.06939 0.25578 0.35835
 H740 H -0.12706 0.27970 0.38504
 H741 H 0.00523 0.22486 0.46988
 H742 H -0.10948 0.28060 0.52139
 C743 C 0.44653 0.77170 0.93844
 C744 C 0.41333 0.78181 0.95669
 C745 C 0.38780 0.80572 0.93877
 C746 C 0.39613 0.81979 0.90158
 C747 C 0.42843 0.80696 0.88180
 C748 C 0.45536 0.78469 0.90142
 C749 C 0.43204 0.81691 0.84290
 N750 N 0.40787 0.84153 0.82673
 N751 N 0.37980 0.85656 0.84654
 C752 C 0.37317 0.84668 0.88340
 H753 H 0.46532 0.75351 0.95374
 H754 H 0.40741 0.77067 0.98507
 H755 H 0.45308 0.80501 0.82466
 H756 H 0.35015 0.86018 0.89807
 C757 C 1.06955 0.73675 0.10174
 C758 C 1.10214 0.74741 0.08188
 C759 C 1.10308 0.77903 0.05665
 C760 C 1.06925 0.79840 0.04913
 C761 C 1.03552 0.78635 0.06832
 C762 C 1.03646 0.75705 0.09694
 C763 C 1.00268 0.80634 0.06028
 N764 N 1.00374 0.83668 0.03557
 N765 N 1.03547 0.84877 0.01859
 C766 C 1.06822 0.83103 0.02480
 H767 H 1.07098 0.71325 0.12208
 H768 H 1.12747 0.73196 0.08768
 H769 H 0.97629 0.79886 0.07378
 H770 H 1.09298 0.84322 0.01096
 C771 C 0.56343 0.25866 0.58950
 C772 C 0.59633 0.26725 0.56926
 C773 C 0.60597 0.30577 0.55896
 C774 C 0.58120 0.33616 0.56818
 C775 C 0.54717 0.32721 0.58805
 C776 C 0.53934 0.28834 0.60095
 C777 C 0.52271 0.35790 0.59503
 N778 N 0.53237 0.39506 0.58454
 N779 N 0.56494 0.40370 0.56736
 C780 C 0.58974 0.37563 0.55899
 H781 H 0.55709 0.22828 0.59626
 H782 H 0.61458 0.24360 0.56168
 H783 H 0.49619 0.35289 0.60890
 H784 H 0.61592 0.38460 0.54549
 C785 C 0.46136 0.23877 0.57193
 C786 C 0.43034 0.22402 0.55202
 C787 C 0.39465 0.23851 0.55889
 C788 C 0.39103 0.27157 0.58346
 C789 C 0.42329 0.28827 0.60198
 C790 C 0.45797 0.26894 0.59907
 C791 C 0.41909 0.32326 0.62289
 N792 N 0.38472 0.33825 0.62794
 N793 N 0.35414 0.32077 0.61321
 C794 C 0.35606 0.28785 0.59138
 H795 H 0.48765 0.22425 0.56811
 H796 H 0.43381 0.19921 0.53286
 H797 H 0.44253 0.33940 0.63488
 H798 H 0.33016 0.27495 0.58063
 C799 C 0.92248 0.75095 0.10526
 C800 C 0.88998 0.73862 0.08626
 C801 C 0.88896 0.70447 0.06390
 C802 C 0.92190 0.68267 0.06001
 C803 C 0.95526 0.69524 0.07947
 C804 C 0.95522 0.72922 0.10359
 C805 C 0.98731 0.67281 0.07427
 N806 N 0.98578 0.64004 0.05197
 N807 N 0.95441 0.62800 0.03443
 C808 C 0.92243 0.64805 0.03781
 H809 H 0.92158 0.77832 0.12081
 H810 H 0.86525 0.75600 0.08905
 H811 H 1.01346 0.68043 0.08804
 H812 H 0.89776 0.63663 0.02317
 C813 C 0.57185 0.73828 0.88121
 C814 C 0.60462 0.72414 0.89612
 C815 C 0.61410 0.73088 0.93434
 C816 C 0.59064 0.75401 0.95758
 C817 C 0.55715 0.76901 0.94221
 C818 C 0.54693 0.75961 0.90383
 C819 C 0.53528 0.79234 0.96617
 N820 N 0.54544 0.79920 1.00299
 N821 N 0.57613 0.78429 1.01757
 C822 C 0.59900 0.76184 0.99618
 H823 H 0.56530 0.73088 0.85178
 H824 H 0.62219 0.70648 0.87791
 H825 H 0.51044 0.80547 0.95626
 H826 H 0.62348 0.75042 1.00958
 C827 C 0.06113 0.18793 0.40573
 C828 C 0.09502 0.17803 0.42174
 C829 C 0.11579 0.20516 0.44389
 C830 C 0.10188 0.24296 0.45053
 C831 C 0.06697 0.25304 0.43469
 C832 C 0.04640 0.22512 0.41181
 C833 C 0.05383 0.29068 0.44284
 N834 N 0.07450 0.31630 0.46467
 N835 N 0.10737 0.30689 0.47909
 C836 C 0.12173 0.27108 0.47285
 H837 H 0.04693 0.16631 0.38772
 H838 H 0.10543 0.14898 0.41641
 H839 H 0.02705 0.29987 0.43287
 H840 H 0.14845 0.26489 0.48545
 C841 C 0.54465 0.22177 0.67050
 C842 C 0.55790 0.18557 0.68076
 C843 C 0.53490 0.15167 0.67817
 C844 C 0.49692 0.15472 0.66778
 C845 C 0.48308 0.19189 0.65800
 C846 C 0.50831 0.22515 0.65622
 C847 C 0.44441 0.19410 0.65138
 N848 N 0.42206 0.16110 0.65152
 N849 N 0.43559 0.12600 0.65844
 C850 C 0.47225 0.12168 0.66664
 H851 H 0.56396 0.24693 0.67147
 H852 H 0.58682 0.18377 0.68961
 H853 H 0.43128 0.22161 0.64750
 H854 H 0.48165 0.09257 0.67261
 C855 C 0.99348 0.67258 0.16789
 C856 C 1.00782 0.64073 0.18708
 C857 C 1.04021 0.64525 0.20927
 C858 C 1.05593 0.68352 0.21538
 C859 C 1.04217 0.71573 0.19487
 C860 C 1.01184 0.70968 0.16893
 C861 C 1.05968 0.75279 0.20109
 N862 N 1.08808 0.75737 0.22644
 N863 N 1.10032 0.72733 0.24622
 C864 C 1.08513 0.69064 0.24169
 H865 H 0.96885 0.66734 0.15061
 H866 H 0.99456 0.61193 0.18298
 H867 H 1.05082 0.77834 0.18683
 H868 H 1.09564 0.66754 0.25917
 C869 C 0.95290 0.78940 0.18506
 C870 C 0.93428 0.82203 0.19883
 C871 C 0.94709 0.85998 0.18950
 C872 C 0.98158 0.86529 0.16980
 C873 C 1.00121 0.83212 0.15674
 C874 C 0.98433 0.79376 0.16091
 C875 C 1.03736 0.83909 0.14137
 N876 N 1.05116 0.87626 0.13648
 N877 N 1.03169 0.90725 0.14672
 C878 C 0.99749 0.90306 0.16343
 H879 H 0.94063 0.76048 0.19059
 H880 H 0.90849 0.81759 0.21497
 H881 H 1.05584 0.81579 0.13496
 H882 H 0.98349 0.92928 0.17237
 C883 C 0.45723 0.30034 0.69643
 C884 C 0.44339 0.32988 0.71976
 C885 C 0.46406 0.36517 0.72511
 C886 C 0.50171 0.36778 0.71210
 C887 C 0.51585 0.33743 0.68865
 C888 C 0.49131 0.30610 0.67680
 C889 C 0.55406 0.33948 0.67875
 N890 N 0.57588 0.37092 0.68972
 N891 N 0.56219 0.40015 0.71049
 C892 C 0.52589 0.39959 0.72217
 H893 H 0.43902 0.27511 0.69014
 H894 H 0.41495 0.32660 0.73058
 H895 H 0.56718 0.31597 0.66357
 H896 H 0.51651 0.42343 0.74008
 C897 C 0.47214 0.72014 0.81957
 C898 C 0.45587 0.68615 0.80341
 C899 C 0.45168 0.65169 0.82454
 C900 C 0.46404 0.65141 0.86286
 C901 C 0.48085 0.68592 0.87947
 C902 C 0.48508 0.72091 0.85737
 C903 C 0.49198 0.68393 0.91800
 N904 N 0.48656 0.65037 0.93800
 N905 N 0.47046 0.61838 0.92242
 C906 C 0.45885 0.61779 0.88569
 H907 H 0.47342 0.74623 0.80237
 H908 H 0.44586 0.68691 0.77427
 H909 H 0.50471 0.70835 0.93298
 H910 H 0.44534 0.59109 0.87496
 C911 C -0.01780 0.19945 0.31535
 C912 C -0.03380 0.17043 0.29168
 C913 C -0.04789 0.13508 0.30683
 C914 C -0.04589 0.12876 0.34671
 C915 C -0.02933 0.15815 0.37087
 C916 C -0.01510 0.19395 0.35490
 C917 C -0.02836 0.15074 0.41039
 N918 N -0.04315 0.11666 0.42445
 N919 N -0.05910 0.08940 0.40180
 C920 C -0.06109 0.09430 0.36350
 H921 H -0.00845 0.22680 0.30249
 H922 H -0.03584 0.17588 0.26132
 H923 H -0.01582 0.17140 0.43036
 H924 H -0.07482 0.07131 0.34670
 C925 C -0.00036 0.31586 0.36150
 C926 C 0.01254 0.35056 0.34465
 C927 C 0.04425 0.35139 0.32102
 C928 C 0.06296 0.31605 0.31354
 C929 C 0.04937 0.28033 0.33016
 C930 C 0.01772 0.28044 0.35514
 C931 C 0.06870 0.24595 0.32174
 N932 N 0.09974 0.24752 0.29921
 N933 N 0.11298 0.28112 0.28455
 C934 C 0.09580 0.31539 0.29105
 H935 H -0.02372 0.31767 0.38110
 H936 H -0.00177 0.37739 0.35104
 H937 H 0.05944 0.21770 0.33243
 H938 H 0.10827 0.34174 0.27878
 C939 C 0.53383 0.79831 0.80929
 C940 C 0.54703 0.82594 0.78285
 C941 C 0.54716 0.86608 0.79150
 C942 C 0.53507 0.87859 0.82816
 C943 C 0.52077 0.85062 0.85484
 C944 C 0.51947 0.80985 0.84497
 C945 C 0.50866 0.86482 0.89063
 N946 N 0.51152 0.90364 0.89925
 N947 N 0.52585 0.92957 0.87459
 C948 C 0.53787 0.91841 0.83950
 H949 H 0.53521 0.76759 0.80167
 H950 H 0.55750 0.81589 0.75544
 H951 H 0.49689 0.84593 0.91203
 H952 H 0.54992 0.94085 0.82114
 C953 C 0.64201 0.55001 0.18739
 C954 C 0.65402 0.56506 0.15278
 C955 C 0.67344 0.54226 0.12581
 C956 C 0.67773 0.50159 0.13427
 C957 C 0.66664 0.48672 0.17075
 C958 C 0.64899 0.51154 0.19773
 C959 C 0.67309 0.44714 0.17866
 N960 N 0.68650 0.42326 0.15099
 N961 N 0.69372 0.43619 0.11587
 C962 C 0.68931 0.47420 0.10644
 H963 H 0.62703 0.56944 0.20603
 H964 H 0.65002 0.59608 0.14883
 H965 H 0.66767 0.43481 0.20649
 H966 H 0.69378 0.48221 0.07694
 C967 C 0.20149 1.03213 0.71263
 C968 C 0.22203 1.04630 0.68130
 C969 C 0.20487 1.05097 0.64594
 C970 C 0.16633 1.04109 0.64180
 C971 C 0.14522 1.02680 0.67357
 C972 C 0.16306 1.02237 0.70969
 C973 C 0.10674 1.01800 0.66772
 N974 N 0.09100 1.02321 0.63310
 N975 N 0.11090 1.03685 0.60356
 C976 C 0.14792 1.04607 0.60672
 H977 H 0.21593 1.02976 0.73940
 H978 H 0.25142 1.05443 0.68485
 H979 H 0.08861 1.00709 0.68990
 H980 H 0.16247 1.05734 0.58174
 C981 C 0.19405 0.97846 0.80147
 C982 C 0.21018 0.96530 0.83500
 C983 C 0.19068 0.96596 0.87031
 C984 C 0.15594 0.98557 0.87110
 C985 C 0.13758 0.99415 0.83648
 C986 C 0.15730 0.99151 0.80103
 C987 C 0.10022 1.00608 0.83922
 N988 N 0.08523 1.01559 0.87362
 N989 N 0.10484 1.01340 0.90564
 C990 C 0.13984 0.99935 0.90547
 H991 H 0.21034 0.97649 0.77558
 H992 H 0.23696 0.95172 0.83188
 H993 H 0.08262 1.00816 0.81466
 H994 H 0.15485 0.99900 0.93221
 C995 C 0.64375 0.46888 0.31812
 C996 C 0.66300 0.45429 0.34884
 C997 C 0.70156 0.44941 0.34658
 C998 C 0.72149 0.46081 0.31327
 C999 C 0.70204 0.47673 0.28196
 C1000 C 0.66225 0.47909 0.28392
 C1001 C 0.72361 0.49014 0.25067
 N1002 N 0.76128 0.48608 0.25006
 N1003 N 0.77912 0.46987 0.27885
 C1004 C 0.76052 0.45720 0.31051
 H1005 H 0.61364 0.47118 0.32092
 H1006 H 0.64751 0.44590 0.37441
 H1007 H 0.71160 0.50507 0.22732
 H1008 H 0.77641 0.44479 0.33337
 C1009 C 0.85084 0.49490 0.66573
 C1010 C 0.83480 0.48042 0.63231
 C1011 C 0.79710 0.46778 0.63139
 C1012 C 0.77405 0.47457 0.66392
 C1013 C 0.79010 0.49211 0.69743
 C1014 C 0.82958 0.49864 0.69931
 C1015 C 0.76606 0.50119 0.72786
 N1016 N 0.72913 0.49066 0.72619
 N1017 N 0.71461 0.47172 0.69600
 C1018 C 0.73581 0.46307 0.66494
 H1019 H 0.88089 0.50042 0.66575
 H1020 H 0.85275 0.47638 0.60756
 H1021 H 0.77592 0.51708 0.75266
 H1022 H 0.72244 0.44724 0.64162
 C1023 C 0.32929 -0.00411 0.19423
 C1024 C 0.30874 -0.01017 0.16084
 C1025 C 0.30495 -0.04756 0.14449
 C1026 C 0.32323 -0.07927 0.16117
 C1027 C 0.34543 -0.07300 0.19439
 C1028 C 0.34662 -0.03518 0.21254
 C1029 C 0.36643 -0.10470 0.20669
 N1030 N 0.36300 -0.14027 0.18918
 N1031 N 0.34053 -0.14650 0.15947
 C1032 C 0.32074 -0.11722 0.14470
 H1033 H 0.33089 0.02523 0.20645
 H1034 H 0.29554 0.01444 0.14777
 H1035 H 0.38703 -0.10181 0.22840
 H1036 H 0.30362 -0.12390 0.11995
 C1037 C 0.36387 0.01075 0.33188
 C1038 C 0.34859 0.03032 0.36286
 C1039 C 0.31128 0.04148 0.36273
 C1040 C 0.28849 0.03099 0.33082
 C1041 C 0.30352 0.00849 0.30010
 C1042 C 0.34240 0.00045 0.29964
 C1043 C 0.27871 -0.00516 0.27158
 N1044 N 0.24266 0.00613 0.27166
 N1045 N 0.22956 0.02991 0.29862
 C1046 C 0.25124 0.04281 0.32811
 H1047 H 0.39340 0.00450 0.33292
 H1048 H 0.36647 0.03747 0.38704
 H1049 H 0.28679 -0.02589 0.25013
 H1050 H 0.23910 0.06232 0.34893
 C1051 C 0.85461 0.54513 0.81330
 C1052 C 0.83979 0.55704 0.84807
 C1053 C 0.80924 0.53664 0.86429
 C1054 C 0.79536 0.50157 0.84676
 C1055 C 0.81094 0.48895 0.81142
 C1056 C 0.83892 0.51287 0.79301
 C1057 C 0.79731 0.45322 0.79567
 N1058 N 0.76956 0.43223 0.81367
 N1059 N 0.75463 0.44446 0.84650
 C1060 C 0.76653 0.47847 0.86363
 H1061 H 0.87822 0.56219 0.80219
 H1062 H 0.85136 0.58343 0.86172
 H1063 H 0.80797 0.44203 0.76906
 H1064 H 0.75377 0.48687 0.89050
 C1065 C 0.18550 0.64132 0.55372
 C1066 C 0.15189 0.65892 0.56170
 C1067 C 0.13875 0.68796 0.53801
 C1068 C 0.15867 0.69781 0.50424
 C1069 C 0.19305 0.67963 0.49581
 C1070 C 0.20776 0.65277 0.52225
 C1071 C 0.21170 0.68988 0.46163
 N1072 N 0.19703 0.71654 0.43798
 N1073 N 0.16494 0.73368 0.44612
 C1074 C 0.14530 0.72531 0.47851
 H1075 H 0.19398 0.61884 0.57301
 H1076 H 0.13636 0.65043 0.58722
 H1077 H 0.23807 0.67763 0.45377
 H1078 H 0.11929 0.73991 0.48372
 C1079 C 0.66675 0.12973 1.00443
 C1080 C 0.63489 0.14382 1.02204
 C1081 C 0.62986 0.18416 1.02610
 C1082 C 0.65689 0.21083 1.00996
 C1083 C 0.68857 0.19624 0.99012
 C1084 C 0.69492 0.15533 0.99012
 C1085 C 0.71209 0.22333 0.97068
 N1086 N 0.70654 0.26235 0.97411
 N1087 N 0.67872 0.27612 0.99529
 C1088 C 0.65376 0.25174 1.01340
 H1089 H 0.66999 0.09826 1.00336
 H1090 H 0.61430 0.12291 1.03350
 H1091 H 0.73397 0.21412 0.95178
 H1092 H 0.63185 0.26467 1.03024
 C1093 C 0.79536 0.15553 0.92207
 C1094 C 0.82756 0.17510 0.90924
 C1095 C 0.84806 0.20198 0.93263
 C1096 C 0.83264 0.21076 0.96960
 C1097 C 0.79981 0.18978 0.98295
 C1098 C 0.78099 0.16186 0.95875
 C1099 C 0.78609 0.19868 1.01973
 N1100 N 0.80244 0.22808 1.04070
 N1101 N 0.83133 0.24954 1.02727
 C1102 C 0.84649 0.24241 0.99238
 H1103 H 0.78302 0.13358 0.90316
 H1104 H 0.83796 0.16605 0.88147
 H1105 H 0.76179 0.18360 1.03169
 H1106 H 0.86832 0.26256 0.98239
 C1107 C 0.33196 0.63678 0.51688
 C1108 C 0.36656 0.65262 0.50561
 C1109 C 0.37014 0.69132 0.49294
 C1110 C 0.33909 0.71599 0.49636
 C1111 C 0.30402 0.70025 0.50985
 C1112 C 0.29973 0.65922 0.51633
 C1113 C 0.27482 0.72622 0.51546
 N1114 N 0.27943 0.76443 0.50554
 N1115 N 0.31146 0.77854 0.49057
 C1116 C 0.34138 0.75562 0.48548
 H1117 H 0.33001 0.60563 0.52270
 H1118 H 0.39013 0.63348 0.50366
 H1119 H 0.24877 0.71709 0.52853
 H1120 H 0.36660 0.76878 0.47326
 C1121 C 0.69002 0.84244 0.48555
 C1122 C 0.65809 0.82011 0.47656
 C1123 C 0.65926 0.78990 0.44945
 C1124 C 0.69408 0.78094 0.43223
 C1125 C 0.72685 0.80420 0.44103
 C1126 C 0.72481 0.83524 0.46834
 C1127 C 0.76023 0.79569 0.42157
 N1128 N 0.76102 0.76518 0.39644
 N1129 N 0.73063 0.74264 0.38924
 C1130 C 0.69725 0.74939 0.40634
 H1131 H 0.68636 0.86669 0.50509
 H1132 H 0.63168 0.82802 0.48948
 H1133 H 0.78581 0.81258 0.42626
 H1134 H 0.67360 0.72985 0.39976
 C1135 C 0.16622 0.33772 0.01212
 C1136 C 0.13343 0.32345 -0.00509
 C1137 C 0.13446 0.30523 -0.04096
 C1138 C 0.16932 0.30043 -0.05961
 C1139 C 0.20290 0.31479 -0.04207
 C1140 C 0.20123 0.33420 -0.00589
 C1141 C 0.23697 0.30897 -0.06150
 N1142 N 0.23707 0.29082 -0.09617
 N1143 N 0.20547 0.27797 -0.11280
 C1144 C 0.17162 0.28214 -0.09574
 H1145 H 0.16356 0.35308 0.03907
 H1146 H 0.10682 0.32774 0.00919
 H1147 H 0.26362 0.31786 -0.04932
 H1148 H 0.14688 0.27102 -0.11052
 C1149 C 0.31398 0.35262 0.04774
 C1150 C 0.34667 0.33570 0.05967
 C1151 C 0.35069 0.29512 0.05748
 C1152 C 0.32050 0.27096 0.04371
 C1153 C 0.28680 0.28819 0.03149
 C1154 C 0.28401 0.32990 0.03257
 C1155 C 0.25709 0.26259 0.02017
 N1156 N 0.26107 0.22320 0.02011
 N1157 N 0.29267 0.20731 0.03113
 C1158 C 0.32237 0.22978 0.04320
 H1159 H 0.31245 0.38427 0.04993
 H1160 H 0.36919 0.35458 0.07078
 H1161 H 0.23023 0.27281 0.01275
 H1162 H 0.34684 0.21507 0.05283
 C1163 C 0.81187 0.81021 0.50247
 C1164 C 0.84353 0.79405 0.51802
 C1165 C 0.87309 0.81823 0.53142
 C1166 C 0.87134 0.85940 0.52855
 C1167 C 0.83929 0.87603 0.51259
 C1168 C 0.80899 0.85098 0.49979
 C1169 C 0.83920 0.91726 0.50947
 N1170 N 0.86875 0.93973 0.52214
 N1171 N 0.89858 0.92395 0.53758
 C1172 C 0.90093 0.88460 0.54116
 H1173 H 0.78908 0.79058 0.49357
 H1174 H 0.84458 0.76246 0.52057
 H1175 H 0.81647 0.93209 0.49650
 H1176 H 0.92603 0.87339 0.55358
   
