data_POSCAR
  _audit_creation_date              2014-09-24
  _audit_creation_method            'ToBaCCo'
  _symmetry_space_group_name_H-M    'P1'
  _symmetry_Int_Tables_number       1
  _symmetry_cell_setting            triclinic
  loop_
  _symmetry_equiv_pos_as_xyz
 x,y,z
_cell_length_a 50.0668
_cell_length_b 27.5380
_cell_length_c 21.7260
_cell_angle_alpha 89.766600
_cell_angle_beta 89.873800
_cell_angle_gamma 90.058000
loop_
  _atom_site_label
  _atom_site_type_symbol
  _atom_site_fract_x
  _atom_site_fract_y
  _atom_site_fract_z
C1 C 0.79727 0.19922 0.44431
 C2 C 0.80932 0.18688 0.50008
 C3 C 0.79812 0.20030 0.55635
 C4 C 0.77400 0.22694 0.55760
 C5 C 0.76147 0.23970 0.50119
 C6 C 0.77313 0.22580 0.44419
 C7 C 0.76038 0.23888 0.38897
 C8 C 0.73659 0.26502 0.38959
 C9 C 0.72470 0.27912 0.44542
 C10 C 0.73724 0.26644 0.50177
 C11 C 0.76213 0.24121 0.61339
 C12 C 0.73834 0.26737 0.61392
 C13 C 0.72553 0.28034 0.55865
 C14 C 0.70128 0.30672 0.55845
 C15 C 0.68918 0.31891 0.50261
 C16 C 0.70054 0.30551 0.44650
 H17 H 0.76872 0.22891 0.34477
 H18 H 0.72756 0.27409 0.34579
 H19 H 0.77117 0.23217 0.65718
 H20 H 0.73003 0.27740 0.65813
 H21 H 0.82793 0.16660 0.49966
 H22 H 0.67049 0.33895 0.50270
 C23 C 0.20223 0.80884 0.55523
 C24 C 0.19025 0.82079 0.49921
 C25 C 0.20139 0.80611 0.44338
 C26 C 0.22533 0.77904 0.44293
 C27 C 0.23765 0.76649 0.49959
 C28 C 0.22608 0.78149 0.55609
 C29 C 0.23858 0.76859 0.61171
 C30 C 0.26197 0.74120 0.61188
 C31 C 0.27372 0.72576 0.55643
 C32 C 0.26147 0.73863 0.49974
 C33 C 0.23718 0.76405 0.38746
 C34 C 0.26063 0.73692 0.38756
 C35 C 0.27300 0.72368 0.44314
 C36 C 0.29664 0.69588 0.44382
 C37 C 0.30841 0.68317 0.49968
 C38 C 0.29740 0.69779 0.55572
 H39 H 0.23033 0.77956 0.65562
 H40 H 0.27079 0.73212 0.65590
 H41 H 0.22842 0.77322 0.34342
 H42 H 0.26895 0.72623 0.34364
 H43 H 0.17178 0.84144 0.49909
 H44 H 0.32663 0.66176 0.49933
 C45 C 0.20091 0.19394 -0.44181
 C46 C 0.18927 0.17979 -0.49729
 C47 C 0.20104 0.19149 -0.55386
 C48 C 0.22522 0.21812 -0.55559
 C49 C 0.23730 0.23257 -0.49949
 C50 C 0.22521 0.22021 -0.44230
 C51 C 0.23768 0.23460 -0.38729
 C52 C 0.26139 0.26102 -0.38834
 C53 C 0.27349 0.27416 -0.44438
 C54 C 0.26143 0.25974 -0.50054
 C55 C 0.23759 0.23085 -0.61166
 C56 C 0.26125 0.25753 -0.61268
 C57 C 0.27346 0.27248 -0.55769
 C58 C 0.29740 0.29985 -0.55791
 C59 C 0.30888 0.31402 -0.50225
 C60 C 0.29737 0.30139 -0.44593
 H61 H 0.22918 0.22548 -0.34285
 H62 H 0.27013 0.27124 -0.34473
 H63 H 0.22900 0.22031 -0.65532
 H64 H 0.26989 0.26650 -0.65702
 H65 H 0.17056 0.15972 -0.49647
 H66 H 0.32726 0.33502 -0.50258
 C67 C -0.29884 0.69416 -0.44432
 C68 C -0.31099 0.68221 -0.49997
 C69 C -0.29981 0.69603 -0.55627
 C70 C -0.27566 0.72263 -0.55762
 C71 C -0.26313 0.73521 -0.50126
 C72 C -0.27475 0.72096 -0.44425
 C73 C -0.26199 0.73390 -0.38902
 C74 C -0.23828 0.76040 -0.38968
 C75 C -0.22644 0.77480 -0.44554
 C76 C -0.23893 0.76208 -0.50190
 C77 C -0.26373 0.73697 -0.61350
 C78 C -0.23994 0.76317 -0.61414
 C79 C -0.22723 0.77612 -0.55891
 C80 C -0.20308 0.80272 -0.55878
 C81 C -0.19110 0.81504 -0.50305
 C82 C -0.20240 0.80158 -0.44683
 H83 H -0.27029 0.72362 -0.34478
 H84 H -0.22925 0.76949 -0.34597
 H85 H -0.27272 0.72795 -0.65728
 H86 H -0.23156 0.77329 -0.65836
 H87 H -0.32959 0.66176 -0.49941
 H88 H -0.17250 0.83540 -0.50331
 O89 O -0.03768 0.91768 0.11346
 O90 O -0.06717 0.96082 0.05373
 C91 C -0.06161 0.93051 0.09756
 O92 O 0.03688 1.08710 0.11270
 O93 O 0.06644 1.04257 0.05493
 C94 C 0.06083 1.07396 0.09718
 O95 O -0.03784 1.08284 0.11694
 O96 O -0.06721 1.04106 0.05578
 C97 C -0.06173 1.07016 0.10069
 O98 O 0.03686 0.91255 0.10765
 O99 O 0.06647 0.95923 0.05223
 C100 C 0.06085 0.92605 0.09261
 Zr101 Zr -0.00044 0.93877 0.07570
 O102 O 0.00035 0.92874 0.17221
 O103 O -0.00148 0.86287 0.06223
 Zr104 Zr -0.00051 1.06205 0.07971
 O105 O 0.00182 1.06311 0.17699
 O106 O -0.00345 1.13874 0.07720
 O107 O -0.02408 1.00010 0.08968
 O108 O 0.02249 1.00017 0.08954
 O109 O 0.03746 0.91710 -0.11047
 O110 O 0.06678 0.96175 -0.05224
 C111 C 0.06135 0.93026 -0.09450
 O112 O -0.03692 1.08646 -0.11318
 O113 O -0.06681 1.04308 -0.05441
 C114 C -0.06095 1.07350 -0.09801
 O115 O 0.03772 1.09115 -0.10590
 O116 O 0.06695 1.04485 -0.04939
 C117 C 0.06160 1.07776 -0.09021
 O118 O -0.03756 0.92133 -0.11531
 O119 O -0.06743 0.96338 -0.05517
 C120 C -0.06160 0.93399 -0.09967
 Zr121 Zr -0.00009 0.94211 -0.07836
 O122 O 0.00272 0.94082 -0.17557
 O123 O -0.00260 0.86535 -0.07596
 Zr124 Zr 0.00006 1.06545 -0.07456
 O125 O 0.00283 1.07402 -0.17111
 O126 O -0.00286 1.14176 -0.06468
 Zr127 Zr -0.04024 1.00199 0.00002
 Zr128 Zr 0.03965 1.00213 0.00098
 O129 O 0.02295 1.00401 -0.08788
 O130 O -0.02353 1.00400 -0.08920
 O131 O 0.02388 0.93115 -0.00131
 O132 O -0.02384 1.07236 0.00242
 O133 O -0.02391 0.93165 -0.00167
 O134 O 0.02393 1.07317 0.00312
 H135 H 0.03408 0.99936 0.12642
 H136 H -0.03632 1.10028 0.00289
 H137 H 0.03465 1.00479 -0.12469
 H138 H -0.03633 0.90363 -0.00236
 H139 H 0.01321 1.15144 0.05854
 H140 H 0.01465 1.15383 -0.05019
 H141 H -0.00515 1.04466 -0.18945
 H142 H -0.01071 0.96382 -0.19184
 H143 H 0.01329 0.85319 -0.05371
 H144 H -0.00251 0.84825 0.10390
 H145 H 0.00180 0.96137 0.19058
 H146 H -0.01142 1.03948 0.19291
 O147 O 0.53703 0.41855 -0.11474
 O148 O 0.56602 0.46180 -0.05422
 C149 C 0.56082 0.43189 -0.09841
 O150 O 0.46110 0.58661 -0.11030
 O151 O 0.43160 0.54002 -0.05445
 C152 C 0.43718 0.57264 -0.09562
 O153 O 0.53587 0.58300 -0.11588
 O154 O 0.56546 0.54171 -0.05443
 C155 C 0.55983 0.57083 -0.09942
 O156 O 0.46224 0.41277 -0.11103
 O157 O 0.43224 0.45741 -0.05464
 C158 C 0.43817 0.42560 -0.09613
 Zr159 Zr 0.49943 0.43883 -0.07812
 O160 O 0.49726 0.43517 -0.17525
 O161 O 0.50273 0.36225 -0.07268
 Zr162 Zr 0.49863 0.56222 -0.07745
 O163 O 0.49639 0.56945 -0.17419
 O164 O 0.50121 0.63871 -0.06939
 O165 O 0.52263 0.50110 -0.08968
 O166 O 0.47619 0.50006 -0.08993
 O167 O 0.46140 0.41133 0.10755
 O168 O 0.43184 0.45644 0.05043
 C169 C 0.43744 0.42411 0.09189
 O170 O 0.53470 0.58267 0.11559
 O171 O 0.56492 0.54146 0.05577
 C172 C 0.55881 0.57061 0.10021
 O173 O 0.46006 0.58574 0.10773
 O174 O 0.43118 0.53972 0.05010
 C175 C 0.43630 0.57189 0.09174
 O176 O 0.53605 0.41754 0.11433
 O177 O 0.56554 0.46147 0.05517
 C178 C 0.55997 0.43114 0.09897
 Zr179 Zr 0.49875 0.43792 0.07615
 O180 O 0.49559 0.43268 0.17309
 O181 O 0.50217 0.36144 0.06976
 Zr182 Zr 0.49786 0.56125 0.07661
 O183 O 0.49450 0.56515 0.17354
 O184 O 0.50051 0.63792 0.07139
 Zr185 Zr 0.53870 0.50104 0.00006
 Zr186 Zr 0.45877 0.49906 -0.00157
 O187 O 0.47531 0.49897 0.08750
 O188 O 0.52183 0.50008 0.08917
 O189 O 0.47498 0.42841 -0.00148
 O190 O 0.52186 0.57103 0.00005
 O191 O 0.52274 0.43030 -0.00055
 O192 O 0.47401 0.57054 -0.00092
 H193 H 0.46486 0.50000 -0.12724
 H194 H 0.53422 0.59916 0.00029
 H195 H 0.46355 0.49852 0.12424
 H196 H 0.53534 0.40256 -0.00036
 H197 H 0.48358 0.65063 -0.05544
 H198 H 0.48363 0.65002 0.05336
 H199 H 0.50570 0.53889 0.19074
 H200 H 0.50746 0.45774 0.19065
 H201 H 0.48523 0.34884 0.05270
 H202 H 0.48575 0.34954 -0.05564
 H203 H 0.50957 0.46010 -0.19189
 H204 H 0.50538 0.54078 -0.19183
 C205 C 0.37954 0.37287 0.20739
 C206 C 0.35491 0.35187 0.18977
 C207 C 0.33628 0.33674 0.23559
 C208 C 0.34246 0.34256 0.29869
 C209 C 0.36700 0.36408 0.31626
 C210 C 0.38561 0.37909 0.27054
 C211 C 0.41013 0.40002 0.28939
 C212 C 0.41607 0.40593 0.35151
 C213 C 0.39778 0.39167 0.39620
 C214 C 0.37353 0.37096 0.37907
 C215 C 0.31177 0.31602 0.21693
 C216 C 0.30582 0.31027 0.15472
 C217 C 0.32408 0.32484 0.10995
 C218 C 0.34838 0.34548 0.12702
 C219 C 0.32417 0.32579 0.34627
 C220 C 0.31066 0.31291 0.38943
 C221 C 0.39876 0.38885 0.16136
 C222 C 0.41585 0.40386 0.12702
 H223 H 0.42502 0.41195 0.25648
 H224 H 0.43492 0.42189 0.36501
 H225 H 0.40241 0.39658 0.44442
 H226 H 0.36005 0.36041 0.41567
 H227 H 0.29698 0.30416 0.25015
 H228 H 0.28696 0.29439 0.14118
 H229 H 0.31941 0.32012 0.06172
 H230 H 0.36197 0.35631 0.09064
 C231 C -0.12093 0.88164 0.21092
 C232 C -0.11821 0.89547 0.27331
 C233 C -0.13740 0.88000 0.31740
 C234 C -0.15898 0.85007 0.29910
 C235 C -0.16197 0.83691 0.23660
 C236 C -0.14287 0.85280 0.19229
 C237 C -0.14615 0.83904 0.13012
 C238 C -0.16775 0.81047 0.11215
 C239 C -0.18644 0.79500 0.15547
 C240 C -0.18367 0.80793 0.21710
 C241 C -0.13437 0.89472 0.37944
 C242 C -0.11276 0.92310 0.39752
 C243 C -0.09371 0.93739 0.35460
 C244 C -0.09641 0.92427 0.29310
 C245 C -0.17702 0.83134 0.34584
 C246 C -0.19021 0.81709 0.38872
 C247 C -0.10086 0.89715 0.16673
 C248 C -0.08332 0.91151 0.13327
 H249 H -0.13210 0.85023 0.09487
 H250 H -0.16999 0.80028 0.06436
 H251 H -0.20319 0.77287 0.14124
 H252 H -0.19871 0.79521 0.24919
 H253 H -0.14862 0.88456 0.41468
 H254 H -0.11075 0.93391 0.44511
 H255 H -0.07671 0.95871 0.36903
 H256 H -0.08114 0.93678 0.26149
 C257 C 0.61731 0.61914 0.21499
 C258 C 0.61592 0.60176 0.27634
 C259 C 0.63494 0.61761 0.32029
 C260 C 0.65511 0.65107 0.30280
 C261 C 0.65684 0.66768 0.24121
 C262 C 0.63786 0.65163 0.19710
 C263 C 0.63986 0.66884 0.13583
 C264 C 0.66008 0.70101 0.11858
 C265 C 0.67864 0.71668 0.16172
 C266 C 0.67712 0.70033 0.22245
 C267 C 0.63323 0.59946 0.38130
 C268 C 0.61334 0.56666 0.39834
 C269 C 0.59475 0.55114 0.35533
 C270 C 0.59592 0.56834 0.29500
 C271 C 0.67321 0.66926 0.34939
 C272 C 0.68671 0.68275 0.39187
 C273 C 0.59738 0.60354 0.17095
 C274 C 0.58011 0.58931 0.13701
 H275 H 0.62588 0.65763 0.10073
 H276 H 0.66132 0.71385 0.07150
 H277 H 0.69430 0.74165 0.14806
 H278 H 0.69200 0.71341 0.25441
 H279 H 0.64727 0.61019 0.41648
 H280 H 0.61236 0.55326 0.44520
 H281 H 0.57932 0.52563 0.36876
 H282 H 0.58105 0.55497 0.26323
 C283 C 0.12132 1.11804 0.20928
 C284 C 0.12650 1.08728 0.26028
 C285 C 0.14536 1.10154 0.30550
 C286 C 0.15859 1.14684 0.30003
 C287 C 0.15414 1.17673 0.24788
 C288 C 0.13556 1.16210 0.20214
 C289 C 0.13141 1.19246 0.15038
 C290 C 0.14517 1.23620 0.14405
 C291 C 0.16320 1.25072 0.18898
 C292 C 0.16771 1.22146 0.24045
 C293 C 0.15030 1.07008 0.35591
 C294 C 0.13692 1.02589 0.36160
 C295 C 0.11828 1.01216 0.31770
 C296 C 0.11300 1.04238 0.26760
 C297 C 0.17524 1.16381 0.35020
 C298 C 0.18793 1.17718 0.39412
 C299 C 0.10049 1.10501 0.16607
 C300 C 0.08257 1.09232 0.13289
 H301 H 0.11759 1.18263 0.11426
 H302 H 0.14181 1.25896 0.10407
 H303 H 0.17378 1.28480 0.18390
 H304 H 0.18199 1.23413 0.27410
 H305 H 0.16465 1.07913 0.39124
 H306 H 0.14106 1.00216 0.40024
 H307 H 0.10802 0.97769 0.32213
 H308 H 0.09852 1.02982 0.23437
 C309 C 0.62218 0.37921 -0.20289
 C310 C 0.64297 0.41046 -0.22280
 C311 C 0.66154 0.39432 -0.26788
 C312 C 0.65940 0.34681 -0.29207
 C313 C 0.63972 0.31452 -0.26900
 C314 C 0.62098 0.33084 -0.22446
 C315 C 0.60115 0.29821 -0.20297
 C316 C 0.59996 0.25072 -0.22465
 C317 C 0.61835 0.23469 -0.26804
 C318 C 0.63802 0.26608 -0.29019
 C319 C 0.68175 0.42657 -0.28826
 C320 C 0.68375 0.47329 -0.26422
 C321 C 0.66581 0.48884 -0.21955
 C322 C 0.64552 0.45802 -0.19912
 C323 C 0.67592 0.33225 -0.34380
 C324 C 0.68843 0.32016 -0.38871
 C325 C 0.60106 0.39759 -0.16353
 C326 C 0.58290 0.41299 -0.13280
 H327 H 0.58649 0.30895 -0.16899
 H328 H 0.58470 0.22621 -0.20759
 H329 H 0.61738 0.19772 -0.28463
 H330 H 0.65195 0.25188 -0.32374
 H331 H 0.69629 0.41590 -0.32254
 H332 H 0.69934 0.49752 -0.28024
 H333 H 0.66747 0.52514 -0.20100
 H334 H 0.63191 0.47183 -0.16461
 C335 C 0.12216 0.88518 -0.20536
 C336 C 0.13628 0.84112 -0.19767
 C337 C 0.15508 0.82630 -0.24298
 C338 C 0.15976 0.85589 -0.29534
 C339 C 0.14666 0.90120 -0.30133
 C340 C 0.12761 0.91569 -0.25652
 C341 C 0.11417 0.96052 -0.26448
 C342 C 0.11970 0.99047 -0.31478
 C343 C 0.13858 0.97655 -0.35820
 C344 C 0.15189 0.93241 -0.35191
 C345 C 0.16861 0.78166 -0.23498
 C346 C 0.16383 0.75262 -0.18341
 C347 C 0.14553 0.76722 -0.13897
 C348 C 0.13181 0.81092 -0.14584
 C349 C 0.17631 0.83839 -0.34545
 C350 C 0.18882 0.82449 -0.38943
 C351 C 0.10121 0.89855 -0.16248
 C352 C 0.08321 0.91159 -0.12963
 H353 H 0.09949 0.97322 -0.23167
 H354 H 0.10945 1.02485 -0.31975
 H355 H 0.14295 1.00008 -0.39697
 H356 H 0.16642 0.92318 -0.38690
 H357 H 0.18309 0.76892 -0.26826
 H358 H 0.17441 0.71862 -0.17787
 H359 H 0.14192 0.74457 -0.09897
 H360 H 0.11776 0.82081 -0.11011
 C361 C 0.37948 0.62285 -0.21164
 C362 C 0.35487 0.64376 -0.19362
 C363 C 0.33636 0.65944 -0.23914
 C364 C 0.34264 0.65423 -0.30231
 C365 C 0.36715 0.63283 -0.32033
 C366 C 0.38563 0.61717 -0.27491
 C367 C 0.41011 0.59629 -0.29418
 C368 C 0.41614 0.59112 -0.35644
 C369 C 0.39801 0.60615 -0.40084
 C370 C 0.37380 0.62681 -0.38329
 C371 C 0.31189 0.68018 -0.22013
 C372 C 0.30587 0.68543 -0.15785
 C373 C 0.32402 0.67034 -0.11334
 C374 C 0.34827 0.64966 -0.13077
 C375 C 0.32440 0.67137 -0.34948
 C376 C 0.31083 0.68453 -0.39219
 C377 C 0.39865 0.60679 -0.16585
 C378 C 0.41567 0.59213 -0.13134
 H379 H 0.42489 0.58384 -0.26151
 H380 H 0.43498 0.57524 -0.37030
 H381 H 0.40273 0.60193 -0.44918
 H382 H 0.36045 0.63805 -0.41969
 H383 H 0.29721 0.69251 -0.25314
 H384 H 0.28705 0.70136 -0.14405
 H385 H 0.31930 0.67471 -0.06504
 H386 H 0.36177 0.63843 -0.09458
 C387 C -0.11872 1.12448 -0.21352
 C388 C -0.14351 1.14421 -0.19466
 C389 C -0.16219 1.16036 -0.23956
 C390 C -0.15588 1.15688 -0.30292
 C391 C -0.13108 1.13700 -0.32173
 C392 C -0.11246 1.12081 -0.27693
 C393 C -0.08775 1.10128 -0.29693
 C394 C -0.08162 1.09793 -0.35932
 C395 C -0.09982 1.11373 -0.40314
 C396 C -0.12430 1.13294 -0.38488
 C397 C -0.18688 1.17974 -0.21972
 C398 C -0.19292 1.18331 -0.15723
 C399 C -0.17461 1.16773 -0.11334
 C400 C -0.15016 1.14832 -0.13160
 C401 C -0.17444 1.17397 -0.34947
 C402 C -0.18824 1.18707 -0.39181
 C403 C -0.09945 1.10763 -0.16843
 C404 C -0.08237 1.09264 -0.13431
 H405 H -0.07287 1.08849 -0.26472
 H406 H -0.06261 1.08305 -0.37372
 H407 H -0.09494 1.11120 -0.45156
 H408 H -0.13775 1.14457 -0.42087
 H409 H -0.20173 1.19225 -0.25223
 H410 H -0.21190 1.19825 -0.14279
 H411 H -0.17938 1.17068 -0.06487
 H412 H -0.13654 1.13663 -0.09587
 C413 C 0.62089 0.61548 -0.21086
 C414 C 0.62527 0.58739 -0.26440
 C415 C 0.64472 0.60233 -0.30822
 C416 C 0.65928 0.64578 -0.29886
 C417 C 0.65575 0.67267 -0.24411
 C418 C 0.63655 0.65736 -0.19980
 C419 C 0.63326 0.68489 -0.14549
 C420 C 0.64853 0.72642 -0.13525
 C421 C 0.66726 0.74147 -0.17869
 C422 C 0.67089 0.71507 -0.23266
 C423 C 0.64895 0.57342 -0.36112
 C424 C 0.63432 0.53103 -0.37050
 C425 C 0.61509 0.51667 -0.32794
 C426 C 0.61047 0.54446 -0.27554
 C427 C 0.67610 0.66446 -0.34798
 C428 C 0.68862 0.67908 -0.39171
 C429 C 0.59971 0.60176 -0.16856
 C430 C 0.58163 0.58879 -0.13570
 H431 H 0.61895 0.67453 -0.11040
 H432 H 0.64579 0.74705 -0.09340
 H433 H 0.67906 0.77376 -0.17052
 H434 H 0.68576 0.72801 -0.26505
 H435 H 0.66372 0.58303 -0.39552
 H436 H 0.63793 0.50922 -0.41100
 H437 H 0.60380 0.48368 -0.33534
 H438 H 0.59545 0.53149 -0.24355
 C439 C 0.12252 1.13145 -0.19586
 C440 C 0.12086 1.17866 -0.22153
 C441 C 0.13919 1.19330 -0.26811
 C442 C 0.15882 1.16037 -0.28936
 C443 C 0.16140 1.11411 -0.26133
 C444 C 0.14332 1.09975 -0.21408
 C445 C 0.14628 1.05335 -0.18673
 C446 C 0.16647 1.02193 -0.20572
 C447 C 0.18393 1.03574 -0.25244
 C448 C 0.18153 1.08129 -0.28007
 C449 C 0.13709 1.24066 -0.29317
 C450 C 0.11733 1.27252 -0.27308
 C451 C 0.09925 1.25803 -0.22793
 C452 C 0.10091 1.21168 -0.20226
 C453 C 0.17502 1.17280 -0.34274
 C454 C 0.18759 1.18278 -0.38853
 C455 C 0.10159 1.11406 -0.15492
 C456 C 0.08357 1.09843 -0.12370
 H457 H 0.13307 1.04090 -0.15046
 H458 H 0.16837 0.98646 -0.18452
 H459 H 0.19941 1.01102 -0.26742
 H460 H 0.19569 1.09057 -0.31596
 H461 H 0.15075 1.25361 -0.32826
 H462 H 0.11601 1.30863 -0.29269
 H463 H 0.08388 1.28284 -0.21261
 H464 H 0.08650 1.20212 -0.16702
 C465 C 0.37894 0.37925 -0.21014
 C466 C 0.37913 0.40111 -0.26928
 C467 C 0.36041 0.38603 -0.31437
 C468 C 0.34166 0.34908 -0.30012
 C469 C 0.34081 0.32857 -0.24029
 C470 C 0.35952 0.34377 -0.19510
 C471 C 0.35839 0.32273 -0.13565
 C472 C 0.33925 0.28771 -0.12115
 C473 C 0.32097 0.27281 -0.16535
 C474 C 0.32169 0.29281 -0.22439
 C475 C 0.36109 0.40826 -0.37330
 C476 C 0.37974 0.44427 -0.38725
 C477 C 0.39810 0.45888 -0.34320
 C478 C 0.39787 0.43778 -0.28483
 C479 C 0.32430 0.33095 -0.34828
 C480 C 0.31122 0.31683 -0.39116
 C481 C 0.39918 0.39297 -0.16577
 C482 C 0.41671 0.40637 -0.13196
 H483 H 0.37218 0.33328 -0.09979
 H484 H 0.33860 0.27208 -0.07536
 H485 H 0.30614 0.24564 -0.15383
 H486 H 0.30706 0.28020 -0.25724
 H487 H 0.34720 0.39823 -0.40915
 H488 H 0.37997 0.46086 -0.43251
 H489 H 0.41266 0.48661 -0.35433
 H490 H 0.41254 0.45059 -0.25216
 C491 C -0.11927 0.88295 -0.21539
 C492 C -0.11325 0.88716 -0.27894
 C493 C -0.13163 0.86966 -0.32339
 C494 C -0.15599 0.84813 -0.30412
 C495 C -0.16209 0.84420 -0.24065
 C496 C -0.14365 0.86161 -0.19612
 C497 C -0.15008 0.85699 -0.13294
 C498 C -0.17408 0.83580 -0.11424
 C499 C -0.19214 0.81894 -0.15778
 C500 C -0.18631 0.82298 -0.22036
 C501 C -0.12503 0.87400 -0.38665
 C502 C -0.10098 0.89486 -0.40538
 C503 C -0.08303 0.91202 -0.36194
 C504 C -0.08900 0.90838 -0.29943
 C505 C -0.17437 0.82993 -0.35027
 C506 C -0.18813 0.81607 -0.39217
 C507 C -0.10004 0.90024 -0.17050
 C508 C -0.08303 0.91525 -0.13625
 H509 H -0.13666 0.86963 -0.09746
 H510 H -0.17867 0.83243 -0.06569
 H511 H -0.21076 0.80258 -0.14300
 H512 H -0.20092 0.80930 -0.25259
 H513 H -0.13827 0.86123 -0.42235
 H514 H -0.09622 0.89759 -0.45388
 H515 H -0.06435 0.92813 -0.37672
 H516 H -0.07433 0.92227 -0.26750
 C517 C 0.37630 0.61683 0.20482
 C518 C 0.35688 0.65240 0.19055
 C519 C 0.33850 0.66771 0.23653
 C520 C 0.33966 0.64722 0.29631
 C521 C 0.35831 0.61004 0.30973
 C522 C 0.37669 0.59481 0.26386
 C523 C 0.39532 0.55784 0.27855
 C524 C 0.39574 0.53659 0.33682
 C525 C 0.37773 0.55140 0.38167
 C526 C 0.35922 0.58772 0.36859
 C527 C 0.31937 0.70355 0.22147
 C528 C 0.31828 0.72346 0.16243
 C529 C 0.33622 0.70842 0.11743
 C530 C 0.35541 0.67339 0.13114
 C531 C 0.32274 0.66561 0.34521
 C532 C 0.31003 0.68002 0.38859
 C533 C 0.39652 0.60348 0.16011
 C534 C 0.41430 0.59044 0.12660
 H535 H 0.40971 0.54486 0.24528
 H536 H 0.41017 0.50856 0.34724
 H537 H 0.37812 0.53469 0.42685
 H538 H 0.34559 0.59788 0.40503
 H539 H 0.30497 0.71625 0.25495
 H540 H 0.30340 0.75065 0.15154
 H541 H 0.33524 0.72392 0.07162
 H542 H 0.36894 0.66273 0.09470
 C543 C -0.12082 1.11865 0.21476
 C544 C -0.14295 1.14688 0.19565
 C545 C -0.16189 1.16333 0.23983
 C546 C -0.15856 1.15142 0.30278
 C547 C -0.13673 1.12226 0.32166
 C548 C -0.11772 1.10616 0.27765
 C549 C -0.09572 1.07808 0.29799
 C550 C -0.09263 1.06622 0.35994
 C551 C -0.11148 1.08116 0.40281
 C552 C -0.13328 1.10888 0.38420
 C553 C -0.18379 1.19157 0.21973
 C554 C -0.18691 1.20330 0.15767
 C555 C -0.16837 1.18732 0.11450
 C556 C -0.14658 1.15945 0.13304
 C557 C -0.17664 1.17041 0.34922
 C558 C -0.18988 1.18481 0.39186
 C559 C -0.10091 1.10269 0.17054
 C560 C -0.08346 1.08842 0.13683
 H561 H -0.08060 1.06514 0.26644
 H562 H -0.07552 1.04533 0.37477
 H563 H -0.10916 1.07132 0.45076
 H564 H -0.14734 1.11957 0.41943
 H565 H -0.19873 1.20465 0.25167
 H566 H -0.20381 1.22488 0.14299
 H567 H -0.17088 1.19653 0.06637
 H568 H -0.13265 1.14786 0.09788
 C569 C 0.62141 0.38016 0.20438
 C570 C 0.62422 0.32985 0.21611
 C571 C 0.64262 0.31346 0.26134
 C572 C 0.65807 0.34754 0.29444
 C573 C 0.65671 0.39753 0.27937
 C574 C 0.63838 0.41390 0.23398
 C575 C 0.63744 0.46401 0.21943
 C576 C 0.65436 0.49690 0.24847
 C577 C 0.67202 0.48102 0.29349
 C578 C 0.67322 0.43194 0.30908
 C579 C 0.64492 0.26302 0.27275
 C580 C 0.62962 0.22968 0.24000
 C581 C 0.61165 0.24572 0.19568
 C582 C 0.60882 0.29522 0.18383
 C583 C 0.67406 0.33169 0.34637
 C584 C 0.68654 0.31933 0.39113
 C585 C 0.60004 0.39741 0.16495
 C586 C 0.58183 0.41226 0.13402
 H587 H 0.62395 0.47814 0.18486
 H588 H 0.65390 0.53487 0.23575
 H589 H 0.68500 0.50681 0.31614
 H590 H 0.68746 0.42119 0.34395
 H591 H 0.65873 0.24885 0.30660
 H592 H 0.63176 0.19119 0.24896
 H593 H 0.59986 0.21968 0.17025
 H594 H 0.59469 0.30599 0.14872
 C595 C 0.12145 0.87164 0.19790
 C596 C 0.14220 0.90332 0.21646
 C597 C 0.16037 0.88852 0.26307
 C598 C 0.15794 0.84186 0.29008
 C599 C 0.13835 0.80900 0.26848
 C600 C 0.11993 0.82405 0.22254
 C601 C 0.10009 0.79100 0.20278
 C602 C 0.09864 0.74424 0.22734
 C603 C 0.11681 0.72938 0.27189
 C604 C 0.13645 0.76127 0.29249
 C605 C 0.18048 0.92127 0.28215
 C606 C 0.18281 0.96715 0.25538
 C607 C 0.16527 0.98140 0.20923
 C608 C 0.14508 0.95008 0.18999
 C609 C 0.17434 0.82881 0.34264
 C610 C 0.18712 0.81836 0.38775
 C611 C 0.10054 0.88927 0.15734
 C612 C 0.08262 0.90513 0.12623
 H613 H 0.08563 0.80083 0.16795
 H614 H 0.08338 0.71936 0.21161
 H615 H 0.11567 0.69296 0.29064
 H616 H 0.15019 0.74803 0.32708
 H617 H 0.19470 0.91165 0.31761
 H618 H 0.19829 0.99177 0.27056
 H619 H 0.16712 1.01712 0.18869
 H620 H 0.13180 0.96289 0.15419
   
