data_POSCAR
  _audit_creation_date              2014-09-24
  _audit_creation_method            'ToBaCCo'
  _symmetry_space_group_name_H-M    'P1'
  _symmetry_Int_Tables_number       1
  _symmetry_cell_setting            triclinic
  loop_
  _symmetry_equiv_pos_as_xyz
 x,y,z
_cell_length_a 32.4647
_cell_length_b 32.7385
_cell_length_c 22.3865
_cell_angle_alpha 88.061200
_cell_angle_beta 88.930600
_cell_angle_gamma 90.353100
loop_
  _atom_site_label
  _atom_site_type_symbol
  _atom_site_fract_x
  _atom_site_fract_y
  _atom_site_fract_z
C1 C 1.27458 0.20077 0.27112
 C2 C 1.24226 0.22274 0.24424
 C3 C 1.20857 0.20165 0.22118
 C4 C 1.20695 0.15887 0.22451
 C5 C 1.23938 0.13744 0.25128
 C6 C 1.27329 0.15772 0.27527
 C7 C 1.24290 0.26795 0.24157
 C8 C 1.27798 0.28952 0.22035
 C9 C 1.27837 0.33275 0.21664
 C10 C 1.24289 0.35361 0.23576
 C11 C 1.20789 0.33213 0.25789
 C12 C 1.20796 0.28946 0.25967
 H13 H 1.30004 0.21764 0.28891
 H14 H 1.18366 0.21883 0.20132
 H15 H 1.30383 0.27190 0.20490
 H16 H 1.18099 0.27287 0.27679
 H17 H 1.23784 0.10430 0.25402
 H18 H 1.24228 0.38672 0.23287
 C19 C 0.77404 -0.28998 0.29247
 C20 C 0.74128 -0.26724 0.26866
 C21 C 0.70695 -0.28785 0.24706
 C22 C 0.70541 -0.33057 0.24775
 C23 C 0.73805 -0.35306 0.27266
 C24 C 0.77263 -0.33301 0.29607
 C25 C 0.74274 -0.22190 0.26654
 C26 C 0.77883 -0.20101 0.24691
 C27 C 0.78009 -0.15809 0.24429
 C28 C 0.74514 -0.13638 0.26204
 C29 C 0.70889 -0.15647 0.28174
 C30 C 0.70783 -0.19942 0.28370
 H31 H 0.80021 -0.27388 0.31009
 H32 H 0.68179 -0.27055 0.22782
 H33 H 0.80564 -0.21825 0.23377
 H34 H 0.68013 -0.21559 0.29844
 H35 H 0.73587 -0.38595 0.27342
 H36 H 0.74612 -0.10323 0.26026
 C37 C 0.77948 0.19744 -0.24184
 C38 C 0.74554 0.21971 -0.26313
 C39 C 0.70998 0.19871 -0.28030
 C40 C 0.70792 0.15595 -0.27579
 C41 C 0.74215 0.13431 -0.25456
 C42 C 0.77810 0.15458 -0.23765
 C43 C 0.74694 0.26498 -0.26693
 C44 C 0.78318 0.28574 -0.28513
 C45 C 0.78479 0.32864 -0.28971
 C46 C 0.74912 0.35086 -0.27384
 C47 C 0.71274 0.33017 -0.25505
 C48 C 0.71188 0.28753 -0.25235
 H49 H 0.80667 0.21372 -0.22855
 H50 H 0.68407 0.21591 -0.29689
 H51 H 0.81000 0.26825 -0.29790
 H52 H 0.68402 0.27191 -0.23659
 H53 H 0.74078 0.10120 -0.25114
 H54 H 0.74912 0.38386 -0.27526
 C55 C 1.27611 -0.30479 -0.18496
 C56 C 1.24551 -0.28277 -0.21559
 C57 C 1.21152 -0.30393 -0.23736
 C58 C 1.20711 -0.34606 -0.22659
 C59 C 1.23699 -0.36757 -0.19437
 C60 C 1.27236 -0.34734 -0.17380
 C61 C 1.24765 -0.23747 -0.22199
 C62 C 1.28498 -0.21715 -0.23763
 C63 C 1.28658 -0.17422 -0.24145
 C64 C 1.25083 -0.15194 -0.22995
 C65 C 1.21348 -0.17145 -0.21477
 C66 C 1.21202 -0.21430 -0.21079
 H67 H 1.30237 -0.28843 -0.16814
 H68 H 1.18808 -0.28756 -0.26217
 H69 H 1.31258 -0.23460 -0.24611
 H70 H 1.18335 -0.22976 -0.19880
 H71 H 1.23268 -0.40016 -0.18811
 H72 H 1.25213 -0.11881 -0.23283
 C73 C 0.20281 0.29866 0.73920
 C74 C 0.22453 0.26312 0.75547
 C75 C 0.20281 0.22813 0.77688
 C76 C 0.15942 0.22823 0.78269
 C77 C 0.13851 0.26436 0.76649
 C78 C 0.15958 0.29935 0.74380
 C79 C 0.27007 0.26200 0.74895
 C80 C 0.29477 0.29279 0.77261
 C81 C 0.33816 0.29114 0.76739
 C82 C 0.35600 0.25862 0.73653
 C83 C 0.33166 0.22799 0.71195
 C84 C 0.28880 0.22965 0.71931
 H85 H 0.21980 0.32538 0.72275
 H86 H 0.22049 0.20161 0.79008
 H87 H 0.27968 0.31723 0.79555
 H88 H 0.26980 0.20602 0.70083
 H89 H 0.10516 0.26510 0.77036
 H90 H 0.38925 0.25652 0.73327
 C91 C 0.69535 0.77881 0.71418
 C92 C 0.71986 0.74635 0.73476
 C93 C 0.70116 0.70956 0.75507
 C94 C 0.65811 0.70465 0.75349
 C95 C 0.63424 0.73725 0.73103
 C96 C 0.65215 0.77494 0.71312
 C97 C 0.76523 0.75109 0.73478
 C98 C 0.78308 0.78714 0.75498
 C99 C 0.82589 0.79183 0.75622
 C100 C 0.85108 0.76041 0.73524
 C101 C 0.83379 0.72445 0.71365
 C102 C 0.79072 0.71981 0.71432
 H103 H 0.71069 0.80623 0.69700
 H104 H 0.72059 0.68509 0.77133
 H105 H 0.76359 0.81121 0.77151
 H106 H 0.77671 0.69214 0.69894
 H107 H 0.60099 0.73379 0.72970
 H108 H 0.88426 0.76422 0.73444
 C109 C 0.71787 0.28504 0.24089
 C110 C 0.74161 0.25147 0.25995
 C111 C 0.72170 0.21543 0.28129
 C112 C 0.67867 0.21278 0.28465
 C113 C 0.65538 0.24645 0.26474
 C114 C 0.67460 0.28255 0.24253
 C115 C 0.78724 0.25370 0.25815
 C116 C 0.80816 0.28814 0.27880
 C117 C 0.85151 0.28890 0.28042
 C118 C 0.87352 0.25462 0.26144
 C119 C 0.85307 0.22073 0.23933
 C120 C 0.81002 0.22051 0.23744
 H121 H 0.73326 0.31277 0.22479
 H122 H 0.73981 0.18964 0.29690
 H123 H 0.79049 0.31377 0.29404
 H124 H 0.79422 0.19409 0.22071
 H125 H 0.62208 0.24438 0.26491
 H126 H 0.90688 0.25448 0.26296
 C127 C 0.22300 0.78758 0.21415
 C128 C 0.24297 0.75207 0.23496
 C129 C 0.21946 0.71849 0.25687
 C130 C 0.17613 0.72008 0.25764
 C131 C 0.15686 0.75591 0.23599
 C132 C 0.17990 0.79011 0.21415
 C133 C 0.28859 0.75043 0.23345
 C134 C 0.31156 0.78451 0.25019
 C135 C 0.35456 0.78445 0.24615
 C136 C 0.37492 0.74987 0.22612
 C137 C 0.35268 0.71476 0.21121
 C138 C 0.30934 0.71538 0.21454
 H139 H 0.24132 0.81318 0.19644
 H140 H 0.23537 0.69157 0.27308
 H141 H 0.29601 0.81130 0.26636
 H142 H 0.29157 0.68898 0.20253
 H143 H 0.12364 0.75684 0.23796
 H144 H 0.40831 0.74996 0.22378
 O145 O 1.06338 -0.05741 0.11123
 O146 O 1.02661 -0.10279 0.05665
 C147 C 1.05197 -0.09424 0.09838
 O148 O 0.91842 0.05848 0.08814
 O149 O 0.95976 0.10236 0.03137
 C150 C 0.92968 0.09482 0.06899
 O151 O 0.91977 -0.05525 0.10205
 O152 O 0.95790 -0.10215 0.05140
 C153 C 0.92953 -0.09251 0.09005
 O154 O 1.06944 0.05672 0.09536
 O155 O 1.03389 0.10209 0.03553
 C156 C 1.06114 0.09348 0.07591
 Zr157 Zr 1.04592 -0.00022 0.07137
 O158 O 1.04335 0.00484 0.16536
 O159 O 1.11100 -0.00251 0.06923
 Zr160 Zr 0.94262 0.00084 0.06572
 O161 O 0.94530 0.00324 0.15978
 O162 O 0.87740 0.00279 0.06813
 O163 O 0.99311 -0.03612 0.08337
 O164 O 0.99437 0.03659 0.07606
 O165 O 1.07731 0.05444 -0.11151
 O166 O 1.03588 0.10044 -0.06445
 C167 C 1.06636 0.09151 -0.09976
 O168 O 0.93001 -0.06093 -0.11498
 O169 O 0.96497 -0.10460 -0.05194
 C170 C 0.94036 -0.09732 -0.09574
 O171 O 0.92511 0.05319 -0.11785
 O172 O 0.96202 0.10035 -0.06690
 C173 C 0.93390 0.09044 -0.10454
 O174 O 1.07173 -0.05971 -0.10749
 O175 O 1.03316 -0.10422 -0.04762
 C176 C 1.06132 -0.09631 -0.08841
 Zr177 Zr 1.05228 -0.00218 -0.07836
 O178 O 1.06224 -0.00315 -0.17195
 O179 O 1.11633 -0.00326 -0.06318
 Zr180 Zr 0.94862 -0.00270 -0.08521
 O181 O 0.95388 -0.00003 -0.17967
 O182 O 0.88371 -0.00682 -0.09010
 Zr183 Zr 0.99632 -0.06204 -0.00143
 Zr184 Zr 0.99772 0.06040 -0.01236
 O185 O 1.00102 0.03326 -0.09610
 O186 O 1.00067 -0.03901 -0.09046
 O187 O 1.05729 0.03546 -0.00617
 O188 O 0.93737 -0.03636 -0.00708
 O189 O 1.05610 -0.03720 -0.00007
 O190 O 0.93782 0.03524 -0.01357
 H191 H 0.99340 0.05583 0.10928
 H192 H 0.91325 -0.05498 -0.00771
 H193 H 1.00218 0.05149 -0.13233
 H194 H 1.07988 -0.05593 0.00316
 H195 H 0.86707 -0.01670 0.03907
 H196 H 0.87217 0.01119 -0.05944
 H197 H 0.97106 -0.02337 -0.19165
 H198 H 1.03648 0.00595 -0.19087
 H199 H 1.12979 -0.00538 -0.10303
 H200 H 1.11964 -0.00250 0.11146
 H201 H 1.02146 -0.01408 0.18080
 H202 H 0.91636 0.00433 0.17446
 O203 O 1.06041 0.58203 0.60175
 O204 O 1.10668 0.54575 0.54612
 C205 C 1.09768 0.57179 0.58652
 O206 O 0.94061 0.43959 0.59855
 O207 O 0.89849 0.48028 0.54110
 C208 C 0.90447 0.45208 0.58169
 O209 O 1.05596 0.43939 0.60717
 O210 O 1.10464 0.47531 0.55084
 C211 C 1.09387 0.44835 0.59233
 O212 O 0.94619 0.58875 0.58951
 O213 O 0.90079 0.55144 0.53542
 C214 C 0.90930 0.57987 0.57259
 Zr215 Zr 1.00345 0.56404 0.56521
 O216 O 0.99691 0.56595 0.65930
 O217 O 1.00728 0.62840 0.55528
 Zr218 Zr 1.00037 0.46121 0.57109
 O219 O 0.99686 0.46684 0.66479
 O220 O 0.99655 0.39663 0.57940
 O221 O 1.03850 0.51189 0.58137
 O222 O 0.96551 0.51338 0.57737
 O223 O 0.95122 0.58705 0.38135
 O224 O 0.90348 0.54832 0.43522
 C225 C 0.91354 0.57652 0.39542
 O226 O 1.06503 0.44149 0.38935
 O227 O 1.10903 0.47799 0.44670
 C228 C 1.10171 0.45213 0.40573
 O229 O 0.95020 0.43655 0.39246
 O230 O 0.90257 0.47516 0.44172
 C231 C 0.91259 0.44584 0.40645
 O232 O 1.06611 0.58139 0.38142
 O233 O 1.10994 0.54530 0.44248
 C234 C 1.10269 0.57168 0.39930
 Zr235 Zr 1.00744 0.56401 0.41523
 O236 O 1.01017 0.57008 0.32086
 O237 O 1.00924 0.62815 0.42303
 Zr238 Zr 1.00627 0.46100 0.42018
 O239 O 1.00494 0.46183 0.32562
 O240 O 1.00954 0.39643 0.42293
 Zr241 Zr 1.06593 0.51158 0.49534
 Zr242 Zr 0.94270 0.51323 0.48997
 O243 O 0.97116 0.51261 0.40495
 O244 O 1.04382 0.51217 0.40733
 O245 O 0.96869 0.57239 0.48834
 O246 O 1.03900 0.45299 0.49753
 O247 O 1.04179 0.57099 0.49110
 O248 O 0.96662 0.45351 0.49435
 H249 H 0.94594 0.51425 0.61181
 H250 H 1.05732 0.42891 0.49851
 H251 H 0.95338 0.51211 0.36949
 H252 H 1.06098 0.59467 0.49058
 H253 H 1.01786 0.38512 0.55284
 H254 H 0.99044 0.38641 0.45523
 H255 H 1.02830 0.47907 0.31053
 H256 H 1.00011 0.54410 0.30514
 H257 H 1.01241 0.63973 0.38174
 H258 H 1.00674 0.63889 0.59630
 H259 H 1.01345 0.54328 0.67636
 H260 H 0.99441 0.43863 0.68200
 O261 O 0.56249 -0.05648 0.61992
 O262 O 0.52725 -0.10220 0.56421
 C263 C 0.55386 -0.09333 0.60428
 O264 O 0.41101 0.05165 0.61657
 O265 O 0.44908 0.09938 0.56175
 C266 C 0.42054 0.08913 0.60086
 O267 O 0.41915 -0.06250 0.62275
 O268 O 0.45705 -0.10546 0.56463
 C269 C 0.43002 -0.09869 0.60653
 O270 O 0.56242 0.05671 0.61262
 O271 O 0.52299 0.10226 0.55899
 C272 C 0.55216 0.09354 0.59636
 Zr273 Zr 0.54043 0.00009 0.58570
 O274 O 0.54105 0.00166 0.68011
 O275 O 0.60546 0.00131 0.57805
 Zr276 Zr 0.43710 -0.00402 0.58837
 O277 O 0.44164 -0.00362 0.68239
 O278 O 0.37223 -0.01076 0.59347
 O279 O 0.48999 -0.03889 0.59907
 O280 O 0.48748 0.03382 0.59757
 O281 O 0.56220 0.06224 0.40498
 O282 O 0.52049 0.10427 0.45919
 C283 C 0.54973 0.09814 0.42045
 O284 O 0.42028 -0.05949 0.40449
 O285 O 0.45816 -0.10374 0.46287
 C286 C 0.43144 -0.09598 0.42196
 O287 O 0.41148 0.05429 0.40934
 O288 O 0.44794 0.10100 0.46172
 C289 C 0.41967 0.09141 0.42419
 O290 O 0.56308 -0.05198 0.40122
 O291 O 0.52839 -0.10024 0.45992
 C292 C 0.55507 -0.08958 0.41821
 Zr293 Zr 0.54137 0.00335 0.43560
 O294 O 0.54745 0.00547 0.34128
 O295 O 0.60598 0.00539 0.44527
 Zr296 Zr 0.43773 -0.00177 0.43704
 O297 O 0.43950 0.00400 0.34253
 O298 O 0.37294 -0.00922 0.43620
 Zr299 Zr 0.49126 -0.06175 0.51227
 Zr300 Zr 0.48651 0.06073 0.51101
 O301 O 0.48799 0.03676 0.42497
 O302 O 0.49108 -0.03554 0.42485
 O303 O 0.54735 0.03866 0.51022
 O304 O 0.43096 -0.03850 0.51332
 O305 O 0.54973 -0.03382 0.51075
 O306 O 0.42767 0.03304 0.51239
 H307 H 0.48700 0.05174 0.63237
 H308 H 0.40709 -0.05753 0.51397
 H309 H 0.48707 0.05605 0.38997
 H310 H 0.57471 -0.05106 0.51056
 H311 H 0.36054 0.00961 0.56505
 H312 H 0.36099 0.01057 0.46395
 H313 H 0.45741 -0.01795 0.32764
 H314 H 0.52120 0.01571 0.32518
 H315 H 0.61793 0.00547 0.40422
 H316 H 0.61583 0.00043 0.61944
 H317 H 0.51969 -0.01784 0.69558
 H318 H 0.41302 -0.00540 0.69847
 O319 O 0.56562 0.55859 0.11497
 O320 O 0.61099 0.52457 0.05476
 C321 C 0.60268 0.54884 0.09783
 O322 O 0.45004 0.41209 0.10413
 O323 O 0.40423 0.45384 0.05518
 C324 C 0.41288 0.42326 0.09097
 O325 O 0.56471 0.41692 0.10717
 O326 O 0.61088 0.45661 0.05175
 C327 C 0.60196 0.42788 0.09148
 O328 O 0.45086 0.56353 0.11055
 O329 O 0.40441 0.52746 0.05663
 C330 C 0.41364 0.55519 0.09459
 Zr331 Zr 0.50772 0.54070 0.08122
 O332 O 0.50376 0.53771 0.17574
 O333 O 0.51003 0.60529 0.07788
 Zr334 Zr 0.50741 0.43833 0.07711
 O335 O 0.50583 0.44104 0.17128
 O336 O 0.50777 0.37369 0.08285
 O337 O 0.54450 0.48914 0.08984
 O338 O 0.47111 0.48879 0.09100
 O339 O 0.44949 0.57134 -0.09520
 O340 O 0.40414 0.52905 -0.04269
 C341 C 0.41250 0.55948 -0.07969
 O342 O 0.56675 0.42840 -0.11090
 O343 O 0.61140 0.46325 -0.05247
 C344 C 0.60364 0.43939 -0.09569
 O345 O 0.45100 0.42108 -0.10108
 O346 O 0.40455 0.45669 -0.04475
 C347 C 0.41368 0.42971 -0.08409
 O348 O 0.56386 0.56759 -0.10529
 O349 O 0.61043 0.53095 -0.04979
 C350 C 0.60118 0.55806 -0.09103
 Zr351 Zr 0.50701 0.54741 -0.06871
 O352 O 0.50290 0.55566 -0.16252
 O353 O 0.50872 0.61111 -0.05634
 Zr354 Zr 0.50819 0.44456 -0.07411
 O355 O 0.50314 0.44896 -0.16829
 O356 O 0.51316 0.38023 -0.07728
 Zr357 Zr 0.56913 0.49316 0.00210
 Zr358 Zr 0.44568 0.49190 0.00531
 O359 O 0.47161 0.49592 -0.08156
 O360 O 0.54426 0.49705 -0.08427
 O361 O 0.47048 0.55142 0.00761
 O362 O 0.54367 0.43407 0.00024
 O363 O 0.54362 0.55185 0.00541
 O364 O 0.47127 0.43291 0.00196
 H365 H 0.45213 0.48743 0.12622
 H366 H 0.56266 0.41060 -0.00198
 H367 H 0.45305 0.49718 -0.11621
 H368 H 0.56240 0.57581 0.00602
 H369 H 0.51974 0.36411 0.04496
 H370 H 0.49194 0.36827 -0.04944
 H371 H 0.52678 0.46540 -0.18426
 H372 H 0.51960 0.53398 -0.18055
 H373 H 0.50958 0.62414 -0.09694
 H374 H 0.51074 0.61376 0.11994
 H375 H 0.52321 0.51642 0.18955
 H376 H 0.50521 0.41232 0.18672
 C377 C 1.17173 0.13478 0.20299
 C378 C 1.14310 0.14827 0.16475
 C379 C 1.11226 0.11886 0.14445
 C380 C 1.08569 0.12700 0.10050
 H381 H 1.14360 0.17922 0.14626
 H382 H 1.11310 0.08826 0.16448
 H383 H 1.17035 0.10292 0.21802
 H384 H 1.08399 0.15746 0.08026
 C385 C 1.17117 0.63213 0.75074
 C386 C 1.16536 0.62996 0.69213
 C387 C 1.12997 0.60788 0.66848
 C388 C 1.13251 0.59216 0.61434
 H389 H 1.18783 0.64374 0.66098
 H390 H 1.10211 0.60404 0.69560
 H391 H 1.15082 0.61577 0.78228
 H392 H 1.16153 0.59378 0.58953
 C393 C 0.67071 0.13236 0.70866
 C394 C 0.63907 0.14671 0.67651
 C395 C 0.60627 0.11804 0.66058
 C396 C 0.57724 0.12689 0.62030
 H397 H 0.63839 0.17785 0.65894
 H398 H 0.60809 0.08721 0.67961
 H399 H 0.67022 0.10032 0.72281
 H400 H 0.57460 0.15759 0.60119
 C401 C 0.66891 0.64928 0.22279
 C402 C 0.67115 0.61428 0.19387
 C403 C 0.63445 0.59678 0.16634
 C404 C 0.63810 0.56627 0.12847
 H405 H 0.70056 0.59933 0.18793
 H406 H 0.60448 0.60977 0.17575
 H407 H 0.63977 0.66526 0.22461
 H408 H 0.66841 0.55444 0.11797
 C409 C 0.81694 -0.13409 0.22421
 C410 C 0.84666 -0.14708 0.18720
 C411 C 0.87766 -0.11731 0.16358
 C412 C 0.90510 -0.12568 0.12031
 H413 H 0.84630 -0.17780 0.17083
 H414 H 0.87597 -0.08644 0.17954
 H415 H 0.81787 -0.10243 0.23709
 H416 H 0.90762 -0.15646 0.10435
 C417 C 0.82206 0.34694 0.68953
 C418 C 0.82663 0.38617 0.67183
 C419 C 0.86621 0.40134 0.64607
 C420 C 0.86697 0.43499 0.61088
 H421 H 0.80083 0.40688 0.67175
 H422 H 0.89419 0.38419 0.65375
 H423 H 0.84862 0.32730 0.68414
 H424 H 0.83826 0.45056 0.60161
 C425 C 0.32466 -0.15058 0.74447
 C426 C 0.35329 -0.16094 0.70407
 C427 C 0.38364 -0.12963 0.68311
 C428 C 0.40833 -0.13421 0.63531
 H429 H 0.35146 -0.18989 0.68219
 H430 H 0.38295 -0.10030 0.70425
 H431 H 0.32641 -0.12036 0.76280
 H432 H 0.40995 -0.16346 0.61417
 C433 C 0.31208 0.35603 0.19319
 C434 C 0.34911 0.34078 0.17817
 C435 C 0.38333 0.36593 0.15212
 C436 C 0.37795 0.40001 0.11828
 H437 H 0.35653 0.30919 0.18761
 H438 H 0.41411 0.35417 0.15842
 H439 H 0.30792 0.38877 0.18807
 H440 H 0.34720 0.41063 0.10856
 C441 C 0.81325 0.12937 -0.21702
 C442 C 0.84637 0.14309 -0.18857
 C443 C 0.87727 0.11343 -0.16760
 C444 C 0.90852 0.12306 -0.13218
 H445 H 0.84992 0.17491 -0.17814
 H446 H 0.87265 0.08184 -0.17911
 H447 H 0.81092 0.09681 -0.22413
 H448 H 0.91336 0.15443 -0.11991
 C449 C 0.80580 0.64615 0.32318
 C450 C 0.80644 0.60584 0.33713
 C451 C 0.84090 0.58548 0.36820
 C452 C 0.88028 0.59805 0.36354
 H453 H 0.77988 0.58666 0.33060
 H454 H 0.83331 0.55775 0.39395
 H455 H 0.83190 0.66443 0.33612
 H456 H 0.88870 0.62406 0.33462
 C457 C 0.30385 0.13337 0.30241
 C458 C 0.33651 0.14647 0.33267
 C459 C 0.36436 0.11564 0.35926
 C460 C 0.39474 0.12448 0.39660
 H461 H 0.34231 0.17850 0.33952
 H462 H 0.35884 0.08401 0.34876
 H463 H 0.29997 0.10050 0.29978
 H464 H 0.40052 0.15585 0.40811
 C465 C 0.30452 0.63221 -0.14370
 C466 C 0.30364 0.59262 -0.12530
 C467 C 0.33863 0.57168 -0.09641
 C468 C 0.37815 0.58225 -0.10675
 H469 H 0.27608 0.57431 -0.12832
 H470 H 0.33129 0.54484 -0.06852
 H471 H 0.33166 0.65007 -0.13400
 H472 H 0.38594 0.60758 -0.13730
 C473 C 1.17720 -0.14535 -0.20391
 C474 C 1.14455 -0.15610 -0.16935
 C475 C 1.11423 -0.12462 -0.15416
 C476 C 1.08474 -0.13088 -0.11223
 H477 H 1.14200 -0.18630 -0.14835
 H478 H 1.11842 -0.09433 -0.17458
 H479 H 1.17918 -0.11409 -0.22152
 H480 H 1.08021 -0.16104 -0.09160
 C481 C 1.17065 0.35320 0.27946
 C482 C 1.17256 0.38740 0.31012
 C483 C 1.13510 0.40498 0.33654
 C484 C 1.13791 0.43419 0.37646
 H485 H 1.20217 0.40127 0.31877
 H486 H 1.10521 0.39312 0.32461
 H487 H 1.14110 0.33812 0.27479
 H488 H 1.16806 0.44509 0.38893
 C489 C 0.67332 -0.13078 0.29883
 C490 C 0.64058 -0.14340 0.33201
 C491 C 0.61022 -0.11299 0.35144
 C492 C 0.57972 -0.12210 0.39086
 H493 H 0.63742 -0.17482 0.34807
 H494 H 0.61483 -0.08151 0.33597
 H495 H 0.67546 -0.09857 0.28593
 H496 H 0.57508 -0.15341 0.40697
 C497 C 0.67500 0.35172 -0.23658
 C498 C 0.67597 0.38372 -0.20136
 C499 C 0.63779 0.39915 -0.17378
 C500 C 0.63990 0.42446 -0.12850
 H501 H 0.70536 0.39631 -0.18856
 H502 H 0.60816 0.38833 -0.18853
 H503 H 0.64555 0.33754 -0.24545
 H504 H 0.66990 0.43437 -0.11382
 C505 C 1.13579 0.19420 -0.19556
 C506 C 1.15056 0.15655 -0.18299
 C507 C 1.12487 0.12188 -0.15889
 C508 C 1.08970 0.12635 -0.12739
 H509 H 1.18231 0.14922 -0.19248
 H510 H 1.13716 0.09151 -0.16427
 H511 H 1.10295 0.19876 -0.19002
 H512 H 1.07844 0.15660 -0.11833
 C513 C 1.15062 0.68763 0.27906
 C514 C 1.16279 0.65296 0.30714
 C515 C 1.13091 0.62376 0.32921
 C516 C 1.13778 0.59402 0.37035
 H517 H 1.19467 0.64688 0.31699
 H518 H 1.09975 0.62900 0.31423
 H519 H 1.11767 0.69166 0.27394
 H520 H 1.16862 0.58870 0.38643
 C521 C 0.65906 0.17424 0.30803
 C522 C 0.62199 0.17304 0.33521
 C523 C 0.60386 0.13443 0.35962
 C524 C 0.56915 0.13499 0.39264
 H525 H 0.60516 0.20106 0.34165
 H526 H 0.61926 0.10578 0.35165
 H527 H 0.67656 0.14624 0.30535
 H528 H 0.55484 0.16408 0.40145
 C529 C 0.63731 0.66899 -0.22581
 C530 C 0.65366 0.63786 -0.19379
 C531 C 0.62574 0.60557 -0.16985
 C532 C 0.63458 0.58126 -0.12256
 H533 H 0.68551 0.63761 -0.18061
 H534 H 0.59503 0.60459 -0.18808
 H535 H 0.60439 0.66768 -0.23350
 H536 H 0.66516 0.58133 -0.10399
 C537 C 0.84330 -0.17004 -0.22071
 C538 C 0.87830 -0.16941 -0.19031
 C539 C 0.89355 -0.13161 -0.16428
 C540 C 0.92382 -0.13337 -0.12477
 H541 H 0.89503 -0.19751 -0.18197
 H542 H 0.87941 -0.10263 -0.17628
 H543 H 0.82533 -0.14232 -0.22512
 H544 H 0.93664 -0.16283 -0.11194
 C545 C 0.87563 0.32449 0.30035
 C546 C 0.86068 0.35700 0.32853
 C547 C 0.88998 0.38848 0.34749
 C548 C 0.87982 0.41974 0.38217
 H549 H 0.82829 0.35980 0.33960
 H550 H 0.92200 0.38444 0.33451
 H551 H 0.90866 0.32319 0.29230
 H552 H 0.84804 0.42434 0.39578
 C553 C 0.37826 -0.17979 0.26449
 C554 C 0.37523 -0.16737 0.32048
 C555 C 0.39847 -0.13192 0.34061
 C556 C 0.41090 -0.13134 0.39697
 H557 H 0.35617 -0.18459 0.35287
 H558 H 0.40568 -0.10668 0.30950
 H559 H 0.39987 -0.16514 0.23298
 H560 H 0.40635 -0.15823 0.42606
 C561 C 0.36506 0.31986 -0.20789
 C562 C 0.35436 0.35126 -0.17372
 C563 C 0.38710 0.37710 -0.14933
 C564 C 0.37957 0.40672 -0.11071
 H565 H 0.32264 0.35753 -0.16203
 H566 H 0.41869 0.37069 -0.16231
 H567 H 0.39779 0.31560 -0.21623
 H568 H 0.34817 0.41320 -0.09700
 C569 C 1.16190 -0.17332 0.19201
 C570 C 1.12148 -0.16787 0.18353
 C571 C 1.10568 -0.12964 0.15627
 C572 C 1.06832 -0.12937 0.13242
 H573 H 1.09936 -0.19209 0.19279
 H574 H 1.12528 -0.10271 0.15232
 H575 H 1.18235 -0.14810 0.17887
 H576 H 1.05024 -0.15737 0.13324
 C577 C 1.13465 0.33533 0.72508
 C578 C 1.14742 0.36565 0.68715
 C579 C 1.11729 0.39587 0.66485
 C580 C 1.12657 0.42433 0.62211
 H581 H 1.17854 0.36657 0.66904
 H582 H 1.08573 0.39277 0.68119
 H583 H 1.10266 0.33519 0.74002
 H584 H 1.15804 0.42781 0.60565
 C585 C 0.62604 -0.19307 0.69429
 C586 C 0.63805 -0.15394 0.68529
 C587 C 0.61054 -0.12110 0.66392
 C588 C 0.57695 -0.12744 0.63146
 H589 H 0.66870 -0.14408 0.69622
 H590 H 0.62064 -0.09012 0.67140
 H591 H 0.59375 -0.20043 0.68917
 H592 H 0.56798 -0.15806 0.62008
 C593 C 0.64788 0.31660 0.22211
 C594 C 0.65956 0.34727 0.18422
 C595 C 0.62822 0.37605 0.16203
 C596 C 0.63600 0.40467 0.11902
 H597 H 0.69077 0.34968 0.16660
 H598 H 0.59699 0.37197 0.17938
 H599 H 0.61576 0.31479 0.23634
 H600 H 0.66710 0.40936 0.10162
 C601 C 0.87685 0.18505 0.22009
 C602 C 0.87195 0.16956 0.16622
 C603 C 0.89562 0.13388 0.14727
 C604 C 0.90644 0.13007 0.08993
 H605 H 0.85119 0.18423 0.13486
 H606 H 0.90532 0.11129 0.18056
 H607 H 0.90025 0.17275 0.24942
 H608 H 0.89989 0.15456 0.05775
 C609 C 0.86200 0.69254 0.69191
 C610 C 0.85115 0.66213 0.65658
 C611 C 0.88293 0.63398 0.63532
 C612 C 0.87530 0.60456 0.59670
 H613 H 0.81995 0.65882 0.64128
 H614 H 0.91406 0.63853 0.65066
 H615 H 0.89411 0.69531 0.70385
 H616 H 0.84430 0.59964 0.58117
 C617 C 0.35019 0.19306 0.68056
 C618 C 0.38669 0.19565 0.65139
 C619 C 0.40657 0.16159 0.62014
 C620 C 0.39765 0.12186 0.63061
 H621 H 0.40274 0.22470 0.64768
 H622 H 0.43145 0.17009 0.58918
 H623 H 0.33221 0.16516 0.67953
 H624 H 0.37415 0.11267 0.66330
 C625 C 0.37646 0.67816 0.19481
 C626 C 0.36131 0.64474 0.16962
 C627 C 0.39013 0.61208 0.15386
 C628 C 0.38053 0.58109 0.11880
 H629 H 0.32923 0.64214 0.15811
 H630 H 0.42160 0.61544 0.16844
 H631 H 0.40930 0.67937 0.20294
 H632 H 0.34934 0.57740 0.10338
   
