data_POSCAR
  _audit_creation_date              2014-09-24
  _audit_creation_method            'ToBaCCo'
  _symmetry_space_group_name_H-M    'P1'
  _symmetry_Int_Tables_number       1
  _symmetry_cell_setting            triclinic
  loop_
  _symmetry_equiv_pos_as_xyz
 x,y,z
_cell_length_a 28.7419
_cell_length_b 29.5983
_cell_length_c 27.4730
_cell_angle_alpha 91.248800
_cell_angle_beta 89.899600
_cell_angle_gamma 92.149500
loop_
  _atom_site_label
  _atom_site_type_symbol
  _atom_site_fract_x
  _atom_site_fract_y
  _atom_site_fract_z
C1 C 0.28396 0.44554 0.99292
 C2 C 0.25151 0.44379 1.03729
 C3 C 0.22462 0.48075 1.04206
 C4 C 0.23255 0.51601 1.00213
 C5 C 0.25200 0.45191 0.94928
 C6 C 0.22503 0.48874 0.95411
 C7 C 0.31195 0.49014 0.99877
 C8 C 0.28532 0.52691 1.00368
 H9 H 0.24924 0.41558 1.06194
 H10 H 0.21081 0.54616 1.00597
 H11 H 0.24947 0.42843 0.91836
 H12 H 0.34980 0.49244 0.99965
 C13 C 0.71881 0.55539 0.00759
 C14 C 0.74987 0.54937 0.05210
 C15 C 0.77663 0.51225 0.04836
 C16 C 0.76985 0.48452 0.00058
 C17 C 0.75210 0.55644 -0.03606
 C18 C 0.77884 0.51931 -0.03963
 C19 C 0.69069 0.51090 0.00181
 C20 C 0.71711 0.47395 -0.00188
 H21 H 0.75234 0.57347 0.08248
 H22 H 0.79141 0.45419 -0.00243
 H23 H 0.75496 0.58428 -0.06116
 H24 H 0.65283 0.50870 0.00134
 C25 C 0.05208 0.21367 0.50310
 C26 C 0.04896 0.24080 0.45980
 C27 C 0.00826 0.26739 0.45891
 C28 C -0.02194 0.26171 0.50132
 C29 C 0.04920 0.24730 0.54629
 C30 C 0.01036 0.27265 0.54526
 C31 C 0.00658 0.18540 0.50487
 C32 C -0.03220 0.21023 0.50394
 H33 H 0.07690 0.24431 0.43327
 H34 H -0.05382 0.28187 0.50072
 H35 H 0.07676 0.25286 0.57301
 H36 H 0.00511 0.14864 0.50568
 C37 C 0.94506 0.78694 0.49578
 C38 C 0.94817 0.75322 0.45274
 C39 C 0.98725 0.72823 0.45368
 C40 C 1.01971 0.73950 0.49722
 C41 C 0.94882 0.75819 0.54131
 C42 C 0.98784 0.73317 0.54193
 C43 C 0.99031 0.81543 0.49426
 C44 C 1.02925 0.79097 0.49498
 H45 H 0.92059 0.74738 0.42610
 H46 H 1.05172 0.71960 0.49784
 H47 H 0.92129 0.75486 0.56830
 H48 H 0.99149 0.85215 0.49274
 C49 C 0.50034 0.05551 0.20440
 C50 C 0.45804 0.05472 0.23855
 C51 C 0.45669 0.01856 0.26861
 C52 C 0.49752 -0.01324 0.26185
 C53 C 0.54269 0.05439 0.23822
 C54 C 0.54108 0.01826 0.26832
 C55 C 0.49844 0.01220 0.17870
 C56 C 0.49683 -0.02541 0.21029
 H57 H 0.43222 0.08063 0.23956
 H58 H 0.49628 -0.04263 0.28642
 H59 H 0.57064 0.08016 0.23910
 H60 H 0.49900 0.00846 0.13923
 C61 C 0.49721 -0.05769 0.79353
 C62 C 0.45444 -0.05667 0.76050
 C63 C 0.45540 -0.02071 0.73031
 C64 C 0.49886 0.01088 0.73561
 C65 C 0.53913 -0.05652 0.75899
 C66 C 0.53988 -0.02053 0.72879
 C67 C 0.49929 -0.01179 0.82031
 C68 C 0.50017 0.02398 0.78995
 H69 H 0.42657 -0.08252 0.76014
 H70 H 0.49951 0.04017 0.71093
 H71 H 0.56563 -0.08176 0.75838
 H72 H 0.50069 -0.00789 0.85972
 C73 C 0.32311 0.03409 0.44698
 H74 H 0.32337 0.05852 0.47686
 C75 C 0.35659 0.03764 0.41044
 H76 H 0.38260 0.06509 0.41184
 C77 C 0.28959 -0.03233 0.40933
 H78 H 0.26406 -0.06004 0.40970
 C79 C 0.32259 -0.03003 0.37194
 H80 H 0.32207 -0.05563 0.34314
 N81 N 0.29037 -0.00030 0.44567
 C82 C 0.18230 0.05288 0.53984
 H83 H 0.18005 0.02729 0.56735
 C84 C 0.15296 0.08947 0.54218
 H85 H 0.12785 0.09198 0.57148
 C86 C 0.21627 0.07998 0.46682
 H87 H 0.24014 0.07567 0.43685
 C88 C 0.18752 0.11706 0.46778
 H89 H 0.18950 0.14114 0.43865
 Zn90 Zn 0.25009 -0.00308 0.49974
 N91 N 0.21324 0.04883 0.50259
 C92 C 0.29053 0.02693 0.59042
 N93 N 0.28937 -0.00537 0.55436
 C94 C 0.31983 -0.03945 0.55347
 C95 C 0.35305 -0.04225 0.59000
 C96 C 0.32336 0.02540 0.62780
 C97 C 0.17947 -0.05926 0.45828
 C98 C 0.14724 -0.09571 0.45530
 C99 C 0.17822 -0.12374 0.53008
 C100 C 0.21001 -0.08679 0.53161
 N101 N 0.20996 -0.05538 0.49608
 H102 H 0.26682 0.05437 0.58971
 H103 H 0.31864 -0.06410 0.52378
 H104 H 0.37734 -0.06938 0.58883
 H105 H 0.32450 0.05131 0.65627
 H106 H 0.17963 -0.03346 0.43098
 H107 H 0.12223 -0.09779 0.42580
 H108 H 0.17747 -0.14774 0.55930
 H109 H 0.23369 -0.08261 0.56199
 C110 C 0.15548 0.12176 0.50571
 C111 C 0.35640 0.00524 0.37272
 C112 C 0.14636 -0.12807 0.49171
 C113 C 0.35498 -0.00943 0.62731
 C114 C 0.67669 0.03545 0.55908
 H115 H 0.67672 0.06268 0.53344
 C116 C 0.64330 0.03336 0.59603
 H117 H 0.61772 0.05923 0.59923
 C118 C 0.70836 -0.03295 0.58482
 H119 H 0.73273 -0.05949 0.57944
 C120 C 0.67562 -0.03630 0.62225
 H121 H 0.67532 -0.06508 0.64597
 N122 N 0.70822 0.00249 0.55408
 C123 C 0.81837 0.06014 0.46236
 H124 H 0.81858 0.03434 0.43386
 C125 C 0.85045 0.09667 0.46127
 H126 H 0.87577 0.09876 0.43207
 C127 C 0.78662 0.08774 0.53650
 H128 H 0.76230 0.08362 0.56624
 C129 C 0.81838 0.12481 0.53692
 H130 H 0.81861 0.14897 0.56711
 Zn131 Zn 0.74722 0.00384 0.49872
 N132 N 0.78729 0.05629 0.49957
 C133 C 0.70874 0.03862 0.41280
 N134 N 0.70717 0.00378 0.44436
 C135 C 0.67402 -0.03016 0.44049
 C136 C 0.64063 -0.02994 0.40366
 C137 C 0.67605 0.04011 0.37545
 C138 C 0.81649 -0.05088 0.53303
 C139 C 0.84568 -0.08749 0.53386
 C140 C 0.80959 -0.11660 0.45965
 C141 C 0.78091 -0.07941 0.46024
 N142 N 0.78470 -0.04761 0.49677
 H143 H 0.73443 0.06594 0.41728
 H144 H 0.67300 -0.05690 0.46675
 H145 H 0.61393 -0.05671 0.40121
 H146 H 0.67704 0.06830 0.35090
 H147 H 0.81917 -0.02485 0.56125
 H148 H 0.87120 -0.08952 0.56264
 H149 H 0.80687 -0.14145 0.43016
 H150 H 0.75613 -0.07577 0.43121
 C151 C 0.85071 0.12917 0.49900
 C152 C 0.64254 -0.00311 0.62755
 C153 C 0.84223 -0.12066 0.49687
 C154 C 0.64155 0.00571 0.37110
 C155 C 0.47290 0.18687 1.03245
 H156 H 0.44737 0.18541 1.00351
 C157 C 0.47012 0.15554 1.06951
 H158 H 0.44237 0.12973 1.06927
 C159 C 0.54135 0.22133 1.06723
 H160 H 0.56964 0.24628 1.06553
 C161 C 0.53988 0.19051 1.10502
 H162 H 0.56683 0.19199 1.13259
 N163 N 0.50793 0.21905 1.03212
 C164 C 0.44923 0.32076 0.94110
 H165 H 0.47455 0.32273 0.91197
 C166 C 0.41111 0.34870 0.94129
 H167 H 0.40710 0.37250 0.91231
 C168 C 0.42456 0.28902 1.01582
 H169 H 0.43054 0.26673 1.04557
 C170 C 0.38603 0.31633 1.01740
 H171 H 0.36244 0.31479 1.04818
 Zn172 Zn 0.50939 0.25727 0.97825
 N173 N 0.45523 0.29168 0.97805
 C174 C 0.47600 0.21386 0.89099
 N175 N 0.51191 0.21860 0.92316
 C176 C 0.54822 0.19046 0.92161
 C177 C 0.54867 0.15481 0.88772
 C178 C 0.47497 0.17836 0.85656
 C179 C 0.56385 0.32677 1.02033
 C180 C 0.60093 0.35819 1.02529
 C181 C 0.63334 0.32911 0.95016
 C182 C 0.59564 0.29792 0.94670
 N183 N 0.56194 0.29735 0.98164
 H184 H 0.44683 0.23574 0.89388
 H185 H 0.57558 0.19430 0.94854
 H186 H 0.57662 0.13126 0.88833
 H187 H 0.44515 0.17316 0.83275
 H188 H 0.53621 0.32597 1.04711
 H189 H 0.60163 0.38211 1.05574
 H190 H 0.65941 0.33032 0.92165
 H191 H 0.59289 0.27496 0.91566
 C192 C 0.37941 0.34659 0.97996
 C193 C 0.50397 0.15736 1.10597
 C194 C 0.63587 0.35950 0.98984
 C195 C 0.51120 0.14808 0.85573
 C196 C 0.45798 0.80979 -0.03542
 H197 H 0.43144 0.81033 -0.00747
 C198 C 0.45748 0.84071 -0.07293
 H199 H 0.43039 0.86515 -0.07408
 C200 C 0.52707 0.77866 -0.06688
 H201 H 0.55484 0.75536 -0.06360
 C202 C 0.52789 0.80910 -0.10503
 H203 H 0.55603 0.80888 -0.13132
 N204 N 0.49237 0.77957 -0.03311
 C205 C 0.43152 0.67682 0.06118
 H206 H 0.45653 0.67767 0.09060
 C207 C 0.39425 0.64515 0.06101
 H208 H 0.39071 0.62126 0.09023
 C209 C 0.40741 0.70457 -0.01474
 H210 H 0.41350 0.72667 -0.04503
 C211 C 0.36972 0.67340 -0.01635
 H212 H 0.34704 0.67163 -0.04784
 Zn213 Zn 0.49228 0.74306 0.02224
 N214 N 0.43766 0.70540 0.02341
 C215 C 0.46041 0.78649 0.10939
 N216 N 0.49523 0.78352 0.07595
 C217 C 0.53204 0.81372 0.07590
 C218 C 0.53452 0.84929 0.10984
 C219 C 0.46138 0.82195 0.14394
 C220 C 0.54764 0.67566 -0.01631
 C221 C 0.58583 0.64808 -0.01999
 C222 C 0.61655 0.68279 0.05426
 C223 C 0.57776 0.70984 0.05653
 N224 N 0.54458 0.70618 0.02117
 H225 H 0.43086 0.76284 0.10784
 H226 H 0.55857 0.81111 0.04810
 H227 H 0.56309 0.87417 0.10826
 H228 H 0.43263 0.82552 0.16910
 H229 H 0.52043 0.67304 -0.04350
 H230 H 0.58792 0.62374 -0.04988
 H231 H 0.64267 0.68558 0.08267
 H232 H 0.57413 0.73342 0.08672
 C233 C 0.36346 0.64304 0.02155
 C234 C 0.49292 0.84051 -0.10779
 C235 C 0.62068 0.65185 0.01548
 C236 C 0.49849 0.85393 0.14353
 C237 C 1.05553 0.45519 0.18421
 H238 H 1.02803 0.42921 0.18433
 C239 C 1.09081 0.45342 0.14936
 H240 H 1.09074 0.42579 0.12284
 C241 C 1.08829 0.52375 0.21762
 H242 H 1.08653 0.55161 0.24355
 C243 C 1.12433 0.52328 0.18321
 H244 H 1.15059 0.55050 0.18315
 N245 N 1.05486 0.48990 0.21749
 C246 C 0.96445 0.43408 0.33201
 H247 H 0.93692 0.45803 0.33296
 C248 C 0.96361 0.39817 0.36445
 H249 H 0.93527 0.39436 0.39026
 C250 C 1.03580 0.41043 0.29845
 H251 H 1.06447 0.41578 0.27352
 C252 C 1.03628 0.37416 0.33016
 H253 H 1.06506 0.35154 0.32908
 Zn254 Zn 1.00182 0.49067 0.25874
 N255 N 1.00014 0.43947 0.29972
 C256 C 0.91436 0.45863 0.21666
 N257 N 0.95002 0.49025 0.21605
 C258 C 0.95171 0.52336 0.18243
 C259 C 0.91628 0.52623 0.14820
 C260 C 0.87799 0.46032 0.18288
 C261 C 1.03683 0.55175 0.33205
 C262 C 1.03649 0.58974 0.36336
 C263 C 0.96428 0.61054 0.32670
 C264 C 0.96592 0.57228 0.29618
 N265 N 1.00197 0.54388 0.29907
 H266 H 0.91412 0.43210 0.24307
 H267 H 0.98076 0.54768 0.18239
 H268 H 0.91791 0.55297 0.12187
 H269 H 0.84952 0.43531 0.18362
 H270 H 1.06469 0.52830 0.33425
 H271 H 1.06421 0.59564 0.38966
 H272 H 0.93523 0.63269 0.32425
 H273 H 0.93785 0.56501 0.27082
 C274 C 0.99997 0.36797 0.36359
 C275 C 1.12539 0.48788 0.14861
 C276 C 0.99979 0.61940 0.36065
 C277 C 0.87903 0.49454 0.14841
 C278 C -0.05473 0.47481 0.81885
 H279 H -0.02915 0.44891 0.81902
 C280 C -0.09006 0.47482 0.85387
 H281 H -0.09194 0.44871 0.88090
 C282 C -0.08247 0.54161 0.78473
 H283 H -0.07874 0.56822 0.75857
 C284 C -0.11834 0.54287 0.81910
 H285 H -0.14240 0.57018 0.81892
 N286 N -0.05156 0.50788 0.78519
 C287 C 0.03346 0.45360 0.66711
 H288 H 0.05994 0.48046 0.66508
 C289 C 0.03469 0.41647 0.63493
 H290 H 0.06231 0.41462 0.60816
 C291 C -0.03503 0.42329 0.70429
 H292 H -0.06243 0.42632 0.73098
 C293 C -0.03508 0.38550 0.67273
 H294 H -0.06227 0.35933 0.67556
 Zn295 Zn 0.00066 0.50835 0.74286
 N296 N -0.00072 0.45614 0.70130
 C297 C 0.08412 0.47493 0.78122
 N298 N 0.05412 0.50942 0.78345
 C299 C 0.05881 0.54294 0.81806
 C300 C 0.09458 0.54234 0.85251
 C301 C 0.12034 0.47310 0.81486
 C302 C -0.03456 0.56079 0.66935
 C303 C -0.03650 0.59648 0.63709
 C304 C 0.03448 0.62873 0.67243
 C305 C 0.03512 0.59234 0.70415
 N306 N 0.00066 0.55947 0.70226
 H307 H 0.07919 0.44796 0.75442
 H308 H 0.03391 0.56945 0.81970
 H309 H 0.09750 0.56862 0.88051
 H310 H 0.14347 0.44502 0.81336
 H311 H -0.06113 0.53391 0.66816
 H312 H -0.06477 0.59720 0.61111
 H313 H 0.06196 0.65479 0.67413
 H314 H 0.06328 0.59025 0.72990
 C315 C 0.00022 0.38201 0.63785
 C316 C -0.12198 0.50935 0.85418
 C317 C -0.00171 0.63079 0.63860
 C318 C 0.12536 0.50682 0.85114
 C319 C 0.09222 0.18438 0.50413
 C320 C 0.12232 0.15706 0.50499
 C321 C 0.68773 0.59341 0.01124
 C322 C 0.65850 0.62148 0.01356
 C323 C 0.90477 -0.18398 0.49528
 C324 C 0.87481 -0.15649 0.49559
 C325 C 0.31475 0.40739 0.98766
 C326 C 0.34306 0.37854 0.98370
 C327 C 0.92257 0.18747 0.50274
 C328 C 0.88803 0.16304 0.50134
 C329 C 0.30719 0.57106 0.01090
 C330 C 0.33068 0.60535 0.01633
 C331 C 0.07431 -0.18605 0.49381
 C332 C 0.10882 -0.16164 0.49279
 C333 C 0.69477 0.42978 0.99418
 C334 C 0.67028 0.39594 0.99167
 C335 C 0.50194 0.09354 1.17132
 C336 C 0.50306 0.12344 1.14238
 C337 C -0.00654 0.69787 0.57669
 C338 C -0.00349 0.66766 0.60523
 C339 C 0.49608 0.90442 -0.17318
 C340 C 0.49479 0.87453 -0.14419
 C341 C 1.00380 0.30140 0.42645
 C342 C 1.00123 0.33166 0.39782
 C343 C 0.49669 0.93147 0.19215
 C344 C 0.49708 0.89490 0.17224
 C345 C 0.00473 0.31081 0.57812
 C346 C 0.00180 0.34309 0.60545
 C347 C 0.50375 0.06968 0.80862
 C348 C 0.50703 0.10649 0.82800
 C349 C 0.99352 0.69017 0.42080
 C350 C 0.99729 0.65800 0.39345
 C351 C 1.19020 0.48478 0.08007
 C352 C 1.16104 0.48691 0.11164
 C353 C 0.57610 -0.01317 0.69334
 C354 C 0.60649 -0.00796 0.66355
 C355 C -0.18634 0.51448 0.92292
 C356 C -0.15714 0.51158 0.89152
 C357 C 0.42105 0.01232 0.30481
 C358 C 0.39132 0.00835 0.33544
 C359 C 0.18984 0.49794 0.91863
 C360 C 0.16050 0.50322 0.88811
 C361 C 0.57624 0.01207 0.30446
 C362 C 0.60599 0.00838 0.33473
 C363 C 0.81194 0.50350 0.08383
 C364 C 0.84207 0.49819 0.11348
 C365 C 0.41977 -0.01494 0.69460
 C366 C 0.38998 -0.01160 0.66431
   
