data_POSCAR
  _audit_creation_date              2014-09-24
  _audit_creation_method            'ToBaCCo'
  _symmetry_space_group_name_H-M    'P1'
  _symmetry_Int_Tables_number       1
  _symmetry_cell_setting            triclinic
  loop_
  _symmetry_equiv_pos_as_xyz
 x,y,z
_cell_length_a 30.7669
_cell_length_b 31.0382
_cell_length_c 11.8349
_cell_angle_alpha 90.170400
_cell_angle_beta 89.846700
_cell_angle_gamma 118.886300
loop_
  _atom_site_label
  _atom_site_type_symbol
  _atom_site_fract_x
  _atom_site_fract_y
  _atom_site_fract_z
C1 C 0.18840 0.45073 0.43702
 C2 C 0.18381 0.44496 0.55537
 C3 C 0.22559 0.45476 0.62044
 C4 C 0.27090 0.46643 0.56889
 C5 C 0.27656 0.47530 0.45210
 C6 C 0.23548 0.46905 0.38759
 H7 H 0.23872 0.47242 0.29643
 H8 H 0.22081 0.44588 0.70981
 C9 C 0.53976 -0.26244 0.44506
 C10 C 0.53608 -0.26434 0.56340
 C11 C 0.53573 -0.22528 0.62301
 C12 C 0.53799 -0.18504 0.56511
 C13 C 0.53575 -0.18597 0.44657
 C14 C 0.53729 -0.22447 0.38685
 H15 H 0.53987 -0.22325 0.29547
 H16 H 0.53735 -0.22444 0.71450
 C17 C 1.28019 0.78868 0.43662
 C18 C 1.28398 0.78831 0.55483
 C19 C 1.25311 0.74513 0.61530
 C20 C 1.21855 0.70248 0.55808
 C21 C 1.21708 0.70221 0.43982
 C22 C 1.24828 0.74528 0.37972
 H23 H 1.24462 0.74638 0.28886
 H24 H 1.25463 0.74525 0.70669
 C25 C 0.81778 0.53774 0.45561
 C26 C 0.82304 0.54971 0.57125
 C27 C 0.78565 0.55425 0.62846
 C28 C 0.74367 0.54886 0.57134
 C29 C 0.73771 0.53660 0.45597
 C30 C 0.77466 0.53060 0.39861
 H31 H 0.77037 0.52143 0.30953
 H32 H 0.79153 0.56674 0.71562
 C33 C 0.46645 0.27565 0.45240
 C34 C 0.45464 0.27213 0.56763
 C35 C 0.44496 0.22986 0.62825
 C36 C 0.44468 0.18962 0.57408
 C37 C 0.45527 0.19225 0.45766
 C38 C 0.46699 0.23567 0.39767
 H39 H 0.47546 0.23791 0.30832
 H40 H 0.43314 0.22653 0.71575
 C41 C 0.70185 0.21474 0.44175
 C42 C 0.70286 0.21303 0.56000
 C43 C 0.74606 0.24561 0.61861
 C44 C 0.78817 0.27951 0.56007
 C45 C 0.78628 0.28373 0.44245
 C46 C 0.74310 0.25110 0.38329
 H47 H 0.74225 0.25274 0.29200
 H48 H 0.74840 0.24193 0.70912
 N49 N 0.93964 0.38983 -0.12900
 N50 N 0.90873 0.34467 -0.16245
 N51 N 1.04771 0.46001 -0.20736
 N52 N 1.07269 0.45722 -0.29566
 N53 N 1.04227 0.42691 -0.13117
 N54 N 1.06253 0.40035 -0.16713
 N55 N 0.94409 0.42169 -0.20745
 N56 N 0.91586 0.39855 -0.29539
 C57 C 0.89264 0.35071 -0.26394
 C58 C 1.08275 0.42082 -0.26746
 N59 N 1.06479 0.58978 -0.12041
 N60 N 1.10464 0.63298 -0.13416
 N61 N 0.95738 0.52052 -0.20279
 N62 N 0.93276 0.52479 -0.28966
 N63 N 0.96147 0.55150 -0.12212
 N64 N 0.94043 0.57786 -0.15312
 N65 N 1.06129 0.55914 -0.20114
 N66 N 1.09854 0.58091 -0.27329
 Mn67 Mn 1.00270 0.49044 -0.20537
 C68 C 1.12538 0.62667 -0.22894
 C69 C 0.92106 0.55950 -0.25541
 N70 N 1.04315 0.42621 0.11466
 N71 N 1.06774 0.40263 0.14063
 N72 N 0.94543 0.41983 0.19708
 N73 N 0.90903 0.39895 0.27127
 N74 N 0.93974 0.38912 0.11460
 N75 N 0.89909 0.34659 0.12945
 N76 N 1.04904 0.45838 0.19400
 N77 N 1.07833 0.45785 0.27520
 Mn78 Mn 0.99115 0.40784 -0.00740
 C79 C 1.09046 0.42364 0.23883
 C80 C 0.88055 0.35355 0.22711
 N81 N 0.96037 0.54856 0.12256
 N82 N 0.92699 0.56306 0.14094
 N83 N 1.06162 0.55698 0.19779
 N84 N 1.09847 0.57863 0.27074
 N85 N 1.06453 0.58816 0.11958
 N86 N 1.10367 0.63157 0.13535
 N87 N 0.95811 0.51796 0.20180
 N88 N 0.92364 0.51116 0.27710
 Mn89 Mn 1.01261 0.56973 0.00015
 Mn90 Mn 1.00372 0.48836 0.19886
 Cl91 Cl 1.00251 0.48899 -0.00374
 C92 C 0.90456 0.53934 0.23745
 C93 C 1.12446 0.62487 0.22887
 N94 N 0.46033 0.40704 0.11908
 N95 N 0.44899 0.36062 0.13372
 N96 N 0.43643 0.48788 0.20796
 N97 N 0.41042 0.49735 0.28359
 N98 N 0.40762 0.46042 0.12587
 N99 N 0.36146 0.45098 0.14193
 N100 N 0.48884 0.43471 0.20134
 N101 N 0.49704 0.40768 0.27550
 C102 C 0.47252 0.36180 0.23072
 C103 C 0.36396 0.47438 0.23979
 N104 N 0.55905 0.60898 0.13471
 N105 N 0.57801 0.65521 0.16732
 N106 N 0.58182 0.52620 0.20541
 N107 N 0.60750 0.51577 0.27928
 N108 N 0.61108 0.55518 0.12564
 N109 N 0.65731 0.56470 0.14178
 N110 N 0.52936 0.57939 0.21307
 N111 N 0.52764 0.60520 0.30065
 Mn112 Mn 0.50906 0.50701 0.20827
 C113 C 0.55672 0.65257 0.26870
 C114 C 0.65426 0.53963 0.23717
 N115 N 0.40698 0.46242 -0.11649
 N116 N 0.36043 0.44155 -0.15057
 N117 N 0.48865 0.43932 -0.20202
 N118 N 0.48600 0.41436 -0.29473
 N119 N 0.45919 0.40938 -0.12368
 N120 N 0.43620 0.36380 -0.16199
 N121 N 0.43643 0.49251 -0.19453
 N122 N 0.41010 0.49246 -0.28279
 Mn123 Mn 0.43345 0.43469 0.00174
 C124 C 0.36253 0.46200 -0.25224
 C125 C 0.45472 0.36712 -0.26681
 N126 N 0.61139 0.55930 -0.11796
 N127 N 0.65795 0.58033 -0.15260
 N128 N 0.52930 0.58340 -0.18903
 N129 N 0.51992 0.60953 -0.26291
 N130 N 0.55831 0.61167 -0.10814
 N131 N 0.56907 0.65788 -0.12371
 N132 N 0.58174 0.53055 -0.19763
 N133 N 0.60781 0.53140 -0.28747
 Mn134 Mn 0.58521 0.58401 0.00873
 Mn135 Mn 0.50914 0.51152 -0.19607
 Cl136 Cl 0.50927 0.50928 0.00550
 C137 C 0.65540 0.56109 -0.25633
 C138 C 0.54460 0.65559 -0.22007
 N139 N 0.38778 -0.05812 0.12620
 N140 N 0.34178 -0.08867 0.15704
 N141 N 0.46145 0.04633 0.20689
 N142 N 0.46993 0.08090 0.28202
 N143 N 0.43093 0.04522 0.12803
 N144 N 0.41817 0.07968 0.14662
 N145 N 0.41914 -0.05643 0.20373
 N146 N 0.39492 -0.08621 0.28860
 C147 C 0.34683 -0.10728 0.25597
 C148 C 0.44281 0.10124 0.24305
 N149 N 0.59034 0.05989 0.12255
 N150 N 0.63384 0.09957 0.13634
 N151 N 0.51745 -0.04641 0.19987
 N152 N 0.51110 -0.08067 0.27372
 N153 N 0.54820 -0.04361 0.11943
 N154 N 0.56323 -0.07646 0.13526
 N155 N 0.55935 0.05647 0.20294
 N156 N 0.58104 0.09358 0.27472
 Mn157 Mn 0.48937 -0.00009 0.20432
 C158 C 0.62726 0.12016 0.23094
 C159 C 0.53964 -0.09906 0.23159
 N160 N 0.42917 0.04529 -0.11705
 N161 N 0.40506 0.06894 -0.14665
 N162 N 0.41899 -0.05349 -0.19886
 N163 N 0.39764 -0.08941 -0.27314
 N164 N 0.38770 -0.05773 -0.11820
 N165 N 0.34413 -0.09717 -0.13457
 N166 N 0.46098 0.04938 -0.19637
 N167 N 0.45951 0.07649 -0.28099
 Mn168 Mn 0.40853 -0.00634 0.00477
 C169 C 0.42560 0.08968 -0.24663
 C170 C 0.35120 -0.11619 -0.23150
 N171 N 0.54842 -0.04185 -0.12382
 N172 N 0.57157 -0.06627 -0.15509
 N173 N 0.55891 0.05838 -0.19768
 N174 N 0.58108 0.09484 -0.27037
 N175 N 0.59004 0.06098 -0.11881
 N176 N 0.63417 0.09944 -0.13457
 N177 N 0.51688 -0.04480 -0.20220
 N178 N 0.51780 -0.07172 -0.28828
 Mn179 Mn 0.56960 0.00882 -0.00004
 Mn180 Mn 0.48895 0.00239 -0.19975
 Cl181 Cl 0.48896 0.00108 0.00219
 C182 C 0.55083 -0.08628 -0.25542
 C183 C 0.62770 0.12012 -0.22856
 N184 N 1.14955 0.42822 0.37102
 N185 N 1.11502 0.40375 0.30594
 N186 N 0.55753 0.71207 0.39310
 N187 N 0.57917 0.69199 0.34774
 N188 N 0.29618 -0.16955 0.38275
 N189 N 0.30612 -0.13126 0.33209
 N190 N 0.85696 0.53432 0.39716
 N191 N 0.86596 0.54452 0.29271
 N192 N 0.47406 0.31875 0.39180
 N193 N 0.46625 0.31838 0.28631
 N194 N 0.66150 0.17515 0.38321
 N195 N 0.66660 0.16212 0.28430
 N196 N 0.42470 0.14740 -0.37262
 N197 N 0.40216 0.10829 -0.32094
 N198 N 0.71653 0.56573 -0.38065
 N199 N 0.69418 0.58534 -0.33675
 N200 N 0.83121 0.29807 -0.38921
 N201 N 0.87153 0.31138 -0.34321
 N202 N 0.55453 -0.14304 -0.38131
 N203 N 0.57514 -0.10300 -0.33251
 N204 N 0.30049 0.45378 -0.37898
 N205 N 0.32468 0.43656 -0.33376
 N206 N 1.17986 0.66171 -0.38256
 N207 N 1.16687 0.66624 -0.28316
 N208 N 0.86613 0.56646 -0.37920
 N209 N 0.90661 0.58572 -0.33132
 N210 N 0.44244 0.30334 -0.38797
 N211 N 0.42786 0.33099 -0.35001
 N212 N 0.66243 0.17335 -0.38248
 N213 N 0.66732 0.16099 -0.28310
 N214 N 1.14030 0.42174 -0.39585
 N215 N 1.10066 0.39806 -0.34567
 N216 N 0.53599 0.69533 -0.37825
 N217 N 0.54708 0.69755 -0.27427
 N218 N 0.31854 -0.16768 -0.38802
 N219 N 0.31390 -0.15957 -0.28449
 N220 N 0.53381 -0.14656 0.38861
 N221 N 0.54522 -0.13714 0.28492
 N222 N 0.32111 0.48183 0.39781
 N223 N 0.32097 0.47061 0.29442
 N224 N 1.17800 0.66070 0.38358
 N225 N 1.16534 0.66444 0.28365
 N226 N 0.45336 0.15061 0.40088
 N227 N 0.44107 0.14139 0.29743
 N228 N 0.69552 0.53344 0.39747
 N229 N 0.69666 0.54235 0.29242
 N230 N 0.82952 0.31966 0.38462
 N231 N 0.83712 0.31621 0.28026
   
