data_POSCAR
  _audit_creation_date              2014-09-24
  _audit_creation_method            'ToBaCCo'
  _symmetry_space_group_name_H-M    'P1'
  _symmetry_Int_Tables_number       1
  _symmetry_cell_setting            triclinic
  loop_
  _symmetry_equiv_pos_as_xyz
 x,y,z
_cell_length_a 18.9087
_cell_length_b 19.0266
_cell_length_c 35.9097
_cell_angle_alpha 88.597000
_cell_angle_beta 93.705100
_cell_angle_gamma 81.579200
loop_
  _atom_site_label
  _atom_site_type_symbol
  _atom_site_fract_x
  _atom_site_fract_y
  _atom_site_fract_z
C1 C -0.00015 0.35210 0.96631
 C2 C -0.00148 0.31559 1.00058
 C3 C -0.01127 0.34952 1.03458
 C4 C -0.00196 0.42249 1.03553
 C5 C 0.00289 0.46146 1.00164
 C6 C 0.00452 0.42611 0.96712
 C7 C 0.01585 0.46488 0.93482
 C8 C 0.02061 0.53681 0.93557
 C9 C 0.01493 0.57430 0.96872
 C10 C 0.00873 0.53562 1.00246
 C11 C 0.00842 0.45640 1.06932
 C12 C 0.01296 0.52837 1.07012
 C13 C 0.00978 0.57034 1.03710
 C14 C 0.01253 0.64493 1.03785
 C15 C 0.02528 0.67915 1.00431
 C16 C 0.01962 0.64830 0.96937
 H17 H 0.02370 0.44026 0.90841
 H18 H 0.03135 0.56152 0.90961
 H19 H 0.01607 0.42753 1.09584
 H20 H 0.02139 0.54967 1.09734
 H21 H 0.00853 0.25844 1.00145
 H22 H 0.04320 0.73006 1.00560
 C23 C 0.35788 -0.00825 0.53677
 C24 C 0.31693 -0.01282 0.50312
 C25 C 0.34495 -0.01061 0.46784
 C26 C 0.41643 0.00428 0.46638
 C27 C 0.46123 0.00248 0.49981
 C28 C 0.43271 -0.00795 0.53486
 C29 C 0.48021 -0.01914 0.56684
 C30 C 0.55193 -0.01238 0.56529
 C31 C 0.57953 0.00737 0.53187
 C32 C 0.53492 0.01096 0.49828
 C33 C 0.44469 0.02093 0.43267
 C34 C 0.51678 0.02643 0.43089
 C35 C 0.56398 0.02107 0.46320
 C36 C 0.63938 0.02288 0.46155
 C37 C 0.68078 0.01850 0.49586
 C38 C 0.65156 0.01929 0.53074
 H39 H 0.46325 -0.03481 0.59353
 H40 H 0.58564 -0.02498 0.59068
 H41 H 0.41173 0.03036 0.40689
 H42 H 0.53403 0.03416 0.40332
 H43 H 0.26157 -0.01826 0.50433
 H44 H 0.73803 0.01059 0.49655
 C45 C 0.10853 -0.02485 0.27667
 H46 H 0.12109 -0.03471 0.24813
 C47 C 0.16401 -0.02786 0.30479
 H48 H 0.21876 -0.03965 0.29724
 C49 C 0.02180 0.00667 0.32033
 H50 H -0.03340 0.02179 0.32641
 C51 C 0.07518 0.00572 0.34891
 H52 H 0.05993 0.01995 0.37661
 N53 N 0.03886 -0.01060 0.28518
 C54 C -0.08622 -0.10168 0.19701
 H55 H -0.13355 -0.06195 0.19612
 C56 C -0.08006 -0.15344 0.17017
 H57 H -0.12343 -0.15343 0.14893
 C58 C 0.02932 -0.14644 0.22434
 H59 H 0.07208 -0.14335 0.24535
 C60 C 0.03820 -0.19878 0.19763
 H61 H 0.08813 -0.23455 0.19911
 Zn62 Zn -0.03834 -0.01104 0.24852
 N63 N -0.03058 -0.09691 0.22223
 C64 C -0.01330 0.04522 0.17933
 N65 N -0.03678 0.06462 0.21309
 C66 C -0.05414 0.13449 0.22087
 C67 C -0.05398 0.18748 0.19300
 C68 C -0.01067 0.09601 0.15124
 C69 C -0.12817 -0.06099 0.29624
 C70 C -0.17882 -0.05735 0.32280
 C71 C -0.22613 0.06164 0.29977
 C72 C -0.17449 0.05541 0.27328
 N73 N -0.12456 -0.00390 0.27340
 H74 H 0.00463 -0.00990 0.17409
 H75 H -0.06817 0.14925 0.24862
 H76 H -0.06827 0.24248 0.19986
 H77 H 0.00890 0.07879 0.12476
 H78 H -0.08780 -0.10749 0.29578
 H79 H -0.17660 -0.10154 0.34264
 H80 H -0.26117 0.11157 0.30086
 H81 H -0.17191 0.09973 0.25437
 C82 C -0.01566 -0.20057 0.16878
 C83 C 0.14744 -0.01455 0.34187
 C84 C -0.22702 0.00559 0.32605
 C85 C -0.03388 0.16816 0.15714
 C86 C -0.02353 0.14208 0.77791
 H87 H -0.06346 0.14506 0.75482
 C88 C -0.02919 0.19498 0.80446
 H89 H -0.07481 0.23649 0.80147
 C90 C 0.08201 0.08224 0.81021
 H91 H 0.12496 0.03794 0.81258
 C92 C 0.07849 0.13356 0.83724
 H93 H 0.11833 0.12703 0.86061
 N94 N 0.03019 0.08586 0.78195
 C95 C 0.14962 -0.06777 0.71490
 H96 H 0.12883 -0.11499 0.72382
 C97 C 0.20054 -0.07261 0.68823
 H98 H 0.21762 -0.12414 0.67718
 C99 C 0.14283 0.05753 0.71454
 H100 H 0.11704 0.10837 0.72334
 C101 C 0.19387 0.05514 0.68806
 H102 H 0.20654 0.10472 0.67678
 Zn103 Zn 0.03458 0.00554 0.75136
 N104 N 0.12057 -0.00321 0.72667
 C105 C -0.02602 0.00156 0.67843
 N106 N -0.04323 0.01500 0.71400
 C107 C -0.11292 0.03242 0.72206
 C108 C -0.16812 0.03808 0.69365
 C109 C -0.07911 0.00540 0.64952
 C110 C 0.09520 -0.10342 0.80325
 C111 C 0.09475 -0.15615 0.83091
 C112 C -0.03160 -0.15399 0.81540
 C113 C -0.02870 -0.10126 0.78801
 N114 N 0.03378 -0.07607 0.78290
 H115 H 0.02906 -0.01325 0.67219
 H116 H -0.12586 0.04177 0.75060
 H117 H -0.22286 0.05072 0.70107
 H118 H -0.06363 -0.00734 0.62168
 H119 H 0.14430 -0.08250 0.79894
 H120 H 0.14357 -0.17362 0.84810
 H121 H -0.08314 -0.16924 0.82032
 H122 H -0.07727 -0.07838 0.77209
 C123 C 0.22259 -0.01040 0.67377
 C124 C 0.02170 0.19050 0.83518
 C125 C 0.03074 -0.18251 0.83746
 C126 C -0.15138 0.02545 0.65653
 C127 C 0.00507 -0.31418 0.07178
 C128 C 0.07224 -0.32897 0.09897
 C129 C 0.06709 -0.29373 0.13143
 C130 C -0.00500 -0.24496 0.13419
 C131 C -0.01264 -0.19671 0.09878
 C132 C -0.00900 -0.23202 0.06646
 C133 C -0.05786 -0.32877 0.09479
 C134 C -0.06210 -0.29397 0.12747
 H135 H 0.12018 -0.36474 0.09313
 H136 H 0.11115 -0.30102 0.15259
 H137 H -0.02537 -0.13917 0.09893
 H138 H -0.02326 -0.20284 0.04009
 H139 H -0.09697 -0.36237 0.08573
 H140 H -0.10388 -0.29908 0.14628
 C141 C -0.02187 0.30572 0.06724
 C142 C 0.04997 0.27572 0.08817
 C143 C 0.04454 0.23228 0.11801
 C144 C -0.03233 0.22160 0.12507
 C145 C -0.07368 0.29735 0.12777
 C146 C -0.06943 0.34069 0.09725
 C147 C -0.05870 0.23991 0.05812
 C148 C -0.06352 0.19640 0.08799
 H149 H 0.10130 0.28823 0.08025
 H150 H 0.09118 0.20800 0.13547
 H151 H -0.10941 0.31370 0.14939
 H152 H -0.10195 0.39266 0.09352
 H153 H -0.08621 0.23200 0.03141
 H154 H -0.09321 0.15176 0.08593
 C155 C 0.32102 -0.00708 0.57398
 C156 C 0.33576 -0.07987 0.59482
 C157 C 0.30601 -0.08183 0.62824
 C158 C 0.26204 -0.01088 0.63809
 C159 C 0.31513 0.04310 0.63594
 C160 C 0.34460 0.04614 0.60234
 C161 C 0.23841 0.01250 0.57127
 C162 C 0.20825 0.00936 0.60439
 H163 H 0.36971 -0.12550 0.58475
 H164 H 0.31700 -0.12872 0.64665
 H165 H 0.32797 0.07668 0.65865
 H166 H 0.38072 0.08372 0.59639
 H167 H 0.20603 0.03610 0.54689
 H168 H 0.15134 0.02617 0.60681
 C169 C -0.29799 0.02518 0.56566
 C170 C -0.26445 -0.04836 0.58186
 C171 C -0.21788 -0.04691 0.61209
 C172 C -0.20786 0.02803 0.62411
 C173 C -0.18707 0.06566 0.58893
 C174 C -0.23375 0.06454 0.55870
 C175 C -0.33083 0.06555 0.59877
 C176 C -0.28426 0.06608 0.62948
 H177 H -0.27687 -0.09783 0.57049
 H178 H -0.19075 -0.09519 0.62650
 H179 H -0.14282 0.09612 0.58866
 H180 H -0.22893 0.09566 0.53350
 H181 H -0.38431 0.09581 0.59725
 H182 H -0.29927 0.09698 0.65344
 C183 C 0.02088 -0.30494 0.93367
 C184 C -0.03807 -0.31350 0.90304
 C185 C -0.03401 -0.27598 0.87062
 C186 C 0.02686 -0.23003 0.87183
 C187 C 0.01472 -0.18511 0.90633
 C188 C 0.01067 -0.22339 0.93831
 C189 C 0.09194 -0.32159 0.91486
 C190 C 0.09482 -0.28352 0.88258
 H191 H -0.07932 -0.34680 0.90646
 H192 H -0.07028 -0.28009 0.84638
 H193 H 0.00405 -0.12740 0.90509
 H194 H -0.00706 -0.19627 0.96297
 H195 H 0.13575 -0.36180 0.92558
 H196 H 0.14060 -0.29269 0.86568
 C197 C 0.00196 0.30933 0.93022
 C198 C 0.07672 0.30061 0.91494
 C199 C 0.08206 0.26439 0.88289
 C200 C 0.01259 0.23785 0.86866
 C201 C -0.00967 0.19586 0.90180
 C202 C -0.01625 0.23270 0.93351
 C203 C -0.05009 0.34201 0.89734
 C204 C -0.04373 0.30572 0.86505
 H205 H 0.12163 0.32259 0.92802
 H206 H 0.13131 0.25629 0.86859
 H207 H -0.02629 0.14377 0.89941
 H208 H -0.04239 0.21153 0.95635
 H209 H -0.08886 0.38962 0.89931
 H210 H -0.07580 0.32473 0.83976
 C211 C -0.32516 0.02226 0.42626
 C212 C -0.24308 0.02450 0.42831
 C213 C -0.21370 0.01952 0.39490
 C214 C -0.26713 0.01448 0.36150
 C215 C -0.30496 -0.04896 0.37117
 C216 C -0.33396 -0.04546 0.40479
 C217 C -0.35382 0.08483 0.39849
 C218 C -0.32489 0.08015 0.36453
 H219 H -0.21109 0.04098 0.45164
 H220 H -0.15840 0.02696 0.39200
 H221 H -0.30901 -0.09304 0.35291
 H222 H -0.36180 -0.08724 0.41512
 H223 H -0.39341 0.12931 0.40504
 H224 H -0.34231 0.11981 0.34242
 C225 C 0.29418 -0.01681 0.43297
 C226 C 0.26131 0.05713 0.41695
 C227 C 0.21475 0.05664 0.38665
 C228 C 0.20401 -0.01781 0.37430
 C229 C 0.28017 -0.05656 0.36892
 C230 C 0.32669 -0.05707 0.39976
 C231 C 0.22941 -0.05573 0.43957
 C232 C 0.18270 -0.05571 0.40925
 H233 H 0.27416 0.10628 0.42853
 H234 H 0.18813 0.10530 0.37242
 H235 H 0.29493 -0.08725 0.34484
 H236 H 0.37983 -0.08808 0.40131
 H237 H 0.22524 -0.08959 0.46382
 H238 H 0.13887 -0.08678 0.40907
   
