data_POSCAR
  _audit_creation_date              2014-09-24
  _audit_creation_method            'ToBaCCo'
  _symmetry_space_group_name_H-M    'P1'
  _symmetry_Int_Tables_number       1
  _symmetry_cell_setting            triclinic
  loop_
  _symmetry_equiv_pos_as_xyz
 x,y,z
_cell_length_a 25.1232
_cell_length_b 25.1509
_cell_length_c 25.1832
_cell_angle_alpha 90.336000
_cell_angle_beta 89.425600
_cell_angle_gamma 89.716800
loop_
  _atom_site_label
  _atom_site_type_symbol
  _atom_site_fract_x
  _atom_site_fract_y
  _atom_site_fract_z
C1 C 0.59796 0.36482 0.02010
 C2 C 0.63651 0.40327 0.02011
 C3 C 0.61135 0.45089 0.00796
 N4 N 0.55888 0.44258 0.00023
 C5 C 0.55049 0.39013 0.00801
 C6 C 0.63737 0.50008 0.00071
 C7 C 0.61040 0.54884 -0.00774
 C8 C 0.63459 0.59539 -0.02463
 C9 C 0.59586 0.63417 -0.02473
 C10 C 0.54890 0.61043 -0.00790
 N11 N 0.55827 0.55850 0.00265
 C12 C 0.49997 0.63761 0.00031
 C13 C 0.45063 0.61171 0.00759
 C14 C 0.40275 0.63702 0.01965
 C15 C 0.36432 0.59844 0.01980
 C16 C 0.38991 0.55082 0.00785
 N17 N 0.44252 0.55913 0.00003
 C18 C 0.36414 0.50155 0.00095
 C19 C 0.39114 0.45268 -0.00707
 C20 C 0.36712 0.40581 -0.02322
 C21 C 0.40588 0.36700 -0.02319
 C22 C 0.45257 0.39116 -0.00702
 N23 N 0.44311 0.44328 0.00306
 C24 C 0.50132 0.36423 0.00100
 H25 H 0.60427 0.32294 0.02756
 H26 H 0.67840 0.39682 0.02754
 H27 H 0.46892 0.46938 0.02162
 H28 H 0.67602 0.60098 -0.03529
 H29 H 0.60174 0.67535 -0.03548
 H30 H 0.39612 0.67900 0.02695
 H31 H 0.32226 0.60484 0.02724
 H32 H 0.40016 0.32559 -0.03345
 H33 H 0.53223 0.53284 0.02171
 H34 H 0.32582 0.40002 -0.03350
 C35 C 0.00035 0.60036 0.63779
 C36 C -0.00218 0.63886 0.59963
 C37 C -0.00219 0.61273 0.55090
 N38 N 0.00015 0.55962 0.55834
 C39 C 0.00164 0.55183 0.61133
 C40 C -0.00243 0.63828 0.50098
 C41 C -0.00069 0.61156 0.45122
 C42 C 0.00762 0.63662 0.40285
 C43 C 0.00726 0.59783 0.36435
 C44 C -0.00125 0.54984 0.38991
 N45 N -0.00691 0.55869 0.44279
 C46 C -0.00367 0.50005 0.36352
 C47 C -0.00376 0.45009 0.38886
 C48 C -0.00427 0.40148 0.36254
 C49 C -0.00171 0.36302 0.40077
 C50 C 0.00013 0.38929 0.44929
 N51 N -0.00111 0.44241 0.44178
 C52 C 0.00141 0.36382 0.49913
 C53 C 0.00092 0.39034 0.54891
 C54 C -0.00548 0.36493 0.59730
 C55 C -0.00517 0.40367 0.63589
 C56 C 0.00142 0.45195 0.61027
 N57 N 0.00604 0.44331 0.55730
 C58 C 0.00256 0.50183 0.63663
 H59 H 0.00083 0.60739 0.68023
 H60 H -0.00348 0.68130 0.60695
 H61 H 0.01583 0.47142 0.52906
 H62 H 0.01393 0.67857 0.39596
 H63 H 0.01325 0.60430 0.32226
 H64 H -0.00589 0.39438 0.32015
 H65 H -0.00152 0.32055 0.39358
 H66 H -0.01008 0.39696 0.67807
 H67 H -0.01863 0.53099 0.47077
 H68 H -0.01066 0.32283 0.60420
 C69 C 0.36444 -0.02131 0.59790
 C70 C 0.40274 -0.02127 0.63638
 C71 C 0.45052 -0.00914 0.61121
 N72 N 0.44246 -0.00144 0.55879
 C73 C 0.38999 -0.00924 0.55045
 C74 C 0.49969 -0.00197 0.63711
 C75 C 0.54854 0.00647 0.60992
 C76 C 0.59517 0.02326 0.63377
 C77 C 0.63394 0.02358 0.59488
 C78 C 0.61013 0.00697 0.54813
 N79 N 0.55817 -0.00365 0.55780
 C80 C 0.63734 -0.00105 0.49917
 C81 C 0.61161 -0.00818 0.44995
 C82 C 0.63718 -0.01996 0.40214
 C83 C 0.59876 -0.02005 0.36379
 C84 C 0.55095 -0.00837 0.38934
 N85 N 0.55900 -0.00075 0.44185
 C86 C 0.50169 -0.00165 0.36365
 C87 C 0.45272 0.00608 0.39084
 C88 C 0.40574 0.02205 0.36709
 C89 C 0.36694 0.02194 0.40601
 C90 C 0.39120 0.00588 0.45255
 N91 N 0.44338 -0.00404 0.44284
 C92 C 0.36425 -0.00226 0.50137
 H93 H 0.32247 -0.02879 0.60426
 H94 H 0.39607 -0.02869 0.67821
 H95 H 0.46950 -0.02248 0.46861
 H96 H 0.60081 0.03374 0.67507
 H97 H 0.67518 0.03434 0.60052
 H98 H 0.67925 -0.02712 0.39550
 H99 H 0.60537 -0.02731 0.32183
 H100 H 0.32545 0.03206 0.40048
 H101 H 0.53251 -0.02258 0.53186
 H102 H 0.39988 0.03230 0.32587
 O103 O 0.45645 -0.00061 -0.07386
 O104 O 0.45683 -0.00024 0.07266
 O105 O 0.45666 0.07287 -0.00034
 O106 O 0.45663 -0.07369 -0.00080
 O107 O 0.54465 -0.07415 -0.00191
 O108 O 0.54467 0.07241 -0.00145
 O109 O 0.54484 -0.00071 0.07155
 O110 O 0.54446 -0.00107 -0.07498
 Cu111 Cu 0.44779 -0.00036 -0.00049
 Cu112 Cu 0.55350 -0.00092 -0.00183
 C113 C 0.50039 -0.00091 -0.09917
 C114 C 0.50090 -0.00045 0.09685
 C115 C 0.50067 0.09738 -0.00079
 C116 C 0.50063 -0.09866 -0.00137
 O117 O -0.07433 0.54479 1.00038
 O118 O 0.07227 0.54485 1.00045
 O119 O -0.00025 0.54498 0.92741
 O120 O -0.00179 0.54471 1.07342
 O121 O -0.00130 0.45675 1.07273
 O122 O 0.00023 0.45703 0.92672
 O123 O 0.07276 0.45690 0.99976
 O124 O -0.07384 0.45685 0.99969
 Cu125 Cu -0.00108 0.55373 1.00048
 Cu126 Cu -0.00049 0.44798 0.99966
 C127 C -0.09882 0.50080 1.00003
 C128 C 0.09726 0.50089 1.00012
 C129 C 0.00025 0.50105 0.90244
 C130 C -0.00180 0.50069 1.09770
 O131 O -0.00027 -0.07400 0.45631
 O132 O -0.00006 0.07234 0.45605
 O133 O 0.07314 -0.00128 0.45648
 O134 O -0.07349 -0.00041 0.45601
 O135 O -0.07465 0.00028 0.54384
 O136 O 0.07197 -0.00059 0.54431
 O137 O -0.00123 0.07303 0.54388
 O138 O -0.00144 -0.07332 0.54415
 Cu139 Cu -0.00005 -0.00090 0.44734
 Cu140 Cu -0.00146 -0.00007 0.55291
 C141 C -0.00092 -0.09835 0.50027
 C142 C -0.00058 0.09738 0.49992
 C143 C 0.09730 -0.00108 0.50048
 C144 C -0.09881 0.00004 0.49985
 C145 C -0.30803 0.50035 1.00042
 C146 C -0.26003 0.50053 1.00024
 C147 C -0.20388 0.50068 1.00011
 C148 C -0.15591 0.50076 1.00005
 C149 C 0.30644 0.50127 1.00062
 C150 C 0.25846 0.50110 1.00043
 C151 C 0.20231 0.50098 1.00027
 C152 C 0.15434 0.50092 1.00018
 C153 C -0.00204 -0.30717 0.50075
 C154 C -0.00172 -0.25926 0.50059
 C155 C -0.00137 -0.20321 0.50046
 C156 C -0.00113 -0.15532 0.50037
 C157 C 0.00084 0.30618 0.49933
 C158 C 0.00041 0.25828 0.49949
 C159 C -0.00003 0.20223 0.49967
 C160 C -0.00033 0.15435 0.49980
 C161 C 0.49984 -0.00168 -0.30831
 C162 C 0.49997 -0.00146 -0.26035
 C163 C 0.50011 -0.00124 -0.20419
 C164 C 0.50024 -0.00107 -0.15626
 C165 C 0.50150 -0.00119 0.30596
 C166 C 0.50134 -0.00089 0.25802
 C167 C 0.50118 -0.00063 0.20187
 C168 C 0.50105 -0.00050 0.15394
 C169 C 0.50025 -0.30781 -0.00026
 C170 C 0.50042 -0.25984 -0.00069
 C171 C 0.50055 -0.20369 -0.00107
 C172 C 0.50061 -0.15575 -0.00128
 C173 C 0.50104 0.30654 0.00052
 C174 C 0.50088 0.25857 0.00016
 C175 C 0.50075 0.20242 -0.00022
 C176 C 0.50070 0.15447 -0.00051
 C177 C -0.30805 -0.00053 0.49931
 C178 C -0.26005 -0.00020 0.49943
 C179 C -0.20388 0.00005 0.49956
 C180 C -0.15591 0.00013 0.49968
 C181 C 0.30653 -0.00200 0.50122
 C182 C 0.25854 -0.00181 0.50107
 C183 C 0.20237 -0.00158 0.50085
 C184 C 0.15440 -0.00137 0.50068
 C185 C -0.00343 0.50023 1.30602
 C186 C -0.00315 0.50036 1.25822
 C187 C -0.00275 0.50049 1.20231
 C188 C -0.00234 0.50058 1.15453
 C189 C 0.00219 0.50162 0.69414
 C190 C 0.00182 0.50146 0.74193
 C191 C 0.00132 0.50129 0.79784
 C192 C 0.00085 0.50117 0.84562
   
