data_POSCAR
  _audit_creation_date              2014-09-24
  _audit_creation_method            'ToBaCCo'
  _symmetry_space_group_name_H-M    'P1'
  _symmetry_Int_Tables_number       1
  _symmetry_cell_setting            triclinic
  loop_
  _symmetry_equiv_pos_as_xyz
 x,y,z
_cell_length_a 51.6847
_cell_length_b 53.3257
_cell_length_c 39.9541
_cell_angle_alpha 89.997800
_cell_angle_beta 89.860900
_cell_angle_gamma 90.025700
loop_
  _atom_site_label
  _atom_site_type_symbol
  _atom_site_fract_x
  _atom_site_fract_y
  _atom_site_fract_z
C1 C 1.20776 0.25449 0.29667
 H2 H 1.20676 0.23422 0.29671
 C3 C 1.18948 0.26841 0.31455
 H4 H 1.17448 0.25862 0.32829
 C5 C 1.22861 0.29165 0.27849
 H6 H 1.24399 0.30065 0.26464
 C7 C 1.21075 0.30631 0.29608
 H8 H 1.21259 0.32653 0.29526
 N9 N 1.22653 0.26623 0.27860
 C10 C 1.24543 0.21183 0.20088
 H11 H 1.26624 0.21100 0.20356
 C12 C 1.23292 0.19546 0.17898
 H13 H 1.24430 0.18217 0.16472
 C14 C 1.20537 0.22961 0.21737
 H15 H 1.19469 0.24284 0.23247
 C16 C 1.19208 0.21373 0.19562
 H17 H 1.17119 0.21488 0.19450
 Zn18 Zn 1.24961 0.24565 0.25387
 N19 N 1.23148 0.22772 0.22049
 C20 C 1.25898 0.19755 0.28067
 N21 N 1.26457 0.22233 0.28404
 C22 C 1.28032 0.23058 0.30891
 C23 C 1.29274 0.21347 0.32996
 C24 C 1.27078 0.17981 0.30115
 C25 C 1.26747 0.28150 0.20811
 C26 C 1.28549 0.29555 0.18995
 C27 C 1.31976 0.27470 0.22003
 C28 C 1.30107 0.26103 0.23760
 N29 N 1.27545 0.26486 0.23170
 H30 H 1.24543 0.19135 0.26192
 H31 H 1.28382 0.25047 0.31177
 H32 H 1.30582 0.22066 0.34881
 H33 H 1.26621 0.16022 0.29706
 H34 H 1.24701 0.28379 0.20333
 H35 H 1.27862 0.30878 0.17144
 H36 H 1.34002 0.27137 0.22523
 H37 H 1.30717 0.24713 0.25555
 C38 C 1.20581 0.19579 0.17688
 C39 C 1.19065 0.29472 0.31415
 C40 C 1.31208 0.29230 0.19585
 C41 C 1.28861 0.18747 0.32576
 C42 C 0.72052 -0.23021 0.30139
 H43 H 0.71673 -0.24999 0.30488
 C44 C 0.70852 -0.21257 0.32214
 H45 H 0.69536 -0.21898 0.34145
 C46 C 0.74223 -0.19791 0.27187
 H47 H 0.75575 -0.19217 0.25274
 C48 C 0.73078 -0.17970 0.29205
 H49 H 0.73535 -0.16017 0.28758
 N50 N 0.73638 -0.22258 0.27615
 C51 C 0.73342 -0.28300 0.20207
 H52 H 0.75391 -0.28559 0.19763
 C53 C 0.71543 -0.29705 0.18399
 H54 H 0.72235 -0.31060 0.16588
 C55 C 0.69976 -0.26173 0.23064
 H56 H 0.69366 -0.24754 0.24821
 C57 C 0.68109 -0.27539 0.21313
 H58 H 0.66082 -0.27175 0.21797
 Zn59 Zn 0.75127 -0.24668 0.24697
 N60 N 0.72539 -0.26593 0.22514
 C61 C 0.77088 -0.29251 0.27378
 N62 N 0.77364 -0.26716 0.27280
 C63 C 0.79239 -0.25543 0.29082
 C64 C 0.80988 -0.26933 0.30990
 C65 C 0.78793 -0.30714 0.29258
 C66 C 0.75645 -0.21421 0.19271
 C67 C 0.76934 -0.19844 0.17034
 C68 C 0.80985 -0.21648 0.18841
 C69 C 0.79618 -0.23177 0.21062
 N70 N 0.77004 -0.22969 0.21322
 H71 H 0.75551 -0.30147 0.25994
 H72 H 0.79391 -0.23521 0.29001
 H73 H 0.82483 -0.25958 0.32367
 H74 H 0.78551 -0.32731 0.29269
 H75 H 0.73561 -0.21322 0.19502
 H76 H 0.75821 -0.18544 0.15534
 H77 H 0.83075 -0.21773 0.18771
 H78 H 0.80658 -0.24467 0.22648
 C79 C 0.68883 -0.29337 0.18943
 C80 C 0.71327 -0.18687 0.31717
 C81 C 0.79647 -0.19894 0.16870
 C82 C 0.80792 -0.29560 0.31077
 C83 C 0.70739 0.25544 -0.20587
 H84 H 0.70651 0.23516 -0.20578
 C85 C 0.68903 0.26927 -0.18802
 H86 H 0.67409 0.25943 -0.17426
 C87 C 0.72803 0.29268 -0.22413
 H88 H 0.74336 0.30175 -0.23800
 C89 C 0.71007 0.30727 -0.20659
 H90 H 0.71179 0.32750 -0.20744
 N91 N 0.72610 0.26725 -0.22396
 C92 C 0.74520 0.21265 -0.30141
 H93 H 0.76600 0.21180 -0.29870
 C94 C 0.73266 0.19617 -0.32314
 H95 H 0.74402 0.18277 -0.33726
 C96 C 0.70516 0.23057 -0.28511
 H97 H 0.69449 0.24390 -0.27015
 C98 C 0.69185 0.21459 -0.30671
 H99 H 0.67096 0.21576 -0.30784
 Zn100 Zn 0.74931 0.24669 -0.24855
 N101 N 0.73126 0.22866 -0.28194
 C102 C 0.75875 0.19864 -0.22150
 N103 N 0.76420 0.22347 -0.21817
 C104 C 0.77977 0.23186 -0.19316
 C105 C 0.79204 0.21484 -0.17182
 C106 C 0.77044 0.18103 -0.20069
 C107 C 0.76740 0.28261 -0.29416
 C108 C 0.78549 0.29675 -0.31208
 C109 C 0.81961 0.27580 -0.28176
 C110 C 0.80080 0.26208 -0.26449
 N111 N 0.77523 0.26592 -0.27058
 H112 H 0.74540 0.19229 -0.24041
 H113 H 0.78322 0.25177 -0.19040
 H114 H 0.80505 0.22185 -0.15280
 H115 H 0.76625 0.16134 -0.20448
 H116 H 0.74696 0.28489 -0.29911
 H117 H 0.77842 0.30996 -0.33051
 H118 H 0.83976 0.27225 -0.27608
 H119 H 0.80678 0.24813 -0.24654
 C120 C 0.70555 0.19651 -0.32525
 C121 C 0.69005 0.29559 -0.18848
 C122 C 0.81221 0.29363 -0.30604
 C123 C 0.78781 0.18897 -0.17593
 C124 C 1.22067 -0.23018 -0.19866
 H125 H 1.21687 -0.24995 -0.19505
 C126 C 1.20882 -0.21247 -0.17786
 H127 H 1.19576 -0.21882 -0.15840
 C128 C 1.24226 -0.19798 -0.22852
 H129 H 1.25568 -0.19231 -0.24779
 C130 C 1.23097 -0.17971 -0.20830
 H131 H 1.23555 -0.16019 -0.21288
 N132 N 1.23638 -0.22263 -0.22409
 C133 C 1.23290 -0.28328 -0.29776
 H134 H 1.25335 -0.28593 -0.30238
 C135 C 1.21478 -0.29736 -0.31559
 H136 H 1.22157 -0.31099 -0.33367
 C137 C 1.19944 -0.26184 -0.26903
 H138 H 1.19347 -0.24757 -0.25149
 C139 C 1.18065 -0.27553 -0.28627
 H140 H 1.16041 -0.27184 -0.28126
 Zn141 Zn 1.25106 -0.24683 -0.25329
 N142 N 1.22503 -0.26611 -0.27474
 C143 C 1.27082 -0.29257 -0.22641
 N144 N 1.27356 -0.26722 -0.22757
 C145 C 1.29241 -0.25542 -0.20983
 C146 C 1.31003 -0.26923 -0.19084
 C147 C 1.28800 -0.30712 -0.20770
 C148 C 1.25598 -0.21446 -0.30771
 C149 C 1.26880 -0.19873 -0.33021
 C150 C 1.30935 -0.21690 -0.31252
 C151 C 1.29576 -0.23214 -0.29018
 N152 N 1.26965 -0.22996 -0.28731
 H153 H 1.25538 -0.30158 -0.24004
 H154 H 1.29391 -0.23519 -0.21078
 H155 H 1.32507 -0.25942 -0.17730
 H156 H 1.28560 -0.32729 -0.20744
 H157 H 1.23516 -0.21340 -0.30519
 H158 H 1.25764 -0.18568 -0.34509
 H159 H 1.33024 -0.21822 -0.31342
 H160 H 1.30621 -0.24507 -0.27442
 C161 C 1.18821 -0.29361 -0.30992
 C162 C 1.21359 -0.18679 -0.18298
 C163 C 1.29592 -0.19930 -0.33209
 C164 C 1.30810 -0.29549 -0.18979
 C165 C 0.25532 0.21398 0.69278
 H166 H 0.23455 0.21264 0.69573
 C167 C 0.26807 0.19837 0.67007
 H168 H 0.25691 0.18514 0.65548
 C169 C 0.29506 0.23224 0.70941
 H170 H 0.30554 0.24535 0.72489
 C171 C 0.30858 0.21714 0.68683
 H172 H 0.32944 0.21876 0.68549
 N173 N 0.26902 0.22971 0.71285
 C174 C 0.22097 0.22953 0.80243
 H175 H 0.21729 0.24930 0.80626
 C176 C 0.20909 0.21176 0.82311
 H177 H 0.19620 0.21821 0.84270
 C178 C 0.24223 0.19745 0.77206
 H179 H 0.25554 0.19185 0.75262
 C180 C 0.23092 0.17908 0.79213
 H181 H 0.23550 0.15962 0.78715
 Zn182 Zn 0.25074 0.24641 0.74733
 N183 N 0.23646 0.22208 0.77674
 C184 C 0.19885 0.26112 0.73281
 N185 N 0.22432 0.26564 0.72655
 C186 C 0.23172 0.28305 0.70358
 C187 C 0.21322 0.29716 0.68643
 C188 C 0.17970 0.27481 0.71626
 C189 C 0.29267 0.25503 0.78987
 C190 C 0.31070 0.26885 0.80823
 C191 C 0.28851 0.30676 0.79188
 C192 C 0.27092 0.29220 0.77378
 N193 N 0.27356 0.26684 0.77263
 H194 H 0.19322 0.24665 0.75026
 H195 H 0.25208 0.28591 0.69849
 H196 H 0.21963 0.31099 0.66839
 H197 H 0.15957 0.27091 0.72172
 H198 H 0.29411 0.23480 0.78892
 H199 H 0.32596 0.25903 0.82132
 H200 H 0.28622 0.32693 0.79209
 H201 H 0.25529 0.30122 0.76056
 C202 C 0.21352 0.18600 0.81763
 C203 C 0.29516 0.19932 0.66762
 C204 C 0.30892 0.29512 0.80916
 C205 C 0.18677 0.29317 0.69272
 C206 C 0.76533 0.71797 0.70644
 H207 H 0.74480 0.71583 0.70203
 C208 C 0.78304 0.70393 0.68778
 H209 H 0.77587 0.69086 0.66926
 C210 C 0.79941 0.73804 0.73553
 H211 H 0.80580 0.75177 0.75354
 C212 C 0.81780 0.72438 0.71745
 H213 H 0.83814 0.72754 0.72231
 N214 N 0.77370 0.73441 0.73007
 C215 C 0.70694 0.74465 0.79662
 H216 H 0.70594 0.76491 0.79677
 C217 C 0.68903 0.73068 0.81509
 H218 H 0.67436 0.74056 0.82929
 C219 C 0.72750 0.70758 0.77776
 H220 H 0.74267 0.69864 0.76345
 C221 C 0.71003 0.69284 0.79588
 H222 H 0.71207 0.67264 0.79489
 Zn223 Zn 0.74824 0.75362 0.75292
 N224 N 0.72539 0.73298 0.77798
 C225 C 0.70365 0.77035 0.71764
 N226 N 0.72983 0.77182 0.72008
 C227 C 0.74375 0.78755 0.70019
 C228 C 0.73119 0.80414 0.67865
 C229 C 0.69030 0.78648 0.69628
 C230 C 0.77955 0.76825 0.80764
 C231 C 0.79203 0.78522 0.82886
 C232 C 0.77004 0.81909 0.80064
 C233 C 0.75815 0.80154 0.77994
 N234 N 0.76365 0.77670 0.78302
 H235 H 0.69297 0.75726 0.73299
 H236 H 0.76461 0.78806 0.70235
 H237 H 0.74259 0.81728 0.66414
 H238 H 0.66938 0.78565 0.69569
 H239 H 0.78304 0.74834 0.81021
 H240 H 0.80526 0.77817 0.84760
 H241 H 0.76577 0.83878 0.79707
 H242 H 0.74458 0.80793 0.76133
 C243 C 0.69019 0.70430 0.81472
 C244 C 0.80972 0.70699 0.69321
 C245 C 0.78768 0.81109 0.82504
 C246 C 0.70405 0.80423 0.67723
 C247 C 0.75565 0.21411 0.19175
 H248 H 0.73488 0.21277 0.19467
 C249 C 0.76843 0.19850 0.16906
 H250 H 0.75728 0.18527 0.15444
 C251 C 0.79538 0.23236 0.20845
 H252 H 0.80584 0.24547 0.22396
 C253 C 0.80892 0.21728 0.18589
 H254 H 0.82978 0.21889 0.18459
 N255 N 0.76934 0.22982 0.21185
 C256 C 0.72124 0.22979 0.30136
 H257 H 0.71755 0.24957 0.30512
 C258 C 0.70942 0.21206 0.32218
 H259 H 0.69652 0.21840 0.34181
 C260 C 0.74242 0.19761 0.27104
 H261 H 0.75567 0.19195 0.25156
 C262 C 0.73116 0.17931 0.29126
 H263 H 0.73557 0.15979 0.28648
 Zn264 Zn 0.75102 0.24654 0.24626
 N265 N 0.73669 0.22227 0.27567
 C266 C 0.69919 0.26130 0.23157
 N267 N 0.72468 0.26577 0.22539
 C268 C 0.73216 0.28312 0.20238
 C269 C 0.71373 0.29720 0.18509
 C270 C 0.68010 0.27497 0.21488
 C271 C 0.79284 0.25510 0.28894
 C272 C 0.81081 0.26887 0.30742
 C273 C 0.78874 0.30682 0.29098
 C274 C 0.77120 0.29230 0.27276
 N275 N 0.77380 0.26694 0.27160
 H276 H 0.69351 0.24688 0.24906
 H277 H 0.75253 0.28594 0.19736
 H278 H 0.72020 0.31098 0.16702
 H279 H 0.65995 0.27110 0.22027
 H280 H 0.79425 0.23487 0.28798
 H281 H 0.82601 0.25902 0.32059
 H282 H 0.78647 0.32700 0.29121
 H283 H 0.75562 0.30136 0.25946
 C284 C 0.71396 0.18638 0.31679
 C285 C 0.79552 0.19945 0.16666
 C286 C 0.80907 0.29515 0.30838
 C287 C 0.68725 0.29325 0.19128
 C288 C 0.26608 0.71865 0.20708
 H289 H 0.24552 0.71659 0.20289
 C290 C 0.28362 0.70456 0.18824
 H291 H 0.27628 0.69152 0.16979
 C292 C 0.30041 0.73859 0.23584
 H293 H 0.30696 0.75229 0.25381
 C294 C 0.31864 0.72486 0.21757
 H295 H 0.33902 0.72794 0.22223
 N296 N 0.27465 0.73506 0.23063
 C297 C 0.20821 0.74529 0.29780
 H298 H 0.20713 0.76555 0.29793
 C299 C 0.19043 0.73125 0.31637
 H300 H 0.17570 0.74093 0.33071
 C301 C 0.22885 0.70826 0.27883
 H302 H 0.24399 0.69936 0.26443
 C303 C 0.21150 0.69348 0.29709
 H304 H 0.21345 0.67328 0.29621
 Zn305 Zn 0.24934 0.75431 0.25372
 N306 N 0.22666 0.73367 0.27905
 C307 C 0.20454 0.77103 0.21881
 N308 N 0.23074 0.77246 0.22100
 C309 C 0.24458 0.78812 0.20091
 C310 C 0.23193 0.80466 0.17939
 C311 C 0.19111 0.78712 0.19748
 C312 C 0.28103 0.76918 0.30802
 C313 C 0.29361 0.78623 0.32902
 C314 C 0.27123 0.81995 0.30095
 C315 C 0.25927 0.80228 0.28051
 N316 N 0.26492 0.77749 0.28358
 H317 H 0.19393 0.75801 0.23432
 H318 H 0.26545 0.78861 0.20289
 H319 H 0.24328 0.81773 0.16470
 H320 H 0.17018 0.78632 0.19707
 H321 H 0.28459 0.74928 0.31065
 H322 H 0.30691 0.77898 0.34757
 H323 H 0.26654 0.83954 0.29715
 H324 H 0.24548 0.80854 0.26209
 C325 C 0.19177 0.70494 0.31596
 C326 C 0.31034 0.70751 0.19341
 C327 C 0.28930 0.81223 0.32523
 C328 C 0.20479 0.80479 0.17819
 O329 O 1.03776 0.04467 0.05928
 O330 O 1.06680 0.02195 0.02795
 C331 C 1.06112 0.03870 0.05038
 O332 O 0.96603 -0.04657 0.05563
 O333 O 0.93702 -0.02249 0.02638
 C334 C 0.94271 -0.04059 0.04682
 O335 O 1.03773 -0.04353 0.05990
 O336 O 1.06679 -0.02104 0.02828
 C337 C 1.06109 -0.03762 0.05095
 O338 O 0.96603 0.04766 0.05492
 O339 O 0.93703 0.02327 0.02607
 C340 C 0.94271 0.04156 0.04620
 Zr341 Zr 1.00183 0.03167 0.04132
 O342 O 1.00054 0.02702 0.09381
 O343 O 1.00285 0.07108 0.04687
 Zr344 Zr 1.00182 -0.03070 0.04173
 O345 O 1.00055 -0.02567 0.09416
 O346 O 1.00276 -0.07008 0.04780
 O347 O 1.02532 0.00052 0.04799
 O348 O 0.97860 0.00050 0.04751
 O349 O 0.96618 0.04655 -0.05866
 O350 O 0.93718 0.02276 -0.02878
 C351 C 0.94285 0.04058 -0.04965
 O352 O 1.03817 -0.04370 -0.06152
 O353 O 1.06694 -0.02110 -0.02980
 C354 C 1.06146 -0.03769 -0.05248
 O355 O 0.96617 -0.04627 -0.05819
 O356 O 0.93717 -0.02235 -0.02852
 C357 C 0.94285 -0.04027 -0.04923
 O358 O 1.03818 0.04400 -0.06204
 O359 O 1.06695 0.02159 -0.03009
 C360 C 1.06147 0.03806 -0.05292
 Zr361 Zr 1.00212 0.03151 -0.04349
 O362 O 1.00099 0.02798 -0.09614
 O363 O 1.00440 0.07110 -0.04621
 Zr364 Zr 1.00209 -0.03121 -0.04305
 O365 O 0.99962 -0.03005 -0.09593
 O366 O 1.00462 -0.07082 -0.04401
 Zr367 Zr 1.04083 0.00034 -0.00091
 Zr368 Zr 0.96301 0.00031 -0.00103
 O369 O 0.97918 0.00015 -0.04938
 O370 O 1.02549 0.00016 -0.04972
 O371 O 0.97916 0.03665 -0.00120
 O372 O 1.02435 -0.03573 -0.00061
 O373 O 1.02436 0.03639 -0.00110
 O374 O 0.97912 -0.03603 -0.00070
 H375 H 0.96635 0.00057 0.06664
 H376 H 1.03577 -0.05064 -0.00061
 H377 H 0.96731 0.00008 -0.06883
 H378 H 1.03573 0.05134 -0.00130
 H379 H 1.00601 -0.07734 0.02545
 H380 H 0.99157 -0.07738 -0.02809
 H381 H 1.01381 -0.01917 -0.10411
 H382 H 1.00089 0.04531 -0.10509
 H383 H 0.99218 0.07791 -0.02942
 H384 H 1.00564 0.07817 0.02432
 H385 H 0.99978 0.04416 0.10334
 H386 H 0.99980 -0.04272 0.10393
 O387 O 0.95300 0.46452 0.44154
 O388 O 0.97595 0.43633 0.47324
 C389 C 0.95909 0.44186 0.45030
 O390 O 1.04691 0.53399 0.44614
 O391 O 1.02184 0.56230 0.47496
 C392 C 1.04051 0.55668 0.45441
 O393 O 1.04404 0.46452 0.44228
 O394 O 1.02062 0.43633 0.47358
 C395 C 1.03781 0.44186 0.45094
 O396 O 0.95013 0.53398 0.44539
 O397 O 0.97484 0.56230 0.47458
 C398 C 0.95645 0.55667 0.45373
 Zr399 Zr 0.96622 0.49933 0.45983
 O400 O 0.97148 0.50027 0.40738
 O401 O 0.92558 0.49845 0.45405
 Zr402 Zr 1.03060 0.49933 0.46033
 O403 O 1.02602 0.50026 0.40780
 O404 O 1.07132 0.49850 0.45515
 O405 O 0.99844 0.47653 0.45367
 O406 O 0.99846 0.52178 0.45402
 O407 O 0.95024 0.53421 0.55996
 O408 O 0.97482 0.56236 0.53018
 C409 C 0.95656 0.55685 0.55135
 O410 O 1.04270 0.46453 0.56417
 O411 O 1.02008 0.43637 0.53201
 C412 C 1.03668 0.44187 0.55526
 O413 O 1.04517 0.53420 0.56091
 O414 O 1.02115 0.56235 0.53053
 C415 C 1.03906 0.55684 0.55207
 O416 O 0.95262 0.46452 0.56333
 O417 O 0.97573 0.43635 0.53165
 C418 C 0.95880 0.44186 0.55460
 Zr419 Zr 0.96550 0.49933 0.54447
 O420 O 0.96822 0.50051 0.59722
 O421 O 0.92461 0.49715 0.54592
 Zr422 Zr 1.03023 0.49935 0.54496
 O423 O 1.02902 0.50177 0.59784
 O424 O 1.07112 0.49695 0.54569
 Zr425 Zr 0.99811 0.46152 0.50254
 Zr426 Zr 0.99814 0.53717 0.50245
 O427 O 0.99781 0.52152 0.55078
 O428 O 0.99779 0.47670 0.55123
 O429 O 0.96063 0.52155 0.50213
 O430 O 1.03532 0.47755 0.50274
 O431 O 0.96093 0.47754 0.50216
 O432 O 1.03566 0.52158 0.50270
 H433 H 0.99859 0.53348 0.43474
 H434 H 1.05066 0.46643 0.50302
 H435 H 0.99768 0.53293 0.57036
 H436 H 0.94554 0.46647 0.50220
 H437 H 1.07848 0.49531 0.47764
 H438 H 1.07792 0.51037 0.53098
 H439 H 1.01668 0.48890 0.60588
 H440 H 0.95020 0.50062 0.60575
 H441 H 0.91788 0.50975 0.52998
 H442 H 0.91813 0.49555 0.47650
 H443 H 0.95389 0.50099 0.39762
 H444 H 1.04373 0.50099 0.39831
 O445 O 0.53722 0.04468 0.55916
 O446 O 0.56623 0.02188 0.52791
 C447 C 0.56057 0.03869 0.55026
 O448 O 0.46543 -0.04657 0.55584
 O449 O 0.43643 -0.02251 0.52654
 C450 C 0.44211 -0.04059 0.54700
 O451 O 0.53715 -0.04354 0.56007
 O452 O 0.56620 -0.02112 0.52836
 C453 C 0.56051 -0.03766 0.55107
 O454 O 0.46548 0.04766 0.55488
 O455 O 0.43645 0.02325 0.52612
 C456 C 0.44215 0.04156 0.54621
 Zr457 Zr 0.50127 0.03164 0.54129
 O458 O 0.50002 0.02708 0.59380
 O459 O 0.50228 0.07107 0.54672
 Zr460 Zr 0.50122 -0.03073 0.54190
 O461 O 0.49997 -0.02560 0.59432
 O462 O 0.50216 -0.07009 0.54810
 O463 O 0.52474 0.00049 0.54804
 O464 O 0.47802 0.00049 0.54759
 O465 O 0.46559 0.04637 0.44131
 O466 O 0.43658 0.02264 0.47126
 C467 C 0.44226 0.04043 0.45035
 O468 O 0.53753 -0.04393 0.43866
 O469 O 0.56633 -0.02129 0.47028
 C470 C 0.56082 -0.03791 0.44767
 O471 O 0.46555 -0.04645 0.44203
 O472 O 0.43655 -0.02249 0.47164
 C473 C 0.44223 -0.04044 0.45097
 O474 O 0.53759 0.04377 0.43787
 O475 O 0.56635 0.02140 0.46988
 C476 C 0.56088 0.03782 0.44700
 Zr477 Zr 0.50152 0.03134 0.45648
 O478 O 0.50036 0.02772 0.40384
 O479 O 0.50382 0.07092 0.45363
 Zr480 Zr 0.50146 -0.03138 0.45711
 O481 O 0.49899 -0.03031 0.40424
 O482 O 0.50398 -0.07100 0.45630
 Zr483 Zr 0.54024 0.00022 0.49913
 Zr484 Zr 0.46241 0.00022 0.49906
 O485 O 0.47857 -0.00002 0.45070
 O486 O 0.52488 -0.00004 0.45033
 O487 O 0.47858 0.03655 0.49877
 O488 O 0.52374 -0.03584 0.49956
 O489 O 0.52378 0.03628 0.49884
 O490 O 0.47851 -0.03612 0.49950
 H491 H 0.46578 0.00060 0.56673
 H492 H 0.53515 -0.05076 0.49960
 H493 H 0.46668 -0.00012 0.43126
 H494 H 0.53516 0.05123 0.49857
 H495 H 0.50538 -0.07739 0.52577
 H496 H 0.49092 -0.07752 0.47224
 H497 H 0.51318 -0.01945 0.39601
 H498 H 0.50027 0.04503 0.39484
 H499 H 0.49164 0.07776 0.47044
 H500 H 0.50517 0.07812 0.52417
 H501 H 0.49927 0.04423 0.60328
 H502 H 0.49921 -0.04264 0.60413
 O503 O 0.54366 0.46489 0.06274
 O504 O 0.52064 0.43680 0.03095
 C505 C 0.53751 0.44225 0.05390
 O506 O 0.44977 0.53439 0.05854
 O507 O 0.47486 0.56265 0.02962
 C508 C 0.45628 0.55707 0.05031
 O509 O 0.45260 0.46480 0.06236
 O510 O 0.47598 0.43676 0.03081
 C511 C 0.45892 0.44218 0.05364
 O512 O 0.54639 0.53445 0.05901
 O513 O 0.52161 0.56267 0.02978
 C514 C 0.53999 0.55712 0.05064
 Zr515 Zr 0.53038 0.49972 0.04454
 O516 O 0.52518 0.50056 0.09700
 O517 O 0.57104 0.49907 0.05023
 Zr518 Zr 0.46593 0.49967 0.04422
 O519 O 0.47060 0.50057 0.09673
 O520 O 0.42523 0.49882 0.04949
 O521 O 0.49815 0.47691 0.05073
 O522 O 0.49812 0.52212 0.05040
 O523 O 0.54624 0.53454 -0.05564
 O524 O 0.52175 0.56272 -0.02581
 C525 C 0.54002 0.55718 -0.04696
 O526 O 0.45343 0.46472 -0.05899
 O527 O 0.47620 0.43657 -0.02700
 C528 C 0.45945 0.44207 -0.05009
 O529 O 0.45103 0.53447 -0.05611
 O530 O 0.47521 0.56269 -0.02605
 C531 C 0.45717 0.55712 -0.04740
 O532 O 0.54373 0.46478 -0.05874
 O533 O 0.52031 0.43657 -0.02746
 C534 C 0.53742 0.44210 -0.05020
 Zr535 Zr 0.53095 0.49974 -0.04017
 O536 O 0.53019 0.50264 -0.09303
 O537 O 0.57183 0.49732 -0.04080
 Zr538 Zr 0.46615 0.49969 -0.04044
 O539 O 0.46747 0.50254 -0.09330
 O540 O 0.42528 0.49722 -0.04150
 Zr541 Zr 0.49841 0.46198 0.00181
 Zr542 Zr 0.49835 0.53752 0.00195
 O543 O 0.49857 0.52185 -0.04637
 O544 O 0.49859 0.47710 -0.04698
 O545 O 0.53588 0.52196 0.00220
 O546 O 0.46117 0.47793 0.00183
 O547 O 0.53562 0.47797 0.00214
 O548 O 0.46081 0.52192 0.00185
 H549 H 0.49803 0.53378 0.06972
 H550 H 0.44580 0.46683 0.00171
 H551 H 0.49867 0.53331 -0.06590
 H552 H 0.55094 0.46683 0.00204
 H553 H 0.41802 0.49560 0.02703
 H554 H 0.41843 0.51031 -0.02631
 H555 H 0.47653 0.48754 -0.10196
 H556 H 0.52097 0.48777 -0.10180
 H557 H 0.57850 0.51026 -0.02529
 H558 H 0.57847 0.49518 0.02803
 H559 H 0.54277 0.50135 0.10673
 H560 H 0.45290 0.50131 0.10627
 N561 N 1.15271 0.15903 0.13957
 C562 C 1.16548 0.13923 0.12623
 N563 N 1.19164 0.13838 0.12826
 N564 N 1.20457 0.15675 0.14351
 C565 C 1.19180 0.17655 0.15727
 N566 N 1.16561 0.17733 0.15482
 C567 C 1.15107 0.11892 0.11201
 C568 C 1.13731 0.10257 0.10129
 C569 C 1.11888 0.08443 0.08988
 N570 N 1.12475 0.06779 0.06530
 N571 N 1.10661 0.05238 0.05340
 C572 C 1.08209 0.05317 0.06573
 N573 N 1.07646 0.06968 0.09052
 N574 N 1.09454 0.08500 0.10243
 N575 N 1.15860 0.66058 0.63211
 C576 C 1.13302 0.66345 0.63857
 N577 N 1.12544 0.68054 0.66171
 N578 N 1.14293 0.69437 0.67783
 C579 C 1.16864 0.69152 0.67153
 N580 N 1.17607 0.67439 0.64823
 C581 C 1.11447 0.64730 0.62271
 C582 C 1.09968 0.63266 0.60993
 C583 C 1.08326 0.61378 0.59561
 N584 N 1.08652 0.58952 0.60465
 N585 N 1.07213 0.57158 0.59095
 C586 C 1.05392 0.57721 0.56771
 N587 N 1.05056 0.60158 0.55870
 N588 N 1.06503 0.61958 0.57244
 N589 N 0.69124 0.13875 0.62694
 C590 C 0.66508 0.13963 0.62490
 N591 N 0.65236 0.15957 0.63796
 N592 N 0.66531 0.17797 0.65294
 C593 C 0.69150 0.17715 0.65540
 N594 N 0.70421 0.15721 0.64192
 C595 C 0.65061 0.11924 0.61096
 C596 C 0.63682 0.10283 0.60046
 C597 C 0.61837 0.08462 0.58927
 N598 N 0.59405 0.08523 0.60188
 N599 N 0.57597 0.06985 0.59015
 C600 C 0.58156 0.05323 0.56547
 N601 N 0.60607 0.05239 0.55308
 N602 N 0.62421 0.06787 0.56481
 N603 N 0.65962 0.66094 0.13093
 C604 C 0.63400 0.66373 0.13719
 N605 N 0.62626 0.68073 0.16036
 N606 N 0.64364 0.69455 0.17670
 C607 C 0.66939 0.69178 0.17062
 N608 N 0.67698 0.67474 0.14728
 C609 C 0.61558 0.64757 0.12110
 C610 C 0.60088 0.63291 0.10817
 C611 C 0.58456 0.61400 0.09373
 N612 N 0.58837 0.58966 0.10197
 N613 N 0.57392 0.57173 0.08834
 C614 C 0.55511 0.57745 0.06596
 N615 N 0.55121 0.60190 0.05773
 N616 N 0.56573 0.61989 0.07140
 N617 N 0.85022 -0.16313 0.13096
 C618 C 0.83772 -0.14346 0.11693
 N619 N 0.81155 -0.14244 0.11858
 N620 N 0.79834 -0.16051 0.13413
 C621 C 0.81082 -0.18016 0.14861
 N622 N 0.83703 -0.18114 0.14651
 C623 C 0.85243 -0.12329 0.10275
 C624 C 0.86639 -0.10696 0.09234
 C625 C 0.88506 -0.08875 0.08167
 N626 N 0.87908 -0.07063 0.05911
 N627 N 0.89722 -0.05463 0.04852
 C628 C 0.92184 -0.05630 0.06024
 N629 N 0.92758 -0.07436 0.08295
 N630 N 0.90951 -0.09025 0.09352
 N631 N 0.87342 0.31839 0.66717
 C632 C 0.86592 0.33556 0.64416
 N633 N 0.84036 0.33844 0.63776
 N634 N 0.82284 0.32458 0.65383
 C635 C 0.83012 0.30734 0.67711
 N636 N 0.85588 0.30452 0.68324
 C637 C 0.88453 0.35168 0.62823
 C638 C 0.89939 0.36625 0.61533
 C639 C 0.91589 0.38500 0.60070
 N640 N 0.91343 0.40919 0.61050
 N641 N 0.92757 0.42708 0.59616
 C642 C 0.94473 0.42147 0.57149
 N643 N 0.94733 0.39716 0.56178
 N644 N 0.93311 0.37921 0.57616
 N645 N 0.34959 -0.16354 0.62995
 C646 C 0.33710 -0.14372 0.61627
 N647 N 0.31094 -0.14261 0.61820
 N648 N 0.29774 -0.16072 0.63367
 C649 C 0.31022 -0.18051 0.64780
 N650 N 0.33641 -0.18159 0.64543
 C651 C 0.35181 -0.12349 0.60228
 C652 C 0.36578 -0.10711 0.59204
 C653 C 0.38444 -0.08884 0.58155
 N654 N 0.37850 -0.07071 0.55898
 N655 N 0.39665 -0.05467 0.54852
 C656 C 0.42123 -0.05631 0.56037
 N657 N 0.42692 -0.07437 0.58310
 N658 N 0.40885 -0.09030 0.59355
 N659 N 0.37467 0.31867 0.16724
 C660 C 0.36700 0.33535 0.14366
 N661 N 0.34143 0.33775 0.13697
 N662 N 0.32405 0.32391 0.15330
 C663 C 0.33156 0.30719 0.17705
 N664 N 0.35726 0.30480 0.18357
 C665 C 0.38543 0.35153 0.12751
 C666 C 0.40011 0.36619 0.11445
 C667 C 0.41636 0.38507 0.09969
 N668 N 0.41356 0.40927 0.10926
 N669 N 0.42754 0.42725 0.09488
 C670 C 0.44488 0.42172 0.07039
 N671 N 0.44782 0.39741 0.06090
 N672 N 0.43376 0.37936 0.07532
 N673 N 0.83521 0.16075 -0.11792
 C674 C 0.83150 0.13590 -0.12324
 N675 N 0.81289 0.12844 -0.14486
 N676 N 0.79853 0.14533 -0.16085
 C677 C 0.80230 0.17030 -0.15591
 N678 N 0.82083 0.17765 -0.13392
 C679 C 0.84875 0.11788 -0.10880
 C680 C 0.86421 0.10312 -0.09788
 C681 C 0.88385 0.08634 -0.08615
 N682 N 0.87824 0.06766 -0.06423
 N683 N 0.89692 0.05261 -0.05301
 C684 C 0.92176 0.05575 -0.06347
 N685 N 0.92720 0.07439 -0.08552
 N686 N 0.90856 0.08938 -0.09671
 N687 N 0.86369 0.68628 0.36371
 C688 C 0.86147 0.66095 0.36437
 N689 N 0.84166 0.64993 0.34777
 N690 N 0.82460 0.66374 0.33097
 C691 C 0.82670 0.68914 0.33011
 N692 N 0.84659 0.70011 0.34689
 C693 C 0.88000 0.64568 0.38174
 C694 C 0.89482 0.63153 0.39540
 C695 C 0.91129 0.61293 0.41029
 N696 N 0.90777 0.58852 0.40223
 N697 N 0.92242 0.57083 0.41600
 C698 C 0.94117 0.57685 0.43834
 N699 N 0.94477 0.60137 0.44641
 N700 N 0.93004 0.61915 0.43258
 N701 N 0.33435 0.16063 0.38265
 C702 C 0.33096 0.13581 0.37683
 N703 N 0.31273 0.12840 0.35468
 N704 N 0.29845 0.14531 0.33862
 C705 C 0.30193 0.17033 0.34385
 N706 N 0.32006 0.17755 0.36657
 C707 C 0.34819 0.11781 0.39133
 C708 C 0.36364 0.10304 0.40225
 C709 C 0.38327 0.08625 0.41396
 N710 N 0.37767 0.06759 0.43590
 N711 N 0.39635 0.05251 0.44708
 C712 C 0.42117 0.05561 0.43656
 N713 N 0.42660 0.07423 0.41448
 N714 N 0.40798 0.08925 0.40333
 N715 N 0.36426 0.68663 -0.13743
 C716 C 0.36207 0.66130 -0.13658
 N717 N 0.34215 0.65020 -0.15286
 N718 N 0.32496 0.66394 -0.16953
 C719 C 0.32702 0.68933 -0.17058
 N720 N 0.34703 0.70039 -0.15412
 C721 C 0.38075 0.64611 -0.11937
 C722 C 0.39569 0.63201 -0.10585
 C723 C 0.41227 0.61344 -0.09111
 N724 N 0.40926 0.58911 -0.09991
 N725 N 0.42387 0.57141 -0.08612
 C726 C 0.44210 0.57734 -0.06303
 N727 N 0.44522 0.60180 -0.05424
 N728 N 0.43051 0.61958 -0.06809
 N729 N 1.19000 -0.12519 -0.15357
 C730 C 1.17177 -0.13187 -0.13086
 N731 N 1.16781 -0.15653 -0.12437
 N732 N 1.18157 -0.17400 -0.14025
 C733 C 1.19972 -0.16743 -0.16331
 N734 N 1.20376 -0.14265 -0.16944
 C735 C 1.15512 -0.11331 -0.11638
 C736 C 1.14002 -0.09827 -0.10524
 C737 C 1.12060 -0.08141 -0.09301
 N738 N 1.09605 -0.08348 -0.10440
 N739 N 1.07742 -0.06895 -0.09208
 C740 C 1.08269 -0.05175 -0.06800
 N741 N 1.10739 -0.04951 -0.05680
 N742 N 1.12608 -0.06412 -0.06913
 N743 N 1.15418 0.34918 0.34678
 C744 C 1.13436 0.33804 0.36335
 N745 N 1.13304 0.31266 0.36412
 N746 N 1.15100 0.29888 0.34870
 C747 C 1.17092 0.30997 0.33196
 N748 N 1.17211 0.33542 0.33138
 C749 C 1.11501 0.35321 0.37944
 C750 C 1.09952 0.36721 0.39220
 C751 C 1.08234 0.38559 0.40630
 N752 N 1.06517 0.37960 0.43083
 N753 N 1.05036 0.39733 0.44471
 C754 C 1.05230 0.42157 0.43446
 N755 N 1.06939 0.42734 0.40978
 N756 N 1.08410 0.40969 0.39595
 N757 N 0.68949 -0.12536 0.34669
 C758 C 0.67115 -0.13211 0.36921
 N759 N 0.66715 -0.15679 0.37553
 N760 N 0.68100 -0.17421 0.35966
 C761 C 0.69927 -0.16757 0.33680
 N762 N 0.70333 -0.14277 0.33084
 C763 C 0.65445 -0.11359 0.38371
 C764 C 0.63933 -0.09857 0.39488
 C765 C 0.61992 -0.08171 0.40714
 N766 N 0.59535 -0.08381 0.39582
 N767 N 0.57673 -0.06925 0.40814
 C768 C 0.58204 -0.05202 0.43215
 N769 N 0.60676 -0.04976 0.44329
 N770 N 0.62543 -0.06438 0.43095
 N771 N 0.65328 0.34987 -0.15583
 C772 C 0.63358 0.33863 -0.13913
 N773 N 0.63244 0.31324 -0.13830
 N774 N 0.65045 0.29955 -0.15378
 C775 C 0.67024 0.31074 -0.17064
 N776 N 0.67125 0.33620 -0.17130
 C777 C 0.61421 0.35370 -0.12290
 C778 C 0.59871 0.36762 -0.11001
 C779 C 0.58154 0.38592 -0.09571
 N780 N 0.56461 0.37989 -0.07091
 N781 N 0.54989 0.39758 -0.05679
 C782 C 0.55167 0.42183 -0.06704
 N783 N 0.56851 0.42765 -0.09200
 N784 N 0.58313 0.41004 -0.10608
 N785 N 1.19000 0.12533 -0.15459
 C786 C 1.17210 0.13201 -0.13146
 N787 N 1.16858 0.15664 -0.12445
 N788 N 1.18242 0.17409 -0.14028
 C789 C 1.20021 0.16759 -0.16387
 N790 N 1.20383 0.14278 -0.17040
 C791 C 1.15534 0.11351 -0.11700
 C792 C 1.14016 0.09851 -0.10586
 C793 C 1.12070 0.08168 -0.09359
 N794 N 1.09615 0.08374 -0.10502
 N795 N 1.07749 0.06923 -0.09266
 C796 C 1.08273 0.05208 -0.06851
 N797 N 1.10743 0.04987 -0.05727
 N798 N 1.12613 0.06444 -0.06964
 N799 N 1.13558 0.68653 0.36836
 C800 C 1.13717 0.66116 0.36769
 N801 N 1.15671 0.65019 0.35039
 N802 N 1.17409 0.66411 0.33418
 C803 C 1.17263 0.68955 0.33465
 N804 N 1.15301 0.70046 0.35213
 C805 C 1.11834 0.64581 0.38452
 C806 C 1.10325 0.63162 0.39773
 C807 C 1.08647 0.61300 0.41213
 N808 N 1.08999 0.58861 0.40393
 N809 N 1.07508 0.57090 0.41730
 C810 C 1.05604 0.57688 0.43936
 N811 N 1.05243 0.60138 0.44756
 N812 N 1.06743 0.61917 0.43414
 N813 N 0.66805 0.15618 0.37532
 C814 C 0.67170 0.13153 0.36850
 N815 N 0.68978 0.12482 0.34562
 N816 N 0.70370 0.14225 0.32989
 C817 C 0.69998 0.16703 0.33635
 N818 N 0.68197 0.17361 0.35958
 C819 C 0.65489 0.11304 0.38286
 C820 C 0.63967 0.09807 0.39396
 C821 C 0.62018 0.08127 0.40621
 N822 N 0.62558 0.06404 0.43019
 N823 N 0.60684 0.04952 0.44259
 C824 C 0.58215 0.05178 0.43136
 N825 N 0.57695 0.06892 0.40718
 N826 N 0.59564 0.08337 0.39479
 N827 N 0.63501 0.68690 -0.13353
 C828 C 0.63630 0.66152 -0.13449
 N829 N 0.65560 0.65046 -0.15209
 N830 N 0.67306 0.66428 -0.16831
 C831 C 0.67192 0.68975 -0.16760
 N832 N 0.65250 0.70074 -0.14977
 C833 C 0.61741 0.64627 -0.11760
 C834 C 0.60228 0.63215 -0.10436
 C835 C 0.58549 0.61356 -0.08993
 N836 N 0.58853 0.58925 -0.09882
 N837 N 0.57372 0.57153 -0.08529
 C838 C 0.55527 0.57743 -0.06237
 N839 N 0.55212 0.60186 -0.05350
 N840 N 0.56702 0.61966 -0.06709
 N841 N 0.81269 -0.12843 -0.14360
 C842 C 0.83153 -0.13590 -0.12233
 N843 N 0.83544 -0.16076 -0.11736
 N844 N 0.82103 -0.17765 -0.13335
 C845 C 0.80227 -0.17028 -0.15498
 N846 N 0.79830 -0.14531 -0.15957
 C847 C 0.84878 -0.11786 -0.10792
 C848 C 0.86423 -0.10307 -0.09704
 C849 C 0.88386 -0.08624 -0.08539
 N850 N 0.87824 -0.06746 -0.06364
 N851 N 0.89692 -0.05235 -0.05252
 C852 C 0.92176 -0.05552 -0.06292
 N853 N 0.92721 -0.07426 -0.08480
 N854 N 0.90859 -0.08932 -0.09589
 N855 N 0.84421 0.34937 0.34388
 C856 C 0.86427 0.33818 0.35976
 N857 N 0.86619 0.31283 0.35911
 N858 N 0.84857 0.29914 0.34300
 C859 C 0.82842 0.31028 0.32695
 N860 N 0.82663 0.33569 0.32779
 C861 C 0.88330 0.35328 0.37650
 C862 C 0.89852 0.36725 0.38977
 C863 C 0.91539 0.38563 0.40442
 N864 N 0.93217 0.37960 0.42927
 N865 N 0.94671 0.39731 0.44358
 C866 C 0.94487 0.42159 0.43347
 N867 N 0.92816 0.42741 0.40848
 N868 N 0.91373 0.40977 0.39421
 N869 N 0.31301 -0.12875 0.35494
 C870 C 0.33140 -0.13618 0.37687
 N871 N 0.33506 -0.16102 0.38221
 N872 N 0.32088 -0.17793 0.36592
 C873 C 0.30259 -0.17068 0.34344
 N874 N 0.29885 -0.14564 0.33867
 C875 C 0.34847 -0.11814 0.39162
 C876 C 0.36382 -0.10333 0.40273
 C877 C 0.38338 -0.08649 0.41456
 N878 N 0.37768 -0.06776 0.43636
 N879 N 0.39630 -0.05262 0.44758
 C880 C 0.42117 -0.05572 0.43724
 N881 N 0.42670 -0.07442 0.41532
 N882 N 0.40813 -0.08950 0.40413
 N883 N 0.36626 0.31294 -0.14057
 C884 C 0.36433 0.33829 -0.13998
 N885 N 0.34418 0.34943 -0.15573
 N886 N 0.32654 0.33571 -0.17165
 C887 C 0.32834 0.31030 -0.17243
 N888 N 0.34858 0.29921 -0.15651
 C889 C 0.38342 0.35344 -0.12342
 C890 C 0.39871 0.36742 -0.11029
 C891 C 0.41568 0.38578 -0.09578
 N892 N 0.41422 0.40987 -0.10627
 N893 N 0.42870 0.42752 -0.09209
 C894 C 0.44525 0.42176 -0.06690
 N895 N 0.44689 0.39754 -0.05651
 N896 N 0.43231 0.37982 -0.07073
 N897 N 1.19087 -0.13804 0.12895
 C898 C 1.16466 -0.13829 0.12802
 N899 N 1.15171 -0.15760 0.14239
 N900 N 1.16452 -0.17600 0.15755
 C901 C 1.19077 -0.17582 0.15887
 N902 N 1.20369 -0.15650 0.14411
 C903 C 1.15042 -0.11792 0.11364
 C904 C 1.13683 -0.10151 0.10276
 C905 C 1.11858 -0.08329 0.09115
 N906 N 1.09429 -0.08347 0.10387
 N907 N 1.07633 -0.06815 0.09175
 C908 C 1.08201 -0.05200 0.06654
 N909 N 1.10650 -0.05158 0.05403
 N910 N 1.12452 -0.06701 0.06615
 N911 N 1.12333 0.31865 0.66631
 C912 C 1.13041 0.33605 0.64331
 N913 N 1.15587 0.33926 0.63631
 N914 N 1.17371 0.32549 0.65179
 C915 C 1.16679 0.30805 0.67494
 N916 N 1.14120 0.30486 0.68178
 C917 C 1.11145 0.35203 0.62795
 C918 C 1.09635 0.36648 0.61544
 C919 C 1.07960 0.38512 0.60117
 N920 N 1.08153 0.40922 0.61153
 N921 N 1.06733 0.42706 0.59731
 C922 C 1.05061 0.42149 0.57222
 N923 N 1.04851 0.39726 0.56198
 N924 N 1.06280 0.37936 0.57623
 N925 N 0.65109 -0.15808 0.64131
 C926 C 0.66406 -0.13863 0.62735
 N927 N 0.69026 -0.13831 0.62855
 N928 N 0.70305 -0.15684 0.64359
 C929 C 0.69010 -0.17630 0.65796
 N930 N 0.66386 -0.17656 0.65636
 C931 C 0.64984 -0.11817 0.61317
 C932 C 0.63626 -0.10169 0.60245
 C933 C 0.61802 -0.08341 0.59100
 N934 N 0.62392 -0.06712 0.56601
 N935 N 0.60589 -0.05165 0.55398
 C936 C 0.58144 -0.05204 0.56660
 N937 N 0.57580 -0.06820 0.59182
 N938 N 0.59377 -0.08355 0.60384
 N939 N 0.62394 0.31877 0.16452
 C940 C 0.63110 0.33608 0.14143
 N941 N 0.65658 0.33920 0.13448
 N942 N 0.67436 0.32544 0.15009
 C943 C 0.66735 0.30810 0.17334
 N944 N 0.64174 0.30500 0.18012
 C945 C 0.61223 0.35209 0.12599
 C946 C 0.59721 0.36661 0.11345
 C947 C 0.58056 0.38534 0.09922
 N948 N 0.58286 0.40946 0.10934
 N949 N 0.56865 0.42737 0.09525
 C950 C 0.55160 0.42183 0.07054
 N951 N 0.54915 0.39758 0.06054
 N952 N 0.56343 0.37961 0.07465
 N953 N 0.84930 0.16444 0.12782
 C954 C 0.83700 0.14429 0.11471
 N955 N 0.81090 0.14271 0.11727
 N956 N 0.79757 0.16069 0.13281
 C957 C 0.80987 0.18081 0.14639
 N958 N 0.83600 0.18236 0.14337
 C959 C 0.85190 0.12418 0.10077
 C960 C 0.86603 0.10791 0.09058
 C961 C 0.88484 0.08978 0.08016
 N962 N 0.87893 0.07130 0.05810
 N963 N 0.89716 0.05531 0.04780
 C964 C 0.92180 0.05734 0.05932
 N965 N 0.92748 0.07577 0.08153
 N966 N 0.90932 0.09166 0.09181
 N967 N 0.87178 0.68037 0.66321
 C968 C 0.86373 0.66385 0.63964
 N969 N 0.83807 0.66164 0.63340
 N970 N 0.82097 0.67553 0.65015
 C971 C 0.82887 0.69208 0.67390
 N972 N 0.85466 0.69428 0.67996
 C973 C 0.88186 0.64755 0.62315
 C974 C 0.89634 0.63282 0.60991
 C975 C 0.91247 0.61385 0.59515
 N976 N 0.93118 0.61969 0.57252
 N977 N 0.94554 0.60165 0.55861
 C978 C 0.94160 0.57721 0.56691
 N979 N 0.92290 0.57155 0.58959
 N980 N 0.90861 0.58952 0.60345
 N981 N 0.34890 0.16431 0.62863
 C982 C 0.33657 0.14420 0.61544
 N983 N 0.31047 0.14264 0.61801
 N984 N 0.29716 0.16060 0.63364
 C985 C 0.30949 0.18068 0.64730
 N986 N 0.33563 0.18220 0.64427
 C987 C 0.35145 0.12412 0.60134
 C988 C 0.36555 0.10789 0.59101
 C989 C 0.38435 0.08978 0.58044
 N990 N 0.37838 0.07130 0.55840
 N991 N 0.39659 0.05533 0.54799
 C992 C 0.42127 0.05737 0.55938
 N993 N 0.42701 0.07579 0.58156
 N994 N 0.40887 0.09167 0.59195
 N995 N 0.37209 0.68062 0.16274
 C996 C 0.36382 0.66414 0.13924
 N997 N 0.33810 0.66205 0.13327
 N998 N 0.32118 0.67601 0.15021
 C999 C 0.32931 0.69252 0.17389
 N1000 N 0.35515 0.69460 0.17968
 C1001 C 0.38177 0.64779 0.12251
 C1002 C 0.39611 0.63302 0.10908
 C1003 C 0.41208 0.61402 0.09408
 N1004 N 0.43122 0.61993 0.07209
 N1005 N 0.44556 0.60190 0.05812
 C1006 C 0.44117 0.57741 0.06571
 N1007 N 0.42202 0.57167 0.08774
 N1008 N 0.40775 0.58964 0.10166
   
