data_POSCAR
  _audit_creation_date              2014-09-24
  _audit_creation_method            'ToBaCCo'
  _symmetry_space_group_name_H-M    'P1'
  _symmetry_Int_Tables_number       1
  _symmetry_cell_setting            triclinic
  loop_
  _symmetry_equiv_pos_as_xyz
 x,y,z
_cell_length_a 38.4473
_cell_length_b 36.3997
_cell_length_c 46.1676
_cell_angle_alpha 89.798900
_cell_angle_beta 89.687500
_cell_angle_gamma 115.956800
loop_
  _atom_site_label
  _atom_site_type_symbol
  _atom_site_fract_x
  _atom_site_fract_y
  _atom_site_fract_z
C1 C 0.04030 0.52400 1.30697
 C2 C 0.00627 0.50777 1.32372
 C3 C -0.03046 0.49238 1.31114
 C4 C -0.03348 0.49148 1.28052
 C5 C 0.00053 0.50894 1.26320
 C6 C 0.03750 0.52604 1.27641
 C7 C 0.07046 0.54680 1.25884
 C8 C 0.06752 0.54790 1.22893
 C9 C 0.03152 0.52817 1.21529
 C10 C -0.00241 0.50910 1.23252
 C11 C -0.06943 0.47114 1.26673
 C12 C -0.07219 0.47010 1.23675
 C13 C -0.03920 0.48997 1.21912
 C14 C -0.04159 0.48882 1.18843
 C15 C -0.00753 0.50701 1.17189
 C16 C 0.02852 0.52756 1.18485
 H17 H 0.09893 0.56317 1.26800
 H18 H 0.09392 0.56422 1.21660
 H19 H -0.09586 0.45452 1.27894
 H20 H -0.10054 0.45275 1.22762
 H21 H 0.00839 0.50716 1.34714
 H22 H -0.00917 0.50698 1.14842
 C23 C 0.55692 0.50425 1.18903
 C24 C 0.53822 0.52441 1.17487
 C25 C 0.51283 0.53618 1.18958
 C26 C 0.50571 0.52734 1.21957
 C27 C 0.52490 0.50720 1.23434
 C28 C 0.55067 0.49576 1.21899
 C29 C 0.56980 0.47645 1.23397
 C30 C 0.56358 0.46814 1.26348
 C31 C 0.53720 0.47787 1.27914
 C32 C 0.51814 0.49826 1.26446
 C33 C 0.47935 0.53714 1.23504
 C34 C 0.47288 0.52863 1.26457
 C35 C 0.49245 0.50988 1.27981
 C36 C 0.48671 0.50200 1.30992
 C37 C 0.50680 0.48337 1.32427
 C38 C 0.53116 0.47014 1.30943
 H39 H 0.59027 0.46808 1.22305
 H40 H 0.58036 0.45465 1.27391
 H41 H 0.46328 0.55135 1.22445
 H42 H 0.45231 0.53692 1.27536
 H43 H 0.54328 0.53075 1.15184
 H44 H 0.50186 0.47736 1.34735
 C45 C 0.49129 1.03840 1.18864
 C46 C 0.47086 1.00022 1.17549
 C47 C 0.44964 0.96483 1.19166
 C48 C 0.44941 0.96682 1.22222
 C49 C 0.47051 1.00476 1.23627
 C50 C 0.49191 1.04056 1.21948
 C51 C 0.51635 1.07647 1.23400
 C52 C 0.51799 1.07805 1.26404
 C53 C 0.49511 1.04389 1.28125
 C54 C 0.47173 1.00646 1.26718
 C55 C 0.43047 0.93138 1.23907
 C56 C 0.43182 0.93295 1.26910
 C57 C 0.45128 0.97022 1.28382
 C58 C 0.45394 0.97161 1.31457
 C59 C 0.47834 1.00860 1.32775
 C60 C 0.49805 1.04503 1.31199
 H61 H 0.53606 1.10342 1.22235
 H62 H 0.53889 1.10609 1.27351
 H63 H 0.41545 0.90166 1.22919
 H64 H 0.41868 0.90405 1.28049
 H65 H 0.46979 0.99810 1.15204
 H66 H 0.47938 1.00990 1.35123
 C67 C 1.04480 0.56814 0.81517
 C68 C 1.00866 0.55130 0.82939
 C69 C 0.97385 0.53446 0.81434
 C70 C 0.97429 0.53410 0.78377
 C71 C 1.01021 0.54989 0.76862
 C72 C 1.04556 0.56634 0.78428
 C73 C 1.08019 0.57654 0.76874
 C74 C 1.08061 0.57404 0.73869
 C75 C 1.04643 0.56123 0.72248
 C76 C 1.01066 0.54732 0.73779
 C77 C 0.93971 0.51676 0.76804
 C78 C 0.94017 0.51449 0.73801
 C79 C 0.97524 0.52935 0.72247
 C80 C 0.97572 0.52521 0.69207
 C81 C 1.01103 0.53906 0.67731
 C82 C 1.04667 0.55825 0.69165
 H83 H 1.10738 0.58490 0.77965
 H84 H 1.10809 0.58070 0.72844
 H85 H 0.91182 0.50405 0.77884
 H86 H 0.91261 0.50005 0.72715
 H87 H 1.00724 0.55236 0.85284
 H88 H 1.01042 0.53692 0.65387
 C89 C 0.49638 0.44894 0.68657
 C90 C 0.48065 0.47152 0.67173
 C91 C 0.46879 0.49775 0.68629
 C92 C 0.47210 0.50112 0.71679
 C93 C 0.48764 0.47793 0.73216
 C94 C 0.49981 0.45172 0.71698
 C95 C 0.51597 0.42976 0.73248
 C96 C 0.51999 0.43329 0.76239
 C97 C 0.50792 0.45887 0.77795
 C98 C 0.49191 0.48170 0.76267
 C99 C 0.46035 0.52699 0.73230
 C100 C 0.46499 0.53109 0.76219
 C101 C 0.48081 0.50883 0.77778
 C102 C 0.48655 0.51348 0.80801
 C103 C 0.50223 0.49070 0.82275
 C104 C 0.51240 0.46311 0.80830
 H105 H 0.52587 0.40975 0.72157
 H106 H 0.53324 0.41620 0.77311
 H107 H 0.44760 0.54448 0.72145
 H108 H 0.45621 0.55208 0.77295
 H109 H 0.47907 0.46987 0.64828
 H110 H 0.50589 0.49395 0.84604
 C111 C 0.45835 -0.04298 0.80766
 C112 C 0.47648 -0.00543 0.82209
 C113 C 0.49075 0.03179 0.80723
 C114 C 0.48734 0.03247 0.77690
 C115 C 0.46755 -0.00479 0.76189
 C116 C 0.45249 -0.04264 0.77723
 C117 C 0.42935 -0.07857 0.76211
 C118 C 0.42312 -0.07774 0.73253
 C119 C 0.43948 -0.04093 0.71679
 C120 C 0.46172 -0.00404 0.73158
 C121 C 0.50255 0.06952 0.76132
 C122 C 0.49801 0.07010 0.73148
 C123 C 0.47752 0.03370 0.71620
 C124 C 0.47152 0.03405 0.68602
 C125 C 0.44896 -0.00251 0.67191
 C126 C 0.43303 -0.03980 0.68678
 H127 H 0.41451 -0.10766 0.77307
 H128 H 0.40470 -0.10630 0.72223
 H129 H 0.51804 0.09848 0.77213
 H130 H 0.50995 0.09948 0.72059
 H131 H 0.48085 -0.00487 0.84532
 H132 H 0.44461 -0.00210 0.64872
 O133 O 0.37891 0.64702 0.96792
 O134 O 0.37495 0.71735 0.96629
 C135 C 0.35674 0.73917 0.96766
 O136 O 0.33035 0.73301 0.98635
 O137 O 0.26587 0.66630 0.97949
 C138 C 0.24650 0.62837 0.97484
 O139 O 0.25497 0.60154 0.98626
 O140 O 0.31735 0.60098 0.96406
 C141 C 0.35189 0.61785 0.95466
 O142 O 0.38946 0.65543 1.02613
 O143 O 0.38829 0.72659 1.02376
 C144 C 0.36755 0.73287 1.04291
 O145 O 0.33080 0.71503 1.04261
 O146 O 0.26442 0.64991 1.03678
 C147 C 0.26280 0.61770 1.04887
 O148 O 0.28163 0.59899 1.03949
 O149 O 0.34202 0.59394 1.01717
 C150 C 0.37320 0.61700 1.02980
 Cr151 Cr 0.38095 0.68558 0.99623
 Cr152 Cr 0.29884 0.68991 1.01102
 Cr153 Cr 0.30002 0.60102 1.00177
 O154 O 0.32669 0.65895 1.00300
 O155 O 0.63345 0.33156 0.96127
 O156 O 0.62974 0.25833 0.96481
 C157 C 0.65499 0.25227 0.95042
 O158 O 0.69030 0.26778 0.95740
 O159 O 0.75444 0.32891 0.97311
 C160 C 0.76231 0.36365 0.96187
 O161 O 0.74420 0.38441 0.96859
 O162 O 0.67961 0.39063 0.97681
 C163 C 0.65221 0.37012 0.95967
 O164 O 0.62468 0.33268 1.01914
 O165 O 0.62495 0.26158 1.02297
 C166 C 0.64186 0.23890 1.02678
 O167 O 0.67260 0.24410 1.01318
 O168 O 0.73589 0.30733 1.02872
 C169 C 0.75359 0.34391 1.03724
 O170 O 0.74902 0.37343 1.02604
 O171 O 0.68310 0.37671 1.03402
 C172 C 0.64661 0.35906 1.03695
 Cr173 Cr 0.63032 0.29700 0.99215
 Cr174 Cr 0.71220 0.28831 0.99321
 Cr175 Cr 0.71291 0.37909 1.00116
 O176 O 0.68521 0.32150 0.99556
 O177 O 0.68744 0.39479 0.52799
 O178 O 0.74866 0.38393 0.53858
 C179 C 0.76502 0.36146 0.54491
 O180 O 0.75749 0.32824 0.53186
 O181 O 0.68940 0.26806 0.54119
 C182 C 0.65323 0.25343 0.54546
 O183 O 0.63102 0.26177 0.52913
 O184 O 0.63583 0.33513 0.53539
 C185 C 0.65594 0.37262 0.54110
 O186 O 0.69949 0.39159 0.47093
 O187 O 0.76176 0.38194 0.48102
 C188 C 0.76684 0.35337 0.46872
 O189 O 0.74739 0.31580 0.47486
 O190 O 0.68056 0.25224 0.48404
 C191 C 0.65254 0.24967 0.46829
 O192 O 0.63680 0.27365 0.47097
 O193 O 0.63821 0.34565 0.47751
 C194 C 0.66388 0.37694 0.46493
 Cr195 Cr 0.72318 0.38572 0.50461
 Cr196 Cr 0.71762 0.29242 0.50783
 Cr197 Cr 0.63766 0.30492 0.50326
 O198 O 0.69287 0.32785 0.50501
 O199 O 0.31565 0.58886 0.51713
 O200 O 0.25438 0.60138 0.51033
 C201 C 0.24916 0.62354 0.52969
 O202 O 0.26978 0.66190 0.53114
 O203 O 0.33584 0.72771 0.53093
 C204 C 0.36151 0.72393 0.54610
 O205 O 0.37725 0.70139 0.53852
 O206 O 0.37732 0.63530 0.51780
 C207 C 0.34993 0.60189 0.52636
 O208 O 0.33553 0.60635 0.46063
 O209 O 0.27495 0.62123 0.45405
 C210 C 0.25706 0.64332 0.45477
 O211 O 0.26305 0.66987 0.47422
 O212 O 0.33167 0.73251 0.47305
 C213 C 0.36835 0.74862 0.47108
 O214 O 0.38891 0.73501 0.48489
 O215 O 0.38623 0.66749 0.46397
 C216 C 0.36823 0.63332 0.45164
 Cr217 Cr 0.29629 0.60653 0.48586
 Cr218 Cr 0.30104 0.69676 0.50208
 Cr219 Cr 0.38039 0.68393 0.50107
 O220 O 0.32595 0.66227 0.49627
 C221 C 0.46728 0.55191 0.33410
 C222 C 0.44329 0.56028 0.35343
 C223 C 0.41062 0.52767 0.36597
 C224 C 0.40207 0.48732 0.35849
 C225 C 0.42629 0.47928 0.33950
 C226 C 0.45913 0.51139 0.32737
 C227 C 0.38770 0.53580 0.38640
 C228 C 0.39740 0.57610 0.39488
 C229 C 0.42967 0.60869 0.38193
 C230 C 0.45215 0.60063 0.36112
 C231 C 0.43962 0.64886 0.39057
 C232 C 0.41881 0.65668 0.41259
 C233 C 0.38730 0.62455 0.42631
 C234 C 0.37617 0.58428 0.41679
 H235 H 0.49292 0.57669 0.32502
 H236 H 0.37720 0.46195 0.36785
 H237 H 0.41985 0.44787 0.33464
 H238 H 0.36300 0.51072 0.39627
 H239 H 0.47715 0.62567 0.35153
 H240 H 0.46411 0.67422 0.38079
 H241 H 0.42787 0.68803 0.41923
 H242 H 0.35204 0.55921 0.42720
 C243 C 0.45109 0.92870 0.35637
 C244 C 0.43048 0.89574 0.37504
 C245 C 0.39052 0.87148 0.37080
 C246 C 0.37188 0.88081 0.34790
 C247 C 0.39270 0.91358 0.32921
 C248 C 0.43273 0.93761 0.33287
 C249 C 0.36995 0.83832 0.38946
 C250 C 0.38906 0.82887 0.41207
 C251 C 0.42913 0.85319 0.41611
 C252 C 0.44948 0.88656 0.39773
 C253 C 0.44840 0.84353 0.43832
 C254 C 0.42840 0.80975 0.45619
 C255 C 0.38859 0.78516 0.45247
 C256 C 0.36895 0.79519 0.43047
 H257 H 0.48189 0.94669 0.35959
 H258 H 0.34115 0.86287 0.34449
 H259 H 0.37723 0.92074 0.31226
 H260 H 0.33927 0.81968 0.38622
 H261 H 0.48020 0.90513 0.40091
 H262 H 0.47908 0.86186 0.44170
 H263 H 0.44422 0.80290 0.47303
 H264 H 0.33832 0.77631 0.42726
 C265 C 0.08364 0.56419 0.34512
 C266 C 0.11832 0.57703 0.36036
 C267 C 0.14524 0.56182 0.35286
 C268 C 0.13759 0.53522 0.32932
 C269 C 0.10340 0.52349 0.31362
 C270 C 0.07594 0.53764 0.32147
 C271 C 0.17905 0.57311 0.36922
 C272 C 0.18645 0.59998 0.39263
 C273 C 0.16022 0.61661 0.39905
 C274 C 0.12628 0.60483 0.38306
 C275 C 0.16792 0.64426 0.42179
 C276 C 0.20049 0.65422 0.43885
 C277 C 0.22592 0.63646 0.43374
 C278 C 0.21913 0.60989 0.41014
 H279 H 0.06296 0.57571 0.35120
 H280 H 0.15788 0.52326 0.32318
 H281 H 0.09778 0.50221 0.29592
 H282 H 0.19933 0.56073 0.36392
 H283 H 0.10587 0.61700 0.38847
 H284 H 0.14831 0.65757 0.42678
 H285 H 0.20489 0.67482 0.45680
 H286 H 0.23862 0.59620 0.40584
 C287 C 0.56906 0.46662 0.35070
 C288 C 0.58482 0.44548 0.36748
 C289 C 0.57758 0.40513 0.36009
 C290 C 0.55632 0.38745 0.33509
 C291 C 0.54211 0.40940 0.31775
 C292 C 0.54804 0.44909 0.32548
 C293 C 0.59162 0.38318 0.37784
 C294 C 0.61406 0.40172 0.40224
 C295 C 0.62318 0.44298 0.40848
 C296 C 0.60792 0.46428 0.39142
 C297 C 0.64732 0.46233 0.43181
 C298 C 0.66172 0.44085 0.44923
 C299 C 0.65141 0.39942 0.44415
 C300 C 0.62760 0.37984 0.42059
 H301 H 0.57405 0.49729 0.35679
 H302 H 0.55060 0.35663 0.32897
 H303 H 0.52521 0.39478 0.29885
 H304 H 0.58527 0.35187 0.37259
 H305 H 0.61421 0.49558 0.39670
 H306 H 0.65489 0.49401 0.43669
 H307 H 0.67988 0.45623 0.46743
 H308 H 0.61983 0.34788 0.41656
 C309 C 0.54314 0.08123 0.35085
 C310 C 0.56171 0.11569 0.36838
 C311 C 0.55555 0.15074 0.36363
 C312 C 0.53178 0.15106 0.34077
 C313 C 0.51377 0.11676 0.32310
 C314 C 0.51904 0.08126 0.32793
 C315 C 0.57281 0.18458 0.38206
 C316 C 0.59648 0.18387 0.40495
 C317 C 0.60361 0.14922 0.40894
 C318 C 0.58606 0.11535 0.39076
 C319 C 0.62789 0.14875 0.43129
 C320 C 0.64444 0.18191 0.44996
 C321 C 0.63675 0.21610 0.44692
 C322 C 0.61289 0.21700 0.42413
 H323 H 0.54784 0.05435 0.35482
 H324 H 0.52660 0.17760 0.33684
 H325 H 0.49434 0.11739 0.30641
 H326 H 0.56758 0.21125 0.37872
 H327 H 0.59111 0.08858 0.39419
 H328 H 0.63380 0.12253 0.43453
 H329 H 0.66258 0.18029 0.46731
 H330 H 0.60698 0.24331 0.42139
 C331 C 0.93236 0.44987 0.35164
 C332 C 0.89995 0.43572 0.37004
 C333 C 0.87292 0.45221 0.36765
 C334 C 0.87795 0.48137 0.34611
 C335 C 0.90944 0.49402 0.32704
 C336 C 0.93701 0.47852 0.32965
 C337 C 0.84127 0.43921 0.38677
 C338 C 0.83559 0.40887 0.40754
 C339 C 0.86157 0.39088 0.40890
 C340 C 0.89394 0.40492 0.39048
 C341 C 0.85475 0.35916 0.42873
 C342 C 0.82290 0.34590 0.44746
 C343 C 0.79801 0.36483 0.44709
 C344 C 0.80434 0.39618 0.42702
 H345 H 0.95322 0.43740 0.35366
 H346 H 0.85747 0.49424 0.34391
 H347 H 0.91288 0.51681 0.31069
 H348 H 0.82094 0.45244 0.38535
 H349 H 0.91426 0.39168 0.39190
 H350 H 0.87416 0.34480 0.42988
 H351 H 0.81844 0.32178 0.46295
 H352 H 0.78485 0.41052 0.42656
 C353 C 0.56478 0.45131 1.15951
 C354 C 0.58591 0.43950 1.13986
 C355 C 0.62418 0.46729 1.13218
 C356 C 0.64077 0.50628 1.14470
 C357 C 0.61924 0.51800 1.16391
 C358 C 0.58114 0.49069 1.17121
 C359 C 0.64474 0.45606 1.11155
 C360 C 0.62717 0.41775 1.09805
 C361 C 0.58901 0.38999 1.10604
 C362 C 0.56885 0.40083 1.12709
 C363 C 0.57114 0.35208 1.09232
 C364 C 0.59033 0.34211 1.07026
 C365 C 0.62801 0.36958 1.06166
 C366 C 0.64664 0.40714 1.07611
 H367 H 0.53515 0.43047 1.16500
 H368 H 0.67001 0.52802 1.13908
 H369 H 0.63199 0.54860 1.17271
 H370 H 0.67394 0.47749 1.10546
 H371 H 0.53947 0.37959 1.13295
 H372 H 0.54199 0.33042 1.09825
 H373 H 0.57548 0.31279 1.05975
 H374 H 0.67564 0.42860 1.06962
 C375 C 0.91782 0.44099 1.15238
 C376 C 0.88404 0.42455 1.13589
 C377 C 0.85598 0.43950 1.13935
 C378 C 0.86119 0.46894 1.16054
 C379 C 0.89434 0.48411 1.17769
 C380 C 0.92320 0.47071 1.17347
 C381 C 0.82359 0.42528 1.12125
 C382 C 0.81856 0.39561 1.10026
 C383 C 0.84538 0.37874 1.09822
 C384 C 0.87817 0.39366 1.11581
 C385 C 0.83941 0.34782 1.07813
 C386 C 0.80804 0.33488 1.05936
 C387 C 0.78268 0.35324 1.06003
 C388 C 0.78763 0.38311 1.08083
 H389 H 0.93981 0.43027 1.14915
 H390 H 0.83988 0.48058 1.16362
 H391 H 0.89824 0.50763 1.19339
 H392 H 0.80262 0.43762 1.12325
 H393 H 0.89933 0.38158 1.11364
 H394 H 0.85945 0.33427 1.07652
 H395 H 0.80466 0.31191 1.04333
 H396 H 0.76781 0.39703 1.08152
 C397 C 0.53210 0.07147 1.14644
 C398 C 0.54966 0.10505 1.12763
 C399 C 0.54389 0.14039 1.13202
 C400 C 0.52128 0.14180 1.15553
 C401 C 0.50451 0.10853 1.17453
 C402 C 0.50981 0.07298 1.17036
 C403 C 0.56072 0.17365 1.11281
 C404 C 0.58387 0.17227 1.08960
 C405 C 0.59051 0.13732 1.08575
 C406 C 0.57307 0.10381 1.10461
 C407 C 0.61454 0.13647 1.06309
 C408 C 0.63168 0.16980 1.04424
 C409 C 0.62460 0.20431 1.04741
 C410 C 0.60062 0.20534 1.07021
 H411 H 0.53674 0.04449 1.14294
 H412 H 0.51637 0.16857 1.15914
 H413 H 0.48633 0.11012 1.19202
 H414 H 0.55593 0.20060 1.11598
 H415 H 0.57786 0.07685 1.10144
 H416 H 0.62007 0.11001 1.05992
 H417 H 0.64996 0.16826 1.02681
 H418 H 0.59533 0.23204 1.07303
 C419 C 0.47109 0.53650 1.14851
 C420 C 0.45644 0.55679 1.12989
 C421 C 0.46462 0.59803 1.13508
 C422 C 0.48702 0.61803 1.15915
 C423 C 0.50174 0.59760 1.17752
 C424 C 0.49396 0.55677 1.17227
 C425 C 0.45066 0.61860 1.11597
 C426 C 0.42851 0.59833 1.09183
 C427 C 0.42013 0.55692 1.08698
 C428 C 0.43421 0.53652 1.10594
 C429 C 0.39757 0.53635 1.06327
 C430 C 0.38293 0.55631 1.04465
 C431 C 0.39096 0.59743 1.04906
 C432 C 0.41420 0.61851 1.07259
 H433 H 0.46538 0.50508 1.14428
 H434 H 0.49367 0.64964 1.16349
 H435 H 0.51990 0.61385 1.19547
 H436 H 0.45704 0.65027 1.11986
 H437 H 0.42788 0.50485 1.10204
 H438 H 0.39089 0.50465 1.05928
 H439 H 0.36522 0.53944 1.02667
 H440 H 0.42022 0.65010 1.07635
 C441 C 0.08993 0.53555 1.16095
 C442 C 0.12107 0.55654 1.14197
 C443 C 0.12420 0.59245 1.12781
 C444 C 0.09645 0.60691 1.13301
 C445 C 0.06551 0.58571 1.15177
 C446 C 0.06210 0.55005 1.16575
 C447 C 0.15453 0.61290 1.10823
 C448 C 0.18140 0.59756 1.10215
 C449 C 0.17864 0.56197 1.11644
 C450 C 0.14866 0.54186 1.13651
 C451 C 0.20538 0.54657 1.10982
 C452 C 0.23367 0.56538 1.08847
 C453 C 0.23595 0.60020 1.07364
 C454 C 0.21021 0.61663 1.08119
 H455 H 0.08698 0.50781 1.17173
 H456 H 0.09843 0.63432 1.12232
 H457 H 0.04404 0.59701 1.15538
 H458 H 0.15668 0.64019 1.09720
 H459 H 0.14629 0.51435 1.14733
 H460 H 0.20381 0.51940 1.12061
 H461 H 0.25322 0.55217 1.08315
 H462 H 0.21153 0.64341 1.06994
 C463 C 0.44797 0.91005 1.15842
 C464 C 0.42776 0.87579 1.14100
 C465 C 0.38685 0.85771 1.14052
 C466 C 0.36691 0.87376 1.15804
 C467 C 0.38732 0.90795 1.17530
 C468 C 0.42791 0.92643 1.17545
 C469 C 0.36666 0.82452 1.12213
 C470 C 0.38690 0.80941 1.10404
 C471 C 0.42777 0.82707 1.10507
 C472 C 0.44789 0.85996 1.12359
 C473 C 0.44803 0.81213 1.08709
 C474 C 0.42821 0.78083 1.06758
 C475 C 0.38762 0.76359 1.06564
 C476 C 0.36706 0.77761 1.08443
 H477 H 0.47935 0.92450 1.15842
 H478 H 0.33559 0.86034 1.15799
 H479 H 0.37150 0.92055 1.18813
 H480 H 0.33532 0.81100 1.12148
 H481 H 0.47925 0.87374 1.12404
 H482 H 0.47932 0.82516 1.08773
 H483 H 0.44488 0.77057 1.05361
 H484 H 0.33580 0.76467 1.08323
 C485 C 0.54906 0.44799 0.65599
 C486 C 0.56412 0.42804 0.63751
 C487 C 0.54257 0.38581 0.63211
 C488 C 0.50650 0.36418 0.64581
 C489 C 0.49162 0.38445 0.66414
 C490 C 0.51275 0.42642 0.66907
 C491 C 0.55710 0.36618 0.61276
 C492 C 0.59269 0.38838 0.59857
 C493 C 0.61435 0.43047 0.60439
 C494 C 0.60003 0.44996 0.62391
 C495 C 0.64980 0.45263 0.59024
 C496 C 0.66342 0.43359 0.57003
 C497 C 0.64192 0.39193 0.56359
 C498 C 0.60668 0.36937 0.57828
 H499 H 0.56515 0.48051 0.65985
 H500 H 0.48960 0.33181 0.64198
 H501 H 0.46344 0.36765 0.67413
 H502 H 0.54046 0.33389 0.60838
 H503 H 0.61653 0.48233 0.62813
 H504 H 0.66679 0.48486 0.59454
 H505 H 0.69072 0.45174 0.55921
 H506 H 0.58982 0.33721 0.57363
 C507 C 0.53001 0.08975 0.66350
 C508 C 0.54705 0.12125 0.64300
 C509 C 0.52356 0.13490 0.62702
 C510 C 0.48356 0.11734 0.63228
 C511 C 0.46679 0.08554 0.65240
 C512 C 0.48982 0.07137 0.66791
 C513 C 0.54024 0.16490 0.60545
 C514 C 0.57998 0.18093 0.59931
 C515 C 0.60351 0.16775 0.61562
 C516 C 0.58696 0.13824 0.63750
 C517 C 0.64315 0.18374 0.60940
 C518 C 0.65928 0.21189 0.58684
 C519 C 0.63610 0.22468 0.57004
 C520 C 0.59643 0.20934 0.57670
 H521 H 0.54767 0.07826 0.67515
 H522 H 0.46513 0.12739 0.62025
 H523 H 0.43568 0.07127 0.65544
 H524 H 0.52216 0.17501 0.59299
 H525 H 0.60497 0.12780 0.64975
 H526 H 0.66163 0.17408 0.62174
 H527 H 0.68993 0.22327 0.58234
 H528 H 0.57821 0.21907 0.56410
 C529 C 0.92972 0.47021 0.66019
 C530 C 0.89748 0.45459 0.64186
 C531 C 0.87537 0.47664 0.63773
 C532 C 0.88546 0.51353 0.65249
 C533 C 0.91757 0.52880 0.67072
 C534 C 0.93995 0.50738 0.67457
 C535 C 0.84399 0.46185 0.61857
 C536 C 0.83450 0.42534 0.60342
 C537 C 0.85616 0.40292 0.60807
 C538 C 0.88744 0.41764 0.62726
 C539 C 0.84655 0.36640 0.59308
 C540 C 0.81638 0.35259 0.57315
 C541 C 0.79513 0.37501 0.56771
 C542 C 0.80413 0.41122 0.58331
 H543 H 0.94720 0.45382 0.66305
 H544 H 0.86886 0.53083 0.64961
 H545 H 0.92542 0.55771 0.68150
 H546 H 0.82733 0.47902 0.61515
 H547 H 0.90427 0.40062 0.63052
 H548 H 0.86273 0.34875 0.59647
 H549 H 0.81018 0.32460 0.56157
 H550 H 0.78798 0.42881 0.57948
 C551 C 0.42361 0.50402 0.65023
 C552 C 0.41415 0.52714 0.63016
 C553 C 0.43720 0.56985 0.62821
 C554 C 0.46873 0.58877 0.64682
 C555 C 0.47807 0.56543 0.66660
 C556 C 0.45576 0.52298 0.66829
 C557 C 0.42887 0.59280 0.60730
 C558 C 0.39782 0.57360 0.58831
 C559 C 0.37426 0.53106 0.59068
 C560 C 0.38261 0.50809 0.61158
 C561 C 0.34282 0.51219 0.57199
 C562 C 0.33485 0.53520 0.55106
 C563 C 0.35852 0.57734 0.54819
 C564 C 0.38999 0.59634 0.56695
 H565 H 0.40669 0.47113 0.65133
 H566 H 0.48670 0.62144 0.64560
 H567 H 0.50338 0.58029 0.68006
 H568 H 0.44678 0.62548 0.60559
 H569 H 0.36482 0.47537 0.61318
 H570 H 0.32437 0.47966 0.57358
 H571 H 0.31037 0.51995 0.53690
 H572 H 0.40806 0.62897 0.56521
 C573 C 0.42571 0.89479 0.66468
 C574 C 0.40692 0.86219 0.64565
 C575 C 0.37254 0.85781 0.63185
 C576 C 0.35705 0.88541 0.63785
 C577 C 0.37624 0.91805 0.65650
 C578 C 0.41074 0.92311 0.66976
 C579 C 0.35501 0.82693 0.61143
 C580 C 0.37196 0.80110 0.60402
 C581 C 0.40574 0.80469 0.61828
 C582 C 0.42277 0.83495 0.63931
 C583 C 0.42266 0.77892 0.61045
 C584 C 0.40740 0.75131 0.58771
 C585 C 0.37480 0.74883 0.57259
 C586 C 0.35654 0.77295 0.58158
 H587 H 0.45267 0.89914 0.67472
 H588 H 0.33075 0.88246 0.62746
 H589 H 0.36463 0.93992 0.66020
 H590 H 0.32905 0.82406 0.60048
 H591 H 0.44908 0.83824 0.64992
 H592 H 0.44842 0.78106 0.62127
 H593 H 0.42190 0.73289 0.58135
 H594 H 0.33117 0.77113 0.57032
 C595 C 0.08529 0.55349 0.65043
 C596 C 0.11770 0.57101 0.63200
 C597 C 0.14620 0.61115 0.63715
 C598 C 0.14204 0.63278 0.66093
 C599 C 0.10977 0.61508 0.67927
 C600 C 0.08090 0.57512 0.67442
 C601 C 0.17807 0.62916 0.61825
 C602 C 0.18185 0.60745 0.59429
 C603 C 0.15369 0.56699 0.58951
 C604 C 0.12181 0.54906 0.60836
 C605 C 0.15769 0.54520 0.56578
 C606 C 0.18900 0.56341 0.54668
 C607 C 0.21688 0.60390 0.55080
 C608 C 0.21317 0.62565 0.57488
 H609 H 0.06371 0.52258 0.64633
 H610 H 0.16344 0.66372 0.66508
 H611 H 0.10666 0.63342 0.69660
 H612 H 0.19974 0.66014 0.62205
 H613 H 0.10005 0.51815 0.60448
 H614 H 0.13644 0.51412 0.56186
 H615 H 0.19102 0.54589 0.52839
 H616 H 0.23454 0.65679 0.57849
 C617 C 0.43742 0.53154 0.83133
 C618 C 0.42776 0.55440 0.85151
 C619 C 0.45747 0.58777 0.86561
 C620 C 0.49627 0.59841 0.85868
 C621 C 0.50560 0.57512 0.83892
 C622 C 0.47632 0.54136 0.82543
 C623 C 0.44802 0.60894 0.88721
 C624 C 0.40930 0.59656 0.89538
 C625 C 0.37957 0.56386 0.88078
 C626 C 0.38895 0.54329 0.85871
 C627 C 0.34096 0.55136 0.88916
 C628 C 0.33195 0.56985 0.91259
 C629 C 0.36134 0.60144 0.92798
 C630 C 0.39996 0.61534 0.91869
 H631 H 0.41488 0.50506 0.82118
 H632 H 0.51939 0.62388 0.86925
 H633 H 0.53573 0.58270 0.83468
 H634 H 0.47085 0.63405 0.89836
 H635 H 0.36616 0.51776 0.84788
 H636 H 0.31779 0.52653 0.87811
 H637 H 0.30191 0.55870 0.91906
 H638 H 0.42295 0.63972 0.93026
 C639 C 0.08075 0.56607 0.85838
 C640 C 0.11272 0.58373 0.87672
 C641 C 0.14321 0.62216 0.86968
 C642 C 0.14104 0.64216 0.84419
 C643 C 0.10903 0.62426 0.82591
 C644 C 0.07847 0.58577 0.83259
 C645 C 0.17522 0.63980 0.88824
 C646 C 0.17720 0.61907 0.91351
 C647 C 0.14657 0.58042 0.92021
 C648 C 0.11454 0.56322 0.90195
 C649 C 0.14857 0.55912 0.94493
 C650 C 0.18093 0.57539 0.96265
 C651 C 0.21174 0.61363 0.95638
 C652 C 0.20950 0.63578 0.93196
 H653 H 0.05793 0.53621 0.86390
 H654 H 0.16394 0.67184 0.83851
 H655 H 0.10761 0.64125 0.80701
 H656 H 0.19866 0.66932 0.88288
 H657 H 0.09114 0.53361 0.90724
 H658 H 0.12533 0.52952 0.95034
 H659 H 0.18190 0.55791 0.98142
 H660 H 0.23331 0.66513 0.92683
 C661 C 0.42780 0.91698 0.85107
 C662 C 0.41741 0.88206 0.86840
 C663 C 0.42688 0.85045 0.85946
 C664 C 0.44613 0.85419 0.83293
 C665 C 0.45594 0.88894 0.81551
 C666 C 0.44679 0.92075 0.82429
 C667 C 0.41706 0.81582 0.87724
 C668 C 0.39740 0.81231 0.90363
 C669 C 0.38728 0.84376 0.91205
 C670 C 0.39756 0.87844 0.89453
 C671 C 0.36702 0.84018 0.93794
 C672 C 0.35690 0.80588 0.95554
 C673 C 0.36717 0.77453 0.94785
 C674 C 0.38756 0.77795 0.92178
 H675 H 0.42010 0.94089 0.85812
 H676 H 0.45386 0.83041 0.82574
 H677 H 0.47186 0.89151 0.79557
 H678 H 0.42462 0.79168 0.87055
 H679 H 0.39002 0.90261 0.90123
 H680 H 0.35900 0.86397 0.94463
 H681 H 0.34145 0.80426 0.97556
 H682 H 0.39544 0.75388 0.91555
 C683 C 0.56108 0.45950 0.84217
 C684 C 0.57387 0.43752 0.86077
 C685 C 0.55263 0.39458 0.86312
 C686 C 0.51917 0.37437 0.84654
 C687 C 0.50648 0.39659 0.82823
 C688 C 0.52733 0.43920 0.82596
 C689 C 0.56476 0.37270 0.88237
 C690 C 0.59758 0.39328 0.89954
 C691 C 0.61897 0.43615 0.89694
 C692 C 0.60711 0.45796 0.87746
 C693 C 0.65159 0.45665 0.91420
 C694 C 0.66258 0.43505 0.93428
 C695 C 0.64125 0.39248 0.93743
 C696 C 0.60896 0.37173 0.91966
 H697 H 0.57696 0.49248 0.84057
 H698 H 0.50249 0.34152 0.84810
 H699 H 0.48007 0.38067 0.81611
 H700 H 0.54832 0.33982 0.88434
 H701 H 0.62338 0.49089 0.87564
 H702 H 0.66837 0.48947 0.91241
 H703 H 0.68769 0.45185 0.94753
 H704 H 0.59224 0.33893 0.92179
 C705 C 0.92946 0.47995 0.84763
 C706 C 0.89707 0.46339 0.86608
 C707 C 0.87256 0.48300 0.86880
 C708 C 0.88068 0.51857 0.85255
 C709 C 0.91311 0.53489 0.83421
 C710 C 0.93771 0.51576 0.83177
 C711 C 0.84076 0.46702 0.88798
 C712 C 0.83323 0.43171 0.90443
 C713 C 0.85755 0.41193 0.90122
 C714 C 0.88922 0.42787 0.88212
 C715 C 0.85001 0.37659 0.91734
 C716 C 0.81892 0.36101 0.93672
 C717 C 0.79467 0.38049 0.94056
 C718 C 0.80199 0.41592 0.92417
 H719 H 0.94868 0.46539 0.84585
 H720 H 0.86226 0.53405 0.85432
 H721 H 0.91943 0.56279 0.82226
 H722 H 0.82213 0.48221 0.89026
 H723 H 0.90797 0.41279 0.87992
 H724 H 0.86832 0.36105 0.91508
 H725 H 0.81416 0.33377 0.94897
 H726 H 0.78347 0.43117 0.92677
 C727 C 0.54695 0.08556 0.83258
 C728 C 0.56225 0.11874 0.85161
 C729 C 0.53812 0.13580 0.86261
 C730 C 0.49950 0.12021 0.85370
 C731 C 0.48452 0.08709 0.83484
 C732 C 0.50799 0.06938 0.82456
 C733 C 0.55262 0.16732 0.88295
 C734 C 0.59076 0.18168 0.89273
 C735 C 0.61523 0.16553 0.88111
 C736 C 0.60088 0.13430 0.86050
 C737 C 0.65339 0.18018 0.89090
 C738 C 0.66676 0.20943 0.91276
 C739 C 0.64219 0.22454 0.92526
 C740 C 0.60442 0.21111 0.91461
 H741 H 0.56487 0.07155 0.82462
 H742 H 0.48067 0.13298 0.86183
 H743 H 0.45435 0.07458 0.82878
 H744 H 0.53391 0.17988 0.89175
 H745 H 0.61944 0.12140 0.85196
 H746 H 0.67262 0.16833 0.88211
 H747 H 0.69602 0.21932 0.92048
 H748 H 0.58527 0.22277 0.92384
   
