data_POSCAR
  _audit_creation_date              2014-09-24
  _audit_creation_method            'ToBaCCo'
  _symmetry_space_group_name_H-M    'P1'
  _symmetry_Int_Tables_number       1
  _symmetry_cell_setting            triclinic
  loop_
  _symmetry_equiv_pos_as_xyz
 x,y,z
_cell_length_a 9.9010
_cell_length_b 9.9010
_cell_length_c 17.0757
_cell_angle_alpha 89.736700
_cell_angle_beta 90.263300
_cell_angle_gamma 90.002800
loop_
  _atom_site_label
  _atom_site_type_symbol
  _atom_site_fract_x
  _atom_site_fract_y
  _atom_site_fract_z
O1 O -0.11300 0.63032 0.92414
 O2 O -0.11264 0.36571 1.07644
 O3 O -0.11267 0.63007 1.07605
 O4 O -0.11299 0.36677 0.92440
 O5 O 0.11040 0.36680 0.92484
 O6 O 0.11071 0.63007 1.07648
 O7 O 0.11070 0.36573 1.07686
 O8 O 0.11040 0.63032 0.92459
 Cu9 Cu -0.13538 0.49817 1.00031
 Cu10 Cu 0.13310 0.49818 1.00083
 C11 C -0.00135 0.67576 0.89915
 C12 C -0.00091 0.31994 1.10172
 C13 C -0.00092 0.67572 1.10114
 C14 C -0.00134 0.32169 0.89943
 O15 O 0.63426 -0.11070 0.57686
 O16 O 0.36968 -0.11040 0.42459
 O17 O 0.63320 -0.11040 0.42484
 O18 O 0.36993 -0.11071 0.57648
 O19 O 0.36993 0.11266 0.57606
 O20 O 0.63322 0.11299 0.42440
 O21 O 0.36968 0.11300 0.42414
 O22 O 0.63429 0.11264 0.57644
 Cu23 Cu 0.50182 -0.13310 0.50083
 Cu24 Cu 0.50183 0.13537 0.50031
 C25 C 0.68006 0.00091 0.60172
 C26 C 0.32424 0.00134 0.39915
 C27 C 0.67831 0.00134 0.39943
 C28 C 0.32428 0.00092 0.60114
 C29 C -0.00009 0.00118 0.24898
 C30 C -0.00118 0.00008 0.74898
 C31 C -0.00076 -0.21505 0.15599
 C32 C -0.00052 -0.11934 0.19944
 C33 C -0.00075 0.21655 0.15416
 C34 C -0.00051 0.12122 0.19841
 C35 C 0.21505 0.00076 0.65599
 C36 C 0.11933 0.00051 0.69944
 C37 C -0.21655 0.00075 0.65416
 C38 C -0.12122 0.00051 0.69841
 C39 C -0.00142 -0.21565 0.84336
 C40 C -0.00137 -0.12037 0.79913
 C41 C -0.00142 0.21401 0.84361
 C42 C -0.00137 0.11957 0.79927
 C43 C -0.21402 0.00142 0.34361
 C44 C -0.11958 0.00137 0.29927
 C45 C 0.21565 0.00142 0.34336
 C46 C 0.12037 0.00137 0.29913
   
