data_POSCAR
  _audit_creation_date              2014-09-24
  _audit_creation_method            'ToBaCCo'
  _symmetry_space_group_name_H-M    'P1'
  _symmetry_Int_Tables_number       1
  _symmetry_cell_setting            triclinic
  loop_
  _symmetry_equiv_pos_as_xyz
 x,y,z
_cell_length_a 38.3423
_cell_length_b 40.7608
_cell_length_c 38.8915
_cell_angle_alpha 86.074600
_cell_angle_beta 94.901300
_cell_angle_gamma 94.117900
loop_
  _atom_site_label
  _atom_site_type_symbol
  _atom_site_fract_x
  _atom_site_fract_y
  _atom_site_fract_z
C1 C 0.21909 0.28090 0.28091
 C2 C 0.24278 0.30189 0.25693
 C3 C 0.26172 0.28364 0.23811
 C4 C 0.25538 0.24620 0.24485
 C5 C 0.19636 0.25787 0.25724
 C6 C 0.21546 0.23976 0.23843
 C7 C 0.24371 0.25845 0.30315
 C8 C 0.26263 0.24034 0.28418
 H9 H 0.24438 0.32867 0.25494
 H10 H 0.27087 0.23141 0.22947
 H11 H 0.16786 0.25591 0.25566
 H12 H 0.24576 0.25682 0.33124
 C13 C 0.71942 0.78093 0.28120
 C14 C 0.74313 0.80187 0.25720
 C15 C 0.76202 0.78358 0.23838
 C16 C 0.75562 0.74614 0.24515
 C17 C 0.69664 0.75791 0.25755
 C18 C 0.71570 0.73976 0.23873
 C19 C 0.74400 0.75845 0.30344
 C20 C 0.76288 0.74029 0.28447
 H21 H 0.74474 0.82865 0.25517
 H22 H 0.77108 0.73132 0.22976
 H23 H 0.66814 0.75599 0.25599
 H24 H 0.74602 0.75679 0.33153
 C25 C 0.72027 0.28251 0.77995
 C26 C 0.74275 0.30245 0.75731
 C27 C 0.76262 0.28333 0.73762
 C28 C 0.75654 0.24786 0.74399
 C29 C 0.69742 0.25935 0.75637
 C30 C 0.71656 0.24120 0.73756
 C31 C 0.74467 0.25986 0.80235
 C32 C 0.76364 0.24171 0.78338
 H33 H 0.74433 0.32924 0.75532
 H34 H 0.77204 0.23299 0.72865
 H35 H 0.66892 0.25729 0.75491
 H36 H 0.74649 0.25809 0.83045
 C37 C 0.21901 0.78103 0.78061
 C38 C 0.24271 0.80198 0.75662
 C39 C 0.26164 0.78371 0.73783
 C40 C 0.25529 0.74627 0.74461
 C41 C 0.19627 0.75798 0.75697
 C42 C 0.21537 0.73983 0.73819
 C43 C 0.24361 0.75859 0.80288
 C44 C 0.26253 0.74044 0.78394
 H45 H 0.24435 0.82876 0.75464
 H46 H 0.27078 0.73145 0.72925
 H47 H 0.16777 0.75599 0.75543
 H48 H 0.24563 0.75698 0.83098
 C49 C 0.05489 0.04578 0.00968
 H50 H 0.05503 0.04843 -0.01818
 C51 C 0.07609 0.06736 0.03017
 H52 H 0.09274 0.08664 0.01813
 C53 C 0.03229 0.01805 0.05949
 H54 H 0.01466 -0.00067 0.07083
 C55 C 0.05305 0.03910 0.08091
 H56 H 0.05160 0.03626 0.10866
 N57 N 0.03374 0.02158 0.02456
 C58 C 0.01329 -0.05245 -0.05202
 H59 H -0.01508 -0.05453 -0.05397
 C60 C 0.03163 -0.07208 -0.07131
 H61 H 0.01739 -0.08928 -0.08831
 C62 C 0.06665 -0.02783 -0.02715
 H63 H 0.08022 -0.01094 -0.00954
 C64 C 0.08599 -0.04701 -0.04597
 H65 H 0.11440 -0.04459 -0.04305
 Zn66 Zn 0.00416 -0.00533 -0.00508
 N67 N 0.03095 -0.03060 -0.03078
 C68 C -0.02350 0.02332 -0.06988
 N69 N -0.02330 0.02321 -0.03484
 C70 C -0.04197 0.04455 -0.01962
 C71 C -0.06258 0.06660 -0.03979
 C72 C -0.04379 0.04501 -0.09104
 C73 C -0.00951 -0.05818 0.04299
 C74 C -0.02975 -0.08013 0.06357
 C75 C -0.08175 -0.05511 0.03766
 C76 C -0.06057 -0.03360 0.01759
 N77 N -0.02507 -0.03509 0.02105
 H78 H -0.00786 0.00675 -0.08150
 H79 H -0.04089 0.04429 0.00829
 H80 H -0.07755 0.08334 -0.02744
 H81 H -0.04400 0.04488 -0.11890
 H82 H 0.01872 -0.05913 0.04484
 H83 H -0.01712 -0.09802 0.08145
 H84 H -0.10994 -0.05342 0.03517
 H85 H -0.07256 -0.01569 -0.00056
 C86 C 0.06831 -0.06925 -0.06831
 C87 C 0.07510 0.06399 0.06610
 C88 C -0.06617 -0.07837 0.06106
 C89 C -0.06359 0.06675 -0.07582
 C90 C 0.05466 0.54487 0.51053
 H91 H 0.05474 0.54749 0.48266
 C92 C 0.07585 0.56651 0.53094
 H93 H 0.09245 0.58580 0.51883
 C94 C 0.03220 0.51717 0.56042
 H95 H 0.01463 0.49843 0.57182
 C96 C 0.05297 0.53829 0.58177
 H97 H 0.05157 0.53549 0.60953
 N98 N 0.03358 0.52066 0.52548
 C99 C 0.01315 0.44658 0.44894
 H100 H -0.01523 0.44446 0.44700
 C101 C 0.03151 0.42701 0.42959
 H102 H 0.01728 0.40982 0.41257
 C103 C 0.06649 0.47126 0.47379
 H104 H 0.08005 0.48815 0.49140
 C105 C 0.08585 0.45214 0.45492
 H106 H 0.11425 0.45461 0.45780
 Zn107 Zn 0.00399 0.49369 0.49589
 N108 N 0.03079 0.46844 0.47018
 C109 C -0.02373 0.52231 0.43110
 N110 N -0.02351 0.52221 0.46614
 C111 C -0.04216 0.54355 0.48138
 C112 C -0.06280 0.56559 0.46121
 C113 C -0.04405 0.54400 0.40995
 C114 C -0.00966 0.44090 0.54406
 C115 C -0.02990 0.41894 0.56464
 C116 C -0.08191 0.44390 0.53863
 C117 C -0.06071 0.46540 0.51856
 N118 N -0.02521 0.46395 0.52207
 H119 H -0.00810 0.50575 0.41947
 H120 H -0.04105 0.54329 0.50929
 H121 H -0.07776 0.58232 0.47358
 H122 H -0.04428 0.54385 0.38209
 H123 H 0.01857 0.43996 0.54595
 H124 H -0.01728 0.40108 0.58257
 H125 H -0.11010 0.44556 0.53609
 H126 H -0.07270 0.48328 0.50036
 C127 C 0.06818 0.42991 0.43255
 C128 C 0.07494 0.56319 0.56688
 C129 C -0.06634 0.42068 0.56208
 C130 C -0.06383 0.56573 0.42519
 C131 C 0.55580 0.04602 0.51018
 H132 H 0.55587 0.04861 0.48231
 C133 C 0.57704 0.06764 0.53058
 H134 H 0.59366 0.08689 0.51845
 C135 C 0.53332 0.01839 0.56010
 H136 H 0.51572 -0.00032 0.57151
 C137 C 0.55413 0.03949 0.58142
 H138 H 0.55274 0.03671 0.60919
 N139 N 0.53468 0.02184 0.52516
 C140 C 0.51407 -0.05232 0.44874
 H141 H 0.48569 -0.05439 0.44683
 C142 C 0.53237 -0.07200 0.42945
 H143 H 0.51809 -0.08922 0.41250
 C144 C 0.56747 -0.02768 0.47350
 H145 H 0.58108 -0.01077 0.49106
 C146 C 0.58677 -0.04691 0.45468
 H147 H 0.61518 -0.04450 0.45756
 Zn148 Zn 0.50504 -0.00511 0.49560
 N149 N 0.53177 -0.03044 0.46992
 C150 C 0.47725 0.02342 0.43079
 N151 N 0.47756 0.02341 0.46583
 C152 C 0.45894 0.04479 0.48106
 C153 C 0.43825 0.06677 0.46088
 C154 C 0.45687 0.04505 0.40963
 C155 C 0.49132 -0.05786 0.54380
 C156 C 0.47104 -0.07981 0.56435
 C157 C 0.41908 -0.05481 0.53829
 C158 C 0.44031 -0.03332 0.51826
 N159 N 0.47580 -0.03480 0.52180
 H160 H 0.49285 0.00683 0.41917
 H161 H 0.46011 0.04460 0.50896
 H162 H 0.42330 0.08352 0.47324
 H163 H 0.45656 0.04483 0.38177
 H164 H 0.51955 -0.05882 0.54571
 H165 H 0.48363 -0.09769 0.58227
 H166 H 0.39089 -0.05314 0.53571
 H167 H 0.42835 -0.01543 0.50005
 C168 C 0.56905 -0.06917 0.43240
 C169 C 0.57614 0.06434 0.56652
 C170 C 0.43461 -0.07806 0.56174
 C171 C 0.43711 0.06681 0.42486
 C172 C 0.55518 0.54573 0.01005
 H173 H 0.55532 0.54843 -0.01781
 C174 C 0.57633 0.56732 0.03057
 H175 H 0.59294 0.58665 0.01854
 C176 C 0.53265 0.51788 0.05983
 H177 H 0.51506 0.49910 0.07114
 C178 C 0.55336 0.53894 0.08127
 H179 H 0.55192 0.53605 0.10902
 N180 N 0.53409 0.52146 0.02490
 C181 C 0.51386 0.44755 -0.05184
 H182 H 0.48548 0.44539 -0.05379
 C183 C 0.53227 0.42806 -0.07123
 H184 H 0.51809 0.41089 -0.08829
 C185 C 0.56714 0.47226 -0.02691
 H186 H 0.58066 0.48913 -0.00926
 C187 C 0.58656 0.45323 -0.04582
 H188 H 0.61496 0.45575 -0.04292
 Zn189 Zn 0.50458 0.49455 -0.00480
 N190 N 0.53144 0.46939 -0.03054
 C191 C 0.47686 0.52324 -0.06957
 N192 N 0.47708 0.52309 -0.03452
 C193 C 0.45839 0.54438 -0.01926
 C194 C 0.43771 0.56640 -0.03939
 C195 C 0.45649 0.54490 -0.09069
 C196 C 0.49089 0.44165 0.04324
 C197 C 0.47062 0.41969 0.06380
 C198 C 0.41864 0.44468 0.03777
 C199 C 0.43985 0.46619 0.01773
 N200 N 0.47535 0.46473 0.02127
 H201 H 0.49252 0.50671 -0.08122
 H202 H 0.45950 0.54409 0.00865
 H203 H 0.42271 0.58309 -0.02701
 H204 H 0.45626 0.54478 -0.11855
 H205 H 0.51912 0.44071 0.04515
 H206 H 0.48323 0.40182 0.08172
 H207 H 0.39045 0.44635 0.03522
 H208 H 0.42788 0.48408 -0.00045
 C209 C 0.56895 0.43103 -0.06825
 C210 C 0.57535 0.56389 0.06650
 C211 C 0.43419 0.42144 0.06122
 C212 C 0.43666 0.56657 -0.07542
 C213 C 0.19864 -0.19935 -0.19913
 C214 C 0.18200 -0.18313 -0.18249
 C215 C 0.16226 -0.16365 -0.16263
 C216 C 0.17975 -0.14113 -0.14037
 C217 C 0.16059 -0.12208 -0.12116
 C218 C 0.12385 -0.12547 -0.12413
 C219 C 0.10635 -0.14802 -0.14637
 C220 C 0.12552 -0.16707 -0.16558
 C221 C 0.10417 -0.10576 -0.10447
 C222 C 0.08777 -0.08915 -0.08798
 H223 H 0.20815 -0.13829 -0.13791
 H224 H 0.17438 -0.10472 -0.10406
 H225 H 0.07795 -0.15082 -0.14886
 H226 H 0.11173 -0.18441 -0.18272
 C227 C 0.19872 0.30048 0.30121
 C228 C 0.18206 0.31664 0.31790
 C229 C 0.16228 0.33602 0.33782
 C230 C 0.17973 0.35860 0.36003
 C231 C 0.16054 0.37754 0.37932
 C232 C 0.12380 0.37399 0.37648
 C233 C 0.10634 0.35139 0.35429
 C234 C 0.12554 0.33244 0.33499
 C235 C 0.10408 0.39359 0.39624
 C236 C 0.08766 0.41010 0.41279
 H237 H 0.20813 0.36157 0.36241
 H238 H 0.17430 0.39495 0.39640
 H239 H 0.07795 0.34845 0.35188
 H240 H 0.11179 0.31506 0.31788
 C241 C 0.69910 -0.19944 0.30149
 C242 C 0.68249 -0.18321 0.31815
 C243 C 0.66279 -0.16372 0.33803
 C244 C 0.68033 -0.14129 0.36037
 C245 C 0.66120 -0.12222 0.37959
 C246 C 0.62446 -0.12549 0.37656
 C247 C 0.60692 -0.14794 0.35425
 C248 C 0.62605 -0.16702 0.33502
 C249 C 0.60482 -0.10575 0.39624
 C250 C 0.58846 -0.08912 0.41272
 H251 H 0.70873 -0.13853 0.36288
 H252 H 0.67503 -0.10493 0.39676
 H253 H 0.57851 -0.15066 0.35170
 H254 H 0.61223 -0.18428 0.31781
 C255 C 0.69984 0.30208 -0.19977
 C256 C 0.68314 0.31824 -0.18310
 C257 C 0.66331 0.33761 -0.16322
 C258 C 0.67769 0.36810 -0.15229
 C259 C 0.65844 0.38698 -0.13298
 C260 C 0.62474 0.37545 -0.12453
 C261 C 0.61036 0.34495 -0.13546
 C262 C 0.62961 0.32607 -0.15477
 C263 C 0.60496 0.39492 -0.10469
 C264 C 0.58849 0.41133 -0.08807
 H265 H 0.70372 0.37726 -0.15869
 H266 H 0.66980 0.41052 -0.12466
 H267 H 0.58432 0.33581 -0.12906
 H268 H 0.61825 0.30253 -0.16310
 C269 C -0.21243 0.21837 -0.20081
 C270 C -0.19262 0.19889 -0.18704
 C271 C -0.16925 0.17574 -0.16992
 C272 C -0.17937 0.14199 -0.16803
 C273 C -0.15731 0.11964 -0.15006
 C274 C -0.12504 0.13095 -0.13391
 C275 C -0.11475 0.16466 -0.13612
 C276 C -0.13681 0.18701 -0.15408
 C277 C -0.10306 0.10816 -0.11409
 C278 C -0.08491 0.08920 -0.09693
 H279 H -0.20445 0.13302 -0.18008
 H280 H -0.16557 0.09363 -0.14841
 H281 H -0.08991 0.17369 -0.12362
 H282 H -0.12878 0.21307 -0.15528
 C283 C -0.21307 0.71706 0.30029
 C284 C -0.19317 0.69767 0.31406
 C285 C -0.16971 0.67459 0.33118
 C286 C -0.17938 0.64075 0.33238
 C287 C -0.15725 0.61844 0.35033
 C288 C -0.12537 0.62989 0.36716
 C289 C -0.11553 0.66370 0.36564
 C290 C -0.13766 0.68601 0.34769
 C291 C -0.10335 0.60712 0.38696
 C292 C -0.08518 0.58817 0.40409
 H293 H -0.20416 0.63167 0.31981
 H294 H -0.16517 0.59236 0.35145
 H295 H -0.09100 0.67283 0.37866
 H296 H -0.12998 0.71214 0.34703
 C297 C 0.28683 0.21724 0.30000
 C298 C 0.30686 0.19796 0.31376
 C299 C 0.33049 0.17504 0.33087
 C300 C 0.32106 0.14115 0.33206
 C301 C 0.34335 0.11898 0.35001
 C302 C 0.37516 0.13062 0.36682
 C303 C 0.38476 0.16447 0.36531
 C304 C 0.36247 0.18664 0.34737
 C305 C 0.39734 0.10798 0.38661
 C306 C 0.41563 0.08914 0.40375
 H307 H 0.29633 0.13193 0.31949
 H308 H 0.33561 0.09286 0.35112
 H309 H 0.40924 0.17375 0.37832
 H310 H 0.36996 0.21280 0.34671
 C311 C 0.28668 0.71732 -0.20021
 C312 C 0.30667 0.69801 -0.18643
 C313 C 0.33025 0.67505 -0.16931
 C314 C 0.36215 0.68661 -0.15262
 C315 C 0.38439 0.66440 -0.13469
 C316 C 0.37482 0.63054 -0.13337
 C317 C 0.34309 0.61894 -0.15037
 C318 C 0.32085 0.64116 -0.16831
 C319 C 0.39696 0.60785 -0.11360
 C320 C 0.41522 0.58896 -0.09649
 H321 H 0.36961 0.71277 -0.15313
 H322 H 0.40881 0.67364 -0.12153
 H323 H 0.33538 0.59282 -0.14942
 H324 H 0.29618 0.63196 -0.18103
 C325 C -0.21433 -0.20153 0.21407
 C326 C -0.19474 -0.18841 0.19387
 C327 C -0.17164 -0.17192 0.16997
 C328 C -0.18460 -0.16282 0.13614
 C329 C -0.16265 -0.14518 0.11346
 C330 C -0.12765 -0.13658 0.12452
 C331 C -0.11456 -0.14607 0.15819
 C332 C -0.13651 -0.16371 0.18087
 C333 C -0.10565 -0.11683 0.10183
 C334 C -0.08749 -0.09964 0.08309
 H335 H -0.21176 -0.16892 0.12749
 H336 H -0.17308 -0.13784 0.08753
 H337 H -0.08758 -0.13943 0.16705
 H338 H -0.12626 -0.17051 0.20702
 C339 C -0.21494 0.29750 0.71467
 C340 C -0.19529 0.31063 0.69453
 C341 C -0.17210 0.32712 0.67071
 C342 C -0.18490 0.33609 0.63680
 C343 C -0.16287 0.35372 0.61420
 C344 C -0.12795 0.36246 0.62541
 C345 C -0.11501 0.35311 0.65918
 C346 C -0.13704 0.33547 0.68179
 C347 C -0.10588 0.38222 0.60279
 C348 C -0.08768 0.39941 0.58408
 H349 H -0.21200 0.32988 0.62802
 H350 H -0.17319 0.36096 0.58819
 H351 H -0.08809 0.35987 0.66816
 H352 H -0.12692 0.32879 0.70800
 C353 C 0.28546 -0.20139 0.71368
 C354 C 0.30520 -0.18825 0.69363
 C355 C 0.32849 -0.17175 0.66992
 C356 C 0.31585 -0.16286 0.63594
 C357 C 0.33797 -0.14520 0.61344
 C358 C 0.37282 -0.13636 0.62483
 C359 C 0.38560 -0.14563 0.65867
 C360 C 0.36347 -0.16329 0.68117
 C361 C 0.39497 -0.11657 0.60230
 C362 C 0.41322 -0.09936 0.58368
 H363 H 0.28880 -0.16915 0.62702
 H364 H 0.32778 -0.13803 0.58737
 H365 H 0.41246 -0.13880 0.66778
 H366 H 0.37348 -0.16992 0.70744
 C367 C 0.28545 0.29857 0.21388
 C368 C 0.30511 0.31169 0.19376
 C369 C 0.32831 0.32814 0.16993
 C370 C 0.31553 0.33708 0.13601
 C371 C 0.33758 0.35465 0.11338
 C372 C 0.37252 0.36336 0.12459
 C373 C 0.38543 0.35404 0.15838
 C374 C 0.36338 0.33646 0.18100
 C375 C 0.39461 0.38305 0.10195
 C376 C 0.41283 0.40020 0.08323
 H377 H 0.28842 0.33089 0.12723
 H378 H 0.32728 0.36186 0.08737
 H379 H 0.41236 0.36077 0.16736
 H380 H 0.37349 0.32979 0.20722
 C381 C 0.19929 0.21627 0.21493
 C382 C 0.18533 0.19666 0.19544
 C383 C 0.16810 0.17332 0.17239
 C384 C 0.16159 0.14038 0.18420
 C385 C 0.14370 0.11794 0.16220
 C386 C 0.13225 0.12835 0.12829
 C387 C 0.13904 0.16122 0.11637
 C388 C 0.15693 0.18366 0.13838
 C389 C 0.11268 0.10555 0.10609
 C390 C 0.09580 0.08655 0.08773
 H391 H 0.17002 0.13214 0.21048
 H392 H 0.13849 0.09260 0.17171
 H393 H 0.13021 0.16955 0.09023
 H394 H 0.16174 0.20909 0.12901
 C395 C 0.19919 0.71623 0.71482
 C396 C 0.18522 0.69651 0.69545
 C397 C 0.16797 0.67304 0.67255
 C398 C 0.16130 0.64020 0.68462
 C399 C 0.14340 0.61764 0.66276
 C400 C 0.13209 0.62783 0.62875
 C401 C 0.13903 0.66061 0.61658
 C402 C 0.15694 0.68317 0.63845
 C403 C 0.11250 0.60492 0.60669
 C404 C 0.09563 0.58583 0.58842
 H405 H 0.16963 0.63213 0.71098
 H406 H 0.13807 0.59238 0.67246
 H407 H 0.13031 0.66877 0.59036
 H408 H 0.16187 0.70853 0.62888
 C409 C 0.70046 0.21751 0.71425
 C410 C 0.68652 0.19774 0.69492
 C411 C 0.66930 0.17422 0.67207
 C412 C 0.66207 0.14153 0.68436
 C413 C 0.64415 0.11895 0.66254
 C414 C 0.63340 0.12897 0.62832
 C415 C 0.64091 0.16158 0.61593
 C416 C 0.65883 0.18416 0.63776
 C417 C 0.61378 0.10606 0.60629
 C418 C 0.59688 0.08698 0.58804
 H419 H 0.66996 0.13361 0.71087
 H420 H 0.63839 0.09382 0.67241
 H421 H 0.63262 0.16961 0.58955
 H422 H 0.66419 0.20940 0.62802
 C423 C 0.69948 0.71626 0.21527
 C424 C 0.68549 0.69664 0.19580
 C425 C 0.66824 0.67328 0.17279
 C426 C 0.65725 0.68356 0.13871
 C427 C 0.63936 0.66110 0.11672
 C428 C 0.63240 0.62828 0.12871
 C429 C 0.64367 0.61794 0.16269
 C430 C 0.66155 0.64039 0.18469
 C431 C 0.61285 0.60547 0.10652
 C432 C 0.59601 0.58646 0.08815
 H433 H 0.66220 0.70895 0.12928
 H434 H 0.63068 0.66938 0.09052
 H435 H 0.63833 0.59264 0.17227
 H436 H 0.66985 0.63221 0.21101
   
