data_POSCAR
  _audit_creation_date              2014-09-24
  _audit_creation_method            'ToBaCCo'
  _symmetry_space_group_name_H-M    'P1'
  _symmetry_Int_Tables_number       1
  _symmetry_cell_setting            triclinic
  loop_
  _symmetry_equiv_pos_as_xyz
 x,y,z
_cell_length_a 16.8948
_cell_length_b 16.9795
_cell_length_c 16.8771
_cell_angle_alpha 90.039600
_cell_angle_beta 90.364700
_cell_angle_gamma 90.158100
loop_
  _atom_site_label
  _atom_site_type_symbol
  _atom_site_fract_x
  _atom_site_fract_y
  _atom_site_fract_z
O1 O 0.59531 0.20633 0.01844
 O2 O 0.69110 0.11113 0.01260
 C3 C 0.66841 0.18396 0.01862
 O4 O 0.38462 -0.01815 0.19517
 O5 O 0.30035 -0.01838 0.08764
 C6 C 0.31394 -0.02152 0.16308
 O7 O 0.61243 0.01536 0.20114
 O8 O 0.69819 0.01153 0.09653
 C9 C 0.68356 0.01880 0.17049
 O10 O 0.37693 0.19002 -0.00032
 O11 O 0.29647 0.08122 -0.00507
 C12 C 0.30775 0.15679 -0.00356
 Zr13 Zr 0.49093 0.13995 0.00462
 O14 O 0.47540 0.22545 0.09438
 O15 O 0.49575 0.22928 -0.08280
 Zr16 Zr 0.49918 -0.00371 0.14263
 O17 O 0.48539 0.08254 0.23172
 O18 O 0.51343 -0.09330 0.22868
 O19 O 0.56420 0.08374 0.08640
 O20 O 0.42519 0.07260 0.08179
 O21 O 0.39908 0.00332 -0.20359
 O22 O 0.30754 -0.01044 -0.10463
 C23 C 0.32742 -0.00378 -0.17869
 O24 O 0.62458 -0.18974 -0.00982
 O25 O 0.70525 -0.08147 -0.00059
 C26 C 0.69380 -0.15677 -0.00703
 O27 O 0.40593 -0.20544 -0.00472
 O28 O 0.31046 -0.10978 -0.00817
 C29 C 0.33295 -0.18286 -0.00739
 O30 O 0.61938 0.01113 -0.19331
 O31 O 0.70300 0.01712 -0.08615
 C32 C 0.68948 0.01567 -0.16131
 Zr33 Zr 0.50600 0.00464 -0.14060
 O34 O 0.50665 -0.08215 -0.23082
 O35 O 0.51077 0.09468 -0.22713
 Zr36 Zr 0.51138 -0.13925 -0.00252
 O37 O 0.51133 -0.22925 -0.08923
 O38 O 0.52448 -0.22452 0.08817
 Zr39 Zr 0.61910 0.00882 0.00376
 Zr40 Zr 0.38338 -0.00820 -0.00375
 O41 O 0.44115 -0.08231 -0.08479
 O42 O 0.57972 -0.07340 -0.08115
 O43 O 0.42717 0.07849 -0.08144
 O44 O 0.57486 -0.07700 0.08187
 O45 O 0.56650 0.08843 -0.07579
 O46 O 0.43473 -0.08754 0.07813
 H47 H 0.38678 0.10194 0.11458
 H48 H 0.61296 -0.10738 0.11455
 H49 H 0.40943 -0.11692 -0.12012
 H50 H 0.60065 0.12505 -0.10601
 H51 H 0.47014 -0.13180 0.22032
 H52 H 0.47535 -0.22460 0.11977
 H53 H 0.54341 -0.20994 -0.13400
 H54 H 0.55648 -0.11223 -0.22566
 H55 H 0.46645 0.13109 -0.21673
 H56 H 0.44966 0.22212 -0.11857
 H57 H 0.50408 0.20628 0.14185
 H58 H 0.48840 0.05399 0.28283
 O59 O -0.02929 0.58868 -0.21291
 O60 O -0.02871 0.68646 -0.11897
 C61 C -0.03408 0.66168 -0.19180
 O62 O -0.18507 0.37139 0.01935
 O63 O -0.07407 0.29377 0.01781
 C64 C -0.15011 0.30331 0.02167
 O65 O -0.20863 0.58923 -0.00753
 O66 O -0.11517 0.68721 -0.01803
 C67 C -0.18786 0.66259 -0.01393
 O68 O 0.00780 0.37667 -0.19691
 O69 O 0.02293 0.29819 -0.08722
 C70 C 0.02155 0.30958 -0.16379
 Zr71 Zr -0.00813 0.48747 -0.14448
 O72 O -0.10234 0.46181 -0.22385
 O73 O 0.07269 0.49783 -0.23927
 Zr74 Zr -0.13929 0.48625 0.00338
 O75 O -0.22707 0.46609 -0.08412
 O76 O -0.22464 0.49225 0.09453
 O77 O -0.09265 0.55492 -0.08694
 O78 O -0.07688 0.41598 -0.07413
 O79 O 0.20930 0.41079 -0.01048
 O80 O 0.11629 0.31337 0.00547
 C81 C 0.18868 0.33756 -0.00322
 O82 O 0.00660 0.62973 0.18303
 O83 O -0.01260 0.70617 0.07281
 C84 C -0.00267 0.69758 0.14842
 O85 O 0.01627 0.41148 0.20536
 O86 O 0.02205 0.31345 0.11170
 C87 C 0.02139 0.33812 0.18514
 O88 O 0.18709 0.62946 -0.01546
 O89 O 0.07602 0.70641 -0.02393
 C90 C 0.15215 0.69736 -0.02007
 Zr91 Zr 0.14015 0.51442 -0.01286
 O92 O 0.23537 0.52357 0.06867
 O93 O 0.21966 0.52459 -0.10890
 Zr94 Zr 0.00848 0.51415 0.13546
 O95 O 0.10684 0.52716 0.21243
 O96 O -0.07260 0.52275 0.23014
 Zr97 Zr -0.01188 0.61787 -0.01534
 Zr98 Zr 0.01280 0.38274 0.00601
 O99 O 0.09214 0.44759 0.07728
 O100 O 0.07836 0.58609 0.06523
 O101 O 0.08382 0.43138 -0.08404
 O102 O -0.08227 0.56819 0.07424
 O103 O 0.06892 0.56945 -0.09591
 O104 O -0.06855 0.43014 0.08744
 H105 H -0.10669 0.37439 -0.10287
 H106 H -0.11668 0.60281 0.10630
 H107 H 0.13002 0.41870 0.11153
 H108 H 0.09600 0.60543 -0.13324
 H109 H -0.21015 0.45262 0.13498
 H110 H -0.11185 0.47999 0.22314
 H111 H 0.08505 0.53129 0.26665
 H112 H 0.21705 0.55694 0.11296
 H113 H 0.22019 0.47353 -0.13715
 H114 H 0.11919 0.46499 -0.22617
 H115 H -0.14648 0.49774 -0.21102
 H116 H -0.27819 0.46351 -0.05575
 O117 O 0.20759 -0.03334 0.41621
 O118 O 0.11655 -0.02075 0.31558
 C119 C 0.18872 -0.03028 0.34198
 O120 O -0.04126 -0.18988 0.61884
 O121 O -0.03657 -0.08344 0.70226
 C122 C -0.04320 -0.15811 0.68899
 O123 O -0.00929 -0.20353 0.40143
 O124 O 0.00639 -0.10673 0.30796
 C125 C -0.00060 -0.18030 0.32919
 O126 O 0.18138 -0.01596 0.63449
 O127 O 0.07021 -0.00292 0.71055
 C128 C 0.14597 -0.00937 0.70236
 Zr129 Zr 0.13679 -0.01973 0.51734
 O130 O 0.20827 -0.12009 0.53769
 O131 O 0.23856 0.05330 0.51914
 Zr132 Zr -0.02350 -0.13833 0.50565
 O133 O 0.03933 -0.24426 0.52381
 O134 O -0.12871 -0.20456 0.48867
 O135 O 0.07381 -0.09522 0.44283
 O136 O 0.05860 -0.08752 0.58107
 O137 O 0.04319 0.19279 0.61094
 O138 O -0.00163 0.09982 0.69825
 C139 C 0.03074 0.16701 0.68284
 O140 O -0.18811 0.03176 0.36998
 O141 O -0.07649 0.01309 0.29534
 C142 C -0.15113 0.02993 0.30327
 O143 O -0.21177 0.02492 0.58531
 O144 O -0.11949 0.01775 0.68522
 C145 C -0.19189 0.02270 0.65912
 O146 O 0.02947 0.19056 0.38166
 O147 O 0.02995 0.08326 0.29842
 C148 C 0.03185 0.15858 0.31106
 Zr149 Zr 0.01845 0.13969 0.49773
 O150 O -0.06273 0.23440 0.50017
 O151 O 0.10883 0.22571 0.49231
 Zr152 Zr -0.14006 0.02084 0.48469
 O153 O -0.20463 0.12713 0.47816
 O154 O -0.24197 -0.04995 0.46721
 Zr155 Zr 0.01136 -0.00555 0.38324
 Zr156 Zr -0.01439 0.00547 0.61879
 O157 O -0.07673 0.09517 0.55988
 O158 O -0.06163 0.08851 0.41941
 O159 O 0.08305 0.07155 0.57730
 O160 O -0.08585 -0.07065 0.42476
 O161 O 0.09645 0.06603 0.44001
 O162 O -0.10189 -0.06523 0.56451
 H163 H 0.08375 -0.12269 0.62063
 H164 H -0.11903 -0.09912 0.38541
 H165 H -0.10603 0.13286 0.59357
 H166 H 0.13665 0.09345 0.40758
 H167 H -0.15839 -0.20378 0.53903
 H168 H -0.23726 -0.09545 0.50343
 H169 H -0.26118 0.11198 0.47358
 H170 H -0.09310 0.23247 0.44986
 H171 H 0.15917 0.19784 0.50230
 H172 H 0.22876 0.09626 0.55747
 H173 H 0.20368 -0.15453 0.49052
 H174 H 0.09605 -0.23100 0.51914
 N175 N -0.27421 0.24539 0.02278
 N176 N -0.19972 0.23502 0.02368
 N177 N 0.27559 0.75570 -0.01045
 N178 N 0.20150 0.76584 -0.01888
 N179 N 0.24022 0.20727 -0.00392
 N180 N 0.25117 0.28142 -0.00410
 N181 N -0.23892 0.79268 -0.00997
 N182 N -0.25025 0.71869 -0.01378
 N183 N -0.00307 -0.23327 0.19720
 N184 N 0.00087 -0.24210 0.27184
 N185 N 0.04282 0.25489 0.79130
 N186 N 0.07129 0.20470 0.74722
 N187 N 0.02512 0.28320 0.24987
 N188 N 0.03292 0.20904 0.24248
 N189 N -0.04142 -0.28297 0.74532
 N190 N -0.04536 -0.20911 0.75608
 N191 N 0.26887 -0.00538 0.76080
 N192 N 0.19471 -0.00809 0.77163
 N193 N -0.25680 0.03644 0.21111
 N194 N -0.19120 0.05806 0.23494
 N195 N 0.24602 -0.02546 0.21349
 N196 N 0.25377 -0.03255 0.28804
 N197 N -0.24398 0.01887 0.78788
 N198 N -0.25514 0.02323 0.71376
   
