data_POSCAR
  _audit_creation_date              2014-09-24
  _audit_creation_method            'ToBaCCo'
  _symmetry_space_group_name_H-M    'P1'
  _symmetry_Int_Tables_number       1
  _symmetry_cell_setting            triclinic
  loop_
  _symmetry_equiv_pos_as_xyz
 x,y,z
_cell_length_a 39.9940
_cell_length_b 40.3009
_cell_length_c 37.2619
_cell_angle_alpha 92.510800
_cell_angle_beta 89.990400
_cell_angle_gamma 89.951300
loop_
  _atom_site_label
  _atom_site_type_symbol
  _atom_site_fract_x
  _atom_site_fract_y
  _atom_site_fract_z
C1 C 0.26970 0.45337 1.00557
 C2 C 0.24501 0.45910 1.03648
 C3 C 0.22700 0.48773 1.03506
 C4 C 0.23559 0.50835 1.00224
 C5 C 0.24832 0.45517 0.97161
 C6 C 0.23037 0.48391 0.96965
 C7 C 0.29109 0.48452 1.00598
 C8 C 0.27384 0.51341 1.00406
 H9 H 0.24092 0.44101 1.05669
 H10 H 0.22132 0.53181 1.00056
 H11 H 0.24600 0.43453 0.95220
 H12 H 0.31816 0.48343 1.00699
 C13 C 0.72180 0.54345 0.01971
 C14 C 0.74388 0.53658 0.05225
 C15 C 0.76237 0.50815 0.04869
 C16 C 0.75707 0.48919 0.01231
 C17 C 0.74633 0.54330 -0.01208
 C18 C 0.76516 0.51506 -0.01575
 C19 C 0.70103 0.51209 0.01320
 C20 C 0.71913 0.48373 0.00927
 H21 H 0.74603 0.55386 0.07522
 H22 H 0.77140 0.46586 0.00828
 H23 H 0.74991 0.56438 -0.02870
 H24 H 0.67397 0.51248 0.01156
 C25 C 0.04033 0.22266 0.51090
 C26 C 0.03628 0.24287 0.47983
 C27 C 0.00600 0.26212 0.47989
 C28 C -0.01499 0.25682 0.51150
 C29 C 0.03700 0.24703 0.54348
 C30 C 0.00803 0.26503 0.54405
 C31 C 0.00843 0.20157 0.51155
 C32 C -0.02060 0.21904 0.51168
 H33 H 0.05487 0.24375 0.45875
 H34 H -0.03852 0.27092 0.51267
 H35 H 0.05648 0.25057 0.56346
 H36 H 0.00870 0.17469 0.51044
 C37 C 0.96877 0.78262 0.50522
 C38 C 0.97157 0.75593 0.47486
 C39 C 0.99966 0.73673 0.47629
 C40 C 1.02284 0.74648 0.50823
 C41 C 0.97174 0.76354 0.53969
 C42 C 0.99988 0.74443 0.54142
 C43 C 1.00143 0.80214 0.50319
 C44 C 1.02965 0.78367 0.50439
 H45 H 0.95225 0.75191 0.45477
 H46 H 1.04582 0.73134 0.50965
 H47 H 0.95214 0.76345 0.55975
 H48 H 1.00235 0.82871 0.50010
 C49 C 0.50515 0.04312 0.21002
 C50 C 0.47714 0.04908 0.23767
 C51 C 0.47212 0.02317 0.25937
 C52 C 0.49580 -0.00651 0.25120
 C53 C 0.53582 0.03460 0.23247
 C54 C 0.53105 0.00889 0.25453
 C55 C 0.49592 0.01255 0.19074
 C56 C 0.49148 -0.01521 0.21289
 H57 H 0.46184 0.07124 0.23893
 H58 H 0.49129 -0.02711 0.26918
 H59 H 0.55853 0.04925 0.23253
 H60 H 0.49406 0.01065 0.16170
 C61 C 0.50934 -0.04873 0.76908
 C62 C 0.47768 -0.04618 0.74629
 C63 C 0.47555 -0.01781 0.72790
 C64 C 0.50569 0.00562 0.73395
 C65 C 0.53804 -0.04457 0.74248
 C66 C 0.53646 -0.01601 0.72420
 C67 C 0.50954 -0.01695 0.79296
 C68 C 0.50782 0.01161 0.77492
 H69 H 0.45894 -0.06555 0.74416
 H70 H 0.50384 0.02836 0.71866
 H71 H 0.55789 -0.06268 0.73866
 H72 H 0.51129 -0.01730 0.82196
 C73 C 0.30495 0.02189 0.45388
 H74 H 0.30473 0.04136 0.47481
 C75 C 0.32927 0.02191 0.42698
 H76 H 0.34749 0.04178 0.42721
 C77 C 0.28255 -0.02858 0.42943
 H78 H 0.26509 -0.04886 0.43109
 C79 C 0.30639 -0.02955 0.40207
 H80 H 0.30585 -0.04995 0.38224
 N81 N 0.28227 -0.00316 0.45469
 C82 C 0.20632 0.03306 0.53100
 H83 H 0.20736 0.01250 0.54869
 C84 C 0.18232 0.05781 0.53661
 H85 H 0.16530 0.05631 0.55908
 C86 C 0.22671 0.05913 0.47960
 H87 H 0.24343 0.05893 0.45680
 C88 C 0.20296 0.08462 0.48430
 H89 H 0.20160 0.10393 0.46504
 Zn90 Zn 0.25405 -0.00500 0.49528
 N91 N 0.22751 0.03375 0.50256
 C92 C 0.28568 0.01222 0.56208
 N93 N 0.28237 -0.01107 0.53478
 C94 C 0.30142 -0.03902 0.53320
 C95 C 0.32462 -0.04477 0.56010
 C96 C 0.30891 0.00762 0.58945
 C97 C 0.20383 -0.04101 0.46013
 C98 C 0.17957 -0.06545 0.45462
 C99 C 0.19650 -0.08945 0.51004
 C100 C 0.22098 -0.06478 0.51417
 N101 N 0.22397 -0.04106 0.48946
 H102 H 0.27091 0.03469 0.56225
 H103 H 0.29882 -0.05667 0.51065
 H104 H 0.33999 -0.06688 0.55784
 H105 H 0.31155 0.02646 0.61089
 H106 H 0.20661 -0.02174 0.44103
 H107 H 0.16447 -0.06499 0.43058
 H108 H 0.19371 -0.10742 0.53060
 H109 H 0.23675 -0.06398 0.53773
 C110 C 0.17970 0.08349 0.51247
 C111 C 0.33063 -0.00440 0.40098
 C112 C 0.17486 -0.08958 0.48033
 C113 C 0.32861 -0.02126 0.58871
 C114 C 0.69939 0.02659 0.53150
 H115 H 0.69539 0.04567 0.51241
 C116 C 0.67612 0.02207 0.55893
 H117 H 0.65429 0.03796 0.56095
 C118 C 0.73163 -0.01865 0.55077
 H119 H 0.75275 -0.03510 0.54721
 C120 C 0.70928 -0.02385 0.57855
 H121 H 0.71436 -0.04360 0.59655
 N122 N 0.72611 0.00586 0.52753
 C123 C 0.80219 0.04595 0.45809
 H124 H 0.80113 0.02642 0.43726
 C125 C 0.82739 0.06961 0.45748
 H126 H 0.84520 0.06848 0.43557
 C127 C 0.78096 0.06989 0.51272
 H128 H 0.76341 0.06905 0.53474
 C129 C 0.80619 0.09413 0.51330
 H130 H 0.80791 0.11196 0.53582
 Zn131 Zn 0.75337 0.00721 0.48621
 N132 N 0.78002 0.04602 0.48570
 C133 C 0.72604 0.02894 0.42153
 N134 N 0.72542 0.00419 0.44517
 C135 C 0.70374 -0.02169 0.44090
 C136 C 0.68190 -0.02358 0.41155
 C137 C 0.70498 0.02787 0.39175
 C138 C 0.80935 -0.02344 0.51086
 C139 C 0.83462 -0.04683 0.51362
 C140 C 0.80749 -0.08088 0.46724
 C141 C 0.78270 -0.05643 0.46501
 N142 N 0.78418 -0.02839 0.48673
 H143 H 0.74235 0.05003 0.42603
 H144 H 0.70313 -0.04064 0.46058
 H145 H 0.66465 -0.04421 0.40858
 H146 H 0.70550 0.04829 0.37383
 H147 H 0.80981 -0.00102 0.52790
 H148 H 0.85455 -0.04224 0.53288
 H149 H 0.80653 -0.10292 0.44957
 H150 H 0.76261 -0.05977 0.44583
 C151 C 0.83052 0.09327 0.48605
 C152 C 0.68044 -0.00414 0.58218
 C153 C 0.83412 -0.07576 0.49137
 C154 C 0.68262 0.00130 0.38634
 C155 C 0.48507 0.24223 1.05561
 H156 H 0.46392 0.25764 1.04948
 C157 C 0.48377 0.22278 1.08565
 H158 H 0.46143 0.22382 1.10198
 C159 C 0.53774 0.21939 1.03905
 H160 H 0.55807 0.21733 1.01993
 C161 C 0.53760 0.19968 1.06888
 H162 H 0.55832 0.18291 1.07276
 N163 N 0.51156 0.23985 1.03277
 C164 C 0.44733 0.27633 0.95776
 H165 H 0.45163 0.25565 0.93891
 C166 C 0.41780 0.29462 0.95560
 H167 H 0.39943 0.28726 0.93548
 C168 C 0.46596 0.31078 1.00691
 H169 H 0.48496 0.31686 1.02679
 C170 C 0.43675 0.32962 1.00585
 H171 H 0.43355 0.35044 1.02492
 Zn172 Zn 0.50996 0.25921 0.98758
 N173 N 0.47045 0.28440 0.98347
 C174 C 0.48528 0.20049 0.95998
 N175 N 0.50922 0.22337 0.95363
 C176 C 0.53142 0.21892 0.92617
 C177 C 0.53001 0.19009 0.90386
 C178 C 0.48311 0.17145 0.93864
 C179 C 0.56937 0.29347 1.00794
 C180 C 0.59393 0.31776 1.00471
 C181 C 0.57203 0.32903 0.94605
 C182 C 0.54800 0.30443 0.95032
 N183 N 0.54676 0.28763 0.98113
 H184 H 0.46804 0.20474 0.98208
 H185 H 0.55052 0.23730 0.92197
 H186 H 0.54808 0.18638 0.88241
 H187 H 0.46375 0.15362 0.94419
 H188 H 0.56756 0.28038 1.03253
 H189 H 0.61087 0.32298 1.02691
 H190 H 0.57221 0.34250 0.92155
 H191 H 0.52952 0.29947 0.92958
 C192 C 0.41218 0.32162 0.97996
 C193 C 0.51001 0.20059 1.09228
 C194 C 0.59482 0.33660 0.97393
 C195 C 0.50602 0.16569 0.91056
 C196 C 0.46302 0.76001 -0.06782
 H197 H 0.44669 0.73871 -0.06753
 C198 C 0.46290 0.77999 -0.09754
 H199 H 0.44690 0.77325 -0.12009
 C200 C 0.50369 0.79452 -0.03888
 H201 H 0.51934 0.80009 -0.01572
 C202 C 0.50442 0.81507 -0.06796
 H203 H 0.52064 0.83659 -0.06682
 N204 N 0.48352 0.76739 -0.03945
 C205 C 0.42513 0.70748 0.02169
 H206 H 0.42238 0.72662 0.04272
 C207 C 0.40201 0.68142 0.01890
 H208 H 0.38165 0.68059 0.03801
 C209 C 0.45571 0.68442 -0.02786
 H210 H 0.47685 0.68573 -0.04587
 C211 C 0.43324 0.65813 -0.03170
 H212 H 0.43714 0.63961 -0.05320
 Zn213 Zn 0.48466 0.74167 0.00178
 N214 N 0.45140 0.70836 -0.00148
 C215 C 0.44991 0.79167 0.03855
 N216 N 0.47705 0.77164 0.04135
 C217 C 0.49974 0.77663 0.06825
 C218 C 0.49637 0.80385 0.09268
 C219 C 0.44580 0.81923 0.06204
 C220 C 0.55090 0.72610 -0.02031
 C221 C 0.58080 0.70822 -0.02084
 C222 C 0.56125 0.67882 0.03015
 C223 C 0.53182 0.69762 0.02997
 N224 N 0.52699 0.72042 0.00465
 H225 H 0.43250 0.78732 0.01663
 H226 H 0.52142 0.76070 0.06958
 H227 H 0.51550 0.80863 0.11282
 H228 H 0.42481 0.83575 0.05839
 H229 H 0.54667 0.74395 -0.04055
 H230 H 0.59926 0.71377 -0.04087
 H231 H 0.56403 0.66010 0.04991
 H232 H 0.51230 0.69327 0.04931
 C233 C 0.40631 0.65597 -0.00766
 C234 C 0.48377 0.80803 -0.09779
 C235 C 0.58602 0.68342 0.00398
 C236 C 0.46985 0.82623 0.08871
 C237 C 1.03421 0.49337 0.19782
 H238 H 1.00953 0.49494 0.18629
 C239 C 1.06214 0.49442 0.17541
 H240 H 1.05852 0.49672 0.14682
 C241 C 1.06887 0.48728 0.24864
 H242 H 1.07126 0.48427 0.27724
 C243 C 1.09748 0.48814 0.22720
 H244 H 1.12174 0.48639 0.23982
 N245 N 1.03798 0.48985 0.23376
 C246 C 0.97925 0.44332 0.31679
 H247 H 0.96114 0.46230 0.32391
 C248 C 0.98182 0.41556 0.33779
 H249 H 0.96561 0.41390 0.36091
 C250 C 1.02261 0.42291 0.27870
 H251 H 1.03838 0.42572 0.25549
 C252 C 1.02589 0.39460 0.29884
 H253 H 1.04398 0.37597 0.29024
 Zn254 Zn 0.99955 0.48752 0.26368
 N255 N 1.00012 0.44702 0.28842
 C256 C 0.93988 0.46473 0.22765
 N257 N 0.96076 0.49076 0.23511
 C258 C 0.95462 0.52129 0.22248
 C259 C 0.92653 0.52673 0.20151
 C260 C 0.91146 0.46903 0.20635
 C261 C 1.02493 0.54514 0.30274
 C262 C 1.02209 0.57332 0.32581
 C263 C 0.96468 0.55851 0.33706
 C264 C 0.96862 0.53071 0.31387
 N265 N 0.99840 0.52438 0.29732
 H266 H 0.94536 0.44068 0.23803
 H267 H 0.97179 0.54146 0.22869
 H268 H 0.92263 0.55115 0.19125
 H269 H 0.89502 0.44816 0.20045
 H270 H 1.04817 0.54038 0.28876
 H271 H 1.04335 0.58974 0.32948
 H272 H 0.94079 0.56254 0.35015
 H273 H 0.94748 0.51465 0.30823
 C274 C 1.00600 0.39104 0.32961
 C275 C 1.09431 0.49135 0.18992
 C276 C 0.99150 0.58057 0.34294
 C277 C 0.90435 0.50049 0.19334
 C278 C -0.05182 0.49020 0.80671
 H279 H -0.03408 0.47000 0.80792
 C280 C -0.07990 0.49103 0.82915
 H281 H -0.08370 0.47108 0.84725
 C282 C -0.06768 0.54120 0.78248
 H283 H -0.06232 0.56137 0.76525
 C284 C -0.09595 0.54307 0.80445
 H285 H -0.11168 0.56484 0.80356
 N286 N -0.04637 0.51494 0.78373
 C287 C 0.02468 0.47367 0.70413
 H288 H 0.04240 0.49396 0.70483
 C289 C 0.03026 0.44581 0.68136
 H290 H 0.05216 0.44522 0.66430
 C291 C -0.02591 0.45073 0.72484
 H292 H -0.04793 0.45291 0.74159
 C293 C -0.02143 0.42241 0.70215
 H294 H -0.03996 0.40282 0.70195
 Zn295 Zn -0.00638 0.51451 0.75604
 N296 N -0.00266 0.47541 0.72581
 C297 C 0.05223 0.49152 0.78987
 N298 N 0.02999 0.51700 0.78889
 C299 C 0.03200 0.54347 0.81273
 C300 C 0.05725 0.54508 0.83877
 C301 C 0.07782 0.49213 0.81533
 C302 C -0.03154 0.55131 0.70092
 C303 C -0.03451 0.57748 0.67787
 C304 C 0.01550 0.60176 0.70413
 C305 C 0.01727 0.57522 0.72712
 N306 N -0.00642 0.55097 0.72548
 H307 H 0.04979 0.47022 0.77147
 H308 H 0.01377 0.56325 0.81170
 H309 H 0.05850 0.56662 0.85707
 H310 H 0.09490 0.47129 0.81580
 H311 H -0.04963 0.53134 0.69968
 H312 H -0.05481 0.57722 0.65865
 H313 H 0.03428 0.62111 0.70595
 H314 H 0.03751 0.57409 0.74624
 C315 C 0.00727 0.41944 0.68048
 C316 C -0.10254 0.51770 0.82820
 C317 C -0.01105 0.60340 0.67960
 C318 C 0.08047 0.51895 0.84056
 C319 C 0.09613 0.14825 0.51768
 C320 C 0.12776 0.16062 0.50926
 N321 N 0.13100 0.19343 0.50267
 C322 C 0.10395 0.21420 0.50370
 C323 C 0.07195 0.20148 0.51100
 N324 N 0.06936 0.16875 0.51822
 N325 N 0.09241 0.11577 0.52463
 C326 C 0.11897 0.09484 0.52356
 C327 C 0.15092 0.10677 0.51488
 N328 N 0.15452 0.13958 0.50771
 H329 H 0.10723 0.24017 0.49834
 H330 H 0.11494 0.06891 0.52860
 C331 C 0.66840 0.61643 -0.00188
 C332 C 0.64984 0.62130 0.02984
 N333 N 0.65657 0.60260 0.05833
 C334 C 0.68078 0.57891 0.05642
 C335 C 0.69934 0.57357 0.02451
 N336 N 0.69249 0.59262 -0.00394
 N337 N 0.66073 0.63426 -0.03079
 C338 C 0.63520 0.65661 -0.02958
 C339 C 0.61607 0.66141 0.00212
 N340 N 0.62424 0.64346 0.03106
 H341 H 0.68466 0.56353 0.07914
 H342 H 0.62939 0.66935 -0.05369
 C343 C 0.91611 -0.14118 0.49778
 C344 C 0.88350 -0.15387 0.49671
 N345 N 0.87880 -0.18717 0.49901
 C346 C 0.90532 -0.20823 0.50220
 C347 C 0.93807 -0.19542 0.50298
 N348 N 0.94222 -0.16208 0.50079
 N349 N 0.92135 -0.10814 0.49580
 C350 C 0.89531 -0.08689 0.49314
 C351 C 0.86243 -0.09919 0.49239
 N352 N 0.85722 -0.13260 0.49391
 H353 H 0.90098 -0.23462 0.50384
 H354 H 0.90026 -0.06059 0.49156
 C355 C 0.32652 0.38337 0.97758
 C356 C 0.34292 0.37750 1.00996
 N357 N 0.33292 0.39380 1.04070
 C358 C 0.30764 0.41629 1.04046
 C359 C 0.29163 0.42305 1.00790
 N360 N 0.30157 0.40620 0.97720
 N361 N 0.33732 0.36781 0.94668
 C362 C 0.36405 0.34691 0.94660
 C363 C 0.38117 0.34166 0.97892
 N364 N 0.36981 0.35706 1.00983
 H365 H 0.30130 0.43002 1.06513
 H366 H 0.37253 0.33567 0.92133
 C367 C 0.91892 0.15076 0.49411
 C368 C 0.88814 0.16523 0.50371
 N369 N 0.88733 0.19771 0.51542
 C370 C 0.91593 0.21623 0.51799
 C371 C 0.94685 0.20147 0.50866
 N372 N 0.94714 0.16904 0.49692
 N373 N 0.92035 0.11854 0.48245
 C374 C 0.89226 0.09989 0.47966
 C375 C 0.86106 0.11402 0.48897
 N376 N 0.85976 0.14650 0.50117
 H377 H 0.91447 0.24181 0.52785
 H378 H 0.89443 0.07405 0.47081
 C379 C 0.34439 0.57070 -0.00975
 C380 C 0.33106 0.60182 0.00049
 N381 N 0.29834 0.60403 0.01050
 C382 C 0.27854 0.57641 0.01103
 C383 C 0.29228 0.54510 0.00149
 N384 N 0.32488 0.54345 -0.00886
 N385 N 0.37692 0.56789 -0.01939
 C386 C 0.39703 0.59491 -0.01936
 C387 C 0.38412 0.62644 -0.00907
 N388 N 0.35124 0.62906 0.00082
 H389 H 0.25285 0.57885 0.01979
 H390 H 0.42309 0.59150 -0.02635
 C391 C 0.09068 -0.15345 0.47775
 C392 C 0.11994 -0.16279 0.49525
 N393 N 0.12016 -0.19142 0.51340
 C394 C 0.09212 -0.21065 0.51540
 C395 C 0.06243 -0.20035 0.49904
 N396 N 0.06293 -0.17220 0.48023
 N397 N 0.08965 -0.12471 0.46035
 C398 C 0.11660 -0.10441 0.45979
 C399 C 0.14618 -0.11306 0.47774
 N400 N 0.14703 -0.14231 0.49507
 H401 H 0.09265 -0.23273 0.53089
 H402 H 0.11410 -0.08113 0.44676
 C403 C 0.65541 0.42263 0.97800
 C404 C 0.66667 0.39336 0.99299
 N405 N 0.69618 0.39352 1.01114
 C406 C 0.71463 0.42184 1.01546
 C407 C 0.70262 0.45149 1.00167
 N408 N 0.67336 0.45090 0.98300
 N409 N 0.62595 0.42278 0.96006
 C410 C 0.60681 0.39501 0.95681
 C411 C 0.61731 0.36573 0.97279
 N412 N 0.64724 0.36570 0.99044
 H413 H 0.73758 0.42147 1.03079
 H414 H 0.58293 0.39639 0.94336
 C415 C 0.49913 0.12610 1.16837
 C416 C 0.52192 0.12238 1.13992
 N417 N 0.53961 0.09377 1.13537
 C418 C 0.53517 0.06844 1.15779
 C419 C 0.51150 0.07157 1.18573
 N420 N 0.49433 0.10067 1.19046
 N421 N 0.48177 0.15489 1.17310
 C422 C 0.48557 0.17992 1.15012
 C423 C 0.50744 0.17582 1.12055
 N424 N 0.52537 0.14710 1.11670
 H425 H 0.54954 0.04583 1.15358
 H426 H 0.47150 0.20256 1.15502
 C427 C -0.02055 0.68284 0.60935
 C428 C 0.01110 0.67064 0.61824
 N429 N 0.03873 0.68362 0.60296
 C430 C 0.03611 0.70791 0.57882
 C431 C 0.00435 0.71986 0.56944
 N432 N -0.02317 0.70706 0.58535
 N433 N -0.04827 0.66969 0.62411
 C434 C -0.04586 0.64454 0.64709
 C435 C -0.01423 0.63177 0.65578
 N436 N 0.01359 0.64552 0.64132
 H437 H 0.05862 0.71775 0.56724
 H438 H -0.06845 0.63474 0.65857
 C439 C 0.48435 0.87674 -0.18068
 C440 C 0.51293 0.87154 -0.15991
 N441 N 0.54052 0.89044 -0.16453
 C442 C 0.54061 0.91481 -0.18861
 C443 C 0.51167 0.92083 -0.20882
 N444 N 0.48427 0.90132 -0.20441
 N445 N 0.45650 0.85838 -0.17536
 C446 C 0.45578 0.83526 -0.14986
 C447 C 0.48417 0.83049 -0.12827
 N448 N 0.51211 0.84879 -0.13421
 H449 H 0.56259 0.93021 -0.19100
 H450 H 0.43282 0.82184 -0.14566
 C451 C 1.01930 0.31402 0.40297
 C452 C 0.98947 0.33207 0.40199
 N453 N 0.96491 0.32597 0.42587
 C454 C 0.96893 0.30298 0.45118
 C455 C 0.99930 0.28506 0.45305
 N456 N 1.02347 0.29109 0.42825
 N457 N 1.04407 0.32047 0.37940
 C458 C 1.04043 0.34433 0.35494
 C459 C 1.01049 0.36289 0.35393
 N460 N 0.98578 0.35596 0.37772
 H461 H 0.94825 0.29912 0.46903
 H462 H 1.06122 0.34926 0.33748
 C463 C 0.47402 0.91981 0.14443
 C464 C 0.47938 0.89074 0.16285
 N465 N 0.48706 0.89311 0.19839
 C466 C 0.49001 0.92324 0.21624
 C467 C 0.48591 0.95268 0.19742
 N468 N 0.47779 0.94971 0.16190
 N469 N 0.46597 0.91784 0.10909
 C470 C 0.46331 0.88796 0.09109
 C471 C 0.46956 0.85859 0.10905
 N472 N 0.47753 0.86072 0.14471
 H473 H 0.49701 0.92371 0.24423
 H474 H 0.45755 0.88725 0.06269
 C475 C 0.02340 0.33458 0.61094
 C476 C -0.00910 0.34575 0.61885
 N477 N -0.03555 0.32975 0.60321
 C478 C -0.03098 0.30336 0.57962
 C479 C 0.00164 0.29239 0.57113
 N480 N 0.02800 0.30828 0.58743
 N481 N 0.04990 0.35058 0.62639
 C482 C 0.04546 0.37755 0.64910
 C483 C 0.01292 0.38933 0.65676
 N484 N -0.01363 0.37272 0.64158
 H485 H -0.05265 0.29105 0.56797
 H486 H 0.06717 0.38944 0.66123
 C487 C 0.50312 0.07462 0.85004
 C488 C 0.51052 0.10420 0.83329
 N489 N 0.51646 0.10334 0.79736
 C490 C 0.51537 0.07418 0.77745
 C491 C 0.50813 0.04442 0.79432
 N492 N 0.50221 0.04570 0.83031
 N493 N 0.49723 0.07511 0.88584
 C494 C 0.49816 0.10403 0.90582
 C495 C 0.50534 0.13394 0.88926
 N496 N 0.51163 0.13323 0.85326
 H497 H 0.52076 0.07443 0.74908
 H498 H 0.49376 0.10353 0.93444
 C499 C 0.98093 0.66746 0.41044
 C500 C 1.01207 0.65183 0.40616
 N501 N 1.03902 0.66456 0.42413
 C502 C 1.03615 0.69205 0.44652
 C503 C 1.00478 0.70755 0.45130
 N504 N 0.97805 0.69476 0.43276
 N505 N 0.95398 0.65501 0.39241
 C506 C 0.95663 0.62732 0.37046
 C507 C 0.98772 0.61107 0.36640
 N508 N 1.01480 0.62411 0.38426
 H509 H 1.05826 0.70165 0.45996
 H510 H 0.93470 0.61854 0.35600
 C511 C 1.17685 0.48485 0.11852
 C512 C 1.14878 0.50392 0.11045
 N513 N 1.14741 0.51904 0.07858
 C514 C 1.17272 0.51558 0.05419
 C515 C 1.20053 0.49568 0.06184
 N516 N 1.20178 0.48105 0.09409
 N517 N 1.17820 0.46930 0.15002
 C518 C 1.15256 0.47172 0.17389
 C519 C 1.12392 0.49036 0.16583
 N520 N 1.12290 0.50607 0.13410
 H521 H 1.17039 0.52718 0.02870
 H522 H 1.15418 0.45817 0.19824
 C523 C 0.60567 -0.02584 0.65828
 C524 C 0.61064 0.00680 0.64785
 N525 N 0.59134 0.03159 0.66245
 C526 C 0.56718 0.02521 0.68694
 C527 C 0.56205 -0.00757 0.69740
 N528 N 0.58168 -0.03221 0.68269
 N529 N 0.62478 -0.05072 0.64375
 C530 C 0.64894 -0.04447 0.61937
 C531 C 0.65446 -0.01167 0.60903
 N532 N 0.63481 0.01316 0.62347
 H533 H 0.55281 0.04572 0.69843
 H534 H 0.66313 -0.06511 0.60776
 C535 C -0.18401 0.52454 0.90160
 C536 C -0.15575 0.50530 0.90871
 N537 N -0.15392 0.48931 0.93994
 C538 C -0.17911 0.49165 0.96445
 C539 C -0.20750 0.51107 0.95758
 N540 N -0.20910 0.52714 0.92617
 N541 N -0.18585 0.54040 0.87030
 C542 C -0.16052 0.53828 0.84592
 C543 C -0.13162 0.51961 0.85322
 N544 N -0.13032 0.50335 0.88454
 H545 H -0.17641 0.47918 0.98938
 H546 H -0.16325 0.55086 0.82107
 C547 C 0.40803 -0.00605 0.32292
 C548 C 0.39645 0.02397 0.33887
 N549 N 0.41015 0.05304 0.32934
 C550 C 0.43473 0.05353 0.30421
 C551 C 0.44617 0.02352 0.28765
 N552 N 0.43263 -0.00563 0.29779
 N553 N 0.39436 -0.03509 0.33268
 C554 C 0.36944 -0.03550 0.35751
 C555 C 0.35746 -0.00536 0.37340
 N556 N 0.37164 0.02361 0.36366
 H557 H 0.44535 0.07716 0.29762
 H558 H 0.35967 -0.05918 0.36513
 C559 C 0.15561 0.51364 0.92088
 C560 C 0.15935 0.49728 0.88714
 N561 N 0.18673 0.47818 0.88033
 C562 C 0.21036 0.47418 0.90597
 C563 C 0.20638 0.48977 0.94029
 N564 N 0.17913 0.50954 0.94668
 N565 N 0.12795 0.53246 0.92763
 C566 C 0.10374 0.53548 0.90226
 C567 C 0.10714 0.51867 0.86843
 N568 N 0.13516 0.50007 0.86195
 H569 H 0.23197 0.45891 0.89949
 H570 H 0.08169 0.54996 0.90903
 C571 C 0.61259 0.00547 0.30155
 C572 C 0.60394 -0.00897 0.33381
 N573 N 0.57203 -0.01926 0.33883
 C574 C 0.54821 -0.01530 0.31326
 C575 C 0.55659 0.00009 0.28125
 N576 N 0.58882 0.00978 0.27628
 N577 N 0.64428 0.01624 0.29656
 C578 C 0.66764 0.01399 0.32278
 C579 C 0.65885 0.00073 0.35584
 N580 N 0.62718 -0.01095 0.36024
 H581 H 0.52287 -0.02280 0.31877
 H582 H 0.69271 0.02281 0.31794
 C583 C 0.82222 0.51747 0.12471
 C584 C 0.83840 0.48658 0.12373
 N585 N 0.82860 0.46258 0.09926
 C586 C 0.80372 0.46825 0.07533
 C587 C 0.78797 0.49956 0.07561
 N588 N 0.79761 0.52320 0.10077
 N589 N 0.83190 0.54159 0.14899
 C590 C 0.85754 0.53646 0.17200
 C591 C 0.87461 0.50584 0.17054
 N592 N 0.86419 0.48142 0.14660
 H593 H 0.79655 0.44840 0.05652
 H594 H 0.86450 0.55619 0.19116
 C595 C 0.40445 -0.03471 0.66590
 C596 C 0.39609 -0.00285 0.65518
 N597 N 0.41335 0.02382 0.66882
 C598 C 0.43886 0.02004 0.69247
 C599 C 0.44762 -0.01197 0.70292
 N600 N 0.42984 -0.03848 0.68942
 N601 N 0.38735 -0.06144 0.65231
 C602 C 0.36246 -0.05783 0.62800
 C603 C 0.35428 -0.02597 0.61660
 N604 N 0.37122 0.00083 0.63087
 H605 H 0.45169 0.04188 0.70318
 H606 H 0.34915 -0.07963 0.61785
   
