data_POSCAR
  _audit_creation_date              2014-09-24
  _audit_creation_method            'ToBaCCo'
  _symmetry_space_group_name_H-M    'P1'
  _symmetry_Int_Tables_number       1
  _symmetry_cell_setting            triclinic
  loop_
  _symmetry_equiv_pos_as_xyz
 x,y,z
_cell_length_a 19.1255
_cell_length_b 19.1255
_cell_length_c 27.0446
_cell_angle_alpha 90.000000
_cell_angle_beta 90.000000
_cell_angle_gamma 90.000000
loop_
  _atom_site_label
  _atom_site_type_symbol
  _atom_site_fract_x
  _atom_site_fract_y
  _atom_site_fract_z
O1 O -0.04054 0.58013 0.95215
 O2 O -0.06536 0.42635 1.04479
 O3 O -0.05292 0.57582 1.05108
 O4 O -0.05062 0.43398 0.94879
 O5 O 0.06078 0.42040 0.96059
 O6 O 0.05967 0.56216 1.05971
 O7 O 0.04845 0.41498 1.05520
 O8 O 0.07188 0.56266 0.96224
 Cu9 Cu -0.06235 0.50506 0.99937
 Cu10 Cu 0.07108 0.48945 1.01107
 C11 C 0.02210 0.59707 0.94245
 C12 C -0.01309 0.39151 1.06207
 C13 C 0.00517 0.59677 1.06939
 C14 C 0.00577 0.40173 0.93885
 O15 O 0.57577 -0.05053 0.53711
 O16 O 0.43069 -0.04146 0.43848
 O17 O 0.57212 -0.02870 0.43771
 O18 O 0.42155 -0.05660 0.53147
 O19 O 0.42221 0.05217 0.55733
 O20 O 0.57048 0.07922 0.46531
 O21 O 0.42227 0.06924 0.45774
 O22 O 0.56429 0.05879 0.55865
 Cu23 Cu 0.50239 -0.05537 0.48749
 Cu24 Cu 0.49215 0.07476 0.50995
 C25 C 0.59856 0.00188 0.56138
 C26 C 0.40091 0.01782 0.43254
 C27 C 0.59794 0.03315 0.43690
 C28 C 0.39153 -0.00693 0.55613
 C29 C 0.14973 0.04002 0.28552
 H30 H 0.14622 0.07618 0.25475
 C31 C 0.21211 0.03906 0.31399
 H32 H 0.25699 0.07190 0.30323
 C33 C 0.09898 -0.04639 0.33688
 H34 H 0.05775 -0.08246 0.34488
 C35 C 0.16108 -0.04931 0.36561
 H36 H 0.16266 -0.08565 0.39630
 N37 N 0.09325 -0.00257 0.29637
 C38 C -0.05171 -0.10608 0.17576
 H39 H -0.09252 -0.06665 0.17318
 C40 C -0.05769 -0.16978 0.14796
 H41 H -0.10365 -0.17658 0.12540
 C42 C 0.05425 -0.14456 0.21069
 H43 H 0.09788 -0.13677 0.23543
 C44 C 0.05087 -0.20871 0.18257
 H45 H 0.09100 -0.24850 0.18761
 Zn46 Zn 0.00318 -0.00286 0.25137
 N47 N 0.00302 -0.09416 0.20752
 C48 C 0.04237 0.09424 0.16452
 N49 N 0.00513 0.08872 0.20765
 C50 C -0.03432 0.14562 0.22182
 C51 C -0.04295 0.20532 0.19026
 C52 C 0.03860 0.15542 0.13342
 C53 C -0.10076 -0.03242 0.33665
 C54 C -0.16555 -0.02673 0.36353
 C55 C -0.21297 0.03932 0.29655
 C56 C -0.14790 0.03181 0.27069
 N57 N -0.09127 -0.00205 0.29107
 H58 H 0.07466 0.05086 0.15255
 H59 H -0.06134 0.14574 0.25738
 H60 H -0.08006 0.24627 0.20083
 H61 H 0.06797 0.15795 0.09921
 H62 H -0.05744 -0.05936 0.35365
 H63 H -0.16783 -0.04870 0.40040
 H64 H -0.25420 0.07134 0.28034
 H65 H -0.14373 0.05358 0.23410
 C66 C -0.00721 -0.22321 0.15132
 C67 C 0.21843 -0.00466 0.35654
 C68 C -0.22561 0.00702 0.34371
 C69 C -0.00844 0.20921 0.14457
 C70 C 0.01253 0.15747 0.77913
 H71 H 0.02369 0.16123 0.74050
 C72 C 0.00877 0.22155 0.80760
 H73 H 0.01936 0.27162 0.78956
 C74 C -0.02125 0.09159 0.84804
 H75 H -0.03602 0.04246 0.86479
 C76 C -0.02743 0.15413 0.87714
 H77 H -0.04555 0.14926 0.91542
 N78 N -0.00178 0.09340 0.79936
 C79 C 0.10564 -0.06037 0.68521
 H80 H 0.07188 -0.10532 0.68806
 C81 C 0.16520 -0.06505 0.65356
 H82 H 0.17296 -0.11141 0.63119
 C83 C 0.13748 0.05357 0.70871
 H84 H 0.12988 0.09872 0.73119
 C85 C 0.19764 0.05090 0.67708
 H86 H 0.23141 0.09723 0.67360
 Zn87 Zn -0.00005 0.00190 0.75612
 N88 N 0.09005 -0.00082 0.71174
 C89 C -0.08308 -0.03558 0.66574
 N90 N -0.08852 -0.00342 0.71110
 C91 C -0.15227 0.02555 0.72348
 C92 C -0.21030 0.02583 0.69011
 C93 C -0.14022 -0.03981 0.63246
 C94 C 0.03323 -0.08843 0.84439
 C95 C 0.03747 -0.14944 0.87433
 C96 C -0.02930 -0.21046 0.81275
 C97 C -0.03365 -0.14722 0.78483
 N98 N -0.00107 -0.08679 0.80016
 H99 H -0.03402 -0.05762 0.65447
 H100 H -0.15798 0.05140 0.75877
 H101 H -0.25890 0.05193 0.70013
 H102 H -0.13232 -0.06546 0.59748
 H103 H 0.06106 -0.04218 0.85632
 H104 H 0.06661 -0.14754 0.90865
 H105 H -0.05162 -0.25777 0.79800
 H106 H -0.05909 -0.14855 0.74894
 C107 C 0.21146 -0.00880 0.64790
 C108 C -0.01125 0.22107 0.85823
 C109 C 0.00824 -0.21374 0.85832
 C110 C -0.20532 -0.00681 0.64312
 C111 C 0.01838 -0.33531 0.09858
 C112 C -0.02644 -0.29456 0.12828
 H113 H 0.07326 -0.32244 0.09620
 H114 H -0.08174 -0.30509 0.13124
 C115 C -0.02598 0.31637 0.08259
 C116 C -0.03685 0.24975 0.10126
 H117 H 0.00671 0.33751 0.11181
 H118 H -0.06778 0.21173 0.07963
 C119 C 0.31271 -0.01171 0.56635
 C120 C 0.26508 -0.01035 0.60470
 H121 H 0.28505 -0.01252 0.53130
 H122 H 0.30017 -0.00828 0.63653
 C123 C -0.32510 -0.00155 0.58196
 C124 C -0.25810 -0.00449 0.60070
 H125 H -0.36302 0.00217 0.61176
 H126 H -0.22279 -0.00236 0.56873
 C127 C 0.04506 -0.35152 0.90051
 C128 C 0.02726 -0.28478 0.88020
 H129 H 0.03865 -0.38955 0.87090
 H130 H 0.05989 -0.27244 0.91181
 C131 C 0.01428 0.34497 0.89860
 C132 C -0.02847 0.28770 0.88920
 H133 H 0.06487 0.35065 0.88118
 H134 H -0.07492 0.28282 0.91179
 C135 C -0.34092 0.06013 0.40571
 C136 C -0.28646 0.03503 0.37642
 H137 H -0.34489 0.11701 0.40457
 H138 H -0.29058 -0.02311 0.37678
 C139 C 0.34210 0.02961 0.39456
 C140 C 0.28569 -0.01525 0.38788
 H141 H 0.34304 0.08236 0.38079
 H142 H 0.28333 -0.06106 0.41061
   
