data_POSCAR
  _audit_creation_date              2014-09-24
  _audit_creation_method            'ToBaCCo'
  _symmetry_space_group_name_H-M    'P1'
  _symmetry_Int_Tables_number       1
  _symmetry_cell_setting            triclinic
  loop_
  _symmetry_equiv_pos_as_xyz
 x,y,z
_cell_length_a 33.0492
_cell_length_b 33.0588
_cell_length_c 32.8742
_cell_angle_alpha 89.950200
_cell_angle_beta 89.849500
_cell_angle_gamma 90.186900
loop_
  _atom_site_label
  _atom_site_type_symbol
  _atom_site_fract_x
  _atom_site_fract_y
  _atom_site_fract_z
C1 C 0.13997 0.16764 0.20087
 C2 C 0.13956 0.19922 0.17233
 C3 C 0.16936 0.20157 0.14284
 C4 C 0.20008 0.17240 0.14150
 C5 C 0.20054 0.14140 0.16966
 C6 C 0.17028 0.13901 0.19953
 C7 C 0.11667 0.15941 0.23467
 N8 N 0.13187 0.12625 0.25385
 C9 C 0.16507 0.11398 0.23252
 C10 C 0.23504 0.11925 0.16280
 N11 N 0.25566 0.13580 0.13094
 C12 C 0.23437 0.16867 0.11801
 C13 C 0.16260 0.23636 0.12091
 N14 N 0.12952 0.25535 0.13635
 C15 C 0.11529 0.23263 0.16792
 H16 H 0.09139 0.17722 0.24549
 H17 H 0.18556 0.09006 0.24109
 H18 H 0.24509 0.09351 0.18047
 H19 H 0.24342 0.18968 0.09449
 H20 H 0.18096 0.24766 0.09602
 H21 H 0.08979 0.23981 0.18715
 C22 C -0.14548 0.82843 0.20268
 C23 C -0.14670 0.79702 0.17387
 C24 C -0.17554 0.79770 0.14356
 C25 C -0.20342 0.82933 0.14138
 C26 C -0.20253 0.86003 0.16968
 C27 C -0.17332 0.85957 0.20058
 C28 C -0.12271 0.83479 0.23715
 N29 N -0.13587 0.86903 0.25605
 C30 C -0.16716 0.88404 0.23373
 C31 C -0.23530 0.88456 0.16198
 N32 N -0.25583 0.86964 0.12933
 C33 C -0.23653 0.83540 0.11706
 C34 C -0.17137 0.76308 0.12110
 N35 N -0.14085 0.74066 0.13704
 C36 C -0.12529 0.76152 0.16917
 H37 H -0.09906 0.81519 0.24847
 H38 H -0.18567 0.90980 0.24138
 H39 H -0.24458 0.91038 0.17994
 H40 H -0.24683 0.81470 0.09381
 H41 H -0.18943 0.75534 0.09489
 H42 H -0.10059 0.75126 0.18807
 C43 C -0.14067 0.16525 -0.19954
 C44 C -0.13964 0.19628 -0.17050
 C45 C -0.16808 0.19719 -0.13967
 C46 C -0.19789 0.16704 -0.13732
 C47 C -0.19898 0.13646 -0.16589
 C48 C -0.17017 0.13562 -0.19731
 C49 C -0.11862 0.15832 -0.23435
 N50 N -0.13390 0.12517 -0.25358
 C51 C -0.16567 0.11126 -0.23089
 C52 C -0.23290 0.11347 -0.15790
 N53 N -0.25232 0.12907 -0.12487
 C54 C -0.23111 0.16230 -0.11257
 C55 C -0.16158 0.23205 -0.11781
 N56 N -0.12985 0.25242 -0.13452
 C57 C -0.11634 0.23062 -0.16693
 H58 H -0.09385 0.17676 -0.24561
 H59 H -0.18533 0.08620 -0.23829
 H60 H -0.24363 0.08817 -0.17583
 H61 H -0.23999 0.18314 -0.08887
 H62 H -0.17940 0.24256 -0.09226
 H63 H -0.09244 0.23938 -0.18763
 C64 C 0.14182 0.83218 -0.19923
 C65 C 0.14001 0.80212 -0.16924
 C66 C 0.16898 0.80071 -0.13908
 C67 C 0.20023 0.82957 -0.13847
 C68 C 0.20200 0.85928 -0.16803
 C69 C 0.17255 0.86055 -0.19871
 C70 C 0.11933 0.83888 -0.23366
 N71 N 0.13541 0.87085 -0.25428
 C72 C 0.16830 0.88406 -0.23299
 C73 C 0.23657 0.88155 -0.16112
 N74 N 0.25595 0.86629 -0.12798
 C75 C 0.23374 0.83418 -0.11420
 C76 C 0.16121 0.76665 -0.11612
 N77 N 0.12812 0.74752 -0.13151
 C78 C 0.11525 0.76907 -0.16427
 H79 H 0.09377 0.82096 -0.24376
 H80 H 0.18903 0.90772 -0.24212
 H81 H 0.24739 0.90663 -0.17942
 H82 H 0.24138 0.81443 -0.08922
 H83 H 0.17916 0.75570 -0.09093
 H84 H 0.09097 0.76062 -0.18454
 C85 C 0.18281 1.15040 0.79098
 C86 C 0.21125 1.15339 0.82236
 C87 C 0.20856 1.18430 0.85046
 C88 C 0.17724 1.21265 0.84761
 C89 C 0.14918 1.20975 0.81668
 C90 C 0.15199 1.17834 0.78815
 C91 C 0.17917 1.12445 0.75854
 N92 N 0.14671 1.13588 0.73580
 C93 C 0.12998 1.16886 0.75402
 C94 C 0.12338 1.24212 0.82040
 N95 N 0.13505 1.26479 0.85300
 C96 C 0.16804 1.24668 0.86969
 C97 C 0.24107 1.18070 0.87628
 N98 N 0.26348 1.14826 0.86448
 C99 C 0.24523 1.13144 0.83155
 H100 H 0.19939 1.09964 0.75225
 H101 H 0.10394 1.18519 0.74275
 H102 H 0.09857 1.24846 0.80010
 H103 H 0.18457 1.25795 0.89576
 H104 H 0.24780 1.20082 0.90124
 H105 H 0.25643 1.10542 0.81506
 C106 C 0.83059 0.85949 0.80172
 C107 C 0.79925 0.86076 0.83058
 C108 C 0.79705 0.83175 0.86081
 C109 C 0.82617 0.80100 0.86264
 C110 C 0.85697 0.79975 0.83420
 C111 C 0.85918 0.82918 0.80353
 C112 C 0.83860 0.88186 0.76728
 N113 N 0.87155 0.86607 0.74809
 C114 C 0.88400 0.83348 0.77018
 C115 C 0.87904 0.76535 0.84164
 N116 N 0.86265 0.74555 0.87410
 C117 C 0.82996 0.76726 0.88687
 C118 C 0.76230 0.83902 0.88273
 N119 N 0.74324 0.87171 0.86664
 C120 C 0.76580 0.88509 0.83457
 H121 H 0.82086 0.90700 0.75611
 H122 H 0.90797 0.81286 0.76206
 H123 H 0.90456 0.75475 0.82391
 H124 H 0.80909 0.75879 0.91076
 H125 H 0.75098 0.82116 0.90797
 H126 H 0.75825 0.90979 0.81450
 C127 C 0.16142 0.86194 1.19487
 C128 C 0.19240 0.86380 1.16573
 C129 C 0.19502 0.83454 1.13586
 C130 C 0.16662 0.80292 1.13474
 C131 C 0.13610 0.80112 1.16349
 C132 C 0.13350 0.83082 1.19377
 C133 C 0.15388 0.88397 1.22950
 N134 N 0.12193 0.86712 1.24961
 C135 C 0.10952 0.83430 1.22780
 C136 C 0.11504 0.76580 1.15704
 N137 N 0.13192 0.74595 1.12507
 C138 C 0.16365 0.76858 1.11131
 C139 C 0.23002 0.84192 1.11430
 N140 N 0.24877 0.87492 1.13032
 C141 C 0.22582 0.88836 1.16196
 H142 H 0.17153 0.90942 1.24034
 H143 H 0.08640 0.81284 1.23667
 H144 H 0.08989 0.75462 1.17504
 H145 H 0.18415 0.76050 1.08703
 H146 H 0.24200 0.82362 1.08980
 H147 H 0.23346 0.91281 1.18233
 C148 C 0.83786 1.13549 1.20066
 C149 C 0.80709 1.13391 1.17143
 C150 C 0.80569 1.16256 1.14087
 C151 C 0.83502 1.19323 1.13910
 C152 C 0.86529 1.19494 1.16797
 C153 C 0.86670 1.16580 1.19902
 C154 C 0.84470 1.11362 1.23555
 N155 N 0.87710 1.12971 1.25534
 C156 C 0.89053 1.16194 1.23304
 C157 C 0.88714 1.22977 1.16073
 N158 N 0.87102 1.24916 1.12808
 C159 C 0.83888 1.22694 1.11492
 C160 C 0.77083 1.15576 1.11916
 N161 N 0.75086 1.12373 1.13577
 C162 C 0.77300 1.11023 1.16788
 H163 H 0.82651 1.08859 1.24659
 H164 H 0.91457 1.18253 1.24128
 H165 H 0.91206 1.24107 1.17881
 H166 H 0.81828 1.23528 1.09090
 H167 H 0.75982 1.17382 1.09405
 H168 H 0.76448 1.08626 1.18856
 N169 N 0.54394 1.07364 0.96140
 N170 N 0.57773 1.09481 0.95953
 N171 N 0.45735 1.04834 0.93352
 N172 N 0.42535 1.05367 0.91020
 N173 N 0.45894 1.07615 0.96195
 N174 N 0.42805 1.10113 0.95880
 N175 N 0.54269 1.04660 0.93218
 N176 N 0.57577 1.04882 0.90958
 C177 C 0.59722 1.07921 0.92697
 C178 C 0.40746 1.08682 0.92631
 N179 N 0.45567 0.93227 0.95990
 N180 N 0.42338 0.90902 0.95711
 N181 N 0.54047 0.95981 0.93068
 N182 N 0.57295 0.95751 0.90744
 N183 N 0.54091 0.93145 0.95866
 N184 N 0.57373 0.90899 0.95501
 N185 N 0.45503 0.96084 0.93214
 N186 N 0.42208 0.95757 0.90955
 Mn187 Mn 0.49873 1.00390 0.93153
 C188 C 0.40270 0.92493 0.92555
 C189 C 0.59332 0.92555 0.92274
 N190 N 0.45928 1.07462 1.04901
 N191 N 0.42685 1.09759 1.05101
 N192 N 0.54322 1.04389 1.07686
 N193 N 0.57614 1.04481 1.09939
 N194 N 0.54452 1.07224 1.04891
 N195 N 0.57841 1.09334 1.05185
 N196 N 0.45787 1.04610 1.07680
 N197 N 0.42434 1.04914 1.09861
 Mn198 Mn 0.50177 1.07465 1.00534
 C199 C 0.40543 1.08162 1.08222
 C200 C 0.59770 1.07595 1.08366
 N201 N 0.54125 0.93012 1.04629
 N202 N 0.57431 0.90796 1.04756
 N203 N 0.45616 0.95899 1.07539
 N204 N 0.42277 0.95728 1.09736
 N205 N 0.45591 0.93099 1.04709
 N206 N 0.42225 0.90942 1.04918
 N207 N 0.54144 0.95723 1.07545
 N208 N 0.57469 0.95405 1.09744
 Mn209 Mn 0.49852 0.93068 1.00300
 Mn210 Mn 0.49958 1.00153 1.07669
 Cl211 Cl 0.49963 1.00268 1.00410
 C212 C 0.59478 0.92304 1.07976
 C213 C 0.40202 0.92607 1.08085
 N214 N 0.04066 0.45665 0.06993
 N215 N 0.04352 0.42459 0.09354
 N216 N 0.06955 0.54088 0.04136
 N217 N 0.09279 0.57328 0.04324
 N218 N 0.04158 0.54188 0.06980
 N219 N 0.04522 0.57511 0.09186
 N220 N 0.06810 0.45563 0.04098
 N221 N 0.09050 0.42271 0.04433
 C222 C 0.07480 0.40374 0.07744
 C223 C 0.07753 0.59423 0.07501
 N224 N 0.03907 0.54343 -0.07293
 N225 N 0.04117 0.57695 -0.09456
 N226 N 0.06691 0.45698 -0.04705
 N227 N 0.09018 0.42502 -0.05232
 N228 N 0.03870 0.45838 -0.07505
 N229 N 0.04192 0.42736 -0.10004
 N230 N 0.06815 0.54230 -0.04582
 N231 N 0.09088 0.57518 -0.04841
 Mn232 Mn 0.06875 0.49877 -0.00263
 C233 C 0.07372 0.59639 -0.07910
 C234 C 0.07423 0.40689 -0.08559
 N235 N -0.04588 0.54192 0.07144
 N236 N -0.04947 0.57415 0.09493
 N237 N -0.07400 0.45604 0.04296
 N238 N -0.09561 0.42251 0.04489
 N239 N -0.04608 0.45640 0.07131
 N240 N -0.04807 0.42296 0.09331
 N241 N -0.07476 0.54103 0.04413
 N242 N -0.09881 0.57248 0.04834
 Mn243 Mn -0.00241 0.49938 0.07120
 C244 C -0.08289 0.59274 0.08028
 C245 C -0.07930 0.40225 0.07657
 N246 N -0.04781 0.45847 -0.07349
 N247 N -0.04978 0.42596 -0.09655
 N248 N -0.07589 0.54242 -0.04292
 N249 N -0.09864 0.57507 -0.04414
 N250 N -0.04810 0.54368 -0.07150
 N251 N -0.05145 0.57721 -0.09314
 N252 N -0.07533 0.45705 -0.04467
 N253 N -0.09694 0.42345 -0.04757
 Mn254 Mn -0.00455 0.50112 -0.07374
 Mn255 Mn -0.07550 0.49901 -0.00012
 Cl256 Cl -0.00340 0.49957 -0.00130
 C257 C -0.08071 0.40451 -0.08029
 C258 C -0.08327 0.59640 -0.07575
 N259 N 1.04694 0.06586 0.54358
 N260 N 1.05233 0.08929 0.57561
 N261 N 1.07261 0.03832 0.45659
 N262 N 1.09428 0.04050 0.42297
 N263 N 1.04557 0.06731 0.45777
 N264 N 1.04828 0.09008 0.42477
 N265 N 1.07476 0.03765 0.54206
 N266 N 1.09981 0.04108 0.57307
 C267 C 1.08550 0.07349 0.59365
 C268 C 1.07896 0.07300 0.40346
 N269 N 1.04269 -0.07646 0.45663
 N270 N 1.04356 -0.09857 0.42330
 N271 N 1.07323 -0.04890 0.54121
 N272 N 1.09615 -0.05077 0.57384
 N273 N 1.04472 -0.07663 0.54250
 N274 N 1.04773 -0.09825 0.57625
 N275 N 1.07113 -0.04867 0.45563
 N276 N 1.09228 -0.05134 0.42158
 Mn277 Mn 1.07341 -0.00543 0.49878
 C278 C 1.07478 -0.08278 0.40185
 C279 C 1.08020 -0.08180 0.59533
 N280 N 0.95878 0.06858 0.45977
 N281 N 0.95715 0.09138 0.42693
 N282 N 0.93089 0.03926 0.54471
 N283 N 0.90771 0.04174 0.57723
 N284 N 0.95948 0.06692 0.54556
 N285 N 0.95630 0.08912 0.57889
 N286 N 0.93035 0.04075 0.45903
 N287 N 0.90849 0.04411 0.42557
 Mn288 Mn 1.00268 0.06775 0.50182
 C289 C 0.92551 0.07605 0.40599
 C290 C 0.92368 0.07302 0.59824
 N291 N 0.95752 -0.07555 0.54387
 N292 N 0.95544 -0.09783 0.57708
 N293 N 0.92880 -0.04640 0.45840
 N294 N 0.90610 -0.04801 0.42555
 N295 N 0.95593 -0.07533 0.45803
 N296 N 0.95223 -0.09748 0.42476
 N297 N 0.92950 -0.04748 0.54420
 N298 N 0.90752 -0.05008 0.57775
 Mn299 Mn 1.00021 -0.07657 0.50035
 Mn300 Mn 0.92935 -0.00346 0.50150
 Cl301 Cl 1.00140 -0.00441 0.50063
 C302 C 0.92398 -0.08179 0.59785
 C303 C 0.92087 -0.08012 0.40489
 C304 C 1.11848 0.11163 0.29143
 C305 C 1.12901 0.14048 0.32652
 C306 C 1.11571 0.12761 0.36355
 C307 C 1.09320 0.08700 0.36234
 C308 C 1.05907 0.09294 0.33122
 C309 C 1.07225 0.10581 0.29402
 C310 C 1.13574 0.07021 0.30427
 C311 C 1.12267 0.05760 0.34141
 H312 H 1.14560 0.16861 0.32251
 H313 H 1.12089 0.14473 0.39123
 H314 H 1.02740 0.08678 0.33762
 H315 H 1.05182 0.11059 0.26869
 H316 H 1.15418 0.05079 0.28531
 H317 H 1.13098 0.02827 0.35363
 C318 C 0.87832 -0.11690 0.29350
 C319 C 0.86839 -0.14616 0.32857
 C320 C 0.88269 -0.13391 0.36536
 C321 C 0.90548 -0.09344 0.36401
 C322 C 0.93879 -0.09919 0.33178
 C323 C 0.92461 -0.11148 0.29485
 C324 C 0.86165 -0.07554 0.30749
 C325 C 0.87575 -0.06356 0.34437
 H326 H 0.85144 -0.17407 0.32474
 H327 H 0.87801 -0.15136 0.39297
 H328 H 0.97065 -0.09340 0.33731
 H329 H 0.94439 -0.11619 0.26888
 H330 H 0.84268 -0.05570 0.28964
 H331 H 0.86787 -0.03441 0.35729
 C332 C 0.88000 0.11078 0.70897
 C333 C 0.92537 0.10034 0.70926
 C334 C 0.93984 0.08781 0.67252
 C335 C 0.90778 0.08679 0.63881
 C336 C 0.87376 0.05980 0.65611
 C337 C 0.85923 0.07212 0.69276
 C338 C 0.87520 0.14206 0.67461
 C339 C 0.88984 0.12951 0.63800
 H340 H 0.94428 0.10202 0.73616
 H341 H 0.97103 0.07880 0.66804
 H342 H 0.86271 0.03250 0.64149
 H343 H 0.83637 0.05456 0.70852
 H344 H 0.86125 0.17145 0.67874
 H345 H 0.88849 0.14820 0.61087
 C346 C 1.12187 -0.11595 0.70778
 C347 C 1.12862 -0.14769 0.67425
 C348 C 1.11462 -0.13635 0.63707
 C349 C 1.09528 -0.09427 0.63655
 C350 C 1.06226 -0.09574 0.66952
 C351 C 1.07613 -0.10702 0.70685
 C352 C 1.14170 -0.07689 0.69131
 C353 C 1.12786 -0.06579 0.65406
 H354 H 1.14332 -0.17656 0.67938
 H355 H 1.11728 -0.15553 0.61041
 H356 H 1.03081 -0.08804 0.66411
 H357 H 1.05653 -0.10885 0.73334
 H358 H 1.16290 -0.05794 0.70767
 H359 H 1.13805 -0.03816 0.63934
 C360 C 0.29347 1.12256 1.11739
 C361 C 0.32680 1.12903 1.14934
 C362 C 0.36383 1.11534 1.13762
 C363 C 0.36440 1.09654 1.09500
 C364 C 0.33168 1.06339 1.09607
 C365 C 0.29452 1.07698 1.10772
 C366 C 0.30981 1.14294 1.07836
 C367 C 0.34691 1.12939 1.06690
 H368 H 0.32166 1.14333 1.17860
 H369 H 0.39035 1.11786 1.15688
 H370 H 0.33714 1.03208 1.08783
 H371 H 0.26824 1.05725 1.10934
 H372 H 0.29348 1.16431 1.05964
 H373 H 0.36154 1.13997 1.03925
 C374 C 0.29301 0.88057 0.88670
 C375 C 0.32758 0.87549 0.85568
 C376 C 0.36383 0.89036 0.86855
 C377 C 0.36249 0.90884 0.91132
 C378 C 0.32891 0.94080 0.90956
 C379 C 0.29253 0.92608 0.89673
 C380 C 0.30869 0.86040 0.92599
 C381 C 0.34497 0.87515 0.93862
 H382 H 0.32385 0.86122 0.82619
 H383 H 0.39105 0.88887 0.85005
 H384 H 0.33322 0.97213 0.91825
 H385 H 0.26578 0.94491 0.89450
 H386 H 0.29268 0.83798 0.94391
 H387 H 0.35904 0.86465 0.96648
 C388 C 0.70667 0.88339 1.11574
 C389 C 0.70391 0.92972 1.11157
 C390 C 0.66676 0.94293 1.09951
 C391 C 0.63585 0.90869 1.09269
 C392 C 0.65648 0.88047 1.06183
 C393 C 0.69361 0.86745 1.07360
 C394 C 0.67208 0.87157 1.14478
 C395 C 0.63509 0.88487 1.13273
 H396 H 0.72909 0.95024 1.11673
 H397 H 0.66025 0.97470 1.09445
 H398 H 0.64407 0.87303 1.03222
 H399 H 0.71252 0.84994 1.05322
 H400 H 0.67640 0.85417 1.17244
 H401 H 0.60773 0.87888 1.15010
 C402 C 0.70989 1.11635 0.88935
 C403 C 0.67546 1.12847 0.86050
 C404 C 0.63820 1.11597 0.87305
 C405 C 0.63857 1.09259 0.91336
 C406 C 0.66855 1.05772 0.90663
 C407 C 0.70597 1.07011 0.89410
 C408 C 0.69745 1.13305 0.93138
 C409 C 0.66008 1.12080 0.94367
 H410 H 0.68007 1.14549 0.83261
 H411 H 0.61091 1.12227 0.85589
 H412 H 0.66121 1.02611 0.91194
 H413 H 0.73057 1.04906 0.88885
 H414 H 0.71683 1.15051 0.95134
 H415 H 0.64803 1.12881 0.97333
 C416 C 0.11405 0.29445 0.12158
 C417 C 0.10146 0.29326 0.07661
 C418 C 0.08836 0.32951 0.06201
 C419 C 0.08908 0.36369 0.09361
 C420 C 0.06374 0.34730 0.12944
 C421 C 0.07668 0.31112 0.14410
 C422 C 0.14575 0.32850 0.12422
 C423 C 0.13269 0.36468 0.10950
 H424 H 0.10226 0.26611 0.05809
 H425 H 0.07786 0.33336 0.03103
 H426 H 0.03743 0.36242 0.14200
 H427 H 0.06097 0.29626 0.16889
 H428 H 0.17579 0.32446 0.13681
 H429 H 0.15159 0.39160 0.10944
 C430 C -0.11576 0.29243 -0.12080
 C431 C -0.10457 0.29340 -0.07543
 C432 C -0.09289 0.33063 -0.06198
 C433 C -0.09343 0.36346 -0.09512
 C434 C -0.06655 0.34647 -0.12938
 C435 C -0.07807 0.30931 -0.14280
 C436 C -0.14819 0.32526 -0.12585
 C437 C -0.13651 0.36241 -0.11234
 H438 H -0.10542 0.26704 -0.05575
 H439 H -0.08378 0.33611 -0.03075
 H440 H -0.03998 0.36174 -0.14145
 H441 H -0.06074 0.29355 -0.16580
 H442 H -0.17774 0.31970 -0.13908
 H443 H -0.15608 0.38867 -0.11396
 C444 C 0.11271 0.70799 -0.11768
 C445 C 0.07167 0.69512 -0.13582
 C446 C 0.05884 0.65814 -0.12305
 C447 C 0.08781 0.63735 -0.09306
 C448 C 0.12879 0.63638 -0.11506
 C449 C 0.14181 0.67332 -0.12798
 C450 C 0.10632 0.70527 -0.07138
 C451 C 0.09327 0.66821 -0.05848
 H452 H 0.05285 0.71387 -0.15501
 H453 H 0.02977 0.64579 -0.13215
 H454 H 0.14605 0.60895 -0.12013
 H455 H 0.17019 0.67757 -0.14414
 H456 H 0.11117 0.73037 -0.05068
 H457 H 0.08703 0.66162 -0.02671
 C458 C -0.12633 0.70129 0.12203
 C459 C -0.15439 0.68016 0.09111
 C460 C -0.13991 0.64429 0.07734
 C461 C -0.09895 0.63233 0.09575
 C462 C -0.07087 0.66835 0.08672
 C463 C -0.08515 0.70443 0.10053
 C464 C -0.12033 0.66963 0.15579
 C465 C -0.10593 0.63351 0.14199
 H466 H -0.18406 0.69067 0.08218
 H467 H -0.15705 0.62548 0.05647
 H468 H -0.04260 0.66579 0.07014
 H469 H -0.06897 0.73271 0.09605
 H470 H -0.12725 0.67497 0.18762
 H471 H -0.10043 0.60805 0.16207
 C472 C 1.13249 0.11873 0.69974
 C473 C 1.15607 0.08184 0.68321
 C474 C 1.14064 0.06671 0.64796
 C475 C 1.10324 0.08952 0.63240
 C476 C 1.07330 0.08851 0.66816
 C477 C 1.08853 0.10376 0.70339
 C478 C 1.13233 0.14908 0.66423
 C479 C 1.11694 0.13380 0.62910
 H480 H 1.18230 0.06817 0.69719
 H481 H 1.15390 0.04080 0.63276
 H482 H 1.04304 0.07593 0.66616
 H483 H 1.07119 0.10436 0.73147
 H484 H 1.14377 0.17982 0.66646
 H485 H 1.11515 0.15149 0.60133
 C486 C 0.88611 -0.12103 0.71029
 C487 C 0.92652 -0.13992 0.69629
 C488 C 0.93895 -0.12697 0.65901
 C489 C 0.91039 -0.09610 0.63910
 C490 C 0.86886 -0.11691 0.63854
 C491 C 0.85617 -0.13003 0.67570
 C492 C 0.89379 -0.07509 0.70804
 C493 C 0.90645 -0.06208 0.67074
 H494 H 0.94541 -0.15959 0.71443
 H495 H 0.96756 -0.13647 0.64592
 H496 H 0.85102 -0.12115 0.61119
 H497 H 0.82749 -0.14554 0.68012
 H498 H 0.89018 -0.05471 0.73365
 H499 H 0.91354 -0.03058 0.66450
 C500 C 1.10862 -0.12071 0.28800
 C501 C 1.14052 -0.12828 0.32111
 C502 C 1.12914 -0.11566 0.35880
 C503 C 1.08686 -0.09675 0.36016
 C504 C 1.08793 -0.06267 0.32833
 C505 C 1.09927 -0.07517 0.29051
 C506 C 1.06973 -0.14144 0.30396
 C507 C 1.05862 -0.12899 0.34177
 H508 H 1.16951 -0.14255 0.31536
 H509 H 1.14839 -0.11907 0.38527
 H510 H 1.07983 -0.03153 0.33482
 H511 H 1.10081 -0.05472 0.26470
 H512 H 1.05093 -0.16224 0.28692
 H513 H 1.03126 -0.14003 0.35642
 C514 C 0.89064 0.11671 0.29337
 C515 C 0.92949 0.13719 0.30944
 C516 C 0.94086 0.12377 0.34679
 C517 C 0.91287 0.09094 0.36475
 C518 C 0.87052 0.10972 0.36429
 C519 C 0.85889 0.12330 0.32703
 C520 C 0.90015 0.07114 0.29472
 C521 C 0.91173 0.05770 0.33211
 H522 H 0.94799 0.15876 0.29292
 H523 H 0.96820 0.13467 0.36143
 H524 H 0.85140 0.11237 0.39106
 H525 H 0.82983 0.13763 0.32195
 H526 H 0.89844 0.05134 0.26846
 H527 H 0.91984 0.02640 0.33778
 C528 C 0.11826 0.30081 -0.13269
 C529 C 0.10416 0.29767 -0.08816
 C530 C 0.08937 0.33289 -0.07284
 C531 C 0.08988 0.36811 -0.10329
 C532 C 0.13389 0.37121 -0.11795
 C533 C 0.14874 0.33610 -0.13342
 C534 C 0.08094 0.31698 -0.15578
 C535 C 0.06625 0.35222 -0.14029
 H536 H 0.10508 0.26994 -0.07047
 H537 H 0.07756 0.33525 -0.04214
 H538 H 0.15172 0.39882 -0.11671
 H539 H 0.17925 0.33372 -0.14548
 H540 H 0.06656 0.30265 -0.18157
 H541 H 0.04000 0.36711 -0.15314
 C542 C -0.11608 0.28928 0.11337
 C543 C -0.07031 0.29246 0.10524
 C544 C -0.05806 0.32997 0.09293
 C545 C -0.09268 0.36081 0.08985
 C546 C -0.12361 0.34080 0.06123
 C547 C -0.13576 0.30336 0.07334
 C548 C -0.12525 0.32296 0.14417
 C549 C -0.11295 0.36037 0.13188
 H550 H -0.04950 0.26735 0.10850
 H551 H -0.02671 0.33693 0.08575
 H552 H -0.13392 0.35409 0.03289
 H553 H -0.15574 0.28524 0.05464
 H554 H -0.14023 0.31775 0.17313
 H555 H -0.11738 0.38721 0.15034
 C556 C -0.12423 0.70794 -0.11182
 C557 C -0.07853 0.70678 -0.10278
 C558 C -0.06502 0.66977 -0.09072
 C559 C -0.09834 0.63728 -0.08862
 C560 C -0.13071 0.65543 -0.06030
 C561 C -0.14422 0.69242 -0.07221
 C562 C -0.13133 0.67409 -0.14309
 C563 C -0.11771 0.63721 -0.13096
 H564 H -0.05867 0.73291 -0.10509
 H565 H -0.03363 0.66429 -0.08283
 H566 H -0.14097 0.64132 -0.03226
 H567 H -0.16530 0.70924 -0.05352
 H568 H -0.14601 0.67877 -0.17220
 H569 H -0.12070 0.61036 -0.14972
 C570 C 0.11850 0.70596 0.11069
 C571 C 0.12227 0.67312 0.14361
 C572 C 0.10873 0.63605 0.13169
 C573 C 0.09278 0.63508 0.08792
 C574 C 0.06030 0.66815 0.08625
 C575 C 0.07373 0.70527 0.09816
 C576 C 0.14130 0.68885 0.07356
 C577 C 0.12782 0.65175 0.06177
 H578 H 0.13475 0.67859 0.17361
 H579 H 0.10958 0.60979 0.15151
 H580 H 0.02958 0.66291 0.07601
 H581 H 0.05448 0.73181 0.09815
 H582 H 0.16517 0.70423 0.05702
 H583 H 0.14056 0.63619 0.03567
 C584 C 0.30148 1.13337 0.88214
 C585 C 0.29802 1.08952 0.89726
 C586 C 0.33323 1.07441 0.91220
 C587 C 0.36874 1.10442 0.91067
 C588 C 0.37152 1.11790 0.86606
 C589 C 0.33637 1.13311 0.85114
 C590 C 0.31816 1.15717 0.91885
 C591 C 0.35342 1.14192 0.93371
 H592 H 0.27008 1.07217 0.89693
 H593 H 0.33539 1.04420 0.92486
 H594 H 0.39892 1.11602 0.84788
 H595 H 0.33367 1.14431 0.82022
 H596 H 0.30410 1.18344 0.93243
 H597 H 0.36879 1.15537 0.95952
 C598 C 0.28895 0.88969 1.11770
 C599 C 0.30351 0.92896 1.13838
 C600 C 0.34103 0.94101 1.12623
 C601 C 0.36056 0.91306 1.09438
 C602 C 0.35987 0.87087 1.11382
 C603 C 0.32243 0.85865 1.12609
 C604 C 0.29196 0.89869 1.07189
 C605 C 0.32950 0.91094 1.05967
 H606 H 0.28584 0.94707 1.15927
 H607 H 0.35478 0.96873 1.13734
 H608 H 0.38658 0.85227 1.11778
 H609 H 0.31705 0.82962 1.14060
 H610 H 0.26670 0.89604 1.05102
 H611 H 0.33635 0.91873 1.02830
 C612 C 0.71059 1.10984 1.12270
 C613 C 0.67807 1.14251 1.12831
 C614 C 0.64066 1.13113 1.11537
 C615 C 0.63903 1.08807 1.09809
 C616 C 0.67144 1.08724 1.06447
 C617 C 0.70893 1.09865 1.07734
 C618 C 0.69369 1.07229 1.14491
 C619 C 0.65621 1.06107 1.13206
 H620 H 0.68402 1.17199 1.14155
 H621 H 0.61457 1.15089 1.11747
 H622 H 0.66550 1.07802 1.03335
 H623 H 0.73506 1.09920 1.05729
 H624 H 0.70961 1.05491 1.16770
 H625 H 0.64077 1.03475 1.14442
 C626 C 0.70383 0.88709 0.88076
 C627 C 0.68809 0.92519 0.85889
 C628 C 0.65147 0.93790 0.87275
 C629 C 0.63381 0.91168 0.90727
 C630 C 0.63315 0.86854 0.89010
 C631 C 0.66975 0.85568 0.87618
 C632 C 0.70364 0.89846 0.92612
 C633 C 0.66697 0.91134 0.93998
 H634 H 0.70417 0.94183 0.83550
 H635 H 0.63698 0.96478 0.86073
 H636 H 0.60616 0.84979 0.88880
 H637 H 0.67408 0.82596 0.86291
 H638 H 0.73015 0.89695 0.94546
 H639 H 0.66215 0.92090 0.97120
   
