data_POSCAR
  _audit_creation_date              2014-09-24
  _audit_creation_method            'ToBaCCo'
  _symmetry_space_group_name_H-M    'P1'
  _symmetry_Int_Tables_number       1
  _symmetry_cell_setting            triclinic
  loop_
  _symmetry_equiv_pos_as_xyz
 x,y,z
_cell_length_a 33.4054
_cell_length_b 33.5613
_cell_length_c 33.5094
_cell_angle_alpha 89.548200
_cell_angle_beta 90.155400
_cell_angle_gamma 89.842400
loop_
  _atom_site_label
  _atom_site_type_symbol
  _atom_site_fract_x
  _atom_site_fract_y
  _atom_site_fract_z
N1 N 0.17017 0.16973 0.29350
 N2 N 0.20442 0.15040 0.29211
 C3 C 0.20766 0.12672 0.32464
 C4 C 0.17372 0.13159 0.34764
 C5 C 0.15071 0.15950 0.32713
 H6 H 0.23191 0.10598 0.33031
 H7 H 0.12078 0.16937 0.33432
 Cu8 Cu 0.23974 0.15586 0.24630
 Cu9 Cu 0.14998 0.20144 0.24879
 Cu10 Cu 0.20972 0.20520 0.16439
 N11 N 0.27517 0.16305 0.20071
 N12 N 0.26327 0.18288 0.16882
 C13 C 0.29158 0.18054 0.14043
 C14 C 0.32286 0.15758 0.15528
 C15 C 0.31159 0.14736 0.19370
 H16 H 0.28832 0.19260 0.11060
 H17 H 0.32778 0.12797 0.21405
 N18 N 0.15819 0.23329 0.16825
 N19 N 0.13505 0.23138 0.20009
 C20 C 0.10141 0.25256 0.19295
 C21 C 0.10399 0.26906 0.15522
 C22 C 0.14033 0.25634 0.14039
 H23 H 0.07707 0.25632 0.21379
 H24 H 0.15266 0.26313 0.11133
 H25 H 0.17998 0.16990 0.20645
 H26 H 0.20511 0.21600 0.22458
 N27 N -0.15159 0.84039 0.22815
 N28 N -0.17935 0.86814 0.22541
 C29 C -0.16970 0.89850 0.24958
 C30 C -0.13442 0.88886 0.26900
 C31 C -0.12377 0.85166 0.25489
 H32 H -0.18732 0.92529 0.25333
 H33 H -0.09739 0.83450 0.26269
 Cu34 Cu -0.22649 0.86069 0.19220
 Cu35 Cu -0.15327 0.79274 0.19527
 Cu36 Cu -0.21390 0.80420 0.11166
 N37 N -0.27097 0.84904 0.15668
 N38 N -0.26567 0.82759 0.12445
 C39 C -0.29986 0.82713 0.10317
 C40 C -0.32824 0.84926 0.12326
 C41 C -0.30889 0.86264 0.15733
 H42 H -0.30338 0.81286 0.07453
 H43 H -0.32059 0.88238 0.17983
 N44 N -0.16891 0.76644 0.11425
 N45 N -0.14790 0.75996 0.14711
 C46 C -0.12125 0.73069 0.14039
 C47 C -0.12564 0.71844 0.10131
 C48 C -0.15588 0.74183 0.08552
 H49 H -0.09942 0.72009 0.16190
 H50 H -0.16799 0.74049 0.05559
 H51 H -0.17390 0.83018 0.15222
 H52 H -0.21110 0.79303 0.17068
 N53 N -0.15237 0.18693 -0.27170
 N54 N -0.17883 0.15806 -0.27046
 C55 C -0.17380 0.13469 -0.30266
 C56 C -0.14237 0.15001 -0.32496
 C57 C -0.12964 0.18307 -0.30442
 H58 H -0.19020 0.10756 -0.30820
 H59 H -0.10420 0.20166 -0.31156
 Cu60 Cu -0.21332 0.15206 -0.22393
 Cu61 Cu -0.14518 0.22375 -0.22799
 Cu62 Cu -0.22798 0.23196 -0.16586
 N63 N -0.25002 0.15030 -0.17896
 N64 N -0.25738 0.18199 -0.15725
 C65 C -0.28537 0.17273 -0.12965
 C66 C -0.29507 0.13275 -0.13389
 C67 C -0.27196 0.11962 -0.16528
 H68 H -0.29658 0.19312 -0.10744
 H69 H -0.27146 0.08984 -0.17739
 N70 N -0.18464 0.27244 -0.16855
 N71 N -0.15310 0.26851 -0.19186
 C72 C -0.12778 0.29889 -0.18573
 C73 C -0.14382 0.32328 -0.15685
 C74 C -0.17988 0.30563 -0.14655
 H75 H -0.09923 0.30213 -0.20044
 H76 H -0.20035 0.31547 -0.12367
 H77 H -0.17934 0.19949 -0.18086
 H78 H -0.20555 0.22434 -0.22357
 N79 N 0.16609 0.81789 -0.25437
 N80 N 0.19116 0.84663 -0.24551
 C81 C 0.18058 0.87991 -0.26554
 C82 C 0.14745 0.87137 -0.28856
 C83 C 0.13906 0.83165 -0.28099
 H84 H 0.19570 0.90828 -0.26330
 H85 H 0.11433 0.81448 -0.29261
 Cu86 Cu 0.23487 0.83821 -0.20819
 Cu87 Cu 0.16898 0.76618 -0.22768
 Cu88 Cu 0.21342 0.77433 -0.13426
 N89 N 0.26672 0.83621 -0.15995
 N90 N 0.25663 0.81322 -0.12971
 C91 C 0.27946 0.82252 -0.09789
 C92 C 0.30575 0.85236 -0.10922
 C93 C 0.29699 0.86007 -0.14902
 H94 H 0.27671 0.80904 -0.06859
 H95 H 0.30935 0.88330 -0.16778
 N96 N 0.17894 0.72910 -0.14989
 N97 N 0.16232 0.72587 -0.18553
 C98 C 0.13995 0.69255 -0.18658
 C99 C 0.14305 0.67374 -0.14985
 C100 C 0.16811 0.69751 -0.12750
 H101 H 0.12235 0.68321 -0.21195
 H102 H 0.17707 0.69248 -0.09683
 H103 H 0.17986 0.80015 -0.17970
 H104 H 0.22289 0.76773 -0.19396
 N105 N 0.18751 1.15990 0.71327
 N106 N 0.15454 1.18068 0.71850
 C107 C 0.12803 1.17116 0.68977
 C108 C 0.14527 1.14306 0.66521
 C109 C 0.18313 1.13658 0.68101
 H110 H 0.09785 1.18272 0.68748
 H111 H 0.20522 1.11535 0.67091
 Cu112 Cu 0.14878 1.21625 0.76384
 Cu113 Cu 0.23216 1.16208 0.75086
 Cu114 Cu 0.22301 1.22727 0.83054
 N115 N 0.14341 1.25209 0.80900
 N116 N 0.17317 1.25777 0.83408
 C117 C 0.16138 1.28360 0.86244
 C118 C 0.12199 1.29422 0.85482
 C119 C 0.11155 1.27356 0.82090
 H120 H 0.17938 1.29242 0.88774
 H121 H 0.08256 1.27376 0.80647
 N122 N 0.27083 1.19349 0.82192
 N123 N 0.27409 1.16840 0.79191
 C124 C 0.30795 1.14687 0.79657
 C125 C 0.32685 1.15894 0.83122
 C126 C 0.30260 1.18858 0.84634
 H127 H 0.31706 1.12288 0.77727
 H128 H 0.30681 1.20380 0.87436
 H129 H 0.19961 1.17877 0.80072
 H130 H 0.22145 1.21952 0.76962
 N131 N 0.85708 0.86600 0.78235
 N132 N 0.87387 0.83073 0.77850
 C133 C 0.90353 0.83344 0.75131
 C134 C 0.90569 0.87279 0.73861
 C135 C 0.87606 0.89250 0.75903
 H136 H 0.92245 0.80898 0.74213
 H137 H 0.86800 0.92361 0.75595
 Cu138 Cu 0.85606 0.78518 0.81077
 Cu139 Cu 0.80946 0.87404 0.81387
 Cu140 Cu 0.78659 0.80741 0.88418
 N141 N 0.84586 0.75012 0.85777
 N142 N 0.82129 0.76012 0.88688
 C143 C 0.82594 0.73442 0.91760
 C144 C 0.85423 0.70637 0.90714
 C145 C 0.86625 0.71712 0.86900
 H146 H 0.81098 0.73681 0.94607
 H147 H 0.89045 0.70396 0.85220
 N148 N 0.74709 0.84590 0.86431
 N149 N 0.75630 0.87245 0.83682
 C150 C 0.72479 0.89684 0.83048
 C151 C 0.69409 0.88471 0.85535
 C152 C 0.70927 0.85234 0.87635
 H153 H 0.72471 0.92197 0.81009
 H154 H 0.69439 0.83567 0.89973
 H155 H 0.84092 0.82323 0.85572
 H156 H 0.79842 0.80298 0.82583
 N157 N 0.13572 0.85593 1.21418
 N158 N 0.12665 0.82228 1.23233
 C159 C 0.10174 0.82992 1.26290
 C160 C 0.09455 0.87059 1.26342
 C161 C 0.11624 0.88606 1.23194
 H162 H 0.08957 0.80761 1.28288
 H163 H 0.11879 0.91711 1.22344
 Cu164 Cu 0.14684 0.77182 1.21273
 Cu165 Cu 0.17373 0.85843 1.17024
 Cu166 Cu 0.22607 0.77145 1.15185
 N167 N 0.15935 0.72593 1.17985
 N168 N 0.19030 0.72576 1.15569
 C169 C 0.18969 0.69223 1.13388
 C170 C 0.15632 0.67041 1.14494
 C171 C 0.13801 0.69251 1.17436
 H172 H 0.21078 0.68542 1.11046
 H173 H 0.10988 0.68595 1.18890
 N174 N 0.24542 0.82392 1.13487
 N175 N 0.22450 0.85687 1.14019
 C176 C 0.24558 0.88796 1.12595
 C177 C 0.28147 0.87389 1.11125
 C178 C 0.28036 0.83304 1.11720
 H179 H 0.23635 0.91881 1.12780
 H180 H 0.30331 0.81155 1.10988
 H181 H 0.17319 0.80005 1.15078
 H182 H 0.20469 0.81225 1.19514
 N183 N 0.80332 1.16307 1.28028
 N184 N 0.82721 1.19410 1.28202
 C185 C 0.85386 1.18848 1.31169
 C186 C 0.84621 1.15209 1.32963
 C187 C 0.81372 1.13678 1.30911
 H188 H 0.87835 1.20840 1.31836
 H189 H 0.80047 1.10762 1.31285
 Cu190 Cu 0.82361 1.23749 1.24328
 Cu191 Cu 0.76467 1.15718 1.23686
 Cu192 Cu 0.79606 1.20812 1.15233
 N193 N 0.82615 1.27360 1.19768
 N194 N 0.81500 1.26182 1.16205
 C195 C 0.82260 1.29079 1.13525
 C196 C 0.83933 1.32266 1.15522
 C197 C 0.84127 1.31066 1.19479
 H198 H 0.81818 1.28781 1.10344
 H199 H 0.85454 1.32691 1.21923
 N200 N 0.75992 1.16208 1.15061
 N201 N 0.74552 1.14459 1.18293
 C202 C 0.71839 1.11718 1.17201
 C203 C 0.71595 1.11745 1.13076
 C204 C 0.74278 1.14597 1.11819
 H205 H 0.70201 1.09831 1.19251
 H206 H 0.74809 1.15550 1.08775
 H207 H 0.81102 1.17753 1.20447
 H208 H 0.76701 1.21188 1.20502
 O209 O 0.53878 1.00377 0.90057
 O210 O 0.44868 0.96277 1.06179
 O211 O 0.54417 0.94248 1.01742
 O212 O 0.42375 0.99482 0.95369
 O213 O 0.52366 0.96122 1.07449
 O214 O 0.47964 0.96838 0.93277
 O215 O 0.40891 1.00000 1.02486
 O216 O 0.54912 0.96607 0.95167
 C217 C 0.56119 0.97707 0.91780
 C218 C 0.41487 0.96968 1.04683
 C219 C 0.54128 0.93618 1.05355
 C220 C 0.44228 0.96714 0.93577
 O221 O 0.46709 1.03809 0.90834
 O222 O 0.52354 1.03798 1.08139
 O223 O 0.57675 1.03751 0.97732
 O224 O 0.44095 1.07467 1.02536
 O225 O 0.44879 1.03808 1.07725
 O226 O 0.52770 1.06431 0.94580
 O227 O 0.45406 1.07238 0.95773
 O228 O 0.57265 1.01277 1.04629
 Co229 Co 0.50479 1.01552 0.94175
 Co230 Co 0.48696 1.00111 1.06674
 Co231 Co 0.55531 0.99168 0.99846
 Co232 Co 0.43665 1.03366 0.99090
 O233 O 0.49415 1.01176 1.00205
 C234 C 0.44986 1.06783 0.92144
 C235 C 0.56011 1.03475 1.07419
 C236 C 0.56285 1.06626 0.95760
 C237 C 0.43809 1.07017 1.06190
 O238 O 0.04624 0.45229 0.07884
 O239 O 0.02150 0.52448 -0.09298
 O240 O 0.02250 0.41692 -0.02792
 O241 O 0.06967 0.54491 0.02879
 O242 O 0.05344 0.46974 -0.05020
 O243 O 0.04550 0.52702 0.08521
 O244 O 0.05220 0.54218 -0.03945
 O245 O 0.01193 0.40909 0.04397
 C246 C 0.04114 0.41761 0.06654
 C247 C 0.04480 0.54996 -0.07559
 C248 C 0.05277 0.43276 -0.04454
 C249 C 0.07273 0.54295 0.06554
 O250 O -0.03194 0.52681 0.08541
 O251 O -0.01544 0.45513 -0.07989
 O252 O -0.06284 0.44233 0.03512
 O253 O -0.02237 0.57087 -0.02288
 O254 O -0.04324 0.51941 -0.05373
 O255 O -0.03046 0.45190 0.08878
 O256 O -0.00412 0.57320 0.04801
 O257 O -0.05484 0.44860 -0.03261
 Co258 Co 0.00677 0.48970 0.07747
 Co259 Co 0.00545 0.49578 -0.04943
 Co260 Co -0.01902 0.43386 0.00490
 Co261 Co 0.02189 0.55240 0.00412
 O262 O 0.00232 0.49155 0.01181
 C263 C -0.02874 0.56259 0.07479
 C264 C -0.04738 0.44091 -0.06774
 C265 C -0.06133 0.44044 0.07184
 C266 C -0.04784 0.55491 -0.04495
 O267 O 1.07023 0.01697 0.45995
 O268 O 0.91334 -0.01257 0.54549
 O269 O 0.95400 0.02637 0.42978
 O270 O 1.02426 0.04497 0.54728
 O271 O 0.90964 -0.00354 0.46989
 O272 O 1.07709 0.01230 0.53467
 O273 O 0.95479 0.03439 0.55713
 O274 O 1.01913 0.05388 0.46523
 C275 C 1.05574 0.05183 0.46007
 C276 C 0.92009 0.02157 0.55845
 C277 C 0.91834 0.02074 0.44167
 C278 C 1.06111 0.04329 0.54773
 O279 O 1.05740 -0.06553 0.53012
 O280 O 0.93815 -0.07494 0.46135
 O281 O 1.01239 -0.03967 0.41729
 O282 O 0.96940 -0.04080 0.58413
 O283 O 0.94901 -0.08181 0.53779
 O284 O 1.05843 -0.06151 0.45818
 O285 O 1.04052 -0.02856 0.57907
 O286 O 0.97475 -0.03781 0.41944
 Co287 Co 1.05962 -0.02330 0.49655
 Co288 Co 0.93417 -0.04119 0.50374
 Co289 Co 1.00304 0.00571 0.44545
 Co290 Co 0.99740 0.00101 0.56192
 O291 O 0.99515 -0.01692 0.50231
 C292 C 1.05405 -0.06093 0.56656
 C293 C 0.94820 -0.06589 0.42654
 C294 C 1.04149 -0.06348 0.42504
 C295 C 0.95850 -0.07524 0.57337
 C296 C 1.16320 0.10843 0.38084
 C297 C 1.12910 0.11385 0.40100
 C298 C 1.11402 0.08300 0.42853
 C299 C 1.07760 0.08652 0.44450
 H300 H 1.11001 0.13922 0.39443
 H301 H 1.13042 0.05520 0.43153
 H302 H 1.18258 0.08365 0.38892
 H303 H 1.06111 0.11420 0.44095
 C304 C 0.88659 -0.08639 0.29836
 C305 C 0.91033 -0.10222 0.32644
 C306 C 0.92810 -0.07701 0.35744
 C307 C 0.93507 -0.09167 0.39392
 H308 H 0.91435 -0.13424 0.32836
 H309 H 0.93257 -0.04554 0.35137
 H310 H 0.88020 -0.05471 0.29855
 H311 H 0.92733 -0.12230 0.40086
 C312 C 0.87881 0.13268 0.64083
 C313 C 0.86860 0.09825 0.62394
 C314 C 0.89597 0.07961 0.59517
 C315 C 0.88876 0.04369 0.57986
 H316 H 0.84195 0.08250 0.63337
 H317 H 0.92419 0.09427 0.58885
 H318 H 0.90566 0.14785 0.63089
 H319 H 0.86058 0.02892 0.58586
 C320 C 1.12538 -0.10015 0.68615
 C321 C 1.10118 -0.11179 0.65677
 C322 C 1.08149 -0.08209 0.63096
 C323 C 1.06988 -0.09134 0.59407
 H324 H 1.09760 -0.14318 0.65033
 H325 H 1.07888 -0.05165 0.64130
 H326 H 1.13073 -0.06865 0.69067
 H327 H 1.07484 -0.12116 0.58287
 C328 C 0.35620 1.14244 1.13532
 C329 C 0.36385 1.14994 1.09657
 C330 C 0.39330 1.12749 1.07239
 C331 C 0.41817 1.09967 1.08722
 H332 H 0.34522 1.17079 1.08013
 H333 H 0.39140 1.13163 1.04034
 H334 H 0.37464 1.12190 1.15219
 H335 H 0.42088 1.09472 1.11897
 C336 C 0.33236 0.87275 0.91557
 C337 C 0.36002 0.89769 0.90105
 C338 C 0.38440 0.92302 0.92714
 C339 C 0.42008 0.93595 0.91484
 H340 H 0.36487 0.90011 0.86916
 H341 H 0.37241 0.93251 0.95557
 H342 H 0.33045 0.86798 0.94755
 H343 H 0.43298 0.92420 0.88768
 C344 C 0.63383 0.85940 1.10867
 C345 C 0.60831 0.88281 1.12874
 C346 C 0.57318 0.90318 1.11078
 C347 C 0.56459 0.90351 1.07165
 H348 H 0.61509 0.89114 1.15913
 H349 H 0.55757 0.92367 1.13018
 H350 H 0.62645 0.84918 1.07907
 H351 H 0.58004 0.88407 1.05127
 C352 C 0.67900 1.10861 0.88825
 C353 C 0.65248 1.12183 0.91505
 C354 C 0.62710 1.09253 0.93609
 C355 C 0.58877 1.09965 0.94528
 H356 H 0.64810 1.15341 0.91995
 H357 H 0.63895 1.06261 0.94007
 H358 H 0.67981 1.07692 0.88205
 H359 H 0.57533 1.12820 0.93793
 C360 C 0.07444 0.29541 0.13582
 C361 C 0.08531 0.32173 0.10788
 C362 C 0.05653 0.35048 0.09113
 C363 C 0.06899 0.38659 0.08004
 H364 H 0.11650 0.32428 0.09938
 H365 H 0.02492 0.34323 0.09045
 H366 H 0.04389 0.29510 0.14663
 H367 H 0.10007 0.39479 0.08435
 C368 C -0.12485 0.35787 -0.13750
 C369 C -0.08906 0.37213 -0.14914
 C370 C -0.06562 0.40281 -0.12773
 C371 C -0.07452 0.41585 -0.09121
 H372 H -0.07480 0.35990 -0.17526
 H373 H -0.03804 0.41255 -0.14161
 H374 H -0.14055 0.37056 -0.11249
 H375 H -0.10111 0.40571 -0.07601
 C376 C 0.12282 0.63772 -0.13502
 C377 C 0.09156 0.62065 -0.15346
 C378 C 0.06825 0.58759 -0.13526
 C379 C 0.06687 0.58191 -0.09574
 H380 H 0.08214 0.63132 -0.18257
 H381 H 0.05065 0.56883 -0.15470
 H382 H 0.13361 0.62613 -0.10677
 H383 H 0.08263 0.60182 -0.07600
 C384 C -0.10254 0.68793 0.08013
 C385 C -0.08467 0.65795 0.09961
 C386 C -0.06114 0.62800 0.07818
 C387 C -0.05317 0.59266 0.09496
 H388 H -0.08806 0.65492 0.13166
 H389 H -0.05068 0.63473 0.04827
 H390 H -0.10135 0.68943 0.04782
 H391 H -0.06568 0.58521 0.12389
 C392 C 1.12467 0.12190 0.63262
 C393 C 1.14279 0.09449 0.60988
 C394 C 1.12158 0.06843 0.58120
 C395 C 1.08397 0.07446 0.56833
 H396 H 1.17423 0.08815 0.61458
 H397 H 1.13728 0.04168 0.57223
 H398 H 1.09309 0.12806 0.62917
 H399 H 1.06776 0.10115 0.57624
 C400 C 0.93220 -0.10831 0.70929
 C401 C 0.94065 -0.12462 0.67408
 C402 C 0.95787 -0.09916 0.64255
 C403 C 0.95171 -0.10644 0.60383
 H404 H 0.93019 -0.15432 0.66712
 H405 H 0.97136 -0.07119 0.65133
 H406 H 0.93970 -0.07733 0.71432
 H407 H 0.93751 -0.13397 0.59485
 C408 C 1.07079 -0.10605 0.29182
 C409 C 1.06373 -0.11848 0.32909
 C410 C 1.04535 -0.09123 0.35798
 C411 C 1.05266 -0.09507 0.39703
 H412 H 1.07486 -0.14719 0.33927
 H413 H 1.02911 -0.06537 0.34687
 H414 H 1.06205 -0.07614 0.28288
 H415 H 1.07116 -0.11945 0.40788
 C416 C 0.87246 0.13198 0.35888
 C417 C 0.86340 0.09732 0.37662
 C418 C 0.89400 0.07631 0.40054
 C419 C 0.88593 0.04348 0.42197
 H420 H 0.83441 0.08368 0.37210
 H421 H 0.92444 0.08747 0.39952
 H422 H 0.90123 0.14564 0.36477
 H423 H 0.85541 0.03296 0.42459
 C424 C 0.09456 0.31871 -0.12115
 C425 C 0.10682 0.34710 -0.09614
 C426 C 0.07699 0.37091 -0.07424
 C427 C 0.08486 0.40764 -0.06113
 H428 H 0.13838 0.35389 -0.09322
 H429 H 0.04689 0.35917 -0.07140
 H430 H 0.06273 0.31423 -0.12565
 H431 H 0.11394 0.42081 -0.06658
 C432 C -0.14220 0.35868 0.13795
 C433 C -0.14549 0.36795 0.09902
 C434 C -0.12087 0.39805 0.07793
 C435 C -0.09234 0.41999 0.09524
 H436 H -0.16496 0.35043 0.08025
 H437 H -0.12395 0.39896 0.04574
 H438 H -0.12382 0.37608 0.15776
 H439 H -0.08822 0.41965 0.12721
 C440 C -0.12683 0.67692 -0.06591
 C441 C -0.11245 0.64229 -0.07912
 C442 C -0.08790 0.61617 -0.05321
 C443 C -0.08063 0.57831 -0.06315
 H444 H -0.11727 0.63394 -0.10996
 H445 H -0.07318 0.62899 -0.02747
 H446 H -0.12425 0.68419 -0.03455
 H447 H -0.09645 0.56536 -0.08817
 C448 C 0.13910 0.63480 0.12628
 C449 C 0.15200 0.62009 0.09147
 C450 C 0.12889 0.59008 0.06906
 C451 C 0.10498 0.56347 0.08694
 H452 H 0.17690 0.63400 0.07626
 H453 H 0.12941 0.59229 0.03680
 H454 H 0.11226 0.62304 0.13998
 H455 H 0.10555 0.56014 0.11910
 C456 C 0.36181 1.14114 0.85181
 C457 C 0.38166 1.10928 0.83786
 C458 C 0.41293 1.08676 0.86028
 C459 C 0.42465 1.09504 0.89758
 H460 H 0.37337 1.09723 0.80917
 H461 H 0.42471 1.06036 0.84604
 H462 H 0.36958 1.15405 0.88017
 H463 H 0.41313 1.12069 0.91305
 C464 C 0.31423 0.89865 1.09554
 C465 C 0.35106 0.88424 1.08902
 C466 C 0.38507 0.90954 1.07681
 C467 C 0.38079 0.94368 1.05623
 H468 H 0.35772 0.85335 1.09579
 H469 H 0.41476 0.89908 1.08479
 H470 H 0.30811 0.93012 1.09164
 H471 H 0.35154 0.95310 1.04579
 C472 C 0.68941 1.09423 1.10490
 C473 C 0.65447 1.08023 1.11792
 C474 C 0.62714 1.05936 1.09088
 C475 C 0.58852 1.05552 1.10012
 H476 H 0.64504 1.08582 1.14830
 H477 H 0.63842 1.04800 1.06284
 H478 H 0.69754 1.09092 1.07380
 H479 H 0.57719 1.06855 1.12738
 C480 C 0.65504 0.90371 0.86259
 C481 C 0.64475 0.93997 0.84847
 C482 C 0.60888 0.96182 0.86279
 C483 C 0.59456 0.95558 0.89950
 H484 H 0.66370 0.95500 0.82702
 H485 H 0.59626 0.98524 0.84420
 H486 H 0.63510 0.88771 0.88238
 H487 H 0.60907 0.93417 0.91906
   
