data_POSCAR
  _audit_creation_date              2014-09-24
  _audit_creation_method            'ToBaCCo'
  _symmetry_space_group_name_H-M    'P1'
  _symmetry_Int_Tables_number       1
  _symmetry_cell_setting            triclinic
  loop_
  _symmetry_equiv_pos_as_xyz
 x,y,z
_cell_length_a 56.9670
_cell_length_b 56.8895
_cell_length_c 19.6191
_cell_angle_alpha 89.923900
_cell_angle_beta 90.069500
_cell_angle_gamma 119.969000
loop_
  _atom_site_label
  _atom_site_type_symbol
  _atom_site_fract_x
  _atom_site_fract_y
  _atom_site_fract_z
O1 O 0.21424 0.47135 0.43016
 O2 O 0.25794 0.46897 0.56535
 O3 O 0.21317 0.47090 0.56284
 O4 O 0.25977 0.47054 0.43257
 O5 O 0.28259 0.51530 0.43435
 O6 O 0.23696 0.51563 0.56535
 O7 O 0.28198 0.51364 0.56541
 O8 O 0.23711 0.51609 0.43385
 Cu9 Cu 0.23394 0.46594 0.49745
 Cu10 Cu 0.26197 0.51962 0.50000
 C11 C 0.21785 0.49414 0.40993
 C12 C 0.27785 0.49086 0.58756
 C13 C 0.21699 0.49345 0.58569
 C14 C 0.27941 0.49297 0.41197
 O15 O 0.53617 -0.20931 0.56614
 O16 O 0.53423 -0.25685 0.43559
 O17 O 0.53587 -0.21005 0.43344
 O18 O 0.53427 -0.25599 0.56846
 O19 O 0.48965 -0.27700 0.56816
 O20 O 0.49118 -0.23117 0.43397
 O21 O 0.48954 -0.27798 0.43668
 O22 O 0.49157 -0.22990 0.56500
 Cu23 Cu 0.53961 -0.23096 0.50079
 Cu24 Cu 0.48603 -0.25614 0.50102
 C25 C 0.51422 -0.21108 0.58701
 C26 C 0.51149 -0.27586 0.41474
 C27 C 0.51376 -0.21246 0.41162
 C28 C 0.51163 -0.27468 0.59083
 O29 O 1.25715 0.78607 0.43125
 O30 O 1.20950 0.74180 0.56326
 O31 O 1.25592 0.78688 0.56362
 O32 O 1.21071 0.74076 0.43045
 O33 O 1.23251 0.71784 0.43484
 O34 O 1.27725 0.76348 0.56841
 O35 O 1.23033 0.71798 0.56616
 O36 O 1.27891 0.76313 0.43732
 Cu37 Cu 1.23115 0.76619 0.49666
 Cu38 Cu 1.25686 0.73825 0.50230
 C39 C 1.27652 0.78250 0.41279
 C40 C 1.21137 0.72191 0.58640
 C41 C 1.27461 0.78332 0.58781
 C42 C 1.21374 0.72120 0.41042
 O43 O 0.78811 0.52737 0.43752
 O44 O 0.74185 0.52846 0.56766
 O45 O 0.78676 0.52658 0.57015
 O46 O 0.74337 0.52951 0.43480
 O47 O 0.71963 0.48477 0.43317
 O48 O 0.76298 0.48185 0.56789
 O49 O 0.71798 0.48381 0.56445
 O50 O 0.76440 0.48262 0.43654
 Cu51 Cu 0.76739 0.53247 0.50276
 Cu52 Cu 0.73887 0.47880 0.50040
 C53 C 0.78437 0.50472 0.41567
 C54 C 0.72163 0.50627 0.58747
 C55 C 0.78256 0.50368 0.59125
 C56 C 0.72384 0.50760 0.41154
 O57 O 0.46541 0.25517 0.43557
 O58 O 0.46404 0.20939 0.57021
 O59 O 0.46653 0.25644 0.56809
 O60 O 0.46382 0.20856 0.43747
 O61 O 0.50852 0.22981 0.43564
 O62 O 0.51119 0.27684 0.56729
 O63 O 0.50859 0.22936 0.56680
 O64 O 0.51013 0.27663 0.43584
 Cu65 Cu 0.46047 0.23029 0.50301
 Cu66 Cu 0.51408 0.25526 0.50139
 C67 C 0.48799 0.27405 0.41366
 C68 C 0.48601 0.21100 0.59043
 C69 C 0.48941 0.27511 0.58916
 C70 C 0.48578 0.21085 0.41490
 O71 O 0.78834 0.25497 0.56654
 O72 O 0.74106 0.21082 0.43378
 O73 O 0.78832 0.25502 0.43373
 O74 O 0.74088 0.21095 0.56637
 O75 O 0.72116 0.23591 0.56611
 O76 O 0.76818 0.27958 0.43324
 O77 O 0.72083 0.23528 0.43464
 O78 O 0.76903 0.28023 0.56446
 Cu79 Cu 0.76665 0.23046 0.50021
 Cu80 Cu 0.74281 0.26022 0.49972
 C81 C 0.78725 0.27558 0.58717
 C82 C 0.72256 0.21524 0.41240
 C83 C 0.78653 0.27505 0.41146
 C84 C 0.72261 0.21565 0.58800
 N85 N 0.96987 0.52389 0.07363
 N86 N 0.94898 0.52750 0.08438
 N87 N 1.02744 0.53747 0.11943
 N88 N 1.04845 0.55041 0.16017
 N89 N 1.02686 0.55407 0.07379
 N90 N 1.04741 0.57895 0.08289
 N91 N 0.97041 0.50722 0.11912
 N92 N 0.94981 0.49878 0.16146
 C93 C 0.93661 0.51157 0.13928
 C94 C 1.06068 0.57624 0.13709
 N95 N 1.03029 0.47205 0.07164
 N96 N 1.05158 0.46894 0.08099
 N97 N 0.97252 0.45793 0.11770
 N98 N 0.95167 0.44446 0.15863
 N99 N 0.97331 0.44177 0.07121
 N100 N 0.95308 0.41670 0.07976
 N101 N 1.02955 0.48822 0.11817
 N102 N 1.05038 0.49681 0.15985
 Mn103 Mn 0.99997 0.49770 0.11931
 C104 C 1.06394 0.48462 0.13624
 C105 C 0.93975 0.41879 0.13454
 N106 N 1.02683 0.55462 -0.07360
 N107 N 1.04672 0.57979 -0.08291
 N108 N 0.97054 0.50815 -0.12024
 N109 N 0.94954 0.49942 -0.16144
 N110 N 0.96991 0.52438 -0.07368
 N111 N 0.94856 0.52740 -0.08253
 N112 N 1.02767 0.53847 -0.12008
 N113 N 1.04834 0.55207 -0.16158
 Mn114 Mn 0.99836 0.53958 0.00003
 C115 C 1.06001 0.57781 -0.13790
 C116 C 0.93604 0.51162 -0.13748
 N117 N 0.97340 0.44230 -0.07593
 N118 N 0.95344 0.41721 -0.08574
 N119 N 1.02966 0.48909 -0.12143
 N120 N 1.05039 0.49771 -0.16340
 N121 N 1.03029 0.47255 -0.07570
 N122 N 1.05134 0.46916 -0.08594
 N123 N 0.97254 0.45874 -0.12158
 N124 N 0.95179 0.44541 -0.16310
 Mn125 Mn 1.00185 0.45684 -0.00220
 Mn126 Mn 1.00010 0.49862 -0.12160
 Cl127 Cl 1.00007 0.49819 -0.00114
 C128 C 0.94010 0.41953 -0.14026
 C129 C 1.06372 0.48511 -0.14078
 N130 N 0.48946 0.46191 -0.12365
 N131 N 0.49729 0.44940 -0.16670
 N132 N 0.44454 0.47313 -0.07191
 N133 N 0.41948 0.46825 -0.08023
 N134 N 0.46063 0.49025 -0.11824
 N135 N 0.44710 0.49782 -0.15870
 N136 N 0.47331 0.44497 -0.07710
 N137 N 0.46944 0.42035 -0.08773
 C138 C 0.48460 0.42350 -0.14384
 C139 C 0.42148 0.48396 -0.13440
 N140 N 0.46307 0.48886 0.12107
 N141 N 0.45068 0.49683 0.16401
 N142 N 0.47477 0.44414 0.06988
 N143 N 0.47005 0.41914 0.07912
 N144 N 0.49187 0.46053 0.11580
 N145 N 0.49945 0.44724 0.15710
 N146 N 0.44602 0.47236 0.07520
 N147 N 0.42141 0.46840 0.08625
 Mn148 Mn 0.45934 0.45833 -0.00098
 C149 C 0.42472 0.48386 0.14189
 C150 C 0.48574 0.42145 0.13357
 N151 N 0.51077 0.54078 -0.11914
 N152 N 0.50245 0.55378 -0.15919
 N153 N 0.55673 0.52906 -0.07884
 N154 N 0.58133 0.53301 -0.08988
 N155 N 0.53965 0.51247 -0.12456
 N156 N 0.55202 0.50436 -0.16725
 N157 N 0.52799 0.55728 -0.07356
 N158 N 0.53220 0.58215 -0.08211
 Mn159 Mn 0.50013 0.50136 -0.12216
 C160 C 0.51598 0.57954 -0.13559
 C161 C 0.57800 0.51741 -0.14526
 N162 N 0.54200 0.51114 0.11474
 N163 N 0.55535 0.50329 0.15485
 N164 N 0.52937 0.55646 0.07377
 N165 N 0.53322 0.58107 0.08480
 N166 N 0.51319 0.53944 0.12017
 N167 N 0.50534 0.55185 0.16343
 N168 N 0.55815 0.52823 0.06841
 N169 N 0.58310 0.53271 0.07632
 Mn170 Mn 0.50255 0.49999 0.11867
 Mn171 Mn 0.54339 0.54310 -0.00256
 Cl172 Cl 0.50136 0.50070 -0.00176
 C173 C 0.58095 0.51687 0.13039
 C174 C 0.51801 0.57779 0.14096
 N175 N 0.44353 -0.03103 0.07476
 N176 N 0.41918 -0.05218 0.08523
 N177 N 0.48722 0.02685 0.11968
 N178 N 0.49435 0.04747 0.16141
 N179 N 0.47001 0.02595 0.07380
 N180 N 0.46471 0.04581 0.08356
 N181 N 0.46075 -0.03027 0.12042
 N182 N 0.44874 -0.05098 0.16269
 C183 C 0.42282 -0.06447 0.14023
 C184 C 0.48015 0.05910 0.13835
 N185 N 0.55550 0.02993 0.07160
 N186 N 0.57994 0.05113 0.08101
 N187 N 0.51225 -0.02788 0.11892
 N188 N 0.50525 -0.04854 0.16051
 N189 N 0.52911 -0.02709 0.07220
 N190 N 0.53427 -0.04709 0.08120
 N191 N 0.53866 0.02924 0.11821
 N192 N 0.55098 0.05005 0.15997
 Mn193 Mn 0.49973 -0.00052 0.12005
 C194 C 0.57670 0.06352 0.13628
 C195 C 0.51916 -0.06032 0.13650
 N196 N 0.46930 0.02565 -0.07335
 N197 N 0.46425 0.04572 -0.08225
 N198 N 0.45941 -0.03086 -0.11917
 N199 N 0.44658 -0.05145 -0.16148
 N200 N 0.44281 -0.03128 -0.07223
 N201 N 0.41816 -0.05199 -0.08171
 N202 N 0.48611 0.02638 -0.12016
 N203 N 0.49326 0.04715 -0.16154
 Mn204 Mn 0.45610 -0.00268 0.00074
 C205 C 0.47942 0.05899 -0.13742
 C206 C 0.42086 -0.06447 -0.13742
 N207 N 0.52841 -0.02741 -0.07493
 N208 N 0.53398 -0.04707 -0.08489
 N209 N 0.53755 0.02864 -0.12170
 N210 N 0.54961 0.04933 -0.16407
 N211 N 0.55474 0.02952 -0.07574
 N212 N 0.57908 0.05066 -0.08616
 N213 N 0.51097 -0.02857 -0.12054
 N214 N 0.50392 -0.04924 -0.16216
 Mn215 Mn 0.54228 0.00127 -0.00173
 Mn216 Mn 0.49850 -0.00113 -0.12121
 Cl217 Cl 0.49915 -0.00077 -0.00056
 C218 C 0.51844 -0.06057 -0.13936
 C219 C 0.57550 0.06286 -0.14137
 C220 C 1.15817 0.49557 0.27806
 C221 C 1.16140 0.47248 0.27963
 C222 C 1.18139 0.47230 0.32137
 C223 C 1.19874 0.49514 0.36050
 C224 C 1.19663 0.51859 0.35520
 C225 C 1.17662 0.51885 0.31469
 C226 C 1.13493 0.49401 0.23843
 C227 C 1.12788 0.51446 0.24120
 C228 C 1.10506 0.51137 0.20695
 C229 C 1.08896 0.48814 0.16802
 C230 C 1.09607 0.46790 0.16336
 C231 C 1.11850 0.47035 0.19970
 C232 C 1.14450 0.44966 0.24014
 C233 C 1.12384 0.44883 0.20004
 H234 H 1.14722 0.43212 0.24042
 H235 H 1.11126 0.43067 0.17064
 H236 H 1.18322 0.45424 0.32406
 H237 H 1.20992 0.53659 0.38431
 H238 H 1.09986 0.52720 0.21138
 H239 H 1.08339 0.44967 0.13424
 H240 H 1.17582 0.53739 0.31331
 H241 H 1.13918 0.53261 0.27115
 C242 C 0.50945 0.66199 0.28567
 C243 C 0.53278 0.68812 0.28709
 C244 C 0.53326 0.70858 0.32828
 C245 C 0.51046 0.70359 0.36678
 C246 C 0.48684 0.67818 0.36184
 C247 C 0.48630 0.65762 0.32205
 C248 C 0.51054 0.64005 0.24605
 C249 C 0.48977 0.61269 0.24875
 C250 C 0.49227 0.59274 0.21382
 C251 C 0.51526 0.59951 0.17432
 C252 C 0.53590 0.62671 0.17008
 C253 C 0.53402 0.64689 0.20705
 C254 C 0.55546 0.69359 0.24768
 C255 C 0.55586 0.67356 0.20750
 H256 H 0.57320 0.71370 0.24787
 H257 H 0.57390 0.67883 0.17797
 H258 H 0.55145 0.72833 0.33071
 H259 H 0.46888 0.67386 0.39052
 H260 H 0.47615 0.57184 0.21796
 H261 H 0.55395 0.63196 0.14055
 H262 H 0.46762 0.63846 0.32080
 H263 H 0.47175 0.60613 0.27899
 C264 C 0.33888 -0.15773 0.28378
 C265 C 0.31256 -0.16102 0.28309
 C266 C 0.29203 -0.18098 0.32406
 C267 C 0.29716 -0.19825 0.36467
 C268 C 0.32280 -0.19602 0.36192
 C269 C 0.34342 -0.17603 0.32221
 C270 C 0.36084 -0.13465 0.24432
 C271 C 0.38828 -0.12764 0.24854
 C272 C 0.40820 -0.10506 0.21386
 C273 C 0.40130 -0.08916 0.17320
 C274 C 0.37403 -0.09621 0.16730
 C275 C 0.35387 -0.11840 0.20383
 C276 C 0.30696 -0.14425 0.24200
 C277 C 0.32706 -0.12371 0.20228
 H278 H 0.28672 -0.14700 0.24063
 H279 H 0.32171 -0.11125 0.17150
 H280 H 0.27212 -0.18288 0.32486
 H281 H 0.32723 -0.20924 0.39233
 H282 H 0.42917 -0.09993 0.21916
 H283 H 0.36865 -0.08370 0.13675
 H284 H 0.36278 -0.17514 0.32278
 H285 H 0.39491 -0.13885 0.27974
 C286 C 0.84427 0.50292 0.28553
 C287 C 0.84181 0.52647 0.28836
 C288 C 0.82197 0.52691 0.33004
 C289 C 0.80394 0.50388 0.36766
 C290 C 0.80544 0.48010 0.36149
 C291 C 0.82533 0.47959 0.32120
 C292 C 0.86711 0.50398 0.24522
 C293 C 0.87327 0.48287 0.24627
 C294 C 0.89562 0.48537 0.21089
 C295 C 0.91211 0.50869 0.17258
 C296 C 0.90593 0.52963 0.16983
 C297 C 0.88399 0.52773 0.20724
 C298 C 0.85924 0.54939 0.24982
 C299 C 0.87954 0.54982 0.20915
 H300 H 0.85715 0.56731 0.25111
 H301 H 0.89249 0.56807 0.18038
 H302 H 0.82064 0.54523 0.33345
 H303 H 0.79164 0.46197 0.38950
 H304 H 0.90011 0.46900 0.21383
 H305 H 0.91894 0.54791 0.14121
 H306 H 0.82556 0.46077 0.31899
 H307 H 0.86159 0.46459 0.27557
 C308 C 0.48736 0.33324 0.27779
 C309 C 0.51009 0.34009 0.31994
 C310 C 0.51072 0.32026 0.36135
 C311 C 0.48845 0.29383 0.36398
 C312 C 0.46588 0.28709 0.32261
 C313 C 0.46538 0.30642 0.27956
 C314 C 0.48716 0.35523 0.23587
 C315 C 0.46626 0.35035 0.18952
 C316 C 0.46625 0.37180 0.15476
 C317 C 0.48690 0.39859 0.16578
 C318 C 0.50836 0.40357 0.20964
 C319 C 0.50881 0.38214 0.24396
 C320 C 0.53153 0.36691 0.32278
 C321 C 0.53070 0.38755 0.28650
 H322 H 0.54889 0.37218 0.35520
 H323 H 0.54743 0.40810 0.29203
 H324 H 0.52804 0.32577 0.39417
 H325 H 0.44841 0.26683 0.32402
 H326 H 0.44964 0.36748 0.12053
 H327 H 0.52471 0.42422 0.21729
 H328 H 0.44732 0.30015 0.24966
 H329 H 0.44970 0.33018 0.17963
 C330 C 0.66077 0.15634 0.28059
 C331 C 0.68679 0.15891 0.28233
 C332 C 0.70714 0.17856 0.32430
 C333 C 0.70215 0.19626 0.36341
 C334 C 0.67690 0.19476 0.35816
 C335 C 0.65643 0.17506 0.31749
 C336 C 0.63888 0.13351 0.24035
 C337 C 0.61159 0.12711 0.24260
 C338 C 0.59165 0.10464 0.20767
 C339 C 0.59839 0.08827 0.16861
 C340 C 0.62554 0.09476 0.16443
 C341 C 0.64569 0.11681 0.20140
 C342 C 0.69225 0.14174 0.24265
 C343 C 0.67228 0.12147 0.20208
 H344 H 0.71229 0.14396 0.24309
 H345 H 0.67752 0.10867 0.17251
 H346 H 0.72679 0.17991 0.32699
 H347 H 0.67261 0.20834 0.38733
 H348 H 0.57077 0.09992 0.21166
 H349 H 0.63076 0.08186 0.13520
 H350 H 0.63735 0.17474 0.31612
 H351 H 0.60507 0.13867 0.27260
 C352 C 0.48238 0.15003 -0.27796
 C353 C 0.50703 0.16872 -0.30986
 C354 C 0.50850 0.18990 -0.34993
 C355 C 0.48521 0.19183 -0.36286
 C356 C 0.46070 0.17298 -0.33164
 C357 C 0.45934 0.15259 -0.28927
 C358 C 0.48153 0.12737 -0.23683
 C359 C 0.45874 0.10907 -0.19833
 C360 C 0.45842 0.08733 -0.16420
 C361 C 0.48060 0.08314 -0.16852
 C362 C 0.50378 0.10183 -0.20429
 C363 C 0.50462 0.12416 -0.23717
 C364 C 0.52973 0.16538 -0.30443
 C365 C 0.52836 0.14324 -0.27021
 H366 H 0.54859 0.17958 -0.32913
 H367 H 0.54621 0.14105 -0.26946
 H368 H 0.52754 0.20392 -0.37425
 H369 H 0.44231 0.17375 -0.34032
 H370 H 0.44047 0.07328 -0.13603
 H371 H 0.52126 0.09903 -0.20627
 H372 H 0.43987 0.13851 -0.26776
 H373 H 0.44100 0.11117 -0.19400
 C374 C 0.66182 0.50711 -0.28578
 C375 C 0.68694 0.53115 -0.29566
 C376 C 0.70694 0.53079 -0.33693
 C377 C 0.70269 0.50648 -0.36686
 C378 C 0.67847 0.48233 -0.35222
 C379 C 0.65829 0.48264 -0.31271
 C380 C 0.64004 0.50881 -0.24718
 C381 C 0.61317 0.48707 -0.24382
 C382 C 0.59325 0.49001 -0.21012
 C383 C 0.59967 0.51441 -0.17771
 C384 C 0.62638 0.53612 -0.17979
 C385 C 0.64639 0.53375 -0.21606
 C386 C 0.69190 0.55533 -0.26432
 C387 C 0.67229 0.55644 -0.22402
 H388 H 0.71130 0.57369 -0.27079
 H389 H 0.67716 0.57561 -0.20069
 H390 H 0.72576 0.54956 -0.34586
 H391 H 0.67458 0.46309 -0.37312
 H392 H 0.57268 0.47308 -0.20941
 H393 H 0.63125 0.55523 -0.15605
 H394 H 0.64006 0.46350 -0.30398
 H395 H 0.60693 0.46792 -0.26856
 C396 C 0.84898 0.33234 -0.28219
 C397 C 0.83027 0.33856 -0.31302
 C398 C 0.80893 0.31907 -0.35293
 C399 C 0.80678 0.29378 -0.36664
 C400 C 0.82567 0.28787 -0.33656
 C401 C 0.84626 0.30670 -0.29442
 C402 C 0.87175 0.35390 -0.24099
 C403 C 0.89012 0.34916 -0.20345
 C404 C 0.91187 0.37036 -0.16895
 C405 C 0.91600 0.39676 -0.17195
 C406 C 0.89730 0.40151 -0.20689
 C407 C 0.87496 0.38024 -0.24011
 C408 C 0.83367 0.36461 -0.30657
 C409 C 0.85587 0.38516 -0.27221
 H410 H 0.81945 0.36947 -0.33048
 H411 H 0.85807 0.40522 -0.27056
 H412 H 0.79489 0.32430 -0.37634
 H413 H 0.82474 0.26865 -0.34591
 H414 H 0.92594 0.36625 -0.14148
 H415 H 0.90007 0.42180 -0.20789
 H416 H 0.86035 0.30111 -0.27372
 H417 H 0.88805 0.32928 -0.20012
 C418 C 0.51737 -0.15006 -0.28275
 C419 C 0.49266 -0.16928 -0.31345
 C420 C 0.49146 -0.19034 -0.35333
 C421 C 0.51501 -0.19169 -0.36719
 C422 C 0.53959 -0.17223 -0.33746
 C423 C 0.54073 -0.15191 -0.29532
 C424 C 0.51785 -0.12769 -0.24127
 C425 C 0.54068 -0.10897 -0.20357
 C426 C 0.54053 -0.08764 -0.16870
 C427 C 0.51783 -0.08427 -0.17149
 C428 C 0.49464 -0.10333 -0.20662
 C429 C 0.49429 -0.12528 -0.24018
 C430 C 0.46957 -0.16669 -0.30681
 C431 C 0.47054 -0.14481 -0.27231
 H432 H 0.45067 -0.18129 -0.33065
 H433 H 0.45236 -0.14324 -0.27049
 H434 H 0.47234 -0.20483 -0.37656
 H435 H 0.55817 -0.17252 -0.34699
 H436 H 0.55851 -0.07328 -0.14110
 H437 H 0.47678 -0.10116 -0.20745
 H438 H 0.56026 -0.13737 -0.27483
 H439 H 0.55880 -0.11046 -0.20036
 C440 C 0.33414 0.48687 -0.27793
 C441 C 0.34002 0.51179 -0.30840
 C442 C 0.32062 0.51328 -0.34955
 C443 C 0.29586 0.48983 -0.36501
 C444 C 0.29030 0.46506 -0.33530
 C445 C 0.30899 0.46363 -0.29185
 C446 C 0.35564 0.48602 -0.23556
 C447 C 0.35113 0.46292 -0.19824
 C448 C 0.37236 0.46263 -0.16319
 C449 C 0.39855 0.48516 -0.16543
 C450 C 0.40301 0.50866 -0.19976
 C451 C 0.38169 0.50945 -0.23352
 C452 C 0.36571 0.53477 -0.30047
 C453 C 0.38629 0.53345 -0.26520
 H454 H 0.37031 0.55383 -0.32407
 H455 H 0.40611 0.55154 -0.26260
 H456 H 0.32557 0.53255 -0.37267
 H457 H 0.27149 0.44654 -0.34596
 H458 H 0.36848 0.44442 -0.13617
 H459 H 0.42315 0.52638 -0.20012
 H460 H 0.30372 0.44397 -0.27155
 H461 H 0.33142 0.44491 -0.19566
 C462 C 1.15015 0.66523 -0.28168
 C463 C 1.16945 0.65946 -0.31072
 C464 C 1.19058 0.67897 -0.35108
 C465 C 1.19191 0.70373 -0.36722
 C466 C 1.17238 0.70913 -0.33917
 C467 C 1.15201 0.69034 -0.29646
 C468 C 1.12769 0.64369 -0.23971
 C469 C 1.10891 0.64814 -0.20337
 C470 C 1.08742 0.62691 -0.16823
 C471 C 1.08396 0.60075 -0.16952
 C472 C 1.10311 0.59634 -0.20311
 C473 C 1.12521 0.61768 -0.23680
 C474 C 1.16681 0.63380 -0.30209
 C475 C 1.14481 0.61316 -0.26735
 H476 H 1.18146 0.62928 -0.32466
 H477 H 1.14318 0.59337 -0.26410
 H478 H 1.20512 0.67412 -0.37298
 H479 H 1.17266 0.72791 -0.35046
 H480 H 1.07298 0.63074 -0.14181
 H481 H 1.10085 0.57624 -0.20270
 H482 H 1.13740 0.69550 -0.27733
 H483 H 1.11046 0.66783 -0.20150
 C484 C 0.84176 0.50139 -0.27706
 C485 C 0.83890 0.52471 -0.27867
 C486 C 0.81902 0.52515 -0.32022
 C487 C 0.80141 0.50236 -0.35910
 C488 C 0.80309 0.47867 -0.35362
 C489 C 0.82300 0.47814 -0.31329
 C490 C 0.86498 0.50269 -0.23792
 C491 C 0.87172 0.48202 -0.24088
 C492 C 0.89458 0.48491 -0.20721
 C493 C 0.91099 0.50818 -0.16872
 C494 C 0.90416 0.52861 -0.16380
 C495 C 0.88173 0.52636 -0.19957
 C496 C 0.85610 0.54750 -0.23950
 C497 C 0.87672 0.54810 -0.19976
 H498 H 0.85365 0.56521 -0.23978
 H499 H 0.88955 0.56626 -0.17061
 H500 H 0.81750 0.54339 -0.32307
 H501 H 0.78958 0.46071 -0.38255
 H502 H 0.89956 0.46892 -0.21171
 H503 H 0.91709 0.54686 -0.13499
 H504 H 0.82351 0.45945 -0.31180
 H505 H 0.86015 0.46384 -0.27055
 C506 C 0.49239 0.33810 -0.28398
 C507 C 0.46900 0.31200 -0.28402
 C508 C 0.46825 0.29121 -0.32428
 C509 C 0.49086 0.29585 -0.36307
 C510 C 0.51460 0.32119 -0.35916
 C511 C 0.51540 0.34208 -0.32033
 C512 C 0.49151 0.36042 -0.24581
 C513 C 0.51223 0.38775 -0.25045
 C514 C 0.50991 0.40804 -0.21673
 C515 C 0.48717 0.40161 -0.17659
 C516 C 0.46656 0.37447 -0.17061
 C517 C 0.46824 0.35395 -0.20636
 C518 C 0.44652 0.30691 -0.24429
 C519 C 0.44637 0.32731 -0.20517
 H520 H 0.42874 0.28683 -0.24340
 H521 H 0.42849 0.32234 -0.17528
 H522 H 0.44998 0.27150 -0.32591
 H523 H 0.53242 0.32522 -0.38811
 H524 H 0.52598 0.42891 -0.22221
 H525 H 0.44870 0.36948 -0.14059
 H526 H 0.53415 0.36120 -0.31989
 H527 H 0.53005 0.39401 -0.28129
 C528 C 0.66010 0.15620 -0.28306
 C529 C 0.68621 0.15896 -0.28325
 C530 C 0.70682 0.17886 -0.32410
 C531 C 0.70203 0.19665 -0.36348
 C532 C 0.67669 0.19503 -0.35952
 C533 C 0.65594 0.17506 -0.32004
 C534 C 0.63795 0.13306 -0.24421
 C535 C 0.61060 0.12640 -0.24831
 C536 C 0.59047 0.10375 -0.21419
 C537 C 0.59712 0.08750 -0.17419
 C538 C 0.62429 0.09418 -0.16855
 C539 C 0.64461 0.11638 -0.20463
 C540 C 0.69150 0.14173 -0.24317
 C541 C 0.67127 0.12124 -0.20364
 H542 H 0.71159 0.14409 -0.24242
 H543 H 0.67638 0.10842 -0.17359
 H544 H 0.72654 0.18032 -0.32581
 H545 H 0.67254 0.20867 -0.38899
 H546 H 0.56957 0.09887 -0.21932
 H547 H 0.62945 0.08137 -0.13858
 H548 H 0.63679 0.17461 -0.31967
 H549 H 0.60420 0.13792 -0.27903
 C550 C 1.15691 0.49468 -0.28414
 C551 C 1.15933 0.47113 -0.28761
 C552 C 1.17930 0.47088 -0.32916
 C553 C 1.19745 0.49411 -0.36595
 C554 C 1.19604 0.51789 -0.35886
 C555 C 1.17605 0.51822 -0.31870
 C556 C 1.13385 0.49340 -0.24446
 C557 C 1.12762 0.51446 -0.24548
 C558 C 1.10504 0.51173 -0.21087
 C559 C 1.08840 0.48823 -0.17335
 C560 C 1.09464 0.46734 -0.17062
 C561 C 1.11680 0.46945 -0.20735
 C562 C 1.14175 0.44801 -0.24993
 C563 C 1.12127 0.44738 -0.20960
 H564 H 1.14383 0.43009 -0.25166
 H565 H 1.10818 0.42899 -0.18149
 H566 H 1.18058 0.45255 -0.33324
 H567 H 1.20997 0.53618 -0.38617
 H568 H 1.10048 0.52806 -0.21375
 H569 H 1.08150 0.44891 -0.14263
 H570 H 1.17587 0.53706 -0.31578
 H571 H 1.13941 0.53286 -0.27425
 C572 C 0.50937 0.66556 -0.27604
 C573 C 0.53412 0.68972 -0.28834
 C574 C 0.53476 0.70976 -0.33151
 C575 C 0.51081 0.70657 -0.36110
 C576 C 0.48602 0.68351 -0.34381
 C577 C 0.48530 0.66323 -0.30231
 C578 C 0.50996 0.64339 -0.23615
 C579 C 0.48730 0.61709 -0.23082
 C580 C 0.48932 0.59658 -0.19704
 C581 C 0.51370 0.60191 -0.16638
 C582 C 0.53623 0.62811 -0.16983
 C583 C 0.53477 0.64862 -0.20636
 C584 C 0.55807 0.69364 -0.25779
 C585 C 0.55825 0.67379 -0.21631
 H586 H 0.57698 0.71236 -0.26607
 H587 H 0.57730 0.67779 -0.19390
 H588 H 0.55404 0.72775 -0.34239
 H589 H 0.46706 0.68053 -0.36434
 H590 H 0.47176 0.57637 -0.19526
 H591 H 0.55529 0.63209 -0.14750
 H592 H 0.46571 0.64584 -0.29172
 H593 H 0.46815 0.61168 -0.25441
 C594 C 0.33350 -0.15541 -0.27946
 C595 C 0.34056 -0.17136 -0.32063
 C596 C 0.32080 -0.19231 -0.36082
 C597 C 0.29424 -0.19685 -0.36342
 C598 C 0.28731 -0.18087 -0.32330
 C599 C 0.30658 -0.16058 -0.28128
 C600 C 0.35536 -0.13281 -0.23855
 C601 C 0.35021 -0.11690 -0.19256
 C602 C 0.37149 -0.09515 -0.15843
 C603 C 0.39836 -0.08859 -0.16982
 C604 C 0.40367 -0.10487 -0.21346
 C605 C 0.38239 -0.12712 -0.24696
 C606 C 0.36749 -0.16557 -0.32379
 C607 C 0.38804 -0.14362 -0.28873
 H608 H 0.37292 -0.17771 -0.35554
 H609 H 0.40867 -0.13951 -0.29442
 H610 H 0.32645 -0.20420 -0.39289
 H611 H 0.26696 -0.18392 -0.32490
 H612 H 0.36694 -0.08301 -0.12429
 H613 H 0.42439 -0.10024 -0.22125
 H614 H 0.30017 -0.14868 -0.25229
 H615 H 0.32996 -0.12087 -0.18231
 C616 C 0.51644 -0.15122 0.27741
 C617 C 0.49304 -0.16776 0.31674
 C618 C 0.49189 -0.18858 0.35745
 C619 C 0.51421 -0.19259 0.36226
 C620 C 0.53745 -0.17616 0.32359
 C621 C 0.53851 -0.15588 0.28120
 C622 C 0.51712 -0.12863 0.23631
 C623 C 0.53875 -0.11183 0.19260
 C624 C 0.53905 -0.09008 0.15851
 C625 C 0.51799 -0.08445 0.16780
 C626 C 0.49590 -0.10161 0.20899
 C627 C 0.49513 -0.12378 0.24241
 C628 C 0.47135 -0.16274 0.31757
 C629 C 0.47255 -0.14096 0.28206
 H630 H 0.45347 -0.17538 0.34780
 H631 H 0.45555 -0.13747 0.28589
 H632 H 0.47401 -0.20086 0.38808
 H633 H 0.55498 -0.17881 0.32670
 H634 H 0.55616 -0.07720 0.12627
 H635 H 0.47925 -0.09768 0.21516
 H636 H 0.55705 -0.14361 0.25342
 H637 H 0.55564 -0.11507 0.18430
 C638 C 0.34084 0.49352 0.28361
 C639 C 0.31480 0.47013 0.28653
 C640 C 0.29449 0.47006 0.32738
 C641 C 0.29960 0.49334 0.36402
 C642 C 0.32490 0.51698 0.35734
 C643 C 0.34527 0.51712 0.31784
 C644 C 0.36268 0.49206 0.24477
 C645 C 0.38997 0.51295 0.24665
 C646 C 0.40986 0.51017 0.21248
 C647 C 0.40307 0.48678 0.17463
 C648 C 0.37594 0.46598 0.17131
 C649 C 0.35583 0.46816 0.20759
 C650 C 0.30930 0.44699 0.24895
 C651 C 0.32923 0.44623 0.20923
 H652 H 0.28926 0.42918 0.25023
 H653 H 0.32395 0.42786 0.18110
 H654 H 0.27481 0.45184 0.33111
 H655 H 0.32933 0.53533 0.38442
 H656 H 0.43072 0.52641 0.21586
 H657 H 0.37071 0.44763 0.14307
 H658 H 0.36433 0.53588 0.31518
 H659 H 0.39656 0.53128 0.27568
 C660 C 1.15444 0.66062 0.27701
 C661 C 1.15633 0.68631 0.28249
 C662 C 1.17618 0.70639 0.32466
 C663 C 1.19460 0.70139 0.36055
 C664 C 1.19372 0.67652 0.35135
 C665 C 1.17396 0.65640 0.31023
 C666 C 1.13140 0.63885 0.23723
 C667 C 1.12582 0.61178 0.23639
 C668 C 1.10311 0.59180 0.20258
 C669 C 1.08562 0.59825 0.16767
 C670 C 1.09127 0.62522 0.16632
 C671 C 1.11364 0.64542 0.20235
 C672 C 1.13820 0.69163 0.24653
 C673 C 1.11762 0.67176 0.20635
 H674 H 1.13987 0.71142 0.24978
 H675 H 1.10403 0.67685 0.17987
 H676 H 1.17701 0.72575 0.33034
 H677 H 1.20787 0.67221 0.37769
 H678 H 1.09906 0.57107 0.20426
 H679 H 1.07750 0.63018 0.14028
 H680 H 1.17422 0.63765 0.30577
 H681 H 1.13820 0.60539 0.26325
 C682 C 0.48260 0.14930 0.28148
 C683 C 0.50619 0.16601 0.32005
 C684 C 0.50741 0.18682 0.36076
 C685 C 0.48502 0.19067 0.36628
 C686 C 0.46156 0.17401 0.32860
 C687 C 0.46039 0.15370 0.28624
 C688 C 0.48193 0.12684 0.23998
 C689 C 0.46015 0.10998 0.19674
 C690 C 0.45992 0.08841 0.16207
 C691 C 0.48121 0.08303 0.17033
 C692 C 0.50343 0.10026 0.21109
 C693 C 0.50413 0.12226 0.24506
 C694 C 0.52803 0.16123 0.31997
 C695 C 0.52685 0.13955 0.28416
 H696 H 0.54605 0.17399 0.34966
 H697 H 0.54399 0.13625 0.28722
 H698 H 0.52547 0.19928 0.39067
 H699 H 0.44398 0.17653 0.33230
 H700 H 0.44271 0.07547 0.13019
 H701 H 0.52023 0.09652 0.21645
 H702 H 0.44171 0.14127 0.25914
 H703 H 0.44310 0.11303 0.18920
 C704 C 0.66728 0.51182 0.27334
 C705 C 0.65988 0.48792 0.31128
 C706 C 0.67893 0.48630 0.35341
 C707 C 0.70511 0.50861 0.36099
 C708 C 0.71246 0.53232 0.32360
 C709 C 0.69389 0.53388 0.27985
 C710 C 0.64597 0.51302 0.23090
 C711 C 0.65138 0.53524 0.18858
 C712 C 0.63037 0.53609 0.15378
 C713 C 0.60358 0.51498 0.16097
 C714 C 0.59816 0.49225 0.20034
 C715 C 0.61910 0.49096 0.23450
 C716 C 0.63323 0.46618 0.30938
 C717 C 0.61318 0.46784 0.27268
 H718 H 0.62757 0.44791 0.33849
 H719 H 0.59268 0.45081 0.27452
 H720 H 0.67291 0.46804 0.38295
 H721 H 0.73254 0.54984 0.32877
 H722 H 0.63497 0.55369 0.12297
 H723 H 0.57750 0.47558 0.20484
 H724 H 0.70053 0.55276 0.25320
 H725 H 0.67159 0.55222 0.18214
 C726 C 0.84815 0.33217 0.27606
 C727 C 0.83176 0.33960 0.31416
 C728 C 0.81088 0.32041 0.35542
 C729 C 0.80663 0.29401 0.36196
 C730 C 0.82290 0.28664 0.32448
 C731 C 0.84327 0.30537 0.28160
 C732 C 0.87083 0.35359 0.23438
 C733 C 0.88756 0.34819 0.19189
 C734 C 0.90948 0.36927 0.15750
 C735 C 0.91533 0.39612 0.16531
 C736 C 0.89819 0.40156 0.20504
 C737 C 0.87588 0.38057 0.23876
 C738 C 0.83697 0.36639 0.31318
 C739 C 0.85882 0.38653 0.27714
 H740 H 0.82444 0.37206 0.34244
 H741 H 0.86248 0.40713 0.27961
 H742 H 0.79871 0.32645 0.38505
 H743 H 0.82005 0.26639 0.32887
 H744 H 0.92236 0.36465 0.12639
 H745 H 0.90230 0.42227 0.21002
 H746 H 0.85540 0.29869 0.25479
 H747 H 0.88417 0.32793 0.18491
   
