data_POSCAR
  _audit_creation_date              2014-09-24
  _audit_creation_method            'ToBaCCo'
  _symmetry_space_group_name_H-M    'P1'
  _symmetry_Int_Tables_number       1
  _symmetry_cell_setting            triclinic
  loop_
  _symmetry_equiv_pos_as_xyz
 x,y,z
_cell_length_a 65.6271
_cell_length_b 65.6280
_cell_length_c 52.4747
_cell_angle_alpha 89.987300
_cell_angle_beta 90.011700
_cell_angle_gamma 90.347400
loop_
  _atom_site_label
  _atom_site_type_symbol
  _atom_site_fract_x
  _atom_site_fract_y
  _atom_site_fract_z
O1 O 0.02006 0.29439 -0.02421
 O2 O -0.01984 0.29432 0.02527
 O3 O 0.01995 0.29424 0.02541
 O4 O -0.01974 0.29452 -0.02434
 O5 O -0.01997 0.26092 -0.02445
 O6 O 0.01958 0.26064 0.02519
 O7 O -0.02007 0.26074 0.02503
 O8 O 0.01969 0.26078 -0.02431
 Cu9 Cu 0.00014 0.29774 0.00055
 Cu10 Cu -0.00022 0.25742 0.00034
 C11 C 0.02676 0.27756 -0.03266
 C12 C -0.02688 0.27749 0.03359
 C13 C 0.02661 0.27736 0.03375
 C14 C -0.02671 0.27774 -0.03283
 O15 O 0.48072 0.79405 0.52464
 O16 O 0.52054 0.79394 0.47508
 O17 O 0.48075 0.79406 0.47503
 O18 O 0.52050 0.79392 0.52470
 O19 O 0.52012 0.76031 0.52463
 O20 O 0.48050 0.76045 0.47508
 O21 O 0.52017 0.76033 0.47513
 O22 O 0.48046 0.76045 0.52457
 Cu23 Cu 0.50066 0.79737 0.49986
 Cu24 Cu 0.50028 0.75703 0.49985
 C25 C 0.47372 0.77724 0.53302
 C26 C 0.52723 0.77709 0.46670
 C27 C 0.47376 0.77725 0.46663
 C28 C 0.52716 0.77706 0.53310
 O29 O 0.98010 0.70617 -0.02617
 O30 O 1.01993 0.70619 0.02339
 O31 O 0.98015 0.70616 0.02343
 O32 O 1.01990 0.70622 -0.02623
 O33 O 1.02000 0.73979 -0.02617
 O34 O 0.98039 0.73976 0.02337
 O35 O 1.02004 0.73979 0.02333
 O36 O 0.98034 0.73974 -0.02612
 Cu37 Cu 1.00001 0.70281 -0.00140
 Cu38 Cu 1.00021 0.74312 -0.00141
 C39 C 0.97329 0.72298 -0.03459
 C40 C 1.02686 0.72302 0.03178
 C41 C 0.97341 0.72298 0.03183
 C42 C 1.02686 0.72304 -0.03467
 O43 O 0.48010 0.20525 0.47512
 O44 O 0.51972 0.20544 0.52494
 O45 O 0.47994 0.20541 0.52472
 O46 O 0.51989 0.20534 0.47532
 O47 O 0.51997 0.23895 0.47523
 O48 O 0.48015 0.23902 0.52451
 O49 O 0.51981 0.23905 0.52473
 O50 O 0.48031 0.23885 0.47502
 Cu51 Cu 0.49990 0.20198 0.50004
 Cu52 Cu 0.50008 0.24232 0.49985
 C53 C 0.47336 0.22204 0.46662
 C54 C 0.52659 0.22231 0.53331
 C55 C 0.47315 0.22226 0.53300
 C56 C 0.52683 0.22217 0.46689
 O57 O 0.70589 -0.01997 0.02393
 O58 O 0.70565 0.01999 -0.02548
 O59 O 0.70569 -0.01981 -0.02568
 O60 O 0.70583 0.01981 0.02412
 O61 O 0.73943 0.02000 0.02387
 O62 O 0.73929 -0.01948 -0.02583
 O63 O 0.73922 0.02018 -0.02562
 O64 O 0.73949 -0.01966 0.02367
 Cu65 Cu 0.70239 -0.00002 -0.00076
 Cu66 Cu 0.74271 0.00029 -0.00100
 C67 C 0.72276 -0.02671 0.03219
 C68 C 0.72242 0.02703 -0.03397
 C69 C 0.72250 -0.02649 -0.03420
 C70 C 0.72268 0.02674 0.03245
 O71 O 0.20589 0.47999 0.52454
 O72 O 0.20576 0.51962 0.47473
 O73 O 0.20582 0.47983 0.47494
 O74 O 0.20583 0.51977 0.52435
 O75 O 0.23944 0.51997 0.52422
 O76 O 0.23942 0.48014 0.47492
 O77 O 0.23936 0.51981 0.47472
 O78 O 0.23950 0.48031 0.52441
 Cu79 Cu 0.20245 0.49978 0.49965
 Cu80 Cu 0.24279 0.50008 0.49956
 C81 C 0.22275 0.47330 0.53293
 C82 C 0.22257 0.52655 0.46627
 C83 C 0.22265 0.47309 0.46655
 C84 C 0.22267 0.52676 0.53267
 O85 O 0.29359 1.02096 0.02471
 O86 O 0.29366 0.98115 -0.02489
 O87 O 0.29357 1.02094 -0.02490
 O88 O 0.29370 0.98118 0.02473
 O89 O 0.26010 0.98096 0.02469
 O90 O 0.26000 1.02060 -0.02483
 O91 O 0.26005 0.98094 -0.02480
 O92 O 0.26001 1.02061 0.02467
 Cu93 Cu 0.29700 1.00109 -0.00010
 Cu94 Cu 0.25669 1.00075 -0.00007
 C95 C 0.27676 1.02769 0.03316
 C96 C 0.27683 0.97417 -0.03326
 C97 C 0.27673 1.02768 -0.03333
 C98 C 0.27690 0.97421 0.03314
 O99 O 0.79470 0.52004 0.52508
 O100 O 0.79481 0.48037 0.47535
 O101 O 0.79476 0.52016 0.47546
 O102 O 0.79471 0.48026 0.52497
 O103 O 0.76110 0.48011 0.52480
 O104 O 0.76115 0.51986 0.47542
 O105 O 0.76120 0.48020 0.47530
 O106 O 0.76109 0.51975 0.52491
 Cu107 Cu 0.79812 0.50023 0.50022
 Cu108 Cu 0.75778 0.49996 0.50009
 C109 C 0.77785 0.52674 0.53345
 C110 C 0.77800 0.47343 0.46689
 C111 C 0.77794 0.52690 0.46704
 C112 C 0.77786 0.47331 0.53330
 C113 C 0.21949 0.23408 0.18245
 C114 C 0.23422 0.21935 0.18234
 C115 C 0.24394 0.22044 0.20576
 N116 N 0.23562 0.23529 0.22018
 C117 C 0.22070 0.24368 0.20593
 C118 C 0.25927 0.20696 0.21408
 C119 C 0.27079 0.21013 0.23652
 C120 C 0.28287 0.19553 0.24807
 C121 C 0.29227 0.20484 0.26843
 C122 C 0.28568 0.22488 0.26875
 N123 N 0.27267 0.22800 0.24916
 C124 C 0.29256 0.23992 0.28607
 C125 C 0.28269 0.25879 0.28948
 C126 C 0.29038 0.27492 0.30365
 C127 C 0.27567 0.28967 0.30373
 C128 C 0.25947 0.28206 0.28962
 N129 N 0.26377 0.26317 0.28097
 C130 C 0.24061 0.29198 0.28637
 C131 C 0.22547 0.28518 0.26913
 C132 C 0.20544 0.29177 0.26901
 C133 C 0.19601 0.28244 0.24868
 C134 C 0.21054 0.27039 0.23695
 N135 N 0.22848 0.27223 0.24946
 C136 C 0.20726 0.25897 0.21447
 H137 H 0.20901 0.23726 0.16705
 H138 H 0.23733 0.20895 0.16684
 H139 H 0.24247 0.26676 0.24328
 H140 H 0.28477 0.17980 0.24239
 H141 H 0.30283 0.19768 0.28146
 H142 H 0.30503 0.27592 0.31307
 H143 H 0.27675 0.30427 0.31323
 H144 H 0.18026 0.28437 0.24312
 H145 H 0.26719 0.24201 0.24312
 H146 H 0.19835 0.30229 0.28214
 C147 C 0.71438 0.72858 0.31154
 C148 C 0.72962 0.71443 0.31232
 C149 C 0.74299 0.71924 0.29273
 N150 N 0.73645 0.73596 0.28021
 C151 C 0.71898 0.74176 0.29166
 C152 C 0.76052 0.70779 0.28651
 C153 C 0.77398 0.71232 0.26613
 C154 C 0.78917 0.69933 0.25777
 C155 C 0.79848 0.70864 0.23741
 C156 C 0.78877 0.72713 0.23375
 N157 N 0.77408 0.72942 0.25164
 C158 C 0.79369 0.74100 0.21392
 C159 C 0.78203 0.75831 0.20739
 C160 C 0.78668 0.77153 0.18758
 C161 C 0.77146 0.78570 0.18682
 C162 C 0.75803 0.78085 0.20634
 N163 N 0.76454 0.76408 0.21881
 C164 C 0.74049 0.79228 0.21254
 C165 C 0.72698 0.78771 0.23287
 C166 C 0.71172 0.80066 0.24115
 C167 C 0.70240 0.79133 0.26149
 C168 C 0.71217 0.77288 0.26522
 N169 N 0.72691 0.77063 0.24738
 C170 C 0.70728 0.75903 0.28507
 H171 H 0.70144 0.72913 0.32431
 H172 H 0.73062 0.70195 0.32574
 H173 H 0.73543 0.75766 0.24422
 H174 H 0.79296 0.68445 0.26525
 H175 H 0.81077 0.70228 0.22627
 H176 H 0.79964 0.77101 0.17485
 H177 H 0.77049 0.79822 0.17345
 H178 H 0.69006 0.79765 0.27258
 H179 H 0.76563 0.74243 0.25488
 H180 H 0.70790 0.81551 0.23363
 C181 C 0.77154 0.21397 0.18782
 C182 C 0.78581 0.22927 0.18706
 C183 C 0.78130 0.24244 0.20691
 N184 N 0.76465 0.23571 0.21958
 C185 C 0.75860 0.21833 0.20796
 C186 C 0.79299 0.25990 0.21330
 C187 C 0.78861 0.27324 0.23379
 C188 C 0.80187 0.28826 0.24245
 C189 C 0.79257 0.29758 0.26272
 C190 C 0.77383 0.28806 0.26602
 N191 N 0.77139 0.27345 0.24801
 C192 C 0.75983 0.29311 0.28556
 C193 C 0.74231 0.28149 0.29191
 C194 C 0.72884 0.28635 0.31131
 C195 C 0.71457 0.27105 0.31209
 C196 C 0.71962 0.25737 0.29299
 N197 N 0.73659 0.26381 0.28075
 C198 C 0.70821 0.23962 0.28701
 C199 C 0.71284 0.22594 0.26695
 C200 C 0.70000 0.21032 0.25902
 C201 C 0.70929 0.20101 0.23874
 C202 C 0.72762 0.21114 0.23469
 N203 N 0.72983 0.22608 0.25229
 C204 C 0.74135 0.20643 0.21471
 H205 H 0.77077 0.20115 0.17488
 H206 H 0.79817 0.23045 0.17348
 H207 H 0.74269 0.23499 0.25513
 H208 H 0.81689 0.29194 0.23520
 H209 H 0.79908 0.30978 0.27402
 H210 H 0.72927 0.29949 0.32376
 H211 H 0.70187 0.27019 0.32520
 H212 H 0.70301 0.18843 0.22788
 H213 H 0.75818 0.26521 0.24445
 H214 H 0.68522 0.20626 0.26671
 C215 C 0.27168 0.71365 0.31081
 C216 C 0.28596 0.72894 0.31164
 C217 C 0.28093 0.74266 0.29258
 N218 N 0.26394 0.73627 0.28032
 C219 C 0.25821 0.71856 0.29142
 C220 C 0.29234 0.76041 0.28666
 C221 C 0.28770 0.77416 0.26666
 C222 C 0.30055 0.78980 0.25879
 C223 C 0.29123 0.79920 0.23857
 C224 C 0.27288 0.78910 0.23452
 N225 N 0.27068 0.77409 0.25204
 C226 C 0.25912 0.79389 0.21458
 C227 C 0.24187 0.78202 0.20779
 C228 C 0.22891 0.78645 0.18768
 C229 C 0.21466 0.77114 0.18684
 C230 C 0.21919 0.75789 0.20660
 N231 N 0.23584 0.76458 0.21931
 C232 C 0.20752 0.74039 0.21289
 C233 C 0.21190 0.72698 0.23332
 C234 C 0.19865 0.71192 0.24189
 C235 C 0.20796 0.70255 0.26214
 C236 C 0.22669 0.71207 0.26550
 N237 N 0.22913 0.72674 0.24756
 C238 C 0.24068 0.70697 0.28504
 H239 H 0.27124 0.70048 0.32322
 H240 H 0.29867 0.72976 0.32476
 H241 H 0.24232 0.73501 0.24404
 H242 H 0.31534 0.79382 0.26647
 H243 H 0.29750 0.81181 0.22777
 H244 H 0.22967 0.79933 0.17482
 H245 H 0.20229 0.77001 0.17326
 H246 H 0.20145 0.69031 0.27338
 H247 H 0.25782 0.76519 0.25487
 H248 H 0.18364 0.70826 0.23462
 C249 C 0.77514 0.20991 0.80396
 C250 C 0.78996 0.22473 0.80393
 C251 C 0.78240 0.24085 0.78980
 N252 N 0.76345 0.23641 0.78126
 C253 C 0.75901 0.21748 0.78986
 C254 C 0.79241 0.25978 0.78646
 C255 C 0.78566 0.27482 0.76917
 C256 C 0.79240 0.29489 0.76891
 C257 C 0.78308 0.30421 0.74857
 C258 C 0.77089 0.28957 0.73696
 N259 N 0.77264 0.27168 0.74956
 C260 C 0.75941 0.29273 0.71453
 C261 C 0.74398 0.27920 0.70616
 C262 C 0.73428 0.28030 0.68274
 C263 C 0.71944 0.26551 0.68279
 C264 C 0.72057 0.25586 0.70625
 N265 N 0.73555 0.26428 0.72052
 C266 C 0.70701 0.24049 0.71473
 C267 C 0.71020 0.22902 0.73717
 C268 C 0.69557 0.21687 0.74884
 C269 C 0.70491 0.20753 0.76915
 C270 C 0.72500 0.21423 0.76932
 N271 N 0.72811 0.22724 0.74969
 C272 C 0.74006 0.20747 0.78657
 H273 H 0.77610 0.19530 0.81342
 H274 H 0.80459 0.22378 0.81337
 H275 H 0.74214 0.23280 0.74355
 H276 H 0.80300 0.30207 0.78197
 H277 H 0.78510 0.31995 0.74293
 H278 H 0.73747 0.29075 0.66727
 H279 H 0.70894 0.26231 0.66738
 H280 H 0.69774 0.19695 0.78224
 H281 H 0.76705 0.25765 0.74348
 H282 H 0.67980 0.21487 0.74326
 C283 C 0.27197 0.71385 0.68875
 C284 C 0.28627 0.72913 0.68810
 C285 C 0.28103 0.74290 0.70701
 N286 N 0.26391 0.73654 0.71900
 C287 C 0.25830 0.71880 0.70788
 C288 C 0.29236 0.76070 0.71299
 C289 C 0.28759 0.77446 0.73292
 C290 C 0.30030 0.79022 0.74075
 C291 C 0.29091 0.79955 0.76097
 C292 C 0.27266 0.78929 0.76506
 N293 N 0.27059 0.77425 0.74756
 C294 C 0.25890 0.79393 0.78504
 C295 C 0.24168 0.78198 0.79174
 C296 C 0.22875 0.78623 0.81193
 C297 C 0.21447 0.77094 0.81258
 C298 C 0.21896 0.75787 0.79262
 N299 N 0.23561 0.76466 0.77998
 C300 C 0.20723 0.74047 0.78605
 C301 C 0.21164 0.72720 0.76549
 C302 C 0.19833 0.71232 0.75660
 C303 C 0.20772 0.70300 0.73638
 C304 C 0.22656 0.71239 0.73336
 N305 N 0.22897 0.72691 0.75147
 C306 C 0.24068 0.70726 0.71399
 H307 H 0.27167 0.70065 0.67639
 H308 H 0.29911 0.72992 0.67519
 H309 H 0.24222 0.73502 0.75527
 H310 H 0.31506 0.79437 0.73306
 H311 H 0.29709 0.81222 0.77175
 H312 H 0.22953 0.79899 0.82497
 H313 H 0.20211 0.76970 0.82615
 H314 H 0.20121 0.69088 0.72494
 H315 H 0.25784 0.76519 0.74481
 H316 H 0.18324 0.70872 0.76366
 C317 C 0.21370 0.22857 0.81204
 C318 C 0.22888 0.21435 0.81274
 C319 C 0.24231 0.21920 0.79323
 N320 N 0.23586 0.23602 0.78083
 C321 C 0.21840 0.24183 0.79228
 C322 C 0.25981 0.20772 0.78698
 C323 C 0.27332 0.21227 0.76665
 C324 C 0.28851 0.19926 0.75832
 C325 C 0.29785 0.20858 0.73799
 C326 C 0.28817 0.22708 0.73433
 N327 N 0.27346 0.22937 0.75219
 C328 C 0.29310 0.24094 0.71451
 C329 C 0.28147 0.25828 0.70799
 C330 C 0.28612 0.27148 0.68815
 C331 C 0.27094 0.28570 0.68745
 C332 C 0.25756 0.28091 0.70703
 N333 N 0.26404 0.26413 0.71949
 C334 C 0.24010 0.29242 0.71333
 C335 C 0.22663 0.28790 0.73371
 C336 C 0.21150 0.30096 0.74213
 C337 C 0.20216 0.29163 0.76245
 C338 C 0.21178 0.27308 0.76603
 N339 N 0.22645 0.27077 0.74813
 C340 C 0.20680 0.25919 0.78580
 H341 H 0.20074 0.22911 0.82477
 H342 H 0.22980 0.20180 0.82606
 H343 H 0.23484 0.25773 0.74482
 H344 H 0.29227 0.18438 0.76579
 H345 H 0.31015 0.20222 0.72686
 H346 H 0.29904 0.27090 0.67536
 H347 H 0.26998 0.29821 0.67407
 H348 H 0.18990 0.29802 0.77363
 H349 H 0.26499 0.24237 0.75541
 H350 H 0.20778 0.31587 0.73471
 C351 C 0.77587 0.79035 0.80336
 C352 C 0.79063 0.77566 0.80341
 C353 C 0.78301 0.75944 0.78936
 N354 N 0.76409 0.76371 0.78077
 C355 C 0.75971 0.78262 0.78926
 C356 C 0.79294 0.74058 0.78610
 C357 C 0.78611 0.72544 0.76891
 C358 C 0.79274 0.70541 0.76878
 C359 C 0.78336 0.69596 0.74849
 C360 C 0.77128 0.71048 0.73678
 N361 N 0.77312 0.72842 0.74927
 C362 C 0.75981 0.70718 0.71434
 C363 C 0.74448 0.72058 0.70584
 C364 C 0.73483 0.71936 0.68239
 C365 C 0.72007 0.73406 0.68232
 C366 C 0.72120 0.74378 0.70573
 N367 N 0.73610 0.73549 0.72010
 C368 C 0.70772 0.75909 0.71409
 C369 C 0.71092 0.77060 0.73651
 C370 C 0.69633 0.78265 0.74812
 C371 C 0.70568 0.79208 0.76843
 C372 C 0.72574 0.78554 0.76866
 N373 N 0.72883 0.77253 0.74908
 C374 C 0.74082 0.79246 0.78590
 H375 H 0.77687 0.80501 0.81275
 H376 H 0.80526 0.77676 0.81286
 H377 H 0.74284 0.76708 0.74298
 H378 H 0.80329 0.69834 0.78189
 H379 H 0.78530 0.68021 0.74295
 H380 H 0.73800 0.70888 0.66698
 H381 H 0.70963 0.73715 0.66684
 H382 H 0.69854 0.80262 0.78148
 H383 H 0.76762 0.74240 0.74309
 H384 H 0.68058 0.78452 0.74250
 C385 C 0.29470 0.06718 0.07925
 C386 C 0.27613 0.07476 0.08813
 C387 C 0.25783 0.06648 0.07910
 C388 C 0.25802 0.05080 0.06110
 C389 C 0.27661 0.04312 0.05176
 C390 C 0.29497 0.05147 0.06123
 C391 C 0.27571 0.09134 0.10607
 C392 C 0.27490 0.10538 0.12084
 C393 C 0.27341 0.12199 0.13781
 C394 C 0.27168 0.13630 0.15202
 C395 C 0.26904 0.15355 0.16862
 C396 C 0.25053 0.15619 0.18143
 C397 C 0.24748 0.17341 0.19657
 C398 C 0.26291 0.18820 0.19897
 C399 C 0.28158 0.18534 0.18644
 C400 C 0.28462 0.16809 0.17129
 H401 H 0.30896 0.07351 0.08611
 H402 H 0.24336 0.07226 0.08583
 H403 H 0.24355 0.04484 0.05440
 H404 H 0.30959 0.04602 0.05461
 H405 H 0.23837 0.14506 0.17946
 H406 H 0.23302 0.17537 0.20618
 H407 H 0.29361 0.19663 0.18809
 H408 H 0.29898 0.16622 0.16141
 C409 C 0.79569 0.56711 0.58031
 C410 C 0.77710 0.57453 0.58934
 C411 C 0.75881 0.56608 0.58047
 C412 C 0.75906 0.55039 0.56248
 C413 C 0.77766 0.54294 0.55308
 C414 C 0.79600 0.55140 0.56230
 C415 C 0.77663 0.59114 0.60723
 C416 C 0.77578 0.60522 0.62193
 C417 C 0.77424 0.62187 0.63881
 C418 C 0.77246 0.63624 0.65292
 C419 C 0.76977 0.65355 0.66938
 C420 C 0.78531 0.66813 0.67196
 C421 C 0.78221 0.68546 0.68695
 C422 C 0.76352 0.68835 0.69941
 C423 C 0.74812 0.67351 0.69710
 C424 C 0.75124 0.65621 0.68212
 H425 H 0.80994 0.57358 0.58702
 H426 H 0.74432 0.57173 0.58730
 H427 H 0.74468 0.54423 0.55580
 H428 H 0.81056 0.54601 0.55544
 H429 H 0.79969 0.66625 0.66212
 H430 H 0.79422 0.69679 0.68853
 H431 H 0.73364 0.67549 0.70665
 H432 H 0.73910 0.64505 0.68021
 C433 C 0.74192 0.93358 0.07871
 C434 C 0.72365 0.92508 0.08758
 C435 C 0.70503 0.93259 0.07870
 C436 C 0.70469 0.94844 0.06087
 C437 C 0.72300 0.95695 0.05166
 C438 C 0.74162 0.94940 0.06089
 C439 C 0.72413 0.90835 0.10531
 C440 C 0.72494 0.89418 0.11990
 C441 C 0.72634 0.87743 0.13667
 C442 C 0.72793 0.86299 0.15071
 C443 C 0.73031 0.84560 0.16714
 C444 C 0.71841 0.82807 0.16330
 C445 C 0.72149 0.81080 0.17840
 C446 C 0.73653 0.81093 0.19740
 C447 C 0.74819 0.82863 0.20149
 C448 C 0.74510 0.84589 0.18639
 H449 H 0.75642 0.92786 0.08542
 H450 H 0.69079 0.92609 0.08541
 H451 H 0.69011 0.95389 0.05414
 H452 H 0.75599 0.95560 0.05421
 H453 H 0.70697 0.82767 0.14842
 H454 H 0.71240 0.79723 0.17505
 H455 H 0.75984 0.82892 0.21611
 H456 H 0.75443 0.85934 0.18948
 C457 C 0.24178 0.43383 0.57983
 C458 C 0.22349 0.42534 0.58863
 C459 C 0.20490 0.43280 0.57963
 C460 C 0.20460 0.44859 0.56170
 C461 C 0.22293 0.45707 0.55254
 C462 C 0.24153 0.44959 0.56192
 C463 C 0.22394 0.40864 0.60640
 C464 C 0.22471 0.39449 0.62100
 C465 C 0.22609 0.37773 0.63775
 C466 C 0.22766 0.36328 0.65177
 C467 C 0.23001 0.34586 0.66814
 C468 C 0.21798 0.32841 0.66436
 C469 C 0.22104 0.31110 0.67939
 C470 C 0.23619 0.31111 0.69825
 C471 C 0.24799 0.32873 0.70228
 C472 C 0.24492 0.34602 0.68725
 H473 H 0.25626 0.42815 0.58664
 H474 H 0.19064 0.42631 0.58629
 H475 H 0.19003 0.45400 0.55486
 H476 H 0.25591 0.45577 0.55527
 H477 H 0.20645 0.32810 0.64959
 H478 H 0.21184 0.29759 0.67610
 H479 H 0.25972 0.32892 0.71679
 H480 H 0.25435 0.35941 0.69028
 C481 C 0.93383 0.25858 0.07919
 C482 C 0.92583 0.27689 0.08826
 C483 C 0.93377 0.29545 0.07955
 C484 C 0.94956 0.29571 0.06164
 C485 C 0.95763 0.27735 0.05212
 C486 C 0.94960 0.25876 0.06130
 C487 C 0.90914 0.27649 0.10606
 C488 C 0.89501 0.27573 0.12070
 C489 C 0.87828 0.27434 0.13752
 C490 C 0.86385 0.27272 0.15159
 C491 C 0.84645 0.27029 0.16804
 C492 C 0.84640 0.25510 0.18680
 C493 C 0.82911 0.25194 0.20186
 C494 C 0.81171 0.26392 0.19822
 C495 C 0.81193 0.27937 0.17973
 C496 C 0.82924 0.28252 0.16467
 H497 H 0.92778 0.24412 0.08580
 H498 H 0.92765 0.30972 0.08644
 H499 H 0.95529 0.31033 0.05514
 H500 H 0.95534 0.24429 0.05456
 H501 H 0.85961 0.24552 0.18952
 H502 H 0.82913 0.23998 0.21609
 H503 H 0.79859 0.28872 0.17674
 H504 H 0.82910 0.29427 0.15017
 C505 C 0.43379 0.75847 0.57977
 C506 C 0.42562 0.77681 0.58854
 C507 C 0.43343 0.79536 0.57954
 C508 C 0.44925 0.79555 0.56166
 C509 C 0.45743 0.77716 0.55254
 C510 C 0.44958 0.75861 0.56191
 C511 C 0.40890 0.77648 0.60627
 C512 C 0.39471 0.77581 0.62085
 C513 C 0.37792 0.77455 0.63758
 C514 C 0.36343 0.77308 0.65158
 C515 C 0.34595 0.77084 0.66793
 C516 C 0.34633 0.75686 0.68809
 C517 C 0.32898 0.75382 0.70310
 C518 C 0.31111 0.76471 0.69799
 C519 C 0.31087 0.77896 0.67807
 C520 C 0.32824 0.78200 0.66307
 H521 H 0.42784 0.74402 0.58658
 H522 H 0.42719 0.80965 0.58617
 H523 H 0.45494 0.81008 0.55483
 H524 H 0.45552 0.74419 0.55530
 H525 H 0.35993 0.74810 0.69197
 H526 H 0.32934 0.74277 0.71843
 H527 H 0.29716 0.78745 0.67394
 H528 H 0.32776 0.79280 0.64747
 C529 C 0.06714 0.70508 0.07843
 C530 C 0.07485 0.72365 0.08747
 C531 C 0.06662 0.74196 0.07866
 C532 C 0.05087 0.74175 0.06073
 C533 C 0.04313 0.72317 0.05134
 C534 C 0.05137 0.70482 0.06049
 C535 C 0.09151 0.72406 0.10531
 C536 C 0.10562 0.72481 0.11998
 C537 C 0.12233 0.72618 0.13685
 C538 C 0.13674 0.72775 0.15098
 C539 C 0.15410 0.73013 0.16748
 C540 C 0.17134 0.71793 0.16407
 C541 C 0.18863 0.72103 0.17919
 C542 C 0.18881 0.73640 0.19777
 C543 C 0.17140 0.74835 0.20145
 C544 C 0.15412 0.74524 0.18633
 H545 H 0.07343 0.69081 0.08510
 H546 H 0.07249 0.75643 0.08549
 H547 H 0.04488 0.75615 0.05410
 H548 H 0.04576 0.69027 0.05364
 H549 H 0.17150 0.70624 0.14950
 H550 H 0.20198 0.71171 0.17617
 H551 H 0.17135 0.76025 0.21575
 H552 H 0.14090 0.75480 0.18908
 C553 C 0.56612 0.24141 0.58039
 C554 C 0.57434 0.22313 0.58932
 C555 C 0.56671 0.20452 0.58029
 C556 C 0.55101 0.20420 0.56225
 C557 C 0.54278 0.22252 0.55298
 C558 C 0.55045 0.24113 0.56237
 C559 C 0.59093 0.22361 0.60726
 C560 C 0.60499 0.22447 0.62201
 C561 C 0.62164 0.22601 0.63894
 C562 C 0.63600 0.22778 0.65311
 C563 C 0.65331 0.23048 0.66963
 C564 C 0.66774 0.21496 0.67222
 C565 C 0.68508 0.21807 0.68726
 C566 C 0.68814 0.23675 0.69977
 C567 C 0.67346 0.25212 0.69747
 C568 C 0.65615 0.24899 0.68244
 H569 H 0.57193 0.25590 0.58722
 H570 H 0.57300 0.19028 0.58705
 H571 H 0.54546 0.18962 0.55540
 H572 H 0.54446 0.25550 0.55565
 H573 H 0.66572 0.20060 0.66234
 H574 H 0.69629 0.20609 0.68884
 H575 H 0.67558 0.26659 0.70706
 H576 H 0.64511 0.26111 0.68053
 C577 C 0.74103 0.06651 0.92047
 C578 C 0.72266 0.07460 0.91169
 C579 C 0.70416 0.06661 0.92055
 C580 C 0.70401 0.05072 0.93832
 C581 C 0.72244 0.04258 0.94757
 C582 C 0.74097 0.05064 0.93822
 C583 C 0.72293 0.09145 0.89412
 C584 C 0.72360 0.10575 0.87972
 C585 C 0.72488 0.12271 0.86324
 C586 C 0.72641 0.13736 0.84949
 C587 C 0.72877 0.15504 0.83350
 C588 C 0.73080 0.17435 0.84459
 C589 C 0.73413 0.19146 0.82927
 C590 C 0.73553 0.18941 0.80270
 C591 C 0.73314 0.17007 0.79160
 C592 C 0.72980 0.15295 0.80696
 H593 H 0.75545 0.07260 0.91376
 H594 H 0.68984 0.07280 0.91389
 H595 H 0.68944 0.04497 0.94495
 H596 H 0.75548 0.04485 0.94475
 H597 H 0.73006 0.17614 0.86509
 H598 H 0.73588 0.20628 0.83811
 H599 H 0.73421 0.16824 0.77113
 H600 H 0.72831 0.13807 0.79819
 C601 C 0.24135 0.56629 0.41928
 C602 C 0.22301 0.57454 0.41059
 C603 C 0.20447 0.56681 0.41969
 C604 C 0.20426 0.55102 0.43760
 C605 C 0.22265 0.54279 0.44667
 C606 C 0.24120 0.55053 0.43718
 C607 C 0.22337 0.59127 0.39285
 C608 C 0.22408 0.60546 0.37830
 C609 C 0.22541 0.62228 0.36161
 C610 C 0.22696 0.63680 0.34766
 C611 C 0.22931 0.65431 0.33140
 C612 C 0.22501 0.67379 0.34080
 C613 C 0.22837 0.69094 0.32554
 C614 C 0.23612 0.68872 0.30077
 C615 C 0.24006 0.66917 0.29123
 C616 C 0.23669 0.65202 0.30652
 H617 H 0.25580 0.57218 0.41240
 H618 H 0.19018 0.57312 0.41311
 H619 H 0.18973 0.54541 0.44453
 H620 H 0.25561 0.54454 0.44374
 H621 H 0.21936 0.67574 0.36003
 H622 H 0.22525 0.70595 0.33310
 H623 H 0.24604 0.66727 0.27215
 H624 H 0.24012 0.63703 0.29909
 C625 C 0.29484 0.93381 0.92024
 C626 C 0.27628 0.92603 0.91126
 C627 C 0.25795 0.93426 0.92003
 C628 C 0.25815 0.95006 0.93787
 C629 C 0.27671 0.95787 0.94722
 C630 C 0.29508 0.94964 0.93810
 C631 C 0.27589 0.90930 0.89353
 C632 C 0.27515 0.89513 0.87894
 C633 C 0.27382 0.87836 0.86218
 C634 C 0.27227 0.86389 0.84814
 C635 C 0.26995 0.84647 0.83171
 C636 C 0.27562 0.82711 0.84032
 C637 C 0.27235 0.81001 0.82494
 C638 C 0.26334 0.81216 0.80084
 C639 C 0.25798 0.83161 0.79208
 C640 C 0.26126 0.84870 0.80748
 H641 H 0.30912 0.92753 0.91361
 H642 H 0.24349 0.92834 0.91323
 H643 H 0.24374 0.95604 0.94447
 H644 H 0.30962 0.95530 0.94493
 H645 H 0.28229 0.82521 0.85905
 H646 H 0.27654 0.79508 0.83190
 H647 H 0.25100 0.83345 0.77353
 H648 H 0.25676 0.86359 0.80067
 C649 C 0.75919 0.43365 0.41998
 C650 C 0.77753 0.42541 0.41129
 C651 C 0.79608 0.43314 0.42037
 C652 C 0.79629 0.44894 0.43826
 C653 C 0.77791 0.45718 0.44731
 C654 C 0.75936 0.44943 0.43785
 C655 C 0.77717 0.40868 0.39356
 C656 C 0.77644 0.39449 0.37901
 C657 C 0.77511 0.37768 0.36231
 C658 C 0.77355 0.36318 0.34834
 C659 C 0.77119 0.34569 0.33205
 C660 C 0.76381 0.34802 0.30717
 C661 C 0.76044 0.33090 0.29185
 C662 C 0.76439 0.31133 0.30135
 C663 C 0.77212 0.30907 0.32612
 C664 C 0.77548 0.32619 0.34142
 H665 H 0.74474 0.42776 0.41310
 H666 H 0.81036 0.42684 0.41380
 H667 H 0.81082 0.45456 0.44517
 H668 H 0.74494 0.45542 0.44441
 H669 H 0.76039 0.36303 0.29977
 H670 H 0.75447 0.33283 0.27276
 H671 H 0.77524 0.29404 0.33365
 H672 H 0.78113 0.32422 0.36065
 C673 C 0.06749 0.29554 0.92103
 C674 C 0.07492 0.27697 0.91193
 C675 C 0.06636 0.25866 0.92056
 C676 C 0.05055 0.25887 0.93838
 C677 C 0.04308 0.27744 0.94785
 C678 C 0.05164 0.29579 0.93887
 C679 C 0.09166 0.27657 0.89421
 C680 C 0.10584 0.27580 0.87965
 C681 C 0.12260 0.27442 0.86291
 C682 C 0.13706 0.27284 0.84890
 C683 C 0.15446 0.27045 0.83252
 C684 C 0.17400 0.27523 0.84157
 C685 C 0.19104 0.27189 0.82619
 C686 C 0.18866 0.26369 0.80166
 C687 C 0.16906 0.25924 0.79248
 C688 C 0.15202 0.26259 0.80788
 H689 H 0.07403 0.30981 0.91450
 H690 H 0.07202 0.24420 0.91367
 H691 H 0.04430 0.24447 0.94488
 H692 H 0.04625 0.31034 0.94578
 H693 H 0.17607 0.28126 0.86062
 H694 H 0.20610 0.27539 0.83348
 H695 H 0.16703 0.25291 0.77359
 H696 H 0.13698 0.25879 0.80072
 C697 C 0.56786 0.79498 0.42020
 C698 C 0.57534 0.77639 0.41120
 C699 C 0.56683 0.75809 0.41996
 C700 C 0.55103 0.75833 0.43780
 C701 C 0.54352 0.77692 0.44718
 C702 C 0.55204 0.79526 0.43807
 C703 C 0.59206 0.77597 0.39347
 C704 C 0.60623 0.77522 0.37889
 C705 C 0.62299 0.77389 0.36214
 C706 C 0.63744 0.77236 0.34812
 C707 C 0.65486 0.77006 0.33173
 C708 C 0.67435 0.77513 0.34069
 C709 C 0.69142 0.77188 0.32531
 C710 C 0.68911 0.76346 0.30089
 C711 C 0.66954 0.75872 0.29180
 C712 C 0.65248 0.76198 0.30719
 H713 H 0.57437 0.80924 0.41358
 H714 H 0.57252 0.74362 0.41315
 H715 H 0.54482 0.74394 0.44441
 H716 H 0.54661 0.80982 0.44490
 H717 H 0.67638 0.78133 0.35966
 H718 H 0.70645 0.77560 0.33253
 H719 H 0.66757 0.75221 0.27299
 H720 H 0.63748 0.75796 0.30011
 C721 C 0.93412 0.74177 0.91987
 C722 C 0.92580 0.72344 0.91099
 C723 C 0.93355 0.70490 0.91975
 C724 C 0.94943 0.70468 0.93754
 C725 C 0.95778 0.72307 0.94691
 C726 C 0.94997 0.74163 0.93764
 C727 C 0.90895 0.72377 0.89343
 C728 C 0.89465 0.72447 0.87905
 C729 C 0.87769 0.72577 0.86260
 C730 C 0.86304 0.72730 0.84889
 C731 C 0.84537 0.72963 0.83294
 C732 C 0.82609 0.73158 0.84407
 C733 C 0.80898 0.73483 0.82879
 C734 C 0.81101 0.73622 0.80221
 C735 C 0.83031 0.73394 0.79108
 C736 C 0.84743 0.73068 0.80640
 H737 H 0.92821 0.75621 0.91323
 H738 H 0.92719 0.69061 0.91302
 H739 H 0.95498 0.69008 0.94411
 H740 H 0.95593 0.75612 0.94426
 H741 H 0.82432 0.73083 0.86458
 H742 H 0.79418 0.73650 0.83765
 H743 H 0.83212 0.73499 0.77060
 H744 H 0.86229 0.72924 0.79760
 C745 C 0.43278 0.20387 0.42020
 C746 C 0.42525 0.22241 0.41109
 C747 C 0.43375 0.24076 0.41968
 C748 C 0.44957 0.24063 0.43751
 C749 C 0.45710 0.22210 0.44703
 C750 C 0.44862 0.20370 0.43805
 C751 C 0.40844 0.22273 0.39348
 C752 C 0.39416 0.22343 0.37907
 C753 C 0.37723 0.22475 0.36258
 C754 C 0.36259 0.22629 0.34884
 C755 C 0.34493 0.22866 0.33288
 C756 C 0.32564 0.23055 0.34400
 C757 C 0.30854 0.23388 0.32872
 C758 C 0.31060 0.23542 0.30215
 C759 C 0.32991 0.23318 0.29103
 C760 C 0.34702 0.22985 0.30635
 H761 H 0.42628 0.18958 0.41371
 H762 H 0.42802 0.25519 0.41279
 H763 H 0.45575 0.25506 0.44401
 H764 H 0.45407 0.18918 0.44501
 H765 H 0.32385 0.22969 0.36450
 H766 H 0.29374 0.23551 0.33757
 H767 H 0.33174 0.23436 0.27057
 H768 H 0.36188 0.22847 0.29756
 C769 C 0.74130 0.93397 0.91889
 C770 C 0.72297 0.92537 0.91037
 C771 C 0.70442 0.93282 0.91952
 C772 C 0.70420 0.94868 0.93732
 C773 C 0.72258 0.95725 0.94624
 C774 C 0.74113 0.94980 0.93668
 C775 C 0.72335 0.90852 0.89284
 C776 C 0.72409 0.89421 0.87848
 C777 C 0.72547 0.87724 0.86207
 C778 C 0.72707 0.86259 0.84840
 C779 C 0.72951 0.84490 0.83252
 C780 C 0.73150 0.82564 0.84372
 C781 C 0.73487 0.80853 0.82850
 C782 C 0.73633 0.81053 0.80193
 C783 C 0.73400 0.82981 0.79073
 C784 C 0.73063 0.84693 0.80598
 H785 H 0.75575 0.92829 0.91197
 H786 H 0.69014 0.92624 0.91308
 H787 H 0.68968 0.95406 0.94431
 H788 H 0.75554 0.95605 0.94313
 H789 H 0.73070 0.82391 0.86423
 H790 H 0.73657 0.79375 0.83742
 H791 H 0.73512 0.83159 0.77025
 H792 H 0.72916 0.86177 0.79713
 C793 C 0.20465 0.43222 0.42043
 C794 C 0.22322 0.42470 0.41142
 C795 C 0.24154 0.43328 0.42002
 C796 C 0.24134 0.44917 0.43773
 C797 C 0.22277 0.45672 0.44712
 C798 C 0.20441 0.44815 0.43815
 C799 C 0.22361 0.40783 0.39390
 C800 C 0.22435 0.39353 0.37953
 C801 C 0.22569 0.37658 0.36307
 C802 C 0.22724 0.36195 0.34934
 C803 C 0.22960 0.34430 0.33335
 C804 C 0.23065 0.34642 0.30681
 C805 C 0.23392 0.32934 0.29144
 C806 C 0.23622 0.31001 0.30252
 C807 C 0.23482 0.30793 0.32910
 C808 C 0.23156 0.32500 0.34443
 H809 H 0.19038 0.42567 0.41393
 H810 H 0.25600 0.42755 0.41321
 H811 H 0.25574 0.45542 0.44422
 H812 H 0.18987 0.45360 0.44501
 H813 H 0.22920 0.36129 0.29805
 H814 H 0.23497 0.33119 0.27098
 H815 H 0.23650 0.29311 0.33792
 H816 H 0.23081 0.32319 0.36493
 C817 C 0.29467 0.06726 0.92072
 C818 C 0.27611 0.07490 0.91190
 C819 C 0.25780 0.06660 0.92088
 C820 C 0.25799 0.05086 0.93880
 C821 C 0.27658 0.04313 0.94810
 C822 C 0.29494 0.05149 0.93865
 C823 C 0.27572 0.09158 0.89410
 C824 C 0.27499 0.10572 0.87947
 C825 C 0.27366 0.12246 0.86268
 C826 C 0.27214 0.13690 0.84864
 C827 C 0.26983 0.15431 0.83223
 C828 C 0.25505 0.15409 0.81297
 C829 C 0.25201 0.17138 0.79791
 C830 C 0.26371 0.18903 0.80207
 C831 C 0.27875 0.18910 0.82108
 C832 C 0.28178 0.17180 0.83613
 H833 H 0.30894 0.07361 0.91389
 H834 H 0.24334 0.07242 0.91419
 H835 H 0.24352 0.04489 0.94548
 H836 H 0.30956 0.04601 0.94524
 H837 H 0.24569 0.14066 0.80984
 H838 H 0.24036 0.17114 0.78329
 H839 H 0.28787 0.20264 0.82446
 H840 H 0.29321 0.17215 0.85102
 C841 C 0.79591 0.56759 0.42064
 C842 C 0.77734 0.57507 0.41158
 C843 C 0.75903 0.56654 0.42027
 C844 C 0.75923 0.55074 0.43811
 C845 C 0.77781 0.54322 0.44754
 C846 C 0.79616 0.55175 0.43850
 C847 C 0.77693 0.59179 0.39383
 C848 C 0.77616 0.60595 0.37923
 C849 C 0.77476 0.62269 0.36245
 C850 C 0.77317 0.63712 0.34838
 C851 C 0.77077 0.65450 0.33194
 C852 C 0.78273 0.67200 0.33566
 C853 C 0.77963 0.68926 0.32056
 C854 C 0.76449 0.68915 0.30167
 C855 C 0.75277 0.67147 0.29769
 C856 C 0.75588 0.65423 0.31280
 H857 H 0.81018 0.57411 0.41407
 H858 H 0.74456 0.57223 0.41341
 H859 H 0.74484 0.54452 0.44465
 H860 H 0.81071 0.54633 0.44539
 H861 H 0.79425 0.67239 0.35046
 H862 H 0.78877 0.70281 0.32381
 H863 H 0.74105 0.67120 0.28315
 H864 H 0.74651 0.64080 0.30980
 C865 C 0.06600 0.74193 0.91953
 C866 C 0.07407 0.72362 0.91056
 C867 C 0.06620 0.70506 0.91939
 C868 C 0.05042 0.70480 0.93732
 C869 C 0.04230 0.72317 0.94675
 C870 C 0.05026 0.74176 0.93744
 C871 C 0.09077 0.72400 0.89277
 C872 C 0.10492 0.72475 0.87816
 C873 C 0.12168 0.72612 0.86138
 C874 C 0.13614 0.72771 0.84735
 C875 C 0.15358 0.73013 0.83097
 C876 C 0.17069 0.71773 0.83425
 C877 C 0.18806 0.72087 0.81929
 C878 C 0.18844 0.73646 0.80099
 C879 C 0.17114 0.74860 0.79744
 C880 C 0.15379 0.74546 0.81241
 H881 H 0.07201 0.75639 0.91284
 H882 H 0.07237 0.69079 0.91258
 H883 H 0.04476 0.69019 0.94392
 H884 H 0.04447 0.75623 0.94411
 H885 H 0.17071 0.70587 0.84861
 H886 H 0.20131 0.71139 0.82220
 H887 H 0.17125 0.76068 0.78336
 H888 H 0.14066 0.75517 0.80976
 C889 C 0.56674 0.24106 0.42021
 C890 C 0.57507 0.22275 0.41157
 C891 C 0.56737 0.20418 0.42064
 C892 C 0.55150 0.20393 0.43845
 C893 C 0.54317 0.22229 0.44743
 C894 C 0.55091 0.24086 0.43800
 C895 C 0.59183 0.22315 0.39388
 C896 C 0.60603 0.22392 0.37934
 C897 C 0.62282 0.22530 0.36263
 C898 C 0.63731 0.22689 0.34863
 C899 C 0.65476 0.22928 0.33227
 C900 C 0.67241 0.21792 0.33676
 C901 C 0.68973 0.22105 0.32172
 C902 C 0.68952 0.23559 0.30213
 C903 C 0.67171 0.24670 0.29740
 C904 C 0.65440 0.24357 0.31245
 H905 H 0.57261 0.25552 0.41334
 H906 H 0.57373 0.18991 0.41410
 H907 H 0.54590 0.18938 0.44534
 H908 H 0.54484 0.25526 0.44450
 H909 H 0.67286 0.20687 0.35209
 H910 H 0.70339 0.21239 0.32555
 H911 H 0.67137 0.25797 0.28232
 H912 H 0.64086 0.25248 0.30886
 C913 C 0.93292 0.29597 0.92081
 C914 C 0.92517 0.27745 0.91166
 C915 C 0.93344 0.25909 0.92024
 C916 C 0.94926 0.25919 0.93806
 C917 C 0.95702 0.27772 0.94760
 C918 C 0.94876 0.29613 0.93865
 C919 C 0.90835 0.27714 0.89405
 C920 C 0.89407 0.27645 0.87962
 C921 C 0.87714 0.27513 0.86311
 C922 C 0.86250 0.27356 0.84935
 C923 C 0.84483 0.27116 0.83336
 C924 C 0.82552 0.26917 0.84445
 C925 C 0.80841 0.26580 0.82914
 C926 C 0.81047 0.26433 0.80257
 C927 C 0.82981 0.26667 0.79148
 C928 C 0.84693 0.27005 0.80683
 H929 H 0.92659 0.31028 0.91433
 H930 H 0.92753 0.24466 0.91332
 H931 H 0.95526 0.24476 0.94454
 H932 H 0.95439 0.31063 0.94562
 H933 H 0.82372 0.26997 0.86495
 H934 H 0.79358 0.26408 0.83797
 H935 H 0.83165 0.26555 0.77101
 H936 H 0.86181 0.27151 0.79806
 C937 C 0.43386 0.75845 0.41985
 C938 C 0.42563 0.77679 0.41114
 C939 C 0.43340 0.79534 0.42016
 C940 C 0.44924 0.79555 0.43802
 C941 C 0.45747 0.77716 0.44709
 C942 C 0.44967 0.75861 0.43769
 C943 C 0.40887 0.77644 0.39344
 C944 C 0.39467 0.77572 0.37889
 C945 C 0.37786 0.77440 0.36218
 C946 C 0.36335 0.77287 0.34820
 C947 C 0.34588 0.77055 0.33186
 C948 C 0.32827 0.78196 0.33638
 C949 C 0.31092 0.77890 0.32136
 C950 C 0.31106 0.76437 0.30175
 C951 C 0.32883 0.75321 0.29699
 C952 C 0.34617 0.75628 0.31202
 H953 H 0.42793 0.74401 0.41302
 H954 H 0.42711 0.80963 0.41357
 H955 H 0.45490 0.81008 0.44488
 H956 H 0.45565 0.74420 0.44426
 H957 H 0.32787 0.79299 0.35173
 H958 H 0.29729 0.78759 0.32522
 H959 H 0.32912 0.74196 0.28190
 H960 H 0.35968 0.74733 0.30841
 C961 C 0.29501 0.93394 0.07971
 C962 C 0.27646 0.92618 0.08876
 C963 C 0.25812 0.93438 0.08002
 C964 C 0.25827 0.95015 0.06213
 C965 C 0.27682 0.95794 0.05271
 C966 C 0.29521 0.94974 0.06180
 C967 C 0.27612 0.90947 0.10652
 C968 C 0.27543 0.89529 0.12111
 C969 C 0.27413 0.87851 0.13785
 C970 C 0.27262 0.86403 0.15186
 C971 C 0.27031 0.84656 0.16822
 C972 C 0.27582 0.82721 0.15943
 C973 C 0.27252 0.81007 0.17473
 C974 C 0.26363 0.81217 0.19890
 C975 C 0.25845 0.83160 0.20783
 C976 C 0.26176 0.84874 0.19252
 H977 H 0.30930 0.92767 0.08632
 H978 H 0.24368 0.92846 0.08687
 H979 H 0.24385 0.95612 0.05554
 H980 H 0.30973 0.95539 0.05492
 H981 H 0.28238 0.82535 0.14064
 H982 H 0.27658 0.79513 0.16763
 H983 H 0.25157 0.83340 0.22645
 H984 H 0.25738 0.86363 0.19946
 C985 C 0.79571 0.43300 0.58000
 C986 C 0.77711 0.42533 0.58901
 C987 C 0.75882 0.43357 0.58014
 C988 C 0.75908 0.44931 0.56221
 C989 C 0.77768 0.45703 0.55285
 C990 C 0.79601 0.44877 0.56205
 C991 C 0.77664 0.40869 0.60689
 C992 C 0.77576 0.39461 0.62161
 C993 C 0.77418 0.37795 0.63852
 C994 C 0.77235 0.36359 0.65269
 C995 C 0.76959 0.34630 0.66923
 C996 C 0.78505 0.33182 0.67186
 C997 C 0.78188 0.31452 0.68695
 C998 C 0.76320 0.31155 0.69948
 C999 C 0.74788 0.32627 0.69713
 C1000 C 0.75106 0.34355 0.68204
 H1001 H 0.80996 0.42670 0.58671
 H1002 H 0.74434 0.42773 0.58695
 H1003 H 0.74470 0.45532 0.55555
 H1004 H 0.81058 0.45436 0.55522
 H1005 H 0.79943 0.33378 0.66198
 H1006 H 0.79384 0.30328 0.68857
 H1007 H 0.73340 0.32422 0.70673
 H1008 H 0.73898 0.35463 0.68011
 C1009 C 0.74171 0.06643 0.07934
 C1010 C 0.72342 0.07462 0.08825
 C1011 C 0.70482 0.06690 0.07930
 C1012 C 0.70453 0.05114 0.06134
 C1013 C 0.72286 0.04295 0.05208
 C1014 C 0.74146 0.05071 0.06139
 C1015 C 0.72386 0.09128 0.10607
 C1016 C 0.72464 0.10541 0.12072
 C1017 C 0.72604 0.12213 0.13753
 C1018 C 0.72763 0.13657 0.15161
 C1019 C 0.73002 0.15396 0.16805
 C1020 C 0.72453 0.17336 0.15939
 C1021 C 0.72788 0.19044 0.17478
 C1022 C 0.73681 0.18823 0.19891
 C1023 C 0.74199 0.16875 0.20771
 C1024 C 0.73862 0.15167 0.19231
 H1025 H 0.75620 0.07232 0.08611
 H1026 H 0.69057 0.07315 0.08604
 H1027 H 0.68996 0.04552 0.05455
 H1028 H 0.75585 0.04475 0.05468
 H1029 H 0.71793 0.17531 0.14063
 H1030 H 0.72383 0.20540 0.16778
 H1031 H 0.74890 0.16686 0.22630
 H1032 H 0.74299 0.13675 0.19915
 C1033 C 0.24158 0.56676 0.57926
 C1034 C 0.22326 0.57498 0.58804
 C1035 C 0.20469 0.56718 0.57910
 C1036 C 0.20444 0.55133 0.56128
 C1037 C 0.22280 0.54310 0.55214
 C1038 C 0.24137 0.55093 0.56145
 C1039 C 0.22364 0.59173 0.60574
 C1040 C 0.22437 0.60593 0.62029
 C1041 C 0.22568 0.62274 0.63700
 C1042 C 0.22720 0.63725 0.65098
 C1043 C 0.22950 0.65473 0.66731
 C1044 C 0.22554 0.67426 0.65782
 C1045 C 0.22883 0.69137 0.67318
 C1046 C 0.23617 0.68906 0.69813
 C1047 C 0.23978 0.66946 0.70774
 C1048 C 0.23648 0.65235 0.69236
 H1049 H 0.25604 0.57270 0.58602
 H1050 H 0.19041 0.57346 0.58575
 H1051 H 0.18989 0.54565 0.55449
 H1052 H 0.25578 0.54495 0.55483
 H1053 H 0.22020 0.67628 0.63845
 H1054 H 0.22598 0.70642 0.66555
 H1055 H 0.24544 0.66749 0.72697
 H1056 H 0.23963 0.63732 0.69987
 C1057 C 0.93291 0.70498 0.07845
 C1058 C 0.92540 0.72354 0.08747
 C1059 C 0.93384 0.74187 0.07868
 C1060 C 0.94960 0.74167 0.06079
 C1061 C 0.95715 0.72310 0.05139
 C1062 C 0.94870 0.70474 0.06053
 C1063 C 0.90872 0.72393 0.10525
 C1064 C 0.89457 0.72466 0.11987
 C1065 C 0.87784 0.72599 0.13667
 C1066 C 0.86341 0.72754 0.15072
 C1067 C 0.84602 0.72986 0.16714
 C1068 C 0.84846 0.73782 0.19174
 C1069 C 0.83142 0.74112 0.20716
 C1070 C 0.81183 0.73653 0.19806
 C1071 C 0.80946 0.72823 0.17358
 C1072 C 0.82649 0.72494 0.15817
 H1073 H 0.92646 0.69070 0.08509
 H1074 H 0.92812 0.75632 0.08551
 H1075 H 0.95576 0.75608 0.05417
 H1076 H 0.95416 0.69020 0.05368
 H1077 H 0.86349 0.74173 0.19883
 H1078 H 0.83344 0.74753 0.22602
 H1079 H 0.79440 0.72462 0.16635
 H1080 H 0.82443 0.71883 0.13916
 C1081 C 0.43248 0.20439 0.57946
 C1082 C 0.42495 0.22298 0.58836
 C1083 C 0.43343 0.24127 0.57955
 C1084 C 0.44925 0.24103 0.56174
 C1085 C 0.45682 0.22243 0.55247
 C1086 C 0.44833 0.20409 0.56163
 C1087 C 0.40821 0.22342 0.60607
 C1088 C 0.39404 0.22422 0.62064
 C1089 C 0.37728 0.22563 0.63737
 C1090 C 0.36283 0.22724 0.65139
 C1091 C 0.34542 0.22966 0.66777
 C1092 C 0.34787 0.23765 0.69235
 C1093 C 0.33084 0.24101 0.70775
 C1094 C 0.31124 0.23645 0.69864
 C1095 C 0.30886 0.22812 0.67418
 C1096 C 0.32590 0.22477 0.65880
 H1097 H 0.42599 0.19013 0.58612
 H1098 H 0.42770 0.25575 0.58629
 H1099 H 0.45544 0.25541 0.55510
 H1100 H 0.45380 0.18953 0.55486
 H1101 H 0.36290 0.24154 0.69945
 H1102 H 0.33286 0.24745 0.72659
 H1103 H 0.29380 0.22452 0.66695
 H1104 H 0.32382 0.21863 0.63980
 C1105 C 0.06597 0.25817 0.08069
 C1106 C 0.07447 0.27642 0.08959
 C1107 C 0.06707 0.29505 0.08062
 C1108 C 0.05132 0.29541 0.06264
 C1109 C 0.04282 0.27711 0.05338
 C1110 C 0.05026 0.25848 0.06272
 C1111 C 0.09111 0.27590 0.10745
 C1112 C 0.10521 0.27501 0.12213
 C1113 C 0.12189 0.27344 0.13898
 C1114 C 0.13627 0.27164 0.15307
 C1115 C 0.15360 0.26893 0.16951
 C1116 C 0.16816 0.28449 0.17215
 C1117 C 0.18550 0.28139 0.18714
 C1118 C 0.18842 0.26267 0.19953
 C1119 C 0.17361 0.24725 0.19717
 C1120 C 0.15630 0.25037 0.18219
 H1121 H 0.07161 0.24366 0.08748
 H1122 H 0.07356 0.30928 0.08736
 H1123 H 0.04595 0.31000 0.05582
 H1124 H 0.04406 0.24413 0.05602
 H1125 H 0.16624 0.29889 0.16237
 H1126 H 0.19680 0.29342 0.18876
 H1127 H 0.17563 0.23275 0.20667
 H1128 H 0.14516 0.23822 0.18025
 C1129 C 0.56769 0.79485 0.57982
 C1130 C 0.57507 0.77624 0.58888
 C1131 C 0.56655 0.75796 0.58008
 C1132 C 0.55083 0.75824 0.56213
 C1133 C 0.54340 0.77685 0.55270
 C1134 C 0.55193 0.79517 0.56185
 C1135 C 0.59171 0.77575 0.60674
 C1136 C 0.60581 0.77488 0.62142
 C1137 C 0.62248 0.77333 0.63828
 C1138 C 0.63686 0.77156 0.65240
 C1139 C 0.65417 0.76889 0.66887
 C1140 C 0.65687 0.75035 0.68162
 C1141 C 0.67414 0.74729 0.69666
 C1142 C 0.68893 0.76272 0.69903
 C1143 C 0.68602 0.78141 0.68656
 C1144 C 0.66871 0.78447 0.67150
 H1145 H 0.57421 0.80909 0.58648
 H1146 H 0.57217 0.74347 0.58693
 H1147 H 0.54460 0.74387 0.55550
 H1148 H 0.54657 0.80975 0.55498
 H1149 H 0.64574 0.73819 0.67968
 H1150 H 0.67615 0.73281 0.70623
 H1151 H 0.69730 0.79345 0.68819
 H1152 H 0.66680 0.79885 0.66167
   
