data_POSCAR
  _audit_creation_date              2014-09-24
  _audit_creation_method            'ToBaCCo'
  _symmetry_space_group_name_H-M    'P1'
  _symmetry_Int_Tables_number       1
  _symmetry_cell_setting            triclinic
  loop_
  _symmetry_equiv_pos_as_xyz
 x,y,z
_cell_length_a 41.9205
_cell_length_b 40.0557
_cell_length_c 39.8120
_cell_angle_alpha 88.677800
_cell_angle_beta 89.168600
_cell_angle_gamma 88.488100
loop_
  _atom_site_label
  _atom_site_type_symbol
  _atom_site_fract_x
  _atom_site_fract_y
  _atom_site_fract_z
N1 N 0.21284 1.20708 0.20686
 N2 N 0.78748 0.78554 0.21355
 N3 N 0.80468 1.19594 -0.18622
 N4 N 0.20668 0.80913 -0.20063
 C5 C 0.53047 1.06032 -0.02222
 H6 H 0.51644 1.07096 -0.00196
 C7 C 0.55147 1.08040 -0.04072
 H8 H 0.55307 1.10658 -0.03493
 C9 C 0.54674 1.01305 -0.05352
 H10 H 0.54522 0.98657 -0.05781
 C11 C 0.56766 1.03225 -0.07288
 H12 H 0.58232 1.02037 -0.09204
 N13 N 0.52843 1.02731 -0.02901
 C14 C 0.47437 1.01291 0.06057
 H15 H 0.48934 0.99263 0.07019
 C16 C 0.45230 1.02863 0.08199
 H17 H 0.45094 1.02077 0.10817
 C18 C 0.45653 1.04664 0.01451
 H19 H 0.45778 1.05283 -0.01207
 C20 C 0.43440 1.06328 0.03511
 H21 H 0.41864 1.08233 0.02424
 Zn22 Zn 0.50269 0.99826 -0.00290
 N23 N 0.47608 1.02212 0.02749
 C24 C 0.54985 0.98196 0.04386
 N25 N 0.53097 0.96866 0.02040
 C26 C 0.53401 0.93591 0.01228
 C27 C 0.55670 0.91510 0.02821
 C28 C 0.57245 0.96195 0.06077
 C29 C 0.47212 0.98216 -0.06378
 C30 C 0.45013 0.96555 -0.08298
 C31 C 0.43502 0.93351 -0.03339
 C32 C 0.45712 0.95086 -0.01513
 N33 N 0.47527 0.97448 -0.03051
 H34 H 0.54746 1.00827 0.04923
 H35 H 0.51944 0.92605 -0.00714
 H36 H 0.55908 0.88914 0.02133
 H37 H 0.58748 0.97298 0.07919
 H38 H 0.48598 1.00179 -0.07533
 H39 H 0.44742 0.97260 -0.10922
 H40 H 0.42115 0.91449 -0.02067
 H41 H 0.45977 0.94562 0.01148
 C42 C 0.43186 1.05403 0.06924
 C43 C 0.57036 1.06633 -0.06642
 C44 C 0.43107 0.94096 -0.06776
 C45 C 0.57623 0.92814 0.05279
 C46 C -0.01243 0.53075 1.05680
 H47 H 0.00748 0.51552 1.06575
 C48 C -0.02822 0.55266 1.07864
 H49 H -0.02074 0.55369 1.10451
 C50 C -0.04543 0.54938 1.01191
 H51 H -0.05142 0.54850 0.98561
 C52 C -0.06215 0.57125 1.03297
 H53 H -0.08106 0.58720 1.02275
 N54 N -0.02130 0.52948 1.02412
 C55 C 0.06231 0.47161 1.00543
 H56 H 0.07119 0.48767 0.98542
 C57 C 0.08294 0.44811 1.02078
 H58 H 0.10777 0.44673 1.01292
 C59 C 0.01901 0.45280 1.03914
 H60 H -0.00613 0.45439 1.04562
 C61 C 0.03884 0.42925 1.05540
 H62 H 0.02881 0.41268 1.07442
 Zn63 Zn 0.00176 0.50307 0.99287
 N64 N 0.03103 0.47363 1.01495
 C65 C 0.04588 0.55191 0.97811
 N66 N 0.02329 0.53325 0.96390
 C67 C 0.01501 0.53818 0.93120
 C68 C 0.02990 0.56266 0.91139
 C69 C 0.06166 0.57624 0.95914
 C70 C -0.05682 0.47237 0.97874
 C71 C -0.07597 0.44978 0.96269
 C72 C -0.03121 0.43532 0.92649
 C73 C -0.01287 0.45796 0.94341
 N74 N -0.02588 0.47602 0.96889
 H75 H 0.05140 0.54804 1.00440
 H76 H -0.00369 0.52377 0.92068
 H77 H 0.02296 0.56654 0.88547
 H78 H 0.07936 0.59110 0.97097
 H79 H -0.06641 0.48604 0.99984
 H80 H -0.10022 0.44649 0.97162
 H81 H -0.02039 0.42146 0.90607
 H82 H 0.01198 0.46089 0.93652
 C83 C 0.07121 0.42661 1.04613
 C84 C -0.05338 0.57327 1.06671
 C85 C -0.06314 0.43064 0.93634
 C86 C 0.05355 0.58201 0.92540
 C87 C 1.03352 -0.01314 0.54730
 H88 H 1.02935 0.01334 0.55074
 C89 C 1.05312 -0.03132 0.56947
 H90 H 1.06325 -0.01843 0.59021
 C91 C 1.02321 -0.06194 0.51729
 H92 H 1.01109 -0.07398 0.49735
 C93 C 1.04339 -0.08095 0.53832
 H94 H 1.04704 -0.10724 0.53347
 N95 N 1.01876 -0.02862 0.52203
 C96 C 0.99760 0.04392 0.44182
 H97 H 0.97179 0.04474 0.44292
 C98 C 1.01366 0.06215 0.41689
 H99 H 0.99992 0.07761 0.39942
 C100 C 1.04659 0.02253 0.46339
 H101 H 1.05926 0.00657 0.48123
 C102 C 1.06363 0.04004 0.43856
 H103 H 1.08937 0.03710 0.43751
 Zn104 Zn 0.99062 -0.00151 0.49559
 N105 N 1.01417 0.02476 0.46452
 C106 C 0.96354 0.05940 0.52078
 N107 N 0.96650 0.02574 0.52547
 C108 C 0.95361 0.01026 0.55300
 C109 C 0.93748 0.02878 0.57752
 C110 C 0.94692 0.07882 0.54428
 C111 C 0.97610 -0.04720 0.44609
 C112 C 0.95656 -0.06455 0.42482
 C113 C 0.91042 -0.04007 0.45291
 C114 C 0.93085 -0.02374 0.47414
 N115 N 0.96305 -0.02746 0.47029
 H116 H 0.97422 0.07139 0.49899
 H117 H 0.95666 -0.01651 0.55633
 H118 H 0.92871 0.01586 0.59981
 H119 H 0.94442 0.10547 0.53959
 H120 H 1.00175 -0.04879 0.44276
 H121 H 0.96725 -0.07979 0.40533
 H122 H 0.88484 -0.03643 0.45575
 H123 H 0.92095 -0.00731 0.49298
 C124 C 1.04716 0.06010 0.41471
 C125 C 1.05843 -0.06581 0.56523
 C126 C 0.92332 -0.06066 0.42786
 C127 C 0.93395 0.06366 0.57346
 C128 C 0.16552 0.28732 1.19645
 C129 C 0.16400 0.29148 1.16106
 C130 C 0.18087 0.26777 1.14117
 C131 C 0.19709 0.24034 1.15628
 C132 C 0.19762 0.23622 1.19131
 C133 C 0.18200 0.26015 1.21114
 C134 C 0.18121 0.27126 1.10628
 C135 C 0.16512 0.29779 1.09042
 C136 C 0.14736 0.32173 1.10891
 C137 C 0.14628 0.31815 1.14480
 C138 C 0.12681 0.34076 1.16316
 C139 C 0.10898 0.36593 1.14718
 C140 C 0.11018 0.37010 1.11236
 C141 C 0.12990 0.34862 1.09268
 C142 C 0.13115 0.35500 1.05752
 C143 C 0.11264 0.38066 1.04268
 C144 C 0.09226 0.40078 1.06220
 C145 C 0.09144 0.39558 1.09709
 H146 H 0.15448 0.30466 1.21359
 H147 H 0.20888 0.22176 1.14071
 H148 H 0.18246 0.25767 1.23828
 H149 H 0.19408 0.25322 1.09096
 H150 H 0.16641 0.29824 1.06339
 H151 H 0.12406 0.33920 1.19006
 H152 H 0.09398 0.38231 1.16233
 H153 H 0.14626 0.34080 1.04070
 H154 H 0.11374 0.38428 1.01564
 H155 H 0.07617 0.41154 1.11243
 C156 C -0.20015 0.70487 1.16834
 C157 C -0.16655 0.70295 1.16390
 C158 C -0.14844 0.72829 1.17820
 C159 C -0.16363 0.75521 1.19442
 C160 C -0.19693 0.75714 1.19781
 C161 C -0.21494 0.73149 1.18507
 C162 C -0.11523 0.72689 1.17603
 C163 C -0.09936 0.70081 1.15999
 C164 C -0.11618 0.67532 1.14462
 C165 C -0.15035 0.67690 1.14580
 C166 C -0.16717 0.65306 1.12797
 C167 C -0.15128 0.62858 1.10957
 C168 C -0.11806 0.62621 1.10885
 C169 C -0.09997 0.64890 1.12710
 C170 C -0.06634 0.64417 1.12691
 C171 C -0.05147 0.61911 1.10805
 C172 C -0.06946 0.59800 1.08872
 C173 C -0.10278 0.60140 1.08959
 H174 H -0.21571 0.68603 1.15963
 H175 H -0.14950 0.77502 1.20413
 H176 H -0.24067 0.73218 1.18798
 H177 H -0.10129 0.74622 1.18692
 H178 H -0.07373 0.70201 1.15913
 H179 H -0.19282 0.65329 1.12674
 H180 H -0.16522 0.61126 1.09572
 H181 H -0.05079 0.65920 1.14123
 H182 H -0.02567 0.61679 1.10789
 H183 H -0.11685 0.58463 1.07518
 C184 C -0.12544 0.24240 0.84116
 C185 C -0.13974 0.27218 0.85349
 C186 C -0.17334 0.27614 0.85106
 C187 C -0.19165 0.25075 0.83795
 C188 C -0.17719 0.22105 0.82622
 C189 C -0.14379 0.21749 0.82788
 C190 C -0.18860 0.30544 0.86171
 C191 C -0.17132 0.33117 0.87464
 C192 C -0.13785 0.32844 0.87800
 C193 C -0.12190 0.29812 0.86796
 C194 C -0.08875 0.29449 0.87333
 C195 C -0.07167 0.31957 0.88762
 C196 C -0.08666 0.34954 0.89671
 C197 C -0.11985 0.35472 0.89167
 C198 C -0.13350 0.38611 0.90052
 C199 C -0.11509 0.41066 0.91455
 C200 C -0.08249 0.40497 0.92027
 C201 C -0.06848 0.37429 0.91109
 H202 H -0.10007 0.23750 0.84114
 H203 H -0.21731 0.25435 0.83617
 H204 H -0.13178 0.19480 0.81958
 H205 H -0.21430 0.30860 0.85995
 H206 H -0.18513 0.35273 0.88245
 H207 H -0.07520 0.27215 0.86741
 H208 H -0.04631 0.31545 0.89153
 H209 H -0.15824 0.39275 0.89660
 H210 H -0.12646 0.43438 0.92068
 H211 H -0.04336 0.36930 0.91572
 C212 C 0.19663 0.72453 0.83981
 C213 C 0.16301 0.72201 0.84214
 C214 C 0.14414 0.74871 0.82833
 C215 C 0.15853 0.77721 0.81442
 C216 C 0.19181 0.77940 0.81277
 C217 C 0.21063 0.75275 0.82539
 C218 C 0.11098 0.74699 0.82866
 C219 C 0.09591 0.71926 0.84229
 C220 C 0.11346 0.69227 0.85700
 C221 C 0.14753 0.69407 0.85769
 C222 C 0.16492 0.66836 0.87475
 C223 C 0.14970 0.64189 0.89062
 C224 C 0.11665 0.63941 0.88956
 C225 C 0.09804 0.66402 0.87201
 C226 C 0.06471 0.65926 0.87040
 C227 C 0.05053 0.63218 0.88691
 C228 C 0.06896 0.60902 0.90559
 C229 C 0.10207 0.61253 0.90638
 H230 H 0.21287 0.70502 0.84845
 H231 H 0.14381 0.79795 0.80504
 H232 H 0.23640 0.75386 0.82407
 H233 H 0.09645 0.76733 0.81814
 H234 H 0.07023 0.72026 0.84180
 H235 H 0.19045 0.66843 0.87726
 H236 H 0.16403 0.62311 0.90395
 H237 H 0.04888 0.67586 0.85648
 H238 H 0.02489 0.62985 0.88581
 H239 H 0.11653 0.59425 0.92026
 C240 C 1.19588 0.16644 0.29075
 C241 C 1.16362 0.15723 0.28773
 C242 C 1.14852 0.16427 0.25660
 C243 C 1.16476 0.18090 0.23040
 C244 C 1.19640 0.19017 0.23411
 C245 C 1.21193 0.18255 0.26424
 C246 C 1.11729 0.15465 0.25163
 C247 C 1.10064 0.13756 0.27666
 C248 C 1.11443 0.12990 0.30815
 C249 C 1.14599 0.14099 0.31422
 C250 C 1.15858 0.13606 0.34672
 C251 C 1.14128 0.12029 0.37223
 C252 C 1.11111 0.10801 0.36628
 C253 C 1.09744 0.11210 0.33403
 C254 C 1.06745 0.09772 0.32894
 C255 C 1.05150 0.08096 0.35498
 C256 C 1.06460 0.07795 0.38714
 C257 C 1.09457 0.09154 0.39249
 H258 H 1.20959 0.16106 0.31298
 H259 H 1.15299 0.18634 0.20675
 H260 H 1.23655 0.18932 0.26725
 H261 H 1.10560 0.16018 0.22795
 H262 H 1.07654 0.13145 0.27075
 H263 H 1.18158 0.14489 0.35358
 H264 H 1.15183 0.11737 0.39686
 H265 H 1.05595 0.09819 0.30492
 H266 H 1.02896 0.06975 0.34962
 H267 H 1.10503 0.08955 0.41721
 C268 C 1.18449 -0.12211 0.73732
 C269 C 1.16803 -0.13934 0.71257
 C270 C 1.16494 -0.17430 0.71710
 C271 C 1.17917 -0.19124 0.74453
 C272 C 1.19470 -0.17372 0.76942
 C273 C 1.19719 -0.13897 0.76533
 C274 C 1.14697 -0.19208 0.69470
 C275 C 1.13049 -0.17562 0.66891
 C276 C 1.13250 -0.14076 0.66367
 C277 C 1.15341 -0.12282 0.68432
 C278 C 1.15924 -0.08910 0.67586
 C279 C 1.14368 -0.07289 0.64933
 C280 C 1.12081 -0.08918 0.63111
 C281 C 1.11456 -0.12322 0.63826
 C282 C 1.08968 -0.13789 0.62060
 C283 C 1.07186 -0.11942 0.59695
 C284 C 1.07855 -0.08590 0.58937
 C285 C 1.10368 -0.07129 0.60624
 H286 H 1.18659 -0.09534 0.73663
 H287 H 1.17729 -0.21812 0.74705
 H288 H 1.20837 -0.12449 0.78429
 H289 H 1.14478 -0.21889 0.69778
 H290 H 1.11695 -0.19105 0.65282
 H291 H 1.17645 -0.07478 0.68882
 H292 H 1.14892 -0.04698 0.64371
 H293 H 1.08237 -0.16313 0.62568
 H294 H 1.05208 -0.13138 0.58539
 H295 H 1.10976 -0.04565 0.60048
 C296 C 0.83179 -0.20663 0.29421
 C297 C 0.83354 -0.17157 0.29729
 C298 C 0.81717 -0.15105 0.27333
 C299 C 0.80200 -0.16521 0.24608
 C300 C 0.80158 -0.19996 0.24266
 C301 C 0.81595 -0.22043 0.26744
 C302 C 0.81635 -0.11645 0.27637
 C303 C 0.83140 -0.10157 0.30277
 C304 C 0.84894 -0.12075 0.32669
 C305 C 0.85095 -0.15624 0.32321
 C306 C 0.87130 -0.17505 0.34483
 C307 C 0.88910 -0.15979 0.36901
 C308 C 0.88656 -0.12541 0.37345
 C309 C 0.86562 -0.10550 0.35317
 C310 C 0.86233 -0.07107 0.36029
 C311 C 0.88040 -0.05693 0.38519
 C312 C 0.90242 -0.07643 0.40360
 C313 C 0.90515 -0.11073 0.39790
 H314 H 0.84198 -0.22407 0.31232
 H315 H 0.79092 -0.14908 0.22712
 H316 H 0.81521 -0.24735 0.26585
 H317 H 0.80383 -0.10063 0.25814
 H318 H 0.82995 -0.07468 0.30292
 H319 H 0.87506 -0.20163 0.34279
 H320 H 0.90502 -0.17516 0.38447
 H321 H 0.84574 -0.05447 0.34738
 H322 H 0.87774 -0.03038 0.38952
 H323 H 0.92178 -0.12599 0.41264
 C324 C 0.82152 0.12632 0.75555
 C325 C 0.83949 0.14203 0.72965
 C326 C 0.84600 0.17630 0.73300
 C327 C 0.83353 0.19422 0.76032
 C328 C 0.81558 0.17845 0.78607
 C329 C 0.81013 0.14407 0.78319
 C330 C 0.86524 0.19254 0.70926
 C331 C 0.87929 0.17519 0.68287
 C332 C 0.87372 0.14097 0.67852
 C333 C 0.85200 0.12468 0.70114
 C334 C 0.84311 0.09183 0.69417
 C335 C 0.85607 0.07493 0.66690
 C336 C 0.87916 0.08956 0.64619
 C337 C 0.88871 0.12259 0.65197
 C338 C 0.91359 0.13549 0.63151
 C339 C 0.92795 0.11647 0.60624
 C340 C 0.91784 0.08412 0.59994
 C341 C 0.89306 0.07107 0.61996
 H342 H 0.81696 0.09996 0.75591
 H343 H 0.83788 0.22072 0.76154
 H344 H 0.79782 0.13040 0.80302
 H345 H 0.87007 0.21885 0.71148
 H346 H 0.89378 0.18959 0.66562
 H347 H 0.82540 0.07878 0.70888
 H348 H 0.84840 0.04979 0.66244
 H349 H 0.92339 0.15970 0.63526
 H350 H 0.94771 0.12703 0.59219
 H351 H 0.88457 0.04630 0.61536
 C352 C 0.29303 1.19961 0.16391
 C353 C 0.29784 1.16455 0.16194
 C354 C 0.27479 1.14396 0.17775
 C355 C 0.24728 1.15805 0.19282
 C356 C 0.24219 1.19278 0.19319
 C357 C 0.26573 1.21333 0.17934
 C358 C 0.27897 1.10935 0.17804
 C359 C 0.30545 1.09443 0.16272
 C360 C 0.32866 1.11363 0.14567
 C361 C 0.32447 1.14925 0.14471
 C362 C 0.34639 1.16829 0.12560
 C363 C 0.37136 1.15317 0.10782
 C364 C 0.37603 1.11859 0.10890
 C365 C 0.35533 1.09832 0.12856
 C366 C 0.36217 1.06349 0.13001
 C367 C 0.38741 1.04946 0.11143
 C368 C 0.40672 1.06949 0.09081
 C369 C 0.40115 1.10412 0.09002
 H370 H 0.30997 1.21718 0.15404
 H371 H 0.22936 1.14184 0.20363
 H372 H 0.26281 1.24024 0.18019
 H373 H 0.26145 1.09350 0.19019
 H374 H 0.30642 1.06755 0.16378
 H375 H 0.34434 1.19506 0.12289
 H376 H 0.38716 1.16880 0.09293
 H377 H 0.34861 1.04631 0.14532
 H378 H 0.39133 1.02261 0.11255
 H379 H 0.41644 1.11984 0.07460
 C380 C 0.74605 1.17866 -0.11782
 C381 C 0.72020 1.16575 -0.13541
 C382 C 0.72293 1.16450 -0.17088
 C383 C 0.75038 1.17593 -0.18772
 C384 C 0.77655 1.18748 -0.16990
 C385 C 0.77353 1.18915 -0.13470
 C386 C 0.69856 1.15117 -0.18943
 C387 C 0.67222 1.13729 -0.17349
 C388 C 0.66886 1.13681 -0.13814
 C389 C 0.69233 1.15296 -0.11895
 C390 C 0.68723 1.15560 -0.08396
 C391 C 0.66123 1.14116 -0.06793
 C392 C 0.63956 1.12303 -0.08589
 C393 C 0.64293 1.12059 -0.12127
 C394 C 0.62085 1.10087 -0.13807
 C395 C 0.59699 1.08401 -0.12032
 C396 C 0.59399 1.08647 -0.08541
 C397 C 0.61499 1.10656 -0.06844
 H398 H 0.74646 1.17974 -0.09083
 H399 H 0.75155 1.17541 -0.21493
 H400 H 0.79318 1.19724 -0.11978
 H401 H 0.70026 1.15063 -0.21662
 H402 H 0.65463 1.12738 -0.18972
 H403 H 0.70281 1.16904 -0.06814
 H404 H 0.65851 1.14355 -0.04096
 H405 H 0.62200 1.09695 -0.16473
 H406 H 0.58095 1.06863 -0.13395
 H407 H 0.61311 1.10815 -0.04132
 C408 C 0.25079 0.84382 -0.12875
 C409 C 0.28002 0.85339 -0.14400
 C410 C 0.28473 0.84663 -0.17858
 C411 C 0.26066 0.83193 -0.19702
 C412 C 0.23174 0.82341 -0.18155
 C413 C 0.22718 0.82914 -0.14730
 C414 C 0.31335 0.85465 -0.19466
 C415 C 0.33764 0.86925 -0.17728
 C416 C 0.33414 0.87689 -0.14293
 C417 C 0.30463 0.86932 -0.12617
 C418 C 0.30050 0.87844 -0.09229
 C419 C 0.32430 0.89406 -0.07522
 C420 C 0.35335 0.90099 -0.09092
 C421 C 0.35895 0.89231 -0.12487
 C422 C 0.38925 0.89946 -0.13917
 C423 C 0.41249 0.91499 -0.12066
 C424 C 0.40653 0.92394 -0.08730
 C425 C 0.37682 0.91677 -0.07267
 H426 H 0.24534 0.84709 -0.10251
 H427 H 0.26428 0.82707 -0.22350
 H428 H 0.20495 0.82255 -0.13496
 H429 H 0.31706 0.84955 -0.22108
 H430 H 0.35879 0.87474 -0.19180
 H431 H 0.27881 0.87438 -0.07817
 H432 H 0.31987 0.90076 -0.04930
 H433 H 0.39600 0.89311 -0.16447
 H434 H 0.43544 0.91964 -0.13246
 H435 H 0.37166 0.92397 -0.04703
 C436 C 0.70824 0.83040 0.20334
 C437 C 0.70614 0.83456 0.16798
 C438 C 0.73099 0.82021 0.14805
 C439 C 0.75752 0.80428 0.16314
 C440 C 0.75962 0.80120 0.19818
 C441 C 0.73448 0.81390 0.21803
 C442 C 0.72946 0.82202 0.11312
 C443 C 0.70369 0.83767 0.09728
 C444 C 0.67861 0.85302 0.11584
 C445 C 0.68035 0.85233 0.15175
 C446 C 0.65683 0.87031 0.17017
 C447 C 0.63244 0.88829 0.15417
 C448 C 0.62990 0.88839 0.11930
 C449 C 0.65238 0.87002 0.09963
 C450 C 0.64758 0.86948 0.06448
 C451 C 0.62248 0.88770 0.04959
 C452 C 0.60141 0.90710 0.06905
 C453 C 0.60505 0.90705 0.10395
 H454 H 0.68981 0.83912 0.22037
 H455 H 0.77684 0.79452 0.14754
 H456 H 0.73527 0.81113 0.24513
 H457 H 0.74842 0.81111 0.09778
 H458 H 0.70471 0.83826 0.07023
 H459 H 0.65718 0.87197 0.19712
 H460 H 0.61530 0.90225 0.16935
 H461 H 0.66256 0.85501 0.04777
 H462 H 0.61996 0.88721 0.02256
 H463 H 0.58836 0.92153 0.11920
   
