data_POSCAR
  _audit_creation_date              2014-09-24
  _audit_creation_method            'ToBaCCo'
  _symmetry_space_group_name_H-M    'P1'
  _symmetry_Int_Tables_number       1
  _symmetry_cell_setting            triclinic
  loop_
  _symmetry_equiv_pos_as_xyz
 x,y,z
_cell_length_a 52.1841
_cell_length_b 51.5000
_cell_length_c 51.2751
_cell_angle_alpha 92.425500
_cell_angle_beta 92.399400
_cell_angle_gamma 92.004000
loop_
  _atom_site_label
  _atom_site_type_symbol
  _atom_site_fract_x
  _atom_site_fract_y
  _atom_site_fract_z
N1 N 0.18937 1.24205 0.17429
 N2 N 0.17219 1.24141 0.19232
 C3 C 0.15688 1.26176 0.18986
 C4 C 0.16505 1.27571 0.16920
 C5 C 0.18557 1.26274 0.15960
 H6 H 0.14064 1.26567 0.20169
 H7 H 0.19645 1.26754 0.14284
 Cu8 Cu 0.17028 1.21312 0.21612
 Cu9 Cu 0.21402 1.21489 0.17012
 Cu10 Cu 0.22148 1.17557 0.22301
 N11 N 0.17463 1.19107 0.24562
 N12 N 0.19488 1.17678 0.24853
 C13 C 0.19265 1.16292 0.27007
 C14 C 0.16988 1.16908 0.28111
 C15 C 0.15881 1.18688 0.26523
 H16 H 0.20612 1.14886 0.27669
 H17 H 0.14045 1.19566 0.26742
 N18 N 0.24601 1.17699 0.19483
 N19 N 0.24286 1.19163 0.17447
 C20 C 0.26174 1.18722 0.15790
 C21 C 0.27735 1.16897 0.16838
 C22 C 0.26694 1.16277 0.19167
 H23 H 0.26361 1.19607 0.13928
 H24 H 0.27361 1.14832 0.20480
 H25 H 0.19880 1.18494 0.19166
 H26 H 0.21618 1.21275 0.20993
 N27 N 0.81456 0.76509 0.15377
 N28 N 0.83099 0.76453 0.17391
 C29 C 0.84757 0.74552 0.16948
 C30 C 0.84104 0.73369 0.14539
 C31 C 0.82011 0.74646 0.13586
 H32 H 0.86331 0.74074 0.18259
 H33 H 0.80986 0.74265 0.11724
 Cu34 Cu 0.82928 0.78910 0.20361
 Cu35 Cu 0.78752 0.79020 0.15206
 Cu36 Cu 0.78406 0.83385 0.20517
 N37 N 0.82716 0.81351 0.23340
 N38 N 0.80934 0.83097 0.23387
 C39 C 0.81258 0.84595 0.25602
 C40 C 0.83344 0.83726 0.27004
 C41 C 0.84238 0.81679 0.25527
 H42 H 0.80109 0.86233 0.26117
 H43 H 0.85906 0.80565 0.25980
 N44 N 0.76024 0.83364 0.17429
 N45 N 0.76155 0.81706 0.15405
 C46 C 0.74301 0.82210 0.13606
 C47 C 0.72956 0.84273 0.14555
 C48 C 0.74084 0.84966 0.16970
 H49 H 0.73964 0.81173 0.11739
 H50 H 0.73542 0.86535 0.18280
 H51 H 0.80622 0.81875 0.17604
 H52 H 0.78426 0.79541 0.19189
 N53 N 0.80768 1.23452 -0.17240
 N54 N 0.82549 1.23407 -0.18982
 C55 C 0.84045 1.25593 -0.18653
 C56 C 0.83136 1.27071 -0.16612
 C57 C 0.81067 1.25667 -0.15748
 H58 H 0.85707 1.26046 -0.19762
 H59 H 0.79915 1.26184 -0.14112
 Cu60 Cu 0.82814 1.20432 -0.21411
 Cu61 Cu 0.78286 1.20579 -0.16943
 Cu62 Cu 0.78734 1.15249 -0.21248
 N63 N 0.83043 1.17437 -0.23820
 N64 N 0.81442 1.15412 -0.23745
 C65 C 0.82039 1.13608 -0.25579
 C66 C 0.84116 1.14568 -0.26856
 C67 C 0.84717 1.16991 -0.25706
 H68 H 0.81052 1.11736 -0.25941
 H69 H 0.86264 1.18312 -0.26191
 N70 N 0.76124 1.15454 -0.18582
 N71 N 0.75952 1.17488 -0.16947
 C72 C 0.74005 1.17039 -0.15362
 C73 C 0.72915 1.14619 -0.16040
 C74 C 0.74290 1.13658 -0.18078
 H75 H 0.73428 1.18361 -0.13818
 H76 H 0.73982 1.11787 -0.19103
 H77 H 0.80568 1.17700 -0.18406
 H78 H 0.78332 1.19214 -0.20790
 N79 N 0.17637 0.75894 -0.16851
 N80 N 0.15661 0.76049 -0.18511
 C81 C 0.13852 0.74239 -0.17974
 C82 C 0.14758 0.72897 -0.15877
 C83 C 0.17156 0.73985 -0.15206
 H84 H 0.12015 0.73923 -0.19015
 H85 H 0.18446 0.73435 -0.13634
 Cu86 Cu 0.15646 0.78614 -0.21192
 Cu87 Cu 0.20672 0.78192 -0.16921
 Cu88 Cu 0.20657 0.82851 -0.21604
 N89 N 0.15644 0.81279 -0.23774
 N90 N 0.17614 0.82926 -0.23924
 C91 C 0.17122 0.84562 -0.25848
 C92 C 0.14723 0.83896 -0.26947
 C93 C 0.13827 0.81813 -0.25601
 H94 H 0.18405 0.86122 -0.26397
 H95 H 0.11993 0.80779 -0.25923
 N96 N 0.23558 0.82467 -0.19082
 N97 N 0.23564 0.80690 -0.17298
 C98 C 0.25760 0.80978 -0.15819
 C99 C 0.27189 0.83020 -0.16728
 C100 C 0.25751 0.83931 -0.18785
 H101 H 0.26259 0.79835 -0.14163
 H102 H 0.26241 0.85579 -0.19930
 H103 H 0.18805 0.81265 -0.18526
 H104 H 0.20325 0.78950 -0.20844
 C105 C 0.47921 1.02318 0.01961
 C106 C 0.49687 1.00585 0.03535
 C107 C 0.51125 0.99025 0.02002
 C108 C 0.50668 0.99328 -0.00949
 C109 C 0.49707 1.03826 0.00212
 C110 C 0.51145 1.02252 -0.01305
 C111 C 0.46321 1.00447 0.00095
 C112 C 0.47756 0.98886 -0.01424
 H113 H 0.49870 1.00669 0.05656
 H114 H 0.51832 0.98048 -0.02194
 H115 H 0.49901 1.05935 0.00255
 H116 H 0.44234 1.00361 -0.00016
 C117 C 0.02188 0.48026 1.02441
 C118 C 0.03727 0.49761 1.00665
 C119 C 0.02219 0.51173 0.99060
 C120 C -0.00679 0.50722 0.99362
 C121 C 0.00452 0.49879 1.03908
 C122 C -0.01042 0.51290 1.02288
 C123 C 0.00371 0.46353 1.00589
 C124 C -0.01125 0.47763 0.98982
 H125 H 0.05810 0.49950 1.00758
 H126 H -0.01906 0.51864 0.98044
 H127 H 0.00490 0.50140 1.06023
 H128 H 0.00276 0.44239 1.00551
 C129 C 1.02451 0.02359 0.48219
 C130 C 1.00712 0.03848 0.50051
 C131 C 0.99168 0.02258 0.51421
 C132 C 0.99489 -0.00662 0.50835
 C133 C 1.03932 0.00540 0.49979
 C134 C 1.02374 -0.01035 0.51349
 C135 C 1.00631 0.00569 0.46484
 C136 C 0.99084 -0.01007 0.47853
 H137 H 1.00785 0.05953 0.50335
 H138 H 0.98221 -0.01955 0.51943
 H139 H 1.06012 0.00581 0.50214
 H140 H 1.00572 0.00547 0.44362
 C141 C 0.15358 0.29640 1.15875
 C142 C 0.14311 0.31445 1.14923
 C143 C 0.13023 0.33558 1.13750
 C144 C 0.14429 0.35738 1.12980
 C145 C 0.13175 0.37745 1.11758
 C146 C 0.10496 0.37595 1.11293
 C147 C 0.09099 0.35405 1.12099
 C148 C 0.10356 0.33402 1.13317
 C149 C 0.09163 0.39667 1.09903
 C150 C 0.06752 0.40478 1.10679
 C151 C 0.05429 0.42313 1.09270
 C152 C 0.06497 0.43366 1.07073
 C153 C 0.08916 0.42613 1.06316
 C154 C 0.10245 0.40779 1.07723
 C155 C 0.05042 0.45092 1.05506
 C156 C 0.03778 0.46462 1.04149
 H157 H 0.16495 0.35877 1.13306
 H158 H 0.14299 0.39417 1.11185
 H159 H 0.07041 0.35211 1.11732
 H160 H 0.09251 0.31717 1.13893
 H161 H 0.05884 0.39683 1.12368
 H162 H 0.03553 0.42878 1.09869
 H163 H 0.09752 0.43401 1.04605
 H164 H 0.12081 0.40171 1.07055
 C165 C -0.14609 0.71283 1.13259
 C166 C -0.13510 0.69540 1.12194
 C167 C -0.12173 0.67469 1.10936
 C168 C -0.09505 0.67672 1.10764
 C169 C -0.08193 0.65652 1.09575
 C170 C -0.09535 0.63396 1.08541
 C171 C -0.12220 0.63214 1.08715
 C172 C -0.13528 0.65239 1.09904
 C173 C -0.08132 0.61233 1.07319
 C174 C -0.08809 0.58630 1.07789
 C175 C -0.07433 0.56598 1.06705
 C176 C -0.05370 0.57139 1.05132
 C177 C -0.04699 0.59719 1.04628
 C178 C -0.06070 0.61753 1.05712
 C179 C -0.03891 0.55057 1.04097
 C180 C -0.02616 0.53329 1.03259
 H181 H -0.08435 0.69385 1.11564
 H182 H -0.06124 0.65835 1.09506
 H183 H -0.13310 0.61516 1.07912
 H184 H -0.15595 0.65065 1.10022
 H185 H -0.10364 0.58167 1.09043
 H186 H -0.07960 0.54609 1.07118
 H187 H -0.03106 0.60159 1.03411
 H188 H -0.05524 0.63733 1.05284
 C189 C -0.15724 0.29444 0.84554
 C190 C -0.14737 0.31403 0.85575
 C191 C -0.13514 0.33693 0.86849
 C192 C -0.11989 0.35378 0.85443
 C193 C -0.10663 0.37503 0.86726
 C194 C -0.10843 0.37966 0.89436
 C195 C -0.12428 0.36291 0.90819
 C196 C -0.13751 0.34170 0.89533
 C197 C -0.09273 0.40084 0.90851
 C198 C -0.10273 0.41533 0.92939
 C199 C -0.08706 0.43340 0.94436
 C200 C -0.06128 0.43730 0.93857
 C201 C -0.05141 0.42364 0.91729
 C202 C -0.06701 0.40557 0.90232
 C203 C -0.04429 0.45320 0.95593
 C204 C -0.02951 0.46514 0.97107
 H205 H -0.11792 0.35027 0.83364
 H206 H -0.09480 0.38772 0.85603
 H207 H -0.12575 0.36566 0.92912
 H208 H -0.14914 0.32870 0.90644
 H209 H -0.12252 0.41236 0.93444
 H210 H -0.09486 0.44375 0.96088
 H211 H -0.03140 0.42629 0.91283
 H212 H -0.05862 0.39449 0.88664
 C213 C 0.13473 0.70810 0.85376
 C214 C 0.12426 0.69057 0.86456
 C215 C 0.11213 0.66964 0.87778
 C216 C 0.12571 0.65751 0.89767
 C217 C 0.11405 0.63725 0.91068
 C218 C 0.08858 0.62883 0.90397
 C219 C 0.07508 0.64116 0.88393
 C220 C 0.08681 0.66142 0.87092
 C221 C 0.07618 0.60744 0.91800
 C222 C 0.05050 0.60888 0.92516
 C223 C 0.03913 0.58908 0.93908
 C224 C 0.05321 0.56757 0.94594
 C225 C 0.07865 0.56582 0.93864
 C226 C 0.09007 0.58559 0.92475
 C227 C 0.04189 0.54769 0.96116
 C228 C 0.03275 0.53119 0.97433
 H229 H 0.14529 0.66378 0.90322
 H230 H 0.12482 0.62844 0.92628
 H231 H 0.05556 0.63494 0.87813
 H232 H 0.07614 0.67066 0.85551
 H233 H 0.03941 0.62559 0.92053
 H234 H 0.01946 0.59069 0.94476
 H235 H 0.08973 0.54925 0.94384
 H236 H 0.10974 0.58374 0.91921
 C237 C 1.15930 0.15797 0.30189
 C238 C 1.14962 0.14786 0.32003
 C239 C 1.13766 0.13545 0.34125
 C240 C 1.14070 0.10891 0.34467
 C241 C 1.12811 0.09648 0.36446
 C242 C 1.11223 0.11045 0.38110
 C243 C 1.10960 0.13723 0.37774
 C244 C 1.12223 0.14962 0.35793
 C245 C 1.09775 0.09690 0.40116
 C246 C 1.07204 0.10269 0.40530
 C247 C 1.05791 0.08888 0.42306
 C248 C 1.06926 0.06917 0.43696
 C249 C 1.09496 0.06360 0.43338
 C250 C 1.10915 0.07737 0.41562
 C251 C 1.05409 0.05374 0.45373
 C252 C 1.04097 0.04038 0.46702
 H253 H 1.15249 0.09772 0.33176
 H254 H 1.13023 0.07578 0.36627
 H255 H 1.09775 0.14856 0.39042
 H256 H 1.11975 0.17018 0.35545
 H257 H 1.06261 0.11733 0.39422
 H258 H 1.03796 0.09321 0.42554
 H259 H 1.10392 0.04833 0.44401
 H260 H 1.12898 0.07268 0.41309
 C261 C 1.13494 -0.14927 0.71060
 C262 C 1.12430 -0.13861 0.69291
 C263 C 1.11195 -0.12559 0.67179
 C264 C 1.12679 -0.11368 0.65325
 C265 C 1.11495 -0.10060 0.63295
 C266 C 1.08805 -0.09924 0.63093
 C267 C 1.07329 -0.11138 0.64961
 C268 C 1.08518 -0.12448 0.66990
 C269 C 1.07556 -0.08482 0.60967
 C270 C 1.05479 -0.06892 0.61477
 C271 C 1.04366 -0.05462 0.59497
 C272 C 1.05307 -0.05606 0.56980
 C273 C 1.07350 -0.07205 0.56444
 C274 C 1.08468 -0.08636 0.58422
 C275 C 1.04235 -0.04045 0.54974
 C276 C 1.03370 -0.02697 0.53310
 H277 H 1.14753 -0.11432 0.65459
 H278 H 1.12687 -0.09113 0.61912
 H279 H 1.05254 -0.11092 0.64842
 H280 H 1.07351 -0.13367 0.68413
 H281 H 1.04756 -0.06706 0.63422
 H282 H 1.02794 -0.04218 0.59936
 H283 H 1.08094 -0.07331 0.54503
 H284 H 1.10041 -0.09867 0.57959
 C285 C 0.84447 -0.15169 0.29251
 C286 C 0.85449 -0.14154 0.31216
 C287 C 0.86687 -0.12889 0.33514
 C288 C 0.86484 -0.10207 0.33969
 C289 C 0.87810 -0.08936 0.36106
 C290 C 0.89366 -0.10331 0.37820
 C291 C 0.89516 -0.13037 0.37376
 C292 C 0.88186 -0.14305 0.35235
 C293 C 0.90934 -0.08939 0.39962
 C294 C 0.93493 -0.09600 0.40483
 C295 C 0.95051 -0.08134 0.42322
 C296 C 0.94075 -0.05996 0.43674
 C297 C 0.91508 -0.05372 0.43235
 C298 C 0.89944 -0.06836 0.41395
 C299 C 0.95773 -0.04304 0.45309
 C300 C 0.97253 -0.02830 0.46547
 H301 H 0.85340 -0.09089 0.32642
 H302 H 0.87687 -0.06847 0.36366
 H303 H 0.90676 -0.14168 0.38673
 H304 H 0.88356 -0.16382 0.34901
 H305 H 0.94325 -0.11181 0.39389
 H306 H 0.97043 -0.08617 0.42625
 H307 H 0.90735 -0.03711 0.44260
 H308 H 0.87974 -0.06299 0.41062
 C309 C 0.85369 0.13352 0.71196
 C310 C 0.86502 0.12288 0.69476
 C311 C 0.87886 0.11040 0.67432
 C312 C 0.86614 0.09283 0.65619
 C313 C 0.87964 0.08089 0.63624
 C314 C 0.90608 0.08637 0.63423
 C315 C 0.91868 0.10403 0.65260
 C316 C 0.90514 0.11595 0.67249
 C317 C 0.92049 0.07391 0.61298
 C318 C 0.94545 0.06533 0.61803
 C319 C 0.95930 0.05426 0.59791
 C320 C 0.94842 0.05160 0.57248
 C321 C 0.92351 0.05982 0.56729
 C322 C 0.90960 0.07088 0.58740
 C323 C 0.96313 0.04103 0.55170
 C324 C 0.97589 0.03247 0.53448
 H325 H 0.84580 0.08834 0.65747
 H326 H 0.86947 0.06717 0.62258
 H327 H 0.93892 0.10895 0.65135
 H328 H 0.91516 0.12958 0.68637
 H329 H 0.95422 0.06705 0.63757
 H330 H 0.97855 0.04793 0.60215
 H331 H 0.91495 0.05794 0.54765
 H332 H 0.89056 0.07757 0.58284
 C333 C 0.29826 1.15671 0.15606
 C334 C 0.31536 1.14607 0.14528
 C335 C 0.33520 1.13294 0.13189
 C336 C 0.32881 1.11086 0.11579
 C337 C 0.34780 1.09823 0.10228
 C338 C 0.37351 1.10753 0.10466
 C339 C 0.37982 1.12961 0.12109
 C340 C 0.36074 1.14226 0.13458
 C341 C 0.39351 1.09425 0.08988
 C342 C 0.41780 1.09016 0.10166
 C343 C 0.43623 1.07681 0.08786
 C344 C 0.43061 1.06753 0.06213
 C345 C 0.40665 1.07187 0.05016
 C346 C 0.38824 1.08514 0.06390
 C347 C 0.44885 1.05271 0.04808
 C348 C 0.46316 1.03972 0.03562
 H349 H 0.30912 1.10343 0.11363
 H350 H 0.34241 1.08104 0.09012
 H351 H 0.39939 1.13736 0.12312
 H352 H 0.36588 1.15938 0.14695
 H353 H 0.42233 1.09673 0.12172
 H354 H 0.45468 1.07344 0.09735
 H355 H 0.40211 1.06478 0.03024
 H356 H 0.36987 1.08833 0.05416
 C357 C 0.70808 1.13347 -0.14831
 C358 C 0.69044 1.12297 -0.13794
 C359 C 0.66942 1.11064 -0.12529
 C360 C 0.64917 1.12543 -0.11669
 C361 C 0.62902 1.11364 -0.10387
 C362 C 0.62887 1.08685 -0.09944
 C363 C 0.64924 1.07211 -0.10832
 C364 C 0.66938 1.08395 -0.12116
 C365 C 0.60778 1.07447 -0.08522
 C366 C 0.61311 1.05590 -0.06655
 C367 C 0.59336 1.04483 -0.05260
 C368 C 0.56803 1.05211 -0.05711
 C369 C 0.56247 1.07036 -0.07581
 C370 C 0.58219 1.08147 -0.08978
 C371 C 0.54788 1.04140 -0.04204
 C372 C 0.53117 1.03267 -0.02904
 H373 H 0.64908 1.14612 -0.11970
 H374 H 0.61382 1.12558 -0.09696
 H375 H 0.64952 1.05140 -0.10549
 H376 H 0.68494 1.07231 -0.12777
 H377 H 0.63263 1.05037 -0.06233
 H378 H 0.59789 1.03083 -0.03806
 H379 H 0.54292 1.07612 -0.07946
 H380 H 0.57742 1.09545 -0.10424
 C381 C 0.29562 0.84135 -0.15597
 C382 C 0.31522 0.85105 -0.14607
 C383 C 0.33815 0.86312 -0.13370
 C384 C 0.35507 0.87780 -0.14819
 C385 C 0.37638 0.89099 -0.13573
 C386 C 0.38100 0.88968 -0.10858
 C387 C 0.36417 0.87437 -0.09432
 C388 C 0.34290 0.86122 -0.10681
 C389 C 0.40222 0.90546 -0.09482
 C390 C 0.41630 0.89556 -0.07368
 C391 C 0.43429 0.91147 -0.05896
 C392 C 0.43852 0.93740 -0.06525
 C393 C 0.42533 0.94713 -0.08684
 C394 C 0.40733 0.93128 -0.10157
 C395 C 0.45411 0.95481 -0.04800
 C396 C 0.46568 0.97001 -0.03292
 H397 H 0.35156 0.87941 -0.16902
 H398 H 0.38912 0.90240 -0.14727
 H399 H 0.36691 0.87330 -0.07335
 H400 H 0.32984 0.85003 -0.09538
 H401 H 0.41303 0.87568 -0.06820
 H402 H 0.44428 0.90378 -0.04218
 H403 H 0.42823 0.96726 -0.09170
 H404 H 0.39659 0.93961 -0.11748
 C405 C 0.70854 0.85502 0.13267
 C406 C 0.69097 0.86556 0.12197
 C407 C 0.67010 0.87842 0.10934
 C408 C 0.64473 0.86970 0.11232
 C409 C 0.62445 0.88255 0.10047
 C410 C 0.62930 0.90431 0.08547
 C411 C 0.65489 0.91281 0.08248
 C412 C 0.67513 0.89995 0.09435
 C413 C 0.60779 0.91836 0.07334
 C414 C 0.60956 0.92778 0.04808
 C415 C 0.58959 0.94164 0.03698
 C416 C 0.56761 0.94626 0.05094
 C417 C 0.56556 0.93678 0.07597
 C418 C 0.58549 0.92290 0.08711
 C419 C 0.54749 0.96133 0.03988
 C420 C 0.53085 0.97431 0.03077
 H421 H 0.64062 0.85302 0.12385
 H422 H 0.60498 0.87535 0.10288
 H423 H 0.65925 0.92972 0.07138
 H424 H 0.69469 0.90693 0.09201
 H425 H 0.62632 0.92432 0.03685
 H426 H 0.59137 0.94889 0.01758
 H427 H 0.54868 0.94036 0.08700
 H428 H 0.58368 0.91621 0.10671
   
