data_POSCAR
  _audit_creation_date              2014-09-24
  _audit_creation_method            'ToBaCCo'
  _symmetry_space_group_name_H-M    'P1'
  _symmetry_Int_Tables_number       1
  _symmetry_cell_setting            triclinic
  loop_
  _symmetry_equiv_pos_as_xyz
 x,y,z
_cell_length_a 46.1200
_cell_length_b 46.5856
_cell_length_c 45.7736
_cell_angle_alpha 89.930000
_cell_angle_beta 90.046600
_cell_angle_gamma 89.966300
loop_
  _atom_site_label
  _atom_site_type_symbol
  _atom_site_fract_x
  _atom_site_fract_y
  _atom_site_fract_z
C1 C 0.33873 0.37181 1.37379
 N2 N 0.35035 0.34686 1.38379
 C3 C 0.37441 0.33529 1.37137
 N4 N 0.38679 0.34901 1.34831
 C5 C 0.37549 0.37397 1.33786
 N6 N 0.35151 0.38526 1.35077
 C7 C 1.16466 0.63076 0.87773
 N8 N 1.15276 0.61805 0.85388
 C9 C 1.12813 0.62839 0.84152
 N10 N 1.11527 0.65195 0.85319
 C11 C 1.12683 0.66521 0.87699
 N12 N 1.15154 0.65439 0.88911
 C13 C 0.66111 -0.12471 0.12031
 N14 N 0.64874 -0.14884 0.10918
 C15 C 0.62462 -0.16047 0.12153
 N16 N 0.61290 -0.14757 0.14538
 C17 C 0.62489 -0.12345 0.15685
 N18 N 0.64898 -0.11221 0.14421
 C19 C -0.16511 1.12849 -0.37649
 N20 N -0.15292 1.15269 -0.38761
 C21 C -0.12788 1.16339 -0.37632
 N22 N -0.11520 1.14958 -0.35345
 C23 C -0.12728 1.12557 -0.34177
 N24 N -0.15222 1.11514 -0.35346
 C25 C 0.65864 0.62493 0.61605
 N26 N 0.64689 0.64937 0.60492
 C27 C 0.62270 0.66118 0.61694
 N28 N 0.61057 0.64837 0.64066
 C29 C 0.62219 0.62410 0.65223
 N30 N 0.64616 0.61244 0.63977
 C31 C 0.84203 0.37429 0.12324
 N32 N 0.85576 0.38832 0.14531
 C33 C 0.88059 0.37769 0.15716
 N34 N 0.89189 0.35288 0.14645
 C35 C 0.87848 0.33846 0.12447
 N36 N 0.85346 0.34927 0.11323
 C37 C 0.34137 0.12840 0.87943
 N38 N 0.35219 0.11513 0.85540
 C39 C 0.37582 0.12576 0.84140
 N40 N 0.38863 0.15002 0.85163
 C41 C 0.37807 0.16354 0.87568
 N42 N 0.35439 0.15264 0.88942
 C43 C 0.15434 0.87503 0.38159
 N44 N 0.14196 0.85122 0.39349
 C45 C 0.11846 0.83864 0.38084
 N46 N 0.10727 0.85036 0.35605
 C47 C 0.11911 0.87430 0.34409
 N48 N 0.14266 0.88641 0.35687
 Zn49 Zn 0.00921 1.03584 -0.01764
 Zn50 Zn -0.02154 0.97912 -0.02354
 Zn51 Zn 0.03496 0.98323 0.00833
 Zn52 Zn -0.01794 1.00895 0.03443
 O53 O 0.00109 1.00174 0.00031
 O54 O -0.00642 1.03786 -0.05330
 O55 O -0.00458 0.94520 -0.03238
 O56 O 0.06642 1.00250 -0.00352
 O57 O -0.02941 0.99639 -0.05789
 O58 O 0.04722 1.04183 -0.02242
 O59 O 0.03700 0.94906 -0.00866
 O60 O 0.00096 0.99604 0.06610
 O61 O -0.05612 0.97044 -0.00724
 O62 O 0.03988 0.97628 0.04636
 O63 O -0.05269 0.99251 0.03538
 O64 O -0.02466 1.04623 0.04039
 O65 O -0.00411 1.06649 0.00194
 C66 C -0.02199 1.02070 -0.06808
 C67 C 0.01988 0.93494 -0.02486
 C68 C 0.06920 1.02667 -0.01600
 C69 C 0.02463 0.98234 0.06856
 C70 C -0.06679 0.97720 0.01742
 C71 C -0.01815 1.06839 0.02568
 Zn72 Zn 0.46164 0.01608 0.50767
 Zn73 Zn 0.48788 -0.03536 0.48011
 Zn74 Zn 0.51832 0.02138 0.47561
 Zn75 Zn 0.51514 -0.00959 0.53279
 O76 O 0.49579 -0.00180 0.49898
 O77 O 0.43030 -0.00324 0.49542
 O78 O 0.50406 -0.03671 0.44486
 O79 O 0.50068 0.05485 0.46717
 O80 O 0.45002 -0.04104 0.47409
 O81 O 0.45924 0.05078 0.49121
 O82 O 0.52685 0.00489 0.44102
 O83 O 0.54966 0.00719 0.53417
 O84 O 0.50098 -0.06641 0.49919
 O85 O 0.55264 0.03060 0.49225
 O86 O 0.52215 -0.04700 0.53778
 O87 O 0.49640 0.00248 0.56478
 O88 O 0.45662 0.02151 0.54599
 C89 C 0.42789 -0.02655 0.48133
 C90 C 0.51971 -0.01934 0.43048
 C91 C 0.47622 0.06495 0.47480
 C92 C 0.56343 0.02335 0.51674
 C93 C 0.51541 -0.06881 0.52268
 C94 C 0.47229 0.01526 0.56789
 Zn95 Zn 1.01018 0.46401 0.48409
 Zn96 Zn 1.03623 0.51625 0.51024
 Zn97 Zn 0.97983 0.52084 0.47804
 Zn98 Zn 0.98273 0.49111 0.53595
 O99 O 1.00218 0.49809 0.50201
 O100 O 1.04814 0.45792 0.47905
 O101 O 1.03806 0.55111 0.49433
 O102 O 0.97261 0.50409 0.44336
 O103 O 1.06752 0.49741 0.49724
 O104 O 0.99483 0.46223 0.44834
 O105 O 0.99672 0.55483 0.47009
 O106 O 0.94801 0.50765 0.53659
 O107 O 1.04167 0.52160 0.54850
 O108 O 0.94498 0.52934 0.49371
 O109 O 1.00150 0.50388 0.56771
 O110 O 0.97573 0.45380 0.54184
 O111 O 0.99655 0.43345 0.50359
 C112 C 1.07014 0.47327 0.48471
 C113 C 1.02086 0.56530 0.47819
 C114 C 0.97990 0.47973 0.43325
 C115 C 0.93404 0.52275 0.51830
 C116 C 1.02592 0.51613 0.57053
 C117 C 0.98220 0.43163 0.52716
 Zn118 Zn 0.48568 0.49377 0.96332
 Zn119 Zn 0.48134 0.52411 1.02114
 Zn120 Zn 0.51204 0.46760 1.01616
 Zn121 Zn 0.53826 0.51986 0.98997
 O122 O 0.50426 0.50140 0.99769
 O123 O 0.45077 0.51027 0.96173
 O124 O 0.47297 0.50728 1.05568
 O125 O 0.49866 0.43686 0.99704
 O126 O 0.44715 0.53269 1.00420
 O127 O 0.47958 0.45627 0.95738
 O128 O 0.49622 0.46594 1.05155
 O129 O 0.56954 0.50079 1.00287
 O130 O 0.49811 0.55807 1.02981
 O131 O 0.54995 0.46157 1.02156
 O132 O 0.53992 0.55429 1.00653
 O133 O 0.54384 0.52621 0.95183
 O134 O 0.50503 0.50640 0.93190
 C135 C 0.43665 0.52588 0.97946
 C136 C 0.48048 0.48308 1.06611
 C137 C 0.48554 0.43439 0.97280
 C138 C 0.57203 0.47672 1.01564
 C139 C 0.52254 0.56842 1.02244
 C140 C 0.52882 0.51987 0.92952
 C141 C 1.26157 0.40448 0.41162
 C142 C 1.27626 0.42023 0.39005
 C143 C 1.30176 0.40956 0.37755
 C144 C 1.31344 0.38305 0.38670
 C145 C 1.29891 0.36772 0.40887
 C146 C 1.27322 0.37819 0.42095
 C147 C 1.23387 0.41499 0.42394
 N148 N 1.21522 0.39651 0.43709
 N149 N 1.18997 0.40570 0.44762
 C150 C 1.18241 0.43381 0.44565
 N151 N 1.20115 0.45236 0.43269
 N152 N 1.22633 0.44312 0.42195
 C153 C 1.15404 0.44382 0.45674
 C154 C 1.14939 0.47298 0.46304
 C155 C 1.12232 0.48245 0.47285
 C156 C 1.09923 0.46303 0.47604
 C157 C 1.10393 0.43386 0.46990
 C158 C 1.13112 0.42432 0.46060
 H159 H 1.26774 0.44055 0.38236
 H160 H 1.31222 0.42217 0.36069
 H161 H 1.30702 0.34729 0.41670
 H162 H 1.26250 0.36566 0.43769
 H163 H 1.16668 0.48848 0.46041
 H164 H 1.11929 0.50508 0.47731
 H165 H 1.08656 0.41840 0.47224
 H166 H 1.13400 0.40173 0.45584
 C167 C 0.24339 0.59825 0.91283
 C168 C 0.22980 0.62214 0.92564
 C169 C 0.20370 0.63283 0.91431
 C170 C 0.19052 0.61983 0.88986
 C171 C 0.20409 0.59564 0.87743
 C172 C 0.23009 0.58508 0.88872
 C173 C 0.27151 0.58721 0.92397
 N174 N 0.28527 0.56550 0.90989
 N175 N 0.31074 0.55575 0.91929
 C176 C 0.32363 0.56723 0.94325
 N177 N 0.30985 0.58889 0.95749
 N178 N 0.28432 0.59870 0.94803
 C179 C 0.35232 0.55650 0.95312
 C180 C 0.36505 0.56638 0.97917
 C181 C 0.39233 0.55631 0.98798
 C182 C 0.40749 0.53628 0.97082
 C183 C 0.39465 0.52635 0.94489
 C184 C 0.36743 0.53626 0.93620
 H185 H 0.23946 0.63280 0.94427
 H186 H 0.19405 0.65141 0.92465
 H187 H 0.19484 0.58479 0.85870
 H188 H 0.23982 0.56657 0.87833
 H189 H 0.35398 0.58192 0.99275
 H190 H 0.40164 0.56439 1.00807
 H191 H 0.40566 0.51087 0.93117
 H192 H 0.35836 0.52816 0.91600
 C193 C -0.26112 0.90856 0.08408
 C194 C -0.27457 0.88442 0.07168
 C195 C -0.30038 0.87362 0.08336
 C196 C -0.31347 0.88670 0.10780
 C197 C -0.30017 0.91124 0.11978
 C198 C -0.27438 0.92195 0.10811
 C199 C -0.23308 0.91940 0.07265
 N200 N -0.22031 0.90727 0.04891
 N201 N -0.19471 0.91664 0.03930
 C202 C -0.18080 0.93850 0.05307
 N203 N -0.19368 0.95066 0.07668
 N204 N -0.21923 0.94134 0.08624
 C205 C -0.15191 0.94857 0.04320
 C206 C -0.13662 0.96884 0.05988
 C207 C -0.10915 0.97804 0.05134
 C208 C -0.09620 0.96737 0.02578
 C209 C -0.11153 0.94732 0.00881
 C210 C -0.13909 0.93793 0.01749
 H211 H -0.26498 0.87360 0.05312
 H212 H -0.30983 0.85478 0.07330
 H213 H -0.30942 0.92215 0.13847
 H214 H -0.26472 0.94067 0.11818
 H215 H -0.14573 0.97751 0.07980
 H216 H -0.09805 0.99360 0.06489
 H217 H -0.10213 0.93870 -0.01100
 H218 H -0.15030 0.92233 0.00411
 C219 C 0.75514 0.09548 0.58745
 C220 C 0.76834 0.08211 0.61161
 C221 C 0.79423 0.09273 0.62318
 C222 C 0.80758 0.11703 0.61094
 C223 C 0.79448 0.13033 0.58666
 C224 C 0.76858 0.11965 0.57504
 C225 C 0.72734 0.08439 0.57565
 N226 N 0.71474 0.09642 0.55172
 N227 N 0.68951 0.08662 0.54157
 C228 C 0.67582 0.06438 0.55495
 N229 N 0.68851 0.05233 0.57878
 N230 N 0.71370 0.06209 0.58889
 C231 C 0.64740 0.05369 0.54436
 C232 C 0.63253 0.03253 0.56030
 C233 C 0.60549 0.02273 0.55111
 C234 C 0.59253 0.03368 0.52562
 C235 C 0.60746 0.05458 0.50936
 C236 C 0.63461 0.06456 0.51869
 H237 H 0.75865 0.06342 0.62173
 H238 H 0.80368 0.08191 0.64186
 H239 H 0.80417 0.14906 0.57662
 H240 H 0.75903 0.13049 0.55643
 H241 H 0.64164 0.02363 0.58015
 H242 H 0.59469 0.00653 0.56413
 H243 H 0.59804 0.06344 0.48963
 H244 H 0.64550 0.08083 0.50585
 C245 C 0.40810 0.25635 0.40316
 C246 C 0.42167 0.27062 0.37982
 C247 C 0.41073 0.29672 0.36935
 C248 C 0.38590 0.30925 0.38202
 C249 C 0.37259 0.29495 0.40561
 C250 C 0.38351 0.26891 0.41596
 C251 C 0.41913 0.22837 0.41403
 N252 N 0.40471 0.21401 0.43537
 N253 N 0.41418 0.18873 0.44500
 C254 C 0.43853 0.17665 0.43376
 N255 N 0.45306 0.19102 0.41247
 N256 N 0.44355 0.21635 0.40279
 C257 C 0.44865 0.14826 0.44439
 C258 C 0.47476 0.13620 0.43431
 C259 C 0.48390 0.10924 0.44428
 C260 C 0.46707 0.09373 0.46445
 C261 C 0.44105 0.10586 0.47456
 C262 C 0.43199 0.13277 0.46472
 H263 H 0.44067 0.26156 0.36945
 H264 H 0.42174 0.30694 0.35122
 H265 H 0.35352 0.30369 0.41616
 H266 H 0.37252 0.25860 0.43404
 H267 H 0.48814 0.14756 0.41869
 H268 H 0.50405 0.10048 0.43605
 H269 H 0.42757 0.09455 0.49014
 H270 H 0.41177 0.14133 0.47297
 C271 C 0.90770 0.24110 0.59150
 C272 C 0.88061 0.23146 0.58163
 C273 C 0.86921 0.20546 0.59161
 C274 C 0.88429 0.18883 0.61243
 C275 C 0.91158 0.19861 0.62215
 C276 C 0.92328 0.22425 0.61151
 C277 C 0.91925 0.26900 0.58158
 N278 N 0.94828 0.27347 0.57945
 N279 N 0.95859 0.29884 0.57086
 C280 C 0.94027 0.32081 0.56446
 N281 N 0.91127 0.31634 0.56669
 N282 N 0.90096 0.29090 0.57493
 C283 C 0.95155 0.34911 0.55546
 C284 C 0.93617 0.37419 0.56246
 C285 C 0.94659 0.40104 0.55385
 C286 C 0.97219 0.40327 0.53742
 C287 C 0.98755 0.37818 0.53029
 C288 C 0.97752 0.35134 0.53961
 H289 H 0.86825 0.24401 0.56604
 H290 H 0.84819 0.19884 0.58347
 H291 H 0.92407 0.18650 0.63798
 H292 H 0.94419 0.23129 0.61953
 H293 H 0.91618 0.37305 0.57480
 H294 H 0.93426 0.42003 0.55948
 H295 H 1.00737 0.37937 0.51768
 H296 H 0.98972 0.33229 0.53387
 C297 C 0.08969 0.74228 -0.09059
 C298 C 0.11440 0.73029 -0.07733
 C299 C 0.12635 0.70469 -0.08767
 C300 C 0.11397 0.69031 -0.11170
 C301 C 0.08881 0.70208 -0.12455
 C302 C 0.07686 0.72770 -0.11413
 C303 C 0.07795 0.77017 -0.08031
 N304 N 0.05380 0.78187 -0.09256
 N305 N 0.04389 0.80733 -0.08374
 C306 C 0.05776 0.82217 -0.06235
 N307 N 0.08179 0.81036 -0.05006
 N308 N 0.09165 0.78495 -0.05883
 C309 C 0.04745 0.85085 -0.05283
 C310 C 0.06384 0.86679 -0.03269
 C311 C 0.05477 0.89395 -0.02381
 C312 C 0.02896 0.90598 -0.03469
 C313 C 0.01236 0.89006 -0.05471
 C314 C 0.02156 0.86278 -0.06376
 H315 H 0.12480 0.74084 -0.05905
 H316 H 0.14559 0.69647 -0.07695
 H317 H 0.07840 0.69176 -0.14298
 H318 H 0.05777 0.73626 -0.12481
 H319 H 0.08389 0.85839 -0.02381
 H320 H 0.06808 0.90551 -0.00829
 H321 H -0.00763 0.89873 -0.06348
 H322 H 0.00839 0.85107 -0.07928
 C323 C 0.58940 0.76166 1.08907
 C324 C 0.61370 0.77429 1.07574
 C325 C 0.62506 0.80011 1.08615
 C326 C 0.61248 0.81407 1.11031
 C327 C 0.58778 0.80160 1.12331
 C328 C 0.57641 0.77576 1.11281
 C329 C 0.57820 0.73364 1.07862
 N330 N 0.55421 0.72153 1.09070
 N331 N 0.54472 0.69600 1.08170
 C332 C 0.55887 0.68148 1.06028
 N333 N 0.58274 0.69368 1.04816
 N334 N 0.59219 0.71918 1.05711
 C335 C 0.54898 0.65273 1.05057
 C336 C 0.56567 0.63701 1.03052
 C337 C 0.55697 0.60977 1.02154
 C338 C 0.53125 0.59748 1.03224
 C339 C 0.51435 0.61320 1.05214
 C340 C 0.52318 0.64054 1.06129
 H341 H 0.62421 0.76410 1.05731
 H342 H 0.64397 0.80888 1.07533
 H343 H 0.57725 0.81156 1.14186
 H344 H 0.55763 0.76668 1.12357
 H345 H 0.58568 0.64564 1.02181
 H346 H 0.57050 0.59834 1.00610
 H347 H 0.49442 0.60432 1.06077
 H348 H 0.50979 0.65209 1.07674
 C349 C 0.41139 0.41298 1.26040
 C350 C 0.38750 0.42547 1.27459
 C351 C 0.37616 0.41315 1.30002
 C352 C 0.38844 0.38804 1.31185
 C353 C 0.41272 0.37594 1.29800
 C354 C 0.42404 0.38824 1.27261
 C355 C 0.42260 0.42500 1.23258
 N356 N 0.44454 0.41173 1.21817
 N357 N 0.45405 0.42177 1.19270
 C358 C 0.44208 0.44556 1.18046
 N359 N 0.42025 0.45902 1.19494
 N360 N 0.41069 0.44893 1.22045
 C361 C 0.45223 0.45595 1.15157
 C362 C 0.44132 0.48143 1.13918
 C363 C 0.45062 0.49055 1.11154
 C364 C 0.47088 0.47427 1.09569
 C365 C 0.48190 0.44896 1.10823
 C366 C 0.47277 0.43997 1.13579
 H367 H 0.37725 0.44456 1.26585
 H368 H 0.35748 0.42310 1.31014
 H369 H 0.42282 0.35667 1.30650
 H370 H 0.44252 0.37807 1.26236
 H371 H 0.42551 0.49429 1.15077
 H372 H 0.44173 0.51016 1.10248
 H373 H 0.49762 0.43594 1.09672
 H374 H 0.48167 0.42025 1.14457
 C375 C 0.58986 -0.08656 0.23568
 C376 C 0.57695 -0.11081 0.22285
 C377 C 0.58806 -0.12247 0.19709
 C378 C 0.61240 -0.11021 0.18348
 C379 C 0.62503 -0.08565 0.19602
 C380 C 0.61388 -0.07395 0.22182
 C381 C 0.57868 -0.07510 0.26373
 N382 N 0.59051 -0.05138 0.27624
 N383 N 0.58087 -0.04173 0.30187
 C384 C 0.55902 -0.05544 0.31608
 N385 N 0.54714 -0.07904 0.30347
 N386 N 0.55674 -0.08864 0.27788
 C387 C 0.54869 -0.04547 0.34503
 C388 C 0.52824 -0.06177 0.36058
 C389 C 0.51887 -0.05312 0.38815
 C390 C 0.52958 -0.02784 0.40093
 C391 C 0.54979 -0.01125 0.38532
 C392 C 0.55932 -0.02003 0.35767
 H393 H 0.55836 -0.12105 0.23284
 H394 H 0.57770 -0.14133 0.18806
 H395 H 0.64377 -0.07560 0.18610
 H396 H 0.62434 -0.05525 0.23106
 H397 H 0.51956 -0.08147 0.35160
 H398 H 0.50320 -0.06637 0.39949
 H399 H 0.55844 0.00834 0.39457
 H400 H 0.57506 -0.00694 0.34626
 C401 C -0.09106 1.08795 -0.26366
 C402 C -0.07797 1.11194 -0.27685
 C403 C -0.08934 1.12371 -0.30250
 C404 C -0.11415 1.11183 -0.31563
 C405 C -0.12686 1.08742 -0.30284
 C406 C -0.11542 1.07560 -0.27717
 C407 C -0.07983 1.07658 -0.23554
 N408 N -0.09164 1.05286 -0.22296
 N409 N -0.08209 1.04333 -0.19722
 C410 C -0.06037 1.05715 -0.18292
 N411 N -0.04849 1.08074 -0.19559
 N412 N -0.05799 1.09023 -0.22131
 C413 C -0.05022 1.04724 -0.15382
 C414 C -0.03011 1.06367 -0.13794
 C415 C -0.02097 1.05495 -0.11024
 C416 C -0.03157 1.02948 -0.09771
 C417 C -0.05145 1.01282 -0.11366
 C418 C -0.06074 1.02165 -0.14139
 H419 H -0.05909 1.12195 -0.26716
 H420 H -0.07891 1.14245 -0.31174
 H421 H -0.14594 1.07765 -0.31239
 H422 H -0.12602 1.05709 -0.26767
 H423 H -0.02154 1.08349 -0.14677
 H424 H -0.00557 1.06826 -0.09862
 H425 H -0.06003 0.99309 -0.10462
 H426 H -0.07622 1.00845 -0.15304
 C427 C 1.09478 0.58945 0.76310
 C428 C 1.12276 0.58290 0.77325
 C429 C 1.13330 0.59520 0.79892
 C430 C 1.11625 0.61464 0.81492
 C431 C 1.08816 0.62108 0.80491
 C432 C 1.07745 0.60845 0.77936
 C433 C 1.08418 0.57701 0.73532
 N434 N 1.05552 0.57728 0.72843
 N435 N 1.04624 0.56648 0.70315
 C436 C 1.06526 0.55514 0.68366
 N437 N 1.09389 0.55485 0.69059
 N438 N 1.10313 0.56547 0.71591
 C439 C 1.05522 0.54405 0.65510
 C440 C 1.07491 0.54073 0.63194
 C441 C 1.06541 0.53141 0.60458
 C442 C 1.03607 0.52476 0.59989
 C443 C 1.01646 0.52742 0.62321
 C444 C 1.02590 0.53719 0.65049
 H445 H 1.13660 0.56824 0.76133
 H446 H 1.15505 0.58979 0.80595
 H447 H 1.07446 0.63589 0.81680
 H448 H 1.05582 0.61398 0.77205
 H449 H 1.09763 0.54589 0.63475
 H450 H 1.08105 0.52948 0.58705
 H451 H 0.99369 0.52255 0.62020
 H452 H 1.01024 0.53940 0.66796
 C453 C 0.73815 0.59081 0.58072
 C454 C 0.72488 0.61489 0.56787
 C455 C 0.69887 0.62573 0.57904
 C456 C 0.68550 0.61271 0.60329
 C457 C 0.69849 0.58829 0.61573
 C458 C 0.72448 0.57750 0.60461
 C459 C 0.76644 0.58000 0.56993
 N460 N 0.78021 0.55829 0.58407
 N461 N 0.80601 0.54905 0.57512
 C462 C 0.81923 0.56108 0.55160
 N463 N 0.80540 0.58269 0.53728
 N464 N 0.77956 0.59198 0.54629
 C465 C 0.84837 0.55113 0.54239
 C466 C 0.86148 0.56151 0.51672
 C467 C 0.88924 0.55223 0.50861
 C468 C 0.90449 0.53254 0.52615
 C469 C 0.89127 0.52214 0.55171
 C470 C 0.86360 0.53124 0.55967
 H471 H 0.73478 0.62565 0.54943
 H472 H 0.68944 0.64454 0.56885
 H473 H 0.68880 0.57764 0.63435
 H474 H 0.73400 0.55884 0.61500
 H475 H 0.85032 0.57683 0.50289
 H476 H 0.89884 0.56063 0.48879
 H477 H 0.90232 0.50686 0.56568
 H478 H 0.85426 0.52279 0.57960
 C479 C 0.76359 0.40640 1.08743
 C480 C 0.77904 0.42245 1.10820
 C481 C 0.80486 0.41188 1.12013
 C482 C 0.81613 0.38515 1.11120
 C483 C 0.80072 0.36939 1.08998
 C484 C 0.77471 0.37978 1.07847
 C485 C 0.73577 0.41706 1.07547
 N486 N 0.71661 0.39864 1.06300
 N487 N 0.69132 0.40804 1.05268
 C488 C 0.68423 0.43629 1.05420
 N489 N 0.70347 0.45476 1.06649
 N490 N 0.72869 0.44532 1.07700
 C491 C 0.65585 0.44656 1.04330
 C492 C 0.65150 0.47571 1.03667
 C493 C 0.62444 0.48542 1.02699
 C494 C 0.60108 0.46626 1.02426
 C495 C 0.60549 0.43710 1.03074
 C496 C 0.63265 0.42731 1.03991
 H497 H 0.77094 0.44300 1.11562
 H498 H 0.81596 0.42481 1.13630
 H499 H 0.80848 0.34876 1.08239
 H500 H 0.76337 0.36698 1.06237
 H501 H 0.66901 0.49102 1.03893
 H502 H 0.62164 0.50804 1.02225
 H503 H 0.58791 0.42182 1.02875
 H504 H 0.63529 0.40474 1.04493
 C505 C 0.26304 1.09654 -0.08110
 C506 C 0.27999 1.07871 -0.09900
 C507 C 0.30556 1.08897 -0.11157
 C508 C 0.31498 1.11716 -0.10617
 C509 C 0.29845 1.13475 -0.08763
 C510 C 0.27263 1.12461 -0.07540
 C511 C 0.23510 1.08619 -0.06922
 N512 N 0.21478 1.10504 -0.05956
 N513 N 0.18917 1.09582 -0.04998
 C514 C 0.18286 1.06735 -0.04948
 N515 N 0.20328 1.04848 -0.05886
 N516 N 0.22883 1.05771 -0.06862
 C517 C 0.15404 1.05715 -0.03978
 C518 C 0.14970 1.02819 -0.03233
 C519 C 0.12226 1.01840 -0.02407
 C520 C 0.09849 1.03727 -0.02351
 C521 C 0.10286 1.06626 -0.03077
 C522 C 0.13038 1.07614 -0.03861
 H523 H 0.27317 1.05700 -0.10387
 H524 H 0.31790 1.07484 -0.12564
 H525 H 0.30508 1.15658 -0.08309
 H526 H 0.26013 1.13882 -0.06158
 H527 H 0.16752 1.01306 -0.03290
 H528 H 0.11955 0.99592 -0.01864
 H529 H 0.08498 1.08134 -0.03042
 H530 H 0.13298 1.09855 -0.04432
 C531 C 0.23263 -0.09156 0.41606
 C532 C 0.22123 -0.08092 0.38979
 C533 C 0.19490 -0.09121 0.37898
 C534 C 0.17968 -0.11307 0.39378
 C535 C 0.19105 -0.12335 0.42044
 C536 C 0.21705 -0.11244 0.43160
 C537 C 0.26122 -0.08166 0.42646
 N538 N 0.26738 -0.08025 0.45545
 N539 N 0.29339 -0.07158 0.46459
 C540 C 0.31435 -0.06439 0.44506
 N541 N 0.30820 -0.06592 0.41610
 N542 N 0.28211 -0.07423 0.40699
 C543 C 0.34337 -0.05526 0.45494
 C544 C 0.36790 -0.06176 0.43804
 C545 C 0.39543 -0.05295 0.44704
 C546 C 0.39886 -0.03680 0.47269
 C547 C 0.37432 -0.03016 0.48955
 C548 C 0.34683 -0.03968 0.48096
 H549 H 0.23274 -0.06463 0.37752
 H550 H 0.18703 -0.08252 0.35849
 H551 H 0.18001 -0.13998 0.43269
 H552 H 0.22546 -0.12101 0.45192
 H553 H 0.36581 -0.07387 0.41797
 H554 H 0.41399 -0.05823 0.43359
 H555 H 0.37644 -0.01779 0.50946
 H556 H 0.32820 -0.03433 0.49428
 C557 C 0.58809 -0.26080 0.58446
 C558 C 0.57286 -0.27679 0.60539
 C559 C 0.58427 -0.30251 0.61614
 C560 C 0.61087 -0.31326 0.60561
 C561 C 0.62559 -0.29750 0.58388
 C562 C 0.61451 -0.27137 0.57378
 C563 C 0.57689 -0.23279 0.57449
 N564 N 0.59544 -0.21134 0.56720
 N565 N 0.58543 -0.18571 0.55915
 C566 C 0.55647 -0.18062 0.55775
 N567 N 0.53789 -0.20215 0.56474
 N568 N 0.54791 -0.22770 0.57315
 C569 C 0.54551 -0.15208 0.54918
 C570 C 0.51926 -0.14928 0.53385
 C571 C 0.50942 -0.12218 0.52510
 C572 C 0.52525 -0.09743 0.53230
 C573 C 0.55116 -0.10023 0.54819
 C574 C 0.56139 -0.12733 0.55621
 H575 H 0.55248 -0.26900 0.61405
 H576 H 0.57208 -0.31393 0.63268
 H577 H 0.64607 -0.30489 0.57510
 H578 H 0.62658 -0.25946 0.55749
 H579 H 0.50669 -0.16808 0.52812
 H580 H 0.48936 -0.12054 0.51289
 H581 H 0.56385 -0.08149 0.55385
 H582 H 0.58160 -0.12893 0.56817
 C583 C 1.08439 0.76055 0.41406
 C584 C 1.10793 0.77406 0.42790
 C585 C 1.11883 0.80006 0.41733
 C586 C 1.10657 0.81323 0.39249
 C587 C 1.08254 0.79992 0.37909
 C588 C 1.07162 0.77398 0.38976
 C589 C 1.07378 0.73227 0.42442
 N590 N 1.05025 0.71966 0.41199
 N591 N 1.04131 0.69384 0.42073
 C592 C 1.05558 0.67950 0.44223
 N593 N 1.07902 0.69218 0.45474
 N594 N 1.08791 0.71799 0.44604
 C595 C 1.04625 0.65043 0.45154
 C596 C 1.06306 0.63470 0.47155
 C597 C 1.05476 0.60714 0.48006
 C598 C 1.02935 0.59460 0.46890
 C599 C 1.01238 0.61034 0.44901
 C600 C 1.02078 0.63795 0.44036
 H601 H 1.11820 0.76441 0.44678
 H602 H 1.13721 0.80952 0.42848
 H603 H 1.07225 0.80926 0.36004
 H604 H 1.05341 0.76423 0.37860
 H605 H 1.08282 0.64357 0.48058
 H606 H 1.06832 0.59567 0.49549
 H607 H 0.99268 0.60129 0.44003
 H608 H 1.00731 0.64948 0.42492
 C609 C -0.08807 1.25938 0.09354
 C610 C -0.07179 1.27626 0.11290
 C611 C -0.08283 1.30229 0.12328
 C612 C -0.11013 1.31241 0.11390
 C613 C -0.12599 1.29562 0.09387
 C614 C -0.11525 1.26928 0.08416
 C615 C -0.07713 1.23127 0.08354
 N616 N -0.09590 1.20969 0.07731
 N617 N -0.08620 1.18419 0.06858
 C618 C -0.05734 1.17935 0.06540
 N619 N -0.03854 1.20098 0.07143
 N620 N -0.04824 1.22641 0.08052
 C621 C -0.04678 1.15101 0.05568
 C622 C -0.02130 1.14858 0.03907
 C623 C -0.01200 1.12172 0.02909
 C624 C -0.02760 1.09681 0.03626
 C625 C -0.05274 1.09923 0.05338
 C626 C -0.06244 1.12610 0.06267
 H627 H -0.05079 1.26900 0.12053
 H628 H -0.06980 1.31451 0.13853
 H629 H -0.14706 1.30244 0.08602
 H630 H -0.12815 1.25672 0.06909
 H631 H -0.00892 1.16750 0.03330
 H632 H 0.00750 1.12039 0.01598
 H633 H -0.06524 1.08036 0.05909
 H634 H -0.08207 1.12739 0.07557
 C635 C 0.41573 0.24277 0.90566
 C636 C 0.42153 0.23255 0.87739
 C637 C 0.40976 0.20655 0.86785
 C638 C 0.39158 0.19042 0.88622
 C639 C 0.38591 0.20056 0.91455
 C640 C 0.39803 0.22634 0.92424
 C641 C 0.42757 0.27065 0.91553
 N642 N 0.42853 0.27733 0.94439
 N643 N 0.43863 0.30266 0.95323
 C644 C 0.44800 0.32244 0.93356
 N645 N 0.44707 0.31575 0.90470
 N646 N 0.43714 0.29035 0.89588
 C647 C 0.45846 0.35088 0.94337
 C648 C 0.45980 0.37407 0.92375
 C649 C 0.46866 0.40118 0.93328
 C650 C 0.47678 0.40557 0.96252
 C651 C 0.47595 0.38226 0.98202
 C652 C 0.46668 0.35526 0.97260
 H653 H 0.43519 0.24465 0.86261
 H654 H 0.41449 0.19937 0.84587
 H655 H 0.37209 0.18857 0.92928
 H656 H 0.39309 0.23366 0.94612
 H657 H 0.45351 0.37141 0.90112
 H658 H 0.46917 0.41871 0.91772
 H659 H 0.48201 0.38500 1.00471
 H660 H 0.46601 0.33780 0.98821
 C661 C 0.59016 0.58948 0.73309
 C662 C 0.58500 0.61827 0.72559
 C663 C 0.59458 0.62919 0.69888
 C664 C 0.61009 0.61172 0.67937
 C665 C 0.61499 0.58282 0.68671
 C666 C 0.60481 0.57171 0.71320
 C667 C 0.58110 0.57847 0.76196
 N668 N 0.57520 0.55018 0.76605
 N669 N 0.56725 0.54041 0.79224
 C670 C 0.56526 0.55851 0.81541
 N671 N 0.57128 0.58674 0.81131
 N672 N 0.57892 0.59654 0.78510
 C673 C 0.55667 0.54786 0.84456
 C674 C 0.56597 0.56223 0.86983
 C675 C 0.55747 0.55265 0.89745
 C676 C 0.53895 0.52890 0.90032
 C677 C 0.52965 0.51447 0.87505
 C678 C 0.53872 0.52366 0.84742
 H679 H 0.57360 0.63240 0.74044
 H680 H 0.59058 0.65158 0.69389
 H681 H 0.62681 0.56885 0.67203
 H682 H 0.60914 0.54945 0.71849
 H683 H 0.57995 0.58084 0.86826
 H684 H 0.56486 0.56425 0.91654
 H685 H 0.51543 0.49605 0.87668
 H686 H 0.53117 0.51225 0.82827
 C687 C 0.40674 0.08618 0.76238
 C688 C 0.42455 0.10517 0.77809
 C689 C 0.41460 0.11794 0.80383
 C690 C 0.38680 0.11164 0.81464
 C691 C 0.36926 0.09215 0.79926
 C692 C 0.37904 0.07973 0.77332
 C693 C 0.41663 0.07375 0.73437
 N694 N 0.39720 0.06279 0.71507
 N695 N 0.40591 0.05241 0.68944
 C696 C 0.43444 0.05238 0.68212
 N697 N 0.45391 0.06312 0.70151
 N698 N 0.44518 0.07368 0.72708
 C699 C 0.44397 0.04169 0.65325
 C700 C 0.47311 0.03433 0.64832
 C701 C 0.48220 0.02508 0.62076
 C702 C 0.46242 0.02346 0.59745
 C703 C 0.43325 0.03060 0.60244
 C704 C 0.42407 0.03939 0.63010
 H705 H 0.44597 0.11064 0.77018
 H706 H 0.42867 0.13277 0.81525
 H707 H 0.34771 0.08689 0.80695
 H708 H 0.36486 0.06507 0.76180
 H709 H 0.48892 0.03575 0.66577
 H710 H 0.50485 0.01979 0.61754
 H711 H 0.41749 0.02946 0.58493
 H712 H 0.40149 0.04499 0.63317
 C713 C 0.08663 0.90885 0.26336
 C714 C 0.08228 0.87982 0.27043
 C715 C 0.09221 0.86877 0.29700
 C716 C 0.10725 0.88639 0.31673
 C717 C 0.11149 0.91546 0.30973
 C718 C 0.10098 0.92667 0.28343
 C719 C 0.07695 0.92021 0.23484
 N720 N 0.07060 0.94849 0.23138
 N721 N 0.06228 0.95868 0.20547
 C722 C 0.06034 0.94102 0.18195
 N723 N 0.06675 0.91278 0.18543
 N724 N 0.07477 0.90255 0.21137
 C725 C 0.05166 0.95223 0.15305
 C726 C 0.06112 0.93844 0.12752
 C727 C 0.05283 0.94870 0.10010
 C728 C 0.03437 0.97257 0.09766
 C729 C 0.02483 0.98637 0.12318
 C730 C 0.03370 0.97648 0.15065
 H731 H 0.07115 0.86565 0.25541
 H732 H 0.08872 0.84626 0.30178
 H733 H 0.12291 0.92955 0.32461
 H734 H 0.10471 0.94910 0.27847
 H735 H 0.07513 0.91981 0.12873
 H736 H 0.06038 0.93756 0.08079
 H737 H 0.01062 1.00485 0.12188
 H738 H 0.02603 0.98744 0.17002
 C739 C 0.91684 0.41581 0.23478
 C740 C 0.89296 0.42854 0.22071
 C741 C 0.88170 0.41669 0.19503
 C742 C 0.89408 0.39186 0.18280
 C743 C 0.91858 0.37975 0.19633
 C744 C 0.92980 0.39155 0.22200
 C745 C 0.92745 0.42688 0.26323
 N746 N 0.94861 0.41275 0.27807
 N747 N 0.95730 0.42179 0.30422
 C748 C 0.94524 0.44537 0.31671
 N749 N 0.92424 0.45968 0.30178
 N750 N 0.91550 0.45060 0.27561
 C751 C 0.95435 0.45469 0.34631
 C752 C 0.94374 0.48028 0.35862
 C753 C 0.95208 0.48857 0.38680
 C754 C 0.97106 0.47136 0.40331
 C755 C 0.98169 0.44586 0.39092
 C756 C 0.97351 0.43767 0.36279
 H757 H 0.88251 0.44729 0.22988
 H758 H 0.86287 0.42666 0.18516
 H759 H 0.92878 0.36070 0.18750
 H760 H 0.94833 0.38128 0.23211
 H761 H 0.92897 0.49391 0.34652
 H762 H 0.94352 0.50836 0.39571
 H763 H 0.99643 0.43213 0.40297
 H764 H 0.98209 0.41781 0.35407
   
