data_POSCAR
  _audit_creation_date              2014-09-24
  _audit_creation_method            'ToBaCCo'
  _symmetry_space_group_name_H-M    'P1'
  _symmetry_Int_Tables_number       1
  _symmetry_cell_setting            triclinic
  loop_
  _symmetry_equiv_pos_as_xyz
 x,y,z
_cell_length_a 50.5476
_cell_length_b 51.4047
_cell_length_c 49.7674
_cell_angle_alpha 90.109400
_cell_angle_beta 88.387400
_cell_angle_gamma 90.722700
loop_
  _atom_site_label
  _atom_site_type_symbol
  _atom_site_fract_x
  _atom_site_fract_y
  _atom_site_fract_z
C1 C 0.26237 0.25092 0.23690
 C2 C 0.24279 0.27006 0.23767
 C3 C 0.22261 0.26979 0.25770
 C4 C 0.22224 0.25002 0.27721
 C5 C 0.24170 0.23071 0.27681
 C6 C 0.26165 0.23134 0.25656
 H7 H 0.24324 0.28520 0.22256
 H8 H 0.20677 0.24966 0.29272
 H9 H 0.27669 0.21652 0.25607
 C10 C 0.73530 -0.25192 0.22695
 C11 C 0.75264 -0.27314 0.22875
 C12 C 0.77349 -0.27288 0.24700
 C13 C 0.77588 -0.25159 0.26462
 C14 C 0.75836 -0.23077 0.26371
 C15 C 0.73865 -0.23064 0.24450
 H16 H 0.75049 -0.28954 0.21525
 H17 H 0.79121 -0.25119 0.27943
 H18 H 0.72537 -0.21427 0.24404
 C19 C 0.73181 0.25233 0.76238
 C20 C 0.75145 0.27191 0.76212
 C21 C 0.77196 0.27239 0.74234
 C22 C 0.77248 0.25263 0.72264
 C23 C 0.75309 0.23276 0.72266
 C24 C 0.73284 0.23283 0.74260
 H25 H 0.75066 0.28686 0.77748
 H26 H 0.78803 0.25260 0.70722
 H27 H 0.71780 0.21763 0.74273
 C28 C 0.27011 -0.24964 0.77646
 C29 C 0.26960 -0.22971 0.75720
 C30 C 0.25011 -0.22947 0.73765
 C31 C 0.23104 -0.24957 0.73743
 C32 C 0.23102 -0.26977 0.75654
 C33 C 0.25071 -0.26950 0.77604
 H34 H 0.28441 -0.21431 0.75742
 H35 H 0.21613 -0.24939 0.72223
 H36 H 0.25107 -0.28480 0.79095
 C37 C 0.73969 -0.24688 0.76858
 C38 C 0.75903 -0.26626 0.76815
 C39 C 0.77931 -0.26662 0.74813
 C40 C 0.77994 -0.24693 0.72842
 C41 C 0.76082 -0.22730 0.72862
 C42 C 0.74080 -0.22746 0.74878
 H43 H 0.75815 -0.28116 0.78352
 H44 H 0.79529 -0.24684 0.71279
 H45 H 0.72595 -0.21246 0.74902
 C46 C 0.26449 0.25332 0.77143
 C47 C 0.24535 0.27289 0.77106
 C48 C 0.22578 0.27280 0.75154
 C49 C 0.22550 0.25278 0.73227
 C50 C 0.24447 0.23305 0.73233
 C51 C 0.26388 0.23351 0.75197
 H52 H 0.24570 0.28825 0.78597
 H53 H 0.21048 0.25255 0.71718
 H54 H 0.27856 0.21836 0.75212
 C55 C 0.26903 -0.25594 0.23952
 C56 C 0.26787 -0.23614 0.25912
 C57 C 0.24774 -0.23594 0.27917
 C58 C 0.22842 -0.25582 0.27952
 C59 C 0.22908 -0.27577 0.26018
 C60 C 0.24947 -0.27572 0.24038
 H61 H 0.28265 -0.22070 0.25881
 H62 H 0.21278 -0.25573 0.29485
 H63 H 0.24999 -0.29115 0.22554
 C64 C 0.72627 0.24847 0.22625
 C65 C 0.74543 0.26850 0.22666
 C66 C 0.76751 0.26656 0.24290
 C67 C 0.77019 0.24474 0.25939
 C68 C 0.75059 0.22510 0.26031
 C69 C 0.72887 0.22699 0.24339
 H70 H 0.74371 0.28529 0.21372
 H71 H 0.78712 0.24360 0.27220
 H72 H 0.71392 0.21171 0.24360
 O73 O 0.26384 0.02436 0.47816
 O74 O 0.26539 -0.02535 0.53122
 O75 O 0.26463 -0.02625 0.47888
 O76 O 0.26440 0.02513 0.53045
 O77 O 0.22067 0.02402 0.53214
 O78 O 0.22092 -0.02760 0.48071
 O79 O 0.22167 -0.02672 0.53294
 O80 O 0.22012 0.02326 0.48000
 Cu81 Cu 0.26896 -0.00042 0.50447
 Cu82 Cu 0.21644 -0.00191 0.50660
 C83 C 0.24175 0.03238 0.47017
 C84 C 0.24380 -0.03449 0.54111
 C85 C 0.24283 -0.03573 0.47109
 C86 C 0.24251 0.03336 0.54001
 O87 O 0.73871 0.02459 0.52059
 O88 O 0.73974 -0.02804 0.47030
 O89 O 0.74031 -0.02584 0.52232
 O90 O 0.73829 0.02265 0.46815
 O91 O 0.78196 0.02545 0.46727
 O92 O 0.78401 -0.02504 0.51962
 O93 O 0.78335 -0.02487 0.46699
 O94 O 0.78243 0.02591 0.51945
 Cu95 Cu 0.73487 -0.00180 0.49550
 Cu96 Cu 0.78735 0.00049 0.49325
 C97 C 0.76038 0.03409 0.52872
 C98 C 0.76168 -0.03517 0.45986
 C99 C 0.76249 -0.03390 0.52999
 C100 C 0.75976 0.03240 0.45859
 O101 O 0.47009 0.27458 0.02514
 O102 O 0.52244 0.27454 -0.02794
 O103 O 0.47075 0.27494 -0.02706
 O104 O 0.52165 0.27451 0.02440
 O105 O 0.52088 0.23152 0.02419
 O106 O 0.47009 0.23195 -0.02737
 O107 O 0.52156 0.23156 -0.02828
 O108 O 0.46953 0.23159 0.02499
 Cu109 Cu 0.49634 0.27896 -0.00137
 Cu110 Cu 0.49547 0.22733 -0.00167
 C111 C 0.46095 0.25306 0.03411
 C112 C 0.53087 0.25303 -0.03716
 C113 C 0.46171 0.25352 -0.03590
 C114 C 0.52983 0.25294 0.03313
 O115 O 0.52799 0.72680 0.02818
 O116 O 0.47664 0.72719 -0.02294
 O117 O 0.52832 0.72764 -0.02403
 O118 O 0.47630 0.72628 0.02926
 O119 O 0.47665 0.76926 0.03030
 O120 O 0.52834 0.77062 -0.02334
 O121 O 0.47683 0.77017 -0.02213
 O122 O 0.52809 0.76977 0.02906
 Cu123 Cu 0.50230 0.72266 0.00253
 Cu124 Cu 0.50248 0.77427 0.00354
 C125 C 0.53678 0.74822 0.03730
 C126 C 0.46798 0.74875 -0.03121
 C127 C 0.53719 0.74935 -0.03274
 C128 C 0.46765 0.74754 0.03886
 O129 O 0.01866 0.47186 0.27649
 O130 O -0.03243 0.52221 0.27316
 O131 O -0.03272 0.47214 0.27272
 O132 O 0.01917 0.52289 0.27684
 O133 O 0.02392 0.52267 0.23257
 O134 O -0.02792 0.47210 0.22844
 O135 O -0.02719 0.52328 0.22893
 O136 O 0.02316 0.47235 0.23220
 Cu137 Cu -0.00716 0.49728 0.27929
 Cu138 Cu -0.00166 0.49764 0.22608
 C139 C 0.02951 0.46347 0.25488
 C140 C -0.03845 0.53128 0.25047
 C141 C -0.03911 0.46351 0.24986
 C142 C 0.03041 0.53136 0.25537
 O143 O 0.02808 0.52770 0.72697
 O144 O -0.02413 0.47714 0.72467
 O145 O -0.02321 0.52805 0.72541
 O146 O 0.02719 0.47695 0.72615
 O147 O 0.02472 0.47642 0.77055
 O148 O -0.02571 0.52743 0.76980
 O149 O -0.02681 0.47683 0.76905
 O150 O 0.02586 0.52690 0.77137
 Cu151 Cu 0.00220 0.50252 0.72134
 Cu152 Cu -0.00077 0.50184 0.77465
 C153 C 0.03590 0.53583 0.74955
 C154 C -0.03433 0.46837 0.74649
 C155 C -0.03297 0.53648 0.74750
 C156 C 0.03454 0.46802 0.74848
 C157 C 0.32201 0.25189 0.17638
 N158 N 0.31773 0.23044 0.19182
 N159 N 0.29888 0.23017 0.21107
 C160 C 0.28346 0.25129 0.21557
 N161 N 0.28777 0.27273 0.20003
 N162 N 0.30670 0.27305 0.18086
 C163 C 0.34279 0.25216 0.15516
 N164 N 0.34889 0.27437 0.14149
 N165 N 0.36777 0.27459 0.12225
 C166 C 0.38114 0.25257 0.11589
 N167 N 0.37500 0.23035 0.12953
 N168 N 0.35621 0.23017 0.14885
 C169 C 0.40188 0.25274 0.09462
 N170 N 0.41331 0.23022 0.08642
 N171 N 0.43209 0.23033 0.06709
 C172 C 0.44020 0.25298 0.05534
 N173 N 0.42881 0.27552 0.06357
 N174 N 0.40994 0.27539 0.08283
 C175 C 0.67599 0.74788 0.17145
 N176 N 0.68004 0.76890 0.18741
 N177 N 0.69910 0.76892 0.20536
 C178 C 0.71502 0.74799 0.20804
 N179 N 0.71088 0.72700 0.19193
 N180 N 0.69174 0.72691 0.17406
 C181 C 0.65499 0.74785 0.15162
 N182 N 0.64915 0.72593 0.13760
 N183 N 0.63015 0.72593 0.11958
 C184 C 0.61637 0.74787 0.11482
 N185 N 0.62224 0.76980 0.12881
 N186 N 0.64116 0.76977 0.14692
 C187 C 0.59556 0.74793 0.09479
 N188 N 0.58382 0.77047 0.08788
 N189 N 0.56510 0.77056 0.06956
 C190 C 0.55733 0.74809 0.05757
 N191 N 0.56900 0.72553 0.06454
 N192 N 0.58782 0.72546 0.08277
 C193 C 0.67105 0.25241 -0.17824
 N194 N 0.68668 0.27376 -0.18235
 N195 N 0.70595 0.27369 -0.20116
 C196 C 0.71031 0.25232 -0.21670
 N197 N 0.69456 0.23099 -0.21260
 N198 N 0.67534 0.23101 -0.19370
 C199 C 0.64992 0.25249 -0.15735
 N200 N 0.63597 0.23042 -0.15132
 N201 N 0.61694 0.23050 -0.13223
 C202 C 0.61110 0.25268 -0.11856
 N203 N 0.62500 0.27476 -0.12465
 N204 N 0.64409 0.27465 -0.14366
 C205 C 0.59017 0.25278 -0.09746
 N206 N 0.58267 0.27540 -0.08554
 N207 N 0.56372 0.27550 -0.06638
 C208 C 0.55167 0.25296 -0.05835
 N209 N 0.55920 0.23034 -0.07024
 N210 N 0.57807 0.23025 -0.08949
 C211 C 0.32921 0.74994 -0.16581
 N212 N 0.31391 0.72848 -0.16990
 N213 N 0.29511 0.72865 -0.18813
 C214 C 0.29091 0.75024 -0.20307
 N215 N 0.30629 0.77167 -0.19895
 N216 N 0.32502 0.77155 -0.18065
 C217 C 0.34997 0.74976 -0.14573
 N218 N 0.36355 0.77190 -0.13981
 N219 N 0.38236 0.77174 -0.12159
 C220 C 0.38838 0.74941 -0.10871
 N221 N 0.37484 0.72726 -0.11467
 N222 N 0.35595 0.72744 -0.13281
 C223 C 0.40915 0.74923 -0.08863
 N224 N 0.41693 0.72652 -0.07765
 N225 N 0.43575 0.72635 -0.05943
 C226 C 0.44740 0.74891 -0.05145
 N227 N 0.43959 0.77164 -0.06241
 N228 N 0.42085 0.77179 -0.08071
 C229 C 0.16444 0.32747 0.25836
 N230 N 0.16711 0.31175 0.27998
 N231 N 0.18550 0.29338 0.27979
 C232 C 0.20200 0.29009 0.25803
 N233 N 0.19925 0.30590 0.23646
 N234 N 0.18082 0.32417 0.23660
 C235 C 0.14420 0.34773 0.25831
 N236 N 0.14016 0.36162 0.23566
 N237 N 0.12186 0.38001 0.23541
 C238 C 0.10698 0.38531 0.25783
 N239 N 0.11104 0.37147 0.28054
 N240 N 0.12929 0.35297 0.28076
 C241 C 0.08683 0.40564 0.25732
 N242 N 0.07346 0.41288 0.28012
 N243 N 0.05523 0.43139 0.27944
 C244 C 0.04968 0.44322 0.25591
 N245 N 0.06303 0.43592 0.23315
 N246 N 0.08130 0.41753 0.23385
 C247 C 0.17419 0.67180 0.75491
 N248 N 0.19181 0.67286 0.77497
 N249 N 0.21023 0.69163 0.77547
 C250 C 0.21167 0.71023 0.75604
 N251 N 0.19389 0.70906 0.73605
 N252 N 0.17561 0.69021 0.73543
 C253 C 0.15387 0.65116 0.75419
 N254 N 0.13917 0.64776 0.73201
 N255 N 0.12062 0.62916 0.73128
 C256 C 0.11595 0.61338 0.75278
 N257 N 0.13060 0.61681 0.77500
 N258 N 0.14929 0.63530 0.77566
 C259 C 0.09529 0.59307 0.75197
 N260 N 0.08740 0.58018 0.77466
 N261 N 0.06844 0.56197 0.77391
 C262 C 0.05680 0.55587 0.75042
 N263 N 0.06477 0.56868 0.72772
 N264 N 0.08360 0.58702 0.72850
 C265 C -0.17209 0.66794 0.24735
 N266 N -0.16732 0.69062 0.26038
 N267 N -0.18511 0.70951 0.26064
 C268 C -0.20818 0.70671 0.24743
 N269 N -0.21276 0.68395 0.23425
 N270 N -0.19520 0.66484 0.23444
 C271 C -0.15240 0.64727 0.24704
 N272 N -0.16000 0.62194 0.24944
 N273 N -0.14199 0.60323 0.24972
 C274 C -0.11581 0.60918 0.24702
 N275 N -0.10824 0.63448 0.24430
 N276 N -0.12621 0.65322 0.24457
 C277 C -0.09596 0.58869 0.24750
 N278 N -0.07406 0.58998 0.23111
 N279 N -0.05588 0.57145 0.23175
 C280 C -0.05873 0.55129 0.24921
 N281 N -0.08052 0.55012 0.26575
 N282 N -0.09895 0.56836 0.26473
 C283 C -0.17085 0.33054 0.74262
 N284 N -0.18962 0.32895 0.76258
 N285 N -0.20808 0.31025 0.76240
 C286 C -0.20849 0.29222 0.74236
 N287 N -0.18956 0.29388 0.72243
 N288 N -0.17117 0.31269 0.72250
 C289 C -0.15053 0.35122 0.74294
 N290 N -0.13412 0.35542 0.72126
 N291 N -0.11577 0.37426 0.72164
 C292 C -0.11306 0.38947 0.74377
 N293 N -0.12942 0.38521 0.76545
 N294 N -0.14787 0.36649 0.76501
 C295 C -0.09271 0.41010 0.74436
 N296 N -0.08732 0.42250 0.76773
 N297 N -0.06873 0.44107 0.76839
 C298 C -0.05497 0.44806 0.74566
 N299 N -0.06043 0.43575 0.72226
 N300 N -0.07891 0.41705 0.72164
 C301 C 0.24075 0.17131 0.33471
 N302 N 0.26255 0.17578 0.31878
 N303 N 0.26279 0.19462 0.30045
 C304 C 0.24131 0.20985 0.29738
 N305 N 0.21953 0.20540 0.31343
 N306 N 0.21923 0.18646 0.33170
 C307 C 0.24059 0.15041 0.35480
 N308 N 0.21811 0.14399 0.36896
 N309 N 0.21808 0.12494 0.38710
 C310 C 0.24057 0.11169 0.39179
 N311 N 0.26304 0.11816 0.37766
 N312 N 0.26304 0.13712 0.35945
 C313 C 0.24073 0.09085 0.41194
 N314 N 0.26382 0.07965 0.41858
 N315 N 0.26411 0.06096 0.43705
 C316 C 0.24130 0.05267 0.44948
 N317 N 0.21817 0.06378 0.44277
 N318 N 0.21789 0.08257 0.42436
 C319 C 0.75564 0.17355 0.66433
 N320 N 0.77689 0.18947 0.66782
 N321 N 0.77606 0.20832 0.68624
 C322 C 0.75398 0.21193 0.70197
 N323 N 0.73276 0.19593 0.69842
 N324 N 0.73354 0.17715 0.67994
 C325 C 0.75649 0.15273 0.64405
 N326 N 0.73442 0.13849 0.63884
 N327 N 0.73513 0.11960 0.62047
 C328 C 0.75797 0.11417 0.60671
 N329 N 0.78008 0.12838 0.61195
 N330 N 0.77933 0.14735 0.63024
 C331 C 0.75869 0.09331 0.58648
 N332 N 0.78195 0.08610 0.57451
 N333 N 0.78253 0.06716 0.55617
 C334 C 0.75986 0.05482 0.54907
 N335 N 0.73661 0.06206 0.56100
 N336 N 0.73605 0.08091 0.57941
 C337 C 0.24836 -0.16982 0.68017
 N338 N 0.22709 -0.18578 0.68444
 N339 N 0.22769 -0.20468 0.70268
 C340 C 0.24954 -0.20832 0.71746
 N341 N 0.27078 -0.19223 0.71322
 N342 N 0.27024 -0.17339 0.69488
 C343 C 0.24770 -0.14920 0.65982
 N344 N 0.26980 -0.13506 0.65325
 N345 N 0.26918 -0.11659 0.63453
 C346 C 0.24641 -0.11153 0.62178
 N347 N 0.22429 -0.12561 0.62842
 N348 N 0.22494 -0.14414 0.64705
 C349 C 0.24572 -0.09133 0.60098
 N350 N 0.22245 -0.08460 0.59009
 N351 N 0.22181 -0.06641 0.57110
 C352 C 0.24445 -0.05436 0.56221
 N353 N 0.26773 -0.06110 0.57308
 N354 N 0.26834 -0.07921 0.59216
 C355 C 0.76131 -0.17164 0.32146
 N356 N 0.76166 -0.19703 0.32882
 N357 N 0.76116 -0.21578 0.31034
 C358 C 0.75985 -0.20984 0.28385
 N359 N 0.75931 -0.18443 0.27647
 N360 N 0.76026 -0.16565 0.29494
 C361 C 0.76157 -0.15112 0.34197
 N362 N 0.77221 -0.12729 0.33638
 N363 N 0.77259 -0.10882 0.35521
 C364 C 0.76194 -0.11341 0.38014
 N365 N 0.75112 -0.13716 0.38563
 N366 N 0.75114 -0.15575 0.36696
 C367 C 0.76196 -0.09304 0.40082
 N368 N 0.74267 -0.09260 0.42034
 N369 N 0.74251 -0.07405 0.43907
 C370 C 0.76191 -0.05556 0.43924
 N371 N 0.78135 -0.05613 0.41985
 N372 N 0.78125 -0.07443 0.40084
 C373 C 0.67884 0.75237 -0.17217
 N374 N 0.68359 0.77388 -0.18742
 N375 N 0.70288 0.77412 -0.20622
 C376 C 0.71826 0.75293 -0.21044
 N377 N 0.71348 0.73145 -0.19508
 N378 N 0.69413 0.73116 -0.17636
 C379 C 0.65752 0.75199 -0.15152
 N380 N 0.65110 0.72966 -0.13821
 N381 N 0.63174 0.72925 -0.11948
 C382 C 0.61817 0.75119 -0.11329
 N383 N 0.62462 0.77353 -0.12656
 N384 N 0.64390 0.77391 -0.14538
 C385 C 0.59697 0.75073 -0.09251
 N386 N 0.58524 0.77310 -0.08426
 N387 N 0.56617 0.77267 -0.06523
 C388 C 0.55805 0.74984 -0.05385
 N389 N 0.56972 0.72747 -0.06215
 N390 N 0.58887 0.72791 -0.08110
 C391 C 0.32321 0.25378 -0.17055
 N392 N 0.31877 0.23228 -0.18570
 N393 N 0.30014 0.23217 -0.20409
 C394 C 0.28513 0.25351 -0.20799
 N395 N 0.28956 0.27498 -0.19272
 N396 N 0.30828 0.27514 -0.17439
 C397 C 0.34388 0.25386 -0.15042
 N398 N 0.35024 0.27603 -0.13707
 N399 N 0.36912 0.27606 -0.11891
 C400 C 0.38224 0.25390 -0.11338
 N401 N 0.37583 0.23173 -0.12669
 N402 N 0.35704 0.23172 -0.14492
 C403 C 0.40298 0.25386 -0.09333
 N404 N 0.41424 0.23122 -0.08595
 N405 N 0.43297 0.23112 -0.06765
 C406 C 0.44121 0.25367 -0.05617
 N407 N 0.43001 0.27632 -0.06361
 N408 N 0.41120 0.27641 -0.08182
 C409 C 0.32818 0.74453 0.18052
 N410 N 0.31050 0.72450 0.18233
 N411 N 0.29140 0.72436 0.20133
 C412 C 0.28927 0.74415 0.21943
 N413 N 0.30714 0.76412 0.21755
 N414 N 0.32614 0.76435 0.19846
 C415 C 0.34911 0.74486 0.15946
 N416 N 0.36435 0.76649 0.15527
 N417 N 0.38325 0.76688 0.13606
 C418 C 0.38770 0.74561 0.12045
 N419 N 0.37251 0.72395 0.12469
 N420 N 0.35351 0.72361 0.14380
 C421 C 0.40853 0.74608 0.09929
 N422 N 0.41548 0.72392 0.08614
 N423 N 0.43441 0.72437 0.06696
 C424 C 0.44694 0.74701 0.06011
 N425 N 0.43994 0.76918 0.07321
 N426 N 0.42113 0.76871 0.09251
 C427 C 0.66463 0.25109 0.17155
 N428 N 0.67984 0.27250 0.17609
 N429 N 0.69921 0.27177 0.19367
 C430 C 0.70404 0.24964 0.20750
 N431 N 0.68863 0.22830 0.20305
 N432 N 0.66933 0.22899 0.18540
 C433 C 0.64391 0.25160 0.15149
 N434 N 0.63063 0.22946 0.14493
 N435 N 0.61229 0.22975 0.12624
 C436 C 0.60651 0.25220 0.11347
 N437 N 0.61969 0.27437 0.12011
 N438 N 0.63811 0.27406 0.13874
 C439 C 0.58652 0.25243 0.09265
 N440 N 0.57925 0.27515 0.08129
 N441 N 0.56118 0.27532 0.06232
 C442 C 0.54981 0.25277 0.05394
 N443 N 0.55711 0.23005 0.06526
 N444 N 0.57512 0.22989 0.08429
 C445 C -0.16481 0.67540 0.74738
 N446 N -0.18325 0.67695 0.76762
 N447 N -0.20127 0.69562 0.76780
 C448 C -0.20154 0.71366 0.74786
 N449 N -0.18291 0.71208 0.72766
 N450 N -0.16497 0.69329 0.72737
 C451 C -0.14508 0.65468 0.74722
 N452 N -0.12908 0.65059 0.72529
 N453 N -0.11132 0.63165 0.72519
 C454 C -0.10881 0.61622 0.74707
 N455 N -0.12476 0.62038 0.76901
 N456 N -0.14262 0.63920 0.76906
 C457 C -0.08918 0.59542 0.74709
 N458 N -0.08404 0.58260 0.77015
 N459 N -0.06612 0.56383 0.77027
 C460 C -0.05282 0.55705 0.74729
 N461 N -0.05803 0.56979 0.72419
 N462 N -0.07583 0.58869 0.72411
 C463 C -0.17515 0.32591 0.24292
 N464 N -0.20128 0.33165 0.24440
 N465 N -0.21955 0.31275 0.24411
 C466 C -0.21231 0.28742 0.24279
 N467 N -0.18616 0.28168 0.24150
 N468 N -0.16790 0.30060 0.24135
 C469 C -0.15507 0.34670 0.24333
 N470 N -0.13081 0.34323 0.23156
 N471 N -0.11255 0.36214 0.23203
 C472 C -0.11777 0.38501 0.24465
 N473 N -0.14197 0.38841 0.25657
 N474 N -0.16037 0.36967 0.25573
 C475 C -0.09749 0.40557 0.24577
 N476 N -0.09755 0.42278 0.26648
 N477 N -0.07886 0.44119 0.26782
 C478 C -0.05970 0.44331 0.24826
 N479 N -0.05977 0.42626 0.22740
 N480 N -0.07823 0.40757 0.22629
 C481 C 0.16883 0.33151 0.75064
 N482 N 0.18357 0.32784 0.77266
 N483 N 0.20169 0.30926 0.77292
 C484 C 0.20570 0.29354 0.75124
 N485 N 0.19086 0.29725 0.72925
 N486 N 0.17283 0.31590 0.72893
 C487 C 0.14886 0.35199 0.75032
 N488 N 0.13627 0.35760 0.72734
 N489 N 0.11815 0.37618 0.72702
 C490 C 0.11186 0.38974 0.74970
 N491 N 0.12442 0.38409 0.77270
 N492 N 0.14264 0.36559 0.77298
 C493 C 0.09180 0.41012 0.74938
 N494 N 0.08327 0.42156 0.77260
 N495 N 0.06498 0.43998 0.77231
 C496 C 0.05465 0.44771 0.74878
 N497 N 0.06323 0.43632 0.72555
 N498 N 0.08143 0.41781 0.72585
 C499 C 0.17018 0.66584 0.26050
 N500 N 0.17292 0.68170 0.28211
 N501 N 0.19162 0.70021 0.28204
 C502 C 0.20837 0.70352 0.26043
 N503 N 0.20560 0.68754 0.23889
 N504 N 0.18685 0.66911 0.23890
 C505 C 0.14940 0.64562 0.26026
 N506 N 0.14511 0.63172 0.23755
 N507 N 0.12616 0.61352 0.23709
 C508 C 0.11085 0.60844 0.25935
 N509 N 0.11517 0.62228 0.28212
 N510 N 0.13408 0.64059 0.28255
 C511 C 0.08991 0.58842 0.25858
 N512 N 0.07607 0.58132 0.28125
 N513 N 0.05711 0.56309 0.28033
 C514 C 0.05126 0.55141 0.25669
 N515 N 0.06507 0.55856 0.23406
 N516 N 0.08407 0.57668 0.23500
 C517 C 0.76275 -0.16895 0.66957
 N518 N 0.78400 -0.18440 0.67286
 N519 N 0.78339 -0.20295 0.69155
 C520 C 0.76158 -0.20671 0.70775
 N521 N 0.74038 -0.19116 0.70441
 N522 N 0.74093 -0.17270 0.68567
 C523 C 0.76317 -0.14859 0.64890
 N524 N 0.74093 -0.13508 0.64397
 N525 N 0.74112 -0.11670 0.62515
 C526 C 0.76358 -0.11105 0.61063
 N527 N 0.78587 -0.12450 0.61559
 N528 N 0.78566 -0.14298 0.63436
 C529 C 0.76355 -0.09087 0.58978
 N530 N 0.78635 -0.08326 0.57682
 N531 N 0.78611 -0.06499 0.55785
 C532 C 0.76304 -0.05377 0.55110
 N533 N 0.74027 -0.06142 0.56404
 N534 N 0.74053 -0.07957 0.58307
 C535 C 0.24560 -0.17616 0.33679
 N536 N 0.26760 -0.17996 0.32110
 N537 N 0.26823 -0.19892 0.30284
 C538 C 0.24695 -0.21491 0.29960
 N539 N 0.22497 -0.21112 0.31542
 N540 N 0.22428 -0.19207 0.33362
 C541 C 0.24497 -0.15514 0.35680
 N542 N 0.22228 -0.14957 0.37078
 N543 N 0.22179 -0.13040 0.38885
 C544 C 0.24400 -0.11620 0.39367
 N545 N 0.26668 -0.12182 0.37973
 N546 N 0.26714 -0.14090 0.36159
 C547 C 0.24359 -0.09517 0.41367
 N548 N 0.26636 -0.08277 0.42030
 N549 N 0.26610 -0.06380 0.43857
 C550 C 0.24303 -0.05646 0.45079
 N551 N 0.22022 -0.06880 0.44410
 N552 N 0.22051 -0.08785 0.42590
 C553 C 0.75466 0.16440 0.31632
 N554 N 0.77596 0.18015 0.31122
 N555 N 0.77479 0.19920 0.29319
 C556 C 0.75233 0.20318 0.27947
 N557 N 0.73112 0.18723 0.28448
 N558 N 0.73225 0.16824 0.30257
 C559 C 0.75561 0.14405 0.33691
 N560 N 0.73349 0.13018 0.34406
 N561 N 0.73416 0.11220 0.36325
 C562 C 0.75701 0.10738 0.37595
 N563 N 0.77916 0.12116 0.36872
 N564 N 0.77846 0.13921 0.34959
 C565 C 0.75770 0.08780 0.39735
 N566 N 0.78093 0.08165 0.40866
 N567 N 0.78156 0.06398 0.42817
 C568 C 0.75898 0.05191 0.43716
 N569 N 0.73574 0.05809 0.42589
 N570 N 0.73511 0.07569 0.40631
 C571 C 0.24341 0.17326 0.67478
 N572 N 0.22203 0.18864 0.67878
 N573 N 0.22238 0.20769 0.69697
 C574 C 0.24407 0.21200 0.71196
 N575 N 0.26542 0.19652 0.70792
 N576 N 0.26512 0.17757 0.68965
 C577 C 0.24312 0.15229 0.65474
 N578 N 0.26546 0.13885 0.64873
 N579 N 0.26528 0.11984 0.63051
 C580 C 0.24271 0.11350 0.61773
 N581 N 0.22034 0.12690 0.62379
 N582 N 0.22055 0.14600 0.64192
 C583 C 0.24258 0.09257 0.59765
 N584 N 0.21956 0.08426 0.58692
 N585 N 0.21950 0.06529 0.56864
 C586 C 0.24248 0.05403 0.56036
 N587 N 0.26550 0.06236 0.57106
 N588 N 0.26554 0.08124 0.58943
   
