data_POSCAR
  _audit_creation_date              2014-09-24
  _audit_creation_method            'ToBaCCo'
  _symmetry_space_group_name_H-M    'P1'
  _symmetry_Int_Tables_number       1
  _symmetry_cell_setting            triclinic
  loop_
  _symmetry_equiv_pos_as_xyz
 x,y,z
_cell_length_a 19.6792
_cell_length_b 19.9111
_cell_length_c 33.1048
_cell_angle_alpha 90.958600
_cell_angle_beta 91.539500
_cell_angle_gamma 89.488700
loop_
  _atom_site_label
  _atom_site_type_symbol
  _atom_site_fract_x
  _atom_site_fract_y
  _atom_site_fract_z
O1 O -0.05180 0.56455 0.95968
 O2 O -0.05786 0.43565 1.03774
 O3 O -0.05641 0.56659 1.03805
 O4 O -0.05204 0.43370 0.95921
 O5 O 0.05989 0.42983 0.96532
 O6 O 0.05571 0.56687 1.04106
 O7 O 0.05396 0.43578 1.04334
 O8 O 0.06028 0.56088 0.96272
 Cu9 Cu -0.06576 0.50026 0.99824
 Cu10 Cu 0.06868 0.49824 1.00356
 C11 C 0.00520 0.58480 0.94779
 C12 C -0.00307 0.41339 1.05398
 C13 C -0.00098 0.59017 1.05258
 C14 C 0.00473 0.40836 0.94929
 O15 O 0.43706 0.05531 0.53952
 O16 O 0.56610 0.05634 0.46104
 O17 O 0.43370 0.05802 0.46083
 O18 O 0.56973 0.05356 0.53945
 O19 O 0.57090 -0.05714 0.53578
 O20 O 0.43067 -0.05280 0.46007
 O21 O 0.56279 -0.05415 0.45697
 O22 O 0.43826 -0.05547 0.53798
 Cu23 Cu 0.50173 0.06691 0.50050
 Cu24 Cu 0.50084 -0.06600 0.49749
 C25 C 0.41536 -0.00029 0.55210
 C26 C 0.58637 0.00131 0.44529
 C27 C 0.40823 0.00330 0.44751
 C28 C 0.59419 -0.00256 0.55073
 C29 C 0.12781 0.01845 0.26866
 H30 H 0.13294 0.02339 0.23639
 C31 C 0.18566 0.01916 0.29408
 H32 H 0.23542 0.02439 0.28134
 C33 C 0.05695 0.00551 0.32473
 H34 H 0.00688 0.00134 0.33685
 C35 C 0.11345 0.00443 0.35107
 H36 H 0.10639 -0.00108 0.38318
 N37 N 0.06494 0.01123 0.28422
 C38 C -0.06592 -0.08665 0.19274
 H39 H -0.11141 -0.05618 0.19472
 C40 C -0.06584 -0.14324 0.16727
 H41 H -0.11065 -0.15384 0.14866
 C42 C 0.04679 -0.11032 0.21522
 H43 H 0.09033 -0.09822 0.23435
 C44 C 0.04883 -0.16781 0.19051
 H45 H 0.09410 -0.19909 0.19121
 Zn46 Zn -0.01256 0.00879 0.24841
 N47 N -0.00954 -0.07017 0.21530
 C48 C -0.05831 0.09064 0.18365
 N49 N -0.01391 0.08691 0.21577
 C50 C 0.02951 0.13819 0.22484
 C51 C 0.03107 0.19464 0.20039
 C52 C -0.05855 0.14616 0.15846
 C53 C -0.10378 -0.04992 0.30054
 C54 C -0.15924 -0.05254 0.32584
 C55 C -0.19336 0.05795 0.30355
 C56 C -0.13652 0.05890 0.27919
 N57 N -0.09255 0.00587 0.27867
 H58 H -0.09343 0.05046 0.17720
 H59 H 0.06293 0.13573 0.25118
 H60 H 0.06604 0.23481 0.20813
 H61 H -0.09312 0.14709 0.13247
 H62 H -0.06810 -0.09152 0.29937
 H63 H -0.16497 -0.09619 0.34444
 H64 H -0.22770 0.10071 0.30339
 H65 H -0.12693 0.10252 0.26127
 C66 C -0.00766 -0.18452 0.16560
 C67 C 0.17863 0.01112 0.33572
 C68 C -0.20468 0.00226 0.32803
 C69 C -0.01296 0.19885 0.16644
 C70 C 0.00294 0.13170 0.77109
 H71 H -0.00348 0.13680 0.73882
 C72 C 0.00133 0.18911 0.79596
 H73 H -0.00502 0.23814 0.78261
 C74 C 0.01622 0.06221 0.82818
 H75 H 0.02000 0.01296 0.84105
 C76 C 0.01648 0.11826 0.85402
 H77 H 0.02135 0.11147 0.88637
 N78 N 0.01078 0.06962 0.78739
 C79 C 0.13751 -0.05496 0.72062
 H80 H 0.13292 -0.09580 0.74130
 C81 C 0.19290 -0.05416 0.69516
 H82 H 0.23098 -0.09358 0.69752
 C83 C 0.09328 0.04473 0.69170
 H84 H 0.05328 0.08199 0.68950
 C85 C 0.14769 0.04732 0.66555
 H86 H 0.14895 0.08704 0.64365
 Zn87 Zn 0.01231 -0.00779 0.75245
 N88 N 0.08933 -0.00553 0.71886
 C89 C -0.06688 -0.04931 0.68530
 N90 N -0.06648 -0.00805 0.71844
 C91 C -0.12055 0.03241 0.72674
 C92 C -0.17762 0.03318 0.70073
 C93 C -0.12297 -0.05031 0.65856
 C94 C 0.06754 -0.09850 0.81003
 C95 C 0.06814 -0.15438 0.83494
 C96 C -0.03957 -0.18765 0.80459
 C97 C -0.03834 -0.13085 0.78044
 N98 N 0.01442 -0.08725 0.78377
 H99 H -0.02318 -0.08101 0.67947
 H100 H -0.11964 0.06397 0.75362
 H101 H -0.22033 0.06548 0.70790
 H102 H -0.12179 -0.08254 0.63192
 H103 H 0.10883 -0.06300 0.81232
 H104 H 0.10983 -0.16089 0.85656
 H105 H -0.08204 -0.22168 0.80135
 H106 H -0.08015 -0.12122 0.75947
 C107 C 0.19852 -0.00260 0.66706
 C108 C 0.00901 0.18255 0.83791
 C109 C 0.01374 -0.19961 0.83271
 C110 C -0.17917 -0.00834 0.66600
 C111 C 0.05655 -0.31654 0.09135
 C112 C -0.00232 -0.35402 0.08262
 C113 C -0.06266 -0.33653 0.10208
 C114 C -0.06419 -0.28239 0.12951
 C115 C -0.00559 -0.24395 0.13772
 C116 C 0.05484 -0.26194 0.11836
 H117 H 0.10371 -0.32845 0.07659
 H118 H -0.10873 -0.36480 0.09619
 H119 H -0.11128 -0.27091 0.14440
 H120 H 0.10063 -0.23289 0.12332
 C121 C 0.05456 0.33648 0.10088
 C122 C -0.00559 0.36309 0.08321
 C123 C -0.06834 0.33680 0.09468
 C124 C -0.07071 0.28443 0.12216
 C125 C -0.01057 0.25699 0.13899
 C126 C 0.05203 0.28412 0.12839
 H127 H 0.10390 0.35520 0.09298
 H128 H -0.11588 0.35602 0.08210
 H129 H -0.11979 0.26532 0.13023
 H130 H 0.09931 0.26360 0.14053
 C131 C 0.33827 0.05933 0.60034
 C132 C 0.36201 -0.00091 0.58280
 C133 C 0.33268 -0.06176 0.59390
 C134 C 0.28013 -0.06230 0.62144
 C135 C 0.25580 -0.00202 0.63868
 C136 C 0.28583 0.05877 0.62801
 H137 H 0.35995 0.10704 0.59253
 H138 H 0.34950 -0.10904 0.58078
 H139 H 0.25748 -0.10990 0.62848
 H140 H 0.26897 0.10598 0.64118
 C141 C -0.32462 0.05548 0.59912
 C142 C -0.34921 -0.00430 0.58113
 C143 C -0.31828 -0.06559 0.59190
 C144 C -0.26346 -0.06697 0.61963
 C145 C -0.23853 -0.00714 0.63735
 C146 C -0.26999 0.05405 0.62696
 H147 H -0.34723 0.10354 0.59145
 H148 H -0.33606 -0.11255 0.57866
 H149 H -0.24080 -0.11496 0.62742
 H150 H -0.25142 0.10104 0.63973
 C151 C 0.06905 -0.34405 0.90006
 C152 C 0.00724 -0.36243 0.91688
 C153 C -0.05260 -0.32847 0.90478
 C154 C -0.05053 -0.27637 0.87713
 C155 C 0.01137 -0.25724 0.86065
 C156 C 0.07106 -0.29218 0.87216
 H157 H 0.11598 -0.36953 0.90860
 H158 H -0.10100 -0.34115 0.91733
 H159 H -0.09729 -0.24987 0.86952
 H160 H 0.11941 -0.27948 0.85958
 C161 C -0.04685 0.34261 0.89116
 C162 C 0.00677 0.35242 0.91948
 C163 C 0.06191 0.30711 0.91990
 C164 C 0.06263 0.25208 0.89321
 C165 C 0.00900 0.24218 0.86502
 C166 C -0.04534 0.28830 0.86381
 H167 H -0.08984 0.37694 0.89016
 H168 H 0.10374 0.31331 0.94154
 H169 H 0.10511 0.21713 0.89451
 H170 H -0.08735 0.28129 0.84238
 C171 C -0.34453 -0.05807 0.39548
 C172 C -0.36449 0.00181 0.41524
 C173 C -0.33319 0.06216 0.40474
 C174 C -0.28207 0.06229 0.37627
 C175 C -0.26158 0.00236 0.35687
 C176 C -0.29422 -0.05766 0.36646
 H177 H -0.36778 -0.10553 0.40230
 H178 H -0.34679 0.10938 0.41925
 H179 H -0.25739 0.10934 0.37036
 H180 H -0.28098 -0.10459 0.35157
 C181 C 0.34092 0.05984 0.39227
 C182 C 0.35104 0.00471 0.41777
 C183 C 0.30495 -0.04876 0.41537
 C184 C 0.24893 -0.04650 0.38864
 C185 C 0.23885 0.00853 0.36319
 C186 C 0.28564 0.06134 0.36481
 H187 H 0.37587 0.10159 0.39348
 H188 H 0.31138 -0.09168 0.43483
 H189 H 0.21345 -0.08782 0.38769
 H190 H 0.27850 0.10431 0.34547
   
