data_POSCAR
  _audit_creation_date              2014-09-24
  _audit_creation_method            'ToBaCCo'
  _symmetry_space_group_name_H-M    'P1'
  _symmetry_Int_Tables_number       1
  _symmetry_cell_setting            triclinic
  loop_
  _symmetry_equiv_pos_as_xyz
 x,y,z
_cell_length_a 28.1780
_cell_length_b 28.0271
_cell_length_c 28.2725
_cell_angle_alpha 90.172500
_cell_angle_beta 90.047100
_cell_angle_gamma 90.039400
loop_
  _atom_site_label
  _atom_site_type_symbol
  _atom_site_fract_x
  _atom_site_fract_y
  _atom_site_fract_z
C1 C 0.36548 0.97015 -0.48145
 C2 C 0.36577 0.96473 -0.52970
 C3 C 0.40799 0.98441 -0.54556
 N4 N 0.43382 1.00088 -0.50862
 C5 C 0.40777 0.99243 -0.46944
 C6 C 0.42190 0.98900 -0.59340
 C7 C 0.46947 0.99991 -0.60496
 C8 C 0.48393 1.02232 -0.64622
 C9 C 0.53254 1.02222 -0.64594
 C10 C 0.54643 0.99985 -0.60447
 N11 N 0.50779 0.98738 -0.57903
 C12 C 0.59384 0.98904 -0.59224
 C13 C 0.60735 0.98560 -0.54415
 C14 C 0.64979 0.96720 -0.52737
 C15 C 0.64944 0.97360 -0.47923
 C16 C 0.60648 0.99492 -0.46816
 N17 N 0.58072 1.00207 -0.50782
 C18 C 0.59296 1.01050 -0.42257
 C19 C 0.54517 1.02076 -0.41076
 C20 C 0.53039 1.04423 -0.37012
 C21 C 0.48145 1.04349 -0.37036
 C22 C 0.46767 1.01954 -0.41112
 N23 N 0.50673 1.00594 -0.43555
 C24 C 0.42029 1.00787 -0.42348
 H25 H 0.33742 0.95884 -0.45789
 H26 H 0.33811 0.94810 -0.55060
 H27 H 0.50718 0.98329 -0.46480
 H28 H 0.46170 1.03696 -0.67383
 H29 H 0.55517 1.03675 -0.67327
 H30 H 0.67804 0.95080 -0.54756
 H31 H 0.67747 0.96344 -0.45509
 H32 H 0.45866 1.05846 -0.34334
 H33 H 0.50762 0.96651 -0.54853
 H34 H 0.55253 1.05982 -0.34286
 C35 C -0.47407 1.35000 0.02912
 C36 C -0.52229 1.35129 0.02359
 C37 C -0.53487 1.39898 0.01871
 N38 N -0.49542 1.42650 0.01995
 C39 C -0.45837 1.39677 0.02684
 C40 C -0.58124 1.41590 0.00822
 C41 C -0.59211 1.46532 0.00403
 C42 C -0.63513 1.48381 -0.01175
 C43 C -0.63327 1.53226 -0.00555
 C44 C -0.58971 1.54244 0.01477
 N45 N -0.56481 1.50165 0.02042
 C46 C -0.57609 1.58799 0.03148
 C47 C -0.52888 1.60011 0.04309
 C48 C -0.51517 1.64232 0.06471
 C49 C -0.46658 1.64126 0.06746
 C50 C -0.45214 1.59860 0.04696
 N51 N -0.49039 1.57344 0.03223
 C52 C -0.40431 1.58404 0.04082
 C53 C -0.39230 1.53601 0.02964
 C54 C -0.34879 1.52134 0.01170
 C55 C -0.35010 1.47259 0.00863
 C56 C -0.39498 1.45852 0.02300
 N57 N -0.42051 1.49735 0.03596
 C58 C -0.41021 1.41057 0.02612
 H59 H -0.45293 1.31796 0.03239
 H60 H -0.54487 1.32016 0.02151
 H61 H -0.45325 1.49691 0.05291
 H62 H -0.66590 1.46490 -0.02475
 H63 H -0.66161 1.55697 -0.01367
 H64 H -0.53782 1.67082 0.07730
 H65 H -0.44443 1.66867 0.08307
 H66 H -0.32113 1.45039 -0.00334
 H67 H -0.53401 1.49854 0.04032
 H68 H -0.31890 1.54333 0.00170
 C69 C -0.00624 0.35407 0.51196
 C70 C -0.00841 0.35512 0.46365
 C71 C -0.02489 0.40005 0.45120
 N72 N -0.03418 0.42583 0.49083
 C73 C -0.02313 0.39765 0.52806
 C74 C -0.03601 0.41501 0.40442
 C75 C -0.04729 0.46323 0.39376
 C76 C -0.06525 0.47991 0.35100
 C77 C -0.06463 0.52891 0.35313
 C78 C -0.04544 0.54106 0.39658
 N79 N -0.03523 0.50102 0.42113
 C80 C -0.03325 0.58782 0.41079
 C81 C -0.02064 0.59903 0.45772
 C82 C 0.00194 0.64064 0.47167
 C83 C 0.00431 0.63938 0.51998
 C84 C -0.01753 0.59729 0.53392
 N85 N -0.03233 0.57236 0.49573
 C86 C -0.02688 0.58416 0.58128
 C87 C -0.03557 0.53580 0.59357
 C88 C -0.05735 0.52074 0.63489
 C89 C -0.05856 0.47172 0.63334
 C90 C -0.03747 0.45787 0.59110
 N91 N -0.02391 0.49722 0.56686
 C92 C -0.03062 0.40976 0.57637
 H93 H 0.00592 0.32415 0.53279
 H94 H 0.00047 0.32546 0.44085
 H95 H -0.00420 0.49758 0.53570
 H96 H -0.07601 0.45956 0.32032
 H97 H -0.07534 0.55278 0.32507
 H98 H 0.01527 0.66895 0.44935
 H99 H 0.01996 0.66655 0.54238
 H100 H -0.07401 0.44889 0.66003
 H101 H -0.01495 0.49965 0.45184
 H102 H -0.07177 0.54275 0.66291
 O103 O -0.11491 1.00146 -0.06824
 O104 O 0.12905 0.99775 -0.06863
 O105 O 0.00531 1.06493 -0.12768
 O106 O 0.00778 0.93426 -0.12731
 O107 O 0.00839 0.87716 -0.06861
 O108 O 0.00760 1.12258 -0.06928
 O109 O 0.07218 0.99826 -0.12744
 O110 O -0.05823 1.00160 -0.12721
 Zr111 Zr 0.00704 0.99986 -0.08937
 O112 O 0.04964 0.95655 -0.04833
 O113 O -0.03554 1.04343 -0.04845
 C114 C -0.10195 1.00161 -0.11226
 C115 C 0.11598 0.99700 -0.11263
 C116 C 0.00599 1.10904 -0.11314
 C117 C 0.00896 0.89030 -0.11251
 H118 H 0.07105 1.06296 -0.06816
 O119 O 0.05040 1.04264 -0.04836
 H120 H -0.05632 0.93682 -0.06779
 O121 O -0.03586 0.95739 -0.04792
 O122 O 0.12927 1.00091 0.05928
 O123 O -0.11448 1.00020 0.05984
 O124 O 0.07239 1.12233 -0.00340
 O125 O 0.07071 0.87677 -0.00623
 O126 O -0.05850 0.87798 -0.00260
 O127 O -0.05576 1.12314 -0.00911
 O128 O 0.01071 1.06503 0.11596
 O129 O 0.00499 0.93543 0.11632
 O130 O 0.00859 1.12318 0.05823
 O131 O 0.00577 0.87750 0.05822
 O132 O 0.12948 1.06336 -0.00125
 O133 O -0.11421 1.06547 -0.00613
 O134 O -0.11518 0.93728 -0.00308
 O135 O 0.12847 0.93513 -0.00770
 O136 O 0.07083 1.00241 0.11622
 O137 O -0.05573 1.00089 0.11661
 Zr138 Zr 0.09038 0.99950 -0.00509
 Zr139 Zr -0.07597 1.00087 -0.00479
 Zr140 Zr 0.00795 1.08392 -0.00568
 Zr141 Zr 0.00655 0.91624 -0.00519
 Zr142 Zr 0.00738 1.00024 0.07772
 O143 O -0.03620 0.95707 0.03794
 O144 O 0.05043 1.04319 0.03746
 C145 C 0.11474 1.00313 0.10289
 C146 C -0.09972 1.00088 0.10347
 C147 C 0.11587 1.10750 -0.00041
 C148 C 0.11456 0.89105 -0.00798
 C149 C -0.10218 0.89297 -0.00202
 C150 C -0.09965 1.10927 -0.00866
 C151 C 0.01047 1.10906 0.10186
 C152 C 0.00497 0.89129 0.10199
 H153 H -0.05505 1.06462 0.05740
 O154 O -0.03499 1.04383 0.03741
 H155 H 0.07019 0.93644 0.05778
 O156 O 0.04989 0.95669 0.03756
 C157 C 0.36869 0.96001 0.28905
 C158 C 0.32458 0.98397 0.29092
 C159 C 0.31212 1.00669 0.33406
 C160 C 0.34361 1.00712 0.37257
 C161 C 0.38816 0.98497 0.36948
 C162 C 0.39972 0.96073 0.32746
 C163 C 0.26863 1.02977 0.33843
 C164 C 0.23675 1.03060 0.30110
 C165 C 0.24736 1.00873 0.25727
 C166 C 0.29251 0.98611 0.25166
 C167 C 0.30441 0.96723 0.20680
 C168 C 0.27289 0.96913 0.16906
 C169 C 0.22800 0.98921 0.17448
 C170 C 0.21444 1.00907 0.21873
 C171 C 0.16800 1.02769 0.22277
 C172 C 0.13662 1.02621 0.18484
 C173 C 0.15014 1.00661 0.14127
 C174 C 0.19623 0.98880 0.13603
 H175 H 0.38033 0.94009 0.25858
 H176 H 0.33423 1.02694 0.40421
 H177 H 0.43316 0.94189 0.32430
 H178 H 0.25901 1.04745 0.37122
 H179 H 0.20430 1.04970 0.30768
 H180 H 0.33832 0.95128 0.19930
 H181 H 0.28363 0.95415 0.13533
 H182 H 0.15409 1.04259 0.25502
 H183 H 0.10119 1.04029 0.18993
 H184 H 0.20684 0.97313 0.10255
 C185 C -0.35263 0.95717 0.29118
 C186 C -0.30840 0.98098 0.29271
 C187 C -0.29606 1.00482 0.33533
 C188 C -0.32766 1.00625 0.37368
 C189 C -0.37225 0.98408 0.37095
 C190 C -0.38380 0.95893 0.32941
 C191 C -0.25258 1.02804 0.33932
 C192 C -0.22072 1.02823 0.30202
 C193 C -0.23128 1.00545 0.25860
 C194 C -0.27618 0.98212 0.25354
 C195 C -0.28768 0.96152 0.20928
 C196 C -0.25623 0.96287 0.17150
 C197 C -0.21183 0.98425 0.17623
 C198 C -0.19855 1.00561 0.21992
 C199 C -0.15269 1.02584 0.22320
 C200 C -0.12162 1.02458 0.18507
 C201 C -0.13483 1.00344 0.14209
 C202 C -0.18030 0.98386 0.13759
 H203 H -0.36439 0.93672 0.26109
 H204 H -0.31836 1.02692 0.40483
 H205 H -0.41735 0.94021 0.32649
 H206 H -0.24300 1.04645 0.37175
 H207 H -0.18828 1.04746 0.30838
 H208 H -0.32121 0.94449 0.20226
 H209 H -0.26671 0.94662 0.13824
 H210 H -0.13906 1.04225 0.25487
 H211 H -0.08675 1.04035 0.18942
 H212 H -0.19064 0.96711 0.10452
 C213 C -0.29192 1.04850 -0.36378
 C214 C -0.29173 1.02140 -0.32157
 C215 C -0.33259 0.99352 -0.31158
 C216 C -0.37048 0.99102 -0.34390
 C217 C -0.36907 1.01661 -0.38627
 C218 C -0.32998 1.04604 -0.39540
 C219 C -0.33523 0.96763 -0.26972
 C220 C -0.29841 0.96885 -0.23712
 C221 C -0.25667 0.99552 -0.24545
 C222 C -0.25262 1.02103 -0.28902
 C223 C -0.20923 1.04424 -0.29907
 C224 C -0.17137 1.04322 -0.26745
 C225 C -0.17541 1.02013 -0.22401
 C226 C -0.21846 0.99672 -0.21201
 C227 C -0.22171 0.97603 -0.16657
 C228 C -0.18378 0.97784 -0.13506
 C229 C -0.14092 0.99985 -0.14740
 C230 C -0.13679 1.02074 -0.19219
 H231 H -0.26339 1.07216 -0.37334
 H232 H -0.40077 0.96830 -0.33663
 H233 H -0.32858 1.06666 -0.42773
 H234 H -0.36623 0.94609 -0.26197
 H235 H -0.30335 0.94717 -0.20616
 H236 H -0.20288 1.06266 -0.33183
 H237 H -0.13867 1.06118 -0.27696
 H238 H -0.25344 0.95911 -0.15363
 H239 H -0.18809 0.96164 -0.10062
 H240 H -0.10403 1.03858 -0.20178
 C241 C 0.30273 1.04069 -0.36653
 C242 C 0.30382 1.01493 -0.32356
 C243 C 0.34621 0.99006 -0.31227
 C244 C 0.38427 0.98850 -0.34441
 C245 C 0.38171 1.01266 -0.38759
 C246 C 0.34114 1.03965 -0.39774
 C247 C 0.35024 0.96636 -0.26922
 C248 C 0.31346 0.96730 -0.23658
 C249 C 0.27032 0.99103 -0.24627
 C250 C 0.26461 1.01333 -0.29132
 C251 C 0.21955 1.03200 -0.30310
 C252 C 0.18170 1.02996 -0.27156
 C253 C 0.18751 1.01088 -0.22641
 C254 C 0.23228 0.99221 -0.21276
 C255 C 0.23753 0.97657 -0.16560
 C256 C 0.19977 0.97838 -0.13394
 C257 C 0.15495 0.99488 -0.14793
 C258 C 0.14901 1.01100 -0.19449
 H259 H 0.27300 1.06252 -0.37677
 H260 H 0.41571 0.96782 -0.33620
 H261 H 0.33885 1.05941 -0.43054
 H262 H 0.38237 0.94703 -0.26047
 H263 H 0.31937 0.94747 -0.20453
 H264 H 0.21195 1.04716 -0.33726
 H265 H 0.14765 1.04423 -0.28242
 H266 H 0.27086 0.96432 -0.15144
 H267 H 0.20602 0.96703 -0.09796
 H268 H 0.11491 1.02505 -0.20546
 C269 C 0.32051 1.34588 -0.04672
 C270 C 0.30662 1.31566 -0.00919
 C271 C 0.33305 1.31793 0.03345
 C272 C 0.36934 1.35167 0.03912
 C273 C 0.38194 1.38222 0.00201
 C274 C 0.35788 1.37813 -0.04125
 C275 C 0.32325 1.28645 0.07023
 C276 C 0.28859 1.25163 0.06520
 C277 C 0.26096 1.24825 0.02366
 C278 C 0.26820 1.28259 -0.01290
 C279 C 0.23599 1.28362 -0.05117
 C280 C 0.19878 1.25121 -0.05434
 C281 C 0.19349 1.21529 -0.02073
 C282 C 0.22540 1.21242 0.01802
 C283 C 0.22113 1.17303 0.04895
 C284 C 0.18575 1.13892 0.04229
 C285 C 0.15308 1.14349 0.00541
 C286 C 0.15678 1.18177 -0.02592
 H287 H 0.30421 1.34430 -0.08121
 H288 H 0.38802 1.35424 0.07262
 H289 H 0.36826 1.39991 -0.07112
 H290 H 0.34315 1.28822 0.10303
 H291 H 0.28295 1.22891 0.09537
 H292 H 0.23762 1.31039 -0.07843
 H293 H 0.17443 1.25375 -0.08393
 H294 H 0.24553 1.16671 0.07763
 H295 H 0.18354 1.10901 0.06641
 H296 H 0.13193 1.18455 -0.05512
 C297 C 0.30986 0.65028 0.06520
 C298 C 0.30792 0.68833 0.03235
 C299 C 0.34787 0.69529 0.00256
 C300 C 0.38649 0.66373 0.00395
 C301 C 0.38647 0.62507 0.03499
 C302 C 0.34851 0.61916 0.06623
 C303 C 0.34872 0.73303 -0.02929
 C304 C 0.31085 0.76439 -0.03243
 C305 C 0.26991 0.75885 -0.00414
 C306 C 0.26788 0.71947 0.02791
 C307 C 0.22551 0.71192 0.05355
 C308 C 0.18687 0.74234 0.04900
 C309 C 0.18902 0.78201 0.01949
 C310 C 0.23071 0.79114 -0.00721
 C311 C 0.23172 0.83289 -0.03521
 C312 C 0.19338 0.86414 -0.03604
 C313 C 0.15245 0.85491 -0.00975
 C314 C 0.15001 0.81329 0.01734
 H315 H 0.28213 0.64340 0.09046
 H316 H 0.41603 0.66823 -0.02022
 H317 H 0.34827 0.58948 0.09069
 H318 H 0.37907 0.73838 -0.05224
 H319 H 0.31448 0.79208 -0.05846
 H320 H 0.22063 0.68210 0.07697
 H321 H 0.15512 0.73502 0.06938
 H322 H 0.26202 0.84345 -0.05583
 H323 H 0.19594 0.89611 -0.05715
 H324 H 0.11860 0.80637 0.03836
 C325 C -0.28724 0.64148 0.06655
 C326 C -0.28984 0.68398 0.03976
 C327 C -0.33345 0.69429 0.01692
 C328 C -0.37148 0.66198 0.01870
 C329 C -0.36753 0.61869 0.04325
 C330 C -0.32532 0.60962 0.06814
 C331 C -0.33876 0.73634 -0.00859
 C332 C -0.30177 0.76873 -0.01210
 C333 C -0.25731 0.76004 0.00932
 C334 C -0.25083 0.71643 0.03472
 C335 C -0.20531 0.70621 0.05312
 C336 C -0.16761 0.73772 0.04759
 C337 C -0.17376 0.78109 0.02438
 C338 C -0.21886 0.79319 0.00547
 C339 C -0.22376 0.83844 -0.01598
 C340 C -0.18564 0.86984 -0.01871
 C341 C -0.14103 0.85753 -0.00065
 C342 C -0.13514 0.81281 0.02053
 H343 H -0.25641 0.63179 0.08689
 H344 H -0.40352 0.66958 -0.00119
 H345 H -0.32168 0.57740 0.08893
 H346 H -0.37199 0.74433 -0.02626
 H347 H -0.30903 0.79983 -0.03311
 H348 H -0.19726 0.67345 0.07122
 H349 H -0.13329 0.72815 0.06208
 H350 H -0.25680 0.85142 -0.03004
 H351 H -0.19132 0.90429 -0.03498
 H352 H -0.10093 0.80330 0.03534
 C353 C -0.33159 1.31062 0.06913
 C354 C -0.30640 1.29752 0.02777
 C355 C -0.31473 1.32419 -0.01399
 C356 C -0.34932 1.36015 -0.01470
 C357 C -0.37384 1.37238 0.02655
 C358 C -0.36449 1.34775 0.06842
 C359 C -0.28827 1.31511 -0.05467
 C360 C -0.25254 1.28103 -0.05451
 C361 C -0.24331 1.25316 -0.01404
 C362 C -0.27261 1.25959 0.02674
 C363 C -0.26809 1.22714 0.06456
 C364 C -0.23503 1.19048 0.06322
 C365 C -0.20391 1.18595 0.02519
 C366 C -0.20660 1.21808 -0.01341
 C367 C -0.17166 1.21441 -0.04925
 C368 C -0.13658 1.17934 -0.04726
 C369 C -0.13601 1.14642 -0.01031
 C370 C -0.16968 1.14967 0.02576
 H371 H -0.32559 1.29386 0.10287
 H372 H -0.35664 1.37941 -0.04711
 H373 H -0.38307 1.35719 0.10065
 H374 H -0.29464 1.33521 -0.08675
 H375 H -0.23381 1.27600 -0.08738
 H376 H -0.29098 1.22806 0.09507
 H377 H -0.23326 1.16590 0.09272
 H378 H -0.16959 1.23904 -0.07839
 H379 H -0.11008 1.17754 -0.07498
 H380 H -0.16830 1.12467 0.05496
 C381 C -0.07672 1.33692 0.30538
 C382 C -0.03433 1.31338 0.29201
 C383 C 0.00723 1.32326 0.31860
 C384 C 0.00662 1.35754 0.35492
 C385 C -0.03554 1.38105 0.36733
 C386 C -0.07722 1.36980 0.34260
 C387 C 0.04918 1.29875 0.30899
 C388 C 0.05065 1.26358 0.27432
 C389 C 0.01040 1.25270 0.24654
 C390 C -0.03201 1.27977 0.25388
 C391 C -0.07021 1.27324 0.22215
 C392 C -0.06766 1.24040 0.18536
 C393 C -0.02776 1.21157 0.17968
 C394 C 0.01146 1.21642 0.21086
 C395 C 0.04967 1.18395 0.20559
 C396 C 0.04912 1.14906 0.17022
 C397 C 0.01115 1.14606 0.13861
 C398 C -0.02708 1.17743 0.14322
 H399 H -0.11040 1.32960 0.28878
 H400 H 0.03914 1.36599 0.37376
 H401 H -0.11060 1.38623 0.35249
 H402 H 0.08115 1.30632 0.32903
 H403 H 0.08450 1.24654 0.26899
 H404 H -0.10217 1.29426 0.22389
 H405 H -0.09764 1.23701 0.16152
 H406 H 0.07978 1.18362 0.22911
 H407 H 0.07867 1.12453 0.16726
 H408 H -0.05697 1.17424 0.11918
 C409 C -0.05667 1.29245 -0.36598
 C410 C -0.03002 1.29526 -0.32361
 C411 C -0.00627 1.33884 -0.31385
 C412 C -0.00749 1.37674 -0.34633
 C413 C -0.03218 1.37261 -0.38935
 C414 C -0.05766 1.33031 -0.39797
 C415 C 0.01929 1.34428 -0.27199
 C416 C 0.02190 1.30754 -0.23932
 C417 C -0.00058 1.26316 -0.24740
 C418 C -0.02621 1.25657 -0.29068
 C419 C -0.04632 1.21127 -0.29997
 C420 C -0.04228 1.17395 -0.26794
 C421 C -0.01863 1.18016 -0.22504
 C422 C 0.00219 1.22497 -0.21388
 C423 C 0.02448 1.22978 -0.16923
 C424 C 0.02594 1.19193 -0.13743
 C425 C 0.00570 1.14768 -0.14875
 C426 C -0.01616 1.14185 -0.19292
 H427 H -0.07753 1.26166 -0.37544
 H428 H 0.01260 1.40894 -0.33888
 H429 H -0.07894 1.32653 -0.42970
 H430 H 0.03761 1.37746 -0.26434
 H431 H 0.04282 1.31497 -0.20830
 H432 H -0.06490 1.20308 -0.33228
 H433 H -0.05821 1.13984 -0.27679
 H434 H 0.04044 1.26252 -0.15716
 H435 H 0.04314 1.19746 -0.10356
 H436 H -0.03247 1.10792 -0.20176
 C437 C -0.05199 0.70213 -0.36249
 C438 C -0.02660 0.69940 -0.31944
 C439 C -0.00504 0.65514 -0.30806
 C440 C -0.00676 0.61645 -0.33992
 C441 C -0.02944 0.62086 -0.38395
 C442 C -0.05318 0.66378 -0.39391
 C443 C 0.01907 0.64997 -0.26535
 C444 C 0.02258 0.68771 -0.23360
 C445 C 0.00254 0.73282 -0.24355
 C446 C -0.02188 0.73896 -0.28751
 C447 C -0.03988 0.78467 -0.29854
 C448 C -0.03527 0.82280 -0.26741
 C449 C -0.01288 0.81716 -0.22385
 C450 C 0.00633 0.77212 -0.21115
 C451 C 0.02805 0.76827 -0.16618
 C452 C 0.02967 0.80701 -0.13521
 C453 C 0.01024 0.85120 -0.14777
 C454 C -0.01027 0.85628 -0.19257
 H455 H -0.07148 0.73334 -0.37314
 H456 H 0.01187 0.58372 -0.33142
 H457 H -0.07296 0.66779 -0.42655
 H458 H 0.03562 0.61628 -0.25635
 H459 H 0.04209 0.68036 -0.20173
 H460 H -0.05730 0.79257 -0.33148
 H461 H -0.04978 0.85712 -0.27749
 H462 H 0.04335 0.73566 -0.15320
 H463 H 0.04603 0.80214 -0.10086
 H464 H -0.02578 0.89023 -0.20245
 C465 C -0.06041 0.70565 0.35132
 C466 C -0.03002 0.70490 0.31143
 C467 C -0.00275 0.66305 0.30352
 C468 C -0.00433 0.62494 0.33560
 C469 C -0.03364 0.62701 0.37541
 C470 C -0.06208 0.66727 0.38262
 C471 C 0.02628 0.65950 0.26385
 C472 C 0.02845 0.69622 0.23115
 C473 C 0.00219 0.73872 0.23732
 C474 C -0.02607 0.74389 0.27904
 C475 C -0.04856 0.78816 0.28742
 C476 C -0.04469 0.82566 0.25561
 C477 C -0.01934 0.82034 0.21361
 C478 C 0.00387 0.77653 0.20348
 C479 C 0.02702 0.77208 0.15931
 C480 C 0.02741 0.80956 0.12712
 C481 C 0.00530 0.85300 0.13772
 C482 C -0.01766 0.85841 0.18129
 H483 H -0.08380 0.73502 0.35907
 H484 H 0.01766 0.59369 0.32994
 H485 H -0.08542 0.66914 0.41301
 H486 H 0.04744 0.62777 0.25781
 H487 H 0.05223 0.69059 0.20189
 H488 H -0.06865 0.79546 0.31901
 H489 H -0.06235 0.85905 0.26372
 H490 H 0.04407 0.73970 0.14779
 H491 H 0.04522 0.80442 0.09355
 H492 H -0.03555 0.89171 0.18936
   
