data_POSCAR
  _audit_creation_date              2014-09-24
  _audit_creation_method            'ToBaCCo'
  _symmetry_space_group_name_H-M    'P1'
  _symmetry_Int_Tables_number       1
  _symmetry_cell_setting            triclinic
  loop_
  _symmetry_equiv_pos_as_xyz
 x,y,z
_cell_length_a 38.5751
_cell_length_b 37.3172
_cell_length_c 37.5913
_cell_angle_alpha 89.899600
_cell_angle_beta 89.966100
_cell_angle_gamma 89.904600
loop_
  _atom_site_label
  _atom_site_type_symbol
  _atom_site_fract_x
  _atom_site_fract_y
  _atom_site_fract_z
N1 N 0.18942 1.26177 0.16437
 N2 N 0.16720 1.26291 0.19092
 C3 C 0.14372 1.28895 0.18462
 C4 C 0.15203 1.30484 0.15260
 C5 C 0.18097 1.28707 0.14030
 H6 H 0.12190 1.29526 0.20159
 H7 H 0.19431 1.29158 0.11537
 Cu8 Cu 0.17034 1.22957 0.23056
 Cu9 Cu 0.22648 1.22636 0.16204
 Cu10 Cu 0.22688 1.16082 0.22734
 N11 N 0.16761 1.18973 0.26379
 N12 N 0.18999 1.16310 0.26264
 C13 C 0.18184 1.13892 0.28791
 C14 C 0.15294 1.15123 0.30565
 C15 C 0.14434 1.18338 0.28980
 H16 H 0.19539 1.11392 0.29245
 H17 H 0.12249 1.20042 0.29615
 N18 N 0.26196 1.16321 0.18928
 N19 N 0.26179 1.18822 0.16435
 C20 C 0.28771 1.18160 0.14122
 C21 C 0.30483 1.15116 0.15228
 C22 C 0.28799 1.14003 0.18265
 H23 H 0.29306 1.19701 0.11745
 H24 H 0.29361 1.11619 0.19801
 H25 H 0.19826 1.18826 0.18959
 H26 H 0.23038 1.21487 0.21573
 N27 N 0.81112 0.73954 0.16633
 N28 N 0.83536 0.74034 0.19093
 C29 C 0.85881 0.71443 0.18413
 C30 C 0.84850 0.69661 0.15389
 C31 C 0.81829 0.71310 0.14312
 H32 H 0.88220 0.70961 0.19924
 H33 H 0.80337 0.70713 0.11953
 Cu34 Cu 0.83520 0.77684 0.22778
 Cu35 Cu 0.77364 0.77453 0.16463
 Cu36 Cu 0.77298 0.83990 0.23018
 N37 N 0.83459 0.81355 0.26443
 N38 N 0.81011 0.83813 0.26524
 C39 C 0.81677 0.86132 0.29178
 C40 C 0.84689 0.85049 0.30831
 C41 C 0.85772 0.82030 0.29041
 H42 H 0.80159 0.88496 0.29773
 H43 H 0.88125 0.80525 0.29519
 N44 N 0.73767 0.83716 0.19240
 N45 N 0.73791 0.81225 0.16745
 C46 C 0.71179 0.81872 0.14451
 C47 C 0.69448 0.84896 0.15572
 C48 C 0.71140 0.86011 0.18596
 H49 H 0.70646 0.80341 0.12075
 H50 H 0.70569 0.88387 0.20132
 H51 H 0.80031 0.81547 0.18948
 H52 H 0.77329 0.78589 0.21832
 N53 N 0.80749 1.26167 -0.16403
 N54 N 0.82853 1.26471 -0.19142
 C55 C 0.85147 1.29111 -0.18502
 C56 C 0.84416 1.30521 -0.15198
 C57 C 0.81626 1.28605 -0.13928
 H58 H 0.87236 1.29882 -0.20264
 H59 H 0.80386 1.28903 -0.11364
 Cu60 Cu 0.82512 1.23277 -0.23197
 Cu61 Cu 0.77140 1.22533 -0.16182
 Cu62 Cu 0.77255 1.16092 -0.22786
 N63 N 0.83001 1.19295 -0.26477
 N64 N 0.80936 1.16496 -0.26312
 C65 C 0.81915 1.14092 -0.28784
 C66 C 0.84731 1.15475 -0.30572
 C67 C 0.85374 1.18770 -0.29057
 H68 H 0.80725 1.11501 -0.29188
 H69 H 0.87451 1.20601 -0.29715
 N70 N 0.73748 1.16177 -0.18971
 N71 N 0.73711 1.18638 -0.16448
 C72 C 0.71102 1.17923 -0.14175
 C73 C 0.69433 1.14885 -0.15337
 C74 C 0.71162 1.13829 -0.18367
 H75 H 0.70503 1.19444 -0.11806
 H76 H 0.70622 1.11483 -0.19957
 H77 H 0.80081 1.18939 -0.19086
 H78 H 0.76647 1.21463 -0.21565
 N79 N 0.19229 0.73554 -0.16767
 N80 N 0.17053 0.73430 -0.19457
 C81 C 0.14665 0.70876 -0.18833
 C82 C 0.15411 0.69325 -0.15592
 C83 C 0.18308 0.71074 -0.14340
 H84 H 0.12505 0.70257 -0.20559
 H85 H 0.19588 0.70641 -0.11816
 Cu86 Cu 0.17444 0.76724 -0.23433
 Cu87 Cu 0.22957 0.77065 -0.16522
 Cu88 Cu 0.22950 0.83684 -0.22999
 N89 N 0.17060 0.80762 -0.26662
 N90 N 0.19226 0.83477 -0.26496
 C91 C 0.18307 0.85950 -0.28935
 C92 C 0.15425 0.84694 -0.30701
 C93 C 0.14679 0.81411 -0.29203
 H94 H 0.19579 0.88502 -0.29325
 H95 H 0.12525 0.79674 -0.29844
 N96 N 0.26488 0.83397 -0.19224
 N97 N 0.26493 0.80867 -0.16759
 C98 C 0.29111 0.81488 -0.14472
 C99 C 0.30818 0.84534 -0.15565
 C100 C 0.29103 0.85693 -0.18568
 H101 H 0.29666 0.79917 -0.12119
 H102 H 0.29651 0.88091 -0.20084
 H103 H 0.20104 0.80859 -0.19274
 H104 H 0.23394 0.78275 -0.21880
 C105 C 0.49948 0.99805 -0.00004
 C106 C 0.00002 0.49973 0.99964
 C107 C 1.00037 0.00159 0.50172
 C108 C 0.05907 0.43045 1.05972
 C109 C 0.08836 0.44150 1.07949
 C110 C 0.10766 0.41591 1.09941
 C111 C 0.09751 0.37944 1.09943
 C112 C 0.06809 0.36845 1.07976
 C113 C 0.04886 0.39402 1.05980
 C114 C 0.01967 0.38234 1.04017
 C115 C 0.00968 0.34649 1.04036
 C116 C 0.02844 0.32150 1.05995
 C117 C 0.05733 0.33219 1.07945
 C118 C 0.13691 0.42756 1.11890
 C119 C 0.14679 0.46347 1.11874
 C120 C 0.12791 0.48848 1.09927
 C121 C 0.09900 0.47777 1.07981
 C122 C 0.11746 0.35308 1.11923
 C123 C 0.13380 0.33064 1.13518
 C124 C 0.03932 0.45632 1.03916
 C125 C 0.02208 0.47669 1.02159
 H126 H 0.00429 0.40072 1.02443
 H127 H -0.01270 0.33805 1.02519
 H128 H 0.02059 0.29366 1.06001
 H129 H 0.07109 0.31174 1.09423
 H130 H 0.15240 0.40910 1.13445
 H131 H 0.16923 0.47194 1.13382
 H132 H 0.13571 0.51633 1.09923
 H133 H 0.08513 0.49817 1.06506
 C134 C -0.05718 0.56944 1.06090
 C135 C -0.08604 0.55830 1.08135
 C136 C -0.10559 0.58398 1.10082
 C137 C -0.09615 0.62062 1.09965
 C138 C -0.06718 0.63173 1.07928
 C139 C -0.04757 0.60604 1.05995
 C140 C -0.01863 0.61774 1.03989
 C141 C -0.00951 0.65382 1.03869
 C142 C -0.02877 0.67898 1.05748
 C143 C -0.05725 0.66821 1.07764
 C144 C -0.13439 0.57223 1.12103
 C145 C -0.14362 0.53615 1.12195
 C146 C -0.12450 0.51105 1.10291
 C147 C -0.09601 0.52186 1.08278
 C148 C -0.11623 0.64699 1.11923
 C149 C -0.13255 0.66935 1.13522
 C150 C -0.03766 0.54356 1.04023
 C151 C -0.02094 0.52307 1.02233
 H152 H -0.00271 0.59918 1.02500
 H153 H 0.01265 0.66228 1.02314
 H154 H -0.02157 0.70699 1.05648
 H155 H -0.07136 0.68878 1.09185
 H156 H -0.15006 0.59076 1.13627
 H157 H -0.16575 0.52761 1.13753
 H158 H -0.13176 0.48306 1.10374
 H159 H -0.08193 0.50137 1.06840
 C160 C -0.06211 0.43204 0.94152
 C161 C -0.06689 0.43653 0.90446
 C162 C -0.08662 0.41107 0.88501
 C163 C -0.10137 0.38126 0.90276
 C164 C -0.09686 0.37699 0.93992
 C165 C -0.07725 0.40251 0.95937
 C166 C -0.07312 0.39771 0.99650
 C167 C -0.08774 0.36841 1.01389
 C168 C -0.10683 0.34338 0.99486
 C169 C -0.11148 0.34751 0.95832
 C170 C -0.09096 0.41606 0.84795
 C171 C -0.07621 0.44535 0.83060
 C172 C -0.05690 0.47022 0.84962
 C173 C -0.05221 0.46599 0.88614
 C174 C -0.12079 0.35473 0.88282
 C175 C -0.13681 0.33233 0.86666
 C176 C -0.04076 0.45707 0.96122
 C177 C -0.02259 0.47696 0.97819
 H178 H -0.05865 0.41655 1.01250
 H179 H -0.08423 0.36512 1.04228
 H180 H -0.11816 0.32067 1.00850
 H181 H -0.12661 0.32737 0.94470
 H182 H -0.10577 0.39744 0.83201
 H183 H -0.07978 0.44876 0.80223
 H184 H -0.04550 0.49292 0.83603
 H185 H -0.03701 0.48605 0.89982
 C186 C 0.05767 0.56742 0.93658
 C187 C 0.04420 0.60221 0.93046
 C188 C 0.06392 0.62761 0.91086
 C189 C 0.09689 0.61799 0.89728
 C190 C 0.11012 0.58301 0.90294
 C191 C 0.09045 0.55766 0.92269
 C192 C 0.10426 0.52294 0.92821
 C193 C 0.13659 0.51350 0.91456
 C194 C 0.15583 0.53827 0.89523
 C195 C 0.14287 0.57267 0.88940
 C196 C 0.05006 0.66235 0.90543
 C197 C 0.01765 0.67171 0.91899
 C198 C -0.00168 0.64683 0.93804
 C199 C 0.01126 0.61242 0.94371
 C200 C 0.11737 0.64427 0.87802
 C201 C 0.13423 0.66644 0.86236
 C202 C 0.03813 0.54219 0.95803
 C203 C 0.02132 0.52227 0.97648
 H204 H 0.09022 0.50275 0.94305
 H205 H 0.14677 0.48681 0.91900
 H206 H 0.18094 0.53081 0.88469
 H207 H 0.15878 0.59101 0.87419
 H208 H 0.06406 0.68262 0.89068
 H209 H 0.00747 0.69841 0.91462
 H210 H -0.02687 0.65419 0.94847
 H211 H -0.00487 0.59395 0.95847
 C212 C 1.06172 0.05901 0.43253
 C213 C 1.07847 0.09129 0.44210
 C214 C 1.09771 0.11072 0.41621
 C215 C 1.09996 0.09779 0.38087
 C216 C 1.08342 0.06532 0.37140
 C217 C 1.06443 0.04577 0.39735
 C218 C 1.04841 0.01320 0.38733
 C219 C 1.05067 0.00055 0.35256
 C220 C 1.06902 0.01980 0.32711
 C221 C 1.08534 0.05177 0.33628
 C222 C 1.11426 0.14292 0.42640
 C223 C 1.11184 0.15557 0.46118
 C224 C 1.09300 0.13659 0.48648
 C225 C 1.07643 0.10479 0.47719
 C226 C 1.11923 0.11774 0.35420
 C227 C 1.13510 0.13377 0.33159
 C228 C 1.04093 0.03971 0.45841
 C229 C 1.02299 0.02296 0.47875
 H230 H 1.03410 -0.00291 0.40622
 H231 H 1.03813 -0.02433 0.34536
 H232 H 1.07071 0.00987 0.30013
 H233 H 1.09941 0.06570 0.31556
 H234 H 1.12920 0.15861 0.40766
 H235 H 1.12467 0.18025 0.46854
 H236 H 1.09121 0.14653 0.51345
 H237 H 1.06212 0.09091 0.49779
 C238 C 1.05775 -0.06075 0.57033
 C239 C 1.05404 -0.05364 0.60714
 C240 C 1.07414 -0.07309 0.63228
 C241 C 1.09766 -0.09974 0.62049
 C242 C 1.10101 -0.10718 0.58371
 C243 C 1.08098 -0.08761 0.55855
 C244 C 1.08476 -0.09547 0.52194
 C245 C 1.10770 -0.12194 0.51049
 C246 C 1.12732 -0.14106 0.53508
 C247 C 1.12413 -0.13387 0.57131
 C248 C 1.07018 -0.06529 0.66891
 C249 C 1.04694 -0.03909 0.68036
 C250 C 1.02716 -0.02018 0.65578
 C251 C 1.03053 -0.02728 0.61957
 C252 C 1.11836 -0.11937 0.64625
 C253 C 1.13535 -0.13535 0.66804
 C254 C 1.03801 -0.03990 0.54479
 C255 C 1.02126 -0.02168 0.52461
 H256 H 1.07000 -0.08134 0.50184
 H257 H 1.11026 -0.12764 0.48239
 H258 H 1.14511 -0.16158 0.52604
 H259 H 1.13992 -0.14945 0.58942
 H260 H 1.08493 -0.07932 0.68908
 H261 H 1.04423 -0.03348 0.70847
 H262 H 1.00905 0.00006 0.66480
 H263 H 1.01443 -0.01200 0.60151
 C264 C 0.93899 -0.05645 0.43340
 C265 C 0.92083 -0.08766 0.44386
 C266 C 0.90127 -0.10715 0.41836
 C267 C 0.90013 -0.09536 0.38255
 C268 C 0.91830 -0.06411 0.37211
 C269 C 0.93761 -0.04449 0.39765
 C270 C 0.95531 -0.01316 0.38665
 C271 C 0.95437 -0.00181 0.35135
 C272 C 0.93568 -0.02113 0.32631
 C273 C 0.91773 -0.05188 0.33643
 C274 C 0.88332 -0.13828 0.42943
 C275 C 0.88468 -0.14984 0.46469
 C276 C 0.90385 -0.13080 0.48959
 C277 C 0.92176 -0.10003 0.47944
 C278 C 0.88050 -0.11540 0.35632
 C279 C 0.86452 -0.13164 0.33402
 C280 C 0.95979 -0.03694 0.45900
 C281 C 0.97774 -0.02001 0.47909
 H282 H 0.96997 0.00296 0.40518
 H283 H 0.96823 0.02210 0.34341
 H284 H 0.93501 -0.01219 0.29890
 H285 H 0.90347 -0.06593 0.31598
 H286 H 0.86808 -0.15399 0.41102
 H287 H 0.87080 -0.17371 0.47272
 H288 H 0.90486 -0.13991 0.51692
 H289 H 0.93629 -0.08606 0.49975
 C290 C 0.94307 0.06506 0.56930
 C291 C 0.95880 0.07656 0.60132
 C292 C 0.93903 0.09583 0.62687
 C293 C 0.90372 0.10373 0.62010
 C294 C 0.88811 0.09256 0.58789
 C295 C 0.90785 0.07317 0.56241
 C296 C 0.89165 0.06207 0.53052
 C297 C 0.85688 0.06986 0.52400
 C298 C 0.83755 0.08878 0.54892
 C299 C 0.85285 0.10008 0.58055
 C300 C 0.95520 0.10656 0.65892
 C301 C 0.98990 0.09850 0.66553
 C302 C 1.00927 0.07983 0.64047
 C303 C 0.99406 0.06899 0.60866
 C304 C 0.88332 0.12268 0.64658
 C305 C 0.86639 0.13800 0.66885
 C306 C 0.96278 0.04362 0.54424
 C307 C 0.97950 0.02507 0.52436
 H308 H 0.90563 0.04728 0.51033
 H309 H 0.84488 0.06114 0.49947
 H310 H 0.81054 0.09471 0.54375
 H311 H 0.83674 0.11468 0.59914
 H312 H 0.94121 0.12119 0.67922
 H313 H 1.00182 0.10683 0.69022
 H314 H 1.03622 0.07366 0.64569
 H315 H 1.01024 0.05467 0.58994
 C316 C 0.43076 1.05832 0.05856
 C317 C 0.39518 1.05432 0.05022
 C318 C 0.36977 1.07353 0.06987
 C319 C 0.38010 1.09682 0.09762
 C320 C 0.41569 1.10088 0.10588
 C321 C 0.44110 1.08154 0.08630
 C322 C 0.47651 1.08595 0.09508
 C323 C 0.48654 1.10883 0.12244
 C324 C 0.46171 1.12775 0.14159
 C325 C 0.42665 1.12394 0.13351
 C326 C 0.33434 1.06888 0.06118
 C327 C 0.32432 1.04591 0.03388
 C328 C 0.34918 1.02721 0.01458
 C329 C 0.38422 1.03133 0.02248
 C330 C 0.35403 1.11650 0.11754
 C331 C 0.33188 1.13252 0.13365
 C332 C 0.45646 1.03811 0.03876
 C333 C 0.47669 1.02052 0.02165
 H334 H 0.49675 1.07179 0.08091
 H335 H 0.51374 1.11189 0.12883
 H336 H 0.46964 1.14549 0.16282
 H337 H 0.40829 1.13921 0.14915
 H338 H 0.31403 1.08288 0.07538
 H339 H 0.29712 1.04265 0.02763
 H340 H 0.34129 1.00946 -0.00666
 H341 H 0.40257 1.01638 0.00656
 C342 C 0.56623 1.05876 -0.06044
 C343 C 0.59285 1.07744 -0.04240
 C344 C 0.61844 1.09627 -0.06214
 C345 C 0.61720 1.09640 -0.09980
 C346 C 0.59037 1.07799 -0.11782
 C347 C 0.56484 1.05904 -0.09805
 C348 C 0.53847 1.04051 -0.11660
 C349 C 0.53731 1.04077 -0.15365
 C350 C 0.56220 1.05941 -0.17298
 C351 C 0.58850 1.07784 -0.15541
 C352 C 0.64498 1.11448 -0.04352
 C353 C 0.64622 1.11406 -0.00647
 C354 C 0.62117 1.09567 0.01283
 C355 C 0.59470 1.07758 -0.00478
 C356 C 0.64393 1.11496 -0.11982
 C357 C 0.66667 1.13039 -0.13560
 C358 C 0.54124 1.03813 -0.04017
 C359 C 0.52159 1.02042 -0.02251
 H360 H 0.51852 1.02566 -0.10271
 H361 H 0.51698 1.02644 -0.16743
 H362 H 0.56116 1.05957 -0.20176
 H363 H 0.60731 1.09191 -0.17157
 H364 H 0.66506 1.12920 -0.05732
 H365 H 0.66672 1.12811 0.00732
 H366 H 0.62223 1.09540 0.04161
 H367 H 0.57575 1.06378 0.01144
 C368 C 0.43361 0.93620 -0.06002
 C369 C 0.44065 0.92699 -0.09580
 C370 C 0.41559 0.90783 -0.11591
 C371 C 0.38357 0.89819 -0.10013
 C372 C 0.37654 0.90748 -0.06432
 C373 C 0.40169 0.92639 -0.04416
 C374 C 0.39409 0.93533 -0.00839
 C375 C 0.36240 0.92624 0.00689
 C376 C 0.33773 0.90789 -0.01286
 C377 C 0.34461 0.89846 -0.04802
 C378 C 0.42319 0.89896 -0.15166
 C379 C 0.45460 0.90887 -0.16715
 C380 C 0.47904 0.92774 -0.14752
 C381 C 0.47230 0.93674 -0.11222
 C382 C 0.35759 0.87919 -0.12068
 C383 C 0.33538 0.86361 -0.13704
 C384 C 0.45843 0.95697 -0.03976
 C385 C 0.47782 0.97500 -0.02221
 H386 H 0.41250 0.94943 0.00815
 H387 H 0.35696 0.93349 0.03421
 H388 H 0.31313 0.90087 -0.00087
 H389 H 0.32460 0.88413 -0.06225
 H390 H 0.40496 0.88437 -0.16799
 H391 H 0.45997 0.90192 -0.19455
 H392 H 0.50335 0.93544 -0.15970
 H393 H 0.49211 0.95139 -0.09800
 C394 C 0.56764 0.94058 0.06198
 C395 C 0.60232 0.95298 0.06243
 C396 C 0.62782 0.93417 0.08237
 C397 C 0.61852 0.90300 0.10167
 C398 C 0.58378 0.89076 0.10141
 C399 C 0.55826 0.90963 0.08150
 C400 C 0.52373 0.89688 0.08157
 C401 C 0.51465 0.86633 0.10078
 C402 C 0.53960 0.84787 0.12025
 C403 C 0.57381 0.85982 0.12065
 C404 C 0.66231 0.94710 0.08239
 C405 C 0.67135 0.97771 0.06324
 C406 C 0.64643 0.99607 0.04369
 C407 C 0.61229 0.98397 0.04317
 C408 C 0.64483 0.88339 0.12136
 C409 C 0.66720 0.86746 0.13728
 C410 C 0.54195 0.95961 0.04101
 C411 C 0.52187 0.97636 0.02287
 H412 H 0.50344 0.91037 0.06682
 H413 H 0.48812 0.85694 0.10057
 H414 H 0.53242 0.82415 0.13512
 H415 H 0.59230 0.84458 0.13619
 H416 H 0.68264 0.93375 0.09719
 H417 H 0.69785 0.98720 0.06357
 H418 H 0.65358 1.01981 0.02882
 H419 H 0.59388 0.99916 0.02751
   
