data_POSCAR
  _audit_creation_date              2014-09-24
  _audit_creation_method            'ToBaCCo'
  _symmetry_space_group_name_H-M    'P1'
  _symmetry_Int_Tables_number       1
  _symmetry_cell_setting            triclinic
  loop_
  _symmetry_equiv_pos_as_xyz
 x,y,z
_cell_length_a 45.2045
_cell_length_b 44.6436
_cell_length_c 40.9272
_cell_angle_alpha 89.928800
_cell_angle_beta 89.997500
_cell_angle_gamma 118.950500
loop_
  _atom_site_label
  _atom_site_type_symbol
  _atom_site_fract_x
  _atom_site_fract_y
  _atom_site_fract_z
O1 O -0.00085 0.52611 -0.03627
 O2 O 0.03632 0.48235 0.01132
 O3 O -0.00458 0.46674 -0.03895
 O4 O 0.04019 0.54250 0.01341
 O5 O -0.00422 0.52304 0.04608
 O6 O -0.04724 0.44484 -0.00413
 O7 O -0.00627 0.46405 0.04614
 O8 O -0.04547 0.50392 -0.00375
 Cu9 Cu 0.02223 0.50642 -0.01591
 Cu10 Cu -0.03020 0.48186 0.02446
 C11 C -0.02990 0.52172 -0.02853
 C12 C 0.02173 0.46651 0.03732
 C13 C -0.03364 0.44303 -0.03072
 C14 C 0.02556 0.54578 0.03856
 O15 O 0.51528 0.56222 0.00104
 O16 O 0.47710 0.48334 -0.04774
 O17 O 0.45843 0.50681 0.00207
 O18 O 0.53517 0.53946 -0.04874
 O19 O 0.55625 0.51597 -0.01503
 O20 O 0.47939 0.48292 0.03553
 O21 O 0.49859 0.46008 -0.01419
 O22 O 0.53719 0.53938 0.03462
 Cu23 Cu 0.49447 0.52529 -0.02688
 Cu24 Cu 0.52004 0.49730 0.01363
 C25 C 0.53212 0.56399 0.02645
 C26 C 0.48143 0.45834 -0.03938
 C27 C 0.45607 0.48967 0.02765
 C28 C 0.55866 0.53298 -0.04074
 O29 O 0.44198 0.96129 0.01376
 O30 O 0.51770 1.00651 -0.03724
 O31 O 0.50173 0.96604 0.01368
 O32 O 0.45906 1.00286 -0.03613
 O33 O 0.47996 1.04815 -0.00391
 O34 O 0.51868 1.00943 0.04800
 O35 O 0.53839 1.05021 -0.00302
 O36 O 0.46009 1.00636 0.04609
 Cu37 Cu 0.47821 0.97965 -0.01473
 Cu38 Cu 0.50124 1.03302 0.02512
 C39 C 0.43805 0.97604 0.03855
 C40 C 0.54076 1.03607 -0.02910
 C41 C 0.51671 0.98113 0.03980
 C42 C 0.46307 1.03229 -0.02894
 O43 O 1.04636 0.53583 0.49365
 O44 O 1.00240 0.45672 0.54235
 O45 O 1.04277 0.47575 0.49197
 O46 O 1.00453 0.51602 0.54334
 O47 O 0.96088 0.49675 0.50976
 O48 O 0.99966 0.45813 0.45793
 O49 O 0.95875 0.43804 0.50880
 O50 O 1.00236 0.51734 0.46058
 Cu51 Cu 1.02844 0.49801 0.52116
 Cu52 Cu 0.97608 0.47553 0.48085
 C53 C 1.03191 0.53998 0.46879
 C54 C 0.97282 0.43421 0.53415
 C55 C 1.02795 0.46064 0.46579
 C56 C 0.97590 0.51274 0.53545
 O57 O 0.46428 0.50284 0.48368
 O58 O 0.54069 0.53268 0.53390
 O59 O 0.52382 0.55605 0.48324
 O60 O 0.48133 0.47844 0.53436
 O61 O 0.50107 0.45238 0.50229
 O62 O 0.54034 0.52847 0.44942
 O63 O 0.55988 0.50701 0.50067
 O64 O 0.48152 0.47423 0.45204
 Cu65 Cu 0.50060 0.52007 0.51215
 Cu66 Cu 0.52264 0.48788 0.47284
 C67 C 0.45997 0.48371 0.45922
 C68 C 0.56332 0.52504 0.52586
 C69 C 0.53862 0.55511 0.45720
 C70 C 0.48451 0.45241 0.52731
 O71 O 0.54303 0.03884 0.51414
 O72 O 0.46703 -0.00364 0.46244
 O73 O 0.48597 0.03876 0.51162
 O74 O 0.52565 -0.00182 0.46360
 O75 O 0.50194 -0.04734 0.49558
 O76 O 0.46551 -0.00485 0.54605
 O77 O 0.44503 -0.04725 0.49687
 O78 O 0.52255 -0.00645 0.54650
 Cu79 Cu 0.50759 0.02243 0.48452
 Cu80 Cu 0.48171 -0.03086 0.52472
 C81 C 0.54563 0.02346 0.53919
 C82 C 0.44310 -0.03274 0.47090
 C83 C 0.46954 0.02423 0.53731
 C84 C 0.51984 -0.03186 0.47082
 C85 C 0.30967 0.42610 0.22794
 C86 C 0.31014 0.42586 0.26139
 C87 C 0.28191 0.42777 0.27180
 N88 N 0.26435 0.42934 0.24569
 C89 C 0.28114 0.42811 0.21878
 C90 C 0.27515 0.43248 0.30460
 C91 C 0.24572 0.43388 0.31410
 C92 C 0.24178 0.44735 0.34327
 C93 C 0.20943 0.44262 0.34360
 C94 C 0.19394 0.42541 0.31509
 N95 N 0.21635 0.42036 0.29716
 C96 C 0.15956 0.41331 0.30676
 C97 C 0.14785 0.40360 0.27447
 C98 C 0.11424 0.38493 0.26525
 C99 C 0.11374 0.38518 0.23174
 C100 C 0.14708 0.40393 0.22163
 N101 N 0.16790 0.41491 0.24777
 C102 C 0.15777 0.41405 0.18914
 C103 C 0.19178 0.42601 0.17946
 C104 C 0.20619 0.44321 0.15059
 C105 C 0.23853 0.44795 0.14954
 C106 C 0.24356 0.43447 0.17825
 N107 N 0.21481 0.42089 0.19622
 C108 C 0.27338 0.43319 0.18643
 H109 H 0.32912 0.42632 0.21241
 H110 H 0.33000 0.42587 0.27611
 H111 H 0.21005 0.40593 0.21713
 H112 H 0.26009 0.45958 0.36251
 H113 H 0.19896 0.45125 0.36280
 H114 H 0.09231 0.37267 0.28099
 H115 H 0.09137 0.37322 0.21657
 H116 H 0.25609 0.46017 0.12970
 H117 H 0.21085 0.40540 0.27620
 H118 H 0.19498 0.45179 0.13203
 C119 C 0.60991 0.72083 0.22455
 C120 C 0.61139 0.71971 0.25795
 C121 C 0.59863 0.74016 0.26996
 N122 N 0.59014 0.75435 0.24498
 C123 C 0.59700 0.74259 0.21714
 C124 C 0.59123 0.74237 0.30315
 C125 C 0.58263 0.76718 0.31443
 C126 C 0.56724 0.76583 0.34410
 C127 C 0.56506 0.79533 0.34660
 C128 C 0.57837 0.81375 0.31800
 N129 N 0.58935 0.79651 0.29866
 C130 C 0.58219 0.84661 0.31122
 C131 C 0.58915 0.86092 0.27944
 C132 C 0.59793 0.89447 0.27167
 C133 C 0.59820 0.89652 0.23825
 C134 C 0.58880 0.86403 0.22655
 N135 N 0.58357 0.84240 0.25176
 C136 C 0.58161 0.85380 0.19350
 C137 C 0.57673 0.82164 0.18250
 C138 C 0.56142 0.80623 0.15329
 C139 C 0.56342 0.77663 0.15085
 C140 C 0.57916 0.77409 0.17904
 N141 N 0.58751 0.80189 0.19805
 C142 C 0.58734 0.74777 0.18570
 H143 H 0.61707 0.70662 0.20799
 H144 H 0.62018 0.70484 0.27172
 H145 H 0.60263 0.80868 0.21885
 H146 H 0.55823 0.74572 0.36227
 H147 H 0.55492 0.80208 0.36749
 H148 H 0.60316 0.91543 0.28799
 H149 H 0.60408 0.91932 0.22429
 H150 H 0.55439 0.75936 0.13028
 H151 H 0.60363 0.80579 0.27742
 H152 H 0.54977 0.81507 0.13542
 C153 C 0.13532 0.68168 0.27133
 C154 C 0.13471 0.68206 0.23785
 C155 C 0.15267 0.71609 0.22840
 N156 N 0.16423 0.73651 0.25499
 C157 C 0.15364 0.71549 0.28127
 C158 C 0.15712 0.72804 0.19582
 C159 C 0.18143 0.76175 0.18709
 C160 C 0.18236 0.77745 0.15757
 C161 C 0.21161 0.80851 0.15751
 C162 C 0.22772 0.81087 0.18699
 N163 N 0.20903 0.78240 0.20496
 C164 C 0.26027 0.83728 0.19551
 C165 C 0.27234 0.84257 0.22799
 C166 C 0.30587 0.86238 0.23713
 C167 C 0.30655 0.86190 0.27060
 C168 C 0.27341 0.84185 0.28085
 N169 N 0.25253 0.83003 0.25475
 C170 C 0.26259 0.83567 0.31376
 C171 C 0.23024 0.80919 0.32279
 C172 C 0.21506 0.80621 0.35295
 C173 C 0.18575 0.77523 0.35306
 C174 C 0.18385 0.76019 0.32296
 N175 N 0.21090 0.78118 0.30457
 C176 C 0.15925 0.72670 0.31408
 H177 H 0.12401 0.65898 0.28650
 H178 H 0.12284 0.65970 0.22233
 H179 H 0.21801 0.77473 0.28263
 H180 H 0.16411 0.76743 0.13792
 H181 H 0.22023 0.82699 0.13779
 H182 H 0.32772 0.87532 0.22141
 H183 H 0.32905 0.87438 0.28552
 H184 H 0.16811 0.76478 0.37320
 H185 H 0.21685 0.77552 0.22624
 H186 H 0.22433 0.82424 0.37299
 C187 C 0.69625 0.55615 0.72769
 C188 C 0.69546 0.55710 0.76115
 C189 C 0.72872 0.57179 0.77164
 N190 N 0.74978 0.57980 0.74572
 C191 C 0.72997 0.57024 0.71882
 C192 C 0.73947 0.57872 0.80452
 C193 C 0.77253 0.58679 0.81415
 C194 C 0.78732 0.60127 0.84382
 C195 C 0.81772 0.60121 0.84509
 C196 C 0.82063 0.58671 0.81616
 N197 N 0.79317 0.57834 0.79731
 C198 C 0.84638 0.57839 0.80907
 C199 C 0.85260 0.57106 0.77702
 C200 C 0.87177 0.55550 0.76907
 C201 C 0.87240 0.55423 0.73562
 C202 C 0.85364 0.56910 0.72421
 N203 N 0.84155 0.57937 0.74956
 C204 C 0.84866 0.57402 0.69097
 C205 C 0.82338 0.58201 0.68086
 C206 C 0.82176 0.59475 0.65038
 C207 C 0.79146 0.59501 0.64905
 C208 C 0.77546 0.58247 0.67878
 N209 N 0.79523 0.57494 0.69813
 C210 C 0.74219 0.57529 0.68639
 H211 H 0.67438 0.54568 0.71183
 H212 H 0.67284 0.54744 0.77594
 H213 H 0.78788 0.56141 0.72003
 H214 H 0.77705 0.61040 0.86283
 H215 H 0.83536 0.61025 0.86529
 H216 H 0.88350 0.54540 0.78553
 H217 H 0.88470 0.54293 0.72149
 H218 H 0.78207 0.60301 0.62836
 H219 H 0.78677 0.56343 0.77627
 H220 H 0.84022 0.60254 0.63090
 C221 C 0.43040 0.13130 0.76785
 C222 C 0.43118 0.13102 0.73437
 C223 C 0.41736 0.15106 0.72370
 N224 N 0.40818 0.16357 0.74955
 C225 C 0.41614 0.15151 0.77658
 C226 C 0.41243 0.15686 0.69068
 C227 C 0.40597 0.18361 0.68123
 C228 C 0.39358 0.18639 0.65103
 C229 C 0.39503 0.21791 0.65026
 C230 C 0.40826 0.23348 0.68001
 N231 N 0.41448 0.21224 0.69886
 C232 C 0.41741 0.26768 0.68801
 C233 C 0.42339 0.27965 0.72057
 C234 C 0.43959 0.31377 0.72985
 C235 C 0.43913 0.31416 0.76334
 C236 C 0.42265 0.28028 0.77343
 N237 N 0.41304 0.25922 0.74725
 C238 C 0.41574 0.26907 0.80622
 C239 C 0.40582 0.23498 0.81533
 C240 C 0.39138 0.22015 0.84504
 C241 C 0.38957 0.18848 0.84576
 C242 C 0.40305 0.18493 0.81650
 N243 N 0.41247 0.21319 0.79794
 C244 C 0.40981 0.15797 0.80891
 H245 H 0.44006 0.11870 0.78380
 H246 H 0.44153 0.11815 0.71972
 H247 H 0.42702 0.21929 0.77678
 H248 H 0.38498 0.16792 0.63135
 H249 H 0.38775 0.22839 0.62988
 H250 H 0.45125 0.33614 0.71428
 H251 H 0.45032 0.33689 0.77841
 H252 H 0.38011 0.17047 0.86585
 H253 H 0.42813 0.21884 0.72059
 H254 H 0.38359 0.23126 0.86445
 C255 C 0.69813 0.11223 0.77362
 C256 C 0.69928 0.10927 0.74036
 C257 C 0.72298 0.14114 0.72874
 N258 N 0.73583 0.16355 0.75379
 C259 C 0.72045 0.14606 0.78123
 C260 C 0.72967 0.15039 0.69545
 C261 C 0.75847 0.18074 0.68478
 C262 C 0.76445 0.19235 0.65272
 C263 C 0.79517 0.22161 0.65225
 C264 C 0.80740 0.22737 0.68403
 N265 N 0.78526 0.20174 0.70351
 C266 C 0.83917 0.25466 0.69377
 C267 C 0.84955 0.26124 0.72678
 C268 C 0.88229 0.28244 0.73740
 C269 C 0.88077 0.28458 0.77072
 C270 C 0.84701 0.26547 0.77940
 N271 N 0.82806 0.25096 0.75251
 C272 C 0.83345 0.26443 0.81084
 C273 C 0.79943 0.24082 0.81858
 C274 C 0.78103 0.24450 0.84389
 C275 C 0.75006 0.21537 0.84430
 C276 C 0.75028 0.19464 0.81922
 N277 N 0.78038 0.21046 0.80346
 C278 C 0.72369 0.16140 0.81221
 H279 H 0.68221 0.09176 0.79010
 H280 H 0.68415 0.08616 0.72662
 H281 H 0.78871 0.19963 0.78560
 H282 H 0.74894 0.18066 0.63145
 H283 H 0.80731 0.23622 0.63053
 H284 H 0.90510 0.29517 0.72297
 H285 H 0.90223 0.29895 0.78652
 H286 H 0.72959 0.21040 0.86095
 H287 H 0.78943 0.19736 0.72756
 H288 H 0.78876 0.26611 0.86013
 C289 C 0.07174 0.43157 0.09957
 N290 N 0.04502 0.43478 0.11033
 N291 N 0.02838 0.44472 0.09008
 C292 C 0.03808 0.45223 0.05841
 N293 N 0.06467 0.44880 0.04754
 N294 N 0.08110 0.43846 0.06773
 C295 C 0.09195 0.42393 0.12277
 N296 N 0.11367 0.41309 0.11228
 N297 N 0.13375 0.40874 0.13339
 C298 C 0.13329 0.41562 0.16569
 N299 N 0.11121 0.42607 0.17607
 N300 N 0.09083 0.42996 0.15509
 C301 C 0.56174 0.64686 0.08971
 N302 N 0.57825 0.62828 0.09000
 N303 N 0.56939 0.60217 0.06940
 C304 C 0.54410 0.59418 0.04747
 N305 N 0.52806 0.61317 0.04686
 N306 N 0.53655 0.63886 0.06775
 C307 C 0.56912 0.67362 0.11402
 N308 N 0.54421 0.68016 0.12397
 N309 N 0.55015 0.70367 0.14670
 C310 C 0.58140 0.72206 0.15993
 N311 N 0.60644 0.71565 0.14983
 N312 N 0.60035 0.69165 0.12745
 C313 C 0.35552 0.92013 0.10008
 N314 N 0.37750 0.95353 0.10648
 N315 N 0.40338 0.97170 0.08647
 C316 C 0.40815 0.95712 0.05930
 N317 N 0.38592 0.92388 0.05271
 N318 N 0.36011 0.90571 0.07274
 C319 C 0.32877 0.89923 0.12349
 N320 N 0.30961 0.86496 0.11892
 N321 N 0.28722 0.84544 0.14140
 C322 C 0.28310 0.85946 0.16929
 N323 N 0.30184 0.89385 0.17355
 N324 N 0.32430 0.91336 0.15111
 C325 C 0.92565 0.54741 0.59773
 N326 N 0.91073 0.53012 0.56996
 N327 N 0.92716 0.51988 0.54980
 C328 C 0.95911 0.52643 0.55668
 N329 N 0.97421 0.54399 0.58432
 N330 N 0.95779 0.55435 0.60447
 C331 C 0.90645 0.55644 0.62092
 N332 N 0.92133 0.57498 0.64815
 N333 N 0.90322 0.58130 0.67004
 C334 C 0.86951 0.56912 0.66565
 N335 N 0.85479 0.55090 0.63821
 N336 N 0.87291 0.54474 0.61626
 C337 C 0.44668 0.36840 0.59062
 N338 N 0.44020 0.39468 0.59611
 N339 N 0.45161 0.42117 0.57559
 C340 C 0.46984 0.42229 0.54880
 N341 N 0.47596 0.39583 0.54313
 N342 N 0.46465 0.36941 0.56368
 C343 C 0.43655 0.34055 0.61452
 N344 N 0.44728 0.31709 0.61124
 N345 N 0.44042 0.29341 0.63417
 C346 C 0.42248 0.29222 0.66122
 N347 N 0.41119 0.31530 0.66416
 N348 N 0.41817 0.33908 0.64129
 C349 C 0.62719 0.07526 0.60268
 N350 N 0.61991 0.09244 0.57947
 N351 N 0.59448 0.07572 0.55871
 C352 C 0.57514 0.04121 0.56059
 N353 N 0.58242 0.02393 0.58375
 N354 N 0.60815 0.04065 0.60432
 C355 C 0.65413 0.09428 0.62648
 N356 N 0.66815 0.07864 0.64429
 N357 N 0.69239 0.09633 0.66604
 C358 C 0.70314 0.13014 0.67104
 N359 N 0.68883 0.14554 0.65339
 N360 N 0.66498 0.12804 0.63140
 C361 C 0.42957 0.08110 0.90824
 N362 N 0.42260 0.04840 0.90237
 N363 N 0.43265 0.03215 0.92319
 C364 C 0.44998 0.04800 0.95069
 N365 N 0.45633 0.08046 0.95683
 N366 N 0.44640 0.09674 0.93596
 C367 C 0.42164 0.10027 0.88381
 N368 N 0.43399 0.13451 0.88718
 N369 N 0.42947 0.15261 0.86374
 C370 C 0.41235 0.13717 0.83604
 N371 N 0.39941 0.10277 0.83298
 N372 N 0.40409 0.08468 0.85637
 C373 C 0.63999 0.56079 0.89828
 N374 N 0.61595 0.56972 0.89113
 N375 N 0.58988 0.56132 0.91122
 C376 C 0.58691 0.54371 0.93924
 N377 N 0.61125 0.53526 0.94658
 N378 N 0.63725 0.54357 0.92646
 C379 C 0.66733 0.56769 0.87502
 N380 N 0.68868 0.55485 0.88036
 N381 N 0.71200 0.55900 0.85827
 C382 C 0.71493 0.57619 0.83000
 N383 N 0.69391 0.58951 0.82492
 N384 N 0.67049 0.58526 0.84697
 C385 C 0.91285 0.36454 0.90509
 N386 N 0.94311 0.39129 0.89645
 N387 N 0.96090 0.41615 0.91769
 C388 C 0.94887 0.41550 0.94824
 N389 N 0.91862 0.38860 0.95695
 N390 N 0.90106 0.36343 0.93584
 C391 C 0.89261 0.33829 0.88094
 N392 N 0.86993 0.30603 0.89030
 N393 N 0.85150 0.28251 0.86809
 C394 C 0.85463 0.29048 0.83573
 N395 N 0.87708 0.32295 0.82659
 N396 N 0.89591 0.34629 0.84869
 C397 C 0.55240 0.91804 0.40870
 N398 N 0.53098 0.90106 0.43365
 N399 N 0.52135 0.91759 0.45449
 C400 C 0.53224 0.95159 0.45076
 N401 N 0.55380 0.96858 0.42585
 N402 N 0.56392 0.95216 0.40535
 C403 C 0.56097 0.89933 0.38447
 N404 N 0.59130 0.91448 0.36893
 N405 N 0.59840 0.89757 0.34614
 C406 C 0.57519 0.86518 0.33762
 N407 N 0.54477 0.85028 0.35303
 N408 N 0.53791 0.86689 0.37622
 C409 C 0.37785 0.45804 0.39709
 N410 N 0.39481 0.43991 0.39632
 N411 N 0.42072 0.44769 0.41644
 C412 C 0.43027 0.47358 0.43833
 N413 N 0.41303 0.49139 0.43936
 N414 N 0.38740 0.48388 0.41900
 C415 C 0.35056 0.45088 0.37380
 N416 N 0.34125 0.47498 0.36739
 N417 N 0.31724 0.46909 0.34552
 C418 C 0.30127 0.43869 0.32959
 N419 N 0.31051 0.41452 0.33610
 N420 N 0.33484 0.42056 0.35769
 C421 C 0.08402 0.62558 0.40868
 N422 N 0.05108 0.60281 0.40288
 N423 N 0.03431 0.57593 0.42246
 C424 C 0.04983 0.57085 0.44861
 N425 N 0.08267 0.59383 0.45466
 N426 N 0.09948 0.62069 0.43501
 C427 C 0.10310 0.65366 0.38562
 N428 N 0.13690 0.67426 0.38927
 N429 N 0.15459 0.69803 0.36696
 C430 C 0.13913 0.70211 0.34018
 N431 N 0.10521 0.68189 0.33686
 N432 N 0.08755 0.65808 0.35913
 C433 C 0.92099 0.55725 0.90875
 N434 N 0.90506 0.53868 0.93571
 N435 N 0.92112 0.52833 0.95631
 C436 C 0.95365 0.53610 0.95065
 N437 N 0.96973 0.55506 0.92393
 N438 N 0.95370 0.56548 0.90337
 C439 C 0.90230 0.56568 0.88440
 N440 N 0.91804 0.58374 0.85716
 N441 N 0.90048 0.58872 0.83366
 C442 C 0.86650 0.57565 0.83644
 N443 N 0.85088 0.55808 0.86397
 N444 N 0.86845 0.55320 0.88751
 C445 C 0.44444 0.37219 0.90042
 N446 N 0.46303 0.37457 0.92733
 N447 N 0.47417 0.40167 0.94696
 C448 C 0.46721 0.42742 0.94033
 N449 N 0.44836 0.42489 0.91360
 N450 N 0.43716 0.39775 0.89402
 C451 C 0.43444 0.34369 0.87742
 N452 N 0.44514 0.32033 0.88180
 N453 N 0.43839 0.29608 0.85958
 C454 C 0.42066 0.29427 0.83217
 N455 N 0.40941 0.31727 0.82813
 N456 N 0.41624 0.34157 0.85030
 C457 C 0.62075 0.08963 0.90604
 N458 N 0.59160 0.06234 0.89595
 N459 N 0.56658 0.04494 0.91695
 C460 C 0.56957 0.05438 0.94879
 N461 N 0.59872 0.08176 0.95899
 N462 N 0.62401 0.09893 0.93801
 C463 C 0.64763 0.10899 0.88226
 N464 N 0.68037 0.12798 0.89166
 N465 N 0.70455 0.14460 0.86951
 C466 C 0.69684 0.14314 0.83721
 N467 N 0.66396 0.12461 0.82808
 N468 N 0.63990 0.10765 0.85010
 C469 C 0.07613 0.42803 0.40161
 N470 N 0.04665 0.42711 0.39327
 N471 N 0.03043 0.43653 0.41457
 C472 C 0.04337 0.44782 0.44481
 N473 N 0.07274 0.44843 0.45326
 N474 N 0.08872 0.43851 0.43210
 C475 C 0.09561 0.42100 0.37707
 N476 N 0.11871 0.41140 0.38606
 N477 N 0.13815 0.40769 0.36371
 C478 C 0.13575 0.41411 0.33161
 N479 N 0.11232 0.42336 0.32275
 N480 N 0.09251 0.42651 0.34497
 C481 C 0.57245 0.63758 0.39255
 N482 N 0.56880 0.64203 0.42482
 N483 N 0.55879 0.61594 0.44567
 C484 C 0.55254 0.58462 0.43504
 N485 N 0.55682 0.58036 0.40288
 N486 N 0.56637 0.60631 0.38198
 C487 C 0.57993 0.66517 0.36905
 N488 N 0.56988 0.65755 0.33752
 N489 N 0.57403 0.68213 0.31659
 C490 C 0.58880 0.71538 0.32620
 N491 N 0.59947 0.72302 0.35766
 N492 N 0.59486 0.69836 0.37876
 C493 C 0.36039 0.91453 0.40887
 N494 N 0.38380 0.94745 0.40231
 N495 N 0.40981 0.96460 0.42243
 C496 C 0.41326 0.94948 0.44990
 N497 N 0.38961 0.91672 0.45665
 N498 N 0.36370 0.89954 0.43648
 C499 C 0.33328 0.89468 0.38546
 N500 N 0.31339 0.86042 0.38953
 N501 N 0.29046 0.84186 0.36711
 C502 C 0.28644 0.85684 0.33981
 N503 N 0.30594 0.89124 0.33607
 N504 N 0.32900 0.90979 0.35842
 C505 C 0.55235 0.93287 0.10381
 N506 N 0.54548 0.95758 0.11457
 N507 N 0.53509 0.97359 0.09387
 C508 C 0.53071 0.96514 0.06172
 N509 N 0.53760 0.94043 0.05088
 N510 N 0.54848 0.92474 0.07155
 C511 C 0.56165 0.91388 0.12714
 N512 N 0.57892 0.89766 0.11735
 N513 N 0.58609 0.87938 0.13855
 C514 C 0.57578 0.87615 0.17019
 N515 N 0.55852 0.89246 0.17983
 N516 N 0.55183 0.91116 0.15881
 C517 C 0.37442 0.46146 0.09111
 N518 N 0.39283 0.44483 0.09197
 N519 N 0.41861 0.45344 0.07143
 C520 C 0.42654 0.47864 0.04900
 N521 N 0.40783 0.49493 0.04787
 N522 N 0.38236 0.48664 0.06867
 C523 C 0.34737 0.45351 0.11496
 N524 N 0.33752 0.47705 0.12209
 N525 N 0.31392 0.47053 0.14464
 C526 C 0.29888 0.44001 0.16054
 N527 N 0.30861 0.41637 0.15324
 N528 N 0.33256 0.42308 0.13100
 C529 C 0.07890 0.62914 0.10076
 N530 N 0.04608 0.60613 0.10697
 N531 N 0.02884 0.57992 0.08682
 C532 C 0.04378 0.57581 0.05968
 N533 N 0.07648 0.59901 0.05330
 N534 N 0.09373 0.62517 0.07348
 C535 C 0.09863 0.65657 0.12418
 N536 N 0.13227 0.67740 0.11960
 N537 N 0.15067 0.70066 0.14197
 C538 C 0.13611 0.70400 0.16977
 N539 N 0.10234 0.68354 0.17406
 N540 N 0.08395 0.66022 0.15172
 C541 C 0.43559 0.07700 0.59736
 N542 N 0.45363 0.09180 0.56989
 N543 N 0.46365 0.07460 0.55036
 C544 C 0.45614 0.04199 0.55762
 N545 N 0.43783 0.02704 0.58494
 N546 N 0.42769 0.04423 0.60443
 C547 C 0.42700 0.09700 0.62016
 N548 N 0.40813 0.08219 0.64721
 N549 N 0.40259 0.10098 0.66912
 C550 C 0.41590 0.13531 0.66494
 N551 N 0.43432 0.14997 0.63760
 N552 N 0.43973 0.13117 0.61561
 C553 C 0.64604 0.55445 0.58815
 N554 N 0.62353 0.56591 0.59303
 N555 N 0.59762 0.55708 0.57271
 C556 C 0.59328 0.53653 0.54670
 N557 N 0.61601 0.52537 0.54154
 N558 N 0.64190 0.53413 0.56195
 C559 C 0.67293 0.56209 0.61212
 N560 N 0.69318 0.54757 0.60962
 N561 N 0.71577 0.55247 0.63281
 C562 C 0.71895 0.57205 0.65935
 N563 N 0.69907 0.58703 0.66152
 N564 N 0.67646 0.58208 0.63839
 C565 C 0.91775 0.35279 0.59786
 N566 N 0.95203 0.37024 0.59945
 N567 N 0.96978 0.39570 0.57859
 C568 C 0.95388 0.40423 0.55515
 N569 N 0.91967 0.38636 0.55324
 N570 N 0.90194 0.36123 0.57431
 C571 C 0.89774 0.32679 0.62236
 N572 N 0.86527 0.31908 0.62802
 N573 N 0.84702 0.29635 0.65082
 C574 C 0.86032 0.28005 0.66860
 N575 N 0.89283 0.28766 0.66287
 N576 N 0.91132 0.31082 0.64031
   
