data_POSCAR
  _audit_creation_date              2014-09-24
  _audit_creation_method            'ToBaCCo'
  _symmetry_space_group_name_H-M    'P1'
  _symmetry_Int_Tables_number       1
  _symmetry_cell_setting            triclinic
  loop_
  _symmetry_equiv_pos_as_xyz
 x,y,z
_cell_length_a 24.2378
_cell_length_b 24.1500
_cell_length_c 24.0781
_cell_angle_alpha 94.801600
_cell_angle_beta 96.067200
_cell_angle_gamma 96.326800
loop_
  _atom_site_label
  _atom_site_type_symbol
  _atom_site_fract_x
  _atom_site_fract_y
  _atom_site_fract_z
C1 C 0.66621 0.72250 0.92865
 H2 H 0.70760 0.73347 0.91733
 C3 C 0.62188 0.74861 0.90467
 H4 H 0.62979 0.77960 0.87555
 C5 C 0.60413 0.66702 0.97699
 H6 H 0.59624 0.63294 1.00245
 C7 C 0.55910 0.69284 0.95507
 H8 H 0.51752 0.67872 0.96473
 N9 N 0.65679 0.68233 0.96424
 C10 C 0.81716 0.64280 1.04494
 H11 H 0.80073 0.60017 1.04951
 C12 C 0.87348 0.66051 1.06128
 H13 H 0.89991 0.63171 1.07916
 C14 C 0.80306 0.73098 1.01300
 H15 H 0.77568 0.75796 0.99356
 C16 C 0.85998 0.75001 1.02751
 H17 H 0.87605 0.79200 1.01988
 Zn18 Zn 0.71309 0.63782 0.99152
 N19 N 0.78326 0.67755 1.02076
 C20 C 0.76053 0.62382 0.89568
 N21 N 0.73060 0.59251 0.92912
 C22 C 0.72198 0.53579 0.91933
 C23 C 0.74890 0.50867 0.87804
 C24 C 0.78752 0.59866 0.85400
 C25 C 0.67300 0.64059 1.09129
 C26 C 0.65181 0.62533 1.13977
 C27 C 0.66931 0.53042 1.11567
 C28 C 0.68850 0.54744 1.06579
 N29 N 0.68818 0.60165 1.05380
 H30 H 0.76720 0.66875 0.90411
 H31 H 0.69635 0.51140 0.94459
 H32 H 0.74407 0.46337 0.87259
 H33 H 0.81402 0.62494 0.83117
 H34 H 0.67633 0.68401 1.08269
 H35 H 0.63991 0.65818 1.16786
 H36 H 0.66907 0.48704 1.12364
 H37 H 0.70437 0.51749 1.03775
 C38 C 0.89574 0.71400 1.05121
 C39 C 0.56757 0.73367 0.91787
 C40 C 0.64807 0.56924 1.15241
 C41 C 0.78459 0.54042 0.84675
 C42 C 0.73389 0.34828 0.54255
 H43 H 0.77612 0.35435 0.56358
 C44 C 0.69250 0.31528 0.56442
 H45 H 0.70348 0.29717 0.60311
 C46 C 0.66808 0.37008 0.47013
 H47 H 0.65837 0.39344 0.43477
 C48 C 0.62517 0.33660 0.49029
 H49 H 0.58298 0.33537 0.47017
 N50 N 0.72116 0.37522 0.49654
 C51 C 0.88285 0.41088 0.43696
 H52 H 0.88806 0.45614 0.43997
 C53 C 0.92442 0.38133 0.41771
 H54 H 0.96180 0.40444 0.40639
 C55 C 0.82785 0.32623 0.44831
 H56 H 0.79005 0.30475 0.46016
 C57 C 0.86760 0.29495 0.42765
 H58 H 0.85927 0.25002 0.42539
 Zn59 Zn 0.78047 0.42491 0.47794
 N60 N 0.83589 0.38311 0.45225
 C61 C 0.86304 0.46890 0.56689
 N62 N 0.80870 0.46951 0.54614
 C63 C 0.77108 0.48781 0.57958
 C64 C 0.78640 0.50069 0.63744
 C65 C 0.88001 0.48162 0.62398
 C66 C 0.73533 0.43472 0.36985
 C67 C 0.70590 0.45806 0.32659
 C68 C 0.71956 0.54646 0.38413
 C69 C 0.74819 0.52108 0.42676
 N70 N 0.75355 0.46563 0.41948
 H71 H 0.89240 0.45351 0.54066
 H72 H 0.72782 0.48673 0.56248
 H73 H 0.75507 0.51034 0.66448
 H74 H 0.92250 0.47707 0.64034
 H75 H 0.74050 0.39070 0.36529
 H76 H 0.68805 0.43103 0.28951
 H77 H 0.71376 0.59017 0.39139
 H78 H 0.76366 0.54489 0.46646
 C79 C 0.91625 0.32239 0.41035
 C80 C 0.63713 0.30841 0.53814
 C81 C 0.69570 0.51414 0.33414
 C82 C 0.84068 0.49440 0.66025
 C83 C 0.16881 -0.19539 -0.03632
 H84 H 0.20358 -0.21537 -0.04939
 C85 C 0.12643 -0.22745 -0.01440
 H86 H 0.12827 -0.27193 -0.01480
 C87 C 0.12604 -0.11339 -0.01804
 H88 H 0.12713 -0.06857 -0.01702
 C89 C 0.08265 -0.14401 0.00391
 H90 H 0.05004 -0.12224 0.01997
 N91 N 0.16970 -0.13886 -0.03454
 C92 C 0.34301 -0.13343 -0.03066
 H93 H 0.35196 -0.10414 0.00648
 C94 C 0.38517 -0.16305 -0.04832
 H95 H 0.42631 -0.15479 -0.02489
 C96 C 0.28065 -0.17409 -0.10948
 H97 H 0.24009 -0.17707 -0.13383
 C98 C 0.32169 -0.20459 -0.12873
 H99 H 0.31253 -0.22945 -0.16883
 Zn100 Zn 0.23806 -0.09346 -0.03782
 N101 N 0.29210 -0.13880 -0.06155
 C102 C 0.27639 -0.01028 0.06017
 N103 N 0.26161 -0.06439 0.03808
 C104 C 0.26241 -0.10704 0.07127
 C105 C 0.28106 -0.09713 0.12798
 C106 C 0.29526 0.00185 0.11784
 C107 C 0.24318 -0.04558 -0.14108
 C108 C 0.22244 -0.01527 -0.18402
 C109 C 0.17436 0.03464 -0.11694
 C110 C 0.19561 0.00297 -0.07560
 N111 N 0.22680 -0.03841 -0.08888
 H112 H 0.27514 0.02324 0.03313
 H113 H 0.24977 -0.14959 0.05312
 H114 H 0.28069 -0.13275 0.15248
 H115 H 0.30931 0.04482 0.13394
 H116 H 0.26993 -0.07703 -0.15072
 H117 H 0.23543 -0.02393 -0.22505
 H118 H 0.14698 0.06427 -0.10396
 H119 H 0.18444 0.00943 -0.03346
 C120 C 0.37510 -0.19924 -0.09814
 C121 C 0.08561 -0.20079 0.01135
 C122 C 0.18410 0.02317 -0.17361
 C123 C 0.29991 -0.04239 0.15230
 C124 C 0.19952 0.22443 0.41400
 H125 H 0.23311 0.21808 0.38942
 C126 C 0.15416 0.24850 0.38979
 H127 H 0.15451 0.25929 0.34719
 C128 C 0.15671 0.21499 0.49690
 H129 H 0.15675 0.20035 0.53810
 C130 C 0.11076 0.23991 0.47456
 H131 H 0.07608 0.24342 0.49898
 N132 N 0.19905 0.20543 0.46564
 C133 C 0.35806 0.14644 0.53063
 H134 H 0.34127 0.10297 0.53016
 C135 C 0.41467 0.16280 0.54778
 H136 H 0.44125 0.13214 0.56146
 C137 C 0.34370 0.23920 0.51294
 H138 H 0.31581 0.26851 0.49886
 C139 C 0.40079 0.25713 0.52834
 H140 H 0.41667 0.30071 0.52738
 Zn141 Zn 0.24911 0.15252 0.48901
 N142 N 0.32358 0.18457 0.51469
 C143 C 0.28697 0.12660 0.38647
 N144 N 0.25787 0.10299 0.42561
 C145 C 0.24318 0.04674 0.42193
 C146 C 0.25948 0.01216 0.37844
 C147 C 0.30110 0.09414 0.34075
 C148 C 0.24615 0.12019 0.60058
 C149 C 0.22053 0.09982 0.64550
 C150 C 0.13806 0.06634 0.58132
 C151 C 0.16566 0.08617 0.53732
 N152 N 0.21831 0.11391 0.54772
 H153 H 0.30306 0.17041 0.39271
 H154 H 0.22156 0.02835 0.45420
 H155 H 0.24950 -0.03276 0.37762
 H156 H 0.32652 0.11449 0.31249
 H157 H 0.28712 0.14374 0.60891
 H158 H 0.24220 0.10750 0.68762
 H159 H 0.09502 0.04737 0.57303
 H160 H 0.14381 0.08248 0.49536
 C161 C 0.43660 0.21851 0.54629
 C162 C 0.10799 0.25494 0.41925
 C163 C 0.16536 0.07401 0.63625
 C164 C 0.28978 0.03576 0.33740
 C165 C 0.22060 0.43596 0.17674
 H166 H 0.22291 0.42038 0.21751
 C167 C 0.24928 0.41173 0.13546
 H168 H 0.27358 0.37819 0.14536
 C169 C 0.18282 0.49510 0.11285
 H170 H 0.15442 0.52516 0.10275
 C171 C 0.21142 0.47268 0.07071
 H172 H 0.20476 0.48649 0.02916
 N173 N 0.18707 0.47604 0.16456
 C174 C 0.13068 0.54801 0.31864
 H175 H 0.08856 0.55069 0.30007
 C176 C 0.14536 0.56325 0.37577
 H177 H 0.11483 0.57862 0.40106
 C178 C 0.22105 0.52210 0.30875
 H179 H 0.24988 0.50505 0.28261
 C180 C 0.23693 0.53523 0.36637
 H181 H 0.27845 0.52924 0.38444
 Zn182 Zn 0.13499 0.49607 0.21441
 N183 N 0.16799 0.52707 0.28660
 C184 C 0.12157 0.40113 0.26652
 N185 N 0.09306 0.42779 0.22714
 C186 C 0.04127 0.40545 0.20275
 C187 C 0.01459 0.35740 0.22212
 C188 C 0.09703 0.35321 0.28631
 C189 C 0.13106 0.60045 0.18270
 C190 C 0.11231 0.64720 0.16044
 C191 C 0.01858 0.59900 0.14675
 C192 C 0.03937 0.55250 0.16935
 N193 N 0.09524 0.55348 0.18506
 H194 H 0.16278 0.41868 0.28524
 H195 H 0.01997 0.42528 0.16965
 H196 H -0.02824 0.34227 0.20570
 H197 H 0.11896 0.33669 0.32136
 H198 H 0.17497 0.60091 0.19697
 H199 H 0.14216 0.68347 0.15791
 H200 H -0.02548 0.59715 0.13263
 H201 H 0.01083 0.51607 0.17373
 C202 C 0.19827 0.55508 0.40033
 C203 C 0.24411 0.42942 0.08136
 C204 C 0.05572 0.64640 0.14056
 C205 C 0.04224 0.33189 0.26578
 C206 C -0.17380 0.02423 0.22863
 H207 H -0.16938 0.04080 0.27224
 C208 C -0.20243 0.05146 0.18838
 H209 H -0.21884 0.08941 0.20258
 C210 C -0.14923 -0.04021 0.15850
 H211 H -0.12540 -0.07377 0.14697
 C212 C -0.17861 -0.01473 0.11640
 H213 H -0.17659 -0.02957 0.07310
 N214 N -0.14712 -0.01995 0.21323
 C215 C -0.10475 -0.07760 0.37620
 H216 H -0.05963 -0.07136 0.37865
 C217 C -0.13035 -0.09519 0.42176
 H218 H -0.10426 -0.10176 0.45942
 C219 C -0.19287 -0.07390 0.32475
 H220 H -0.21699 -0.06490 0.28691
 C221 C -0.22038 -0.09387 0.36864
 H222 H -0.26547 -0.09905 0.36369
 Zn223 Zn -0.09700 -0.03914 0.27139
 N224 N -0.13605 -0.06630 0.32933
 C225 C -0.05470 0.05248 0.35045
 N226 N -0.05183 0.02950 0.29746
 C227 C -0.02968 0.06070 0.25872
 C228 C -0.01388 0.11840 0.27143
 C229 C -0.03921 0.10942 0.36484
 C230 C -0.08821 -0.14481 0.22322
 C231 C -0.06448 -0.18637 0.19362
 C232 C 0.02450 -0.12822 0.21133
 C233 C -0.00120 -0.08736 0.24009
 N234 N -0.05702 -0.09563 0.24347
 H235 H -0.07373 0.02830 0.38045
 H236 H -0.02920 0.04191 0.21640
 H237 H -0.00029 0.14362 0.23915
 H238 H -0.04469 0.12738 0.40638
 H239 H -0.13251 -0.15020 0.22704
 H240 H -0.09136 -0.22308 0.17407
 H241 H 0.06859 -0.12010 0.20700
 H242 H 0.02280 -0.04817 0.25741
 C243 C -0.18900 -0.10594 0.41785
 C244 C -0.20618 0.03212 0.13076
 C245 C -0.00788 -0.17741 0.18532
 C246 C -0.02149 0.14350 0.32422
 C247 C 0.28702 0.48316 0.68957
 H248 H 0.27915 0.48660 0.73302
 C249 C 0.25075 0.50350 0.64970
 H250 H 0.21561 0.52155 0.66439
 C251 C 0.34814 0.46370 0.62178
 H252 H 0.38813 0.45194 0.61222
 C253 C 0.31259 0.48295 0.58026
 H254 H 0.32576 0.48546 0.53885
 N255 N 0.33596 0.46683 0.67563
 C256 C 0.36869 0.47930 0.84765
 H257 H 0.39385 0.51946 0.85185
 C258 C 0.34522 0.46039 0.89413
 H259 H 0.35467 0.48583 0.93383
 C260 C 0.32870 0.39646 0.79170
 H261 H 0.32173 0.37183 0.75165
 C262 C 0.30456 0.37598 0.83684
 H263 H 0.28125 0.33463 0.83117
 Zn264 Zn 0.39366 0.46902 0.73436
 N265 N 0.36082 0.44685 0.79790
 C266 C 0.47009 0.56227 0.79011
 N267 N 0.42858 0.54517 0.74745
 C268 C 0.40467 0.58331 0.71703
 C269 C 0.41758 0.64051 0.73281
 C270 C 0.48493 0.61950 0.80682
 C271 C 0.41695 0.36606 0.68971
 C272 C 0.44850 0.32464 0.67210
 C273 C 0.53217 0.38711 0.70626
 C274 C 0.49880 0.42743 0.72376
 N275 N 0.44219 0.41649 0.71443
 H276 H 0.48844 0.53167 0.81418
 H277 H 0.37237 0.56985 0.68280
 H278 H 0.39456 0.66989 0.71115
 H279 H 0.51458 0.63236 0.84368
 H280 H 0.37203 0.35868 0.68111
 H281 H 0.42696 0.28607 0.65034
 H282 H 0.57720 0.39702 0.71229
 H283 H 0.51813 0.46768 0.74351
 C284 C 0.31201 0.40818 0.88896
 C285 C 0.26501 0.50688 0.59476
 C286 C 0.50690 0.33542 0.67864
 C287 C 0.45646 0.65897 0.77950
 C288 C 0.72361 0.93141 0.70614
 H289 H 0.71905 0.91293 0.74493
 C290 C 0.74895 0.90325 0.66449
 H291 H 0.76415 0.86401 0.67271
 C292 C 0.70312 1.00085 0.64599
 H293 H 0.68256 1.03700 0.63709
 C294 C 0.72914 0.97474 0.60371
 H295 H 0.72810 0.99179 0.56350
 N296 N 0.69947 0.97830 0.69568
 C297 C 0.67099 1.07915 0.84388
 H298 H 0.64673 1.10547 0.81964
 C299 C 0.68568 1.09485 0.90100
 H300 H 0.67231 1.13338 0.91753
 C301 C 0.70958 0.99418 0.85150
 H302 H 0.71687 0.95391 0.83270
 C303 C 0.72532 1.00833 0.90912
 H304 H 0.74712 0.97920 0.93216
 Zn305 Zn 0.64943 1.00590 0.74482
 N306 N 0.68333 1.02975 0.81984
 C307 C 0.56266 0.95944 0.79521
 N308 N 0.59361 0.94738 0.75312
 C309 C 0.59085 0.89428 0.72787
 C310 C 0.55773 0.85019 0.74716
 C311 C 0.52967 0.91706 0.81587
 C312 C 0.65658 1.11304 0.71166
 C313 C 0.64095 1.15928 0.68603
 C314 C 0.54649 1.11301 0.66659
 C315 C 0.56410 1.06707 0.69291
 N316 N 0.61871 1.06761 0.71378
 H317 H 0.56641 1.00172 0.81516
 H318 H 0.61575 0.88554 0.69426
 H319 H 0.55653 0.80801 0.72755
 H320 H 0.50830 0.92788 0.85177
 H321 H 0.69961 1.11258 0.72881
 H322 H 0.67230 1.19449 0.68420
 H323 H 0.50352 1.11146 0.64831
 H324 H 0.53462 1.03051 0.69513
 C325 C 0.71373 1.05968 0.93524
 C326 C 0.75080 0.92415 0.61190
 C327 C 0.58571 1.15915 0.66162
 C328 C 0.52724 0.86135 0.79233
 C329 C 0.00052 0.20944 -0.20570
 H330 H 0.00810 0.25390 -0.20928
 C331 C 0.02404 0.17248 -0.24128
 H332 H 0.04898 0.18994 -0.27161
 C333 C -0.03224 0.13558 -0.15424
 H334 H -0.05038 0.12219 -0.11770
 C335 C -0.00999 0.09699 -0.18928
 H336 H -0.01167 0.05411 -0.17896
 N337 N -0.02406 0.19089 -0.16142
 C338 C -0.01376 0.36141 -0.11263
 H339 H 0.02267 0.36510 -0.08223
 C340 C -0.03002 0.40958 -0.13457
 H341 H -0.00652 0.44944 -0.11887
 C342 C -0.08931 0.30546 -0.16814
 H343 H -0.11140 0.26470 -0.18247
 C344 C -0.10723 0.35231 -0.19080
 H345 H -0.14466 0.34709 -0.22048
 Zn346 Zn -0.02516 0.24409 -0.09974
 N347 N -0.04401 0.31071 -0.12891
 C348 C 0.06454 0.29596 -0.01690
 N349 N 0.04911 0.25590 -0.06079
 C350 C 0.08821 0.22822 -0.08440
 C351 C 0.14490 0.24582 -0.06998
 C352 C 0.12127 0.31466 -0.00065
 C353 C -0.13369 0.20549 -0.07843
 C354 C -0.17591 0.18537 -0.04764
 C355 C -0.10745 0.19251 0.03375
 C356 C -0.06664 0.21336 0.00142
 N357 N -0.08016 0.21859 -0.05393
 H358 H 0.03298 0.31693 0.00206
 H359 H 0.07599 0.19507 -0.11762
 H360 H 0.17522 0.22676 -0.09289
 H361 H 0.13311 0.35014 0.03053
 H362 H -0.14368 0.20861 -0.12262
 H363 H -0.21705 0.17334 -0.06997
 H364 H -0.09509 0.18892 0.07769
 H365 H -0.02399 0.22442 0.02042
 C366 C -0.07722 0.40537 -0.17468
 C367 C 0.02169 0.11567 -0.23149
 C368 C -0.16308 0.17643 0.00907
 C369 C 0.16165 0.29129 -0.02976
 C370 C 0.42203 0.17365 0.20169
 H371 H 0.39830 0.20621 0.18802
 C372 C 0.39422 0.12769 0.22291
 H373 H 0.35023 0.12853 0.22525
 C374 C 0.50696 0.13464 0.21243
 H375 H 0.55035 0.13532 0.20634
 C376 C 0.48112 0.08849 0.23539
 H377 H 0.50672 0.05629 0.24621
 N378 N 0.47725 0.17609 0.19525
 C379 C 0.56356 0.33560 0.15561
 H380 H 0.57121 0.31910 0.11434
 C381 C 0.57864 0.39217 0.17258
 H382 H 0.59863 0.41858 0.14458
 C383 C 0.52416 0.32167 0.24016
 H384 H 0.50112 0.29424 0.26518
 C385 C 0.53756 0.37883 0.25835
 H386 H 0.52636 0.39502 0.29840
 Zn387 Zn 0.50649 0.23181 0.14927
 N388 N 0.53629 0.30171 0.18884
 C389 C 0.41720 0.28945 0.12606
 N390 N 0.44492 0.24990 0.10097
 C391 C 0.42745 0.22709 0.04754
 C392 C 0.38308 0.24727 0.01629
 C393 C 0.37222 0.30955 0.09709
 C394 C 0.61114 0.20265 0.15299
 C395 C 0.65847 0.18042 0.13828
 C396 C 0.62131 0.17564 0.04083
 C397 C 0.57292 0.19623 0.05794
 N398 N 0.56773 0.20664 0.11368
 H399 H 0.43004 0.30587 0.16904
 H400 H 0.44777 0.19380 0.02895
 H401 H 0.37096 0.23097 -0.02709
 H402 H 0.35277 0.34280 0.11722
 H403 H 0.60814 0.21532 0.19662
 H404 H 0.69112 0.17583 0.17137
 H405 H 0.62348 0.16489 -0.00334
 H406 H 0.53986 0.20309 0.02661
 C407 C 0.56440 0.41470 0.22370
 C408 C 0.42308 0.08286 0.23936
 C409 C 0.66349 0.16436 0.08172
 C410 C 0.35559 0.28949 0.04129
 C411 C 0.95129 0.70039 0.74763
 H412 H 0.93161 0.73813 0.74540
 C413 C 0.92720 0.65731 0.77565
 H414 H 0.88975 0.66301 0.79492
 C415 C 1.02151 0.64568 0.72228
 H416 H 1.05719 0.64039 0.69988
 C417 C 0.99886 0.60154 0.75001
 H418 H 1.01729 0.56270 0.74777
 N419 N 0.99525 0.69241 0.71835
 C420 C 1.03904 0.84552 0.63889
 H421 H 1.02477 0.82871 0.59608
 C422 C 1.05535 0.90274 0.65112
 H423 H 1.05408 0.93017 0.61775
 C424 C 1.05527 0.83056 0.73514
 H425 H 1.05379 0.80226 0.76762
 C426 C 1.07194 0.88786 0.74928
 H427 H 1.08378 0.90385 0.79280
 Zn428 Zn 1.00642 0.73652 0.65764
 N429 N 1.03879 0.81084 0.68065
 C430 C 0.90752 0.78252 0.64678
 N431 N 0.93491 0.74318 0.62119
 C432 C 0.91330 0.71494 0.57101
 C433 C 0.86344 0.72818 0.54347
 C434 C 0.85781 0.79682 0.62092
 C435 C 1.10091 0.72917 0.59804
 C436 C 1.13882 0.70115 0.56993
 C437 C 1.07397 0.61668 0.56162
 C438 C 1.03667 0.64659 0.58861
 N439 N 1.05154 0.70130 0.60825
 H440 H 0.92635 0.80587 0.68566
 H441 H 0.93593 0.68437 0.55092
 H442 H 0.84849 0.70835 0.50176
 H443 H 0.83991 0.83177 0.63972
 H444 H 1.11262 0.77230 0.61448
 H445 H 1.17934 0.72293 0.56524
 H446 H 1.06342 0.57217 0.54998
 H447 H 0.99757 0.62504 0.59766
 C448 C 1.07116 0.92427 0.70683
 C449 C 0.94911 0.60600 0.77434
 C450 C 1.12631 0.64380 0.55357
 C451 C 0.83632 0.77106 0.56779
 C452 C 0.51218 0.70661 0.32437
 H453 H 0.52453 0.75091 0.32332
 C454 C 0.53823 0.66824 0.29365
 H455 H 0.57039 0.68438 0.26933
 C456 C 0.46237 0.63374 0.36561
 H457 H 0.43568 0.62109 0.39671
 C458 C 0.48694 0.59338 0.33452
 H459 H 0.47821 0.54986 0.34180
 N460 N 0.47653 0.68911 0.36077
 C461 C 0.47091 0.86262 0.38866
 H462 H 0.50237 0.87299 0.42407
 C463 C 0.45276 0.90580 0.35874
 H464 H 0.46958 0.94852 0.37349
 C465 C 0.40939 0.79546 0.32844
 H466 H 0.39329 0.75235 0.31569
 C467 C 0.38956 0.83696 0.29790
 H468 H 0.35577 0.82400 0.26477
 Zn469 Zn 0.46498 0.74660 0.41453
 N470 N 0.44791 0.80866 0.37413
 C471 C 0.54800 0.81063 0.49746
 N472 N 0.53408 0.76246 0.46281
 C473 C 0.57304 0.72712 0.45354
 C474 C 0.62937 0.74389 0.47090
 C475 C 0.60435 0.82925 0.51578
 C476 C 0.35505 0.70284 0.41979
 C477 C 0.30891 0.67975 0.44325
 C478 C 0.36241 0.69838 0.53465
 C479 C 0.40775 0.72175 0.50926
 N480 N 0.40359 0.72232 0.45254
 H481 H 0.51619 0.83682 0.50702
 H482 H 0.56148 0.68741 0.42889
 H483 H 0.66034 0.71774 0.45834
 H484 H 0.61593 0.87027 0.53844
 H485 H 0.35275 0.70221 0.37487
 H486 H 0.27219 0.66193 0.41537
 H487 H 0.36699 0.69611 0.57960
 H488 H 0.44673 0.73759 0.53454
 C489 C 0.41131 0.89372 0.31215
 C490 C 0.52627 0.61045 0.29839
 C491 C 0.31264 0.67544 0.50115
 C492 C 0.64547 0.79675 0.49944
 C493 C 0.38508 -0.06159 0.28688
 C494 C 0.35525 -0.07735 0.23131
 C495 C 0.32594 -0.03459 0.20842
 C496 C 0.33365 0.01748 0.24626
 C497 C 0.42261 -0.01133 0.27961
 C498 C 0.39467 0.03308 0.25636
 C499 C 0.34368 -0.04265 0.32090
 C500 C 0.31618 0.00194 0.30024
 H501 H 0.36489 -0.11235 0.20438
 H502 H 0.30846 0.04881 0.22911
 H503 H 0.46743 -0.00947 0.28840
 H504 H 0.34090 -0.05460 0.36308
 C505 C 0.06485 1.07975 0.74826
 C506 C 0.09300 1.09603 0.69687
 C507 C 0.13370 1.06409 0.68442
 C508 C 0.14167 1.01741 0.72387
 C509 C 0.04277 1.01744 0.73333
 C510 C 0.08307 0.98499 0.72070
 C511 C 0.11073 1.08105 0.79251
 C512 C 0.15162 1.04432 0.78167
 H513 H 0.08082 1.12807 0.67089
 H514 H 0.17303 0.99062 0.71064
 H515 H -0.00070 1.00066 0.73220
 H516 H 0.11259 1.10780 0.83114
 C517 C 0.56353 0.57020 0.27370
 C518 C 0.58247 0.58630 0.22181
 C519 C 0.62278 0.55440 0.20037
 C520 C 0.63451 0.50838 0.23396
 C521 C 0.53981 0.50805 0.26028
 C522 C 0.57717 0.47556 0.23948
 C523 C 0.61665 0.56908 0.31400
 C524 C 0.65361 0.53563 0.29444
 H525 H 0.56192 0.61514 0.19696
 H526 H 0.66504 0.48228 0.21733
 H527 H 0.49746 0.49149 0.26523
 H528 H 0.61949 0.58560 0.35758
 C529 C 0.89994 0.45634 0.80344
 C530 C 0.87882 0.44808 0.74079
 C531 C 0.85460 0.49179 0.72109
 C532 C 0.85344 0.54035 0.76623
 C533 C 0.93967 0.51140 0.80958
 C534 C 0.91569 0.55540 0.78942
 C535 C 0.84974 0.47022 0.83265
 C536 C 0.82516 0.51411 0.81412
 H537 H 0.88658 0.41256 0.71336
 H538 H 0.83328 0.57552 0.74938
 H539 H 0.98434 0.51354 0.82044
 H540 H 0.83899 0.45064 0.86957
 C541 C 0.29140 0.38273 -0.06048
 C542 C 0.23474 0.34622 -0.07242
 C543 C 0.21835 0.32092 -0.02747
 C544 C 0.26004 0.33442 0.02579
 C545 C 0.28380 0.42394 -0.01031
 C546 C 0.26693 0.39880 0.03474
 C547 C 0.33183 0.34413 -0.03708
 C548 C 0.31602 0.31895 0.00778
 H549 H 0.20752 0.34467 -0.11137
 H550 H 0.24655 0.31311 0.06206
 H551 H 0.28493 0.46857 -0.01262
 H552 H 0.37217 0.34087 -0.05193
 C553 C 0.77199 0.06640 1.08876
 C554 C 0.72650 0.09525 1.10608
 C555 C 0.70766 0.13373 1.06900
 C556 C 0.73702 0.13437 1.01867
 C557 C 0.75006 0.03844 1.03301
 C558 C 0.73088 0.07602 0.99325
 C559 C 0.81502 0.11011 1.07878
 C560 C 0.79716 0.14675 1.03839
 H561 H 0.70276 0.08267 1.13964
 H562 H 0.72262 0.16610 0.99195
 H563 H 0.74459 -0.00654 1.02385
 H564 H 0.85876 0.10740 1.09180
 C565 C 0.24120 0.54802 0.55711
 C566 C 0.18735 0.57092 0.57149
 C567 C 0.17139 0.61091 0.53910
 C568 C 0.20939 0.62338 0.49338
 C569 C 0.22877 0.52664 0.49463
 C570 C 0.21208 0.56612 0.46142
 C571 C 0.28411 0.60013 0.55866
 C572 C 0.26889 0.63875 0.52388
 H573 H 0.16375 0.55826 0.60484
 H574 H 0.19502 0.65548 0.46659
 H575 H 0.23203 0.48409 0.47833
 H576 H 0.32688 0.60069 0.57734
 C577 C 0.78459 0.86893 0.46623
 C578 C 0.72310 0.84340 0.45581
 C579 C 0.70368 0.82165 0.50138
 C580 C 0.74719 0.82636 0.55318
 C581 C 0.78736 0.91131 0.51827
 C582 C 0.76669 0.88944 0.56353
 C583 C 0.81489 0.82079 0.48643
 C584 C 0.79717 0.79966 0.53263
 H585 H 0.69688 0.84132 0.41632
 H586 H 0.73066 0.80709 0.58926
 H587 H 0.79925 0.95569 0.51702
 H588 H 0.85226 0.80911 0.46980
 C589 C -0.04167 0.29154 0.38096
 C590 C -0.05736 0.22902 0.36222
 C591 C -0.01773 0.20494 0.33588
 C592 C 0.03370 0.24604 0.32898
 C593 C 0.01566 0.29457 0.41644
 C594 C 0.05501 0.26969 0.38983
 C595 C -0.02976 0.31678 0.32676
 C596 C 0.01066 0.29506 0.30036
 H597 H -0.09509 0.20447 0.37034
 H598 H 0.06472 0.22608 0.30585
 H599 H 0.02232 0.31017 0.46040
 H600 H -0.04587 0.35479 0.31494
 C601 C 1.04997 0.77076 0.05187
 C602 C 1.06947 0.71723 0.07325
 C603 C 1.03772 0.69357 0.11021
 C604 C 0.98806 0.72542 0.12237
 C605 C 0.98861 0.75467 0.02801
 C606 C 0.95628 0.73102 0.06472
 C607 C 1.04784 0.80841 0.10618
 C608 C 1.01416 0.78589 0.14243
 H609 H 1.10796 0.70155 0.06438
 H610 H 0.96205 0.70565 0.15231
 H611 H 0.97223 0.76178 -0.01408
 H612 H 1.06550 0.85192 0.11174
 C613 C 0.59151 0.27979 0.56815
 C614 C 0.60842 0.22806 0.59478
 C615 C 0.57177 0.20550 0.62789
 C616 C 0.51886 0.23537 0.62902
 C617 C 0.53373 0.25971 0.53499
 C618 C 0.49585 0.23648 0.56709
 C619 C 0.57902 0.31944 0.61688
 C620 C 0.53984 0.29744 0.64795
 H621 H 0.64650 0.21034 0.58755
 H622 H 0.48829 0.21620 0.65523
 H623 H 0.52325 0.26346 0.49079
 H624 H 0.59210 0.36404 0.61914
 C625 C 0.42416 0.78136 0.87457
 C626 C 0.41194 0.72922 0.83249
 C627 C 0.45702 0.71604 0.80693
 C628 C 0.51040 0.75739 0.82502
 C629 C 0.47393 0.76863 0.91495
 C630 C 0.51911 0.75622 0.88902
 C631 C 0.44784 0.82714 0.84125
 C632 C 0.49350 0.81620 0.81635
 H633 H 0.37402 0.70036 0.82993
 H634 H 0.54676 0.74679 0.80358
 H635 H 0.47176 0.76488 0.95918
 H636 H 0.43016 0.86634 0.83925
   
