data_POSCAR
  _audit_creation_date              2014-09-24
  _audit_creation_method            'ToBaCCo'
  _symmetry_space_group_name_H-M    'P1'
  _symmetry_Int_Tables_number       1
  _symmetry_cell_setting            triclinic
  loop_
  _symmetry_equiv_pos_as_xyz
 x,y,z
_cell_length_a 43.7541
_cell_length_b 43.8037
_cell_length_c 43.6429
_cell_angle_alpha 90.260000
_cell_angle_beta 90.120500
_cell_angle_gamma 89.997900
loop_
  _atom_site_label
  _atom_site_type_symbol
  _atom_site_fract_x
  _atom_site_fract_y
  _atom_site_fract_z
N1 N 0.29923 0.38520 1.36338
 N2 N 0.30037 0.36370 1.38428
 C3 C 0.27609 0.36661 1.40306
 C4 C 0.25883 0.39116 1.39320
 C5 C 0.27418 0.40241 1.36799
 H6 H 0.27107 0.35183 1.42219
 H7 H 0.26753 0.42162 1.35399
 Cu8 Cu 0.33294 0.33341 1.38395
 Cu9 Cu 0.33000 0.38917 1.33145
 Cu10 Cu 0.38841 0.33572 1.33081
 N11 N 0.36573 0.30337 1.38316
 N12 N 0.38755 0.30457 1.36252
 C13 C 0.40697 0.28111 1.36685
 C14 C 0.39661 0.26423 1.39142
 C15 C 0.37042 0.27898 1.40124
 H16 H 0.42681 0.27636 1.35288
 H17 H 0.35579 0.27221 1.41997
 N18 N 0.38533 0.36896 1.30064
 N19 N 0.36320 0.38947 1.30098
 C20 C 0.36718 0.40876 1.27733
 C21 C 0.39291 0.39984 1.26137
 C22 C 0.40384 0.37459 1.27671
 H23 H 0.35223 0.42759 1.27174
 H24 H 0.42367 0.36117 1.27057
 H25 H 0.34191 0.34344 1.32982
 H26 H 0.36520 0.36860 1.35546
 N27 N 1.19752 0.61042 0.86575
 N28 N 1.19535 0.63134 0.88733
 C29 C 1.21917 0.62845 0.90675
 C30 C 1.23717 0.60453 0.89665
 C31 C 1.22279 0.59360 0.87061
 H32 H 1.22348 0.64295 0.92640
 H33 H 1.23038 0.57502 0.85611
 Cu34 Cu 1.16240 0.66120 0.88725
 Cu35 Cu 1.16797 0.60699 0.83251
 Cu36 Cu 1.10984 0.66066 0.83074
 N37 N 1.13024 0.69182 0.88496
 N38 N 1.10953 0.69133 0.86309
 C39 C 1.09046 0.71522 0.86677
 C40 C 1.09994 0.73167 0.89218
 C41 C 1.12520 0.71617 0.90319
 H42 H 1.07156 0.72060 0.85172
 H43 H 1.13905 0.72244 0.92279
 N44 N 1.11393 0.62788 0.80000
 N45 N 1.13592 0.60724 0.80072
 C46 C 1.13274 0.58839 0.77639
 C47 C 1.10768 0.59778 0.75962
 C48 C 1.09632 0.62281 0.77517
 H49 H 1.14779 0.56958 0.77091
 H50 H 1.07681 0.63647 0.76861
 H51 H 1.15645 0.65283 0.83228
 H52 H 1.13173 0.62692 0.85542
 N53 N 0.69808 -0.11092 0.13364
 N54 N 0.69613 -0.13254 0.11270
 C55 C 0.71972 -0.12973 0.09305
 C56 C 0.73733 -0.10516 0.10235
 C57 C 0.72294 -0.09376 0.12812
 H58 H 0.72417 -0.14471 0.07381
 H59 H 0.73035 -0.07468 0.14210
 Cu60 Cu 0.66334 -0.16260 0.11382
 Cu61 Cu 0.66913 -0.10726 0.16734
 Cu62 Cu 0.61545 -0.16499 0.17374
 N63 N 0.63113 -0.19319 0.11648
 N64 N 0.61201 -0.19365 0.13968
 C65 C 0.59259 -0.21730 0.13622
 C66 C 0.60017 -0.23261 0.10950
 C67 C 0.62467 -0.21667 0.09753
 H68 H 0.57489 -0.22341 0.15234
 H69 H 0.63716 -0.22216 0.07686
 N70 N 0.61782 -0.13031 0.20254
 N71 N 0.63794 -0.10801 0.19989
 C72 C 0.63386 -0.08797 0.22309
 C73 C 0.61011 -0.09826 0.24110
 C74 C 0.60044 -0.12506 0.22742
 H75 H 0.64745 -0.06769 0.22697
 H76 H 0.58221 -0.13974 0.23525
 H77 H 0.66141 -0.15327 0.16896
 H78 H 0.63270 -0.13032 0.14722
 N79 N -0.19764 1.11721 -0.36229
 N80 N -0.19604 1.13835 -0.38350
 C81 C -0.22038 1.13570 -0.40231
 C82 C -0.23807 1.11164 -0.39227
 C83 C -0.22302 1.10041 -0.36684
 H84 H -0.22527 1.15047 -0.42149
 H85 H -0.23019 1.08162 -0.35257
 Cu86 Cu -0.16288 1.16792 -0.38409
 Cu87 Cu -0.16715 1.11353 -0.33000
 Cu88 Cu -0.10869 1.16687 -0.32902
 N89 N -0.13051 1.19833 -0.38230
 N90 N -0.10910 1.19772 -0.36111
 C91 C -0.08994 1.22145 -0.36536
 C92 C -0.10013 1.23787 -0.39042
 C93 C -0.12588 1.22256 -0.40058
 H94 H -0.07047 1.22671 -0.35096
 H95 H -0.14037 1.22894 -0.41961
 N96 N -0.11217 1.13392 -0.29853
 N97 N -0.13428 1.11340 -0.29911
 C98 C -0.13056 1.09417 -0.27537
 C99 C -0.10504 1.10314 -0.25902
 C100 C -0.09391 1.12835 -0.27428
 H101 H -0.14548 1.07525 -0.27004
 H102 H -0.07404 1.14168 -0.26800
 H103 H -0.15550 1.15943 -0.32950
 H104 H -0.13149 1.13346 -0.35366
 N105 N 0.69495 0.61513 0.62834
 N106 N 0.69357 0.63608 0.60688
 C107 C 0.71671 0.63161 0.58701
 C108 C 0.73364 0.60698 0.59706
 C109 C 0.71938 0.59717 0.62337
 H110 H 0.72172 0.64588 0.56750
 H111 H 0.72640 0.57847 0.63787
 Cu112 Cu 0.66323 0.66854 0.60902
 Cu113 Cu 0.66517 0.61247 0.66122
 Cu114 Cu 0.60960 0.66876 0.66399
 N115 N 0.63211 0.70022 0.61102
 N116 N 0.61025 0.69911 0.63163
 C117 C 0.59126 0.72291 0.62763
 C118 C 0.60220 0.74016 0.60370
 C119 C 0.62822 0.72533 0.59371
 H120 H 0.57168 0.72804 0.64183
 H121 H 0.64303 0.73232 0.57521
 N122 N 0.61284 0.63606 0.69461
 N123 N 0.63307 0.61377 0.69268
 C124 C 0.62913 0.59469 0.71647
 C125 C 0.60584 0.60598 0.73446
 C126 C 0.59607 0.63224 0.72014
 H127 H 0.64296 0.57479 0.72115
 H128 H 0.57812 0.64737 0.72786
 H129 H 0.63041 0.63485 0.63850
 H130 H 0.65578 0.65870 0.66341
 N131 N 0.81331 0.38773 0.11663
 N132 N 0.80792 0.36228 0.10145
 C133 C 0.78235 0.36555 0.08464
 C134 C 0.77133 0.39477 0.08922
 C135 C 0.79165 0.40838 0.10942
 H136 H 0.77205 0.34776 0.07080
 H137 H 0.78983 0.43093 0.11949
 Cu138 Cu 0.83374 0.32667 0.10656
 Cu139 Cu 0.84593 0.39026 0.14729
 Cu140 Cu 0.86643 0.31887 0.17501
 N141 N 0.86220 0.29363 0.11444
 N142 N 0.87361 0.28947 0.14200
 C143 C 0.89087 0.26402 0.14192
 C144 C 0.89070 0.25207 0.11253
 C145 C 0.87231 0.27141 0.09566
 H146 H 0.90321 0.25533 0.16154
 H147 H 0.86641 0.26921 0.07166
 N148 N 0.87201 0.35695 0.19847
 N149 N 0.86673 0.38429 0.18693
 C150 C 0.87552 0.40565 0.20744
 C151 C 0.88643 0.39091 0.23317
 C152 C 0.88378 0.36012 0.22680
 H153 H 0.87331 0.43002 0.20427
 H154 H 0.89061 0.34140 0.24138
 H155 H 0.87081 0.34983 0.14128
 H156 H 0.83186 0.34784 0.15842
 N157 N 0.31204 0.11191 0.88124
 N158 N 0.30734 0.13724 0.89682
 C159 C 0.28198 0.13420 0.91388
 C160 C 0.27040 0.10524 0.90905
 C161 C 0.29013 0.09155 0.88840
 H162 H 0.27235 0.15188 0.92830
 H163 H 0.28790 0.06910 0.87820
 Cu164 Cu 0.33424 0.17211 0.89259
 Cu165 Cu 0.34463 0.10893 0.85075
 Cu166 Cu 0.36850 0.17998 0.82496
 N167 N 0.36353 0.20459 0.88570
 N168 N 0.37567 0.20876 0.85850
 C169 C 0.39324 0.23400 0.85924
 C170 C 0.39246 0.24579 0.88868
 C171 C 0.37343 0.22659 0.90489
 H172 H 0.40602 0.24275 0.83998
 H173 H 0.36685 0.22881 0.92867
 N174 N 0.37281 0.14218 0.80076
 N175 N 0.36611 0.11486 0.81153
 C176 C 0.37406 0.09361 0.79059
 C177 C 0.38590 0.10843 0.76537
 C178 C 0.38470 0.13915 0.77252
 H179 H 0.37065 0.06929 0.79311
 H180 H 0.39259 0.15785 0.75851
 H181 H 0.37111 0.14825 0.85819
 H182 H 0.33259 0.15222 0.84027
 N183 N 0.20728 0.86953 0.36149
 N184 N 0.20080 0.85716 0.38809
 C185 C 0.22182 0.86593 0.40890
 C186 C 0.24287 0.88429 0.39427
 C187 C 0.23315 0.88591 0.36418
 H188 H 0.22230 0.85881 0.43260
 H189 H 0.24371 0.89858 0.34579
 Cu190 Cu 0.16715 0.82856 0.39169
 Cu191 Cu 0.18033 0.86467 0.32612
 Cu192 Cu 0.10685 0.84299 0.34699
 N193 N 0.13116 0.80278 0.39258
 N194 N 0.10674 0.80926 0.37623
 C195 C 0.08537 0.78763 0.38099
 C196 C 0.09757 0.76614 0.40066
 C197 C 0.12664 0.77640 0.40750
 H198 H 0.06351 0.78654 0.36940
 H199 H 0.14347 0.76512 0.42167
 N200 N 0.11604 0.86551 0.30905
 N201 N 0.14420 0.87180 0.30024
 C202 C 0.14328 0.88541 0.27270
 C203 C 0.11309 0.88798 0.26386
 C204 C 0.09637 0.87517 0.28738
 H205 H 0.16308 0.89345 0.26030
 H206 H 0.07181 0.87258 0.28839
 H207 H 0.14675 0.86745 0.35761
 H208 H 0.15015 0.82947 0.33839
 Zn209 Zn 0.04119 0.97630 0.00745
 Zn210 Zn 0.01084 1.03253 -0.01500
 Zn211 Zn -0.02053 0.97177 -0.02280
 Zn212 Zn -0.01341 1.00046 0.03959
 O213 O 0.00442 0.99518 0.00219
 O214 O 0.07280 0.99799 -0.00668
 O215 O -0.00761 1.03594 -0.05119
 O216 O -0.00228 0.93659 -0.03489
 O217 O 0.05040 1.04061 -0.02190
 O218 O 0.04278 0.94061 -0.01190
 O219 O -0.03145 0.99167 -0.05742
 O220 O -0.04972 0.98251 0.04161
 O221 O -0.00355 1.06343 0.00776
 O222 O -0.05580 0.96089 -0.00401
 O223 O -0.02034 1.03962 0.04904
 O224 O 0.00845 0.98501 0.07049
 O225 O 0.04970 0.96798 0.04670
 C226 C 0.07419 1.02449 -0.01814
 C227 C -0.02456 1.01824 -0.06681
 C228 C 0.02409 0.92603 -0.02869
 C229 C -0.06544 0.96687 0.02283
 C230 C -0.01600 1.06391 0.03397
 C231 C 0.03437 0.97211 0.07100
 Zn232 Zn 0.49315 -0.03208 0.48496
 Zn233 Zn 0.51575 -0.00093 0.54104
 Zn234 Zn 0.52270 0.02944 0.47963
 Zn235 Zn 0.46068 0.02239 0.50872
 O236 O 0.49817 0.00485 0.50353
 O237 O 0.50641 -0.06344 0.50747
 O238 O 0.55088 0.01912 0.54463
 O239 O 0.53558 0.01046 0.44496
 O240 O 0.52521 -0.03994 0.54836
 O241 O 0.51324 -0.03462 0.44984
 O242 O 0.55678 0.04179 0.49972
 O243 O 0.45790 0.05801 0.48957
 O244 O 0.49229 0.01187 0.57241
 O245 O 0.50315 0.06370 0.46752
 O246 O 0.45217 0.03058 0.54786
 O247 O 0.42960 -0.00047 0.49427
 O248 O 0.45454 -0.04016 0.47525
 C249 C 0.52017 -0.06407 0.53305
 C250 C 0.56610 0.03594 0.52668
 C251 C 0.52998 -0.01631 0.43504
 C252 C 0.47628 0.07321 0.47318
 C253 C 0.46655 0.02526 0.57250
 C254 C 0.42988 -0.02582 0.48011
 Zn255 Zn 0.95960 0.47968 0.48915
 Zn256 Zn 1.02135 0.47408 0.51889
 Zn257 Zn 1.01427 0.50470 0.45764
 Zn258 Zn 0.99036 0.53499 0.51370
 O259 O 0.99650 0.49826 0.49491
 O260 O 0.95725 0.44410 0.50864
 O261 O 1.05562 0.46230 0.49907
 O262 O 0.99165 0.49094 0.42593
 O263 O 1.00249 0.43951 0.53110
 O264 O 0.95197 0.47094 0.44999
 O265 O 1.05011 0.48574 0.45448
 O266 O 1.00286 0.56688 0.49137
 O267 O 1.03382 0.49331 0.55346
 O268 O 1.02223 0.54409 0.45042
 O269 O 1.01028 0.53788 0.54912
 O270 O 0.95132 0.54201 0.52277
 O271 O 0.92779 0.50198 0.50254
 C272 C 0.97583 0.42942 0.52536
 C273 C 1.06526 0.46875 0.47242
 C274 C 0.96644 0.47658 0.42554
 C275 C 1.01642 0.56805 0.46576
 C276 C 1.02759 0.51981 0.56369
 C277 C 0.92713 0.52722 0.51688
 Zn278 Zn 0.48612 0.49778 0.96226
 Zn279 Zn 0.53988 0.52364 0.99464
 Zn280 Zn 0.47816 0.52770 1.02408
 Zn281 Zn 0.51018 0.46711 1.01762
 O282 O 0.50348 0.50413 0.99977
 O283 O 0.50855 0.51193 0.93124
 O284 O 0.54119 0.55916 1.01410
 O285 O 0.44328 0.53820 1.00442
 O286 O 0.54792 0.53261 0.95553
 O287 O 0.44993 0.51601 0.95914
 O288 O 0.49592 0.56314 1.03637
 O289 O 0.49185 0.46427 1.05385
 O290 O 0.57184 0.50219 1.00855
 O291 O 0.46695 0.50813 1.05867
 O292 O 0.54987 0.45958 1.02446
 O293 O 0.49585 0.43550 0.99554
 O294 O 0.47903 0.45854 0.95381
 C295 C 0.53352 0.52657 0.93102
 C296 C 0.52233 0.57374 1.03056
 C297 C 0.43405 0.53200 0.97745
 C298 C 0.47433 0.48194 1.06877
 C299 C 0.57352 0.47578 1.02026
 C300 C 0.48335 0.43454 0.96931
 C301 C 1.17800 0.42338 0.42860
 N302 N 1.19049 0.43614 0.40327
 N303 N 1.21677 0.42578 0.39197
 C304 C 1.23153 0.40211 0.40547
 N305 N 1.21904 0.38931 0.43085
 N306 N 1.19278 0.39979 0.44226
 C307 C 1.14879 0.43490 0.44051
 N308 N 1.13715 0.42485 0.46750
 N309 N 1.11058 0.43563 0.47793
 C310 C 1.09468 0.45670 0.46162
 N311 N 1.10634 0.46662 0.43466
 N312 N 1.13289 0.45599 0.42434
 C313 C 0.32002 0.57386 0.93333
 N314 N 0.30903 0.56219 0.90663
 N315 N 0.28255 0.57184 0.89514
 C316 C 0.26609 0.59364 0.90986
 N317 N 0.27702 0.60535 0.93660
 N318 N 0.30350 0.59559 0.94818
 C319 C 0.34951 0.56320 0.94538
 N320 N 0.36010 0.57249 0.97321
 N321 N 0.38700 0.56258 0.98370
 C322 C 0.40427 0.54316 0.96662
 N323 N 0.39363 0.53398 0.93885
 N324 N 0.36678 0.54375 0.92846
 C325 C -0.18013 0.92570 0.06545
 N326 N -0.19146 0.93797 0.09168
 N327 N -0.21786 0.92827 0.10318
 C328 C -0.23392 0.90582 0.08895
 N329 N -0.22267 0.89351 0.06266
 N330 N -0.19625 0.90331 0.05106
 C331 C -0.15058 0.93630 0.05358
 N332 N -0.13955 0.92649 0.02614
 N333 N -0.11248 0.93621 0.01600
 C334 C -0.09549 0.95595 0.03307
 N335 N -0.10660 0.96567 0.06042
 N336 N -0.13361 0.95610 0.07045
 C337 C 0.67894 0.08051 0.57151
 N338 N 0.69025 0.06886 0.59798
 N339 N 0.71671 0.07873 0.60939
 C340 C 0.73283 0.10075 0.59483
 N341 N 0.72158 0.11244 0.56831
 N342 N 0.69513 0.10246 0.55681
 C343 C 0.64957 0.06947 0.55943
 N344 N 0.63907 0.07817 0.53145
 N345 N 0.61241 0.06767 0.52081
 C346 C 0.59532 0.04824 0.53788
 N347 N 0.60582 0.03976 0.56585
 N348 N 0.63242 0.05012 0.57639
 C349 C 0.43276 0.18505 0.42619
 N350 N 0.44698 0.19977 0.40290
 N351 N 0.43537 0.22556 0.39164
 C352 C 0.40921 0.23759 0.40335
 N353 N 0.39520 0.22293 0.42677
 N354 N 0.40672 0.19714 0.43791
 C355 C 0.44470 0.15621 0.43834
 N356 N 0.42805 0.14027 0.45899
 N357 N 0.43830 0.11391 0.46998
 C358 C 0.46566 0.10250 0.46087
 N359 N 0.48246 0.11846 0.44028
 N360 N 0.47211 0.14485 0.42914
 C361 C 0.93464 0.31723 0.57376
 N362 N 0.90902 0.30429 0.56190
 N363 N 0.89797 0.27848 0.57344
 C364 C 0.91202 0.26463 0.59741
 N365 N 0.93775 0.27752 0.60926
 N366 N 0.94889 0.30333 0.59761
 C367 C 0.94603 0.34614 0.56116
 N368 N 0.97292 0.35851 0.57074
 N369 N 0.98268 0.38498 0.55930
 C370 C 0.96580 0.40005 0.53801
 N371 N 0.93896 0.38764 0.52853
 N372 N 0.92931 0.36118 0.53982
 C373 C 0.06479 0.81208 -0.07420
 N374 N 0.05126 0.79785 -0.09838
 N375 N 0.06251 0.77165 -0.10926
 C376 C 0.08761 0.75870 -0.09626
 N377 N 0.10093 0.77289 -0.07197
 N378 N 0.08979 0.79909 -0.06122
 C379 C 0.05341 0.84145 -0.06245
 N380 N 0.06991 0.85691 -0.04113
 N381 N 0.06035 0.88376 -0.03054
 C382 C 0.03383 0.89619 -0.04071
 N383 N 0.01712 0.88071 -0.06198
 N384 N 0.02681 0.85382 -0.07274
 C385 C 0.56340 0.68775 1.07562
 N386 N 0.58738 0.70136 1.06152
 N387 N 0.59896 0.72738 1.07230
 C388 C 0.58714 0.74073 1.09777
 N389 N 0.56301 0.72720 1.11185
 N390 N 0.55130 0.70120 1.10094
 C391 C 0.55180 0.65842 1.06399
 N392 N 0.52566 0.64574 1.07498
 N393 N 0.51584 0.61883 1.06431
 C394 C 0.53198 0.60365 1.04246
 N395 N 0.55804 0.61639 1.03161
 N396 N 0.56770 0.64326 1.04208
 C397 C 0.42819 0.43745 1.18089
 N398 N 0.44036 0.41166 1.19297
 N399 N 0.42925 0.39988 1.21871
 C400 C 0.40545 0.41339 1.23331
 N401 N 0.39325 0.43924 1.22129
 N402 N 0.40445 0.45110 1.19555
 C403 C 0.44029 0.44975 1.15209
 N404 N 0.43002 0.47662 1.14047
 N405 N 0.44096 0.48721 1.11404
 C406 C 0.46246 0.47122 1.09829
 N407 N 0.47266 0.44442 1.10997
 N408 N 0.46184 0.43392 1.13637
 C409 C 0.57650 -0.06064 0.32261
 N410 N 0.59843 -0.04579 0.30648
 N411 N 0.60913 -0.05763 0.28039
 C412 C 0.59822 -0.08464 0.26952
 N413 N 0.57625 -0.09934 0.28561
 N414 N 0.56564 -0.08758 0.31166
 C415 C 0.56472 -0.04840 0.35168
 N416 N 0.54475 -0.06521 0.36824
 N417 N 0.53390 -0.05476 0.39471
 C418 C 0.54250 -0.02703 0.40569
 N419 N 0.56247 -0.01004 0.38914
 N420 N 0.57345 -0.02059 0.36258
 C421 C -0.07040 1.06470 -0.17849
 N422 N -0.05832 1.09080 -0.18997
 N423 N -0.06926 1.10290 -0.21569
 C424 C -0.09281 1.08944 -0.23084
 N425 N -0.10496 1.06334 -0.21937
 N426 N -0.09392 1.05115 -0.19367
 C427 C -0.05835 1.05189 -0.14983
 N428 N -0.06829 1.02458 -0.13901
 N429 N -0.05742 1.01351 -0.11270
 C430 C -0.03631 1.02944 -0.09627
 N431 N -0.02641 1.05665 -0.10719
 N432 N -0.03715 1.06762 -0.13347
 C433 C 1.07437 0.56228 0.67691
 N434 N 1.06242 0.58814 0.68922
 N435 N 1.07297 0.59923 0.71563
 C436 C 1.09598 0.58496 0.73071
 N437 N 1.10801 0.55904 0.71845
 N438 N 1.09735 0.54786 0.69202
 C439 C 1.06257 0.55068 0.64754
 N440 N 1.07198 0.52350 0.63571
 N441 N 1.06090 0.51342 0.60899
 C442 C 1.04016 0.53026 0.59316
 N443 N 1.03087 0.55738 0.60504
 N444 N 1.04180 0.56736 0.63171
 C445 C 0.81525 0.57326 0.56105
 N446 N 0.79302 0.58377 0.54208
 N447 N 0.76701 0.59481 0.55351
 C448 C 0.76219 0.59516 0.58423
 N449 N 0.78430 0.58438 0.60312
 N450 N 0.81050 0.57390 0.59175
 C451 C 0.84421 0.56177 0.54890
 N452 N 0.87048 0.56641 0.56479
 N453 N 0.89692 0.55570 0.55424
 C454 C 0.89795 0.53944 0.52773
 N455 N 0.87163 0.53456 0.51190
 N456 N 0.84522 0.54578 0.52219
 C457 C 0.68817 0.42983 1.05777
 N458 N 0.70994 0.44879 1.06931
 N459 N 0.73653 0.43770 1.07924
 C460 C 0.74242 0.40730 1.07764
 N461 N 0.72074 0.38841 1.06587
 N462 N 0.69405 0.39945 1.05626
 C463 C 0.65854 0.44181 1.04757
 N464 N 0.63431 0.42278 1.04385
 N465 N 0.60722 0.43361 1.03513
 C466 C 0.60347 0.46382 1.02947
 N467 N 0.62775 0.48283 1.03297
 N468 N 0.65476 0.47205 1.04202
 C469 C 0.18800 1.07061 -0.05749
 N470 N 0.19416 1.10094 -0.05589
 N471 N 0.22061 1.11185 -0.06618
 C472 C 0.24173 1.09288 -0.07875
 N473 N 0.23556 1.06255 -0.08043
 N474 N 0.20923 1.05159 -0.06983
 C475 C 0.15863 1.05870 -0.04659
 N476 N 0.15491 1.02841 -0.04133
 N477 N 0.12811 1.01758 -0.03186
 C478 C 0.10396 1.03660 -0.02763
 N479 N 0.10766 1.06689 -0.03296
 N480 N 0.13456 1.07776 -0.04210
 C481 C 0.32123 -0.07593 0.43182
 N482 N 0.31975 -0.08279 0.40150
 N483 N 0.29460 -0.09515 0.38951
 C484 C 0.27024 -0.10158 0.40753
 N485 N 0.27175 -0.09491 0.43791
 N486 N 0.29675 -0.08208 0.44982
 C487 C 0.34922 -0.06286 0.44480
 N488 N 0.34841 -0.04474 0.47014
 N489 N 0.37406 -0.03267 0.48146
 C490 C 0.40141 -0.03879 0.46812
 N491 N 0.40218 -0.05711 0.44299
 N492 N 0.37653 -0.06874 0.43140
 C493 C 0.56647 -0.17689 0.57364
 N494 N 0.54765 -0.19928 0.58377
 N495 N 0.55908 -0.22575 0.59339
 C496 C 0.58965 -0.23095 0.59261
 N497 N 0.60845 -0.20868 0.58216
 N498 N 0.59706 -0.18200 0.57308
 C499 C 0.55402 -0.14756 0.56369
 N500 N 0.56975 -0.12135 0.56891
 N501 N 0.55852 -0.09463 0.55977
 C502 C 0.53142 -0.09326 0.54466
 N503 N 0.51578 -0.11950 0.53924
 N504 N 0.52673 -0.14617 0.54890
 C505 C 1.06038 0.68212 0.42586
 N506 N 1.09098 0.68551 0.42237
 N507 N 1.10274 0.71240 0.41461
 C508 C 1.08429 0.73676 0.40956
 N509 N 1.05361 0.73335 0.41275
 N510 N 1.04187 0.70654 0.42106
 C511 C 1.04781 0.65252 0.43498
 N512 N 1.02231 0.65083 0.45257
 N513 N 1.01203 0.62386 0.46218
 C514 C 1.02659 0.59767 0.45406
 N515 N 1.05179 0.59938 0.43609
 N516 N 1.06236 0.62634 0.42693
 C517 C -0.06455 1.17397 0.08049
 N518 N -0.07536 1.19514 0.06061
 N519 N -0.08957 1.22004 0.07087
 C520 C -0.09327 1.22479 0.10138
 N521 N -0.08220 1.20378 0.12130
 N522 N -0.06825 1.17870 0.11103
 C523 C -0.05019 1.14593 0.06898
 N524 N -0.04682 1.12128 0.08744
 N525 N -0.03538 1.09526 0.07644
 C526 C -0.02661 1.09307 0.04668
 N527 N -0.02960 1.11784 0.02835
 N528 N -0.04130 1.14376 0.03927
 C529 C 0.43595 0.32406 0.92226
 N530 N 0.42442 0.30296 0.94176
 N531 N 0.41065 0.27799 0.93101
 C532 C 0.40813 0.27309 0.90038
 N533 N 0.41991 0.29403 0.88086
 N534 N 0.43342 0.31917 0.89161
 C535 C 0.44985 0.35220 0.93416
 N536 N 0.45378 0.37667 0.91562
 N537 N 0.46492 0.40276 0.92676
 C538 C 0.47286 0.40523 0.95676
 N539 N 0.46929 0.38064 0.97523
 N540 N 0.45786 0.35463 0.96415
 C541 C 0.57611 0.57114 0.81805
 N542 N 0.57638 0.60169 0.81306
 N543 N 0.58547 0.61277 0.78622
 C544 C 0.59510 0.59370 0.76364
 N545 N 0.59508 0.56315 0.76870
 N546 N 0.58544 0.55203 0.79536
 C547 C 0.56581 0.55905 0.84745
 N548 N 0.55059 0.53210 0.84880
 N549 N 0.54038 0.52161 0.87550
 C550 C 0.54560 0.53743 0.90181
 N551 N 0.56115 0.56420 0.90049
 N552 N 0.57086 0.57495 0.87373
 C553 C 0.41848 0.07044 0.68373
 N554 N 0.40808 0.09961 0.68466
 N555 N 0.39780 0.11166 0.71073
 C556 C 0.39710 0.09483 0.73673
 N557 N 0.40724 0.06554 0.73580
 N558 N 0.41797 0.05361 0.70978
 C559 C 0.43025 0.05765 0.65495
 N560 N 0.45056 0.03419 0.65497
 N561 N 0.46210 0.02363 0.62871
 C562 C 0.45335 0.03587 0.60153
 N563 N 0.43277 0.05904 0.60155
 N564 N 0.42159 0.06987 0.62778
 C565 C 0.08008 0.92599 0.18261
 N566 N 0.11036 0.92038 0.18628
 N567 N 0.12087 0.90842 0.21226
 C568 C 0.10144 0.90141 0.23539
 N569 N 0.07114 0.90697 0.23171
 N570 N 0.06066 0.91913 0.20581
 C571 C 0.06847 0.93879 0.15385
 N572 N 0.03916 0.94872 0.15170
 N573 N 0.02845 0.95979 0.12541
 C574 C 0.04660 0.96115 0.10026
 N575 N 0.07593 0.95126 0.10242
 N576 N 0.08670 0.94040 0.12878
 C577 C 0.91985 0.42949 0.31429
 N578 N 0.91989 0.44584 0.28793
 N579 N 0.90897 0.43371 0.26205
 C580 C 0.89804 0.40469 0.26158
 N581 N 0.89820 0.38833 0.28789
 N582 N 0.90871 0.40058 0.31381
 C583 C 0.93153 0.44257 0.34300
 N584 N 0.92264 0.43071 0.37022
 N585 N 0.93346 0.44199 0.39644
 C586 C 0.95389 0.46530 0.39643
 N587 N 0.96292 0.47715 0.36920
 N588 N 0.95176 0.46611 0.34293
   
