data_POSCAR
  _audit_creation_date              2014-09-24
  _audit_creation_method            'ToBaCCo'
  _symmetry_space_group_name_H-M    'P1'
  _symmetry_Int_Tables_number       1
  _symmetry_cell_setting            triclinic
  loop_
  _symmetry_equiv_pos_as_xyz
 x,y,z
_cell_length_a 39.1789
_cell_length_b 37.6270
_cell_length_c 38.4529
_cell_angle_alpha 90.414100
_cell_angle_beta 90.561900
_cell_angle_gamma 89.911800
loop_
  _atom_site_label
  _atom_site_type_symbol
  _atom_site_fract_x
  _atom_site_fract_y
  _atom_site_fract_z
C1 C 0.19178 0.49430 1.05015
 H2 H 0.19226 0.52216 1.04339
 C3 C 0.16995 0.48243 1.07614
 H4 H 0.15386 0.50159 1.08932
 C5 C 0.21183 0.43573 1.04045
 H6 H 0.22757 0.41741 1.02598
 C7 C 0.19055 0.42271 1.06627
 H8 H 0.19097 0.39448 1.07118
 N9 N 0.21233 0.47100 1.03309
 C10 C 0.29351 0.53617 0.98986
 H11 H 0.29084 0.52885 0.96271
 C12 C 0.31924 0.55960 1.00036
 H13 H 0.33629 0.57036 0.98112
 C14 C 0.27517 0.52990 1.04805
 H15 H 0.25829 0.51777 1.06657
 C16 C 0.30096 0.55278 1.05977
 H17 H 0.30325 0.55853 1.08731
 Zn18 Zn 0.24017 0.48813 0.99686
 N19 N 0.27200 0.52203 1.01360
 C20 C 0.21325 0.54386 0.95546
 N21 N 0.21113 0.50863 0.96283
 C22 C 0.18733 0.48758 0.94708
 C23 C 0.16520 0.50158 0.92197
 C24 C 0.19161 0.55897 0.93059
 C25 C 0.28937 0.43517 0.99986
 C26 C 0.31110 0.40845 0.98796
 C27 C 0.28556 0.41401 0.93082
 C28 C 0.26414 0.44060 0.94389
 N29 N 0.26639 0.45054 0.97792
 H30 H 0.23152 0.56047 0.96905
 H31 H 0.18570 0.45981 0.95395
 H32 H 0.14665 0.48428 0.90949
 H33 H 0.19411 0.58698 0.92517
 H34 H 0.29098 0.44400 1.02666
 H35 H 0.32940 0.39682 1.00586
 H36 H 0.28338 0.40670 0.90365
 H37 H 0.24625 0.45366 0.92667
 C38 C 0.32353 0.56770 1.03575
 C39 C 0.16904 0.44612 1.08464
 C40 C 0.30964 0.39776 0.95296
 C41 C 0.16726 0.53770 0.91331
 C42 C 0.80555 0.51482 -0.05581
 H43 H 0.80796 0.54258 -0.04870
 C44 C 0.82646 0.50028 -0.08147
 H45 H 0.84487 0.51715 -0.09411
 C46 C 0.77891 0.45911 -0.04750
 H47 H 0.76091 0.44289 -0.03369
 C48 C 0.79930 0.44346 -0.07294
 H49 H 0.79614 0.41547 -0.07853
 N50 N 0.78196 0.49432 -0.03983
 C51 C 0.70719 0.56986 -0.00007
 H52 H 0.70681 0.56128 0.02671
 C53 C 0.68490 0.59643 -0.01121
 H54 H 0.66750 0.60826 0.00728
 C55 C 0.72949 0.56356 -0.05684
 H56 H 0.74632 0.55007 -0.07470
 C57 C 0.70744 0.58999 -0.06918
 H58 H 0.70813 0.59682 -0.09642
 Zn59 Zn 0.75455 0.51548 -0.00509
 N60 N 0.72886 0.55400 -0.02281
 C61 C 0.78587 0.56612 0.03981
 N62 N 0.78370 0.53101 0.03147
 C63 C 0.80322 0.50643 0.04815
 C64 C 0.82548 0.51676 0.07497
 C65 C 0.80772 0.57761 0.06645
 C66 C 0.69996 0.46910 -0.01317
 C67 C 0.67361 0.44661 -0.00323
 C68 C 0.69234 0.45330 0.05653
 C69 C 0.71880 0.47517 0.04535
 N70 N 0.72204 0.48263 0.01099
 H71 H 0.77093 0.58540 0.02559
 H72 H 0.80139 0.47873 0.04062
 H73 H 0.84066 0.49676 0.08808
 H74 H 0.80891 0.60570 0.07236
 H75 H 0.70267 0.47618 -0.04022
 H76 H 0.65613 0.43627 -0.02280
 H77 H 0.68993 0.44786 0.08399
 H78 H 0.73609 0.48692 0.06422
 C79 C 0.68441 0.60645 -0.04628
 C80 C 0.82338 0.46418 -0.09047
 C81 C 0.66925 0.43895 0.03203
 C82 C 0.82783 0.55276 0.08456
 C83 C -0.01397 0.30452 0.45582
 H84 H -0.00146 0.31803 0.47730
 C85 C -0.02336 0.32374 0.42626
 H86 H -0.01829 0.35203 0.42570
 C87 C -0.03393 0.25117 0.42982
 H88 H -0.03625 0.22255 0.43054
 C89 C -0.04491 0.26950 0.40033
 H90 H -0.05613 0.25438 0.37914
 N91 N -0.01936 0.26885 0.45713
 C92 C -0.03068 0.20124 0.54870
 H93 H -0.00683 0.20748 0.56172
 C94 C -0.05426 0.17918 0.56493
 H95 H -0.04797 0.16804 0.59006
 C96 C -0.06789 0.20846 0.50039
 H97 H -0.07375 0.22040 0.47569
 C98 C -0.09187 0.18597 0.51534
 H99 H -0.11559 0.18053 0.50163
 Zn100 Zn -0.00254 0.24253 0.49583
 N101 N -0.03746 0.21481 0.51664
 C102 C -0.00721 0.29482 0.54806
 N103 N 0.01498 0.27410 0.53000
 C104 C 0.04913 0.27539 0.53646
 C105 C 0.06221 0.29806 0.56218
 C106 C 0.00478 0.31793 0.57400
 C107 C 0.04702 0.18752 0.50180
 C108 C 0.07436 0.16644 0.49088
 C109 C 0.07303 0.19682 0.43581
 C110 C 0.04584 0.21732 0.44778
 N111 N 0.03328 0.21238 0.48024
 H112 H -0.03426 0.29322 0.54237
 H113 H 0.06635 0.25889 0.52161
 H114 H 0.08948 0.29853 0.56664
 H115 H -0.01329 0.33413 0.58820
 H116 H 0.03716 0.18431 0.52769
 H117 H 0.08505 0.14696 0.50850
 H118 H 0.08258 0.20181 0.41004
 H119 H 0.03532 0.23775 0.43126
 C120 C -0.08505 0.17083 0.54786
 C121 C -0.03933 0.30637 0.39799
 C122 C 0.08776 0.17098 0.45749
 C123 C 0.03991 0.31966 0.58148
 C124 C 0.95707 0.71007 0.52827
 H125 H 0.94356 0.71757 0.50478
 C126 C 0.94144 0.68754 0.55199
 H127 H 0.91617 0.67743 0.54620
 C128 C 1.00643 0.71409 0.56411
 H129 H 1.03149 0.72474 0.56923
 C130 C 0.99200 0.69117 0.58824
 H131 H 1.00635 0.68424 0.61144
 N132 N 0.98925 0.72238 0.53432
 C133 C 0.96694 0.78331 0.44830
 H134 H 0.98122 0.76730 0.43006
 C135 C 0.94022 0.80469 0.43629
 H136 H 0.93453 0.80481 0.40875
 C137 C 0.95724 0.80209 0.50632
 H138 H 0.96390 0.80053 0.53364
 C139 C 0.93033 0.82385 0.49545
 H140 H 0.91646 0.83917 0.51464
 Zn141 Zn 1.00894 0.75092 0.49922
 N142 N 0.97476 0.78224 0.48279
 C143 C 1.00338 0.69459 0.45015
 N144 N 1.02388 0.72120 0.46220
 C145 C 1.05515 0.72687 0.44822
 C146 C 1.06728 0.70479 0.42176
 C147 C 1.01448 0.67191 0.42364
 C148 C 1.04740 0.81309 0.51532
 C149 C 1.07632 0.83201 0.52621
 C150 C 1.10375 0.77638 0.54042
 C151 C 1.07465 0.75852 0.52862
 N152 N 1.04703 0.77696 0.51679
 H153 H 0.97845 0.69076 0.46119
 H154 H 1.07077 0.74869 0.45741
 H155 H 1.09223 0.71003 0.41122
 H156 H 0.99788 0.65069 0.41465
 H157 H 1.02557 0.82727 0.50506
 H158 H 1.07642 0.86074 0.52456
 H159 H 1.12553 0.76111 0.54931
 H160 H 1.07437 0.72978 0.52813
 C161 C 0.92128 0.82513 0.46006
 C162 C 0.95923 0.67743 0.58219
 C163 C 1.10483 0.81361 0.53915
 C164 C 1.04695 0.67662 0.40932
 C165 C 0.46344 -0.02765 0.30472
 H166 H 0.48630 -0.04103 0.31352
 C167 C 0.43268 -0.03370 0.32185
 H168 H 0.43206 -0.05167 0.34371
 C169 C 0.43599 0.01200 0.26586
 H170 H 0.43716 0.02995 0.24419
 C171 C 0.40460 0.00576 0.28143
 H172 H 0.38202 0.01920 0.27170
 N173 N 0.46470 -0.00478 0.27743
 C174 C 0.51695 -0.04090 0.19182
 H175 H 0.51283 -0.01756 0.17623
 C176 C 0.52180 -0.07383 0.17533
 H177 H 0.52067 -0.07524 0.14720
 C178 C 0.52390 -0.06739 0.24700
 H179 H 0.52501 -0.06471 0.27496
 C180 C 0.52934 -0.10056 0.23175
 H181 H 0.53418 -0.12271 0.24881
 Zn182 Zn 0.50618 0.00318 0.25310
 N183 N 0.51681 -0.03855 0.22716
 C184 C 0.57410 0.01578 0.26874
 N185 N 0.54333 0.01145 0.28419
 C186 C 0.53993 0.01480 0.31927
 C187 C 0.56836 0.02265 0.34022
 C188 C 0.60288 0.02468 0.28854
 C189 C 0.48250 0.04601 0.19504
 C190 C 0.47781 0.07833 0.17767
 C191 C 0.50996 0.10759 0.22339
 C192 C 0.51458 0.07491 0.23941
 N193 N 0.50104 0.04479 0.22523
 H194 H 0.57602 0.01318 0.24079
 H195 H 0.51518 0.01232 0.33106
 H196 H 0.56538 0.02554 0.36807
 H197 H 0.62707 0.02853 0.27574
 H198 H 0.47032 0.02227 0.18501
 H199 H 0.46289 0.07906 0.15382
 H200 H 0.52104 0.13107 0.23536
 H201 H 0.52822 0.07396 0.26390
 C202 C 0.52727 -0.10454 0.19535
 C203 C 0.40281 -0.01725 0.30980
 C204 C 0.49119 0.10965 0.19227
 C205 C 0.60009 0.02833 0.32471
 C206 C 0.54517 -0.05766 0.72889
 H207 H 0.53139 -0.07486 0.74617
 C208 C 0.57090 -0.07186 0.70803
 H209 H 0.57660 -0.09989 0.70994
 C210 C 0.55364 -0.00055 0.70497
 H211 H 0.54661 0.02724 0.70391
 C212 C 0.57951 -0.01361 0.68367
 H213 H 0.59232 0.00440 0.66628
 N214 N 0.53741 -0.02246 0.72737
 C215 C 0.44854 -0.04199 0.78428
 H216 H 0.43232 -0.02798 0.76610
 C217 C 0.43392 -0.06515 0.80817
 H218 H 0.40660 -0.06920 0.80746
 C219 C 0.50360 -0.05273 0.80802
 H220 H 0.53067 -0.04710 0.80824
 C221 C 0.49012 -0.07633 0.83210
 H222 H 0.50710 -0.08901 0.85064
 Zn223 Zn 0.50291 -0.00201 0.75534
 N224 N 0.48283 -0.03629 0.78459
 C225 C 0.45390 -0.00454 0.70205
 N226 N 0.46967 0.01779 0.72503
 C227 C 0.46251 0.05317 0.72552
 C228 C 0.43786 0.06717 0.70295
 C229 C 0.42909 0.00832 0.67904
 C230 C 0.55592 0.03946 0.78656
 C231 C 0.56942 0.06388 0.81052
 C232 C 0.51235 0.07503 0.83122
 C233 C 0.50001 0.05019 0.80712
 N234 N 0.52174 0.03321 0.78521
 H235 H 0.46048 -0.03247 0.70184
 H236 H 0.47597 0.07068 0.74326
 H237 H 0.43264 0.09536 0.70407
 H238 H 0.41660 -0.01000 0.66120
 H239 H 0.57291 0.02504 0.76957
 H240 H 0.59667 0.06843 0.81108
 H241 H 0.49461 0.08820 0.84849
 H242 H 0.47303 0.04416 0.80601
 C243 C 0.45482 -0.08250 0.83265
 C244 C 0.58863 -0.04967 0.68514
 C245 C 0.54750 0.08193 0.83337
 C246 C 0.42059 0.04458 0.67941
 C247 C 0.31761 -0.00564 0.45958
 H248 H 0.33059 0.00838 0.48044
 C249 C 0.33461 -0.01184 0.42832
 H250 H 0.36071 -0.00289 0.42565
 C251 C 0.26722 -0.03182 0.43657
 H252 H 0.24070 -0.03872 0.43949
 C253 C 0.28315 -0.03834 0.40489
 H254 H 0.26869 -0.05091 0.38411
 N255 N 0.28427 -0.01506 0.46292
 C256 C 0.20116 0.04576 0.50636
 H257 H 0.19695 0.03299 0.53107
 C258 C 0.17806 0.07129 0.49416
 H259 H 0.15607 0.07813 0.50970
 C260 C 0.23474 0.05203 0.45587
 H261 H 0.25701 0.04469 0.44110
 C262 C 0.21236 0.07752 0.44271
 H263 H 0.21802 0.08943 0.41793
 Zn264 Zn 0.25877 0.00015 0.50212
 N265 N 0.22866 0.03644 0.48698
 C266 C 0.28398 0.05187 0.54956
 N267 N 0.28860 0.01824 0.53726
 C268 C 0.31454 -0.00249 0.54938
 C269 C 0.33668 0.01020 0.57529
 C270 C 0.30562 0.06568 0.57537
 C271 C 0.20361 -0.04744 0.50120
 C272 C 0.18387 -0.07622 0.51172
 C273 C 0.22291 -0.08495 0.55987
 C274 C 0.24181 -0.05588 0.54851
 N275 N 0.23239 -0.03824 0.51918
 H276 H 0.26343 0.06807 0.53945
 H277 H 0.31808 -0.02894 0.53879
 H278 H 0.35707 -0.00679 0.58465
 H279 H 0.30105 0.09236 0.58488
 H280 H 0.19592 -0.03241 0.47858
 H281 H 0.16139 -0.08343 0.49667
 H282 H 0.23120 -0.09866 0.58308
 H283 H 0.26414 -0.04778 0.56310
 C284 C 0.18331 0.08720 0.46171
 C285 C 0.31700 -0.02736 0.40014
 C286 C 0.19377 -0.09579 0.54105
 C287 C 0.33239 0.04471 0.58865
 C288 C 0.70003 -0.00277 0.56294
 H289 H 0.69869 0.02461 0.55464
 C290 C 0.67794 -0.01502 0.58848
 H291 H 0.65974 0.00325 0.59986
 C292 C 0.72506 -0.05987 0.55758
 H293 H 0.74308 -0.07741 0.54507
 C294 C 0.70344 -0.07324 0.58301
 H295 H 0.70557 -0.10097 0.58984
 N296 N 0.72315 -0.02512 0.54824
 C297 C 0.80336 0.04285 0.50756
 H298 H 0.80370 0.03351 0.48088
 C299 C 0.82651 0.06877 0.51865
 H300 H 0.84454 0.07939 0.50026
 C301 C 0.77997 0.03952 0.56403
 H302 H 0.76208 0.02771 0.58172
 C303 C 0.80302 0.06512 0.57636
 H304 H 0.80214 0.07312 0.60341
 Zn305 Zn 0.75108 -0.00696 0.51262
 N306 N 0.78040 0.02912 0.53007
 C307 C 0.72639 0.04405 0.46393
 N308 N 0.72202 0.01091 0.47707
 C309 C 0.69747 -0.01121 0.46417
 C310 C 0.67747 -0.00105 0.43565
 C311 C 0.70729 0.05507 0.43512
 C312 C 0.80399 -0.05752 0.51470
 C313 C 0.82710 -0.08227 0.50122
 C314 C 0.79957 -0.07650 0.44508
 C315 C 0.77704 -0.05192 0.45961
 N316 N 0.77953 -0.04298 0.49387
 H317 H 0.74524 0.06172 0.47511
 H318 H 0.69426 -0.03727 0.47536
 H319 H 0.65886 -0.01947 0.42494
 H320 H 0.71179 0.08118 0.42449
 H321 H 0.80584 -0.04947 0.54172
 H322 H 0.84653 -0.09336 0.51819
 H323 H 0.79696 -0.08285 0.41774
 H324 H 0.75802 -0.03951 0.44321
 C325 C 0.82669 0.08006 0.55348
 C326 C 0.67941 -0.05070 0.59884
 C327 C 0.82523 -0.09189 0.46590
 C328 C 0.68305 0.03201 0.42014
 C329 C 0.47577 0.20719 1.04251
 H330 H 0.46376 0.19730 1.01892
 C331 C 0.47159 0.18902 1.07389
 H332 H 0.45617 0.16517 1.07451
 C333 C 0.51147 0.24960 1.07050
 H334 H 0.52822 0.27221 1.06920
 C335 C 0.50721 0.23297 1.10233
 H336 H 0.52040 0.24344 1.12506
 N337 N 0.49535 0.23705 1.04144
 C338 C 0.46336 0.29489 0.94846
 H339 H 0.48711 0.29424 0.93435
 C340 C 0.43499 0.31207 0.93424
 H341 H 0.43711 0.32464 0.90912
 C342 C 0.43249 0.28075 0.99924
 H343 H 0.43196 0.26904 1.02482
 C344 C 0.40372 0.29861 0.98638
 H345 H 0.38094 0.30029 1.00204
 Zn346 Zn 0.50256 0.26019 0.99836
 N347 N 0.46156 0.27939 0.98023
 C348 C 0.50197 0.21494 0.93931
 N349 N 0.52093 0.22618 0.96708
 C350 C 0.55212 0.21182 0.97406
 C351 C 0.56600 0.18616 0.95182
 C352 C 0.51465 0.18908 0.91669
 C353 C 0.52020 0.32522 1.02715
 C354 C 0.54131 0.35292 1.03821
 C355 C 0.58590 0.32932 1.00171
 C356 C 0.56408 0.30152 0.99186
 N357 N 0.53231 0.29932 1.00569
 H358 H 0.47666 0.22547 0.93493
 H359 H 0.56621 0.22028 0.99699
 H360 H 0.59084 0.17511 0.95790
 H361 H 0.49914 0.18052 0.89472
 H362 H 0.49455 0.32327 1.03711
 H363 H 0.53157 0.37250 1.05634
 H364 H 0.61153 0.33021 0.99145
 H365 H 0.57288 0.28140 0.97389
 C366 C 0.40484 0.31442 0.95347
 C367 C 0.48708 0.20234 1.10430
 C368 C 0.57490 0.35464 1.02612
 C369 C 0.54716 0.17458 0.92261
 C370 C 0.44374 0.79367 -0.02364
 H371 H 0.42901 0.78649 -0.00110
 C372 C 0.43101 0.81894 -0.04695
 H373 H 0.40639 0.83096 -0.04211
 C374 C 0.49437 0.78779 -0.05635
 H375 H 0.51945 0.77639 -0.05954
 C376 C 0.48286 0.81317 -0.07996
 H377 H 0.49902 0.82043 -0.10147
 N378 N 0.47460 0.77809 -0.02913
 C379 C 0.47256 0.68132 0.03340
 H380 H 0.49835 0.68286 0.04360
 C381 C 0.45093 0.65440 0.04448
 H382 H 0.46039 0.63508 0.06295
 C383 C 0.42903 0.70495 -0.00290
 H384 H 0.42060 0.72466 -0.02137
 C385 C 0.40668 0.67787 0.00693
 H386 H 0.38103 0.67716 -0.00380
 Zn387 Zn 0.49204 0.74445 0.00305
 N388 N 0.46094 0.70681 0.01133
 C389 C 0.48709 0.75771 0.07547
 N390 N 0.50175 0.76880 0.04551
 C391 C 0.52262 0.79772 0.04529
 C392 C 0.52998 0.81620 0.07624
 C393 C 0.49455 0.77464 0.10693
 C394 C 0.52858 0.70648 -0.04646
 C395 C 0.55633 0.68896 -0.06124
 C396 C 0.58991 0.70391 -0.01016
 C397 C 0.56170 0.72204 0.00327
 N398 N 0.53183 0.72297 -0.01503
 H399 H 0.46941 0.73581 0.07523
 H400 H 0.53352 0.80641 0.02106
 H401 H 0.54668 0.83910 0.07587
 H402 H 0.48286 0.76516 0.13052
 H403 H 0.50427 0.70697 -0.06005
 H404 H 0.55314 0.67583 -0.08619
 H405 H 0.61344 0.70282 0.00483
 H406 H 0.56344 0.73464 0.02858
 C407 C 0.41730 0.65294 0.03177
 C408 C 0.45070 0.82885 -0.07565
 C409 C 0.58740 0.68737 -0.04290
 C410 C 0.51633 0.80412 0.10755
 C411 C 1.04285 0.44141 0.22039
 H412 H 1.03119 0.42456 0.23952
 C413 C 1.06763 0.42728 0.19841
 H414 H 1.07476 0.39971 0.20139
 C415 C 1.04729 0.49759 0.19342
 H416 H 1.03899 0.52496 0.19159
 C417 C 1.07225 0.48457 0.17094
 H418 H 1.08311 0.50216 0.15184
 N419 N 1.03341 0.47607 0.21776
 C420 C 1.00136 0.44577 0.30167
 H421 H 1.02582 0.45808 0.30696
 C422 C 0.99090 0.41676 0.32133
 H423 H 1.00749 0.40679 0.34175
 C424 C 0.95047 0.44323 0.26793
 H425 H 0.93469 0.45362 0.24721
 C426 C 0.93930 0.41378 0.28655
 H427 H 0.91493 0.40191 0.27991
 Zn428 Zn 0.99945 0.49489 0.24745
 N429 N 0.98145 0.45798 0.27512
 C430 C 0.95094 0.49543 0.19297
 N431 N 0.96503 0.51548 0.21893
 C432 C 0.95589 0.55006 0.22353
 C433 C 0.93104 0.56548 0.20219
 C434 C 0.92590 0.50977 0.17104
 C435 C 1.05182 0.53960 0.27440
 C436 C 1.06562 0.56602 0.29596
 C437 C 1.01126 0.57081 0.32472
 C438 C 0.99853 0.54424 0.30263
 N439 N 1.01864 0.52973 0.27763
 H440 H 0.95924 0.46824 0.18927
 H441 H 0.96795 0.56596 0.24360
 H442 H 0.92421 0.59294 0.20675
 H443 H 0.91488 0.49330 0.15065
 H444 H 1.06769 0.52721 0.25498
 H445 H 1.09194 0.57358 0.29240
 H446 H 0.99466 0.58243 0.34408
 H447 H 0.97237 0.53549 0.30502
 C448 C 0.95994 0.39984 0.31322
 C449 C 1.08275 0.44896 0.17325
 C450 C 1.04514 0.58230 0.32132
 C451 C 0.91559 0.54524 0.17553
 C452 C -0.04939 0.44625 0.77348
 H453 H -0.03725 0.42797 0.75569
 C454 C -0.07490 0.43397 0.79548
 H455 H -0.08220 0.40632 0.79391
 C456 C -0.05378 0.50417 0.79762
 H457 H -0.04513 0.53146 0.79840
 C458 C -0.07935 0.49307 0.82004
 H459 H -0.09036 0.51211 0.83797
 N460 N -0.03964 0.48091 0.77471
 C461 C 0.04719 0.45323 0.71975
 H462 H 0.06386 0.46650 0.73819
 C463 C 0.06055 0.42719 0.69768
 H464 H 0.08733 0.42061 0.70002
 C465 C -0.00756 0.44670 0.69384
 H466 H -0.03403 0.45482 0.69232
 C467 C 0.00471 0.42049 0.67130
 H468 H -0.01260 0.40842 0.65255
 Zn469 Zn -0.00457 0.49859 0.74632
 N470 N 0.01360 0.46222 0.71770
 C471 C 0.04345 0.49449 0.80017
 N472 N 0.02956 0.51710 0.77650
 C473 C 0.03892 0.55187 0.77557
 C474 C 0.06389 0.56487 0.79847
 C475 C 0.06854 0.50634 0.82347
 C476 C -0.05547 0.54310 0.71625
 C477 C -0.06787 0.56871 0.69321
 C478 C -0.01075 0.57561 0.67115
 C479 C 0.00047 0.54968 0.69436
 N480 N -0.02177 0.53432 0.71657
 H481 H 0.03507 0.46712 0.80076
 H482 H 0.02692 0.56969 0.75727
 H483 H 0.07099 0.59256 0.79694
 H484 H 0.07946 0.48779 0.84191
 H485 H -0.07292 0.52999 0.73352
 H486 H -0.09473 0.57538 0.69357
 H487 H 0.00739 0.58758 0.65371
 H488 H 0.02702 0.54171 0.69473
 C489 C 0.03920 0.41042 0.67300
 C490 C -0.09029 0.45758 0.81915
 C491 C -0.04535 0.58530 0.67025
 C492 C 0.07918 0.54192 0.82277
 C493 C 0.11730 0.14929 0.44607
 C494 C 0.13111 0.14943 0.41314
 C495 C 0.15777 0.12627 0.41440
 C496 C 0.15849 0.11352 0.44801
 O497 O 0.13385 0.12738 0.46715
 H498 H 0.12288 0.16430 0.39062
 H499 H 0.17428 0.11940 0.39301
 C500 C 0.65850 0.63239 -0.05845
 C501 C 0.65051 0.63955 -0.09280
 C502 C 0.62309 0.66188 -0.09173
 C503 C 0.61645 0.66692 -0.05688
 O504 O 0.63790 0.64919 -0.03672
 H505 H 0.66225 0.62893 -0.11599
 H506 H 0.60931 0.67274 -0.11375
 C507 C 0.89196 -0.15264 0.44867
 C508 C 0.87924 -0.15055 0.41511
 C509 C 0.85236 -0.12763 0.41678
 C510 C 0.85044 -0.11726 0.45126
 O511 O 0.87447 -0.13246 0.47053
 H512 H 0.88811 -0.16405 0.39199
 H513 H 0.83635 -0.11962 0.39516
 C514 C 0.33440 0.37103 0.94005
 C515 C 0.34041 0.36300 0.90550
 C516 C 0.36723 0.33987 0.90576
 C517 C 0.37552 0.33526 0.94038
 O518 O 0.35563 0.35402 0.96115
 H519 H 0.32775 0.37352 0.88267
 H520 H 0.37960 0.32824 0.88335
 C521 C 0.89034 0.14559 0.56282
 C522 C 0.88705 0.13811 0.59772
 C523 C 0.86203 0.11300 0.59935
 C524 C 0.85203 0.10682 0.56529
 O525 O 0.86915 0.12665 0.54321
 H526 H 0.90114 0.14953 0.61940
 H527 H 0.85291 0.10022 0.62258
 C528 C 0.35233 0.59044 0.04716
 C529 C 0.36754 0.58941 0.07968
 C530 C 0.39419 0.61253 0.07822
 C531 C 0.39323 0.62616 0.04499
 O532 O 0.36785 0.61282 0.02611
 H533 H 0.36067 0.57314 0.10160
 H534 H 0.41202 0.61886 0.09900
 C535 C 0.13593 -0.16680 0.54976
 C536 C 0.16003 -0.17874 0.57335
 C537 C 0.18474 -0.15330 0.57420
 C538 C 0.17402 -0.12767 0.55093
 O539 O 0.14434 -0.13585 0.53622
 H540 H 0.15978 -0.20314 0.58806
 H541 H 0.20813 -0.15410 0.58934
 C542 C 0.63995 0.41714 1.04278
 C543 C 0.62435 0.41934 1.07475
 C544 C 0.59745 0.39652 1.07270
 C545 C 0.59870 0.38190 1.03969
 O546 O 0.62446 0.39437 1.02152
 H547 H 0.63123 0.43611 1.09669
 H548 H 0.57935 0.39091 1.09301
 C549 C 0.48560 0.14451 1.17572
 C550 C 0.48359 0.17617 1.19397
 C551 C 0.48228 0.20193 1.16946
 C552 C 0.48349 0.18423 1.13796
 O553 O 0.48516 0.14928 1.14160
 H554 H 0.48386 0.18008 1.22188
 H555 H 0.48150 0.23034 1.17399
 C556 C -0.05525 0.65170 0.60684
 C557 C -0.08947 0.64400 0.61043
 C558 C -0.09079 0.61839 0.63531
 C559 C -0.05725 0.61222 0.64498
 O560 O -0.03578 0.63248 0.62775
 H561 H -0.11092 0.65558 0.59666
 H562 H -0.11353 0.60541 0.64458
 C563 C 0.44052 0.89352 -0.14081
 C564 C 0.40661 0.89152 -0.13147
 C565 C 0.40552 0.86708 -0.10545
 C566 C 0.43882 0.85584 -0.10085
 O567 O 0.45995 0.87187 -0.12226
 H568 H 0.38521 0.90637 -0.14185
 H569 H 0.38305 0.85840 -0.09180
 C570 C 0.95178 0.32557 0.36794
 C571 C 0.93165 0.31321 0.34063
 C572 C 0.93070 0.34006 0.31707
 C573 C 0.95053 0.36679 0.33134
 O574 O 0.96316 0.35813 0.36218
 H575 H 0.91898 0.28783 0.33787
 H576 H 0.91810 0.33955 0.29191
 C577 C 0.52899 0.86171 0.17924
 C578 C 0.53304 0.82967 0.19644
 C579 C 0.52978 0.80403 0.17158
 C580 C 0.52433 0.82191 0.14092
 O581 O 0.52407 0.85684 0.14532
 H582 H 0.53689 0.82488 0.22386
 H583 H 0.53062 0.77557 0.17541
 C584 C 0.05259 0.34391 0.60929
 C585 C 0.08599 0.34640 0.62093
 C586 C 0.08578 0.37163 0.64651
 C587 C 0.05227 0.38283 0.64878
 O588 O 0.03222 0.36599 0.62622
 H589 H 0.10805 0.33167 0.61219
 H590 H 0.10768 0.38056 0.66147
 C591 C 0.56054 0.10749 0.85976
 C592 C 0.59417 0.11099 0.87042
 C593 C 0.59400 0.13662 0.89570
 C594 C 0.56032 0.14699 0.89860
 O595 O 0.54012 0.12934 0.87684
 H596 H 0.61619 0.09638 0.86137
 H597 H 0.61593 0.14660 0.91000
 C598 C 1.05898 0.65215 0.38162
 C599 C 1.09149 0.65135 0.36805
 C600 C 1.09106 0.62493 0.34364
 C601 C 1.05830 0.61136 0.34399
 O602 O 1.03894 0.62785 0.36707
 H603 H 1.11319 0.66773 0.37501
 H604 H 1.11230 0.61683 0.32770
 C605 C 1.14682 0.43405 0.11062
 C606 C 1.14370 0.39928 0.12171
 C607 C 1.11938 0.39998 0.14675
 C608 C 1.10921 0.43504 0.14937
 O609 O 1.12582 0.45563 0.12748
 H610 H 1.15721 0.37586 0.11296
 H611 H 1.11024 0.37731 0.16101
 C612 C 0.61645 -0.06330 0.66275
 C613 C 0.62861 -0.09779 0.66208
 C614 C 0.65399 -0.09806 0.63808
 C615 C 0.65561 -0.06371 0.62571
 O616 O 0.63285 -0.04273 0.64071
 H617 H 0.62030 -0.12025 0.67717
 H618 H 0.66928 -0.12079 0.63074
 C619 C -0.15458 0.44887 0.88209
 C620 C -0.15480 0.41396 0.87063
 C621 C -0.13069 0.41212 0.84535
 C622 C -0.11743 0.44602 0.84312
 O623 O -0.13194 0.46819 0.86538
 H624 H -0.17049 0.39224 0.87936
 H625 H -0.12388 0.38870 0.83051
 C626 C 0.36990 -0.02391 0.32672
 C627 C 0.33934 -0.02795 0.30912
 C628 C 0.31541 -0.03159 0.33427
 C629 C 0.33312 -0.02920 0.36549
 O630 O 0.36627 -0.02463 0.36087
 H631 H 0.33500 -0.02770 0.28129
 H632 H 0.28818 -0.03402 0.33012
 C633 C 0.14398 0.55243 0.88638
 C634 C 0.14246 0.58752 0.87608
 C635 C 0.11788 0.58870 0.85079
 C636 C 0.10608 0.55426 0.84738
 O637 O 0.12189 0.53237 0.86899
 H638 H 0.15730 0.60981 0.88561
 H639 H 0.10977 0.61207 0.83676
 C640 C 0.62994 0.03872 0.34608
 C641 C 0.65469 0.06230 0.33571
 C642 C 0.67738 0.06410 0.36271
 C643 C 0.66495 0.04124 0.38751
 O644 O 0.63608 0.02587 0.37745
 H645 H 0.65603 0.07644 0.31135
 H646 H 0.70078 0.07932 0.36358
 C647 C 0.85137 0.56379 0.11309
 C648 C 0.85394 0.59766 0.12699
 C649 C 0.87834 0.59556 0.15235
 C650 C 0.88903 0.56054 0.15226
 O651 O 0.87264 0.54134 0.12846
 H652 H 0.83978 0.62124 0.11989
 H653 H 0.88709 0.61726 0.16870
 C654 C 0.39380 0.05804 0.65532
 C655 C 0.38199 0.09264 0.65383
 C656 C 0.35733 0.09263 0.62859
 C657 C 0.35575 0.05805 0.61638
 O658 O 0.37789 0.03716 0.63256
 H659 H 0.39004 0.11533 0.66921
 H660 H 0.34256 0.11536 0.62021
   
