data_POSCAR
  _audit_creation_date              2014-09-24
  _audit_creation_method            'ToBaCCo'
  _symmetry_space_group_name_H-M    'P1'
  _symmetry_Int_Tables_number       1
  _symmetry_cell_setting            triclinic
  loop_
  _symmetry_equiv_pos_as_xyz
 x,y,z
_cell_length_a 30.4582
_cell_length_b 30.4379
_cell_length_c 30.5801
_cell_angle_alpha 90.032100
_cell_angle_beta 90.046100
_cell_angle_gamma 89.932400
loop_
  _atom_site_label
  _atom_site_type_symbol
  _atom_site_fract_x
  _atom_site_fract_y
  _atom_site_fract_z
C1 C 0.18660 0.53784 1.05646
 H2 H 0.19020 0.56598 1.03517
 C3 C 0.15599 0.53888 1.09036
 H4 H 0.13608 0.56812 1.09374
 C5 C 0.20632 0.46482 1.07427
 H6 H 0.22544 0.43573 1.06735
 C7 C 0.17554 0.46407 1.10810
 H8 H 0.17329 0.43459 1.12768
 N9 N 0.21126 0.50137 1.04929
 C10 C 0.31192 0.55570 0.96372
 H11 H 0.30848 0.53346 0.93632
 C12 C 0.34328 0.58901 0.96236
 H13 H 0.36387 0.59238 0.93371
 C14 C 0.29080 0.57668 1.03536
 H15 H 0.27113 0.57095 1.06417
 C16 C 0.32226 0.61006 1.03564
 H17 H 0.32593 0.63050 1.06441
 Zn18 Zn 0.24850 0.50118 0.99987
 N19 N 0.28620 0.55040 0.99965
 C20 C 0.20865 0.53603 0.92287
 N21 N 0.21140 0.50096 0.95031
 C22 C 0.18483 0.46547 0.94533
 C23 C 0.15411 0.46410 0.91151
 C24 C 0.17822 0.53611 0.88864
 C25 C 0.31082 0.44554 1.03647
 C26 C 0.34193 0.41192 1.03784
 C27 C 0.32159 0.39190 0.96405
 C28 C 0.29030 0.42552 0.96435
 N29 N 0.28561 0.45152 1.00025
 H30 H 0.22915 0.56448 0.92811
 H31 H 0.18706 0.43849 0.96824
 H32 H 0.13262 0.43592 0.90873
 H33 H 0.17634 0.56432 0.86717
 H34 H 0.30718 0.46747 1.06408
 H35 H 0.36216 0.40800 1.06671
 H36 H 0.32547 0.37176 0.93510
 H37 H 0.27083 0.43171 0.93544
 C38 C 0.34900 0.61639 0.99881
 C39 C 0.14935 0.50141 1.11675
 C40 C 0.34791 0.38497 1.00112
 C41 C 0.15027 0.49988 0.88279
 C42 C 0.81482 0.53354 -0.05335
 H43 H 0.81332 0.56041 -0.03022
 C44 C 0.84533 0.53450 -0.08734
 H45 H 0.86740 0.56223 -0.09000
 C46 C 0.78924 0.46375 -0.07635
 H47 H 0.76807 0.43577 -0.07133
 C48 C 0.81945 0.46325 -0.11072
 H49 H 0.82055 0.43519 -0.13247
 N50 N 0.78739 0.49868 -0.04862
 C51 C 0.68642 0.55578 0.03511
 H52 H 0.68812 0.53347 0.06259
 C53 C 0.65652 0.59056 0.03558
 H54 H 0.63513 0.59481 0.06354
 C55 C 0.71086 0.57599 -0.03564
 H56 H 0.73143 0.56963 -0.06370
 C57 C 0.68094 0.61082 -0.03680
 H58 H 0.67919 0.63148 -0.06557
 Zn59 Zn 0.75006 0.49933 0.00083
 N60 N 0.71307 0.54935 0.00002
 C61 C 0.78922 0.53487 0.07799
 N62 N 0.78728 0.49984 0.05040
 C63 C 0.81463 0.46487 0.05530
 C64 C 0.84524 0.46396 0.08925
 C65 C 0.81954 0.53543 0.11232
 C66 C 0.68647 0.44307 -0.03375
 C67 C 0.65641 0.40850 -0.03428
 C68 C 0.68023 0.38850 0.03843
 C69 C 0.71036 0.42308 0.03730
 N70 N 0.71292 0.44951 0.00152
 H71 H 0.76809 0.56292 0.07285
 H72 H 0.81305 0.43791 0.03229
 H73 H 0.86731 0.43618 0.09200
 H74 H 0.82076 0.56361 0.13390
 H75 H 0.68842 0.46524 -0.06133
 H76 H 0.63518 0.40422 -0.06239
 H77 H 0.67813 0.36804 0.06732
 H78 H 0.73078 0.42947 0.06549
 C79 C 0.65326 0.61833 -0.00088
 C80 C 0.84810 0.49892 -0.11645
 C81 C 0.65276 0.38098 0.00232
 C82 C 0.84820 0.49971 0.11814
 C83 C -0.03386 0.31742 0.44843
 H84 H -0.05798 0.31820 0.47438
 C85 C -0.03499 0.34914 0.41554
 H86 H -0.05997 0.37419 0.41814
 C87 C 0.02988 0.28548 0.41788
 H88 H 0.05566 0.26116 0.41933
 C89 C 0.02982 0.31628 0.38403
 H90 H 0.05483 0.31298 0.35923
 N91 N -0.00166 0.28661 0.44923
 C92 C -0.05180 0.18196 0.53281
 H93 H -0.02676 0.18161 0.55792
 C94 C -0.08591 0.15145 0.53412
 H95 H -0.08707 0.12768 0.56043
 C96 C -0.07938 0.21198 0.46673
 H97 H -0.07622 0.23514 0.44016
 C98 C -0.11367 0.18151 0.46637
 H99 H -0.13711 0.18177 0.43973
 Zn100 Zn 0.00002 0.24921 0.49866
 N101 N -0.04934 0.21165 0.49970
 C102 C -0.02758 0.28205 0.58215
 N103 N 0.00118 0.28627 0.54841
 C104 C 0.03052 0.31981 0.54718
 C105 C 0.03126 0.35131 0.58030
 C106 C -0.02726 0.31227 0.61660
 C107 C 0.05362 0.18361 0.46371
 C108 C 0.08803 0.15334 0.46258
 C109 C 0.11421 0.18260 0.53131
 C110 C 0.07966 0.21286 0.53075
 N111 N 0.05016 0.21266 0.49733
 H112 H -0.05121 0.25568 0.58231
 H113 H 0.05252 0.32282 0.51959
 H114 H 0.05370 0.37864 0.57723
 H115 H -0.04996 0.30768 0.64339
 H116 H 0.02908 0.18351 0.43811
 H117 H 0.08990 0.12994 0.43596
 H118 H 0.13711 0.18260 0.55842
 H119 H 0.07576 0.23567 0.55758
 C120 C -0.11712 0.15077 0.50038
 C121 C -0.00255 0.34962 0.38243
 C122 C 0.11850 0.15227 0.49698
 C123 C 0.00205 0.34797 0.61579
 C124 C 0.96956 0.67967 0.54812
 H125 H 0.94774 0.67706 0.52031
 C126 C 0.96823 0.64800 0.58103
 H127 H 0.94551 0.62093 0.57761
 C128 C 1.02777 0.71663 0.58389
 H129 H 1.05166 0.74276 0.58445
 C130 C 1.02688 0.68622 0.61811
 H131 H 1.04944 0.69040 0.64513
 N132 N 0.99924 0.71290 0.54985
 C133 C 0.94904 0.81738 0.46613
 H134 H 0.97428 0.81808 0.44126
 C135 C 0.91467 0.84767 0.46475
 H136 H 0.91352 0.87168 0.43865
 C137 C 0.92115 0.78654 0.53164
 H138 H 0.92427 0.76306 0.55796
 C139 C 0.88660 0.81679 0.53194
 H140 H 0.86293 0.81615 0.55834
 Zn141 Zn 1.00126 0.75040 0.50048
 N142 N 0.95151 0.78746 0.49904
 C143 C 0.97334 0.71705 0.41751
 N144 N 1.00306 0.71357 0.45055
 C145 C 1.03351 0.68093 0.45093
 C146 C 1.03446 0.64963 0.41760
 C147 C 0.97365 0.68693 0.38301
 C148 C 1.05356 0.81701 0.53563
 C149 C 1.08772 0.84747 0.53705
 C150 C 1.11539 0.81746 0.46925
 C151 C 1.08109 0.78701 0.46953
 N152 N 1.05100 0.78743 0.50238
 H153 H 0.94882 0.74266 0.41807
 H154 H 1.05625 0.67845 0.47802
 H155 H 1.05789 0.62299 0.41986
 H156 H 0.95000 0.69075 0.35686
 H157 H 1.02847 0.81743 0.56065
 H158 H 1.08893 0.87125 0.56338
 H159 H 1.13877 0.81727 0.44259
 H160 H 1.07788 0.76387 0.44290
 C161 C 0.88321 0.84786 0.49820
 C162 C 0.99722 0.65083 0.61679
 C163 C 1.11883 0.84823 0.50328
 C164 C 1.00411 0.65215 0.38297
 C165 C 0.44437 -0.03877 0.31349
 H166 H 0.46790 -0.06540 0.31223
 C167 C 0.41042 -0.03968 0.34409
 H168 H 0.40798 -0.06719 0.36639
 C169 C 0.42059 0.03065 0.28741
 H170 H 0.42532 0.05833 0.26580
 C171 C 0.38647 0.03135 0.31795
 H172 H 0.36462 0.05941 0.31922
 N173 N 0.44890 -0.00392 0.28609
 C174 C 0.53731 -0.05741 0.18758
 H175 H 0.56481 -0.03525 0.19129
 C176 C 0.53918 -0.09107 0.15666
 H177 H 0.56966 -0.09470 0.13910
 C178 C 0.46581 -0.07871 0.20846
 H179 H 0.43674 -0.07290 0.22786
 C180 C 0.46571 -0.11216 0.17713
 H181 H 0.43562 -0.13046 0.17356
 Zn182 Zn 0.49939 -0.00253 0.25041
 N183 N 0.50121 -0.05205 0.21296
 C184 C 0.57739 -0.03569 0.28995
 N185 N 0.54827 -0.00176 0.28877
 C186 C 0.55124 0.03224 0.31749
 C187 C 0.58533 0.03381 0.34797
 C188 C 0.61165 -0.03576 0.32032
 C189 C 0.46989 0.04533 0.17943
 C190 C 0.46860 0.07869 0.14824
 C191 C 0.52435 0.11739 0.18902
 C192 C 0.52552 0.08254 0.21877
 N193 N 0.49832 0.04751 0.21360
 H194 H 0.57357 -0.06334 0.26817
 H195 H 0.52668 0.05794 0.31708
 H196 H 0.58697 0.06093 0.37084
 H197 H 0.63447 -0.06306 0.32099
 H198 H 0.44900 0.01685 0.17574
 H199 H 0.44706 0.07468 0.12041
 H200 H 0.54563 0.14525 0.19461
 H201 H 0.54845 0.08356 0.24565
 C202 C 0.50266 -0.11902 0.14982
 C203 C 0.38139 -0.00397 0.34705
 C204 C 0.49604 0.11562 0.15262
 C205 C 0.61592 -0.00063 0.34973
 C206 C 0.55253 -0.03275 0.68271
 H207 H 0.52850 -0.05887 0.68402
 C208 C 0.58632 -0.03451 0.65197
 H209 H 0.58826 -0.06220 0.62980
 C210 C 0.57753 0.03636 0.70819
 H211 H 0.57329 0.06459 0.72913
 C212 C 0.61151 0.03620 0.67757
 H213 H 0.63376 0.06388 0.67601
 N214 N 0.54919 0.00191 0.71061
 C215 C 0.47117 -0.04540 0.82014
 H216 H 0.44957 -0.01735 0.82323
 C217 C 0.47001 -0.07862 0.85148
 H218 H 0.44784 -0.07490 0.87882
 C219 C 0.52839 -0.08166 0.78218
 H220 H 0.55189 -0.08233 0.75582
 C221 C 0.52742 -0.11638 0.81209
 H222 H 0.54943 -0.14383 0.80711
 Zn223 Zn 0.50070 0.00264 0.74945
 N224 N 0.50027 -0.04720 0.78655
 C225 C 0.42199 -0.03113 0.71265
 N226 N 0.44989 0.00369 0.71415
 C227 C 0.44467 0.03883 0.68722
 C228 C 0.41045 0.03975 0.65687
 C229 C 0.38758 -0.03181 0.68236
 C230 C 0.53928 0.05985 0.81025
 C231 C 0.54071 0.09379 0.84090
 C232 C 0.46490 0.11016 0.82448
 C233 C 0.46542 0.07684 0.79304
 N234 N 0.50222 0.05238 0.78666
 H235 H 0.42726 -0.05902 0.73390
 H236 H 0.46786 0.06568 0.68865
 H237 H 0.40749 0.06750 0.63491
 H238 H 0.36606 -0.06006 0.68094
 H239 H 0.56775 0.03912 0.80547
 H240 H 0.57119 0.09960 0.85808
 H241 H 0.43443 0.12748 0.83022
 H242 H 0.43576 0.06926 0.77516
 C243 C 0.49832 -0.11503 0.84785
 C244 C 0.61623 0.00037 0.64907
 C245 C 0.50288 0.11909 0.84923
 C246 C 0.38181 0.00380 0.65371
 C247 C 0.31252 0.03509 0.44220
 H248 H 0.30908 0.06387 0.46271
 C249 C 0.34221 0.03536 0.40745
 H250 H 0.36171 0.06445 0.40145
 C251 C 0.29275 -0.03854 0.42654
 H252 H 0.27423 -0.06763 0.43477
 C253 C 0.32250 -0.03990 0.39181
 H254 H 0.32602 -0.06986 0.37301
 N255 N 0.28819 -0.00132 0.45080
 C256 C 0.18945 0.05819 0.53546
 H257 H 0.19328 0.03757 0.56402
 C258 C 0.15915 0.09260 0.53591
 H259 H 0.13966 0.09837 0.56496
 C260 C 0.20869 0.07425 0.46209
 H261 H 0.22725 0.06625 0.43307
 C262 C 0.17816 0.10854 0.46087
 H263 H 0.17397 0.12728 0.43106
 Zn264 Zn 0.25108 0.00021 0.50046
 N265 N 0.21381 0.04997 0.49910
 C266 C 0.29258 0.03860 0.57471
 N267 N 0.28815 0.00154 0.55020
 C268 C 0.31260 -0.03490 0.55859
 C269 C 0.34242 -0.03531 0.59328
 C270 C 0.32242 0.03980 0.60942
 C271 C 0.18962 -0.05767 0.46520
 C272 C 0.15942 -0.09209 0.46460
 C273 C 0.17799 -0.10785 0.53983
 C274 C 0.20848 -0.07358 0.53874
 N275 N 0.21377 -0.04940 0.50171
 H276 H 0.27391 0.06771 0.56668
 H277 H 0.30922 -0.06356 0.53792
 H278 H 0.36209 -0.06440 0.59904
 H279 H 0.32585 0.06965 0.62839
 H280 H 0.19359 -0.03714 0.43661
 H281 H 0.14014 -0.09797 0.43540
 H282 H 0.17365 -0.12652 0.56964
 H283 H 0.22690 -0.06555 0.56787
 C284 C 0.15295 0.11796 0.49813
 C285 C 0.34770 -0.00261 0.38197
 C286 C 0.15307 -0.11736 0.50238
 C287 C 0.34787 0.00252 0.61896
 C288 C 0.68887 0.03634 0.55578
 H289 H 0.69348 0.06466 0.53493
 C290 C 0.65797 0.03776 0.58937
 H291 H 0.63884 0.06736 0.59429
 C292 C 0.70666 -0.03748 0.57307
 H293 H 0.72483 -0.06710 0.56576
 C294 C 0.67564 -0.03769 0.60670
 H295 H 0.67086 -0.06726 0.62577
 N296 N 0.71275 -0.00072 0.54854
 C297 C 0.81065 0.05745 0.46269
 H298 H 0.80601 0.03711 0.43404
 C299 C 0.84103 0.09171 0.46181
 H300 H 0.85976 0.09768 0.43232
 C301 C 0.79345 0.07290 0.53673
 H302 H 0.77565 0.06469 0.56615
 C303 C 0.82408 0.10702 0.53750
 H304 H 0.82910 0.12545 0.56739
 Zn305 Zn 0.75014 -0.00069 0.49931
 N306 N 0.78730 0.04899 0.49962
 C307 C 0.70641 0.03658 0.42593
 N308 N 0.71280 -0.00047 0.45000
 C309 C 0.68917 -0.03755 0.44230
 C310 C 0.65822 -0.03868 0.40868
 C311 C 0.67528 0.03709 0.39236
 C312 C 0.81057 -0.05909 0.53603
 C313 C 0.84101 -0.09338 0.53690
 C314 C 0.82431 -0.10833 0.46107
 C315 C 0.79361 -0.07421 0.46186
 N316 N 0.78730 -0.05047 0.49904
 H317 H 0.72438 0.06618 0.43362
 H318 H 0.69398 -0.06610 0.46281
 H319 H 0.63928 -0.06830 0.40337
 H320 H 0.67017 0.06690 0.37371
 H321 H 0.80586 -0.03884 0.56473
 H322 H 0.85969 -0.09948 0.56643
 H323 H 0.82949 -0.12660 0.43111
 H324 H 0.77591 -0.06583 0.43237
 C325 C 0.84834 0.11664 0.49970
 C326 C 0.65080 0.00028 0.61506
 C327 C 0.84848 -0.11812 0.49892
 C328 C 0.65070 -0.00088 0.38354
 C329 C 0.46044 0.18985 1.05912
 H330 H 0.43219 0.19467 1.03820
 C331 C 0.45861 0.15923 1.09299
 H332 H 0.42808 0.14202 1.09850
 C333 C 0.53410 0.20710 1.07679
 H334 H 0.56384 0.22498 1.06953
 C335 C 0.53421 0.17572 1.11012
 H336 H 0.56444 0.17000 1.12780
 N337 N 0.49756 0.21349 1.05203
 C338 C 0.44670 0.31792 0.96762
 H339 H 0.47053 0.31675 0.94144
 C340 C 0.41244 0.34838 0.96601
 H341 H 0.40989 0.37045 0.93835
 C342 C 0.42261 0.29244 1.03675
 H343 H 0.42735 0.27160 1.06489
 C344 C 0.38829 0.32289 1.03679
 H345 H 0.36632 0.32449 1.06458
 Zn346 Zn 0.49923 0.25102 1.00267
 N347 N 0.45065 0.29006 1.00219
 C348 C 0.47205 0.21866 0.91831
 N349 N 0.49976 0.21389 0.95289
 C350 C 0.52878 0.18003 0.95468
 C351 C 0.53031 0.14884 0.92131
 C352 C 0.47345 0.18896 0.88344
 C353 C 0.55625 0.31265 1.03912
 C354 C 0.59078 0.34274 1.03999
 C355 C 0.61187 0.31845 0.96771
 C356 C 0.57731 0.28829 0.96851
 N357 N 0.55013 0.28631 1.00372
 H358 H 0.44859 0.24521 0.91761
 H359 H 0.55009 0.17663 0.98279
 H360 H 0.55240 0.12127 0.92503
 H361 H 0.45182 0.19435 0.85591
 H362 H 0.53361 0.31090 1.06630
 H363 H 0.59460 0.36417 1.06800
 H364 H 0.63276 0.32037 0.93914
 H365 H 0.57131 0.26756 0.94042
 C366 C 0.38284 0.35116 1.00099
 C367 C 0.49610 0.15100 1.11869
 C368 C 0.61864 0.34637 1.00365
 C369 C 0.50250 0.15293 0.88474
 C370 C 0.46206 0.81028 -0.05939
 H371 H 0.43343 0.80501 -0.03917
 C372 C 0.46043 0.84084 -0.09333
 H373 H 0.42970 0.85752 -0.09960
 C374 C 0.53642 0.79423 -0.07525
 H375 H 0.56630 0.77681 -0.06725
 C376 C 0.53670 0.82560 -0.10861
 H377 H 0.56720 0.83179 -0.12557
 N378 N 0.49944 0.78724 -0.05140
 C379 C 0.44700 0.68406 0.03318
 H380 H 0.47005 0.68602 0.06004
 C381 C 0.41273 0.65370 0.03464
 H382 H 0.40947 0.63239 0.06280
 C383 C 0.42473 0.70774 -0.03724
 H384 H 0.43023 0.72785 -0.06577
 C385 C 0.39039 0.67740 -0.03741
 H386 H 0.36912 0.67517 -0.06571
 Zn387 Zn 0.50056 0.74969 -0.00207
 N388 N 0.45187 0.71095 -0.00200
 C389 C 0.47009 0.78456 0.07986
 N390 N 0.50065 0.78680 0.04765
 C391 C 0.53220 0.81818 0.04816
 C392 C 0.53366 0.84934 0.08157
 C393 C 0.47087 0.81443 0.11459
 C394 C 0.55784 0.68817 -0.03833
 C395 C 0.59215 0.65776 -0.03904
 C396 C 0.61217 0.68068 0.03398
 C397 C 0.57782 0.71116 0.03305
 N398 N 0.55129 0.71401 -0.00264
 H399 H 0.44471 0.75988 0.07870
 H400 H 0.55570 0.81973 0.02170
 H401 H 0.55808 0.87475 0.07843
 H402 H 0.44680 0.80978 0.14002
 H403 H 0.53568 0.69058 -0.06590
 H404 H 0.59627 0.63673 -0.06732
 H405 H 0.63255 0.67812 0.06291
 H406 H 0.57144 0.73142 0.06139
 C407 C 0.38402 0.65005 -0.00105
 C408 C 0.49833 0.84967 -0.11813
 C409 C 0.61937 0.65327 -0.00227
 C410 C 0.50262 0.84840 0.11602
 C411 C 1.06192 0.46195 0.19301
 H412 H 1.04476 0.43187 0.20082
 C413 C 1.09584 0.46135 0.16234
 H414 H 1.10356 0.43033 0.14689
 C415 C 1.06869 0.53890 0.20117
 H416 H 1.05727 0.56922 0.21568
 C417 C 1.10223 0.54003 0.17012
 H418 H 1.11722 0.57144 0.16313
 N419 N 1.04957 0.50021 0.21231
 C420 C 0.96242 0.44239 0.30963
 H421 H 0.93360 0.46222 0.30333
 C422 C 0.96039 0.40835 0.34006
 H423 H 0.92888 0.40191 0.35486
 C424 C 1.03727 0.42739 0.29584
 H425 H 1.06762 0.43607 0.27977
 C426 C 1.03696 0.39330 0.32643
 H427 H 1.06787 0.37718 0.33302
 Zn428 Zn 1.00038 0.50023 0.25011
 N429 N 1.00022 0.45088 0.28776
 C430 C 0.92704 0.46281 0.20664
 N431 N 0.95020 0.50034 0.21366
 C432 C 0.94080 0.53788 0.19144
 C433 C 0.90662 0.53876 0.16099
 C434 C 0.89271 0.46218 0.17635
 C435 C 1.04007 0.56178 0.30528
 C436 C 1.04201 0.59610 0.33547
 C437 C 0.96346 0.60479 0.32863
 C438 C 0.96319 0.57084 0.29784
 N439 N 1.00118 0.55017 0.28681
 H440 H 0.93602 0.43291 0.22347
 H441 H 0.96051 0.56693 0.19680
 H442 H 0.90031 0.56869 0.14291
 H443 H 0.87479 0.43194 0.17102
 H444 H 1.06965 0.54401 0.29682
 H445 H 1.07358 0.60516 0.34894
 H446 H 0.93255 0.61952 0.33807
 H447 H 0.93243 0.55996 0.28390
 C448 C 0.99814 0.38303 0.34969
 C449 C 1.11653 0.50089 0.14977
 C450 C 1.00327 0.61779 0.34817
 C451 C 0.88237 0.50041 0.15278
 C452 C -0.06004 0.46112 0.80916
 H453 H -0.04034 0.43209 0.80346
 C454 C -0.09384 0.46009 0.83997
 H455 H -0.09990 0.43006 0.85793
 C456 C -0.07404 0.53631 0.79461
 H457 H -0.06523 0.56634 0.77800
 C458 C -0.10798 0.53679 0.82527
 H459 H -0.12583 0.56703 0.83100
 N460 N -0.05101 0.49875 0.78699
 C461 C 0.03759 0.43993 0.69184
 H462 H 0.06666 0.45910 0.69875
 C463 C 0.03957 0.40580 0.66148
 H464 H 0.07083 0.39830 0.64644
 C465 C -0.03815 0.42707 0.70350
 H466 H -0.06860 0.43637 0.71913
 C467 C -0.03793 0.39335 0.67243
 H468 H -0.06860 0.37728 0.66456
 Zn469 Zn -0.00128 0.49902 0.74994
 N470 N -0.00067 0.44948 0.71262
 C471 C 0.07196 0.46196 0.79430
 N472 N 0.04836 0.49926 0.78716
 C473 C 0.05703 0.53682 0.80963
 C474 C 0.09107 0.53810 0.84020
 C475 C 0.10620 0.46173 0.82468
 C476 C -0.03967 0.55889 0.69210
 C477 C -0.04117 0.59320 0.66192
 C478 C 0.03648 0.60459 0.67319
 C479 C 0.03622 0.57071 0.70401
 N480 N -0.00156 0.54874 0.71291
 H481 H 0.06348 0.43196 0.77743
 H482 H 0.03692 0.56564 0.80426
 H483 H 0.09686 0.56808 0.85837
 H484 H 0.12457 0.43172 0.82997
 H485 H -0.06900 0.54007 0.69882
 H486 H -0.07228 0.60118 0.64679
 H487 H 0.06736 0.62032 0.66552
 H488 H 0.06653 0.56092 0.71965
 C489 C 0.00133 0.38228 0.65072
 C490 C -0.11804 0.49841 0.84866
 C491 C -0.00260 0.61629 0.65145
 C492 C 0.11596 0.50009 0.84830
   
