data_POSCAR
  _audit_creation_date              2014-09-24
  _audit_creation_method            'ToBaCCo'
  _symmetry_space_group_name_H-M    'P1'
  _symmetry_Int_Tables_number       1
  _symmetry_cell_setting            triclinic
  loop_
  _symmetry_equiv_pos_as_xyz
 x,y,z
_cell_length_a 19.7660
_cell_length_b 18.7860
_cell_length_c 52.6354
_cell_angle_alpha 84.466300
_cell_angle_beta 89.127100
_cell_angle_gamma 118.563600
loop_
  _atom_site_label
  _atom_site_type_symbol
  _atom_site_fract_x
  _atom_site_fract_y
  _atom_site_fract_z
C1 C -0.03477 0.13101 0.51934
 H2 H 0.01761 0.16435 0.50704
 C3 C -0.04877 0.16953 0.53849
 H4 H -0.00677 0.23212 0.54030
 C5 C -0.14663 0.00651 0.53395
 H6 H -0.18260 -0.05798 0.53273
 C7 C -0.16323 0.04295 0.55336
 H8 H -0.21347 0.00634 0.56649
 N9 N -0.08265 0.05055 0.51764
 C10 C -0.05351 -0.15362 0.51578
 H11 H -0.08412 -0.17781 0.49921
 C12 C -0.04633 -0.20648 0.53472
 H13 H -0.06947 -0.26998 0.53183
 C14 C 0.01236 -0.04243 0.53972
 H15 H 0.03334 0.02133 0.54180
 C16 C 0.01894 -0.09357 0.55946
 H17 H 0.04460 -0.06802 0.57664
 Zn18 Zn -0.04866 -0.00392 0.49644
 N19 N -0.02525 -0.07340 0.51873
 C20 C 0.10591 0.06995 0.47373
 N21 N 0.03863 0.07317 0.47516
 C22 C 0.02774 0.12783 0.45931
 C23 C 0.08617 0.18314 0.44135
 C24 C 0.16543 0.12301 0.45544
 C25 C -0.19581 -0.07677 0.47348
 C26 C -0.24474 -0.12223 0.45537
 C27 C -0.14136 -0.14210 0.43869
 C28 C -0.09497 -0.09618 0.45685
 N29 N -0.12272 -0.06561 0.47402
 H30 H 0.11238 0.02459 0.48615
 H31 H -0.02707 0.12757 0.46049
 H32 H 0.07631 0.22577 0.42868
 H33 H 0.21817 0.11901 0.45392
 H34 H -0.21641 -0.05063 0.48706
 H35 H -0.30315 -0.13182 0.45648
 H36 H -0.11355 -0.16056 0.42493
 H37 H -0.03571 -0.08408 0.45716
 C38 C -0.01223 -0.17747 0.55742
 C39 C -0.11262 0.12510 0.55630
 C40 C -0.21861 -0.15720 0.43743
 C41 C 0.15551 0.18036 0.43906
 C42 C 1.18992 0.10746 0.13053
 H43 H 1.20458 0.17022 0.13194
 C44 C 1.23553 0.09026 0.11447
 H45 H 1.28511 0.14028 0.10354
 C46 C 1.10430 -0.03362 0.14182
 H47 H 1.05241 -0.08151 0.15226
 C48 C 1.14800 -0.05365 0.12569
 H49 H 1.12972 -0.11717 0.12395
 N50 N 1.12520 0.04596 0.14357
 C51 C 0.93768 0.10303 0.14710
 H52 H 0.92301 0.09429 0.16745
 C53 C 0.88680 0.10857 0.12981
 H54 H 0.83383 0.10563 0.13701
 C55 C 1.02205 0.11230 0.11296
 H56 H 1.07331 0.11106 0.10633
 C57 C 0.97331 0.11849 0.09510
 H58 H 0.98802 0.12141 0.07499
 Zn59 Zn 1.06157 0.07636 0.16192
 N60 N 1.00316 0.10346 0.13844
 C61 C 1.09725 0.21459 0.18787
 N62 N 1.12435 0.16546 0.17998
 C63 C 1.19129 0.17045 0.18815
 C64 C 1.23287 0.22504 0.20536
 C65 C 1.13687 0.26982 0.20527
 C66 C 0.92653 -0.07364 0.17859
 C67 C 0.86791 -0.12901 0.19680
 C68 C 0.94518 -0.05502 0.23000
 C69 C 1.00209 -0.00170 0.21132
 N70 N 0.99113 -0.01034 0.18613
 H71 H 1.04313 0.20843 0.18158
 H72 H 1.21025 0.12869 0.18247
 H73 H 1.28390 0.22500 0.21253
 H74 H 1.11338 0.30680 0.21195
 H75 H 0.91876 -0.07859 0.15842
 H76 H 0.81517 -0.17688 0.19060
 H77 H 0.95391 -0.04548 0.24992
 H78 H 1.05368 0.04861 0.21701
 C79 C 0.90374 0.11481 0.10340
 C80 C 1.21404 0.00888 0.11151
 C81 C 0.87613 -0.11803 0.22279
 C82 C 1.20480 0.27422 0.21465
 C83 C 0.08795 0.88457 0.87663
 H84 H 0.03305 0.82900 0.87865
 C85 C 0.14464 0.89346 0.89335
 H86 H 0.13329 0.84438 0.90826
 C87 C 0.16752 1.01812 0.85563
 H88 H 0.17505 1.06693 0.84123
 C89 C 0.22521 1.03046 0.87250
 H90 H 0.27758 1.08872 0.87096
 N91 N 0.10012 0.94637 0.85828
 C92 C -0.13696 0.87409 0.86674
 H93 H -0.16154 0.82657 0.85435
 C94 C -0.18516 0.88141 0.88500
 H95 H -0.24649 0.83999 0.88558
 C96 C -0.02779 0.98621 0.88020
 H97 H 0.03392 1.02627 0.87862
 C98 C -0.07309 0.99572 0.89852
 H99 H -0.04348 1.04171 0.91113
 Zn100 Zn 0.01371 0.93117 0.83992
 N101 N -0.05993 0.92761 0.86432
 C102 C -0.08577 0.81135 0.80968
 N103 N -0.02214 0.83511 0.82340
 C104 C 0.02610 0.80295 0.82095
 C105 C 0.01407 0.74881 0.80303
 C106 C -0.10039 0.75648 0.79167
 C107 C 0.04011 1.08952 0.81935
 C108 C 0.04202 1.14607 0.79964
 C109 C 0.04618 1.06030 0.76903
 C110 C 0.04493 1.00593 0.78926
 N111 N 0.03884 1.01953 0.81391
 H112 H -0.12127 0.84043 0.81101
 H113 H 0.07786 0.82450 0.83119
 H114 H 0.05572 0.72784 0.80016
 H115 H -0.14813 0.74242 0.77964
 H116 H 0.03604 1.10014 0.83895
 H117 H 0.04068 1.20015 0.80444
 H118 H 0.04571 1.04488 0.74972
 H119 H 0.04502 0.95073 0.78518
 C120 C -0.15382 0.94448 0.90100
 C121 C 0.21351 0.96762 0.89171
 C122 C 0.04207 1.13025 0.77407
 C123 C -0.04810 0.72751 0.78749
 C124 C 0.34738 -0.01927 0.00252
 C125 C 0.38752 -0.01242 -0.02050
 C126 C 0.46004 -0.00853 -0.02007
 C127 C 0.49262 -0.01311 0.00331
 C128 C 0.44993 -0.02252 0.02631
 C129 C 0.37818 -0.02406 0.02604
 C130 C 0.57215 -0.00410 0.00359
 C131 C 0.61930 0.02956 0.02384
 C132 C 0.69553 0.04311 0.02337
 C133 C 0.72575 0.02515 0.00222
 C134 C 0.68050 -0.00809 -0.01808
 C135 C 0.60327 -0.02505 -0.01699
 H136 H 0.29223 -0.02005 0.00204
 H137 H 0.49151 0.00090 -0.03816
 H138 H 0.47186 -0.02893 0.04460
 H139 H 0.59839 0.04797 0.03970
 H140 H 0.78478 0.03585 0.00169
 H141 H 0.56870 -0.05260 -0.03259
 C142 C -0.04133 0.63648 0.67143
 C143 C -0.05724 0.58558 0.69447
 C144 C -0.07050 0.50543 0.69407
 C145 C -0.06443 0.47670 0.67081
 C146 C -0.05005 0.52840 0.64780
 C147 C -0.03940 0.60767 0.64804
 C148 C -0.06755 0.39570 0.67059
 C149 C -0.09385 0.35103 0.64950
 C150 C -0.08846 0.27955 0.64788
 C151 C -0.05971 0.25075 0.66833
 C152 C -0.03633 0.29230 0.68998
 C153 C -0.03943 0.36500 0.69084
 H154 H -0.03204 0.69814 0.67172
 H155 H -0.08326 0.46671 0.71204
 H156 H -0.04420 0.50877 0.62961
 H157 H -0.11833 0.37193 0.63419
 H158 H -0.05463 0.19615 0.66741
 H159 H -0.01702 0.39883 0.70701
 C160 C 0.67123 0.73072 0.33014
 C161 C 0.64795 0.70037 0.30673
 C162 C 0.57714 0.62886 0.30618
 C163 C 0.52699 0.59067 0.32859
 C164 C 0.55066 0.62602 0.35162
 C165 C 0.62353 0.69364 0.35253
 C166 C 0.45189 0.51322 0.32820
 C167 C 0.41690 0.45919 0.35082
 C168 C 0.34701 0.38684 0.35068
 C169 C 0.31282 0.36578 0.32757
 C170 C 0.34637 0.41752 0.30472
 C171 C 0.41479 0.49163 0.30525
 H172 H 0.72772 0.78296 0.33112
 H173 H 0.56214 0.60368 0.28821
 H174 H 0.51413 0.60078 0.36917
 H175 H 0.44384 0.47142 0.36875
 H176 H 0.25965 0.30887 0.32745
 H177 H 0.43774 0.53236 0.28766
 C178 C -0.09512 0.24635 0.57777
 C179 C -0.12019 0.16214 0.57924
 C180 C -0.14411 0.11546 0.60339
 C181 C -0.13832 0.15283 0.62557
 C182 C -0.10736 0.23799 0.62422
 C183 C -0.08819 0.28390 0.59997
 H184 H -0.07787 0.28400 0.55947
 H185 H -0.16334 0.05061 0.60540
 H186 H -0.15559 0.11520 0.64387
 H187 H -0.06391 0.34959 0.59810
 C188 C 0.79156 0.87404 0.25956
 C189 C 0.81158 0.83339 0.24239
 C190 C 0.77192 0.74764 0.24493
 C191 C 0.71620 0.70341 0.26531
 C192 C 0.69925 0.74459 0.28324
 C193 C 0.73593 0.83025 0.27964
 H194 H 0.82002 0.94011 0.25764
 H195 H 0.78632 0.71509 0.23182
 H196 H 0.68889 0.63742 0.26766
 H197 H 0.72268 0.86361 0.29277
 C198 C 0.28628 0.04313 -0.07281
 C199 C 0.26866 -0.01932 -0.08835
 C200 C 0.29625 -0.07503 -0.08269
 C201 C 0.33875 -0.06994 -0.06130
 C202 C 0.35258 -0.01031 -0.04497
 C203 C 0.32727 0.04708 -0.05111
 H204 H 0.26471 0.08605 -0.07669
 H205 H 0.28283 -0.12387 -0.09439
 H206 H 0.35749 -0.11498 -0.05678
 H207 H 0.33753 0.09357 -0.03872
 C208 C -0.07739 0.68502 0.58394
 C209 C -0.01477 0.76496 0.57953
 C210 C 0.04239 0.79051 0.59734
 C211 C 0.03526 0.73893 0.61942
 C212 C -0.02808 0.66008 0.62384
 C213 C -0.08343 0.63297 0.60570
 H214 H -0.12366 0.66327 0.57117
 H215 H 0.09232 0.85069 0.59443
 H216 H 0.07891 0.76068 0.63316
 H217 H -0.13318 0.57258 0.60892
 C218 C 0.19621 0.32030 0.25710
 C219 C 0.24182 0.32247 0.23599
 C220 C 0.32263 0.36381 0.23672
 C221 C 0.35687 0.39843 0.25861
 C222 C 0.31094 0.39197 0.28026
 C223 C 0.23040 0.35457 0.27901
 H224 H 0.13381 0.28832 0.25724
 H225 H 0.35925 0.36712 0.22063
 H226 H 0.41906 0.42665 0.25906
 H227 H 0.19367 0.34966 0.29531
 C228 C 0.82615 0.03384 -0.07207
 C229 C 0.79978 -0.04345 -0.08076
 C230 C 0.72748 -0.10754 -0.07011
 C231 C 0.68661 -0.09580 -0.05036
 C232 C 0.71687 -0.02002 -0.04087
 C233 C 0.78576 0.04497 -0.05237
 H234 H 0.87780 0.08716 -0.08060
 H235 H 0.70410 -0.16831 -0.07570
 H236 H 0.63322 -0.14681 -0.04171
 H237 H 0.80894 0.10471 -0.04585
 C238 C 0.21688 -0.06551 0.07484
 C239 C 0.25699 -0.00925 0.09208
 C240 C 0.33800 0.03550 0.08891
 C241 C 0.37775 0.02739 0.06817
 C242 C 0.33724 -0.02524 0.05008
 C243 C 0.25660 -0.07323 0.05400
 H244 H 0.15444 -0.10039 0.07669
 H245 H 0.37040 0.07873 0.10206
 H246 H 0.43984 0.06544 0.06556
 H247 H 0.22404 -0.11493 0.04049
 C248 C 0.67022 0.80493 0.41138
 C249 C 0.73605 0.79879 0.41910
 C250 C 0.75489 0.74683 0.40626
 C251 C 0.71556 0.71012 0.38549
 C252 C 0.65479 0.72194 0.37701
 C253 C 0.63059 0.76733 0.39048
 H254 H 0.65189 0.84365 0.41979
 H255 H 0.79932 0.73224 0.41222
 H256 H 0.73380 0.67354 0.37557
 H257 H 0.58361 0.77717 0.38402
 C258 C -0.02037 0.21276 0.75718
 C259 C 0.03024 0.18128 0.75303
 C260 C 0.06351 0.19265 0.72813
 C261 C 0.04355 0.23065 0.70772
 C262 C -0.00929 0.25908 0.71181
 C263 C -0.03955 0.25162 0.73681
 H264 H -0.04821 0.20400 0.77594
 H265 H 0.10390 0.17077 0.72431
 H266 H 0.06866 0.23696 0.68866
 H267 H -0.08084 0.27255 0.74042
 C268 C 0.76803 0.05146 0.08958
 C269 C 0.84668 0.10899 0.08451
 C270 C 0.87182 0.15335 0.06005
 C271 C 0.82117 0.13559 0.04053
 C272 C 0.74412 0.07366 0.04510
 C273 C 0.71712 0.03414 0.07004
 H274 H 0.74690 0.01580 0.10815
 H275 H 0.93163 0.19929 0.05570
 H276 H 0.84299 0.16777 0.02152
 H277 H 0.65801 -0.01412 0.07398
 C278 C 0.23516 0.20048 0.39908
 C279 C 0.21435 0.23416 0.41845
 C280 C 0.24301 0.31890 0.41641
 C281 C 0.28981 0.36903 0.39492
 C282 C 0.30719 0.33495 0.37488
 C283 C 0.28063 0.25045 0.37730
 H284 H 0.21288 0.13511 0.40021
 H285 H 0.22717 0.34585 0.43112
 H286 H 0.30923 0.43395 0.39335
 H287 H 0.29350 0.22303 0.36205
 C288 C 0.01460 0.72012 0.74730
 C289 C -0.05084 0.68679 0.76458
 C290 C -0.11859 0.61831 0.75897
 C291 C -0.12049 0.58356 0.73641
 C292 C -0.05535 0.61837 0.71895
 C293 C 0.01214 0.68666 0.72461
 H294 H 0.06711 0.77364 0.75105
 H295 H -0.16973 0.59200 0.77201
 H296 H -0.17314 0.53092 0.73226
 H297 H 0.06295 0.71418 0.71137
   
