data_POSCAR
  _audit_creation_date              2014-09-24
  _audit_creation_method            'ToBaCCo'
  _symmetry_space_group_name_H-M    'P1'
  _symmetry_Int_Tables_number       1
  _symmetry_cell_setting            triclinic
  loop_
  _symmetry_equiv_pos_as_xyz
 x,y,z
_cell_length_a 52.7997
_cell_length_b 52.7563
_cell_length_c 51.5817
_cell_angle_alpha 89.786000
_cell_angle_beta 88.866800
_cell_angle_gamma 88.667500
loop_
  _atom_site_label
  _atom_site_type_symbol
  _atom_site_fract_x
  _atom_site_fract_y
  _atom_site_fract_z
N1 N 0.59122 0.66754 0.61826
 N2 N 0.58158 0.65706 0.63927
 C3 C 0.56100 0.67071 0.64716
 C4 C 0.55757 0.69092 0.63024
 C5 C 0.57718 0.68825 0.61214
 H6 H 0.54948 0.66638 0.66408
 H7 H 0.58085 0.70027 0.59553
 Cu8 Cu 0.59673 0.62656 0.65432
 Cu9 Cu 0.62108 0.65350 0.60029
 Cu10 Cu 0.64759 0.59823 0.62548
 N11 N 0.61152 0.59511 0.66767
 N12 N 0.63120 0.58402 0.65618
 C13 C 0.63733 0.56262 0.66910
 C14 C 0.62060 0.56001 0.69004
 C15 C 0.60447 0.58115 0.68838
 H16 H 0.65297 0.55009 0.66360
 H17 H 0.58863 0.58603 0.70110
 N18 N 0.66149 0.61545 0.59457
 N19 N 0.65133 0.63642 0.58489
 C20 C 0.66505 0.64346 0.56389
 C21 C 0.68489 0.62614 0.56019
 C22 C 0.68199 0.60865 0.58005
 H23 H 0.66110 0.66017 0.55235
 H24 H 0.69383 0.59206 0.58356
 H25 H 0.61534 0.61647 0.61187
 H26 H 0.63675 0.63561 0.63208
 N27 N 0.90023 0.33149 0.12082
 N28 N 0.91100 0.34241 0.14043
 C29 C 0.93307 0.33023 0.14534
 C30 C 0.93632 0.31028 0.12792
 C31 C 0.91489 0.31180 0.11267
 H32 H 0.94548 0.33543 0.16075
 H33 H 0.91009 0.29964 0.09678
 Cu34 Cu 0.89465 0.37081 0.15848
 Cu35 Cu 0.86768 0.34331 0.10782
 Cu36 Cu 0.84864 0.40364 0.12793
 N37 N 0.88365 0.40437 0.16983
 N38 N 0.86601 0.41733 0.15758
 C39 C 0.86212 0.43981 0.16942
 C40 C 0.87822 0.44107 0.19028
 C41 C 0.89162 0.41815 0.18987
 H42 H 0.84823 0.45394 0.16352
 H43 H 0.90620 0.41192 0.20302
 N44 N 0.83336 0.38618 0.09855
 N45 N 0.84043 0.36313 0.09115
 C46 C 0.82650 0.35638 0.07083
 C47 C 0.80966 0.37606 0.06523
 C48 C 0.81456 0.39462 0.08326
 H49 H 0.82841 0.33838 0.06096
 H50 H 0.80526 0.41302 0.08496
 H51 H 0.87818 0.37957 0.11566
 H52 H 0.85339 0.36641 0.13777
 N53 N 0.40635 0.17366 -0.11651
 N54 N 0.41732 0.16304 -0.13695
 C55 C 0.43781 0.17639 -0.14391
 C56 C 0.43980 0.19653 -0.12695
 C57 C 0.41944 0.19414 -0.10981
 H58 H 0.45020 0.17194 -0.16026
 H59 H 0.41458 0.20623 -0.09350
 Cu60 Cu 0.40359 0.13289 -0.15252
 Cu61 Cu 0.37600 0.16015 -0.10004
 Cu62 Cu 0.35131 0.10630 -0.12739
 N63 N 0.38952 0.10275 -0.16774
 N64 N 0.36915 0.09238 -0.15773
 C65 C 0.36350 0.07190 -0.17179
 C66 C 0.38125 0.06926 -0.19181
 C67 C 0.39748 0.08923 -0.18858
 H68 H 0.34745 0.06004 -0.16788
 H69 H 0.41398 0.09349 -0.20039
 N70 N 0.33600 0.12321 -0.09667
 N71 N 0.34544 0.14364 -0.08621
 C72 C 0.33087 0.15055 -0.06559
 C73 C 0.31124 0.13372 -0.06292
 C74 C 0.31515 0.11664 -0.08301
 H75 H 0.33415 0.16683 -0.05357
 H76 H 0.30378 0.10046 -0.08724
 H77 H 0.38239 0.12299 -0.11143
 H78 H 0.36230 0.14331 -0.13289
 N79 N 0.09135 0.83341 0.38728
 N80 N 0.08100 0.84473 0.36727
 C81 C 0.06036 0.83199 0.36048
 C82 C 0.05757 0.81137 0.37709
 C83 C 0.07777 0.81301 0.39384
 H84 H 0.04840 0.83737 0.34454
 H85 H 0.08229 0.80056 0.40984
 Cu86 Cu 0.09558 0.87499 0.35197
 Cu87 Cu 0.12134 0.84620 0.40375
 Cu88 Cu 0.14688 0.90093 0.37784
 N89 N 0.10997 0.90587 0.33785
 N90 N 0.12991 0.91598 0.34815
 C91 C 0.13587 0.93707 0.33484
 C92 C 0.11877 0.94041 0.31501
 C93 C 0.10260 0.92020 0.31756
 H94 H 0.15170 0.94889 0.33910
 H95 H 0.08653 0.91632 0.30567
 N96 N 0.16133 0.88289 0.40783
 N97 N 0.15160 0.86208 0.41771
 C98 C 0.16554 0.85443 0.43800
 C99 C 0.18505 0.87119 0.44108
 C100 C 0.18175 0.88898 0.42155
 H101 H 0.16186 0.83775 0.44957
 H102 H 0.19320 0.90534 0.41778
 H103 H 0.11517 0.88369 0.39329
 H104 H 0.13620 0.86410 0.37135
 C105 C 0.09533 0.13587 0.11683
 C106 C 0.09506 0.11651 0.13558
 C107 C 0.11415 0.09753 0.13577
 C108 C 0.13362 0.09803 0.11683
 C109 C 0.13420 0.11722 0.09788
 C110 C 0.11499 0.13611 0.09809
 H111 H 0.07992 0.11621 0.15006
 H112 H 0.14871 0.08377 0.11725
 H113 H 0.11489 0.15062 0.08319
 C114 C 0.39380 0.86332 0.62111
 C115 C 0.39280 0.88160 0.64087
 C116 C 0.37346 0.90034 0.64176
 C117 C 0.35495 0.90064 0.62255
 C118 C 0.35561 0.88253 0.60264
 C119 C 0.37511 0.86395 0.60209
 H120 H 0.40713 0.88125 0.65560
 H121 H 0.33998 0.91503 0.62310
 H122 H 0.37576 0.84993 0.58679
 C123 C 0.90436 0.63852 0.38396
 C124 C 0.90495 0.61901 0.36549
 C125 C 0.88616 0.60058 0.36561
 C126 C 0.86669 0.60182 0.38456
 C127 C 0.86587 0.62113 0.40324
 C128 C 0.88476 0.63944 0.40275
 H129 H 0.92009 0.61816 0.35102
 H130 H 0.85216 0.58765 0.38482
 H131 H 0.88426 0.65440 0.41710
 C132 C 0.61637 0.34756 -0.13101
 C133 C 0.61672 0.36672 -0.14998
 C134 C 0.63524 0.38542 -0.14992
 C135 C 0.65362 0.38470 -0.13057
 C136 C 0.65362 0.36566 -0.11144
 C137 C 0.63487 0.34720 -0.11182
 H138 H 0.60292 0.36666 -0.16524
 H139 H 0.66799 0.39900 -0.13042
 H140 H 0.63428 0.33285 -0.09675
 C141 C -0.02254 0.29381 0.14286
 C142 C -0.00275 0.27578 0.14155
 C143 C -0.00341 0.25554 0.12410
 C144 C -0.02395 0.25409 0.10731
 C145 C -0.04369 0.27219 0.10843
 C146 C -0.04348 0.29228 0.12640
 C147 C 0.01784 0.23670 0.12351
 C148 C 0.01508 0.21251 0.11640
 C149 C 0.03606 0.19337 0.11660
 C150 C 0.03023 0.16773 0.11984
 C151 C 0.04946 0.14908 0.12006
 C152 C 0.07494 0.15568 0.11665
 C153 C 0.08078 0.18130 0.11294
 C154 C 0.06156 0.19998 0.11292
 H155 H -0.02116 0.30891 0.15683
 H156 H 0.01303 0.27749 0.15450
 H157 H -0.02470 0.23920 0.09300
 H158 H -0.05908 0.27013 0.09516
 H159 H 0.03587 0.24266 0.13073
 H160 H -0.00356 0.20595 0.11173
 H161 H 0.01073 0.16212 0.12241
 H162 H 0.04439 0.12944 0.12255
 H163 H 0.10026 0.18691 0.11029
 H164 H 0.06672 0.21947 0.10961
 C165 C 0.51556 0.70793 0.64695
 C166 C 0.49655 0.72680 0.64790
 C167 C 0.49876 0.74905 0.63312
 C168 C 0.52074 0.75225 0.61767
 C169 C 0.53973 0.73335 0.61667
 C170 C 0.53736 0.71094 0.63126
 C171 C 0.47817 0.76864 0.63504
 C172 C 0.47415 0.78657 0.61695
 C173 C 0.45338 0.80596 0.61873
 C174 C 0.44550 0.81812 0.59592
 C175 C 0.42617 0.83666 0.59667
 C176 C 0.41436 0.84361 0.62032
 C177 C 0.42243 0.83168 0.64323
 C178 C 0.44179 0.81316 0.64249
 H179 H 0.51298 0.69091 0.65836
 H180 H 0.47993 0.72390 0.66011
 H181 H 0.52368 0.76947 0.60670
 H182 H 0.55644 0.73657 0.60475
 H183 H 0.46519 0.76729 0.65145
 H184 H 0.48569 0.78647 0.59938
 H185 H 0.45430 0.81320 0.57741
 H186 H 0.42070 0.84582 0.57874
 H187 H 0.41364 0.83654 0.66174
 H188 H 0.44779 0.80489 0.66064
 C189 C 1.01836 0.79476 0.35951
 C190 C 0.99944 0.77666 0.35962
 C191 C 1.00026 0.75613 0.37690
 C192 C 1.02014 0.75430 0.39456
 C193 C 1.03898 0.77247 0.39464
 C194 C 1.03851 0.79301 0.37704
 C195 C 0.97966 0.73754 0.37660
 C196 C 0.98288 0.71328 0.38394
 C197 C 0.96235 0.69463 0.38352
 C198 C 0.96877 0.66882 0.38068
 C199 C 0.94996 0.65062 0.38058
 C200 C 0.92431 0.65786 0.38372
 C201 C 0.91787 0.68366 0.38691
 C202 C 0.93667 0.70188 0.38681
 H203 H 1.01683 0.81015 0.34570
 H204 H 0.98416 0.77863 0.34599
 H205 H 1.02097 0.73914 0.40873
 H206 H 1.05385 0.77016 0.40861
 H207 H 0.96169 0.74383 0.36880
 H208 H 1.00155 0.70635 0.38923
 H209 H 0.98843 0.66273 0.37842
 H210 H 0.95548 0.63083 0.37846
 H211 H 0.89824 0.68976 0.38933
 H212 H 0.93104 0.72152 0.38981
 C213 C 0.45564 0.23868 -0.11270
 C214 C 0.47404 0.25731 -0.11295
 C215 C 0.49668 0.25391 -0.12733
 C216 C 0.50033 0.23164 -0.14199
 C217 C 0.48190 0.21304 -0.14182
 C218 C 0.45936 0.21629 -0.12712
 C219 C 0.51555 0.27429 -0.12723
 C220 C 0.54037 0.27015 -0.13203
 C221 C 0.55930 0.29045 -0.13161
 C222 C 0.58468 0.28382 -0.12686
 C223 C 0.60317 0.30234 -0.12653
 C224 C 0.59671 0.32790 -0.13126
 C225 C 0.57136 0.33453 -0.13639
 C226 C 0.55284 0.31602 -0.13662
 H227 H 0.43842 0.24203 -0.10142
 H228 H 0.47061 0.27442 -0.10173
 H229 H 0.51717 0.22864 -0.15398
 H230 H 0.48546 0.19609 -0.15317
 H231 H 0.50880 0.29305 -0.12166
 H232 H 0.54748 0.25096 -0.13508
 H233 H 0.59022 0.26424 -0.12325
 H234 H 0.62262 0.29661 -0.12293
 H235 H 0.56580 0.35408 -0.14004
 H236 H 0.53365 0.32180 -0.14115
 C237 C 0.13162 -0.01672 0.29888
 C238 C 0.13105 0.00260 0.28027
 C239 C 0.11724 -0.00004 0.25752
 C240 C 0.10342 -0.02222 0.25404
 C241 C 0.10389 -0.04150 0.27271
 C242 C 0.11809 -0.03904 0.29530
 C243 C 0.11710 0.02096 0.23835
 C244 C 0.11297 0.01759 0.21303
 C245 C 0.11333 0.03851 0.19377
 C246 C 0.11887 0.03275 0.16770
 C247 C 0.11926 0.05189 0.14891
 C248 C 0.11380 0.07721 0.15575
 C249 C 0.10788 0.08296 0.18178
 C250 C 0.10759 0.06383 0.20060
 H251 H 0.14247 -0.01397 0.31617
 H252 H 0.14161 0.01961 0.28357
 H253 H 0.09190 -0.02464 0.23716
 H254 H 0.09323 -0.05837 0.26927
 H255 H 0.12198 0.03954 0.24525
 H256 H 0.11059 -0.00140 0.20571
 H257 H 0.12306 0.01337 0.16187
 H258 H 0.12350 0.04684 0.12893
 H259 H 0.10366 0.10232 0.18764
 H260 H 0.10248 0.06894 0.22034
 C261 C 0.60248 0.54104 -0.27037
 C262 C 0.60216 0.52168 -0.25182
 C263 C 0.61942 0.50112 -0.25344
 C264 C 0.63680 0.50009 -0.27445
 C265 C 0.63725 0.51950 -0.29296
 C266 C 0.62013 0.54038 -0.29126
 C267 C 0.61807 0.48096 -0.23330
 C268 C 0.63702 0.46425 -0.22862
 C269 C 0.63579 0.44425 -0.20831
 C270 C 0.65853 0.43280 -0.20007
 C271 C 0.65838 0.41376 -0.18117
 C272 C 0.63543 0.40562 -0.17010
 C273 C 0.61262 0.41685 -0.17853
 C274 C 0.61275 0.43583 -0.19751
 H275 H 0.58886 0.55650 -0.26802
 H276 H 0.58839 0.52287 -0.23599
 H277 H 0.64986 0.48419 -0.27707
 H278 H 0.65097 0.51774 -0.30872
 H279 H 0.60112 0.48083 -0.22120
 H280 H 0.65480 0.46578 -0.23921
 H281 H 0.67653 0.43865 -0.20826
 H282 H 0.67626 0.40516 -0.17549
 H283 H 0.59462 0.41109 -0.17030
 H284 H 0.59472 0.44347 -0.20379
 C285 C 0.39789 1.05257 0.76547
 C286 C 0.39899 1.03401 0.74620
 C287 C 0.38468 1.01202 0.74863
 C288 C 0.36957 1.00873 0.77112
 C289 C 0.36842 1.02733 0.79038
 C290 C 0.38251 1.04951 0.78776
 C291 C 0.38668 0.99278 0.72772
 C292 C 0.36905 0.97537 0.72367
 C293 C 0.37087 0.95639 0.70251
 C294 C 0.34862 0.94499 0.69442
 C295 C 0.34943 0.92687 0.67471
 C296 C 0.37259 0.91960 0.66273
 C297 C 0.39493 0.93076 0.67102
 C298 C 0.39413 0.94886 0.69076
 H299 H 0.40893 1.06941 0.76268
 H300 H 0.41095 1.03695 0.72919
 H301 H 0.35895 0.99167 0.77427
 H302 H 0.35674 1.02406 0.80748
 H303 H 0.40274 0.99401 0.71447
 H304 H 0.35185 0.97566 0.73543
 H305 H 0.33050 0.95018 0.70334
 H306 H 0.33194 0.91830 0.66908
 H307 H 0.41306 0.92564 0.66210
 H308 H 0.41184 0.95653 0.69692
 C309 C 0.86840 0.48577 0.20456
 C310 C 0.86991 0.50538 0.22257
 C311 C 0.88301 0.50174 0.24573
 C312 C 0.89526 0.47819 0.25018
 C313 C 0.89379 0.45859 0.23216
 C314 C 0.88019 0.46206 0.20920
 C315 C 0.88388 0.52302 0.26437
 C316 C 0.88756 0.51972 0.28985
 C317 C 0.88745 0.54088 0.30871
 C318 C 0.88198 0.53563 0.33489
 C319 C 0.88156 0.55496 0.35334
 C320 C 0.88687 0.58000 0.34603
 C321 C 0.89283 0.58522 0.31991
 C322 C 0.89319 0.56588 0.30143
 H323 H 0.85806 0.48935 0.18698
 H324 H 0.86057 0.52342 0.21849
 H325 H 0.90628 0.47487 0.26737
 H326 H 0.90322 0.44068 0.23642
 H327 H 0.87979 0.54185 0.25694
 H328 H 0.88920 0.50070 0.29764
 H329 H 0.87780 0.51650 0.34108
 H330 H 0.87735 0.55027 0.37339
 H331 H 0.89694 0.60434 0.31369
 H332 H 0.89829 0.57059 0.28162
 C333 C 0.29224 0.14875 -0.02051
 C334 C 0.27278 0.14891 -0.00174
 C335 C 0.25126 0.13420 -0.00487
 C336 C 0.24937 0.11965 -0.02754
 C337 C 0.26886 0.11945 -0.04629
 C338 C 0.29057 0.13394 -0.04298
 C339 C 0.23100 0.13519 0.01548
 C340 C 0.21397 0.11693 0.01900
 C341 C 0.19384 0.11772 0.03949
 C342 C 0.18267 0.09492 0.04713
 C343 C 0.16343 0.09474 0.06612
 C344 C 0.15476 0.11743 0.07779
 C345 C 0.16572 0.14032 0.06997
 C346 C 0.18497 0.14051 0.05096
 H347 H 0.30868 0.16007 -0.01719
 H348 H 0.27465 0.16045 0.01541
 H349 H 0.23273 0.10877 -0.03122
 H350 H 0.26665 0.10820 -0.06355
 H351 H 0.23107 0.15102 0.02874
 H352 H 0.21540 0.09998 0.00727
 H353 H 0.18889 0.07714 0.03841
 H354 H 0.15506 0.07684 0.07138
 H355 H 0.15952 0.15811 0.07867
 H356 H 0.19246 0.15860 0.04511
 C357 C 0.70191 0.64119 0.51715
 C358 C 0.72077 0.64128 0.49775
 C359 C 0.74320 0.62682 0.50049
 C360 C 0.74615 0.61174 0.52282
 C361 C 0.72724 0.61155 0.54216
 C362 C 0.70492 0.62633 0.53961
 C363 C 0.76261 0.62722 0.47934
 C364 C 0.78732 0.62242 0.48321
 C365 C 0.80684 0.62271 0.46217
 C366 C 0.83209 0.62699 0.46858
 C367 C 0.85118 0.62677 0.44944
 C368 C 0.84547 0.62196 0.42346
 C369 C 0.82023 0.61748 0.41702
 C370 C 0.80110 0.61781 0.43615
 H371 H 0.68485 0.65255 0.51434
 H372 H 0.71790 0.65282 0.48059
 H373 H 0.76280 0.59971 0.52528
 H374 H 0.73026 0.59988 0.55916
 H375 H 0.75637 0.63288 0.46027
 H376 H 0.79386 0.61926 0.50275
 H377 H 0.83705 0.63052 0.48850
 H378 H 0.87052 0.62989 0.45504
 H379 H 0.81527 0.61379 0.39714
 H380 H 0.78201 0.61369 0.43052
 C381 C 0.77027 0.39471 0.04565
 C382 C 0.75223 0.39554 0.02618
 C383 C 0.75399 0.37874 0.00515
 C384 C 0.77458 0.36131 0.00378
 C385 C 0.79254 0.36039 0.02334
 C386 C 0.79058 0.37704 0.04451
 C387 C 0.73443 0.38060 -0.01512
 C388 C 0.72999 0.36205 -0.03208
 C389 C 0.71023 0.36377 -0.05216
 C390 C 0.70240 0.34129 -0.06373
 C391 C 0.68406 0.34189 -0.08289
 C392 C 0.67314 0.36505 -0.09104
 C393 C 0.68113 0.38760 -0.07967
 C394 C 0.69956 0.38702 -0.06058
 H395 H 0.76806 0.40775 0.06172
 H396 H 0.73671 0.40930 0.02766
 H397 H 0.77729 0.34862 -0.01249
 H398 H 0.80821 0.34687 0.02157
 H399 H 0.72257 0.39759 -0.01508
 H400 H 0.74039 0.34422 -0.03066
 H401 H 0.71049 0.32314 -0.05790
 H402 H 0.67867 0.32421 -0.09159
 H403 H 0.67299 0.40575 -0.08540
 H404 H 0.70551 0.40489 -0.05286
 C405 C 0.20260 0.85471 0.48296
 C406 C 0.22136 0.85399 0.50170
 C407 C 0.24288 0.86897 0.49904
 C408 C 0.24550 0.88436 0.47685
 C409 C 0.22672 0.88511 0.45812
 C410 C 0.20500 0.87035 0.46097
 C411 C 0.26238 0.86736 0.51935
 C412 C 0.27919 0.88555 0.52344
 C413 C 0.29851 0.88408 0.54393
 C414 C 0.30917 0.90662 0.55246
 C415 C 0.32761 0.90615 0.57153
 C416 C 0.33596 0.88304 0.58240
 C417 C 0.32553 0.86042 0.57366
 C418 C 0.30710 0.86088 0.55458
 H419 H 0.18614 0.84315 0.48593
 H420 H 0.21894 0.84181 0.51849
 H421 H 0.26219 0.89550 0.47352
 H422 H 0.22948 0.89702 0.44123
 H423 H 0.26188 0.85106 0.53213
 H424 H 0.27814 0.90291 0.51224
 H425 H 0.30316 0.92471 0.54438
 H426 H 0.33560 0.92387 0.57751
 H427 H 0.33150 0.84232 0.58174
 H428 H 0.30001 0.84300 0.54802
   
