data_POSCAR
  _audit_creation_date              2014-09-24
  _audit_creation_method            'ToBaCCo'
  _symmetry_space_group_name_H-M    'P1'
  _symmetry_Int_Tables_number       1
  _symmetry_cell_setting            triclinic
  loop_
  _symmetry_equiv_pos_as_xyz
 x,y,z
_cell_length_a 23.8951
_cell_length_b 23.8157
_cell_length_c 23.8880
_cell_angle_alpha 79.323100
_cell_angle_beta 103.434900
_cell_angle_gamma 93.838300
loop_
  _atom_site_label
  _atom_site_type_symbol
  _atom_site_fract_x
  _atom_site_fract_y
  _atom_site_fract_z
C1 C 0.62750 0.37338 0.02811
 C2 C 0.66673 0.41702 0.03839
 C3 C 0.63679 0.46762 0.02022
 N4 N 0.58011 0.45599 0.00078
 C5 C 0.57453 0.39841 0.00538
 C6 C 0.66193 0.52344 0.02102
 C7 C 0.62989 0.57055 0.02503
 C8 C 0.65042 0.62667 0.02249
 C9 C 0.60880 0.65784 0.03261
 C10 C 0.56171 0.62132 0.03808
 N11 N 0.57608 0.56774 0.03519
 C12 C 0.50980 0.63598 0.05194
 C13 C 0.46563 0.59442 0.06000
 C14 C 0.42311 0.59779 0.09028
 C15 C 0.38418 0.55396 0.07927
 C16 C 0.40352 0.52561 0.04209
 N17 N 0.45329 0.55010 0.03070
 C18 C 0.37361 0.48089 0.01518
 C19 C 0.40180 0.44463 -0.00930
 C20 C 0.37469 0.40801 -0.04674
 C21 C 0.41708 0.37621 -0.05526
 C22 C 0.46870 0.39405 -0.02238
 N23 N 0.45910 0.43623 0.00481
 C24 C 0.52247 0.36851 -0.01316
 H25 H 0.63679 0.32831 0.03756
 H26 H 0.71209 0.41181 0.05810
 H27 H 0.48899 0.45284 0.03723
 H28 H 0.69176 0.64412 0.01579
 H29 H 0.61536 0.70179 0.03865
 H30 H 0.41992 0.62823 0.11773
 H31 H 0.34587 0.54441 0.09647
 H32 H 0.41046 0.34314 -0.08185
 H33 H 0.55269 0.53035 0.04483
 H34 H 0.32907 0.40401 -0.06532
 C35 C 0.02635 0.62628 0.33906
 C36 C 0.02119 0.66277 0.37545
 C37 C 0.00006 0.63035 0.42112
 N38 N -0.00674 0.57500 0.41417
 C39 C 0.00930 0.57260 0.36399
 C40 C -0.01592 0.65204 0.46638
 C41 C -0.03051 0.61442 0.51452
 C42 C -0.06890 0.62562 0.54640
 C43 C -0.06860 0.57935 0.59046
 C44 C -0.03027 0.54105 0.58412
 N45 N -0.00807 0.56224 0.53705
 C46 C -0.01381 0.48950 0.62307
 C47 C 0.00902 0.44431 0.60542
 C48 C 0.03326 0.39589 0.64246
 C49 C 0.04406 0.36021 0.60750
 C50 C 0.02633 0.38814 0.55023
 N51 N 0.00483 0.43950 0.54912
 C52 C 0.02359 0.36361 0.50019
 C53 C 0.01017 0.39562 0.44271
 C54 C -0.00557 0.37304 0.39153
 C55 C -0.01276 0.41840 0.34591
 C56 C 0.00117 0.46751 0.37007
 N57 N 0.01478 0.45323 0.42905
 C58 C 0.00509 0.52344 0.33814
 H59 H 0.04144 0.63787 0.29898
 H60 H 0.03206 0.70795 0.36865
 H61 H 0.03240 0.48071 0.45811
 H62 H -0.09502 0.66292 0.53837
 H63 H -0.09401 0.57441 0.62319
 H64 H 0.04150 0.38669 0.68970
 H65 H 0.06159 0.31795 0.62268
 H66 H -0.02591 0.41502 0.30016
 H67 H 0.02521 0.54492 0.52467
 H68 H -0.01100 0.32873 0.38654
 C69 C 0.36022 -0.05134 0.59338
 C70 C 0.40581 -0.04881 0.64007
 C71 C 0.45020 -0.01936 0.61777
 N72 N 0.43370 -0.00527 0.55893
 C73 C 0.37858 -0.02423 0.54407
 C74 C 0.50491 -0.00451 0.65045
 C75 C 0.55277 0.00524 0.62390
 C76 C 0.60328 0.03435 0.64510
 C77 C 0.64050 0.02969 0.61035
 C78 C 0.61191 -0.00216 0.56866
 N79 N 0.55808 -0.01615 0.57668
 C80 C 0.63661 -0.02042 0.52677
 C81 C 0.60118 -0.03820 0.47648
 C82 C 0.61661 -0.07405 0.44318
 C83 C 0.57107 -0.07613 0.39638
 C84 C 0.52904 -0.04244 0.40333
 N85 N 0.54721 -0.01977 0.45251
 C86 C 0.47568 -0.03047 0.36381
 C87 C 0.42857 -0.01294 0.38216
 C88 C 0.37828 0.00948 0.34532
 C89 C 0.34099 0.01404 0.38028
 C90 C 0.36961 -0.00568 0.43745
 N91 N 0.42311 -0.02143 0.43824
 C92 C 0.34452 -0.01489 0.48647
 H93 H 0.31884 -0.07203 0.59540
 H94 H 0.40645 -0.06797 0.68496
 H95 H 0.45131 -0.04375 0.47420
 H96 H 0.61257 0.05680 0.68180
 H97 H 0.68369 0.04797 0.61533
 H98 H 0.65620 -0.09694 0.45196
 H99 H 0.56876 -0.10049 0.36187
 H100 H 0.29733 0.02891 0.36512
 H101 H 0.52903 -0.04411 0.55526
 H102 H 0.36886 0.02024 0.29811
 O103 O 0.42786 -0.00112 -0.07569
 O104 O 0.46629 -0.01791 0.08474
 O105 O 0.43387 0.06694 0.00027
 O106 O 0.46570 -0.08498 0.00948
 O107 O 0.55563 -0.05988 0.00576
 O108 O 0.52380 0.09089 -0.00423
 O109 O 0.55639 0.00706 0.08196
 O110 O 0.51825 0.02207 -0.07889
 Cu111 Cu 0.43940 -0.01171 0.00496
 Cu112 Cu 0.54754 0.01749 0.00100
 C113 C 0.46657 0.01235 -0.10457
 C114 C 0.51758 -0.00748 0.11070
 C115 C 0.47371 0.10471 -0.00316
 C116 C 0.51619 -0.09797 0.00838
 O117 O -0.07387 0.54501 0.97885
 O118 O 0.08160 0.57072 0.98779
 O119 O -0.00841 0.57356 0.90270
 O120 O 0.01696 0.54264 1.06305
 O121 O 0.02761 0.45129 1.06273
 O122 O 0.00146 0.48216 0.90208
 O123 O 0.09168 0.47930 0.98732
 O124 O -0.06386 0.45382 0.97736
 Cu125 Cu 0.00281 0.56715 0.98305
 Cu126 Cu 0.01496 0.45744 0.98219
 C127 C -0.09520 0.49485 0.97725
 C128 C 0.11309 0.52942 0.98904
 C129 C -0.00675 0.53322 0.87514
 C130 C 0.02668 0.49187 1.09022
 O131 O -0.01045 -0.07677 0.47106
 O132 O -0.01799 0.07974 0.43810
 O133 O 0.06610 0.00660 0.46820
 O134 O -0.09189 -0.00374 0.43912
 O135 O -0.08783 -0.00230 0.53220
 O136 O 0.07042 0.00800 0.56130
 O137 O -0.01170 0.08114 0.53161
 O138 O -0.00572 -0.07591 0.56432
 Cu139 Cu -0.01341 0.00133 0.44482
 Cu140 Cu -0.00819 0.00285 0.55677
 C141 C -0.00767 -0.10311 0.52297
 C142 C -0.01674 0.10700 0.47925
 C143 C 0.09519 0.00891 0.51956
 C144 C -0.11677 -0.00460 0.48072
 C145 C -0.27893 0.53338 1.01965
 C146 C -0.24970 0.50419 0.99312
 C147 C -0.18865 0.51814 0.99281
 C148 C -0.15683 0.48328 0.97571
 H149 H -0.27080 0.47097 0.96971
 H150 H -0.16909 0.55641 1.00841
 H151 H -0.25598 0.56874 1.03818
 H152 H -0.17577 0.44361 0.96297
 C153 C 0.31115 0.46987 1.01306
 C154 C 0.27318 0.51173 1.00021
 C155 C 0.21166 0.49882 0.99797
 C156 C 0.17494 0.54064 0.99192
 H157 H 0.28753 0.55594 0.99110
 H158 H 0.19643 0.45465 1.00193
 H159 H 0.29574 0.42580 1.01955
 H160 H 0.19073 0.58459 0.98924
 C161 C -0.02044 -0.28805 0.46011
 C162 C -0.01372 -0.25934 0.50460
 C163 C -0.01536 -0.19653 0.49263
 C164 C -0.00687 -0.16597 0.53557
 H165 H -0.00369 -0.28123 0.54957
 H166 H -0.02331 -0.17481 0.44752
 H167 H -0.02579 -0.26263 0.41674
 H168 H 0.00023 -0.18742 0.58071
 C169 C 0.03348 0.30141 0.50962
 C170 C -0.00743 0.26457 0.48955
 C171 C 0.00200 0.20286 0.50340
 C172 C -0.02290 0.16915 0.46543
 H173 H -0.04852 0.27986 0.46281
 H174 H 0.03044 0.18506 0.54441
 H175 H 0.07378 0.28532 0.53754
 H176 H -0.04745 0.18774 0.42257
 C177 C 0.51473 -0.00035 -0.28953
 C178 C 0.47488 0.01100 -0.26206
 C179 C 0.49091 0.01343 -0.19908
 C180 C 0.45106 0.01517 -0.16841
 H181 H 0.43102 0.01999 -0.28547
 H182 H 0.53599 0.01107 -0.17689
 H183 H 0.55860 -0.00410 -0.26387
 H184 H 0.40583 0.01489 -0.18998
 C185 C 0.46693 -0.03789 0.30176
 C186 C 0.50642 -0.02208 0.26985
 C187 C 0.49309 -0.02526 0.20709
 C188 C 0.53220 -0.01035 0.17462
 H189 H 0.54779 -0.00444 0.28941
 H190 H 0.44992 -0.03829 0.18679
 H191 H 0.42500 -0.05313 0.28056
 H192 H 0.57545 0.00228 0.19507
 C193 C 0.49929 -0.30714 0.05664
 C194 C 0.51366 -0.26027 0.02165
 C195 C 0.49919 -0.20256 0.02702
 C196 C 0.52964 -0.15712 0.00748
 H197 H 0.53362 -0.26371 -0.01381
 H198 H 0.46444 -0.19730 0.04766
 H199 H 0.47242 -0.30023 0.08529
 H200 H 0.56663 -0.16348 -0.00951
 C201 C 0.52598 0.30915 -0.02364
 C202 C 0.49013 0.26633 -0.00850
 C203 C 0.49992 0.20726 -0.01379
 C204 C 0.46181 0.16487 -0.00399
 H205 H 0.45496 0.27427 0.01036
 H206 H 0.53968 0.19812 -0.02448
 H207 H 0.56210 0.29950 -0.04029
 H208 H 0.42143 0.17431 0.00518
 C209 C -0.30254 -0.02019 0.53710
 C210 C -0.27278 -0.01376 0.49511
 C211 C -0.20947 -0.01216 0.50985
 C212 C -0.17996 -0.00776 0.46810
 H213 H -0.29452 -0.00662 0.44938
 H214 H -0.18687 -0.01455 0.55516
 H215 H -0.27790 -0.02145 0.58156
 H216 H -0.20285 -0.00625 0.42299
 C217 C 0.28057 -0.01752 0.47562
 C218 C 0.25116 0.00409 0.50763
 C219 C 0.18785 0.00128 0.49396
 C220 C 0.15843 0.01267 0.53156
 H221 H 0.27377 0.02404 0.54404
 H222 H 0.16511 -0.01167 0.45332
 H223 H 0.25691 -0.03565 0.43831
 H224 H 0.18141 0.02326 0.57322
 C225 C 0.00064 0.53311 1.27396
 C226 C 0.02906 0.50328 1.24776
 C227 C 0.02219 0.51658 1.18399
 C228 C 0.03647 0.47950 1.15434
 H229 H 0.05673 0.46894 1.27302
 H230 H 0.00273 0.55657 1.16060
 H231 H -0.02532 0.56834 1.24763
 H232 H 0.05323 0.43829 1.17730
 C233 C -0.02337 0.47991 0.68358
 C234 C -0.01299 0.52013 0.71724
 C235 C -0.01596 0.50598 0.77912
 C236 C -0.01200 0.54674 0.81152
 H237 H 0.00059 0.56292 0.70008
 H238 H -0.01939 0.46142 0.79887
 H239 H -0.03522 0.43708 0.70252
 H240 H -0.01016 0.59131 0.79128
   
