data_POSCAR
  _audit_creation_date              2014-09-24
  _audit_creation_method            'ToBaCCo'
  _symmetry_space_group_name_H-M    'P1'
  _symmetry_Int_Tables_number       1
  _symmetry_cell_setting            triclinic
  loop_
  _symmetry_equiv_pos_as_xyz
 x,y,z
_cell_length_a 35.2084
_cell_length_b 35.2064
_cell_length_c 34.4477
_cell_angle_alpha 89.965800
_cell_angle_beta 90.190000
_cell_angle_gamma 90.623300
loop_
  _atom_site_label
  _atom_site_type_symbol
  _atom_site_fract_x
  _atom_site_fract_y
  _atom_site_fract_z
C1 C 0.32040 0.28316 0.22383
 H2 H 0.33348 0.26898 0.24816
 C3 C 0.34270 0.30602 0.19968
 H4 H 0.37282 0.30899 0.20557
 C5 C 0.26522 0.29801 0.18756
 H6 H 0.23499 0.29489 0.18305
 C7 C 0.28643 0.32149 0.16290
 H8 H 0.27235 0.33597 0.13924
 N9 N 0.28243 0.27922 0.21723
 C10 C 0.19577 0.26102 0.30553
 H11 H 0.19369 0.23034 0.30615
 C12 C 0.17220 0.28269 0.32914
 H13 H 0.15253 0.26827 0.34836
 C14 C 0.22490 0.31672 0.28033
 H15 H 0.24552 0.32988 0.26129
 C16 C 0.20152 0.33948 0.30297
 H17 H 0.20410 0.37004 0.30042
 Zn18 Zn 0.25291 0.24764 0.25048
 N19 N 0.22172 0.27824 0.28205
 C20 C 0.28396 0.22019 0.32144
 N21 N 0.28599 0.21815 0.28205
 C22 C 0.31221 0.19593 0.26443
 C23 C 0.33684 0.17376 0.28647
 C24 C 0.30814 0.19855 0.34462
 C25 C 0.18849 0.23131 0.20524
 C26 C 0.16364 0.20962 0.18237
 C27 C 0.20514 0.15602 0.19049
 C28 C 0.22889 0.17856 0.21368
 N29 N 0.22062 0.21571 0.22010
 H30 H 0.26364 0.23858 0.33508
 H31 H 0.31418 0.19566 0.23310
 H32 H 0.35756 0.15639 0.27185
 H33 H 0.30556 0.20002 0.37589
 H34 H 0.18206 0.26067 0.21130
 H35 H 0.13840 0.22258 0.17046
 H36 H 0.21225 0.12658 0.18551
 H37 H 0.25387 0.16615 0.22631
 C38 C 0.17483 0.32257 0.32808
 C39 C 0.32574 0.32549 0.16872
 C40 C 0.17213 0.17158 0.17445
 C41 C 0.33484 0.17473 0.32715
 C42 C 0.80671 0.80429 0.23494
 H43 H 0.80921 0.80526 0.26624
 C44 C 0.82968 0.82777 0.21207
 H45 H 0.84856 0.84734 0.22694
 C46 C 0.77701 0.77849 0.17909
 H47 H 0.75690 0.75870 0.16633
 C48 C 0.79944 0.80137 0.15501
 H49 H 0.79631 0.79758 0.12404
 N50 N 0.78076 0.78060 0.21827
 C51 C 0.69602 0.76251 0.30879
 H52 H 0.69596 0.73187 0.31119
 C53 C 0.67248 0.78395 0.33266
 H54 H 0.65491 0.76950 0.35387
 C55 C 0.71961 0.81834 0.27850
 H56 H 0.73745 0.83166 0.25688
 C57 C 0.69625 0.84083 0.30144
 H58 H 0.69647 0.87127 0.29700
 Zn59 Zn 0.75107 0.74952 0.25144
 N60 N 0.71956 0.77996 0.28295
 C61 C 0.78419 0.72261 0.32174
 N62 N 0.78510 0.72085 0.28230
 C63 C 0.81120 0.69934 0.26366
 C64 C 0.83662 0.67714 0.28476
 C65 C 0.80916 0.70097 0.34399
 C66 C 0.68968 0.73373 0.20239
 C67 C 0.66494 0.71178 0.17967
 C68 C 0.70089 0.65616 0.19699
 C69 C 0.72455 0.67907 0.21992
 N70 N 0.71896 0.71722 0.22169
 H71 H 0.76412 0.74070 0.33615
 H72 H 0.81201 0.69920 0.23227
 H73 H 0.85705 0.66006 0.26937
 H74 H 0.80732 0.70204 0.37533
 H75 H 0.68571 0.76408 0.20455
 H76 H 0.64199 0.72536 0.16414
 H77 H 0.70583 0.62589 0.19558
 H78 H 0.74738 0.66627 0.23607
 C79 C 0.67253 0.82376 0.32934
 C80 C 0.82649 0.82688 0.17114
 C81 C 0.67072 0.67255 0.17651
 C82 C 0.83558 0.67753 0.32551
 C83 C 0.80367 0.30756 0.73510
 H84 H 0.80479 0.31059 0.76634
 C85 C 0.82689 0.33029 0.71168
 H86 H 0.84524 0.35127 0.72529
 C87 C 0.77753 0.27694 0.67978
 H88 H 0.75857 0.25578 0.66751
 C89 C 0.80065 0.29868 0.65528
 H90 H 0.79932 0.29364 0.62431
 N91 N 0.77923 0.28193 0.71888
 C92 C 0.69169 0.26560 0.80724
 H93 H 0.69128 0.23497 0.80985
 C94 C 0.66780 0.28738 0.83040
 H95 H 0.64964 0.27321 0.85130
 C96 C 0.71644 0.32102 0.77718
 H97 H 0.73486 0.33407 0.75592
 C98 C 0.69277 0.34385 0.79941
 H99 H 0.69337 0.37427 0.79481
 Zn100 Zn 0.74889 0.25169 0.75230
 N101 N 0.71613 0.28268 0.78202
 C102 C 0.77826 0.22395 0.82408
 N103 N 0.78220 0.22399 0.78490
 C104 C 0.81065 0.20459 0.76768
 C105 C 0.83567 0.18289 0.78981
 C106 C 0.80222 0.20226 0.84739
 C107 C 0.68824 0.23341 0.70313
 C108 C 0.66426 0.21033 0.68074
 C109 C 0.70237 0.15630 0.69844
 C110 C 0.72522 0.18029 0.72108
 N111 N 0.71808 0.21816 0.72263
 H112 H 0.75661 0.24083 0.83758
 H113 H 0.81347 0.20542 0.73642
 H114 H 0.85625 0.16649 0.77403
 H115 H 0.79832 0.20445 0.87839
 H116 H 0.68314 0.26360 0.70501
 H117 H 0.64075 0.22288 0.66517
 H118 H 0.70848 0.12624 0.69724
 H119 H 0.74869 0.16857 0.73717
 C120 C 0.66839 0.32717 0.82695
 C121 C 0.82567 0.32602 0.67110
 C122 C 0.67146 0.17133 0.67800
 C123 C 0.83163 0.18052 0.83070
 C124 C 0.30063 0.80648 0.73451
 H125 H 0.30114 0.80939 0.76577
 C126 C 0.32416 0.82942 0.71166
 H127 H 0.34212 0.85045 0.72571
 C128 C 0.27575 0.77587 0.67858
 H129 H 0.25722 0.75457 0.66588
 C130 C 0.29922 0.79784 0.65462
 H131 H 0.29854 0.79292 0.62362
 N132 N 0.27671 0.78073 0.71772
 C133 C 0.19084 0.76387 0.80755
 H134 H 0.19144 0.73334 0.81110
 C135 C 0.16705 0.78566 0.83083
 H136 H 0.15000 0.77162 0.85276
 C137 C 0.21299 0.81903 0.77501
 H138 H 0.23031 0.83194 0.75271
 C139 C 0.18933 0.84183 0.79729
 H140 H 0.18887 0.87207 0.79169
 Zn141 Zn 0.24650 0.75014 0.75085
 N142 N 0.21394 0.78087 0.78100
 C143 C 0.27880 0.72435 0.82223
 N144 N 0.28030 0.72244 0.78282
 C145 C 0.30697 0.70125 0.76467
 C146 C 0.33236 0.67947 0.78621
 C147 C 0.30369 0.70305 0.84493
 C148 C 0.18680 0.73254 0.70024
 C149 C 0.16290 0.70973 0.67747
 C150 C 0.19861 0.65492 0.69777
 C151 C 0.22138 0.67867 0.72073
 N152 N 0.21551 0.71681 0.72107
 H153 H 0.25830 0.74224 0.83626
 H154 H 0.30822 0.70099 0.73329
 H155 H 0.35325 0.66264 0.77117
 H156 H 0.30134 0.70415 0.87624
 H157 H 0.18261 0.76292 0.70126
 H158 H 0.14035 0.72265 0.66076
 H159 H 0.20377 0.62465 0.69748
 H160 H 0.24374 0.66651 0.73807
 C161 C 0.16632 0.82532 0.82612
 C162 C 0.32380 0.82523 0.67106
 C163 C 0.16900 0.67048 0.67580
 C164 C 0.33065 0.67987 0.82693
 C165 C 0.05439 0.05593 0.01430
 H166 H 0.05704 0.05620 -0.01698
 C167 C 0.07788 0.07925 0.03695
 H168 H 0.09864 0.09755 0.02297
 C169 C 0.02368 0.03208 0.07055
 H170 H 0.00230 0.01391 0.08350
 C171 C 0.04619 0.05539 0.09426
 H172 H 0.04238 0.05451 0.12543
 N173 N 0.02848 0.03241 0.03137
 C174 C 0.01132 -0.05534 -0.05691
 H175 H -0.01927 -0.05517 -0.05993
 C176 C 0.03291 -0.07949 -0.07999
 H177 H 0.01863 -0.09721 -0.10128
 C178 C 0.06685 -0.03188 -0.02577
 H179 H 0.07998 -0.01394 -0.00404
 C180 C 0.08946 -0.05587 -0.04788
 H181 H 0.11981 -0.05592 -0.04276
 Zn182 Zn -0.00213 0.00137 -0.00124
 N183 N 0.02857 -0.03142 -0.03118
 C184 C -0.03008 0.03159 -0.07279
 N185 N -0.03068 0.03426 -0.03340
 C186 C -0.05119 0.06151 -0.01534
 C187 C -0.07304 0.08681 -0.03692
 C188 C -0.05186 0.05604 -0.09550
 C189 C -0.01817 -0.05622 0.05194
 C190 C -0.04037 -0.08018 0.07508
 C191 C -0.09644 -0.04942 0.05022
 C192 C -0.07314 -0.02609 0.02745
 N193 N -0.03473 -0.02960 0.02905
 H194 H -0.01288 0.01049 -0.08679
 H195 H -0.05057 0.06351 0.01600
 H196 H -0.08882 0.10846 -0.02184
 H197 H -0.05182 0.05257 -0.12672
 H198 H 0.01243 -0.05873 0.05220
 H199 H -0.02659 -0.10138 0.09283
 H200 H -0.12690 -0.04565 0.04915
 H201 H -0.08581 -0.00520 0.00861
 C202 C 0.07265 -0.07974 -0.07591
 C203 C 0.07394 0.07905 0.07746
 C204 C -0.08010 -0.07683 0.07459
 C205 C -0.07394 0.08406 -0.07763
 C206 C 0.05847 0.55065 0.51437
 H207 H 0.06276 0.55015 0.48329
 C208 C 0.08134 0.57387 0.53775
 H209 H 0.10332 0.59131 0.52459
 C210 C 0.02424 0.52883 0.56936
 H211 H 0.00175 0.51145 0.58148
 C212 C 0.04596 0.55225 0.59372
 H213 H 0.04042 0.55237 0.62463
 N214 N 0.03107 0.52821 0.53051
 C215 C 0.01659 0.44254 0.43986
 H216 H -0.01368 0.44398 0.43463
 C217 C 0.03894 0.41865 0.41725
 H218 H 0.02558 0.40250 0.39414
 C219 C 0.07051 0.46261 0.47593
 H220 H 0.08265 0.47911 0.49938
 C221 C 0.09380 0.43868 0.45450
 H222 H 0.12364 0.43721 0.46192
 Zn223 Zn 0.00128 0.49750 0.49692
 N224 N 0.03277 0.46474 0.46779
 C225 C -0.02189 0.53015 0.42476
 N226 N -0.02604 0.53081 0.46401
 C227 C -0.04916 0.55637 0.48135
 C228 C -0.07065 0.58137 0.45901
 C229 C -0.04281 0.55468 0.40129
 C230 C -0.01605 0.43942 0.54898
 C231 C -0.03859 0.41561 0.57196
 C232 C -0.09415 0.44766 0.54772
 C233 C -0.07054 0.47052 0.52479
 N234 N -0.03220 0.46645 0.52630
 H235 H -0.00224 0.51083 0.41146
 H236 H -0.05131 0.55691 0.51267
 H237 H -0.08977 0.60064 0.47341
 H238 H -0.03911 0.55371 0.37012
 H239 H 0.01450 0.43645 0.54922
 H240 H -0.02502 0.39400 0.58933
 H241 H -0.12448 0.45229 0.54693
 H242 H -0.08299 0.49162 0.50607
 C243 C 0.07826 0.41668 0.42420
 C244 C 0.07513 0.57481 0.57793
 C245 C -0.07827 0.41978 0.57191
 C246 C -0.06792 0.58048 0.41835
 C247 C 0.55866 0.05177 0.51803
 H248 H 0.56236 0.05162 0.48686
 C249 C 0.58181 0.07492 0.54119
 H250 H 0.60337 0.09268 0.52776
 C251 C 0.52569 0.02910 0.57345
 H252 H 0.50359 0.01139 0.58583
 C253 C 0.54773 0.05240 0.59764
 H254 H 0.54280 0.05213 0.62865
 N255 N 0.53177 0.02893 0.53446
 C256 C 0.51623 -0.05761 0.44485
 H257 H 0.48579 -0.05667 0.44060
 C258 C 0.53819 -0.08162 0.42200
 H259 H 0.52437 -0.09852 0.39971
 C260 C 0.57099 -0.03599 0.47865
 H261 H 0.58365 -0.01882 0.50129
 C262 C 0.59396 -0.05989 0.45680
 H263 H 0.62409 -0.06064 0.46301
 Zn264 Zn 0.50176 -0.00178 0.50105
 N265 N 0.53297 -0.03464 0.47179
 C266 C 0.47820 0.03013 0.42883
 N267 N 0.47437 0.03137 0.46809
 C268 C 0.45131 0.05711 0.48525
 C269 C 0.42946 0.08161 0.46269
 C270 C 0.45695 0.05417 0.40517
 C271 C 0.48407 -0.05992 0.55307
 C272 C 0.46124 -0.08398 0.57550
 C273 C 0.40598 -0.05178 0.55075
 C274 C 0.42986 -0.02869 0.52840
 N275 N 0.46819 -0.03274 0.53039
 H276 H 0.49776 0.01061 0.41568
 H277 H 0.44938 0.05807 0.51657
 H278 H 0.41032 0.10096 0.47695
 H279 H 0.46038 0.05269 0.37398
 H280 H 0.51462 -0.06292 0.55364
 H281 H 0.47459 -0.10576 0.59284
 H282 H 0.37565 -0.04722 0.54953
 H283 H 0.41762 -0.00750 0.50965
 C284 C 0.57773 -0.08273 0.42755
 C285 C 0.57643 0.07536 0.58150
 C286 C 0.42156 -0.07991 0.57483
 C287 C 0.43178 0.08003 0.42203
 C288 C 0.55606 0.55555 0.01556
 H289 H 0.56041 0.55449 -0.01550
 C290 C 0.57940 0.57862 0.03862
 H291 H 0.60177 0.59537 0.02522
 C292 C 0.52130 0.53531 0.07078
 H293 H 0.49836 0.51873 0.08314
 C294 C 0.54353 0.55855 0.09484
 H295 H 0.53797 0.55918 0.12574
 N296 N 0.52830 0.53377 0.03199
 C297 C 0.51303 0.44750 -0.05799
 H298 H 0.48264 0.44888 -0.06242
 C299 C 0.53481 0.42347 -0.08100
 H300 H 0.52091 0.40702 -0.10357
 C301 C 0.56785 0.46800 -0.02357
 H302 H 0.58055 0.48470 -0.00058
 C303 C 0.59063 0.44408 -0.04559
 H304 H 0.62072 0.44284 -0.03921
 Zn305 Zn 0.49856 0.50252 -0.00126
 N306 N 0.52989 0.46991 -0.03064
 C307 C 0.47539 0.53528 -0.07323
 N308 N 0.47060 0.53522 -0.03406
 C309 C 0.44616 0.55950 -0.01669
 C310 C 0.42419 0.58410 -0.03898
 C311 C 0.45398 0.55942 -0.09665
 C312 C 0.48155 0.44741 0.05434
 C313 C 0.45895 0.42329 0.07689
 C314 C 0.40353 0.44728 0.04384
 C315 C 0.42722 0.47118 0.02211
 N316 N 0.46543 0.47113 0.02803
 H317 H 0.49593 0.51684 -0.08645
 H318 H 0.44337 0.55929 0.01458
 H319 H 0.40413 0.60242 -0.02464
 H320 H 0.45820 0.55910 -0.12776
 H321 H 0.51208 0.44759 0.05807
 H322 H 0.47239 0.40544 0.09840
 H323 H 0.37325 0.44741 0.03834
 H324 H 0.41502 0.48937 0.00021
 C325 C 0.57429 0.42176 -0.07520
 C326 C 0.57330 0.58014 0.07880
 C327 C 0.41932 0.42301 0.07185
 C328 C 0.42771 0.58403 -0.07958
 C329 C 0.10624 -0.16338 -0.13620
 C330 C 0.14214 -0.15056 -0.14874
 C331 C 0.15493 -0.11438 -0.13696
 C332 C 0.13235 -0.09150 -0.11359
 C333 C 0.09652 -0.10431 -0.10089
 C334 C 0.08378 -0.14060 -0.11246
 H335 H 0.09526 -0.19089 -0.14505
 H336 H 0.18263 -0.10376 -0.14549
 H337 H 0.14290 -0.06352 -0.10581
 H338 H 0.05656 -0.15162 -0.10288
 C339 C 0.16370 0.38097 0.36837
 C340 C 0.15007 0.34641 0.35299
 C341 C 0.11260 0.33499 0.36153
 C342 C 0.08946 0.35748 0.38486
 C343 C 0.10299 0.39224 0.39988
 C344 C 0.14041 0.40369 0.39120
 H345 H 0.19255 0.39048 0.36304
 H346 H 0.10087 0.30884 0.34982
 H347 H 0.06103 0.34740 0.39132
 H348 H 0.15172 0.43052 0.40164
 C349 C 0.66127 -0.11702 0.36809
 C350 C 0.64821 -0.15259 0.35478
 C351 C 0.61180 -0.16520 0.36592
 C352 C 0.58905 -0.14277 0.38971
 C353 C 0.60202 -0.10704 0.40274
 C354 C 0.63842 -0.09448 0.39155
 H355 H 0.68936 -0.10661 0.36064
 H356 H 0.60061 -0.19222 0.35586
 H357 H 0.56139 -0.15360 0.39813
 H358 H 0.64918 -0.06691 0.40050
 C359 C 0.60746 0.33913 -0.13713
 C360 C 0.64414 0.35122 -0.14793
 C361 C 0.65763 0.38655 -0.13437
 C362 C 0.63498 0.40933 -0.11095
 C363 C 0.59834 0.39725 -0.10005
 C364 C 0.58490 0.36180 -0.11338
 H365 H 0.59595 0.31231 -0.14737
 H366 H 0.68593 0.39655 -0.14155
 H367 H 0.64610 0.43668 -0.10175
 H368 H 0.55703 0.35134 -0.10520
 C369 C -0.10931 0.14594 -0.16044
 C370 C -0.14524 0.15806 -0.14702
 C371 C -0.15644 0.14545 -0.10960
 C372 C -0.13343 0.12168 -0.08741
 C373 C -0.09805 0.10989 -0.10120
 C374 C -0.08619 0.12257 -0.13786
 H375 H -0.09748 0.15575 -0.18759
 H376 H -0.18407 0.15157 -0.09774
 H377 H -0.14402 0.11166 -0.05972
 H378 H -0.05859 0.11496 -0.14901
 C379 C -0.12170 0.66687 0.38297
 C380 C -0.13861 0.65319 0.34863
 C381 C -0.13135 0.61574 0.33694
 C382 C -0.10812 0.59233 0.35933
 C383 C -0.09155 0.60585 0.39392
 C384 C -0.09842 0.64348 0.40535
 H385 H -0.12627 0.69579 0.39241
 H386 H -0.14442 0.60419 0.31095
 H387 H -0.10391 0.56331 0.35004
 H388 H -0.08556 0.65496 0.43148
 C389 C 0.37689 0.16521 0.38531
 C390 C 0.36024 0.15081 0.35115
 C391 C 0.36772 0.11319 0.34023
 C392 C 0.39109 0.09038 0.36308
 C393 C 0.40763 0.10468 0.39736
 C394 C 0.40036 0.14242 0.40814
 H395 H 0.37211 0.19427 0.39416
 H396 H 0.35482 0.10110 0.31439
 H397 H 0.39555 0.06124 0.35432
 H398 H 0.41314 0.15448 0.43403
 C399 C 0.36453 0.61857 -0.16143
 C400 C 0.35638 0.65579 -0.14957
 C401 C 0.37243 0.66948 -0.11481
 C402 C 0.39584 0.64637 -0.09227
 C403 C 0.40372 0.60904 -0.10398
 C404 C 0.38793 0.59548 -0.13891
 H405 H 0.35210 0.60697 -0.18772
 H406 H 0.36716 0.69822 -0.10520
 H407 H 0.40806 0.65783 -0.06582
 H408 H 0.39294 0.56665 -0.14840
 C409 C -0.11524 -0.13453 0.16065
 C410 C -0.15038 -0.14936 0.14718
 C411 C -0.16169 -0.13963 0.10902
 C412 C -0.13899 -0.11625 0.08564
 C413 C -0.10424 -0.10172 0.09943
 C414 C -0.09268 -0.11114 0.13720
 H415 H -0.10394 -0.14183 0.18885
 H416 H -0.18875 -0.14869 0.09716
 H417 H -0.14866 -0.10973 0.05654
 H418 H -0.06613 -0.10021 0.14885
 C419 C -0.11301 0.36100 0.65765
 C420 C -0.14963 0.34980 0.64552
 C421 C -0.16246 0.36163 0.60878
 C422 C -0.13927 0.38394 0.58481
 C423 C -0.10280 0.39545 0.59712
 C424 C -0.09004 0.38372 0.63392
 H425 H -0.10184 0.35199 0.68544
 H426 H -0.19065 0.35406 0.59860
 H427 H -0.14992 0.39189 0.55648
 H428 H -0.06240 0.39245 0.64472
 C429 C 0.38535 -0.13970 0.65916
 C430 C 0.34900 -0.15085 0.64616
 C431 C 0.33689 -0.13877 0.60926
 C432 C 0.36049 -0.11617 0.58601
 C433 C 0.39666 -0.10464 0.59923
 C434 C 0.40873 -0.11670 0.63614
 H435 H 0.39597 -0.14893 0.68709
 H436 H 0.30893 -0.14634 0.59842
 H437 H 0.35040 -0.10798 0.55754
 H438 H 0.43614 -0.10800 0.64759
 C439 C 0.38444 0.33763 0.12956
 C440 C 0.34904 0.35004 0.14293
 C441 C 0.33644 0.38624 0.13208
 C442 C 0.35909 0.40984 0.10886
 C443 C 0.39473 0.39760 0.09573
 C444 C 0.40694 0.36106 0.10610
 H445 H 0.39457 0.30961 0.13700
 H446 H 0.30946 0.39668 0.14236
 H447 H 0.34905 0.43800 0.10193
 H448 H 0.43382 0.35038 0.09584
 C449 C 0.10737 0.14781 0.15533
 C450 C 0.14683 0.14821 0.14945
 C451 C 0.16210 0.12600 0.11958
 C452 C 0.13834 0.10387 0.09594
 C453 C 0.09893 0.10311 0.10209
 C454 C 0.08365 0.12520 0.13206
 H455 H 0.09498 0.16454 0.17832
 H456 H 0.19241 0.12605 0.11431
 H457 H 0.15080 0.08688 0.07319
 H458 H 0.05332 0.12524 0.13720
 C459 C 0.10511 0.64765 0.65315
 C460 C 0.14487 0.64587 0.65095
 C461 C 0.16154 0.62055 0.62473
 C462 C 0.13882 0.59767 0.60077
 C463 C 0.09907 0.59919 0.60319
 C464 C 0.08238 0.62419 0.62973
 H465 H 0.09169 0.66688 0.67330
 H466 H 0.19215 0.61889 0.62242
 H467 H 0.15226 0.57844 0.58063
 H468 H 0.05177 0.62593 0.63191
 C469 C 0.60736 0.14745 0.65711
 C470 C 0.64707 0.14650 0.65363
 C471 C 0.66339 0.12186 0.62650
 C472 C 0.64039 0.09891 0.60290
 C473 C 0.60069 0.09968 0.60654
 C474 C 0.58436 0.12395 0.63402
 H475 H 0.59419 0.16612 0.67798
 H476 H 0.69395 0.12083 0.62318
 H477 H 0.65357 0.08025 0.58203
 H478 H 0.55380 0.12512 0.63716
 C479 C 0.60599 0.65145 0.15450
 C480 C 0.64566 0.64888 0.15162
 C481 C 0.66135 0.62364 0.12467
 C482 C 0.63779 0.60159 0.10076
 C483 C 0.59812 0.60389 0.10386
 C484 C 0.58240 0.62886 0.13106
 H485 H 0.59329 0.67060 0.17521
 H486 H 0.69187 0.62137 0.12179
 H487 H 0.65052 0.58235 0.08014
 H488 H 0.55188 0.63121 0.13381
   
