data_POSCAR
  _audit_creation_date              2014-09-24
  _audit_creation_method            'ToBaCCo'
  _symmetry_space_group_name_H-M    'P1'
  _symmetry_Int_Tables_number       1
  _symmetry_cell_setting            triclinic
  loop_
  _symmetry_equiv_pos_as_xyz
 x,y,z
_cell_length_a 39.0701
_cell_length_b 38.9513
_cell_length_c 75.6491
_cell_angle_alpha 85.890000
_cell_angle_beta 95.732600
_cell_angle_gamma 120.143200
loop_
  _atom_site_label
  _atom_site_type_symbol
  _atom_site_fract_x
  _atom_site_fract_y
  _atom_site_fract_z
C1 C 0.04489 0.10419 0.52321
 H2 H 0.07310 0.10615 0.52177
 C3 C 0.04315 0.13119 0.53371
 H4 H 0.07026 0.15370 0.54043
 C5 C -0.02441 0.07291 0.51571
 H6 H -0.05051 0.05062 0.50840
 C7 C -0.02756 0.09921 0.52619
 H8 H -0.05630 0.09664 0.52689
 N9 N 0.01146 0.07586 0.51445
 C10 C 0.03299 -0.01958 0.50363
 H11 H 0.02795 -0.02023 0.48930
 C12 C 0.03865 -0.04892 0.51282
 H13 H 0.03830 -0.07185 0.50539
 C14 C 0.03769 0.01027 0.53065
 H15 H 0.03619 0.03273 0.53758
 C16 C 0.04371 -0.01837 0.54038
 H17 H 0.04712 -0.01732 0.55475
 Zn18 Zn 0.01790 0.04339 0.49925
 N19 N 0.03222 0.00899 0.51262
 C20 C 0.09085 0.07486 0.48295
 N21 N 0.05788 0.07773 0.48415
 C22 C 0.05350 0.10720 0.47544
 C23 C 0.08306 0.13547 0.46504
 C24 C 0.12110 0.10241 0.47258
 C25 C -0.05986 -0.01916 0.49468
 C26 C -0.09427 -0.04748 0.48543
 C27 C -0.06733 -0.01301 0.45797
 C28 C -0.03329 0.01443 0.46779
 N29 N -0.03007 0.01070 0.48579
 H30 H 0.09409 0.05165 0.49023
 H31 H 0.02719 0.10905 0.47684
 H32 H 0.07902 0.15885 0.45836
 H33 H 0.14728 0.09986 0.47193
 H34 H -0.05627 -0.02168 0.50900
 H35 H -0.11695 -0.07130 0.49300
 H36 H -0.06853 -0.00947 0.44362
 H37 H -0.00902 0.03800 0.46094
 C38 C 0.04352 -0.04892 0.53148
 C39 C 0.00660 0.12910 0.53523
 C40 C -0.09830 -0.04531 0.46669
 C41 C 0.11757 0.13347 0.46359
 C42 C 1.08927 0.02273 0.14454
 H43 H 1.09067 0.05066 0.14652
 C44 C 1.11572 0.02156 0.13384
 H45 H 1.13720 0.04881 0.12752
 C46 C 1.06008 -0.04637 0.15089
 H47 H 1.03886 -0.07258 0.15785
 C48 C 1.08586 -0.04895 0.14019
 H49 H 1.08397 -0.07738 0.13895
 N50 N 1.06226 -0.01086 0.15283
 C51 C 0.96642 0.00803 0.16475
 H52 H 0.96698 0.00306 0.17900
 C53 C 0.93602 0.01290 0.15585
 H54 H 0.91348 0.01200 0.16342
 C55 C 0.99439 0.01355 0.13758
 H56 H 1.01657 0.01272 0.13045
 C57 C 0.96472 0.01891 0.12815
 H58 H 0.96467 0.02245 0.11383
 Zn59 Zn 1.03087 -0.00478 0.16842
 N60 N 0.99458 0.00807 0.15554
 C61 C 1.06286 0.06899 0.18567
 N62 N 1.06617 0.03628 0.18396
 C63 C 1.09680 0.03297 0.19241
 C64 C 1.12589 0.06344 0.20303
 C65 C 1.09123 0.10015 0.19625
 C66 C 0.97014 -0.08326 0.17227
 C67 C 0.94311 -0.11730 0.18130
 C68 C 0.97947 -0.08777 0.20899
 C69 C 1.00567 -0.05417 0.19942
 N70 N 1.00035 -0.05239 0.18140
 H71 H 1.03867 0.07132 0.17858
 H72 H 1.09894 0.00682 0.19061
 H73 H 1.15020 0.06027 0.20947
 H74 H 1.08833 0.12614 0.19728
 H75 H 0.96625 -0.08079 0.15796
 H76 H 0.91869 -0.14108 0.17377
 H77 H 0.98365 -0.08813 0.22335
 H78 H 1.02937 -0.02903 0.20648
 C79 C 0.93462 0.01795 0.13727
 C80 C 1.11444 -0.01457 0.13164
 C81 C 0.94716 -0.11958 0.19995
 C82 C 1.12353 0.09778 0.20496
 C83 C -0.00230 0.96762 0.86397
 H84 H -0.02865 0.95997 0.87052
 C85 C 0.03107 0.97082 0.87404
 H86 H 0.03027 0.96621 0.88831
 C87 C 0.03012 0.98076 0.83740
 H88 H 0.02897 0.98331 0.82304
 C89 C 0.06448 0.98510 0.84699
 H90 H 0.08985 0.99130 0.83994
 N91 N -0.00226 0.97244 0.84599
 C92 C -0.12258 0.91941 0.84977
 H93 H -0.12821 0.89360 0.84279
 C94 C -0.15085 0.91683 0.86061
 H95 H -0.17798 0.88869 0.86190
 C96 C -0.08080 0.98752 0.85614
 H97 H -0.05344 1.01503 0.85420
 C98 C -0.10824 0.98647 0.86689
 H99 H -0.10128 1.01356 0.87318
 Zn100 Zn -0.04973 0.96212 0.83244
 N101 N -0.08842 0.95446 0.84776
 C102 C -0.07031 0.91744 0.80116
 N103 N -0.06589 0.91638 0.81922
 C104 C -0.06884 0.88373 0.82832
 C105 C -0.07555 0.85071 0.81922
 C106 C -0.07739 0.88494 0.79152
 C107 C -0.00669 1.03960 0.81633
 C108 C -0.00350 1.07199 0.80585
 C109 C -0.07381 1.03408 0.79752
 C110 C -0.07559 1.00242 0.80805
 N111 N -0.04236 1.00563 0.81717
 H112 H -0.06700 0.94395 0.79414
 H113 H -0.06458 0.88393 0.84267
 H114 H -0.07682 0.82542 0.82673
 H115 H -0.07982 0.88682 0.77715
 H116 H 0.01917 1.04207 0.82407
 H117 H 0.02506 1.09892 0.80550
 H118 H -0.10077 1.03086 0.79051
 H119 H -0.10371 0.97532 0.80922
 C120 C -0.14415 0.95086 0.86921
 C121 C 0.06493 0.97949 0.86553
 C122 C -0.03746 1.06959 0.79639
 C123 C -0.07927 0.85129 0.80055
 C124 C 0.49267 -0.02268 0.00919
 C125 C 0.48730 -0.02741 -0.00870
 C126 C 0.45369 -0.02643 -0.01914
 C127 C 0.51525 -0.03219 -0.01875
 C128 C 0.52938 -0.01699 0.01965
 C129 C 0.46181 -0.02250 0.01906
 C130 C 0.42206 -0.06124 -0.02648
 C131 C 0.38991 -0.06043 -0.03600
 C132 C 0.38951 -0.02454 -0.03872
 C133 C 0.42168 0.01043 -0.03161
 C134 C 0.45335 0.00940 -0.02174
 C135 C 0.52284 -0.06359 -0.01469
 C136 C 0.54994 -0.06726 -0.02403
 C137 C 0.57018 -0.03932 -0.03745
 C138 C 0.56209 -0.00821 -0.04159
 C139 C 0.53458 -0.00494 -0.03245
 C140 C 0.56708 0.01177 0.01446
 C141 C 0.60136 0.01689 0.02442
 C142 C 0.59864 -0.00601 0.04000
 C143 C 0.56086 -0.03410 0.04541
 C144 C 0.52661 -0.03953 0.03532
 C145 C 0.47048 0.01124 0.02826
 C146 C 0.44131 0.01170 0.03737
 C147 C 0.40307 -0.02184 0.03764
 C148 C 0.39476 -0.05584 0.02862
 C149 C 0.42386 -0.05613 0.01940
 H150 H 0.42204 -0.08908 -0.02458
 H151 H 0.36558 -0.08776 -0.04142
 H152 H 0.42203 0.03843 -0.03344
 H153 H 0.47771 0.03652 -0.01616
 H154 H 0.50787 -0.08510 -0.00425
 H155 H 0.55560 -0.09150 -0.02054
 H156 H 0.52903 0.01942 -0.03579
 H157 H 0.57000 0.03047 0.00275
 H158 H 0.62998 0.03913 0.02001
 H159 H 0.55771 -0.05221 0.05735
 H160 H 0.49786 -0.06161 0.03968
 H161 H 0.49972 0.03737 0.02819
 H162 H 0.44879 0.03828 0.04426
 H163 H 0.36568 -0.08218 0.02856
 H164 H 0.41686 -0.08264 0.01257
 H165 H 0.57697 0.01361 -0.05194
 C166 C -0.02065 0.50222 0.67489
 C167 C -0.01264 0.50874 0.65744
 C168 C -0.01156 0.47802 0.64732
 C169 C -0.00488 0.54614 0.64758
 C170 C -0.02885 0.52873 0.68476
 C171 C -0.02141 0.46772 0.68498
 C172 C 0.02277 0.48695 0.63918
 C173 C 0.02409 0.45788 0.62993
 C174 C -0.00915 0.41947 0.62845
 C175 C -0.04376 0.41091 0.63635
 C176 C -0.04494 0.43992 0.64569
 C177 C 0.02214 0.58349 0.65467
 C178 C 0.02934 0.61831 0.64514
 C179 C 0.01030 0.61647 0.62815
 C180 C -0.01614 0.57905 0.62096
 C181 C -0.02366 0.54432 0.63058
 C182 C -0.05615 0.54046 0.67765
 C183 C -0.06383 0.56500 0.68721
 C184 C -0.04503 0.57756 0.70423
 C185 C -0.01829 0.56516 0.71143
 C186 C -0.01027 0.54108 0.70179
 C187 C -0.05570 0.43949 0.69305
 C188 C -0.05676 0.40658 0.70225
 C189 C -0.02329 0.40163 0.70375
 C190 C 0.01130 0.43046 0.69592
 C191 C 0.01221 0.46318 0.68663
 H192 H 0.04872 0.51629 0.64022
 H193 H 0.05113 0.46555 0.62391
 H194 H -0.06991 0.38171 0.63545
 H195 H -0.07191 0.43268 0.65167
 H196 H 0.03783 0.58570 0.66755
 H197 H 0.05017 0.64666 0.65098
 H198 H -0.04443 0.51590 0.62477
 H199 H -0.07171 0.53044 0.66475
 H200 H -0.08488 0.57369 0.68135
 H201 H -0.00324 0.57434 0.72448
 H202 H 0.01070 0.53224 0.70761
 H203 H -0.08183 0.44267 0.69199
 H204 H -0.08378 0.38508 0.70821
 H205 H 0.03760 0.42763 0.69684
 H206 H 0.03913 0.48500 0.68068
 H207 H -0.03136 0.57654 0.60794
 C208 C 0.52691 0.52639 0.34277
 C209 C 0.52979 0.52122 0.32546
 C210 C 0.56526 0.54854 0.31564
 C211 C 0.49686 0.48741 0.31546
 C212 C 0.49439 0.49475 0.35292
 C213 C 0.55566 0.56312 0.35246
 C214 C 0.56027 0.56219 0.29843
 C215 C 0.59311 0.58702 0.28883
 C216 C 0.63176 0.59887 0.29624
 C217 C 0.63677 0.58501 0.31345
 C218 C 0.60382 0.55975 0.32297
 C219 C 0.45867 0.48273 0.31356
 C220 C 0.42760 0.45060 0.30440
 C221 C 0.43415 0.42253 0.29693
 C222 C 0.47264 0.42767 0.29866
 C223 C 0.50376 0.45997 0.30774
 C224 C 0.48983 0.45662 0.35494
 C225 C 0.45887 0.42669 0.36422
 C226 C 0.43187 0.43434 0.37167
 C227 C 0.43691 0.47280 0.36982
 C228 C 0.46807 0.50279 0.36063
 C229 C 0.57102 0.56010 0.36972
 C230 C 0.59731 0.59417 0.37918
 C231 C 0.60898 0.63209 0.37157
 C232 C 0.59341 0.63515 0.35433
 C233 C 0.56665 0.60099 0.34495
 H234 H 0.53084 0.55377 0.29244
 H235 H 0.58816 0.59719 0.27563
 H236 H 0.66612 0.59326 0.31947
 H237 H 0.60841 0.54876 0.33603
 H238 H 0.45295 0.50397 0.31922
 H239 H 0.39840 0.44763 0.30329
 H240 H 0.53312 0.46328 0.30900
 H241 H 0.51024 0.45005 0.34929
 H242 H 0.45595 0.39749 0.36541
 H243 H 0.41682 0.47978 0.37548
 H244 H 0.47132 0.53214 0.35927
 H245 H 0.56284 0.53127 0.37585
 H246 H 0.60879 0.59075 0.39241
 H247 H 0.60149 0.66393 0.34817
 H248 H 0.55435 0.60414 0.33187
 H249 H 0.47879 0.40676 0.29299
 C250 C 0.00105 0.21386 0.56428
 N251 N 0.03655 0.21797 0.56120
 N252 N 0.03823 0.19086 0.55213
 C253 C 0.00450 0.15860 0.54573
 N254 N -0.03103 0.15452 0.54886
 N255 N -0.03274 0.18158 0.55799
 C256 C -0.00064 0.24418 0.57404
 N257 N -0.03595 0.23913 0.57815
 N258 N -0.03736 0.26689 0.58686
 C259 C -0.00352 0.30076 0.59173
 N260 N 0.03177 0.30580 0.58761
 N261 N 0.03319 0.27799 0.57895
 C262 C -0.00502 0.33151 0.60123
 N263 N 0.02848 0.36660 0.60485
 N264 N 0.02714 0.39455 0.61344
 C265 C -0.00771 0.38848 0.61878
 N266 N -0.04118 0.35328 0.61515
 N267 N -0.03989 0.32537 0.60651
 C268 C 0.85797 0.78719 0.22838
 N269 N 0.85296 0.79074 0.21046
 N270 N 0.88168 0.81974 0.20141
 C271 C 0.91652 0.84643 0.20990
 N272 N 0.92160 0.84257 0.22783
 N273 N 0.89292 0.81348 0.23689
 C274 C 0.82530 0.75673 0.23842
 N275 N 0.83044 0.75198 0.25627
 N276 N 0.80018 0.72559 0.26544
 C277 C 0.76365 0.70314 0.25711
 N278 N 0.75860 0.70777 0.23926
 N279 N 0.78887 0.73402 0.23008
 C280 C 0.72977 0.67530 0.26724
 N281 N 0.69257 0.65682 0.25914
 N282 N 0.66156 0.63247 0.26835
 C283 C 0.66649 0.62550 0.28602
 N284 N 0.70382 0.64384 0.29408
 N285 N 0.73486 0.66837 0.28489
 C286 C 0.16299 -0.01874 -0.10548
 N287 N 0.12617 -0.04030 -0.09951
 N288 N 0.09516 -0.04036 -0.10862
 C289 C 0.09970 -0.01917 -0.12413
 N290 N 0.13658 0.00233 -0.13012
 N291 N 0.16769 0.00272 -0.12091
 C292 C 0.19696 -0.01924 -0.09552
 N293 N 0.23471 0.00879 -0.09876
 N294 N 0.26545 0.00816 -0.08969
 C295 C 0.25954 -0.02077 -0.07721
 N296 N 0.22180 -0.04889 -0.07405
 N297 N 0.19107 -0.04802 -0.08297
 C298 C 0.29332 -0.02175 -0.06731
 N299 N 0.28820 -0.05521 -0.05829
 N300 N 0.31883 -0.05618 -0.04931
 C301 C 0.35566 -0.02359 -0.04886
 N302 N 0.36069 0.00993 -0.05782
 N303 N 0.33014 0.01078 -0.06696
 C304 C 0.04597 0.85588 0.56016
 N305 N 0.03826 0.85458 0.54226
 N306 N 0.03836 0.88516 0.53314
 C307 C 0.04603 0.91823 0.54155
 N308 N 0.05404 0.91959 0.55947
 N309 N 0.05409 0.88904 0.56860
 C310 C 0.04370 0.82124 0.57025
 N311 N 0.05313 0.82279 0.58806
 N312 N 0.04946 0.79076 0.59726
 C313 C 0.03605 0.75598 0.58899
 N314 N 0.02678 0.75451 0.57118
 N315 N 0.03060 0.78655 0.56198
 C316 C 0.03040 0.72014 0.59913
 N317 N 0.01228 0.68453 0.59113
 N318 N 0.00607 0.65173 0.60034
 C319 C 0.01785 0.65320 0.61792
 N320 N 0.03622 0.68895 0.62590
 N321 N 0.04228 0.72178 0.61669
 C322 C 0.21439 0.19345 0.23396
 N323 N 0.18060 0.19361 0.22783
 N324 N 0.15160 0.16313 0.21874
 C325 C 0.15520 0.13125 0.21549
 N326 N 0.18897 0.13113 0.22174
 N327 N 0.21801 0.16163 0.23077
 C328 C 0.24681 0.22737 0.24361
 N329 N 0.28173 0.22842 0.24844
 N330 N 0.31143 0.25941 0.25696
 C331 C 0.30728 0.29046 0.26100
 N332 N 0.27232 0.28938 0.25622
 N333 N 0.24264 0.25842 0.24765
 C334 C 0.34014 0.32469 0.27031
 N335 N 0.33527 0.35460 0.27537
 N336 N 0.36510 0.38563 0.28381
 C337 C 0.40102 0.38807 0.28747
 N338 N 0.40580 0.35809 0.28235
 N339 N 0.37595 0.32700 0.27396
 C340 C 0.77163 -0.05052 -0.10139
 N341 N 0.76572 -0.08465 -0.10811
 N342 N 0.79297 -0.08438 -0.11753
 C343 C 0.82728 -0.05004 -0.12050
 N344 N 0.83308 -0.01611 -0.11357
 N345 N 0.80582 -0.01631 -0.10428
 C346 C 0.74140 -0.04995 -0.09154
 N347 N 0.74472 -0.01475 -0.08790
 N348 N 0.71727 -0.01369 -0.07923
 C349 C 0.68560 -0.04778 -0.07374
 N350 N 0.68231 -0.08307 -0.07728
 N351 N 0.70967 -0.08415 -0.08609
 C352 C 0.65542 -0.04608 -0.06432
 N353 N 0.62732 -0.07878 -0.05599
 N354 N 0.60025 -0.07671 -0.04739
 C355 C 0.60008 -0.04197 -0.04693
 N356 N 0.62816 -0.00939 -0.05534
 N357 N 0.65536 -0.01137 -0.06380
 C358 C 0.19825 -0.01791 0.10217
 N359 N 0.16685 -0.05210 0.10781
 N360 N 0.14007 -0.05113 0.11707
 C361 C 0.14356 -0.01593 0.12098
 N362 N 0.17492 0.01820 0.11522
 N363 N 0.20176 0.01725 0.10603
 C364 C 0.22834 -0.01873 0.09230
 N365 N 0.26148 0.01558 0.08817
 N366 N 0.28912 0.01499 0.07943
 C367 C 0.28458 -0.01993 0.07443
 N368 N 0.25137 -0.05426 0.07850
 N369 N 0.22378 -0.05367 0.08731
 C370 C 0.31521 -0.02048 0.06487
 N371 N 0.30947 -0.05493 0.05861
 N372 N 0.33732 -0.05534 0.04996
 C373 C 0.37207 -0.02137 0.04727
 N374 N 0.37774 0.01304 0.05357
 N375 N 0.34984 0.01350 0.06218
 C376 C 0.80810 0.86585 0.43869
 N377 N 0.83595 0.89828 0.43014
 N378 N 0.86620 0.92763 0.43930
 C379 C 0.86988 0.92588 0.45739
 N380 N 0.84142 0.89352 0.46584
 N381 N 0.81128 0.86411 0.45670
 C382 C 0.77618 0.83227 0.42865
 N383 N 0.75213 0.79766 0.43720
 N384 N 0.72444 0.76644 0.42809
 C385 C 0.71964 0.76869 0.41011
 N386 N 0.74344 0.80342 0.40155
 N387 N 0.77129 0.83461 0.41066
 C388 C 0.69013 0.73366 0.40011
 N389 N 0.68249 0.73634 0.38231
 N390 N 0.65643 0.70419 0.37325
 C391 C 0.63724 0.66810 0.38162
 N392 N 0.64493 0.66557 0.39943
 N393 N 0.67079 0.69771 0.40850
 C394 C -0.03213 0.16805 0.76745
 N395 N 0.00168 0.16844 0.77403
 N396 N 0.00006 0.13712 0.78312
 C397 C -0.03541 0.10414 0.78592
 N398 N -0.06916 0.10380 0.77922
 N399 N -0.06757 0.13513 0.77019
 C400 C -0.03059 0.20277 0.75775
 N401 N -0.06454 0.20347 0.75262
 N402 N -0.06328 0.23510 0.74403
 C403 C -0.02802 0.26717 0.74019
 N404 N 0.00596 0.26645 0.74527
 N405 N 0.00470 0.23485 0.75393
 C406 C -0.02672 0.30206 0.73077
 N407 N 0.00814 0.33292 0.72570
 N408 N 0.00922 0.36451 0.71713
 C409 C -0.02447 0.36656 0.71335
 N410 N -0.05930 0.33563 0.71849
 N411 N -0.06042 0.30398 0.72701
 C412 C 0.83755 0.02013 0.10907
 N413 N 0.83661 0.01017 0.12664
 N414 N 0.86773 0.01023 0.13565
 C415 C 0.90097 0.02010 0.12743
 N416 N 0.90191 0.03028 0.10985
 N417 N 0.87085 0.03039 0.10085
 C418 C 0.80258 0.01839 0.09901
 N419 N 0.80423 0.03103 0.08175
 N420 N 0.77210 0.02827 0.07250
 C421 C 0.73712 0.01256 0.08014
 N422 N 0.73551 0.00000 0.09741
 N423 N 0.76767 0.00293 0.10668
 C424 C 0.70139 0.00839 0.06983
 N425 N 0.66550 -0.01184 0.07678
 N426 N 0.63293 -0.01635 0.06732
 C427 C 0.63496 -0.00066 0.05057
 N428 N 0.67097 0.01975 0.04367
 N429 N 0.70354 0.02410 0.05310
 C430 C 0.21029 0.22164 0.43490
 N431 N 0.21128 0.18864 0.44124
 N432 N 0.18175 0.16051 0.45025
 C433 C 0.15002 0.16421 0.45321
 N434 N 0.14907 0.19721 0.44675
 N435 N 0.17862 0.22539 0.43780
 C436 C 0.24314 0.25309 0.42528
 N437 N 0.24352 0.28743 0.42024
 N438 N 0.27352 0.31622 0.41171
 C439 C 0.30420 0.31167 0.40787
 N440 N 0.30378 0.27728 0.41287
 N441 N 0.27383 0.24854 0.42145
 C442 C 0.33732 0.34348 0.39852
 N443 N 0.36664 0.33797 0.39359
 N444 N 0.39663 0.36682 0.38508
 C445 C 0.39859 0.40235 0.38122
 N446 N 0.36922 0.40779 0.38622
 N447 N 0.33915 0.37891 0.39468
 C448 C -0.08290 0.76071 0.77211
 N449 N -0.07583 0.76192 0.79005
 N450 N -0.07567 0.79010 0.79910
 C451 C -0.08244 0.81828 0.79058
 N452 N -0.08986 0.81678 0.77263
 N453 N -0.09017 0.78850 0.76357
 C454 C -0.08064 0.73108 0.76208
 N455 N -0.08952 0.72840 0.74423
 N456 N -0.08565 0.70271 0.73506
 C457 C -0.07257 0.67894 0.74340
 N458 N -0.06387 0.68151 0.76125
 N459 N -0.06790 0.70705 0.77042
 C460 C -0.06655 0.65185 0.73327
 N461 N -0.04844 0.63229 0.74132
 N462 N -0.04179 0.60862 0.73210
 C463 C -0.05310 0.60343 0.71447
 N464 N -0.07148 0.62284 0.70645
 N465 N -0.07797 0.64669 0.71566
   
