data_POSCAR
  _audit_creation_date              2014-09-24
  _audit_creation_method            'ToBaCCo'
  _symmetry_space_group_name_H-M    'P1'
  _symmetry_Int_Tables_number       1
  _symmetry_cell_setting            triclinic
  loop_
  _symmetry_equiv_pos_as_xyz
 x,y,z
_cell_length_a 41.8332
_cell_length_b 41.7460
_cell_length_c 41.7109
_cell_angle_alpha 90.014300
_cell_angle_beta 89.948200
_cell_angle_gamma 89.981300
loop_
  _atom_site_label
  _atom_site_type_symbol
  _atom_site_fract_x
  _atom_site_fract_y
  _atom_site_fract_z
C1 C 0.17810 1.21545 0.21730
 C2 C 0.16584 1.24386 0.20419
 C3 C 0.17912 1.25721 0.17609
 C4 C 0.20584 1.24207 0.16202
 C5 C 0.21851 1.21383 0.17507
 C6 C 0.20439 1.20028 0.20261
 C7 C 0.16387 1.20158 0.24444
 C8 C 0.17516 1.17228 0.25694
 C9 C 0.20169 1.15752 0.24211
 C10 C 0.21631 1.17130 0.21517
 C11 C 0.24234 1.15618 0.20026
 C12 C 0.25671 1.16961 0.17288
 C13 C 0.24467 1.19857 0.16054
 H14 H 0.14536 1.25504 0.21555
 H15 H 0.21668 1.25192 0.14056
 H16 H 0.14351 1.21342 0.25533
 H17 H 0.21095 1.13506 0.25127
 H18 H 0.25131 1.13385 0.20999
 H19 H 0.25530 1.20901 0.13927
 C20 C 0.82448 0.78275 0.21773
 C21 C 0.83903 0.75558 0.20430
 C22 C 0.82640 0.74092 0.17658
 C23 C 0.79836 0.75377 0.16287
 C24 C 0.78375 0.78109 0.17590
 C25 C 0.79685 0.79567 0.20340
 C26 C 0.83761 0.79757 0.24489
 C27 C 0.82390 0.82566 0.25777
 C28 C 0.79614 0.83822 0.24325
 C29 C 0.78259 0.82343 0.21629
 C30 C 0.75535 0.83645 0.20160
 C31 C 0.74235 0.82232 0.17389
 C32 C 0.75663 0.79448 0.16136
 H33 H 0.86048 0.74615 0.21541
 H34 H 0.78813 0.74302 0.14156
 H35 H 0.85899 0.78745 0.25550
 H36 H 0.78505 0.85973 0.25268
 H37 H 0.74472 0.85801 0.21139
 H38 H 0.74683 0.78333 0.14005
 C39 C 0.82587 1.21926 -0.21389
 C40 C 0.84054 1.24541 -0.19870
 C41 C 0.82822 1.25778 -0.16984
 C42 C 0.80066 1.24382 -0.15646
 C43 C 0.78561 1.21782 -0.17149
 C44 C 0.79820 1.20552 -0.20035
 C45 C 0.83890 1.20624 -0.24202
 C46 C 0.82469 1.17951 -0.25705
 C47 C 0.79651 1.16655 -0.24369
 C48 C 0.78340 1.17918 -0.21540
 C49 C 0.75616 1.16530 -0.20150
 C50 C 0.74371 1.17710 -0.17244
 C51 C 0.75852 1.20356 -0.15775
 H52 H 0.86193 1.25573 -0.20912
 H53 H 0.79092 1.25306 -0.13422
 H54 H 0.86044 1.21682 -0.25187
 H55 H 0.78506 1.14606 -0.25476
 H56 H 0.74511 1.14482 -0.21298
 H57 H 0.74916 1.21296 -0.13541
 C58 C 0.17127 0.78504 -0.21745
 C59 C 0.15757 0.75814 -0.20271
 C60 C 0.17232 0.74344 -0.17608
 C61 C 0.20150 0.75606 -0.16477
 C62 C 0.21530 0.78313 -0.17912
 C63 C 0.20016 0.79767 -0.20557
 C64 C 0.15615 0.79984 -0.24356
 C65 C 0.16950 0.82720 -0.25803
 C66 C 0.19840 0.83957 -0.24606
 C67 C 0.21367 0.82515 -0.21984
 C68 C 0.24185 0.83823 -0.20721
 C69 C 0.25683 0.82425 -0.18046
 C70 C 0.24361 0.79638 -0.16688
 H71 H 0.13519 0.74891 -0.21197
 H72 H 0.21332 0.74530 -0.14431
 H73 H 0.13387 0.79009 -0.25249
 H74 H 0.20881 0.86081 -0.25677
 H75 H 0.25185 0.85961 -0.21801
 H76 H 0.25485 0.78540 -0.14622
 C77 C 0.54716 1.04255 -0.01192
 H78 H 0.54572 1.04355 0.01396
 C79 C 0.56913 1.06176 -0.02817
 H80 H 0.58445 1.07757 -0.01451
 C81 C 0.52943 1.01987 -0.06085
 H82 H 0.51441 1.00300 -0.07343
 C83 C 0.55127 1.03847 -0.07807
 H84 H 0.55243 1.03599 -0.10388
 N85 N 0.52769 1.02234 -0.02837
 C86 C 0.45241 1.00458 0.04175
 H87 H 0.45351 0.97871 0.04291
 C88 C 0.43010 1.02117 0.06030
 H89 H 0.41419 1.00779 0.07579
 C90 C 0.47133 1.05313 0.01928
 H91 H 0.48695 1.06544 0.00274
 C92 C 0.44918 1.07069 0.03721
 H93 H 0.44839 1.09647 0.03457
 Zn94 Zn 0.50035 0.99582 -0.00386
 N95 N 0.47262 1.02068 0.02196
 C96 C 0.52765 0.97258 0.05421
 N97 N 0.52705 0.96969 0.02173
 C98 C 0.54733 0.94954 0.00617
 C99 C 0.56903 0.93086 0.02335
 C100 C 0.54921 0.95455 0.07235
 C101 C 0.45442 0.98654 -0.05125
 C102 C 0.43292 0.96976 -0.07050
 C103 C 0.45150 0.92042 -0.04664
 C104 C 0.47288 0.93817 -0.02802
 N105 N 0.47399 0.97062 -0.03071
 H106 H 0.51199 0.98940 0.06608
 H107 H 0.54680 0.94823 -0.01973
 H108 H 0.58506 0.91512 0.01040
 H109 H 0.54951 0.95740 0.09815
 H110 H 0.45534 1.01242 -0.05240
 H111 H 0.41744 0.98301 -0.08651
 H112 H 0.45075 0.89464 -0.04392
 H113 H 0.48797 0.92602 -0.01090
 C114 C 0.42813 1.05468 0.05803
 C115 C 0.57154 1.05974 -0.06170
 C116 C 0.43106 0.93625 -0.06816
 C117 C 0.57035 0.93340 0.05691
 C118 C -0.00558 0.54713 1.05142
 H119 H 0.02019 0.54636 1.05345
 C120 C -0.02313 0.56867 1.07002
 H121 H -0.01059 0.58436 1.08642
 C122 C -0.05292 0.52821 1.02667
 H123 H -0.06436 0.51290 1.00923
 C124 C -0.07138 0.54968 1.04453
 H125 H -0.09700 0.55027 1.04095
 N126 N -0.02064 0.52726 1.03049
 C127 C 0.05325 0.45528 1.01453
 H128 H 0.05516 0.45662 0.98870
 C129 C 0.07233 0.43380 1.03156
 H130 H 0.08897 0.41876 1.01856
 C131 C 0.02826 0.47259 1.06251
 H132 H 0.01052 0.48719 1.07438
 C133 C 0.04663 0.45116 1.08047
 H134 H 0.04311 0.44991 1.10616
 Zn135 Zn 0.00536 0.50063 1.00463
 N136 N 0.03194 0.47431 1.03015
 C137 C 0.06221 0.53053 0.98161
 N138 N 0.02994 0.52816 0.97835
 C139 C 0.01370 0.54715 0.95750
 C140 C 0.02998 0.56918 0.93836
 C141 C 0.07944 0.55251 0.96315
 C142 C -0.04006 0.45274 0.99553
 C143 C -0.05851 0.43045 0.97885
 C144 C -0.03469 0.44903 0.92945
 C145 C -0.01687 0.47118 0.94709
 N146 N -0.01998 0.47273 0.97952
 H147 H 0.07459 0.51593 0.99900
 H148 H -0.01205 0.54526 0.95591
 H149 H 0.01649 0.58410 0.92201
 H150 H 0.10508 0.55418 0.96624
 H151 H -0.04157 0.45405 1.02139
 H152 H -0.07427 0.41475 0.99216
 H153 H -0.03174 0.44805 0.90368
 H154 H -0.00010 0.48661 0.93487
 C155 C 0.06896 0.43133 1.06498
 C156 C -0.05647 0.57032 1.06652
 C157 C -0.05586 0.42826 0.94535
 C158 C 0.06329 0.57222 0.94118
 C159 C 1.05211 -0.01843 0.52832
 H160 H 1.06423 -0.00159 0.51288
 C161 C 1.06976 -0.03634 0.55040
 H162 H 1.09545 -0.03338 0.55130
 C163 C 1.00387 -0.04170 0.54690
 H164 H 0.97808 -0.04320 0.54567
 C165 C 1.02057 -0.06023 0.56912
 H166 H 1.00735 -0.07604 0.58486
 N167 N 1.01977 -0.02154 0.52688
 C168 C 1.01766 0.06108 0.46944
 H169 H 1.00036 0.07345 0.48416
 C170 C 1.03609 0.07842 0.44753
 H171 H 1.03307 0.10414 0.44603
 C172 C 1.04160 0.01250 0.45247
 H173 H 1.04314 -0.01332 0.45421
 C174 C 1.06071 0.02889 0.43050
 H175 H 1.07699 0.01542 0.41547
 Zn176 Zn 0.99468 0.00402 0.49914
 N177 N 1.02085 0.02872 0.47161
 C178 C 0.98505 0.05179 0.54477
 N179 N 0.96935 0.03062 0.52568
 C180 C 0.93706 0.02714 0.52744
 C181 C 0.91927 0.04559 0.54899
 C182 C 0.96819 0.07095 0.56636
 C183 C 0.94796 -0.00667 0.45266
 C184 C 0.92948 -0.02413 0.43098
 C185 C 0.95494 -0.07258 0.44972
 C186 C 0.97268 -0.05421 0.47133
 N187 N 0.96884 -0.02187 0.47245
 H188 H 1.01081 0.05354 0.54338
 H189 H 0.92511 0.00951 0.51277
 H190 H 0.89363 0.04226 0.55027
 H191 H 0.98126 0.08749 0.58145
 H192 H 0.94591 0.01915 0.45356
 H193 H 0.91315 -0.01148 0.41534
 H194 H 0.95856 -0.09825 0.44897
 H195 H 0.99007 -0.06576 0.48657
 C196 C 1.05798 0.06230 0.42768
 C197 C 1.05397 -0.05757 0.57122
 C198 C 0.93304 -0.05753 0.42912
 C199 C 0.93486 0.06781 0.56888
 C200 C 0.13674 0.33515 1.13238
 N201 N 0.12565 0.32411 1.16089
 N202 N 0.13961 0.29927 1.17522
 C203 C 0.16529 0.28445 1.16172
 N204 N 0.17654 0.29593 1.13335
 N205 N 0.16251 0.32069 1.11894
 C206 C 0.12023 0.36127 1.11560
 N207 N 0.09547 0.37693 1.12967
 N208 N 0.07956 0.39959 1.11381
 C209 C 0.08766 0.40734 1.08322
 N210 N 0.11258 0.39174 1.06929
 N211 N 0.12859 0.36920 1.08518
 C212 C -0.12668 0.66524 1.13343
 N213 N -0.11431 0.67954 1.15985
 N214 N -0.12970 0.70362 1.17405
 C215 C -0.15801 0.71456 1.16234
 N216 N -0.17039 0.69995 1.13597
 N217 N -0.15509 0.67577 1.12184
 C218 C -0.10903 0.63965 1.11696
 N219 N -0.12235 0.62367 1.09198
 N220 N -0.10584 0.60130 1.07629
 C221 C -0.07532 0.59417 1.08484
 N222 N -0.06212 0.61011 1.10996
 N223 N -0.07866 0.63236 1.12575
 C224 C -0.12462 0.33281 0.87775
 N225 N -0.14877 0.31665 0.89227
 N226 N -0.16392 0.29309 0.87704
 C227 C -0.15548 0.28464 0.84672
 N228 N -0.13134 0.30094 0.83221
 N229 N -0.11624 0.32459 0.84740
 C230 C -0.10738 0.35819 0.89493
 N231 N -0.08428 0.37551 0.88004
 N232 N -0.06815 0.39799 0.89593
 C233 C -0.07441 0.40395 0.92735
 N234 N -0.09763 0.38663 0.94213
 N235 N -0.11383 0.36423 0.92624
 C236 C 0.12853 0.66797 0.87055
 N237 N 0.11432 0.68223 0.84505
 N238 N 0.12866 0.70628 0.82977
 C239 C 0.15773 0.71722 0.83940
 N240 N 0.17194 0.70268 0.86487
 N241 N 0.15767 0.67854 0.88011
 C242 C 0.11212 0.64231 0.88812
 N243 N 0.12691 0.62668 0.91249
 N244 N 0.11157 0.60413 0.92907
 C245 C 0.08080 0.59642 0.92202
 N246 N 0.06613 0.61203 0.89752
 N247 N 0.08149 0.63447 0.88087
 C248 C 1.12863 0.12811 0.33230
 N249 N 1.15406 0.11390 0.31795
 N250 N 1.16932 0.12837 0.29395
 C251 C 1.15974 0.15758 0.28316
 N252 N 1.13435 0.17179 0.29780
 N253 N 1.11913 0.15739 0.32189
 C254 C 1.11106 0.11155 0.35788
 N255 N 1.08676 0.12633 0.37360
 N256 N 1.07017 0.11085 0.39607
 C257 C 1.07714 0.07995 0.40357
 N258 N 1.10156 0.06528 0.38788
 N259 N 1.11823 0.08078 0.36552
 C260 C 1.12171 -0.12616 0.66672
 N261 N 1.15204 -0.11780 0.67464
 N262 N 1.16729 -0.13275 0.69834
 C263 C 1.15286 -0.15671 0.71501
 N264 N 1.12256 -0.16513 0.70687
 N265 N 1.10727 -0.15013 0.68324
 C266 C 1.10449 -0.10902 0.64129
 N267 N 1.07322 -0.11541 0.63548
 N268 N 1.05730 -0.09926 0.61307
 C269 C 1.07200 -0.07613 0.59551
 N270 N 1.10337 -0.06994 0.60124
 N271 N 1.11929 -0.08602 0.62373
 C272 C 0.86684 -0.12738 0.33353
 N273 N 0.87850 -0.15579 0.32288
 N274 N 0.86447 -0.17108 0.29865
 C275 C 0.83812 -0.15869 0.28410
 N276 N 0.82636 -0.13036 0.29513
 N277 N 0.84047 -0.11498 0.31926
 C278 C 0.88315 -0.10980 0.35925
 N279 N 0.87428 -0.07943 0.36671
 N280 N 0.88990 -0.06297 0.38913
 C281 C 0.91491 -0.07628 0.40508
 N282 N 0.92354 -0.10681 0.39777
 N283 N 0.90802 -0.12322 0.37524
 C284 C 0.86810 0.13632 0.66516
 N285 N 0.83958 0.12550 0.67624
 N286 N 0.82535 0.13971 0.70105
 C287 C 0.83898 0.16538 0.71578
 N288 N 0.86738 0.17635 0.70427
 N289 N 0.88168 0.16208 0.67955
 C290 C 0.88473 0.11958 0.63905
 N291 N 0.91511 0.12772 0.63107
 N292 N 0.93084 0.11154 0.60850
 C293 C 0.91680 0.08667 0.59293
 N294 N 0.88625 0.07878 0.60074
 N295 N 0.87054 0.09487 0.62342
 C296 C 0.33211 1.12204 0.12631
 N297 N 0.31552 1.10742 0.15014
 N298 N 0.29182 1.12264 0.16510
 C299 C 0.28368 1.15303 0.15677
 N300 N 0.30041 1.16763 0.13295
 N301 N 0.32418 1.15246 0.11804
 C302 C 0.35766 1.10491 0.10925
 N303 N 0.37538 1.11992 0.08650
 N304 N 0.39800 1.10409 0.07050
 C305 C 0.40371 1.07261 0.07653
 N306 N 0.38599 1.05770 0.09941
 N307 N 0.36345 1.07354 0.11549
 C308 C 0.66703 1.13033 -0.12726
 N309 N 0.67557 1.12250 -0.15767
 N310 N 0.69964 1.13759 -0.17216
 C311 C 0.71607 1.16115 -0.15686
 N312 N 0.70727 1.16908 -0.12651
 N313 N 0.68327 1.15395 -0.11198
 C314 C 0.64143 1.11283 -0.11071
 N315 N 0.63513 1.11865 -0.07932
 N316 N 0.61274 1.10201 -0.06390
 C317 C 0.59568 1.07895 -0.07924
 N318 N 0.60186 1.07335 -0.11074
 N319 N 0.62434 1.08992 -0.12617
 C320 C 0.33544 0.86920 -0.13694
 N321 N 0.31917 0.88390 -0.16092
 N322 N 0.29464 0.86936 -0.17512
 C323 C 0.28531 0.83958 -0.16586
 N324 N 0.30181 0.82483 -0.14200
 N325 N 0.32642 0.83933 -0.12784
 C326 C 0.36135 0.88600 -0.12018
 N327 N 0.37838 0.87113 -0.09684
 N328 N 0.40089 0.88691 -0.08068
 C329 C 0.40715 0.91820 -0.08714
 N330 N 0.39018 0.93293 -0.11067
 N331 N 0.36776 0.91714 -0.12689
 C332 C 0.66558 0.86620 0.12616
 N333 N 0.68200 0.84188 0.11218
 N334 N 0.70603 0.82765 0.12754
 C335 C 0.71468 0.83725 0.15743
 N336 N 0.69807 0.86151 0.17142
 N337 N 0.67396 0.87567 0.15612
 C338 C 0.63997 0.88273 0.10867
 N339 N 0.62245 0.90603 0.12306
 N340 N 0.60002 0.92179 0.10677
 C341 C 0.59433 0.91497 0.07543
 N342 N 0.61181 0.89152 0.06116
 N343 N 0.63415 0.87567 0.07746
   
