data_POSCAR
  _audit_creation_date              2014-09-24
  _audit_creation_method            'ToBaCCo'
  _symmetry_space_group_name_H-M    'P1'
  _symmetry_Int_Tables_number       1
  _symmetry_cell_setting            triclinic
  loop_
  _symmetry_equiv_pos_as_xyz
 x,y,z
_cell_length_a 33.7481
_cell_length_b 33.9368
_cell_length_c 33.8161
_cell_angle_alpha 90.248900
_cell_angle_beta 90.334500
_cell_angle_gamma 90.470300
loop_
  _atom_site_label
  _atom_site_type_symbol
  _atom_site_fract_x
  _atom_site_fract_y
  _atom_site_fract_z
C1 C 0.70426 0.69376 0.96579
 H2 H 0.73326 0.70252 0.95538
 C3 C 0.67070 0.71337 0.95221
 H4 H 0.67471 0.73816 0.93259
 C5 C 0.66437 0.65050 1.00353
 H6 H 0.66202 0.62535 1.02292
 C7 C 0.62991 0.66863 0.98975
 H8 H 0.60153 0.65773 0.99982
 N9 N 0.70048 0.66227 0.99012
 C10 C 0.82523 0.63729 1.01300
 H11 H 0.82445 0.60624 1.00561
 C12 C 0.86085 0.65506 1.02449
 H13 H 0.88724 0.63724 1.02660
 C14 C 0.79083 0.69718 1.02194
 H15 H 0.76320 0.71304 1.02225
 C16 C 0.82569 0.71599 1.03440
 H17 H 0.82353 0.74599 1.04481
 Zn18 Zn 0.74477 0.62960 0.99876
 N19 N 0.79121 0.65844 1.01183
 C20 C 0.78203 0.62079 0.92785
 N21 N 0.75443 0.60241 0.95041
 C22 C 0.73549 0.56922 0.93709
 C23 C 0.74709 0.55134 0.90140
 C24 C 0.79439 0.60424 0.89261
 C25 C 0.73270 0.61883 1.07744
 C26 C 0.72270 0.60061 1.11282
 C27 C 0.71853 0.53852 1.07780
 C28 C 0.72981 0.55797 1.04320
 N29 N 0.73507 0.59767 1.04338
 H30 H 0.79517 0.64834 0.93746
 H31 H 0.71184 0.55624 0.95417
 H32 H 0.73326 0.52387 0.89243
 H33 H 0.81821 0.61861 0.87673
 H34 H 0.73728 0.65040 1.07681
 H35 H 0.71905 0.61880 1.13894
 H36 H 0.71152 0.50753 1.07528
 H37 H 0.73279 0.54144 1.01610
 C38 C 0.86159 0.69491 1.03583
 C39 C 0.63262 0.69876 0.96140
 C40 C 0.71407 0.55989 1.11363
 C41 C 0.77754 0.56869 0.87893
 C42 C 0.71579 0.31248 0.53086
 H43 H 0.74523 0.30537 0.54130
 C44 C 0.68303 0.29253 0.54612
 H45 H 0.68819 0.26893 0.56684
 C46 C 0.67409 0.35197 0.49120
 H47 H 0.67073 0.37589 0.47046
 C48 C 0.64038 0.33337 0.50649
 H49 H 0.61147 0.34261 0.49633
 N50 N 0.71078 0.34226 0.50469
 C51 C 0.83461 0.36881 0.47756
 H52 H 0.83390 0.40021 0.48318
 C53 C 0.87002 0.35108 0.46663
 H54 H 0.89627 0.36925 0.46306
 C55 C 0.80031 0.30781 0.47290
 H56 H 0.77279 0.29138 0.47416
 C57 C 0.83496 0.28896 0.46113
 H58 H 0.83273 0.25831 0.45271
 Zn59 Zn 0.75468 0.37550 0.49404
 N60 N 0.80076 0.34708 0.48070
 C61 C 0.79467 0.38820 0.56365
 N62 N 0.76539 0.40409 0.54134
 C63 C 0.74449 0.43567 0.55467
 C64 C 0.75526 0.45443 0.59036
 C65 C 0.80609 0.40554 0.59903
 C66 C 0.73836 0.38590 0.41562
 C67 C 0.72727 0.40455 0.38075
 C68 C 0.72851 0.46673 0.41575
 C69 C 0.74048 0.44684 0.44989
 N70 N 0.74354 0.40694 0.44953
 H71 H 0.80933 0.36168 0.55415
 H72 H 0.71965 0.44647 0.53767
 H73 H 0.73929 0.48028 0.59968
 H74 H 0.83049 0.39279 0.61540
 H75 H 0.74156 0.35421 0.41608
 H76 H 0.72128 0.38682 0.35465
 H77 H 0.72375 0.49803 0.41802
 H78 H 0.74602 0.46323 0.47679
 C79 C 0.87073 0.31057 0.45798
 C80 C 0.64441 0.30500 0.53647
 C81 C 0.72074 0.44538 0.38059
 C82 C 0.78700 0.43955 0.61277
 C83 C 0.20402 -0.18264 0.03699
 H84 H 0.23215 -0.18778 0.05150
 C85 C 0.16966 -0.20067 0.05117
 H86 H 0.17181 -0.22002 0.07646
 C87 C 0.16669 -0.14847 -0.01121
 H88 H 0.16539 -0.12680 -0.03448
 C89 C 0.13149 -0.16564 0.00222
 H90 H 0.10409 -0.15684 -0.01157
 N91 N 0.20185 -0.15648 0.00685
 C92 C 0.32211 -0.12791 -0.02928
 H93 H 0.31716 -0.09645 -0.02935
 C94 C 0.35823 -0.14256 -0.04180
 H95 H 0.37952 -0.12155 -0.05292
 C96 C 0.29752 -0.19235 -0.01790
 H97 H 0.27342 -0.21153 -0.00912
 C98 C 0.33382 -0.20845 -0.02978
 H99 H 0.33703 -0.24015 -0.03091
 Zn100 Zn 0.24648 -0.12427 -0.00368
 N101 N 0.29248 -0.15261 -0.01809
 C102 C 0.28973 -0.11212 0.06439
 N103 N 0.25891 -0.09638 0.04405
 C104 C 0.23792 -0.06585 0.05956
 C105 C 0.24987 -0.04815 0.09550
 C106 C 0.30206 -0.09608 0.10015
 C107 C 0.23246 -0.11261 -0.08262
 C108 C 0.22102 -0.09411 -0.11750
 C109 C 0.21550 -0.03306 -0.08109
 C110 C 0.22789 -0.05278 -0.04692
 N111 N 0.23484 -0.09213 -0.04807
 H112 H 0.30489 -0.13764 0.05315
 H113 H 0.21208 -0.05505 0.04414
 H114 H 0.23376 -0.02304 0.10644
 H115 H 0.32743 -0.10883 0.11496
 H116 H 0.23815 -0.14393 -0.08274
 H117 H 0.21744 -0.11192 -0.14396
 H118 H 0.20738 -0.00251 -0.07793
 H119 H 0.23034 -0.03684 -0.01932
 C120 C 0.36500 -0.18345 -0.04204
 C121 C 0.13243 -0.19142 0.03464
 C122 C 0.21149 -0.05371 -0.11748
 C123 C 0.28288 -0.06310 0.11606
 C124 C 0.21285 0.19070 0.46252
 H125 H 0.24087 0.19543 0.44784
 C126 C 0.17890 0.20966 0.44884
 H127 H 0.18127 0.22909 0.42363
 C128 C 0.17515 0.15653 0.51043
 H129 H 0.17343 0.13443 0.53326
 C130 C 0.14037 0.17452 0.49742
 H131 H 0.11286 0.16562 0.51093
 N132 N 0.21025 0.16406 0.49223
 C133 C 0.33036 0.13263 0.52600
 H134 H 0.32441 0.10125 0.52593
 C135 C 0.36732 0.14664 0.53790
 H136 H 0.38832 0.12525 0.54843
 C137 C 0.30745 0.19753 0.51563
 H138 H 0.28368 0.21713 0.50756
 C139 C 0.34457 0.21298 0.52695
 H140 H 0.34874 0.24462 0.52841
 Zn141 Zn 0.25373 0.13062 0.50214
 N142 N 0.30118 0.15788 0.51565
 C143 C 0.29459 0.11669 0.43371
 N144 N 0.26363 0.10199 0.45457
 C145 C 0.24138 0.07139 0.43999
 C146 C 0.25226 0.05243 0.40457
 C147 C 0.30597 0.09934 0.39852
 C148 C 0.23992 0.11920 0.58121
 C149 C 0.22834 0.10050 0.61592
 C150 C 0.22332 0.03928 0.57955
 C151 C 0.23569 0.05917 0.54553
 N152 N 0.24221 0.09873 0.54668
 H153 H 0.31076 0.14225 0.44421
 H154 H 0.21551 0.06137 0.45587
 H155 H 0.23525 0.02724 0.39436
 H156 H 0.33162 0.11119 0.38338
 H157 H 0.24561 0.15062 0.58139
 H158 H 0.22452 0.11800 0.64246
 H159 H 0.21557 0.00849 0.57672
 H160 H 0.23855 0.04317 0.51808
 C161 C 0.37529 0.18743 0.53848
 C162 C 0.14164 0.20077 0.46537
 C163 C 0.21871 0.06014 0.61543
 C164 C 0.28553 0.06618 0.38365
 C165 C 0.19540 0.48143 0.20022
 H166 H 0.21113 0.48261 0.22815
 C167 C 0.21491 0.46890 0.16604
 H168 H 0.24541 0.46001 0.16891
 C169 C 0.13520 0.48711 0.16445
 H170 H 0.10376 0.49307 0.16443
 C171 C 0.15358 0.47548 0.12959
 H172 H 0.13582 0.47201 0.10301
 N173 N 0.15605 0.48941 0.19889
 C174 C 0.14478 0.49158 0.32500
 H175 H 0.12096 0.47011 0.32510
 C176 C 0.16211 0.50313 0.36093
 H177 H 0.15110 0.49001 0.38776
 C178 C 0.18420 0.53753 0.29000
 H179 H 0.19162 0.55181 0.26246
 C180 C 0.20238 0.54987 0.32515
 H181 H 0.22376 0.57381 0.32420
 Zn182 Zn 0.12497 0.49973 0.24414
 N183 N 0.15560 0.50919 0.29054
 C184 C 0.12054 0.42241 0.25731
 N185 N 0.09536 0.45283 0.25156
 C186 C 0.05542 0.44734 0.25282
 C187 C 0.03980 0.41040 0.26344
 C188 C 0.10646 0.38556 0.26819
 C189 C 0.11689 0.57174 0.21081
 C190 C 0.10084 0.60741 0.19958
 C191 C 0.04285 0.59252 0.23837
 C192 C 0.06021 0.55645 0.24882
 N193 N 0.09618 0.54639 0.23392
 H194 H 0.15217 0.42755 0.25579
 H195 H 0.03575 0.47163 0.24718
 H196 H 0.00809 0.40701 0.26699
 H197 H 0.12830 0.36380 0.27564
 H198 H 0.14602 0.56403 0.20041
 H199 H 0.11736 0.62560 0.17914
 H200 H 0.01343 0.59913 0.24883
 H201 H 0.04481 0.53658 0.26844
 C202 C 0.19100 0.53321 0.36154
 C203 C 0.19384 0.46530 0.12995
 C204 C 0.06334 0.61860 0.21323
 C205 C 0.06551 0.37908 0.27266
 C206 C -0.18908 0.03850 0.21658
 H207 H -0.19483 0.05027 0.24574
 C208 C -0.20877 0.05389 0.18379
 H209 H -0.23107 0.07594 0.18912
 C210 C -0.15360 -0.00521 0.17553
 H211 H -0.13129 -0.02760 0.17221
 C212 C -0.17222 0.00971 0.14184
 H213 H -0.16469 -0.00261 0.11329
 N214 N -0.16125 0.01030 0.21184
 C215 C -0.13067 -0.02751 0.33055
 H216 H -0.09914 -0.02759 0.32494
 C217 C -0.14478 -0.04031 0.36676
 H218 H -0.12325 -0.05155 0.38742
 C219 C -0.19587 -0.01609 0.30738
 H220 H -0.21561 -0.00753 0.28371
 C221 C -0.21143 -0.02820 0.34382
 H222 H -0.24325 -0.02947 0.34763
 Zn223 Zn -0.12807 -0.00228 0.25521
 N224 N -0.15600 -0.01615 0.30159
 C225 C -0.11126 0.06425 0.29802
 N226 N -0.09716 0.04303 0.26716
 C227 C -0.06554 0.05609 0.24583
 C228 C -0.04565 0.09109 0.25682
 C229 C -0.09272 0.09886 0.30975
 C230 C -0.12220 -0.07859 0.23482
 C231 C -0.10648 -0.11426 0.22284
 C232 C -0.04082 -0.08631 0.23043
 C233 C -0.05809 -0.05054 0.24180
 N234 N -0.09823 -0.04729 0.24268
 H235 H -0.13742 0.05465 0.31356
 H236 H -0.05571 0.03941 0.22044
 H237 H -0.02008 0.10048 0.24017
 H238 H -0.10434 0.11462 0.33504
 H239 H -0.15401 -0.07514 0.23619
 H240 H -0.12734 -0.13678 0.21375
 H241 H -0.00892 -0.08806 0.22787
 H242 H -0.03952 -0.02543 0.24909
 C243 C -0.18578 -0.04076 0.37427
 C244 C -0.19801 0.04208 0.14508
 C245 C -0.06511 -0.11880 0.22008
 C246 C -0.05925 0.11285 0.28952
 C247 C 0.31208 0.52564 0.70394
 H248 H 0.30268 0.53673 0.73236
 C249 C 0.29248 0.53761 0.66971
 H250 H 0.26837 0.55828 0.67245
 C251 C 0.35767 0.48900 0.66598
 H252 H 0.38435 0.47163 0.66462
 C253 C 0.33897 0.50041 0.63083
 H254 H 0.35193 0.49164 0.60305
 N255 N 0.34443 0.50227 0.70154
 C256 C 0.36497 0.48878 0.82818
 H257 H 0.39518 0.49969 0.82912
 C258 C 0.34648 0.47701 0.86304
 H259 H 0.36311 0.47840 0.89047
 C260 C 0.30858 0.47010 0.79036
 H261 H 0.29464 0.46593 0.76176
 C262 C 0.28905 0.45767 0.82450
 H263 H 0.26042 0.44348 0.82120
 Zn264 Zn 0.37649 0.49593 0.74730
 N265 N 0.34601 0.48496 0.79279
 C266 C 0.37927 0.57280 0.77288
 N267 N 0.40274 0.54521 0.75590
 C268 C 0.44064 0.55425 0.74554
 C269 C 0.45779 0.59022 0.75733
 C270 C 0.39466 0.60947 0.78376
 C271 C 0.38809 0.41796 0.73157
 C272 C 0.40707 0.38300 0.72182
 C273 C 0.46999 0.41568 0.73239
 C274 C 0.44960 0.44992 0.74301
 N275 N 0.40938 0.45110 0.74013
 H276 H 0.34867 0.56584 0.77926
 H277 H 0.45778 0.53384 0.72830
 H278 H 0.48830 0.59597 0.74971
 H279 H 0.37547 0.63035 0.79835
 H280 H 0.35608 0.41919 0.73072
 H281 H 0.38933 0.35767 0.71300
 H282 H 0.50192 0.41670 0.73287
 H283 H 0.46617 0.47537 0.75292
 C284 C 0.30789 0.46108 0.86173
 C285 C 0.30613 0.52563 0.63226
 C286 C 0.44865 0.38191 0.71990
 C287 C 0.43527 0.61758 0.77898
 C288 C 0.69893 0.96449 0.71533
 H289 H 0.70606 0.95227 0.74393
 C290 C 0.71805 0.95017 0.68183
 H291 H 0.74141 0.92891 0.68580
 C292 C 0.65880 1.00551 0.67568
 H293 H 0.63494 1.02640 0.67322
 C294 C 0.67660 0.99130 0.64132
 H295 H 0.66682 1.00244 0.61301
 N296 N 0.66870 0.99045 0.71161
 C297 C 0.63273 1.01448 0.83359
 H298 H 0.60126 1.01407 0.82781
 C299 C 0.64643 1.02632 0.87066
 H300 H 0.62423 1.03534 0.89159
 C301 C 0.69819 1.00869 0.81006
 H302 H 0.71835 1.00407 0.78587
 C303 C 0.71342 1.01954 0.84725
 H304 H 0.74519 1.02298 0.85074
 Zn305 Zn 0.63293 0.99881 0.75395
 N306 N 0.65834 1.00678 0.80385
 C307 C 0.56392 0.95666 0.77714
 N308 N 0.59879 0.95371 0.75748
 C309 C 0.61149 0.91818 0.74388
 C310 C 0.59049 0.88361 0.75242
 C311 C 0.54188 0.92292 0.78612
 C312 C 0.62030 1.08034 0.75288
 C313 C 0.60202 1.11553 0.74205
 C314 C 0.54913 1.07730 0.71206
 C315 C 0.56835 1.04289 0.72356
 N316 N 0.60351 1.04499 0.74321
 H317 H 0.55399 0.98504 0.78751
 H318 H 0.63921 0.91604 0.72840
 H319 H 0.60331 0.85572 0.74411
 H320 H 0.51595 0.92600 0.80452
 H321 H 0.64879 1.08120 0.76769
 H322 H 0.61731 1.14306 0.74801
 H323 H 0.52259 1.07463 0.69412
 H324 H 0.55618 1.01451 0.71505
 C325 C 0.68757 1.02975 0.87837
 C326 C 0.70442 0.96080 0.64388
 C327 C 0.56584 1.11451 0.72121
 C328 C 0.55550 0.88544 0.77466
 C329 C 0.02707 0.20964 -0.19099
 H330 H 0.03783 0.23867 -0.19883
 C331 C 0.04102 0.17659 -0.21110
 H332 H 0.06121 0.18108 -0.23541
 C333 C -0.01211 0.16918 -0.14964
 H334 H -0.03216 0.16634 -0.12497
 C335 C 0.00184 0.13524 -0.16840
 H336 H -0.00872 0.10680 -0.15849
 N337 N 0.00190 0.20535 -0.16011
 C338 C -0.02419 0.32855 -0.13245
 H339 H -0.01762 0.32756 -0.10112
 C340 C -0.03563 0.36393 -0.14973
 H341 H -0.03857 0.38988 -0.13127
 C342 C -0.03057 0.29502 -0.19373
 H343 H -0.02967 0.26783 -0.21043
 C344 C -0.04282 0.32968 -0.21213
 H345 H -0.05198 0.32780 -0.24271
 Zn346 Zn -0.00714 0.24918 -0.12651
 N347 N -0.02164 0.29510 -0.15454
 C348 C 0.06339 0.28896 -0.11736
 N349 N 0.04156 0.26027 -0.09980
 C350 C 0.05592 0.24058 -0.06777
 C351 C 0.09209 0.25219 -0.05020
 C352 C 0.09928 0.30116 -0.10124
 C353 C -0.08527 0.23335 -0.11398
 C354 C -0.11993 0.22212 -0.09485
 C355 C -0.08350 0.22132 -0.03317
 C356 C -0.04958 0.23347 -0.05360
 N357 N -0.05081 0.23784 -0.09349
 H358 H 0.05293 0.30277 -0.14411
 H359 H 0.03933 0.21619 -0.05556
 H360 H 0.10198 0.23736 -0.02377
 H361 H 0.11506 0.32528 -0.11513
 H362 H -0.08546 0.23722 -0.14571
 H363 H -0.14631 0.21678 -0.11256
 H364 H -0.08022 0.21529 -0.00202
 H365 H -0.02216 0.23804 -0.03762
 C366 C -0.04523 0.36509 -0.19018
 C367 C 0.03109 0.13845 -0.19775
 C368 C -0.11971 0.21492 -0.05379
 C369 C 0.11400 0.28347 -0.06672
 C370 C 0.45953 0.20649 0.18806
 H371 H 0.44450 0.23397 0.19366
 C372 C 0.44664 0.17201 0.20642
 H373 H 0.42168 0.17341 0.22636
 C374 C 0.50779 0.17082 0.15250
 H375 H 0.53059 0.17022 0.13022
 C376 C 0.49557 0.13549 0.16990
 H377 H 0.50960 0.10861 0.16053
 N378 N 0.48905 0.20517 0.16106
 C379 C 0.52163 0.32555 0.13253
 H380 H 0.52142 0.32014 0.10098
 C381 C 0.53370 0.36203 0.14695
 H382 H 0.54426 0.38320 0.12568
 C383 C 0.51158 0.30170 0.19743
 H384 H 0.50362 0.27770 0.21683
 C385 C 0.52307 0.33839 0.21333
 H386 H 0.52475 0.34206 0.24511
 Zn387 Zn 0.49817 0.24973 0.12900
 N388 N 0.51135 0.29614 0.15756
 C389 C 0.43017 0.29106 0.11500
 N390 N 0.45069 0.26009 0.10032
 C391 C 0.43617 0.23857 0.06920
 C392 C 0.40118 0.25018 0.04972
 C393 C 0.39556 0.30329 0.09700
 C394 C 0.57738 0.23948 0.11768
 C395 C 0.61259 0.22952 0.09915
 C396 C 0.57650 0.22273 0.03757
 C397 C 0.54195 0.23376 0.05728
 N398 N 0.54280 0.24025 0.09696
 H399 H 0.44054 0.30666 0.14095
 H400 H 0.45181 0.21277 0.05913
 H401 H 0.39098 0.23371 0.02416
 H402 H 0.38078 0.32897 0.10879
 H403 H 0.57724 0.24512 0.14919
 H404 H 0.63925 0.22679 0.11687
 H405 H 0.57406 0.21475 0.00673
 H406 H 0.51436 0.23542 0.04112
 C407 C 0.53444 0.36934 0.18795
 C408 C 0.46375 0.13552 0.19653
 C409 C 0.61247 0.21954 0.05879
 C410 C 0.38075 0.28353 0.06339
 C411 C 0.96548 0.70684 0.69303
 H412 H 0.95080 0.73445 0.69877
 C413 C 0.95274 0.67286 0.71240
 H414 H 0.92866 0.67508 0.73330
 C415 C 1.01047 0.66959 0.65497
 H416 H 1.03171 0.66807 0.63124
 C417 C 0.99833 0.63476 0.67336
 H418 H 1.01067 0.60735 0.66307
 N419 N 0.99297 0.70449 0.66395
 C420 C 1.02065 0.82589 0.62911
 H421 H 1.02303 0.81993 0.59787
 C422 C 1.03205 0.86274 0.64351
 H423 H 1.04349 0.88361 0.62239
 C424 C 1.00871 0.80298 0.69389
 H425 H 1.00138 0.77917 0.71365
 C426 C 1.01943 0.83993 0.70968
 H427 H 1.02037 0.84383 0.74146
 Zn428 Zn 1.00070 0.74709 0.62830
 N429 N 1.00965 0.79663 0.65409
 C430 C 0.95658 0.77482 0.56296
 N431 N 0.95485 0.75117 0.59520
 C432 C 0.91986 0.73445 0.60647
 C433 C 0.88439 0.74444 0.58758
 C434 C 0.92202 0.78522 0.54297
 C435 C 1.08160 0.74138 0.61817
 C436 C 1.11712 0.72952 0.60120
 C437 C 1.08073 0.71002 0.54260
 C438 C 1.04576 0.72233 0.56076
 N439 N 1.04675 0.73643 0.59845
 H440 H 0.98457 0.78725 0.55375
 H441 H 0.91876 0.71525 0.63173
 H442 H 0.85691 0.73334 0.59959
 H443 H 0.92403 0.80657 0.51934
 H444 H 1.08161 0.75341 0.64785
 H445 H 1.14388 0.73401 0.61820
 H446 H 1.07916 0.69729 0.51321
 H447 H 1.01772 0.71876 0.54550
 C448 C 1.03172 0.87056 0.68445
 C449 C 0.96804 0.63582 0.70168
 C450 C 1.11688 0.71113 0.56377
 C451 C 0.88494 0.77128 0.55608
 C452 C 0.51234 0.70220 0.30451
 H453 H 0.50327 0.72611 0.28559
 C454 C 0.52466 0.66636 0.28785
 H455 H 0.52570 0.66328 0.25599
 C456 C 0.52425 0.67764 0.36886
 H457 H 0.52435 0.68240 0.40052
 C458 C 0.53728 0.64204 0.35367
 H459 H 0.54883 0.62099 0.37448
 N460 N 0.51246 0.70697 0.34449
 C461 C 0.50307 0.83201 0.35353
 H462 H 0.52435 0.83336 0.37750
 C463 C 0.49052 0.86703 0.33608
 H464 H 0.50267 0.89419 0.34782
 C465 C 0.45851 0.79463 0.31395
 H466 H 0.44489 0.76651 0.30678
 C467 C 0.44549 0.82880 0.29521
 H468 H 0.42178 0.82623 0.27359
 Zn469 Zn 0.49754 0.75199 0.37405
 N470 N 0.48654 0.79685 0.34280
 C471 C 0.57618 0.76782 0.38591
 N472 N 0.54215 0.76325 0.40670
 C473 C 0.54193 0.76667 0.44677
 C474 C 0.57662 0.77760 0.46717
 C475 C 0.61144 0.77804 0.40500
 C476 C 0.43080 0.70679 0.38637
 C477 C 0.39641 0.69271 0.40360
 C478 C 0.40112 0.74444 0.45261
 C479 C 0.43581 0.75796 0.43390
 N480 N 0.45061 0.73816 0.40213
 H481 H 0.57560 0.76454 0.35407
 H482 H 0.51480 0.76207 0.46291
 H483 H 0.57474 0.78241 0.49865
 H484 H 0.63768 0.78327 0.38744
 H485 H 0.44153 0.69241 0.36007
 H486 H 0.38200 0.66698 0.39077
 H487 H 0.39067 0.75982 0.47850
 H488 H 0.45099 0.78395 0.44501
 C489 C 0.46080 0.86621 0.30650
 C490 C 0.53732 0.63544 0.31254
 C491 C 0.38121 0.71087 0.43763
 C492 C 0.61208 0.78407 0.44613
 C493 C 0.37184 -0.00035 0.25083
 C494 C 0.12369 1.00342 0.74793
 C495 C 0.62648 0.50336 0.24798
 C496 C 0.87010 0.50231 0.75071
 C497 C 0.24928 0.37127 -0.00349
 C498 C 0.74746 0.12612 1.00680
 C499 C 0.24860 0.61991 0.50021
 C500 C 0.75172 0.86795 0.50615
 C501 C 0.00608 0.25067 0.37033
 C502 C 0.99814 0.75144 0.12685
 C503 C 0.50986 0.24875 0.62965
 C504 C 0.49727 0.75299 0.86789
 C505 C 0.44126 -0.09842 0.29222
 C506 C 0.45995 -0.06008 0.30072
 C507 C 0.43729 -0.02714 0.28685
 C508 C 0.39974 -0.03762 0.26653
 C509 C 0.41322 -0.06530 0.23553
 C510 C 0.43546 -0.09819 0.24949
 C511 C 0.40187 -0.09581 0.30902
 C512 C 0.37956 -0.06340 0.29523
 H513 H 0.49018 -0.05573 0.31087
 H514 H 0.44949 0.00224 0.28952
 H515 H 0.41237 -0.06024 0.20421
 H516 H 0.45031 -0.11813 0.22931
 H517 H 0.38997 -0.11636 0.33060
 H518 H 0.34994 -0.05994 0.30615
 C519 C 0.93530 0.40186 0.79316
 C520 C 0.95507 0.44144 0.80426
 C521 C 0.93516 0.47379 0.79085
 C522 C 0.89632 0.46464 0.76724
 C523 C 0.91174 0.43580 0.73484
 C524 C 0.93146 0.40382 0.74814
 C525 C 0.89318 0.40506 0.80860
 C526 C 0.87342 0.43708 0.79595
 H527 H 0.98287 0.44388 0.82042
 H528 H 0.94688 0.50301 0.79651
 H529 H 0.91226 0.44133 0.70361
 H530 H 0.94733 0.38506 0.72772
 H531 H 0.87988 0.38391 0.82868
 H532 H 0.84373 0.44149 0.80640
 C533 C 0.05420 1.10233 0.78818
 C534 C 0.03598 1.08112 0.75230
 C535 C 0.05686 1.04914 0.73962
 C536 C 0.09569 1.04050 0.76314
 C537 C 0.11756 1.08104 0.76295
 C538 C 0.09674 1.11209 0.77616
 C539 C 0.05928 1.06979 0.81915
 C540 C 0.07981 1.03794 0.80627
 H541 H 0.00826 1.08984 0.73859
 H542 H 0.04555 1.03162 0.71532
 H543 H 0.14796 1.08598 0.75493
 H544 H 0.11091 1.14067 0.77998
 H545 H 0.04783 1.07121 0.84902
 H546 H 0.08287 1.01326 0.82585
 C547 C 0.55768 0.59934 0.29517
 C548 C 0.53778 0.57958 0.25915
 C549 C 0.55860 0.54851 0.24392
 C550 C 0.59872 0.53961 0.26525
 C551 C 0.61972 0.58062 0.26553
 C552 C 0.59892 0.61063 0.28111
 C553 C 0.56382 0.56499 0.32383
 C554 C 0.58477 0.53468 0.30872
 H555 H 0.50908 0.58814 0.24755
 H556 H 0.54640 0.53163 0.21955
 H557 H 0.64889 0.58690 0.25447
 H558 H 0.61086 0.64042 0.28269
 H559 H 0.54819 0.56140 0.35152
 H560 H 0.58593 0.50799 0.32562
 C561 C 0.55526 0.40602 0.20432
 C562 C 0.55974 0.44026 0.17520
 C563 C 0.58139 0.47108 0.18922
 C564 C 0.59767 0.46668 0.23212
 C565 C 0.55872 0.45723 0.25512
 C566 C 0.53721 0.42564 0.24098
 C567 C 0.59720 0.39558 0.21673
 C568 C 0.61868 0.42603 0.23125
 H569 H 0.54262 0.44328 0.14817
 H570 H 0.58145 0.49771 0.17216
 H571 H 0.54771 0.47412 0.27976
 H572 H 0.50913 0.41668 0.25374
 H573 H 0.60906 0.36595 0.21510
 H574 H 0.64826 0.42025 0.24157
 C575 C 0.05271 0.90704 0.70139
 C576 C 0.03350 0.92737 0.73711
 C577 C 0.05511 0.95853 0.75207
 C578 C 0.09520 0.96703 0.73078
 C579 C 0.11538 0.92596 0.73109
 C580 C 0.09386 0.89584 0.71579
 C581 C 0.05938 0.94094 0.67229
 C582 C 0.08109 0.97139 0.68712
 H583 H 0.00480 0.91895 0.74883
 H584 H 0.04380 0.97570 0.77647
 H585 H 0.14458 0.91970 0.74211
 H586 H 0.10529 0.86603 0.71450
 H587 H 0.04398 0.94394 0.64426
 H588 H 0.08313 0.99772 0.66971
 C589 C 0.94593 0.59887 0.71488
 C590 C 0.90553 0.59712 0.69465
 C591 C 0.88235 0.56664 0.70578
 C592 C 0.90037 0.53857 0.73722
 C593 C 0.94078 0.52719 0.71833
 C594 C 0.96411 0.55817 0.70677
 C595 C 0.93727 0.59819 0.75913
 C596 C 0.91430 0.56737 0.77077
 H597 H 0.89585 0.61822 0.67260
 H598 H 0.85347 0.56366 0.69240
 H599 H 0.95149 0.49749 0.71505
 H600 H 0.99360 0.55346 0.69528
 H601 H 0.95049 0.61873 0.78019
 H602 H 0.91006 0.56325 0.80193
 C603 C 0.44329 0.09790 0.21051
 C604 C 0.40199 0.09502 0.19234
 C605 C 0.38018 0.06407 0.20482
 C606 C 0.40050 0.03660 0.23545
 C607 C 0.44011 0.02611 0.21447
 C608 C 0.46202 0.05759 0.20156
 C609 C 0.43694 0.09726 0.25512
 C610 C 0.41544 0.06597 0.26808
 H611 H 0.39066 0.11570 0.17068
 H612 H 0.35073 0.06047 0.19300
 H613 H 0.45120 -0.00339 0.21055
 H614 H 0.49072 0.05341 0.18810
 H615 H 0.45060 0.11832 0.27538
 H616 H 0.41293 0.06193 0.29946
 C617 C 0.29124 0.44020 -0.10211
 C618 C 0.30056 0.45923 -0.06176
 C619 C 0.28714 0.43809 -0.03018
 C620 C 0.26518 0.39877 -0.04068
 C621 C 0.23277 0.41350 -0.07011
 C622 C 0.24621 0.43453 -0.10146
 C623 C 0.30814 0.39887 -0.09944
 C624 C 0.29521 0.37777 -0.06825
 H625 H 0.31503 0.48770 -0.05818
 H626 H 0.29146 0.44953 -0.00063
 H627 H 0.20130 0.41160 -0.06576
 H628 H 0.22590 0.44915 -0.12147
 H629 H 0.32904 0.38694 -0.12057
 H630 H 0.30606 0.34828 -0.06458
 C631 C 0.79766 0.93827 0.41049
 C632 C 0.76299 0.95806 0.43187
 C633 C 0.74818 0.93661 0.46283
 C634 C 0.76859 0.89611 0.47002
 C635 C 0.76658 0.87654 0.42836
 C636 C 0.78177 0.89788 0.39843
 C637 C 0.82748 0.93047 0.44390
 C638 C 0.81281 0.90886 0.47406
 H639 H 0.75182 0.98696 0.42422
 H640 H 0.72446 0.94825 0.48062
 H641 H 0.75449 0.84790 0.42158
 H642 H 0.78195 0.88687 0.36822
 H643 H 0.85591 0.94521 0.44719
 H644 H 0.83085 0.90602 0.50016
 C645 C 0.78841 0.06291 1.10988
 C646 C 0.75498 0.04349 1.09020
 C647 C 0.74147 0.06342 1.05527
 C648 C 0.76312 0.10024 1.04584
 C649 C 0.76166 0.12284 1.08323
 C650 C 0.77568 0.10315 1.11732
 C651 C 0.81850 0.06726 1.07919
 C652 C 0.80462 0.08665 1.04432
 H653 H 0.74245 0.01548 1.09956
 H654 H 0.71874 0.04976 1.03730
 H655 H 0.75434 0.15338 1.08642
 H656 H 0.78206 0.11998 1.14399
 H657 H 0.84882 0.05707 1.08169
 H658 H 0.82387 0.08789 1.01916
 C659 C 0.29080 0.54690 0.59571
 C660 C 0.29916 0.52930 0.55460
 C661 C 0.28559 0.55174 0.52389
 C662 C 0.26463 0.59074 0.53603
 C663 C 0.23243 0.57504 0.56504
 C664 C 0.24596 0.55281 0.59545
 C665 C 0.30865 0.58818 0.59438
 C666 C 0.29566 0.61049 0.56413
 H667 H 0.31248 0.50076 0.54962
 H668 H 0.28894 0.54143 0.49385
 H669 H 0.20093 0.57769 0.56130
 H670 H 0.22593 0.53831 0.61588
 H671 H 0.33036 0.59916 0.61566
 H672 H 0.30710 0.64004 0.56160
 C673 C 0.20585 0.55246 0.39976
 C674 C 0.19721 0.53244 0.43966
 C675 C 0.21082 0.55318 0.47186
 C676 C 0.23221 0.59290 0.46244
 C677 C 0.26434 0.57915 0.43248
 C678 C 0.25069 0.55878 0.40051
 C679 C 0.18827 0.59342 0.40392
 C680 C 0.20137 0.61401 0.43569
 H681 H 0.18362 0.50362 0.44292
 H682 H 0.20724 0.54113 0.50113
 H683 H 0.29586 0.58186 0.43646
 H684 H 0.27057 0.54599 0.37893
 H685 H 0.16648 0.60535 0.38355
 H686 H 0.18987 0.64309 0.44038
 C687 C 0.70278 0.05144 0.91260
 C688 C 0.71532 0.09051 0.90042
 C689 C 0.73094 0.11416 0.93144
 C690 C 0.73099 0.09600 0.97100
 C691 C 0.68973 0.08201 0.97586
 C692 C 0.67466 0.05774 0.94466
 C693 C 0.73733 0.03455 0.93246
 C694 C 0.75253 0.05868 0.96455
 H695 H 0.71354 0.10131 0.87023
 H696 H 0.74132 0.14316 0.92405
 H697 H 0.67326 0.08236 1.00291
 H698 H 0.64908 0.03907 0.95026
 H699 H 0.74917 0.00567 0.92567
 H700 H 0.77669 0.04832 0.98274
 C701 C 0.71646 0.93736 0.60718
 C702 C 0.68428 0.93347 0.57505
 C703 C 0.69550 0.91274 0.54251
 C704 C 0.73821 0.89571 0.54404
 C705 C 0.76332 0.93355 0.55299
 C706 C 0.75232 0.95447 0.58562
 C707 C 0.72723 0.89461 0.61605
 C708 C 0.73869 0.87361 0.58423
 H709 H 0.65477 0.94566 0.57738
 H710 H 0.67499 0.90997 0.51819
 H711 H 0.78751 0.94425 0.53523
 H712 H 0.76724 0.98155 0.59460
 H713 H 0.72333 0.88040 0.64444
 H714 H 0.74504 0.84289 0.58825
 C715 C 0.21035 0.44330 0.09435
 C716 C 0.25513 0.43672 0.09355
 C717 C 0.26754 0.41480 0.06237
 C718 C 0.23445 0.40004 0.03328
 C719 C 0.20377 0.38029 0.06122
 C720 C 0.19200 0.40220 0.09230
 C721 C 0.20137 0.46158 0.05380
 C722 C 0.21383 0.43952 0.02237
 H723 H 0.27634 0.45171 0.11265
 H724 H 0.29890 0.41261 0.05767
 H725 H 0.19158 0.35107 0.05791
 H726 H 0.17089 0.39104 0.11373
 H727 H 0.18733 0.48999 0.05006
 H728 H 0.20948 0.45016 -0.00736
 C729 C -0.09289 0.29360 0.43790
 C730 C -0.05255 0.30468 0.45642
 C731 C -0.02064 0.29108 0.43574
 C732 C -0.03101 0.26734 0.39742
 C733 C -0.05982 0.23523 0.41383
 C734 C -0.09134 0.24870 0.43436
 C735 C -0.09069 0.30869 0.39567
 C736 C -0.05914 0.29590 0.37515
 H737 H -0.04928 0.32093 0.48397
 H738 H 0.00908 0.29665 0.44655
 H739 H -0.05456 0.20405 0.41410
 H740 H -0.11001 0.22851 0.45076
 H741 H -0.11221 0.32860 0.38281
 H742 H -0.05566 0.30608 0.34533
 C743 C 0.40133 0.79961 0.93740
 C744 C 0.43587 0.82854 0.93102
 C745 C 0.46619 0.81367 0.90972
 C746 C 0.46107 0.77017 0.89578
 C747 C 0.45237 0.74907 0.93578
 C748 C 0.42130 0.76404 0.95693
 C749 C 0.38971 0.78523 0.89629
 C750 C 0.41972 0.76994 0.87519
 H751 H 0.43947 0.85644 0.94639
 H752 H 0.49295 0.83093 0.90780
 H753 H 0.46939 0.72485 0.94742
 H754 H 0.41278 0.75248 0.98554
 H755 H 0.35972 0.78659 0.88453
 H756 H 0.41317 0.75905 0.84599
 C757 C 1.09519 0.79406 0.05557
 C758 C 1.05419 0.80259 0.03736
 C759 C 1.02311 0.78903 0.05936
 C760 C 1.03460 0.76776 0.09850
 C761 C 1.06388 0.73589 0.08306
 C762 C 1.09480 0.74953 0.06148
 C763 C 1.09317 0.81164 0.09706
 C764 C 1.06249 0.79847 0.11894
 H765 H 1.04921 0.81642 0.00901
 H766 H 0.99324 0.79276 0.04857
 H767 H 1.06016 0.70454 0.08553
 H768 H 1.11584 0.72983 0.04762
 H769 H 1.11409 0.83349 0.10835
 H770 H 1.05918 0.80997 0.14842
 C771 C 0.60852 0.29056 0.56003
 C772 C 0.57580 0.32119 0.56576
 C773 C 0.54399 0.30793 0.58654
 C774 C 0.54681 0.26475 0.60180
 C775 C 0.55526 0.24185 0.56271
 C776 C 0.58715 0.25493 0.54169
 C777 C 0.61873 0.27818 0.60228
 C778 C 0.58766 0.26465 0.62329
 H779 H 0.57718 0.35110 0.55465
 H780 H 0.51930 0.32734 0.59044
 H781 H 0.53767 0.21761 0.55137
 H782 H 0.59575 0.24163 0.51381
 H783 H 0.64740 0.28253 0.61635
 H784 H 0.59265 0.25715 0.65375
 C785 C 0.41229 0.20369 0.55921
 C786 C 0.44625 0.17445 0.56509
 C787 C 0.47714 0.18881 0.58667
 C788 C 0.47308 0.23209 0.60138
 C789 C 0.46440 0.25394 0.56175
 C790 C 0.43279 0.23950 0.54033
 C791 C 0.40142 0.21735 0.60056
 C792 C 0.43195 0.23210 0.62194
 H793 H 0.44899 0.14676 0.54930
 H794 H 0.50355 0.17139 0.58836
 H795 H 0.48177 0.27831 0.55056
 H796 H 0.42421 0.25161 0.51193
 H797 H 0.37154 0.21586 0.61230
 H798 H 0.42590 0.24239 0.65135
 C799 C 0.89823 0.71116 0.05688
 C800 C 0.90136 0.69305 0.09784
 C801 C 0.93323 0.70503 0.11902
 C802 C 0.96069 0.73586 0.09878
 C803 C 0.97048 0.71524 0.05874
 C804 C 0.93827 0.70243 0.03732
 C805 C 0.89953 0.75569 0.06371
 C806 C 0.93132 0.76838 0.08496
 H807 H 0.88036 0.67154 0.10925
 H808 H 0.93770 0.69246 0.14784
 H809 H 1.00000 0.71108 0.04736
 H810 H 0.94110 0.68826 0.00866
 H811 H 0.88061 0.77661 0.04873
 H812 H 0.93644 0.79960 0.08648
 C813 C 0.59621 0.71251 0.93818
 C814 C 0.56291 0.68176 0.93310
 C815 C 0.53101 0.69464 0.91219
 C816 C 0.53429 0.73753 0.89613
 C817 C 0.54361 0.76108 0.93482
 C818 C 0.57568 0.74846 0.95595
 C819 C 0.60598 0.72413 0.89571
 C820 C 0.57488 0.73731 0.87458
 H821 H 0.56394 0.65197 0.94450
 H822 H 0.50600 0.67511 0.90868
 H823 H 0.52645 0.78539 0.94586
 H824 H 0.58484 0.76218 0.98362
 H825 H 0.63451 0.71977 0.88180
 H826 H 0.57963 0.74434 0.84400
 C827 C 0.10442 0.21437 0.44375
 C828 C 0.10430 0.25847 0.43485
 C829 C 0.07301 0.27039 0.41251
 C830 C 0.04326 0.23724 0.39950
 C831 C 0.07076 0.20569 0.38092
 C832 C 0.10160 0.19417 0.40351
 C833 C 0.06373 0.20686 0.46276
 C834 C 0.03239 0.21865 0.44013
 H835 H 0.12581 0.27917 0.44713
 H836 H 0.06950 0.30143 0.40764
 H837 H 0.06722 0.19262 0.35206
 H838 H 0.12238 0.17206 0.39341
 H839 H 0.05920 0.19563 0.49232
 H840 H 0.00276 0.21575 0.45158
 C841 C 0.55033 0.15114 0.70054
 C842 C 0.56801 0.15353 0.65940
 C843 C 0.55554 0.18436 0.63781
 C844 C 0.52513 0.21204 0.65808
 C845 C 0.49241 0.18283 0.67264
 C846 C 0.50544 0.15177 0.69417
 C847 C 0.55944 0.19155 0.71950
 C848 C 0.54635 0.22289 0.69780
 H849 H 0.58919 0.13247 0.64796
 H850 H 0.56710 0.18753 0.60845
 H851 H 0.46098 0.18697 0.67002
 H852 H 0.48498 0.13147 0.70830
 H853 H 0.57299 0.19543 0.74844
 H854 H 0.55001 0.25250 0.70916
 C855 C 1.04438 0.65459 0.19458
 C856 C 1.03023 0.64409 0.15307
 C857 C 1.01508 0.67446 0.13261
 C858 C 1.01505 0.71496 0.15430
 C859 C 0.99342 0.70504 0.19385
 C860 C 1.00837 0.67363 0.21434
 C861 C 1.07340 0.68911 0.18952
 C862 C 1.05859 0.71991 0.16898
 H863 H 1.03135 0.61451 0.14073
 H864 H 1.00416 0.66881 0.10319
 H865 H 0.96947 0.72176 0.20632
 H866 H 0.99696 0.66514 0.24301
 H867 H 1.10230 0.69070 0.20374
 H868 H 1.07617 0.74639 0.16721
 C869 C 0.95240 0.84572 0.19878
 C870 C 0.98955 0.82699 0.21703
 C871 C 1.00465 0.79649 0.19510
 C872 C 0.98189 0.78716 0.15575
 C873 C 0.93895 0.78097 0.17108
 C874 C 0.92411 0.81060 0.19307
 C875 C 0.96493 0.85761 0.15732
 C876 C 0.98050 0.82821 0.13559
 H877 H 1.00220 0.83602 0.24525
 H878 H 1.03006 0.78050 0.20576
 H879 H 0.92253 0.75376 0.17046
 H880 H 0.89738 0.80564 0.21000
 H881 H 0.96279 0.88747 0.14608
 H882 H 0.99122 0.83495 0.10646
 C883 C 0.46761 0.34695 0.69886
 C884 C 0.45828 0.30675 0.71729
 C885 C 0.47225 0.27535 0.69633
 C886 C 0.49430 0.28584 0.65734
 C887 C 0.46448 0.31315 0.63578
 C888 C 0.45144 0.34419 0.65676
 C889 C 0.51280 0.34678 0.69385
 C890 C 0.52651 0.31543 0.67282
 H891 H 0.44301 0.30326 0.74524
 H892 H 0.46815 0.24588 0.70755
 H893 H 0.45469 0.31027 0.60563
 H894 H 0.43158 0.36572 0.64384
 H895 H 0.53323 0.36751 0.70755
 H896 H 0.55801 0.31183 0.67028
 C897 C 0.45347 0.65325 0.80037
 C898 C 0.44399 0.69300 0.78133
 C899 C 0.45845 0.72494 0.80171
 C900 C 0.48093 0.71539 0.84084
 C901 C 0.45115 0.68825 0.86289
 C902 C 0.43791 0.65648 0.84259
 C903 C 0.49864 0.65389 0.80569
 C904 C 0.51276 0.68577 0.82598
 H905 H 0.42816 0.69581 0.75347
 H906 H 0.45428 0.75422 0.79011
 H907 H 0.44180 0.69161 0.89301
 H908 H 0.41879 0.63466 0.85633
 H909 H 0.51855 0.63145 0.79497
 H910 H 0.54427 0.68879 0.82973
 C911 C -0.03914 0.14956 0.30624
 C912 C -0.00327 0.16859 0.28566
 C913 C 0.01147 0.20129 0.30503
 C914 C -0.01033 0.21248 0.34415
 C915 C -0.05394 0.21549 0.32928
 C916 C -0.06847 0.18336 0.31020
 C917 C -0.02447 0.14130 0.34799
 C918 C -0.00989 0.17301 0.36734
 H919 H 0.00894 0.15855 0.25785
 H920 H 0.03588 0.21766 0.29254
 H921 H -0.07194 0.24143 0.32980
 H922 H -0.09765 0.18317 0.29648
 H923 H -0.02478 0.11222 0.36132
 H924 H 0.00118 0.16890 0.39689
 C925 C 0.04995 0.34337 0.29524
 C926 C 0.03722 0.35642 0.33634
 C927 C 0.02269 0.32732 0.35917
 C928 C 0.02215 0.28547 0.34035
 C929 C -0.00067 0.29205 0.30063
 C930 C 0.01346 0.32223 0.27773
 C931 C 0.07937 0.30976 0.30233
 C932 C 0.06526 0.28035 0.32542
 H933 H 0.03921 0.38668 0.34685
 H934 H 0.01295 0.33474 0.38845
 H935 H -0.02542 0.27439 0.29032
 H936 H 0.00068 0.32934 0.24914
 H937 H 0.10673 0.30568 0.28631
 H938 H 0.08258 0.25403 0.32808
 C939 C 0.53913 0.84908 0.79537
 C940 C 0.55717 0.84716 0.83656
 C941 C 0.54411 0.81690 0.85865
 C942 C 0.51287 0.78911 0.83877
 C943 C 0.48069 0.81832 0.82367
 C944 C 0.49429 0.84900 0.80170
 C945 C 0.54702 0.80832 0.77705
 C946 C 0.53339 0.77746 0.79924
 H947 H 0.57898 0.86821 0.84777
 H948 H 0.55576 0.81432 0.88813
 H949 H 0.44918 0.81451 0.82649
 H950 H 0.47432 0.86956 0.78749
 H951 H 0.55991 0.80378 0.74810
 H952 H 0.53615 0.74767 0.78832
 C953 C 0.69429 0.54377 0.14814
 C954 C 0.65465 0.55986 0.15088
 C955 C 0.63320 0.54707 0.18435
 C956 C 0.65386 0.51895 0.21022
 C957 C 0.66705 0.48772 0.18269
 C958 C 0.68892 0.50109 0.14923
 C959 C 0.71340 0.55319 0.18605
 C960 C 0.69146 0.53963 0.21983
 H961 H 0.64197 0.58029 0.12968
 H962 H 0.60405 0.55872 0.18867
 H963 H 0.66813 0.45680 0.18909
 H964 H 0.70664 0.48027 0.13273
 H965 H 0.74237 0.56713 0.18889
 H966 H 0.70353 0.54374 0.24919
 C967 C 0.19652 1.04303 0.65066
 C968 C 0.21491 1.05205 0.69139
 C969 C 0.19271 1.03927 0.72257
 C970 C 0.15284 1.01837 0.71131
 C971 C 0.13316 1.04863 0.68304
 C972 C 0.15527 1.06071 0.65227
 C973 C 0.18964 0.99838 0.65134
 C974 C 0.16750 0.98569 0.68233
 H975 H 0.24369 1.06606 0.69542
 H976 H 0.20385 1.04317 0.75231
 H977 H 0.10376 1.06024 0.68568
 H978 H 0.14406 1.08145 0.63062
 H979 H 0.20442 0.97750 0.63224
 H980 H 0.16496 0.95446 0.68695
 C981 C 0.19151 0.96269 0.84810
 C982 C 0.18704 1.00544 0.84714
 C983 C 0.16508 1.01908 0.81362
 C984 C 0.15093 0.98796 0.78602
 C985 C 0.18796 0.96709 0.77647
 C986 C 0.20997 0.95336 0.81017
 C987 C 0.15150 0.94683 0.84530
 C988 C 0.12984 0.96005 0.81194
 H989 H 0.20481 1.02607 0.86440
 H990 H 0.16579 1.05012 0.80762
 H991 H 0.19974 0.96302 0.74717
 H992 H 0.23873 0.93955 0.80725
 H993 H 0.13833 0.92715 0.86696
 H994 H 0.09972 0.95013 0.80859
 C995 C 0.69880 0.46288 0.34539
 C996 C 0.65713 0.44545 0.34337
 C997 C 0.63526 0.45764 0.31240
 C998 C 0.65549 0.48798 0.28453
 C999 C 0.67097 0.52046 0.31374
 C1000 C 0.69287 0.50757 0.34486
 C1001 C 0.71687 0.45389 0.30481
 C1002 C 0.69487 0.46694 0.27348
 H1003 H 0.64552 0.42461 0.36477
 H1004 H 0.60575 0.44588 0.30921
 H1005 H 0.66929 0.55171 0.30916
 H1006 H 0.70815 0.52840 0.36404
 H1007 H 0.74530 0.43969 0.30100
 H1008 H 0.70593 0.46317 0.24387
 C1009 C 0.80427 0.45910 0.64960
 C1010 C 0.80740 0.42991 0.68367
 C1011 C 0.82695 0.44392 0.71584
 C1012 C 0.84319 0.48685 0.71255
 C1013 C 0.86630 0.48669 0.67292
 C1014 C 0.84648 0.47257 0.64122
 C1015 C 0.78474 0.49539 0.66853
 C1016 C 0.80465 0.50958 0.70128
 H1017 H 0.79259 0.40137 0.68373
 H1018 H 0.82660 0.42623 0.74208
 H1019 H 0.89611 0.49720 0.66868
 H1020 H 0.85972 0.47199 0.61201
 H1021 H 0.75722 0.50824 0.65840
 H1022 H 0.79299 0.53426 0.71761
 C1023 C 0.30171 -0.04412 0.15259
 C1024 C 0.34333 -0.03010 0.14242
 C1025 C 0.36454 -0.01624 0.17332
 C1026 C 0.34330 -0.01645 0.21401
 C1027 C 0.30397 0.00581 0.20477
 C1028 C 0.28272 -0.00829 0.17285
 C1029 C 0.30693 -0.07365 0.18623
 C1030 C 0.32783 -0.05962 0.21772
 H1031 H 0.35531 -0.03049 0.11266
 H1032 H 0.39418 -0.00596 0.16780
 H1033 H 0.29275 0.03014 0.22194
 H1034 H 0.25458 0.00431 0.16425
 H1035 H 0.29282 -0.10252 0.18649
 H1036 H 0.32952 -0.07759 0.24378
 C1037 C 0.30337 0.04587 0.34776
 C1038 C 0.34449 0.03124 0.35860
 C1039 C 0.36513 0.01641 0.32818
 C1040 C 0.34388 0.01646 0.28725
 C1041 C 0.30383 -0.00501 0.29644
 C1042 C 0.28309 0.01001 0.32794
 C1043 C 0.30946 0.07467 0.31370
 C1044 C 0.32981 0.05980 0.28273
 H1045 H 0.35652 0.03191 0.38848
 H1046 H 0.39440 0.00571 0.33425
 H1047 H 0.29195 -0.02954 0.27953
 H1048 H 0.25459 -0.00198 0.33661
 H1049 H 0.29615 0.10368 0.31268
 H1050 H 0.33176 0.07729 0.25640
 C1051 C 0.79736 0.54878 0.84396
 C1052 C 0.83783 0.53403 0.85690
 C1053 C 0.85978 0.51871 0.82760
 C1054 C 0.84065 0.51909 0.78569
 C1055 C 0.80001 0.49793 0.79278
 C1056 C 0.77784 0.51308 0.82316
 C1057 C 0.80530 0.57750 0.81017
 C1058 C 0.82729 0.56254 0.78045
 H1059 H 0.84825 0.53463 0.88737
 H1060 H 0.88839 0.50712 0.83505
 H1061 H 0.78853 0.47377 0.77513
 H1062 H 0.74859 0.50170 0.83001
 H1063 H 0.79199 0.60646 0.80821
 H1064 H 0.83081 0.58002 0.75428
 C1065 C 0.15276 0.68888 0.54776
 C1066 C 0.18690 0.68157 0.57699
 C1067 C 0.21748 0.66102 0.56163
 C1068 C 0.21244 0.64744 0.51786
 C1069 C 0.17114 0.62673 0.51775
 C1070 C 0.14113 0.64761 0.53346
 C1071 C 0.17276 0.70821 0.51207
 C1072 C 0.20366 0.68726 0.49686
 H1073 H 0.18799 0.69113 0.60752
 H1074 H 0.24310 0.65652 0.58000
 H1075 H 0.16493 0.59737 0.50717
 H1076 H 0.11150 0.63520 0.53597
 H1077 H 0.16390 0.73648 0.50019
 H1078 H 0.22011 0.69885 0.47217
 C1079 C 0.64817 0.19784 1.04255
 C1080 C 0.65042 0.15753 1.06188
 C1081 C 0.68171 0.13584 1.05092
 C1082 C 0.70992 0.15494 1.02005
 C1083 C 0.68076 0.16772 0.98643
 C1084 C 0.64919 0.18946 0.99805
 C1085 C 0.68850 0.21737 1.05116
 C1086 C 0.72024 0.19559 1.03945
 H1087 H 0.62876 0.14660 1.08290
 H1088 H 0.68477 0.10712 1.06383
 H1089 H 0.68559 0.16443 0.95522
 H1090 H 0.62991 0.20302 0.97641
 H1091 H 0.69186 0.24657 1.06404
 H1092 H 0.74979 0.20753 1.04304
 C1093 C 0.84640 0.19482 0.96359
 C1094 C 0.84466 0.15442 0.94937
 C1095 C 0.81181 0.13250 0.96344
 C1096 C 0.78518 0.15377 0.99046
 C1097 C 0.81245 0.16977 1.02116
 C1098 C 0.84552 0.19197 1.00665
 C1099 C 0.80799 0.21177 0.95337
 C1100 C 0.77478 0.18957 0.96799
 H1101 H 0.86687 0.14110 0.93047
 H1102 H 0.80954 0.10205 0.95494
 H1103 H 0.80652 0.17143 1.05228
 H1104 H 0.86235 0.21082 1.02666
 H1105 H 0.80438 0.23974 0.93833
 H1106 H 0.74519 0.20042 0.96335
 C1107 C 0.34558 0.69108 0.45692
 C1108 C 0.35658 0.64961 0.46976
 C1109 C 0.32614 0.62791 0.48365
 C1110 C 0.28518 0.64854 0.48445
 C1111 C 0.29466 0.68740 0.50776
 C1112 C 0.32599 0.70918 0.49368
 C1113 C 0.31127 0.68582 0.42766
 C1114 C 0.28039 0.66436 0.44155
 H1115 H 0.38652 0.63812 0.46857
 H1116 H 0.33210 0.59835 0.49316
 H1117 H 0.27829 0.69771 0.53307
 H1118 H 0.33485 0.73690 0.50721
 H1119 H 0.31020 0.70006 0.39898
 H1120 H 0.25408 0.66224 0.42359
 C1121 C 0.64876 0.80355 0.46444
 C1122 C 0.65066 0.80790 0.50956
 C1123 C 0.68345 0.82752 0.52304
 C1124 C 0.71274 0.84222 0.49063
 C1125 C 0.72093 0.80331 0.46756
 C1126 C 0.68806 0.78368 0.45402
 C1127 C 0.65280 0.84543 0.44891
 C1128 C 0.68527 0.86507 0.46184
 H1129 H 0.63047 0.79380 0.52997
 H1130 H 0.68851 0.82897 0.55443
 H1131 H 0.74992 0.79118 0.46243
 H1132 H 0.68992 0.75583 0.43827
 H1133 H 0.63124 0.85906 0.42942
 H1134 H 0.68932 0.89503 0.45247
 C1135 C 0.15053 0.30228 -0.04764
 C1136 C 0.17043 0.28338 -0.01139
 C1137 C 0.20242 0.30438 0.00290
 C1138 C 0.21212 0.34337 -0.01962
 C1139 C 0.21598 0.32795 -0.06284
 C1140 C 0.18446 0.30719 -0.07700
 C1141 C 0.14052 0.34379 -0.03399
 C1142 C 0.17154 0.36472 -0.01975
 H1143 H 0.16170 0.25534 0.00120
 H1144 H 0.21938 0.29311 0.02747
 H1145 H 0.24213 0.32960 -0.08074
 H1146 H 0.18489 0.29305 -0.10587
 H1147 H 0.11079 0.35582 -0.03480
 H1148 H 0.16622 0.39419 -0.00943
 C1149 C 0.34530 0.30192 0.04282
 C1150 C 0.35687 0.34272 0.02810
 C1151 C 0.32671 0.36368 0.01306
 C1152 C 0.28540 0.34310 0.01321
 C1153 C 0.29397 0.30323 -0.00834
 C1154 C 0.32515 0.28211 0.00682
 C1155 C 0.31129 0.30835 0.07165
 C1156 C 0.28070 0.32912 0.05673
 H1157 H 0.38704 0.35414 0.02858
 H1158 H 0.33324 0.39254 0.00175
 H1159 H 0.27695 0.29171 -0.03301
 H1160 H 0.33341 0.25371 -0.00519
 H1161 H 0.31002 0.29502 0.10076
 H1162 H 0.25444 0.33139 0.07434
 C1163 C 0.84786 0.79271 0.54254
 C1164 C 0.80676 0.77510 0.55182
 C1165 C 0.77580 0.79822 0.54004
 C1166 C 0.78772 0.83781 0.51988
 C1167 C 0.81723 0.85626 0.55040
 C1168 C 0.84758 0.83334 0.56164
 C1169 C 0.84619 0.80011 0.49805
 C1170 C 0.81548 0.82291 0.48628
 H1171 H 0.80186 0.74612 0.56430
 H1172 H 0.74569 0.78798 0.54392
 H1173 H 0.81559 0.88527 0.56308
 H1174 H 0.86962 0.84342 0.58303
 H1175 H 0.86586 0.78616 0.47700
 H1176 H 0.81062 0.82648 0.45508
   
