data_POSCAR
  _audit_creation_date              2014-09-24
  _audit_creation_method            'ToBaCCo'
  _symmetry_space_group_name_H-M    'P1'
  _symmetry_Int_Tables_number       1
  _symmetry_cell_setting            triclinic
  loop_
  _symmetry_equiv_pos_as_xyz
 x,y,z
_cell_length_a 48.0477
_cell_length_b 47.9725
_cell_length_c 43.7566
_cell_angle_alpha 90.090000
_cell_angle_beta 89.955700
_cell_angle_gamma 119.956400
loop_
  _atom_site_label
  _atom_site_type_symbol
  _atom_site_fract_x
  _atom_site_fract_y
  _atom_site_fract_z
O1 O 0.00157 0.52709 -0.03962
 O2 O 0.04011 0.49218 0.00733
 O3 O 0.00149 0.47294 -0.03976
 O4 O 0.04022 0.54636 0.00742
 O5 O -0.00165 0.52546 0.03853
 O6 O -0.04039 0.45204 -0.00866
 O7 O -0.00177 0.47128 0.03843
 O8 O -0.04030 0.50620 -0.00851
 Cu9 Cu 0.02507 0.51174 -0.01929
 Cu10 Cu -0.02525 0.48663 0.01809
 C11 C -0.02600 0.52229 -0.03214
 C12 C 0.02580 0.47609 0.03096
 C13 C -0.02612 0.45022 -0.03234
 C14 C 0.02594 0.54819 0.03108
 O15 O 0.54693 0.50629 -0.00786
 O16 O 0.47363 0.47163 0.03926
 O17 O 0.49296 0.45220 -0.00781
 O18 O 0.52761 0.52575 0.03919
 O19 O 0.50661 0.54663 0.00808
 O20 O 0.47196 0.47308 -0.03892
 O21 O 0.45263 0.49251 0.00815
 O22 O 0.52592 0.52718 -0.03897
 Cu23 Cu 0.51240 0.48686 0.01884
 Cu24 Cu 0.48716 0.51195 -0.01855
 C25 C 0.54868 0.52234 -0.03152
 C26 C 0.45088 0.47646 0.03181
 C27 C 0.47686 0.45034 -0.03146
 C28 C 0.52273 0.54849 0.03171
 O29 O 0.52635 0.99899 -0.03929
 O30 O 0.45284 0.96038 0.00751
 O31 O 0.47237 0.99907 -0.03951
 O32 O 0.50684 0.96031 0.00774
 O33 O 0.52766 1.00225 0.03889
 O34 O 0.49319 1.04101 -0.00836
 O35 O 0.47366 1.00232 0.03867
 O36 O 0.54718 1.04094 -0.00814
 Cu37 Cu 0.48750 0.97546 -0.01902
 Cu38 Cu 0.51252 1.02586 0.01841
 C39 C 0.54905 1.02661 -0.03177
 C40 C 0.45096 0.97470 0.03115
 C41 C 0.47721 1.02672 -0.03207
 C42 C 0.52283 0.97461 0.03145
 O43 O 1.04045 0.54699 0.49142
 O44 O 1.00198 0.47356 0.53841
 O45 O 1.04057 0.49293 0.49130
 O46 O 1.00182 0.52760 0.53848
 O47 O 0.95993 0.50657 0.50739
 O48 O 0.99868 0.47190 0.46023
 O49 O 0.96009 0.45252 0.50733
 O50 O 0.99856 0.52595 0.46033
 Cu51 Cu 1.02543 0.51239 0.51804
 Cu52 Cu 0.97509 0.48711 0.48068
 C53 C 1.02613 0.54874 0.46779
 C54 C 0.97442 0.45077 0.53096
 C55 C 1.02630 0.47681 0.46764
 C56 C 0.97422 0.52271 0.53104
 O57 O 0.45241 0.49320 0.49257
 O58 O 0.52592 0.52805 0.53938
 O59 O 0.50643 0.54726 0.49238
 O60 O 0.47189 0.47400 0.53960
 O61 O 0.49269 0.45287 0.50845
 O62 O 0.52723 0.52613 0.46122
 O63 O 0.54672 0.50692 0.50822
 O64 O 0.47321 0.47206 0.46142
 Cu65 Cu 0.48706 0.51276 0.51913
 Cu66 Cu 0.51206 0.48736 0.48169
 C67 C 0.45053 0.47699 0.46894
 C68 C 0.54861 0.52313 0.53185
 C69 C 0.52242 0.54894 0.46868
 C70 C 0.47670 0.45119 0.53215
 O71 O 0.54741 0.04029 0.50782
 O72 O 0.47411 0.00175 0.46070
 O73 O 0.49340 0.04033 0.50790
 O74 O 0.52812 0.00169 0.46062
 O75 O 0.50716 -0.04031 0.49158
 O76 O 0.47244 -0.00168 0.53886
 O77 O 0.45316 -0.04026 0.49166
 O78 O 0.52646 -0.00172 0.53878
 Cu79 Cu 0.51288 0.02525 0.48114
 Cu80 Cu 0.48769 -0.02523 0.51834
 C81 C 0.54919 0.02591 0.53141
 C82 C 0.45139 -0.02588 0.46807
 C83 C 0.47731 0.02597 0.53152
 C84 C 0.52325 -0.02596 0.46796
 C85 C 0.30216 0.43263 0.23475
 C86 C 0.30210 0.43268 0.26611
 C87 C 0.27134 0.42478 0.27512
 N88 N 0.25258 0.41954 0.25033
 C89 C 0.27144 0.42469 0.22561
 C90 C 0.26082 0.42129 0.30575
 C91 C 0.23030 0.41609 0.31463
 C92 C 0.21754 0.40745 0.34382
 C93 C 0.18891 0.40748 0.34375
 C94 C 0.18494 0.41614 0.31453
 N95 N 0.21031 0.42142 0.29701
 C96 C 0.15968 0.42138 0.30552
 C97 C 0.15277 0.42480 0.27484
 C98 C 0.12992 0.43268 0.26567
 C99 C 0.12995 0.43255 0.23431
 C100 C 0.15281 0.42460 0.22532
 N101 N 0.16642 0.41951 0.25013
 C102 C 0.15978 0.42096 0.19470
 C103 C 0.18510 0.41573 0.18583
 C104 C 0.18919 0.40696 0.15666
 C105 C 0.21785 0.40700 0.15672
 C106 C 0.23052 0.41580 0.18593
 N107 N 0.21045 0.42115 0.20345
 C108 C 0.26103 0.42109 0.19494
 H109 H 0.32250 0.43776 0.22035
 H110 H 0.32238 0.43787 0.28060
 H111 H 0.21577 0.43196 0.22481
 H112 H 0.22802 0.40219 0.36329
 H113 H 0.17308 0.40225 0.36316
 H114 H 0.11475 0.43789 0.28006
 H115 H 0.11480 0.43765 0.21981
 H116 H 0.22843 0.40170 0.13732
 H117 H 0.21572 0.43214 0.27564
 H118 H 0.17342 0.40161 0.13719
 C119 C 0.56656 0.69760 0.26580
 C120 C 0.56660 0.69759 0.23445
 C121 C 0.57456 0.72839 0.22539
 N122 N 0.57975 0.74724 0.25016
 C123 C 0.57450 0.72841 0.27490
 C124 C 0.57814 0.73886 0.19475
 C125 C 0.58337 0.76940 0.18581
 C126 C 0.59205 0.78210 0.15661
 C127 C 0.59204 0.81078 0.15662
 C128 C 0.58336 0.81485 0.18582
 N129 N 0.57803 0.78948 0.20339
 C130 C 0.57814 0.84020 0.19478
 C131 C 0.57464 0.84719 0.22544
 C132 C 0.56678 0.87012 0.23454
 C133 C 0.56679 0.87015 0.26589
 C134 C 0.57467 0.84725 0.27495
 N135 N 0.57982 0.83356 0.25018
 C136 C 0.57819 0.84033 0.30560
 C137 C 0.58339 0.81499 0.31453
 C138 C 0.59208 0.81098 0.34372
 C139 C 0.59203 0.78226 0.34371
 C140 C 0.58331 0.76950 0.31452
 N141 N 0.57801 0.78956 0.29695
 C142 C 0.57802 0.73891 0.30556
 H143 H 0.56135 0.67726 0.28023
 H144 H 0.56142 0.67723 0.21999
 H145 H 0.56726 0.78417 0.27559
 H146 H 0.59732 0.77152 0.13717
 H147 H 0.59730 0.82657 0.13718
 H148 H 0.56164 0.88530 0.22010
 H149 H 0.56167 0.88537 0.28035
 H150 H 0.59729 0.77172 0.36315
 H151 H 0.56730 0.78414 0.22476
 H152 H 0.59738 0.82682 0.36317
 C153 C 0.13050 0.69749 0.26515
 C154 C 0.13048 0.69745 0.23379
 C155 C 0.15327 0.72824 0.22472
 N156 N 0.16688 0.74710 0.24947
 C157 C 0.15330 0.72829 0.27423
 C158 C 0.16018 0.73868 0.19406
 C159 C 0.18539 0.76924 0.18513
 C160 C 0.18937 0.78194 0.15594
 C161 C 0.21795 0.81065 0.15594
 C162 C 0.23069 0.81472 0.18513
 N163 N 0.21073 0.78933 0.20269
 C164 C 0.26117 0.84007 0.19407
 C165 C 0.27168 0.84702 0.22472
 C166 C 0.30242 0.86990 0.23377
 C167 C 0.30248 0.86989 0.26513
 C168 C 0.27177 0.84701 0.27423
 N169 N 0.25293 0.83337 0.24949
 C170 C 0.26138 0.84005 0.30490
 C171 C 0.23088 0.81476 0.31385
 C172 C 0.21819 0.81076 0.34306
 C173 C 0.18955 0.78210 0.34305
 C174 C 0.18551 0.76935 0.31384
 N175 N 0.21085 0.78937 0.29626
 C176 C 0.16023 0.73881 0.30488
 H177 H 0.11538 0.67716 0.27959
 H178 H 0.11535 0.67710 0.21934
 H179 H 0.21620 0.78398 0.27488
 H180 H 0.17357 0.77137 0.13650
 H181 H 0.22844 0.82646 0.13651
 H182 H 0.32269 0.88509 0.21931
 H183 H 0.32280 0.88506 0.27955
 H184 H 0.17377 0.77158 0.36250
 H185 H 0.21613 0.78399 0.22405
 H186 H 0.22873 0.82657 0.36251
 C187 C 0.86958 0.56686 0.76531
 C188 C 0.86958 0.56688 0.73395
 C189 C 0.84674 0.57482 0.72492
 N190 N 0.83312 0.58000 0.74971
 C191 C 0.84674 0.57478 0.77444
 C192 C 0.83980 0.57837 0.69429
 C193 C 0.81452 0.58364 0.68540
 C194 C 0.81049 0.59236 0.65623
 C195 C 0.78187 0.59241 0.65628
 C196 C 0.76917 0.58370 0.68548
 N197 N 0.78919 0.57832 0.70300
 C198 C 0.73868 0.57851 0.69446
 C199 C 0.72820 0.57491 0.72512
 C200 C 0.69746 0.56699 0.73421
 C201 C 0.69744 0.56690 0.76557
 C202 C 0.72817 0.57478 0.77463
 N203 N 0.74699 0.58002 0.74987
 C204 C 0.73861 0.57823 0.80528
 C205 C 0.76912 0.58348 0.81419
 C206 C 0.78184 0.59216 0.84340
 C207 C 0.81050 0.59218 0.84334
 C208 C 0.81452 0.58351 0.81411
 N209 N 0.78916 0.57817 0.79657
 C210 C 0.83981 0.57829 0.80511
 H211 H 0.88474 0.56167 0.77971
 H212 H 0.88473 0.56172 0.71947
 H213 H 0.78380 0.56743 0.77518
 H214 H 0.82627 0.59763 0.63677
 H215 H 0.77134 0.59771 0.63687
 H216 H 0.67717 0.56188 0.71978
 H217 H 0.67712 0.56172 0.78002
 H218 H 0.82630 0.59745 0.86277
 H219 H 0.78383 0.56756 0.72435
 H220 H 0.77130 0.59741 0.86287
 C221 C 0.43332 0.13047 0.73488
 C222 C 0.43341 0.13049 0.76624
 C223 C 0.42550 0.15336 0.77540
 N224 N 0.42024 0.16699 0.75070
 C225 C 0.42537 0.15334 0.72589
 C226 C 0.42205 0.16033 0.80609
 C227 C 0.41677 0.18562 0.81510
 C228 C 0.40810 0.18963 0.84433
 C229 C 0.40804 0.21829 0.84439
 C230 C 0.41668 0.23103 0.81521
 N231 N 0.42204 0.21099 0.79758
 C232 C 0.42187 0.26157 0.80632
 C233 C 0.42535 0.27206 0.77569
 C234 C 0.43324 0.30285 0.76667
 C235 C 0.43320 0.30285 0.73531
 C236 C 0.42529 0.27206 0.72618
 N237 N 0.42014 0.25322 0.75090
 C238 C 0.42171 0.26158 0.69551
 C239 C 0.41649 0.23103 0.68650
 C240 C 0.40776 0.21829 0.65729
 C241 C 0.40778 0.18961 0.65723
 C242 C 0.41651 0.18559 0.68639
 N243 N 0.42186 0.21098 0.70401
 C244 C 0.42178 0.16027 0.69526
 H245 H 0.43846 0.11529 0.72038
 H246 H 0.43861 0.11533 0.78062
 H247 H 0.43262 0.21635 0.72537
 H248 H 0.40287 0.17382 0.86374
 H249 H 0.40276 0.22882 0.86387
 H250 H 0.43842 0.32319 0.78116
 H251 H 0.43834 0.32319 0.72091
 H252 H 0.40250 0.17380 0.63776
 H253 H 0.43275 0.21638 0.77620
 H254 H 0.40247 0.22884 0.63789
 C255 C 0.69794 0.13067 0.73430
 C256 C 0.69796 0.13075 0.76566
 C257 C 0.72872 0.15356 0.77471
 N258 N 0.74752 0.16709 0.74994
 C259 C 0.72869 0.15344 0.72520
 C260 C 0.73921 0.16055 0.80536
 C261 C 0.76975 0.18580 0.81428
 C262 C 0.78248 0.18983 0.84347
 C263 C 0.81115 0.21846 0.84345
 C264 C 0.81517 0.23115 0.81425
 N265 N 0.78979 0.21113 0.79669
 C266 C 0.84047 0.26165 0.80529
 C267 C 0.84741 0.27205 0.77463
 C268 C 0.87027 0.30279 0.76552
 C269 C 0.87026 0.30271 0.73416
 C270 C 0.84740 0.27191 0.72511
 N271 N 0.83377 0.25316 0.74989
 C272 C 0.84045 0.26136 0.69447
 C273 C 0.81512 0.23083 0.68555
 C274 C 0.81104 0.21802 0.65636
 C275 C 0.78236 0.18941 0.65637
 C276 C 0.76967 0.18550 0.68558
 N277 N 0.78975 0.21089 0.70314
 C278 C 0.73914 0.16028 0.69454
 H279 H 0.67761 0.11552 0.71987
 H280 H 0.67765 0.11566 0.78012
 H281 H 0.78442 0.21634 0.72450
 H282 H 0.77195 0.17406 0.86291
 H283 H 0.82697 0.22899 0.86288
 H284 H 0.88543 0.32316 0.77995
 H285 H 0.88542 0.32299 0.71969
 H286 H 0.77179 0.17357 0.63694
 H287 H 0.78442 0.21650 0.77533
 H288 H 0.82683 0.22848 0.63691
 C289 C 0.07213 0.44545 0.08776
 N290 N 0.05884 0.43191 0.11502
 N291 N 0.07536 0.42514 0.13523
 C292 C 0.10566 0.43172 0.12880
 N293 N 0.11891 0.44518 0.10150
 N294 N 0.10240 0.45195 0.08129
 C295 C 0.05529 0.45499 0.06704
 C296 C 0.04157 0.46405 0.05022
 C297 C 0.12427 0.42669 0.15144
 C298 C 0.14022 0.42352 0.17089
 C299 C 0.55333 0.62580 0.08831
 N300 N 0.56696 0.62626 0.11557
 N301 N 0.57378 0.64972 0.13566
 C302 C 0.56717 0.67343 0.12910
 N303 N 0.55363 0.67303 0.10180
 N304 N 0.54682 0.64957 0.08170
 C305 C 0.54378 0.59926 0.06769
 C306 C 0.53472 0.57638 0.05094
 C307 C 0.57227 0.69728 0.15162
 C308 C 0.57550 0.71657 0.17100
 C309 C 0.37381 0.92815 0.08767
 N310 N 0.37336 0.94136 0.11496
 N311 N 0.34998 0.92475 0.13504
 C312 C 0.32633 0.89442 0.12844
 N313 N 0.32673 0.88124 0.10111
 N314 N 0.35011 0.89785 0.08103
 C315 C 0.40028 0.94510 0.06706
 C316 C 0.42312 0.95888 0.05033
 C317 C 0.30257 0.87571 0.15096
 C318 C 0.28336 0.85968 0.17033
 C319 C 0.92767 0.55335 0.58776
 N320 N 0.94088 0.56704 0.61502
 N321 N 0.92430 0.57389 0.63513
 C322 C 0.89402 0.56727 0.62858
 N323 N 0.88084 0.55367 0.60128
 N324 N 0.89742 0.54682 0.58117
 C325 C 0.94460 0.54378 0.56711
 C326 C 0.95838 0.53471 0.55032
 C327 C 0.87535 0.57242 0.65112
 C328 C 0.85936 0.57569 0.67051
 C329 C 0.44634 0.37428 0.58903
 N330 N 0.45252 0.35028 0.58232
 N331 N 0.44576 0.32693 0.60246
 C332 C 0.43262 0.32687 0.62992
 N333 N 0.42636 0.35081 0.63660
 N334 N 0.43311 0.37416 0.61646
 C335 C 0.45580 0.40067 0.56832
 C336 C 0.46479 0.42344 0.55148
 C337 C 0.42755 0.30310 0.65245
 C338 C 0.42434 0.28385 0.67181
 C339 C 0.62620 0.07237 0.58816
 N340 N 0.65005 0.10257 0.58151
 N341 N 0.67346 0.11915 0.60160
 C342 C 0.67373 0.10602 0.62896
 N343 N 0.64993 0.07578 0.63557
 N344 N 0.62653 0.05921 0.61548
 C345 C 0.59976 0.05545 0.56751
 C346 C 0.57696 0.04170 0.55071
 C347 C 0.69756 0.12470 0.65146
 C348 C 0.71685 0.14070 0.67081
 C349 C 0.44741 0.07247 0.91223
 N350 N 0.43397 0.05931 0.88488
 N351 N 0.42710 0.07590 0.86483
 C352 C 0.43346 0.10613 0.87153
 N353 N 0.44682 0.11926 0.89891
 N354 N 0.45369 0.10267 0.91896
 C355 C 0.45695 0.05553 0.93285
 C356 C 0.46598 0.04174 0.94963
 C357 C 0.42822 0.12480 0.84908
 C358 C 0.42485 0.14078 0.82977
 C359 C 0.62571 0.55294 0.91177
 N360 N 0.62612 0.56661 0.88454
 N361 N 0.64953 0.57349 0.86444
 C362 C 0.67324 0.56691 0.87096
 N363 N 0.67289 0.55333 0.89822
 N364 N 0.64948 0.54644 0.91832
 C365 C 0.59926 0.54337 0.93242
 C366 C 0.57646 0.53432 0.94921
 C367 C 0.69707 0.57213 0.84843
 C368 C 0.71634 0.57547 0.82905
 C369 C 0.92823 0.37461 0.91185
 N370 N 0.89804 0.35076 0.91846
 N371 N 0.88150 0.32735 0.89832
 C372 C 0.89464 0.32708 0.87096
 N373 N 0.92487 0.35087 0.86438
 N374 N 0.94141 0.37428 0.88453
 C375 C 0.94512 0.40108 0.93254
 C376 C 0.95887 0.42392 0.94936
 C377 C 0.87601 0.30325 0.84841
 C378 C 0.86004 0.28396 0.82903
 C379 C 0.55320 0.92837 0.41213
 N380 N 0.54698 0.89820 0.41880
 N381 N 0.55382 0.88160 0.39868
 C382 C 0.56708 0.89468 0.37127
 N383 N 0.57338 0.92489 0.36464
 N384 N 0.56654 0.94148 0.38476
 C385 C 0.54363 0.94530 0.43281
 C386 C 0.53455 0.95906 0.44963
 C387 C 0.57224 0.87597 0.34874
 C388 C 0.57551 0.85995 0.32936
 C389 C 0.37340 0.44632 0.41238
 N390 N 0.34985 0.45319 0.41881
 N391 N 0.32648 0.44635 0.39869
 C392 C 0.32595 0.43243 0.37153
 N393 N 0.34944 0.42547 0.36514
 N394 N 0.37281 0.43231 0.38526
 C395 C 0.39985 0.45589 0.43301
 C396 C 0.42268 0.46497 0.44975
 C397 C 0.30221 0.42728 0.34896
 C398 C 0.28301 0.42400 0.32955
 C399 C 0.07248 0.62590 0.41121
 N400 N 0.05931 0.62624 0.38390
 N401 N 0.07586 0.64967 0.36383
 C402 C 0.10607 0.67347 0.37046
 N403 N 0.11920 0.67319 0.39781
 N404 N 0.10265 0.64976 0.41788
 C405 C 0.05560 0.59942 0.43181
 C406 C 0.04188 0.57657 0.44856
 C407 C 0.12472 0.69729 0.34797
 C408 C 0.14069 0.71656 0.32862
 C409 C 0.92761 0.55309 0.91133
 N410 N 0.94074 0.56654 0.88400
 N411 N 0.92419 0.57343 0.86395
 C412 C 0.89400 0.56707 0.87062
 N413 N 0.88090 0.55370 0.89799
 N414 N 0.89746 0.54682 0.91804
 C415 C 0.94449 0.54347 0.93192
 C416 C 0.95823 0.53436 0.94865
 C417 C 0.87535 0.57226 0.84815
 C418 C 0.85937 0.57557 0.82881
 C419 C 0.44691 0.37457 0.91292
 N420 N 0.45359 0.35089 0.91941
 N421 N 0.44674 0.32744 0.89929
 C422 C 0.43301 0.32697 0.87208
 N423 N 0.42624 0.35060 0.86563
 N424 N 0.43309 0.37404 0.88575
 C425 C 0.45648 0.40110 0.93355
 C426 C 0.46557 0.42399 0.95031
 C427 C 0.42785 0.30313 0.84952
 C428 C 0.42456 0.28385 0.83012
 C429 C 0.62623 0.07306 0.91172
 N430 N 0.64989 0.10340 0.91826
 N431 N 0.67333 0.11992 0.89819
 C432 C 0.67382 0.10659 0.87098
 N433 N 0.65021 0.07621 0.86448
 N434 N 0.62678 0.05970 0.88455
 C435 C 0.59975 0.05618 0.93232
 C436 C 0.57690 0.04242 0.94905
 C437 C 0.69766 0.12517 0.84848
 C438 C 0.71694 0.14108 0.82912
 C439 C 0.07193 0.44678 0.41191
 N440 N 0.10209 0.45307 0.41856
 N441 N 0.11863 0.44617 0.39845
 C442 C 0.10551 0.43277 0.37108
 N443 N 0.07532 0.42639 0.36446
 N444 N 0.05878 0.43329 0.38456
 C445 C 0.05504 0.45639 0.43257
 C446 C 0.04129 0.46550 0.44936
 C447 C 0.12415 0.42753 0.34856
 C448 C 0.14012 0.42418 0.32922
 C449 C 0.55290 0.62597 0.41193
 N450 N 0.56641 0.62627 0.38462
 N451 N 0.57325 0.64968 0.36453
 C452 C 0.56679 0.67351 0.37115
 N453 N 0.55336 0.67326 0.39849
 N454 N 0.54652 0.64984 0.41858
 C455 C 0.54338 0.59952 0.43258
 C456 C 0.53436 0.57672 0.44938
 C457 C 0.57197 0.69734 0.34865
 C458 C 0.57529 0.71663 0.32929
 C459 C 0.37437 0.92772 0.41131
 N460 N 0.35053 0.89750 0.41792
 N461 N 0.32711 0.88097 0.39782
 C462 C 0.32682 0.89416 0.37051
 N463 N 0.35061 0.92441 0.36394
 N464 N 0.37403 0.94094 0.38404
 C465 C 0.40082 0.94460 0.43197
 C466 C 0.42361 0.95834 0.44877
 C467 C 0.30297 0.87554 0.34800
 C468 C 0.28367 0.85958 0.32864
 C469 C 0.55319 0.92804 0.08829
 N470 N 0.56668 0.94126 0.11561
 N471 N 0.57349 0.92469 0.13573
 C472 C 0.56702 0.89440 0.12914
 N473 N 0.55362 0.88121 0.10179
 N474 N 0.54681 0.89778 0.08167
 C475 C 0.54371 0.94497 0.06760
 C476 C 0.53473 0.95876 0.05077
 C477 C 0.57217 0.87575 0.15167
 C478 C 0.57544 0.85976 0.17104
 C479 C 0.37386 0.44590 0.08854
 N480 N 0.37364 0.43259 0.11593
 N481 N 0.35026 0.42579 0.13604
 C482 C 0.32639 0.43209 0.12937
 N483 N 0.32655 0.44531 0.10195
 N484 N 0.34993 0.45211 0.08184
 C485 C 0.40030 0.45544 0.06788
 C486 C 0.42310 0.46448 0.05109
 C487 C 0.30259 0.42698 0.15189
 C488 C 0.28332 0.42374 0.17124
 C489 C 0.07242 0.62546 0.08773
 N490 N 0.10263 0.64925 0.08109
 N491 N 0.11919 0.67274 0.10116
 C492 C 0.10603 0.67315 0.12847
 N493 N 0.07578 0.64942 0.13507
 N494 N 0.05923 0.62593 0.11500
 C495 C 0.05552 0.59892 0.06711
 C496 C 0.04176 0.57605 0.05034
 C497 C 0.12467 0.69704 0.15097
 C498 C 0.14064 0.71636 0.17032
 C499 C 0.44673 0.07242 0.58847
 N500 N 0.43323 0.05920 0.61576
 N501 N 0.42640 0.07576 0.63594
 C502 C 0.43286 0.10604 0.62944
 N503 N 0.44627 0.11924 0.60211
 N504 N 0.45310 0.10268 0.58193
 C505 C 0.45627 0.05553 0.56773
 C506 C 0.46532 0.04177 0.55087
 C507 C 0.42771 0.12470 0.65204
 C508 C 0.42445 0.14069 0.67146
 C509 C 0.62585 0.55382 0.58827
 N510 N 0.62635 0.56752 0.61555
 N511 N 0.64978 0.57433 0.63559
 C512 C 0.67341 0.56765 0.62895
 N513 N 0.67297 0.55405 0.60163
 N514 N 0.64954 0.54724 0.58159
 C515 C 0.59933 0.54426 0.56771
 C516 C 0.57647 0.53518 0.55101
 C517 C 0.69722 0.57273 0.65142
 C518 C 0.71646 0.57592 0.67075
 C519 C 0.92815 0.37376 0.58773
 N520 N 0.94136 0.37355 0.61504
 N521 N 0.92485 0.35023 0.63521
 C522 C 0.89461 0.32641 0.62869
 N523 N 0.88143 0.32656 0.60133
 N524 N 0.89795 0.34989 0.58116
 C525 C 0.94498 0.40017 0.56702
 C526 C 0.95868 0.42296 0.55022
 C527 C 0.87599 0.30271 0.65129
 C528 C 0.86002 0.28353 0.67070
   
