data_POSCAR
  _audit_creation_date              2014-09-24
  _audit_creation_method            'ToBaCCo'
  _symmetry_space_group_name_H-M    'P1'
  _symmetry_Int_Tables_number       1
  _symmetry_cell_setting            triclinic
  loop_
  _symmetry_equiv_pos_as_xyz
 x,y,z
_cell_length_a 22.2725
_cell_length_b 22.2593
_cell_length_c 26.1650
_cell_angle_alpha 89.936000
_cell_angle_beta 90.096200
_cell_angle_gamma 120.342400
loop_
  _atom_site_label
  _atom_site_type_symbol
  _atom_site_fract_x
  _atom_site_fract_y
  _atom_site_fract_z
C1 C -0.03266 0.48558 1.25082
 C2 C 0.03782 0.52114 1.25117
 C3 C 0.07799 0.54222 1.29945
 C4 C 0.07876 0.54069 1.20336
 C5 C -0.07326 0.46619 1.20268
 C6 C -0.07346 0.46348 1.29866
 C7 C 0.11696 0.61289 1.31178
 C8 C 0.15760 0.63462 1.35593
 C9 C 0.16160 0.58603 1.38857
 C10 C 0.12152 0.51461 1.37586
 C11 C 0.07994 0.49305 1.33186
 C12 C 0.07573 0.58663 1.16805
 C13 C 0.11633 0.60555 1.12369
 C14 C 0.16026 0.57851 1.11401
 C15 C 0.16262 0.53226 1.14955
 C16 C 0.12261 0.51395 1.19387
 C17 C -0.07075 0.41963 1.16782
 C18 C -0.11273 0.39914 1.12403
 C19 C -0.15757 0.42521 1.11444
 C20 C -0.15907 0.47246 1.14936
 C21 C -0.11771 0.49230 1.19314
 C22 C -0.11714 0.39233 1.30805
 C23 C -0.15882 0.36992 1.35154
 C24 C -0.15830 0.41838 1.38628
 C25 C -0.11415 0.48990 1.37687
 C26 C -0.07191 0.51228 1.33334
 H27 H 0.11598 0.65141 1.28699
 H28 H 0.18708 0.69002 1.36362
 H29 H 0.12251 0.47516 1.39954
 H30 H 0.05027 0.43817 1.32253
 H31 H 0.04259 0.60830 1.17517
 H32 H 0.11363 0.64151 1.09719
 H33 H 0.12568 0.47863 1.22084
 H34 H -0.03730 0.39830 1.17502
 H35 H -0.11052 0.36255 1.09797
 H36 H -0.19328 0.49320 1.14342
 H37 H -0.12054 0.52795 1.21984
 H38 H -0.11916 0.35409 1.28144
 H39 H -0.19247 0.31450 1.35738
 H40 H -0.11272 0.52846 1.40281
 H41 H -0.03905 0.56750 1.32618
 H42 H 0.19628 0.51091 1.14358
 C43 C 0.51580 0.48146 1.24981
 C44 C 0.48055 0.51639 1.24983
 C45 C 0.45910 0.53552 1.29782
 C46 C 0.46165 0.53801 1.20182
 C47 C 0.53493 0.46002 1.20183
 C48 C 0.53745 0.46255 1.29779
 C49 C 0.38819 0.50918 1.30694
 C50 C 0.36644 0.52883 1.35051
 C51 C 0.41532 0.57612 1.38566
 C52 C 0.48658 0.60244 1.37649
 C53 C 0.50830 0.58217 1.33290
 C54 C 0.41501 0.48893 1.16670
 C55 C 0.39542 0.51092 1.12283
 C56 C 0.42250 0.58232 1.11347
 C57 C 0.46973 0.63105 1.14871
 C58 C 0.48869 0.60903 1.19254
 C59 C 0.58176 0.50924 1.16688
 C60 C 0.60207 0.48746 1.12333
 C61 C 0.57557 0.41613 1.11408
 C62 C 0.52807 0.36726 1.14908
 C63 C 0.50839 0.38906 1.19260
 C64 C 0.60844 0.48959 1.30712
 C65 C 0.63043 0.47036 1.35083
 C66 C 0.58171 0.42283 1.38588
 C67 C 0.51036 0.39582 1.37651
 C68 C 0.48839 0.41568 1.33277
 H69 H 0.34959 0.47348 1.28007
 H70 H 0.31121 0.50787 1.35612
 H71 H 0.52550 0.63907 1.40272
 H72 H 0.56337 0.60374 1.32601
 H73 H 0.39303 0.43378 1.17372
 H74 H 0.35880 0.47215 1.09651
 H75 H 0.52446 0.64751 1.21945
 H76 H 0.60344 0.56434 1.17385
 H77 H 0.63885 0.52637 1.09720
 H78 H 0.50696 0.31198 1.14342
 H79 H 0.47254 0.35045 1.21937
 H80 H 0.64690 0.52552 1.28031
 H81 H 0.68573 0.49182 1.35662
 H82 H 0.47159 0.35900 1.40269
 H83 H 0.43328 0.39369 1.32571
 H84 H 0.49123 0.68638 1.14295
 C85 C 0.51868 1.03588 1.25048
 C86 C 0.48339 0.96536 1.25075
 C87 C 0.46422 0.92517 1.29906
 C88 C 0.46194 0.92441 1.20284
 C89 C 0.54001 1.07637 1.20234
 C90 C 0.53771 1.07650 1.29843
 C91 C 0.49534 0.88589 1.31116
 C92 C 0.47591 0.84487 1.35514
 C93 C 0.42366 0.84105 1.38776
 C94 C 0.39289 0.88126 1.37549
 C95 C 0.41326 0.92314 1.33162
 C96 C 0.51119 0.92713 1.16805
 C97 C 0.48948 0.88574 1.12400
 C98 C 0.41818 0.84127 1.11406
 C99 C 0.36928 0.83933 1.14902
 C100 C 0.39101 0.88014 1.19305
 C101 C 0.49089 1.07775 1.16951
 C102 C 0.51259 1.11941 1.12554
 C103 C 0.58394 1.15992 1.11338
 C104 C 0.63256 1.15683 1.14632
 C105 C 0.61078 1.11612 1.19046
 C106 C 0.50573 1.11497 1.31033
 C107 C 0.52451 1.15574 1.35437
 C108 C 0.57690 1.16003 1.38719
 C109 C 0.60861 1.12071 1.37502
 C110 C 0.58890 1.07910 1.33111
 H111 H 0.53462 0.88680 1.28627
 H112 H 0.50107 0.81496 1.36279
 H113 H 0.35261 0.87998 1.39940
 H114 H 0.38837 0.95289 1.32248
 H115 H 0.56627 0.96047 1.17544
 H116 H 0.52840 0.88822 1.09795
 H117 H 0.35236 0.87718 1.21964
 H118 H 0.43596 1.04756 1.17845
 H119 H 0.47342 1.12012 1.10138
 H120 H 0.68790 1.18704 1.13877
 H121 H 0.64930 1.11566 1.21554
 H122 H 0.46617 1.11349 1.28533
 H123 H 0.49870 1.18501 1.36197
 H124 H 0.64904 1.12239 1.39910
 H125 H 0.61433 1.04986 1.32211
 H126 H 0.31400 0.80534 1.14286
 C127 C 1.03727 0.51967 0.74958
 C128 C 0.96677 0.48387 0.74990
 C129 C 0.92581 0.46454 0.70200
 C130 C 0.92638 0.46200 0.79811
 C131 C 1.07818 0.54105 0.79745
 C132 C 1.07747 0.53895 0.70135
 C133 C 0.88186 0.49123 0.69255
 C134 C 0.84036 0.47161 0.64886
 C135 C 0.84131 0.42408 0.61393
 C136 C 0.88564 0.39741 0.62345
 C137 C 0.92770 0.41761 0.66717
 C138 C 0.92865 0.51097 0.83300
 C139 C 0.88669 0.48889 0.87675
 C140 C 0.84207 0.41745 0.88631
 C141 C 0.84085 0.36880 0.85139
 C142 C 0.88221 0.39092 0.80765
 C143 C 1.07924 0.49185 0.83038
 C144 C 1.12076 0.51353 0.87439
 C145 C 1.16148 0.58493 0.88643
 C146 C 1.15888 0.63367 0.85331
 C147 C 1.11824 0.61189 0.80916
 C148 C 1.11647 0.50758 0.68931
 C149 C 1.15675 0.52635 0.64506
 C150 C 1.16019 0.57826 0.61210
 C151 C 1.12044 0.60947 0.62440
 C152 C 1.07918 0.58965 0.66853
 H153 H 0.87954 0.52718 0.71925
 H154 H 0.80654 0.49283 0.64297
 H155 H 0.88740 0.36057 0.59740
 H156 H 0.96075 0.39581 0.67434
 H157 H 0.96182 0.56615 0.82582
 H158 H 0.88871 0.52765 0.90278
 H159 H 0.87952 0.35247 0.78094
 H160 H 1.04878 0.43686 0.82153
 H161 H 1.12117 0.47431 0.89869
 H162 H 1.18933 0.68906 0.86077
 H163 H 1.11798 0.65043 0.78398
 H164 H 1.11573 0.46842 0.71436
 H165 H 1.18638 0.50093 0.63742
 H166 H 1.12148 0.64952 0.60024
 H167 H 1.04954 0.61463 0.67759
 H168 H 0.80685 0.31345 0.85729
 C169 C 0.48076 0.51577 0.74960
 C170 C 0.51556 0.48037 0.74975
 C171 C 0.53466 0.45895 0.70180
 C172 C 0.53721 0.46140 0.79783
 C173 C 0.45952 0.53507 0.79754
 C174 C 0.46197 0.53762 0.70153
 C175 C 0.50797 0.38799 0.69243
 C176 C 0.52740 0.36629 0.64874
 C177 C 0.57478 0.41528 0.61375
 C178 C 0.60147 0.48659 0.62318
 C179 C 0.58143 0.50826 0.66689
 C180 C 0.48822 0.41483 0.83301
 C181 C 0.51023 0.39497 0.87679
 C182 C 0.58157 0.42170 0.88605
 C183 C 0.63021 0.46889 0.85078
 C184 C 0.60818 0.48809 0.80704
 C185 C 0.50887 0.58176 0.83251
 C186 C 0.48732 0.60208 0.87614
 C187 C 0.41609 0.57574 0.88542
 C188 C 0.36708 0.52843 0.85036
 C189 C 0.38866 0.50872 0.80676
 C190 C 0.48883 0.60869 0.69243
 C191 C 0.46958 0.63088 0.64879
 C192 C 0.42220 0.58232 0.61353
 C193 C 0.39537 0.51089 0.62266
 C194 C 0.41525 0.48872 0.66633
 H195 H 0.47215 0.34934 0.71919
 H196 H 0.50619 0.31103 0.64291
 H197 H 0.63819 0.52558 0.59707
 H198 H 0.60322 0.56335 0.67398
 H199 H 0.43310 0.39307 0.82610
 H200 H 0.47150 0.35841 0.90312
 H201 H 0.64663 0.52377 0.78012
 H202 H 0.56391 0.60328 0.82552
 H203 H 0.52632 0.63873 0.90232
 H204 H 0.31186 0.50748 0.85606
 H205 H 0.34998 0.47298 0.77996
 H206 H 0.52462 0.64707 0.71937
 H207 H 0.49094 0.68622 0.64322
 H208 H 0.35866 0.47222 0.59633
 H209 H 0.39333 0.43354 0.67317
 H210 H 0.68550 0.49015 0.85644
 C211 C 0.48208 -0.03756 0.74973
 C212 C 0.51725 0.03291 0.74992
 C213 C 0.53860 0.07364 0.70197
 C214 C 0.53629 0.07340 0.79806
 C215 C 0.46268 -0.07817 0.79764
 C216 C 0.46063 -0.07798 0.70164
 C217 C 0.60952 0.11771 0.69223
 C218 C 0.63118 0.15883 0.64838
 C219 C 0.58218 0.15735 0.61361
 C220 C 0.51089 0.11290 0.62343
 C221 C 0.48926 0.07122 0.66731
 C222 C 0.58334 0.07154 0.83289
 C223 C 0.60320 0.11315 0.87683
 C224 C 0.57602 0.15697 0.88659
 C225 C 0.52834 0.15785 0.85167
 C226 C 0.50910 0.11684 0.80776
 C227 C 0.41225 -0.07963 0.83043
 C228 C 0.39264 -0.12074 0.87458
 C229 C 0.42373 -0.16063 0.88687
 C230 C 0.47530 -0.15756 0.85391
 C231 C 0.49394 -0.11733 0.80961
 C232 C 0.38984 -0.11732 0.68966
 C233 C 0.36789 -0.15767 0.64542
 C234 C 0.41637 -0.16076 0.61246
 C235 C 0.48774 -0.12070 0.62474
 C236 C 0.50961 -0.07941 0.66885
 H237 H 0.64817 0.12039 0.71880
 H238 H 0.68646 0.19277 0.64226
 H239 H 0.47193 0.11078 0.59749
 H240 H 0.43419 0.03803 0.67473
 H241 H 0.60551 0.03887 0.82556
 H242 H 0.64017 0.11147 0.90286
 H243 H 0.47304 0.11914 0.78110
 H244 H 0.38744 -0.04979 0.82136
 H245 H 0.35282 -0.12154 0.89877
 H246 H 0.50056 -0.18738 0.86160
 H247 H 0.53293 -0.11667 0.78454
 H248 H 0.35145 -0.11676 0.71473
 H249 H 0.31253 -0.18757 0.63777
 H250 H 0.52676 -0.12149 0.60056
 H251 H 0.56456 -0.04947 0.67789
 H252 H 0.50672 0.19128 0.85772
 O253 O 0.43664 0.64919 0.95737
 O254 O 0.43403 0.76277 0.93988
 C255 C 0.40249 0.79539 0.92985
 O256 O 0.35257 0.78947 0.95736
 O257 O 0.23878 0.67242 0.93928
 C258 C 0.20562 0.60785 0.92940
 O259 O 0.21106 0.56364 0.95711
 O260 O 0.32768 0.56680 0.93976
 C261 C 0.39222 0.59871 0.93015
 O262 O 0.43306 0.67128 1.05881
 O263 O 0.43801 0.78877 1.04156
 C264 C 0.39401 0.79501 1.06875
 O265 O 0.32958 0.76302 1.05866
 O266 O 0.21198 0.64991 1.04078
 C267 C 0.20577 0.59992 1.06844
 O268 O 0.23726 0.56729 1.05861
 O269 O 0.34970 0.56274 1.04120
 C270 C 0.40034 0.60672 1.06850
 Cr271 Cr 0.43208 0.71637 0.99940
 Cr272 Cr 0.28486 0.71697 0.99901
 Cr273 Cr 0.28312 0.56849 0.99916
 O274 O 0.33339 0.66727 0.99925
 O275 O 0.56211 0.34849 0.95814
 O276 O 0.56615 0.23544 0.94144
 C277 C 0.59861 0.20377 0.93159
 O278 O 0.64940 0.21084 0.95870
 O279 O 0.76296 0.32857 0.94131
 C280 C 0.79497 0.39304 0.93116
 O281 O 0.78805 0.43703 0.95785
 O282 O 0.67055 0.43214 0.94079
 C283 C 0.60602 0.39935 0.93099
 O284 O 0.56636 0.32740 1.05979
 O285 O 0.56281 0.21036 1.04308
 C286 C 0.60691 0.20430 1.07047
 O287 O 0.67138 0.23710 1.06039
 O288 O 0.78854 0.35099 1.04286
 C289 C 0.79531 0.40187 1.06958
 O290 O 0.76308 0.43376 1.05948
 O291 O 0.64925 0.43623 1.04237
 C292 C 0.59852 0.39199 1.06943
 Cr293 Cr 0.56785 0.28219 1.00062
 Cr294 Cr 0.71629 0.28356 1.00080
 Cr295 Cr 0.71600 0.43131 1.00013
 O296 O 0.66674 0.33238 1.00048
 O297 O 0.64831 0.43587 0.54201
 O298 O 0.76184 0.43300 0.55940
 C299 C 0.79424 0.40117 0.56909
 O300 O 0.78778 0.35079 0.54186
 O301 O 0.67068 0.23683 0.55893
 C302 C 0.60621 0.20415 0.56867
 O303 O 0.56203 0.21017 0.54146
 O304 O 0.56546 0.32688 0.55902
 C305 C 0.59761 0.39139 0.56894
 O306 O 0.67047 0.43282 0.44056
 O307 O 0.78771 0.43739 0.45797
 C308 C 0.79438 0.39361 0.43084
 O309 O 0.76199 0.32901 0.44038
 O310 O 0.64854 0.21115 0.45745
 C311 C 0.59814 0.20441 0.42999
 O312 O 0.56605 0.23651 0.43992
 O313 O 0.56189 0.34927 0.45761
 C314 C 0.60599 0.40022 0.43067
 Cr315 Cr 0.71537 0.43134 0.49997
 Cr316 Cr 0.71552 0.28364 0.49965
 Cr317 Cr 0.56728 0.28242 0.49951
 O318 O 0.66606 0.33249 0.49975
 O319 O 0.34892 0.56296 0.54150
 O320 O 0.23640 0.56742 0.55914
 C321 C 0.20427 0.59945 0.56909
 O322 O 0.21078 0.64968 0.54146
 O323 O 0.32863 0.76282 0.55938
 C324 C 0.39314 0.79522 0.56944
 O325 O 0.43698 0.78909 0.54190
 O326 O 0.43224 0.67150 0.55914
 C327 C 0.39969 0.60689 0.56875
 O328 O 0.32677 0.56711 0.44003
 O329 O 0.21001 0.56391 0.45754
 C330 C 0.20429 0.60806 0.42985
 O331 O 0.23763 0.67263 0.43991
 O332 O 0.35150 0.78984 0.45788
 C333 C 0.40171 0.79621 0.43042
 O334 O 0.43304 0.76330 0.44025
 O335 O 0.43572 0.64961 0.45759
 C336 C 0.39132 0.59907 0.43039
 Cr337 Cr 0.28222 0.56874 0.49953
 Cr338 Cr 0.28380 0.71704 0.49965
 Cr339 Cr 0.43111 0.71670 0.49973
 O340 O 0.33242 0.66748 0.49962
   
