data_POSCAR
  _audit_creation_date              2014-09-24
  _audit_creation_method            'ToBaCCo'
  _symmetry_space_group_name_H-M    'P1'
  _symmetry_Int_Tables_number       1
  _symmetry_cell_setting            triclinic
  loop_
  _symmetry_equiv_pos_as_xyz
 x,y,z
_cell_length_a 27.9174
_cell_length_b 20.3102
_cell_length_c 20.6252
_cell_angle_alpha 89.932000
_cell_angle_beta 89.952700
_cell_angle_gamma 90.777100
loop_
  _atom_site_label
  _atom_site_type_symbol
  _atom_site_fract_x
  _atom_site_fract_y
  _atom_site_fract_z
C1 C 1.25124 0.24997 0.25003
 C2 C 0.75148 -0.25840 0.26085
 C3 C 0.75284 0.23995 -0.24677
 C4 C 1.25348 -0.25373 -0.24785
 C5 C 0.25157 0.25209 0.74555
 C6 C 0.74974 0.75236 0.74042
 C7 C 0.75372 0.25650 0.24231
 C8 C 0.25298 0.75173 0.24375
 O9 O 1.06947 0.10969 0.11733
 O10 O 1.12184 0.05584 0.05047
 C11 C 1.11228 0.09579 0.09791
 O12 O 0.93896 -0.12597 0.11890
 O13 O 0.88283 -0.06682 0.06345
 C14 C 0.89510 -0.11034 0.10628
 O15 O 1.07184 -0.12134 0.11181
 O16 O 1.12320 -0.05680 0.05095
 C17 C 1.11435 -0.10278 0.09341
 O18 O 0.93634 0.11606 0.11175
 O19 O 0.88150 0.04906 0.06062
 C20 C 0.89274 0.09793 0.09827
 Zr21 Zr 1.00240 0.07700 0.08200
 O22 O 0.99828 0.07506 0.18454
 O23 O 1.00810 0.18095 0.08426
 Zr24 Zr 1.00401 -0.08816 0.08217
 O25 O 1.00355 -0.08477 0.18483
 O26 O 1.00853 -0.19214 0.08370
 O27 O 1.04675 -0.00415 0.09232
 O28 O 0.96156 -0.00679 0.09646
 O29 O 0.92853 0.10923 -0.10933
 O30 O 0.87746 0.04619 -0.04659
 C31 C 0.88604 0.09054 -0.09038
 O32 O 1.06409 -0.11691 -0.12324
 O33 O 1.11929 -0.05843 -0.06331
 C34 C 1.10773 -0.10025 -0.10863
 O35 O 0.93183 -0.13074 -0.10626
 O36 O 0.87941 -0.06871 -0.04698
 C37 C 0.88892 -0.11505 -0.08832
 O38 O 1.06304 0.11280 -0.11925
 O39 O 1.11934 0.05514 -0.06241
 C40 C 1.10712 0.09874 -0.10531
 Zr41 Zr 0.99738 0.07707 -0.08118
 O42 O 0.99002 0.07618 -0.18335
 O43 O 1.00053 0.18134 -0.08175
 Zr44 Zr 0.99882 -0.08829 -0.08109
 O45 O 0.98931 -0.08688 -0.18295
 O46 O 1.00581 -0.19192 -0.08293
 Zr47 Zr 1.07281 -0.00302 -0.00373
 Zr48 Zr 0.92870 -0.00833 0.00465
 O49 O 0.95585 -0.00734 -0.09063
 O50 O 1.04084 -0.00398 -0.09644
 O51 O 0.95706 0.08857 0.00264
 O52 O 1.04321 -0.09894 -0.00209
 O53 O 1.04152 0.09075 -0.00181
 O54 O 0.95866 -0.10306 0.00320
 H55 H 0.94104 -0.00625 0.13568
 H56 H 1.06463 -0.13738 -0.00404
 H57 H 0.93316 -0.00892 -0.12753
 H58 H 1.06241 0.13059 -0.00227
 H59 H 0.98086 -0.21010 0.05921
 H60 H 0.98318 -0.21044 -0.05061
 H61 H 1.01495 -0.05856 -0.20155
 H62 H 1.01834 0.05403 -0.20158
 H63 H 0.97218 0.19745 -0.05806
 H64 H 0.98636 0.19793 0.05055
 H65 H 1.02557 0.04916 0.20061
 H66 H 1.03377 -0.06332 0.19910
 O67 O 1.07190 0.61282 0.61824
 O68 O 1.12388 0.55946 0.55053
 C69 C 1.11449 0.59811 0.59881
 O70 O 0.94036 0.38085 0.61956
 O71 O 0.88459 0.44053 0.56399
 C72 C 0.89648 0.39673 0.60650
 O73 O 1.07517 0.38727 0.61270
 O74 O 1.12552 0.45078 0.54941
 C75 C 1.11749 0.40664 0.59363
 O76 O 0.93923 0.62597 0.61049
 O77 O 0.88463 0.55741 0.56093
 C78 C 0.89575 0.60746 0.59713
 Zr79 Zr 1.00469 0.58488 0.58109
 O80 O 1.00054 0.59036 0.68342
 O81 O 1.00939 0.68860 0.57344
 Zr82 Zr 1.00603 0.41912 0.58400
 O83 O 1.00609 0.42665 0.68645
 O84 O 1.00641 0.31536 0.59290
 O85 O 1.04848 0.50327 0.59235
 O86 O 0.96381 0.50108 0.59744
 O87 O 0.92978 0.61840 0.39446
 O88 O 0.87988 0.55200 0.45565
 C89 C 0.88771 0.59835 0.41410
 O90 O 1.06495 0.38921 0.37727
 O91 O 1.12061 0.44818 0.43613
 C92 C 1.10865 0.40586 0.39150
 O93 O 0.93265 0.37784 0.39471
 O94 O 0.88053 0.43958 0.45447
 C95 C 0.88984 0.39382 0.41267
 O96 O 1.06449 0.61927 0.37887
 O97 O 1.12000 0.55933 0.43518
 C98 C 1.10829 0.60310 0.39228
 Zr99 Zr 0.99907 0.58311 0.41834
 O100 O 0.99367 0.57533 0.31645
 O101 O 1.00086 0.68716 0.41392
 Zr102 Zr 1.00010 0.41733 0.42046
 O103 O 0.99154 0.41502 0.31854
 O104 O 1.00588 0.31347 0.42244
 Zr105 Zr 1.07420 0.50300 0.49605
 Zr106 Zr 0.93091 0.49822 0.50587
 O107 O 0.95734 0.49878 0.41026
 O108 O 1.04197 0.50147 0.40375
 O109 O 0.95920 0.59493 0.50235
 O110 O 1.04484 0.40713 0.49925
 O111 O 1.04395 0.59724 0.49718
 O112 O 0.96054 0.40332 0.50523
 H113 H 0.94319 0.50225 0.63656
 H114 H 1.06691 0.36941 0.49716
 H115 H 0.93433 0.49777 0.37374
 H116 H 1.06561 0.63629 0.49634
 H117 H 1.02014 0.29744 0.55258
 H118 H 0.98094 0.29635 0.45241
 H119 H 1.01086 0.45197 0.30060
 H120 H 0.99101 0.62099 0.30001
 H121 H 0.98522 0.70311 0.45388
 H122 H 1.01140 0.70558 0.61839
 H123 H 1.02137 0.55561 0.70087
 H124 H 1.03771 0.44439 0.70004
 O125 O 0.57043 0.10985 0.61724
 O126 O 0.62287 0.05767 0.54911
 C127 C 0.61334 0.09544 0.59774
 O128 O 0.43660 -0.12369 0.60566
 O129 O 0.38179 -0.06050 0.55205
 C130 C 0.39310 -0.10746 0.59168
 O131 O 0.56968 -0.10783 0.61476
 O132 O 0.62222 -0.05111 0.54894
 C133 C 0.61264 -0.09077 0.59671
 O134 O 0.43520 0.11917 0.61127
 O135 O 0.38142 0.05404 0.55576
 C136 C 0.39187 0.10078 0.59619
 Zr137 Zr 0.50215 0.08206 0.58026
 O138 O 0.49666 0.07857 0.68265
 O139 O 0.50885 0.18593 0.58498
 Zr140 Zr 0.50261 -0.08388 0.57418
 O141 O 0.49783 -0.09559 0.67583
 O142 O 0.51020 -0.18715 0.56529
 O143 O 0.54505 -0.00018 0.58876
 O144 O 0.46077 -0.00234 0.59062
 O145 O 0.43316 0.12917 0.39493
 O146 O 0.38039 0.05836 0.44570
 C147 C 0.39020 0.10870 0.40896
 O148 O 0.56586 -0.10640 0.37285
 O149 O 0.62081 -0.04967 0.43450
 C150 C 0.60942 -0.09128 0.38919
 O151 O 0.43316 -0.11242 0.37729
 O152 O 0.38033 -0.05612 0.44145
 C153 C 0.39019 -0.09724 0.39526
 O154 O 0.56576 0.12393 0.38204
 O155 O 0.62061 0.06246 0.43704
 C156 C 0.60934 0.10767 0.39550
 Zr157 Zr 0.49982 0.08725 0.41697
 O158 O 0.49229 0.08319 0.31477
 O159 O 0.50332 0.19096 0.40982
 Zr160 Zr 0.50005 -0.07800 0.41182
 O161 O 0.49492 -0.07771 0.30945
 O162 O 0.50441 -0.18206 0.41247
 Zr163 Zr 0.57316 0.00374 0.49360
 Zr164 Zr 0.42917 0.00013 0.49799
 O165 O 0.45786 0.00443 0.40364
 O166 O 0.54281 0.00613 0.40004
 O167 O 0.45832 0.09670 0.50026
 O168 O 0.54359 -0.09211 0.49166
 O169 O 0.54273 0.09805 0.49797
 O170 O 0.45816 -0.09510 0.49374
 H171 H 0.43975 -0.00401 0.62935
 H172 H 0.56574 -0.12982 0.49093
 H173 H 0.43579 0.00641 0.36611
 H174 H 0.56413 0.13734 0.49923
 H175 H 0.48065 -0.20491 0.54500
 H176 H 0.47461 -0.19981 0.43224
 H177 H 0.51814 -0.04447 0.29303
 H178 H 0.52332 0.06962 0.29621
 H179 H 0.50090 0.20808 0.45442
 H180 H 0.48201 0.20467 0.56004
 H181 H 0.52446 0.05400 0.69923
 H182 H 0.51254 -0.05583 0.69532
 O183 O 0.57573 0.61054 0.11415
 O184 O 0.62673 0.55882 0.04387
 C185 C 0.61829 0.59650 0.09331
 O186 O 0.44101 0.37874 0.11297
 O187 O 0.38588 0.44291 0.06105
 C188 C 0.39736 0.39635 0.10070
 O189 O 0.57560 0.38766 0.10875
 O190 O 0.62646 0.44892 0.04427
 C191 C 0.61800 0.40544 0.08895
 O192 O 0.44193 0.61759 0.11736
 O193 O 0.38624 0.55754 0.05957
 C194 C 0.39809 0.60136 0.10266
 Zr195 Zr 0.50746 0.58514 0.07669
 O196 O 0.50887 0.59796 0.17829
 O197 O 0.51269 0.68866 0.06552
 Zr198 Zr 0.50707 0.41847 0.07852
 O199 O 0.50634 0.42007 0.18115
 O200 O 0.51298 0.31464 0.08023
 O201 O 0.55027 0.50244 0.08711
 O202 O 0.46622 0.50101 0.09312
 O203 O 0.43165 0.62043 -0.10859
 O204 O 0.38074 0.55477 -0.04850
 C205 C 0.38928 0.60230 -0.08908
 O206 O 0.56602 0.38762 -0.12470
 O207 O 0.62239 0.44716 -0.06812
 C208 C 0.61006 0.40419 -0.11166
 O209 O 0.43347 0.37630 -0.10705
 O210 O 0.38136 0.43987 -0.04942
 C211 C 0.39066 0.39196 -0.08918
 O212 O 0.56290 0.60626 -0.13792
 O213 O 0.61950 0.55396 -0.07686
 C214 C 0.60681 0.59049 -0.12569
 Zr215 Zr 0.50009 0.58379 -0.08502
 O216 O 0.48847 0.59318 -0.18583
 O217 O 0.50915 0.68739 -0.07944
 Zr218 Zr 0.50043 0.41763 -0.08398
 O219 O 0.49044 0.41823 -0.18577
 O220 O 0.50638 0.31389 -0.08618
 Zr221 Zr 0.57577 0.50243 -0.00938
 Zr222 Zr 0.43192 0.49950 0.00213
 O223 O 0.45796 0.49967 -0.09357
 O224 O 0.54188 0.50100 -0.10079
 O225 O 0.46056 0.59629 -0.00060
 O226 O 0.54554 0.40679 -0.00598
 O227 O 0.54666 0.59734 -0.00795
 O228 O 0.46092 0.40411 0.00068
 H229 H 0.44657 0.50015 0.13316
 H230 H 0.56673 0.36806 -0.00752
 H231 H 0.43464 0.49882 -0.12977
 H232 H 0.56977 0.63472 -0.01069
 H233 H 0.48523 0.29575 0.05661
 H234 H 0.48467 0.29588 -0.05249
 H235 H 0.51800 0.44214 -0.20531
 H236 H 0.49373 0.54925 -0.20484
 H237 H 0.48012 0.70547 -0.05888
 H238 H 0.48017 0.70502 0.05625
 H239 H 0.50866 0.55336 0.19745
 H240 H 0.53462 0.44612 0.19541
 C241 C 1.22173 0.19990 0.13973
 C242 C 1.22053 0.20155 0.20843
 C243 C 1.18451 0.16242 0.23862
 C244 C 1.15160 0.12480 0.20237
 C245 C 1.15204 0.12653 0.13429
 C246 C 1.18790 0.16387 0.10374
 C247 C 1.18163 0.21874 0.05620
 C248 C 1.22008 0.25624 0.09271
 H249 H 1.18066 0.16298 0.29087
 H250 H 1.12406 0.09688 0.22773
 H251 H 1.14579 0.24170 0.06008
 H252 H 1.19241 0.20724 0.00603
 H253 H 1.20715 0.30296 0.11381
 H254 H 1.25398 0.26143 0.06470
 C255 C 1.22344 0.69907 0.64201
 C256 C 1.22321 0.69791 0.71061
 C257 C 1.18496 0.66276 0.74055
 C258 C 1.15079 0.62831 0.70393
 C259 C 1.15369 0.62720 0.63601
 C260 C 1.18926 0.66481 0.60589
 C261 C 1.22388 0.64488 0.55515
 C262 C 1.26175 0.68107 0.59441
 H263 H 1.18079 0.66370 0.79275
 H264 H 1.12184 0.60271 0.72879
 H265 H 1.21635 0.66847 0.50767
 H266 H 1.22904 0.59070 0.55350
 H267 H 1.27691 0.72480 0.56878
 H268 H 1.28849 0.64710 0.61493
 C269 C 0.72248 0.19777 0.64071
 C270 C 0.72437 0.19186 0.70872
 C271 C 0.69068 0.14809 0.73806
 C272 C 0.65506 0.11617 0.70170
 C273 C 0.65339 0.12379 0.63430
 C274 C 0.68747 0.16464 0.60442
 C275 C 0.72183 0.14683 0.55237
 C276 C 0.76021 0.18171 0.59167
 H277 H 0.68959 0.14260 0.79013
 H278 H 0.62857 0.08573 0.72637
 H279 H 0.71369 0.17206 0.50587
 H280 H 0.72716 0.09279 0.54873
 H281 H 0.77483 0.22617 0.56676
 H282 H 0.78776 0.14773 0.61053
 C283 C 0.72133 0.70675 0.14692
 C284 C 0.72366 0.69516 0.21386
 C285 C 0.69167 0.64636 0.23891
 C286 C 0.66000 0.61126 0.19843
 C287 C 0.65870 0.62348 0.13140
 C288 C 0.68872 0.67347 0.10700
 C289 C 0.72491 0.66994 0.05420
 C290 C 0.76040 0.70397 0.09776
 H291 H 0.68978 0.63733 0.29061
 H292 H 0.63529 0.57590 0.21994
 H293 H 0.71514 0.70307 0.01372
 H294 H 0.73497 0.61861 0.04204
 H295 H 0.77137 0.75288 0.07837
 H296 H 0.79043 0.67187 0.11179
 C297 C 0.83853 -0.22166 0.23093
 C298 C 0.78876 -0.21562 0.22399
 C299 C 0.77443 -0.16634 0.17872
 C300 C 0.80830 -0.13183 0.13930
 C301 C 0.85784 -0.14359 0.14553
 C302 C 0.87058 -0.18794 0.19355
 C303 C 0.91354 -0.21522 0.22551
 C304 C 0.87813 -0.25326 0.26856
 H305 H 0.73684 -0.15640 0.17175
 H306 H 0.79559 -0.09674 0.10394
 H307 H 0.93457 -0.17701 0.25202
 H308 H 0.93447 -0.24714 0.19252
 H309 H 0.87953 -0.23657 0.31979
 H310 H 0.88059 -0.30702 0.26141
 C311 C 0.83698 0.29382 0.73517
 C312 C 0.78885 0.28510 0.71631
 C313 C 0.77517 0.32444 0.66215
 C314 C 0.80956 0.36130 0.62543
 C315 C 0.85838 0.36298 0.64384
 C316 C 0.86926 0.33027 0.70075
 C317 C 0.90917 0.32183 0.74720
 C318 C 0.87343 0.28060 0.78707
 H319 H 0.73809 0.32558 0.64704
 H320 H 0.79794 0.38779 0.58279
 H321 H 0.91993 0.36893 0.77078
 H322 H 0.93893 0.29283 0.72636
 H323 H 0.86402 0.30357 0.83416
 H324 H 0.88476 0.22872 0.79018
 C325 C 0.33270 -0.23985 0.68931
 C326 C 0.28810 -0.21482 0.70772
 C327 C 0.27645 -0.15303 0.67909
 C328 C 0.30947 -0.11845 0.63859
 C329 C 0.35501 -0.14463 0.62515
 C330 C 0.36393 -0.20650 0.65061
 C331 C 0.40188 -0.25686 0.65472
 C332 C 0.36704 -0.29537 0.69852
 H333 H 0.24226 -0.13055 0.68807
 H334 H 0.29986 -0.07071 0.61961
 H335 H 0.43433 -0.23859 0.68061
 H336 H 0.40842 -0.28097 0.60725
 H337 H 0.38090 -0.29997 0.74861
 H338 H 0.35464 -0.34243 0.67677
 C339 C 0.32373 0.26003 0.17465
 C340 C 0.28525 0.29030 0.20585
 C341 C 0.28293 0.35985 0.19683
 C342 C 0.31855 0.39466 0.16069
 C343 C 0.35826 0.36146 0.13419
 C344 C 0.35854 0.29375 0.14224
 C345 C 0.38770 0.23440 0.12981
 C346 C 0.34847 0.19581 0.16683
 H347 H 0.25444 0.38806 0.21820
 H348 H 0.31585 0.44760 0.15554
 H349 H 0.42264 0.23633 0.15560
 H350 H 0.38965 0.22214 0.07738
 H351 H 0.36117 0.17520 0.21359
 H352 H 0.32780 0.16090 0.13583
 C353 C 0.78242 0.20009 -0.13301
 C354 C 0.78085 0.19413 -0.20105
 C355 C 0.81167 0.14743 -0.22957
 C356 C 0.84374 0.11125 -0.19243
 C357 C 0.84572 0.11909 -0.12514
 C358 C 0.81499 0.16406 -0.09582
 C359 C 0.77884 0.15002 -0.04425
 C360 C 0.74326 0.18800 -0.08455
 H361 H 0.81296 0.14163 -0.28159
 H362 H 0.86841 0.07874 -0.21672
 H363 H 0.78816 0.17477 0.00219
 H364 H 0.76980 0.09669 -0.03989
 H365 H 0.73134 0.23377 -0.06033
 H366 H 0.71368 0.15648 -0.10351
 C367 C 0.79069 0.63265 0.29675
 C368 C 0.77691 0.69768 0.31176
 C369 C 0.79219 0.72082 0.37371
 C370 C 0.82683 0.68674 0.40982
 C371 C 0.84565 0.62798 0.38589
 C372 C 0.82282 0.59820 0.33379
 C373 C 0.84185 0.56085 0.27758
 C374 C 0.80668 0.59889 0.23606
 H375 H 0.78124 0.76697 0.39341
 H376 H 0.84123 0.70866 0.45366
 H377 H 0.83310 0.50750 0.28106
 H378 H 0.88005 0.57273 0.26698
 H379 H 0.77810 0.56710 0.21488
 H380 H 0.82491 0.63257 0.20144
 C381 C 0.27715 0.14516 0.31658
 C382 C 0.28342 0.21225 0.29903
 C383 C 0.32290 0.24551 0.32826
 C384 C 0.35546 0.21301 0.36832
 C385 C 0.35042 0.14539 0.38053
 C386 C 0.30962 0.11317 0.35692
 C387 C 0.30689 0.05025 0.32030
 C388 C 0.27208 0.08415 0.27560
 H389 H 0.33073 0.29645 0.31675
 H390 H 0.38641 0.24006 0.38626
 H391 H 0.29013 0.00992 0.34932
 H392 H 0.34126 0.03758 0.29634
 H393 H 0.23580 0.06124 0.27861
 H394 H 0.28609 0.09082 0.22554
 C395 C 0.27773 0.64003 -0.18315
 C396 C 0.28305 0.70822 -0.19631
 C397 C 0.31994 0.74138 -0.16159
 C398 C 0.35190 0.70761 -0.12146
 C399 C 0.34868 0.63898 -0.11505
 C400 C 0.30942 0.60678 -0.14286
 C401 C 0.30890 0.54638 -0.18345
 C402 C 0.27484 0.58181 -0.22801
 H403 H 0.32820 0.79232 -0.17189
 H404 H 0.38179 0.73442 -0.10024
 H405 H 0.29175 0.50416 -0.15802
 H406 H 0.34421 0.53623 -0.20608
 H407 H 0.23880 0.55793 -0.22862
 H408 H 0.29035 0.59205 -0.27660
 C409 C 1.22669 -0.17857 -0.15136
 C410 C 1.21808 -0.20572 -0.21348
 C411 C 1.17280 -0.19168 -0.24159
 C412 C 1.13713 -0.15859 -0.20740
 C413 C 1.14596 -0.13348 -0.14524
 C414 C 1.19126 -0.14282 -0.11862
 C415 C 1.22473 -0.08899 -0.10018
 C416 C 1.26332 -0.12663 -0.13403
 H417 H 1.16409 -0.20766 -0.29020
 H418 H 1.10276 -0.15141 -0.23048
 H419 H 1.22968 -0.08511 -0.04689
 H420 H 1.21562 -0.04289 -0.12583
 H421 H 1.29047 -0.14429 -0.09898
 H422 H 1.27825 -0.10058 -0.17716
 C423 C 1.22226 0.31415 0.35292
 C424 C 1.21623 0.29581 0.28712
 C425 C 1.17294 0.31589 0.25733
 C426 C 1.13842 0.35179 0.29106
 C427 C 1.14628 0.37170 0.35534
 C428 C 1.18790 0.35082 0.38588
 C429 C 1.22360 0.39180 0.42121
 C430 C 1.26138 0.35425 0.38475
 H431 H 1.16491 0.30296 0.20777
 H432 H 1.10572 0.36495 0.26625
 H433 H 1.22324 0.38135 0.47415
 H434 H 1.22229 0.44480 0.40783
 H435 H 1.28383 0.32462 0.41798
 H436 H 1.28160 0.38567 0.34969
 C437 C 0.66516 -0.21969 0.28449
 C438 C 0.71501 -0.21140 0.29307
 C439 C 0.72975 -0.15705 0.33195
 C440 C 0.69627 -0.11802 0.36516
 C441 C 0.64692 -0.12848 0.35582
 C442 C 0.63254 -0.17978 0.31529
 C443 C 0.60037 -0.17539 0.25803
 C444 C 0.63594 -0.21762 0.22310
 H445 H 0.76738 -0.14450 0.33670
 H446 H 0.70899 -0.07918 0.39684
 H447 H 0.59815 -0.12462 0.23804
 H448 H 0.56533 -0.20064 0.26656
 H449 H 0.65440 -0.19127 0.18277
 H450 H 0.61999 -0.26603 0.20971
 C451 C 0.72889 0.33093 -0.16330
 C452 C 0.71671 0.28612 -0.21277
 C453 C 0.66807 0.29071 -0.23394
 C454 C 0.63430 0.32960 -0.20164
 C455 C 0.64737 0.36923 -0.14834
 C456 C 0.69598 0.36974 -0.13271
 C457 C 0.73182 0.40088 -0.08891
 C458 C 0.76929 0.35879 -0.12386
 H459 H 0.65482 0.26486 -0.27608
 H460 H 0.59771 0.32841 -0.21909
 H461 H 0.72608 0.38669 -0.03738
 H462 H 0.73624 0.45442 -0.09826
 H463 H 0.78637 0.32281 -0.09103
 H464 H 0.79471 0.38841 -0.15387
 C465 C 1.22640 0.15578 -0.17832
 C466 C 1.21416 0.21209 -0.21443
 C467 C 1.16549 0.23072 -0.21073
 C468 C 1.13156 0.19324 -0.17615
 C469 C 1.14460 0.13659 -0.14107
 C470 C 1.19268 0.11757 -0.14461
 C471 C 1.22788 0.10330 -0.09191
 C472 C 1.26396 0.14614 -0.12801
 H473 H 1.15285 0.27491 -0.23399
 H474 H 1.09497 0.21027 -0.17561
 H475 H 1.23913 0.05150 -0.09017
 H476 H 1.21737 0.12247 -0.04405
 H477 H 1.29496 0.11819 -0.14687
 H478 H 1.27316 0.19201 -0.10117
 C479 C 1.18007 0.74068 0.31544
 C480 C 1.22020 0.71210 0.28555
 C481 C 1.22275 0.64215 0.29540
 C482 C 1.18746 0.60662 0.33181
 C483 C 1.14711 0.63853 0.35777
 C484 C 1.14562 0.70597 0.34798
 C485 C 1.11543 0.76423 0.36036
 C486 C 1.15394 0.80400 0.32335
 H487 H 1.25102 0.61336 0.27457
 H488 H 1.19093 0.55390 0.33760
 H489 H 1.11339 0.77648 0.41278
 H490 H 1.08054 0.76109 0.33458
 H491 H 1.17370 0.83971 0.35451
 H492 H 1.14072 0.82407 0.27664
 C493 C 0.72865 0.16159 0.32191
 C494 C 0.71755 0.21744 0.28468
 C495 C 0.67013 0.24082 0.29432
 C496 C 0.63576 0.20507 0.33027
 C497 C 0.64723 0.14545 0.36140
 C498 C 0.69500 0.12684 0.35689
 C499 C 0.72907 0.07573 0.37816
 C500 C 0.76772 0.11599 0.34190
 H501 H 0.65877 0.28725 0.27423
 H502 H 0.60005 0.22495 0.33380
 H503 H 0.72110 0.02746 0.35514
 H504 H 0.73413 0.07465 0.43147
 H505 H 0.78457 0.08894 0.30138
 H506 H 0.79360 0.13982 0.37568
 C507 C 0.72617 0.65639 -0.18027
 C508 C 0.71398 0.70073 -0.23027
 C509 C 0.66817 0.68874 -0.25896
 C510 C 0.63328 0.64917 -0.22784
 C511 C 0.64447 0.61540 -0.17042
 C512 C 0.69273 0.61254 -0.15382
 C513 C 0.71390 0.61506 -0.08864
 C514 C 0.74971 0.66455 -0.11542
 H515 H 0.65772 0.71315 -0.30327
 H516 H 0.59709 0.64835 -0.24667
 H517 H 0.73006 0.56762 -0.07427
 H518 H 0.68724 0.63489 -0.05459
 H519 H 0.78667 0.64504 -0.11403
 H520 H 0.74530 0.71472 -0.09497
 C521 C 0.77448 -0.14996 -0.18086
 C522 C 0.78099 -0.21464 -0.20512
 C523 C 0.82116 -0.24833 -0.17959
 C524 C 0.85416 -0.21780 -0.13740
 C525 C 0.84875 -0.15190 -0.11856
 C526 C 0.80707 -0.12029 -0.13801
 C527 C 0.80293 -0.05405 -0.16787
 C528 C 0.76816 -0.08521 -0.21530
 H529 H 0.82882 -0.29789 -0.19540
 H530 H 0.88563 -0.24467 -0.12281
 H531 H 0.83685 -0.03679 -0.19093
 H532 H 0.78597 -0.01818 -0.13457
 H533 H 0.78201 -0.08562 -0.26588
 H534 H 0.73158 -0.06513 -0.20969
 C535 C 0.77823 0.35802 0.31401
 C536 C 0.78613 0.29350 0.29178
 C537 C 0.82648 0.26126 0.31806
 C538 C 0.85819 0.29296 0.36031
 C539 C 0.85038 0.35779 0.38058
 C540 C 0.81012 0.39003 0.35636
 C541 C 0.77019 0.41971 0.39392
 C542 C 0.73565 0.38478 0.34841
 H543 H 0.83483 0.21137 0.30433
 H544 H 0.88960 0.26675 0.37640
 H545 H 0.76980 0.47418 0.38880
 H546 H 0.76826 0.40128 0.44466
 H547 H 0.71508 0.41929 0.31764
 H548 H 0.71379 0.34583 0.37275
 C549 C 0.27716 -0.19093 0.35055
 C550 C 0.28310 -0.20298 0.28311
 C551 C 0.32182 -0.16789 0.25322
 C552 C 0.35499 -0.13086 0.28954
 C553 C 0.35068 -0.12599 0.35718
 C554 C 0.30954 -0.15250 0.38592
 C555 C 0.30462 -0.19336 0.44550
 C556 C 0.26937 -0.23590 0.40765
 H557 H 0.32779 -0.17176 0.20147
 H558 H 0.38540 -0.10852 0.26489
 H559 H 0.28770 -0.16596 0.48594
 H560 H 0.33817 -0.21922 0.45833
 H561 H 0.23245 -0.23323 0.42751
 H562 H 0.28234 -0.28661 0.39927
 C563 C 0.27227 0.34125 -0.16724
 C564 C 0.28549 0.28631 -0.20464
 C565 C 0.33142 0.26067 -0.19117
 C566 C 0.36374 0.29318 -0.15048
 C567 C 0.35165 0.35200 -0.11890
 C568 C 0.30485 0.37470 -0.12660
 C569 C 0.26754 0.38193 -0.07511
 C570 C 0.23250 0.34634 -0.11940
 H571 H 0.34335 0.21505 -0.21229
 H572 H 0.39899 0.27231 -0.14479
 H573 H 0.25826 0.43428 -0.06679
 H574 H 0.27597 0.35376 -0.03035
 H575 H 0.20332 0.37826 -0.13731
 H576 H 0.22052 0.29770 -0.10008
 C577 C 1.22727 -0.14170 0.18523
 C578 C 1.22238 -0.21033 0.19841
 C579 C 1.18443 -0.24296 0.16437
 C580 C 1.15113 -0.20822 0.12713
 C581 C 1.15451 -0.13948 0.12090
 C582 C 1.19476 -0.10797 0.14665
 C583 C 1.19784 -0.04664 0.18569
 C584 C 1.23302 -0.08253 0.22857
 H585 H 1.17921 -0.29570 0.16917
 H586 H 1.12122 -0.23492 0.10582
 H587 H 1.16364 -0.03496 0.21056
 H588 H 1.21449 -0.00521 0.15809
 H589 H 1.21933 -0.09087 0.27850
 H590 H 1.26950 -0.06014 0.22594
 C591 C 1.19905 0.27227 0.64571
 C592 C 1.22555 0.29915 0.69781
 C593 C 1.22463 0.36935 0.70150
 C594 C 1.19105 0.40609 0.66486
 C595 C 1.15893 0.37391 0.62226
 C596 C 1.16731 0.30799 0.61001
 C597 C 1.13818 0.24944 0.59076
 C598 C 1.17405 0.20869 0.62939
 H599 H 1.24764 0.39685 0.73361
 H600 H 1.18842 0.45867 0.67274
 H601 H 1.13960 0.24036 0.53767
 H602 H 1.10175 0.24946 0.61255
 H603 H 1.19641 0.17686 0.59809
 H604 H 1.15739 0.18313 0.67139
 C605 C 0.72705 -0.17786 0.63787
 C606 C 0.72054 -0.19471 0.70391
 C607 C 0.68188 -0.16375 0.73599
 C608 C 0.64834 -0.12628 0.70177
 C609 C 0.65275 -0.11712 0.63448
 C610 C 0.69460 -0.13868 0.60468
 C611 C 0.70017 -0.17549 0.54285
 C612 C 0.73477 -0.21941 0.57872
 H613 H 0.67549 -0.17304 0.78701
 H614 H 0.61733 -0.10799 0.72732
 H615 H 0.71777 -0.14495 0.50473
 H616 H 0.66669 -0.20136 0.52753
 H617 H 0.77197 -0.21523 0.55976
 H618 H 0.72078 -0.27060 0.58449
 C619 C 0.72723 0.36845 0.19044
 C620 C 0.72583 0.29912 0.19306
 C621 C 0.69136 0.26690 0.15338
 C622 C 0.65752 0.30192 0.11814
 C623 C 0.65837 0.37075 0.11784
 C624 C 0.69374 0.40365 0.15381
 C625 C 0.73089 0.45015 0.12826
 C626 C 0.76732 0.41191 0.16674
 H627 H 0.68799 0.21394 0.15387
 H628 H 0.62995 0.27504 0.09188
 H629 H 0.72561 0.50101 0.14638
 H630 H 0.73581 0.44618 0.07490
 H631 H 0.78387 0.44141 0.20626
 H632 H 0.79319 0.38536 0.13558
 C633 C 0.77624 0.14954 0.17688
 C634 C 0.78580 0.21425 0.19819
 C635 C 0.82922 0.24256 0.17399
 C636 C 0.86340 0.20471 0.14111
 C637 C 0.85454 0.13780 0.12686
 C638 C 0.80915 0.11362 0.14307
 C639 C 0.77838 0.05372 0.13892
 C640 C 0.74023 0.09397 0.17460
 H641 H 0.83821 0.29356 0.18389
 H642 H 0.89706 0.22800 0.12741
 H643 H 0.79277 0.01261 0.16834
 H644 H 0.76865 0.04129 0.08810
 H645 H 0.73032 0.07269 0.22224
 H646 H 0.70908 0.10511 0.14320
 C647 C 0.77740 0.65272 0.66964
 C648 C 0.78394 0.71742 0.69301
 C649 C 0.82727 0.74908 0.67263
 C650 C 0.86363 0.71392 0.64037
 C651 C 0.85680 0.64701 0.62371
 C652 C 0.81150 0.62062 0.63492
 C653 C 0.78689 0.55556 0.63787
 C654 C 0.74780 0.59081 0.67632
 H655 H 0.83440 0.79989 0.68567
 H656 H 0.89739 0.73867 0.63005
 H657 H 0.80705 0.51928 0.66722
 H658 H 0.77499 0.53833 0.58928
 H659 H 0.74535 0.57199 0.72673
 H660 H 0.71318 0.59368 0.64995
 C661 C 0.31895 0.23882 0.66282
 C662 C 0.28218 0.20916 0.69953
 C663 C 0.27745 0.13965 0.69068
 C664 C 0.31212 0.10376 0.65486
 C665 C 0.35215 0.13620 0.62653
 C666 C 0.35251 0.20432 0.63009
 C667 C 0.38277 0.26330 0.61561
 C668 C 0.34493 0.30282 0.65266
 H669 H 0.24785 0.11216 0.71133
 H670 H 0.30859 0.05071 0.65169
 H671 H 0.38420 0.27444 0.56286
 H672 H 0.41796 0.26185 0.64070
 H673 H 0.32448 0.33699 0.62133
 H674 H 0.35904 0.32479 0.69818
 C675 C 0.32551 0.67817 0.23651
 C676 C 0.28609 0.70874 0.20663
 C677 C 0.28481 0.69898 0.13748
 C678 C 0.31996 0.66194 0.10416
 C679 C 0.35927 0.63502 0.13723
 C680 C 0.35999 0.64474 0.20377
 C681 C 0.38948 0.63262 0.26231
 C682 C 0.35106 0.67069 0.29976
 H683 H 0.25814 0.72108 0.10705
 H684 H 0.31743 0.65701 0.05196
 H685 H 0.42475 0.65859 0.26013
 H686 H 0.39073 0.57947 0.27499
 H687 H 0.36462 0.71831 0.31944
 H688 H 0.33065 0.63948 0.33467
   
