data_POSCAR
  _audit_creation_date              2014-09-24
  _audit_creation_method            'ToBaCCo'
  _symmetry_space_group_name_H-M    'P1'
  _symmetry_Int_Tables_number       1
  _symmetry_cell_setting            triclinic
  loop_
  _symmetry_equiv_pos_as_xyz
 x,y,z
_cell_length_a 30.9490
_cell_length_b 31.0272
_cell_length_c 30.8770
_cell_angle_alpha 89.775400
_cell_angle_beta 89.451200
_cell_angle_gamma 89.967600
loop_
  _atom_site_label
  _atom_site_type_symbol
  _atom_site_fract_x
  _atom_site_fract_y
  _atom_site_fract_z
N1 N 0.54751 0.08646 0.02002
 N2 N 0.58059 0.10997 0.03297
 N3 N 0.45376 0.08799 -0.01537
 N4 N 0.42111 0.11269 -0.02697
 N5 N 0.45661 0.08619 0.02699
 N6 N 0.42595 0.10961 0.04537
 N7 N 0.54426 0.08817 -0.02230
 N8 N 0.57485 0.11257 -0.03930
 C9 C 0.59740 0.12593 -0.00459
 C10 C 0.40393 0.12585 0.01127
 N11 N 0.45015 -0.01646 -0.08642
 N12 N 0.41723 -0.03026 -0.10945
 N13 N 0.54055 0.02614 -0.09068
 N14 N 0.57136 0.04242 -0.11570
 N15 N 0.54085 -0.01606 -0.09221
 N16 N 0.57368 -0.02999 -0.11990
 N17 N 0.44984 0.02575 -0.08409
 N18 N 0.41683 0.04186 -0.10546
 Mn19 Mn 0.49702 0.05735 -0.05339
 C20 C 0.39662 0.00653 -0.12097
 C21 C 0.59150 0.00771 -0.13348
 N22 N 0.46048 0.01726 0.08975
 N23 N 0.42996 0.03087 0.11661
 N24 N 0.55085 -0.02494 0.08175
 N25 N 0.58215 -0.04119 0.10563
 N26 N 0.55132 0.01734 0.08301
 N27 N 0.58483 0.03119 0.10934
 N28 N 0.46013 -0.02499 0.08740
 N29 N 0.42952 -0.04124 0.11259
 Mn30 Mn 0.50406 0.05218 0.05539
 C31 C 0.41084 -0.00603 0.13056
 C32 C 0.60294 -0.00650 0.12230
 N33 N 0.54485 -0.08491 -0.02968
 N34 N 0.57572 -0.10826 -0.04780
 N35 N 0.45609 -0.08753 0.01831
 N36 N 0.42507 -0.11292 0.03348
 N37 N 0.45426 -0.08503 -0.02408
 N38 N 0.42213 -0.10833 -0.03889
 N39 N 0.54703 -0.08714 0.01271
 N40 N 0.57948 -0.11196 0.02458
 Mn41 Mn 0.49757 -0.05092 -0.05844
 Mn42 Mn 0.50349 -0.05654 0.05040
 Cl43 Cl 0.50052 0.00052 -0.00144
 C44 C 0.59721 -0.12483 -0.01351
 C45 C 0.40403 -0.12548 -0.00274
 N46 N 0.08638 0.45365 0.02330
 N47 N 0.11007 0.42134 0.03786
 N48 N 0.08826 0.54576 -0.01699
 N49 N 0.11340 0.57770 -0.03029
 N50 N 0.08693 0.54414 0.02548
 N51 N 0.11089 0.57482 0.04224
 N52 N 0.08761 0.45503 -0.01919
 N53 N 0.11194 0.42369 -0.03470
 C54 C 0.12566 0.40281 0.00120
 C55 C 0.12715 0.59565 0.00716
 N56 N -0.01799 0.54729 -0.08659
 N57 N -0.03168 0.57785 -0.11313
 N58 N 0.02406 0.45680 -0.08649
 N59 N 0.03997 0.42530 -0.11041
 N60 N -0.01835 0.45658 -0.08741
 N61 N -0.03242 0.42499 -0.11212
 N62 N 0.02435 0.54748 -0.08450
 N63 N 0.04097 0.57991 -0.11104
 Mn64 Mn 0.05642 0.50135 -0.05217
 C65 C 0.00479 0.59779 -0.12785
 C66 C 0.00438 0.40564 -0.12618
 N67 N 0.01923 0.54363 0.08957
 N68 N 0.03358 0.57562 0.11359
 N69 N -0.02397 0.45375 0.08700
 N70 N -0.04027 0.42209 0.11063
 N71 N 0.01839 0.45295 0.08787
 N72 N 0.03211 0.42080 0.11225
 N73 N -0.02310 0.54430 0.08801
 N74 N -0.03877 0.57660 0.11089
 Mn75 Mn 0.05308 0.49849 0.05692
 C76 C -0.00307 0.59592 0.12666
 C77 C -0.00490 0.40168 0.12607
 N78 N -0.08657 0.45565 -0.02246
 N79 N -0.11022 0.42351 -0.03737
 N80 N -0.08668 0.54604 0.02077
 N81 N -0.11088 0.57765 0.03595
 N82 N -0.08597 0.54659 -0.02175
 N83 N -0.10974 0.57867 -0.03664
 N84 N -0.08725 0.45564 0.02005
 N85 N -0.11098 0.42371 0.03522
 Mn86 Mn -0.05265 0.50148 -0.05499
 Mn87 Mn -0.05557 0.50000 0.05423
 Cl88 Cl 0.00033 0.50033 0.00093
 C89 C -0.12512 0.40381 -0.00079
 C90 C -0.12496 0.59787 -0.00018
 N91 N 0.02376 0.08853 0.46100
 N92 N 0.04139 0.11302 0.43060
 N93 N -0.02612 0.08393 0.54850
 N94 N -0.04366 0.10829 0.57892
 N95 N 0.01614 0.08375 0.55173
 N96 N 0.02848 0.10797 0.58441
 N97 N -0.01850 0.08852 0.45775
 N98 N -0.03078 0.11299 0.42507
 C99 C 0.00695 0.12806 0.40840
 C100 C -0.00920 0.12285 0.60132
 N101 N -0.09130 -0.02386 0.53806
 N102 N -0.11683 -0.04051 0.56822
 N103 N -0.08405 0.02324 0.44950
 N104 N -0.10753 0.03989 0.41811
 N105 N -0.08395 -0.01901 0.44732
 N106 N -0.10740 -0.03222 0.41443
 N107 N -0.09137 0.01838 0.54023
 N108 N -0.11696 0.03165 0.57189
 Mn109 Mn -0.05535 0.05386 0.49898
 C110 C -0.13261 -0.00547 0.58909
 C111 C -0.12166 0.00491 0.39625
 N112 N 0.08193 0.01789 0.55330
 N113 N 0.10439 0.03090 0.58695
 N114 N 0.08968 -0.01922 0.46022
 N115 N 0.11591 -0.03225 0.42891
 N116 N 0.08950 0.02301 0.46258
 N117 N 0.11553 0.03986 0.43298
 N118 N 0.08201 -0.02435 0.55098
 N119 N 0.10444 -0.04122 0.58295
 Mn120 Mn 0.05318 0.05363 0.50724
 C121 C 0.11802 -0.00639 0.60532
 C122 C 0.13178 0.00503 0.41213
 N123 N -0.01796 -0.08468 0.44889
 N124 N -0.03011 -0.10806 0.41554
 N125 N 0.01662 -0.08971 0.54284
 N126 N 0.02886 -0.11509 0.57488
 N127 N -0.02565 -0.08960 0.53963
 N128 N -0.04329 -0.11488 0.56938
 N129 N 0.02430 -0.08468 0.45211
 N130 N 0.04206 -0.10803 0.42108
 Mn131 Mn -0.05506 -0.05464 0.49341
 Mn132 Mn 0.05350 -0.05484 0.50154
 Cl133 Cl -0.00094 -0.00050 0.50029
 C134 C 0.00774 -0.12222 0.39833
 C135 C -0.00889 -0.13054 0.59123
 C136 C -0.35095 0.16962 -0.04903
 C137 C -0.31726 0.19931 -0.05288
 C138 C -0.29737 0.21558 -0.01597
 C139 C -0.31111 0.20113 0.02520
 C140 C -0.34491 0.17134 0.02912
 C141 C -0.36543 0.15567 -0.00800
 N142 N -0.26451 0.24774 -0.02118
 N143 N -0.24529 0.26407 0.01106
 C144 C -0.21350 0.29733 0.00643
 C145 C -0.19456 0.31367 0.04378
 C146 C -0.16528 0.34773 0.04109
 C147 C -0.15433 0.36616 0.00078
 C148 C -0.17257 0.34914 -0.03696
 C149 C -0.20206 0.31494 -0.03419
 H150 H -0.36602 0.15800 -0.07826
 H151 H -0.30699 0.21016 -0.08473
 H152 H -0.29620 0.21328 0.05428
 H153 H -0.35538 0.16108 0.06109
 H154 H -0.20308 0.30037 0.07520
 H155 H -0.15162 0.35998 0.07076
 H156 H -0.16465 0.36272 -0.06841
 H157 H -0.21634 0.30277 -0.06357
 C158 C 0.34844 0.83378 -0.04364
 C159 C 0.31492 0.80386 -0.04561
 C160 C 0.29935 0.78399 -0.00792
 C161 C 0.31732 0.79494 0.03226
 C162 C 0.35102 0.82498 0.03430
 C163 C 0.36714 0.84435 -0.00374
 N164 N 0.26634 0.75196 -0.01175
 N165 N 0.25010 0.73259 0.02093
 C166 C 0.21803 0.69968 0.01649
 C167 C 0.20098 0.68031 0.05385
 C168 C 0.17095 0.64692 0.05072
 C169 C 0.15755 0.63220 0.00999
 C170 C 0.17419 0.65204 -0.02756
 C171 C 0.20421 0.68557 -0.02437
 H172 H 0.36007 0.84826 -0.07352
 H173 H 0.30134 0.79568 -0.07672
 H174 H 0.30577 0.77994 0.06188
 H175 H 0.36482 0.83259 0.06545
 H176 H 0.21136 0.69086 0.08548
 H177 H 0.15862 0.63231 0.08025
 H178 H 0.16437 0.64137 -0.05933
 H179 H 0.21697 0.70003 -0.05378
 C180 C 0.35226 0.16957 0.05601
 C181 C 0.31844 0.19935 0.05939
 C182 C 0.29880 0.21570 0.02213
 C183 C 0.31290 0.20131 -0.01876
 C184 C 0.34666 0.17159 -0.02217
 C185 C 0.36694 0.15575 0.01515
 N186 N 0.26574 0.24780 0.02646
 N187 N 0.24758 0.26430 -0.00648
 C188 C 0.21546 0.29738 -0.00324
 C189 C 0.19837 0.31441 -0.04140
 C190 C 0.16867 0.34825 -0.03985
 C191 C 0.15547 0.36563 0.00010
 C192 C 0.17194 0.34793 0.03853
 C193 C 0.20182 0.31406 0.03691
 H194 H 0.36725 0.15782 0.08532
 H195 H 0.30790 0.21018 0.09107
 H196 H 0.29824 0.21341 -0.04809
 H197 H 0.35722 0.16141 -0.05408
 H198 H 0.20864 0.30181 -0.07250
 H199 H 0.15642 0.36112 -0.06999
 H200 H 0.16226 0.36069 0.06975
 H201 H 0.21461 0.30136 0.06687
 C202 C -0.35078 0.83132 -0.05776
 C203 C -0.31701 0.80144 -0.06077
 C204 C -0.29777 0.78507 -0.02331
 C205 C -0.31223 0.79953 0.01743
 C206 C -0.34596 0.82932 0.02049
 C207 C -0.36583 0.84520 -0.01704
 N208 N -0.26473 0.75290 -0.02727
 N209 N -0.24675 0.73659 0.00588
 C210 C -0.21468 0.70342 0.00303
 C211 C -0.19759 0.68684 0.04138
 C212 C -0.16791 0.65296 0.04023
 C213 C -0.15476 0.63508 0.00050
 C214 C -0.17125 0.65231 -0.03813
 C215 C -0.20109 0.68624 -0.03691
 H216 H -0.36546 0.84309 -0.08722
 H217 H -0.30619 0.79056 -0.09235
 H218 H -0.29790 0.78742 0.04692
 H219 H -0.35680 0.83954 0.05229
 H220 H -0.20783 0.69982 0.07233
 H221 H -0.15565 0.64045 0.07052
 H222 H -0.16161 0.63917 -0.06920
 H223 H -0.21389 0.69859 -0.06702
 C224 C -0.04423 -0.34741 0.16667
 C225 C -0.04595 -0.31262 0.19515
 C226 C -0.00805 -0.29598 0.21277
 C227 C 0.03201 -0.31407 0.20096
 C228 C 0.03380 -0.34892 0.17238
 C229 C -0.00438 -0.36616 0.15534
 N230 N -0.01142 -0.26191 0.24371
 N231 N 0.02147 -0.24554 0.26175
 C232 C 0.01742 -0.21262 0.29390
 C233 C 0.05475 -0.19677 0.31343
 C234 C 0.05170 -0.16663 0.34683
 C235 C 0.01110 -0.15191 0.36122
 C236 C -0.02631 -0.16705 0.34088
 C237 C -0.02322 -0.19719 0.30749
 H238 H -0.07417 -0.35993 0.15391
 H239 H -0.07698 -0.29895 0.20405
 H240 H 0.06177 -0.30172 0.21421
 H241 H 0.06493 -0.36270 0.16408
 H242 H 0.08622 -0.20842 0.30324
 H243 H 0.08108 -0.15542 0.36187
 H244 H -0.05800 -0.15617 0.35125
 H245 H -0.05258 -0.20892 0.29287
 C246 C 0.04561 0.35054 0.83132
 C247 C 0.04716 0.31632 0.80204
 C248 C 0.00909 0.29942 0.78491
 C249 C -0.03091 0.31685 0.79791
 C250 C -0.03252 0.35109 0.82727
 C251 C 0.00577 0.36848 0.84399
 N252 N 0.01216 0.26550 0.75365
 N253 N -0.02093 0.24896 0.73604
 C254 C -0.01735 0.21583 0.70394
 C255 C -0.05496 0.19989 0.68496
 C256 C -0.05245 0.16905 0.65208
 C257 C -0.01211 0.15366 0.63766
 C258 C 0.02558 0.16907 0.65735
 C259 C 0.02303 0.19991 0.69018
 H260 H 0.07563 0.36318 0.84373
 H261 H 0.07817 0.30319 0.79228
 H262 H -0.06081 0.30433 0.78512
 H263 H -0.06367 0.36424 0.83652
 H264 H -0.08627 0.21186 0.69526
 H265 H -0.08204 0.15771 0.63756
 H266 H 0.05711 0.15774 0.64696
 H267 H 0.05260 0.21166 0.70436
 C268 C -0.04660 0.34699 0.16883
 C269 C -0.04842 0.31335 0.19898
 C270 C -0.01048 0.29684 0.21688
 C271 C 0.02965 0.31374 0.20357
 C272 C 0.03153 0.34735 0.17334
 C273 C -0.00662 0.36461 0.15610
 N274 N -0.01375 0.26414 0.24954
 N275 N 0.01928 0.24865 0.26826
 C276 C 0.01558 0.21699 0.30194
 C277 C 0.05311 0.20199 0.32192
 C278 C 0.05044 0.17262 0.35628
 C279 C 0.01002 0.15785 0.37115
 C280 C -0.02759 0.17239 0.35058
 C281 C -0.02488 0.20174 0.31627
 H282 H -0.07651 0.35958 0.15594
 H283 H -0.07951 0.30056 0.20899
 H284 H 0.05945 0.30145 0.21694
 H285 H 0.06277 0.36027 0.16401
 H286 H 0.08446 0.21354 0.31118
 H287 H 0.07996 0.16184 0.37148
 H288 H -0.05916 0.16144 0.36130
 H289 H -0.05438 0.21285 0.30133
 C290 C 0.04504 -0.35124 0.82947
 C291 C 0.04610 -0.31830 0.79856
 C292 C 0.00792 -0.30262 0.78063
 C293 C -0.03187 -0.31987 0.79452
 C294 C -0.03314 -0.35288 0.82562
 C295 C 0.00541 -0.36940 0.84327
 N296 N 0.01081 -0.26996 0.74779
 N297 N -0.02217 -0.25436 0.72904
 C298 C -0.01822 -0.22235 0.69559
 C299 C -0.05558 -0.20676 0.67570
 C300 C -0.05265 -0.17657 0.64203
 C301 C -0.01213 -0.16149 0.62767
 C302 C 0.02532 -0.17676 0.64801
 C303 C 0.02235 -0.20694 0.68166
 H304 H 0.07553 -0.36261 0.84217
 H305 H 0.07694 -0.30521 0.78814
 H306 H -0.06188 -0.30815 0.78112
 H307 H -0.06434 -0.36568 0.83533
 H308 H -0.08703 -0.21835 0.68610
 H309 H -0.08208 -0.16530 0.62702
 H310 H 0.05697 -0.16565 0.63769
 H311 H 0.05176 -0.21844 0.69649
 C312 C 0.33999 0.04813 0.83965
 C313 C 0.30521 0.05004 0.81120
 C314 C 0.28812 0.01227 0.79372
 C315 C 0.30562 -0.02780 0.80579
 C316 C 0.34042 -0.02976 0.83428
 C317 C 0.35826 0.00824 0.85103
 N318 N 0.25446 0.01566 0.76241
 N319 N 0.23800 -0.01731 0.74460
 C320 C 0.20571 -0.01376 0.71188
 C321 C 0.18986 -0.05139 0.69298
 C322 C 0.16056 -0.04904 0.65890
 C323 C 0.14668 -0.00884 0.64319
 C324 C 0.16174 0.02893 0.66293
 C325 C 0.19107 0.02652 0.69701
 H326 H 0.35300 0.07794 0.85217
 H327 H 0.29203 0.08108 0.80211
 H328 H 0.29293 -0.05747 0.79269
 H329 H 0.35380 -0.06093 0.84260
 H330 H 0.20092 -0.08260 0.70414
 H331 H 0.14939 -0.07868 0.64438
 H332 H 0.15149 0.06033 0.65153
 H333 H 0.20285 0.05610 0.71114
 C334 C -0.34685 -0.04947 0.16281
 C335 C -0.31303 -0.05199 0.19248
 C336 C -0.29487 -0.01454 0.20959
 C337 C -0.31048 0.02580 0.19609
 C338 C -0.34426 0.02849 0.16645
 C339 C -0.36335 -0.00913 0.14967
 N340 N -0.26162 -0.01832 0.24144
 N341 N -0.24436 0.01457 0.25871
 C342 C -0.21202 0.01120 0.29150
 C343 C -0.19555 0.04899 0.30958
 C344 C -0.16557 0.04700 0.34313
 C345 C -0.15154 0.00698 0.35917
 C346 C -0.16743 -0.03099 0.34040
 C347 C -0.19748 -0.02894 0.30686
 H348 H -0.36028 -0.07927 0.15067
 H349 H -0.30126 -0.08329 0.20259
 H350 H -0.29693 0.05527 0.20879
 H351 H -0.35562 0.06023 0.15720
 H352 H -0.20648 0.08011 0.29804
 H353 H -0.15384 0.07678 0.35688
 H354 H -0.15715 -0.06228 0.35207
 H355 H -0.20971 -0.05863 0.29338
 C356 C 0.35768 -0.04800 0.17525
 C357 C 0.32450 -0.05016 0.20619
 C358 C 0.30789 -0.01253 0.22478
 C359 C 0.32461 0.02765 0.21167
 C360 C 0.35785 0.02986 0.18067
 C361 C 0.37487 -0.00799 0.16237
 N362 N 0.27478 -0.01614 0.25736
 N363 N 0.25833 0.01664 0.27588
 C364 C 0.22580 0.01285 0.30904
 C365 C 0.20937 0.05035 0.32807
 C366 C 0.17851 0.04783 0.36134
 C367 C 0.16357 0.00757 0.37617
 C368 C 0.17973 -0.03009 0.35673
 C369 C 0.21062 -0.02751 0.32343
 H370 H 0.37009 -0.07771 0.16166
 H371 H 0.31190 -0.08129 0.21601
 H372 H 0.31228 0.05723 0.22557
 H373 H 0.37043 0.06113 0.17130
 H374 H 0.22079 0.08162 0.31729
 H375 H 0.16658 0.07740 0.37564
 H376 H 0.16874 -0.06153 0.36745
 H377 H 0.22281 -0.05700 0.30921
 C378 C -0.35852 0.05053 0.82486
 C379 C -0.32484 0.05288 0.79445
 C380 C -0.30707 0.01531 0.77686
 C381 C -0.32290 -0.02496 0.79051
 C382 C -0.35651 -0.02748 0.82085
 C383 C -0.37517 0.01025 0.83821
 N384 N -0.27389 0.01882 0.74444
 N385 N -0.25720 -0.01430 0.72676
 C386 C -0.22483 -0.01124 0.69351
 C387 C -0.20875 -0.04918 0.67507
 C388 C -0.17838 -0.04739 0.64136
 C389 C -0.16365 -0.00743 0.62559
 C390 C -0.17935 0.03064 0.64455
 C391 C -0.20975 0.02880 0.67825
 H392 H -0.37167 0.08038 0.83747
 H393 H -0.31284 0.08410 0.78418
 H394 H -0.30962 -0.05450 0.77742
 H395 H -0.36803 -0.05917 0.83027
 H396 H -0.22016 -0.08020 0.68658
 H397 H -0.16673 -0.07723 0.62741
 H398 H -0.16846 0.06187 0.63308
 H399 H -0.22172 0.05858 0.69203
   
