data_POSCAR
  _audit_creation_date              2014-09-24
  _audit_creation_method            'ToBaCCo'
  _symmetry_space_group_name_H-M    'P1'
  _symmetry_Int_Tables_number       1
  _symmetry_cell_setting            triclinic
  loop_
  _symmetry_equiv_pos_as_xyz
 x,y,z
_cell_length_a 47.9468
_cell_length_b 47.2158
_cell_length_c 34.2242
_cell_angle_alpha 90.121100
_cell_angle_beta 90.000900
_cell_angle_gamma 90.072900
loop_
  _atom_site_label
  _atom_site_type_symbol
  _atom_site_fract_x
  _atom_site_fract_y
  _atom_site_fract_z
O1 O 0.28442 0.22139 0.25115
 O2 O 0.24092 0.27622 0.20499
 O3 O 0.28413 0.27656 0.25084
 O4 O 0.24127 0.22066 0.20536
 O5 O 0.21302 0.22135 0.25632
 O6 O 0.25640 0.27644 0.30240
 O7 O 0.21280 0.27582 0.25616
 O8 O 0.25659 0.22148 0.30261
 Cu9 Cu 0.26546 0.24872 0.22288
 Cu10 Cu 0.23196 0.24878 0.28459
 C11 C 0.27799 0.21225 0.28483
 C12 C 0.21932 0.28513 0.22260
 C13 C 0.27769 0.28581 0.28451
 C14 C 0.21966 0.21168 0.22293
 O15 O 0.74148 0.22221 0.29264
 O16 O 0.78485 0.27757 0.24722
 O17 O 0.74146 0.27771 0.29265
 O18 O 0.78487 0.22236 0.24719
 O19 O 0.75729 0.22230 0.19547
 O20 O 0.71359 0.27715 0.24121
 O21 O 0.75744 0.27724 0.19536
 O22 O 0.71350 0.22267 0.24132
 Cu23 Cu 0.76593 0.24998 0.27513
 Cu24 Cu 0.73273 0.24984 0.21309
 C25 C 0.71994 0.21328 0.27485
 C26 C 0.77869 0.28666 0.21339
 C27 C 0.71998 0.28660 0.27479
 C28 C 0.77855 0.21306 0.21349
 O29 O 0.74152 0.77761 0.70615
 O30 O 0.78483 0.72247 0.75200
 O31 O 0.74145 0.72211 0.70648
 O32 O 0.78494 0.77768 0.75151
 O33 O 0.75752 0.77775 0.80336
 O34 O 0.71348 0.72295 0.75780
 O35 O 0.75725 0.72281 0.80372
 O36 O 0.71365 0.77743 0.75758
 Cu37 Cu 0.76595 0.74993 0.72382
 Cu38 Cu 0.73276 0.75027 0.78587
 C39 C 0.72006 0.78666 0.72395
 C40 C 0.77850 0.71341 0.78577
 C41 C 0.71989 0.71334 0.72432
 C42 C 0.77879 0.78702 0.78526
 O43 O 0.28439 0.77741 0.74784
 O44 O 0.24092 0.72239 0.79390
 O45 O 0.28413 0.72223 0.74807
 O46 O 0.24124 0.77796 0.79364
 O47 O 0.21299 0.77723 0.74269
 O48 O 0.25640 0.72233 0.69650
 O49 O 0.21281 0.72276 0.74272
 O50 O 0.25656 0.77729 0.69638
 Cu51 Cu 0.26544 0.75000 0.77606
 Cu52 Cu 0.23194 0.74989 0.71435
 C53 C 0.27796 0.78656 0.71417
 C54 C 0.21933 0.71344 0.77625
 C55 C 0.27769 0.71299 0.71438
 C56 C 0.21962 0.78688 0.77610
 O57 O 0.97619 -0.00878 -0.05082
 O58 O 1.02759 0.03651 -0.00080
 O59 O 1.03062 -0.00685 -0.04842
 O60 O 0.97374 0.03444 -0.00360
 O61 O 0.97602 0.00740 0.04891
 O62 O 1.02732 -0.03813 -0.00070
 O63 O 1.03045 0.00523 0.04697
 O64 O 0.97344 -0.03577 0.00171
 Cu65 Cu 1.00214 0.01672 -0.03108
 Cu66 Cu 1.00188 -0.01821 0.02939
 C67 C 0.96560 -0.02963 -0.03269
 C68 C 1.03799 0.02839 0.03137
 C69 C 1.03794 -0.03004 -0.03276
 C70 C 0.96570 0.02833 0.03072
 O71 O 0.47532 0.49141 0.44979
 O72 O 0.52693 0.53687 0.49906
 O73 O 0.52972 0.49329 0.45182
 O74 O 0.47301 0.53478 0.49673
 O75 O 0.47525 0.50778 0.54928
 O76 O 0.52693 0.46246 0.50016
 O77 O 0.52965 0.50605 0.54741
 O78 O 0.47300 0.46440 0.50234
 Cu79 Cu 0.50133 0.51696 0.46918
 Cu80 Cu 0.50129 0.48230 0.52997
 C81 C 0.46497 0.47048 0.46801
 C82 C 0.53726 0.52904 0.53142
 C83 C 0.53732 0.47032 0.46784
 C84 C 0.46493 0.52869 0.53105
 O85 O -0.02694 0.53448 0.00308
 O86 O 0.02973 0.49266 0.04738
 O87 O 0.02698 0.53642 0.00075
 O88 O -0.02465 0.49098 0.04964
 O89 O -0.02722 0.46417 -0.00323
 O90 O 0.02957 0.50574 -0.04795
 O91 O 0.02673 0.46197 -0.00128
 O92 O -0.02481 0.50762 -0.04978
 Cu93 Cu 0.00137 0.51649 0.03042
 Cu94 Cu 0.00112 0.48201 -0.03076
 C95 C -0.03503 0.52852 -0.03131
 C96 C 0.03720 0.46970 0.03109
 C97 C 0.03725 0.52867 -0.03172
 C98 C -0.03512 0.47015 0.03123
 O99 O 0.47357 1.03478 0.50239
 O100 O 0.53028 0.99329 0.54711
 O101 O 0.52749 1.03685 0.50008
 O102 O 0.47588 0.99143 0.54912
 O103 O 0.47357 0.96438 0.49645
 O104 O 0.53021 1.00602 0.45158
 O105 O 0.52749 0.96245 0.49861
 O106 O 0.47581 1.00774 0.44972
 Cu107 Cu 0.50189 1.01696 0.52986
 Cu108 Cu 0.50185 0.98227 0.46890
 C109 C 0.46550 1.02866 0.46805
 C110 C 0.53787 0.97031 0.53098
 C111 C 0.53782 1.02902 0.46768
 C112 C 0.46554 0.97048 0.53081
 C113 C 1.16870 0.15348 0.16936
 N114 N 1.16050 0.16673 0.20264
 N115 N 1.17733 0.18513 0.22046
 C116 C 1.20274 0.19142 0.20520
 N117 N 1.21089 0.17819 0.17180
 N118 N 1.19426 0.15936 0.15439
 C119 C 1.14968 0.13409 0.14911
 N120 N 1.15943 0.11062 0.13064
 N121 N 1.14196 0.09321 0.11205
 C122 C 1.11425 0.09901 0.11064
 N123 N 1.10457 0.12259 0.12884
 N124 N 1.12194 0.13968 0.14806
 C125 C 1.09498 0.08048 0.08937
 N126 N 1.07351 0.09176 0.06885
 N127 N 1.05569 0.07508 0.04978
 C128 C 1.05838 0.04650 0.05119
 N129 N 1.07974 0.03516 0.07197
 N130 N 1.09792 0.05189 0.09043
 C131 C 0.66730 0.65510 0.66924
 N132 N 0.69514 0.65487 0.66194
 N133 N 0.71201 0.67337 0.67959
 C134 C 0.70168 0.69237 0.70566
 N135 N 0.67391 0.69234 0.71329
 N136 N 0.65699 0.67420 0.69515
 C137 C 0.64843 0.63576 0.64859
 N138 N 0.62196 0.64390 0.64033
 N139 N 0.60479 0.62667 0.62100
 C140 C 0.61332 0.60049 0.60984
 N141 N 0.63973 0.59220 0.61841
 N142 N 0.65708 0.60965 0.63715
 C143 C 0.59420 0.58167 0.58872
 N144 N 0.59554 0.55314 0.59325
 N145 N 0.57743 0.53625 0.57496
 C146 C 0.55770 0.54730 0.55096
 N147 N 0.55660 0.57579 0.54611
 N148 N 0.57438 0.59268 0.56491
 C149 C -0.17024 0.34501 0.16056
 N150 N -0.19225 0.33374 0.14098
 N151 N -0.20908 0.31512 0.15830
 C152 C -0.20436 0.30687 0.19573
 N153 N -0.18234 0.31820 0.21529
 N154 N -0.16567 0.33701 0.19808
 C155 C -0.15122 0.36493 0.14120
 N156 N -0.13244 0.38007 0.16237
 N157 N -0.11471 0.39763 0.14474
 C158 C -0.11493 0.40049 0.10528
 N159 N -0.13370 0.38533 0.08410
 N160 N -0.15161 0.36796 0.10176
 C161 C -0.09474 0.41913 0.08583
 N162 N -0.09051 0.41729 0.04668
 N163 N -0.07158 0.43363 0.02922
 C164 C -0.05638 0.45256 0.05024
 N165 N -0.06077 0.45456 0.08933
 N166 N -0.07952 0.43805 0.10684
 C167 C 0.32999 0.84568 0.65993
 N168 N 0.30961 0.83233 0.63937
 N169 N 0.29275 0.81380 0.65679
 C170 C 0.29579 0.80780 0.69534
 N171 N 0.31614 0.82117 0.71590
 N172 N 0.33286 0.83986 0.69855
 C173 C 0.34909 0.86550 0.64053
 N174 N 0.36662 0.88201 0.66186
 N175 N 0.38444 0.89949 0.64424
 C176 C 0.38553 0.90093 0.60465
 N177 N 0.36799 0.88442 0.58332
 N178 N 0.35002 0.86710 0.60095
 C179 C 0.40580 0.91951 0.58526
 N180 N 0.41079 0.91697 0.54636
 N181 N 0.42976 0.93329 0.52896
 C182 C 0.44426 0.95289 0.54978
 N183 N 0.43912 0.95558 0.58862
 N184 N 0.42031 0.93911 0.60607
 C185 C -0.16971 0.65415 -0.16010
 N186 N -0.16687 0.65992 -0.19874
 N187 N -0.18352 0.67866 -0.21607
 C188 C -0.20374 0.69213 -0.19545
 N189 N -0.20672 0.68620 -0.15688
 N190 N -0.18994 0.66762 -0.13948
 C191 C -0.15072 0.63425 -0.14073
 N192 N -0.14977 0.63264 -0.10115
 N193 N -0.13193 0.61522 -0.08355
 C194 C -0.11454 0.59861 -0.10490
 N195 N -0.11564 0.60006 -0.14449
 N196 N -0.13333 0.61764 -0.16208
 C197 C -0.09442 0.57988 -0.08555
 N198 N -0.08007 0.56024 -0.10642
 N199 N -0.06139 0.54364 -0.08902
 C200 C -0.05622 0.54623 -0.05018
 N201 N -0.07056 0.56589 -0.02930
 N202 N -0.08940 0.58234 -0.04664
 C203 C 0.32999 1.15324 0.33909
 N204 N 0.33286 1.15906 0.30047
 N205 N 0.31615 1.17772 0.28311
 C206 C 0.29581 1.19106 0.30368
 N207 N 0.29279 1.18508 0.34223
 N208 N 0.30964 1.16658 0.35966
 C209 C 0.34908 1.13345 0.35848
 N210 N 0.35003 1.13186 0.39806
 N211 N 0.36799 1.11457 0.41567
 C212 C 0.38549 1.09807 0.39433
 N213 N 0.38438 1.09950 0.35475
 N214 N 0.36657 1.11696 0.33714
 C215 C 0.40575 1.07952 0.41370
 N216 N 0.42022 1.05994 0.39287
 N217 N 0.43903 1.04350 0.41029
 C218 C 0.44420 1.04620 0.44912
 N219 N 0.42974 1.06578 0.46996
 N220 N 0.41078 1.08207 0.45259
 C221 C 1.16862 -0.15516 -0.17017
 N222 N 1.19419 -0.16097 -0.15522
 N223 N 1.21083 -0.17972 -0.17269
 C224 C 1.20269 -0.19294 -0.20612
 N225 N 1.17726 -0.18672 -0.22134
 N226 N 1.16043 -0.16840 -0.20347
 C227 C 1.14961 -0.13582 -0.14990
 N228 N 1.12187 -0.14145 -0.14887
 N229 N 1.10450 -0.12439 -0.12968
 C230 C 1.11419 -0.10080 -0.11148
 N231 N 1.14191 -0.09496 -0.11285
 N232 N 1.15937 -0.11234 -0.13142
 C233 C 1.09493 -0.08224 -0.09032
 N234 N 1.09798 -0.05366 -0.09135
 N235 N 1.07981 -0.03690 -0.07302
 C236 C 1.05833 -0.04820 -0.05240
 N237 N 1.05551 -0.07677 -0.05101
 N238 N 1.07333 -0.09349 -0.06995
 C239 C 0.66747 0.34466 0.33012
 N240 N 0.69529 0.34484 0.33752
 N241 N 0.71214 0.32641 0.31981
 C242 C 0.70180 0.30751 0.29356
 N243 N 0.67405 0.30759 0.28582
 N244 N 0.65715 0.32567 0.30403
 C245 C 0.64861 0.36393 0.35083
 N246 N 0.62211 0.35575 0.35897
 N247 N 0.60494 0.37292 0.37831
 C248 C 0.61349 0.39909 0.38960
 N249 N 0.63992 0.40743 0.38114
 N250 N 0.65728 0.39003 0.36239
 C251 C 0.59435 0.41786 0.41070
 N252 N 0.59571 0.44640 0.40620
 N253 N 0.57756 0.46324 0.42444
 C254 C 0.55779 0.45212 0.44836
 N255 N 0.55668 0.42363 0.45318
 N256 N 0.57448 0.40679 0.43442
 C257 C 0.82993 -0.15436 -0.16229
 N258 N 0.80789 -0.16545 -0.14266
 N259 N 0.79103 -0.18415 -0.15987
 C260 C 0.79576 -0.19267 -0.19722
 N261 N 0.81781 -0.18152 -0.21685
 N262 N 0.83450 -0.16262 -0.19976
 C263 C 0.84900 -0.13440 -0.14301
 N264 N 0.86788 -0.11945 -0.16419
 N265 N 0.88568 -0.10189 -0.14658
 C266 C 0.88544 -0.09886 -0.10713
 N267 N 0.86657 -0.11381 -0.08595
 N268 N 0.84859 -0.13118 -0.10359
 C269 C 0.90572 -0.08030 -0.08764
 N270 N 0.90991 -0.08210 -0.04849
 N271 N 0.92892 -0.06587 -0.03095
 C272 C 0.94427 -0.04707 -0.05187
 N273 N 0.93993 -0.04510 -0.09097
 N274 N 0.92109 -0.06151 -0.10857
 C275 C 0.32944 0.34542 0.33861
 N276 N 0.30914 0.33204 0.35919
 N277 N 0.29234 0.31338 0.34180
 C278 C 0.29538 0.30726 0.30325
 N279 N 0.31566 0.32066 0.28266
 N280 N 0.33232 0.33948 0.29999
 C281 C 0.34851 0.36533 0.35801
 N282 N 0.36602 0.38181 0.33671
 N283 N 0.38384 0.39934 0.35436
 C284 C 0.38493 0.40086 0.39395
 N285 N 0.36741 0.38438 0.41525
 N286 N 0.34945 0.36701 0.39760
 C287 C 0.40521 0.41947 0.41339
 N288 N 0.41021 0.41698 0.45228
 N289 N 0.42918 0.43331 0.46972
 C290 C 0.44368 0.45288 0.44897
 N291 N 0.43854 0.45552 0.41014
 N292 N 0.41972 0.43903 0.39263
 C293 C 0.16703 0.65525 -0.16836
 N294 N 0.19488 0.65513 -0.16117
 N295 N 0.21165 0.67365 -0.17885
 C296 C 0.20121 0.69256 -0.20485
 N297 N 0.17342 0.69242 -0.21236
 N298 N 0.15660 0.67426 -0.19418
 C299 C 0.14826 0.63584 -0.14777
 N300 N 0.12177 0.64390 -0.13937
 N301 N 0.10466 0.62658 -0.12020
 C302 C 0.11325 0.60038 -0.10936
 N303 N 0.13967 0.59217 -0.11807
 N304 N 0.15697 0.60971 -0.13665
 C305 C 0.09417 0.58147 -0.08843
 N306 N 0.09549 0.55295 -0.09337
 N307 N 0.07738 0.53600 -0.07528
 C308 C 0.05769 0.54697 -0.05108
 N309 N 0.05662 0.57543 -0.04583
 N310 N 0.07439 0.59239 -0.06443
 C311 C 0.66754 1.15514 0.33013
 N312 N 0.69538 1.15501 0.33738
 N313 N 0.71219 1.17349 0.31969
 C314 C 0.70179 1.19237 0.29362
 N315 N 0.67401 1.19224 0.28603
 N316 N 0.65716 1.17412 0.30422
 C317 C 0.64874 1.13580 0.35080
 N318 N 0.62225 1.14389 0.35912
 N319 N 0.60514 1.12666 0.37843
 C320 C 0.61374 1.10051 0.38951
 N321 N 0.64015 1.09227 0.38087
 N322 N 0.65745 1.10972 0.36214
 C323 C 0.59467 1.08168 0.41058
 N324 N 0.59604 1.05315 0.40591
 N325 N 0.57796 1.03624 0.42415
 C326 C 0.55824 1.04728 0.44822
 N327 N 0.55711 1.07577 0.45321
 N328 N 0.57485 1.09268 0.43447
 C329 C 0.16700 0.34310 0.16709
 N330 N 0.15658 0.32409 0.19295
 N331 N 0.17340 0.30599 0.21116
 C332 C 0.20119 0.30593 0.20365
 N333 N 0.21163 0.32485 0.17763
 N334 N 0.19485 0.34330 0.15991
 C335 C 0.14823 0.36248 0.14651
 N336 N 0.15697 0.38861 0.13535
 N337 N 0.13967 0.40613 0.11682
 C338 C 0.11323 0.39790 0.10819
 N339 N 0.10461 0.37169 0.11906
 N340 N 0.12173 0.35439 0.13818
 C341 C 0.09414 0.41682 0.08738
 N342 N 0.07421 0.40591 0.06353
 N343 N 0.05644 0.42290 0.04506
 C344 C 0.05764 0.45136 0.05029
 N345 N 0.07747 0.46231 0.07432
 N346 N 0.09558 0.44533 0.09228
 C347 C 0.66773 0.84461 0.66842
 N348 N 0.65734 0.82574 0.69451
 N349 N 0.67418 0.80768 0.71277
 C350 C 0.70194 0.80751 0.70508
 N351 N 0.71235 0.82628 0.67883
 N352 N 0.69556 0.84470 0.66106
 C353 C 0.64894 0.86388 0.64769
 N354 N 0.65767 0.88994 0.63622
 N355 N 0.64036 0.90734 0.61749
 C356 C 0.61392 0.89905 0.60897
 N357 N 0.60531 0.87292 0.62017
 N358 N 0.62243 0.85574 0.63948
 C359 C 0.59483 0.91783 0.58792
 N360 N 0.57496 0.90676 0.56411
 N361 N 0.55719 0.92362 0.54542
 C362 C 0.55833 0.95211 0.55038
 N363 N 0.57810 0.96322 0.57437
 N364 N 0.59622 0.94637 0.59255
 C365 C 0.83045 0.15355 0.15973
 N366 N 0.83329 0.15958 0.19833
 N367 N 0.81661 0.17840 0.21554
 C368 C 0.79634 0.19168 0.19485
 N369 N 0.79334 0.18547 0.15633
 N370 N 0.81016 0.16682 0.13905
 C371 C 0.84950 0.13362 0.14043
 N372 N 0.85042 0.13182 0.10086
 N373 N 0.86833 0.11441 0.08329
 C374 C 0.88583 0.09801 0.10466
 N375 N 0.88476 0.09963 0.14424
 N376 N 0.86699 0.11720 0.16181
 C377 C 0.90606 0.07936 0.08528
 N378 N 0.92055 0.05984 0.10608
 N379 N 0.93932 0.04333 0.08860
 C380 C 0.94444 0.04591 0.04975
 N381 N 0.92996 0.06543 0.02895
 N382 N 0.91103 0.08179 0.04637
 C383 C 0.32943 0.65351 0.66027
 N384 N 0.30915 0.66687 0.63967
 N385 N 0.29236 0.68549 0.65707
 C386 C 0.29538 0.69159 0.69562
 N387 N 0.31564 0.67822 0.71623
 N388 N 0.33229 0.65944 0.69890
 C389 C 0.34848 0.63364 0.64088
 N390 N 0.36596 0.61717 0.66219
 N391 N 0.38376 0.59966 0.64456
 C392 C 0.38488 0.59816 0.60498
 N393 N 0.36739 0.61462 0.58366
 N394 N 0.34945 0.63197 0.60129
 C395 C 0.40515 0.57958 0.58556
 N396 N 0.41019 0.58209 0.54668
 N397 N 0.42916 0.56578 0.52926
 C398 C 0.44363 0.54624 0.55004
 N399 N 0.43845 0.54358 0.58886
 N400 N 0.41963 0.56004 0.60634
   
