data_POSCAR
  _audit_creation_date              2014-09-24
  _audit_creation_method            'ToBaCCo'
  _symmetry_space_group_name_H-M    'P1'
  _symmetry_Int_Tables_number       1
  _symmetry_cell_setting            triclinic
  loop_
  _symmetry_equiv_pos_as_xyz
 x,y,z
_cell_length_a 58.0387
_cell_length_b 40.1888
_cell_length_c 24.5086
_cell_angle_alpha 89.965900
_cell_angle_beta 90.322400
_cell_angle_gamma 90.041800
loop_
  _atom_site_label
  _atom_site_type_symbol
  _atom_site_fract_x
  _atom_site_fract_y
  _atom_site_fract_z
O1 O 0.75581 0.21011 0.55040
 O2 O 0.72166 0.24825 0.44010
 O3 O 0.75868 0.21204 0.44455
 O4 O 0.71874 0.24713 0.54603
 O5 O 0.73976 0.29284 0.54968
 O6 O 0.78066 0.25652 0.45255
 O7 O 0.74342 0.29321 0.44439
 O8 O 0.77655 0.25593 0.55761
 Cu9 Cu 0.73657 0.22485 0.49484
 Cu10 Cu 0.76223 0.27916 0.50151
 C11 C 0.77210 0.22638 0.57271
 C12 C 0.72665 0.27728 0.42340
 C13 C 0.77679 0.22804 0.43189
 C14 C 0.72223 0.27627 0.56449
 O15 O 0.25811 0.71410 0.55297
 O16 O 0.22347 0.75178 0.44306
 O17 O 0.26075 0.71600 0.44729
 O18 O 0.22077 0.75059 0.54906
 O19 O 0.24151 0.79656 0.55260
 O20 O 0.28241 0.76097 0.45478
 O21 O 0.24488 0.79708 0.44726
 O22 O 0.27855 0.76014 0.55992
 Cu23 Cu 0.23864 0.72856 0.49767
 Cu24 Cu 0.26394 0.78326 0.50407
 C25 C 0.27441 0.73049 0.57512
 C26 C 0.22819 0.78091 0.42642
 C27 C 0.27866 0.73238 0.43452
 C28 C 0.22412 0.77975 0.56757
 O29 O 0.21782 0.25359 -0.45273
 O30 O 0.25822 0.28813 -0.55391
 O31 O 0.22072 0.25279 -0.55878
 O32 O 0.25522 0.28988 -0.44825
 O33 O 0.27558 0.24372 -0.44148
 O34 O 0.24175 0.20723 -0.55434
 O35 O 0.27953 0.24285 -0.54658
 O36 O 0.23836 0.20755 -0.44904
 Cu37 Cu 0.23588 0.27566 -0.50386
 Cu38 Cu 0.26088 0.22075 -0.49743
 C39 C 0.22098 0.22437 -0.43410
 C40 C 0.27602 0.27155 -0.56667
 C41 C 0.22519 0.22358 -0.57549
 C42 C 0.27142 0.27332 -0.42621
 O43 O -0.24012 0.78539 -0.55260
 O44 O -0.28042 0.75080 -0.45141
 O45 O -0.24314 0.78730 -0.44694
 O46 O -0.27743 0.74961 -0.55738
 O47 O -0.25607 0.70431 -0.55275
 O48 O -0.22267 0.74127 -0.43962
 O49 O -0.25978 0.70485 -0.44747
 O50 O -0.21853 0.74042 -0.54467
 Cu51 Cu -0.26241 0.77282 -0.50257
 Cu52 Cu -0.23717 0.71813 -0.49564
 C53 C -0.22220 0.76900 -0.56505
 C54 C -0.27721 0.72162 -0.43268
 C55 C -0.22694 0.77088 -0.42460
 C56 C -0.27268 0.72049 -0.57391
 N57 N 0.02088 1.06010 -0.06042
 N58 N 0.03737 1.08179 -0.07093
 N59 N -0.02806 1.03585 -0.09240
 N60 N -0.04587 1.04011 -0.12533
 N61 N -0.02745 1.05920 -0.05501
 N62 N -0.04475 1.08016 -0.06174
 N63 N 0.02041 1.03659 -0.09757
 N64 N 0.03665 1.04150 -0.13416
 C65 C 0.04713 1.06977 -0.11697
 C66 C -0.05617 1.06781 -0.10567
 N67 N -0.02679 0.94125 -0.05423
 N68 N -0.04386 0.91983 -0.06073
 N69 N 0.02080 0.96491 -0.09707
 N70 N 0.03716 0.96035 -0.13347
 N71 N 0.02155 0.94158 -0.05959
 N72 N 0.03838 0.92040 -0.06962
 N73 N -0.02766 0.96444 -0.09190
 N74 N -0.04541 0.95962 -0.12478
 Mn75 Mn -0.00361 1.00044 -0.09535
 C76 C -0.05540 0.93174 -0.10482
 C77 C 0.04802 0.93251 -0.11578
 N78 N -0.02489 1.05925 0.06248
 N79 N -0.04178 1.08029 0.07275
 N80 N 0.02482 1.03692 0.09440
 N81 N 0.04299 1.04133 0.12611
 N82 N 0.02362 1.06030 0.05709
 N83 N 0.04093 1.08143 0.06263
 N84 N -0.02346 1.03655 0.10092
 N85 N -0.03911 1.04180 0.13879
 Mn86 Mn -0.00199 1.06013 0.00107
 C87 C -0.05051 1.06902 0.12045
 C88 C 0.05290 1.06917 0.10584
 N89 N 0.02428 0.94192 0.05790
 N90 N 0.04175 0.92115 0.06394
 N91 N -0.02309 0.96474 0.10135
 N92 N -0.03875 0.95937 0.13915
 N93 N -0.02422 0.94177 0.06332
 N94 N -0.04088 0.92036 0.07390
 N95 N 0.02520 0.96547 0.09493
 N96 N 0.04333 0.96151 0.12694
 Mn97 Mn -0.00132 0.94121 0.00189
 Mn98 Mn 0.00089 1.00092 0.09848
 Cl99 Cl -0.00152 1.00067 0.00150
 C100 C 0.05352 0.93380 0.10714
 C101 C -0.04982 0.93173 0.12130
 N102 N 0.47649 0.46426 0.09952
 N103 N 0.46080 0.45907 0.13730
 N104 N 0.52367 0.44075 0.05582
 N105 N 0.54106 0.41979 0.06144
 N106 N 0.52478 0.46415 0.09306
 N107 N 0.54296 0.45991 0.12481
 N108 N 0.47517 0.44142 0.06134
 N109 N 0.45833 0.42028 0.07179
 C110 C 0.44950 0.43168 0.11929
 C111 C 0.55298 0.43217 0.10463
 N112 N 0.52031 0.46427 -0.09900
 N113 N 0.53658 0.45951 -0.13554
 N114 N 0.47256 0.44134 -0.05618
 N115 N 0.45537 0.42017 -0.06287
 N116 N 0.47185 0.46467 -0.09365
 N117 N 0.45407 0.46018 -0.12659
 N118 N 0.52090 0.44083 -0.06169
 N119 N 0.53752 0.41935 -0.07202
 Mn120 Mn 0.49805 0.44066 -0.00015
 C121 C 0.54722 0.43141 -0.11815
 C122 C 0.44390 0.43237 -0.10685
 N123 N 0.52504 0.53557 0.09323
 N124 N 0.54317 0.53962 0.12518
 N125 N 0.47559 0.55898 0.06157
 N126 N 0.45895 0.58038 0.07216
 N127 N 0.47675 0.53605 0.09967
 N128 N 0.46113 0.54143 0.13755
 N129 N 0.52409 0.55908 0.05609
 N130 N 0.54155 0.57991 0.06200
 Mn131 Mn 0.50078 0.50001 0.09695
 C132 C 0.55334 0.56734 0.10524
 C133 C 0.45005 0.56903 0.11964
 N134 N 0.47209 0.53614 -0.09349
 N135 N 0.45436 0.54097 -0.12647
 N136 N 0.52130 0.55930 -0.06142
 N137 N 0.53804 0.58062 -0.07162
 N138 N 0.52057 0.53595 -0.09882
 N139 N 0.53690 0.54060 -0.13530
 N140 N 0.47298 0.55937 -0.05593
 N141 N 0.45597 0.58083 -0.06260
 Mn142 Mn 0.49621 0.50026 -0.09686
 Mn143 Mn 0.49847 0.55960 0.00011
 Cl144 Cl 0.49837 0.50013 -0.00002
 C145 C 0.44442 0.56891 -0.10665
 C146 C 0.54769 0.56855 -0.11776
 C147 C 0.32681 0.31647 0.32999
 C148 C 0.33318 0.29253 0.36897
 C149 C 0.31651 0.27719 0.40126
 C150 C 0.29322 0.28613 0.39618
 C151 C 0.28679 0.30997 0.35703
 C152 C 0.30342 0.32468 0.32364
 C153 C 0.34465 0.33351 0.29760
 N154 N 0.34020 0.34410 0.24595
 N155 N 0.35641 0.35960 0.21713
 C156 C 0.37755 0.36549 0.23916
 N157 N 0.38193 0.35504 0.29086
 N158 N 0.36584 0.33919 0.31939
 C159 C 0.39550 0.38305 0.20789
 C160 C 0.41160 0.40330 0.23506
 C161 C 0.42883 0.41967 0.20594
 C162 C 0.43067 0.41536 0.14932
 C163 C 0.41466 0.39502 0.12205
 C164 C 0.39699 0.37935 0.15103
 H165 H 0.35109 0.28566 0.37446
 H166 H 0.32194 0.25902 0.43136
 H167 H 0.26892 0.31722 0.35232
 H168 H 0.29811 0.34319 0.29400
 H169 H 0.41073 0.40669 0.27884
 H170 H 0.44103 0.43517 0.22788
 H171 H 0.41572 0.39144 0.07834
 H172 H 0.38482 0.36376 0.12922
 C173 C -0.17161 0.81447 0.33176
 C174 C -0.19506 0.82221 0.32506
 C175 C -0.21162 0.80729 0.35839
 C176 C -0.20505 0.78371 0.39783
 C177 C -0.18169 0.77521 0.40324
 C178 C -0.16510 0.79077 0.37100
 C179 C -0.15388 0.83177 0.29944
 N180 N -0.13278 0.83794 0.32138
 N181 N -0.11681 0.85407 0.29292
 C182 C -0.12122 0.86436 0.24114
 N183 N -0.14227 0.85799 0.21896
 N184 N -0.15836 0.84220 0.24771
 C185 C -0.10341 0.88222 0.20991
 C186 C -0.10185 0.87849 0.15307
 C187 C -0.08432 0.89447 0.12410
 C188 C -0.06851 0.91515 0.15135
 C189 C -0.07042 0.91950 0.20794
 C190 C -0.08752 0.90283 0.23707
 H191 H -0.20049 0.84053 0.29522
 H192 H -0.22955 0.81420 0.35342
 H193 H -0.17617 0.75725 0.43357
 H194 H -0.14714 0.78427 0.37676
 H195 H -0.11386 0.86263 0.13127
 H196 H -0.08320 0.89084 0.08040
 H197 H -0.05839 0.93526 0.22986
 H198 H -0.08845 0.90625 0.28084
 C199 C 0.68273 0.67451 0.30717
 C200 C 0.68179 0.70901 0.31635
 C201 C 0.69664 0.72405 0.35405
 C202 C 0.71292 0.70501 0.38300
 C203 C 0.71447 0.67074 0.37233
 C204 C 0.69946 0.65563 0.33501
 C205 C 0.66557 0.65810 0.27112
 N206 N 0.66297 0.62452 0.27188
 N207 N 0.64655 0.60986 0.24229
 C208 C 0.63208 0.62813 0.21048
 N209 N 0.63488 0.66167 0.20907
 N210 N 0.65125 0.67636 0.23887
 C211 C 0.61286 0.61196 0.18050
 C212 C 0.60010 0.62955 0.14096
 C213 C 0.58107 0.61479 0.11529
 C214 C 0.57429 0.58235 0.12921
 C215 C 0.58730 0.56455 0.16785
 C216 C 0.60645 0.57911 0.19298
 H217 H 0.66912 0.72430 0.29563
 H218 H 0.69510 0.75055 0.36117
 H219 H 0.72683 0.65539 0.39397
 H220 H 0.70074 0.62904 0.32867
 H221 H 0.60465 0.65484 0.13024
 H222 H 0.57134 0.62903 0.08555
 H223 H 0.58254 0.53941 0.17910
 H224 H 0.61586 0.56485 0.22324
 C225 C 0.18140 1.17875 0.30685
 C226 C 0.17870 1.21240 0.32082
 C227 C 0.19342 1.22736 0.35885
 C228 C 0.21141 1.20914 0.38352
 C229 C 0.21466 1.17578 0.36768
 C230 C 0.19972 1.16073 0.33013
 C231 C 0.16444 1.16214 0.27057
 N232 N 0.16297 1.12843 0.26892
 N233 N 0.14669 1.11346 0.23929
 C234 C 0.13126 1.13156 0.20983
 N235 N 0.13296 1.16527 0.21079
 N236 N 0.14916 1.18024 0.24065
 C237 C 0.11219 1.11498 0.18002
 C238 C 0.09892 1.13249 0.14136
 C239 C 0.07998 1.11734 0.11597
 C240 C 0.07379 1.08458 0.12939
 C241 C 0.08730 1.06686 0.16714
 C242 C 0.10639 1.08181 0.19191
 H243 H 0.16476 1.22699 0.30365
 H244 H 0.19039 1.25314 0.36949
 H245 H 0.22835 1.16090 0.38538
 H246 H 0.20236 1.13481 0.31989
 H247 H 0.10301 1.15803 0.13112
 H248 H 0.06985 1.13152 0.08692
 H249 H 0.08299 1.04148 0.17796
 H250 H 0.11621 1.06763 0.22154
 C251 C 0.67256 0.32170 -0.32908
 C252 C 0.69032 0.34065 -0.35239
 C253 C 0.70669 0.32570 -0.38593
 C254 C 0.70556 0.29149 -0.39746
 C255 C 0.68797 0.27240 -0.37368
 C256 C 0.67172 0.28732 -0.33956
 C257 C 0.65472 0.33799 -0.29532
 N258 N 0.64033 0.31976 -0.26355
 N259 N 0.62401 0.33453 -0.23418
 C260 C 0.62131 0.36810 -0.23563
 N261 N 0.63573 0.38629 -0.26733
 N262 N 0.65211 0.37156 -0.29643
 C263 C 0.60275 0.38453 -0.20435
 C264 C 0.59606 0.41728 -0.21693
 C265 C 0.57807 0.43251 -0.18876
 C266 C 0.56658 0.41549 -0.14692
 C267 C 0.57349 0.38300 -0.13356
 C268 C 0.59130 0.36757 -0.16226
 H269 H 0.69155 0.36715 -0.34493
 H270 H 0.72000 0.34113 -0.40368
 H271 H 0.68668 0.24597 -0.38171
 H272 H 0.65823 0.27202 -0.32230
 H273 H 0.60448 0.43102 -0.24921
 H274 H 0.57314 0.45763 -0.19975
 H275 H 0.56490 0.36932 -0.10146
 H276 H 0.59611 0.34239 -0.15141
 C277 C 0.17433 0.82447 -0.32560
 C278 C 0.17367 0.79009 -0.33613
 C279 C 0.18998 0.77539 -0.37036
 C280 C 0.20743 0.79471 -0.39418
 C281 C 0.20839 0.82892 -0.38255
 C282 C 0.19197 0.84365 -0.34891
 C283 C 0.15639 0.84053 -0.29186
 N284 N 0.15357 0.87407 -0.29303
 N285 N 0.13707 0.88860 -0.26402
 C286 C 0.12275 0.87023 -0.23236
 N287 N 0.12566 0.83669 -0.23084
 N288 N 0.14210 0.82213 -0.26011
 C289 C 0.10404 0.88641 -0.20127
 C290 C 0.09268 0.86934 -0.15917
 C291 C 0.07471 0.88453 -0.13068
 C292 C 0.06755 0.91687 -0.14429
 C293 C 0.07896 0.93400 -0.18613
 C294 C 0.09711 0.91902 -0.21408
 H295 H 0.16027 0.77463 -0.31887
 H296 H 0.18882 0.74895 -0.37846
 H297 H 0.22160 0.84452 -0.40032
 H298 H 0.19305 0.87016 -0.34140
 H299 H 0.09768 0.84426 -0.14814
 H300 H 0.06619 0.87077 -0.09858
 H301 H 0.07384 0.95902 -0.19730
 H302 H 0.10546 0.93283 -0.24638
 C303 C 0.31844 0.68364 -0.30982
 C304 C 0.30010 0.66604 -0.33390
 C305 C 0.28511 0.68177 -0.37050
 C306 C 0.28826 0.71546 -0.38459
 C307 C 0.30625 0.73328 -0.35910
 C308 C 0.32107 0.71759 -0.32200
 C309 C 0.33536 0.66630 -0.27440
 N310 N 0.35060 0.68373 -0.24330
 N311 N 0.36660 0.66808 -0.21376
 C312 C 0.36813 0.63435 -0.21434
 N313 N 0.35278 0.61692 -0.24511
 N314 N 0.33671 0.63256 -0.27441
 C315 C 0.38679 0.61702 -0.18423
 C316 C 0.39250 0.58397 -0.19716
 C317 C 0.41107 0.56825 -0.17142
 C318 C 0.42413 0.58507 -0.13172
 C319 C 0.41805 0.61773 -0.11752
 C320 C 0.39966 0.63365 -0.14381
 H321 H 0.29749 0.63992 -0.32502
 H322 H 0.27143 0.66714 -0.38885
 H323 H 0.30922 0.75928 -0.36845
 H324 H 0.33502 0.73188 -0.30413
 H325 H 0.38299 0.57047 -0.22816
 H326 H 0.41532 0.54298 -0.18294
 H327 H 0.42783 0.63125 -0.08698
 H328 H 0.39562 0.65906 -0.13273
 C329 C -0.18345 1.17881 -0.30979
 C330 C -0.20023 1.16038 -0.33824
 C331 C -0.21517 1.17602 -0.37505
 C332 C -0.21352 1.21041 -0.38463
 C333 C -0.19717 1.22902 -0.35511
 C334 C -0.18237 1.21341 -0.31789
 C335 C -0.16643 1.16180 -0.27414
 N336 N -0.15223 1.17949 -0.24077
 N337 N -0.13608 1.16426 -0.21106
 C338 C -0.13339 1.13072 -0.21367
 N339 N -0.14773 1.11303 -0.24668
 N340 N -0.16393 1.12823 -0.27619
 C341 C -0.11452 1.11398 -0.18340
 C342 C -0.10805 1.08130 -0.19688
 C343 C -0.08927 1.06620 -0.17104
 C344 C -0.07671 1.08328 -0.13074
 C345 C -0.08354 1.11553 -0.11598
 C346 C -0.10218 1.13083 -0.14231
 H347 H -0.20162 1.13372 -0.33272
 H348 H -0.22758 1.16098 -0.39714
 H349 H -0.19554 1.25558 -0.36143
 H350 H -0.16964 1.22836 -0.29666
 H351 H -0.11715 1.06762 -0.22837
 H352 H -0.08445 1.04122 -0.18300
 H353 H -0.07416 1.12923 -0.08496
 H354 H -0.10679 1.15595 -0.13078
 C355 C 0.67364 0.67776 -0.32752
 C356 C 0.69283 0.65958 -0.34526
 C357 C 0.70931 0.67430 -0.37885
 C358 C 0.70684 0.70752 -0.39635
 C359 C 0.68774 0.72585 -0.37782
 C360 C 0.67143 0.71119 -0.34352
 C361 C 0.65573 0.66157 -0.29384
 N362 N 0.64035 0.67997 -0.26520
 N363 N 0.62395 0.66527 -0.23594
 C364 C 0.62215 0.63157 -0.23446
 N365 N 0.63755 0.61319 -0.26306
 N366 N 0.65403 0.62788 -0.29199
 C367 C 0.60350 0.61519 -0.20339
 C368 C 0.59716 0.58217 -0.21505
 C369 C 0.57904 0.56702 -0.18711
 C370 C 0.56714 0.58438 -0.14637
 C371 C 0.57374 0.61713 -0.13389
 C372 C 0.59162 0.63250 -0.16244
 H373 H 0.69511 0.63384 -0.33330
 H374 H 0.72375 0.65928 -0.39193
 H375 H 0.68522 0.75150 -0.39008
 H376 H 0.65679 0.72584 -0.33058
 H377 H 0.60592 0.56820 -0.24648
 H378 H 0.57435 0.54168 -0.19738
 H379 H 0.56482 0.63107 -0.10265
 H380 H 0.59619 0.65790 -0.15234
 C381 C 0.17198 1.18042 -0.32858
 C382 C 0.19119 1.16231 -0.34643
 C383 C 0.20759 1.17706 -0.38015
 C384 C 0.20507 1.21028 -0.39767
 C385 C 0.18596 1.22855 -0.37903
 C386 C 0.16970 1.21384 -0.34461
 C387 C 0.15417 1.16413 -0.29474
 N388 N 0.13868 1.18242 -0.26618
 N389 N 0.12240 1.16758 -0.23671
 C390 C 0.12083 1.13386 -0.23491
 N391 N 0.13633 1.11561 -0.26343
 N392 N 0.15268 1.13043 -0.29257
 C393 C 0.10235 1.11728 -0.20356
 C394 C 0.09633 1.08407 -0.21476
 C395 C 0.07841 1.06865 -0.18650
 C396 C 0.06638 1.08593 -0.14589
 C397 C 0.07263 1.11889 -0.13388
 C398 C 0.09033 1.13452 -0.16276
 H399 H 0.19354 1.13659 -0.33446
 H400 H 0.22204 1.16208 -0.39329
 H401 H 0.18339 1.25419 -0.39131
 H402 H 0.15506 1.22844 -0.33158
 H403 H 0.10520 1.07014 -0.24605
 H404 H 0.07398 1.04317 -0.19642
 H405 H 0.06360 1.13278 -0.10276
 H406 H 0.09464 1.16006 -0.15302
 C407 C 0.31648 0.32046 -0.30951
 C408 C 0.31764 0.28593 -0.31824
 C409 C 0.30264 0.27042 -0.35517
 C410 C 0.28602 0.28906 -0.38375
 C411 C 0.28431 0.32336 -0.37350
 C412 C 0.29942 0.33890 -0.33699
 C413 C 0.33364 0.33745 -0.27423
 N414 N 0.33594 0.37107 -0.27588
 N415 N 0.35221 0.38633 -0.24666
 C416 C 0.36682 0.36865 -0.21434
 N417 N 0.36435 0.33506 -0.21213
 N418 N 0.34813 0.31977 -0.24157
 C419 C 0.38572 0.38552 -0.18432
 C420 C 0.39824 0.36873 -0.14345
 C421 C 0.41683 0.38423 -0.11723
 C422 C 0.42343 0.41663 -0.13188
 C423 C 0.41072 0.43362 -0.17201
 C424 C 0.39198 0.41831 -0.19772
 H425 H 0.33057 0.27098 -0.29775
 H426 H 0.30434 0.24392 -0.36204
 H427 H 0.27169 0.33844 -0.39484
 H428 H 0.29795 0.36551 -0.33097
 H429 H 0.39378 0.34352 -0.13199
 H430 H 0.42634 0.37060 -0.08635
 H431 H 0.41537 0.45869 -0.18389
 H432 H 0.38274 0.43195 -0.22905
 C433 C -0.18224 0.81848 -0.30759
 C434 C -0.18095 0.78395 -0.31620
 C435 C -0.19583 0.76829 -0.35323
 C436 C -0.21246 0.78679 -0.38206
 C437 C -0.21430 0.82109 -0.37194
 C438 C -0.19930 0.83678 -0.33531
 C439 C -0.16519 0.83563 -0.27218
 N440 N -0.16306 0.86927 -0.27373
 N441 N -0.14689 0.88468 -0.24444
 C442 C -0.13219 0.86714 -0.21213
 N443 N -0.13449 0.83351 -0.21000
 N444 N -0.15062 0.81807 -0.23952
 C445 C -0.11338 0.88420 -0.18208
 C446 C -0.10072 0.86753 -0.14131
 C447 C -0.08220 0.88324 -0.11512
 C448 C -0.07581 0.91573 -0.12972
 C449 C -0.08866 0.93260 -0.16974
 C450 C -0.10733 0.91709 -0.19541
 H451 H -0.16801 0.76911 -0.29553
 H452 H -0.19403 0.74180 -0.35999
 H453 H -0.22692 0.83606 -0.39345
 H454 H -0.20087 0.86337 -0.32939
 H455 H -0.10501 0.84225 -0.12992
 H456 H -0.07258 0.86970 -0.08432
 H457 H -0.08418 0.95774 -0.18158
 H458 H -0.11667 0.93064 -0.22665
 C459 C 0.32891 0.68681 0.33078
 C460 C 0.33556 0.71053 0.36984
 C461 C 0.31907 0.72613 0.40224
 C462 C 0.29568 0.71767 0.39717
 C463 C 0.28898 0.69407 0.35790
 C464 C 0.30544 0.67910 0.32442
 C465 C 0.34653 0.66943 0.29835
 N466 N 0.34193 0.65896 0.24672
 N467 N 0.35792 0.64308 0.21788
 C468 C 0.37900 0.63667 0.23986
 N469 N 0.38353 0.64700 0.29154
 N470 N 0.36766 0.66322 0.32009
 C471 C 0.39670 0.61871 0.20853
 C472 C 0.41258 0.59807 0.23563
 C473 C 0.42959 0.58133 0.20641
 C474 C 0.43142 0.58564 0.14979
 C475 C 0.41561 0.60634 0.12260
 C476 C 0.39817 0.62239 0.15166
 H477 H 0.35354 0.71701 0.37535
 H478 H 0.32469 0.74410 0.43244
 H479 H 0.27103 0.68719 0.35320
 H480 H 0.29991 0.66077 0.29472
 H481 H 0.41172 0.59469 0.27942
 H482 H 0.44163 0.56557 0.22829
 H483 H 0.41667 0.60994 0.07888
 H484 H 0.38616 0.63827 0.12991
 C485 C -0.17373 1.18379 0.32869
 C486 C -0.16877 1.21362 0.35597
 C487 C -0.18540 1.22886 0.38846
 C488 C -0.20715 1.21396 0.39593
 C489 C -0.21208 1.18410 0.36802
 C490 C -0.19564 1.16947 0.33410
 C491 C -0.15576 1.16708 0.29649
 N492 N -0.16108 1.15107 0.24927
 N493 N -0.14475 1.13571 0.22073
 C494 C -0.12259 1.13534 0.23883
 N495 N -0.11732 1.15120 0.28617
 N496 N -0.13357 1.16697 0.31426
 C497 C -0.10453 1.11780 0.20816
 C498 C -0.08727 1.10018 0.23619
 C499 C -0.07001 1.08364 0.20745
 C500 C -0.06931 1.08536 0.15031
 C501 C -0.08645 1.10320 0.12220
 C502 C -0.10418 1.11885 0.15091
 H503 H -0.15200 1.22518 0.35209
 H504 H -0.18087 1.25180 0.40909
 H505 H -0.22862 1.17191 0.37236
 H506 H -0.19978 1.14637 0.31352
 H507 H -0.08729 1.09892 0.28034
 H508 H -0.05691 1.07012 0.22995
 H509 H -0.08625 1.10474 0.07808
 H510 H -0.11729 1.13242 0.12852
 C511 C 0.68230 0.32378 0.30458
 C512 C 0.68116 0.28929 0.31378
 C513 C 0.69593 0.27407 0.35143
 C514 C 0.71235 0.29293 0.38032
 C515 C 0.71411 0.32718 0.36960
 C516 C 0.69917 0.34247 0.33233
 C517 C 0.66520 0.34039 0.26868
 N518 N 0.66276 0.37399 0.26957
 N519 N 0.64635 0.38883 0.24018
 C520 C 0.63174 0.37073 0.20847
 N521 N 0.63439 0.33716 0.20691
 N522 N 0.65074 0.32230 0.23650
 C523 C 0.61253 0.38708 0.17881
 C524 C 0.59961 0.36966 0.13934
 C525 C 0.58057 0.38458 0.11402
 C526 C 0.57393 0.41700 0.12824
 C527 C 0.58709 0.43464 0.16679
 C528 C 0.60625 0.41993 0.19156
 H529 H 0.66838 0.27415 0.29312
 H530 H 0.69423 0.24759 0.35858
 H531 H 0.72658 0.34238 0.39120
 H532 H 0.70061 0.36905 0.32597
 H533 H 0.60406 0.34438 0.12841
 H534 H 0.57072 0.37047 0.08433
 H535 H 0.58244 0.45977 0.17825
 H536 H 0.61578 0.43405 0.22179
 C537 C 0.18323 0.82692 0.30831
 C538 C 0.20001 0.84582 0.33598
 C539 C 0.21514 0.83070 0.37302
 C540 C 0.21367 0.79640 0.38359
 C541 C 0.19733 0.77735 0.35481
 C542 C 0.18236 0.79240 0.31739
 C543 C 0.16597 0.84332 0.27253
 N544 N 0.15166 0.82505 0.24027
 N545 N 0.13523 0.83971 0.21066
 C546 C 0.13235 0.87323 0.21228
 N547 N 0.14681 0.89151 0.24411
 N548 N 0.16330 0.87688 0.27351
 C549 C 0.11308 0.88935 0.18243
 C550 C 0.10660 0.92214 0.19505
 C551 C 0.08743 0.93664 0.16994
 C552 C 0.07448 0.91885 0.13119
 C553 C 0.08131 0.88649 0.11716
 C554 C 0.10036 0.87178 0.14280
 H555 H 0.20124 0.87243 0.32971
 H556 H 0.22754 0.84606 0.39454
 H557 H 0.19584 0.75083 0.36187
 H558 H 0.16966 0.77709 0.29679
 H559 H 0.11598 0.93638 0.22539
 H560 H 0.08262 0.96173 0.18128
 H561 H 0.07163 0.87226 0.08733
 H562 H 0.10497 0.84654 0.13196
   
