data_POSCAR
  _audit_creation_date              2014-09-24
  _audit_creation_method            'ToBaCCo'
  _symmetry_space_group_name_H-M    'P1'
  _symmetry_Int_Tables_number       1
  _symmetry_cell_setting            triclinic
  loop_
  _symmetry_equiv_pos_as_xyz
 x,y,z
_cell_length_a 51.8913
_cell_length_b 51.6589
_cell_length_c 51.9647
_cell_angle_alpha 86.939400
_cell_angle_beta 90.797500
_cell_angle_gamma 93.029600
loop_
  _atom_site_label
  _atom_site_type_symbol
  _atom_site_fract_x
  _atom_site_fract_y
  _atom_site_fract_z
C1 C 0.20992 0.50659 1.03052
 H2 H 0.21064 0.52141 1.01499
 C3 C 0.19181 0.50744 1.04998
 H4 H 0.17854 0.52290 1.04839
 C5 C 0.22536 0.46757 1.04925
 H6 H 0.23831 0.45191 1.04869
 C7 C 0.20742 0.46752 1.06908
 H8 H 0.20787 0.45208 1.08394
 N9 N 0.22626 0.48695 1.03051
 C10 C 0.28923 0.51812 0.98160
 H11 H 0.28892 0.50354 0.96739
 C12 C 0.30820 0.53832 0.98064
 H13 H 0.32254 0.53906 0.96564
 C14 C 0.27168 0.53388 1.01924
 H15 H 0.25778 0.53177 1.03458
 C16 C 0.29035 0.55439 1.01903
 H17 H 0.29023 0.56821 1.03397
 Zn18 Zn 0.24826 0.48674 1.00186
 N19 N 0.27145 0.51628 1.00067
 C20 C 0.22811 0.50624 0.95381
 N21 N 0.22666 0.48655 0.97227
 C22 C 0.20804 0.46708 0.97137
 C23 C 0.18975 0.46699 0.95144
 C24 C 0.21018 0.50691 0.93350
 C25 C 0.28609 0.45600 1.02371
 C26 C 0.30383 0.43658 1.02501
 C27 C 0.28517 0.42022 0.98583
 C28 C 0.26776 0.43997 0.98529
 N29 N 0.26866 0.45745 1.00399
 H30 H 0.24270 0.52182 0.95513
 H31 H 0.20703 0.45196 0.98661
 H32 H 0.17463 0.45172 0.95156
 H33 H 0.21154 0.52281 0.91906
 H34 H 0.28670 0.47049 1.03802
 H35 H 0.31812 0.43636 1.04039
 H36 H 0.28436 0.40662 0.97065
 H37 H 0.25410 0.44176 0.96950
 C38 C 0.30906 0.55668 0.99965
 C39 C 0.18999 0.48760 1.06977
 C40 C 0.30378 0.41857 1.00569
 C41 C 0.19047 0.48727 0.93231
 C42 C 0.79040 0.53510 -0.03545
 H43 H 0.79156 0.54949 -0.02104
 C44 C 0.80849 0.53618 -0.05516
 H45 H 0.82360 0.55146 -0.05569
 C46 C 0.77025 0.49670 -0.05107
 H47 H 0.75574 0.48097 -0.04903
 C48 C 0.78794 0.49704 -0.07111
 H49 H 0.78646 0.48181 -0.08466
 N50 N 0.77188 0.51549 -0.03366
 C51 C 0.71318 0.54242 0.01619
 H52 H 0.71297 0.52690 0.03103
 C53 C 0.69552 0.56179 0.01690
 H54 H 0.68168 0.56095 0.03236
 C55 C 0.73053 0.56125 -0.02284
 H56 H 0.74383 0.56061 -0.03858
 C57 C 0.71312 0.58101 -0.02292
 H58 H 0.71353 0.59574 -0.03855
 Zn59 Zn 0.75079 0.51344 -0.00417
 N60 N 0.73016 0.54243 -0.00349
 C61 C 0.77407 0.53022 0.04253
 N62 N 0.77326 0.51180 0.02475
 C63 C 0.78996 0.49236 0.02597
 C64 C 0.80838 0.49081 0.04572
 C65 C 0.79226 0.52945 0.06262
 C66 C 0.70967 0.48310 -0.02331
 C67 C 0.69081 0.46285 -0.02358
 C68 C 0.70948 0.44432 0.01561
 C69 C 0.72804 0.46494 0.01511
 N70 N 0.72780 0.48379 -0.00419
 H71 H 0.76101 0.54584 0.04091
 H72 H 0.78922 0.47828 0.01125
 H73 H 0.82186 0.47550 0.04599
 H74 H 0.79265 0.54426 0.07661
 H75 H 0.70962 0.49864 -0.03812
 H76 H 0.67619 0.46303 -0.03865
 H77 H 0.70994 0.42950 0.03112
 H78 H 0.74225 0.46611 0.03045
 C79 C 0.69513 0.58128 -0.00298
 C80 C 0.80764 0.51676 -0.07312
 C81 C 0.69041 0.44320 -0.00382
 C82 C 0.80981 0.50961 0.06431
 C83 C -0.00318 0.29064 0.48485
 H84 H -0.01688 0.29021 0.50040
 C85 C -0.00459 0.30932 0.46458
 H86 H -0.01926 0.32331 0.46557
 C87 C 0.03360 0.27380 0.46681
 H88 H 0.04864 0.26009 0.46792
 C89 C 0.03304 0.29227 0.44616
 H90 H 0.04730 0.29143 0.43131
 N91 N 0.01558 0.27328 0.48556
 C92 C -0.01562 0.20993 0.53654
 H93 H -0.00058 0.20926 0.55115
 C94 C -0.03625 0.19143 0.53753
 H95 H -0.03686 0.17649 0.55296
 C96 C -0.03207 0.22932 0.49778
 H97 H -0.03006 0.24368 0.48197
 C98 C -0.05304 0.21122 0.49803
 H99 H -0.06727 0.21227 0.48263
 Zn100 Zn 0.01651 0.25026 0.51505
 N101 N -0.01384 0.22829 0.51682
 C102 C 0.00037 0.27122 0.56139
 N103 N 0.01945 0.27129 0.54370
 C104 C 0.04003 0.28867 0.54418
 C105 C 0.04178 0.30730 0.56267
 C106 C 0.00131 0.28960 0.58021
 C107 C 0.04397 0.21178 0.49431
 C108 C 0.06269 0.19350 0.49308
 C109 C 0.08219 0.20960 0.53200
 C110 C 0.06309 0.22767 0.53245
 N111 N 0.04448 0.22839 0.51376
 H112 H -0.01615 0.25767 0.56027
 H113 H 0.05471 0.28854 0.52961
 H114 H 0.05820 0.32113 0.56252
 H115 H -0.01459 0.28994 0.59344
 H116 H 0.02862 0.21242 0.48003
 H117 H 0.06152 0.18004 0.47778
 H118 H 0.09680 0.20920 0.54707
 H119 H 0.06282 0.24064 0.54806
 C120 C -0.05514 0.19171 0.51790
 C121 C 0.01375 0.31066 0.44464
 C122 C 0.08203 0.19208 0.51221
 C123 C 0.02197 0.30831 0.58069
 C124 C 0.96034 0.70937 0.51444
 H125 H 0.94581 0.70983 0.49931
 C126 C 0.95832 0.69039 0.53455
 H127 H 0.94190 0.67655 0.53500
 C128 C 0.99969 0.72658 0.53179
 H129 H 1.01617 0.74022 0.53021
 C130 C 0.99846 0.70790 0.55225
 H131 H 1.01409 0.70743 0.56626
 N132 N 0.98082 0.72690 0.51335
 C133 C 0.95563 0.78896 0.46024
 H134 H 0.97038 0.78877 0.44575
 C135 C 0.93741 0.80791 0.45848
 H136 H 0.93797 0.82196 0.44225
 C137 C 0.93762 0.77126 0.49941
 H138 H 0.93832 0.75749 0.51577
 C139 C 0.91906 0.78993 0.49845
 H140 H 0.90560 0.79025 0.51415
 Zn141 Zn 0.98366 0.74945 0.48353
 N142 N 0.95555 0.77127 0.48057
 C143 C 0.96645 0.72801 0.43631
 N144 N 0.98482 0.72803 0.45525
 C145 C 1.00394 0.71101 0.45587
 C146 C 1.00522 0.69307 0.43688
 C147 C 0.96694 0.71026 0.41694
 C148 C 1.01503 0.78855 0.50432
 C149 C 1.03567 0.80686 0.50579
 C150 C 1.05337 0.79015 0.46764
 C151 C 1.03238 0.77208 0.46694
 N152 N 1.01377 0.77161 0.48516
 H153 H 0.95108 0.74131 0.43650
 H154 H 1.01795 0.71110 0.47148
 H155 H 1.02027 0.67930 0.43811
 H156 H 0.95214 0.71040 0.40204
 H157 H 0.99967 0.78810 0.51824
 H158 H 1.03597 0.82054 0.52088
 H159 H 1.06801 0.79027 0.45298
 H160 H 1.03074 0.75886 0.45151
 C161 C 0.91909 0.80889 0.47801
 C162 C 0.97774 0.68924 0.55363
 C163 C 1.05512 0.80796 0.48719
 C164 C 0.98645 0.69239 0.41717
 C165 C 0.46598 -0.03607 0.29205
 H166 H 0.48046 -0.05042 0.29319
 C167 C 0.44621 -0.03728 0.31010
 H168 H 0.44570 -0.05261 0.32514
 C169 C 0.45026 0.00236 0.27205
 H170 H 0.45229 0.01816 0.25764
 C171 C 0.43016 0.00189 0.28969
 H172 H 0.41656 0.01710 0.28825
 N173 N 0.46776 -0.01637 0.27365
 C174 C 0.51827 -0.04264 0.21520
 H175 H 0.53301 -0.02702 0.21522
 C176 C 0.51928 -0.06179 0.19738
 H177 H 0.53482 -0.05988 0.18367
 C178 C 0.47916 -0.06170 0.23194
 H179 H 0.46335 -0.06133 0.24521
 C180 C 0.47928 -0.08123 0.21433
 H181 H 0.46384 -0.09612 0.21540
 Zn182 Zn 0.49738 -0.01401 0.25270
 N183 N 0.49842 -0.04285 0.23194
 C184 C 0.54414 -0.03062 0.27613
 N185 N 0.52626 -0.01225 0.27525
 C186 C 0.52734 0.00715 0.29196
 C187 C 0.54702 0.00870 0.31047
 C188 C 0.56415 -0.02984 0.29440
 C189 C 0.47802 0.01620 0.21169
 C190 C 0.47750 0.03650 0.19291
 C191 C 0.51649 0.05547 0.21165
 C192 C 0.51624 0.03479 0.23013
 N193 N 0.49715 0.01571 0.22983
 H194 H 0.54264 -0.04622 0.26307
 H195 H 0.51255 0.02119 0.29117
 H196 H 0.54715 0.02397 0.32396
 H197 H 0.57821 -0.04462 0.29484
 H198 H 0.46340 0.00049 0.21159
 H199 H 0.46242 0.03617 0.17830
 H200 H 0.53183 0.07048 0.21216
 H201 H 0.53159 0.03376 0.24434
 C202 C 0.49939 -0.08148 0.19626
 C203 C 0.42818 -0.01789 0.30931
 C204 C 0.49702 0.05641 0.19260
 C205 C 0.56567 -0.01006 0.31198
 C206 C 0.53242 -0.00548 0.71190
 H207 H 0.51705 -0.02048 0.71243
 C208 C 0.55214 -0.00601 0.69401
 H209 H 0.55171 -0.02147 0.68072
 C210 C 0.55071 0.03364 0.72777
 H211 H 0.54978 0.04930 0.74064
 C212 C 0.57080 0.03392 0.71008
 H213 H 0.58547 0.04963 0.70983
 N214 N 0.53207 0.01408 0.72835
 C215 C 0.48256 -0.01740 0.79069
 H216 H 0.46830 -0.00284 0.79021
 C217 C 0.48146 -0.03757 0.80965
 H218 H 0.46630 -0.03832 0.82382
 C219 C 0.52048 -0.03311 0.77357
 H220 H 0.53597 -0.03098 0.75982
 C221 C 0.52014 -0.05360 0.79225
 H222 H 0.53513 -0.06740 0.79232
 Zn223 Zn 0.50310 0.01403 0.74999
 N224 N 0.50184 -0.01554 0.77313
 C225 C 0.45536 -0.00580 0.72942
 N226 N 0.47368 0.01404 0.72813
 C227 C 0.47275 0.03353 0.70955
 C228 C 0.45292 0.03348 0.69113
 C229 C 0.43517 -0.00662 0.71136
 C230 C 0.52432 0.04474 0.78806
 C231 C 0.52526 0.06404 0.80588
 C232 C 0.48606 0.08020 0.78694
 C233 C 0.48589 0.06056 0.76944
 N234 N 0.50477 0.04324 0.77044
 H235 H 0.45671 -0.02139 0.74398
 H236 H 0.48787 0.04878 0.70868
 H237 H 0.45301 0.04877 0.67604
 H238 H 0.42084 -0.02263 0.71260
 H239 H 0.53878 0.03036 0.78876
 H240 H 0.54051 0.06430 0.82031
 H241 H 0.47074 0.09366 0.78605
 H242 H 0.47023 0.05872 0.75564
 C243 C 0.50054 -0.05591 0.81074
 C244 C 0.57160 0.01395 0.69281
 C245 C 0.50574 0.08188 0.80572
 C246 C 0.43395 0.01304 0.69169
 C247 C 0.22067 -0.02555 0.49642
 C248 C 0.23601 -0.00281 0.50002
 C249 C 0.22426 0.02056 0.50365
 C250 C 0.19731 0.02123 0.50341
 C251 C 0.18208 -0.00156 0.50008
 C252 C 0.19372 -0.02498 0.49672
 C253 C 0.26433 -0.00347 0.50008
 C254 C 0.27730 -0.00783 0.47730
 C255 C 0.30427 -0.00809 0.47731
 C256 C 0.31828 -0.00457 0.50019
 C257 C 0.30541 -0.00049 0.52302
 C258 C 0.27848 0.00032 0.52291
 H259 H 0.22970 -0.04367 0.49379
 H260 H 0.23607 0.03819 0.50628
 H261 H 0.26643 -0.01055 0.45959
 H262 H 0.26850 0.00355 0.54056
 H263 H 0.16121 -0.00108 0.50011
 H264 H 0.33916 -0.00494 0.50023
 C265 C 0.77679 -0.02106 0.49742
 C266 C 0.76496 0.00190 0.50262
 C267 C 0.78026 0.02437 0.50752
 C268 C 0.80721 0.02397 0.50692
 C269 C 0.81891 0.00095 0.50200
 C270 C 0.80375 -0.02159 0.49738
 C271 C 0.73663 0.00246 0.50274
 C272 C 0.72375 0.00652 0.52565
 C273 C 0.69678 0.00676 0.52578
 C274 C 0.68267 0.00351 0.50291
 C275 C 0.69544 -0.00025 0.47996
 C276 C 0.72237 -0.00107 0.47992
 H277 H 0.76504 -0.03848 0.49375
 H278 H 0.77118 0.04220 0.51128
 H279 H 0.73469 0.00905 0.54335
 H280 H 0.73226 -0.00404 0.46215
 H281 H 0.83979 0.00061 0.50167
 H282 H 0.66179 0.00388 0.50298
 C283 C 0.52179 0.27931 1.00057
 C284 C 0.49872 0.26388 1.00152
 C285 C 0.47503 0.27557 1.00294
 C286 C 0.47441 0.30262 1.00330
 C287 C 0.49749 0.31797 1.00245
 C288 C 0.52118 0.30634 1.00112
 C289 C 0.49939 0.23552 1.00093
 C290 C 0.49869 0.22014 1.02401
 C291 C 0.49946 0.19311 1.02345
 C292 C 0.50074 0.18145 0.99982
 C293 C 0.50135 0.19675 0.97673
 C294 C 0.50077 0.22379 0.97730
 H295 H 0.54011 0.27027 0.99949
 H296 H 0.45719 0.26366 1.00358
 H297 H 0.49767 0.22920 1.04228
 H298 H 0.50125 0.23568 0.95945
 H299 H 0.49702 0.33891 1.00276
 H300 H 0.50125 0.16052 0.99938
 C301 C 0.52419 0.72460 -0.00025
 C302 C 0.50044 0.73621 0.00094
 C303 C 0.47739 0.72074 0.00114
 C304 C 0.47809 0.69376 0.00008
 C305 C 0.50184 0.68222 -0.00105
 C306 C 0.52490 0.69760 -0.00118
 C307 C 0.49969 0.76453 0.00188
 C308 C 0.49997 0.78012 -0.02106
 C309 C 0.49929 0.80713 -0.02021
 C310 C 0.49845 0.81856 0.00358
 C311 C 0.49823 0.80304 0.02653
 C312 C 0.49878 0.77602 0.02568
 H313 H 0.54202 0.73654 -0.00037
 H314 H 0.45902 0.72972 0.00201
 H315 H 0.50067 0.77124 -0.03946
 H316 H 0.49865 0.76397 0.04342
 H317 H 0.50238 0.66131 -0.00179
 H318 H 0.49803 0.83948 0.00424
 C319 C 0.99680 0.52143 0.27486
 C320 C 1.00086 0.49807 0.26329
 C321 C 1.00489 0.47550 0.27876
 C322 C 1.00458 0.47624 0.30566
 C323 C 1.00079 0.49965 0.31712
 C324 C 0.99703 0.52227 0.30176
 C325 C 1.00082 0.49723 0.23504
 C326 C 1.02375 0.49328 0.22212
 C327 C 1.02378 0.49292 0.19520
 C328 C 1.00079 0.49593 0.18119
 C329 C 0.97782 0.49960 0.19401
 C330 C 0.97788 0.50052 0.22090
 H331 H 0.99384 0.53892 0.26295
 H332 H 1.00782 0.45739 0.26987
 H333 H 1.04155 0.49098 0.23299
 H334 H 0.96012 0.50345 0.23084
 H335 H 1.00073 0.50026 0.33795
 H336 H 1.00079 0.49551 0.16034
 C337 C -0.00724 0.52371 0.71926
 C338 C -0.00185 0.50145 0.73468
 C339 C 0.00342 0.47843 0.72301
 C340 C 0.00301 0.47762 0.69611
 C341 C -0.00209 0.49996 0.68083
 C342 C -0.00707 0.52303 0.69236
 C343 C -0.00164 0.50225 0.76297
 C344 C -0.02440 0.50661 0.77601
 C345 C -0.02427 0.50699 0.80294
 C346 C -0.00127 0.50361 0.81683
 C347 C 0.02154 0.49954 0.80390
 C348 C 0.02130 0.49858 0.77702
 H349 H -0.01110 0.54158 0.72821
 H350 H 0.00743 0.46116 0.73485
 H351 H -0.04221 0.50922 0.76524
 H352 H 0.03895 0.49538 0.76700
 H353 H -0.00215 0.49939 0.65999
 H354 H -0.00114 0.50407 0.83768
 C355 C 0.12413 0.13718 0.53463
 C356 C 0.13396 0.13004 0.51123
 C357 C 0.12787 0.14401 0.48834
 C358 C 0.11155 0.16466 0.48872
 C359 C 0.10105 0.17159 0.51205
 C360 C 0.10782 0.15786 0.53506
 C361 C 0.14905 0.10751 0.51046
 C362 C 0.16104 0.08823 0.50945
 C363 C 0.17434 0.06525 0.50782
 C364 C 0.18512 0.04533 0.50604
 H365 H 0.12859 0.12640 0.55244
 H366 H 0.13536 0.13865 0.47012
 H367 H 0.10695 0.17506 0.47074
 H368 H 0.09979 0.16249 0.55328
 C369 C 0.64184 0.62432 -0.02686
 C370 C 0.63399 0.63427 -0.00387
 C371 C 0.64707 0.62807 0.01919
 C372 C 0.66750 0.61146 0.01938
 C373 C 0.67509 0.60079 -0.00352
 C374 C 0.66228 0.60773 -0.02672
 C375 C 0.61156 0.64948 -0.00366
 C376 C 0.59228 0.66150 -0.00332
 C377 C 0.56924 0.67478 -0.00273
 C378 C 0.54920 0.68550 -0.00210
 H379 H 0.63174 0.62887 -0.04479
 H380 H 0.64115 0.63564 0.03710
 H381 H 0.67718 0.60673 0.03749
 H382 H 0.66741 0.59957 -0.04460
 C383 C 0.89428 -0.12328 0.47191
 C384 C 0.86899 -0.12762 0.48069
 C385 C 0.85966 -0.15289 0.48776
 C386 C 0.87573 -0.17370 0.48642
 C387 C 0.90135 -0.16945 0.47799
 C388 C 0.91035 -0.14400 0.47056
 C389 C 0.85319 -0.10588 0.48345
 C390 C 0.84074 -0.08717 0.48611
 C391 C 0.82704 -0.06476 0.48961
 C392 C 0.81605 -0.04525 0.49295
 H393 H 0.90177 -0.10378 0.46657
 H394 H 0.84011 -0.15646 0.49462
 H395 H 0.86816 -0.19308 0.49203
 H396 H 0.93008 -0.13997 0.46444
 C397 C 0.35334 0.37063 1.02845
 C398 C 0.36540 0.36619 1.00529
 C399 C 0.35646 0.37779 0.98215
 C400 C 0.33593 0.39423 0.98220
 C401 C 0.32406 0.39935 1.00545
 C402 C 0.33279 0.38708 1.02855
 C403 C 0.38786 0.35097 1.00536
 C404 C 0.40712 0.33893 1.00521
 C405 C 0.43015 0.32560 1.00479
 C406 C 0.45016 0.31482 1.00423
 H407 H 0.36013 0.36177 1.04649
 H408 H 0.36577 0.37462 0.96413
 H409 H 0.32996 0.40366 0.96414
 H410 H 0.32387 0.39040 1.04672
 C411 C 0.89329 0.14056 0.53977
 C412 C 0.88631 0.12967 0.51641
 C413 C 0.89783 0.13960 0.49352
 C414 C 0.91650 0.16007 0.49397
 C415 C 0.92396 0.17093 0.51738
 C416 C 0.91199 0.16107 0.54027
 C417 C 0.86813 0.10767 0.51585
 C418 C 0.85341 0.08891 0.51476
 C419 C 0.83674 0.06660 0.51276
 C420 C 0.82300 0.04729 0.51044
 H421 H 0.88450 0.13301 0.55761
 H422 H 0.89270 0.13122 0.47536
 H423 H 0.92562 0.16689 0.47608
 H424 H 0.91712 0.16919 0.55854
 C425 C 0.36274 0.60261 0.02320
 C426 C 0.37155 0.61474 0.00001
 C427 C 0.35940 0.60854 -0.02325
 C428 C 0.33876 0.59000 -0.02336
 C429 C 0.33002 0.57740 -0.00018
 C430 C 0.34211 0.58409 0.02313
 C431 C 0.39368 0.63274 -0.00000
 C432 C 0.41256 0.64737 0.00003
 C433 C 0.43503 0.66400 0.00008
 C434 C 0.45451 0.67778 0.00010
 H435 H 0.37211 0.60716 0.04129
 H436 H 0.36606 0.61781 -0.04131
 H437 H 0.32967 0.58550 -0.04157
 H438 H 0.33610 0.57448 0.04126
 C439 C 0.10668 -0.14437 0.51179
 C440 C 0.11456 -0.13094 0.48890
 C441 C 0.10379 -0.13817 0.46534
 C442 C 0.08488 -0.15846 0.46470
 C443 C 0.07644 -0.17173 0.48766
 C444 C 0.08777 -0.16464 0.51120
 C445 C 0.13274 -0.10897 0.48977
 C446 C 0.14746 -0.09019 0.49081
 C447 C 0.16412 -0.06783 0.49242
 C448 C 0.17787 -0.04843 0.49416
 H449 H 0.11489 -0.13893 0.53014
 H450 H 0.10963 -0.12780 0.44752
 H451 H 0.07630 -0.16322 0.44632
 H452 H 0.08192 -0.17468 0.52916
 C453 C 0.63982 0.39272 0.97490
 C454 C 0.62801 0.38500 0.99832
 C455 C 0.63720 0.39557 1.02114
 C456 C 0.65785 0.41410 1.02053
 C457 C 0.66956 0.42235 0.99702
 C458 C 0.66047 0.41126 0.97424
 C459 C 0.60581 0.36708 0.99881
 C460 C 0.58687 0.35252 0.99926
 C461 C 0.56433 0.33598 0.99983
 C462 C 0.54480 0.32226 1.00038
 H463 H 0.63287 0.38466 0.95712
 H464 H 0.62811 0.38984 1.03936
 H465 H 0.66414 0.42252 1.03834
 H466 H 0.66928 0.41698 0.95590
 C467 C 0.47493 0.10665 1.14221
 C468 C 0.49826 0.11470 1.13036
 C469 C 0.52130 0.10448 1.13950
 C470 C 0.52099 0.08595 1.16013
 C471 C 0.49756 0.07734 1.17185
 C472 C 0.47456 0.08811 1.16282
 C473 C 0.49844 0.13259 1.10815
 C474 C 0.49859 0.14710 1.08919
 C475 C 0.49881 0.16357 1.06663
 C476 C 0.49906 0.17724 1.04708
 H477 H 0.45698 0.11444 1.13529
 H478 H 0.53946 0.11047 1.13038
 H479 H 0.53897 0.07778 1.16638
 H480 H 0.45627 0.08211 1.17164
 C481 C -0.03003 0.62204 0.58663
 C482 C -0.02157 0.62676 0.61170
 C483 C -0.01409 0.65207 0.61809
 C484 C -0.01474 0.67253 0.59937
 C485 C -0.02286 0.66790 0.57399
 C486 C -0.03069 0.64243 0.56790
 C487 C -0.01952 0.60537 0.63042
 C488 C -0.01738 0.58703 0.64550
 C489 C -0.01436 0.56513 0.66248
 C490 C -0.01132 0.54609 0.67641
 H491 H -0.03568 0.60249 0.58142
 H492 H -0.00748 0.65594 0.63745
 H493 H -0.00885 0.69196 0.60472
 H494 H -0.03662 0.63811 0.54847
 C495 C 0.47716 0.89234 -0.13908
 C496 C 0.50032 0.88621 -0.12665
 C497 C 0.52362 0.89832 -0.13524
 C498 C 0.52376 0.91677 -0.15592
 C499 C 0.50053 0.92340 -0.16828
 C500 C 0.47724 0.91080 -0.15977
 C501 C 0.50009 0.86827 -0.10448
 C502 C 0.49991 0.85367 -0.08559
 C503 C 0.49970 0.83705 -0.06313
 C504 C 0.49952 0.82322 -0.04370
 H505 H 0.45901 0.88308 -0.13260
 H506 H 0.54165 0.89382 -0.12566
 H507 H 0.54195 0.92638 -0.16176
 H508 H 0.45909 0.91526 -0.16907
 C509 C 0.98954 0.36234 0.39834
 C510 C 1.01217 0.37097 0.38565
 C511 C 1.03518 0.35903 0.39166
 C512 C 1.03569 0.33881 0.41066
 C513 C 1.01311 0.33020 0.42428
 C514 C 0.98992 0.34222 0.41737
 C515 C 1.01179 0.39276 0.36722
 C516 C 1.01094 0.41141 0.35233
 C517 C 1.00934 0.43365 0.33551
 C518 C 1.00745 0.45293 0.32164
 H519 H 0.97153 0.37130 0.39365
 H520 H 1.05289 0.36571 0.38205
 H521 H 1.05423 0.33110 0.41539
 H522 H 0.97171 0.33583 0.42603
 C523 C 0.52173 0.87722 0.14452
 C524 C 0.49833 0.86617 0.13572
 C525 C 0.47542 0.87116 0.14788
 C526 C 0.47577 0.88773 0.16833
 C527 C 0.49916 0.89995 0.17695
 C528 C 0.52221 0.89384 0.16489
 C529 C 0.49778 0.85093 0.11330
 C530 C 0.49756 0.83893 0.09402
 C531 C 0.49756 0.82570 0.07095
 C532 C 0.49776 0.81504 0.05088
 H533 H 0.53965 0.87328 0.13539
 H534 H 0.45713 0.86283 0.14109
 H535 H 0.45734 0.89199 0.17609
 H536 H 0.54090 0.90139 0.17130
 C537 C 0.01172 0.34616 0.64018
 C538 C 0.01931 0.37141 0.63117
 C539 C 0.02854 0.37584 0.60609
 C540 C 0.02986 0.35523 0.58991
 C541 C 0.02195 0.32981 0.59858
 C542 C 0.01304 0.32547 0.62399
 C543 C 0.01660 0.39308 0.64705
 C544 C 0.01403 0.41180 0.65949
 C545 C 0.01063 0.43427 0.67311
 C546 C 0.00738 0.45385 0.68398
 H547 H 0.00449 0.34253 0.65956
 H548 H 0.03428 0.39532 0.59885
 H549 H 0.03635 0.35936 0.57033
 H550 H 0.00702 0.30610 0.63131
 C551 C 0.52761 0.12959 0.85573
 C552 C 0.50425 0.13372 0.86762
 C553 C 0.48126 0.12200 0.85841
 C554 C 0.48165 0.10575 0.83778
 C555 C 0.50511 0.10095 0.82609
 C556 C 0.52806 0.11334 0.83508
 C557 C 0.50399 0.14874 0.89015
 C558 C 0.50362 0.16064 0.90947
 C559 C 0.50301 0.17384 0.93252
 C560 C 0.50234 0.18456 0.95253
 H561 H 0.54553 0.13855 0.86271
 H562 H 0.46309 0.12493 0.86758
 H563 H 0.46371 0.09622 0.83160
 H564 H 0.54637 0.11025 0.82630
 C565 C 0.96421 0.63839 0.37401
 C566 C 0.98775 0.63109 0.36456
 C567 C 1.01067 0.64479 0.37114
 C568 C 1.01017 0.66525 0.38763
 C569 C 0.98671 0.67228 0.39781
 C570 C 0.96366 0.65889 0.39049
 C571 C 0.98866 0.60860 0.34947
 C572 C 0.98988 0.58932 0.33756
 C573 C 0.99184 0.56632 0.32439
 C574 C 0.99396 0.54638 0.31376
 H575 H 0.94637 0.62781 0.36916
 H576 H 1.02900 0.63930 0.36395
 H577 H 1.02818 0.67540 0.39266
 H578 H 0.94534 0.66363 0.39825
 C579 C 1.14125 0.46404 0.11962
 C580 C 1.13022 0.48720 0.12504
 C581 C 1.13975 0.51058 0.11320
 C582 C 1.15977 0.51082 0.09550
 C583 C 1.17077 0.48754 0.08908
 C584 C 1.16136 0.46415 0.10196
 C585 C 1.10831 0.48704 0.14173
 C586 C 1.08949 0.48748 0.15501
 C587 C 1.06700 0.48869 0.16976
 C588 C 1.04746 0.49030 0.18170
 H589 H 1.13387 0.44577 0.12857
 H590 H 1.13150 0.52870 0.11744
 H591 H 1.16684 0.52953 0.08741
 H592 H 1.16830 0.44556 0.09753
 C593 C 0.62039 -0.00874 0.64639
 C594 C 0.62736 0.01441 0.63241
 C595 C 0.61711 0.03765 0.63902
 C596 C 0.59952 0.03766 0.65917
 C597 C 0.59188 0.01436 0.67290
 C598 C 0.60279 -0.00879 0.66651
 C599 C 0.64380 0.01395 0.61037
 C600 C 0.65690 0.01308 0.59150
 C601 C 0.67150 0.01148 0.56898
 C602 C 0.68335 0.00961 0.54944
 H603 H 0.62819 -0.02685 0.64143
 H604 H 0.62225 0.05566 0.62821
 H605 H 0.59123 0.05573 0.66341
 H606 H 0.59754 -0.02697 0.67693
 C607 C -0.14106 0.49214 0.88443
 C608 C -0.13076 0.51527 0.87257
 C609 C -0.14126 0.53886 0.87762
 C610 C -0.16171 0.53936 0.89483
 C611 C -0.17189 0.51623 0.90723
 C612 C -0.16148 0.49258 0.90162
 C613 C -0.10866 0.51476 0.85621
 C614 C -0.08977 0.51380 0.84311
 C615 C -0.06729 0.51207 0.82847
 C616 C -0.04781 0.51005 0.81653
 H617 H -0.13297 0.47379 0.88080
 H618 H -0.13342 0.55689 0.86855
 H619 H -0.16948 0.55783 0.89853
 H620 H -0.16855 0.47449 0.91114
 C621 C 0.37894 -0.04012 0.36039
 C622 C 0.37382 -0.01654 0.37088
 C623 C 0.38565 0.00661 0.36058
 C624 C 0.40286 0.00621 0.34018
 C625 C 0.40852 -0.01742 0.32978
 C626 C 0.39616 -0.04057 0.33996
 C627 C 0.35744 -0.01605 0.39296
 C628 C 0.34434 -0.01507 0.41182
 C629 C 0.32971 -0.01328 0.43429
 C630 C 0.31780 -0.01122 0.45376
 H631 H 0.36990 -0.05817 0.36824
 H632 H 0.38197 0.02495 0.36866
 H633 H 0.41235 0.02432 0.33312
 H634 H 0.39991 -0.05903 0.33220
 C635 C 0.13882 0.51356 0.88720
 C636 C 0.12860 0.49087 0.87655
 C637 C 0.13930 0.46710 0.88326
 C638 C 0.15985 0.46596 0.90094
 C639 C 0.16993 0.48861 0.91215
 C640 C 0.15934 0.51247 0.90486
 C641 C 0.10638 0.49192 0.85970
 C642 C 0.08740 0.49311 0.84615
 C643 C 0.06479 0.49491 0.83088
 C644 C 0.04521 0.49681 0.81833
 H645 H 0.13058 0.53204 0.88226
 H646 H 0.13153 0.44941 0.87514
 H647 H 0.16776 0.44735 0.90594
 H648 H 0.16637 0.53019 0.91342
 C649 C 0.61052 -0.03191 0.36630
 C650 C 0.62181 -0.00816 0.37356
 C651 C 0.61557 0.01486 0.36003
 C652 C 0.59774 0.01421 0.33963
 C653 C 0.58589 -0.00952 0.33249
 C654 C 0.59270 -0.03262 0.34587
 C655 C 0.63882 -0.00723 0.39565
 C656 C 0.65255 -0.00616 0.41451
 C657 C 0.66804 -0.00454 0.43696
 C658 C 0.68078 -0.00280 0.45642
 H659 H 0.61510 -0.04983 0.37673
 H660 H 0.62419 0.03335 0.36550
 H661 H 0.59314 0.03227 0.32951
 H662 H 0.58367 -0.05114 0.34108
 C663 C 0.85757 0.48460 0.11445
 C664 C 0.87120 0.50757 0.12064
 C665 C 0.86406 0.53134 0.10926
 C666 C 0.84368 0.53209 0.09140
 C667 C 0.83022 0.50903 0.08461
 C668 C 0.83721 0.48530 0.09658
 C669 C 0.89329 0.50657 0.13765
 C670 C 0.91218 0.50545 0.15135
 C671 C 0.93468 0.50380 0.16677
 C672 C 0.95420 0.50207 0.17945
 H673 H 0.86294 0.46609 0.12313
 H674 H 0.87458 0.54922 0.11381
 H675 H 0.83900 0.55062 0.08228
 H676 H 0.82701 0.46727 0.09199
 C677 C 0.38487 0.03281 0.64037
 C678 C 0.37840 0.00900 0.62968
 C679 C 0.38927 -0.01359 0.63991
 C680 C 0.40688 -0.01235 0.66045
 C681 C 0.41391 0.01155 0.67104
 C682 C 0.40250 0.03410 0.66093
 C683 C 0.36152 0.00779 0.60751
 C684 C 0.34792 0.00645 0.58858
 C685 C 0.33258 0.00447 0.56606
 C686 C 0.31995 0.00241 0.54657
 H687 H 0.37657 0.05042 0.63259
 H688 H 0.38451 -0.03210 0.63168
 H689 H 0.41560 -0.02999 0.66749
 H690 H 0.40730 0.05274 0.66885
   
