data_POSCAR
  _audit_creation_date              2014-09-24
  _audit_creation_method            'ToBaCCo'
  _symmetry_space_group_name_H-M    'P1'
  _symmetry_Int_Tables_number       1
  _symmetry_cell_setting            triclinic
  loop_
  _symmetry_equiv_pos_as_xyz
 x,y,z
_cell_length_a 56.2296
_cell_length_b 56.1368
_cell_length_c 55.7765
_cell_angle_alpha 90.050400
_cell_angle_beta 90.031500
_cell_angle_gamma 89.968600
loop_
  _atom_site_label
  _atom_site_type_symbol
  _atom_site_fract_x
  _atom_site_fract_y
  _atom_site_fract_z
O1 O 0.32266 0.35204 0.02322
 O2 O 0.35240 0.32226 -0.02689
 O3 O 0.31937 0.35443 -0.02303
 O4 O 0.35452 0.31881 0.01936
 O5 O 0.32662 0.29121 0.01956
 O6 O 0.29165 0.32671 -0.02356
 O7 O 0.32507 0.29409 -0.02695
 O8 O 0.29436 0.32484 0.02299
 Cu9 Cu 0.33999 0.33963 -0.00184
 Cu10 Cu 0.30661 0.30643 -0.00203
 C11 C 0.30333 0.34384 0.03154
 C12 C 0.34417 0.30293 -0.03529
 C13 C 0.29937 0.34685 -0.03046
 C14 C 0.34670 0.29886 0.02665
 O15 O 0.68024 0.64831 0.02362
 O16 O 0.64630 0.67841 -0.02377
 O17 O 0.67837 0.64545 -0.02265
 O18 O 0.64728 0.68103 0.02261
 O19 O 0.67474 0.70895 0.02013
 O20 O 0.70645 0.67270 -0.02521
 O21 O 0.67409 0.70601 -0.02642
 O22 O 0.70815 0.67580 0.02130
 Cu23 Cu 0.66028 0.66059 0.00031
 Cu24 Cu 0.69367 0.69366 -0.00267
 C25 C 0.70020 0.65659 0.03028
 C26 C 0.65434 0.69734 -0.03324
 C27 C 0.69775 0.65278 -0.03170
 C28 C 0.65531 0.70124 0.02883
 O29 O 0.64640 0.32188 1.02850
 O30 O 0.68020 0.35160 0.98090
 O31 O 0.64725 0.31898 0.98214
 O32 O 0.67869 0.35459 1.02718
 O33 O 0.70661 0.32715 1.02980
 O34 O 0.67472 0.29103 0.98452
 O35 O 0.70810 0.32408 0.98329
 O36 O 0.67401 0.29407 1.03109
 Cu37 Cu 0.66037 0.33949 1.00434
 Cu38 Cu 0.69366 0.30627 1.00732
 C39 C 0.65434 0.30290 1.03795
 C40 C 0.70012 0.34325 0.97422
 C41 C 0.65527 0.29878 0.97586
 C42 C 0.69805 0.34716 1.03623
 O43 O 0.35204 0.67759 1.02211
 O44 O 0.32260 0.64792 0.97171
 O45 O 0.35441 0.68119 0.97589
 O46 O 0.31918 0.64533 1.01795
 O47 O 0.29136 0.67297 1.01842
 O48 O 0.32646 0.70876 0.97568
 O49 O 0.29424 0.67509 0.97190
 O50 O 0.32458 0.70566 1.02216
 Cu51 Cu 0.33982 0.66027 0.99691
 Cu52 Cu 0.30634 0.69340 0.99705
 C53 C 0.34367 0.69683 1.03058
 C54 C 0.30328 0.65612 0.96334
 C55 C 0.34659 0.70119 0.96870
 C56 C 0.29913 0.65284 1.02532
 O57 O -0.02108 0.34593 0.31073
 O58 O 0.02443 0.31228 0.34334
 O59 O 0.02484 0.34521 0.31064
 O60 O -0.02150 0.31270 0.34313
 O61 O -0.02197 0.28503 0.31510
 O62 O 0.02464 0.31791 0.28216
 O63 O 0.02419 0.28448 0.31537
 O64 O -0.02150 0.31873 0.28218
 Cu65 Cu 0.00170 0.33174 0.32976
 Cu66 Cu 0.00131 0.29875 0.29584
 C67 C -0.02882 0.33842 0.29073
 C68 C 0.03187 0.29249 0.33526
 C69 C 0.03242 0.33743 0.29068
 C70 C -0.02945 0.29309 0.33504
 O71 O 0.02029 0.68486 0.65327
 O72 O -0.02290 0.64947 0.68727
 O73 O -0.02561 0.68090 0.65341
 O74 O 0.02288 0.65273 0.68673
 O75 O 0.02072 0.68060 0.71455
 O76 O -0.02764 0.70960 0.68030
 O77 O -0.02525 0.67779 0.71461
 O78 O 0.01859 0.71326 0.68056
 Cu79 Cu -0.00109 0.66422 0.66743
 Cu80 Cu -0.00354 0.69824 0.70022
 C81 C 0.02670 0.70519 0.66089
 C82 C -0.03132 0.65738 0.70684
 C83 C -0.03489 0.70015 0.66087
 C84 C 0.02975 0.66140 0.70657
 O85 O 1.02472 0.64215 0.32536
 O86 O 0.98055 0.67725 0.35874
 O87 O 0.97856 0.64406 0.32623
 O88 O 1.02651 0.67460 0.35838
 O89 O 1.02743 0.70257 0.33070
 O90 O 0.97953 0.67136 0.29784
 O91 O 0.98128 0.70491 0.33069
 O92 O 1.02591 0.66980 0.29732
 Cu93 Cu 1.00245 0.65675 0.34493
 Cu94 Cu 1.00360 0.68991 0.31128
 C95 C 1.03292 0.64992 0.30564
 C96 C 0.97353 0.69720 0.35063
 C97 C 0.97095 0.65224 0.30646
 C98 C 1.03508 0.69394 0.35034
 O99 O 0.97574 0.32757 0.63744
 O100 O 1.02078 0.36067 0.67158
 O101 O 1.02188 0.32839 0.63822
 O102 O 0.97458 0.35960 0.67099
 O103 O 0.97473 0.33152 0.69862
 O104 O 1.02216 0.30008 0.66556
 O105 O 1.02110 0.33260 0.69922
 O106 O 0.97584 0.29921 0.66478
 Cu107 Cu 0.99823 0.34687 0.65184
 Cu108 Cu 0.99849 0.31302 0.68482
 C109 C 0.96813 0.30770 0.64513
 C110 C 1.02862 0.35243 0.69126
 C111 C 1.03007 0.30879 0.64609
 C112 C 0.96659 0.35101 0.69043
 O113 O 0.35138 0.02123 0.32097
 O114 O 0.31694 -0.02505 0.35167
 O115 O 0.34966 -0.02483 0.31851
 O116 O 0.31921 0.02094 0.35395
 O117 O 0.29121 0.02369 0.32637
 O118 O 0.32208 -0.02231 0.29051
 O119 O 0.28890 -0.02253 0.32413
 O120 O 0.32369 0.02394 0.29306
 Cu121 Cu 0.33707 -0.00232 0.33902
 Cu122 Cu 0.30364 0.00081 0.30570
 C123 C 0.34350 0.03056 0.30181
 C124 C 0.29683 -0.03140 0.34352
 C125 C 0.34144 -0.03112 0.29828
 C126 C 0.30004 0.03019 0.34633
 O127 O 0.68596 -0.02053 0.65180
 O128 O 0.65291 0.02743 0.68146
 O129 O 0.68637 0.02540 0.64952
 O130 O 0.65274 -0.01864 0.68419
 O131 O 0.67978 -0.01748 0.71283
 O132 O 0.71371 0.02692 0.67786
 O133 O 0.67982 0.02886 0.71021
 O134 O 0.71347 -0.01920 0.67998
 Cu135 Cu 0.66678 0.00325 0.66395
 Cu136 Cu 0.69941 0.00488 0.69814
 C137 C 0.70557 -0.02777 0.66043
 C138 C 0.66050 0.03626 0.70097
 C139 C 0.70592 0.03349 0.65752
 C140 C 0.66027 -0.02544 0.70454
 O141 O 0.35392 0.97911 0.67896
 O142 O 0.31881 1.02551 0.64908
 O143 O 0.35251 1.02513 0.68126
 O144 O 0.32059 0.97941 0.64703
 O145 O 0.29346 0.97706 0.67548
 O146 O 0.32575 1.02301 0.71007
 O147 O 0.29160 1.02335 0.67745
 O148 O 0.32711 0.97679 0.70772
 Cu149 Cu 0.33912 1.00262 0.66123
 Cu150 Cu 0.30673 0.99996 0.69557
 C151 C 0.34664 0.97003 0.69846
 C152 C 0.29902 1.03210 0.65782
 C153 C 0.34496 1.03158 0.70170
 C154 C 0.30160 0.97037 0.65530
 O155 O 0.64299 0.97227 0.32414
 O156 O 0.67510 1.01993 0.35536
 O157 O 0.64293 1.01831 0.32187
 O158 O 0.67552 0.97369 0.35703
 O159 O 0.70355 0.97250 0.32942
 O160 O 0.67082 1.01744 0.29409
 O161 O 0.70329 1.01897 0.32796
 O162 O 0.67070 0.97121 0.29618
 Cu163 Cu 0.65639 0.99620 0.34237
 Cu164 Cu 0.68994 0.99497 0.30915
 C165 C 0.65113 0.96370 0.30475
 C166 C 0.69479 1.02756 0.34727
 C167 C 0.65107 1.02532 0.30185
 C168 C 0.69510 0.96543 0.34930
 C169 C 0.87466 0.78324 0.50379
 C170 C 0.86891 0.79460 0.48234
 C171 C 0.85221 0.81316 0.48221
 C172 C 0.84023 0.81983 0.50354
 C173 C 0.84594 0.80750 0.52491
 C174 C 0.86345 0.78981 0.52507
 C175 C 0.82200 0.83943 0.50363
 C176 C 0.81637 0.85178 0.52506
 C177 C 0.79869 0.86933 0.52534
 C178 C 0.78727 0.87574 0.50412
 C179 C 0.79297 0.86435 0.48265
 C180 C 0.80981 0.84595 0.48241
 H181 H 0.88799 0.76924 0.50395
 H182 H 0.84894 0.82231 0.46549
 H183 H 0.83689 0.81132 0.54156
 H184 H 0.82556 0.84804 0.54166
 H185 H 0.77382 0.88961 0.50433
 H186 H 0.81300 0.83678 0.46567
 C187 C 0.12314 0.21427 0.49614
 C188 C 0.12979 0.20178 0.47560
 C189 C 0.14688 0.18369 0.47711
 C190 C 0.15851 0.17869 0.49909
 C191 C 0.15178 0.19201 0.51956
 C192 C 0.13384 0.20925 0.51812
 C193 C 0.17759 0.15996 0.50057
 C194 C 0.18355 0.14900 0.52266
 C195 C 0.20174 0.13195 0.52386
 C196 C 0.21340 0.12478 0.50301
 C197 C 0.20750 0.13494 0.48101
 C198 C 0.19020 0.15281 0.47982
 H199 H 0.10960 0.22801 0.49500
 H200 H 0.15079 0.17368 0.46103
 H201 H 0.16042 0.18937 0.53667
 H202 H 0.17419 0.15336 0.53900
 H203 H 0.22714 0.11123 0.50390
 H204 H 0.18694 0.16103 0.46261
 C205 C 0.12265 0.78666 0.50382
 C206 C 0.12841 0.79890 0.52480
 C207 C 0.14533 0.81720 0.52423
 C208 C 0.15759 0.82271 0.50274
 C209 C 0.15183 0.80958 0.48187
 C210 C 0.13409 0.79213 0.48235
 C211 C 0.17627 0.84183 0.50209
 C212 C 0.18239 0.85326 0.48031
 C213 C 0.20042 0.87045 0.47965
 C214 C 0.21174 0.87736 0.50079
 C215 C 0.20561 0.86680 0.52254
 C216 C 0.18842 0.84879 0.52319
 H217 H 0.10923 0.77278 0.50421
 H218 H 0.14863 0.82700 0.54059
 H219 H 0.16106 0.81256 0.46514
 H220 H 0.17330 0.84910 0.46375
 H221 H 0.22544 0.89096 0.50030
 H222 H 0.18492 0.84025 0.54019
 C223 C 0.87662 0.21341 0.49151
 C224 C 0.86599 0.20788 0.51337
 C225 C 0.84804 0.19061 0.51437
 C226 C 0.84131 0.17773 0.49358
 C227 C 0.85284 0.18332 0.47172
 C228 C 0.86990 0.20143 0.47068
 C229 C 0.82251 0.15870 0.49466
 C230 C 0.80998 0.15157 0.47380
 C231 C 0.79291 0.13344 0.47483
 C232 C 0.78721 0.12302 0.49676
 C233 C 0.79885 0.13013 0.51765
 C234 C 0.81679 0.14738 0.51659
 H235 H 0.89018 0.22714 0.49069
 H236 H 0.83945 0.18760 0.53142
 H237 H 0.84891 0.17370 0.45540
 H238 H 0.81311 0.15999 0.45668
 H239 H 0.77361 0.10933 0.49759
 H240 H 0.82614 0.15162 0.53297
 C241 C 0.50341 0.87923 0.78597
 C242 C 0.48207 0.86788 0.79152
 C243 C 0.48172 0.84937 0.80831
 C244 C 0.50267 0.84270 0.82069
 C245 C 0.52402 0.85490 0.81515
 C246 C 0.52441 0.87262 0.79749
 C247 C 0.50225 0.82316 0.83908
 C248 C 0.52320 0.81043 0.84495
 C249 C 0.52285 0.79259 0.86245
 C250 C 0.50153 0.78638 0.87352
 C251 C 0.48054 0.79824 0.86767
 C252 C 0.48090 0.81689 0.85100
 H253 H 0.50369 0.89324 0.77258
 H254 H 0.46507 0.84026 0.81136
 H255 H 0.54043 0.85094 0.82444
 H256 H 0.53986 0.81405 0.83601
 H257 H 0.50128 0.77225 0.88679
 H258 H 0.46450 0.82639 0.84768
 C259 C 0.49822 0.12295 0.21565
 C260 C 0.47712 0.13441 0.20936
 C261 C 0.47737 0.15277 0.19240
 C262 C 0.49872 0.15916 0.18062
 C263 C 0.51982 0.14686 0.18690
 C264 C 0.51957 0.12929 0.20471
 C265 C 0.49899 0.17853 0.16207
 C266 C 0.52016 0.19113 0.15688
 C267 C 0.52049 0.20878 0.13919
 C268 C 0.49960 0.21492 0.12725
 C269 C 0.47838 0.20318 0.13242
 C270 C 0.47810 0.18472 0.14930
 H271 H 0.49802 0.10905 0.22916
 H272 H 0.46087 0.16197 0.18874
 H273 H 0.53651 0.15061 0.17807
 H274 H 0.53647 0.18755 0.16649
 H275 H 0.49986 0.22890 0.11382
 H276 H 0.46158 0.17530 0.15212
 C277 C 0.50237 0.12457 0.78708
 C278 C 0.52348 0.13576 0.79382
 C279 C 0.52321 0.15359 0.81139
 C280 C 0.50185 0.15969 0.82335
 C281 C 0.48076 0.14761 0.81661
 C282 C 0.48099 0.13064 0.79820
 C283 C 0.50154 0.17853 0.84251
 C284 C 0.48029 0.19081 0.84824
 C285 C 0.47990 0.20801 0.86642
 C286 C 0.50085 0.21408 0.87834
 C287 C 0.52216 0.20269 0.87262
 C288 C 0.52246 0.18463 0.85527
 H289 H 0.50256 0.11111 0.77311
 H290 H 0.53971 0.16263 0.81536
 H291 H 0.46406 0.15109 0.82554
 H292 H 0.46394 0.18739 0.83863
 H293 H 0.50058 0.22778 0.89208
 H294 H 0.53907 0.17548 0.85203
 C295 C 0.49661 0.87510 0.21279
 C296 C 0.51796 0.86399 0.20667
 C297 C 0.51828 0.84625 0.18903
 C298 C 0.49731 0.84016 0.17637
 C299 C 0.47597 0.85213 0.18250
 C300 C 0.47560 0.86903 0.20099
 C301 C 0.49768 0.82139 0.15713
 C302 C 0.47669 0.80904 0.15067
 C303 C 0.47697 0.79186 0.13248
 C304 C 0.49832 0.78589 0.12125
 C305 C 0.51938 0.79737 0.12769
 C306 C 0.51902 0.81542 0.14505
 H307 H 0.49635 0.88849 0.22683
 H308 H 0.53493 0.83726 0.18556
 H309 H 0.45955 0.84863 0.17306
 H310 H 0.46003 0.81238 0.15974
 H311 H 0.49856 0.77219 0.10752
 H312 H 0.53547 0.82463 0.14885
 C313 C 0.78432 0.49652 0.87745
 C314 C 0.79559 0.47543 0.87069
 C315 C 0.81365 0.47586 0.85339
 C316 C 0.81987 0.49740 0.84178
 C317 C 0.80769 0.51844 0.84852
 C318 C 0.79051 0.51802 0.86664
 C319 C 0.83883 0.49798 0.82281
 C320 C 0.85104 0.51938 0.81740
 C321 C 0.86811 0.52006 0.79917
 C322 C 0.87415 0.49927 0.78692
 C323 C 0.86286 0.47784 0.79234
 C324 C 0.84493 0.47722 0.80975
 H325 H 0.77067 0.49620 0.89119
 H326 H 0.82272 0.45936 0.84934
 H327 H 0.81121 0.53525 0.83979
 H328 H 0.84758 0.53562 0.82722
 H329 H 0.88769 0.49978 0.77307
 H330 H 0.83582 0.46053 0.81272
 C331 C 0.21604 0.49902 0.12259
 C332 C 0.20986 0.47780 0.13394
 C333 C 0.19236 0.47779 0.15175
 C334 C 0.17982 0.49889 0.15760
 C335 C 0.18612 0.52015 0.14550
 C336 C 0.20448 0.52021 0.12851
 C337 C 0.16032 0.49858 0.17603
 C338 C 0.15352 0.51956 0.18840
 C339 C 0.13519 0.51903 0.20542
 C340 C 0.12416 0.49751 0.21109
 C341 C 0.13085 0.47657 0.19947
 C342 C 0.14830 0.47714 0.18163
 H343 H 0.22989 0.49903 0.10905
 H344 H 0.18885 0.46121 0.16092
 H345 H 0.17682 0.53667 0.14890
 H346 H 0.16242 0.53632 0.18520
 H347 H 0.11037 0.49705 0.22469
 H348 H 0.15222 0.46074 0.17228
 C349 C 0.78608 0.50310 0.12589
 C350 C 0.79765 0.52416 0.13218
 C351 C 0.81642 0.52367 0.14872
 C352 C 0.82307 0.50211 0.16011
 C353 C 0.81055 0.48112 0.15388
 C354 C 0.79265 0.48159 0.13645
 C355 C 0.84281 0.50147 0.17832
 C356 C 0.85493 0.47996 0.18356
 C357 C 0.87266 0.47922 0.20117
 C358 C 0.87948 0.50007 0.21290
 C359 C 0.86829 0.52162 0.20760
 C360 C 0.84971 0.52228 0.19088
 H361 H 0.77189 0.50345 0.11270
 H362 H 0.82569 0.54014 0.15234
 H363 H 0.81436 0.46429 0.16245
 H364 H 0.85088 0.46365 0.17411
 H365 H 0.89349 0.49952 0.22628
 H366 H 0.84070 0.53906 0.18808
 C367 C 0.21558 0.50079 0.87301
 C368 C 0.20914 0.52205 0.86188
 C369 C 0.19108 0.52218 0.84463
 C370 C 0.17824 0.50116 0.83918
 C371 C 0.18483 0.47986 0.85105
 C372 C 0.20373 0.47967 0.86744
 C373 C 0.15814 0.50161 0.82141
 C374 C 0.15085 0.48070 0.80921
 C375 C 0.13200 0.48140 0.79276
 C376 C 0.12092 0.50300 0.78747
 C377 C 0.12808 0.52387 0.79894
 C378 C 0.14606 0.52313 0.81625
 H379 H 0.22985 0.50069 0.88613
 H380 H 0.18734 0.53880 0.83561
 H381 H 0.17533 0.46341 0.84794
 H382 H 0.15979 0.46389 0.81207
 H383 H 0.10676 0.50361 0.77426
 H384 H 0.15037 0.53949 0.82550
 C385 C 0.25486 0.36680 0.07284
 C386 C 0.26626 0.38640 0.08333
 C387 C 0.29020 0.39085 0.07827
 C388 C 0.30248 0.37638 0.06212
 C389 C 0.29098 0.35719 0.05075
 C390 C 0.26719 0.35217 0.05671
 C391 C 0.25307 0.40350 0.09723
 C392 C 0.24255 0.41906 0.10771
 C393 C 0.23078 0.43851 0.11850
 C394 C 0.22109 0.45601 0.12635
 H395 H 0.23627 0.36331 0.07649
 H396 H 0.29916 0.40604 0.08615
 H397 H 0.32081 0.38066 0.05802
 H398 H 0.25785 0.33757 0.04820
 C399 C 0.75272 0.63455 0.06689
 C400 C 0.74306 0.61411 0.07747
 C401 C 0.71906 0.60859 0.07391
 C402 C 0.70492 0.62294 0.05925
 C403 C 0.71458 0.64309 0.04791
 C404 C 0.73853 0.64903 0.05225
 C405 C 0.75782 0.59766 0.09056
 C406 C 0.76911 0.58259 0.10095
 C407 C 0.78087 0.56354 0.11247
 C408 C 0.78944 0.54615 0.12175
 H409 H 0.77131 0.63893 0.06944
 H410 H 0.71141 0.59279 0.08194
 H411 H 0.68656 0.61788 0.05634
 H412 H 0.74651 0.66438 0.04370
 C413 C 0.75238 0.36522 0.93731
 C414 C 0.74248 0.38538 0.92641
 C415 C 0.71842 0.39070 0.92986
 C416 C 0.70446 0.37646 0.94473
 C417 C 0.71436 0.35659 0.95641
 C418 C 0.73837 0.35082 0.95218
 C419 C 0.75702 0.40181 0.91309
 C420 C 0.76806 0.41690 0.90252
 C421 C 0.77947 0.43601 0.89079
 C422 C 0.78773 0.45343 0.88133
 H423 H 0.77102 0.36099 0.93486
 H424 H 0.71059 0.40630 0.92157
 H425 H 0.68604 0.38137 0.94754
 H426 H 0.74652 0.33569 0.96098
 C427 C 0.29018 0.60903 0.91668
 C428 C 0.26624 0.61349 0.91158
 C429 C 0.25485 0.63314 0.92198
 C430 C 0.26719 0.64781 0.93807
 C431 C 0.29097 0.64278 0.94408
 C432 C 0.30247 0.62354 0.93278
 C433 C 0.25300 0.59632 0.89781
 C434 C 0.24239 0.58074 0.88747
 C435 C 0.23047 0.56128 0.87688
 C436 C 0.22061 0.54379 0.86922
 H437 H 0.29913 0.59379 0.90886
 H438 H 0.23625 0.63664 0.91831
 H439 H 0.25784 0.66245 0.94652
 H440 H 0.32079 0.61924 0.93693
 C441 C 0.06709 0.24051 0.36056
 C442 C 0.07704 0.25096 0.38106
 C443 C 0.07357 0.27524 0.38550
 C444 C 0.05961 0.28888 0.37005
 C445 C 0.04887 0.27846 0.34982
 C446 C 0.05314 0.25422 0.34493
 C447 C 0.08947 0.23690 0.39865
 C448 C 0.09938 0.22647 0.41470
 C449 C 0.11044 0.21595 0.43481
 C450 C 0.11947 0.20855 0.45296
 H451 H 0.06958 0.22171 0.35699
 H452 H 0.08114 0.28351 0.40132
 H453 H 0.05675 0.30749 0.37430
 H454 H 0.04502 0.24568 0.32956
 C455 C 0.06191 0.75771 0.63669
 C456 C 0.07168 0.74780 0.61584
 C457 C 0.06769 0.72379 0.61049
 C458 C 0.05359 0.70984 0.62551
 C459 C 0.04321 0.71968 0.64622
 C460 C 0.04780 0.74370 0.65186
 C461 C 0.08480 0.76216 0.59903
 C462 C 0.09541 0.77292 0.58370
 C463 C 0.10739 0.78390 0.56440
 C464 C 0.11721 0.79170 0.54686
 H465 H 0.06482 0.77630 0.64097
 H466 H 0.07511 0.71593 0.59439
 H467 H 0.05048 0.69142 0.62065
 H468 H 0.04002 0.75182 0.66763
 C469 C 0.93619 0.74926 0.37262
 C470 C 0.92729 0.74015 0.39419
 C471 C 0.93266 0.71675 0.40088
 C472 C 0.94723 0.70263 0.38641
 C473 C 0.95670 0.71172 0.36495
 C474 C 0.95077 0.73511 0.35803
 C475 C 0.91358 0.75484 0.41026
 C476 C 0.90255 0.76610 0.42496
 C477 C 0.89019 0.77785 0.44356
 C478 C 0.88016 0.78643 0.46063
 H479 H 0.93221 0.76739 0.36730
 H480 H 0.92592 0.70952 0.41755
 H481 H 0.95139 0.68472 0.39226
 H482 H 0.95782 0.74265 0.34165
 C483 C 0.92550 0.29133 0.59517
 C484 C 0.91924 0.26802 0.60137
 C485 C 0.92815 0.25797 0.62252
 C486 C 0.94363 0.27105 0.63717
 C487 C 0.95048 0.29429 0.63072
 C488 C 0.94098 0.30438 0.60970
 C489 C 0.90516 0.25408 0.58497
 C490 C 0.89429 0.24284 0.57014
 C491 C 0.88283 0.23017 0.55155
 C492 C 0.87433 0.21977 0.53467
 H493 H 0.91884 0.29925 0.57877
 H494 H 0.92355 0.23988 0.62742
 H495 H 0.95064 0.26278 0.65322
 H496 H 0.94582 0.32223 0.60423
 C497 C 0.39325 0.07380 0.28823
 C498 C 0.38719 0.08149 0.26519
 C499 C 0.36615 0.07343 0.25447
 C500 C 0.35148 0.05730 0.26661
 C501 C 0.35785 0.04895 0.28953
 C502 C 0.37872 0.05766 0.30033
 C503 C 0.40376 0.09594 0.25203
 C504 C 0.41889 0.10692 0.24150
 C505 C 0.43795 0.11828 0.22975
 C506 C 0.45530 0.12652 0.22019
 H507 H 0.40957 0.07980 0.29662
 H508 H 0.36140 0.07913 0.23655
 H509 H 0.33554 0.05091 0.25782
 H510 H 0.38408 0.05168 0.31798
 C511 C 0.61100 0.08004 0.71396
 C512 C 0.61566 0.08613 0.73782
 C513 C 0.63600 0.07718 0.74921
 C514 C 0.65123 0.06163 0.73695
 C515 C 0.64613 0.05471 0.71324
 C516 C 0.62609 0.06447 0.70175
 C517 C 0.59827 0.09967 0.75099
 C518 C 0.58256 0.10990 0.76150
 C519 C 0.56299 0.12048 0.77324
 C520 C 0.54540 0.12821 0.78284
 H521 H 0.59525 0.08675 0.70502
 H522 H 0.63968 0.08164 0.76774
 H523 H 0.66649 0.05437 0.74629
 H524 H 0.62170 0.05960 0.68348
 C525 C 0.37091 0.92806 0.74585
 C526 C 0.39181 0.92009 0.73480
 C527 C 0.39721 0.92747 0.71149
 C528 C 0.38215 0.94321 0.69946
 C529 C 0.36143 0.95186 0.71061
 C530 C 0.35573 0.94380 0.73379
 C531 C 0.40885 0.90605 0.74785
 C532 C 0.42421 0.89534 0.75839
 C533 C 0.44333 0.88418 0.77031
 C534 C 0.46055 0.87597 0.78015
 H535 H 0.36666 0.92259 0.76397
 H536 H 0.41341 0.92153 0.70282
 H537 H 0.38702 0.94899 0.68161
 H538 H 0.33993 0.95015 0.74286
 C539 C 0.60223 0.91992 0.28972
 C540 C 0.60782 0.91386 0.26606
 C541 C 0.62851 0.92290 0.25548
 C542 C 0.64321 0.93849 0.26834
 C543 C 0.63721 0.94534 0.29185
 C544 C 0.61679 0.93552 0.30254
 C545 C 0.59102 0.90025 0.25222
 C546 C 0.57578 0.88995 0.24111
 C547 C 0.55671 0.87931 0.22863
 C548 C 0.53949 0.87154 0.21840
 H549 H 0.58618 0.91315 0.29804
 H550 H 0.63291 0.91847 0.23710
 H551 H 0.65878 0.94578 0.25962
 H552 H 0.61170 0.94034 0.32063
 C553 C 0.39172 0.28923 0.91885
 C554 C 0.38748 0.26514 0.91415
 C555 C 0.36776 0.25385 0.92444
 C556 C 0.35283 0.26643 0.94007
 C557 C 0.35767 0.29038 0.94574
 C558 C 0.37696 0.30178 0.93451
 C559 C 0.40490 0.25170 0.90092
 C560 C 0.42069 0.24101 0.89102
 C561 C 0.44036 0.22907 0.88088
 C562 C 0.45800 0.21929 0.87354
 H563 H 0.40700 0.29812 0.91111
 H564 H 0.36442 0.23514 0.92107
 H565 H 0.33817 0.25716 0.94850
 H566 H 0.38111 0.32022 0.93840
 C567 C 0.60481 0.71133 0.92303
 C568 C 0.61133 0.73402 0.91504
 C569 C 0.63261 0.74426 0.92300
 C570 C 0.64705 0.73206 0.93934
 C571 C 0.64023 0.70954 0.94803
 C572 C 0.61914 0.69916 0.93939
 C573 C 0.59498 0.74741 0.90050
 C574 C 0.58010 0.75833 0.88950
 C575 C 0.56139 0.77072 0.87820
 C576 C 0.54434 0.78092 0.87009
 H577 H 0.58828 0.70331 0.91712
 H578 H 0.63772 0.76191 0.91708
 H579 H 0.66318 0.74053 0.94567
 H580 H 0.61341 0.68183 0.94564
 C581 C 0.39085 0.71049 0.07689
 C582 C 0.38617 0.73443 0.08201
 C583 C 0.36634 0.74560 0.07176
 C584 C 0.35172 0.73307 0.05579
 C585 C 0.35697 0.70930 0.04975
 C586 C 0.37638 0.69801 0.06090
 C587 C 0.40322 0.74786 0.09572
 C588 C 0.41870 0.75859 0.10606
 C589 C 0.43801 0.77061 0.11678
 C590 C 0.45537 0.78047 0.12466
 H591 H 0.40622 0.70170 0.08459
 H592 H 0.36267 0.76419 0.07546
 H593 H 0.33694 0.74226 0.04745
 H594 H 0.38085 0.67970 0.05673
 C595 C 0.63180 0.25589 0.08112
 C596 C 0.61081 0.26655 0.08933
 C597 C 0.60485 0.28956 0.08182
 C598 C 0.61941 0.30163 0.06563
 C599 C 0.64017 0.29083 0.05668
 C600 C 0.64648 0.26800 0.06495
 C601 C 0.59406 0.25327 0.10346
 C602 C 0.57881 0.24249 0.11402
 C603 C 0.55965 0.23030 0.12472
 C604 C 0.54227 0.22027 0.13226
 H605 H 0.63645 0.23799 0.08667
 H606 H 0.58856 0.29790 0.08792
 H607 H 0.61409 0.31921 0.05970
 H608 H 0.66234 0.25921 0.05837
 C609 C 0.27940 0.07543 0.60983
 C610 C 0.25534 0.07854 0.61538
 C611 C 0.24586 0.06774 0.63588
 C612 C 0.26028 0.05333 0.65038
 C613 C 0.28430 0.04944 0.64437
 C614 C 0.29377 0.06101 0.62416
 C615 C 0.24044 0.09141 0.59883
 C616 C 0.22918 0.10162 0.58356
 C617 C 0.21764 0.11291 0.56414
 C618 C 0.20939 0.12194 0.54637
 H619 H 0.28693 0.08364 0.59397
 H620 H 0.22722 0.06993 0.64030
 H621 H 0.25245 0.04460 0.66578
 H622 H 0.31217 0.05846 0.61906
 C623 C 0.71074 0.07078 0.39527
 C624 C 0.73340 0.07796 0.38800
 C625 C 0.74285 0.06931 0.36646
 C626 C 0.72987 0.05310 0.35253
 C627 C 0.70728 0.04514 0.36011
 C628 C 0.69777 0.05457 0.38151
 C629 C 0.74740 0.09266 0.40379
 C630 C 0.75860 0.10397 0.41830
 C631 C 0.77112 0.11589 0.43669
 C632 C 0.78132 0.12473 0.45351
 H633 H 0.70328 0.07727 0.41197
 H634 H 0.76046 0.07465 0.36072
 H635 H 0.73781 0.04637 0.33618
 H636 H 0.68046 0.04910 0.38799
 C637 C 0.72312 0.92821 0.61227
 C638 C 0.74730 0.92489 0.61712
 C639 C 0.75751 0.93563 0.63732
 C640 C 0.74370 0.95025 0.65220
 C641 C 0.71958 0.95442 0.64685
 C642 C 0.70936 0.94285 0.62698
 C643 C 0.76157 0.91187 0.60015
 C644 C 0.77229 0.90148 0.58461
 C645 C 0.78328 0.88986 0.56508
 C646 C 0.79119 0.88032 0.54743
 H647 H 0.71503 0.92004 0.59667
 H648 H 0.77625 0.93325 0.64119
 H649 H 0.75209 0.95900 0.66731
 H650 H 0.69084 0.94562 0.62240
 C651 C 0.24387 0.93386 0.36709
 C652 C 0.25379 0.92305 0.38740
 C653 C 0.27804 0.92578 0.39224
 C654 C 0.29220 0.93987 0.37740
 C655 C 0.28231 0.95147 0.35740
 C656 C 0.25808 0.94794 0.35209
 C657 C 0.23915 0.91058 0.40444
 C658 C 0.22806 0.90066 0.42000
 C659 C 0.21662 0.88962 0.43959
 C660 C 0.20833 0.88065 0.45735
 H661 H 0.22509 0.93196 0.36323
 H662 H 0.28590 0.91755 0.40793
 H663 H 0.31078 0.94216 0.38197
 H664 H 0.24993 0.95671 0.33688
 C665 C 0.06900 0.37348 0.74165
 C666 C 0.07780 0.39478 0.73207
 C667 C 0.07129 0.40162 0.70886
 C668 C 0.05570 0.38756 0.69545
 C669 C 0.04633 0.36639 0.70506
 C670 C 0.05340 0.35931 0.72820
 C671 C 0.09207 0.41066 0.74639
 C672 C 0.10311 0.42513 0.75787
 C673 C 0.11479 0.44342 0.77069
 C674 C 0.12347 0.46014 0.78108
 H675 H 0.07378 0.36809 0.75967
 H676 H 0.07787 0.41812 0.70131
 H677 H 0.05069 0.39351 0.67769
 H678 H 0.04649 0.34313 0.73611
 C679 C 0.07374 0.62788 0.25611
 C680 C 0.08178 0.60632 0.26579
 C681 C 0.07456 0.59955 0.28880
 C682 C 0.05904 0.61397 0.30191
 C683 C 0.05045 0.63543 0.29218
 C684 C 0.05822 0.64240 0.26924
 C685 C 0.09600 0.59019 0.25172
 C686 C 0.10696 0.57558 0.24034
 C687 C 0.11850 0.55719 0.22755
 C688 C 0.12698 0.54038 0.21714
 H689 H 0.07908 0.63322 0.23825
 H690 H 0.08054 0.58284 0.29642
 H691 H 0.05347 0.60809 0.31952
 H692 H 0.05193 0.65881 0.26125
 C693 C 0.93552 0.36480 0.23935
 C694 C 0.92622 0.38528 0.25024
 C695 C 0.93027 0.38941 0.27463
 C696 C 0.94417 0.37365 0.28795
 C697 C 0.95425 0.35341 0.27708
 C698 C 0.94941 0.34887 0.25273
 C699 C 0.91375 0.40305 0.23649
 C700 C 0.90379 0.41911 0.22623
 C701 C 0.89261 0.43909 0.21577
 C702 C 0.88338 0.45700 0.20828
 H703 H 0.93256 0.36146 0.22046
 H704 H 0.92319 0.40521 0.28324
 H705 H 0.94748 0.37764 0.30665
 H706 H 0.95702 0.33349 0.24384
 C707 C 0.93018 0.60523 0.72499
 C708 C 0.92399 0.61133 0.74848
 C709 C 0.93143 0.63315 0.75809
 C710 C 0.94544 0.64859 0.74433
 C711 C 0.95224 0.64225 0.72088
 C712 C 0.94419 0.62053 0.71129
 C713 C 0.91093 0.59443 0.76270
 C714 C 0.90046 0.57902 0.77338
 C715 C 0.88872 0.55964 0.78427
 C716 C 0.87911 0.54207 0.79201
 H717 H 0.92455 0.58838 0.71739
 H718 H 0.92677 0.63802 0.77629
 H719 H 0.95142 0.66516 0.75223
 H720 H 0.94905 0.61512 0.69330
 C721 C 0.71207 0.60151 0.92859
 C722 C 0.73434 0.60814 0.91973
 C723 C 0.74412 0.63016 0.92617
 C724 C 0.73183 0.64532 0.94182
 C725 C 0.70964 0.63849 0.95141
 C726 C 0.69981 0.61649 0.94425
 C727 C 0.74759 0.59134 0.90553
 C728 C 0.75812 0.57606 0.89468
 C729 C 0.76985 0.55691 0.88334
 C730 C 0.77945 0.53962 0.87496
 H731 H 0.70439 0.58445 0.92381
 H732 H 0.76144 0.63539 0.91950
 H733 H 0.73999 0.66208 0.94681
 H734 H 0.68277 0.61055 0.95103
 C735 C 0.24884 0.36868 0.93205
 C736 C 0.25735 0.39108 0.92520
 C737 C 0.28006 0.39833 0.93233
 C738 C 0.29410 0.38353 0.94660
 C739 C 0.28565 0.36109 0.95407
 C740 C 0.26290 0.35373 0.94633
 C741 C 0.24278 0.40729 0.91162
 C742 C 0.23165 0.42210 0.90071
 C743 C 0.22009 0.44083 0.88850
 C744 C 0.21170 0.45796 0.87859
 H745 H 0.23126 0.36290 0.92663
 H746 H 0.28682 0.41565 0.92714
 H747 H 0.31147 0.38991 0.95203
 H748 H 0.25572 0.33662 0.95162
 C749 C 0.28005 0.60134 0.06259
 C750 C 0.25734 0.60856 0.06978
 C751 C 0.24873 0.63092 0.06287
 C752 C 0.26269 0.64586 0.04851
 C753 C 0.28545 0.63855 0.04075
 C754 C 0.29399 0.61614 0.04825
 C755 C 0.24292 0.59239 0.08354
 C756 C 0.23192 0.57763 0.09463
 C757 C 0.22052 0.55896 0.10706
 C758 C 0.21227 0.54188 0.11716
 H759 H 0.28689 0.58406 0.06783
 H760 H 0.23115 0.63668 0.06831
 H761 H 0.25544 0.66295 0.04319
 H762 H 0.31137 0.60979 0.04282
 C763 C 0.74474 0.36956 0.07814
 C764 C 0.73516 0.39170 0.08450
 C765 C 0.71291 0.39849 0.07567
 C766 C 0.70046 0.38354 0.06012
 C767 C 0.71009 0.36142 0.05304
 C768 C 0.73226 0.35444 0.06260
 C769 C 0.74864 0.40845 0.09854
 C770 C 0.75940 0.42368 0.10922
 C771 C 0.77144 0.44276 0.12034
 C772 C 0.78130 0.46001 0.12849
 H773 H 0.76204 0.36420 0.08478
 H774 H 0.70539 0.41565 0.08038
 H775 H 0.68345 0.38961 0.05335
 H776 H 0.74027 0.33758 0.05768
 C777 C 0.92307 0.71214 0.61088
 C778 C 0.91445 0.73464 0.61712
 C779 C 0.92152 0.74518 0.63873
 C780 C 0.93771 0.73347 0.65376
 C781 C 0.94725 0.71116 0.64714
 C782 C 0.93928 0.70047 0.62570
 C783 C 0.90025 0.74754 0.60005
 C784 C 0.88961 0.75784 0.58443
 C785 C 0.87875 0.76935 0.56481
 C786 C 0.87093 0.77883 0.54712
 H787 H 0.91781 0.70388 0.59412
 H788 H 0.91505 0.76269 0.64365
 H789 H 0.94329 0.74226 0.67011
 H790 H 0.94597 0.68328 0.61997
 C791 C 0.93177 0.24355 0.35644
 C792 C 0.92457 0.25254 0.37870
 C793 C 0.93142 0.27545 0.38564
 C794 C 0.94599 0.28911 0.37086
 C795 C 0.95408 0.28007 0.34872
 C796 C 0.94634 0.25726 0.34145
 C797 C 0.91136 0.23817 0.39537
 C798 C 0.90096 0.22740 0.41082
 C799 C 0.88951 0.21644 0.43041
 C800 C 0.88029 0.20866 0.44826
 H801 H 0.92657 0.22579 0.35091
 H802 H 0.92594 0.28258 0.40284
 H803 H 0.95134 0.30657 0.37713
 H804 H 0.95209 0.24966 0.32456
 C805 C 0.07228 0.26142 0.62633
 C806 C 0.08017 0.27085 0.60453
 C807 C 0.07235 0.29334 0.59719
 C808 C 0.05623 0.30612 0.61122
 C809 C 0.04755 0.29658 0.63290
 C810 C 0.05617 0.27421 0.64049
 C811 C 0.09463 0.25687 0.58856
 C812 C 0.10566 0.24544 0.57404
 C813 C 0.11716 0.23243 0.55576
 C814 C 0.12560 0.22166 0.53911
 H815 H 0.07812 0.24394 0.63209
 H816 H 0.07824 0.30075 0.58028
 H817 H 0.05021 0.32329 0.60473
 H818 H 0.05004 0.26625 0.65706
 C819 C 0.07677 0.70904 0.39981
 C820 C 0.08458 0.73160 0.39280
 C821 C 0.07712 0.74112 0.37087
 C822 C 0.06133 0.72836 0.35629
 C823 C 0.05258 0.70598 0.36366
 C824 C 0.06096 0.69630 0.38541
 C825 C 0.09835 0.74559 0.40936
 C826 C 0.10867 0.75687 0.42452
 C827 C 0.11921 0.76956 0.44358
 C828 C 0.12681 0.78003 0.46082
 H829 H 0.08235 0.70155 0.41682
 H830 H 0.08296 0.75867 0.36535
 H831 H 0.05542 0.73639 0.33967
 H832 H 0.05488 0.67911 0.39173
 C833 C 0.63588 0.93876 0.75681
 C834 C 0.61528 0.92908 0.74658
 C835 C 0.61021 0.93325 0.72239
 C836 C 0.62524 0.94748 0.70861
 C837 C 0.64567 0.95781 0.71880
 C838 C 0.65106 0.95300 0.74298
 C839 C 0.59843 0.91594 0.76079
 C840 C 0.58307 0.90536 0.77146
 C841 C 0.56379 0.89346 0.78237
 C842 C 0.54633 0.88372 0.79018
 H843 H 0.63994 0.93572 0.77555
 H844 H 0.59430 0.92589 0.71428
 H845 H 0.62059 0.95075 0.69005
 H846 H 0.66661 0.96076 0.75136
 C847 C 0.36465 0.93427 0.24462
 C848 C 0.38480 0.92336 0.25452
 C849 C 0.38970 0.92605 0.27896
 C850 C 0.37505 0.94016 0.29332
 C851 C 0.35519 0.95184 0.28347
 C852 C 0.34984 0.94838 0.25904
 C853 C 0.40156 0.91070 0.23972
 C854 C 0.41690 0.90055 0.22857
 C855 C 0.43619 0.88914 0.21712
 C856 C 0.45367 0.87978 0.20886
 H857 H 0.36074 0.93239 0.22570
 H858 H 0.40526 0.91774 0.28681
 H859 H 0.37964 0.94238 0.31205
 H860 H 0.33473 0.95721 0.25092
 C861 C 0.62898 0.06225 0.24933
 C862 C 0.60785 0.07158 0.25874
 C863 C 0.60157 0.06674 0.28250
 C864 C 0.61598 0.05221 0.29667
 C865 C 0.63697 0.04226 0.28728
 C866 C 0.64353 0.04772 0.26355
 C867 C 0.59171 0.08507 0.24401
 C868 C 0.57693 0.09592 0.23280
 C869 C 0.55823 0.10810 0.22119
 C870 C 0.54115 0.11803 0.21276
 H871 H 0.63397 0.06582 0.23092
 H872 H 0.58523 0.07381 0.28995
 H873 H 0.61044 0.04842 0.31486
 H874 H 0.65955 0.04028 0.25579
 C875 C 0.39449 0.07345 0.71986
 C876 C 0.38994 0.07660 0.74431
 C877 C 0.36967 0.06632 0.75458
 C878 C 0.35437 0.05239 0.74053
 C879 C 0.35931 0.04848 0.71610
 C880 C 0.37933 0.05952 0.70586
 C881 C 0.40709 0.08913 0.75878
 C882 C 0.42259 0.09917 0.76980
 C883 C 0.44191 0.11047 0.78130
 C884 C 0.45930 0.11981 0.78980
 H885 H 0.41013 0.08128 0.71173
 H886 H 0.36602 0.06857 0.77352
 H887 H 0.33916 0.04406 0.74895
 H888 H 0.38364 0.05692 0.68711
 C889 C 0.63106 0.75473 0.06269
 C890 C 0.61101 0.74476 0.07370
 C891 C 0.60653 0.72037 0.07132
 C892 C 0.62148 0.70612 0.05743
 C893 C 0.64125 0.71603 0.04566
 C894 C 0.64618 0.74042 0.04880
 C895 C 0.59396 0.75937 0.08617
 C896 C 0.57841 0.77031 0.09622
 C897 C 0.55892 0.78153 0.10754
 C898 C 0.54134 0.78962 0.11689
 H899 H 0.63466 0.77362 0.06433
 H900 H 0.59106 0.71245 0.07972
 H901 H 0.61720 0.68741 0.05546
 H902 H 0.66120 0.74858 0.03988
 C903 C 0.39778 0.27927 0.06620
 C904 C 0.39099 0.25608 0.07228
 C905 C 0.36923 0.24706 0.06413
 C906 C 0.35448 0.26112 0.04964
 C907 C 0.36142 0.28433 0.04310
 C908 C 0.38315 0.29329 0.05174
 C909 C 0.40702 0.24160 0.08614
 C910 C 0.42165 0.23057 0.09739
 C911 C 0.44012 0.21917 0.11011
 C912 C 0.45701 0.21094 0.12054
 H913 H 0.41461 0.28642 0.07238
 H914 H 0.36382 0.22911 0.06868
 H915 H 0.33788 0.25370 0.04324
 H916 H 0.38903 0.31106 0.04708
 C917 C 0.60650 0.27965 0.93328
 C918 C 0.61162 0.25548 0.93008
 C919 C 0.63194 0.24565 0.94075
 C920 C 0.64675 0.25989 0.95503
 C921 C 0.64126 0.28406 0.95891
 C922 C 0.62116 0.29383 0.94756
 C923 C 0.59504 0.24090 0.91693
 C924 C 0.57991 0.22993 0.90628
 C925 C 0.56090 0.21867 0.89420
 C926 C 0.54371 0.21051 0.88420
 H927 H 0.59081 0.28745 0.92515
 H928 H 0.63604 0.22693 0.93846
 H929 H 0.66206 0.25183 0.96359
 H930 H 0.61644 0.31237 0.95009
 C931 C 0.39799 0.72113 0.92981
 C932 C 0.39144 0.74452 0.92424
 C933 C 0.36968 0.75354 0.93240
 C934 C 0.35471 0.73928 0.94643
 C935 C 0.36144 0.71589 0.95253
 C936 C 0.38315 0.70691 0.94383
 C937 C 0.40778 0.75923 0.91101
 C938 C 0.42269 0.77043 0.90035
 C939 C 0.44153 0.78202 0.88839
 C940 C 0.45874 0.79038 0.87865
 H941 H 0.41481 0.71398 0.92362
 H942 H 0.36446 0.77165 0.92825
 H943 H 0.33814 0.74672 0.95289
 H944 H 0.38886 0.68900 0.94814
 C945 C 0.71098 0.92333 0.39982
 C946 C 0.73403 0.91639 0.39346
 C947 C 0.74405 0.92467 0.37206
 C948 C 0.73120 0.94021 0.35729
 C949 C 0.70823 0.94775 0.36390
 C950 C 0.69816 0.93887 0.38517
 C951 C 0.74781 0.90236 0.40999
 C952 C 0.75891 0.89162 0.42498
 C953 C 0.77136 0.88042 0.44383
 C954 C 0.78150 0.87224 0.46099
 H955 H 0.70311 0.91716 0.41642
 H956 H 0.76195 0.91955 0.36706
 H957 H 0.73944 0.94674 0.34104
 H958 H 0.68051 0.94425 0.39075
 C959 C 0.28631 0.92770 0.60508
 C960 C 0.26347 0.92032 0.61162
 C961 C 0.25344 0.92841 0.63311
 C962 C 0.26607 0.94425 0.64777
 C963 C 0.28879 0.95228 0.64095
 C964 C 0.29889 0.94355 0.61961
 C965 C 0.24988 0.90604 0.59515
 C966 C 0.23900 0.89510 0.58014
 C967 C 0.22683 0.88365 0.56126
 C968 C 0.21690 0.87518 0.54412
 H969 H 0.29418 0.92167 0.58842
 H970 H 0.23569 0.92294 0.63825
 H971 H 0.25781 0.95067 0.66408
 H972 H 0.31637 0.94928 0.61387
 C973 C 0.28669 0.07265 0.39726
 C974 C 0.26378 0.08040 0.39140
 C975 C 0.25305 0.07260 0.37014
 C976 C 0.26505 0.05670 0.35503
 C977 C 0.28785 0.04832 0.36117
 C978 C 0.29865 0.05675 0.38229
 C979 C 0.25085 0.09479 0.40829
 C980 C 0.24042 0.10584 0.42354
 C981 C 0.22865 0.11748 0.44254
 C982 C 0.21889 0.12618 0.45966
 H983 H 0.29510 0.07847 0.41374
 H984 H 0.23524 0.07837 0.36552
 H985 H 0.25626 0.05052 0.33890
 H986 H 0.31621 0.05073 0.38750
 C987 C 0.72381 0.07287 0.60564
 C988 C 0.74755 0.07788 0.61115
 C989 C 0.75737 0.06958 0.63266
 C990 C 0.74360 0.05579 0.64831
 C991 C 0.71992 0.05005 0.64248
 C992 C 0.71009 0.05907 0.62114
 C993 C 0.76181 0.09032 0.59380
 C994 C 0.77255 0.10019 0.57798
 C995 C 0.78354 0.11114 0.55811
 C996 C 0.79142 0.12003 0.54014
 H997 H 0.71604 0.07916 0.58903
 H998 H 0.77577 0.07329 0.63706
 H999 H 0.75168 0.04903 0.66457
 H1000 H 0.69192 0.05504 0.61613
 C1001 C 0.93077 0.63039 0.25634
 C1002 C 0.92053 0.61028 0.26701
 C1003 C 0.92562 0.60489 0.29094
 C1004 C 0.94143 0.61904 0.30396
 C1005 C 0.95244 0.63884 0.29323
 C1006 C 0.94658 0.64468 0.26941
 C1007 C 0.90659 0.59381 0.25308
 C1008 C 0.89593 0.57881 0.24194
 C1009 C 0.88477 0.56000 0.22949
 C1010 C 0.87649 0.54297 0.21929
 H1011 H 0.92709 0.63462 0.23776
 H1012 H 0.91792 0.58930 0.29934
 H1013 H 0.94547 0.61410 0.32228
 H1014 H 0.95479 0.65978 0.26063
 C1015 C 0.92479 0.37058 0.74009
 C1016 C 0.91531 0.39149 0.73031
 C1017 C 0.92164 0.39840 0.70709
 C1018 C 0.93785 0.38487 0.69390
 C1019 C 0.94801 0.36418 0.70379
 C1020 C 0.94099 0.35692 0.72687
 C1021 C 0.90090 0.40718 0.74464
 C1022 C 0.88995 0.42158 0.75626
 C1023 C 0.87866 0.43985 0.76939
 C1024 C 0.87053 0.45660 0.78013
 H1025 H 0.92016 0.36518 0.75814
 H1026 H 0.91455 0.41465 0.69941
 H1027 H 0.94280 0.39090 0.67616
 H1028 H 0.94850 0.34109 0.73498
 C1029 C 0.07457 0.61445 0.72398
 C1030 C 0.07624 0.61793 0.74875
 C1031 C 0.06441 0.63714 0.75949
 C1032 C 0.05022 0.65228 0.74554
 C1033 C 0.04756 0.64813 0.72080
 C1034 C 0.06034 0.62940 0.71010
 C1035 C 0.08838 0.60033 0.76296
 C1036 C 0.09800 0.58426 0.77350
 C1037 C 0.10875 0.56418 0.78415
 C1038 C 0.11764 0.54616 0.79174
 H1039 H 0.08360 0.59962 0.71550
 H1040 H 0.06549 0.63991 0.77868
 H1041 H 0.04047 0.66648 0.75428
 H1042 H 0.05874 0.62580 0.69109
 C1043 C 0.07432 0.38739 0.27426
 C1044 C 0.07800 0.38314 0.24984
 C1045 C 0.06824 0.36283 0.23907
 C1046 C 0.05419 0.34721 0.25260
 C1047 C 0.04965 0.35192 0.27697
 C1048 C 0.06026 0.37194 0.28773
 C1049 C 0.09040 0.40073 0.23588
 C1050 C 0.10024 0.41668 0.22539
 C1051 C 0.11124 0.43657 0.21466
 C1052 C 0.12030 0.45442 0.20691
 H1053 H 0.08176 0.40308 0.28276
 H1054 H 0.07091 0.35943 0.22015
 H1055 H 0.04618 0.33200 0.24379
 H1056 H 0.05718 0.37604 0.30645
   
