data_POSCAR
  _audit_creation_date              2014-09-24
  _audit_creation_method            'ToBaCCo'
  _symmetry_space_group_name_H-M    'P1'
  _symmetry_Int_Tables_number       1
  _symmetry_cell_setting            triclinic
  loop_
  _symmetry_equiv_pos_as_xyz
 x,y,z
_cell_length_a 33.5132
_cell_length_b 33.5053
_cell_length_c 33.4637
_cell_angle_alpha 90.099200
_cell_angle_beta 90.077800
_cell_angle_gamma 120.188300
loop_
  _atom_site_label
  _atom_site_type_symbol
  _atom_site_fract_x
  _atom_site_fract_y
  _atom_site_fract_z
C1 C 0.52228 0.07007 0.05459
 H2 H 0.55518 0.07133 0.05436
 C3 C 0.51644 0.10124 0.07802
 H4 H 0.54486 0.12653 0.09604
 C5 C 0.44533 0.03628 0.03066
 H6 H 0.41801 0.01149 0.01162
 C7 C 0.43804 0.06691 0.05367
 H8 H 0.40498 0.06535 0.05257
 N9 N 0.48689 0.03823 0.03175
 C10 C 0.51965 -0.07096 0.01292
 H11 H 0.51970 -0.07217 -0.01939
 C12 C 0.52646 -0.10233 0.03510
 H13 H 0.53197 -0.12772 0.01988
 C14 C 0.51078 -0.03749 0.07234
 H15 H 0.50361 -0.01293 0.08676
 C16 C 0.51743 -0.06823 0.09563
 H17 H 0.51579 -0.06694 0.12791
 Zn18 Zn 0.49942 -0.00062 -0.00047
 N19 N 0.51216 -0.03928 0.03175
 C20 C 0.59063 0.03681 -0.03151
 N21 N 0.55084 0.03841 -0.03259
 C22 C 0.54713 0.07000 -0.05536
 C23 C 0.58417 0.10128 -0.07871
 C24 C 0.62857 0.06755 -0.05445
 C25 C 0.40867 -0.07148 -0.01400
 C26 C 0.37036 -0.10315 -0.03621
 C27 C 0.41348 -0.06901 -0.09673
 C28 C 0.45096 -0.03800 -0.07335
 N29 N 0.44786 -0.03968 -0.03276
 H30 H 0.59328 0.01220 -0.01253
 H31 H 0.51536 0.07098 -0.05512
 H32 H 0.58092 0.12638 -0.09667
 H33 H 0.66022 0.06628 -0.05335
 H34 H 0.40748 -0.07257 0.01831
 H35 H 0.33951 -0.12857 -0.02086
 H36 H 0.41657 -0.06763 -0.12902
 H37 H 0.48273 -0.01331 -0.08770
 C38 C 0.52517 -0.10103 0.07682
 C39 C 0.47397 0.09967 0.07752
 C40 C 0.37285 -0.10202 -0.07800
 C41 C 0.62525 0.10007 -0.07822
 C42 C -0.07036 0.47755 0.61185
 H43 H -0.07164 0.44464 0.61208
 C44 C -0.10151 0.48341 0.58844
 H45 H -0.12681 0.45499 0.57041
 C46 C -0.03655 0.55453 0.63579
 H47 H -0.01174 0.58186 0.65483
 C48 C -0.06715 0.56184 0.61279
 H49 H -0.06557 0.59492 0.61390
 N50 N -0.03852 0.51294 0.63469
 C51 C 0.07061 0.48013 0.65351
 H52 H 0.07181 0.48009 0.68582
 C53 C 0.10196 0.47330 0.63133
 H54 H 0.12734 0.46778 0.64655
 C55 C 0.03717 0.48899 0.59409
 H56 H 0.01262 0.49618 0.57967
 C57 C 0.06790 0.48232 0.57080
 H58 H 0.06662 0.48396 0.53852
 Zn59 Zn 0.00031 0.50040 0.66690
 N60 N 0.03895 0.48763 0.63468
 C61 C -0.03714 0.40917 0.69793
 N62 N -0.03872 0.44898 0.69903
 C63 C -0.07031 0.45269 0.72181
 C64 C -0.10157 0.41566 0.74517
 C65 C -0.06786 0.37123 0.72088
 C66 C 0.07118 0.59117 0.68045
 C67 C 0.10282 0.62946 0.70269
 C68 C 0.06870 0.58638 0.76315
 C69 C 0.03768 0.54887 0.73980
 N70 N 0.03936 0.55197 0.69920
 H71 H -0.01254 0.40651 0.67894
 H72 H -0.07128 0.48448 0.72158
 H73 H -0.12665 0.41892 0.76315
 H74 H -0.06659 0.33957 0.71978
 H75 H 0.07229 0.59238 0.64814
 H76 H 0.12832 0.66039 0.68753
 H77 H 0.06750 0.58350 0.79542
 H78 H 0.01300 0.51710 0.75416
 C79 C 0.10067 0.47458 0.58961
 C80 C -0.09991 0.52591 0.58894
 C81 C 0.10165 0.62694 0.74441
 C82 C -0.10036 0.37456 0.74468
 C83 C 0.54771 0.47726 0.38835
 H84 H 0.51590 0.44434 0.38803
 C85 C 0.58478 0.48321 0.41179
 H86 H 0.58154 0.45485 0.42974
 C87 C 0.59124 0.55417 0.36460
 H88 H 0.59388 0.58143 0.34563
 C89 C 0.62923 0.56157 0.38763
 H90 H 0.66091 0.59465 0.38661
 N91 N 0.55141 0.51258 0.36559
 C92 C 0.40923 0.47956 0.34663
 H93 H 0.40793 0.47938 0.31432
 C94 C 0.37102 0.47278 0.36877
 H95 H 0.34007 0.46718 0.35353
 C96 C 0.45168 0.48870 0.40609
 H97 H 0.48348 0.49598 0.42053
 C98 C 0.41426 0.48210 0.42935
 H99 H 0.41724 0.48388 0.46163
 Zn100 Zn 0.49993 0.49989 0.33333
 N101 N 0.44847 0.48717 0.36549
 C102 C 0.44571 0.40854 0.30205
 N103 N 0.48729 0.44838 0.30108
 C104 C 0.52262 0.45209 0.27834
 C105 C 0.51670 0.41502 0.25489
 C106 C 0.43834 0.37055 0.27901
 C107 C 0.52023 0.59059 0.31998
 C108 C 0.52699 0.62879 0.29782
 C109 C 0.51772 0.58549 0.23726
 C110 C 0.51112 0.54809 0.26054
 N111 N 0.51264 0.55134 0.30114
 H112 H 0.41843 0.40590 0.32101
 H113 H 0.55553 0.48391 0.27867
 H114 H 0.54506 0.41827 0.23695
 H115 H 0.40526 0.33886 0.28002
 H116 H 0.52039 0.59192 0.35229
 H117 H 0.53257 0.65975 0.31304
 H118 H 0.51595 0.58248 0.20499
 H119 H 0.50387 0.51628 0.24612
 C120 C 0.37366 0.47424 0.41050
 C121 C 0.62591 0.52571 0.41139
 C122 C 0.52554 0.62610 0.25609
 C123 C 0.47421 0.37388 0.25527
 C124 C 0.13411 0.46996 0.56619
 C125 C 0.16265 0.46704 0.54651
 C126 C 0.19731 0.46468 0.52297
 C127 C 0.19484 0.46446 0.48116
 C128 C 0.22970 0.46441 0.45826
 C129 C 0.26717 0.46459 0.47707
 C130 C 0.26937 0.46428 0.51888
 C131 C 0.23451 0.46433 0.54178
 C132 C 0.30416 0.46686 0.45355
 C133 C 0.33561 0.46971 0.43389
 H134 H 0.16633 0.46491 0.46631
 H135 H 0.22775 0.46483 0.42596
 H136 H 0.29828 0.46460 0.53373
 H137 H 0.23685 0.46468 0.57409
 C138 C 0.52978 0.86553 0.10024
 C139 C 0.53269 0.83700 0.11992
 C140 C 0.53504 0.80234 0.14347
 C141 C 0.53491 0.76487 0.12468
 C142 C 0.53497 0.73003 0.14761
 C143 C 0.53515 0.73252 0.18942
 C144 C 0.53582 0.77026 0.20820
 C145 C 0.53577 0.80510 0.18527
 C146 C 0.53290 0.69556 0.21299
 C147 C 0.53007 0.66414 0.23268
 H148 H 0.53417 0.76230 0.09238
 H149 H 0.53426 0.70091 0.13278
 H150 H 0.53579 0.77244 0.24051
 H151 H 0.53569 0.83383 0.20011
 C152 C 0.33816 0.86735 0.90067
 C153 C 0.30654 0.83867 0.88094
 C154 C 0.26934 0.80384 0.85734
 C155 C 0.27122 0.80650 0.81554
 C156 C 0.23614 0.77151 0.79256
 C157 C 0.19903 0.73372 0.81128
 C158 C 0.19688 0.73134 0.85309
 C159 C 0.23196 0.76632 0.87607
 C160 C 0.16412 0.69663 0.78765
 C161 C 0.13536 0.66510 0.76790
 H162 H 0.30005 0.83527 0.80076
 H163 H 0.23823 0.77361 0.76026
 H164 H 0.16844 0.70218 0.86787
 H165 H 0.23026 0.76384 0.90837
 C166 C 0.86735 0.53194 0.56571
 C167 C 0.83917 0.53575 0.54621
 C168 C 0.80468 0.53879 0.52292
 C169 C 0.80686 0.53918 0.48110
 C170 C 0.77176 0.53917 0.45842
 C171 C 0.73435 0.53876 0.47746
 C172 C 0.73254 0.53909 0.51928
 C173 C 0.76763 0.53911 0.54196
 C174 C 0.69678 0.53567 0.45415
 C175 C 0.66475 0.53181 0.43464
 H176 H 0.83523 0.53870 0.46607
 H177 H 0.77339 0.53867 0.42610
 H178 H 0.70365 0.53854 0.53431
 H179 H 0.76548 0.53858 0.57428
 C180 C 0.46796 0.13243 0.10077
 C181 C 0.46417 0.16062 0.12028
 C182 C 0.46114 0.19513 0.14358
 C183 C 0.46118 0.23238 0.12457
 C184 C 0.46120 0.26747 0.14728
 C185 C 0.46118 0.26546 0.18910
 C186 C 0.46042 0.22786 0.20811
 C187 C 0.46040 0.19276 0.18540
 C188 C 0.46427 0.30303 0.21245
 C189 C 0.46812 0.33505 0.23199
 H190 H 0.46199 0.23467 0.09226
 H191 H 0.46203 0.29651 0.13228
 H192 H 0.46064 0.22608 0.24043
 H193 H 0.46060 0.16424 0.20041
 C194 C -0.33596 0.13294 0.89861
 C195 C -0.30395 0.16122 0.87917
 C196 C -0.26637 0.19580 0.85595
 C197 C -0.22905 0.23323 0.87505
 C198 C -0.19394 0.26836 0.85242
 C199 C -0.19600 0.26621 0.81060
 C200 C -0.23297 0.22844 0.79150
 C201 C -0.26808 0.19330 0.81413
 C202 C -0.16145 0.30377 0.78734
 C203 C -0.13321 0.33578 0.76787
 H204 H -0.22750 0.23562 0.90736
 H205 H -0.16563 0.29753 0.86749
 H206 H -0.23502 0.22654 0.75917
 H207 H -0.29690 0.16464 0.79905
   
