data_POSCAR
  _audit_creation_date              2014-09-24
  _audit_creation_method            'ToBaCCo'
  _symmetry_space_group_name_H-M    'P1'
  _symmetry_Int_Tables_number       1
  _symmetry_cell_setting            triclinic
  loop_
  _symmetry_equiv_pos_as_xyz
 x,y,z
_cell_length_a 25.8122
_cell_length_b 30.1099
_cell_length_c 26.8061
_cell_angle_alpha 90.058400
_cell_angle_beta 90.039500
_cell_angle_gamma 85.589400
loop_
  _atom_site_label
  _atom_site_type_symbol
  _atom_site_fract_x
  _atom_site_fract_y
  _atom_site_fract_z
C1 C 1.21804 0.21635 0.19847
 C2 C 1.24878 0.24807 0.16783
 C3 C 1.27662 0.27572 0.19588
 C4 C 1.27102 0.26871 0.25290
 C5 C 1.25791 0.19170 0.23247
 C6 C 1.28531 0.21862 0.26121
 C7 C 1.18458 0.24695 0.23320
 C8 C 1.21184 0.27429 0.26177
 H9 H 1.24725 0.24932 0.12747
 H10 H 1.29360 0.29082 0.27625
 H11 H 1.26199 0.15570 0.23562
 H12 H 1.14260 0.24749 0.23442
 C13 C 0.72144 -0.28387 0.19448
 C14 C 0.75141 -0.25229 0.16292
 C15 C 0.77909 -0.22406 0.19031
 C16 C 0.77436 -0.23055 0.24747
 C17 C 0.76186 -0.30788 0.22844
 C18 C 0.78913 -0.28035 0.25653
 C19 C 0.68810 -0.25314 0.22904
 C20 C 0.71545 -0.22546 0.25692
 H21 H 0.74901 -0.25118 0.12260
 H22 H 0.79687 -0.20796 0.27027
 H23 H 0.76545 -0.34376 0.23302
 H24 H 0.64618 -0.25305 0.23105
 C25 C 0.71345 0.22210 -0.31265
 C26 C 0.74439 0.25253 -0.33914
 C27 C 0.77603 0.27779 -0.30706
 C28 C 0.77043 0.26662 -0.25340
 C29 C 0.75016 0.19428 -0.28354
 C30 C 0.78116 0.21782 -0.24989
 C31 C 0.68354 0.24977 -0.27690
 C32 C 0.71426 0.27443 -0.24397
 H33 H 0.74168 0.25738 -0.37915
 H34 H 0.79485 0.28555 -0.22813
 H35 H 0.75117 0.15817 -0.28464
 H36 H 0.64144 0.25376 -0.27709
 C37 C 1.22374 -0.28413 -0.30161
 C38 C 1.25765 -0.25527 -0.33274
 C39 C 1.28463 -0.22677 -0.30497
 C40 C 1.27570 -0.23057 -0.24806
 C41 C 1.26050 -0.30789 -0.26411
 C42 C 1.28755 -0.28024 -0.23608
 C43 C 1.18952 -0.25082 -0.27100
 C44 C 1.21627 -0.22307 -0.24260
 H45 H 1.25758 -0.25530 -0.37314
 H46 H 1.29778 -0.20788 -0.22497
 H47 H 1.26380 -0.34374 -0.25922
 H48 H 1.14745 -0.24966 -0.27153
 C49 C 0.22265 0.21801 0.80366
 C50 C 0.25233 0.24736 0.83317
 C51 C 0.28190 0.27634 0.80401
 C52 C 0.27613 0.27009 0.74994
 C53 C 0.18937 0.24904 0.76930
 C54 C 0.21690 0.27631 0.74108
 C55 C 0.26182 0.19304 0.76907
 C56 C 0.28956 0.21995 0.74064
 H57 H 0.25065 0.24838 0.87355
 H58 H 0.29874 0.29201 0.72643
 H59 H 0.14734 0.25013 0.76824
 H60 H 0.26514 0.15708 0.76530
 C61 C 0.71300 0.72171 0.81221
 C62 C 0.74340 0.75266 0.83873
 C63 C 0.77514 0.77782 0.80671
 C64 C 0.77007 0.76616 0.75311
 C65 C 0.68319 0.74888 0.77590
 C66 C 0.71398 0.77354 0.74311
 C67 C 0.75026 0.69389 0.78367
 C68 C 0.78130 0.71740 0.75011
 H69 H 0.74044 0.75776 0.87870
 H70 H 0.79455 0.78501 0.72790
 H71 H 0.64109 0.75268 0.77572
 H72 H 0.75157 0.65778 0.78495
 C73 C 0.72186 0.21613 0.30526
 C74 C 0.75123 0.24832 0.33663
 C75 C 0.77889 0.27639 0.30910
 C76 C 0.77465 0.26922 0.25200
 C77 C 0.68855 0.24619 0.26999
 C78 C 0.71582 0.27377 0.24201
 C79 C 0.76281 0.19198 0.27195
 C80 C 0.79000 0.21940 0.24372
 H81 H 0.74871 0.24976 0.37694
 H82 H 0.79714 0.29169 0.22910
 H83 H 0.64667 0.24604 0.26772
 H84 H 0.76675 0.15605 0.26782
 C85 C 0.21826 0.71710 0.30159
 C86 C 0.24868 0.74917 0.33217
 C87 C 0.27664 0.77665 0.30410
 C88 C 0.27146 0.76908 0.24706
 C89 C 0.18499 0.74730 0.26635
 C90 C 0.21233 0.77446 0.23773
 C91 C 0.25843 0.69221 0.26811
 C92 C 0.28595 0.71891 0.23928
 H93 H 0.24687 0.75075 0.37251
 H94 H 0.29413 0.79104 0.22368
 H95 H 0.14302 0.74776 0.26486
 H96 H 0.26250 0.65619 0.26520
 N97 N 1.09218 0.03406 0.05072
 N98 N 1.12746 0.06290 0.05776
 N99 N 1.04808 -0.05407 0.08386
 N100 N 1.05838 -0.08240 0.12065
 N101 N 1.08492 -0.05813 0.04997
 N102 N 1.12158 -0.08892 0.06332
 N103 N 1.05583 0.03866 0.08487
 N104 N 1.06512 0.07099 0.11609
 C105 C 1.10989 0.08571 0.09859
 C106 C 1.10385 -0.10428 0.10700
 N107 N 0.90026 -0.03495 0.04921
 N108 N 0.86474 -0.06367 0.05662
 N109 N 0.94502 0.05279 0.08485
 N110 N 0.93965 0.08391 0.11936
 N111 N 0.90816 0.05833 0.05111
 N112 N 0.87634 0.09357 0.06225
 N113 N 0.93637 -0.03948 0.08382
 N114 N 0.92619 -0.07086 0.11590
 Mn115 Mn 0.99624 -0.00058 0.08470
 C116 C 0.88156 -0.08578 0.09841
 C117 C 0.89714 0.10942 0.10468
 N118 N 1.08475 -0.05664 -0.05793
 N119 N 1.12136 -0.08732 -0.07131
 N120 N 1.05619 0.04082 -0.09014
 N121 N 1.06610 0.07385 -0.12006
 N122 N 1.09225 0.03516 -0.05570
 N123 N 1.12785 0.06385 -0.06127
 N124 N 1.04849 -0.05170 -0.09243
 N125 N 1.05934 -0.07928 -0.12984
 Mn126 Mn 1.08886 -0.01156 -0.00328
 C127 C 1.10439 -0.10159 -0.11575
 C128 C 1.11084 0.08775 -0.10141
 N129 N 0.90829 0.06013 -0.05747
 N130 N 0.87526 0.09464 -0.06853
 N131 N 0.93619 -0.03739 -0.09392
 N132 N 0.92588 -0.06842 -0.12674
 N133 N 0.90025 -0.03359 -0.05915
 N134 N 0.86502 -0.06248 -0.06701
 N135 N 0.94493 0.05540 -0.09147
 N136 N 0.93776 0.08626 -0.12619
 Mn137 Mn 0.90344 0.01259 -0.00409
 Mn138 Mn 0.99643 0.00172 -0.09244
 Cl139 Cl 0.99606 0.00032 -0.00382
 C140 C 0.89514 0.11146 -0.11085
 C141 C 0.88136 -0.08389 -0.10942
 N142 N 1.09206 0.53556 0.55522
 N143 N 1.12727 0.56456 0.56116
 N144 N 1.04933 0.44767 0.59093
 N145 N 1.06051 0.41979 0.62793
 N146 N 1.08566 0.44346 0.55649
 N147 N 1.12266 0.41295 0.56953
 N148 N 1.05663 0.54001 0.59031
 N149 N 1.06691 0.57205 0.62148
 C150 C 1.11089 0.58701 0.60253
 C151 C 1.10584 0.39803 0.61369
 N152 N 0.90083 0.46590 0.55834
 N153 N 0.86541 0.43722 0.56630
 N154 N 0.94536 0.55450 0.59185
 N155 N 0.93830 0.58505 0.62699
 N156 N 0.90873 0.55966 0.55784
 N157 N 0.87586 0.59420 0.56925
 N158 N 0.93702 0.46177 0.59288
 N159 N 0.92672 0.43081 0.62566
 Mn160 Mn 0.99706 0.50090 0.59192
 C161 C 0.88196 0.41564 0.60852
 C162 C 0.89578 0.61051 0.61188
 N163 N 1.08519 0.44293 0.44862
 N164 N 1.12171 0.41206 0.43521
 N165 N 1.05547 0.53984 0.41479
 N166 N 1.06468 0.57226 0.38373
 N167 N 1.09187 0.53519 0.44890
 N168 N 1.12714 0.56405 0.44199
 N169 N 1.04821 0.44702 0.41485
 N170 N 1.05830 0.41866 0.37799
 Mn171 Mn 1.08905 0.48914 0.50235
 C172 C 1.10378 0.39672 0.39154
 C173 C 1.10947 0.58697 0.40131
 N174 N 0.90796 0.55881 0.44911
 N175 N 0.87582 0.59392 0.43823
 N176 N 0.93635 0.46126 0.41529
 N177 N 0.92613 0.42996 0.38303
 N178 N 0.90039 0.46554 0.45003
 N179 N 0.86498 0.43674 0.44255
 N180 N 0.94469 0.55360 0.41524
 N181 N 0.93899 0.58487 0.38099
 Mn182 Mn 0.90367 0.51260 0.50385
 Mn183 Mn 0.99610 0.50035 0.41467
 Cl184 Cl 0.99628 0.50053 0.50322
 C185 C 0.89636 0.61009 0.39589
 C186 C 0.88165 0.41486 0.40057
 N187 N 0.59712 0.03245 0.55297
 N188 N 0.62920 0.06438 0.55591
 N189 N 0.55503 -0.05577 0.58882
 N190 N 0.56558 -0.08413 0.62555
 N191 N 0.59165 -0.05989 0.55473
 N192 N 0.62858 -0.09052 0.56798
 N193 N 0.56106 0.03736 0.58742
 N194 N 0.56745 0.07297 0.61474
 C195 C 0.61018 0.08925 0.59464
 C196 C 0.61114 -0.10586 0.61178
 N197 N 0.40669 -0.03857 0.55520
 N198 N 0.37197 -0.06787 0.56272
 N199 N 0.44995 0.05025 0.58885
 N200 N 0.44390 0.08201 0.62269
 N201 N 0.41304 0.05473 0.55506
 N202 N 0.38067 0.08980 0.56533
 N203 N 0.44293 -0.04233 0.58973
 N204 N 0.43353 -0.07383 0.62199
 Mn205 Mn 0.50224 -0.00270 0.58919
 C206 C 0.38926 -0.08952 0.60453
 C207 C 0.40098 0.10674 0.60735
 N208 N 0.59006 -0.06037 0.44661
 N209 N 0.62646 -0.09128 0.43318
 N210 N 0.55982 0.03646 0.41284
 N211 N 0.56871 0.06941 0.38240
 N212 N 0.59635 0.03155 0.44685
 N213 N 0.63127 0.06070 0.44054
 N214 N 0.55305 -0.05618 0.41280
 N215 N 0.56290 -0.08457 0.37605
 Mn216 Mn 0.59418 -0.01429 0.50029
 C217 C 0.60828 -0.10652 0.38961
 C218 C 0.61338 0.08405 0.40036
 N219 N 0.41206 0.05451 0.44673
 N220 N 0.37930 0.08932 0.43637
 N221 N 0.44118 -0.04288 0.41228
 N222 N 0.43024 -0.07342 0.37923
 N223 N 0.40542 -0.03891 0.44717
 N224 N 0.36942 -0.06704 0.43903
 N225 N 0.44852 0.04984 0.41257
 N226 N 0.44179 0.08116 0.37835
 Mn227 Mn 0.40856 0.00803 0.50108
 Mn228 Mn 0.50065 -0.00322 0.41218
 Cl229 Cl 0.50122 -0.00328 0.50069
 C230 C 0.39891 0.10589 0.39386
 C231 C 0.38550 -0.08839 0.39653
 N232 N 0.59575 0.53117 0.05329
 N233 N 0.63050 0.56048 0.05961
 N234 N 0.55321 0.44305 0.08682
 N235 N 0.56322 0.41436 0.12319
 N236 N 0.59008 0.43919 0.05289
 N237 N 0.62662 0.40823 0.06592
 N238 N 0.55944 0.53576 0.08752
 N239 N 0.56837 0.56863 0.11816
 C240 C 0.61279 0.58356 0.10005
 C241 C 0.60859 0.39261 0.10933
 N242 N 0.40550 0.45962 0.05311
 N243 N 0.36964 0.43140 0.06122
 N244 N 0.44805 0.54855 0.08829
 N245 N 0.44151 0.57995 0.12251
 N246 N 0.41138 0.55312 0.05430
 N247 N 0.37870 0.58797 0.06473
 N248 N 0.44138 0.45575 0.08792
 N249 N 0.43065 0.42517 0.12092
 Mn250 Mn 0.50054 0.49575 0.08808
 C251 C 0.38593 0.41008 0.10360
 C252 C 0.39852 0.60464 0.10717
 N253 N 0.59100 0.44026 -0.05526
 N254 N 0.62810 0.40991 -0.06881
 N255 N 0.55968 0.53760 -0.08711
 N256 N 0.56615 0.57309 -0.11456
 N257 N 0.59593 0.53266 -0.05281
 N258 N 0.62819 0.56445 -0.05598
 N259 N 0.55427 0.44438 -0.08930
 N260 N 0.56496 0.41630 -0.12631
 Mn261 Mn 0.59357 0.48559 -0.00048
 C262 C 0.61070 0.39475 -0.11275
 C263 C 0.60908 0.58930 -0.09468
 N264 N 0.41177 0.55376 -0.05384
 N265 N 0.37960 0.58918 -0.06288
 N266 N 0.44188 0.45719 -0.08987
 N267 N 0.43185 0.42639 -0.12291
 N268 N 0.40608 0.46035 -0.05491
 N269 N 0.37123 0.43119 -0.06281
 N270 N 0.44848 0.54987 -0.08781
 N271 N 0.44256 0.58248 -0.12057
 Mn272 Mn 0.40796 0.50677 -0.00039
 Mn273 Mn 0.50107 0.49719 -0.08903
 Cl274 Cl 0.50061 0.49607 -0.00047
 C275 C 0.39984 0.60699 -0.10434
 C276 C 0.38781 0.41033 -0.10537
 N277 N 1.21035 0.16118 0.13024
 C278 C 1.18780 0.18477 0.16876
 N279 N 1.13936 0.17576 0.18345
 N280 N 1.11426 0.14464 0.16051
 C281 C 1.13676 0.12121 0.12207
 N282 N 1.18511 0.13013 0.10708
 N283 N 1.20594 0.66940 0.62431
 C284 C 1.19266 0.68389 0.67087
 N285 N 1.15239 0.66639 0.69441
 N286 N 1.12571 0.63605 0.67209
 C287 C 1.13886 0.62167 0.62565
 N288 N 1.17942 0.63871 0.60207
 N289 N 0.63553 0.18411 0.67351
 C290 C 0.68270 0.19509 0.65692
 N291 N 0.70462 0.17201 0.61763
 N292 N 0.68048 0.13936 0.59625
 C293 C 0.63395 0.12816 0.61383
 N294 N 0.61152 0.15151 0.65227
 N295 N 0.64317 0.67470 0.18252
 C296 C 0.69089 0.68413 0.16611
 N297 N 0.71259 0.66041 0.12736
 N298 N 0.68713 0.62881 0.10557
 C299 C 0.63951 0.61951 0.12224
 N300 N 0.61785 0.64305 0.16093
 N301 N 0.84341 -0.16738 0.19140
 C302 C 0.80617 -0.18804 0.16661
 N303 N 0.79366 -0.17462 0.11939
 N304 N 0.81732 -0.14186 0.09777
 C305 C 0.85478 -0.12148 0.12241
 N306 N 0.86748 -0.13490 0.16956
 N307 N 0.79796 0.32327 0.62402
 C308 C 0.80400 0.31220 0.67301
 N309 N 0.83641 0.33558 0.70115
 N310 N 0.86174 0.36826 0.68079
 C311 C 0.85499 0.37930 0.63179
 N312 N 0.82252 0.35618 0.60395
 N313 N 0.34943 -0.17057 0.69729
 C314 C 0.31324 -0.19171 0.67155
 N315 N 0.30245 -0.17907 0.62378
 N316 N 0.32664 -0.14650 0.60254
 C317 C 0.36296 -0.12555 0.62813
 N318 N 0.37412 -0.13825 0.67582
 N319 N 0.34337 0.33071 0.19758
 C320 C 0.30551 0.31097 0.17254
 N321 N 0.29438 0.32417 0.12499
 N322 N 0.31982 0.35579 0.10329
 C323 C 0.35789 0.37526 0.12809
 N324 N 0.36927 0.36211 0.17564
 N325 N 0.83255 0.21195 -0.17334
 C326 C 0.81251 0.19336 -0.21478
 N327 N 0.82028 0.14850 -0.22073
 N328 N 0.84629 0.12311 -0.18730
 C329 C 0.86516 0.14121 -0.14561
 N330 N 0.85842 0.18623 -0.13928
 N331 N 0.79931 0.69248 0.34203
 C332 C 0.82156 0.70119 0.29749
 N333 N 0.86961 0.68208 0.28729
 N334 N 0.89441 0.65511 0.32027
 C335 C 0.87184 0.64563 0.36436
 N336 N 0.82409 0.66534 0.37505
 N337 N 0.30056 0.19046 0.34586
 C338 C 0.32000 0.19906 0.30005
 N339 N 0.36667 0.17878 0.28674
 N340 N 0.39291 0.15097 0.31796
 C341 C 0.37311 0.14170 0.36336
 N342 N 0.32675 0.16247 0.37710
 N343 N 0.29992 0.68946 -0.15240
 C344 C 0.32137 0.70139 -0.19618
 N345 N 0.37011 0.68450 -0.20762
 N346 N 0.39629 0.65644 -0.17664
 C347 C 0.37444 0.64375 -0.13340
 N348 N 0.32611 0.66139 -0.12134
 N349 N 1.13833 -0.17666 -0.21974
 C350 C 1.18879 -0.18991 -0.21012
 N351 N 1.21166 -0.17407 -0.16885
 N352 N 1.18466 -0.14610 -0.13820
 C353 C 1.13409 -0.13312 -0.14797
 N354 N 1.11156 -0.14856 -0.18944
 N355 N 1.13367 0.31862 0.28906
 C356 C 1.18496 0.30668 0.29599
 N357 N 1.20972 0.32413 0.33531
 N358 N 1.18384 0.35240 0.36654
 C359 C 1.13248 0.36422 0.35929
 N360 N 1.10802 0.34703 0.31987
 N361 N 0.63752 -0.18234 0.28563
 C362 C 0.68895 -0.19387 0.29180
 N363 N 0.71405 -0.17713 0.33130
 N364 N 0.68828 -0.14978 0.36348
 C365 C 0.63675 -0.13839 0.35699
 N366 N 0.61198 -0.15488 0.31740
 N367 N 0.63739 0.31148 -0.21030
 C368 C 0.68998 0.30413 -0.20930
 N369 N 0.71694 0.32620 -0.17481
 N370 N 0.69188 0.35445 -0.14286
 C371 C 0.63920 0.36182 -0.14470
 N372 N 0.61256 0.33992 -0.17907
 N373 N 1.21359 0.16154 -0.12985
 C374 C 1.19157 0.18667 -0.16739
 N375 N 1.14267 0.17928 -0.18234
 N376 N 1.11660 0.14822 -0.16065
 C377 C 1.13858 0.12325 -0.12322
 N378 N 1.18735 0.13054 -0.10789
 N379 N 1.13928 0.67691 0.31665
 C380 C 1.18783 0.68571 0.33133
 N381 N 1.21029 0.66209 0.36983
 N382 N 1.18489 0.63116 0.39295
 C383 C 1.13645 0.62242 0.37795
 N384 N 1.11402 0.64592 0.33955
 N385 N 0.64322 0.17542 0.31829
 C386 C 0.69144 0.18426 0.33389
 N387 N 0.71362 0.16019 0.37214
 N388 N 0.68819 0.12872 0.39413
 C389 C 0.64011 0.11994 0.37818
 N390 N 0.61793 0.14390 0.34006
 N391 N 0.63492 0.68377 -0.17397
 C392 C 0.68218 0.69469 -0.15741
 N393 N 0.70400 0.67169 -0.11804
 N394 N 0.67974 0.63919 -0.09659
 C395 C 0.63311 0.62804 -0.11413
 N396 N 0.61077 0.65132 -0.15265
 N397 N 0.79713 -0.17628 -0.12455
 C398 C 0.80316 -0.18767 -0.17347
 N399 N 0.83571 -0.16454 -0.20167
 N400 N 0.86114 -0.13179 -0.18147
 C401 C 0.85440 -0.12042 -0.13254
 N402 N 0.82181 -0.14330 -0.10463
 N403 N 0.79359 0.32613 0.37978
 C404 C 0.80598 0.31253 0.33260
 N405 N 0.84324 0.33302 0.30773
 N406 N 0.86744 0.36554 0.32947
 C407 C 0.85485 0.37912 0.37660
 N408 N 0.81737 0.35890 0.40131
 N409 N 0.34322 -0.16815 0.30253
 C410 C 0.30529 -0.18784 0.32743
 N411 N 0.29395 -0.17441 0.37489
 N412 N 0.31926 -0.14266 0.39664
 C413 C 0.35740 -0.12325 0.37197
 N414 N 0.36897 -0.13661 0.32450
 N415 N 0.30508 0.31759 -0.12394
 C416 C 0.30970 0.30946 -0.17372
 N417 N 0.34080 0.33467 -0.20097
 N418 N 0.36628 0.36644 -0.17919
 C419 C 0.36096 0.37471 -0.12953
 N420 N 0.32982 0.34974 -0.10236
 N421 N 1.13408 -0.18169 0.20987
 C422 C 1.18543 -0.19346 0.20317
 N423 N 1.21016 -0.17616 0.16380
 N424 N 1.18417 -0.14820 0.13232
 C425 C 1.13273 -0.13657 0.13935
 N426 N 1.10833 -0.15361 0.17882
 N427 N 1.21322 0.32558 0.66726
 C428 C 1.18985 0.30928 0.70796
 N429 N 1.13917 0.32221 0.71689
 N430 N 1.11263 0.35035 0.68655
 C431 C 1.13559 0.36626 0.64566
 N432 N 1.18642 0.35364 0.63651
 N433 N 0.71702 -0.17459 0.67418
 C434 C 0.68983 -0.19691 0.70822
 N435 N 0.63721 -0.18979 0.70866
 N436 N 0.61258 -0.16128 0.67739
 C437 C 0.63945 -0.13909 0.64352
 N438 N 0.69216 -0.14628 0.64219
 N439 N 0.71455 0.32227 0.16781
 C440 C 0.68926 0.30504 0.20684
 N441 N 0.63766 0.31603 0.21248
 N442 N 0.61214 0.34346 0.18071
 C443 C 0.63711 0.36050 0.14164
 N444 N 0.68879 0.34962 0.13562
 N445 N 0.87002 0.18028 0.21417
 C446 C 0.82281 0.20071 0.20320
 N447 N 0.80132 0.19320 0.15794
 N448 N 0.82602 0.16592 0.12497
 C449 C 0.87292 0.14493 0.13643
 N450 N 0.89478 0.15323 0.18123
 N451 N 0.83191 0.71110 0.67324
 C452 C 0.81313 0.69290 0.71543
 N453 N 0.82239 0.64829 0.72240
 N454 N 0.84861 0.62275 0.68921
 C455 C 0.86613 0.64042 0.64674
 N456 N 0.85788 0.68521 0.63938
 N457 N 0.30298 0.19100 0.65619
 C458 C 0.32355 0.20052 0.70128
 N459 N 0.37091 0.18110 0.71371
 N460 N 0.39671 0.15313 0.68232
 C461 C 0.37577 0.14291 0.63767
 N462 N 0.32874 0.16289 0.62478
 N463 N 0.30111 0.69035 0.15470
 C464 C 0.32056 0.69893 0.20056
 N465 N 0.36691 0.67817 0.21409
 N466 N 0.39286 0.64997 0.18304
 C467 C 0.37303 0.64073 0.13759
 N468 N 0.32698 0.66195 0.12364
   
