data_POSCAR
  _audit_creation_date              2014-09-24
  _audit_creation_method            'ToBaCCo'
  _symmetry_space_group_name_H-M    'P1'
  _symmetry_Int_Tables_number       1
  _symmetry_cell_setting            triclinic
  loop_
  _symmetry_equiv_pos_as_xyz
 x,y,z
_cell_length_a 24.6563
_cell_length_b 24.4621
_cell_length_c 40.9690
_cell_angle_alpha 89.870500
_cell_angle_beta 90.852400
_cell_angle_gamma 98.326700
loop_
  _atom_site_label
  _atom_site_type_symbol
  _atom_site_fract_x
  _atom_site_fract_y
  _atom_site_fract_z
C1 C 0.00433 0.33453 0.97685
 C2 C 0.00428 0.33120 1.01021
 C3 C -0.01212 0.37958 1.02162
 N4 N -0.02061 0.41295 0.99629
 C5 C -0.01045 0.38545 0.96893
 C6 C -0.02221 0.39103 1.05473
 C7 C -0.02690 0.44535 1.06535
 C8 C -0.05323 0.45780 1.09349
 C9 C -0.04829 0.51436 1.09529
 C10 C -0.01866 0.53529 1.06835
 N11 N -0.00633 0.49283 1.04997
 C12 C -0.00304 0.59241 1.06158
 C13 C 0.01186 0.61110 1.02970
 C14 C 0.04067 0.66252 1.02213
 C15 C 0.04247 0.66577 0.98876
 C16 C 0.01547 0.61599 0.97703
 N17 N -0.00307 0.58248 1.00204
 C18 C 0.00527 0.60338 0.94371
 C19 C -0.01255 0.54913 0.93264
 C20 C -0.03352 0.53518 0.90168
 C21 C -0.04012 0.47848 0.89970
 C22 C -0.02342 0.45952 0.92960
 N23 N -0.00671 0.50282 0.94950
 C24 C -0.01838 0.40416 0.93687
 H25 H 0.01417 0.30297 0.96040
 H26 H 0.01480 0.29678 1.02440
 H27 H 0.01420 0.50125 0.97164
 H28 H -0.07478 0.42906 1.11064
 H29 H -0.06542 0.53736 1.11412
 H30 H 0.05849 0.69448 1.03892
 H31 H 0.06158 0.70070 0.97473
 H32 H -0.05430 0.45421 0.87838
 H33 H 0.01885 0.49610 1.02965
 H34 H -0.04197 0.56298 0.88228
 C35 C 0.66973 0.03329 0.52047
 C36 C 0.67135 0.03458 0.48707
 C37 C 0.61970 0.01161 0.47577
 N38 N 0.58633 -0.00274 0.50128
 C39 C 0.61690 0.01065 0.52858
 C40 C 0.60443 0.00299 0.44242
 C41 C 0.54872 -0.01004 0.43225
 C42 C 0.53115 -0.03298 0.40225
 C43 C 0.47512 -0.03640 0.40114
 C44 C 0.45962 -0.01673 0.43077
 N45 N 0.50469 -0.00057 0.44958
 C46 C 0.40525 -0.01096 0.43885
 C47 C 0.38825 -0.00408 0.47112
 C48 C 0.33642 0.00589 0.47975
 C49 C 0.33501 0.00449 0.51317
 C50 C 0.38585 -0.00681 0.52386
 N51 N 0.41827 -0.01213 0.49810
 C52 C 0.40007 -0.01599 0.55677
 C53 C 0.45412 -0.02054 0.56732
 C54 C 0.46829 -0.03863 0.59798
 C55 C 0.52459 -0.03419 0.59912
 C56 C 0.54317 -0.01382 0.56907
 N57 N 0.50008 -0.00526 0.54994
 C58 C 0.59884 -0.00004 0.56082
 H59 H 0.70350 0.04778 0.53691
 H60 H 0.70659 0.05097 0.47280
 H61 H 0.50250 0.01553 0.52776
 H62 H 0.55606 -0.04596 0.38302
 H63 H 0.44893 -0.05174 0.38076
 H64 H 0.30273 0.01250 0.46370
 H65 H 0.30020 0.01032 0.52787
 H66 H 0.54907 -0.04435 0.61981
 H67 H 0.50576 0.02122 0.47141
 H68 H 0.44097 -0.05308 0.61761
 C69 C 0.10709 0.04815 0.26876
 H70 H 0.10082 0.08028 0.25156
 C71 C 0.15588 0.05254 0.28701
 H72 H 0.18695 0.08795 0.28330
 C73 C 0.07483 -0.03750 0.29383
 H74 H 0.04273 -0.07232 0.29651
 C75 C 0.12245 -0.03438 0.31291
 H76 H 0.12592 -0.06673 0.33055
 N77 N 0.06737 0.00405 0.27288
 C78 C -0.05618 -0.07568 0.20366
 H79 H -0.08804 -0.04995 0.20482
 C80 C -0.06199 -0.11981 0.18171
 H81 H -0.09921 -0.12837 0.16712
 C82 C 0.03173 -0.09449 0.21991
 H83 H 0.06902 -0.08376 0.23403
 C84 C 0.02768 -0.13893 0.19822
 H85 H 0.06199 -0.16169 0.19608
 Zn86 Zn -0.00101 -0.00039 0.25032
 N87 N -0.00989 -0.06374 0.22235
 C88 C -0.00014 0.06174 0.19195
 N89 N -0.00250 0.06416 0.22503
 C90 C -0.00616 0.11247 0.24066
 C91 C -0.00789 0.16099 0.22282
 C92 C -0.00195 0.10914 0.17319
 C93 C -0.04548 -0.00130 0.31388
 C94 C -0.08645 -0.00429 0.33718
 C95 C -0.15395 -0.01080 0.29361
 C96 C -0.11157 -0.00764 0.27109
 N97 N -0.05848 -0.00443 0.28144
 H98 H 0.00363 0.02314 0.18003
 H99 H -0.00792 0.11318 0.26702
 H100 H -0.01140 0.19897 0.23561
 H101 H 0.00067 0.10648 0.14689
 H102 H -0.00328 0.00458 0.32200
 H103 H -0.07494 -0.00138 0.36279
 H104 H -0.19595 -0.01453 0.28482
 H105 H -0.12131 -0.00700 0.24539
 C106 C -0.01950 -0.15187 0.17854
 C107 C 0.16371 0.01139 0.30994
 C108 C -0.14160 -0.00971 0.32719
 C109 C -0.00606 0.15960 0.18859
 C110 C 0.05183 0.11627 0.76552
 H111 H 0.08449 0.11172 0.74893
 C112 C 0.05356 0.16516 0.78332
 H113 H 0.08766 0.19780 0.78000
 C114 C -0.03304 0.08020 0.78904
 H115 H -0.06648 0.04656 0.79126
 C116 C -0.03254 0.12788 0.80770
 H117 H -0.06549 0.12987 0.82460
 N118 N 0.00977 0.07435 0.76948
 C119 C 0.06723 -0.00465 0.69033
 H120 H 0.02722 -0.01221 0.67873
 C121 C 0.11400 -0.00509 0.67159
 H122 H 0.10955 -0.01211 0.64553
 C123 C 0.12183 0.01337 0.73827
 H124 H 0.12434 0.02003 0.76438
 C125 C 0.16971 0.01392 0.72039
 H126 H 0.20913 0.02091 0.73287
 Zn127 Zn 0.00865 0.00522 0.74857
 N128 N 0.07195 0.00508 0.72299
 C129 C -0.06304 0.03475 0.70062
 N130 N -0.05541 -0.00638 0.72184
 C131 C -0.09295 -0.05279 0.72421
 C132 C -0.13960 -0.05979 0.70400
 C133 C -0.10945 0.02978 0.68030
 C134 C 0.00885 -0.03884 0.81272
 C135 C 0.00612 -0.08049 0.83617
 C136 C 0.00540 -0.14745 0.79287
 C137 C 0.00785 -0.10442 0.77018
 N138 N 0.00807 -0.05148 0.78037
 H139 H -0.03282 0.07144 0.69947
 H140 H -0.08698 -0.08446 0.74173
 H141 H -0.16901 -0.09704 0.70602
 H142 H -0.11453 0.06262 0.66326
 H143 H 0.01161 0.00351 0.82058
 H144 H 0.00629 -0.06962 0.86178
 H145 H 0.00361 -0.18954 0.78433
 H146 H 0.00857 -0.11329 0.74434
 C147 C 0.16607 0.00466 0.68658
 C148 C 0.01174 0.17090 0.80549
 C149 C 0.00357 -0.13569 0.82634
 C150 C -0.14821 -0.01815 0.68171
 C151 C 0.01734 -0.37619 0.11822
 C152 C -0.00435 -0.36797 0.08683
 C153 C -0.02696 -0.31902 0.08088
 C154 C -0.02648 -0.27871 0.10518
 C155 C -0.00372 -0.28715 0.13628
 C156 C 0.01764 -0.33625 0.14264
 C157 C -0.00229 -0.24612 0.16037
 C158 C -0.02314 -0.19655 0.15369
 C159 C -0.04615 -0.18906 0.12266
 C160 C -0.04795 -0.22977 0.09870
 H161 H -0.04560 -0.31250 0.05731
 H162 H 0.03533 -0.34344 0.16635
 H163 H 0.01497 -0.25280 0.18429
 H164 H -0.06544 -0.22259 0.07492
 H165 H 0.03583 -0.41280 0.12362
 H166 H -0.06167 -0.15105 0.11660
 C167 C -0.06330 0.29663 0.06923
 C168 C -0.02988 0.34665 0.07741
 C169 C -0.00277 0.35082 0.10808
 C170 C -0.00600 0.30489 0.12901
 C171 C -0.03785 0.25448 0.11967
 C172 C -0.06723 0.25116 0.09009
 C173 C -0.03888 0.20778 0.13967
 C174 C -0.00794 0.21033 0.16886
 C175 C 0.02249 0.26102 0.17842
 C176 C 0.02341 0.30790 0.15869
 H177 H 0.02331 0.38879 0.11485
 H178 H -0.09247 0.21305 0.08277
 H179 H -0.06331 0.16920 0.13232
 H180 H 0.04806 0.34618 0.16630
 H181 H -0.08645 0.29264 0.04646
 H182 H 0.04690 0.26402 0.20070
 C183 C 0.31267 -0.06756 0.57805
 C184 C 0.35541 -0.02315 0.58105
 C185 C 0.35394 0.01598 0.60592
 C186 C 0.30906 0.01186 0.62695
 C187 C 0.26529 -0.03200 0.62303
 C188 C 0.26790 -0.07194 0.59884
 C189 C 0.21921 -0.03466 0.64296
 C190 C 0.21619 0.00585 0.66688
 C191 C 0.26054 0.04840 0.67119
 C192 C 0.30653 0.05147 0.65134
 H193 H 0.38697 0.05026 0.60822
 H194 H 0.23490 -0.10598 0.59563
 H195 H 0.18552 -0.06807 0.63977
 H196 H 0.33971 0.08529 0.65475
 H197 H 0.31349 -0.09812 0.55904
 H198 H 0.25896 0.08019 0.68936
 C199 C -0.34670 0.05116 0.60592
 C200 C -0.35908 0.00297 0.58719
 C201 C -0.32907 -0.04096 0.59203
 C202 C -0.28600 -0.03640 0.61509
 C203 C -0.27264 0.01292 0.63329
 C204 C -0.30367 0.05619 0.62880
 C205 C -0.22800 0.01841 0.65530
 C206 C -0.19683 -0.02493 0.65961
 C207 C -0.21139 -0.07428 0.64205
 C208 C -0.25544 -0.07990 0.61987
 H209 H -0.33875 -0.07810 0.57742
 H210 H -0.29415 0.09416 0.64263
 H211 H -0.21741 0.05636 0.66905
 H212 H -0.26521 -0.11800 0.60620
 H213 H -0.36956 0.08533 0.60220
 H214 H -0.18772 -0.10803 0.64489
 C215 C 0.04965 -0.35172 0.89384
 C216 C 0.01245 -0.35107 0.91941
 C217 C -0.01874 -0.30761 0.92151
 C218 C -0.01309 -0.26520 0.89820
 C219 C 0.02406 -0.26638 0.87231
 C220 C 0.05536 -0.30975 0.87042
 C221 C 0.02924 -0.22418 0.84879
 C222 C -0.00189 -0.18055 0.85098
 C223 C -0.03846 -0.17974 0.87692
 C224 C -0.04411 -0.22172 0.90027
 H225 H -0.04762 -0.30719 0.94119
 H226 H 0.08414 -0.31127 0.85082
 H227 H 0.05797 -0.22486 0.82907
 H228 H -0.07281 -0.22023 0.91992
 H229 H 0.07407 -0.38498 0.89199
 H230 H -0.06331 -0.14688 0.87889
 C231 C -0.07290 0.34069 0.89688
 C232 C -0.02172 0.36382 0.90976
 C233 C 0.02623 0.34716 0.89772
 C234 C 0.02305 0.30611 0.87365
 C235 C -0.02866 0.28255 0.86091
 C236 C -0.07636 0.30066 0.87238
 C237 C -0.03194 0.24026 0.83758
 C238 C 0.01563 0.21977 0.82748
 C239 C 0.06686 0.24414 0.84013
 C240 C 0.07056 0.28716 0.86275
 H241 H 0.06571 0.36507 0.90782
 H242 H -0.11634 0.28303 0.86293
 H243 H -0.07168 0.22281 0.82771
 H244 H 0.11048 0.30458 0.87239
 H245 H -0.11012 0.35337 0.90607
 H246 H 0.10417 0.22880 0.83340
 C247 C -0.35804 0.03656 0.38960
 C248 C -0.35408 0.00601 0.41855
 C249 C -0.30844 -0.02200 0.42310
 C250 C -0.26769 -0.01942 0.39941
 C251 C -0.27215 0.01163 0.37063
 C252 C -0.31747 0.03945 0.36598
 C253 C -0.23114 0.01446 0.34703
 C254 C -0.18563 -0.01348 0.35178
 C255 C -0.18197 -0.04464 0.38042
 C256 C -0.22256 -0.04756 0.40401
 H257 H -0.30530 -0.04695 0.44478
 H258 H -0.32151 0.06359 0.34409
 H259 H -0.23420 0.03916 0.32526
 H260 H -0.21863 -0.07183 0.42586
 H261 H -0.39216 0.05924 0.38554
 H262 H -0.14780 -0.06722 0.38448
 C263 C 0.34016 -0.06779 0.40066
 C264 C 0.36309 -0.01564 0.41245
 C265 C 0.34429 0.03191 0.40019
 C266 C 0.30179 0.02735 0.37677
 C267 C 0.27882 -0.02533 0.36496
 C268 C 0.29871 -0.07261 0.37680
 C269 C 0.23544 -0.03003 0.34214
 C270 C 0.21322 0.01703 0.33164
 C271 C 0.23686 0.06925 0.34340
 C272 C 0.28098 0.07439 0.36552
 H273 H 0.36183 0.07212 0.40958
 H274 H 0.28145 -0.11332 0.36811
 H275 H 0.21859 -0.07051 0.33293
 H276 H 0.29791 0.11505 0.37445
 H277 H 0.35425 -0.10474 0.41013
 H278 H 0.22027 0.10620 0.33630
   
