data_POSCAR
  _audit_creation_date              2014-09-24
  _audit_creation_method            'ToBaCCo'
  _symmetry_space_group_name_H-M    'P1'
  _symmetry_Int_Tables_number       1
  _symmetry_cell_setting            triclinic
  loop_
  _symmetry_equiv_pos_as_xyz
 x,y,z
_cell_length_a 27.5696
_cell_length_b 27.0237
_cell_length_c 26.6894
_cell_angle_alpha 91.126300
_cell_angle_beta 90.121600
_cell_angle_gamma 89.704200
loop_
  _atom_site_label
  _atom_site_type_symbol
  _atom_site_fract_x
  _atom_site_fract_y
  _atom_site_fract_z
C1 C 0.13746 0.16620 0.19764
 C2 C 0.13090 0.19846 0.15753
 C3 C 0.16637 0.20196 0.12126
 C4 C 0.20832 0.17297 0.12394
 C5 C 0.21564 0.14203 0.16394
 C6 C 0.17983 0.13867 0.20131
 C7 C 0.10904 0.15522 0.23828
 N8 N 0.13311 0.12179 0.26690
 C9 C 0.17654 0.11184 0.24465
 C10 C 0.25966 0.11856 0.15597
 N11 N 0.27828 0.13403 0.11159
 C12 C 0.24698 0.16731 0.09202
 C13 C 0.15222 0.23793 0.08862
 N14 N 0.10897 0.25653 0.10429
 C15 C 0.09511 0.23218 0.14584
 H16 H 0.07391 0.17140 0.24647
 H17 H 0.20365 0.08646 0.25870
 H18 H 0.27539 0.09060 0.17960
 H19 H 0.25164 0.18552 0.05655
 H20 H 0.17235 0.25048 0.05651
 H21 H 0.06252 0.24006 0.16719
 C22 C -0.14184 0.82894 0.21757
 C23 C -0.13271 0.79580 0.17742
 C24 C -0.15865 0.80019 0.13317
 C25 C -0.19494 0.83620 0.12897
 C26 C -0.20473 0.86778 0.16893
 C27 C -0.17726 0.86502 0.21290
 C28 C -0.11944 0.83707 0.26318
 N29 N -0.13975 0.87807 0.28535
 C30 C -0.17538 0.89493 0.25497
 C31 C -0.24360 0.89669 0.15576
 N32 N -0.25775 0.88318 0.10856
 C33 C -0.22733 0.84707 0.09143
 C34 C -0.14154 0.76487 0.10010
 N35 N -0.10646 0.73859 0.12325
 C36 C -0.10044 0.75706 0.17055
 H37 H -0.08829 0.81691 0.27694
 H38 H -0.19683 0.92806 0.26189
 H39 H -0.26034 0.92505 0.17922
 H40 H -0.23030 0.82818 0.05538
 H41 H -0.15387 0.75840 0.06198
 H42 H -0.07417 0.74382 0.19741
 C43 C -0.16441 0.18189 -0.21897
 C44 C -0.16013 0.21511 -0.17839
 C45 C -0.19576 0.21747 -0.14202
 C46 C -0.23550 0.18536 -0.14527
 C47 C -0.24017 0.15311 -0.18596
 C48 C -0.20452 0.15170 -0.22338
 C49 C -0.13379 0.17005 -0.25785
 N50 N -0.15444 0.13337 -0.28620
 C51 C -0.19801 0.12235 -0.26567
 C52 C -0.27969 0.12368 -0.17721
 N53 N -0.29846 0.13664 -0.13163
 C54 C -0.27180 0.17449 -0.11211
 C55 C -0.18165 0.25272 -0.10697
 N56 N -0.13832 0.27121 -0.12150
 C57 C -0.12453 0.24802 -0.16459
 H58 H -0.09920 0.18734 -0.26474
 H59 H -0.22228 0.09371 -0.27936
 H60 H -0.29131 0.09291 -0.20076
 H61 H -0.27711 0.19139 -0.07537
 H62 H -0.20091 0.26360 -0.07317
 H63 H -0.09121 0.25504 -0.18460
 C64 C 0.13796 0.82507 -0.21272
 C65 C 0.13722 0.78924 -0.17525
 C66 C 0.17385 0.78816 -0.13963
 C67 C 0.21219 0.82215 -0.14155
 C68 C 0.21287 0.85724 -0.17861
 C69 C 0.17570 0.85854 -0.21467
 C70 C 0.10624 0.83639 -0.25083
 N71 N 0.12409 0.87526 -0.27647
 C72 C 0.16675 0.88905 -0.25454
 C73 C 0.25301 0.88636 -0.17019
 N74 N 0.27726 0.86951 -0.12949
 C75 C 0.25248 0.83004 -0.11169
 C76 C 0.16263 0.75130 -0.10671
 N77 N 0.12086 0.72933 -0.12207
 C78 C 0.10491 0.75224 -0.16391
 H79 H 0.07245 0.81768 -0.25927
 H80 H 0.18914 0.91976 -0.26548
 H81 H 0.26375 0.91781 -0.19208
 H82 H 0.26192 0.80929 -0.07879
 H83 H 0.18322 0.74121 -0.07382
 H84 H 0.07162 0.74355 -0.18373
 C85 C 0.18144 1.13257 0.79600
 C86 C 0.20551 1.12585 0.84155
 C87 C 0.19787 1.15849 0.88132
 C88 C 0.16616 1.19888 0.87552
 C89 C 0.14361 1.20656 0.82982
 C90 C 0.15124 1.17297 0.78968
 C91 C 0.17899 1.10385 0.75309
 N92 N 0.14821 1.12572 0.72049
 C93 C 0.13150 1.16859 0.74223
 C94 C 0.11520 1.24847 0.83513
 N95 N 0.11960 1.26606 0.88311
 C96 C 0.15052 1.23580 0.90795
 C97 C 0.22779 1.14368 0.91991
 N98 N 0.25392 1.10378 0.90365
 C99 C 0.23995 1.09219 0.85608
 H100 H 0.19669 1.06837 0.74687
 H101 H 0.10427 1.19285 0.72662
 H102 H 0.09206 1.26378 0.80648
 H103 H 0.16089 1.24032 0.94695
 H104 H 0.23243 1.16229 0.95589
 H105 H 0.25531 1.06267 0.83302
 C106 C 0.84874 0.87901 0.80324
 C107 C 0.80503 0.87314 0.82916
 C108 C 0.79958 0.83444 0.86200
 C109 C 0.83862 0.80152 0.86980
 C110 C 0.88251 0.80953 0.84619
 C111 C 0.88755 0.84818 0.81271
 C112 C 0.86216 0.90910 0.76474
 N113 N 0.90829 0.89692 0.75072
 C114 C 0.92455 0.86072 0.78099
 C115 C 0.91397 0.77286 0.85987
 N116 N 0.89032 0.74149 0.89014
 C117 C 0.84411 0.75871 0.89687
 C118 C 0.75420 0.83991 0.88350
 N119 N 0.73294 0.88135 0.86505
 C120 C 0.76364 0.90159 0.83169
 H121 H 0.83936 0.93669 0.74746
 H122 H 0.95930 0.84208 0.77739
 H123 H 0.95104 0.76820 0.84712
 H124 H 0.81662 0.74173 0.91964
 H125 H 0.73948 0.81784 0.91323
 H126 H 0.75747 0.93627 0.81298
 C127 C 0.19539 0.84516 1.22459
 C128 C 0.23020 0.84067 1.18657
 C129 C 0.22290 0.80781 1.14692
 C130 C 0.18148 0.77828 1.14530
 C131 C 0.14654 0.78333 1.18217
 C132 C 0.15338 0.81740 1.22188
 C133 C 0.19173 0.87589 1.26612
 N134 N 0.14810 0.86835 1.28805
 C135 C 0.12444 0.83237 1.26128
 C136 C 0.10956 0.75121 1.16976
 N137 N 0.12220 0.72620 1.12716
 C138 C 0.16582 0.74286 1.11156
 C139 C 0.25883 0.81553 1.11248
 N140 N 0.28790 0.85197 1.13045
 C141 C 0.27105 0.86747 1.17591
 H142 H 0.21807 0.90319 1.27837
 H143 H 0.08894 0.81780 1.26956
 H144 H 0.07647 0.74558 1.19062
 H145 H 0.18463 0.73015 1.07810
 H146 H 0.26209 0.79796 1.07581
 H147 H 0.28520 0.89845 1.19764
 C148 C 0.81831 1.14878 1.21732
 C149 C 0.77844 1.14874 1.18432
 C150 C 0.77874 1.17891 1.14288
 C151 C 0.81807 1.21049 1.13468
 C152 C 0.85676 1.21097 1.16773
 C153 C 0.85734 1.17929 1.20847
 C154 C 0.82966 1.12181 1.25917
 N155 N 0.87500 1.13489 1.27502
 C156 C 0.89198 1.16996 1.24408
 C157 C 0.88873 1.24627 1.15225
 N158 N 0.87042 1.26717 1.11046
 C159 C 0.82766 1.24512 1.09879
 C160 C 0.73676 1.16980 1.11638
 N161 N 0.71093 1.13502 1.14074
 C162 C 0.73584 1.12221 1.18250
 H163 H 0.80729 1.09345 1.27523
 H164 H 0.92733 1.18714 1.24701
 H165 H 0.92261 1.25640 1.17021
 H166 H 0.80460 1.25479 1.06755
 H167 H 0.72592 1.18695 1.08175
 H168 H 0.72443 1.09453 1.20873
 O169 O 0.56618 0.89234 0.91487
 O170 O 0.61999 0.94787 0.94956
 C171 C 0.60970 0.90965 0.92144
 O172 O 0.41984 1.06286 0.91000
 O173 O 0.37355 1.02199 0.96726
 C174 C 0.37854 1.05102 0.92949
 O175 O 0.55442 1.06363 0.89173
 O176 O 0.61455 1.03025 0.94051
 C177 C 0.59957 1.05606 0.90305
 O178 O 0.43033 0.88501 0.93085
 O179 O 0.37876 0.93676 0.97496
 C180 C 0.38738 0.89898 0.94562
 Zr181 Zr 0.49896 0.91844 0.94472
 O182 O 0.48753 0.90906 0.86662
 O183 O 0.50756 0.84115 0.95283
 Zr184 Zr 0.49126 1.04252 0.93067
 O185 O 0.47884 1.03379 0.85275
 O186 O 0.49209 1.12042 0.92350
 O187 O 0.53722 0.98102 0.92353
 O188 O 0.45253 0.97750 0.93280
 O189 O 0.44613 0.91075 1.10509
 O190 O 0.38635 0.94642 1.05754
 C191 C 0.40107 0.91849 1.09353
 O192 O 0.57261 1.08788 1.07572
 O193 O 0.62304 1.04152 1.02477
 C194 C 0.61517 1.07598 1.05811
 O195 O 0.43618 1.08500 1.08709
 O196 O 0.38177 1.03141 1.05013
 C197 C 0.39262 1.06827 1.07974
 O198 O 0.58080 0.92609 1.09843
 O199 O 0.62727 0.95965 1.03663
 C200 C 0.62215 0.93658 1.07836
 Zr201 Zr 0.51003 0.93552 1.06962
 O202 O 0.51334 0.93682 1.14872
 O203 O 0.52057 0.85783 1.07122
 Zr204 Zr 0.50292 1.05972 1.05591
 O205 O 0.50606 1.07348 1.13418
 O206 O 0.50242 1.13677 1.04281
 Zr207 Zr 0.57256 0.99228 0.99291
 Zr208 Zr 0.42911 0.98619 1.00747
 O209 O 0.46573 0.99695 1.07611
 O210 O 0.54996 1.00085 1.06813
 O211 O 0.46180 0.91568 1.01263
 O212 O 0.53846 1.06191 0.98796
 O213 O 0.54731 0.91999 1.00427
 O214 O 0.45337 1.05901 0.99663
 H215 H 0.42820 0.97280 0.90577
 H216 H 0.55865 1.09154 0.98246
 H217 H 0.44731 0.99955 1.10789
 H218 H 0.57144 0.89279 1.00618
 H219 H 0.46489 1.13412 0.94360
 H220 H 0.46956 1.14572 1.03093
 H221 H 0.53224 1.05238 1.14769
 H222 H 0.51447 0.97203 1.15928
 H223 H 0.48853 0.84206 1.06646
 H224 H 0.48477 0.83080 0.97916
 H225 H 0.51509 0.92454 0.84929
 H226 H 0.50128 1.00768 0.84036
 O227 O 0.05982 0.56691 -0.11071
 O228 O 0.03283 0.62157 -0.04990
 C229 C 0.05441 0.61135 -0.09201
 O230 O -0.11420 0.43617 -0.06639
 O231 O -0.05939 0.37890 -0.03818
 C232 C -0.09966 0.39098 -0.05993
 O233 O -0.10540 0.57495 -0.06627
 O234 O -0.04708 0.62537 -0.03144
 C235 C -0.08706 0.61815 -0.05606
 O236 O 0.06062 0.42719 -0.11068
 O237 O 0.02464 0.37423 -0.05579
 C238 C 0.05111 0.38319 -0.09464
 Zr239 Zr 0.04142 0.49760 -0.07955
 O240 O 0.02454 0.49416 -0.15693
 O241 O 0.11680 0.49689 -0.09378
 Zr242 Zr -0.07762 0.50347 -0.05012
 O243 O -0.09092 0.50004 -0.12830
 O244 O -0.15278 0.51152 -0.03652
 O245 O -0.01838 0.54507 -0.07279
 O246 O -0.02204 0.45753 -0.07514
 O247 O 0.09943 0.42313 0.05655
 O248 O 0.03991 0.37246 0.02437
 C249 C 0.08072 0.37985 0.04739
 O250 O -0.06186 0.56998 0.10909
 O251 O -0.02823 0.62283 0.05276
 C252 C -0.05167 0.61396 0.09358
 O253 O -0.07263 0.43101 0.10073
 O254 O -0.04231 0.37620 0.04172
 C255 C -0.06673 0.38669 0.08197
 O256 O 0.10194 0.56250 0.06739
 O257 O 0.04917 0.61980 0.03514
 C258 C 0.08722 0.60762 0.06074
 Zr259 Zr 0.07016 0.49457 0.04365
 O260 O 0.08727 0.48706 0.12051
 O261 O 0.14483 0.49546 0.02557
 Zr262 Zr -0.04880 0.50010 0.07360
 O263 O -0.03049 0.49265 0.15017
 O264 O -0.12293 0.50896 0.09254
 Zr265 Zr -0.00055 0.57230 -0.00054
 Zr266 Zr -0.00713 0.42568 -0.00549
 O267 O 0.01082 0.45418 0.06606
 O268 O 0.01479 0.54113 0.06960
 O269 O 0.06285 0.45177 -0.02161
 O270 O -0.07001 0.54478 0.01544
 O271 O 0.06629 0.53867 -0.01860
 O272 O -0.07454 0.45853 0.01257
 H273 H -0.02927 0.43527 -0.10411
 H274 H -0.09689 0.56808 0.02338
 H275 H 0.01633 0.43095 0.09379
 H276 H 0.09494 0.55977 -0.02444
 H277 H -0.15977 0.49345 -0.00555
 H278 H -0.14096 0.48153 0.07613
 H279 H -0.00723 0.51919 0.15895
 H280 H 0.07345 0.51608 0.13869
 H281 H 0.14910 0.47418 -0.00471
 H282 H 0.12032 0.49687 -0.13072
 H283 H 0.00025 0.52039 -0.16320
 H284 H -0.08122 0.53213 -0.14233
 O285 O 1.08687 -0.08098 0.42793
 O286 O 1.03310 -0.04280 0.37493
 C287 C 1.06771 -0.07394 0.38404
 O288 O 0.92085 -0.06904 0.58366
 O289 O 0.97358 -0.02278 0.63156
 C290 C 0.93742 -0.05288 0.62637
 O291 O 0.92225 -0.09434 0.44465
 O292 O 0.95488 -0.04697 0.38284
 C293 C 0.92927 -0.08375 0.39805
 O294 O 1.10429 -0.06401 0.56754
 O295 O 1.05850 -0.01873 0.62395
 C296 C 1.09347 -0.04920 0.61278
 Zr297 Zr 1.06906 -0.04825 0.49873
 O298 O 1.07878 -0.12526 0.50794
 O299 O 1.14415 -0.03719 0.48833
 Zr300 Zr 0.94755 -0.05767 0.51068
 O301 O 0.95934 -0.13371 0.52471
 O302 O 0.87220 -0.07158 0.51130
 O303 O 1.00506 -0.06634 0.46104
 O304 O 1.01269 -0.05826 0.54889
 O305 O 1.08867 0.10863 0.55666
 O306 O 1.05295 0.06320 0.61846
 C307 C 1.08164 0.09764 0.60333
 O308 O 0.90254 0.08512 0.43467
 O309 O 0.94683 0.03841 0.37823
 C310 C 0.91254 0.06966 0.38961
 O311 O 0.91359 0.09334 0.57436
 O312 O 0.96999 0.05864 0.62673
 C313 C 0.93254 0.08628 0.61825
 O314 O 1.07338 0.09864 0.41626
 O315 O 1.02731 0.04430 0.36920
 C316 C 1.05701 0.08118 0.37377
 Zr317 Zr 1.05852 0.07583 0.49046
 O318 O 1.05257 0.15390 0.48907
 O319 O 1.13437 0.07968 0.47915
 Zr320 Zr 0.93685 0.06702 0.50278
 O321 O 0.93669 0.14504 0.49887
 O322 O 0.86020 0.06449 0.50658
 Zr323 Zr 0.99589 0.00279 0.42666
 Zr324 Zr 1.00959 0.01569 0.57468
 O325 O 1.00082 0.08417 0.53940
 O326 O 0.99269 0.07712 0.45154
 O327 O 1.07712 0.01841 0.53818
 O328 O 0.92925 0.00004 0.46460
 O329 O 1.06842 0.01042 0.45011
 O330 O 0.93677 0.00809 0.55142
 H331 H 1.01632 -0.08449 0.57407
 H332 H 0.89888 -0.00463 0.44522
 H333 H 1.00034 0.11504 0.56005
 H334 H 1.09428 0.01022 0.42438
 H335 H 0.85605 -0.03935 0.51759
 H336 H 0.85166 0.04250 0.53439
 H337 H 0.90237 0.15549 0.50265
 H338 H 1.02471 0.16185 0.46718
 H339 H 1.15001 0.05957 0.50529
 H340 H 1.15925 -0.07053 0.48872
 H341 H 1.05401 -0.14212 0.48701
 H342 H 0.97127 -0.14949 0.49330
 C343 C 1.11807 0.10129 0.31060
 C344 C 1.07233 0.10515 0.32751
 H345 H 1.14366 0.07918 0.33166
 H346 H 1.04436 0.12268 0.30554
 C347 C 0.87586 -0.09680 0.32693
 C348 C 0.90743 -0.11569 0.35953
 H349 H 0.86252 -0.05938 0.33369
 H350 H 0.91836 -0.15417 0.35757
 C351 C 0.86463 0.11013 0.67258
 C352 C 0.91183 0.11276 0.66137
 H353 H 0.84153 0.08628 0.64980
 H354 H 0.93712 0.13091 0.68659
 C355 C 1.10090 -0.10375 0.68395
 C356 C 1.12128 -0.06995 0.65448
 H357 H 1.06442 -0.11601 0.67485
 H358 H 1.15873 -0.05910 0.65900
 C359 C 0.31882 1.11759 1.08727
 C360 C 0.35305 1.09030 1.10917
 H361 H 0.32390 1.12743 1.04839
 H362 H 0.35199 1.08289 1.14882
 C363 C 0.31812 0.89118 0.88953
 C364 C 0.34524 0.87169 0.92612
 H365 H 0.32990 0.92582 0.87369
 H366 H 0.33744 0.83584 0.94136
 C367 C 0.70298 0.89978 1.08286
 C368 C 0.66573 0.92251 1.10584
 H369 H 0.69981 0.89056 1.04321
 H370 H 0.66472 0.92659 1.14622
 C371 C 0.66554 1.11378 0.89372
 C372 C 0.63625 1.07993 0.87258
 H373 H 0.65979 1.12400 0.93283
 H374 H 0.63691 1.07178 0.83276
 C375 C 0.08331 0.29713 0.08277
 C376 C 0.10699 0.33649 0.06567
 H377 H 0.04401 0.29746 0.08430
 H378 H 0.14609 0.33848 0.06908
 C379 C -0.11024 0.30818 -0.09598
 C380 C -0.13017 0.35079 -0.07992
 H381 H -0.07116 0.30350 -0.09496
 H382 H -0.16851 0.35760 -0.08575
 C383 C 0.09680 0.69071 -0.09572
 C384 C 0.07547 0.65265 -0.11981
 H385 H 0.09950 0.69057 -0.05518
 H386 H 0.07718 0.64987 -0.16030
 C387 C -0.08009 0.69915 0.09934
 C388 C -0.07033 0.65678 0.12251
 H389 H -0.07360 0.70176 0.05941
 H390 H -0.08119 0.65211 0.16110
 C391 C 1.13260 0.10336 0.67732
 C392 C 1.10657 0.12661 0.64245
 H393 H 1.14082 0.06434 0.67126
 H394 H 1.10144 0.16633 0.64373
 C395 C 0.93340 -0.08647 0.71065
 C396 C 0.91098 -0.06704 0.67116
 H397 H 0.97209 -0.09378 0.70830
 H398 H 0.87179 -0.06562 0.66925
 C399 C 1.13183 -0.10575 0.32899
 C400 C 1.08495 -0.10422 0.34170
 H401 H 1.15718 -0.08285 0.35010
 H402 H 1.05769 -0.12147 0.31809
 C403 C 0.90144 0.11603 0.31339
 C404 C 0.88222 0.08807 0.34892
 H405 H 0.93952 0.12577 0.31651
 H406 H 0.84361 0.08151 0.35061
 C407 C 0.09677 0.30579 -0.09510
 C408 C 0.07331 0.34063 -0.12111
 H409 H 0.09958 0.31074 -0.05472
 H410 H 0.07404 0.34052 -0.16163
 C411 C -0.10805 0.30685 0.08382
 C412 C -0.08897 0.34569 0.10849
 H413 H -0.10976 0.30635 0.04322
 H414 H -0.09192 0.34843 0.14892
 C415 C -0.08839 0.70018 -0.09141
 C416 C -0.11327 0.66208 -0.07338
 H417 H -0.04927 0.69641 -0.09476
 H418 H -0.15249 0.66142 -0.07469
 C419 C 0.09421 0.68813 0.10317
 C420 C 0.11562 0.64750 0.08401
 H421 H 0.05498 0.69116 0.10357
 H422 H 0.15435 0.64218 0.08839
 C423 C 0.29390 1.08179 0.92973
 C424 C 0.33509 1.07117 0.90529
 H425 H 0.29179 1.07740 0.96993
 H426 H 0.33813 1.08057 0.86614
 C427 C 0.32472 0.87527 1.10185
 C428 C 0.36431 0.89406 1.12351
 H429 H 0.32079 0.87600 1.06141
 H430 H 0.37083 0.88915 1.16314
 C431 C 0.66600 1.11335 1.12441
 C432 C 0.65787 1.10345 1.07586
 H433 H 0.64050 1.10078 1.15221
 H434 H 0.68598 1.11095 1.04879
 C435 C 0.69122 0.90667 0.88512
 C436 C 0.65043 0.88307 0.89701
 H437 H 0.69286 0.94660 0.88962
 H438 H 0.64698 0.84386 0.88865
   
