data_POSCAR
  _audit_creation_date              2014-09-24
  _audit_creation_method            'ToBaCCo'
  _symmetry_space_group_name_H-M    'P1'
  _symmetry_Int_Tables_number       1
  _symmetry_cell_setting            triclinic
  loop_
  _symmetry_equiv_pos_as_xyz
 x,y,z
_cell_length_a 41.1978
_cell_length_b 47.9443
_cell_length_c 28.7464
_cell_angle_alpha 89.922000
_cell_angle_beta 89.085500
_cell_angle_gamma 89.823900
loop_
  _atom_site_label
  _atom_site_type_symbol
  _atom_site_fract_x
  _atom_site_fract_y
  _atom_site_fract_z
C1 C 0.30065 0.27168 0.30159
 C2 C 0.31441 0.24654 0.31597
 C3 C 0.30061 0.22054 0.30538
 C4 C 0.27223 0.22009 0.27738
 C5 C 0.25790 0.24560 0.26263
 C6 C 0.27199 0.27142 0.27530
 C7 C 0.25693 0.29639 0.26173
 C8 C 0.22897 0.29615 0.23545
 C9 C 0.21468 0.27092 0.22192
 C10 C 0.22954 0.24535 0.23471
 C11 C 0.25856 0.19501 0.26175
 C12 C 0.23030 0.19478 0.23610
 C13 C 0.21601 0.21961 0.22005
 C14 C 0.18777 0.21957 0.19173
 C15 C 0.17313 0.24532 0.18105
 C16 C 0.18604 0.27070 0.19557
 H17 H 0.26647 0.31650 0.27150
 H18 H 0.21883 0.31609 0.22562
 H19 H 0.26953 0.17499 0.26848
 H20 H 0.21983 0.17459 0.22966
 H21 H 0.33572 0.24751 0.33759
 H22 H 0.15188 0.24593 0.15928
 C23 C 0.71608 0.22762 0.34336
 C24 C 0.70056 0.25273 0.35437
 C25 C 0.71021 0.27802 0.33427
 C26 C 0.73702 0.27843 0.30273
 C27 C 0.75269 0.25303 0.29034
 C28 C 0.74238 0.22757 0.31112
 C29 C 0.75910 0.20285 0.29998
 C30 C 0.78423 0.20275 0.26723
 C31 C 0.79384 0.22739 0.24445
 C32 C 0.77864 0.25301 0.25697
 C33 C 0.74865 0.30341 0.28329
 C34 C 0.77535 0.30360 0.25304
 C35 C 0.78986 0.27862 0.23727
 C36 C 0.81656 0.27830 0.20494
 C37 C 0.83001 0.25242 0.19205
 C38 C 0.81907 0.22721 0.21064
 H39 H 0.75311 0.18329 0.31676
 H40 H 0.79645 0.18313 0.26061
 H41 H 0.73774 0.32329 0.29195
 H42 H 0.78447 0.32379 0.24290
 H43 H 0.67992 0.25248 0.37829
 H44 H 0.84891 0.25168 0.16533
 C45 C 0.70464 0.71820 0.66477
 C46 C 0.69175 0.74317 0.64777
 C47 C 0.70264 0.76909 0.66318
 C48 C 0.72697 0.77028 0.69739
 C49 C 0.74074 0.74515 0.71449
 C50 C 0.73018 0.71911 0.69709
 C51 C 0.74638 0.69476 0.71089
 C52 C 0.77101 0.69572 0.74336
 C53 C 0.77958 0.72090 0.76519
 C54 C 0.76541 0.74608 0.74860
 C55 C 0.73836 0.79587 0.71427
 C56 C 0.76210 0.79681 0.74804
 C57 C 0.77626 0.77224 0.76522
 C58 C 0.80099 0.77316 0.79864
 C59 C 0.81389 0.74831 0.81581
 C60 C 0.80360 0.72198 0.80043
 H61 H 0.74075 0.67474 0.69571
 H62 H 0.78370 0.67644 0.75011
 H63 H 0.72913 0.81553 0.70154
 H64 H 0.76924 0.81714 0.76044
 H65 H 0.67219 0.74245 0.62298
 H66 H 0.83183 0.74977 0.84289
 C67 C 0.29576 0.78056 0.67319
 C68 C 0.30950 0.75579 0.65646
 C69 C 0.29889 0.72965 0.67195
 C70 C 0.27335 0.72811 0.70555
 C71 C 0.25939 0.75304 0.72370
 C72 C 0.27034 0.77932 0.70689
 C73 C 0.25560 0.80363 0.72425
 C74 C 0.23043 0.80231 0.75670
 C75 C 0.22071 0.77682 0.77685
 C76 C 0.23468 0.75173 0.75908
 C77 C 0.26139 0.70242 0.72156
 C78 C 0.23603 0.70113 0.75393
 C79 C 0.22332 0.72535 0.77524
 C80 C 0.19807 0.72413 0.80972
 C81 C 0.18477 0.74931 0.82640
 C82 C 0.19587 0.77560 0.81180
 H83 H 0.26291 0.82412 0.71262
 H84 H 0.21844 0.82176 0.76495
 H85 H 0.27104 0.68287 0.70879
 H86 H 0.22631 0.68069 0.76116
 H87 H 0.32902 0.75690 0.63073
 H88 H 0.16708 0.74843 0.85471
 O89 O 0.96225 -0.02165 -0.04757
 O90 O 1.02211 0.02915 -0.00855
 O91 O 1.02528 -0.02155 -0.04299
 O92 O 0.96007 0.02778 -0.00877
 O93 O 0.95795 0.00853 0.06110
 O94 O 1.02255 -0.04036 0.02709
 O95 O 1.02103 0.01056 0.06180
 O96 O 0.95991 -0.04037 0.02254
 Cu97 Cu 0.99270 0.00517 -0.03410
 Cu98 Cu 0.99038 -0.01729 0.05017
 C99 C 0.95086 -0.03975 -0.01955
 C100 C 1.03102 0.02918 0.03345
 C101 C 1.03439 -0.03988 -0.01389
 C102 C 0.94831 0.02673 0.03237
 O103 O 0.46308 0.48501 0.43036
 O104 O 0.52334 0.53638 0.46851
 O105 O 0.52637 0.48743 0.43175
 O106 O 0.46056 0.53515 0.46838
 O107 O 0.45936 0.51557 0.53797
 O108 O 0.52496 0.46776 0.50130
 O109 O 0.52273 0.51745 0.53851
 O110 O 0.46224 0.46626 0.50048
 Cu111 Cu 0.49311 0.51286 0.44265
 Cu112 Cu 0.49223 0.48992 0.52662
 C113 C 0.45268 0.46659 0.45870
 C114 C 0.53347 0.53563 0.50999
 C115 C 0.53685 0.46945 0.46036
 C116 C 0.44908 0.53376 0.50960
 O117 O 0.03356 0.52120 -0.03835
 O118 O -0.03200 0.47297 -0.00331
 O119 O -0.02959 0.52263 -0.04038
 O120 O 0.03078 0.47107 -0.00237
 O121 O 0.02857 0.48856 0.06854
 O122 O -0.02924 0.54216 0.02914
 O123 O -0.03457 0.49285 0.06591
 O124 O 0.03288 0.53908 0.03239
 Cu125 Cu 0.00087 0.49511 -0.02814
 Cu126 Cu -0.00052 0.51737 0.05618
 C127 C 0.04395 0.53877 -0.00909
 C128 C -0.04454 0.47479 0.03725
 C129 C -0.03922 0.54154 -0.01243
 C130 C 0.03941 0.47051 0.03982
 O131 O 0.47545 1.03751 0.51065
 O132 O 0.53373 0.98616 0.55352
 O133 O 0.53806 1.03461 0.51249
 O134 O 0.47105 0.98732 0.54757
 O135 O 0.47476 0.96699 0.47880
 O136 O 0.53887 1.01533 0.44286
 O137 O 0.53707 0.96683 0.48401
 O138 O 0.47576 1.01713 0.44181
 Cu139 Cu 0.50422 1.01340 0.53797
 Cu140 Cu 0.50670 0.98968 0.45487
 C141 C 0.46600 1.03647 0.46894
 C142 C 0.54533 0.96764 0.52646
 C143 C 0.54958 1.03320 0.47121
 C144 C 0.46248 0.96834 0.51944
 C145 C 1.19297 0.17373 0.15261
 C146 C 1.17875 0.14949 0.13517
 C147 C 1.14500 0.14657 0.13548
 C148 C 1.12553 0.16807 0.15383
 C149 C 1.13968 0.19189 0.17252
 C150 C 1.17374 0.19498 0.17313
 N151 N 1.13078 0.12185 0.11681
 N152 N 1.10255 0.12259 0.09956
 C153 C 1.08663 0.09840 0.08207
 C154 C 1.06329 0.10197 0.04786
 C155 C 1.04619 0.07914 0.03114
 C156 C 1.05136 0.05238 0.04957
 C157 C 1.07458 0.04872 0.08435
 C158 C 1.09255 0.07159 0.10003
 H159 H 1.21904 0.17601 0.14919
 H160 H 1.19402 0.13330 0.12023
 H161 H 1.09934 0.16618 0.15456
 H162 H 1.12382 0.20754 0.18787
 H163 H 1.05835 0.12257 0.03411
 H164 H 1.02809 0.08257 0.00479
 H165 H 1.07881 0.02829 0.09920
 H166 H 1.11025 0.06854 0.12701
 C167 C 0.67521 0.67380 0.68336
 C168 C 0.65737 0.65059 0.66942
 C169 C 0.65279 0.64523 0.62214
 C170 C 0.66728 0.66286 0.58870
 C171 C 0.68529 0.68597 0.60260
 C172 C 0.68913 0.69180 0.65004
 N173 N 0.63202 0.62274 0.60908
 N174 N 0.62445 0.61855 0.56692
 C175 C 0.60277 0.59682 0.55346
 C176 C 0.59416 0.59482 0.50675
 C177 C 0.57184 0.57481 0.49258
 C178 C 0.55780 0.55628 0.52504
 C179 C 0.56691 0.55800 0.57189
 C180 C 0.58916 0.57816 0.58605
 H181 H 0.67733 0.67821 0.72013
 H182 H 0.64621 0.63725 0.69552
 H183 H 0.66413 0.65915 0.55191
 H184 H 0.69564 0.69969 0.57636
 H185 H 0.60446 0.60911 0.48135
 H186 H 0.56546 0.57399 0.45621
 H187 H 0.55654 0.54403 0.59772
 H188 H 0.59545 0.57932 0.62242
 C189 C -0.13469 0.30389 0.18140
 C190 C -0.11945 0.32607 0.15886
 C191 C -0.13768 0.34772 0.14006
 C192 C -0.17170 0.34684 0.14328
 C193 C -0.18720 0.32409 0.16478
 C194 C -0.16887 0.30242 0.18500
 N195 N -0.12068 0.36979 0.11693
 N196 N -0.13240 0.39412 0.11149
 C197 C -0.11339 0.41501 0.08827
 C198 C -0.11529 0.44272 0.10336
 C199 C -0.09335 0.46253 0.08594
 C200 C -0.06999 0.45499 0.05203
 C201 C -0.06956 0.42762 0.03480
 C202 C -0.09080 0.40768 0.05321
 H203 H -0.11953 0.28786 0.19653
 H204 H -0.09319 0.32655 0.15643
 H205 H -0.18620 0.36318 0.12784
 H206 H -0.21342 0.32296 0.16379
 H207 H -0.13257 0.44859 0.13040
 H208 H -0.09422 0.48357 0.09957
 H209 H -0.05172 0.42129 0.00877
 H210 H -0.08914 0.38639 0.04089
 C211 C 0.29172 0.82712 0.63255
 C212 C 0.30620 0.85169 0.61606
 C213 C 0.33957 0.85591 0.62110
 C214 C 0.35818 0.83574 0.64414
 C215 C 0.34359 0.81170 0.66189
 C216 C 0.31025 0.80712 0.65628
 N217 N 0.35463 0.88021 0.60162
 N218 N 0.38339 0.87864 0.58506
 C219 C 0.40069 0.90210 0.56684
 C220 C 0.42489 0.89734 0.53323
 C221 C 0.44390 0.91928 0.51661
 C222 C 0.43975 0.94631 0.53457
 C223 C 0.41542 0.95119 0.56844
 C224 C 0.39560 0.92923 0.58402
 H225 H 0.26612 0.82367 0.62680
 H226 H 0.29166 0.86700 0.59801
 H227 H 0.38399 0.83871 0.64856
 H228 H 0.35838 0.79646 0.67973
 H229 H 0.42918 0.87646 0.52012
 H230 H 0.46276 0.91486 0.49095
 H231 H 0.41192 0.97185 0.58291
 H232 H 0.37721 0.93316 0.61055
 C233 C -0.20160 0.67483 -0.16487
 C234 C -0.18753 0.65169 -0.14318
 C235 C -0.15453 0.65168 -0.13255
 C236 C -0.13550 0.67483 -0.14469
 C237 C -0.14923 0.69758 -0.16746
 C238 C -0.18253 0.69800 -0.17838
 N239 N -0.14043 0.62799 -0.11014
 N240 N -0.11535 0.63065 -0.08527
 C241 C -0.09898 0.60742 -0.06491
 C242 C -0.07829 0.61219 -0.02768
 C243 C -0.05988 0.59042 -0.00931
 C244 C -0.06121 0.56364 -0.02892
 C245 C -0.08225 0.55877 -0.06604
 C246 C -0.10132 0.58045 -0.08360
 H247 H -0.22760 0.67484 -0.16980
 H248 H -0.20255 0.63405 -0.13350
 H249 H -0.10980 0.67510 -0.13735
 H250 H -0.13338 0.71458 -0.17763
 H251 H -0.07612 0.63295 -0.01327
 H252 H -0.04364 0.59478 0.01902
 H253 H -0.08367 0.53830 -0.08174
 H254 H -0.11692 0.57643 -0.11276
 C255 C 0.29742 1.17467 0.34493
 C256 C 0.31275 1.15097 0.36290
 C257 C 0.34662 1.14895 0.36235
 C258 C 0.36507 1.17071 0.34297
 C259 C 0.34983 1.19398 0.32381
 C260 C 0.31565 1.19626 0.32376
 N261 N 0.36203 1.12495 0.38198
 N262 N 0.39024 1.12683 0.39906
 C263 C 0.40739 1.10342 0.41746
 C264 C 0.40246 1.07617 0.40106
 C265 C 0.42150 1.05409 0.41762
 C266 C 0.44488 1.05897 0.45171
 C267 C 0.44910 1.08617 0.46859
 C268 C 0.43088 1.10823 0.45099
 H269 H 0.27129 1.17634 0.34869
 H270 H 0.29826 1.13455 0.37856
 H271 H 0.39132 1.16950 0.34196
 H272 H 0.36495 1.20990 0.30785
 H273 H 0.38464 1.07215 0.37464
 H274 H 0.41794 1.03328 0.40403
 H275 H 0.46723 1.09053 0.49446
 H276 H 0.43504 1.12918 0.46355
 C277 C 1.20121 -0.17793 -0.15147
 C278 C 1.18695 -0.15430 -0.13108
 C279 C 1.15345 -0.15325 -0.12279
 C280 C 1.13424 -0.17604 -0.13532
 C281 C 1.14825 -0.19927 -0.15694
 C282 C 1.18196 -0.20045 -0.16638
 N283 N 1.13908 -0.12883 -0.10244
 N284 N 1.11286 -0.13054 -0.07865
 C285 C 1.09622 -0.10667 -0.06030
 C286 C 1.07482 -0.11035 -0.02264
 C287 C 1.05594 -0.08815 -0.00626
 C288 C 1.05745 -0.06198 -0.02829
 C289 C 1.07925 -0.05815 -0.06586
 C290 C 1.09886 -0.08029 -0.08143
 H291 H 1.22741 -0.17868 -0.15500
 H292 H 1.20211 -0.13702 -0.12085
 H293 H 1.10821 -0.17558 -0.12948
 H294 H 1.13238 -0.21596 -0.16772
 H295 H 1.07241 -0.13065 -0.00639
 H296 H 1.03911 -0.09180 0.02241
 H297 H 1.08076 -0.03821 -0.08350
 H298 H 1.11503 -0.07716 -0.11102
 C299 C 0.65630 0.30153 0.33588
 C300 C 0.63559 0.32299 0.35025
 C301 C 0.64786 0.34636 0.37288
 C302 C 0.68132 0.34811 0.38124
 C303 C 0.70204 0.32617 0.36804
 C304 C 0.68966 0.30276 0.34494
 N305 N 0.62549 0.36711 0.38925
 N306 N 0.63356 0.39232 0.39632
 C307 C 0.61022 0.41184 0.41429
 C308 C 0.61169 0.43980 0.40036
 C309 C 0.58771 0.45867 0.41521
 C310 C 0.56268 0.44996 0.44560
 C311 C 0.56199 0.42218 0.46096
 C312 C 0.58531 0.40315 0.44490
 H313 H 0.64617 0.28354 0.31864
 H314 H 0.60981 0.32136 0.34396
 H315 H 0.69114 0.36587 0.39945
 H316 H 0.72752 0.32716 0.37660
 H317 H 0.63082 0.44673 0.37686
 H318 H 0.58877 0.48008 0.40317
 H319 H 0.54286 0.41501 0.48431
 H320 H 0.58396 0.38166 0.45638
 C321 C 0.83149 -0.18222 -0.21357
 C322 C 0.84690 -0.15864 -0.19595
 C323 C 0.84620 -0.15316 -0.14812
 C324 C 0.82903 -0.17116 -0.11801
 C325 C 0.81337 -0.19460 -0.13566
 C326 C 0.81463 -0.20040 -0.18352
 N327 N 0.86428 -0.13000 -0.13093
 N328 N 0.86772 -0.12556 -0.08763
 C329 C 0.88677 -0.10286 -0.07085
 C330 C 0.89277 -0.10094 -0.02317
 C331 C 0.91311 -0.08012 -0.00614
 C332 C 0.92760 -0.06071 -0.03668
 C333 C 0.92075 -0.06224 -0.08440
 C334 C 0.90063 -0.08315 -0.10136
 H335 H 0.83325 -0.18663 -0.25047
 H336 H 0.86020 -0.14501 -0.21944
 H337 H 0.82816 -0.16737 -0.08090
 H338 H 0.80074 -0.20855 -0.11190
 H339 H 0.88222 -0.11601 0.00070
 H340 H 0.91784 -0.07947 0.03079
 H341 H 0.93151 -0.04763 -0.10888
 H342 H 0.89629 -0.08413 -0.13837
 C343 C 0.33140 0.31538 0.28226
 C344 C 0.34771 0.33949 0.29601
 C345 C 0.34998 0.34624 0.34324
 C346 C 0.33539 0.32868 0.37672
 C347 C 0.31902 0.30465 0.36298
 C348 C 0.31686 0.29786 0.31568
 N349 N 0.36792 0.37048 0.35640
 N350 N 0.37197 0.37686 0.39888
 C351 C 0.39053 0.40054 0.41288
 C352 C 0.39593 0.40459 0.46028
 C353 C 0.41553 0.42643 0.47524
 C354 C 0.42996 0.44481 0.44289
 C355 C 0.42374 0.44120 0.39530
 C356 C 0.40427 0.41917 0.38036
 H357 H 0.33030 0.31025 0.24564
 H358 H 0.35897 0.35275 0.26990
 H359 H 0.33686 0.33337 0.41345
 H360 H 0.30813 0.29124 0.38923
 H361 H 0.38543 0.39039 0.48566
 H362 H 0.41974 0.42867 0.51213
 H363 H 0.43455 0.45496 0.36953
 H364 H 0.40037 0.41649 0.34348
 C365 C 0.15206 0.69617 -0.16183
 C366 C 0.13950 0.67245 -0.14009
 C367 C 0.16010 0.65060 -0.12699
 C368 C 0.19349 0.65287 -0.13569
 C369 C 0.20631 0.67708 -0.15620
 C370 C 0.18572 0.69895 -0.17066
 N371 N 0.14715 0.62612 -0.10504
 N372 N 0.12216 0.62791 -0.07861
 C373 C 0.10631 0.60417 -0.05853
 C374 C 0.08649 0.60808 -0.01915
 C375 C 0.06766 0.58622 -0.00156
 C376 C 0.06759 0.56022 -0.02404
 C377 C 0.08804 0.55608 -0.06308
 C378 C 0.10760 0.57785 -0.07992
 H379 H 0.13517 0.71221 -0.17256
 H380 H 0.11354 0.67095 -0.13416
 H381 H 0.20970 0.63629 -0.12516
 H382 H 0.23244 0.67897 -0.15932
 H383 H 0.08510 0.62836 -0.00266
 H384 H 0.05189 0.59011 0.02826
 H385 H 0.08834 0.53626 -0.08110
 H386 H 0.12249 0.57454 -0.11081
 C387 C 0.69980 1.19911 0.41286
 C388 C 0.68370 1.17627 0.43268
 C389 C 0.67002 1.15587 0.40434
 C390 C 0.67315 1.15829 0.35569
 C391 C 0.68902 1.18121 0.33587
 C392 C 0.70242 1.20183 0.36429
 N393 N 0.65144 1.13390 0.42547
 N394 N 0.63960 1.11427 0.40141
 C395 C 0.61936 1.09298 0.42113
 C396 C 0.60846 1.07174 0.39213
 C397 C 0.58654 1.05186 0.40887
 C398 C 0.57493 1.05296 0.45513
 C399 C 0.58660 1.07390 0.48468
 C400 C 0.60868 1.09378 0.46782
 H401 H 0.70962 1.21500 0.43533
 H402 H 0.68127 1.17474 0.47016
 H403 H 0.66252 1.14293 0.33299
 H404 H 0.69016 1.18326 0.29834
 H405 H 0.61646 1.07097 0.35608
 H406 H 0.57811 1.03601 0.38517
 H407 H 0.57813 1.07530 0.52045
 H408 H 0.61674 1.11010 0.49087
 C409 C 0.15398 0.31382 0.21494
 C410 C 0.13786 0.33817 0.20137
 C411 C 0.13643 0.34557 0.15429
 C412 C 0.15140 0.32825 0.12074
 C413 C 0.16755 0.30395 0.13430
 C414 C 0.16913 0.29666 0.18149
 N415 N 0.11923 0.37038 0.14138
 N416 N 0.11650 0.37775 0.09906
 C417 C 0.09886 0.40214 0.08537
 C418 C 0.09490 0.40736 0.03793
 C419 C 0.07627 0.42999 0.02312
 C420 C 0.06138 0.44801 0.05567
 C421 C 0.06619 0.44322 0.10337
 C422 C 0.08469 0.42041 0.11815
 H423 H 0.15469 0.30833 0.25147
 H424 H 0.12630 0.35123 0.22753
 H425 H 0.15055 0.33342 0.08412
 H426 H 0.17895 0.29084 0.10804
 H427 H 0.10575 0.39348 0.01235
 H428 H 0.07312 0.43311 -0.01385
 H429 H 0.05497 0.45666 0.12929
 H430 H 0.08750 0.41684 0.15506
 C431 C 0.68982 0.79906 0.59469
 C432 C 0.67404 0.82186 0.57471
 C433 C 0.65576 0.84022 0.60246
 C434 C 0.65336 0.83549 0.65072
 C435 C 0.66888 0.81253 0.67066
 C436 C 0.68745 0.79428 0.64282
 N437 N 0.63903 0.86288 0.58074
 N438 N 0.62444 0.88161 0.60446
 C439 C 0.60657 0.90382 0.58341
 C440 C 0.59314 0.92450 0.61204
 C441 C 0.57402 0.94566 0.59327
 C442 C 0.56776 0.94639 0.54530
 C443 C 0.58179 0.92586 0.51638
 C444 C 0.60113 0.90475 0.53526
 H445 H 0.70370 0.78497 0.57259
 H446 H 0.67589 0.82515 0.53749
 H447 H 0.63906 0.84922 0.67286
 H448 H 0.66621 0.80883 0.70770
 H449 H 0.59712 0.92397 0.64918
 H450 H 0.56355 0.96110 0.61658
 H451 H 0.57741 0.92584 0.47934
 H452 H 0.61124 0.88890 0.51243
 C453 C 0.86859 0.19903 0.19117
 C454 C 0.88368 0.17653 0.16890
 C455 C 0.86515 0.15565 0.14840
 C456 C 0.83111 0.15735 0.15055
 C457 C 0.81594 0.18026 0.17190
 C458 C 0.83458 0.20130 0.19248
 N459 N 0.88163 0.13363 0.12416
 N460 N 0.86814 0.11055 0.11457
 C461 C 0.88572 0.08947 0.08954
 C462 C 0.87996 0.06136 0.09976
 C463 C 0.89970 0.04063 0.07990
 C464 C 0.92460 0.04779 0.04818
 C465 C 0.92896 0.07584 0.03569
 C466 C 0.90995 0.09659 0.05673
 H467 H 0.88347 0.21509 0.20643
 H468 H 0.90994 0.17543 0.16732
 H469 H 0.81637 0.14154 0.13440
 H470 H 0.78972 0.18194 0.17142
 H471 H 0.86131 0.05564 0.12493
 H472 H 0.89601 0.01908 0.09002
 H473 H 0.94824 0.08182 0.01165
 H474 H 0.91453 0.11823 0.04810
 C475 C 0.35063 0.70366 0.65792
 C476 C 0.36843 0.68196 0.63758
 C477 C 0.35271 0.66073 0.61356
 C478 C 0.31877 0.66159 0.60940
 C479 C 0.30096 0.68386 0.62856
 C480 C 0.31674 0.70489 0.65360
 N481 N 0.37199 0.63921 0.59244
 N482 N 0.36104 0.61498 0.58404
 C483 C 0.38139 0.59442 0.56220
 C484 C 0.37805 0.56634 0.57475
 C485 C 0.39984 0.54636 0.55717
 C486 C 0.42445 0.55413 0.52539
 C487 C 0.42670 0.58206 0.51102
 C488 C 0.40564 0.60214 0.52981
 H489 H 0.36338 0.71982 0.67649
 H490 H 0.39459 0.68159 0.64070
 H491 H 0.30627 0.64557 0.59022
 H492 H 0.27500 0.68485 0.62347
 H493 H 0.35942 0.56014 0.59964
 H494 H 0.39765 0.52491 0.56862
 H495 H 0.44561 0.58854 0.48675
 H496 H 0.40841 0.62373 0.51941
   
