data_POSCAR
  _audit_creation_date              2014-09-24
  _audit_creation_method            'ToBaCCo'
  _symmetry_space_group_name_H-M    'P1'
  _symmetry_Int_Tables_number       1
  _symmetry_cell_setting            triclinic
  loop_
  _symmetry_equiv_pos_as_xyz
 x,y,z
_cell_length_a 54.6994
_cell_length_b 59.7577
_cell_length_c 9.2800
_cell_angle_alpha 89.694000
_cell_angle_beta 90.112800
_cell_angle_gamma 90.055700
loop_
  _atom_site_label
  _atom_site_type_symbol
  _atom_site_fract_x
  _atom_site_fract_y
  _atom_site_fract_z
C1 C 0.18514 0.24879 0.19847
 C2 C 0.19758 0.22924 0.23726
 C3 C 0.22282 0.22990 0.26264
 C4 C 0.23615 0.24993 0.24320
 C5 C 0.22327 0.26946 0.20279
 C6 C 0.19786 0.26893 0.18359
 C7 C 0.26328 0.25039 0.26494
 C8 C 0.27532 0.27012 0.30922
 C9 C 0.30076 0.27050 0.32690
 C10 C 0.31440 0.25102 0.30629
 C11 C 0.30277 0.23122 0.26527
 C12 C 0.27747 0.23101 0.24160
 H13 H 0.16553 0.24837 0.18031
 H14 H 0.23187 0.21476 0.29895
 H15 H 0.23278 0.28512 0.18530
 H16 H 0.26510 0.28520 0.33157
 H17 H 0.33405 0.25130 0.32261
 H18 H 0.26902 0.21571 0.20404
 C19 C 0.81420 0.25105 0.18885
 C20 C 0.80080 0.27081 0.17328
 C21 C 0.77544 0.27063 0.19361
 C22 C 0.76325 0.25079 0.23553
 C23 C 0.77721 0.23111 0.25362
 C24 C 0.80242 0.23119 0.22798
 C25 C 0.73621 0.25063 0.26089
 C26 C 0.72237 0.23092 0.24108
 C27 C 0.69720 0.23063 0.26909
 C28 C 0.68534 0.25025 0.31113
 C29 C 0.69864 0.27002 0.32836
 C30 C 0.72395 0.27014 0.30615
 H31 H 0.83376 0.25112 0.16962
 H32 H 0.76538 0.28597 0.17518
 H33 H 0.76873 0.21564 0.28836
 H34 H 0.73095 0.21574 0.20306
 H35 H 0.66578 0.25016 0.33044
 H36 H 0.73392 0.28549 0.32553
 C37 C 0.68625 0.75175 0.69090
 C38 C 0.69816 0.73201 0.73074
 C39 C 0.72343 0.73208 0.75512
 C40 C 0.73730 0.75179 0.73432
 C41 C 0.72498 0.77145 0.69061
 C42 C 0.69958 0.77150 0.67202
 C43 C 0.76436 0.75184 0.75850
 C44 C 0.77658 0.77148 0.80267
 C45 C 0.80195 0.77150 0.82433
 C46 C 0.81529 0.75177 0.80713
 C47 C 0.80345 0.73211 0.76558
 C48 C 0.77826 0.73221 0.73870
 H49 H 0.66662 0.75173 0.67367
 H50 H 0.73205 0.71675 0.79125
 H51 H 0.73499 0.78675 0.66943
 H52 H 0.76649 0.78674 0.82214
 H53 H 0.83487 0.75164 0.82645
 H54 H 0.76971 0.71693 0.70185
 C55 C 0.31431 0.75038 0.68901
 C56 C 0.30097 0.77016 0.67238
 C57 C 0.27567 0.77016 0.69532
 C58 C 0.26349 0.75050 0.74051
 C59 C 0.27744 0.73084 0.76048
 C60 C 0.30256 0.73071 0.73217
 C61 C 0.23643 0.75041 0.76471
 C62 C 0.22267 0.73063 0.74563
 C63 C 0.19743 0.73040 0.77046
 C64 C 0.18541 0.75009 0.80908
 C65 C 0.19862 0.76993 0.82598
 C66 C 0.22402 0.77002 0.80691
 H67 H 0.33380 0.75029 0.66748
 H68 H 0.26562 0.78547 0.67550
 H69 H 0.26897 0.71552 0.79810
 H70 H 0.23140 0.71532 0.71120
 H71 H 0.16582 0.74998 0.82766
 H72 H 0.23394 0.78539 0.82663
 O73 O 1.02403 0.02205 0.02686
 O74 O 0.97608 -0.02072 -0.01293
 O75 O 0.97665 0.02247 0.02301
 O76 O 1.02369 -0.02108 -0.01321
 O77 O 1.02356 -0.02638 0.22276
 O78 O 0.97641 0.01730 0.25914
 O79 O 0.97588 -0.02598 0.22309
 O80 O 1.02390 0.01684 0.26296
 Cu81 Cu 1.00015 0.00116 -0.01771
 Cu82 Cu 0.99992 -0.00513 0.26591
 C83 C 1.03191 0.02680 0.15163
 C84 C 0.96789 -0.03059 0.09831
 C85 C 0.96872 0.02736 0.14716
 C86 C 1.03155 -0.03111 0.09829
 O87 O 0.47676 0.51708 0.75317
 O88 O 0.52487 0.47433 0.71554
 O89 O 0.52414 0.51759 0.75515
 O90 O 0.47712 0.47382 0.71281
 O91 O 0.47738 0.47923 0.47698
 O92 O 0.52432 0.52293 0.51917
 O93 O 0.52507 0.47975 0.47971
 O94 O 0.47703 0.52242 0.51719
 Cu95 Cu 0.50070 0.49507 0.75810
 Cu96 Cu 0.50097 0.50155 0.47474
 C97 C 0.46901 0.52716 0.64142
 C98 C 0.53309 0.46983 0.59129
 C99 C 0.53194 0.52783 0.64424
 C100 C 0.46931 0.46914 0.58768
 O101 O -0.02285 0.52304 -0.02675
 O102 O 0.02344 0.47870 0.01256
 O103 O 0.02450 0.52207 -0.02393
 O104 O -0.02414 0.47988 0.01373
 O105 O -0.02427 0.47495 -0.22225
 O106 O 0.02442 0.51725 -0.26003
 O107 O 0.02332 0.47385 -0.22347
 O108 O -0.02296 0.51813 -0.26280
 Cu109 Cu 0.00028 0.50137 0.01785
 Cu110 Cu 0.00015 0.49550 -0.26572
 C111 C -0.03057 0.52818 -0.15160
 C112 C 0.03111 0.46872 -0.09886
 C113 C 0.03245 0.52700 -0.14836
 C114 C -0.03241 0.47028 -0.09772
 O115 O 0.52334 1.01819 0.24505
 O116 O 0.47571 0.97491 0.28222
 O117 O 0.47602 1.01823 0.24206
 O118 O 0.52341 0.97492 0.28436
 O119 O 0.52311 0.97998 0.52017
 O120 O 0.47572 1.02329 0.47794
 O121 O 0.47540 0.97998 0.51799
 O122 O 0.52302 1.02324 0.48095
 Cu123 Cu 0.49963 0.99598 0.23989
 Cu124 Cu 0.49927 1.00205 0.52312
 C125 C 0.53100 1.02820 0.35659
 C126 C 0.46753 0.97012 0.40640
 C127 C 0.46812 1.02829 0.35261
 C128 C 0.53126 0.97014 0.40946
 C129 C 1.18511 0.20957 0.24717
 C130 C 1.17369 0.19232 0.25177
 C131 C 1.15952 0.17204 0.25174
 C132 C 1.16460 0.15526 0.15146
 C133 C 1.14965 0.13631 0.14322
 C134 C 1.12934 0.13402 0.23482
 C135 C 1.12465 0.15078 0.33698
 C136 C 1.13968 0.16965 0.34552
 C137 C 1.11264 0.11458 0.22111
 C138 C 1.08718 0.11773 0.22518
 C139 C 1.07134 0.09952 0.21137
 C140 C 1.08070 0.07793 0.19384
 C141 C 1.10601 0.07460 0.18936
 C142 C 1.12192 0.09284 0.20251
 C143 C 1.06415 0.05935 0.17935
 C144 C 1.04973 0.04423 0.16701
 H145 H 1.17980 0.15704 0.07758
 H146 H 1.15352 0.12380 0.06238
 H147 H 1.10929 0.14932 0.40979
 H148 H 1.13558 0.18255 0.42350
 H149 H 1.07952 0.13432 0.23677
 H150 H 1.05177 0.10231 0.21378
 H151 H 1.11344 0.05795 0.17579
 H152 H 1.14145 0.08993 0.19980
 C153 C 0.68443 0.71150 0.74116
 C154 C 0.67255 0.69452 0.74489
 C155 C 0.65794 0.67447 0.74426
 C156 C 0.63776 0.67255 0.83593
 C157 C 0.62268 0.65367 0.82921
 C158 C 0.62763 0.63646 0.73063
 C159 C 0.64811 0.63844 0.63993
 C160 C 0.66312 0.65736 0.64654
 C161 C 0.61107 0.61686 0.71934
 C162 C 0.62056 0.59515 0.70275
 C163 C 0.60485 0.57679 0.68894
 C164 C 0.57950 0.57992 0.69053
 C165 C 0.56990 0.60145 0.70722
 C166 C 0.58556 0.61980 0.72149
 C167 C 0.56324 0.56114 0.67414
 C168 C 0.54922 0.54571 0.66054
 H169 H 0.63349 0.68577 0.91118
 H170 H 0.60714 0.65253 0.90091
 H171 H 0.65212 0.62565 0.56112
 H172 H 0.67849 0.65882 0.57356
 H173 H 0.64011 0.59237 0.70079
 H174 H 0.61247 0.56018 0.67676
 H175 H 0.55031 0.60408 0.70825
 H176 H 0.57772 0.63637 0.73050
 C177 C -0.18669 0.29130 0.13768
 C178 C -0.17560 0.30819 0.10932
 C179 C -0.16163 0.32797 0.07611
 C180 C -0.16733 0.34842 0.14069
 C181 C -0.15306 0.36737 0.11210
 C182 C -0.13284 0.36607 0.01878
 C183 C -0.12741 0.34546 -0.04625
 C184 C -0.14171 0.32657 -0.01767
 C185 C -0.11683 0.38582 -0.00602
 C186 C -0.10690 0.39019 -0.14315
 C187 C -0.09066 0.40800 -0.16377
 C188 C -0.08417 0.42170 -0.04800
 C189 C -0.09429 0.41776 0.08807
 C190 C -0.11052 0.39997 0.10900
 C191 C -0.06635 0.43919 -0.06732
 C192 C -0.05104 0.45354 -0.08209
 H193 H -0.18266 0.34968 0.21404
 H194 H -0.15781 0.38302 0.16320
 H195 H -0.11170 0.34377 -0.11607
 H196 H -0.13700 0.31077 -0.06713
 H197 H -0.11162 0.37981 -0.23439
 H198 H -0.08294 0.41093 -0.26961
 H199 H -0.08930 0.42819 0.17862
 H200 H -0.11755 0.39687 0.21622
 C201 C 0.31348 0.79048 0.63286
 C202 C 0.32456 0.80729 0.60224
 C203 C 0.33845 0.82708 0.56833
 C204 C 0.35758 0.82599 0.46877
 C205 C 0.37208 0.84482 0.44173
 C206 C 0.36766 0.86504 0.51434
 C207 C 0.34812 0.86604 0.61266
 C208 C 0.33367 0.84717 0.63971
 C209 C 0.38399 0.88465 0.49210
 C210 C 0.39110 0.89799 0.60952
 C211 C 0.40730 0.91585 0.58999
 C212 C 0.41667 0.92064 0.45316
 C213 C 0.40953 0.90764 0.33534
 C214 C 0.39328 0.88979 0.35447
 C215 C 0.43425 0.93837 0.43495
 C216 C 0.44930 0.95299 0.42126
 H217 H 0.36161 0.81044 0.41428
 H218 H 0.38722 0.84334 0.36742
 H219 H 0.34408 0.88139 0.66926
 H220 H 0.31901 0.84816 0.71782
 H221 H 0.38464 0.89430 0.71728
 H222 H 0.41281 0.92573 0.68210
 H223 H 0.41668 0.91121 0.22892
 H224 H 0.38796 0.88003 0.26158
 C225 C -0.18285 0.71165 -0.24463
 C226 C -0.17105 0.69465 -0.24886
 C227 C -0.15657 0.67458 -0.24917
 C228 C -0.13584 0.67318 -0.33676
 C229 C -0.12079 0.65432 -0.32938
 C230 C -0.12635 0.63660 -0.23448
 C231 C -0.14750 0.63795 -0.14908
 C232 C -0.16248 0.65687 -0.15626
 C233 C -0.10977 0.61706 -0.22175
 C234 C -0.11923 0.59521 -0.21222
 C235 C -0.10350 0.57687 -0.19900
 C236 C -0.07818 0.58018 -0.19469
 C237 C -0.06862 0.60186 -0.20382
 C238 C -0.08429 0.62019 -0.21760
 C239 C -0.06189 0.56143 -0.18028
 C240 C -0.04783 0.54605 -0.16748
 H241 H -0.13112 0.68678 -0.40930
 H242 H -0.10477 0.65359 -0.39756
 H243 H -0.15207 0.62468 -0.07391
 H244 H -0.17843 0.65785 -0.08757
 H245 H -0.13875 0.59229 -0.21705
 H246 H -0.11107 0.56013 -0.19258
 H247 H -0.04905 0.60461 -0.20005
 H248 H -0.07650 0.63684 -0.22315
 C249 C 0.31600 1.21200 0.25390
 C250 C 0.32793 1.19507 0.24868
 C251 C 0.34248 1.17502 0.24817
 C252 C 0.33640 1.15715 0.33951
 C253 C 0.35133 1.13820 0.34606
 C254 C 0.37263 1.13693 0.26186
 C255 C 0.37836 1.15481 0.16846
 C256 C 0.36338 1.17374 0.16195
 C257 C 0.38918 1.11735 0.27480
 C258 C 0.41467 1.12040 0.28009
 C259 C 0.43027 1.10203 0.29535
 C260 C 0.42064 1.08037 0.30502
 C261 C 0.39531 1.07713 0.29928
 C262 C 0.37966 1.09550 0.28446
 C263 C 0.43684 1.06155 0.32125
 C264 C 0.45083 1.04612 0.33533
 H265 H 0.32037 1.15804 0.40769
 H266 H 0.34658 1.12480 0.41988
 H267 H 0.39444 1.15416 0.10064
 H268 H 0.36828 1.18751 0.09123
 H269 H 0.42252 1.13703 0.27478
 H270 H 0.44984 1.10473 0.30007
 H271 H 0.38768 1.06042 0.30601
 H272 H 0.36014 1.09262 0.27901
 C273 C 1.18581 -0.20981 -0.13838
 C274 C 1.17437 -0.19317 -0.11029
 C275 C 1.16003 -0.17366 -0.07769
 C276 C 1.16542 -0.15306 -0.14260
 C277 C 1.15090 -0.13434 -0.11414
 C278 C 1.13072 -0.13602 -0.02072
 C279 C 1.12562 -0.15677 0.04507
 C280 C 1.14017 -0.17545 0.01651
 C281 C 1.11455 -0.11646 0.00426
 C282 C 1.10476 -0.11231 0.14174
 C283 C 1.08859 -0.09451 0.16289
 C284 C 1.08204 -0.08061 0.04732
 C285 C 1.09195 -0.08439 -0.08921
 C286 C 1.10809 -0.10218 -0.11075
 C287 C 1.06456 -0.06292 0.06752
 C288 C 1.04962 -0.04830 0.08264
 H289 H 1.18076 -0.15148 -0.21565
 H290 H 1.15548 -0.11855 -0.16497
 H291 H 1.11005 -0.15872 0.11592
 H292 H 1.13575 -0.19134 0.06683
 H293 H 1.10959 -0.12282 0.23280
 H294 H 1.08101 -0.09171 0.26899
 H295 H 1.08693 -0.07378 -0.17954
 H296 H 1.11499 -0.10511 -0.21824
 C297 C 0.68611 0.29031 0.36631
 C298 C 0.67517 0.30717 0.39580
 C299 C 0.66158 0.32708 0.42911
 C300 C 0.66681 0.34724 0.35832
 C301 C 0.65278 0.36630 0.38576
 C302 C 0.63325 0.36541 0.48427
 C303 C 0.62846 0.34514 0.55692
 C304 C 0.64252 0.32612 0.52935
 C305 C 0.61729 0.38520 0.50677
 C306 C 0.60816 0.39025 0.64448
 C307 C 0.59194 0.40807 0.66336
 C308 C 0.58466 0.42111 0.54520
 C309 C 0.59402 0.41651 0.40848
 C310 C 0.61021 0.39870 0.38923
 C311 C 0.56686 0.43861 0.56287
 C312 C 0.55159 0.45299 0.57636
 H313 H 0.68160 0.34819 0.28106
 H314 H 0.65717 0.38172 0.32980
 H315 H 0.61341 0.34379 0.63215
 H316 H 0.63830 0.31060 0.58483
 H317 H 0.61352 0.38039 0.73745
 H318 H 0.58484 0.41152 0.76973
 H319 H 0.58844 0.42646 0.31628
 H320 H 0.61661 0.39509 0.28158
 C321 C 0.81381 -0.20928 -0.13918
 C322 C 0.82484 -0.19248 -0.10878
 C323 C 0.83868 -0.17273 -0.07429
 C324 C 0.83350 -0.15237 -0.14290
 C325 C 0.84777 -0.13348 -0.11412
 C326 C 0.86747 -0.13474 -0.01654
 C327 C 0.87230 -0.15523 0.05324
 C328 C 0.85802 -0.17408 0.02429
 C329 C 0.88362 -0.11510 0.00748
 C330 C 0.89291 -0.11036 0.14562
 C331 C 0.90923 -0.09261 0.16574
 C332 C 0.91644 -0.07936 0.04843
 C333 C 0.90700 -0.08371 -0.08872
 C334 C 0.89070 -0.10144 -0.10919
 C335 C 0.93422 -0.06187 0.06750
 C336 C 0.94946 -0.04747 0.08220
 H337 H 0.81860 -0.15115 -0.21965
 H338 H 0.84344 -0.11790 -0.16844
 H339 H 0.88756 -0.15686 0.12706
 H340 H 0.86229 -0.18981 0.07714
 H341 H 0.88760 -0.12038 0.23801
 H342 H 0.91641 -0.08936 0.27246
 H343 H 0.91254 -0.07362 -0.18037
 H344 H 0.88420 -0.10483 -0.21715
 C345 C 0.31318 0.29092 0.36422
 C346 C 0.32435 0.30772 0.39316
 C347 C 0.33854 0.32736 0.42578
 C348 C 0.35759 0.32602 0.52631
 C349 C 0.37242 0.34463 0.55241
 C350 C 0.36841 0.36489 0.47816
 C351 C 0.34896 0.36616 0.37875
 C352 C 0.33417 0.34750 0.35258
 C353 C 0.38508 0.38426 0.50000
 C354 C 0.39262 0.39742 0.38196
 C355 C 0.40917 0.41501 0.40087
 C356 C 0.41842 0.41974 0.53786
 C357 C 0.41085 0.40694 0.65628
 C358 C 0.39428 0.38933 0.63774
 C359 C 0.43614 0.43736 0.55615
 C360 C 0.45119 0.45195 0.57081
 H361 H 0.36126 0.31045 0.58265
 H362 H 0.38747 0.34294 0.62754
 H363 H 0.34522 0.38156 0.32086
 H364 H 0.31953 0.34870 0.27403
 H365 H 0.38622 0.39374 0.27431
 H366 H 0.41499 0.42474 0.30834
 H367 H 0.41792 0.41047 0.76272
 H368 H 0.38863 0.37971 0.73105
 C369 C 0.18466 0.71086 -0.23666
 C370 C 0.17308 0.69370 -0.23867
 C371 C 0.15879 0.67349 -0.23702
 C372 C 0.13908 0.67113 -0.33200
 C373 C 0.12424 0.65213 -0.32488
 C374 C 0.12889 0.63523 -0.22226
 C375 C 0.14901 0.63755 -0.12885
 C376 C 0.16384 0.65660 -0.13613
 C377 C 0.11241 0.61558 -0.21057
 C378 C 0.12192 0.59391 -0.19049
 C379 C 0.10623 0.57548 -0.17915
 C380 C 0.08089 0.57852 -0.18719
 C381 C 0.07130 0.60001 -0.20710
 C382 C 0.08693 0.61841 -0.21903
 C383 C 0.06456 0.55973 -0.17441
 C384 C 0.05025 0.54448 -0.16310
 H385 H 0.13502 0.68410 -0.41045
 H386 H 0.10910 0.65063 -0.39964
 H387 H 0.15288 0.62492 -0.04787
 H388 H 0.17899 0.65833 -0.06164
 H389 H 0.14148 0.59122 -0.18566
 H390 H 0.11385 0.55889 -0.16446
 H391 H 0.05171 0.60256 -0.21313
 H392 H 0.07908 0.63492 -0.23304
 C393 C 0.68429 1.21119 0.25920
 C394 C 0.67259 1.19410 0.25427
 C395 C 0.65823 1.17391 0.25327
 C396 C 0.63798 1.17208 0.16161
 C397 C 0.62292 1.15319 0.16891
 C398 C 0.62797 1.13587 0.26796
 C399 C 0.64874 1.13760 0.35678
 C400 C 0.66372 1.15654 0.34968
 C401 C 0.61120 1.11645 0.28212
 C402 C 0.62044 1.09464 0.29975
 C403 C 0.60452 1.07644 0.31492
 C404 C 0.57921 1.07984 0.31330
 C405 C 0.56986 1.10149 0.29657
 C406 C 0.58572 1.11968 0.28088
 C407 C 0.56274 1.06120 0.32877
 C408 C 0.54852 1.04591 0.34154
 H409 H 0.63362 1.18540 0.08616
 H410 H 0.60728 1.15215 0.09755
 H411 H 0.65298 1.12463 0.43475
 H412 H 0.67931 1.15782 0.42140
 H413 H 0.63996 1.09163 0.30004
 H414 H 0.61195 1.05974 0.32741
 H415 H 0.55030 1.10432 0.29587
 H416 H 0.57808 1.13631 0.26996
 C417 C 0.18452 0.28910 0.15171
 C418 C 0.17257 0.30564 0.12750
 C419 C 0.15752 0.32494 0.10045
 C420 C 0.16530 0.34175 0.00546
 C421 C 0.15018 0.36009 -0.02396
 C422 C 0.12703 0.36177 0.04099
 C423 C 0.11951 0.34489 0.13753
 C424 C 0.13466 0.32662 0.16695
 C425 C 0.11064 0.38089 0.00755
 C426 C 0.08543 0.37737 -0.01281
 C427 C 0.06982 0.39539 -0.04017
 C428 C 0.07915 0.41717 -0.04750
 C429 C 0.10424 0.42085 -0.02923
 C430 C 0.11992 0.40282 -0.00231
 C431 C 0.06274 0.43572 -0.06838
 C432 C 0.04853 0.45096 -0.08326
 H433 H 0.18292 0.34056 -0.04716
 H434 H 0.15634 0.37271 -0.09985
 H435 H 0.10195 0.34588 0.19077
 H436 H 0.12847 0.31371 0.24076
 H437 H 0.07780 0.36065 -0.00808
 H438 H 0.05043 0.39236 -0.05410
 H439 H 0.11163 0.43767 -0.03373
 H440 H 0.13920 0.40606 0.01409
 C441 C 0.68696 0.79183 0.63451
 C442 C 0.67575 0.80861 0.60497
 C443 C 0.66166 0.82828 0.57168
 C444 C 0.64223 0.82698 0.47380
 C445 C 0.62750 0.84567 0.44779
 C446 C 0.63202 0.86596 0.51929
 C447 C 0.65185 0.86719 0.61597
 C448 C 0.66655 0.84847 0.64193
 C449 C 0.61552 0.88543 0.49730
 C450 C 0.60838 0.89864 0.61497
 C451 C 0.59193 0.91630 0.59603
 C452 C 0.58239 0.92103 0.45934
 C453 C 0.58958 0.90817 0.34121
 C454 C 0.60605 0.89050 0.35981
 C455 C 0.56466 0.93861 0.44105
 C456 C 0.54953 0.95311 0.42631
 H457 H 0.63819 0.81140 0.41952
 H458 H 0.61211 0.84402 0.37507
 H459 H 0.65592 0.88260 0.67197
 H460 H 0.68152 0.84965 0.71809
 H461 H 0.61502 0.89497 0.72243
 H462 H 0.58640 0.92609 0.68834
 H463 H 0.58231 0.91171 0.23494
 H464 H 0.61139 0.88083 0.26672
 C465 C 0.81617 0.21071 0.23656
 C466 C 0.82796 0.19367 0.23946
 C467 C 0.84241 0.17358 0.23869
 C468 C 0.83643 0.15609 0.14521
 C469 C 0.85131 0.13710 0.13812
 C470 C 0.87244 0.13545 0.22421
 C471 C 0.87804 0.15295 0.31966
 C472 C 0.86312 0.17188 0.32680
 C473 C 0.88896 0.11588 0.21187
 C474 C 0.91445 0.11895 0.20978
 C475 C 0.93011 0.10064 0.19661
 C476 C 0.92055 0.07899 0.18576
 C477 C 0.89521 0.07571 0.18794
 C478 C 0.87948 0.09405 0.20066
 C479 C 0.93691 0.06027 0.17237
 C480 C 0.95115 0.04501 0.16114
 H481 H 0.82047 0.15727 0.07628
 H482 H 0.84666 0.12400 0.06274
 H483 H 0.89399 0.15199 0.38878
 H484 H 0.86788 0.18529 0.39989
 H485 H 0.92227 0.13558 0.21600
 H486 H 0.94969 0.10337 0.19444
 H487 H 0.88761 0.05901 0.18005
 H488 H 0.85994 0.09117 0.20336
 C489 C 0.31625 0.71019 0.74222
 C490 C 0.32797 0.69312 0.74627
 C491 C 0.34232 0.67294 0.74584
 C492 C 0.36300 0.67107 0.83417
 C493 C 0.37801 0.65220 0.82511
 C494 C 0.37248 0.63493 0.72772
 C495 C 0.35134 0.63672 0.64193
 C496 C 0.33639 0.65563 0.65092
 C497 C 0.38909 0.61545 0.71269
 C498 C 0.37967 0.59364 0.69859
 C499 C 0.39545 0.57538 0.68382
 C500 C 0.42077 0.57871 0.68188
 C501 C 0.43028 0.60036 0.69461
 C502 C 0.41457 0.61861 0.70992
 C503 C 0.43715 0.56002 0.66745
 C504 C 0.45138 0.54475 0.65575
 H505 H 0.36772 0.68434 0.90841
 H506 H 0.39399 0.65113 0.89384
 H507 H 0.34676 0.62382 0.56488
 H508 H 0.32047 0.65695 0.58179
 H509 H 0.36014 0.59070 0.70045
 H510 H 0.38790 0.55868 0.67445
 H511 H 0.44985 0.60315 0.69263
 H512 H 0.42233 0.63525 0.71710
   
