data_POSCAR
  _audit_creation_date              2014-09-24
  _audit_creation_method            'ToBaCCo'
  _symmetry_space_group_name_H-M    'P1'
  _symmetry_Int_Tables_number       1
  _symmetry_cell_setting            triclinic
  loop_
  _symmetry_equiv_pos_as_xyz
 x,y,z
_cell_length_a 43.5106
_cell_length_b 51.8501
_cell_length_c 28.5751
_cell_angle_alpha 89.958300
_cell_angle_beta 89.910700
_cell_angle_gamma 90.071200
loop_
  _atom_site_label
  _atom_site_type_symbol
  _atom_site_fract_x
  _atom_site_fract_y
  _atom_site_fract_z
C1 C 1.27257 0.22376 0.27666
 C2 C 1.24670 0.23616 0.25775
 C3 C 1.22078 0.22143 0.24558
 C4 C 1.22086 0.19470 0.25201
 C5 C 1.24667 0.18249 0.27078
 C6 C 1.27255 0.19701 0.28305
 C7 C 1.24697 0.26434 0.24995
 C8 C 1.27316 0.27644 0.23115
 C9 C 1.27357 0.30315 0.22434
 C10 C 1.24783 0.31793 0.23610
 C11 C 1.22169 0.30603 0.25472
 C12 C 1.22119 0.27933 0.26159
 H13 H 1.29265 0.23492 0.28650
 H14 H 1.20090 0.23063 0.23004
 H15 H 1.29310 0.26506 0.22157
 H16 H 1.20102 0.27036 0.27689
 H17 H 1.24674 0.16169 0.27518
 H18 H 1.24820 0.33870 0.23125
 C19 C 0.77167 -0.27671 0.27307
 C20 C 0.74581 -0.26433 0.25408
 C21 C 0.71982 -0.27904 0.24226
 C22 C 0.71979 -0.30573 0.24917
 C23 C 0.74561 -0.31793 0.26797
 C24 C 0.77157 -0.30342 0.27985
 C25 C 0.74619 -0.23618 0.24587
 C26 C 0.77250 -0.22423 0.22714
 C27 C 0.77307 -0.19757 0.22013
 C28 C 0.74740 -0.18264 0.23148
 C29 C 0.72114 -0.19438 0.25003
 C30 C 0.72045 -0.22105 0.25719
 H31 H 0.79180 -0.26556 0.28269
 H32 H 0.69994 -0.26986 0.22666
 H33 H 0.79245 -0.23564 0.21783
 H34 H 0.70021 -0.22989 0.27252
 H35 H 0.74560 -0.33870 0.27273
 H36 H 0.74801 -0.16191 0.22644
 C37 C 0.77154 0.22452 -0.22797
 C38 C 0.74572 0.23620 -0.24852
 C39 C 0.71984 0.22103 -0.25911
 C40 C 0.71991 0.19459 -0.24942
 C41 C 0.74567 0.18314 -0.22897
 C42 C 0.77147 0.19809 -0.21832
 C43 C 0.74590 0.26411 -0.25925
 C44 C 0.77216 0.27576 -0.27879
 C45 C 0.77260 0.30230 -0.28761
 C46 C 0.74684 0.31736 -0.27713
 C47 C 0.72065 0.30591 -0.25774
 C48 C 0.72009 0.27938 -0.24894
 H49 H 0.79161 0.23596 -0.21930
 H50 H 0.69999 0.22963 -0.27584
 H51 H 0.79220 0.26420 -0.28704
 H52 H 0.69995 0.27080 -0.23283
 H53 H 0.74581 0.16257 -0.22199
 H54 H 0.74732 0.33803 -0.28318
 C55 C 1.27135 -0.27647 -0.21760
 C56 C 1.24535 -0.26481 -0.23761
 C57 C 1.21952 -0.28001 -0.24815
 C58 C 1.21980 -0.30650 -0.23905
 C59 C 1.24573 -0.31798 -0.21921
 C60 C 1.27153 -0.30298 -0.20860
 C61 C 1.24547 -0.23695 -0.24857
 C62 C 1.27158 -0.22537 -0.26870
 C63 C 1.27177 -0.19895 -0.27844
 C64 C 1.24595 -0.18394 -0.26837
 C65 C 1.21991 -0.19532 -0.24842
 C66 C 1.21959 -0.22172 -0.23858
 H67 H 1.29142 -0.26496 -0.20922
 H68 H 1.19959 -0.27142 -0.26468
 H69 H 1.29165 -0.23687 -0.27697
 H70 H 1.19952 -0.23026 -0.22218
 H71 H 1.24604 -0.33865 -0.21307
 H72 H 1.24627 -0.16337 -0.27542
 C73 C 0.21844 0.27176 0.73341
 C74 C 0.23486 0.25022 0.74993
 C75 C 0.21840 0.22865 0.76653
 C76 C 0.18615 0.22864 0.76670
 C77 C 0.17012 0.25020 0.75006
 C78 C 0.18622 0.27173 0.73337
 C79 C 0.26906 0.25022 0.74976
 C80 C 0.28555 0.27225 0.76397
 C81 C 0.31780 0.27224 0.76386
 C82 C 0.33380 0.25022 0.74927
 C83 C 0.31765 0.22822 0.73495
 C84 C 0.28543 0.22821 0.73532
 H85 H 0.23069 0.28840 0.71993
 H86 H 0.23070 0.21203 0.77989
 H87 H 0.27327 0.28925 0.77576
 H88 H 0.27314 0.21119 0.72369
 H89 H 0.14518 0.25025 0.75004
 H90 H 0.35874 0.25015 0.74903
 C91 C 0.71682 0.77173 0.73435
 C92 C 0.73324 0.75020 0.75092
 C93 C 0.71681 0.72859 0.76732
 C94 C 0.68457 0.72850 0.76726
 C95 C 0.66850 0.75002 0.75056
 C96 C 0.68457 0.77164 0.73403
 C97 C 0.76744 0.75027 0.75103
 C98 C 0.78383 0.77226 0.76561
 C99 C 0.81606 0.77229 0.76581
 C100 C 0.83216 0.75036 0.75118
 C101 C 0.81614 0.72838 0.73648
 C102 C 0.78392 0.72832 0.73652
 H103 H 0.72915 0.78839 0.72104
 H104 H 0.72913 0.71198 0.78073
 H105 H 0.77156 0.78924 0.77745
 H106 H 0.77172 0.71131 0.72461
 H107 H 0.64354 0.74995 0.75040
 H108 H 0.85710 0.75040 0.75123
 C109 C 0.71909 0.27156 0.23440
 C110 C 0.73549 0.25001 0.25085
 C111 C 0.71908 0.22834 0.26705
 C112 C 0.68686 0.22828 0.26702
 C113 C 0.67081 0.24980 0.25032
 C114 C 0.68687 0.27141 0.23390
 C115 C 0.76965 0.25009 0.25092
 C116 C 0.78601 0.27178 0.26695
 C117 C 0.81824 0.27186 0.26701
 C118 C 0.83436 0.25030 0.25064
 C119 C 0.81834 0.22864 0.23441
 C120 C 0.78612 0.22850 0.23478
 H121 H 0.73138 0.28828 0.22128
 H122 H 0.73135 0.21168 0.28030
 H123 H 0.77369 0.28847 0.27997
 H124 H 0.77390 0.21174 0.22181
 H125 H 0.64588 0.24971 0.25008
 H126 H 0.85929 0.25039 0.25049
 C127 C 0.21778 0.77157 0.23067
 C128 C 0.23398 0.74993 0.24727
 C129 C 0.21734 0.72848 0.26386
 C130 C 0.18508 0.72868 0.26414
 C131 C 0.16923 0.75031 0.24730
 C132 C 0.18552 0.77175 0.23044
 C133 C 0.26817 0.74978 0.24750
 C134 C 0.28467 0.77154 0.26292
 C135 C 0.31689 0.77143 0.26332
 C136 C 0.33291 0.74957 0.24802
 C137 C 0.31679 0.72782 0.23242
 C138 C 0.28455 0.72790 0.23235
 H139 H 0.23030 0.78813 0.21733
 H140 H 0.22952 0.71180 0.27729
 H141 H 0.27246 0.78844 0.27522
 H142 H 0.27224 0.71109 0.21980
 H143 H 0.14428 0.75046 0.24737
 H144 H 0.35784 0.74952 0.24818
 N145 N 1.05429 0.02618 0.05125
 N146 N 1.07394 0.04500 0.05951
 N147 N 1.03354 -0.02898 0.07938
 N148 N 1.03859 -0.04869 0.10771
 N149 N 1.05459 -0.02801 0.04641
 N150 N 1.07454 -0.04699 0.05140
 N151 N 1.03314 0.02523 0.08406
 N152 N 1.03781 0.04337 0.11564
 C153 C 1.06319 0.05554 0.09954
 C154 C 1.06415 -0.05972 0.08961
 N155 N 0.94600 -0.02839 0.04751
 N156 N 0.92726 -0.04827 0.05129
 N157 N 0.96686 0.02516 0.08477
 N158 N 0.96311 0.04446 0.11451
 N159 N 0.94550 0.02571 0.05237
 N160 N 0.92666 0.04527 0.05907
 N161 N 0.96731 -0.02921 0.07995
 N162 N 0.96369 -0.04974 0.10681
 Mn163 Mn 1.00019 -0.00196 0.08266
 C164 C 0.93867 -0.06133 0.08824
 C165 C 0.93788 0.05669 0.09791
 N166 N 1.05394 -0.02505 -0.05436
 N167 N 1.07357 -0.04380 -0.06312
 N168 N 1.03251 0.03002 -0.08173
 N169 N 1.03729 0.04972 -0.11024
 N170 N 1.05391 0.02909 -0.04939
 N171 N 1.07381 0.04810 -0.05495
 N172 N 1.03254 -0.02415 -0.08670
 N173 N 1.03698 -0.04227 -0.11839
 Mn174 Mn 1.05452 0.00054 -0.00153
 C175 C 1.06251 -0.05434 -0.10290
 C176 C 1.06303 0.06080 -0.09283
 N177 N 0.94511 0.02845 -0.04781
 N178 N 0.92613 0.04816 -0.05077
 N179 N 0.96633 -0.02467 -0.08590
 N180 N 0.96211 -0.04350 -0.11645
 N181 N 0.94536 -0.02566 -0.05285
 N182 N 0.92629 -0.04507 -0.05993
 N183 N 0.96620 0.02970 -0.08066
 N184 N 0.96214 0.05037 -0.10700
 Mn185 Mn 0.94518 0.00000 -0.00018
 Mn186 Mn 0.99938 0.00276 -0.08436
 Cl187 Cl 0.99986 0.00034 -0.00086
 C188 C 0.93709 0.06157 -0.08768
 C189 C 0.93704 -0.05596 -0.09963
 N190 N 1.05326 0.52683 0.55429
 N191 N 1.07319 0.54530 0.56364
 N192 N 1.03244 0.47150 0.58156
 N193 N 1.03733 0.45169 0.60971
 N194 N 1.05377 0.47268 0.54902
 N195 N 1.07374 0.45373 0.55410
 N196 N 1.03196 0.52565 0.58687
 N197 N 1.03678 0.54330 0.61931
 C198 C 1.06238 0.55543 0.60398
 C199 C 1.06307 0.44081 0.59191
 N200 N 0.94498 0.47226 0.54864
 N201 N 0.92633 0.45228 0.55161
 N202 N 0.96575 0.52555 0.58673
 N203 N 0.96157 0.54439 0.61726
 N204 N 0.94464 0.52638 0.55397
 N205 N 0.92552 0.54571 0.56124
 N206 N 0.96618 0.47119 0.58122
 N207 N 0.96255 0.45039 0.60739
 Mn208 Mn 0.99906 0.49845 0.58470
 C209 C 0.93764 0.43890 0.58825
 C210 C 0.93637 0.55668 0.60076
 N211 N 1.05381 0.47579 0.44839
 N212 N 1.07361 0.45713 0.43994
 N213 N 1.03235 0.53074 0.42076
 N214 N 1.03719 0.55044 0.39229
 N215 N 1.05350 0.52995 0.45349
 N216 N 1.07332 0.54905 0.44817
 N217 N 1.03256 0.47655 0.41582
 N218 N 1.03732 0.45843 0.38421
 Mn219 Mn 1.05393 0.50133 0.50129
 C220 C 1.06287 0.44649 0.40004
 C221 C 1.06271 0.56168 0.41007
 N222 N 0.94491 0.52925 0.45361
 N223 N 0.92571 0.54877 0.44978
 N224 N 0.96626 0.47597 0.41583
 N225 N 0.96252 0.45679 0.38585
 N226 N 0.94499 0.47516 0.44846
 N227 N 0.92622 0.45553 0.44168
 N228 N 0.96611 0.53032 0.42090
 N229 N 0.96193 0.55067 0.39382
 Mn230 Mn 0.94457 0.50079 0.50117
 Mn231 Mn 0.99931 0.50340 0.41771
 Cl232 Cl 0.99926 0.50101 0.50122
 C233 C 0.93673 0.56190 0.41256
 C234 C 0.93739 0.44435 0.40256
 N235 N 0.55279 0.02503 0.55407
 N236 N 0.57266 0.04360 0.56309
 N237 N 0.53164 -0.03015 0.58146
 N238 N 0.53647 -0.04987 0.60984
 N239 N 0.55297 -0.02913 0.54891
 N240 N 0.57289 -0.04809 0.55423
 N241 N 0.53144 0.02403 0.58657
 N242 N 0.53618 0.04189 0.61867
 C243 C 0.56179 0.05396 0.60319
 C244 C 0.56218 -0.06086 0.59217
 N245 N 0.44426 -0.02918 0.54822
 N246 N 0.42544 -0.04904 0.55139
 N247 N 0.46520 0.02412 0.58623
 N248 N 0.46110 0.04305 0.61661
 N249 N 0.44409 0.02493 0.55346
 N250 N 0.42506 0.04434 0.56057
 N251 N 0.46539 -0.03023 0.58092
 N252 N 0.46153 -0.05089 0.60737
 Mn253 Mn 0.49839 -0.00308 0.58440
 C254 C 0.43658 -0.06232 0.58827
 C255 C 0.43595 0.05538 0.60001
 N256 N 0.55312 -0.02606 0.44820
 N257 N 0.57304 -0.04459 0.43940
 N258 N 0.53201 0.02900 0.42058
 N259 N 0.53704 0.04865 0.39207
 N260 N 0.55316 0.02809 0.45331
 N261 N 0.57314 0.04706 0.44800
 N262 N 0.53192 -0.02517 0.41556
 N263 N 0.53682 -0.04305 0.38357
 Mn264 Mn 0.55335 -0.00052 0.50112
 C265 C 0.56237 -0.05503 0.39926
 C266 C 0.56266 0.05972 0.40987
 N267 N 0.44447 0.02778 0.45313
 N268 N 0.42547 0.04744 0.44950
 N269 N 0.46566 -0.02550 0.41532
 N270 N 0.46164 -0.04439 0.38483
 N271 N 0.44438 -0.02634 0.44792
 N272 N 0.42531 -0.04572 0.44059
 N273 N 0.46575 0.02885 0.42055
 N274 N 0.46183 0.04934 0.39374
 Mn275 Mn 0.44399 -0.00070 0.50068
 Mn276 Mn 0.49882 0.00181 0.41740
 Cl277 Cl 0.49868 -0.00062 0.50090
 C278 C 0.43667 0.06065 0.41250
 C279 C 0.43636 -0.05673 0.40121
 N280 N 0.55349 0.52523 0.05075
 N281 N 0.57308 0.54409 0.05910
 N282 N 0.53267 0.47012 0.07888
 N283 N 0.53761 0.45044 0.10729
 N284 N 0.55385 0.47106 0.04609
 N285 N 0.57376 0.45209 0.05127
 N286 N 0.53221 0.52431 0.08337
 N287 N 0.53673 0.54251 0.11489
 C288 C 0.56215 0.55468 0.09897
 C289 C 0.56322 0.43939 0.08939
 N290 N 0.44527 0.47056 0.04640
 N291 N 0.42631 0.45084 0.05052
 N292 N 0.46594 0.52421 0.08362
 N293 N 0.46198 0.54344 0.11343
 N294 N 0.44468 0.52471 0.05106
 N295 N 0.42569 0.54418 0.05775
 N296 N 0.46647 0.46983 0.07902
 N297 N 0.46255 0.44953 0.10634
 Mn298 Mn 0.49931 0.49711 0.08184
 C299 C 0.43750 0.43796 0.08784
 C300 C 0.43673 0.55561 0.09673
 N301 N 0.55370 0.47387 -0.05473
 N302 N 0.57383 0.45554 -0.06390
 N303 N 0.53224 0.52889 -0.08241
 N304 N 0.53697 0.54866 -0.11079
 N305 N 0.55353 0.52803 -0.04990
 N306 N 0.57330 0.54715 -0.05521
 N307 N 0.53241 0.47470 -0.08723
 N308 N 0.53743 0.45697 -0.11945
 Mn309 Mn 0.55398 0.49953 -0.00194
 C310 C 0.56316 0.44515 -0.10408
 C311 C 0.56257 0.55984 -0.09313
 N312 N 0.44475 0.52725 -0.04918
 N313 N 0.42597 0.54709 -0.05209
 N314 N 0.46617 0.47412 -0.08688
 N315 N 0.46204 0.45534 -0.11752
 N316 N 0.44505 0.47314 -0.05403
 N317 N 0.42597 0.45377 -0.06137
 N318 N 0.46597 0.52846 -0.08182
 N319 N 0.46222 0.54923 -0.10798
 Mn320 Mn 0.44462 0.49889 -0.00144
 Mn321 Mn 0.49917 0.50157 -0.08519
 Cl322 Cl 0.49931 0.49927 -0.00169
 C323 C 0.43721 0.56052 -0.08877
 C324 C 0.43688 0.44290 -0.10099
 C325 C 1.10941 0.11307 0.16666
 C326 C 1.11453 0.13700 0.14410
 C327 C 1.13504 0.15521 0.16416
 C328 C 1.15026 0.14930 0.20655
 C329 C 1.14379 0.12599 0.23042
 C330 C 1.12327 0.10780 0.21040
 C331 C 1.11747 0.08442 0.23448
 C332 C 1.13154 0.07921 0.27722
 C333 C 1.15163 0.09703 0.29684
 C334 C 1.15780 0.12018 0.27384
 C335 C 1.14019 0.17889 0.14074
 C336 C 1.12544 0.18441 0.09865
 C337 C 1.10539 0.16657 0.07898
 C338 C 1.09993 0.14309 0.10128
 C339 C 1.17428 0.16616 0.22368
 C340 C 1.19513 0.17950 0.23706
 C341 C 1.09177 0.09318 0.14338
 C342 C 1.07820 0.07619 0.12353
 H343 H 1.10193 0.07001 0.22067
 H344 H 1.12681 0.06126 0.29523
 H345 H 1.16250 0.09291 0.33006
 H346 H 1.17350 0.13349 0.29055
 H347 H 1.15551 0.19339 0.15480
 H348 H 1.12958 0.20263 0.08123
 H349 H 1.09398 0.17095 0.04629
 H350 H 1.08406 0.12985 0.08475
 C351 C 1.10961 0.61074 0.67547
 C352 C 1.10984 0.63667 0.65998
 C353 C 1.13029 0.65466 0.68078
 C354 C 1.15031 0.64656 0.71688
 C355 C 1.14888 0.62099 0.73408
 C356 C 1.12842 0.60300 0.71331
 C357 C 1.12764 0.57741 0.73062
 C358 C 1.14655 0.56985 0.76746
 C359 C 1.16661 0.58745 0.78775
 C360 C 1.16788 0.61275 0.77138
 C361 C 1.13052 0.68041 0.66432
 C362 C 1.11099 0.68817 0.62836
 C363 C 1.09095 0.67056 0.60802
 C364 C 1.09030 0.64506 0.62348
 C365 C 1.17389 0.66387 0.73391
 C366 C 1.19440 0.67768 0.74687
 C367 C 1.09167 0.59165 0.65058
 C368 C 1.07780 0.57534 0.62940
 H369 H 1.11235 0.56305 0.71605
 H370 H 1.14563 0.55022 0.78032
 H371 H 1.18126 0.58148 0.81636
 H372 H 1.18379 0.62577 0.78837
 H373 H 1.14566 0.69481 0.67919
 H374 H 1.11141 0.70795 0.61624
 H375 H 1.07581 0.67668 0.58012
 H376 H 1.07427 0.63206 0.60670
 C377 C 0.60900 0.11029 0.67219
 C378 C 0.60759 0.13631 0.65736
 C379 C 0.62821 0.15472 0.67655
 C380 C 0.65001 0.14695 0.71044
 C381 C 0.65020 0.12126 0.72721
 C382 C 0.62961 0.10286 0.70801
 C383 C 0.63048 0.07717 0.72480
 C384 C 0.65112 0.06991 0.75965
 C385 C 0.67129 0.08794 0.77843
 C386 C 0.67096 0.11334 0.76250
 C387 C 0.62677 0.18056 0.66074
 C388 C 0.60544 0.18800 0.62700
 C389 C 0.58524 0.16998 0.60825
 C390 C 0.58622 0.14438 0.62308
 C391 C 0.67366 0.16474 0.72559
 C392 C 0.69429 0.17877 0.73736
 C393 C 0.59094 0.09082 0.64843
 C394 C 0.57707 0.07420 0.62801
 H395 H 0.61517 0.06248 0.71140
 H396 H 0.65145 0.05020 0.77216
 H397 H 0.68727 0.08222 0.80551
 H398 H 0.68702 0.12669 0.77829
 H399 H 0.64196 0.19526 0.67444
 H400 H 0.60458 0.20786 0.61537
 H401 H 0.56869 0.17586 0.58210
 H402 H 0.56999 0.13106 0.60763
 C403 C 0.60790 0.61260 0.16568
 C404 C 0.61340 0.63625 0.14238
 C405 C 0.63396 0.65452 0.16211
 C406 C 0.64880 0.64896 0.20497
 C407 C 0.64182 0.62603 0.22967
 C408 C 0.62129 0.60774 0.20991
 C409 C 0.61502 0.58471 0.23479
 C410 C 0.62859 0.57994 0.27808
 C411 C 0.64867 0.59785 0.29744
 C412 C 0.65533 0.62066 0.27363
 C413 C 0.63956 0.67788 0.13789
 C414 C 0.62514 0.68306 0.09539
 C415 C 0.60500 0.66518 0.07608
 C416 C 0.59913 0.64199 0.09913
 C417 C 0.67296 0.66577 0.22175
 C418 C 0.69394 0.67908 0.23473
 C419 C 0.59042 0.59253 0.14265
 C420 C 0.57699 0.57542 0.12292
 H421 H 0.59946 0.57025 0.22120
 H422 H 0.62349 0.56225 0.29670
 H423 H 0.65915 0.59406 0.33108
 H424 H 0.67101 0.63405 0.29016
 H425 H 0.65496 0.69241 0.15165
 H426 H 0.62962 0.70106 0.07737
 H427 H 0.59384 0.66930 0.04307
 H428 H 0.58321 0.62870 0.08285
 C429 C 0.89301 -0.12439 0.13717
 C430 C 0.89083 -0.12956 0.18566
 C431 C 0.86853 -0.14734 0.20233
 C432 C 0.84864 -0.15975 0.17031
 C433 C 0.85254 -0.15616 0.12159
 C434 C 0.87486 -0.13840 0.10492
 C435 C 0.87802 -0.13468 0.05606
 C436 C 0.85967 -0.14823 0.02457
 C437 C 0.83780 -0.16563 0.04091
 C438 C 0.83414 -0.16960 0.08885
 C439 C 0.86628 -0.15188 0.25106
 C440 C 0.88565 -0.13925 0.28239
 C441 C 0.90748 -0.12182 0.26603
 C442 C 0.91011 -0.11692 0.21823
 C443 C 0.82255 -0.17426 0.18758
 C444 C 0.80019 -0.18531 0.20221
 C445 C 0.91126 -0.10285 0.12083
 C446 C 0.92469 -0.08416 0.10651
 H447 H 0.89483 -0.12144 0.04173
 H448 H 0.86244 -0.14522 -0.01270
 H449 H 0.82361 -0.17613 0.01633
 H450 H 0.81693 -0.18341 0.09996
 H451 H 0.84972 -0.16535 0.26536
 H452 H 0.88370 -0.14300 0.31955
 H453 H 0.92248 -0.11206 0.29050
 H454 H 0.92753 -0.10331 0.20704
 C455 C 0.89218 0.37510 0.63467
 C456 C 0.88823 0.37063 0.68312
 C457 C 0.86572 0.35272 0.69868
 C458 C 0.84734 0.33951 0.66561
 C459 C 0.85311 0.34239 0.61714
 C460 C 0.87575 0.36019 0.60160
 C461 C 0.88104 0.36298 0.55298
 C462 C 0.86447 0.34846 0.52063
 C463 C 0.84210 0.33119 0.53582
 C464 C 0.83634 0.32815 0.58353
 C465 C 0.86174 0.34884 0.74735
 C466 C 0.87961 0.36224 0.77969
 C467 C 0.90163 0.37979 0.76442
 C468 C 0.90595 0.38406 0.71670
 C469 C 0.82096 0.32485 0.68147
 C470 C 0.79842 0.31381 0.69553
 C471 C 0.91037 0.39685 0.61899
 C472 C 0.92374 0.41577 0.60548
 H473 H 0.89824 0.37615 0.53956
 H474 H 0.86907 0.35058 0.48360
 H475 H 0.82922 0.32004 0.51053
 H476 H 0.81887 0.31437 0.59379
 H477 H 0.84499 0.33529 0.76086
 H478 H 0.87636 0.35897 0.81678
 H479 H 0.91548 0.39013 0.78966
 H480 H 0.92347 0.39778 0.70640
 C481 C 0.39056 -0.12570 0.63518
 C482 C 0.39032 -0.13260 0.68306
 C483 C 0.36824 -0.15055 0.69985
 C484 C 0.34661 -0.16139 0.66857
 C485 C 0.34846 -0.15605 0.62010
 C486 C 0.37057 -0.13813 0.60330
 C487 C 0.37171 -0.13267 0.55478
 C488 C 0.35156 -0.14464 0.52373
 C489 C 0.32990 -0.16219 0.54020
 C490 C 0.32823 -0.16787 0.58783
 C491 C 0.36798 -0.15686 0.74804
 C492 C 0.38905 -0.14576 0.77874
 C493 C 0.41066 -0.12816 0.76229
 C494 C 0.41136 -0.12155 0.71501
 C495 C 0.32082 -0.17595 0.68677
 C496 C 0.29869 -0.18693 0.70236
 C497 C 0.40889 -0.10404 0.61950
 C498 C 0.42244 -0.08527 0.60582
 H499 H 0.38827 -0.11925 0.54033
 H500 H 0.35278 -0.14030 0.48670
 H501 H 0.31432 -0.17146 0.51596
 H502 H 0.31111 -0.18172 0.59903
 H503 H 0.35168 -0.17054 0.76236
 H504 H 0.38861 -0.15085 0.81548
 H505 H 0.42698 -0.11961 0.78626
 H506 H 0.42865 -0.10786 0.70371
 C507 C 0.39125 0.37579 0.13946
 C508 C 0.38848 0.37185 0.18826
 C509 C 0.36631 0.35419 0.20573
 C510 C 0.34713 0.34065 0.17420
 C511 C 0.35156 0.34311 0.12534
 C512 C 0.37375 0.36077 0.10788
 C513 C 0.37744 0.36334 0.05887
 C514 C 0.35975 0.34878 0.02800
 C515 C 0.33803 0.33148 0.04512
 C516 C 0.33385 0.32862 0.09323
 C517 C 0.36346 0.35088 0.25471
 C518 C 0.38210 0.36461 0.28554
 C519 C 0.40383 0.38191 0.26840
 C520 C 0.40705 0.38560 0.22032
 C521 C 0.32125 0.32605 0.19195
 C522 C 0.29906 0.31491 0.20699
 C523 C 0.40955 0.39703 0.12191
 C524 C 0.42316 0.41544 0.10679
 H525 H 0.39416 0.37647 0.04394
 H526 H 0.36292 0.35092 -0.00939
 H527 H 0.32435 0.32020 0.02102
 H528 H 0.31677 0.31486 0.10496
 H529 H 0.34696 0.33757 0.26964
 H530 H 0.37969 0.36181 0.32290
 H531 H 0.41827 0.39252 0.29248
 H532 H 0.42435 0.39916 0.20856
 C533 C 0.89030 0.12489 -0.13253
 C534 C 0.89097 0.13316 -0.17968
 C535 C 0.86868 0.15101 -0.19593
 C536 C 0.84588 0.16034 -0.16489
 C537 C 0.84679 0.15367 -0.11689
 C538 C 0.86919 0.13595 -0.10060
 C539 C 0.86958 0.12933 -0.05252
 C540 C 0.84842 0.13999 -0.02143
 C541 C 0.82634 0.15721 -0.03745
 C542 C 0.82538 0.16401 -0.08464
 C543 C 0.86944 0.15877 -0.24340
 C544 C 0.89172 0.14922 -0.27388
 C545 C 0.91352 0.13171 -0.25796
 C546 C 0.91321 0.12365 -0.21141
 C547 C 0.82015 0.17491 -0.18306
 C548 C 0.79816 0.18596 -0.19879
 C549 C 0.90899 0.10328 -0.11784
 C550 C 0.92278 0.08452 -0.10480
 H551 H 0.88640 0.11609 -0.03842
 H552 H 0.84920 0.13489 0.01527
 H553 H 0.80991 0.16539 -0.01315
 H554 H 0.80791 0.17759 -0.09548
 H555 H 0.85301 0.17242 -0.25730
 H556 H 0.89207 0.15544 -0.31004
 H557 H 0.93079 0.12437 -0.28176
 H558 H 0.93070 0.11011 -0.20048
 C559 C 0.88953 0.62381 0.36266
 C560 C 0.88709 0.62848 0.31404
 C561 C 0.86469 0.64603 0.29714
 C562 C 0.84494 0.65873 0.32905
 C563 C 0.84898 0.65554 0.37782
 C564 C 0.87140 0.63800 0.39472
 C565 C 0.87474 0.63473 0.44365
 C566 C 0.85645 0.64849 0.47497
 C567 C 0.83450 0.66566 0.45840
 C568 C 0.83067 0.66920 0.41040
 C569 C 0.86224 0.65012 0.24832
 C570 C 0.88149 0.63724 0.21710
 C571 C 0.90343 0.62004 0.23368
 C572 C 0.90627 0.61561 0.28158
 C573 C 0.81903 0.67332 0.31168
 C574 C 0.79689 0.68456 0.29694
 C575 C 0.90820 0.60268 0.37943
 C576 C 0.92210 0.58434 0.39403
 H577 H 0.89162 0.62168 0.45815
 H578 H 0.85936 0.64582 0.51228
 H579 H 0.82037 0.67632 0.48284
 H580 H 0.81338 0.68284 0.39912
 H581 H 0.84560 0.66339 0.23382
 H582 H 0.87939 0.64064 0.17986
 H583 H 0.91834 0.61010 0.20930
 H584 H 0.92375 0.60216 0.29292
 C585 C 0.39019 0.12332 0.36414
 C586 C 0.38787 0.12853 0.31569
 C587 C 0.36561 0.14636 0.29932
 C588 C 0.34587 0.15879 0.33159
 C589 C 0.34981 0.15507 0.38026
 C590 C 0.37208 0.13725 0.39663
 C591 C 0.37528 0.13342 0.44544
 C592 C 0.35702 0.14691 0.47716
 C593 C 0.33521 0.16437 0.46111
 C594 C 0.33152 0.16846 0.41323
 C595 C 0.36325 0.15095 0.25063
 C596 C 0.38245 0.13830 0.21904
 C597 C 0.40426 0.12084 0.23510
 C598 C 0.40701 0.11590 0.28286
 C599 C 0.32000 0.17360 0.31458
 C600 C 0.29788 0.18494 0.30004
 C601 C 0.40866 0.10191 0.38026
 C602 C 0.42235 0.08334 0.39439
 H603 H 0.39204 0.12012 0.45955
 H604 H 0.35981 0.14380 0.51439
 H605 H 0.32110 0.17482 0.48588
 H606 H 0.31436 0.18231 0.40236
 H607 H 0.34671 0.16444 0.23653
 H608 H 0.38041 0.14208 0.18191
 H609 H 0.41913 0.11107 0.21044
 H610 H 0.42438 0.10226 0.29379
 C611 C 0.39132 0.62415 -0.13381
 C612 C 0.38706 0.62888 -0.18209
 C613 C 0.36444 0.64680 -0.19686
 C614 C 0.34625 0.65974 -0.16316
 C615 C 0.35217 0.65649 -0.11486
 C616 C 0.37490 0.63866 -0.10010
 C617 C 0.38022 0.63537 -0.05160
 C618 C 0.36352 0.64937 -0.01862
 C619 C 0.34114 0.66674 -0.03308
 C620 C 0.33541 0.67033 -0.08064
 C621 C 0.36010 0.65092 -0.24537
 C622 C 0.37767 0.63768 -0.27833
 C623 C 0.39979 0.62008 -0.26384
 C624 C 0.40451 0.61563 -0.21628
 C625 C 0.31981 0.67442 -0.17827
 C626 C 0.29726 0.68547 -0.19192
 C627 C 0.40972 0.60246 -0.11890
 C628 C 0.42323 0.58359 -0.10579
 H629 H 0.39747 0.62213 -0.03875
 H630 H 0.36801 0.64676 0.01832
 H631 H 0.32819 0.67754 -0.00733
 H632 H 0.31790 0.68414 -0.09031
 H633 H 0.34325 0.66449 -0.25831
 H634 H 0.37409 0.64109 -0.31529
 H635 H 0.41338 0.60983 -0.28955
 H636 H 0.42207 0.60187 -0.20659
 C637 C 1.10856 -0.11151 -0.17106
 C638 C 1.12733 -0.10473 -0.20964
 C639 C 1.14788 -0.12316 -0.22880
 C640 C 1.14945 -0.14819 -0.20923
 C641 C 1.12933 -0.15544 -0.17254
 C642 C 1.10878 -0.13700 -0.15336
 C643 C 1.08917 -0.14449 -0.11619
 C644 C 1.08983 -0.16955 -0.09855
 C645 C 1.10997 -0.18760 -0.11733
 C646 C 1.12958 -0.18073 -0.15389
 C647 C 1.16686 -0.11587 -0.26688
 C648 C 1.16549 -0.09106 -0.28554
 C649 C 1.14535 -0.07301 -0.26678
 C650 C 1.12645 -0.07966 -0.22924
 C651 C 1.17338 -0.16568 -0.22429
 C652 C 1.19420 -0.17953 -0.23579
 C653 C 1.09089 -0.09177 -0.14748
 C654 C 1.07738 -0.07489 -0.12729
 H655 H 1.07305 -0.13112 -0.10059
 H656 H 1.07464 -0.17499 -0.07016
 H657 H 1.11039 -0.20705 -0.10351
 H658 H 1.14478 -0.19544 -0.16750
 H659 H 1.18282 -0.12928 -0.28274
 H660 H 1.18014 -0.08581 -0.31470
 H661 H 1.14436 -0.05376 -0.28139
 H662 H 1.11107 -0.06499 -0.21595
 C663 C 1.10965 0.38893 0.33400
 C664 C 1.12590 0.39463 0.29231
 C665 C 1.14671 0.37628 0.27349
 C666 C 1.15104 0.35238 0.29649
 C667 C 1.13350 0.34612 0.33667
 C668 C 1.11271 0.36448 0.35552
 C669 C 1.09574 0.35801 0.39616
 C670 C 1.09919 0.33401 0.41752
 C671 C 1.11954 0.31603 0.39905
 C672 C 1.13658 0.32192 0.35910
 C673 C 1.16314 0.38253 0.23220
 C674 C 1.15906 0.40624 0.21011
 C675 C 1.13867 0.42420 0.22851
 C676 C 1.12223 0.41857 0.26916
 C677 C 1.17510 0.33515 0.28083
 C678 C 1.19596 0.32151 0.26858
 C679 C 1.09173 0.40888 0.35659
 C680 C 1.07798 0.42587 0.37612
 H681 H 1.07956 0.37135 0.41168
 H682 H 1.08600 0.32935 0.44855
 H683 H 1.12212 0.29741 0.41576
 H684 H 1.15206 0.30729 0.34592
 H685 H 1.17919 0.36914 0.21649
 H686 H 1.17178 0.41070 0.17853
 H687 H 1.13556 0.44259 0.21121
 H688 H 1.10656 0.43312 0.28208
 C689 C 0.60970 -0.11134 0.33063
 C690 C 0.62838 -0.10427 0.29209
 C691 C 0.64908 -0.12248 0.27258
 C692 C 0.65091 -0.14760 0.29176
 C693 C 0.63099 -0.15510 0.32853
 C694 C 0.61029 -0.13689 0.34807
 C695 C 0.59088 -0.14465 0.38529
 C696 C 0.59187 -0.16976 0.40266
 C697 C 0.61214 -0.18760 0.38354
 C698 C 0.63156 -0.18045 0.34691
 C699 C 0.66792 -0.11490 0.23452
 C700 C 0.66628 -0.09002 0.21623
 C701 C 0.64600 -0.07219 0.23532
 C702 C 0.62723 -0.07912 0.27285
 C703 C 0.67477 -0.16497 0.27597
 C704 C 0.69551 -0.17873 0.26373
 C705 C 0.59165 -0.09187 0.35432
 C706 C 0.57774 -0.07525 0.37464
 H707 H 0.57467 -0.13146 0.40116
 H708 H 0.57683 -0.17541 0.43109
 H709 H 0.61282 -0.20708 0.39713
 H710 H 0.64688 -0.19500 0.33303
 H711 H 0.68397 -0.12812 0.21840
 H712 H 0.68081 -0.08456 0.18708
 H713 H 0.64480 -0.05289 0.22098
 H714 H 0.61175 -0.06461 0.28642
 C715 C 0.61055 0.38944 -0.17445
 C716 C 0.62965 0.39690 -0.21226
 C717 C 0.65003 0.37871 -0.23262
 C718 C 0.65113 0.35321 -0.21501
 C719 C 0.63081 0.34538 -0.17899
 C720 C 0.61041 0.36357 -0.15862
 C721 C 0.59055 0.35544 -0.12221
 C722 C 0.59082 0.33000 -0.10644
 C723 C 0.61079 0.31219 -0.12635
 C724 C 0.63064 0.31969 -0.16220
 C725 C 0.66927 0.38666 -0.26995
 C726 C 0.66833 0.41189 -0.28674
 C727 C 0.64837 0.42970 -0.26683
 C728 C 0.62922 0.42241 -0.22997
 C729 C 0.67470 0.33572 -0.23149
 C730 C 0.69522 0.32180 -0.24404
 C731 C 0.59262 0.40873 -0.15001
 C732 C 0.57871 0.42516 -0.12916
 H733 H 0.57455 0.36859 -0.10577
 H734 H 0.57543 0.32407 -0.07862
 H735 H 0.61090 0.29245 -0.11398
 H736 H 0.64570 0.30515 -0.17674
 H737 H 0.68511 0.37347 -0.28666
 H738 H 0.68315 0.41764 -0.31537
 H739 H 0.64771 0.44927 -0.28000
 H740 H 0.61401 0.43692 -0.21572
 C741 C 1.10733 0.12357 -0.14872
 C742 C 1.09305 0.14811 -0.14961
 C743 C 1.10925 0.16984 -0.16755
 C744 C 1.13967 0.16696 -0.18449
 C745 C 1.15387 0.14240 -0.18393
 C746 C 1.13767 0.12066 -0.16601
 C747 C 1.15242 0.09634 -0.16576
 C748 C 1.18227 0.09355 -0.18274
 C749 C 1.19808 0.11478 -0.20026
 C750 C 1.18416 0.13897 -0.20092
 C751 C 1.09447 0.19414 -0.16801
 C752 C 1.06457 0.19692 -0.15122
 C753 C 1.04876 0.17569 -0.13366
 C754 C 1.06272 0.15152 -0.13277
 C755 C 1.15642 0.18925 -0.20222
 C756 C 1.17039 0.20773 -0.21684
 C757 C 1.09104 0.10142 -0.12943
 C758 C 1.07795 0.08295 -0.11301
 H759 H 1.14107 0.07925 -0.15251
 H760 H 1.19320 0.07481 -0.18229
 H761 H 1.22126 0.11251 -0.21343
 H762 H 1.19740 0.15489 -0.21490
 H763 H 1.10581 0.21122 -0.18134
 H764 H 1.05360 0.21564 -0.15184
 H765 H 1.02554 0.17796 -0.12066
 H766 H 1.04948 0.13559 -0.11882
 C767 C 1.10686 0.62436 0.35332
 C768 C 1.09148 0.64821 0.34743
 C769 C 1.10746 0.66981 0.32845
 C770 C 1.13878 0.66748 0.31547
 C771 C 1.15412 0.64361 0.32117
 C772 C 1.13814 0.62202 0.34014
 C773 C 1.15405 0.59841 0.34554
 C774 C 1.18482 0.59616 0.33257
 C775 C 1.20041 0.61724 0.31403
 C776 C 1.18536 0.64073 0.30833
 C777 C 1.09155 0.69340 0.32296
 C778 C 1.06077 0.69564 0.33583
 C779 C 1.04517 0.67457 0.35440
 C780 C 1.06023 0.65108 0.36021
 C781 C 1.15529 0.68965 0.29665
 C782 C 1.16920 0.70798 0.28126
 C783 C 1.09066 0.60230 0.37320
 C784 C 1.07764 0.58385 0.38988
 H785 H 1.14293 0.58145 0.35980
 H786 H 1.19663 0.57795 0.33694
 H787 H 1.22431 0.61538 0.30399
 H788 H 1.19848 0.65656 0.29375
 H789 H 1.10270 0.71034 0.30866
 H790 H 1.04895 0.71384 0.33137
 H791 H 1.02126 0.67642 0.36435
 H792 H 1.04713 0.63524 0.37479
 C793 C 0.60726 0.12226 0.35370
 C794 C 0.59231 0.14641 0.34962
 C795 C 0.60849 0.16808 0.33136
 C796 C 0.63957 0.16551 0.31726
 C797 C 0.65445 0.14132 0.32099
 C798 C 0.63826 0.11965 0.33923
 C799 C 0.65370 0.09571 0.34262
 C800 C 0.68420 0.09321 0.32839
 C801 C 0.70000 0.11437 0.31059
 C802 C 0.68542 0.13819 0.30687
 C803 C 0.59303 0.19199 0.32771
 C804 C 0.56247 0.19446 0.34166
 C805 C 0.54667 0.17330 0.35949
 C806 C 0.56130 0.14951 0.36352
 C807 C 0.65629 0.18775 0.29923
 C808 C 0.67022 0.20620 0.28445
 C809 C 0.59094 0.10020 0.37323
 C810 C 0.57777 0.08180 0.38976
 H811 H 0.64238 0.07868 0.35621
 H812 H 0.69563 0.07474 0.33120
 H813 H 0.72369 0.11232 0.29959
 H814 H 0.69868 0.15408 0.29279
 H815 H 0.60435 0.20901 0.31405
 H816 H 0.55099 0.21289 0.33860
 H817 H 0.52293 0.17532 0.37026
 H818 H 0.54804 0.13362 0.37757
 C819 C 0.60648 0.62299 -0.14835
 C820 C 0.59182 0.64735 -0.14991
 C821 C 0.60784 0.66919 -0.16780
 C822 C 0.63847 0.66659 -0.18402
 C823 C 0.65307 0.64220 -0.18270
 C824 C 0.63705 0.62036 -0.16484
 C825 C 0.65220 0.59622 -0.16383
 C826 C 0.68228 0.59371 -0.18001
 C827 C 0.69792 0.61504 -0.19747
 C828 C 0.68360 0.63905 -0.19888
 C829 C 0.59267 0.69332 -0.16894
 C830 C 0.56257 0.69582 -0.15287
 C831 C 0.54694 0.67449 -0.13536
 C832 C 0.56128 0.65049 -0.13382
 C833 C 0.65502 0.68899 -0.20175
 C834 C 0.66886 0.70754 -0.21635
 C835 C 0.59033 0.60071 -0.12925
 C836 C 0.57736 0.58213 -0.11303
 H837 H 0.64101 0.57906 -0.15058
 H838 H 0.69352 0.57510 -0.17898
 H839 H 0.72128 0.61298 -0.21002
 H840 H 0.69672 0.65507 -0.21278
 H841 H 0.60387 0.71047 -0.18226
 H842 H 0.55131 0.71442 -0.15401
 H843 H 0.52355 0.67655 -0.12292
 H844 H 0.54816 0.63447 -0.11992
 C845 C 0.89458 -0.11931 -0.15607
 C846 C 0.86236 -0.11839 -0.16308
 C847 C 0.84647 -0.14055 -0.17972
 C848 C 0.86283 -0.16355 -0.18926
 C849 C 0.89507 -0.16442 -0.18261
 C850 C 0.91098 -0.14225 -0.16598
 C851 C 0.94317 -0.14365 -0.15945
 C852 C 0.95922 -0.16628 -0.16906
 C853 C 0.94369 -0.18793 -0.18532
 C854 C 0.91199 -0.18712 -0.19208
 C855 C 0.81427 -0.13914 -0.18631
 C856 C 0.79821 -0.11651 -0.17672
 C857 C 0.81373 -0.09487 -0.16041
 C858 C 0.84542 -0.09569 -0.15361
 C859 C 0.84643 -0.18634 -0.20544
 C860 C 0.83262 -0.20520 -0.21864
 C861 C 0.91058 -0.09688 -0.13743
 C862 C 0.92316 -0.07822 -0.12093
 H863 H 0.95626 -0.12730 -0.14691
 H864 H 0.98384 -0.16702 -0.16387
 H865 H 0.95627 -0.20546 -0.19274
 H866 H 0.90093 -0.20446 -0.20479
 H867 H 0.80116 -0.15546 -0.19892
 H868 H 0.77359 -0.11577 -0.18196
 H869 H 0.80114 -0.07735 -0.15300
 H870 H 0.85644 -0.07834 -0.14092
 C871 C 0.89597 0.37965 0.34967
 C872 C 0.86729 0.37244 0.36936
 C873 C 0.85169 0.35014 0.35274
 C874 C 0.86474 0.33519 0.31631
 C875 C 0.89353 0.34227 0.29689
 C876 C 0.90918 0.36454 0.31363
 C877 C 0.93791 0.37118 0.29369
 C878 C 0.95085 0.35626 0.25825
 C879 C 0.93557 0.33451 0.24189
 C880 C 0.90723 0.32751 0.26085
 C881 C 0.82317 0.34329 0.37318
 C882 C 0.81036 0.35806 0.40893
 C883 C 0.82550 0.37993 0.42501
 C884 C 0.85365 0.38712 0.40562
 C885 C 0.84845 0.31267 0.29868
 C886 C 0.83475 0.29405 0.28417
 C887 C 0.91175 0.40254 0.36675
 C888 C 0.92405 0.42161 0.38216
 H889 H 0.95064 0.38794 0.30528
 H890 H 0.97285 0.36162 0.24340
 H891 H 0.94573 0.32298 0.21437
 H892 H 0.89624 0.31041 0.24702
 H893 H 0.81049 0.32645 0.36184
 H894 H 0.78856 0.35250 0.42423
 H895 H 0.81547 0.39133 0.45283
 H896 H 0.86458 0.40423 0.41949
 C897 C 0.39431 -0.12025 0.34455
 C898 C 0.36176 -0.12122 0.34518
 C899 C 0.34615 -0.14343 0.32811
 C900 C 0.36314 -0.16460 0.31050
 C901 C 0.39567 -0.16358 0.30964
 C902 C 0.41129 -0.14135 0.32666
 C903 C 0.44380 -0.14084 0.32546
 C904 C 0.46044 -0.16167 0.30799
 C905 C 0.44520 -0.18339 0.29141
 C906 C 0.41319 -0.18444 0.29213
 C907 C 0.31362 -0.14391 0.32921
 C908 C 0.29697 -0.12308 0.34665
 C909 C 0.31221 -0.10139 0.36334
 C910 C 0.34421 -0.10037 0.36271
 C911 C 0.34709 -0.18741 0.29353
 C912 C 0.33348 -0.20622 0.27966
 C913 C 0.41018 -0.09777 0.36328
 C914 C 0.42264 -0.07906 0.37984
 H915 H 0.45667 -0.12435 0.33794
 H916 H 0.48530 -0.16095 0.30732
 H917 H 0.45824 -0.19952 0.27789
 H918 H 0.40237 -0.20175 0.27884
 H919 H 0.30071 -0.16034 0.31661
 H920 H 0.27211 -0.12377 0.34718
 H921 H 0.29916 -0.08525 0.37682
 H922 H 0.35498 -0.08306 0.37603
 C923 C 0.39498 0.37964 -0.15881
 C924 C 0.36319 0.38097 -0.16925
 C925 C 0.34750 0.35879 -0.18625
 C926 C 0.36365 0.33535 -0.19270
 C927 C 0.39552 0.33411 -0.18289
 C928 C 0.41122 0.35631 -0.16590
 C929 C 0.44302 0.35453 -0.15617
 C930 C 0.45891 0.33152 -0.16306
 C931 C 0.44359 0.30985 -0.17969
 C932 C 0.41226 0.31102 -0.18954
 C933 C 0.31573 0.36062 -0.19630
 C934 C 0.29988 0.38367 -0.18975
 C935 C 0.31519 0.40533 -0.17309
 C936 C 0.34646 0.40411 -0.16289
 C937 C 0.34734 0.31249 -0.20874
 C938 C 0.33355 0.29358 -0.22172
 C939 C 0.41067 0.40206 -0.13954
 C940 C 0.42307 0.42069 -0.12260
 H941 H 0.45595 0.37087 -0.14324
 H942 H 0.48324 0.33050 -0.15547
 H943 H 0.45605 0.29203 -0.18500
 H944 H 0.40136 0.29366 -0.20245
 H945 H 0.30280 0.34430 -0.20937
 H946 H 0.27559 0.38473 -0.19766
 H947 H 0.30277 0.42319 -0.16804
 H948 H 0.35735 0.42149 -0.15007
 C949 C 1.10829 -0.12280 0.14449
 C950 C 1.13938 -0.12050 0.15862
 C951 C 1.15527 -0.14234 0.17662
 C952 C 1.14003 -0.16641 0.18048
 C953 C 1.10891 -0.16869 0.16650
 C954 C 1.09302 -0.14686 0.14849
 C955 C 1.06196 -0.14969 0.13476
 C956 C 1.04701 -0.17338 0.13865
 C957 C 1.06253 -0.19470 0.15620
 C958 C 1.09312 -0.19250 0.17002
 C959 C 1.18634 -0.13951 0.19037
 C960 C 1.20128 -0.11582 0.18652
 C961 C 1.18576 -0.09449 0.16898
 C962 C 1.15518 -0.09670 0.15514
 C963 C 1.15638 -0.18878 0.19866
 C964 C 1.17004 -0.20731 0.21365
 C965 C 1.09219 -0.10052 0.12540
 C966 C 1.07916 -0.08196 0.10927
 H967 H 1.04891 -0.13366 0.12092
 H968 H 1.02324 -0.17519 0.12799
 H969 H 1.05081 -0.21305 0.15914
 H970 H 1.10422 -0.20964 0.18346
 H971 H 1.19940 -0.15553 0.20421
 H972 H 1.22505 -0.11400 0.19721
 H973 H 1.19749 -0.07613 0.16608
 H974 H 1.14410 -0.07955 0.14173
 C975 C 1.10728 0.37791 0.64698
 C976 C 1.09206 0.35387 0.65145
 C977 C 1.10807 0.33213 0.66957
 C978 C 1.13925 0.33453 0.68312
 C979 C 1.15443 0.35860 0.67890
 C980 C 1.13842 0.38034 0.66079
 C981 C 1.15415 0.40415 0.65686
 C982 C 1.18478 0.40646 0.67043
 C983 C 1.20040 0.38524 0.68814
 C984 C 1.18553 0.36154 0.69240
 C985 C 1.09233 0.30833 0.67363
 C986 C 1.06168 0.30604 0.66017
 C987 C 1.04605 0.32726 0.64246
 C988 C 1.06094 0.35095 0.63807
 C989 C 1.15579 0.31223 0.70108
 C990 C 1.16964 0.29378 0.71585
 C991 C 1.09109 0.40009 0.62779
 C992 C 1.07803 0.41860 0.61160
 H993 H 1.14298 0.42123 0.64332
 H994 H 1.19645 0.42483 0.66718
 H995 H 1.22419 0.38714 0.69865
 H996 H 1.19867 0.34560 0.70638
 H997 H 1.10351 0.29127 0.68723
 H998 H 1.04999 0.28768 0.66352
 H999 H 1.02224 0.32537 0.63206
 H1000 H 1.04781 0.36690 0.62413
 C1001 C 0.60641 -0.12353 0.64807
 C1002 C 0.59073 -0.14714 0.65544
 C1003 C 0.60678 -0.16883 0.67368
 C1004 C 0.63846 -0.16681 0.68448
 C1005 C 0.65410 -0.14315 0.67742
 C1006 C 0.63805 -0.12147 0.65918
 C1007 C 0.65425 -0.09807 0.65238
 C1008 C 0.68537 -0.09611 0.66329
 C1009 C 0.70103 -0.11728 0.68112
 C1010 C 0.68570 -0.14058 0.68816
 C1011 C 0.59058 -0.19221 0.68064
 C1012 C 0.55942 -0.19414 0.66992
 C1013 C 0.54375 -0.17296 0.65210
 C1014 C 0.55910 -0.14969 0.64487
 C1015 C 0.65501 -0.18908 0.70254
 C1016 C 0.66887 -0.20752 0.71739
 C1017 C 0.59018 -0.10144 0.62863
 C1018 C 0.57712 -0.08300 0.61219
 H1019 H 0.64308 -0.08105 0.63862
 H1020 H 0.69739 -0.07806 0.65788
 H1021 H 0.72521 -0.11566 0.68956
 H1022 H 0.69889 -0.15650 0.70212
 H1023 H 0.60177 -0.20922 0.69445
 H1024 H 0.54738 -0.21216 0.67548
 H1025 H 0.51955 -0.17456 0.64384
 H1026 H 0.54592 -0.13376 0.63097
 C1027 C 0.60765 0.37684 0.14517
 C1028 C 0.63882 0.37942 0.15872
 C1029 C 0.65493 0.35786 0.17729
 C1030 C 0.63983 0.33379 0.18222
 C1031 C 0.60864 0.33122 0.16878
 C1032 C 0.59253 0.35278 0.15020
 C1033 C 0.56142 0.34968 0.13692
 C1034 C 0.54663 0.32598 0.14186
 C1035 C 0.56235 0.30492 0.16004
 C1036 C 0.59301 0.30740 0.17340
 C1037 C 0.68606 0.36095 0.19049
 C1038 C 0.70087 0.38464 0.18551
 C1039 C 0.68514 0.40570 0.16737
 C1040 C 0.65448 0.40323 0.15407
 C1041 C 0.65643 0.31168 0.20078
 C1042 C 0.67029 0.29335 0.21600
 C1043 C 0.59133 0.39886 0.12572
 C1044 C 0.57822 0.41728 0.10933
 H1045 H 0.54822 0.36550 0.12261
 H1046 H 0.52282 0.32394 0.13152
 H1047 H 0.55075 0.28656 0.16381
 H1048 H 0.60426 0.29047 0.18736
 H1049 H 0.69928 0.34514 0.20478
 H1050 H 0.72469 0.38666 0.19580
 H1051 H 0.69676 0.42406 0.16356
 H1052 H 0.64325 0.42018 0.14014
 C1053 C 0.89631 0.12134 0.15057
 C1054 C 0.86514 0.12553 0.13838
 C1055 C 0.84948 0.14776 0.15512
 C1056 C 0.86498 0.16564 0.18424
 C1057 C 0.89622 0.16159 0.19603
 C1058 C 0.91193 0.13942 0.17907
 C1059 C 0.94317 0.13588 0.19116
 C1060 C 0.95847 0.15370 0.21925
 C1061 C 0.94311 0.17533 0.23592
 C1062 C 0.91233 0.17932 0.22457
 C1063 C 0.81842 0.15157 0.14218
 C1064 C 0.80322 0.13391 0.11363
 C1065 C 0.81847 0.11213 0.09747
 C1066 C 0.84907 0.10790 0.10955
 C1067 C 0.84870 0.18807 0.20218
 C1068 C 0.83495 0.20658 0.21697
 C1069 C 0.91218 0.09852 0.13343
 C1070 C 0.92452 0.07945 0.11811
 H1071 H 0.95606 0.11936 0.17899
 H1072 H 0.98239 0.15070 0.22811
 H1073 H 0.95509 0.18911 0.25775
 H1074 H 0.90135 0.19645 0.23829
 H1075 H 0.80559 0.16823 0.15388
 H1076 H 0.77948 0.13716 0.10402
 H1077 H 0.80658 0.09846 0.07530
 H1078 H 0.85996 0.09072 0.09594
 C1079 C 0.89423 0.62000 0.65772
 C1080 C 0.86205 0.61910 0.66521
 C1081 C 0.84631 0.64126 0.68211
 C1082 C 0.86281 0.66425 0.69143
 C1083 C 0.89503 0.66509 0.68437
 C1084 C 0.91077 0.64292 0.66748
 C1085 C 0.94294 0.64429 0.66054
 C1086 C 0.95913 0.66690 0.67001
 C1087 C 0.94375 0.68855 0.68652
 C1088 C 0.91207 0.68777 0.69368
 C1089 C 0.81414 0.63986 0.68918
 C1090 C 0.79795 0.61725 0.67980
 C1091 C 0.81331 0.59561 0.66323
 C1092 C 0.84498 0.59641 0.65596
 C1093 C 0.84653 0.68706 0.70772
 C1094 C 0.83276 0.70591 0.72095
 C1095 C 0.91006 0.59758 0.63881
 C1096 C 0.92254 0.57893 0.62214
 H1097 H 0.95591 0.62794 0.64780
 H1098 H 0.98374 0.66761 0.66449
 H1099 H 0.95644 0.70606 0.69381
 H1100 H 0.90114 0.70511 0.70659
 H1101 H 0.80114 0.65618 0.70203
 H1102 H 0.77335 0.61652 0.68542
 H1103 H 0.80063 0.57809 0.65597
 H1104 H 0.85588 0.57906 0.64308
 C1105 C 0.39451 0.11919 0.65640
 C1106 C 0.36240 0.11846 0.66467
 C1107 C 0.34697 0.14078 0.68149
 C1108 C 0.36368 0.16376 0.68995
 C1109 C 0.39583 0.16443 0.68210
 C1110 C 0.41128 0.14209 0.66529
 C1111 C 0.44339 0.14329 0.65758
 C1112 C 0.45980 0.16588 0.66623
 C1113 C 0.44471 0.18770 0.68266
 C1114 C 0.41310 0.18710 0.69056
 C1115 C 0.31486 0.13955 0.68938
 C1116 C 0.29847 0.11693 0.68090
 C1117 C 0.31354 0.09513 0.66440
 C1118 C 0.34512 0.09577 0.65631
 C1119 C 0.34770 0.18673 0.70620
 C1120 C 0.33413 0.20568 0.71943
 C1121 C 0.41004 0.09658 0.63764
 C1122 C 0.42230 0.07778 0.62114
 H1123 H 0.45614 0.12680 0.64486
 H1124 H 0.48435 0.16646 0.66016
 H1125 H 0.45757 0.20520 0.68934
 H1126 H 0.40240 0.20455 0.70336
 H1127 H 0.30210 0.15600 0.70220
 H1128 H 0.27393 0.11633 0.68717
 H1129 H 0.30069 0.07762 0.65786
 H1130 H 0.35579 0.07830 0.64352
 C1131 C 0.39486 0.62010 0.14993
 C1132 C 0.36533 0.62635 0.13243
 C1133 C 0.34958 0.64849 0.14944
 C1134 C 0.36339 0.66430 0.18394
 C1135 C 0.39304 0.65819 0.20112
 C1136 C 0.40882 0.63607 0.18403
 C1137 C 0.43845 0.63047 0.20160
 C1138 C 0.45215 0.64625 0.23508
 C1139 C 0.43674 0.66783 0.25184
 C1140 C 0.40750 0.67381 0.23520
 C1141 C 0.32015 0.65433 0.13126
 C1142 C 0.30665 0.63879 0.09723
 C1143 C 0.32200 0.61715 0.08065
 C1144 C 0.35098 0.61090 0.09794
 C1145 C 0.34709 0.68684 0.20156
 C1146 C 0.33335 0.70550 0.21582
 C1147 C 0.41076 0.59730 0.13257
 C1148 C 0.42317 0.57829 0.11706
 H1149 H 0.45133 0.61390 0.18960
 H1150 H 0.47487 0.64170 0.24808
 H1151 H 0.44749 0.68002 0.27785
 H1152 H 0.39643 0.69081 0.24926
 H1153 H 0.30728 0.67095 0.14307
 H1154 H 0.28415 0.64357 0.08368
 H1155 H 0.31142 0.60514 0.05420
 H1156 H 0.36200 0.59389 0.08384
   
