data_POSCAR
  _audit_creation_date              2014-09-24
  _audit_creation_method            'ToBaCCo'
  _symmetry_space_group_name_H-M    'P1'
  _symmetry_Int_Tables_number       1
  _symmetry_cell_setting            triclinic
  loop_
  _symmetry_equiv_pos_as_xyz
 x,y,z
_cell_length_a 39.7039
_cell_length_b 40.3711
_cell_length_c 38.5373
_cell_angle_alpha 90.051100
_cell_angle_beta 85.876800
_cell_angle_gamma 93.848700
loop_
  _atom_site_label
  _atom_site_type_symbol
  _atom_site_fract_x
  _atom_site_fract_y
  _atom_site_fract_z
C1 C 0.20482 0.54311 1.02655
 H2 H 0.20693 0.56209 1.00656
 C3 C 0.17857 0.54287 1.05273
 H4 H 0.16164 0.56279 1.05305
 C5 C 0.22477 0.49439 1.04955
 H6 H 0.24178 0.47462 1.04743
 C7 C 0.19929 0.49338 1.07640
 H8 H 0.19755 0.47232 1.09389
 N9 N 0.22688 0.51878 1.02512
 C10 C 0.31129 0.55424 0.95328
 H11 H 0.30847 0.53600 0.93292
 C12 C 0.33800 0.57848 0.95036
 H13 H 0.35496 0.57910 0.92707
 C14 C 0.29231 0.57503 1.00823
 H15 H 0.27480 0.57301 1.03107
 C16 C 0.31936 0.59923 1.00683
 H17 H 0.32244 0.61544 1.02892
 Zn18 Zn 0.25681 0.51617 0.98506
 N19 N 0.28912 0.55289 0.98184
 C20 C 0.23282 0.53985 0.92271
 N21 N 0.22941 0.51498 0.94673
 C22 C 0.20358 0.49107 0.94653
 C23 C 0.17947 0.49200 0.92188
 C24 C 0.20947 0.54161 0.89754
 C25 C 0.30347 0.47820 1.01316
 C26 C 0.32204 0.45083 1.01860
 C27 C 0.29564 0.42308 0.97096
 C28 C 0.27738 0.45108 0.96650
 N29 N 0.28128 0.47770 0.98786
 H30 H 0.25277 0.55925 0.92381
 H31 H 0.20090 0.47206 0.96649
 H32 H 0.15835 0.47353 0.92303
 H33 H 0.21254 0.56182 0.87889
 H34 H 0.30636 0.49987 1.02948
 H35 H 0.33961 0.45186 1.03885
 H36 H 0.29190 0.40184 0.95416
 H37 H 0.25996 0.45137 0.94623
 C38 C 0.34311 0.60081 0.97784
 C39 C 0.17490 0.51735 1.07805
 C40 C 0.31808 0.42264 0.99757
 C41 C 0.18188 0.51795 0.89739
 C42 C 0.78072 0.53044 -0.05321
 H43 H 0.76818 0.55183 -0.04349
 C44 C 0.80212 0.53344 -0.08362
 H45 H 0.80606 0.55723 -0.09676
 C46 C 0.79168 0.47383 -0.04777
 H47 H 0.78698 0.45038 -0.03435
 C48 C 0.81350 0.47581 -0.07784
 H49 H 0.82582 0.45394 -0.08689
 N50 N 0.77664 0.50119 -0.03533
 C51 C 0.69495 0.53699 0.01622
 H52 H 0.68134 0.51349 0.01170
 C53 C 0.67716 0.56555 0.01999
 H54 H 0.64996 0.56383 0.01849
 C55 C 0.74686 0.56839 0.02199
 H56 H 0.77417 0.56943 0.02183
 C57 C 0.72990 0.59757 0.02656
 H58 H 0.74414 0.62103 0.03000
 Zn59 Zn 0.75178 0.49892 0.00897
 N60 N 0.72923 0.53880 0.01707
 C61 C 0.78568 0.51349 0.07101
 N62 N 0.78191 0.49202 0.04408
 C63 C 0.79908 0.46398 0.04176
 C64 C 0.82224 0.45744 0.06591
 C65 C 0.80851 0.50779 0.09598
 C66 C 0.70951 0.44579 -0.01755
 C67 C 0.68349 0.42056 -0.01447
 C68 C 0.67848 0.42986 0.04759
 C69 C 0.70450 0.45476 0.04336
 N70 N 0.71910 0.46255 0.01116
 H71 H 0.77080 0.53485 0.07355
 H72 H 0.79469 0.44639 0.02130
 H73 H 0.83625 0.43540 0.06279
 H74 H 0.81099 0.52504 0.11731
 H75 H 0.72120 0.45268 -0.04294
 H76 H 0.67522 0.40828 -0.03767
 H77 H 0.66682 0.42441 0.07340
 H78 H 0.71266 0.46852 0.06571
 C79 C 0.69469 0.59622 0.02514
 C80 C 0.81950 0.50610 -0.09571
 C81 C 0.66721 0.41281 0.01839
 C82 C 0.82739 0.47956 0.09341
 C83 C -0.02898 0.29023 0.47867
 H84 H -0.04806 0.29453 0.49926
 C85 C -0.02585 0.31066 0.44935
 H86 H -0.04204 0.33114 0.44909
 C87 C 0.01565 0.25897 0.45565
 H88 H 0.03097 0.23803 0.45760
 C89 C 0.01989 0.27893 0.42592
 H90 H 0.03846 0.27245 0.40557
 N91 N -0.00810 0.26525 0.48156
 C92 C -0.06695 0.19013 0.54487
 H93 H -0.05754 0.19371 0.57035
 C94 C -0.09263 0.16544 0.53978
 H95 H -0.10279 0.14988 0.56145
 C96 C -0.06371 0.20454 0.48505
 H97 H -0.05194 0.21925 0.46354
 C98 C -0.08907 0.18021 0.47883
 H99 H -0.09680 0.17669 0.45261
 Zn100 Zn -0.01397 0.23812 0.52190
 N101 N -0.05256 0.20853 0.51744
 C102 C -0.05090 0.27840 0.56827
 N103 N -0.02015 0.26597 0.56125
 C104 C 0.00693 0.27660 0.57899
 C105 C 0.00434 0.30241 0.60295
 C106 C -0.05464 0.30427 0.59206
 C107 C 0.02174 0.18024 0.52818
 C108 C 0.05029 0.16181 0.52726
 C109 C 0.08554 0.21267 0.51852
 C110 C 0.05632 0.23020 0.52013
 N111 N 0.02517 0.21382 0.52451
 H112 H -0.07216 0.26937 0.55406
 H113 H 0.03110 0.26637 0.57337
 H114 H 0.02680 0.31187 0.61503
 H115 H -0.07900 0.31472 0.59628
 H116 H -0.00312 0.16757 0.53118
 H117 H 0.04709 0.13503 0.52959
 H118 H 0.11010 0.22600 0.51448
 H119 H 0.05844 0.25687 0.51667
 C120 C -0.10321 0.15970 0.50616
 C121 C -0.00093 0.30552 0.42222
 C122 C 0.08265 0.17802 0.52195
 C123 C -0.02644 0.31743 0.60880
 C124 C 1.02734 0.70221 0.51626
 H125 H 1.04888 0.70219 0.49740
 C126 C 1.02505 0.68065 0.54467
 H127 H 1.04494 0.66393 0.54722
 C128 C 0.97434 0.72271 0.53420
 H129 H 0.95429 0.73860 0.52954
 C130 C 0.97112 0.70167 0.56322
 H131 H 0.94886 0.70220 0.58112
 N132 N 1.00219 0.72258 0.51148
 C133 C 0.96358 0.79618 0.49022
 H134 H 0.98039 0.79901 0.51107
 C135 C 0.93668 0.81650 0.48892
 H136 H 0.93314 0.83515 0.50881
 C137 C 0.94894 0.76929 0.43821
 H138 H 0.95422 0.75136 0.41808
 C139 C 0.92161 0.78909 0.43592
 H140 H 0.90561 0.78556 0.41444
 Zn141 Zn 1.00678 0.74746 0.46976
 N142 N 0.96894 0.77282 0.46540
 C143 C 1.04159 0.71409 0.41485
 N144 N 1.01138 0.71647 0.43343
 C145 C 0.98466 0.69435 0.42914
 C146 C 0.98752 0.66887 0.40491
 C147 C 1.04574 0.68859 0.39079
 C148 C 1.06248 0.78348 0.49779
 C149 C 1.08845 0.80864 0.49752
 C150 C 1.07936 0.81999 0.43747
 C151 C 1.05319 0.79515 0.43912
 N152 N 1.04521 0.77759 0.46895
 H153 H 1.06291 0.73109 0.41963
 H154 H 0.96134 0.69613 0.44515
 H155 H 0.96624 0.65105 0.40221
 H156 H 1.07009 0.68645 0.37668
 H157 H 1.05517 0.76967 0.52146
 H158 H 1.10067 0.81409 0.52128
 H159 H 1.08526 0.83355 0.41335
 H160 H 1.03876 0.79014 0.41670
 C161 C 0.91507 0.81294 0.46165
 C162 C 0.99660 0.68005 0.56862
 C163 C 1.09680 0.82773 0.46723
 C164 C 1.01850 0.66559 0.38579
 C165 C 0.45842 -0.01184 0.30676
 H166 H 0.47643 -0.03023 0.31009
 C167 C 0.43007 -0.01084 0.33039
 H168 H 0.42601 -0.02951 0.35067
 C169 C 0.44270 0.03561 0.27751
 H170 H 0.44808 0.05447 0.25772
 C171 C 0.41425 0.03771 0.30073
 H172 H 0.39826 0.05812 0.29814
 N173 N 0.46409 0.01096 0.28064
 C174 C 0.51449 -0.02577 0.18867
 H175 H 0.52029 -0.00154 0.17711
 C176 C 0.51661 -0.05377 0.16755
 H177 H 0.52433 -0.04981 0.14031
 C178 C 0.50118 -0.05941 0.23849
 H179 H 0.49557 -0.06170 0.26619
 C180 C 0.50349 -0.08819 0.21841
 H181 H 0.49816 -0.11186 0.23147
 Zn182 Zn 0.50491 0.01082 0.25108
 N183 N 0.50642 -0.02883 0.22347
 C184 C 0.56465 -0.01023 0.27794
 N185 N 0.54135 0.01302 0.28052
 C186 C 0.54172 0.03623 0.30611
 C187 C 0.56561 0.03601 0.33107
 C188 C 0.58889 -0.01142 0.30238
 C189 C 0.48336 0.04872 0.19717
 C190 C 0.48305 0.07513 0.17395
 C191 C 0.53189 0.10102 0.19955
 C192 C 0.53149 0.07378 0.22214
 N193 N 0.50730 0.04838 0.22068
 H194 H 0.56389 -0.02854 0.25749
 H195 H 0.52277 0.05433 0.30773
 H196 H 0.56522 0.05451 0.35142
 H197 H 0.60627 -0.03099 0.30056
 H198 H 0.46447 0.02817 0.19638
 H199 H 0.46413 0.07421 0.15504
 H200 H 0.55094 0.12126 0.20161
 H201 H 0.55035 0.07307 0.24096
 C202 C 0.51112 -0.08593 0.18208
 C203 C 0.40757 0.01434 0.32774
 C204 C 0.50735 0.10202 0.17501
 C205 C 0.58928 0.01157 0.32981
 C206 C 0.52643 -0.02219 0.70002
 H207 H 0.50425 -0.03921 0.69930
 C208 C 0.55184 -0.02231 0.67324
 H209 H 0.54865 -0.03939 0.65188
 C210 C 0.55592 0.02201 0.72798
 H211 H 0.55701 0.03956 0.74913
 C212 C 0.58239 0.02238 0.70186
 H213 H 0.60409 0.03984 0.70367
 N214 N 0.52880 -0.00028 0.72663
 C215 C 0.46301 -0.04481 0.81196
 H216 H 0.44362 -0.02722 0.81492
 C217 C 0.46294 -0.07118 0.83548
 H218 H 0.44337 -0.07373 0.85655
 C219 C 0.51332 -0.06156 0.78214
 H220 H 0.53333 -0.05734 0.76181
 C221 C 0.51424 -0.08816 0.80505
 H222 H 0.53470 -0.10456 0.80163
 Zn223 Zn 0.49029 -0.00151 0.75846
 N224 N 0.48815 -0.04034 0.78616
 C225 C 0.42605 -0.02352 0.73300
 N226 N 0.45287 -0.00060 0.73093
 C227 C 0.45514 0.02459 0.70736
 C228 C 0.42931 0.02829 0.68546
 C229 C 0.39949 -0.02080 0.71135
 C230 C 0.51439 0.03909 0.81273
 C231 C 0.51240 0.06407 0.83793
 C232 C 0.46236 0.08146 0.81294
 C233 C 0.46519 0.05623 0.78849
 N234 N 0.49076 0.03548 0.78886
 H235 H 0.42512 -0.04374 0.75148
 H236 H 0.47709 0.04206 0.70586
 H237 H 0.43165 0.04862 0.66694
 H238 H 0.37791 -0.03875 0.71362
 H239 H 0.53411 0.02187 0.81292
 H240 H 0.53073 0.06597 0.85744
 H241 H 0.44167 0.09754 0.81214
 H242 H 0.44618 0.05272 0.76996
 C243 C 0.48918 -0.09289 0.83254
 C244 C 0.58052 -0.00001 0.67392
 C245 C 0.48567 0.08522 0.83859
 C246 C 0.40082 0.00569 0.68755
 C247 C 0.22036 0.04166 0.52136
 C248 C 0.23990 0.03522 0.55325
 C249 C 0.25994 0.00913 0.55005
 C250 C 0.25822 -0.00876 0.51488
 C251 C 0.24803 0.04530 0.49102
 C252 C 0.26785 0.01889 0.48784
 C253 C 0.20108 0.00864 0.51448
 C254 C 0.22051 -0.01769 0.51082
 H255 H 0.23862 0.05100 0.57597
 H256 H 0.27410 -0.03029 0.51168
 H257 H 0.25320 0.06714 0.47486
 H258 H 0.17398 0.00656 0.51213
 C259 C 0.76851 -0.06030 0.49000
 C260 C 0.74008 -0.06237 0.51921
 C261 C 0.72100 -0.03553 0.52152
 C262 C 0.73199 -0.00876 0.49377
 C263 C 0.74989 -0.05454 0.45713
 C264 C 0.73081 -0.02756 0.45892
 C265 C 0.78859 -0.02749 0.49585
 C266 C 0.76988 -0.00056 0.49769
 H267 H 0.73512 -0.08370 0.53623
 H268 H 0.71688 0.01342 0.49516
 H269 H 0.74967 -0.07164 0.43551
 H270 H 0.81577 -0.02571 0.49768
 C271 C 0.44893 0.27977 0.99714
 C272 C 0.45521 0.25407 0.96847
 C273 C 0.48240 0.23596 0.97241
 C274 C 0.50114 0.24508 1.00500
 C275 C 0.44605 0.25893 1.03080
 C276 C 0.47325 0.24053 1.03505
 C277 C 0.48234 0.30048 0.99828
 C278 C 0.50960 0.28277 1.00263
 H279 H 0.43814 0.24893 0.94817
 H280 H 0.52346 0.23045 1.00776
 H281 H 0.42375 0.25769 1.04869
 H282 H 0.48408 0.32732 0.99615
 C283 C 0.56234 0.73430 0.00616
 C284 C 0.56299 0.75823 -0.02491
 C285 C 0.53486 0.77563 -0.02604
 C286 C 0.50838 0.76759 0.00436
 C287 C 0.55628 0.75670 0.03807
 C288 C 0.52818 0.77446 0.03697
 C289 C 0.52938 0.71280 0.00479
 C290 C 0.50117 0.72974 0.00317
 H291 H 0.58440 0.76146 -0.04392
 H292 H 0.48532 0.78156 0.00374
 H293 H 0.57467 0.76178 0.05708
 H294 H 0.52873 0.68594 0.00540
 C295 C 0.99600 0.44270 0.27407
 C296 C 0.96739 0.44517 0.24965
 C297 C 0.97076 0.47239 0.22837
 C298 C 1.00294 0.49482 0.23358
 C299 C 1.02818 0.44421 0.24927
 C300 C 1.03220 0.47173 0.22850
 C301 C 0.99764 0.47577 0.29344
 C302 C 1.00108 0.50284 0.27242
 H303 H 0.94617 0.42691 0.24979
 H304 H 1.00639 0.51740 0.21709
 H305 H 1.04534 0.42455 0.24664
 H306 H 0.99598 0.47758 0.32157
 C307 C 0.01247 0.54315 0.71664
 C308 C -0.01824 0.54222 0.74338
 C309 C -0.02137 0.51490 0.76453
 C310 C 0.00686 0.49091 0.75705
 C311 C 0.04253 0.53991 0.73915
 C312 C 0.03972 0.51273 0.76030
 C313 C 0.00889 0.51017 0.69730
 C314 C 0.00572 0.48283 0.71815
 H315 H -0.03470 0.56250 0.74662
 H316 H 0.00437 0.46852 0.77390
 H317 H 0.06306 0.55870 0.74053
 H318 H 0.00878 0.50878 0.66924
 C319 C 0.13778 0.16417 0.49135
 C320 C 0.11300 0.15855 0.51900
 C321 C 0.11639 0.13307 0.54295
 C322 C 0.14352 0.11262 0.53872
 C323 C 0.16774 0.11756 0.51015
 C324 C 0.16490 0.14379 0.48689
 C325 C 0.19371 0.09565 0.50478
 C326 C 0.19573 0.06878 0.52773
 C327 C 0.17190 0.06507 0.55664
 C328 C 0.14620 0.08670 0.56212
 H329 H 0.09758 0.12887 0.56460
 H330 H 0.18322 0.14811 0.46488
 H331 H 0.21124 0.09916 0.48214
 H332 H 0.12792 0.08261 0.58422
 H333 H 0.13554 0.18365 0.47251
 H334 H 0.17260 0.04453 0.57459
 C335 C 0.67286 0.64551 0.05699
 C336 C 0.67611 0.62668 0.02645
 C337 C 0.65948 0.63556 -0.00263
 C338 C 0.63861 0.66220 -0.00098
 C339 C 0.63401 0.68030 0.03025
 C340 C 0.65182 0.67210 0.05895
 C341 C 0.61074 0.70525 0.03258
 C342 C 0.59212 0.71224 0.00391
 C343 C 0.59824 0.69463 -0.02728
 C344 C 0.62122 0.67008 -0.02975
 H345 H 0.66215 0.62107 -0.02627
 H346 H 0.64885 0.68570 0.08310
 H347 H 0.60620 0.71778 0.05710
 H348 H 0.62450 0.65647 -0.05388
 H349 H 0.68561 0.63885 0.07965
 H350 H 0.58392 0.69891 -0.04956
 C351 C 0.87799 -0.15227 0.42839
 C352 C 0.88618 -0.16568 0.46015
 C353 C 0.86734 -0.15761 0.49090
 C354 C 0.84163 -0.13556 0.49024
 C355 C 0.83395 -0.12171 0.45835
 C356 C 0.85205 -0.13053 0.42749
 C357 C 0.80911 -0.09851 0.45802
 C358 C 0.79166 -0.08896 0.48924
 C359 C 0.80023 -0.10274 0.52079
 C360 C 0.82439 -0.12618 0.52121
 H361 H 0.87299 -0.16819 0.51550
 H362 H 0.84663 -0.12011 0.40276
 H363 H 0.80452 -0.08697 0.43362
 H364 H 0.83041 -0.13613 0.54597
 H365 H 0.89227 -0.15783 0.40434
 H366 H 0.78911 -0.09463 0.54553
 C367 C 0.34286 0.38291 1.03713
 C368 C 0.33791 0.39343 1.00318
 C369 C 0.35344 0.37699 0.97478
 C370 C 0.37467 0.35131 0.98021
 C371 C 0.38012 0.34150 1.01444
 C372 C 0.36370 0.35716 1.04271
 C373 C 0.40283 0.31709 1.01987
 C374 C 0.42021 0.30202 0.99151
 C375 C 0.41457 0.31239 0.95758
 C376 C 0.39172 0.33630 0.95200
 H377 H 0.35018 0.38512 0.94850
 H378 H 0.36744 0.34993 1.06915
 H379 H 0.40802 0.31108 1.04624
 H380 H 0.38827 0.34386 0.92558
 H381 H 0.33077 0.39481 1.05945
 H382 H 0.42875 0.30295 0.93511
 C383 C 0.88317 0.10971 0.47062
 C384 C 0.87401 0.13039 0.49861
 C385 C 0.84403 0.12221 0.51946
 C386 C 0.82372 0.09335 0.51258
 C387 C 0.83387 0.07241 0.48486
 C388 C 0.86335 0.08100 0.46383
 C389 C 0.81499 0.04263 0.47921
 C390 C 0.78606 0.03319 0.50089
 C391 C 0.77509 0.05466 0.52737
 C392 C 0.79386 0.08455 0.53326
 H393 H 0.83670 0.13814 0.54096
 H394 H 0.87141 0.06519 0.44249
 H395 H 0.82335 0.02622 0.45850
 H396 H 0.78552 0.10032 0.55451
 H397 H 0.90632 0.11532 0.45447
 H398 H 0.75299 0.04762 0.54448
 C399 C 0.40492 0.61277 -0.03863
 C400 C 0.37447 0.62342 -0.02275
 C401 C 0.37489 0.65482 -0.00650
 C402 C 0.40535 0.67475 -0.00564
 C403 C 0.43544 0.66343 -0.02185
 C404 C 0.43489 0.63269 -0.03858
 C405 C 0.46600 0.68246 -0.02026
 C406 C 0.46763 0.71231 -0.00144
 C407 C 0.43754 0.72403 0.01387
 C408 C 0.40658 0.70546 0.01164
 H409 H 0.35174 0.66364 0.00566
 H410 H 0.45789 0.62358 -0.05082
 H411 H 0.48874 0.67356 -0.03329
 H412 H 0.38378 0.71468 0.02420
 H413 H 0.40597 0.58849 -0.05041
 H414 H 0.43806 0.74694 0.02850
 C415 C 0.11423 -0.11368 0.44948
 C416 C 0.12097 -0.14249 0.46759
 C417 C 0.14936 -0.14164 0.48766
 C418 C 0.16965 -0.11202 0.49083
 C419 C 0.16184 -0.08324 0.47309
 C420 C 0.13463 -0.08450 0.45193
 C421 C 0.18028 -0.05314 0.47804
 C422 C 0.20583 -0.05084 0.50146
 C423 C 0.21476 -0.07973 0.51774
 C424 C 0.19683 -0.11021 0.51237
 H425 H 0.15520 -0.16369 0.50143
 H426 H 0.12831 -0.06254 0.43829
 H427 H 0.17382 -0.03109 0.46462
 H428 H 0.20337 -0.13204 0.52605
 H429 H 0.09229 -0.11317 0.43442
 H430 H 0.23444 -0.07847 0.53581
 C431 C 0.60832 0.39793 1.04302
 C432 C 0.63678 0.38929 1.02199
 C433 C 0.63525 0.35909 1.00363
 C434 C 0.60530 0.33822 1.00569
 C435 C 0.57668 0.34786 1.02621
 C436 C 0.57861 0.37742 1.04516
 C437 C 0.54615 0.32842 1.02654
 C438 C 0.54341 0.29958 1.00628
 C439 C 0.57226 0.28910 0.98735
 C440 C 0.60304 0.30835 0.98698
 H441 H 0.65715 0.35205 0.98758
 H442 H 0.55685 0.38510 1.06099
 H443 H 0.52408 0.33633 1.04175
 H444 H 0.62475 0.30038 0.97130
 H445 H 0.60868 0.42119 1.05705
 H446 H 0.57063 0.26694 0.97159
 C447 C 0.53726 0.14683 1.13620
 C448 C 0.50693 0.13055 1.15044
 C449 C 0.47599 0.14101 1.14016
 C450 C 0.47531 0.16629 1.11530
 C451 C 0.50590 0.18217 1.10089
 C452 C 0.53674 0.17248 1.11184
 C453 C 0.50511 0.20704 1.07544
 C454 C 0.47410 0.21583 1.06367
 C455 C 0.44387 0.19976 1.07845
 C456 C 0.44446 0.17551 1.10414
 H457 H 0.45230 0.12938 1.15136
 H458 H 0.56051 0.18430 1.10105
 H459 H 0.52866 0.21942 1.06489
 H460 H 0.42076 0.16343 1.11476
 H461 H 0.56150 0.13919 1.14320
 H462 H 0.41959 0.20517 1.06959
 C463 C -0.03827 0.63973 0.60864
 C464 C -0.00676 0.65611 0.59820
 C465 C 0.02196 0.64825 0.61503
 C466 C 0.01958 0.62361 0.64085
 C467 C -0.01204 0.60699 0.65079
 C468 C -0.04090 0.61550 0.63479
 C469 C -0.01411 0.58164 0.67595
 C470 C 0.01503 0.57258 0.69152
 C471 C 0.04647 0.58905 0.68059
 C472 C 0.04859 0.61459 0.65603
 H473 H 0.04633 0.66100 0.60774
 H474 H -0.06539 0.60295 0.64199
 H475 H -0.03832 0.56841 0.68286
 H476 H 0.07316 0.62667 0.64818
 H477 H -0.06077 0.64491 0.59588
 H478 H 0.06991 0.58184 0.68988
 C479 C 0.46277 0.86152 -0.12778
 C480 C 0.49164 0.88084 -0.14097
 C481 C 0.52315 0.87539 -0.12832
 C482 C 0.52593 0.85095 -0.10309
 C483 C 0.49684 0.83148 -0.09011
 C484 C 0.46536 0.83699 -0.10265
 C485 C 0.49981 0.80689 -0.06491
 C486 C 0.53152 0.80153 -0.05260
 C487 C 0.56015 0.82135 -0.06555
 C488 C 0.55740 0.84576 -0.09057
 H489 H 0.54550 0.89055 -0.13775
 H490 H 0.44276 0.82232 -0.09304
 H491 H 0.47759 0.79163 -0.05535
 H492 H 0.57990 0.86064 -0.10006
 H493 H 0.43825 0.86515 -0.13724
 H494 H 0.58474 0.81833 -0.05599
 C495 C 1.03500 0.33179 0.37358
 C496 C 1.00326 0.32665 0.39258
 C497 C 0.97600 0.34388 0.38171
 C498 C 0.98056 0.36639 0.35388
 C499 C 1.01269 0.37190 0.33602
 C500 C 1.03962 0.35419 0.34580
 C501 C 1.01765 0.39566 0.30929
 C502 C 0.99064 0.41385 0.29970
 C503 C 0.95871 0.40789 0.31782
 C504 C 0.95362 0.38419 0.34428
 H505 H 0.95082 0.33951 0.39428
 H506 H 1.06453 0.35818 0.33244
 H507 H 1.04292 0.40068 0.29734
 H508 H 0.92880 0.38047 0.35790
 H509 H 1.05706 0.32005 0.38111
 H510 H 0.93773 0.42232 0.31216
 C511 C 0.52282 0.85485 0.17473
 C512 C 0.51387 0.88525 0.16092
 C513 C 0.50820 0.88624 0.12510
 C514 C 0.51211 0.85832 0.10381
 C515 C 0.52200 0.82856 0.11797
 C516 C 0.52701 0.82705 0.15352
 C517 C 0.52691 0.80096 0.09627
 C518 C 0.52161 0.80273 0.06062
 C519 C 0.51112 0.83234 0.04705
 C520 C 0.50645 0.85985 0.06839
 H521 H 0.49967 0.90836 0.11361
 H522 H 0.53463 0.80443 0.16490
 H523 H 0.53477 0.77817 0.10707
 H524 H 0.49882 0.88248 0.05704
 H525 H 0.52837 0.85263 0.20165
 H526 H 0.50745 0.83468 0.01962
 C527 C -0.04526 0.37509 0.61664
 C528 C -0.02793 0.34874 0.62903
 C529 C -0.00962 0.35370 0.65879
 C530 C -0.00743 0.38491 0.67494
 C531 C -0.02402 0.41142 0.66141
 C532 C -0.04341 0.40608 0.63272
 C533 C -0.02025 0.44308 0.67618
 C534 C 0.00007 0.44880 0.70428
 C535 C 0.01546 0.42206 0.71837
 C536 C 0.01182 0.39038 0.70379
 H537 H 0.00353 0.33352 0.66888
 H538 H -0.05634 0.42613 0.62207
 H539 H -0.03293 0.46334 0.66558
 H540 H 0.02461 0.37033 0.71464
 H541 H -0.05912 0.37221 0.59352
 H542 H 0.03119 0.42578 0.73996
 C543 C 0.44781 0.11464 0.88111
 C544 C 0.48070 0.11013 0.86656
 C545 C 0.50811 0.13002 0.87825
 C546 C 0.50242 0.15504 0.90304
 C547 C 0.46902 0.15993 0.91636
 C548 C 0.44202 0.13929 0.90569
 C549 C 0.46296 0.18580 0.93967
 C550 C 0.48974 0.20726 0.94987
 C551 C 0.52302 0.20157 0.93769
 C552 C 0.52933 0.17573 0.91430
 H553 H 0.53357 0.12678 0.86727
 H554 H 0.41633 0.14250 0.91599
 H555 H 0.43725 0.18944 0.94968
 H556 H 0.55515 0.17228 0.90459
 H557 H 0.42638 0.09911 0.87329
 H558 H 0.54401 0.21772 0.94540
 C559 C 1.04949 0.61612 0.36748
 C560 C 1.02293 0.63663 0.36300
 C561 C 0.99925 0.62797 0.33862
 C562 C 1.00131 0.59837 0.31980
 C563 C 1.02721 0.57707 0.32574
 C564 C 1.05155 0.58647 0.34908
 C565 C 1.02765 0.54625 0.30912
 C566 C 1.00279 0.53665 0.28640
 C567 C 0.97813 0.55844 0.27929
 C568 C 0.97728 0.58912 0.29600
 H569 H 0.97888 0.64393 0.33495
 H570 H 1.07165 0.57052 0.35376
 H571 H 1.04680 0.52935 0.31440
 H572 H 0.95737 0.60520 0.29102
 H573 H 1.06784 0.62239 0.38633
 H574 H 0.95864 0.55108 0.26205
 C575 C 1.11544 0.52694 0.09627
 C576 C 1.14681 0.51459 0.10313
 C577 C 1.14887 0.49787 0.13504
 C578 C 1.12038 0.49223 0.15839
 C579 C 1.08900 0.50359 0.15037
 C580 C 1.08693 0.52133 0.11950
 C581 C 1.06020 0.49676 0.17320
 C582 C 1.06249 0.47896 0.20420
 C583 C 1.09412 0.46850 0.21224
 C584 C 1.12274 0.47498 0.18953
 H585 H 1.17277 0.48959 0.14233
 H586 H 1.06307 0.53032 0.11293
 H587 H 1.03600 0.50473 0.16639
 H588 H 1.14671 0.46637 0.19628
 H589 H 1.11197 0.53927 0.07201
 H590 H 1.09691 0.45553 0.23633
 C591 C 0.62596 0.02904 0.63343
 C592 C 0.60801 -0.00045 0.64553
 C593 C 0.61592 -0.03067 0.62976
 C594 C 0.64073 -0.03149 0.60213
 C595 C 0.65876 -0.00182 0.59026
 C596 C 0.65119 0.02834 0.60614
 C597 C 0.68429 -0.00298 0.56310
 C598 C 0.69210 -0.03350 0.54793
 C599 C 0.67302 -0.06261 0.55929
 C600 C 0.64776 -0.06165 0.58621
 H601 H 0.60299 -0.05377 0.63916
 H602 H 0.66465 0.05139 0.59736
 H603 H 0.69860 0.01966 0.55460
 H604 H 0.63381 -0.08456 0.59468
 H605 H 0.62016 0.05276 0.64463
 H606 H 0.67763 -0.08634 0.54743
 C607 C -0.16183 0.52620 0.84387
 C608 C -0.15498 0.50950 0.87428
 C609 C -0.12311 0.49675 0.87646
 C610 C -0.09824 0.50089 0.84881
 C611 C -0.10537 0.51760 0.81826
 C612 C -0.13731 0.53003 0.81599
 C613 C -0.08037 0.52183 0.79067
 C614 C -0.04811 0.50996 0.79336
 C615 C -0.04133 0.49360 0.82403
 C616 C -0.06619 0.48896 0.85140
 H617 H -0.11742 0.48429 0.90005
 H618 H -0.14323 0.54293 0.79278
 H619 H -0.08614 0.53419 0.76708
 H620 H -0.06021 0.47635 0.87477
 H621 H -0.18627 0.53609 0.84162
 H622 H -0.01655 0.48491 0.82729
 C623 C 0.34734 0.02800 0.34327
 C624 C 0.37804 0.01698 0.35357
 C625 C 0.38050 0.00904 0.38883
 C626 C 0.35289 0.01193 0.41329
 C627 C 0.32237 0.02340 0.40264
 C628 C 0.31987 0.03133 0.36756
 C629 C 0.29480 0.02643 0.42719
 C630 C 0.29720 0.01744 0.46210
 C631 C 0.32758 0.00593 0.47236
 C632 C 0.35527 0.00343 0.44825
 H633 H 0.40405 0.00105 0.39745
 H634 H 0.29661 0.03991 0.35884
 H635 H 0.27128 0.03497 0.41905
 H636 H 0.37847 -0.00539 0.45690
 H637 H 0.34439 0.03380 0.31629
 H638 H 0.33002 -0.00087 0.49920
 C639 C 0.14418 0.55354 0.86661
 C640 C 0.15478 0.52175 0.87329
 C641 C 0.13911 0.49402 0.85722
 C642 C 0.11369 0.49815 0.83429
 C643 C 0.10383 0.53035 0.82744
 C644 C 0.11901 0.55780 0.84391
 C645 C 0.07916 0.53472 0.80398
 C646 C 0.06428 0.50741 0.78668
 C647 C 0.07351 0.47539 0.79430
 C648 C 0.09809 0.47078 0.81783
 H649 H 0.14707 0.46939 0.86206
 H650 H 0.11152 0.58262 0.83915
 H651 H 0.07156 0.55950 0.79923
 H652 H 0.10517 0.44586 0.82284
 H653 H 0.15513 0.57522 0.87926
 H654 H 0.06239 0.45397 0.78145
 C655 C 0.60216 0.01434 0.39280
 C656 C 0.61303 0.00883 0.35781
 C657 C 0.64612 -0.00090 0.35001
 C658 C 0.66758 -0.00601 0.37668
 C659 C 0.65613 -0.00089 0.41174
 C660 C 0.62351 0.00964 0.41945
 C661 C 0.67720 -0.00710 0.43849
 C662 C 0.70943 -0.01883 0.43067
 C663 C 0.72072 -0.02328 0.39565
 C664 C 0.70007 -0.01681 0.36892
 H665 H 0.65511 -0.00480 0.32319
 H666 H 0.61424 0.01361 0.44617
 H667 H 0.66802 -0.00395 0.46538
 H668 H 0.70935 -0.02073 0.34220
 H669 H 0.57672 0.02136 0.39974
 H670 H 0.74563 -0.03181 0.38890
 C671 C 0.85614 0.44036 0.13012
 C672 C 0.85227 0.47302 0.11913
 C673 C 0.87284 0.49920 0.13222
 C674 C 0.89708 0.49279 0.15568
 C675 C 0.90101 0.45982 0.16603
 C676 C 0.88038 0.43380 0.15319
 C677 C 0.92544 0.45331 0.18913
 C678 C 0.94571 0.47938 0.20287
 C679 C 0.94155 0.51213 0.19231
 C680 C 0.91757 0.51875 0.16886
 H681 H 0.87045 0.52445 0.12369
 H682 H 0.88289 0.40838 0.16108
 H683 H 0.92873 0.42780 0.19601
 H684 H 0.91487 0.54422 0.16127
 H685 H 0.84024 0.41979 0.12103
 H686 H 0.95631 0.53289 0.20249
 C687 C 0.36205 0.04267 0.66065
 C688 C 0.37270 0.01056 0.66519
 C689 C 0.35745 -0.01613 0.64718
 C690 C 0.33266 -0.01049 0.62396
 C691 C 0.32287 0.02210 0.61913
 C692 C 0.33741 0.04840 0.63785
 C693 C 0.29906 0.02810 0.59527
 C694 C 0.28436 0.00200 0.57605
 C695 C 0.29402 -0.03040 0.58112
 C696 C 0.31794 -0.03662 0.60491
 H697 H 0.36564 -0.04096 0.65035
 H698 H 0.32999 0.07349 0.63458
 H699 H 0.29278 0.05341 0.59105
 H700 H 0.32506 -0.06180 0.60824
 H701 H 0.37300 0.06351 0.67469
 H702 H 0.28298 -0.05102 0.56689
   
