data_POSCAR
  _audit_creation_date              2014-09-24
  _audit_creation_method            'ToBaCCo'
  _symmetry_space_group_name_H-M    'P1'
  _symmetry_Int_Tables_number       1
  _symmetry_cell_setting            triclinic
  loop_
  _symmetry_equiv_pos_as_xyz
 x,y,z
_cell_length_a 37.5118
_cell_length_b 37.1093
_cell_length_c 36.9591
_cell_angle_alpha 90.044900
_cell_angle_beta 90.063200
_cell_angle_gamma 89.907500
loop_
  _atom_site_label
  _atom_site_type_symbol
  _atom_site_fract_x
  _atom_site_fract_y
  _atom_site_fract_z
N1 N 0.19446 1.26866 0.16894
 N2 N 0.16779 1.26594 0.19185
 C3 C 0.14384 1.29212 0.18487
 C4 C 0.15639 1.31214 0.15623
 C5 C 0.18840 1.29664 0.14656
 H6 H 0.11859 1.29550 0.19859
 H7 H 0.20519 1.30416 0.12403
 Cu8 Cu 0.16502 1.22701 0.22686
 Cu9 Cu 0.23313 1.23372 0.16769
 Cu10 Cu 0.23309 1.16787 0.23390
 N11 N 0.16766 1.19208 0.26591
 N12 N 0.19436 1.16922 0.26881
 C13 C 0.18818 1.14687 0.29681
 C14 C 0.15608 1.15652 0.31214
 C15 C 0.14360 1.18510 0.29200
 H16 H 0.20494 1.12436 0.30440
 H17 H 0.11829 1.19877 0.29520
 N18 N 0.26990 1.17085 0.19614
 N19 N 0.26989 1.19596 0.17084
 C20 C 0.29643 1.18906 0.14729
 C21 C 0.31385 1.15833 0.15849
 C22 C 0.29646 1.14731 0.18936
 H23 H 0.30160 1.20415 0.12283
 H24 H 0.30164 1.12300 0.20460
 H25 H 0.20625 1.19094 0.19075
 H26 H 0.22955 1.22250 0.22245
 N27 N 0.80490 0.73162 0.16936
 N28 N 0.82982 0.73233 0.19444
 C29 C 0.85381 0.70613 0.18756
 C30 C 0.84316 0.68825 0.15672
 C31 C 0.81219 0.70499 0.14570
 H32 H 0.87788 0.70123 0.20293
 H33 H 0.79697 0.69918 0.12153
 Cu34 Cu 0.82994 0.76929 0.23178
 Cu35 Cu 0.76661 0.76712 0.16746
 Cu36 Cu 0.76633 0.83311 0.23407
 N37 N 0.82966 0.80643 0.26894
 N38 N 0.80458 0.83126 0.26975
 C39 C 0.81186 0.85496 0.29636
 C40 C 0.84300 0.84420 0.31297
 C41 C 0.85379 0.81351 0.29503
 H42 H 0.79657 0.87903 0.30213
 H43 H 0.87807 0.79845 0.29970
 N44 N 0.73000 0.83041 0.19559
 N45 N 0.73016 0.80534 0.17018
 C46 C 0.70369 0.81226 0.14650
 C47 C 0.68619 0.84294 0.15771
 C48 C 0.70343 0.85391 0.18872
 H49 H 0.69848 0.79709 0.12207
 H50 H 0.69797 0.87808 0.20413
 H51 H 0.79427 0.80839 0.19272
 H52 H 0.76633 0.77890 0.22203
 N53 N 0.80594 1.26650 -0.16807
 N54 N 0.83159 1.26493 -0.19228
 C55 C 0.85594 1.29054 -0.18481
 C56 C 0.84474 1.30898 -0.15451
 C57 C 0.81307 1.29316 -0.14441
 H58 H 0.88056 1.29469 -0.19941
 H59 H 0.79713 1.29971 -0.12094
 Cu60 Cu 0.83155 1.22787 -0.22948
 Cu61 Cu 0.76674 1.23204 -0.16724
 Cu62 Cu 0.76712 1.16554 -0.23347
 N63 N 0.83191 1.19066 -0.26651
 N64 N 0.80642 1.16636 -0.26797
 C65 C 0.81366 1.14277 -0.29470
 C66 C 0.84520 1.15306 -0.31068
 C67 C 0.85628 1.18335 -0.29228
 H68 H 0.79782 1.11930 -0.30120
 H69 H 0.88075 1.19810 -0.29657
 N70 N 0.72973 1.16935 -0.19615
 N71 N 0.72955 1.19471 -0.17100
 C72 C 0.70233 1.18852 -0.14808
 C73 C 0.68471 1.15803 -0.15949
 C74 C 0.70264 1.14641 -0.18983
 H75 H 0.69676 1.20392 -0.12388
 H76 H 0.69735 1.12208 -0.20503
 H77 H 0.79417 1.19002 -0.19134
 H78 H 0.76758 1.21986 -0.22171
 N79 N 0.19439 0.73284 -0.16871
 N80 N 0.16870 0.73447 -0.19294
 C81 C 0.14440 0.70879 -0.18561
 C82 C 0.15565 0.69025 -0.15537
 C83 C 0.18732 0.70609 -0.14519
 H84 H 0.11980 0.70462 -0.20030
 H85 H 0.20334 0.69947 -0.12176
 Cu86 Cu 0.16857 0.77165 -0.22999
 Cu87 Cu 0.23355 0.76732 -0.16771
 Cu88 Cu 0.23325 0.83383 -0.23378
 N89 N 0.16845 0.80884 -0.26705
 N90 N 0.19400 0.83307 -0.26841
 C91 C 0.18685 0.85668 -0.29512
 C92 C 0.15527 0.84649 -0.31121
 C93 C 0.14411 0.81622 -0.29287
 H94 H 0.20276 0.88010 -0.30154
 H95 H 0.11960 0.80153 -0.29725
 N96 N 0.27058 0.83000 -0.19636
 N97 N 0.27074 0.80466 -0.17126
 C98 C 0.29787 0.81091 -0.14817
 C99 C 0.31547 0.84143 -0.15946
 C100 C 0.29760 0.85301 -0.18987
 H101 H 0.30336 0.79556 -0.12394
 H102 H 0.30284 0.87737 -0.20498
 H103 H 0.20622 0.80937 -0.19177
 H104 H 0.23264 0.77945 -0.22220
 C105 C 0.49967 1.00062 -0.00054
 C106 C 0.00080 0.49964 1.00054
 C107 C 1.00039 0.00046 0.49880
 C108 C 0.10064 0.38640 1.10019
 C109 C 0.12124 0.40364 1.06879
 C110 C 0.10148 0.42749 1.04915
 C111 C 0.06308 0.43175 1.06282
 C112 C 0.06670 0.44210 1.10288
 C113 C 0.08647 0.41824 1.12255
 C114 C 0.06748 0.36961 1.08265
 C115 C 0.04774 0.39343 1.06303
 C116 C 0.12163 0.36033 1.12112
 C117 C 0.13828 0.33807 1.13786
 C118 C 0.04163 0.45699 1.04143
 C119 C 0.02348 0.47682 1.02326
 H120 H 0.14890 0.39765 1.06255
 H121 H 0.11220 0.44195 1.02607
 H122 H 0.05474 0.46600 1.11475
 H123 H 0.09150 0.42172 1.15127
 H124 H 0.06010 0.34147 1.08545
 H125 H 0.02344 0.38571 1.04906
 C126 C -0.09913 0.61291 1.10003
 C127 C -0.08470 0.62850 1.06451
 C128 C -0.06489 0.60466 1.04500
 C129 C -0.06141 0.56752 1.06288
 C130 C -0.09988 0.55504 1.06935
 C131 C -0.11973 0.57892 1.08890
 C132 C -0.06612 0.59895 1.12028
 C133 C -0.04628 0.57508 1.10074
 C134 C -0.12028 0.63897 1.12083
 C135 C -0.13721 0.66110 1.13744
 C136 C -0.03989 0.54228 1.04155
 C137 C -0.02175 0.52248 1.02336
 H138 H -0.08961 0.65589 1.05545
 H139 H -0.05281 0.61164 1.01926
 H140 H -0.11054 0.52964 1.05957
 H141 H -0.14741 0.57402 1.09584
 H142 H -0.05899 0.60707 1.14756
 H143 H -0.02216 0.56271 1.11130
 C144 C -0.09817 0.38474 0.90209
 C145 C -0.11995 0.40557 0.93040
 C146 C -0.10030 0.42973 0.94975
 C147 C -0.06083 0.43068 0.93887
 C148 C -0.06093 0.43804 0.89800
 C149 C -0.08059 0.41387 0.87865
 C150 C -0.06742 0.36751 0.92338
 C151 C -0.04780 0.39164 0.94271
 C152 C -0.11911 0.35843 0.88146
 C153 C -0.13586 0.33617 0.86488
 C154 C -0.03951 0.45628 0.95995
 C155 C -0.02155 0.47642 0.97791
 H156 H -0.14829 0.40169 0.93484
 H157 H -0.11180 0.44654 0.97078
 H158 H -0.04687 0.46027 0.88540
 H159 H -0.08336 0.41539 0.84944
 H160 H -0.06156 0.33884 0.92329
 H161 H -0.02515 0.38364 0.95919
 C162 C 0.09883 0.61439 0.90127
 C163 C 0.07440 0.63195 0.92955
 C164 C 0.05498 0.60783 0.94900
 C165 C 0.06185 0.56846 0.93832
 C166 C 0.10229 0.56330 0.94212
 C167 C 0.12174 0.58746 0.92264
 C168 C 0.07402 0.59103 0.87797
 C169 C 0.05456 0.56687 0.89747
 C170 C 0.11961 0.64072 0.88053
 C171 C 0.13628 0.66300 0.86394
 C172 C 0.04074 0.54288 0.95958
 C173 C 0.02296 0.52279 0.97772
 H174 H 0.07248 0.66083 0.93389
 H175 H 0.03643 0.61604 0.97000
 H176 H 0.11456 0.54246 0.95859
 H177 H 0.15068 0.58733 0.92242
 H178 H 0.07191 0.59327 0.84876
 H179 H 0.03580 0.54839 0.88496
 C180 C 1.09991 0.10042 0.38588
 C181 C 1.07087 0.12243 0.40514
 C182 C 1.05103 0.10273 0.42882
 C183 C 1.06218 0.06297 0.43089
 C184 C 1.10210 0.06363 0.44011
 C185 C 1.12195 0.08333 0.41642
 C186 C 1.08006 0.06887 0.36813
 C187 C 1.06023 0.04921 0.39178
 C188 C 1.12102 0.12138 0.36001
 C189 C 1.13781 0.13813 0.33791
 C190 C 1.04071 0.04150 0.45599
 C191 C 1.02271 0.02327 0.47581
 H192 H 1.06633 0.15098 0.40060
 H193 H 1.02946 0.11438 0.44455
 H194 H 1.11370 0.04995 0.46327
 H195 H 1.15058 0.08652 0.41927
 H196 H 1.08140 0.06256 0.33947
 H197 H 1.04455 0.02610 0.38335
 C198 C 1.09929 -0.09790 0.61414
 C199 C 1.06962 -0.11981 0.59581
 C200 C 1.05008 -0.10046 0.57149
 C201 C 1.06214 -0.06111 0.56789
 C202 C 1.10196 -0.06317 0.55857
 C203 C 1.12150 -0.08252 0.58290
 C204 C 1.08029 -0.06519 0.63078
 C205 C 1.06077 -0.04588 0.60648
 C206 C 1.12014 -0.11855 0.64062
 C207 C 1.13685 -0.13515 0.66299
 C208 C 1.04091 -0.04004 0.54214
 C209 C 1.02292 -0.02210 0.52195
 H210 H 1.06441 -0.14801 0.60146
 H211 H 1.02814 -0.11209 0.55629
 H212 H 1.11375 -0.05057 0.53494
 H213 H 1.15005 -0.08649 0.58013
 H214 H 1.08200 -0.05784 0.65917
 H215 H 1.04576 -0.02200 0.61407
 C216 C 0.90029 -0.09929 0.38581
 C217 C 0.87886 -0.08423 0.41782
 C218 C 0.89886 -0.06454 0.44147
 C219 C 0.93830 -0.06187 0.43076
 C220 C 0.93808 -0.04667 0.39215
 C221 C 0.91810 -0.06632 0.36854
 C222 C 0.93094 -0.12071 0.40308
 C223 C 0.95094 -0.10103 0.42672
 C224 C 0.87895 -0.12031 0.36006
 C225 C 0.86183 -0.13718 0.33824
 C226 C 0.95993 -0.04045 0.45584
 C227 C 0.97803 -0.02228 0.47570
 H228 H 0.85051 -0.08867 0.42160
 H229 H 0.88765 -0.05215 0.46553
 H230 H 0.95238 -0.02257 0.38406
 H231 H 0.91528 -0.05904 0.34023
 H232 H 0.93644 -0.14886 0.39727
 H233 H 0.97355 -0.11233 0.44118
 C234 C 0.90115 0.09808 0.61429
 C235 C 0.92177 0.06650 0.63112
 C236 C 0.94136 0.04739 0.60675
 C237 C 0.93845 0.06168 0.56791
 C238 C 0.94911 0.10153 0.57038
 C239 C 0.92949 0.12068 0.59478
 C240 C 0.87873 0.08117 0.58394
 C241 C 0.89835 0.06202 0.55953
 C242 C 0.88028 0.11849 0.64089
 C243 C 0.86358 0.13489 0.66339
 C244 C 0.95977 0.04081 0.54212
 C245 C 0.97784 0.02297 0.52194
 H246 H 0.92106 0.05974 0.65969
 H247 H 0.95742 0.02425 0.61445
 H248 H 0.97017 0.11363 0.55436
 H249 H 0.93375 0.14920 0.59967
 H250 H 0.84999 0.08404 0.58177
 H251 H 0.88645 0.04846 0.53646
 C252 C 0.38797 1.10062 0.10056
 C253 C 0.41750 1.08278 0.12314
 C254 C 0.44088 1.06291 0.10308
 C255 C 0.43240 1.06287 0.06243
 C256 C 0.43106 1.10279 0.05164
 C257 C 0.40769 1.12265 0.07169
 C258 C 0.37039 1.06958 0.07971
 C259 C 0.39372 1.04975 0.05968
 C260 C 0.36243 1.12179 0.12190
 C261 C 0.34066 1.13871 0.13889
 C262 C 0.45717 1.04130 0.04063
 C263 C 0.47677 1.02315 0.02227
 H264 H 0.41986 1.08551 0.15229
 H265 H 0.46325 1.04861 0.11503
 H266 H 0.44705 1.11442 0.03016
 H267 H 0.40369 1.15131 0.06739
 H268 H 0.34207 1.06365 0.08062
 H269 H 0.38539 1.02686 0.04344
 C270 C 0.61003 1.10114 -0.10199
 C271 C 0.62702 1.06784 -0.08437
 C272 C 0.60383 1.04806 -0.06428
 C273 C 0.56585 1.06345 -0.06372
 C274 C 0.55507 1.06670 -0.10369
 C275 C 0.57833 1.08654 -0.12383
 C276 C 0.59324 1.12225 -0.07056
 C277 C 0.57001 1.10243 -0.05043
 C278 C 0.63554 1.12219 -0.12332
 C279 C 0.65748 1.13888 -0.14019
 C280 C 0.54133 1.04184 -0.04184
 C281 C 0.52205 1.02349 -0.02340
 H282 H 0.65487 1.06043 -0.08743
 H283 H 0.61181 1.02372 -0.05011
 H284 H 0.53125 1.05460 -0.11511
 H285 H 0.57443 1.09143 -0.15252
 H286 H 0.59903 1.15031 -0.06469
 H287 H 0.55589 1.11350 -0.02731
 C288 C 0.38963 0.89896 -0.10167
 C289 C 0.42234 0.91182 -0.12299
 C290 C 0.44545 0.93197 -0.10291
 C291 C 0.43354 0.93723 -0.06351
 C292 C 0.42802 0.89898 -0.04876
 C293 C 0.40492 0.87885 -0.06883
 C294 C 0.37294 0.93340 -0.08606
 C295 C 0.39599 0.95349 -0.06602
 C296 C 0.36430 0.87761 -0.12300
 C297 C 0.34251 0.86073 -0.13995
 C298 C 0.45795 0.95914 -0.04169
 C299 C 0.47721 0.97764 -0.02332
 H300 H 0.42698 0.90558 -0.15130
 H301 H 0.46989 0.94299 -0.11401
 H302 H 0.44116 0.88860 -0.02473
 H303 H 0.39828 0.85122 -0.06200
 H304 H 0.34539 0.94134 -0.09040
 H305 H 0.38820 0.97862 -0.05319
 C306 C 0.61180 0.90057 0.10009
 C307 C 0.59339 0.87905 0.06991
 C308 C 0.56995 0.89895 0.04998
 C309 C 0.56722 0.93841 0.06219
 C310 C 0.60557 0.95269 0.06098
 C311 C 0.62898 0.93282 0.08089
 C312 C 0.58127 0.91676 0.12252
 C313 C 0.55782 0.93667 0.10257
 C314 C 0.63744 0.87938 0.12127
 C315 C 0.65928 0.86246 0.13817
 C316 C 0.54237 0.96000 0.04052
 C317 C 0.52267 0.97815 0.02223
 H318 H 0.59832 0.85069 0.06466
 H319 H 0.55479 0.88764 0.02766
 H320 H 0.61363 0.97634 0.04579
 H321 H 0.65710 0.93947 0.08276
 H322 H 0.57830 0.91289 0.15147
 H323 H 0.53476 0.94986 0.11443
   
