data_POSCAR
  _audit_creation_date              2014-09-24
  _audit_creation_method            'ToBaCCo'
  _symmetry_space_group_name_H-M    'P1'
  _symmetry_Int_Tables_number       1
  _symmetry_cell_setting            triclinic
  loop_
  _symmetry_equiv_pos_as_xyz
 x,y,z
_cell_length_a 47.0913
_cell_length_b 47.4062
_cell_length_c 45.4065
_cell_angle_alpha 89.668200
_cell_angle_beta 89.818500
_cell_angle_gamma 90.451400
loop_
  _atom_site_label
  _atom_site_type_symbol
  _atom_site_fract_x
  _atom_site_fract_y
  _atom_site_fract_z
O1 O 0.01530 0.29135 -0.03114
 O2 O -0.03226 0.28840 0.03457
 O3 O 0.02221 0.29955 0.02506
 O4 O -0.03833 0.28297 -0.02249
 O5 O -0.03043 0.23746 -0.01670
 O6 O 0.03143 0.25419 0.02990
 O7 O -0.02213 0.24338 0.03968
 O8 O 0.02254 0.24558 -0.02600
 Cu9 Cu -0.00914 0.29520 0.00132
 Cu10 Cu 0.00123 0.24068 0.00754
 C11 C 0.02616 0.26844 -0.04017
 C12 C -0.03534 0.26504 0.04831
 C13 C 0.03752 0.27985 0.03512
 C14 C -0.04435 0.25749 -0.02837
 O15 O 0.54833 0.73650 0.46912
 O16 O 0.49123 0.73352 0.52524
 O17 O 0.54655 0.73606 0.52715
 O18 O 0.49270 0.73437 0.46785
 O19 O 0.49420 0.68787 0.46839
 O20 O 0.54806 0.68960 0.52649
 O21 O 0.49318 0.68703 0.52486
 O22 O 0.54932 0.69001 0.46892
 Cu23 Cu 0.51972 0.73983 0.49731
 Cu24 Cu 0.52159 0.68402 0.49709
 C25 C 0.55830 0.71360 0.45916
 C26 C 0.48232 0.70963 0.53442
 C27 C 0.55616 0.71297 0.53726
 C28 C 0.48388 0.71066 0.45844
 O29 O 1.04908 0.68074 0.01651
 O30 O 0.98268 0.68005 -0.02541
 O31 O 1.03631 0.68224 -0.03869
 O32 O 0.99550 0.67897 0.03024
 O33 O 0.99183 0.72533 0.02988
 O34 O 1.03838 0.72858 -0.03562
 O35 O 0.98324 0.72658 -0.02722
 O36 O 1.04651 0.72691 0.02108
 Cu37 Cu 1.01589 0.67587 -0.00446
 Cu38 Cu 1.01478 0.73157 -0.00291
 C39 C 1.05906 0.70377 0.02644
 C40 C 0.97188 0.70309 -0.03403
 C41 C 1.04516 0.70587 -0.04855
 C42 C 0.98637 0.70153 0.04170
 O43 O 0.52401 0.16826 0.53252
 O44 O 0.46911 0.16649 0.47601
 O45 O 0.52386 0.16806 0.47502
 O46 O 0.46947 0.16837 0.53308
 O47 O 0.46860 0.21489 0.53189
 O48 O 0.52401 0.21459 0.47403
 O49 O 0.46841 0.21298 0.47430
 O50 O 0.52400 0.21481 0.53190
 Cu51 Cu 0.49672 0.16319 0.50422
 Cu52 Cu 0.49630 0.21904 0.50285
 C53 C 0.53301 0.19162 0.54242
 C54 C 0.45935 0.18918 0.46533
 C55 C 0.53307 0.19122 0.46435
 C56 C 0.45984 0.19156 0.54261
 O57 O 0.77798 -0.00917 0.04709
 O58 O 0.75584 0.03655 -0.01344
 O59 O 0.76729 -0.01674 -0.00850
 O60 O 0.77002 0.04483 0.04159
 O61 O 0.81504 0.05144 0.02970
 O62 O 0.81217 -0.00855 -0.02018
 O63 O 0.80042 0.04534 -0.02536
 O64 O 0.82300 -0.00253 0.03516
 Cu65 Cu 0.76329 0.01325 0.01785
 Cu66 Cu 0.81709 0.02229 0.00352
 C67 C 0.80408 -0.01406 0.05144
 C68 C 0.77398 0.04885 -0.02985
 C69 C 0.78970 -0.02325 -0.02255
 C70 C 0.79333 0.05834 0.04446
 O71 O 0.16547 0.54889 0.46261
 O72 O 0.16453 0.48811 0.51293
 O73 O 0.16560 0.54229 0.51958
 O74 O 0.16491 0.49387 0.45697
 O75 O 0.21171 0.49225 0.45753
 O76 O 0.21243 0.54382 0.51841
 O77 O 0.21140 0.48878 0.51450
 O78 O 0.21227 0.54747 0.46079
 Cu79 Cu 0.16044 0.51857 0.48791
 Cu80 Cu 0.21671 0.51824 0.48773
 C81 C 0.18896 0.55847 0.45292
 C82 C 0.18772 0.47792 0.52217
 C83 C 0.18900 0.55137 0.52976
 C84 C 0.18803 0.48382 0.44731
 O85 O 0.30083 0.99774 -0.04103
 O86 O 0.28047 1.04583 0.01884
 O87 O 0.30400 0.99632 0.01628
 O88 O 0.27772 1.04722 -0.03846
 O89 O 0.23506 1.02788 -0.03576
 O90 O 0.26168 0.97612 0.01794
 O91 O 0.23811 1.02566 0.02075
 O92 O 0.25823 0.97823 -0.03956
 Cu93 Cu 0.29503 1.02372 -0.01127
 Cu94 Cu 0.24409 0.99980 -0.00895
 C95 C 0.28295 0.97989 -0.05080
 C96 C 0.25565 1.04413 0.02982
 C97 C 0.28731 0.97748 0.02651
 C98 C 0.25181 1.04656 -0.04626
 O99 O 0.72010 0.54762 0.53551
 O100 O 0.71607 0.48913 0.48244
 O101 O 0.72094 0.54362 0.47831
 O102 O 0.71643 0.49271 0.53992
 O103 O 0.66985 0.49714 0.54039
 O104 O 0.67414 0.54506 0.47642
 O105 O 0.66928 0.49126 0.48367
 O106 O 0.67353 0.55219 0.53303
 Cu107 Cu 0.72309 0.51792 0.50923
 Cu108 Cu 0.66701 0.52176 0.50859
 C109 C 0.69748 0.56036 0.54262
 C110 C 0.69191 0.48020 0.47402
 C111 C 0.69830 0.55258 0.46646
 C112 C 0.69231 0.48618 0.55068
 C113 C 0.24424 0.27044 0.24862
 C114 C 0.25819 0.24560 0.25015
 C115 C 0.25391 0.22396 0.22718
 C116 C 0.27681 0.23819 0.27517
 C117 C 0.24254 0.29009 0.27373
 C118 C 0.22534 0.27651 0.22353
 C119 C 0.23042 0.20573 0.22882
 C120 C 0.22577 0.18570 0.20694
 C121 C 0.24427 0.18382 0.18262
 C122 C 0.26786 0.20225 0.18111
 C123 C 0.27271 0.22205 0.20332
 C124 C 0.27162 0.21333 0.29122
 C125 C 0.29050 0.20461 0.31294
 C126 C 0.31527 0.22032 0.31878
 C127 C 0.31990 0.24584 0.30347
 C128 C 0.30077 0.25473 0.28184
 C129 C 0.24984 0.31862 0.26979
 C130 C 0.24275 0.33845 0.29123
 C131 C 0.22764 0.33006 0.31655
 C132 C 0.22154 0.30130 0.32108
 C133 C 0.22906 0.28144 0.29989
 C134 C 0.23640 0.28687 0.19687
 C135 C 0.21834 0.29181 0.17304
 C136 C 0.18911 0.28600 0.17553
 C137 C 0.17820 0.27556 0.20230
 C138 C 0.19617 0.27105 0.22619
 H139 H 0.21566 0.20707 0.24710
 H140 H 0.20775 0.17155 0.20925
 H141 H 0.28230 0.20174 0.16254
 H142 H 0.29080 0.23623 0.20168
 H143 H 0.25308 0.20044 0.28674
 H144 H 0.28591 0.18526 0.32487
 H145 H 0.30519 0.27391 0.26954
 H146 H 0.25988 0.32568 0.24952
 H147 H 0.24740 0.36054 0.28717
 H148 H 0.20988 0.29441 0.34045
 H149 H 0.22274 0.25961 0.30304
 H150 H 0.25895 0.29104 0.19457
 H151 H 0.22721 0.29975 0.15255
 H152 H 0.15571 0.27121 0.20482
 H153 H 0.18743 0.26294 0.24668
 H154 H 0.33887 0.25832 0.30733
 C155 C 0.78707 0.75095 0.25974
 C156 C 0.77124 0.77490 0.25876
 C157 C 0.77970 0.79983 0.24079
 C158 C 0.74341 0.77530 0.27403
 C159 C 0.77799 0.72683 0.27864
 C160 C 0.81171 0.74615 0.23998
 C161 C 0.80673 0.81217 0.24382
 C162 C 0.81539 0.83417 0.22510
 C163 C 0.79720 0.84423 0.20292
 C164 C 0.76984 0.83226 0.20057
 C165 C 0.76113 0.81048 0.21945
 C166 C 0.74126 0.78602 0.30267
 C167 C 0.71790 0.77878 0.32041
 C168 C 0.69651 0.76080 0.30959
 C169 C 0.69751 0.75247 0.27995
 C170 C 0.72079 0.75964 0.26234
 C171 C 0.76569 0.70287 0.26580
 C172 C 0.75375 0.68165 0.28351
 C173 C 0.75425 0.68390 0.31436
 C174 C 0.76765 0.70742 0.32715
 C175 C 0.77943 0.72871 0.30941
 C176 C 0.80932 0.74996 0.20938
 C177 C 0.83176 0.74287 0.19071
 C178 C 0.85675 0.73127 0.20223
 C179 C 0.85923 0.72774 0.23286
 C180 C 0.83690 0.73510 0.25154
 H181 H 0.82125 0.80448 0.26042
 H182 H 0.83636 0.84324 0.22796
 H183 H 0.75541 0.83906 0.18349
 H184 H 0.74025 0.80118 0.21660
 H185 H 0.75875 0.79786 0.31207
 H186 H 0.71770 0.78537 0.34320
 H187 H 0.72225 0.75110 0.24031
 H188 H 0.76439 0.70115 0.24206
 H189 H 0.74386 0.66361 0.27309
 H190 H 0.76812 0.70983 0.35084
 H191 H 0.78891 0.74708 0.31962
 H192 H 0.78976 0.75754 0.19982
 H193 H 0.82910 0.74534 0.16715
 H194 H 0.87835 0.71899 0.24231
 H195 H 0.83909 0.73176 0.27504
 H196 H 0.68109 0.73896 0.27095
 C197 C 0.73652 0.26177 0.25350
 C198 C 0.75131 0.28650 0.25535
 C199 C 0.77792 0.29027 0.23821
 C200 C 0.74221 0.30948 0.27512
 C201 C 0.71281 0.25396 0.27387
 C202 C 0.74535 0.24016 0.23204
 C203 C 0.80330 0.27949 0.24948
 C204 C 0.82696 0.27655 0.23122
 C205 C 0.82563 0.28420 0.20130
 C206 C 0.80078 0.29681 0.19054
 C207 C 0.77702 0.29975 0.20889
 C208 C 0.76022 0.31905 0.29754
 C209 C 0.75019 0.33778 0.31876
 C210 C 0.72210 0.34761 0.31765
 C211 C 0.70471 0.33925 0.29406
 C212 C 0.71466 0.32032 0.27305
 C213 C 0.68795 0.24147 0.26273
 C214 C 0.66679 0.23142 0.28179
 C215 C 0.66993 0.23388 0.31240
 C216 C 0.69440 0.24697 0.32362
 C217 C 0.71584 0.25653 0.30457
 C218 C 0.73453 0.24054 0.20332
 C219 C 0.74417 0.22117 0.18257
 C220 C 0.76522 0.20165 0.19016
 C221 C 0.77596 0.20129 0.21897
 C222 C 0.76585 0.22024 0.23988
 H223 H 0.80421 0.27163 0.27190
 H224 H 0.84593 0.26701 0.24015
 H225 H 0.79910 0.30263 0.16752
 H226 H 0.75739 0.30766 0.19976
 H227 H 0.78153 0.31092 0.29960
 H228 H 0.76409 0.34355 0.33672
 H229 H 0.70060 0.31345 0.25563
 H230 H 0.68505 0.23906 0.23924
 H231 H 0.64806 0.22144 0.27264
 H232 H 0.69747 0.24867 0.34718
 H233 H 0.73517 0.26509 0.31389
 H234 H 0.71892 0.25607 0.19695
 H235 H 0.73580 0.22190 0.16039
 H236 H 0.79213 0.18631 0.22525
 H237 H 0.77449 0.21990 0.26196
 H238 H 0.68323 0.34697 0.29207
 C239 C 0.28742 0.76738 0.23794
 C240 C 0.26279 0.75236 0.23646
 C241 C 0.24524 0.75149 0.20939
 C242 C 0.25337 0.73429 0.26141
 C243 C 0.30914 0.75971 0.26009
 C244 C 0.29384 0.79052 0.21676
 C245 C 0.21575 0.75531 0.21108
 C246 C 0.19859 0.74998 0.18664
 C247 C 0.21062 0.74012 0.16034
 C248 C 0.24023 0.73737 0.15831
 C249 C 0.25742 0.74316 0.18258
 C250 C 0.24668 0.74649 0.28859
 C251 C 0.23614 0.72980 0.31165
 C252 C 0.23259 0.70061 0.30795
 C253 C 0.23994 0.68831 0.28095
 C254 C 0.24994 0.70511 0.25770
 C255 C 0.32133 0.73287 0.25910
 C256 C 0.33992 0.72415 0.28108
 C257 C 0.34655 0.74199 0.30477
 C258 C 0.33520 0.76939 0.30507
 C259 C 0.31669 0.77823 0.28277
 C260 C 0.32016 0.79201 0.20224
 C261 C 0.32565 0.81342 0.18161
 C262 C 0.30498 0.83386 0.17537
 C263 C 0.27895 0.83269 0.19058
 C264 C 0.27347 0.81129 0.21106
 H265 H 0.20595 0.76147 0.23165
 H266 H 0.17578 0.75197 0.18879
 H267 H 0.24994 0.72977 0.13824
 H268 H 0.28007 0.73964 0.18095
 H269 H 0.24905 0.76903 0.29169
 H270 H 0.23067 0.73965 0.33234
 H271 H 0.25495 0.69542 0.23679
 H272 H 0.31598 0.71847 0.24148
 H273 H 0.34887 0.70324 0.27967
 H274 H 0.33980 0.78359 0.32305
 H275 H 0.30744 0.79905 0.28379
 H276 H 0.33621 0.77625 0.20637
 H277 H 0.34583 0.81363 0.17012
 H278 H 0.26286 0.84849 0.18685
 H279 H 0.25326 0.81093 0.22252
 H280 H 0.23716 0.66586 0.27763
 C281 C 0.75562 0.27390 0.75090
 C282 C 0.73838 0.25069 0.75228
 C283 C 0.71368 0.24701 0.73229
 C284 C 0.74337 0.22760 0.77408
 C285 C 0.78249 0.27464 0.76775
 C286 C 0.74714 0.29939 0.73419
 C287 C 0.68754 0.23766 0.74382
 C288 C 0.66538 0.23013 0.72506
 C289 C 0.66886 0.23203 0.69441
 C290 C 0.69446 0.24268 0.68282
 C291 C 0.71683 0.24981 0.70160
 C292 C 0.74500 0.23346 0.80435
 C293 C 0.74771 0.21158 0.82487
 C294 C 0.74820 0.18350 0.81548
 C295 C 0.74674 0.17752 0.78532
 C296 C 0.74449 0.19943 0.76474
 C297 C 0.80272 0.25350 0.76333
 C298 C 0.82382 0.24881 0.78422
 C299 C 0.82514 0.26530 0.80980
 C300 C 0.80662 0.28828 0.81266
 C301 C 0.78548 0.29299 0.79166
 C302 C 0.76288 0.30853 0.70964
 C303 C 0.75272 0.33033 0.69169
 C304 C 0.72691 0.34376 0.69839
 C305 C 0.71221 0.33555 0.72414
 C306 C 0.72210 0.31346 0.74168
 H307 H 0.68462 0.23530 0.76738
 H308 H 0.64574 0.22207 0.73444
 H309 H 0.69770 0.24395 0.65922
 H310 H 0.73699 0.25622 0.69210
 H311 H 0.74324 0.25490 0.81218
 H312 H 0.74811 0.21644 0.84814
 H313 H 0.74298 0.19441 0.74156
 H314 H 0.80083 0.23930 0.74481
 H315 H 0.83828 0.23143 0.78105
 H316 H 0.80715 0.30134 0.83213
 H317 H 0.76998 0.30936 0.79543
 H318 H 0.78226 0.29784 0.70355
 H319 H 0.76451 0.33584 0.67196
 H320 H 0.69278 0.34591 0.73058
 H321 H 0.70990 0.30689 0.76083
 H322 H 0.74655 0.15586 0.77783
 C323 C 0.24778 0.75674 0.73910
 C324 C 0.27272 0.77147 0.73905
 C325 C 0.29644 0.76237 0.71993
 C326 C 0.27815 0.79563 0.75912
 C327 C 0.22555 0.76063 0.76196
 C328 C 0.24241 0.73321 0.71810
 C329 C 0.30915 0.73613 0.72474
 C330 C 0.32973 0.72628 0.70530
 C331 C 0.33783 0.74239 0.68050
 C332 C 0.32582 0.76923 0.67645
 C333 C 0.30543 0.77923 0.69619
 C334 C 0.30381 0.79719 0.77475
 C335 C 0.30922 0.81959 0.79380
 C336 C 0.28909 0.84098 0.79767
 C337 C 0.26353 0.83963 0.78183
 C338 C 0.25822 0.81731 0.76253
 C339 C 0.19701 0.76240 0.75327
 C340 C 0.17523 0.75784 0.77369
 C341 C 0.18171 0.75173 0.80310
 C342 C 0.21008 0.75218 0.81237
 C343 C 0.23193 0.75654 0.79188
 C344 C 0.24378 0.73744 0.68745
 C345 C 0.23607 0.71571 0.66821
 C346 C 0.22628 0.68970 0.67938
 C347 C 0.22559 0.68530 0.70995
 C348 C 0.23371 0.70676 0.72909
 H349 H 0.30268 0.72307 0.74327
 H350 H 0.33909 0.70587 0.70954
 H351 H 0.33140 0.78207 0.65748
 H352 H 0.29578 0.79958 0.69228
 H353 H 0.31956 0.78080 0.77255
 H354 H 0.32899 0.81994 0.80592
 H355 H 0.23860 0.81702 0.75018
 H356 H 0.19166 0.76517 0.73025
 H357 H 0.15343 0.75711 0.76617
 H358 H 0.21536 0.74693 0.83493
 H359 H 0.25375 0.75438 0.79895
 H360 H 0.24988 0.75781 0.67846
 H361 H 0.23647 0.71961 0.64469
 H362 H 0.21825 0.66535 0.71903
 H363 H 0.23255 0.70294 0.75261
 H364 H 0.24785 0.85607 0.78404
 C365 C 0.24682 0.25597 0.74386
 C366 C 0.23018 0.27902 0.74022
 C367 C 0.23112 0.29625 0.71294
 C368 C 0.20595 0.28425 0.76053
 C369 C 0.24103 0.23549 0.76790
 C370 C 0.26901 0.24783 0.72227
 C371 C 0.23359 0.32568 0.71476
 C372 C 0.22912 0.34252 0.68987
 C373 C 0.22157 0.33014 0.66295
 C374 C 0.22035 0.30061 0.66088
 C375 C 0.22508 0.28379 0.68568
 C376 C 0.21007 0.28777 0.79094
 C377 C 0.18679 0.28747 0.81024
 C378 C 0.15914 0.28373 0.79931
 C379 C 0.15502 0.28240 0.76873
 C380 C 0.17818 0.28272 0.74954
 C381 C 0.21743 0.21740 0.76633
 C382 C 0.21259 0.19720 0.78828
 C383 C 0.23103 0.19501 0.81253
 C384 C 0.25436 0.21374 0.81422
 C385 C 0.25950 0.23354 0.79188
 C386 C 0.26765 0.22100 0.70949
 C387 C 0.28922 0.21180 0.69094
 C388 C 0.31293 0.22908 0.68493
 C389 C 0.31388 0.25642 0.69685
 C390 C 0.29204 0.26573 0.71544
 H391 H 0.23779 0.33561 0.73574
 H392 H 0.22984 0.36525 0.69209
 H393 H 0.21462 0.29060 0.64034
 H394 H 0.22238 0.26115 0.68397
 H395 H 0.23133 0.28931 0.79981
 H396 H 0.19052 0.28843 0.83373
 H397 H 0.17446 0.28008 0.72619
 H398 H 0.20311 0.21858 0.74774
 H399 H 0.19478 0.18287 0.78576
 H400 H 0.26867 0.21318 0.83280
 H401 H 0.27775 0.24751 0.79337
 H402 H 0.24990 0.20697 0.71404
 H403 H 0.28746 0.19095 0.68148
 H404 H 0.33192 0.27017 0.69265
 H405 H 0.29353 0.28649 0.72517
 H406 H 0.13387 0.27987 0.75975
 C407 C 0.74113 0.77471 0.76314
 C408 C 0.76082 0.75407 0.75974
 C409 C 0.75928 0.73482 0.73419
 C410 C 0.78183 0.74789 0.78313
 C411 C 0.74579 0.79779 0.78444
 C412 C 0.71419 0.77311 0.74647
 C413 C 0.75232 0.70624 0.73820
 C414 C 0.74567 0.68946 0.71389
 C415 C 0.74583 0.70114 0.68537
 C416 C 0.75455 0.72927 0.68134
 C417 C 0.76154 0.74588 0.70555
 C418 C 0.77236 0.74207 0.81188
 C419 C 0.79159 0.73446 0.83377
 C420 C 0.82069 0.73270 0.82739
 C421 C 0.83032 0.73911 0.79878
 C422 C 0.81094 0.74633 0.77667
 C423 C 0.77120 0.81335 0.78308
 C424 C 0.77826 0.83209 0.80541
 C425 C 0.76006 0.83569 0.82964
 C426 C 0.73369 0.82153 0.83006
 C427 C 0.72656 0.80270 0.80750
 C428 C 0.71096 0.78819 0.72004
 C429 C 0.69036 0.77977 0.69960
 C430 C 0.67257 0.75641 0.70559
 C431 C 0.67396 0.74350 0.73351
 C432 C 0.69468 0.75167 0.75366
 H433 H 0.75045 0.69740 0.76018
 H434 H 0.73889 0.66783 0.71749
 H435 H 0.75516 0.73861 0.65952
 H436 H 0.76731 0.76781 0.70210
 H437 H 0.74994 0.74274 0.81719
 H438 H 0.78371 0.72962 0.85568
 H439 H 0.81858 0.75057 0.75455
 H440 H 0.78611 0.81012 0.76521
 H441 H 0.79839 0.84325 0.80413
 H442 H 0.71929 0.82396 0.84848
 H443 H 0.70685 0.79085 0.80890
 H444 H 0.72605 0.80462 0.71407
 H445 H 0.68988 0.79013 0.67830
 H446 H 0.66006 0.72596 0.73912
 H447 H 0.69693 0.73981 0.77398
 H448 H 0.85267 0.73759 0.79336
 C449 C 0.25776 0.09897 0.08995
 C450 C 0.22920 0.10276 0.09474
 C451 C 0.20841 0.08776 0.07968
 C452 C 0.21741 0.06813 0.05868
 C453 C 0.24677 0.06412 0.05290
 C454 C 0.26720 0.07982 0.06888
 O455 O 0.27400 0.11508 0.10694
 C456 C 0.25526 0.12944 0.12268
 C457 C 0.22758 0.12278 0.11594
 C458 C 0.20457 0.13558 0.12946
 C459 C 0.21031 0.15593 0.15100
 C460 C 0.23871 0.16286 0.15896
 C461 C 0.26148 0.14936 0.14429
 H462 H 0.18605 0.09104 0.08393
 H463 H 0.20148 0.05639 0.04660
 H464 H 0.28974 0.07718 0.06511
 H465 H 0.18296 0.13022 0.12353
 H466 H 0.19254 0.16642 0.16124
 H467 H 0.28339 0.15379 0.14984
 C468 C 0.72084 0.61140 0.60120
 C469 C 0.70328 0.63377 0.59523
 C470 C 0.68284 0.63307 0.57320
 C471 C 0.68061 0.60836 0.55645
 C472 C 0.69908 0.58536 0.56160
 C473 C 0.71945 0.58693 0.58434
 O474 O 0.73826 0.61610 0.62360
 C475 C 0.73172 0.64208 0.63180
 C476 C 0.71070 0.65396 0.61490
 C477 C 0.70121 0.68133 0.61907
 C478 C 0.71367 0.69698 0.64181
 C479 C 0.73466 0.68487 0.66023
 C480 C 0.74389 0.65702 0.65501
 H481 H 0.66909 0.65085 0.56911
 H482 H 0.66499 0.60738 0.53902
 H483 H 0.73363 0.56957 0.58886
 H484 H 0.68482 0.69032 0.60532
 H485 H 0.70648 0.71831 0.64558
 H486 H 0.76006 0.64738 0.66855
 C487 C 0.79815 0.93634 0.11642
 C488 C 0.82522 0.92576 0.11770
 C489 C 0.84677 0.93485 0.09873
 C490 C 0.84000 0.95541 0.07742
 C491 C 0.81202 0.96616 0.07534
 C492 C 0.79099 0.95661 0.09549
 O493 O 0.78044 0.92437 0.13559
 C494 C 0.79657 0.90565 0.14923
 C495 C 0.82415 0.90555 0.13917
 C496 C 0.84418 0.88658 0.14962
 C497 C 0.83534 0.86682 0.17106
 C498 C 0.80688 0.86639 0.18169
 C499 C 0.78744 0.88650 0.17070
 H500 H 0.86790 0.92611 0.09996
 H501 H 0.85633 0.96236 0.06212
 H502 H 0.76938 0.96420 0.09453
 H503 H 0.86567 0.88654 0.14110
 H504 H 0.85046 0.85133 0.17863
 H505 H 0.76564 0.88705 0.17828
 C506 C 0.20813 0.42191 0.57746
 C507 C 0.18502 0.40411 0.57544
 C508 C 0.16211 0.40947 0.55710
 C509 C 0.16311 0.43415 0.53998
 C510 C 0.18691 0.45267 0.54125
 C511 C 0.20979 0.44637 0.56026
 O512 O 0.22716 0.41330 0.59701
 C513 C 0.21583 0.38951 0.60744
 C514 C 0.19016 0.38287 0.59476
 C515 C 0.17451 0.35895 0.60240
 C516 C 0.18562 0.34128 0.62428
 C517 C 0.21177 0.34791 0.63819
 C518 C 0.22714 0.37237 0.62951
 H519 H 0.14406 0.39523 0.55609
 H520 H 0.14553 0.43860 0.52540
 H521 H 0.22811 0.46022 0.56185
 H522 H 0.15433 0.35424 0.59214
 H523 H 0.17343 0.32288 0.63105
 H524 H 0.24711 0.37797 0.63979
 C525 C 0.91112 0.28076 0.10672
 C526 C 0.91031 0.25509 0.12095
 C527 C 0.92686 0.23245 0.11259
 C528 C 0.94501 0.23624 0.08843
 C529 C 0.94659 0.26250 0.07299
 C530 C 0.92936 0.28520 0.08262
 O531 O 0.89301 0.29921 0.11808
 C532 C 0.88064 0.28477 0.13992
 C533 C 0.89063 0.25771 0.14255
 C534 C 0.88069 0.23871 0.16365
 C535 C 0.85959 0.24798 0.18301
 C536 C 0.84870 0.27577 0.18093
 C537 C 0.85933 0.29441 0.15888
 H538 H 0.92567 0.21243 0.12412
 H539 H 0.95779 0.21845 0.08182
 H540 H 0.92971 0.30545 0.07148
 H541 H 0.88877 0.21744 0.16505
 H542 H 0.85131 0.23329 0.19931
 H543 H 0.85137 0.31568 0.15670
 C544 C 0.42741 0.72909 0.59167
 C545 C 0.41485 0.70320 0.59661
 C546 C 0.42329 0.67887 0.58224
 C547 C 0.44564 0.68129 0.56191
 C548 C 0.45896 0.70778 0.55619
 C549 C 0.44957 0.73205 0.57134
 O550 O 0.41627 0.74946 0.60789
 C551 C 0.39622 0.73610 0.62332
 C552 C 0.39448 0.70779 0.61716
 C553 C 0.37488 0.68981 0.63059
 C554 C 0.35631 0.70147 0.65132
 C555 C 0.35778 0.73062 0.65844
 C556 C 0.37809 0.74814 0.64403
 H557 H 0.41306 0.65873 0.58655
 H558 H 0.45240 0.66251 0.55048
 H559 H 0.45928 0.75254 0.56757
 H560 H 0.37378 0.66763 0.62517
 H561 H 0.34053 0.68781 0.66148
 H562 H 0.37997 0.77038 0.64899
 C563 C 0.11801 0.72601 0.07572
 C564 C 0.13338 0.70149 0.07675
 C565 C 0.12525 0.67722 0.06192
 C566 C 0.10021 0.67818 0.04535
 C567 C 0.08404 0.70339 0.04330
 C568 C 0.09342 0.72774 0.05867
 O569 O 0.12864 0.74614 0.09281
 C570 C 0.15126 0.73405 0.10473
 C571 C 0.15524 0.70683 0.09534
 C572 C 0.17742 0.69010 0.10518
 C573 C 0.19614 0.70180 0.12580
 C574 C 0.19214 0.72956 0.13647
 C575 C 0.16939 0.74597 0.12565
 H576 H 0.13753 0.65807 0.06342
 H577 H 0.09368 0.65924 0.03390
 H578 H 0.08159 0.74724 0.05809
 H579 H 0.18002 0.66869 0.09752
 H580 H 0.21321 0.68891 0.13424
 H581 H 0.16576 0.76713 0.13358
 C582 C 0.58773 0.21407 0.59867
 C583 C 0.58903 0.18989 0.61549
 C584 C 0.57340 0.16574 0.60924
 C585 C 0.55550 0.16653 0.58471
 C586 C 0.55326 0.19134 0.56717
 C587 C 0.56970 0.21549 0.57431
 O588 O 0.60470 0.23450 0.60839
 C589 C 0.61681 0.22294 0.63190
 C590 C 0.60773 0.19574 0.63725
 C591 C 0.61717 0.17974 0.66095
 C592 C 0.63693 0.19225 0.67992
 C593 C 0.64701 0.22012 0.67471
 C594 C 0.63683 0.23568 0.65028
 H595 H 0.57489 0.14695 0.62279
 H596 H 0.54295 0.14793 0.57974
 H597 H 0.56851 0.23468 0.56135
 H598 H 0.60961 0.15840 0.66469
 H599 H 0.64483 0.18006 0.69835
 H600 H 0.64416 0.25701 0.64588
 C601 C 0.77210 0.10062 0.90806
 C602 C 0.74348 0.10027 0.90215
 C603 C 0.72419 0.08374 0.91778
 C604 C 0.73472 0.06682 0.94054
 C605 C 0.76430 0.06621 0.94710
 C606 C 0.78326 0.08340 0.93028
 O607 O 0.78648 0.11882 0.89117
 C608 C 0.76645 0.13003 0.87425
 C609 C 0.73982 0.11917 0.88002
 C610 C 0.71564 0.12780 0.86508
 C611 C 0.71899 0.14866 0.84334
 C612 C 0.74607 0.16053 0.83728
 C613 C 0.77021 0.15113 0.85288
 H614 H 0.70172 0.08409 0.91285
 H615 H 0.71963 0.05402 0.95286
 H616 H 0.80584 0.08387 0.93471
 H617 H 0.69494 0.11889 0.87008
 H618 H 0.70048 0.15596 0.83151
 H619 H 0.79105 0.16010 0.84863
 C620 C 0.21166 0.61135 0.39490
 C621 C 0.18921 0.62973 0.39579
 C622 C 0.16596 0.62576 0.41434
 C623 C 0.16591 0.60192 0.43281
 C624 C 0.18907 0.58292 0.43270
 C625 C 0.21228 0.58780 0.41343
 O626 O 0.23135 0.61865 0.37525
 C627 C 0.22117 0.64221 0.36359
 C628 C 0.19555 0.65003 0.37555
 C629 C 0.18133 0.67428 0.36686
 C630 C 0.19400 0.69109 0.34484
 C631 C 0.22016 0.68318 0.33182
 C632 C 0.23390 0.65836 0.34135
 H633 H 0.14846 0.64042 0.41452
 H634 H 0.14803 0.59849 0.44749
 H635 H 0.23013 0.57356 0.41267
 H636 H 0.16124 0.68005 0.37666
 H637 H 0.18325 0.70997 0.33752
 H638 H 0.25396 0.65196 0.33187
 C639 C 0.27887 0.92521 0.89099
 C640 C 0.30586 0.92707 0.87951
 C641 C 0.32616 0.94582 0.89010
 C642 C 0.31833 0.96346 0.91345
 C643 C 0.29054 0.96203 0.92588
 C644 C 0.27061 0.94242 0.91427
 O645 O 0.26283 0.90590 0.87784
 C646 C 0.28010 0.89531 0.85763
 C647 C 0.30670 0.90751 0.85776
 C648 C 0.32822 0.89932 0.83868
 C649 C 0.32213 0.87755 0.81878
 C650 C 0.29487 0.86453 0.81823
 C651 C 0.27352 0.87377 0.83791
 H652 H 0.34731 0.94686 0.88073
 H653 H 0.33404 0.97816 0.92179
 H654 H 0.24923 0.94054 0.92297
 H655 H 0.34900 0.90923 0.83919
 H656 H 0.33860 0.87093 0.80369
 H657 H 0.25264 0.86406 0.83830
 C658 C 0.71027 0.42922 0.41343
 C659 C 0.68471 0.41536 0.41018
 C660 C 0.66104 0.42123 0.42737
 C661 C 0.66374 0.44244 0.44862
 C662 C 0.68989 0.45708 0.45245
 C663 C 0.71355 0.45014 0.43467
 O664 O 0.72992 0.42084 0.39445
 C665 C 0.71649 0.40121 0.37895
 C666 C 0.68881 0.39702 0.38775
 C667 C 0.67091 0.37742 0.37456
 C668 C 0.68204 0.36138 0.35142
 C669 C 0.71054 0.36535 0.34171
 C670 C 0.72792 0.38571 0.35581
 H671 H 0.64111 0.41012 0.42431
 H672 H 0.64544 0.44749 0.46202
 H673 H 0.73368 0.46112 0.43679
 H674 H 0.64924 0.37439 0.38199
 H675 H 0.66854 0.34550 0.34151
 H676 H 0.74963 0.38956 0.34890
 C677 C 0.07826 0.28380 0.89807
 C678 C 0.07209 0.26146 0.87989
 C679 C 0.05124 0.24149 0.88628
 C680 C 0.03618 0.24447 0.91267
 C681 C 0.04186 0.26735 0.93182
 C682 C 0.06299 0.28757 0.92428
 O683 O 0.09994 0.29947 0.88832
 C684 C 0.10746 0.28672 0.86348
 C685 C 0.09088 0.26349 0.85734
 C686 C 0.09508 0.24665 0.83283
 C687 C 0.11735 0.25399 0.81374
 C688 C 0.13505 0.27769 0.81949
 C689 C 0.13005 0.29428 0.84484
 H690 H 0.04706 0.22394 0.87174
 H691 H 0.02004 0.22892 0.91827
 H692 H 0.06801 0.30494 0.93879
 H693 H 0.08184 0.22835 0.82868
 H694 H 0.12125 0.24079 0.79478
 H695 H 0.14333 0.31236 0.84986
 C696 C 0.61270 0.73897 0.40312
 C697 C 0.61958 0.71381 0.39010
 C698 C 0.60786 0.68813 0.39888
 C699 C 0.58803 0.68836 0.42195
 C700 C 0.58015 0.71404 0.43564
 C701 C 0.59284 0.73973 0.42605
 O702 O 0.62644 0.76094 0.39138
 C703 C 0.64222 0.74934 0.37043
 C704 C 0.63864 0.72056 0.36872
 C705 C 0.65265 0.70412 0.34817
 C706 C 0.67115 0.71788 0.32852
 C707 C 0.67556 0.74751 0.32986
 C708 C 0.66090 0.76346 0.35128
 H709 H 0.61369 0.66861 0.38828
 H710 H 0.57859 0.66849 0.42886
 H711 H 0.58736 0.75967 0.43599
 H712 H 0.64948 0.68150 0.34729
 H713 H 0.68247 0.70542 0.31252
 H714 H 0.66382 0.78608 0.35281
 C715 C 0.91509 0.72142 0.91041
 C716 C 0.89742 0.69834 0.91352
 C717 C 0.90266 0.67656 0.93332
 C718 C 0.92724 0.67852 0.95053
 C719 C 0.94580 0.70216 0.94800
 C720 C 0.93946 0.72406 0.92775
 O721 O 0.90646 0.73939 0.88978
 C722 C 0.88280 0.72741 0.87976
 C723 C 0.87629 0.70234 0.89372
 C724 C 0.85233 0.68636 0.88703
 C725 C 0.83420 0.69670 0.86513
 C726 C 0.84046 0.72238 0.85019
 C727 C 0.86525 0.73788 0.85750
 H728 H 0.88847 0.65856 0.93523
 H729 H 0.93175 0.66164 0.96596
 H730 H 0.95337 0.74219 0.92511
 H731 H 0.84767 0.66671 0.89837
 H732 H 0.81538 0.68461 0.85956
 H733 H 0.87040 0.75762 0.84655
 C734 C 0.40314 0.20858 0.40939
 C735 C 0.39709 0.18237 0.39810
 C736 C 0.41029 0.15795 0.40771
 C737 C 0.43064 0.16058 0.42994
 C738 C 0.43752 0.18736 0.44205
 C739 C 0.42350 0.21175 0.43151
 O740 O 0.38791 0.22898 0.39712
 C741 C 0.37199 0.21527 0.37767
 C742 C 0.37689 0.18673 0.37745
 C743 C 0.36278 0.16827 0.35882
 C744 C 0.34265 0.17966 0.33960
 C745 C 0.33681 0.20904 0.33944
 C746 C 0.35191 0.22710 0.35877
 H747 H 0.40510 0.13758 0.39844
 H748 H 0.44113 0.14167 0.43757
 H749 H 0.42819 0.23246 0.44026
 H750 H 0.36721 0.14590 0.35896
 H751 H 0.33189 0.16557 0.32455
 H752 H 0.34790 0.24954 0.35935
 C753 C 0.76889 0.91941 0.92388
 C754 C 0.79447 0.90584 0.92118
 C755 C 0.81864 0.91389 0.93650
 C756 C 0.81649 0.93711 0.95524
 C757 C 0.79042 0.95159 0.95854
 C758 C 0.76611 0.94235 0.94292
 O759 O 0.74908 0.90922 0.90594
 C760 C 0.76253 0.88882 0.89168
 C761 C 0.79031 0.88591 0.90036
 C762 C 0.80870 0.86665 0.88777
 C763 C 0.79817 0.84986 0.86497
 C764 C 0.76977 0.85272 0.85501
 C765 C 0.75153 0.87222 0.86897
 H766 H 0.83860 0.90305 0.93367
 H767 H 0.83522 0.94390 0.96712
 H768 H 0.74610 0.95331 0.94466
 H769 H 0.83049 0.86482 0.89501
 H770 H 0.81223 0.83468 0.85494
 H771 H 0.72986 0.87506 0.86168
 C772 C 0.21013 0.42747 0.39327
 C773 C 0.18430 0.41472 0.38816
 C774 C 0.15907 0.42435 0.40022
 C775 C 0.16052 0.44786 0.41874
 C776 C 0.18697 0.46107 0.42513
 C777 C 0.21213 0.45080 0.41188
 O778 O 0.23153 0.41477 0.37970
 C779 C 0.21889 0.39346 0.36590
 C780 C 0.19003 0.39243 0.37059
 C781 C 0.17266 0.37140 0.35910
 C782 C 0.18554 0.35064 0.34186
 C783 C 0.21519 0.35144 0.33621
 C784 C 0.23211 0.37324 0.34837
 H785 H 0.13901 0.41392 0.39584
 H786 H 0.14106 0.45521 0.42875
 H787 H 0.23265 0.46025 0.41639
 H788 H 0.15003 0.37097 0.36328
 H789 H 0.17236 0.33423 0.33240
 H790 H 0.25479 0.37425 0.34446
 C791 C 0.24974 0.10570 0.90000
 C792 C 0.22099 0.10753 0.89526
 C793 C 0.20147 0.08938 0.90862
 C794 C 0.21199 0.06863 0.92779
 C795 C 0.24160 0.06672 0.93372
 C796 C 0.26063 0.08571 0.91941
 O797 O 0.26477 0.12429 0.88441
 C798 C 0.24507 0.13829 0.86964
 C799 C 0.21793 0.12905 0.87566
 C800 C 0.19413 0.14103 0.86277
 C801 C 0.19854 0.16324 0.84264
 C802 C 0.22647 0.17269 0.83532
 C803 C 0.25000 0.15992 0.84934
 H804 H 0.17895 0.09103 0.90431
 H805 H 0.19693 0.05442 0.93834
 H806 H 0.28335 0.08487 0.92296
 H807 H 0.17292 0.13362 0.86809
 H808 H 0.18014 0.17305 0.83288
 H809 H 0.27163 0.16600 0.84413
 C810 C 0.72581 0.60486 0.40990
 C811 C 0.70303 0.60606 0.39105
 C812 C 0.67805 0.59086 0.39588
 C813 C 0.67655 0.57363 0.42110
 C814 C 0.69997 0.57159 0.44061
 C815 C 0.72495 0.58752 0.43483
 O816 O 0.74736 0.62129 0.40153
 C817 C 0.73804 0.63300 0.37679
 C818 C 0.71113 0.62422 0.36928
 C819 C 0.69757 0.63334 0.34384
 C820 C 0.71228 0.65242 0.32549
 C821 C 0.73977 0.66245 0.33314
 C822 C 0.75282 0.65239 0.35917
 H823 H 0.66035 0.59225 0.38081
 H824 H 0.65732 0.56152 0.42515
 H825 H 0.74310 0.58658 0.44938
 H826 H 0.67645 0.62599 0.33827
 H827 H 0.70204 0.65975 0.30560
 H828 H 0.77392 0.65930 0.36540
 C829 C 0.09513 0.73150 0.89355
 C830 C 0.09989 0.70677 0.87876
 C831 C 0.08687 0.68141 0.88647
 C832 C 0.06834 0.68140 0.91067
 C833 C 0.06286 0.70664 0.92651
 C834 C 0.07632 0.73216 0.91736
 O835 O 0.11062 0.75300 0.88333
 C836 C 0.12544 0.74153 0.86158
 C837 C 0.11949 0.71330 0.85784
 C838 C 0.13276 0.69693 0.83666
 C839 C 0.15303 0.71020 0.81858
 C840 C 0.15975 0.73915 0.82219
 C841 C 0.14579 0.75513 0.84395
 H842 H 0.09118 0.66218 0.87459
 H843 H 0.05839 0.66160 0.91704
 H844 H 0.07306 0.75178 0.92895
 H845 H 0.12776 0.67475 0.83422
 H846 H 0.16379 0.69795 0.80191
 H847 H 0.15074 0.77726 0.84707
 C848 C 0.58817 0.21395 0.40799
 C849 C 0.59098 0.18940 0.39230
 C850 C 0.57623 0.16478 0.39943
 C851 C 0.55766 0.16552 0.42361
 C852 C 0.55390 0.19072 0.43991
 C853 C 0.56952 0.21528 0.43193
 O854 O 0.60434 0.23488 0.39765
 C855 C 0.61753 0.22329 0.37487
 C856 C 0.60993 0.19555 0.37056
 C857 C 0.62068 0.17949 0.34762
 C858 C 0.64014 0.19254 0.32836
 C859 C 0.64868 0.22101 0.33253
 C860 C 0.63721 0.23658 0.35621
 H861 H 0.57888 0.14569 0.38678
 H862 H 0.54582 0.14657 0.42927
 H863 H 0.56721 0.23480 0.44392
 H864 H 0.61427 0.15772 0.34462
 H865 H 0.64896 0.18036 0.31046
 H866 H 0.64322 0.25838 0.35977
 C867 C 0.90218 0.26681 0.91082
 C868 C 0.89463 0.23924 0.90552
 C869 C 0.90522 0.21677 0.92186
 C870 C 0.92474 0.22296 0.94430
 C871 C 0.93313 0.25125 0.94997
 C872 C 0.92130 0.27345 0.93311
 O873 O 0.89036 0.28499 0.89231
 C874 C 0.87500 0.26854 0.87489
 C875 C 0.87688 0.24037 0.88202
 C876 C 0.86288 0.21944 0.86630
 C877 C 0.84616 0.22790 0.84236
 C878 C 0.84385 0.25688 0.83449
 C879 C 0.85854 0.27744 0.85115
 H880 H 0.89908 0.19521 0.91717
 H881 H 0.93366 0.20570 0.95684
 H882 H 0.92748 0.29524 0.93651
 H883 H 0.86465 0.19740 0.87232
 H884 H 0.83459 0.21190 0.83029
 H885 H 0.85739 0.29966 0.84567
 C886 C 0.43129 0.73034 0.39881
 C887 C 0.41743 0.70494 0.39542
 C888 C 0.42431 0.68093 0.41144
 C889 C 0.44641 0.68315 0.43191
 C890 C 0.46101 0.70914 0.43619
 C891 C 0.45321 0.73314 0.41936
 O892 O 0.42171 0.75033 0.38081
 C893 C 0.40133 0.73720 0.36584
 C894 C 0.39786 0.70944 0.37411
 C895 C 0.37784 0.69167 0.36143
 C896 C 0.36082 0.70284 0.33905
 C897 C 0.36423 0.73128 0.32945
 C898 C 0.38468 0.74878 0.34341
 H899 H 0.41314 0.66116 0.40823
 H900 H 0.45192 0.66460 0.44462
 H901 H 0.46399 0.75322 0.42197
 H902 H 0.37539 0.66995 0.36852
 H903 H 0.34487 0.68929 0.32929
 H904 H 0.38800 0.77047 0.33659
 C905 C 0.28954 0.91790 0.08196
 C906 C 0.31721 0.91981 0.09138
 C907 C 0.33626 0.93980 0.08027
 C908 C 0.32631 0.95859 0.05868
 C909 C 0.29776 0.95713 0.04871
 C910 C 0.27922 0.93630 0.06057
 O911 O 0.27474 0.89778 0.09560
 C912 C 0.29344 0.88679 0.11408
 C913 C 0.31977 0.89945 0.11241
 C914 C 0.34230 0.89143 0.13026
 C915 C 0.33741 0.86960 0.15078
 C916 C 0.31032 0.85631 0.15304
 C917 C 0.28816 0.86504 0.13414
 H918 H 0.35792 0.94100 0.08808
 H919 H 0.34083 0.97438 0.04992
 H920 H 0.25731 0.93460 0.05361
 H921 H 0.36281 0.90182 0.12870
 H922 H 0.35452 0.86350 0.16528
 H923 H 0.26735 0.85521 0.13496
 C924 C 0.71214 0.43387 0.61036
 C925 C 0.68571 0.42404 0.61854
 C926 C 0.66078 0.43407 0.60610
 C927 C 0.66318 0.45495 0.58417
 C928 C 0.69022 0.46523 0.57495
 C929 C 0.71504 0.45453 0.58848
 O930 O 0.73313 0.42126 0.62467
 C931 C 0.71964 0.40300 0.64218
 C932 C 0.69062 0.40384 0.63920
 C933 C 0.67242 0.38596 0.65474
 C934 C 0.68459 0.36640 0.67416
 C935 C 0.71454 0.36516 0.67802
 C936 C 0.73223 0.38392 0.66164
 H937 H 0.64022 0.42594 0.61287
 H938 H 0.64395 0.46274 0.57408
 H939 H 0.73601 0.46180 0.58196
 H940 H 0.64965 0.38673 0.65168
 H941 H 0.67060 0.35183 0.68566
 H942 H 0.75510 0.38377 0.66394
 C943 C 0.77531 0.11526 0.09942
 C944 C 0.80209 0.12516 0.10595
 C945 C 0.82647 0.11466 0.09290
 C946 C 0.82317 0.09296 0.07234
 C947 C 0.79581 0.08199 0.06543
 C948 C 0.77151 0.09346 0.07919
 O949 O 0.75501 0.12809 0.11451
 C950 C 0.76934 0.14636 0.13096
 C951 C 0.79823 0.14530 0.12663
 C952 C 0.81734 0.16199 0.14219
 C953 C 0.80620 0.18048 0.16319
 C954 C 0.77648 0.18212 0.16791
 C955 C 0.75778 0.16493 0.15139
 H956 H 0.84731 0.12280 0.09843
 H957 H 0.84206 0.08446 0.06217
 H958 H 0.75038 0.08562 0.07443
 H959 H 0.84000 0.16066 0.13848
 H960 H 0.82063 0.19367 0.17565
 H961 H 0.73503 0.16561 0.15483
 C962 C 0.21031 0.60662 0.58557
 C963 C 0.18621 0.60706 0.60275
 C964 C 0.16268 0.59003 0.59740
 C965 C 0.16393 0.57183 0.57324
 C966 C 0.18857 0.57072 0.55517
 C967 C 0.21218 0.58834 0.56159
 O968 O 0.23008 0.62487 0.59436
 C969 C 0.21818 0.63699 0.61762
 C970 C 0.19140 0.62668 0.62371
 C971 C 0.17514 0.63601 0.64725
 C972 C 0.18701 0.65675 0.66540
 C973 C 0.21453 0.66791 0.65960
 C974 C 0.23028 0.65800 0.63519
 H975 H 0.14395 0.59084 0.61124
 H976 H 0.14574 0.55843 0.56875
 H977 H 0.23120 0.58811 0.54813
 H978 H 0.15412 0.62753 0.65156
 H979 H 0.17471 0.66435 0.68387
 H980 H 0.25137 0.66608 0.63039
 C981 C 0.93634 0.72021 0.10369
 C982 C 0.93763 0.69605 0.12054
 C983 C 0.95423 0.67309 0.11288
 C984 C 0.97015 0.67512 0.08678
 C985 C 0.96942 0.69992 0.06910
 C986 C 0.95231 0.72284 0.07786
 O987 O 0.91856 0.73919 0.11442
 C988 C 0.90846 0.72675 0.13859
 C989 C 0.91958 0.70039 0.14341
 C990 C 0.91177 0.68354 0.16729
 C991 C 0.89150 0.69422 0.18691
 C992 C 0.87937 0.72120 0.18223
 C993 C 0.88813 0.73770 0.15770
 H994 H 0.95472 0.65422 0.12639
 H995 H 0.98318 0.65742 0.08046
 H996 H 0.95107 0.74193 0.06474
 H997 H 0.92074 0.66281 0.17054
 H998 H 0.88470 0.68117 0.20531
 H999 H 0.87928 0.75836 0.15356
 C1000 C 0.40357 0.21380 0.59743
 C1001 C 0.39981 0.18896 0.61278
 C1002 C 0.41456 0.16453 0.60626
 C1003 C 0.43411 0.16568 0.58295
 C1004 C 0.43869 0.19106 0.56677
 C1005 C 0.42316 0.21553 0.57426
 O1006 O 0.38679 0.23433 0.60685
 C1007 C 0.37219 0.22212 0.62863
 C1008 C 0.37951 0.19440 0.63314
 C1009 C 0.36682 0.17743 0.65451
 C1010 C 0.34540 0.18936 0.67176
 C1011 C 0.33685 0.21776 0.66730
 C1012 C 0.35082 0.23448 0.64559
 H1013 H 0.41107 0.14520 0.61860
 H1014 H 0.44584 0.14680 0.57771
 H1015 H 0.42603 0.23517 0.56229
 H1016 H 0.37307 0.15570 0.65767
 H1017 H 0.33543 0.17640 0.68863
 H1018 H 0.34470 0.25610 0.64146
 C1019 C 0.09769 0.27515 0.08954
 C1020 C 0.10997 0.30140 0.08601
 C1021 C 0.09963 0.32141 0.06639
 C1022 C 0.07564 0.31409 0.04977
 C1023 C 0.06275 0.28704 0.05281
 C1024 C 0.07413 0.26725 0.07290
 O1025 O 0.11012 0.25967 0.11016
 C1026 C 0.13070 0.27648 0.11980
 C1027 C 0.13167 0.30219 0.10562
 C1028 C 0.15144 0.32307 0.11252
 C1029 C 0.17083 0.31729 0.13515
 C1030 C 0.16983 0.29114 0.15050
 C1031 C 0.14956 0.27041 0.14250
 H1032 H 0.10950 0.34202 0.06417
 H1033 H 0.06723 0.32941 0.03439
 H1034 H 0.06458 0.24658 0.07594
 H1035 H 0.15174 0.34318 0.10111
 H1036 H 0.18610 0.33340 0.14128
 H1037 H 0.14839 0.25024 0.15377
 C1038 C 0.60220 0.73701 0.60085
 C1039 C 0.61087 0.71137 0.61171
 C1040 C 0.60358 0.68589 0.59870
 C1041 C 0.58618 0.68680 0.57372
 C1042 C 0.57630 0.71291 0.56229
 C1043 C 0.58479 0.73843 0.57599
 O1044 O 0.61154 0.75868 0.61667
 C1045 C 0.62631 0.74638 0.63802
 C1046 C 0.62637 0.71746 0.63602
 C1047 C 0.63998 0.70026 0.65629
 C1048 C 0.65450 0.71340 0.67941
 C1049 C 0.65526 0.74329 0.68192
 C1050 C 0.64081 0.75998 0.66081
 H1051 H 0.61082 0.66599 0.60762
 H1052 H 0.58005 0.66704 0.56362
 H1053 H 0.57764 0.75870 0.56795
 H1054 H 0.63977 0.67753 0.65418
 H1055 H 0.66599 0.70022 0.69477
 H1056 H 0.64080 0.78277 0.66211
   
