data_POSCAR
  _audit_creation_date              2014-09-24
  _audit_creation_method            'ToBaCCo'
  _symmetry_space_group_name_H-M    'P1'
  _symmetry_Int_Tables_number       1
  _symmetry_cell_setting            triclinic
  loop_
  _symmetry_equiv_pos_as_xyz
 x,y,z
_cell_length_a 26.7914
_cell_length_b 26.9463
_cell_length_c 27.0810
_cell_angle_alpha 90.101800
_cell_angle_beta 90.016900
_cell_angle_gamma 90.000400
loop_
  _atom_site_label
  _atom_site_type_symbol
  _atom_site_fract_x
  _atom_site_fract_y
  _atom_site_fract_z
C1 C 0.28704 0.24848 0.21313
 C2 C 0.28695 0.21195 0.25008
 C3 C 0.25040 0.21204 0.28728
 C4 C 0.21366 0.24925 0.28723
 C5 C 0.21318 0.28607 0.25058
 C6 C 0.25001 0.28539 0.21369
 H7 H 0.31540 0.18338 0.24988
 H8 H 0.18537 0.24955 0.31580
 H9 H 0.24987 0.31367 0.18532
 C10 C 0.71272 -0.24969 0.21203
 C11 C 0.71329 -0.21293 0.24909
 C12 C 0.74912 -0.21371 0.28691
 C13 C 0.78515 -0.25151 0.28748
 C14 C 0.78616 -0.28834 0.25052
 C15 C 0.74953 -0.28709 0.21313
 H16 H 0.68561 -0.18363 0.24891
 H17 H 0.81269 -0.25184 0.31678
 H18 H 0.74971 -0.31538 0.18467
 C19 C 0.71441 0.24970 0.78660
 C20 C 0.71408 0.21359 0.74919
 C21 C 0.75002 0.21420 0.71149
 C22 C 0.78643 0.25174 0.71123
 C23 C 0.78778 0.28825 0.74859
 C24 C 0.75147 0.28658 0.78624
 H25 H 0.68576 0.18490 0.74943
 H26 H 0.81392 0.25215 0.68191
 H27 H 0.75166 0.31420 0.81535
 C28 C 0.28576 -0.24847 0.78812
 C29 C 0.24841 -0.28509 0.78798
 C30 C 0.21202 -0.28679 0.75039
 C31 C 0.21355 -0.25057 0.71292
 C32 C 0.25020 -0.21326 0.71294
 C33 C 0.28624 -0.21261 0.75058
 H34 H 0.24809 -0.31252 0.81718
 H35 H 0.18601 -0.25103 0.68362
 H36 H 0.31478 -0.18413 0.75063
 C37 C 0.71419 -0.24826 0.78781
 C38 C 0.71372 -0.21232 0.75039
 C39 C 0.74968 -0.21301 0.71273
 C40 C 0.78620 -0.25040 0.71253
 C41 C 0.78769 -0.28668 0.74992
 C42 C 0.75141 -0.28497 0.78755
 H43 H 0.68527 -0.18375 0.75056
 H44 H 0.81368 -0.25088 0.68319
 H45 H 0.75171 -0.31246 0.81670
 C46 C 0.28689 0.24924 0.78631
 C47 C 0.24992 0.28618 0.78586
 C48 C 0.21301 0.28676 0.74903
 C49 C 0.21335 0.24984 0.71236
 C50 C 0.25005 0.21262 0.71226
 C51 C 0.28668 0.21261 0.74937
 H52 H 0.24987 0.31455 0.81425
 H53 H 0.18499 0.25006 0.68384
 H54 H 0.31509 0.18401 0.74950
 C55 C 0.28873 -0.24946 0.21200
 C56 C 0.25208 -0.28697 0.21322
 C57 C 0.21490 -0.28719 0.24976
 C58 C 0.21481 -0.24987 0.28594
 C59 C 0.25110 -0.21236 0.28574
 C60 C 0.28762 -0.21217 0.24856
 H61 H 0.25208 -0.31604 0.18553
 H62 H 0.18638 -0.25003 0.31438
 H63 H 0.31539 -0.18294 0.24847
 C64 C 0.71255 0.24859 0.21380
 C65 C 0.71269 0.21197 0.25062
 C66 C 0.74923 0.21208 0.28782
 C67 C 0.78588 0.24935 0.28793
 C68 C 0.78626 0.28622 0.25137
 C69 C 0.74946 0.28556 0.21446
 H70 H 0.68432 0.18333 0.25031
 H71 H 0.81418 0.24965 0.31651
 H72 H 0.74956 0.31391 0.18614
 O73 O 0.20963 0.04773 0.45205
 O74 O 0.20974 -0.04943 0.54760
 O75 O 0.20936 0.04757 0.54783
 O76 O 0.20968 -0.04911 0.45169
 O77 O 0.29215 -0.04869 0.45150
 O78 O 0.29184 0.04742 0.54827
 O79 O 0.29220 -0.04896 0.54810
 O80 O 0.29211 0.04753 0.45180
 Cu81 Cu 0.20132 -0.00086 0.49982
 Cu82 Cu 0.30037 -0.00069 0.49996
 C83 C 0.25086 0.06405 0.43559
 C84 C 0.25097 -0.06564 0.56418
 C85 C 0.25054 0.06393 0.56439
 C86 C 0.25095 -0.06518 0.43510
 O87 O 0.79042 0.04810 0.54777
 O88 O 0.79014 -0.04931 0.45214
 O89 O 0.79023 0.04758 0.45204
 O90 O 0.79018 -0.04894 0.54799
 O91 O 0.70771 -0.04856 0.54840
 O92 O 0.70775 0.04740 0.45180
 O93 O 0.70767 -0.04888 0.45184
 O94 O 0.70795 0.04787 0.54823
 Cu95 Cu 0.79853 -0.00068 0.50001
 Cu96 Cu 0.69948 -0.00056 0.50011
 C97 C 0.74924 0.06457 0.56424
 C98 C 0.74888 -0.06554 0.43561
 C99 C 0.74900 0.06385 0.43557
 C100 C 0.74895 -0.06513 0.56454
 O101 O 0.45179 0.20693 0.04752
 O102 O 0.54896 0.20721 -0.04879
 O103 O 0.54857 0.20695 0.04773
 O104 O 0.45202 0.20725 -0.04902
 O105 O 0.45175 0.28925 -0.04834
 O106 O 0.54881 0.28896 0.04775
 O107 O 0.54925 0.28921 -0.04806
 O108 O 0.45146 0.28893 0.04749
 Cu109 Cu 0.50033 0.19883 -0.00071
 Cu110 Cu 0.50032 0.29732 -0.00028
 C111 C 0.43514 0.24790 0.06389
 C112 C 0.56569 0.24827 -0.06472
 C113 C 0.56507 0.24794 0.06420
 C114 C 0.43542 0.24831 -0.06506
 O115 O 0.54882 0.79277 0.04942
 O116 O 0.45175 0.79325 -0.04712
 O117 O 0.45229 0.79265 0.04955
 O118 O 0.54883 0.79332 -0.04723
 O119 O 0.54903 0.71132 -0.04766
 O120 O 0.45173 0.71065 0.04821
 O121 O 0.45158 0.71126 -0.04748
 O122 O 0.54957 0.71077 0.04800
 Cu123 Cu 0.50041 0.80125 0.00115
 Cu124 Cu 0.50048 0.70277 0.00024
 C125 C 0.56575 0.75167 0.06503
 C126 C 0.43506 0.75232 -0.06360
 C127 C 0.43557 0.75152 0.06526
 C128 C 0.56544 0.75241 -0.06378
 O129 O 0.04826 0.45220 0.21031
 O130 O -0.04985 0.54796 0.21028
 O131 O 0.04797 0.54851 0.20993
 O132 O -0.04903 0.45187 0.21065
 O133 O -0.04889 0.45246 0.29225
 O134 O 0.04847 0.54884 0.29152
 O135 O -0.04839 0.54959 0.29185
 O136 O 0.04793 0.45196 0.29190
 Cu137 Cu -0.00067 0.50017 0.20209
 Cu138 Cu -0.00022 0.50079 0.30009
 C139 C 0.06457 0.43559 0.25110
 C140 C -0.06572 0.56513 0.25105
 C141 C 0.06483 0.56498 0.25060
 C142 C -0.06541 0.43570 0.25155
 O143 O 0.04860 0.54872 0.79019
 O144 O -0.04969 0.45306 0.78937
 O145 O 0.04785 0.45244 0.78966
 O146 O -0.04921 0.54910 0.78990
 O147 O -0.04876 0.54964 0.70829
 O148 O 0.04836 0.45296 0.70807
 O149 O -0.04843 0.45231 0.70778
 O150 O 0.04785 0.55005 0.70861
 Cu151 Cu -0.00061 0.50083 0.79798
 Cu152 Cu -0.00025 0.50125 0.69998
 C153 C 0.06473 0.56583 0.74955
 C154 C -0.06555 0.43622 0.74845
 C155 C 0.06457 0.43623 0.74884
 C156 C -0.06545 0.56581 0.74914
 N157 N 0.35053 0.20583 0.16239
 C158 C 0.32571 0.24823 0.17408
 N159 N 0.33710 0.29045 0.14915
 N160 N 0.37202 0.29035 0.11414
 C161 C 0.39661 0.24792 0.10240
 N162 N 0.38518 0.20563 0.12709
 N163 N 0.64474 0.79029 0.16940
 C164 C 0.67595 0.75082 0.17475
 N165 N 0.67047 0.71169 0.14337
 N166 N 0.63524 0.71182 0.10864
 C167 C 0.60447 0.75143 0.10335
 N168 N 0.60998 0.79076 0.13421
 N169 N 0.65101 0.20669 -0.16298
 C170 C 0.67587 0.24916 -0.17421
 N171 N 0.66429 0.29127 -0.14902
 N172 N 0.62915 0.29099 -0.11422
 C173 C 0.60449 0.24849 -0.10298
 N174 N 0.61614 0.20631 -0.12790
 N175 N 0.34951 0.79436 -0.16146
 C176 C 0.32448 0.75197 -0.17281
 N177 N 0.33605 0.70980 -0.14788
 N178 N 0.37132 0.70993 -0.11319
 C179 C 0.39615 0.75234 -0.10181
 N180 N 0.38451 0.79460 -0.12647
 N181 N 0.14954 0.33690 0.29297
 C182 C 0.17433 0.32515 0.25077
 N183 N 0.16274 0.35005 0.20871
 N184 N 0.12767 0.38510 0.20879
 C185 C 0.10312 0.39690 0.25103
 N186 N 0.11474 0.37223 0.29315
 N187 N 0.14413 0.67008 0.71071
 C188 C 0.17493 0.67608 0.75023
 N189 N 0.16896 0.64528 0.78955
 N190 N 0.13368 0.61042 0.78951
 C191 C 0.10335 0.60443 0.74983
 N192 N 0.10931 0.63478 0.71036
 N193 N -0.17096 0.64333 0.21165
 C194 C -0.17677 0.67450 0.25081
 N195 N -0.14557 0.66909 0.29010
 N196 N -0.11049 0.63405 0.29036
 C197 C -0.10465 0.60340 0.25101
 N198 N -0.13542 0.60873 0.21159
 N199 N -0.16962 0.35653 0.78776
 C200 C -0.17536 0.32560 0.74840
 N201 N -0.14453 0.33167 0.70894
 N202 N -0.10988 0.36715 0.70872
 C203 C -0.10415 0.39760 0.74827
 N204 N -0.13453 0.39155 0.78785
 N205 N 0.20811 0.16209 0.35110
 C206 C 0.25056 0.17339 0.32607
 N207 N 0.29314 0.14848 0.33741
 N208 N 0.29330 0.11383 0.37246
 C209 C 0.25079 0.10248 0.39724
 N210 N 0.20817 0.12717 0.38586
 N211 N 0.79208 0.16390 0.64758
 C212 C 0.74971 0.17542 0.67267
 N213 N 0.70716 0.15021 0.66176
 N214 N 0.70694 0.11509 0.62706
 C215 C 0.74939 0.10349 0.60225
 N216 N 0.79197 0.12850 0.61317
 N217 N 0.29314 -0.14991 0.66263
 C218 C 0.25057 -0.17490 0.67383
 N219 N 0.20820 -0.16373 0.64859
 N220 N 0.20832 -0.12887 0.61376
 C221 C 0.25092 -0.10410 0.60253
 N222 N 0.29336 -0.11532 0.62751
 N223 N 0.79142 -0.16384 0.35100
 C224 C 0.74899 -0.17500 0.32581
 N225 N 0.70649 -0.14991 0.33708
 N226 N 0.70637 -0.11522 0.37222
 C227 C 0.74886 -0.10402 0.39717
 N228 N 0.79141 -0.12888 0.38585
 N229 N 0.66399 0.70992 -0.14834
 C230 C 0.67560 0.75215 -0.17313
 N231 N 0.65073 0.79457 -0.16160
 N232 N 0.61582 0.79478 -0.12657
 C233 C 0.60416 0.75246 -0.10204
 N234 N 0.62882 0.71002 -0.11360
 N235 N 0.33723 0.29117 -0.14979
 C236 C 0.32564 0.24896 -0.17479
 N237 N 0.35040 0.20650 -0.16336
 N238 N 0.38522 0.20622 -0.12824
 C239 C 0.39687 0.24849 -0.10348
 N240 N 0.37232 0.29099 -0.11494
 N241 N 0.35668 0.79037 0.16942
 C242 C 0.32570 0.75077 0.17503
 N243 N 0.33138 0.71142 0.14398
 N244 N 0.36658 0.71149 0.10926
 C245 C 0.39709 0.75125 0.10367
 N246 N 0.39142 0.79076 0.13424
 N247 N 0.64938 0.20586 0.16284
 C248 C 0.67399 0.24833 0.17472
 N249 N 0.66254 0.29059 0.14991
 N250 N 0.62774 0.29047 0.11478
 C251 C 0.60337 0.24798 0.10284
 N252 N 0.61485 0.20565 0.12743
 N253 N -0.16939 0.64539 0.78904
 C254 C -0.17536 0.67613 0.74968
 N255 N -0.14469 0.67001 0.71011
 N256 N -0.10996 0.63463 0.70975
 C257 C -0.10400 0.60437 0.74927
 N258 N -0.13421 0.61047 0.78900
 N259 N -0.15038 0.33730 0.29379
 C260 C -0.17498 0.32528 0.25155
 N261 N -0.16329 0.34992 0.20939
 N262 N -0.12828 0.38500 0.20940
 C263 C -0.10391 0.39707 0.25167
 N264 N -0.11563 0.37267 0.29390
 N265 N 0.16241 0.35051 0.79112
 C266 C 0.17422 0.32583 0.74893
 N267 N 0.14971 0.33779 0.70666
 N268 N 0.11494 0.37314 0.70657
 C269 C 0.10309 0.39759 0.74882
 N270 N 0.12737 0.38557 0.79112
 N271 N 0.16393 0.64910 0.20794
 C272 C 0.17599 0.67387 0.25003
 N273 N 0.15121 0.66250 0.29228
 N274 N 0.11595 0.62767 0.29250
 C275 C 0.10380 0.60317 0.25036
 N276 N 0.12839 0.61453 0.20805
 N277 N 0.79174 -0.16328 0.64872
 C278 C 0.74934 -0.17457 0.67381
 N279 N 0.70676 -0.14959 0.66264
 N280 N 0.70655 -0.11488 0.62766
 C281 C 0.74903 -0.10355 0.60282
 N282 N 0.79164 -0.12831 0.61402
 N283 N 0.29354 -0.14880 0.33621
 C284 C 0.25100 -0.17363 0.32451
 N285 N 0.20847 -0.16252 0.34950
 N286 N 0.20841 -0.12783 0.38460
 C287 C 0.25100 -0.10326 0.39637
 N288 N 0.29359 -0.11439 0.37159
 N289 N 0.79166 0.16195 0.35131
 C290 C 0.74915 0.17335 0.32643
 N291 N 0.70659 0.14843 0.33772
 N292 N 0.70648 0.11367 0.37263
 C293 C 0.74904 0.10223 0.39728
 N294 N 0.79165 0.12691 0.38594
 N295 N 0.29277 0.14892 0.66227
 C296 C 0.25017 0.17384 0.67355
 N297 N 0.20769 0.16232 0.64863
 N298 N 0.20776 0.12716 0.61399
 C299 C 0.25041 0.10247 0.60268
 N300 N 0.29294 0.11405 0.62735
   
