data_POSCAR
  _audit_creation_date              2014-09-24
  _audit_creation_method            'ToBaCCo'
  _symmetry_space_group_name_H-M    'P1'
  _symmetry_Int_Tables_number       1
  _symmetry_cell_setting            triclinic
  loop_
  _symmetry_equiv_pos_as_xyz
 x,y,z
_cell_length_a 46.5938
_cell_length_b 44.3658
_cell_length_c 34.4127
_cell_angle_alpha 90.526900
_cell_angle_beta 90.013900
_cell_angle_gamma 89.978600
loop_
  _atom_site_label
  _atom_site_type_symbol
  _atom_site_fract_x
  _atom_site_fract_y
  _atom_site_fract_z
C1 C 0.29495 0.29092 0.23520
 H2 H 0.29637 0.29107 0.26658
 C3 C 0.31310 0.30925 0.21346
 H4 H 0.32853 0.32367 0.22809
 C5 C 0.27305 0.27202 0.17771
 H6 H 0.25762 0.25729 0.16386
 C7 C 0.29082 0.29002 0.15486
 H8 H 0.28882 0.28932 0.12350
 N9 N 0.27508 0.27319 0.21717
 C10 C 0.20715 0.26210 0.30319
 H11 H 0.20579 0.23779 0.30451
 C12 C 0.18869 0.27992 0.32570
 H13 H 0.17312 0.26936 0.34458
 C14 C 0.22876 0.30569 0.27659
 H15 H 0.24403 0.31570 0.25697
 C16 C 0.21073 0.32431 0.29856
 H17 H 0.21241 0.34857 0.29608
 Zn18 Zn 0.25095 0.24977 0.24928
 N19 N 0.22693 0.27518 0.27961
 C20 C 0.27302 0.22752 0.32088
 N21 N 0.27503 0.22629 0.28142
 C22 C 0.29484 0.20845 0.26343
 C23 C 0.31297 0.19010 0.28521
 C24 C 0.29076 0.20951 0.34377
 C25 C 0.20710 0.23760 0.19536
 C26 C 0.18856 0.21984 0.17289
 C27 C 0.21049 0.17538 0.20005
 C28 C 0.22861 0.19394 0.22198
 N29 N 0.22686 0.22446 0.21894
 H30 H 0.25764 0.24233 0.33469
 H31 H 0.29625 0.20824 0.23204
 H32 H 0.32836 0.17561 0.27062
 H33 H 0.28878 0.21028 0.37513
 H34 H 0.20581 0.26192 0.19403
 H35 H 0.17300 0.23046 0.15404
 H36 H 0.21210 0.15111 0.20255
 H37 H 0.24386 0.18387 0.24159
 C38 C 0.19059 0.31131 0.32341
 C39 C 0.31086 0.30895 0.17295
 C40 C 0.19037 0.18844 0.17521
 C41 C 0.31076 0.19049 0.32573
 C42 C 0.79566 0.79192 0.23501
 H43 H 0.79712 0.79207 0.26639
 C44 C 0.81369 0.81037 0.21325
 H45 H 0.82905 0.82485 0.22796
 C46 C 0.77377 0.77293 0.17757
 H47 H 0.75839 0.75812 0.16375
 C48 C 0.79140 0.79103 0.15467
 H49 H 0.78930 0.79029 0.12331
 N50 N 0.77585 0.77409 0.21702
 C51 C 0.70793 0.76282 0.30302
 H52 H 0.70663 0.73850 0.30433
 C53 C 0.68942 0.78059 0.32552
 H54 H 0.67387 0.76999 0.34438
 C55 C 0.72946 0.80647 0.27645
 H56 H 0.74470 0.81653 0.25685
 C57 C 0.71137 0.82503 0.29841
 H58 H 0.71299 0.84930 0.29595
 Zn59 Zn 0.75179 0.75061 0.24916
 N60 N 0.72769 0.77595 0.27947
 C61 C 0.77381 0.72836 0.32078
 N62 N 0.77591 0.72718 0.28133
 C63 C 0.79576 0.70938 0.26338
 C64 C 0.81381 0.69096 0.28519
 C65 C 0.79147 0.71028 0.34370
 C66 C 0.70796 0.73826 0.19525
 C67 C 0.68947 0.72042 0.17282
 C68 C 0.71153 0.67606 0.20004
 C69 C 0.72960 0.69469 0.22193
 N70 N 0.72776 0.72520 0.21884
 H71 H 0.75839 0.74314 0.33457
 H72 H 0.79724 0.70921 0.23200
 H73 H 0.82921 0.67646 0.27062
 H74 H 0.78940 0.71097 0.37505
 H75 H 0.70660 0.76257 0.19389
 H76 H 0.67387 0.73096 0.15395
 H77 H 0.71321 0.65180 0.20258
 H78 H 0.74488 0.68469 0.24155
 C79 C 0.69125 0.81199 0.32325
 C80 C 0.81139 0.81010 0.17272
 C81 C 0.69136 0.68903 0.17519
 C82 C 0.81148 0.69125 0.32569
 C83 C 0.79599 0.29045 0.73696
 H84 H 0.79751 0.29059 0.76834
 C85 C 0.81401 0.30886 0.71513
 H86 H 0.82944 0.32333 0.72969
 C87 C 0.77395 0.27152 0.67958
 H88 H 0.75852 0.25676 0.66581
 C89 C 0.79158 0.28960 0.65665
 H90 H 0.78947 0.28892 0.62530
 N91 N 0.77611 0.27267 0.71903
 C92 C 0.70828 0.26158 0.80522
 H93 H 0.70692 0.23727 0.80656
 C94 C 0.68980 0.27942 0.82769
 H95 H 0.67422 0.26887 0.84656
 C96 C 0.72988 0.30516 0.77856
 H97 H 0.74513 0.31517 0.75893
 C98 C 0.71182 0.32378 0.80049
 H99 H 0.71348 0.34805 0.79797
 Zn100 Zn 0.75204 0.24924 0.75123
 N101 N 0.72805 0.27465 0.78162
 C102 C 0.77412 0.22685 0.82274
 N103 N 0.77614 0.22571 0.78329
 C104 C 0.79592 0.20789 0.76523
 C105 C 0.81400 0.18941 0.78691
 C106 C 0.79178 0.20872 0.84559
 C107 C 0.70809 0.23710 0.69745
 C108 C 0.68954 0.21936 0.67497
 C109 C 0.71153 0.17488 0.70197
 C110 C 0.72966 0.19342 0.72390
 N111 N 0.72789 0.22394 0.72093
 H112 H 0.75875 0.24166 0.83660
 H113 H 0.79734 0.20777 0.73385
 H114 H 0.82932 0.17495 0.77208
 H115 H 0.78968 0.20949 0.87696
 H116 H 0.70678 0.26142 0.69617
 H117 H 0.67395 0.22999 0.65617
 H118 H 0.71316 0.15061 0.70440
 H119 H 0.74494 0.18333 0.74345
 C120 C 0.69168 0.31081 0.82534
 C121 C 0.81162 0.30860 0.67464
 C122 C 0.69137 0.18796 0.67721
 C123 C 0.81176 0.18963 0.82748
 C124 C 0.29489 0.79138 0.73615
 H125 H 0.29630 0.79159 0.76753
 C126 C 0.31301 0.80973 0.71438
 H127 H 0.32840 0.82422 0.72900
 C128 C 0.27309 0.77233 0.67867
 H129 H 0.25771 0.75753 0.66483
 C130 C 0.29082 0.79034 0.65580
 H131 H 0.28885 0.78959 0.62444
 N132 N 0.27509 0.77356 0.71813
 C133 C 0.20714 0.76232 0.80411
 H134 H 0.20587 0.73801 0.80549
 C135 C 0.18858 0.78011 0.82652
 H136 H 0.17302 0.76952 0.84537
 C137 C 0.22862 0.80596 0.77743
 H138 H 0.24387 0.81600 0.75781
 C139 C 0.21048 0.82454 0.79929
 H140 H 0.21207 0.84880 0.79673
 Zn141 Zn 0.25102 0.75009 0.75025
 N142 N 0.22690 0.77544 0.78053
 C143 C 0.27309 0.72786 0.82187
 N144 N 0.27515 0.72669 0.78242
 C145 C 0.29503 0.70895 0.76442
 C146 C 0.31318 0.69062 0.78619
 C147 C 0.29086 0.70986 0.84475
 C148 C 0.20724 0.73773 0.69630
 C149 C 0.18878 0.71989 0.67381
 C150 C 0.21083 0.67553 0.70105
 C151 C 0.22886 0.69417 0.72300
 N152 N 0.22702 0.72468 0.71992
 H153 H 0.25765 0.74260 0.83570
 H154 H 0.29647 0.70879 0.73304
 H155 H 0.32862 0.67619 0.77158
 H156 H 0.28885 0.71056 0.87611
 H157 H 0.20587 0.76205 0.69493
 H158 H 0.17321 0.73043 0.65490
 H159 H 0.21251 0.65127 0.70359
 H160 H 0.24412 0.68417 0.74265
 C161 C 0.19036 0.81151 0.82412
 C162 C 0.31081 0.80936 0.67387
 C163 C 0.19069 0.68850 0.67616
 C164 C 0.31092 0.69092 0.82669
 C165 C -0.03317 -0.02392 0.01588
 C166 C -0.01800 0.00017 -0.00052
 C167 C -0.03318 0.02429 -0.01689
 C168 C -0.06324 0.02414 -0.01723
 C169 C -0.07824 0.00021 -0.00046
 C170 C -0.06323 -0.02374 0.01627
 C171 C 0.01368 0.00016 -0.00055
 C172 C 0.02885 -0.02404 -0.01731
 C173 C 0.05890 -0.02390 -0.01767
 C174 C 0.07391 0.00011 -0.00056
 C175 C 0.05893 0.02415 0.01657
 C176 C 0.02887 0.02434 0.01621
 H177 H -0.02159 -0.04247 0.02890
 H178 H -0.02161 0.04282 -0.02994
 H179 H 0.01727 -0.04265 -0.03063
 H180 H 0.01731 0.04295 0.02955
 H181 H -0.10152 0.00023 -0.00044
 H182 H 0.09719 0.00010 -0.00056
 C183 C -0.03224 0.47576 0.51648
 C184 C -0.01707 0.49986 0.50008
 C185 C -0.03226 0.52397 0.48371
 C186 C -0.06232 0.52381 0.48336
 C187 C -0.07731 0.49988 0.50012
 C188 C -0.06229 0.47593 0.51687
 C189 C 0.01460 0.49985 0.50006
 C190 C 0.02977 0.47569 0.48320
 C191 C 0.05983 0.47585 0.48281
 C192 C 0.07483 0.49984 0.49999
 C193 C 0.05985 0.52383 0.51720
 C194 C 0.02979 0.52400 0.51688
 H195 H -0.02065 0.45722 0.52951
 H196 H -0.02069 0.54250 0.47066
 H197 H 0.01819 0.45711 0.46983
 H198 H 0.01822 0.54259 0.53026
 H199 H -0.10059 0.49989 0.50014
 H200 H 0.09811 0.49984 0.49996
 C201 C 0.46812 -0.02407 0.51650
 C202 C 0.48329 0.00004 0.50016
 C203 C 0.46811 0.02415 0.48377
 C204 C 0.43805 0.02397 0.48334
 C205 C 0.42306 0.00002 0.50004
 C206 C 0.43806 -0.02392 0.51680
 C207 C 0.51496 0.00005 0.50021
 C208 C 0.53016 -0.02406 0.48327
 C209 C 0.56021 -0.02389 0.48295
 C210 C 0.57519 0.00005 0.50027
 C211 C 0.56018 0.02400 0.51757
 C212 C 0.53012 0.02416 0.51717
 H213 H 0.47970 -0.04262 0.52953
 H214 H 0.47969 0.04271 0.47077
 H215 H 0.51860 -0.04261 0.46980
 H216 H 0.51854 0.04271 0.53062
 H217 H 0.39978 0.00000 0.49999
 H218 H 0.59847 0.00005 0.50030
 C219 C 0.46831 0.47573 0.01621
 C220 C 0.48350 0.49989 -0.00001
 C221 C 0.46832 0.52405 -0.01628
 C222 C 0.43826 0.52389 -0.01669
 C223 C 0.42326 0.49989 -0.00011
 C224 C 0.43825 0.47589 0.01652
 C225 C 0.51518 0.49989 0.00005
 C226 C 0.53039 0.47566 -0.01657
 C227 C 0.56044 0.47582 -0.01686
 C228 C 0.57541 0.49989 0.00018
 C229 C 0.56039 0.52396 0.01716
 C230 C 0.53034 0.52413 0.01674
 H231 H 0.47988 0.45714 0.02916
 H232 H 0.47989 0.54265 -0.02919
 H233 H 0.51884 0.45701 -0.02984
 H234 H 0.51875 0.54277 0.02996
 H235 H 0.39998 0.49989 -0.00015
 H236 H 0.59869 0.49989 0.00023
 C237 C 0.17156 -0.16953 -0.15321
 C238 C 0.15613 -0.15308 -0.13456
 C239 C 0.13809 -0.13276 -0.11273
 C240 C 0.11156 -0.12370 -0.12786
 C241 C 0.09475 -0.10266 -0.10764
 C242 C 0.10440 -0.09059 -0.07222
 C243 C 0.13075 -0.09995 -0.05684
 C244 C 0.14756 -0.12099 -0.07705
 C245 C 0.08791 -0.06768 -0.05251
 C246 C 0.07447 -0.04799 -0.03640
 H247 H 0.10409 -0.13256 -0.15551
 H248 H 0.07447 -0.09549 -0.11988
 H249 H 0.13848 -0.09066 -0.02956
 H250 H 0.16809 -0.12773 -0.06517
 C251 C 0.17193 0.33031 0.34623
 C252 C 0.15661 0.34678 0.36502
 C253 C 0.13870 0.36712 0.38703
 C254 C 0.11196 0.37594 0.37234
 C255 C 0.09525 0.39698 0.39272
 C256 C 0.10521 0.40927 0.42787
 C257 C 0.13177 0.40014 0.44281
 C258 C 0.14848 0.37911 0.42243
 C259 C 0.08879 0.43215 0.44773
 C260 C 0.07539 0.45181 0.46396
 H261 H 0.10425 0.36691 0.34491
 H262 H 0.07480 0.40398 0.38082
 H263 H 0.13974 0.40960 0.46987
 H264 H 0.16917 0.37254 0.43397
 C265 C 0.67255 -0.16907 0.34607
 C266 C 0.65719 -0.15264 0.36487
 C267 C 0.63925 -0.13235 0.38691
 C268 C 0.61251 -0.12354 0.37222
 C269 C 0.59576 -0.10256 0.39264
 C270 C 0.60569 -0.09031 0.42783
 C271 C 0.63226 -0.09943 0.44276
 C272 C 0.64900 -0.12040 0.42235
 C273 C 0.58923 -0.06749 0.44775
 C274 C 0.57580 -0.04788 0.46403
 H275 H 0.60482 -0.13254 0.34476
 H276 H 0.57531 -0.09557 0.38074
 H277 H 0.64020 -0.09000 0.46986
 H278 H 0.66970 -0.12696 0.43389
 C279 C 0.67296 0.32982 -0.15195
 C280 C 0.65758 0.34632 -0.13329
 C281 C 0.63960 0.36671 -0.11146
 C282 C 0.61275 0.37518 -0.12610
 C283 C 0.59597 0.39629 -0.10593
 C284 C 0.60599 0.40900 -0.07106
 C285 C 0.63267 0.40022 -0.05617
 C286 C 0.64944 0.37912 -0.07633
 C287 C 0.58949 0.43196 -0.05145
 C288 C 0.57605 0.45169 -0.03545
 H289 H 0.60499 0.36583 -0.15333
 H290 H 0.57543 0.40301 -0.11780
 H291 H 0.64068 0.41001 -0.02932
 H292 H 0.67023 0.37283 -0.06484
 C293 C -0.17223 0.17164 -0.15185
 C294 C -0.15764 0.15463 -0.13314
 C295 C -0.14048 0.13376 -0.11135
 C296 C -0.11271 0.12644 -0.12387
 C297 C -0.09654 0.10507 -0.10376
 C298 C -0.10809 0.09093 -0.07105
 C299 C -0.13574 0.09851 -0.05827
 C300 C -0.15190 0.11988 -0.07838
 C301 C -0.09201 0.06789 -0.05150
 C302 C -0.07877 0.04817 -0.03561
 H303 H -0.10372 0.13695 -0.14942
 H304 H -0.07523 0.09929 -0.11398
 H305 H -0.14491 0.08763 -0.03310
 H306 H -0.17340 0.12529 -0.06853
 C307 C -0.17093 0.67148 0.34853
 C308 C -0.15642 0.65443 0.36725
 C309 C -0.13935 0.63351 0.38909
 C310 C -0.15103 0.61925 0.42162
 C311 C -0.13494 0.59785 0.44177
 C312 C -0.10709 0.59061 0.42947
 C313 C -0.09528 0.60512 0.39721
 C314 C -0.11138 0.62653 0.37706
 C315 C -0.09105 0.56755 0.44905
 C316 C -0.07784 0.54783 0.46496
 H317 H -0.17268 0.62440 0.43109
 H318 H -0.14431 0.58668 0.46659
 H319 H -0.07381 0.59962 0.38736
 H320 H -0.10218 0.63733 0.35185
 C321 C 0.32851 0.17087 0.34854
 C322 C 0.34318 0.15395 0.36725
 C323 C 0.36045 0.13320 0.38906
 C324 C 0.34917 0.11942 0.42220
 C325 C 0.36544 0.09816 0.44234
 C326 C 0.39306 0.09060 0.42943
 C327 C 0.40448 0.10464 0.39657
 C328 C 0.38820 0.12590 0.37642
 C329 C 0.40923 0.06764 0.44900
 C330 C 0.42252 0.04797 0.46492
 H331 H 0.32770 0.12482 0.43213
 H332 H 0.35637 0.08735 0.46762
 H333 H 0.42577 0.09887 0.38625
 H334 H 0.39709 0.13633 0.35075
 C335 C 0.32868 0.67129 -0.15052
 C336 C 0.34337 0.65434 -0.13188
 C337 C 0.36065 0.63352 -0.11018
 C338 C 0.38845 0.62638 -0.12276
 C339 C 0.40473 0.60504 -0.10277
 C340 C 0.39327 0.59076 -0.07011
 C341 C 0.36560 0.59816 -0.05726
 C342 C 0.34932 0.61950 -0.07725
 C343 C 0.40944 0.56771 -0.05072
 C344 C 0.42273 0.54797 -0.03494
 H345 H 0.39737 0.63700 -0.14828
 H346 H 0.42606 0.59940 -0.11304
 H347 H 0.35649 0.58716 -0.03213
 H348 H 0.32781 0.62477 -0.06736
 C349 C -0.17197 -0.17118 0.15113
 C350 C -0.15743 -0.15416 0.13240
 C351 C -0.14033 -0.13329 0.11057
 C352 C -0.15191 -0.11919 0.07784
 C353 C -0.13578 -0.09782 0.05770
 C354 C -0.10801 -0.09047 0.07019
 C355 C -0.09631 -0.10482 0.10266
 C356 C -0.11243 -0.12619 0.12280
 C357 C -0.09196 -0.06744 0.05061
 C358 C -0.07874 -0.04774 0.03469
 H359 H -0.17349 -0.12442 0.06822
 H360 H -0.14508 -0.08677 0.03272
 H361 H -0.07489 -0.09923 0.11265
 H362 H -0.10331 -0.13687 0.14816
 C363 C -0.17081 0.32835 0.65179
 C364 C -0.15631 0.34540 0.63305
 C365 C -0.13926 0.36630 0.61119
 C366 C -0.15100 0.38063 0.57874
 C367 C -0.13492 0.40202 0.55858
 C368 C -0.10703 0.40917 0.57079
 C369 C -0.09517 0.39459 0.60298
 C370 C -0.11126 0.37320 0.62314
 C371 C -0.09100 0.43221 0.55120
 C372 C -0.07780 0.45193 0.53528
 H373 H -0.17268 0.37556 0.56934
 H374 H -0.14433 0.41325 0.53382
 H375 H -0.07366 0.40002 0.61276
 H376 H -0.10201 0.36234 0.64829
 C377 C 0.32854 -0.17100 0.65108
 C378 C 0.34321 -0.15407 0.63242
 C379 C 0.36047 -0.13329 0.61066
 C380 C 0.34910 -0.11927 0.57775
 C381 C 0.36537 -0.09798 0.55768
 C382 C 0.39307 -0.09063 0.57046
 C383 C 0.40457 -0.10491 0.60310
 C384 C 0.38830 -0.12620 0.62317
 C385 C 0.40924 -0.06764 0.55098
 C386 C 0.42252 -0.04794 0.53514
 H387 H 0.32756 -0.12451 0.56792
 H388 H 0.35623 -0.08699 0.53257
 H389 H 0.42593 -0.09930 0.61332
 H390 H 0.39726 -0.13682 0.64867
 C391 C 0.32862 0.32858 0.15019
 C392 C 0.34331 0.34552 0.13157
 C393 C 0.36060 0.36632 0.10989
 C394 C 0.34927 0.38038 0.07697
 C395 C 0.36556 0.40170 0.05700
 C396 C 0.39324 0.40906 0.06986
 C397 C 0.40470 0.39474 0.10250
 C398 C 0.38841 0.37341 0.12248
 C399 C 0.40942 0.43209 0.05049
 C400 C 0.42271 0.45183 0.03474
 H401 H 0.32775 0.37515 0.06708
 H402 H 0.35645 0.41273 0.03188
 H403 H 0.42604 0.40034 0.11278
 H404 H 0.39734 0.36276 0.14798
 C405 C 0.17160 0.16952 0.15247
 C406 C 0.15618 0.15309 0.13376
 C407 C 0.13816 0.13281 0.11185
 C408 C 0.14779 0.12082 0.07637
 C409 C 0.13098 0.09983 0.05609
 C410 C 0.10448 0.09073 0.07121
 C411 C 0.09467 0.10302 0.10644
 C412 C 0.11148 0.12402 0.12672
 C413 C 0.08797 0.06787 0.05145
 C414 C 0.07452 0.04820 0.03532
 H415 H 0.16844 0.12736 0.06469
 H416 H 0.13882 0.09037 0.02896
 H417 H 0.07427 0.09604 0.11848
 H418 H 0.10389 0.13304 0.15422
 C419 C 0.17203 0.66949 0.65339
 C420 C 0.15670 0.65299 0.63464
 C421 C 0.13879 0.63263 0.61269
 C422 C 0.14864 0.62043 0.57744
 C423 C 0.13192 0.59938 0.55712
 C424 C 0.10529 0.59044 0.57197
 C425 C 0.09527 0.60293 0.60697
 C426 C 0.11199 0.62398 0.62729
 C427 C 0.08884 0.56754 0.55217
 C428 C 0.07543 0.54788 0.53600
 H429 H 0.16938 0.62686 0.56597
 H430 H 0.13993 0.58976 0.53018
 H431 H 0.07476 0.59608 0.61880
 H432 H 0.10422 0.63318 0.65461
 C433 C 0.67262 0.16905 0.65442
 C434 C 0.65722 0.15264 0.63565
 C435 C 0.63922 0.13240 0.61366
 C436 C 0.64867 0.12090 0.57782
 C437 C 0.63190 0.09994 0.55742
 C438 C 0.60561 0.09040 0.57275
 C439 C 0.59598 0.10220 0.60834
 C440 C 0.61275 0.12315 0.62875
 C441 C 0.58915 0.06759 0.55282
 C442 C 0.57574 0.04798 0.53652
 H443 H 0.66916 0.12779 0.56596
 H444 H 0.63961 0.09087 0.53001
 H445 H 0.57575 0.09488 0.62055
 H446 H 0.60530 0.13180 0.65651
 C447 C 0.67265 0.67001 0.15249
 C448 C 0.65728 0.65350 0.13383
 C449 C 0.63932 0.63311 0.11200
 C450 C 0.64901 0.62102 0.07660
 C451 C 0.63228 0.59991 0.05641
 C452 C 0.60578 0.59080 0.07153
 C453 C 0.59591 0.60318 0.10667
 C454 C 0.61265 0.62430 0.12687
 C455 C 0.58934 0.56783 0.05187
 C456 C 0.57594 0.54809 0.03582
 H457 H 0.66966 0.62757 0.06493
 H458 H 0.64017 0.59038 0.02935
 H459 H 0.57551 0.59620 0.11871
 H460 H 0.60501 0.63340 0.15430
   
