data_POSCAR
  _audit_creation_date              2014-09-24
  _audit_creation_method            'ToBaCCo'
  _symmetry_space_group_name_H-M    'P1'
  _symmetry_Int_Tables_number       1
  _symmetry_cell_setting            triclinic
  loop_
  _symmetry_equiv_pos_as_xyz
 x,y,z
_cell_length_a 49.0764
_cell_length_b 48.6222
_cell_length_c 48.4292
_cell_angle_alpha 90.011300
_cell_angle_beta 89.966100
_cell_angle_gamma 89.885300
loop_
  _atom_site_label
  _atom_site_type_symbol
  _atom_site_fract_x
  _atom_site_fract_y
  _atom_site_fract_z
N1 N 0.19236 1.24914 0.17308
 N2 N 0.17410 1.24960 0.19298
 C3 C 0.15634 1.27024 0.18821
 C4 C 0.16412 1.28326 0.16421
 C5 C 0.18692 1.26947 0.15501
 H6 H 0.13872 1.27498 0.20079
 H7 H 0.19823 1.27344 0.13625
 Cu8 Cu 0.17417 1.22239 0.22243
 Cu9 Cu 0.22085 1.22136 0.17125
 Cu10 Cu 0.22050 1.17101 0.22174
 N11 N 0.17372 1.19302 0.24973
 N12 N 0.19184 1.17304 0.24939
 C13 C 0.18613 1.15508 0.26975
 C14 C 0.16331 1.16443 0.28342
 C15 C 0.15579 1.18842 0.27030
 H16 H 0.19729 1.13630 0.27382
 H17 H 0.13824 1.20110 0.27493
 N18 N 0.24791 1.17237 0.19208
 N19 N 0.24805 1.19159 0.17281
 C20 C 0.26854 1.18642 0.15500
 C21 C 0.28178 1.16295 0.16360
 C22 C 0.26831 1.15446 0.18704
 H23 H 0.27315 1.19841 0.13679
 H24 H 0.27271 1.13627 0.19909
 H25 H 0.19853 1.19135 0.19144
 H26 H 0.22210 1.21256 0.21297
 N27 N 0.81027 0.75338 0.16998
 N28 N 0.82943 0.75398 0.18897
 C29 C 0.84744 0.73361 0.18397
 C30 C 0.83895 0.71967 0.16076
 C31 C 0.81541 0.73263 0.15230
 H32 H 0.86565 0.72956 0.19587
 H33 H 0.80330 0.72773 0.13431
 Cu34 Cu 0.82960 0.78215 0.21751
 Cu35 Cu 0.78089 0.78034 0.16881
 Cu36 Cu 0.78082 0.83071 0.21954
 N37 N 0.82938 0.81049 0.24587
 N38 N 0.81018 0.82942 0.24657
 C39 C 0.81529 0.84702 0.26740
 C40 C 0.83885 0.83852 0.28031
 C41 C 0.84741 0.81541 0.26626
 H42 H 0.80318 0.86498 0.27234
 H43 H 0.86567 0.80356 0.27020
 N44 N 0.75286 0.82856 0.19042
 N45 N 0.75289 0.80938 0.17109
 C46 C 0.73197 0.81404 0.15369
 C47 C 0.71827 0.83713 0.16261
 C48 C 0.73191 0.84593 0.18581
 H49 H 0.72740 0.80202 0.13549
 H50 H 0.72729 0.86402 0.19794
 H51 H 0.80207 0.81176 0.18790
 H52 H 0.78090 0.78921 0.21050
 N53 N 0.80870 1.24566 -0.17049
 N54 N 0.82708 1.24577 -0.19028
 C55 C 0.84504 1.26615 -0.18546
 C56 C 0.83731 1.27938 -0.16153
 C57 C 0.81429 1.26597 -0.15246
 H58 H 0.86272 1.27065 -0.19798
 H59 H 0.80287 1.27025 -0.13384
 Cu60 Cu 0.82670 1.21854 -0.21971
 Cu61 Cu 0.77982 1.21837 -0.16881
 Cu62 Cu 0.77939 1.16837 -0.21974
 N63 N 0.82662 1.18960 -0.24746
 N64 N 0.80807 1.17010 -0.24742
 C65 C 0.81335 1.15232 -0.26808
 C66 C 0.83636 1.16130 -0.28163
 C67 C 0.84442 1.18486 -0.26814
 H68 H 0.80177 1.13393 -0.27246
 H69 H 0.86222 1.19717 -0.27262
 N70 N 0.75205 1.17002 -0.19001
 N71 N 0.75221 1.18909 -0.17058
 C72 C 0.73164 1.18419 -0.15281
 C73 C 0.71803 1.16106 -0.16161
 C74 C 0.73136 1.15249 -0.18512
 H75 H 0.72719 1.19615 -0.13453
 H76 H 0.72666 1.13450 -0.19734
 H77 H 0.80151 1.18792 -0.18912
 H78 H 0.77853 1.20989 -0.21060
 N79 N 0.18995 0.75344 -0.17176
 N80 N 0.17058 0.75434 -0.19052
 C81 C 0.15274 0.73385 -0.18571
 C82 C 0.16157 0.71950 -0.16285
 C83 C 0.18512 0.73237 -0.15441
 H84 H 0.13444 0.72997 -0.19749
 H85 H 0.19743 0.72718 -0.13663
 Cu86 Cu 0.17008 0.78302 -0.21850
 Cu87 Cu 0.21919 0.78047 -0.17035
 Cu88 Cu 0.21854 0.83160 -0.22039
 N89 N 0.16985 0.81160 -0.24658
 N90 N 0.18897 0.83054 -0.24722
 C91 C 0.18371 0.84826 -0.26792
 C92 C 0.16014 0.83984 -0.28080
 C93 C 0.15172 0.81664 -0.26688
 H94 H 0.19577 0.86620 -0.27284
 H95 H 0.13355 0.80474 -0.27090
 N96 N 0.24670 0.82913 -0.19147
 N97 N 0.24695 0.80967 -0.17243
 C98 C 0.26796 0.81418 -0.15511
 C99 C 0.28141 0.83745 -0.16378
 C100 C 0.26753 0.84652 -0.18675
 H101 H 0.27274 0.80192 -0.13712
 H102 H 0.27192 0.86480 -0.19864
 H103 H 0.19779 0.81222 -0.18876
 H104 H 0.21880 0.79000 -0.21189
 C105 C 0.54067 1.03700 -0.00812
 H106 H 0.54114 1.03696 0.01422
 C107 C 0.55932 1.05288 -0.02290
 H108 H 0.57417 1.06521 -0.01195
 C109 C 0.52133 1.02031 -0.04975
 H110 H 0.50689 1.00716 -0.06013
 C111 C 0.53965 1.03589 -0.06533
 H112 H 0.53910 1.03487 -0.08767
 N113 N 0.52210 1.02124 -0.02166
 C114 C 0.45720 1.00741 0.03827
 H115 H 0.45663 0.98517 0.03827
 C116 C 0.43853 1.02229 0.05414
 H117 H 0.42358 1.01150 0.06651
 C118 C 0.47683 1.04872 0.02151
 H119 H 0.49139 1.05894 0.00833
 C120 C 0.45851 1.06438 0.03707
 H121 H 0.45918 1.08663 0.03603
 Zn122 Zn 0.49906 0.99888 0.00016
 N123 N 0.47593 1.02075 0.02249
 C124 C 0.52093 0.97743 0.05027
 N125 N 0.52199 0.97653 0.02219
 C126 C 0.54081 0.96083 0.00881
 C127 C 0.55942 0.94500 0.02374
 C128 C 0.53921 0.96190 0.06601
 C129 C 0.45767 0.99040 -0.03834
 C130 C 0.43924 0.97557 -0.05444
 C131 C 0.45922 0.93342 -0.03733
 C132 C 0.47732 0.94905 -0.02154
 N133 N 0.47629 0.97702 -0.02242
 H134 H 0.50630 0.99054 0.06053
 H135 H 0.54150 0.96090 -0.01352
 H136 H 0.57447 0.93273 0.01292
 H137 H 0.53843 0.96290 0.08834
 H138 H 0.45700 1.01264 -0.03826
 H139 H 0.42436 0.98639 -0.06690
 H140 H 0.45998 0.91118 -0.03636
 H141 H 0.49179 0.93879 -0.00826
 C142 C 0.43916 1.05102 0.05347
 C143 C 0.55885 1.05224 -0.05175
 C144 C 0.43998 0.94684 -0.05386
 C145 C 0.55867 0.94561 0.05260
 C146 C -0.00723 0.54125 1.03711
 H147 H 0.01480 0.54183 1.03707
 C148 C -0.02196 0.56026 1.05276
 H149 H -0.01127 0.57550 1.06494
 C150 C -0.04816 0.52123 1.02062
 H151 H -0.05829 0.50639 1.00761
 C152 C -0.06368 0.53990 1.03598
 H153 H -0.08572 0.53921 1.03497
 N154 N -0.02045 0.52216 1.02155
 C155 C 0.03924 0.45691 1.00848
 H156 H 0.03928 0.45607 0.98616
 C157 C 0.05501 0.43836 1.02362
 H158 H 0.06736 0.42322 1.01295
 C159 C 0.02246 0.47713 1.04974
 H160 H 0.00933 0.49187 1.05984
 C161 C 0.03793 0.45892 1.06566
 H162 H 0.03686 0.45986 1.08799
 Zn163 Zn 0.00127 0.49871 0.99943
 N164 N 0.02348 0.47587 1.02167
 C165 C 0.05054 0.52094 0.97779
 N166 N 0.02282 0.52166 0.97671
 C167 C 0.00948 0.54029 0.96066
 C168 C 0.02407 0.55907 0.94468
 C169 C 0.06593 0.53939 0.96212
 C170 C -0.03633 0.45650 0.99154
 C171 C -0.05205 0.43754 0.97694
 C172 C -0.03532 0.45713 0.93432
 C173 C -0.01990 0.47575 0.94973
 N174 N -0.02078 0.47519 0.97782
 H175 H 0.06077 0.50648 0.99118
 H176 H -0.01256 0.54073 0.96060
 H177 H 0.01328 0.57399 0.93216
 H178 H 0.08797 0.53892 0.96329
 H179 H -0.03627 0.45620 1.01388
 H180 H -0.06426 0.42263 0.98802
 H181 H -0.03439 0.45754 0.91198
 H182 H -0.00692 0.49029 0.93921
 C183 C 0.05428 0.43933 1.05246
 C184 C -0.05043 0.55962 1.05212
 C185 C -0.05149 0.43783 0.94808
 C186 C 0.05254 0.55869 0.94552
 C187 C 1.03674 -0.00725 0.54173
 H188 H 1.03656 0.01500 0.54231
 C189 C 1.05230 -0.02199 0.56079
 H190 H 1.06427 -0.01110 0.57606
 C191 C 1.02069 -0.04869 0.52167
 H192 H 1.00791 -0.05901 0.50680
 C193 C 1.03596 -0.06423 0.54039
 H194 H 1.03510 -0.08648 0.53971
 N195 N 1.02144 -0.02071 0.52261
 C196 C 1.00797 0.03938 0.45717
 H197 H 0.98595 0.03928 0.45635
 C198 C 1.02277 0.05541 0.43856
 H199 H 1.01215 0.06780 0.42339
 C200 C 1.04883 0.02274 0.47738
 H201 H 1.05891 0.00955 0.49214
 C202 C 1.06441 0.03846 0.45912
 H203 H 1.08645 0.03753 0.46004
 Zn204 Zn 0.99939 0.00107 0.49917
 N205 N 1.02112 0.02358 0.47616
 C206 C 0.97768 0.05072 0.52157
 N207 N 0.97694 0.02274 0.52237
 C208 C 0.96136 0.00919 0.54120
 C209 C 0.94549 0.02384 0.56009
 C210 C 0.96211 0.06617 0.54013
 C211 C 0.99153 -0.03706 0.45684
 C212 C 0.97705 -0.05299 0.43790
 C213 C 0.93507 -0.03609 0.45785
 C214 C 0.95035 -0.02045 0.47644
 N215 N 0.97807 -0.02132 0.47569
 H216 H 0.99069 0.06111 0.50693
 H217 H 0.96155 -0.01306 0.54169
 H218 H 0.93330 0.01288 0.57515
 H219 H 0.96297 0.08843 0.53957
 H220 H 1.01357 -0.03698 0.45640
 H221 H 0.98793 -0.06533 0.42286
 H222 H 0.91302 -0.03514 0.45840
 H223 H 0.94002 -0.00732 0.49108
 C224 C 1.05124 0.05488 0.43951
 C225 C 1.05183 -0.05073 0.56016
 C226 C 0.94857 -0.05243 0.43838
 C227 C 0.94595 0.05258 0.55961
 C228 C 0.08705 0.35229 1.10122
 C229 C 0.11578 0.34145 1.09366
 C230 C 0.12399 0.34362 1.12419
 C231 C 0.09547 0.35415 1.13198
 C232 C 0.09724 0.38184 1.09691
 C233 C 0.10543 0.38404 1.12744
 C234 C 0.12576 0.37131 1.08912
 C235 C 0.13421 0.37316 1.11989
 C236 C 0.13874 0.32201 1.13909
 C237 C 0.15073 0.30393 1.15104
 C238 C 0.08216 0.40279 1.08141
 C239 C 0.06957 0.41965 1.06837
 H240 H 0.06749 0.34394 1.09338
 H241 H 0.12020 0.32371 1.07993
 H242 H 0.08318 0.34685 1.14977
 H243 H 0.10100 0.40179 1.14115
 H244 H 0.13804 0.37860 1.07133
 H245 H 0.15377 0.38149 1.12774
 C246 C -0.12482 0.61881 1.09860
 C247 C -0.12050 0.62679 1.12928
 C248 C -0.12052 0.65727 1.12091
 C249 C -0.12508 0.64963 1.09048
 C250 C -0.09376 0.61835 1.09458
 C251 C -0.09381 0.64884 1.08623
 C252 C -0.08920 0.62598 1.12501
 C253 C -0.08947 0.65679 1.11687
 C254 C -0.13523 0.67922 1.13536
 C255 C -0.14713 0.69754 1.14705
 C256 C -0.07862 0.59699 1.07971
 C257 C -0.06591 0.57976 1.06725
 H258 H -0.13918 0.60295 1.09092
 H259 H -0.13164 0.61798 1.14715
 H260 H -0.13999 0.65961 1.07644
 H261 H -0.08267 0.65767 1.06837
 H262 H -0.07428 0.61601 1.13903
 H263 H -0.07509 0.67264 1.12454
 C264 C -0.11660 0.38520 0.88315
 C265 C -0.10356 0.36279 0.86457
 C266 C -0.12166 0.34111 0.87853
 C267 C -0.13494 0.36317 0.89687
 C268 C -0.09467 0.37958 0.90508
 C269 C -0.11278 0.35790 0.91902
 C270 C -0.08140 0.35752 0.88673
 C271 C -0.09974 0.33553 0.90046
 C272 C -0.13651 0.31941 0.86396
 C273 C -0.14854 0.30128 0.85221
 C274 C -0.07949 0.40073 0.92011
 C275 C -0.06682 0.41782 0.93272
 H276 H -0.12334 0.40588 0.87622
 H277 H -0.09994 0.36457 0.84201
 H278 H -0.15712 0.36527 0.90088
 H279 H -0.11640 0.35612 0.94158
 H280 H -0.05922 0.35542 0.88273
 H281 H -0.09297 0.31486 0.90742
 C282 C 0.11445 0.63826 0.91678
 C283 C 0.13552 0.63359 0.89339
 C284 C 0.12178 0.65657 0.87662
 C285 C 0.10095 0.66156 0.89979
 C286 C 0.09540 0.61743 0.90284
 C287 C 0.08168 0.64042 0.88607
 C288 C 0.11622 0.61240 0.87968
 C289 C 0.10272 0.63575 0.86267
 C290 C 0.13622 0.67868 0.86225
 C291 C 0.14789 0.69716 0.85067
 C292 C 0.08044 0.59600 0.91770
 C293 C 0.06787 0.57876 0.93022
 H294 H 0.11911 0.63905 0.93919
 H295 H 0.15782 0.63103 0.89625
 H296 H 0.09483 0.68201 0.90792
 H297 H 0.05938 0.64300 0.88321
 H298 H 0.12233 0.59194 0.87158
 H299 H 0.09807 0.63496 0.84026
 C300 C 1.08252 0.11947 0.36213
 C301 C 1.10696 0.13885 0.36761
 C302 C 1.12245 0.12505 0.34374
 C303 C 1.09825 0.10591 0.33794
 C304 C 1.09512 0.09832 0.38195
 C305 C 1.11061 0.08454 0.35808
 C306 C 1.11932 0.11745 0.38779
 C307 C 1.13505 0.10390 0.36357
 C308 C 1.13749 0.13968 0.32214
 C309 C 1.14970 0.15144 0.30408
 C310 C 1.07971 0.08315 0.40290
 C311 C 1.06684 0.07041 0.41978
 H312 H 1.06076 0.12571 0.36176
 H313 H 1.10563 0.16135 0.37129
 H314 H 1.08974 0.10133 0.31721
 H315 H 1.11195 0.06205 0.35438
 H316 H 1.12780 0.12202 0.40853
 H317 H 1.15682 0.09766 0.36392
 C318 C 1.11881 -0.11287 0.61396
 C319 C 1.13349 -0.09930 0.63878
 C320 C 1.12051 -0.12070 0.65804
 C321 C 1.10607 -0.13452 0.63357
 C322 C 1.09414 -0.09404 0.61905
 C323 C 1.08118 -0.11544 0.63831
 C324 C 1.10859 -0.08024 0.64353
 C325 C 1.09585 -0.10186 0.66311
 C326 C 1.13505 -0.13533 0.68000
 C327 C 1.14689 -0.14712 0.69831
 C328 C 1.07930 -0.07893 0.59764
 C329 C 1.06689 -0.06622 0.58036
 H330 H 1.12808 -0.11723 0.59350
 H331 H 1.15516 -0.09281 0.63922
 H332 H 1.10521 -0.15701 0.62973
 H333 H 1.05950 -0.12192 0.63789
 H334 H 1.10946 -0.05775 0.64738
 H335 H 1.08656 -0.09747 0.68355
 C336 C 0.90540 -0.12704 0.37675
 C337 C 0.87412 -0.12596 0.37241
 C338 C 0.87883 -0.12220 0.34127
 C339 C 0.90986 -0.12352 0.34528
 C340 C 0.90561 -0.09561 0.37997
 C341 C 0.91030 -0.09187 0.34882
 C342 C 0.87458 -0.09428 0.37597
 C343 C 0.87906 -0.09077 0.34450
 C344 C 0.86408 -0.13675 0.31943
 C345 C 0.85213 -0.14848 0.30117
 C346 C 0.92070 -0.08053 0.40120
 C347 C 0.93330 -0.06787 0.41833
 H348 H 0.91640 -0.14178 0.39026
 H349 H 0.85908 -0.14015 0.38186
 H350 H 0.92422 -0.13570 0.33242
 H351 H 0.92534 -0.07769 0.33935
 H352 H 0.86023 -0.08209 0.38883
 H353 H 0.86807 -0.07601 0.33100
 C354 C 0.89226 0.08238 0.64490
 C355 C 0.90342 0.10714 0.66148
 C356 C 0.87619 0.12215 0.65709
 C357 C 0.86480 0.09759 0.64083
 C358 C 0.90293 0.09564 0.61822
 C359 C 0.87570 0.11063 0.61380
 C360 C 0.91432 0.12019 0.63448
 C361 C 0.88685 0.13543 0.63042
 C362 C 0.86150 0.13667 0.67904
 C363 C 0.84960 0.14836 0.69740
 C364 C 0.91800 0.08061 0.59688
 C365 C 0.93062 0.06798 0.57968
 H366 H 0.89465 0.06040 0.65062
 H367 H 0.91465 0.10586 0.68133
 H368 H 0.84428 0.08847 0.64367
 H369 H 0.86448 0.11189 0.59394
 H370 H 0.93484 0.12931 0.63164
 H371 H 0.88445 0.15741 0.62471
 C372 C 0.35143 1.08648 0.09756
 C373 C 0.35123 1.09207 0.12904
 C374 C 0.34333 1.12211 0.12325
 C375 C 0.34322 1.11674 0.09198
 C376 C 0.38156 1.09495 0.09657
 C377 C 0.37367 1.12499 0.09077
 C378 C 0.38169 1.10031 0.12784
 C379 C 0.37345 1.13061 0.12228
 C380 C 0.32173 1.13698 0.13790
 C381 C 0.30366 1.14896 0.14974
 C382 C 0.40251 1.07957 0.08149
 C383 C 0.41941 1.06668 0.06885
 H384 H 0.34260 1.06817 0.08723
 H385 H 0.34177 1.07869 0.14493
 H386 H 0.32717 1.12365 0.07740
 H387 H 0.38313 1.13836 0.07487
 H388 H 0.39775 1.09338 0.14241
 H389 H 0.38226 1.14893 0.13262
 C390 C 0.64509 1.10162 -0.08297
 C391 C 0.65836 1.09200 -0.11034
 C392 C 0.65566 1.12140 -0.12164
 C393 C 0.64270 1.13124 -0.09448
 C394 C 0.61691 1.09506 -0.09508
 C395 C 0.61418 1.12446 -0.10637
 C396 C 0.62987 1.08522 -0.12224
 C397 C 0.62749 1.11485 -0.13377
 C398 C 0.67756 1.13583 -0.13619
 C399 C 0.69587 1.14746 -0.14791
 C400 C 0.59572 1.08011 -0.07999
 C401 C 0.57870 1.06755 -0.06728
 H402 H 0.65209 1.09601 -0.06192
 H403 H 0.67676 1.07880 -0.11212
 H404 H 0.64823 1.15032 -0.08322
 H405 H 0.59577 1.13764 -0.10457
 H406 H 0.62435 1.06613 -0.13348
 H407 H 0.62050 1.12046 -0.15483
 C408 C 0.35627 0.91684 -0.10835
 C409 C 0.36019 0.90115 -0.13591
 C410 C 0.34390 0.87697 -0.12395
 C411 C 0.33967 0.89246 -0.09662
 C412 C 0.38247 0.90345 -0.09729
 C413 C 0.36617 0.87927 -0.08534
 C414 C 0.38674 0.88798 -0.12462
 C415 C 0.37008 0.86355 -0.11290
 C416 C 0.32204 0.86252 -0.13850
 C417 C 0.30368 0.85093 -0.15018
 C418 C 0.40350 0.91853 -0.08215
 C419 C 0.42037 0.93126 -0.06940
 H420 H 0.35083 0.93892 -0.10631
 H421 H 0.35749 0.90999 -0.15686
 H422 H 0.32009 0.89415 -0.08525
 H423 H 0.36886 0.87044 -0.06438
 H424 H 0.40633 0.88631 -0.13596
 H425 H 0.37550 0.84147 -0.11495
 C426 C 0.61634 0.89698 0.12743
 C427 C 0.62570 0.86709 0.12142
 C428 C 0.65549 0.87662 0.12293
 C429 C 0.64649 0.90626 0.12917
 C430 C 0.61669 0.90292 0.09628
 C431 C 0.64650 0.91241 0.09780
 C432 C 0.62569 0.87328 0.09002
 C433 C 0.65581 0.88257 0.09177
 C434 C 0.67748 0.86223 0.13745
 C435 C 0.69591 0.85065 0.14909
 C436 C 0.59549 0.91783 0.08110
 C437 C 0.57848 0.93036 0.06828
 H438 H 0.59986 0.90308 0.14191
 H439 H 0.61738 0.84829 0.13130
 H440 H 0.65527 0.91967 0.14543
 H441 H 0.65482 0.93121 0.08793
 H442 H 0.61690 0.85989 0.07376
 H443 H 0.67227 0.87650 0.07725
   
