data_POSCAR
  _audit_creation_date              2014-09-24
  _audit_creation_method            'ToBaCCo'
  _symmetry_space_group_name_H-M    'P1'
  _symmetry_Int_Tables_number       1
  _symmetry_cell_setting            triclinic
  loop_
  _symmetry_equiv_pos_as_xyz
 x,y,z
_cell_length_a 29.1572
_cell_length_b 29.0469
_cell_length_c 49.2137
_cell_angle_alpha 90.015400
_cell_angle_beta 90.371100
_cell_angle_gamma 89.911700
loop_
  _atom_site_label
  _atom_site_type_symbol
  _atom_site_fract_x
  _atom_site_fract_y
  _atom_site_fract_z
C1 C -0.02495 0.35902 0.98723
 C2 C -0.02433 0.35920 1.01509
 C3 C -0.01272 0.40356 1.02306
 N4 N -0.00601 0.43027 1.00096
 C5 C -0.01368 0.40322 0.97904
 C6 C -0.00521 0.41775 1.05020
 C7 C 0.00185 0.46410 1.05804
 C8 C 0.01680 0.47820 1.08357
 C9 C 0.01670 0.52554 1.08345
 C10 C 0.00176 0.53921 1.05784
 N11 N -0.00758 0.50154 1.04261
 C12 C -0.00527 0.58543 1.04971
 C13 C -0.01177 0.59925 1.02241
 C14 C -0.02236 0.64369 1.01406
 C15 C -0.02211 0.64335 0.98619
 C16 C -0.01151 0.59873 0.97840
 N17 N -0.00494 0.57197 1.00055
 C18 C -0.00492 0.58430 0.95132
 C19 C 0.00118 0.53793 0.94348
 C20 C 0.01514 0.52364 0.91792
 C21 C 0.01439 0.47628 0.91804
 C22 C 0.00004 0.46293 0.94368
 N23 N -0.00835 0.50071 0.95894
 C24 C -0.00734 0.41693 0.95182
 H25 H -0.03244 0.32959 0.97448
 H26 H -0.03127 0.32992 1.02802
 H27 H -0.02445 0.50113 0.97768
 H28 H 0.02639 0.45660 1.10061
 H29 H 0.02624 0.54741 1.10036
 H30 H -0.02909 0.67337 1.02672
 H31 H -0.02865 0.67269 0.97318
 H32 H 0.02312 0.45422 0.90111
 H33 H -0.02424 0.50142 1.02391
 H34 H 0.02452 0.54509 0.90086
 C35 C 0.35869 -0.01590 0.48675
 C36 C 0.35931 -0.01612 0.51463
 C37 C 0.40398 -0.00629 0.52255
 N38 N 0.43048 0.00021 0.50046
 C39 C 0.40302 -0.00603 0.47854
 C40 C 0.41877 -0.00059 0.54971
 C41 C 0.46494 0.00643 0.55754
 C42 C 0.47912 0.02044 0.58320
 C43 C 0.52629 0.02066 0.58306
 C44 C 0.53973 0.00670 0.55731
 N45 N 0.50207 -0.00218 0.54199
 C46 C 0.58573 -0.00019 0.54919
 C47 C 0.59932 -0.00664 0.52191
 C48 C 0.64354 -0.01726 0.51366
 C49 C 0.64286 -0.01773 0.48579
 C50 C 0.59829 -0.00738 0.47788
 N51 N 0.57189 -0.00027 0.49998
 C52 C 0.58351 -0.00180 0.45070
 C53 C 0.53736 0.00534 0.44283
 C54 C 0.52314 0.01888 0.41709
 C55 C 0.47596 0.01936 0.41726
 C56 C 0.46261 0.00608 0.44310
 N57 N 0.50025 -0.00272 0.45846
 C58 C 0.41667 -0.00018 0.45129
 H59 H 0.32888 -0.02180 0.47403
 H60 H 0.33006 -0.02220 0.52756
 H61 H 0.50056 -0.01842 0.47739
 H62 H 0.45773 0.02920 0.60034
 H63 H 0.54820 0.02959 0.60009
 H64 H 0.67332 -0.02351 0.52638
 H65 H 0.67200 -0.02439 0.47285
 H66 H 0.45402 0.02803 0.40019
 H67 H 0.50174 -0.01830 0.52318
 H68 H 0.54450 0.02714 0.39986
 C69 C 0.09215 0.00604 0.26154
 H70 H 0.09501 0.00676 0.23964
 C71 C 0.13167 0.00702 0.27775
 H72 H 0.16514 0.00834 0.26836
 C73 C 0.04511 0.00353 0.30066
 H74 H 0.01140 0.00278 0.30957
 C75 C 0.08370 0.00446 0.31758
 H76 H 0.07954 0.00388 0.33944
 N77 N 0.04998 0.00352 0.27316
 C78 C -0.03852 -0.06109 0.21235
 H79 H -0.06653 -0.03662 0.21185
 C80 C -0.03979 -0.09996 0.19567
 H81 H -0.06877 -0.10546 0.18217
 C82 C 0.03369 -0.08378 0.23040
 H83 H 0.06205 -0.07764 0.24413
 C84 C 0.03376 -0.12311 0.21406
 H85 H 0.06242 -0.14685 0.21503
 Zn86 Zn -0.00217 0.00128 0.25001
 N87 N -0.00174 -0.05327 0.22888
 C88 C 0.00079 0.04871 0.19963
 N89 N -0.00034 0.05372 0.22712
 C90 C 0.00127 0.09614 0.23887
 C91 C 0.00264 0.13574 0.22277
 C92 C 0.00220 0.08735 0.18281
 C93 C -0.06394 -0.03650 0.28695
 C94 C -0.10277 -0.03865 0.30335
 C95 C -0.12681 0.03514 0.28554
 C96 C -0.08749 0.03595 0.26947
 N97 N -0.05659 0.00080 0.27082
 H98 H 0.00080 0.01483 0.19063
 H99 H 0.00120 0.09912 0.26079
 H100 H 0.00344 0.16940 0.23224
 H101 H 0.00278 0.08306 0.16094
 H102 H -0.03917 -0.06426 0.28732
 H103 H -0.10793 -0.06808 0.31650
 H104 H -0.15092 0.06353 0.28468
 H105 H -0.08169 0.06473 0.25606
 C106 C -0.00312 -0.13101 0.19637
 C107 C 0.12733 0.00589 0.30603
 C108 C -0.13426 -0.00232 0.30279
 C109 C 0.00288 0.13122 0.19448
 C110 C -0.00173 0.09502 0.76093
 H111 H -0.00193 0.09836 0.73903
 C112 C -0.00322 0.13435 0.77728
 H113 H -0.00440 0.16816 0.76801
 C114 C -0.00031 0.04697 0.79989
 H115 H 0.00011 0.01295 0.80869
 C116 C -0.00178 0.08532 0.81694
 H117 H -0.00193 0.08067 0.83878
 N118 N 0.00044 0.05243 0.77242
 C119 C 0.06494 -0.03646 0.71212
 H120 H 0.04045 -0.06440 0.71159
 C121 C 0.10388 -0.03817 0.69580
 H122 H 0.10942 -0.06742 0.68255
 C123 C 0.08769 0.03593 0.72997
 H124 H 0.08155 0.06450 0.74350
 C125 C 0.12712 0.03556 0.71398
 H126 H 0.15096 0.06408 0.71502
 Zn127 Zn 0.00275 0.00033 0.74925
 N128 N 0.05715 0.00058 0.72841
 C129 C -0.04467 0.00290 0.69866
 N130 N -0.04947 0.00245 0.72616
 C131 C -0.09164 0.00451 0.73782
 C132 C -0.13121 0.00550 0.72165
 C133 C -0.08331 0.00387 0.68177
 C134 C 0.04001 -0.06214 0.78654
 C135 C 0.04175 -0.10105 0.80317
 C136 C -0.03169 -0.12462 0.78491
 C137 C -0.03211 -0.08521 0.76863
 N138 N 0.00303 -0.05447 0.77013
 H139 H -0.01097 0.00250 0.68972
 H140 H -0.09446 0.00489 0.75973
 H141 H -0.16467 0.00648 0.73107
 H142 H -0.07920 0.00367 0.65990
 H143 H 0.06777 -0.03748 0.78703
 H144 H 0.07085 -0.10638 0.81661
 H145 H -0.06014 -0.14853 0.78399
 H146 H -0.06064 -0.07917 0.75500
 C147 C 0.13504 -0.00166 0.69660
 C148 C -0.00298 0.12937 0.80554
 C149 C 0.00537 -0.13232 0.80251
 C150 C -0.12693 0.00486 0.69336
 C151 C -0.00140 -0.24015 0.14369
 C152 C -0.01703 -0.28426 0.15160
 C153 C -0.01706 -0.32110 0.13257
 C154 C -0.00143 -0.31360 0.10576
 C155 C 0.01482 -0.26966 0.09796
 C156 C 0.01474 -0.23281 0.11696
 C157 C 0.03089 -0.18912 0.10863
 C158 C 0.04672 -0.18207 0.08230
 C159 C 0.04692 -0.21814 0.06375
 C160 C 0.03123 -0.26151 0.07138
 C161 C -0.03293 -0.36486 0.14091
 C162 C -0.04832 -0.37204 0.16732
 C163 C -0.04832 -0.33602 0.18593
 C164 C -0.03290 -0.29255 0.17827
 C165 C -0.00275 -0.35073 0.08603
 C166 C -0.00394 -0.38094 0.06923
 C167 C -0.00219 -0.20217 0.16288
 C168 C -0.00273 -0.17005 0.17840
 H169 H 0.03150 -0.15998 0.12233
 H170 H 0.05896 -0.14844 0.07628
 H171 H 0.05933 -0.21252 0.04333
 H172 H 0.03227 -0.28850 0.05625
 H173 H -0.03355 -0.39395 0.12717
 H174 H -0.06032 -0.40574 0.17338
 H175 H -0.06031 -0.34177 0.20642
 H176 H -0.03351 -0.26561 0.19345
 C177 C 0.00450 0.24253 0.14345
 C178 C 0.01913 0.23568 0.11636
 C179 C 0.01810 0.27290 0.09763
 C180 C 0.00223 0.31670 0.10606
 C181 C -0.01171 0.32375 0.13324
 C182 C -0.01055 0.28655 0.15201
 C183 C -0.02477 0.29437 0.17906
 C184 C -0.03968 0.33775 0.18735
 C185 C -0.04080 0.37412 0.16900
 C186 C -0.02704 0.36740 0.14222
 C187 C 0.03297 0.26521 0.07067
 C188 C 0.04821 0.22196 0.06242
 C189 C 0.04908 0.18553 0.08071
 C190 C 0.03479 0.19211 0.10740
 C191 C -0.00053 0.35409 0.08655
 C192 C -0.00282 0.38431 0.06980
 C193 C 0.00417 0.20400 0.16225
 C194 C 0.00369 0.17124 0.17728
 H195 H -0.02445 0.26715 0.19407
 H196 H -0.05041 0.34315 0.20812
 H197 H -0.05240 0.40774 0.17554
 H198 H -0.02848 0.39674 0.12869
 H199 H 0.03314 0.29249 0.05572
 H200 H 0.05943 0.21671 0.04172
 H201 H 0.06096 0.15199 0.07421
 H202 H 0.03621 0.16271 0.12087
 C203 C 0.24531 -0.00318 0.64549
 C204 C 0.27992 0.03083 0.64741
 C205 C 0.31656 0.03108 0.62848
 C206 C 0.31837 -0.00271 0.60778
 C207 C 0.28418 -0.03718 0.60614
 C208 C 0.24753 -0.03741 0.62504
 C209 C 0.21363 -0.07209 0.62290
 C210 C 0.21588 -0.10559 0.60268
 C211 C 0.25173 -0.10539 0.58421
 C212 C 0.28558 -0.07168 0.58582
 C213 C 0.35064 0.06554 0.63072
 C214 C 0.34862 0.09879 0.65109
 C215 C 0.31279 0.09856 0.66959
 C216 C 0.27873 0.06506 0.66786
 C217 C 0.35471 -0.00151 0.58777
 C218 C 0.38420 -0.00086 0.57071
 C219 C 0.20689 -0.00247 0.66411
 C220 C 0.17443 -0.00203 0.67916
 H221 H 0.18510 -0.07375 0.63682
 H222 H 0.18967 -0.13187 0.60136
 H223 H 0.25335 -0.13151 0.56855
 H224 H 0.31283 -0.07306 0.57103
 H225 H 0.37917 0.06712 0.61680
 H226 H 0.37499 0.12489 0.65252
 H227 H 0.31138 0.12447 0.68538
 H228 H 0.25157 0.06626 0.68273
 C229 C -0.23905 0.00209 0.64284
 C230 C -0.24238 -0.03374 0.62341
 C231 C -0.27973 -0.03455 0.60471
 C232 C -0.31350 0.00050 0.60553
 C233 C -0.31056 0.03592 0.62523
 C234 C -0.27322 0.03671 0.64395
 C235 C -0.27093 0.07255 0.66340
 C236 C -0.30457 0.10665 0.66432
 C237 C -0.34106 0.10588 0.64601
 C238 C -0.34419 0.07102 0.62663
 C239 C -0.28227 -0.07066 0.58543
 C240 C -0.24883 -0.10494 0.58462
 C241 C -0.21228 -0.10413 0.60287
 C242 C -0.20892 -0.06903 0.62209
 C243 C -0.35056 0.00057 0.58570
 C244 C -0.38069 0.00036 0.56880
 C245 C -0.20000 0.00366 0.66129
 C246 C -0.16699 0.00451 0.67616
 H247 H -0.24321 0.07457 0.67808
 H248 H -0.30229 0.13380 0.67934
 H249 H -0.36709 0.13245 0.64682
 H250 H -0.37321 0.07187 0.61283
 H251 H -0.31009 -0.07287 0.57084
 H252 H -0.25132 -0.13230 0.56974
 H253 H -0.18640 -0.13085 0.60216
 H254 H -0.17987 -0.06994 0.63587
 C255 C 0.00502 -0.24102 0.85547
 C256 C 0.02004 -0.23344 0.88252
 C257 C 0.01868 -0.26995 0.90172
 C258 C 0.00221 -0.31380 0.89376
 C259 C -0.01225 -0.32155 0.86663
 C260 C -0.01085 -0.28504 0.84742
 C261 C -0.02563 -0.29355 0.82044
 C262 C -0.04128 -0.33694 0.81265
 C263 C -0.04261 -0.37264 0.83143
 C264 C -0.02832 -0.36523 0.85814
 C265 C 0.03386 -0.26153 0.92865
 C266 C 0.04981 -0.21826 0.93642
 C267 C 0.05108 -0.18254 0.91766
 C268 C 0.03643 -0.18984 0.89100
 C269 C -0.00040 -0.35059 0.91363
 C270 C -0.00255 -0.38053 0.93053
 C271 C 0.00530 -0.20328 0.83613
 C272 C 0.00541 -0.17129 0.82052
 H273 H -0.02520 -0.26686 0.80511
 H274 H -0.05243 -0.34287 0.79192
 H275 H -0.05478 -0.40628 0.82527
 H276 H -0.02997 -0.39407 0.87202
 H277 H 0.03370 -0.28824 0.94396
 H278 H 0.06128 -0.21244 0.95710
 H279 H 0.06352 -0.14899 0.92378
 H280 H 0.03817 -0.16098 0.87715
 C281 C -0.00349 0.23965 0.85737
 C282 C -0.01774 0.28403 0.84890
 C283 C -0.01803 0.32107 0.86779
 C284 C -0.00404 0.31350 0.89503
 C285 C 0.01071 0.26923 0.90342
 C286 C 0.01087 0.23218 0.88456
 C287 C 0.02549 0.18816 0.89350
 C288 C 0.03964 0.18100 0.92026
 C289 C 0.03963 0.21727 0.93868
 C290 C 0.02542 0.26095 0.93047
 C291 C -0.03247 0.36512 0.85887
 C292 C -0.04623 0.37237 0.83204
 C293 C -0.04597 0.33615 0.81357
 C294 C -0.03193 0.29240 0.82179
 C295 C -0.00533 0.35092 0.91456
 C296 C -0.00634 0.38131 0.93123
 C297 C -0.00370 0.20152 0.83828
 C298 C -0.00358 0.16907 0.82300
 H299 H 0.02619 0.15885 0.87993
 H300 H 0.05071 0.14712 0.92674
 H301 H 0.05074 0.21157 0.95944
 H302 H 0.02624 0.28807 0.94552
 H303 H -0.03323 0.39436 0.87249
 H304 H -0.05715 0.40628 0.82555
 H305 H -0.05670 0.34196 0.79275
 H306 H -0.03229 0.26530 0.80669
 C307 C -0.24391 -0.00456 0.35434
 C308 C -0.27886 0.02922 0.35249
 C309 C -0.31523 0.02941 0.37160
 C310 C -0.31645 -0.00421 0.39240
 C311 C -0.28194 -0.03847 0.39396
 C312 C -0.24554 -0.03863 0.37489
 C313 C -0.21129 -0.07307 0.37696
 C314 C -0.21296 -0.10641 0.39728
 C315 C -0.24856 -0.10628 0.41591
 C316 C -0.28275 -0.07280 0.41437
 C317 C -0.34964 0.06366 0.36944
 C318 C -0.34820 0.09675 0.34897
 C319 C -0.31265 0.09655 0.33028
 C320 C -0.27827 0.06327 0.33193
 C321 C -0.35256 -0.00307 0.41256
 C322 C -0.38193 -0.00233 0.42968
 C323 C -0.20572 -0.00371 0.33556
 C324 C -0.17344 -0.00305 0.32038
 H325 H -0.18293 -0.07467 0.36291
 H326 H -0.18648 -0.13251 0.39855
 H327 H -0.24973 -0.13228 0.43165
 H328 H -0.30979 -0.07422 0.42930
 H329 H -0.37797 0.06522 0.38351
 H330 H -0.37481 0.12269 0.34761
 H331 H -0.31170 0.12233 0.31442
 H332 H -0.25134 0.06449 0.31692
 C333 C 0.23924 0.00269 0.35670
 C334 C 0.24051 -0.03083 0.37759
 C335 C 0.27792 -0.03188 0.39624
 C336 C 0.31375 0.00073 0.39397
 C337 C 0.31279 0.03386 0.37288
 C338 C 0.27544 0.03481 0.35416
 C339 C 0.27518 0.06827 0.33327
 C340 C 0.31082 0.09992 0.33093
 C341 C 0.34730 0.09903 0.34925
 C342 C 0.34844 0.06647 0.37003
 C343 C 0.27845 -0.06574 0.41693
 C344 C 0.24296 -0.09755 0.41919
 C345 C 0.20632 -0.09645 0.40101
 C346 C 0.20493 -0.06357 0.38040
 C347 C 0.35094 0.00071 0.41373
 C348 C 0.38116 0.00046 0.43057
 C349 C 0.20029 0.00445 0.33819
 C350 C 0.16735 0.00543 0.32326
 H351 H 0.24754 0.07030 0.31853
 H352 H 0.31010 0.12528 0.31482
 H353 H 0.37488 0.12370 0.34735
 H354 H 0.37753 0.06713 0.38379
 H355 H 0.30628 -0.06812 0.43150
 H356 H 0.24392 -0.12320 0.43514
 H357 H 0.17882 -0.12123 0.40285
 H358 H 0.17572 -0.06418 0.36673
   
