data_POSCAR
  _audit_creation_date              2014-09-24
  _audit_creation_method            'ToBaCCo'
  _symmetry_space_group_name_H-M    'P1'
  _symmetry_Int_Tables_number       1
  _symmetry_cell_setting            triclinic
  loop_
  _symmetry_equiv_pos_as_xyz
 x,y,z
_cell_length_a 17.8678
_cell_length_b 18.5021
_cell_length_c 18.1206
_cell_angle_alpha 90.082800
_cell_angle_beta 90.096900
_cell_angle_gamma 87.766300
loop_
  _atom_site_label
  _atom_site_type_symbol
  _atom_site_fract_x
  _atom_site_fract_y
  _atom_site_fract_z
C1 C 1.20349 0.19830 0.19096
 C2 C 1.25055 0.25003 0.14672
 C3 C 1.29185 0.29453 0.18931
 C4 C 1.28193 0.28223 0.27371
 C5 C 1.25821 0.15760 0.24158
 C6 C 1.29869 0.20054 0.28545
 C7 C 1.15604 0.24710 0.24145
 C8 C 1.19630 0.29067 0.28515
 H9 H 1.24845 0.25348 0.08706
 H10 H 1.31515 0.31799 0.30927
 H11 H 1.26256 0.09902 0.24446
 H12 H 1.09532 0.24837 0.24127
 C13 C 0.70410 -0.30132 0.19091
 C14 C 0.75045 -0.24990 0.14592
 C15 C 0.79173 -0.20504 0.18780
 C16 C 0.78292 -0.21696 0.27248
 C17 C 0.75913 -0.34172 0.24131
 C18 C 0.79949 -0.29851 0.28490
 C19 C 0.65688 -0.25248 0.24152
 C20 C 0.69762 -0.20881 0.28472
 H21 H 0.74748 -0.24656 0.08627
 H22 H 0.81639 -0.18094 0.30752
 H23 H 0.76298 -0.40028 0.24507
 H24 H 0.59617 -0.25151 0.24206
 C25 C 0.70394 0.20151 -0.31048
 C26 C 0.74862 0.25060 -0.35269
 C27 C 0.79324 0.29634 -0.30751
 C28 C 0.78376 0.28281 -0.22700
 C29 C 0.75580 0.16101 -0.26309
 C30 C 0.79943 0.20471 -0.21663
 C31 C 0.65925 0.24831 -0.26238
 C32 C 0.70210 0.29271 -0.21550
 H33 H 0.74535 0.25534 -0.41227
 H34 H 0.81772 0.31765 -0.19106
 H35 H 0.75946 0.10231 -0.26076
 H36 H 0.59846 0.25174 -0.26361
 C37 C 1.20440 -0.30162 -0.30904
 C38 C 1.25113 -0.25003 -0.35358
 C39 C 1.29265 -0.20587 -0.31093
 C40 C 1.28313 -0.21811 -0.22666
 C41 C 1.25934 -0.34258 -0.25900
 C42 C 1.30025 -0.29978 -0.21552
 C43 C 1.15717 -0.25315 -0.25855
 C44 C 1.19746 -0.20964 -0.21527
 H45 H 1.24883 -0.24650 -0.41323
 H46 H 1.31643 -0.18234 -0.19118
 H47 H 1.26382 -0.40119 -0.25648
 H48 H 1.09642 -0.25123 -0.25921
 C49 C 0.20474 0.20049 0.81006
 C50 C 0.24627 0.25144 0.85298
 C51 C 0.29185 0.29697 0.80928
 C52 C 0.28572 0.28315 0.72937
 C53 C 0.15879 0.24662 0.75628
 C54 C 0.20006 0.29021 0.71395
 C55 C 0.26204 0.15892 0.76288
 C56 C 0.30388 0.20120 0.71980
 H57 H 0.24202 0.25567 0.91251
 H58 H 0.31976 0.31846 0.69429
 H59 H 0.09806 0.24797 0.75497
 H60 H 0.26595 0.10029 0.76032
 C61 C 0.70336 0.70021 0.80882
 C62 C 0.74662 0.75121 0.85075
 C63 C 0.79132 0.79665 0.80564
 C64 C 0.78299 0.78134 0.72538
 C65 C 0.65850 0.74498 0.75911
 C66 C 0.70136 0.78962 0.71254
 C67 C 0.75676 0.65968 0.76315
 C68 C 0.80031 0.70332 0.71670
 H69 H 0.74290 0.75686 0.91023
 H70 H 0.81677 0.81605 0.68933
 H71 H 0.59771 0.74741 0.75954
 H72 H 0.76083 0.60098 0.76118
 C73 C 0.70493 0.19823 0.30988
 C74 C 0.75174 0.24987 0.35434
 C75 C 0.79270 0.29433 0.31196
 C76 C 0.78315 0.28185 0.22748
 C77 C 0.65738 0.24672 0.25930
 C78 C 0.69780 0.28992 0.21568
 C79 C 0.75950 0.15734 0.25941
 C80 C 0.79954 0.20028 0.21545
 H81 H 0.74916 0.25378 0.41398
 H82 H 0.81633 0.31760 0.19208
 H83 H 0.59666 0.24785 0.25908
 H84 H 0.76328 0.09876 0.25593
 C85 C 0.20345 0.69915 0.30884
 C86 C 0.24977 0.75171 0.35309
 C87 C 0.29123 0.79594 0.31060
 C88 C 0.28211 0.78254 0.22613
 C89 C 0.15619 0.74706 0.25724
 C90 C 0.19651 0.79042 0.21355
 C91 C 0.25887 0.65814 0.25929
 C92 C 0.29947 0.70070 0.21541
 H93 H 0.24730 0.75567 0.41271
 H94 H 0.31546 0.81803 0.19062
 H95 H 0.09548 0.74816 0.25693
 H96 H 0.26332 0.59954 0.25683
 N97 N 1.13362 0.06297 0.07597
 N98 N 1.18451 0.11148 0.08731
 N99 N 1.07375 -0.08352 0.12688
 N100 N 1.08977 -0.12661 0.18283
 N101 N 1.12780 -0.08732 0.07769
 N102 N 1.18278 -0.13218 0.10011
 N103 N 1.08122 0.06766 0.12627
 N104 N 1.09468 0.11966 0.17346
 C105 C 1.15848 0.14740 0.14753
 C106 C 1.15724 -0.15712 0.16518
 N107 N 0.86074 -0.06553 0.07607
 N108 N 0.80911 -0.11313 0.08883
 N109 N 0.92262 0.08215 0.12637
 N110 N 0.91107 0.12990 0.17946
 N111 N 0.86917 0.08721 0.07666
 N112 N 0.81934 0.13853 0.09589
 N113 N 0.91211 -0.06908 0.12805
 N114 N 0.89612 -0.11821 0.17812
 Mn115 Mn 0.99735 -0.00091 0.12730
 C116 C 0.83188 -0.14565 0.15263
 C117 C 0.84765 0.16645 0.15910
 N118 N 1.12728 -0.08594 -0.08303
 N119 N 1.18219 -0.13139 -0.10378
 N120 N 1.08127 0.06920 -0.13068
 N121 N 1.09504 0.12259 -0.17586
 N122 N 1.13330 0.06352 -0.07969
 N123 N 1.18392 0.11258 -0.08865
 N124 N 1.07416 -0.08163 -0.13355
 N125 N 1.09116 -0.12500 -0.18904
 Mn126 Mn 1.13098 -0.01215 -0.00238
 C127 C 1.15798 -0.15592 -0.16937
 C128 C 1.15842 0.14993 -0.14801
 N129 N 0.86829 0.08854 -0.08423
 N130 N 0.81889 0.14111 -0.10171
 N131 N 0.91033 -0.06768 -0.13833
 N132 N 0.89268 -0.11593 -0.18936
 N133 N 0.86072 -0.06593 -0.08481
 N134 N 0.81038 -0.11530 -0.09624
 N135 N 0.92121 0.08420 -0.13426
 N136 N 0.90904 0.13334 -0.18615
 Mn137 Mn 0.86362 0.01106 -0.00412
 Mn138 Mn 0.99686 0.00077 -0.13491
 Cl139 Cl 0.99673 -0.00119 -0.00365
 C140 C 0.84660 0.17123 -0.16413
 C141 C 0.83039 -0.14609 -0.16186
 N142 N 1.13401 0.56269 0.57906
 N143 N 1.18455 0.61166 0.58876
 N144 N 1.07566 0.41727 0.63165
 N145 N 1.09340 0.37436 0.68723
 N146 N 1.12875 0.41337 0.58122
 N147 N 1.18430 0.36862 0.60221
 N148 N 1.08211 0.56774 0.63004
 N149 N 1.09578 0.62048 0.67604
 C150 C 1.15891 0.64810 0.64858
 C151 C 1.16058 0.34406 0.66786
 N152 N 0.86193 0.43353 0.58312
 N153 N 0.81157 0.38425 0.59448
 N154 N 0.92226 0.58303 0.63392
 N155 N 0.90985 0.63154 0.68648
 N156 N 0.86948 0.58798 0.58362
 N157 N 0.82010 0.64045 0.60137
 N158 N 0.91190 0.43143 0.63646
 N159 N 0.89452 0.38326 0.68737
 Mn160 Mn 0.99810 0.49960 0.63366
 C161 C 0.83206 0.35335 0.65991
 C162 C 0.84757 0.66976 0.66443
 N163 N 1.12821 0.41323 0.42059
 N164 N 1.18294 0.36815 0.39829
 N165 N 1.08135 0.56840 0.37306
 N166 N 1.09457 0.62063 0.32624
 N167 N 1.13393 0.56355 0.42335
 N168 N 1.18474 0.61216 0.41226
 N169 N 1.07408 0.41723 0.37134
 N170 N 1.08983 0.37405 0.31533
 Mn171 Mn 1.13173 0.48779 0.50112
 C172 C 1.15721 0.34334 0.33316
 C173 C 1.15844 0.64835 0.35228
 N174 N 0.86962 0.58770 0.42283
 N175 N 0.81985 0.63932 0.40412
 N176 N 0.91237 0.43153 0.37040
 N177 N 0.89651 0.38191 0.32061
 N178 N 0.86129 0.43498 0.42249
 N179 N 0.81004 0.38692 0.41016
 N180 N 0.92284 0.58287 0.37305
 N181 N 0.91123 0.63108 0.32048
 Mn182 Mn 0.86447 0.51105 0.50304
 Mn183 Mn 0.99758 0.49975 0.37150
 Cl184 Cl 0.99751 0.49866 0.50245
 C185 C 0.84797 0.66769 0.34118
 C186 C 0.83265 0.35420 0.34647
 N187 N 0.63764 0.06294 0.58121
 N188 N 0.68499 0.11548 0.58948
 N189 N 0.57895 -0.08708 0.62940
 N190 N 0.59434 -0.13282 0.68331
 N191 N 0.63473 -0.08723 0.58209
 N192 N 0.69099 -0.13046 0.60497
 N193 N 0.58569 0.06480 0.63232
 N194 N 0.59478 0.12282 0.67959
 C195 C 0.65932 0.15423 0.64826
 C196 C 0.66392 -0.15979 0.66735
 N197 N 0.36442 -0.06607 0.58083
 N198 N 0.31185 -0.11280 0.59257
 N199 N 0.42681 0.07952 0.63369
 N200 N 0.41521 0.12742 0.68682
 N201 N 0.37450 0.08634 0.58301
 N202 N 0.32581 0.13902 0.60110
 N203 N 0.41631 -0.07194 0.63213
 N204 N 0.39948 -0.12176 0.68115
 Mn205 Mn 0.50201 -0.00417 0.63246
 C206 C 0.33437 -0.14717 0.65524
 C207 C 0.35323 0.16595 0.66503
 N208 N 0.63185 -0.08616 0.42065
 N209 N 0.68621 -0.13138 0.39786
 N210 N 0.58393 0.06779 0.37385
 N211 N 0.59690 0.11981 0.32691
 N212 N 0.63633 0.06361 0.42450
 N213 N 0.68678 0.11239 0.41338
 N214 N 0.57693 -0.08264 0.37201
 N215 N 0.59183 -0.12612 0.31618
 Mn216 Mn 0.63583 -0.01201 0.50204
 C217 C 0.65938 -0.15653 0.33328
 C218 C 0.66032 0.14792 0.35321
 N219 N 0.37299 0.08812 0.42296
 N220 N 0.32228 0.13890 0.40441
 N221 N 0.41450 -0.06894 0.36955
 N222 N 0.39752 -0.11813 0.31952
 N223 N 0.36321 -0.06456 0.42134
 N224 N 0.31089 -0.11158 0.40881
 N225 N 0.42532 0.08288 0.37239
 N226 N 0.41196 0.13006 0.31907
 Mn227 Mn 0.36787 0.01112 0.50211
 Mn228 Mn 0.50026 -0.00060 0.37141
 Cl229 Cl 0.50117 -0.00226 0.50204
 C230 C 0.34873 0.16656 0.34054
 C231 C 0.33280 -0.14471 0.34512
 N232 N 0.63673 0.56146 0.07806
 N233 N 0.68655 0.61105 0.08856
 N234 N 0.57672 0.41577 0.12894
 N235 N 0.59200 0.37254 0.18477
 N236 N 0.63104 0.41165 0.07987
 N237 N 0.68548 0.36643 0.10242
 N238 N 0.58414 0.56623 0.12828
 N239 N 0.59642 0.61933 0.17442
 C240 C 0.65965 0.64754 0.14800
 C241 C 0.65920 0.34180 0.16722
 N242 N 0.36393 0.43381 0.07928
 N243 N 0.31171 0.38667 0.09130
 N244 N 0.42546 0.58155 0.12945
 N245 N 0.41243 0.62923 0.18250
 N246 N 0.37309 0.58668 0.07879
 N247 N 0.32276 0.63798 0.09685
 N248 N 0.41496 0.42965 0.13139
 N249 N 0.39802 0.38044 0.18117
 Mn250 Mn 0.50043 0.49803 0.13004
 C251 C 0.33353 0.35363 0.15501
 C252 C 0.34941 0.66599 0.16066
 N253 N 0.63402 0.41232 -0.08200
 N254 N 0.69065 0.36999 -0.10571
 N255 N 0.58688 0.56651 -0.12951
 N256 N 0.59868 0.62082 -0.17459
 N257 N 0.63839 0.56175 -0.07785
 N258 N 0.69008 0.61559 -0.08525
 N259 N 0.57877 0.41406 -0.13027
 N260 N 0.59499 0.37014 -0.18563
 Mn261 Mn 0.63553 0.48633 -0.00038
 C262 C 0.66448 0.34275 -0.16965
 C263 C 0.66033 0.65301 -0.14815
 N264 N 0.37411 0.58570 -0.08073
 N265 N 0.32425 0.63756 -0.09800
 N266 N 0.41458 0.42953 -0.13362
 N267 N 0.39473 0.38208 -0.18454
 N268 N 0.36577 0.43243 -0.07949
 N269 N 0.31161 0.38160 -0.09133
 N270 N 0.42658 0.58082 -0.13127
 N271 N 0.41364 0.62907 -0.18370
 Mn272 Mn 0.36835 0.50975 -0.00074
 Mn273 Mn 0.50181 0.49737 -0.13199
 Cl274 Cl 0.50124 0.49699 -0.00094
 C275 C 0.35081 0.66590 -0.16136
 C276 C 0.33179 0.35248 -0.15735
   
