data_POSCAR
  _audit_creation_date              2014-09-24
  _audit_creation_method            'ToBaCCo'
  _symmetry_space_group_name_H-M    'P1'
  _symmetry_Int_Tables_number       1
  _symmetry_cell_setting            triclinic
  loop_
  _symmetry_equiv_pos_as_xyz
 x,y,z
_cell_length_a 53.8596
_cell_length_b 52.1076
_cell_length_c 52.4759
_cell_angle_alpha 90.337800
_cell_angle_beta 90.094600
_cell_angle_gamma 89.983000
loop_
  _atom_site_label
  _atom_site_type_symbol
  _atom_site_fract_x
  _atom_site_fract_y
  _atom_site_fract_z
C1 C 0.18324 1.21798 0.21250
 C2 C 0.17327 1.24060 0.20230
 C3 C 0.18393 1.25250 0.18072
 C4 C 0.20548 1.24113 0.17013
 C5 C 0.21538 1.21832 0.17994
 C6 C 0.20420 1.20667 0.20117
 C7 C 0.17215 1.20633 0.23367
 C8 C 0.18136 1.18304 0.24375
 C9 C 0.20241 1.17194 0.23188
 C10 C 0.21382 1.18357 0.21089
 C11 C 0.23442 1.17208 0.19909
 C12 C 0.24566 1.18348 0.17779
 C13 C 0.23617 1.20678 0.16855
 H14 H 0.15629 1.24785 0.21061
 H15 H 0.21516 1.25008 0.15448
 H16 H 0.15679 1.21621 0.24263
 H17 H 0.20955 1.15359 0.23804
 H18 H 0.24136 1.15393 0.20614
 H19 H 0.24488 1.21589 0.15234
 C20 C 0.81779 0.79276 0.21325
 C21 C 0.82824 0.77114 0.20135
 C22 C 0.81736 0.75998 0.17935
 C23 C 0.79554 0.77148 0.16958
 C24 C 0.78507 0.79327 0.18117
 C25 C 0.79616 0.80385 0.20316
 C26 C 0.82921 0.80383 0.23472
 C27 C 0.81934 0.82601 0.24663
 C28 C 0.79721 0.83648 0.23648
 C29 C 0.78578 0.82573 0.21487
 C30 C 0.76428 0.83684 0.20459
 C31 C 0.75333 0.82681 0.18227
 C32 C 0.76382 0.80485 0.17083
 H33 H 0.84560 0.76393 0.20885
 H34 H 0.78594 0.76319 0.15339
 H35 H 0.84659 0.79566 0.24113
 H36 H 0.78829 0.85273 0.24557
 H37 H 0.75617 0.85344 0.21391
 H38 H 0.75589 0.79714 0.15341
 C39 C 0.81921 1.20320 -0.20872
 C40 C 0.83100 1.22308 -0.19521
 C41 C 0.81972 1.23415 -0.17370
 C42 C 0.79663 1.22495 -0.16540
 C43 C 0.78486 1.20470 -0.17837
 C44 C 0.79607 1.19399 -0.20029
 C45 C 0.83047 1.19216 -0.23023
 C46 C 0.81896 1.17190 -0.24394
 C47 C 0.79553 1.16324 -0.23531
 C48 C 0.78429 1.17386 -0.21357
 C49 C 0.76156 1.16428 -0.20469
 C50 C 0.75072 1.17407 -0.18226
 C51 C 0.76238 1.19460 -0.16944
 H52 H 0.84883 1.23023 -0.20159
 H53 H 0.78810 1.23328 -0.14857
 H54 H 0.84881 1.19881 -0.23531
 H55 H 0.78541 1.14861 -0.24570
 H56 H 0.75249 1.14890 -0.21510
 H57 H 0.75445 1.20219 -0.15199
 C58 C 0.18168 0.78649 -0.21142
 C59 C 0.16827 0.76697 -0.19934
 C60 C 0.17770 0.75463 -0.17745
 C61 C 0.20088 0.76281 -0.16769
 C62 C 0.21416 0.78274 -0.17924
 C63 C 0.20475 0.79435 -0.20144
 C64 C 0.17219 0.79843 -0.23325
 C65 C 0.18552 0.81805 -0.24547
 C66 C 0.20868 0.82562 -0.23547
 C67 C 0.21823 0.81412 -0.21341
 C68 C 0.24075 0.82252 -0.20275
 C69 C 0.24961 0.81178 -0.18000
 C70 C 0.23643 0.79169 -0.16854
 H71 H 0.15093 0.76076 -0.20782
 H72 H 0.20819 0.75463 -0.15029
 H73 H 0.15409 0.79279 -0.24037
 H74 H 0.21930 0.84051 -0.24479
 H75 H 0.25087 0.83812 -0.21153
 H76 H 0.24343 0.78325 -0.15111
 C77 C 0.53283 1.03792 -0.01136
 H78 H 0.53302 1.03993 0.00918
 C79 C 0.54891 1.05260 -0.02617
 H80 H 0.56152 1.06589 -0.01691
 C81 C 0.51699 1.01714 -0.04825
 H82 H 0.50484 1.00295 -0.05672
 C83 C 0.53299 1.03119 -0.06376
 H84 H 0.53278 1.02797 -0.08417
 N85 N 0.51729 1.02064 -0.02255
 C86 C 0.46085 1.00652 0.03520
 H87 H 0.46224 0.98586 0.03658
 C88 C 0.44320 1.01974 0.04964
 H89 H 0.43135 1.00910 0.06244
 C90 C 0.47463 1.04532 0.01665
 H91 H 0.48648 1.05514 0.00329
 C92 C 0.45718 1.05931 0.03067
 H93 H 0.45584 1.07984 0.02792
 Zn94 Zn 0.49805 0.99952 -0.00108
 N95 N 0.47618 1.01940 0.01920
 C96 C 0.52075 0.98422 0.04539
 N97 N 0.52058 0.98104 0.01963
 C98 C 0.53755 0.96578 0.00780
 C99 C 0.55509 0.95226 0.02201
 C100 C 0.53825 0.97139 0.06031
 C101 C 0.45907 0.98819 -0.03391
 C102 C 0.44274 0.97321 -0.04833
 C103 C 0.46602 0.93559 -0.03616
 C104 C 0.48162 0.95128 -0.02156
 N105 N 0.47805 0.97712 -0.02091
 H106 H 0.50763 0.99703 0.05441
 H107 H 0.53750 0.96420 -0.01277
 H108 H 0.56850 0.94021 0.01230
 H109 H 0.53819 0.97409 0.08079
 H110 H 0.45642 1.00875 -0.03276
 H111 H 0.42737 0.98252 -0.05782
 H112 H 0.46963 0.91517 -0.03684
 H113 H 0.49649 0.94269 -0.01076
 C114 C 0.44105 1.04649 0.04735
 C115 C 0.54933 1.04906 -0.05270
 C116 C 0.44610 0.94647 -0.04973
 C117 C 0.55560 0.95508 0.04860
 C118 C -0.01249 0.54109 1.03531
 H119 H 0.00758 0.54201 1.03506
 C120 C -0.02599 0.55908 1.04935
 H121 H -0.01604 0.57340 1.06035
 C122 C -0.04958 0.52115 1.02112
 H123 H -0.05867 0.50662 1.00967
 C124 C -0.06386 0.53898 1.03469
 H125 H -0.08390 0.53797 1.03341
 N126 N -0.02438 0.52253 1.02169
 C127 C 0.03022 0.46197 1.01009
 H128 H 0.02846 0.45950 0.98968
 C129 C 0.04560 0.44565 1.02399
 H130 H 0.05533 0.43044 1.01403
 C131 C 0.01840 0.48400 1.04777
 H132 H 0.00745 0.49865 1.05706
 C133 C 0.03387 0.46836 1.06237
 H134 H 0.03503 0.47172 1.08271
 Zn135 Zn -0.00449 0.50056 1.00152
 N136 N 0.01698 0.48066 1.02208
 C137 C 0.03937 0.52303 0.98196
 N138 N 0.01423 0.52194 0.97980
 C139 C 0.00175 0.53780 0.96379
 C140 C 0.01462 0.55534 0.94877
 C141 C 0.05294 0.54068 0.96770
 C142 C -0.03622 0.45869 0.99620
 C143 C -0.05009 0.43980 0.98370
 C144 C -0.04023 0.45989 0.94363
 C145 C -0.02615 0.47811 0.95687
 N146 N -0.02453 0.47730 0.98271
 H147 H 0.04888 0.51081 0.99537
 H148 H -0.01830 0.53699 0.96289
 H149 H 0.00421 0.56734 0.93581
 H150 H 0.07282 0.54180 0.97053
 H151 H -0.03428 0.45824 1.01671
 H152 H -0.05847 0.42473 0.99488
 H153 H -0.04161 0.46131 0.92311
 H154 H -0.01636 0.49269 0.94637
 C155 C 0.04764 0.44868 1.05055
 C156 C -0.05207 0.55840 1.04895
 C157 C -0.05227 0.44016 0.95699
 C158 C 0.04060 0.55728 0.95083
 C159 C 1.03908 -0.00614 0.54177
 H160 H 1.03547 0.01404 0.54500
 C161 C 1.05381 -0.01976 0.55892
 H162 H 1.06116 -0.00985 0.57547
 C163 C 1.03252 -0.04365 0.51696
 H164 H 1.02393 -0.05300 0.50080
 C165 C 1.04745 -0.05793 0.53341
 H166 H 1.05054 -0.07804 0.52927
 N167 N 1.02871 -0.01820 0.52133
 C168 C 1.01438 0.03524 0.45985
 H169 H 0.99470 0.03208 0.45707
 C170 C 1.02759 0.05026 0.44262
 H171 H 1.01787 0.05837 0.42650
 C172 C 1.05101 0.02701 0.48348
 H173 H 1.06012 0.01761 0.49922
 C174 C 1.06491 0.04213 0.46687
 H175 H 1.08458 0.04457 0.47039
 Zn176 Zn 1.00746 0.00147 0.50031
 N177 N 1.02623 0.02383 0.47967
 C178 C 0.98296 0.04606 0.51936
 N179 N 0.98600 0.02029 0.52193
 C180 C 0.97448 0.00715 0.54081
 C181 C 0.95916 0.01992 0.55813
 C182 C 0.96760 0.05959 0.53617
 C183 C 1.00078 -0.03265 0.45931
 C184 C 0.98753 -0.04723 0.44150
 C185 C 0.94954 -0.03522 0.46290
 C186 C 0.96353 -0.02093 0.48033
 N187 N 0.98868 -0.01992 0.47827
 H188 H 0.99245 0.05617 0.50434
 H189 H 0.97751 -0.01329 0.54259
 H190 H 0.95069 0.00911 0.57337
 H191 H 0.96514 0.08003 0.53359
 H192 H 1.02076 -0.03115 0.45783
 H193 H 0.99754 -0.05732 0.42664
 H194 H 0.92951 -0.03523 0.46451
 H195 H 0.95418 -0.01020 0.49514
 C196 C 1.05329 0.05375 0.44587
 C197 C 1.05817 -0.04608 0.55493
 C198 C 0.96151 -0.04849 0.44304
 C199 C 0.95552 0.04653 0.55598
 C200 C 0.14840 0.31702 1.14653
 C201 C 0.16492 0.30183 1.13245
 C202 C 0.17684 0.28093 1.14368
 C203 C 0.17285 0.27468 1.16959
 C204 C 0.15678 0.29087 1.18375
 C205 C 0.14460 0.31150 1.17230
 C206 C 0.13438 0.33791 1.13404
 C207 C 0.10854 0.33953 1.13690
 C208 C 0.09501 0.35834 1.12407
 C209 C 0.10707 0.37624 1.10838
 C210 C 0.13308 0.37488 1.10602
 C211 C 0.14655 0.35577 1.11854
 C212 C 0.09248 0.39574 1.09405
 C213 C 0.09975 0.40332 1.06949
 C214 C 0.08555 0.42086 1.05565
 C215 C 0.06347 0.43102 1.06583
 C216 C 0.05634 0.42366 1.09050
 C217 C 0.07074 0.40643 1.10449
 H218 H 0.16788 0.30553 1.11239
 H219 H 0.18805 0.26904 1.13129
 H220 H 0.15382 0.28829 1.20393
 H221 H 0.13226 0.32331 1.18369
 H222 H 0.09871 0.32573 1.14849
 H223 H 0.07500 0.35837 1.12596
 H224 H 0.14309 0.38861 1.09456
 H225 H 0.16652 0.35502 1.11625
 H226 H 0.11617 0.39530 1.06063
 H227 H 0.09192 0.42638 1.03692
 H228 H 0.03932 0.43077 1.09891
 H229 H 0.06475 0.40145 1.12350
 C230 C -0.14799 0.69601 1.14266
 C231 C -0.16407 0.71204 1.12905
 C232 C -0.17565 0.73285 1.14106
 C233 C -0.17165 0.73820 1.16723
 C234 C -0.15593 0.72133 1.18082
 C235 C -0.14420 0.70073 1.16868
 C236 C -0.13452 0.67495 1.12957
 C237 C -0.10895 0.67161 1.13369
 C238 C -0.09593 0.65239 1.12074
 C239 C -0.10826 0.63593 1.10363
 C240 C -0.13392 0.63895 1.09982
 C241 C -0.14691 0.65842 1.11254
 C242 C -0.09420 0.61606 1.08943
 C243 C -0.10306 0.59077 1.08764
 C244 C -0.08942 0.57201 1.07459
 C245 C -0.06676 0.57824 1.06282
 C246 C -0.05819 0.60371 1.06435
 C247 C -0.07166 0.62234 1.07763
 H248 H -0.16702 0.70902 1.10883
 H249 H -0.18665 0.74534 1.12916
 H250 H -0.15302 0.72329 1.20112
 H251 H -0.13228 0.68827 1.17974
 H252 H -0.09893 0.68422 1.14655
 H253 H -0.07619 0.65033 1.12414
 H254 H -0.14381 0.62659 1.08661
 H255 H -0.16664 0.66052 1.10917
 H256 H -0.12030 0.58542 1.09678
 H257 H -0.09643 0.55255 1.07410
 H258 H -0.04118 0.60940 1.05500
 H259 H -0.06464 0.64180 1.07838
 C260 C -0.14344 0.29588 0.86595
 C261 C -0.16808 0.29867 0.85734
 C262 C -0.18018 0.27846 0.84483
 C263 C -0.16777 0.25524 0.84021
 C264 C -0.14324 0.25234 0.84868
 C265 C -0.13129 0.27232 0.86164
 C266 C -0.13041 0.31745 0.87915
 C267 C -0.10471 0.32105 0.87606
 C268 C -0.09240 0.34107 0.88859
 C269 C -0.10549 0.35842 0.90420
 C270 C -0.13125 0.35500 0.90709
 C271 C -0.14349 0.33468 0.89492
 C272 C -0.09229 0.37984 0.91747
 C273 C -0.09994 0.38835 0.94171
 C274 C -0.08731 0.40816 0.95428
 C275 C -0.06639 0.41974 0.94317
 C276 C -0.05879 0.41126 0.91890
 C277 C -0.07169 0.39179 0.90614
 H278 H -0.17793 0.31661 0.85982
 H279 H -0.19907 0.28115 0.83823
 H280 H -0.13344 0.23444 0.84553
 H281 H -0.11258 0.26914 0.86848
 H282 H -0.09401 0.30853 0.86375
 H283 H -0.07252 0.34271 0.88619
 H284 H -0.14208 0.36814 0.91861
 H285 H -0.16320 0.33238 0.89812
 H286 H -0.11548 0.37945 0.95126
 H287 H -0.09404 0.41440 0.97272
 H288 H -0.04257 0.41933 0.90982
 H289 H -0.06548 0.38618 0.88732
 C290 C 0.13713 0.69513 0.85883
 C291 C 0.12464 0.71490 0.84617
 C292 C 0.13793 0.73425 0.83392
 C293 C 0.16417 0.73471 0.83456
 C294 C 0.17649 0.71473 0.84760
 C295 C 0.16313 0.69507 0.85928
 C296 C 0.12301 0.67476 0.87182
 C297 C 0.12752 0.64884 0.86621
 C298 C 0.11394 0.62960 0.87835
 C299 C 0.09590 0.63590 0.89677
 C300 C 0.09173 0.66199 0.90251
 C301 C 0.10494 0.68119 0.88996
 C302 C 0.08157 0.61545 0.91002
 C303 C 0.05688 0.61975 0.91762
 C304 C 0.04368 0.60097 0.93079
 C305 C 0.05457 0.57708 0.93627
 C306 C 0.07909 0.57256 0.92818
 C307 C 0.09247 0.59155 0.91546
 H308 H 0.10454 0.71531 0.84569
 H309 H 0.12741 0.74944 0.82500
 H310 H 0.19654 0.71355 0.84802
 H311 H 0.17310 0.67991 0.86894
 H312 H 0.14127 0.64351 0.85210
 H313 H 0.11738 0.60984 0.87300
 H314 H 0.07850 0.66767 0.91697
 H315 H 0.10139 0.70111 0.89475
 H316 H 0.04760 0.63765 0.91339
 H317 H 0.02504 0.60547 0.93703
 H318 H 0.08804 0.55431 0.93163
 H319 H 0.11153 0.58757 0.91026
 C320 C 1.14616 0.14683 0.30698
 C321 C 1.13301 0.16408 0.29167
 C322 C 1.14446 0.17588 0.27095
 C323 C 1.16967 0.17106 0.26498
 C324 C 1.18275 0.15378 0.28083
 C325 C 1.17111 0.14178 0.30135
 C326 C 1.13371 0.13385 0.32851
 C327 C 1.13636 0.10729 0.33191
 C328 C 1.12391 0.09486 0.35164
 C329 C 1.10874 0.10876 0.36863
 C330 C 1.10648 0.13546 0.36541
 C331 C 1.11870 0.14782 0.34548
 C332 C 1.09496 0.09537 0.38923
 C333 C 1.07090 0.10324 0.39612
 C334 C 1.05762 0.09013 0.41483
 C335 C 1.06794 0.06862 0.42698
 C336 C 1.09213 0.06095 0.42031
 C337 C 1.10550 0.07423 0.40180
 H338 H 1.11356 0.16791 0.29532
 H339 H 1.13287 0.18786 0.25913
 H340 H 1.20231 0.14999 0.27825
 H341 H 1.18179 0.12884 0.31317
 H342 H 1.14759 0.09604 0.31888
 H343 H 1.12573 0.07424 0.35319
 H344 H 1.09537 0.14686 0.37840
 H345 H 1.11661 0.16838 0.34344
 H346 H 1.06204 0.11923 0.38667
 H347 H 1.03920 0.09684 0.41972
 H348 H 1.10059 0.04430 0.42899
 H349 H 1.12413 0.06786 0.39730
 C350 C 1.15228 -0.14373 0.69023
 C351 C 1.16697 -0.12994 0.70766
 C352 C 1.17798 -0.14235 0.72834
 C353 C 1.17483 -0.16892 0.73183
 C354 C 1.16068 -0.18277 0.71386
 C355 C 1.14937 -0.17028 0.69342
 C356 C 1.13931 -0.13031 0.66929
 C357 C 1.11393 -0.13460 0.66500
 C358 C 1.10136 -0.12134 0.64586
 C359 C 1.11397 -0.10374 0.63029
 C360 C 1.13952 -0.09977 0.63442
 C361 C 1.15201 -0.11277 0.65385
 C362 C 1.10037 -0.08929 0.61020
 C363 C 1.10660 -0.06370 0.60470
 C364 C 1.09329 -0.04989 0.58646
 C365 C 1.07316 -0.06117 0.57345
 C366 C 1.06710 -0.08684 0.57878
 C367 C 1.08063 -0.10075 0.59675
 H368 H 1.16926 -0.10939 0.70574
 H369 H 1.18837 -0.13097 0.74199
 H370 H 1.15830 -0.20332 0.71558
 H371 H 1.13837 -0.18136 0.68002
 H372 H 1.10367 -0.14778 0.67690
 H373 H 1.08161 -0.12451 0.64368
 H374 H 1.14997 -0.08676 0.62254
 H375 H 1.17165 -0.10933 0.65668
 H376 H 1.12146 -0.05409 0.61485
 H377 H 1.09880 -0.03033 0.58259
 H378 H 1.05154 -0.09612 0.56946
 H379 H 1.07554 -0.12054 0.60010
 C380 C 0.85837 -0.13804 0.30808
 C381 C 0.84212 -0.12386 0.29271
 C382 C 0.82900 -0.13567 0.27288
 C383 C 0.83170 -0.16219 0.26767
 C384 C 0.84767 -0.17637 0.28375
 C385 C 0.86077 -0.16448 0.30355
 C386 C 0.87326 -0.12517 0.32832
 C387 C 0.87735 -0.13711 0.35192
 C388 C 0.89180 -0.12514 0.37069
 C389 C 0.90248 -0.10096 0.36629
 C390 C 0.89825 -0.08897 0.34275
 C391 C 0.88386 -0.10095 0.32399
 C392 C 0.91799 -0.08821 0.38610
 C393 C 0.93947 -0.07460 0.37924
 C394 C 0.95370 -0.06199 0.39773
 C395 C 0.94686 -0.06275 0.42355
 C396 C 0.92557 -0.07666 0.43047
 C397 C 0.91129 -0.08924 0.41195
 H398 H 0.83964 -0.10347 0.29589
 H399 H 0.81777 -0.12340 0.26097
 H400 H 0.84978 -0.19691 0.28168
 H401 H 0.87318 -0.17598 0.31505
 H402 H 0.86924 -0.15566 0.35594
 H403 H 0.89488 -0.13498 0.38853
 H404 H 0.90592 -0.07020 0.33887
 H405 H 0.88134 -0.09137 0.30592
 H406 H 0.94533 -0.07372 0.35954
 H407 H 0.96981 -0.05121 0.39170
 H408 H 0.91994 -0.07786 0.45022
 H409 H 0.89474 -0.09938 0.41784
 C410 C 0.85579 0.13628 0.69296
 C411 C 0.86132 0.16166 0.70003
 C412 C 0.84902 0.17348 0.72038
 C413 C 0.83084 0.16025 0.73463
 C414 C 0.82522 0.13479 0.72705
 C415 C 0.83741 0.12312 0.70657
 C416 C 0.86950 0.12338 0.67186
 C417 C 0.87589 0.09727 0.67357
 C418 C 0.88902 0.08516 0.65397
 C419 C 0.89629 0.09891 0.63231
 C420 C 0.88999 0.12499 0.63052
 C421 C 0.87663 0.13707 0.65002
 C422 C 0.91077 0.08608 0.61189
 C423 C 0.93184 0.09794 0.60154
 C424 C 0.94620 0.08527 0.58320
 C425 C 0.93966 0.06053 0.57465
 C426 C 0.91819 0.04898 0.58461
 C427 C 0.90399 0.06156 0.60311
 H428 H 0.87546 0.17238 0.69004
 H429 H 0.85354 0.19333 0.72424
 H430 H 0.81223 0.12307 0.73748
 H431 H 0.83245 0.10362 0.70147
 H432 H 0.87119 0.08626 0.69031
 H433 H 0.89397 0.06513 0.65601
 H434 H 0.89516 0.13595 0.61388
 H435 H 0.87167 0.15707 0.64786
 H436 H 0.93763 0.11673 0.60819
 H437 H 0.96281 0.09459 0.57626
 H438 H 0.91230 0.03020 0.57808
 H439 H 0.88761 0.05215 0.61051
 C440 C 0.30599 1.14476 0.13957
 C441 C 0.30491 1.14554 0.16634
 C442 C 0.28553 1.15833 0.17876
 C443 C 0.26677 1.17062 0.16471
 C444 C 0.26802 1.17006 0.13796
 C445 C 0.28741 1.15734 0.12555
 C446 C 0.32613 1.13050 0.12629
 C447 C 0.32091 1.11595 0.10429
 C448 C 0.33972 1.10241 0.09180
 C449 C 0.36422 1.10298 0.10105
 C450 C 0.36948 1.11756 0.12304
 C451 C 0.35065 1.13116 0.13552
 C452 C 0.38413 1.08837 0.08779
 C453 C 0.40798 1.09888 0.08486
 C454 C 0.42651 1.08526 0.07193
 C455 C 0.42161 1.06081 0.06163
 C456 C 0.39780 1.05024 0.06472
 C457 C 0.37931 1.06383 0.07767
 H458 H 0.31880 1.13585 0.17770
 H459 H 0.28524 1.15864 0.19939
 H460 H 0.25373 1.17907 0.12656
 H461 H 0.28786 1.15739 0.10492
 H462 H 0.30218 1.11476 0.09685
 H463 H 0.33509 1.09164 0.07474
 H464 H 0.38811 1.11821 0.13079
 H465 H 0.35533 1.14239 0.15227
 H466 H 0.41223 1.11784 0.09222
 H467 H 0.44473 1.09384 0.07011
 H468 H 0.39329 1.03160 0.05676
 H469 H 0.36124 1.05503 0.07987
 C470 C 0.68641 1.13822 -0.14854
 C471 C 0.68942 1.16502 -0.14744
 C472 C 0.70990 1.17675 -0.15888
 C473 C 0.72800 1.16196 -0.17150
 C474 C 0.72474 1.13521 -0.17292
 C475 C 0.70416 1.12354 -0.16178
 C476 C 0.66530 1.12547 -0.13537
 C477 C 0.66868 1.10151 -0.12362
 C478 C 0.64902 1.08942 -0.11125
 C479 C 0.62557 1.10110 -0.11001
 C480 C 0.62212 1.12512 -0.12147
 C481 C 0.64174 1.13712 -0.13417
 C482 C 0.60497 1.08825 -0.09645
 C483 C 0.59044 1.10184 -0.07872
 C484 C 0.57209 1.08922 -0.06473
 C485 C 0.56771 1.06288 -0.06850
 C486 C 0.58178 1.04949 -0.08675
 C487 C 0.60032 1.06202 -0.10047
 H488 H 0.67628 1.17694 -0.13722
 H489 H 0.71159 1.19743 -0.15771
 H490 H 0.73843 1.12311 -0.18213
 H491 H 0.70224 1.10292 -0.16346
 H492 H 0.68666 1.09224 -0.12357
 H493 H 0.65227 1.07110 -0.10218
 H494 H 0.60415 1.13442 -0.12093
 H495 H 0.63835 1.15536 -0.14330
 H496 H 0.59377 1.12204 -0.07518
 H497 H 0.56139 1.09999 -0.05086
 H498 H 0.57894 1.02914 -0.08986
 H499 H 0.61116 1.05117 -0.11417
 C500 C 0.31331 0.84530 -0.14301
 C501 C 0.31470 0.83703 -0.16858
 C502 C 0.29406 0.82606 -0.18066
 C503 C 0.27179 0.82266 -0.16728
 C504 C 0.27043 0.83046 -0.14171
 C505 C 0.29085 0.84185 -0.12978
 C506 C 0.33484 0.85805 -0.13028
 C507 C 0.33900 0.85505 -0.10399
 C508 C 0.35808 0.86839 -0.09168
 C509 C 0.37394 0.88472 -0.10536
 C510 C 0.37035 0.88700 -0.13182
 C511 C 0.35095 0.87403 -0.14407
 C512 C 0.39349 0.89993 -0.09192
 C513 C 0.39970 0.92476 -0.10016
 C514 C 0.41717 0.93951 -0.08691
 C515 C 0.42860 0.93010 -0.06472
 C516 C 0.42264 0.90514 -0.05667
 C517 C 0.40552 0.89019 -0.07021
 H518 H 0.33175 0.83891 -0.17928
 H519 H 0.29551 0.82003 -0.20039
 H520 H 0.25329 0.82836 -0.13115
 H521 H 0.28875 0.84851 -0.11033
 H522 H 0.32738 0.84251 -0.09278
 H523 H 0.35995 0.86632 -0.07126
 H524 H 0.38244 0.89895 -0.14315
 H525 H 0.34825 0.87709 -0.16427
 H526 H 0.39066 0.93315 -0.11655
 H527 H 0.42160 0.95838 -0.09408
 H528 H 0.43075 0.89725 -0.03954
 H529 H 0.40166 0.87100 -0.06351
 C530 C 0.69139 0.86488 0.14604
 C531 C 0.69316 0.83794 0.14587
 C532 C 0.71290 0.82558 0.15803
 C533 C 0.73159 0.83983 0.17040
 C534 C 0.72970 0.86675 0.17074
 C535 C 0.70979 0.87908 0.15892
 C536 C 0.67078 0.87816 0.13246
 C537 C 0.67495 0.90175 0.12025
 C538 C 0.65572 0.91423 0.10743
 C539 C 0.63197 0.90323 0.10614
 C540 C 0.62772 0.87963 0.11812
 C541 C 0.64686 0.86732 0.13131
 C542 C 0.61183 0.91628 0.09204
 C543 C 0.59749 0.90273 0.07409
 C544 C 0.57917 0.91532 0.06000
 C545 C 0.57458 0.94159 0.06393
 C546 C 0.58860 0.95502 0.08223
 C547 C 0.60720 0.94253 0.09601
 H548 H 0.67954 0.82634 0.13591
 H549 H 0.71350 0.80481 0.15769
 H550 H 0.74388 0.87843 0.17972
 H551 H 0.70886 0.89981 0.15989
 H552 H 0.69320 0.91043 0.12017
 H553 H 0.65952 0.93225 0.09803
 H554 H 0.60948 0.87091 0.11757
 H555 H 0.64280 0.84944 0.14084
 H556 H 0.60084 0.88251 0.07060
 H557 H 0.56850 0.90455 0.04608
 H558 H 0.58551 0.97532 0.08547
 H559 H 0.61794 0.95334 0.10985
   
