data_POSCAR
  _audit_creation_date              2014-09-24
  _audit_creation_method            'ToBaCCo'
  _symmetry_space_group_name_H-M    'P1'
  _symmetry_Int_Tables_number       1
  _symmetry_cell_setting            triclinic
  loop_
  _symmetry_equiv_pos_as_xyz
 x,y,z
_cell_length_a 21.2168
_cell_length_b 21.2594
_cell_length_c 23.0286
_cell_angle_alpha 90.002100
_cell_angle_beta 89.992600
_cell_angle_gamma 89.999900
loop_
  _atom_site_label
  _atom_site_type_symbol
  _atom_site_fract_x
  _atom_site_fract_y
  _atom_site_fract_z
B1 B 0.27445 0.22082 0.19161
 B2 B 0.29180 0.29454 0.21181
 B3 B 0.21830 0.27677 0.19172
 B4 B 0.20107 0.20359 0.21522
 B5 B 0.26645 0.17685 0.25142
 B6 B 0.32334 0.23367 0.24816
 B7 B 0.22334 0.28153 0.30819
 B8 B 0.20554 0.20820 0.28798
 B9 B 0.27943 0.22550 0.30806
 B10 B 0.29660 0.29881 0.28457
 B11 B 0.23105 0.32556 0.24841
 B12 B 0.17432 0.26890 0.25158
 B13 B 0.71879 0.77564 0.30797
 B14 B 0.79268 0.79294 0.28752
 B15 B 0.77505 0.71974 0.30809
 B16 B 0.70158 0.70233 0.28482
 B17 B 0.67466 0.76742 0.24832
 B18 B 0.73165 0.82417 0.25130
 B19 B 0.77908 0.72395 0.19135
 B20 B 0.70575 0.70647 0.21204
 B21 B 0.72325 0.78022 0.19160
 B22 B 0.79677 0.79721 0.21471
 B23 B 0.82364 0.73198 0.25098
 B24 B 0.76684 0.67541 0.24843
 B25 B 0.72066 0.22229 -0.30926
 B26 B 0.79407 0.20477 -0.28880
 B27 B 0.77647 0.27844 -0.30918
 B28 B 0.70298 0.29546 -0.28578
 B29 B 0.67630 0.23011 -0.24952
 B30 B 0.73320 0.17363 -0.25238
 B31 B 0.78124 0.27388 -0.19278
 B32 B 0.70726 0.29100 -0.21296
 B33 B 0.72513 0.21774 -0.19265
 B34 B 0.79853 0.20060 -0.21607
 B35 B 0.82523 0.26575 -0.25256
 B36 B 0.76818 0.32243 -0.24943
 B37 B 0.28153 0.77505 -0.30740
 B38 B 0.20800 0.79234 -0.28712
 B39 B 0.22573 0.71861 -0.30720
 B40 B 0.29931 0.70197 -0.28387
 B41 B 0.32580 0.76747 -0.24765
 B42 B 0.26875 0.82379 -0.25062
 B43 B 0.22113 0.72359 -0.19080
 B44 B 0.29510 0.70655 -0.21112
 B45 B 0.27691 0.77976 -0.19082
 B46 B 0.20348 0.79673 -0.21433
 B47 B 0.17699 0.73137 -0.25057
 B48 B 0.23423 0.67488 -0.24734
 B49 B 1.21889 1.27560 0.80808
 B50 B 1.29254 1.29312 0.78822
 B51 B 1.27494 1.21950 0.80799
 B52 B 1.20166 1.20262 0.78414
 B53 B 1.17514 1.26821 0.74811
 B54 B 1.23200 1.32474 0.75179
 B55 B 1.28029 1.22511 0.69157
 B56 B 1.20653 1.20779 0.71145
 B57 B 1.22430 1.28128 0.69175
 B58 B 1.29754 1.29812 0.71554
 B59 B 1.32407 1.23259 0.75156
 B60 B 1.26713 1.17599 0.74792
 B61 B 0.77916 0.72540 0.80824
 B62 B 0.70563 0.70799 0.78814
 B63 B 0.72323 0.78164 0.80815
 B64 B 0.79648 0.79855 0.78452
 B65 B 0.82314 0.73318 0.74832
 B66 B 0.76638 0.67656 0.75155
 B67 B 0.71786 0.77635 0.69184
 B68 B 0.79166 0.79384 0.71181
 B69 B 0.77416 0.72049 0.69166
 B70 B 0.70087 0.70323 0.71542
 B71 B 0.67416 0.76856 0.75176
 B72 B 0.73101 0.82527 0.74825
 B73 B 1.22527 0.71752 0.30711
 B74 B 1.20770 0.79116 0.28722
 B75 B 1.28134 0.77379 0.30707
 B76 B 1.29854 0.70067 0.28336
 B77 B 1.23304 0.67393 0.24716
 B78 B 1.17614 0.73058 0.25073
 B79 B 1.27595 0.77882 0.19059
 B80 B 1.29364 0.70547 0.21069
 B81 B 1.21986 0.72290 0.19075
 B82 B 1.20271 0.79598 0.21449
 B83 B 1.26829 0.82268 0.25051
 B84 B 1.32509 0.76609 0.24708
 B85 B 0.78194 1.27466 0.19258
 B86 B 0.70809 1.29176 0.21247
 B87 B 0.72591 1.21838 0.19257
 B88 B 0.79925 1.20163 0.21629
 B89 B 0.82566 1.26712 0.25254
 B90 B 0.76859 1.32359 0.24900
 B91 B 0.72075 1.22370 0.30903
 B92 B 0.79436 1.20645 0.28896
 B93 B 0.77650 1.27999 0.30895
 B94 B 0.70319 1.29670 0.28519
 B95 B 0.67682 1.23113 0.24910
 B96 B 0.73382 1.17475 0.25253
 O97 O 0.58714 1.11277 0.10479
 O98 O 0.65788 1.05520 0.05101
 C99 C 0.64424 1.09689 0.09033
 O100 O 0.41179 0.88197 0.09781
 O101 O 0.34081 0.94550 0.05067
 C102 C 0.35461 0.89971 0.08581
 O103 O 0.58741 0.88792 0.10368
 O104 O 0.65821 0.94637 0.05090
 C105 C 0.64452 0.90388 0.08948
 O106 O 0.41095 1.11716 0.09955
 O107 O 0.34029 1.05487 0.05056
 C108 C 0.35382 1.09992 0.08661
 Zr109 Zr 0.49917 1.07960 0.07364
 O110 O 0.49680 1.07065 0.16502
 O111 O 0.50421 1.17884 0.07923
 Zr112 Zr 0.49934 0.92205 0.07393
 O113 O 0.49362 0.93066 0.16548
 O114 O 0.50181 0.82320 0.08374
 O115 O 0.55645 1.00092 0.08508
 O116 O 0.44351 1.00072 0.08437
 O117 O 0.41091 1.11600 -0.09964
 O118 O 0.34022 1.05439 -0.04998
 C119 C 0.35379 1.09894 -0.08652
 O120 O 0.58753 0.88867 -0.10346
 O121 O 0.65826 0.94652 -0.05008
 C122 C 0.64460 0.90450 -0.08909
 O123 O 0.41174 0.88413 -0.09923
 O124 O 0.34074 0.94565 -0.04988
 C125 C 0.35460 0.90084 -0.08608
 O126 O 0.58719 1.11297 -0.10360
 O127 O 0.65795 1.05487 -0.05041
 C128 C 0.64427 1.09686 -0.08944
 Zr129 Zr 0.49920 1.07965 -0.07267
 O130 O 0.49311 1.07617 -0.16444
 O131 O 0.50491 1.17900 -0.07525
 Zr132 Zr 0.49951 0.92159 -0.07258
 O133 O 0.49329 0.92505 -0.16435
 O134 O 0.50520 0.82229 -0.07505
 Zr135 Zr 0.59459 1.00072 0.00041
 Zr136 Zr 0.40405 1.00042 0.00043
 O137 O 0.44410 1.00046 -0.08331
 O138 O 0.55632 1.00069 -0.08418
 O139 O 0.44259 1.09203 0.00043
 O140 O 0.55423 0.91014 0.00065
 O141 O 0.55405 1.09126 0.00049
 O142 O 0.44314 0.90906 0.00062
 H143 H 0.41478 1.00053 0.11831
 H144 H 0.58179 0.87254 0.00040
 H145 H 0.41587 1.00028 -0.11758
 H146 H 0.58136 1.12907 0.00055
 H147 H 0.50946 0.80528 0.04481
 H148 H 0.47290 0.80611 -0.04793
 H149 H 0.53188 0.94580 -0.17901
 H150 H 0.53172 1.05542 -0.17905
 H151 H 0.47139 1.19568 -0.04968
 H152 H 0.47739 1.19598 0.04792
 H153 H 0.49580 1.11411 0.18053
 H154 H 0.53355 0.94959 0.17927
 O155 O 1.08789 0.61220 0.60464
 O156 O 1.15850 0.55446 0.55090
 C157 C 1.14499 0.59624 0.59019
 O158 O 0.91167 0.38306 0.59875
 O159 O 0.84077 0.44619 0.55107
 C160 C 0.85450 0.40055 0.58642
 O161 O 1.08726 0.38804 0.60447
 O162 O 1.15817 0.44593 0.55123
 C163 C 1.14438 0.40389 0.59016
 O164 O 0.91173 0.61768 0.59958
 O165 O 0.84089 0.55556 0.55056
 C166 C 0.85457 0.60049 0.58669
 Zr167 Zr 0.99971 0.57980 0.57329
 O168 O 0.99392 0.57738 0.66509
 O169 O 1.00510 0.67914 0.57443
 Zr170 Zr 0.99941 0.42214 0.57415
 O171 O 0.99744 0.43407 0.66524
 O172 O 1.00116 0.32335 0.58452
 O173 O 1.05664 0.50079 0.58511
 O174 O 0.94390 0.50101 0.58438
 O175 O 0.91203 0.61766 0.40152
 O176 O 0.84104 0.55509 0.44981
 C177 C 0.85484 0.60024 0.41394
 O178 O 1.08697 0.38762 0.39660
 O179 O 1.15795 0.44522 0.45002
 C180 C 1.14409 0.40329 0.41099
 O181 O 0.91115 0.38455 0.40086
 O182 O 0.84040 0.44601 0.45058
 C183 C 0.85404 0.40134 0.41418
 O184 O 1.08791 0.61182 0.39614
 O185 O 1.15854 0.55379 0.44953
 C186 C 1.14499 0.59567 0.41035
 Zr187 Zr 0.99977 0.57884 0.42697
 O188 O 0.99819 0.56770 0.33579
 O189 O 0.99933 0.67795 0.41804
 Zr190 Zr 0.99926 0.42106 0.42771
 O191 O 0.99389 0.42379 0.33590
 O192 O 1.00434 0.32156 0.42609
 Zr193 Zr 1.09485 0.50009 0.50049
 Zr194 Zr 0.90424 0.50058 0.50051
 O195 O 0.94397 0.50016 0.41668
 O196 O 1.05655 0.49979 0.41592
 O197 O 0.94333 0.59188 0.50007
 O198 O 1.05415 0.40970 0.50093
 O199 O 1.05483 0.59074 0.50012
 O200 O 0.94296 0.40907 0.50098
 H201 H 0.91538 0.50108 0.61846
 H202 H 1.08150 0.37193 0.50094
 H203 H 0.91560 0.50022 0.38250
 H204 H 1.08302 0.62785 0.50029
 H205 H 1.00594 0.30523 0.54530
 H206 H 0.97122 0.30528 0.45237
 H207 H 1.02983 0.44924 0.32177
 H208 H 0.99653 0.61075 0.31940
 H209 H 1.02304 0.69565 0.45114
 H210 H 0.97678 0.69452 0.54341
 H211 H 1.02966 0.55178 0.67938
 H212 H 0.99556 0.39117 0.68193
 O213 O 0.88759 0.41178 -0.10491
 O214 O 0.94580 0.34143 -0.05142
 C215 C 0.90376 0.35484 -0.09054
 O216 O 1.11650 0.58825 -0.09929
 O217 O 1.05357 0.65879 -0.05096
 C218 C 1.09910 0.64523 -0.08656
 O219 O 1.11258 0.41255 -0.10406
 O220 O 1.05416 0.34186 -0.05118
 C221 C 1.09651 0.35557 -0.08989
 O222 O 0.88252 0.58784 -0.10037
 O223 O 0.94451 0.65852 -0.05111
 C224 C 0.89965 0.64487 -0.08738
 Zr225 Zr 0.92023 0.49993 -0.07395
 O226 O 0.92395 0.50623 -0.16570
 O227 O 0.82075 0.49411 -0.07669
 Zr228 Zr 1.07858 0.50040 -0.07374
 O229 O 1.07360 0.50684 -0.16545
 O230 O 1.17805 0.49468 -0.07833
 O231 O 0.99963 0.44330 -0.08540
 O232 O 0.99929 0.55541 -0.08450
 O233 O 0.88082 0.58741 0.09741
 O234 O 0.94389 0.65827 0.04954
 C235 C 0.89840 0.64449 0.08514
 O236 O 1.11174 0.41301 0.10371
 O237 O 1.05437 0.34218 0.04995
 C238 C 1.09620 0.35601 0.08915
 O239 O 1.11523 0.58838 0.09904
 O240 O 1.05340 0.65894 0.04955
 C241 C 1.09828 0.64535 0.08582
 O242 O 0.88692 0.41196 0.10294
 O243 O 0.94536 0.34157 0.04970
 C244 C 0.90326 0.35502 0.08877
 Zr245 Zr 0.92028 0.49993 0.07248
 O246 O 0.93203 0.50140 0.16360
 O247 O 0.82109 0.49891 0.08197
 Zr248 Zr 1.07804 0.50047 0.07273
 O249 O 1.06819 0.50226 0.16405
 O250 O 1.17745 0.49579 0.07890
 Zr251 Zr 0.99967 0.40514 -0.00077
 Zr252 Zr 0.99904 0.59525 -0.00070
 O253 O 0.99891 0.55590 0.08319
 O254 O 0.99933 0.44316 0.08391
 O255 O 0.90752 0.55616 -0.00077
 O256 O 1.09023 0.44586 -0.00047
 O257 O 0.90879 0.44508 -0.00078
 O258 O 1.09079 0.55678 -0.00048
 H259 H 0.99934 0.58379 -0.11863
 H260 H 1.12830 0.41886 -0.00030
 H261 H 0.99863 0.58442 0.11724
 H262 H 0.87136 0.41724 -0.00099
 H263 H 1.19519 0.52305 -0.04822
 H264 H 1.19475 0.52449 0.04913
 H265 H 1.11157 0.50369 0.17991
 H266 H 0.88899 0.50350 0.18019
 H267 H 0.80324 0.48485 0.04456
 H268 H 0.80448 0.52458 -0.04792
 H269 H 0.94512 0.46789 -0.18030
 H270 H 1.05563 0.46695 -0.18016
 O271 O 0.61121 0.91211 0.60332
 O272 O 0.55296 0.84160 0.55005
 C273 C 0.59514 0.85516 0.58902
 O274 O 0.38332 1.08885 0.59919
 O275 O 0.44523 1.15920 0.54947
 C276 C 0.40052 1.14580 0.58598
 O277 O 0.38644 0.91299 0.60364
 O278 O 0.44405 0.84222 0.54999
 C279 C 0.40225 0.85597 0.58924
 O280 O 0.61750 1.08720 0.59774
 O281 O 0.55468 1.15823 0.54986
 C282 C 0.60019 1.14429 0.58537
 Zr283 Zr 0.57780 0.99995 0.57293
 O284 O 0.56541 1.00134 0.66399
 O285 O 0.67693 0.99946 0.58299
 Zr286 Zr 0.42002 1.00062 0.57257
 O287 O 0.42890 1.00238 0.66397
 O288 O 0.32053 0.99608 0.57758
 O289 O 0.49869 0.94327 0.58409
 O290 O 0.49921 1.05598 0.58333
 O291 O 0.61659 1.08761 0.40024
 O292 O 0.55454 1.15845 0.44924
 C293 C 0.59961 1.14466 0.41323
 O294 O 0.38697 0.91271 0.39495
 O295 O 0.44457 0.84203 0.44866
 C296 C 0.40285 0.85570 0.40935
 O297 O 0.38309 1.08864 0.39990
 O298 O 0.44551 1.15904 0.44899
 C299 C 0.40049 1.14562 0.41282
 O300 O 0.61116 0.91216 0.39526
 O301 O 0.55316 0.84167 0.44883
 C302 C 0.59529 0.85521 0.40979
 Zr303 Zr 0.57850 0.99999 0.42651
 O304 O 0.57544 1.00555 0.33472
 O305 O 0.67806 0.99449 0.42474
 Zr306 Zr 0.42026 1.00049 0.42617
 O307 O 0.42914 1.00274 0.33478
 O308 O 0.32078 0.99561 0.42076
 Zr309 Zr 0.49886 0.90519 0.49943
 Zr310 Zr 0.49957 1.09535 0.49945
 O311 O 0.49956 1.05559 0.41565
 O312 O 0.49915 0.94339 0.41491
 O313 O 0.59095 1.05614 0.49973
 O314 O 0.40829 0.94586 0.49935
 O315 O 0.58967 0.94512 0.49969
 O316 O 0.40777 1.05699 0.49933
 H317 H 0.49949 1.08446 0.61740
 H318 H 0.37029 0.91876 0.49926
 H319 H 0.49981 1.08385 0.38144
 H320 H 0.62705 0.91724 0.49947
 H321 H 0.30369 1.02631 0.54889
 H322 H 0.30365 1.02351 0.45126
 H323 H 0.38558 1.00369 0.31929
 H324 H 0.54875 0.97050 0.32073
 H325 H 0.69394 1.02351 0.45496
 H326 H 0.69496 0.98083 0.54738
 H327 H 0.60832 1.00356 0.68082
 H328 H 0.38535 1.00371 0.67946
 O329 O 1.12918 0.90776 0.58108
 O330 O 1.06199 0.95478 0.64574
 C331 C 1.10978 0.91982 0.63340
 O332 O 1.09119 1.12657 0.41866
 O333 O 1.04461 1.05915 0.35396
 C334 C 1.07945 1.10704 0.36634
 O335 O 1.09837 1.11993 0.58110
 O336 O 1.04727 1.05619 0.64603
 C337 C 1.08557 1.10123 0.63348
 O338 O 1.12344 0.90156 0.41816
 O339 O 1.05889 0.95197 0.35353
 C340 C 1.10433 0.91416 0.36588
 Zr341 Zr 1.09090 0.93177 0.49969
 O342 O 1.18934 0.94621 0.49300
 O343 O 1.10741 0.83377 0.50590
 Zr344 Zr 1.06678 1.08843 0.49971
 O345 O 1.16402 1.10989 0.49463
 O346 O 1.04384 1.18513 0.50231
 O347 O 1.09162 1.01188 0.55129
 O348 O 1.09073 1.01177 0.44926
 O349 O 0.91003 0.87036 0.41830
 O350 O 0.95656 0.93786 0.35360
 C351 C 0.92167 0.89004 0.36599
 O352 O 0.87127 1.08701 0.58107
 O353 O 0.93959 1.04150 0.64575
 C354 C 0.89119 1.07572 0.63334
 O355 O 0.87745 1.09433 0.41869
 O356 O 0.94191 1.04403 0.35371
 C357 C 0.89645 1.08183 0.36633
 O358 O 0.90446 0.87544 0.58140
 O359 O 0.95508 0.93976 0.64613
 C360 C 0.91709 0.89451 0.63370
 Zr361 Zr 0.93407 0.90835 0.49977
 O362 O 0.83566 0.89282 0.49364
 O363 O 0.94744 0.81003 0.50583
 Zr364 Zr 0.91110 1.06505 0.49998
 O365 O 0.81193 1.05755 0.49504
 O366 O 0.90489 1.16428 0.50255
 Zr367 Zr 1.00086 0.99808 0.58647
 Zr368 Zr 1.00066 0.99811 0.41309
 O369 O 0.91057 0.98507 0.44951
 O370 O 0.90995 0.98478 0.55153
 O371 O 1.01425 0.90739 0.44797
 O372 O 0.98740 1.08821 0.55104
 O373 O 1.01421 0.90814 0.55018
 O374 O 0.98711 1.08886 0.44771
 H375 H 1.12769 1.01700 0.42338
 H376 H 0.98227 1.12462 0.57751
 H377 H 0.87341 0.97999 0.42385
 H378 H 1.01945 0.87129 0.57610
 H379 H 1.08454 1.20795 0.50371
 H380 H 0.85930 1.17438 0.50289
 H381 H 0.80016 1.01998 0.51782
 H382 H 0.81537 0.91467 0.52665
 H383 H 0.97575 0.79773 0.47369
 H384 H 1.08243 0.81307 0.47509
 H385 H 1.20214 0.97251 0.52637
 H386 H 1.18642 1.07822 0.51832
 O387 O 0.41313 0.62846 -0.08117
 O388 O 0.45826 0.56013 -0.14596
 C389 C 0.42414 0.60853 -0.13347
 O390 O 0.63108 0.58770 0.08119
 O391 O 0.56301 0.54171 0.14583
 C392 C 0.61122 0.57615 0.13345
 O393 O 0.62548 0.59394 -0.08158
 O394 O 0.56052 0.54407 -0.14635
 C395 C 0.60613 0.58168 -0.13387
 O396 O 0.40646 0.62256 0.08121
 O397 O 0.45592 0.55759 0.14610
 C398 C 0.41853 0.60332 0.13352
 Zr399 Zr 0.43586 0.58909 -0.00015
 O400 O 0.44929 0.68735 0.00621
 O401 O 0.33748 0.60460 -0.00673
 Zr402 Zr 0.59245 0.56400 -0.00002
 O403 O 0.61203 0.66152 0.00567
 O404 O 0.68972 0.54321 -0.00254
 O405 O 0.51616 0.58915 -0.05182
 O406 O 0.51590 0.58844 0.05037
 O407 O 0.37178 0.40999 0.08100
 O408 O 0.43967 0.45584 0.14572
 C409 C 0.39140 0.42153 0.13331
 O410 O 0.59120 0.36966 -0.08139
 O411 O 0.54462 0.43713 -0.14604
 C412 C 0.57932 0.38914 -0.13371
 O413 O 0.59779 0.37595 0.08147
 O414 O 0.54684 0.44002 0.14623
 C415 C 0.58484 0.39477 0.13382
 O416 O 0.37804 0.40333 -0.08167
 O417 O 0.44287 0.45321 -0.14649
 C418 C 0.39718 0.41569 -0.13399
 Zr419 Zr 0.41086 0.43305 -0.00013
 O420 O 0.39436 0.33504 0.00636
 O421 O 0.31244 0.44747 -0.00687
 Zr422 Zr 0.56730 0.40813 -0.00007
 O423 O 0.55200 0.31002 0.00650
 O424 O 0.66544 0.39111 -0.00514
 Zr425 Zr 0.50163 0.49864 -0.08684
 Zr426 Zr 0.50145 0.49871 0.08664
 O427 O 0.48728 0.40882 0.05050
 O428 O 0.48719 0.40802 -0.05192
 O429 O 0.41070 0.51307 0.05167
 O430 O 0.59165 0.48437 -0.05078
 O431 O 0.41158 0.51286 -0.05073
 O432 O 0.59216 0.48425 0.05182
 H433 H 0.52151 0.62533 0.07618
 H434 H 0.62848 0.47885 -0.07678
 H435 H 0.48179 0.37215 0.07659
 H436 H 0.37482 0.51842 -0.07678
 H437 H 0.71175 0.58432 -0.00256
 H438 H 0.68639 0.42266 0.01987
 H439 H 0.52439 0.29783 -0.02617
 H440 H 0.41776 0.31435 -0.02550
 H441 H 0.30024 0.47670 0.02457
 H442 H 0.31705 0.58300 0.02633
 H443 H 0.48214 0.69848 -0.02240
 H444 H 0.58727 0.68290 -0.02489
 C445 C 0.30904 1.19120 0.13658
 C446 C 0.30168 1.13197 0.11775
 H447 H 0.35047 1.21620 0.12182
 H448 H 0.26104 1.10463 0.13093
 C449 C 0.80824 0.69172 0.63598
 C450 C 0.80248 0.63186 0.61840
 H451 H 0.84750 0.71870 0.61913
 H452 H 0.76341 0.60339 0.63341
 C453 C 0.68923 0.81118 0.13696
 C454 C 0.69642 0.87126 0.12026
 H455 H 0.64823 0.78650 0.12086
 H456 H 0.73667 0.89844 0.13467
 C457 C 1.19102 0.31153 0.63653
 C458 C 1.19629 0.37225 0.62149
 H459 H 1.15238 0.28486 0.61811
 H460 H 1.23465 0.40066 0.63807
 C461 C 0.69155 1.18836 -0.13710
 C462 C 0.69629 1.12777 -0.12138
 H463 H 0.65339 1.21577 -0.11874
 H464 H 0.73431 1.09882 -0.13783
 C465 C 1.19119 0.68716 0.36208
 C466 C 1.19712 0.62697 0.37870
 H467 H 1.15115 0.71294 0.37884
 H468 H 1.23642 0.59881 0.36371
 C469 C 0.31011 0.80890 -0.13509
 C470 C 0.30296 0.86860 -0.11743
 H471 H 0.34980 0.78253 -0.11823
 H472 H 0.26336 0.89635 -0.13242
 C473 C 0.81031 0.30989 0.36414
 C474 C 0.80220 0.36902 0.38298
 H475 H 0.85176 0.28511 0.37921
 H476 H 0.76145 0.39606 0.36960
 C477 C 1.18850 0.30995 0.13631
 C478 C 1.12788 0.30431 0.12064
 H479 H 1.21542 0.34854 0.11815
 H480 H 1.09943 0.26586 0.13692
 C481 C 0.68726 0.81008 0.63697
 C482 C 0.62710 0.80330 0.62021
 H483 H 0.71254 0.85055 0.62053
 H484 H 0.59941 0.76357 0.63491
 C485 C 1.19126 0.68942 -0.13576
 C486 C 1.13176 0.69710 -0.11736
 H487 H 1.21618 0.64812 -0.12073
 H488 H 1.10462 0.73771 -0.13084
 C489 C 0.69165 1.19009 0.36463
 C490 C 0.63164 1.19643 0.38192
 H491 H 0.71832 1.15068 0.38155
 H492 H 0.60352 1.23569 0.36681
 C493 C 0.80727 0.68992 0.13549
 C494 C 0.86686 0.69627 0.11700
 H495 H 0.78020 0.65050 0.11914
 H496 H 0.89521 0.73562 0.13151
 C497 C 0.30958 1.19093 0.63623
 C498 C 0.36899 1.19786 0.61751
 H499 H 0.28384 1.15025 0.62083
 H500 H 0.39687 1.23789 0.63118
 C501 C 0.81180 0.30836 -0.13813
 C502 C 0.87224 0.30266 -0.12181
 H503 H 0.78616 0.34853 -0.12161
 H504 H 0.90039 0.26331 -0.13663
 C505 C 0.31112 0.80764 0.36237
 C506 C 0.37206 0.80363 0.37743
 H507 H 0.28361 0.84553 0.38099
 H508 H 0.40128 0.76601 0.36066
 C509 C 1.16505 1.16928 0.33112
 C510 C 1.11179 1.13917 0.31878
 H511 H 1.18126 1.17079 0.37564
 H512 H 1.09456 1.13550 0.27463
 C513 C 0.66630 0.66831 -0.16887
 C514 C 0.63687 0.61496 -0.18138
 H515 H 0.66738 0.68470 -0.12441
 H516 H 0.63384 0.59747 -0.22548
 C517 C 0.83366 1.16407 0.66870
 C518 C 0.85923 1.10844 0.68066
 H519 H 0.83597 1.18172 0.62471
 H520 H 0.85948 1.08949 0.72432
 C521 C 0.33349 0.66636 0.16777
 C522 C 0.38536 0.63451 0.18085
 H523 H 0.31809 0.66915 0.12305
 H524 H 0.40164 0.62987 0.22524
 C525 C 1.16864 0.83253 0.66969
 C526 C 1.14172 0.88760 0.68113
 H527 H 1.16773 0.81502 0.62562
 H528 H 1.14034 0.90652 0.72480
 C529 C 0.66845 0.33034 0.16897
 C530 C 0.61746 0.36367 0.18157
 H531 H 0.68350 0.32613 0.12424
 H532 H 0.60148 0.36956 0.22593
 C533 C 0.83328 0.83248 0.33021
 C534 C 0.88889 0.85834 0.31849
 H535 H 0.81554 0.83449 0.37420
 H536 H 0.90795 0.85884 0.27485
 C537 C 0.33145 0.33271 -0.16849
 C538 C 0.36576 0.38295 -0.18152
 H539 H 0.32675 0.31823 -0.12364
 H540 H 0.37211 0.39825 -0.22601
 C541 C 1.18891 0.30879 -0.13652
 C542 C 1.12808 0.30371 -0.12132
 H543 H 1.21588 0.34717 -0.11808
 H544 H 1.09945 0.26556 -0.13793
 C545 C 0.68793 0.80968 0.36265
 C546 C 0.62749 0.80326 0.37885
 H547 H 0.71315 0.85011 0.37919
 H548 H 0.59981 0.76359 0.36401
 C549 C 0.80809 0.69141 -0.13614
 C550 C 0.86824 0.69687 -0.11903
 H551 H 0.78092 0.65248 -0.11897
 H552 H 0.89687 0.73565 -0.13435
 C553 C 0.30915 1.19080 0.36298
 C554 C 0.36865 1.19773 0.38154
 H555 H 0.28381 1.14973 0.37799
 H556 H 0.39629 1.23803 0.36816
 C557 C 1.19000 0.68907 0.13561
 C558 C 1.13071 0.69711 0.11689
 H559 H 1.21491 0.64775 0.12051
 H560 H 1.10360 0.73775 0.13031
 C561 C 0.69201 1.18876 0.63498
 C562 C 0.63240 1.19585 0.61681
 H563 H 0.71859 1.14905 0.61852
 H564 H 0.60454 1.23549 0.63144
 C565 C 0.81199 0.30894 0.13763
 C566 C 0.87207 0.30291 0.12043
 H567 H 0.78614 0.34913 0.12136
 H568 H 0.90030 0.26347 0.13492
 C569 C 0.31070 0.80876 0.63707
 C570 C 0.37132 0.80404 0.62115
 H571 H 0.28319 0.84695 0.61895
 H572 H 0.40035 0.76600 0.63738
 C573 C 0.30913 1.18988 -0.13683
 C574 C 0.30179 1.13063 -0.11809
 H575 H 0.35015 1.21522 -0.12154
 H576 H 0.26146 1.10307 -0.13166
 C577 C 0.80919 0.69129 0.36382
 C578 C 0.80295 0.63169 0.38205
 H579 H 0.84865 0.71825 0.38031
 H580 H 0.76359 0.60338 0.36741
 C581 C 0.69224 1.18853 0.13720
 C582 C 0.69641 1.12772 0.12217
 H583 H 0.65423 1.21588 0.11852
 H584 H 0.73414 1.09863 0.13898
 C585 C 1.19127 0.68793 0.63815
 C586 C 1.19722 0.62771 0.62160
 H587 H 1.15086 0.71333 0.62173
 H588 H 1.23677 0.59971 0.63629
 C589 C 0.68956 0.81234 -0.13696
 C590 C 0.69649 0.87242 -0.12028
 H591 H 0.64898 0.78722 -0.12045
 H592 H 0.73634 0.89995 -0.13506
 C593 C 1.19020 0.31119 0.36371
 C594 C 1.19588 0.37168 0.37946
 H595 H 1.15153 0.28434 0.38187
 H596 H 1.23440 0.40008 0.36317
 C597 C 0.30948 0.80784 0.13485
 C598 C 0.30281 0.86758 0.11719
 H599 H 0.34911 0.78133 0.11808
 H600 H 0.26332 0.89552 0.13217
 C601 C 0.81067 0.30849 0.63584
 C602 C 0.80265 0.36776 0.61727
 H603 H 0.85232 0.28395 0.62098
 H604 H 0.76175 0.39462 0.63059
 C605 C 1.16682 1.16928 0.66797
 C606 C 1.11829 1.13260 0.68108
 H607 H 1.18023 1.17578 0.62301
 H608 H 1.10416 1.12461 0.72568
 C609 C 0.66581 0.66587 0.16967
 C610 C 0.64286 0.60896 0.18087
 H611 H 0.66129 0.68451 0.12619
 H612 H 0.64463 0.58878 0.22404
 C613 C 1.16880 0.83056 0.33071
 C614 C 1.13539 0.88147 0.31811
 H615 H 1.17297 0.81555 0.37545
 H616 H 1.12953 0.89742 0.27376
 C617 C 0.66666 0.33004 -0.16981
 C618 C 0.61162 0.35714 -0.18140
 H619 H 0.68407 0.33080 -0.12568
 H620 H 0.59291 0.35876 -0.22514
 C621 C 0.83363 1.16686 0.33192
 C622 C 0.86530 1.11491 0.31895
 H623 H 0.83093 1.18236 0.37660
 H624 H 0.86973 1.09844 0.27461
 C625 C 0.33619 0.66748 -0.16844
 C626 C 0.39123 0.64057 -0.18073
 H627 H 0.31906 0.66632 -0.12421
 H628 H 0.40947 0.63919 -0.22465
 C629 C 0.83128 0.83305 0.66873
 C630 C 0.88399 0.86369 0.68129
 H631 H 0.81523 0.83102 0.62418
 H632 H 0.90110 0.86754 0.72548
 C633 C 0.33071 0.33514 0.16872
 C634 C 0.35914 0.38929 0.18082
 H635 H 0.33045 0.31838 0.12437
 H636 H 0.36170 0.40720 0.22480
   
