data_POSCAR
  _audit_creation_date              2014-09-24
  _audit_creation_method            'ToBaCCo'
  _symmetry_space_group_name_H-M    'P1'
  _symmetry_Int_Tables_number       1
  _symmetry_cell_setting            triclinic
  loop_
  _symmetry_equiv_pos_as_xyz
 x,y,z
_cell_length_a 14.6428
_cell_length_b 14.6446
_cell_length_c 25.0297
_cell_angle_alpha 81.866300
_cell_angle_beta 97.784300
_cell_angle_gamma 82.813100
loop_
  _atom_site_label
  _atom_site_type_symbol
  _atom_site_fract_x
  _atom_site_fract_y
  _atom_site_fract_z
O1 O 0.05591 0.55969 1.06037
 O2 O 0.07754 0.40276 0.95983
 O3 O 0.08067 0.58145 0.95986
 O4 O 0.04966 0.38501 1.06130
 O5 O -0.10215 0.41193 1.03338
 O6 O -0.07128 0.61244 0.93384
 O7 O -0.07403 0.43200 0.93169
 O8 O -0.09670 0.58724 1.03536
 Cu9 Cu 0.08117 0.47893 1.01256
 Cu10 Cu -0.10133 0.51370 0.98032
 C11 C -0.02363 0.59991 1.06547
 C12 C 0.00600 0.38946 0.92884
 C13 C 0.00996 0.63283 0.93069
 C14 C -0.03154 0.36549 1.06519
 O15 O 0.57241 0.07198 0.43207
 O16 O 0.41537 0.09496 0.53519
 O17 O 0.59081 0.10020 0.53347
 O18 O 0.39163 0.07049 0.43359
 O19 O 0.42106 -0.08170 0.46039
 O20 O 0.61755 -0.05187 0.56131
 O21 O 0.44285 -0.05771 0.56084
 O22 O 0.59983 -0.07978 0.45994
 Cu23 Cu 0.48982 0.09971 0.48031
 Cu24 Cu 0.52356 -0.08300 0.51287
 C25 C 0.61441 -0.00824 0.42903
 C26 C 0.40251 0.02192 0.56561
 C27 C 0.63704 0.02929 0.56523
 C28 C 0.37082 -0.01060 0.43090
 C29 C -0.04306 -0.13507 0.21750
 C30 C -0.12089 -0.13041 0.25274
 C31 C -0.12464 -0.05671 0.28066
 C32 C -0.04918 0.00593 0.27081
 C33 C -0.05832 -0.04000 0.18111
 C34 C -0.06110 0.03336 0.20851
 C35 C 0.04553 -0.13544 0.25837
 C36 C 0.04340 -0.06153 0.28597
 H37 H -0.16696 -0.18242 0.25671
 H38 H -0.05258 0.06629 0.29309
 H39 H -0.06027 -0.03173 0.13721
 H40 H 0.10483 -0.18991 0.26493
 C41 C 0.13581 0.04187 0.71744
 C42 C 0.13613 -0.04629 0.75903
 C43 C 0.06182 -0.04386 0.78650
 C44 C -0.00582 0.04852 0.77065
 C45 C 0.04114 0.05632 0.68105
 C46 C -0.03252 0.05940 0.70840
 C47 C 0.13031 0.12047 0.75187
 C48 C 0.05638 0.12448 0.77983
 H49 H 0.19073 -0.10556 0.76619
 H50 H -0.06644 0.05183 0.79288
 H51 H 0.03338 0.05753 0.63724
 H52 H 0.18199 0.16692 0.75520
 C53 C 0.05117 -0.30548 0.12898
 C54 C -0.02968 -0.33705 0.10636
 C55 C -0.11515 -0.30557 0.12199
 C56 C -0.11935 -0.24357 0.15967
 C57 C -0.03799 -0.21247 0.18289
 C58 C 0.04683 -0.24288 0.16581
 H59 H 0.11782 -0.32671 0.11681
 H60 H -0.17885 -0.32786 0.10459
 H61 H -0.18685 -0.21781 0.16908
 H62 H 0.11004 -0.21601 0.17925
 C63 C 0.03128 0.24520 0.14764
 C64 C -0.04344 0.28716 0.10662
 C65 C -0.12810 0.25085 0.10419
 C66 C -0.13599 0.17103 0.14010
 C67 C -0.06011 0.12755 0.17959
 C68 C 0.02291 0.16600 0.18384
 H69 H 0.09727 0.27173 0.15065
 H70 H -0.18685 0.28163 0.07306
 H71 H -0.19994 0.14086 0.13567
 H72 H 0.08318 0.13137 0.21273
 C73 C 0.30605 0.11396 0.62100
 C74 C 0.33910 0.02812 0.60650
 C75 C 0.30870 -0.05299 0.63022
 C76 C 0.24570 -0.04855 0.66701
 C77 C 0.21365 0.03673 0.68291
 C78 C 0.24360 0.11831 0.65859
 H79 H 0.32740 0.17785 0.60275
 H80 H 0.33117 -0.12000 0.61896
 H81 H 0.21982 -0.11210 0.68130
 H82 H 0.21658 0.18603 0.66709
 C83 C -0.24176 -0.03480 0.64686
 C84 C -0.28494 0.04087 0.60663
 C85 C -0.25025 0.12636 0.60499
 C86 C -0.17093 0.13436 0.64092
 C87 C -0.12630 0.05768 0.67961
 C88 C -0.16300 -0.02637 0.68303
 H89 H -0.26697 -0.10147 0.64923
 H90 H -0.28198 0.18587 0.57448
 H91 H -0.14203 0.19913 0.63710
 H92 H -0.12737 -0.08718 0.71127
 C93 C 0.11192 -0.26459 0.89179
 C94 C 0.02200 -0.28690 0.89571
 C95 C -0.05512 -0.22553 0.86507
 C96 C -0.04240 -0.14504 0.83109
 C97 C 0.04758 -0.12462 0.82612
 C98 C 0.12443 -0.18474 0.85754
 H99 H 0.17326 -0.30891 0.91511
 H100 H -0.12558 -0.23937 0.86730
 H101 H -0.10321 -0.10016 0.80784
 H102 H 0.19471 -0.17006 0.85592
 C103 C -0.06026 0.29758 0.85864
 C104 C 0.01721 0.32276 0.88990
 C105 C 0.10693 0.28147 0.88485
 C106 C 0.11916 0.21711 0.84941
 C107 C 0.04204 0.19205 0.81797
 C108 C -0.04791 0.23247 0.82316
 H109 H -0.13031 0.32783 0.86177
 H110 H 0.16819 0.29860 0.90850
 H111 H 0.18934 0.18593 0.84727
 H112 H -0.10860 0.21496 0.79916
 C113 C -0.27777 -0.10833 0.38824
 C114 C -0.32199 -0.01881 0.39205
 C115 C -0.29946 0.05876 0.35887
 C116 C -0.23444 0.04679 0.32315
 C117 C -0.19162 -0.04283 0.31928
 C118 C -0.21383 -0.12006 0.35234
 H119 H -0.29231 -0.17005 0.41307
 H120 H -0.33157 0.12883 0.36060
 H121 H -0.21896 0.10748 0.29784
 H122 H -0.18076 -0.18992 0.35101
 C123 C 0.22395 0.05460 0.36514
 C124 C 0.28646 -0.02282 0.39413
 C125 C 0.26589 -0.11270 0.38928
 C126 C 0.18597 -0.12501 0.35540
 C127 C 0.12440 -0.04778 0.32528
 C128 C 0.14350 0.04223 0.33136
 H129 H 0.23712 0.12484 0.36856
 H130 H 0.31168 -0.17391 0.41167
 H131 H 0.17240 -0.19543 0.35313
 H132 H 0.09762 0.10336 0.30921
   
