data_POSCAR
  _audit_creation_date              2014-09-24
  _audit_creation_method            'ToBaCCo'
  _symmetry_space_group_name_H-M    'P1'
  _symmetry_Int_Tables_number       1
  _symmetry_cell_setting            triclinic
  loop_
  _symmetry_equiv_pos_as_xyz
 x,y,z
_cell_length_a 34.5489
_cell_length_b 34.9035
_cell_length_c 34.8240
_cell_angle_alpha 89.999700
_cell_angle_beta 90.000000
_cell_angle_gamma 90.000000
loop_
  _atom_site_label
  _atom_site_type_symbol
  _atom_site_fract_x
  _atom_site_fract_y
  _atom_site_fract_z
N1 N 0.30928 0.31906 1.30502
 N2 N 1.18180 0.69192 0.82193
 N3 N 0.68180 -0.19190 0.17811
 N4 N -0.19072 1.18096 -0.30498
 N5 N 0.68180 0.69193 0.67810
 N6 N 0.80928 0.31906 0.19501
 N7 N 0.30928 0.18096 0.80502
 N8 N 0.18181 0.80810 0.32193
 Zn9 Zn 0.00335 1.05546 -0.00617
 Zn10 Zn -0.02816 0.97617 -0.01869
 Zn11 Zn 0.05109 0.98807 0.01468
 Zn12 Zn -0.01809 1.00768 0.06099
 O13 O 0.00192 1.00674 0.01258
 O14 O -0.02473 1.06031 -0.04866
 O15 O -0.00153 0.93601 -0.03819
 O16 O 0.08657 1.02031 -0.00426
 O17 O -0.04787 1.00213 -0.05913
 O18 O 0.05096 1.07058 -0.01960
 O19 O 0.05627 0.94547 -0.01261
 O20 O 0.01413 0.98873 0.09654
 O21 O -0.06905 0.95596 0.00642
 O22 O 0.06606 0.97526 0.06211
 O23 O -0.06104 0.97983 0.06473
 O24 O -0.03124 1.05473 0.07657
 O25 O -0.01527 1.09048 0.02668
 C26 C -0.04464 1.03718 -0.06864
 C27 C 0.03352 0.92595 -0.03343
 C28 C 0.08346 1.05367 -0.01842
 C29 C 0.04835 0.97576 0.09402
 C30 C -0.07997 0.95946 0.04112
 C31 C -0.02933 1.08715 0.06019
 Zn32 Zn 0.55108 -0.01193 0.48535
 Zn33 Zn 0.47184 -0.02383 0.51873
 Zn34 Zn 0.50335 0.05546 0.50620
 Zn35 Zn 0.48190 0.00768 0.43905
 O36 O 0.50191 0.00674 0.48745
 O37 O 0.55626 -0.05453 0.51265
 O38 O 0.45213 0.00214 0.55916
 O39 O 0.55096 0.07059 0.51963
 O40 O 0.49846 -0.06398 0.53823
 O41 O 0.58657 0.02032 0.50430
 O42 O 0.47526 0.06031 0.54869
 O43 O 0.46876 0.05473 0.42347
 O44 O 0.43094 -0.04404 0.49362
 O45 O 0.48472 0.09048 0.47336
 O46 O 0.43895 -0.02016 0.43531
 O47 O 0.51412 -0.01126 0.40349
 O48 O 0.56605 -0.02473 0.43792
 C49 C 0.53352 -0.07405 0.53346
 C50 C 0.45536 0.03718 0.56868
 C51 C 0.58345 0.05367 0.51846
 C52 C 0.47067 0.08716 0.43984
 C53 C 0.42003 -0.04054 0.45892
 C54 C 0.54834 -0.02423 0.40601
 Zn55 Zn 1.00335 0.44456 0.49383
 Zn56 Zn 1.05108 0.51195 0.51468
 Zn57 Zn 0.97184 0.52385 0.48130
 Zn58 Zn 0.98190 0.49234 0.56098
 O59 O 1.00191 0.49328 0.51258
 O60 O 1.05096 0.42944 0.48040
 O61 O 1.05627 0.55455 0.48739
 O62 O 0.95213 0.49788 0.44087
 O63 O 1.08657 0.47971 0.49573
 O64 O 0.97526 0.43971 0.45134
 O65 O 0.99846 0.56400 0.46180
 O66 O 0.93895 0.52019 0.56473
 O67 O 1.06605 0.52476 0.56211
 O68 O 0.93094 0.54406 0.50642
 O69 O 1.01412 0.51129 0.59654
 O70 O 0.96876 0.44529 0.57657
 O71 O 0.98472 0.40954 0.52667
 C72 C 1.08345 0.44635 0.48158
 C73 C 1.03352 0.57407 0.46657
 C74 C 0.95536 0.46284 0.43135
 C75 C 0.92003 0.54056 0.54112
 C76 C 1.04834 0.52426 0.59402
 C77 C 0.97067 0.41287 0.56019
 Zn78 Zn 0.48191 0.49235 0.93905
 Zn79 Zn 0.55109 0.51196 0.98535
 Zn80 Zn 0.47185 0.52385 1.01873
 Zn81 Zn 0.50335 0.44457 1.00620
 O82 O 0.50192 0.49329 0.98745
 O83 O 0.51413 0.51129 0.90349
 O84 O 0.55627 0.55455 1.01264
 O85 O 0.43095 0.54407 0.99361
 O86 O 0.56606 0.52476 0.93792
 O87 O 0.43896 0.52019 0.93530
 O88 O 0.49847 0.56401 1.03823
 O89 O 0.47527 0.43972 1.04869
 O90 O 0.58658 0.47971 1.00430
 O91 O 0.45213 0.49789 1.05916
 O92 O 0.55096 0.42944 1.01963
 O93 O 0.48473 0.40954 0.97336
 O94 O 0.46876 0.44530 0.92347
 C95 C 0.54835 0.52426 0.90601
 C96 C 0.53352 0.57407 1.03346
 C97 C 0.42003 0.54057 0.95891
 C98 C 0.45536 0.46285 1.06868
 C99 C 0.58346 0.44636 1.01846
 C100 C 0.47067 0.41287 0.93984
 C101 C 1.18421 0.43157 0.44105
 C102 C 1.18032 0.39567 0.42359
 C103 C 1.14574 0.37518 0.42756
 C104 C 1.11470 0.39100 0.44782
 C105 C 1.28462 0.33701 0.33078
 C106 C 1.15320 0.44746 0.46139
 C107 C 1.21071 0.38067 0.39966
 C108 C 1.23509 0.36770 0.37858
 C109 C 1.26237 0.35170 0.35304
 C110 C 1.11782 0.42765 0.46436
 H111 H 1.21083 0.44771 0.43809
 H112 H 1.14240 0.34737 0.41412
 H113 H 1.08791 0.37498 0.44953
 H114 H 1.15654 0.47576 0.47370
 C115 C 0.33958 0.57420 0.89332
 C116 C 0.31980 0.60014 0.91675
 C117 C 0.33217 0.60613 0.95460
 C118 C 0.36453 0.58642 0.96877
 C119 C 0.20848 0.67366 0.84541
 C120 C 0.37181 0.55462 0.90730
 C121 C 0.28775 0.62121 0.90087
 C122 C 0.26177 0.63825 0.88530
 C123 C 0.23248 0.65757 0.86472
 C124 C 0.38489 0.56065 0.94510
 H125 H 0.33032 0.56938 0.86397
 H126 H 0.31710 0.62626 0.97296
 H127 H 0.37387 0.59170 0.99797
 H128 H 0.38666 0.53495 0.88830
 C129 C -0.16783 0.89390 0.04544
 C130 C -0.18020 0.89988 0.08328
 C131 C -0.16042 0.92583 0.10672
 C132 C -0.12819 0.94540 0.09273
 C133 C -0.29152 0.82636 0.15462
 C134 C -0.13548 0.91361 0.03126
 C135 C -0.21225 0.87882 0.09916
 C136 C -0.23823 0.86177 0.11473
 C137 C -0.26752 0.84245 0.13531
 C138 C -0.11512 0.93937 0.05493
 H139 H -0.18290 0.87377 0.02707
 H140 H -0.16968 0.93064 0.13606
 H141 H -0.11334 0.96507 0.11174
 H142 H -0.12613 0.90832 0.00206
 C143 C 0.68421 0.06845 0.55899
 C144 C 0.68032 0.10436 0.57644
 C145 C 0.64574 0.12485 0.57247
 C146 C 0.61470 0.10903 0.55222
 C147 C 0.78462 0.16301 0.66925
 C148 C 0.65320 0.05256 0.53864
 C149 C 0.71071 0.11935 0.60038
 C150 C 0.73509 0.13233 0.62145
 C151 C 0.76237 0.14833 0.64699
 C152 C 0.61782 0.07237 0.53567
 H153 H 0.71084 0.05231 0.56194
 H154 H 0.64239 0.15265 0.58591
 H155 H 0.58791 0.12504 0.55051
 H156 H 0.65654 0.02426 0.52633
 C157 C 0.43550 0.18844 0.42111
 C158 C 0.41898 0.18453 0.38462
 C159 C 0.42126 0.14942 0.36539
 C160 C 0.43912 0.11803 0.38289
 C161 C 0.33412 0.29285 0.32203
 C162 C 0.45345 0.15707 0.43869
 C163 C 0.39764 0.21569 0.36773
 C164 C 0.37861 0.24090 0.35348
 C165 C 0.35511 0.26939 0.33662
 C166 C 0.45493 0.12133 0.41999
 H167 H 0.43378 0.21547 0.43631
 H168 H 0.40846 0.14604 0.33718
 H169 H 0.43977 0.09098 0.36768
 H170 H 0.46528 0.16056 0.46727
 C171 C 0.93550 0.31159 0.57893
 C172 C 0.91898 0.31549 0.61541
 C173 C 0.92126 0.35061 0.63465
 C174 C 0.93913 0.38199 0.61715
 C175 C 0.83412 0.20718 0.67801
 C176 C 0.95345 0.34296 0.56135
 C177 C 0.89764 0.28433 0.63231
 C178 C 0.87861 0.25912 0.64656
 C179 C 0.85511 0.23063 0.66341
 C180 C 0.95493 0.37870 0.58004
 H181 H 0.93378 0.28456 0.56373
 H182 H 0.90846 0.35398 0.66285
 H183 H 0.93977 0.40905 0.63235
 H184 H 0.96528 0.33946 0.53277
 C185 C 0.10230 0.84662 -0.06206
 C186 C 0.08031 0.82609 -0.08870
 C187 C 0.04234 0.83763 -0.09690
 C188 C 0.02661 0.86991 -0.07867
 C189 C 0.15753 0.71732 -0.15913
 C190 C 0.08679 0.87876 -0.04398
 C191 C 0.09797 0.79434 -0.10841
 C192 C 0.11505 0.76884 -0.12447
 C193 C 0.13720 0.74038 -0.14306
 C194 C 0.04887 0.89101 -0.05222
 H195 H 0.13174 0.83804 -0.05558
 H196 H 0.02511 0.82200 -0.11764
 H197 H -0.00265 0.87861 -0.08561
 H198 H 0.10473 0.89417 -0.02369
 C199 C 0.60230 0.65340 1.06210
 C200 C 0.58031 0.67393 1.08873
 C201 C 0.54234 0.66239 1.09694
 C202 C 0.52661 0.63011 1.07870
 C203 C 0.65753 0.78270 1.15917
 C204 C 0.58679 0.62126 1.04402
 C205 C 0.59798 0.70568 1.10845
 C206 C 0.61505 0.73118 1.12450
 C207 C 0.63720 0.75964 1.14309
 C208 C 0.54887 0.60901 1.05226
 H209 H 0.63174 0.66198 1.05561
 H210 H 0.52511 0.67802 1.11767
 H211 H 0.49735 0.62141 1.08565
 H212 H 0.60473 0.60586 1.02372
 C213 C 0.39201 0.45633 1.15787
 C214 C 0.39788 0.41806 1.16856
 C215 C 0.42285 0.39499 1.14707
 C216 C 0.44162 0.40979 1.11488
 C217 C 0.32723 0.34344 1.27907
 C218 C 0.41092 0.47133 1.12555
 C219 C 0.37773 0.40139 1.20067
 C220 C 0.36143 0.38506 1.22655
 C221 C 0.34286 0.36355 1.25553
 C222 C 0.43577 0.44807 1.10355
 H223 H 0.37262 0.47443 1.17427
 H224 H 0.42756 0.36533 1.15499
 H225 H 0.46060 0.39105 1.09876
 H226 H 0.40582 0.50088 1.11757
 C227 C 0.56347 -0.06365 0.30565
 C228 C 0.60063 -0.07926 0.30882
 C229 C 0.62161 -0.07463 0.34287
 C230 C 0.60513 -0.05547 0.37405
 C231 C 0.66305 -0.16736 0.20329
 C232 C 0.54690 -0.04439 0.33681
 C233 C 0.61660 -0.10194 0.27817
 C234 C 0.63048 -0.12193 0.25355
 C235 C 0.64755 -0.14618 0.22592
 C236 C 0.56731 -0.04069 0.37162
 H237 H 0.54695 -0.06714 0.27943
 H238 H 0.65039 -0.08666 0.34565
 H239 H 0.62163 -0.05314 0.40038
 H240 H 0.51772 -0.03341 0.33402
 C241 C -0.07715 1.10503 -0.14703
 C242 C -0.10212 1.08196 -0.16853
 C243 C -0.10799 1.04369 -0.15784
 C244 C -0.08908 1.02870 -0.12551
 C245 C -0.17277 1.15658 -0.27903
 C246 C -0.05838 1.09024 -0.11485
 C247 C -0.12227 1.09864 -0.20063
 C248 C -0.13857 1.11497 -0.22651
 C249 C -0.15714 1.13647 -0.25550
 C250 C -0.06423 1.05196 -0.10351
 H251 H -0.07244 1.13469 -0.15496
 H252 H -0.12738 1.02559 -0.17423
 H253 H -0.09418 0.99914 -0.11754
 H254 H -0.03940 1.10897 -0.09872
 C255 C 1.06347 0.56367 0.69439
 C256 C 1.10063 0.57929 0.69121
 C257 C 1.12161 0.57466 0.65717
 C258 C 1.10513 0.55549 0.62598
 C259 C 1.16305 0.66738 0.79674
 C260 C 1.04690 0.54441 0.66322
 C261 C 1.11660 0.60197 0.72186
 C262 C 1.13048 0.62195 0.74648
 C263 C 1.14755 0.64621 0.77411
 C264 C 1.06731 0.54071 0.62841
 H265 H 1.04695 0.56717 0.72060
 H266 H 1.15039 0.58669 0.65439
 H267 H 1.12164 0.55316 0.59965
 H268 H 1.01772 0.53344 0.66602
 C269 C 0.83957 0.57420 0.60671
 C270 C 0.81979 0.60014 0.58327
 C271 C 0.83216 0.60613 0.54543
 C272 C 0.86452 0.58642 0.53126
 C273 C 0.70848 0.67366 0.65462
 C274 C 0.87180 0.55462 0.59272
 C275 C 0.78775 0.62121 0.59915
 C276 C 0.76177 0.63825 0.61472
 C277 C 0.73248 0.65758 0.63530
 C278 C 0.88488 0.56065 0.55492
 H279 H 0.83032 0.56938 0.63605
 H280 H 0.81710 0.62625 0.52706
 H281 H 0.87387 0.59170 0.50205
 H282 H 0.88666 0.53495 0.61173
 C283 C 0.68422 0.43157 1.05898
 C284 C 0.68032 0.39567 1.07643
 C285 C 0.64574 0.37518 1.07246
 C286 C 0.61470 0.39100 1.05221
 C287 C 0.78463 0.33701 1.16924
 C288 C 0.65321 0.44747 1.03864
 C289 C 0.71072 0.38067 1.10037
 C290 C 0.73509 0.36770 1.12144
 C291 C 0.76238 0.35169 1.14698
 C292 C 0.61782 0.42765 1.03567
 H293 H 0.71084 0.44771 1.06194
 H294 H 0.64240 0.34737 1.08590
 H295 H 0.58791 0.37498 1.05050
 H296 H 0.65654 0.47577 1.02633
 C297 C 0.18422 1.06845 -0.05895
 C298 C 0.18032 1.10435 -0.07640
 C299 C 0.14574 1.12484 -0.07243
 C300 C 0.11470 1.10902 -0.05218
 C301 C 0.28463 1.16301 -0.16921
 C302 C 0.15321 1.05256 -0.03861
 C303 C 0.21072 1.11935 -0.10034
 C304 C 0.23509 1.13233 -0.12141
 C305 C 0.26238 1.14833 -0.14695
 C306 C 0.11782 1.07237 -0.03564
 H307 H 0.21084 1.05231 -0.06191
 H308 H 0.14240 1.15265 -0.08587
 H309 H 0.08791 1.12504 -0.05047
 H310 H 0.15654 1.02426 -0.02630
 C311 C 0.33957 -0.07417 0.39333
 C312 C 0.31979 -0.10012 0.41676
 C313 C 0.33216 -0.10610 0.45461
 C314 C 0.36452 -0.08639 0.46878
 C315 C 0.20848 -0.17364 0.34542
 C316 C 0.37180 -0.05460 0.40731
 C317 C 0.28775 -0.12119 0.40089
 C318 C 0.26177 -0.13823 0.38531
 C319 C 0.23248 -0.15755 0.36473
 C320 C 0.38488 -0.06062 0.44511
 H321 H 0.33032 -0.06936 0.36398
 H322 H 0.31710 -0.12623 0.47297
 H323 H 0.37387 -0.09167 0.49798
 H324 H 0.38666 -0.03492 0.38830
 C325 C 0.54234 -0.16236 0.59694
 C326 C 0.58031 -0.17390 0.58874
 C327 C 0.60230 -0.15337 0.56210
 C328 C 0.58679 -0.12124 0.54402
 C329 C 0.65754 -0.28268 0.65916
 C330 C 0.52661 -0.13009 0.57871
 C331 C 0.59797 -0.20565 0.60845
 C332 C 0.61505 -0.23115 0.62450
 C333 C 0.63720 -0.25962 0.64309
 C334 C 0.54886 -0.10898 0.55226
 H335 H 0.52511 -0.17800 0.61768
 H336 H 0.63173 -0.16195 0.55561
 H337 H 0.60473 -0.10583 0.52373
 H338 H 0.49735 -0.12139 0.58565
 C339 C 1.04234 0.66239 0.40309
 C340 C 1.08031 0.67393 0.41130
 C341 C 1.10230 0.65340 0.43794
 C342 C 1.08679 0.62126 0.45601
 C343 C 1.15754 0.78270 0.34087
 C344 C 1.02661 0.63011 0.42133
 C345 C 1.09798 0.70567 0.39159
 C346 C 1.11505 0.73118 0.37553
 C347 C 1.13720 0.75964 0.35694
 C348 C 1.04886 0.60900 0.44777
 H349 H 1.02511 0.67802 0.38236
 H350 H 1.13174 0.66197 0.44442
 H351 H 1.10473 0.60585 0.47631
 H352 H 0.99735 0.62141 0.41438
 C353 C -0.07873 1.14941 0.13465
 C354 C -0.08102 1.18453 0.11541
 C355 C -0.06449 1.18843 0.07893
 C356 C -0.04654 1.15707 0.06135
 C357 C -0.16587 1.29285 0.17800
 C358 C -0.06087 1.11803 0.11715
 C359 C -0.10235 1.21569 0.13230
 C360 C -0.12138 1.24090 0.14655
 C361 C -0.14488 1.26939 0.16341
 C362 C -0.04506 1.12132 0.08004
 H363 H -0.09153 1.14604 0.16285
 H364 H -0.06621 1.21546 0.06373
 H365 H -0.03470 1.16056 0.03277
 H366 H -0.06023 1.09097 0.13235
 C367 C 0.43551 0.31159 0.92110
 C368 C 0.41898 0.31549 0.88462
 C369 C 0.42127 0.35061 0.86539
 C370 C 0.43913 0.38199 0.88289
 C371 C 0.33412 0.20718 0.82203
 C372 C 0.45346 0.34296 0.93868
 C373 C 0.39765 0.28433 0.86773
 C374 C 0.37862 0.25912 0.85348
 C375 C 0.35512 0.23064 0.83663
 C376 C 0.45494 0.37870 0.91999
 H377 H 0.43379 0.28456 0.93631
 H378 H 0.40847 0.35398 0.83718
 H379 H 0.43977 0.40905 0.86768
 H380 H 0.46529 0.33946 0.96727
 C381 C 0.62162 0.57466 0.84287
 C382 C 0.60064 0.57929 0.80882
 C383 C 0.56347 0.56367 0.80564
 C384 C 0.54691 0.54441 0.83681
 C385 C 0.66305 0.66738 0.70329
 C386 C 0.60513 0.55550 0.87405
 C387 C 0.61661 0.60197 0.77817
 C388 C 0.63049 0.62195 0.75355
 C389 C 0.64756 0.64621 0.72592
 C390 C 0.56732 0.54071 0.87162
 H391 H 0.65040 0.58669 0.84565
 H392 H 0.54696 0.56716 0.77943
 H393 H 0.51773 0.53344 0.83401
 H394 H 0.62164 0.55316 0.90038
 C395 C 0.42285 0.10503 0.64707
 C396 C 0.39789 0.08196 0.66857
 C397 C 0.39201 0.04369 0.65788
 C398 C 0.41093 0.02870 0.62555
 C399 C 0.32724 0.15658 0.77907
 C400 C 0.44162 0.09024 0.61489
 C401 C 0.37773 0.09864 0.70067
 C402 C 0.36143 0.11497 0.72655
 C403 C 0.34286 0.13648 0.75554
 C404 C 0.43577 0.05196 0.60355
 H405 H 0.42755 0.13470 0.65500
 H406 H 0.37263 0.02560 0.67427
 H407 H 0.40582 -0.00086 0.61758
 H408 H 0.46059 0.10897 0.59876
 C409 C 0.06347 0.93636 0.19439
 C410 C 0.10064 0.92074 0.19121
 C411 C 0.12162 0.92536 0.15717
 C412 C 0.10513 0.94453 0.12598
 C413 C 0.16305 0.83264 0.29674
 C414 C 0.04691 0.95561 0.16322
 C415 C 0.11661 0.89806 0.22186
 C416 C 0.13049 0.87807 0.24649
 C417 C 0.14756 0.85382 0.27412
 C418 C 0.06732 0.95931 0.12842
 H419 H 0.04696 0.93286 0.22060
 H420 H 0.15040 0.91333 0.15439
 H421 H 0.12164 0.94686 0.09965
 H422 H 0.01773 0.96659 0.16602
 C423 C 0.89201 0.45633 0.34215
 C424 C 0.89789 0.41806 0.33147
 C425 C 0.92285 0.39499 0.35296
 C426 C 0.94162 0.40978 0.38515
 C427 C 0.82724 0.34344 0.22096
 C428 C 0.91093 0.47132 0.37448
 C429 C 0.87773 0.40138 0.29936
 C430 C 0.86143 0.38506 0.27348
 C431 C 0.84286 0.36355 0.24450
 C432 C 0.93577 0.44806 0.39648
 H433 H 0.87263 0.47443 0.32576
 H434 H 0.92755 0.36532 0.34504
 H435 H 0.96059 0.39105 0.40128
 H436 H 0.90582 0.50088 0.38245
   
