data_POSCAR
  _audit_creation_date              2014-09-24
  _audit_creation_method            'ToBaCCo'
  _symmetry_space_group_name_H-M    'P1'
  _symmetry_Int_Tables_number       1
  _symmetry_cell_setting            triclinic
  loop_
  _symmetry_equiv_pos_as_xyz
 x,y,z
_cell_length_a 27.2179
_cell_length_b 27.1342
_cell_length_c 27.1866
_cell_angle_alpha 90.094900
_cell_angle_beta 89.877200
_cell_angle_gamma 90.013900
loop_
  _atom_site_label
  _atom_site_type_symbol
  _atom_site_fract_x
  _atom_site_fract_y
  _atom_site_fract_z
C1 C 0.16476 0.16487 0.22538
 N2 N 0.20657 0.14508 0.20629
 C3 C 0.22859 0.16543 0.16624
 N4 N 0.20839 0.20608 0.14532
 C5 C 0.16725 0.22685 0.16457
 N6 N 0.14546 0.20594 0.20439
 C7 C -0.15929 0.84261 0.22232
 N8 N -0.14031 0.80078 0.20233
 C9 C -0.16039 0.78072 0.16125
 N10 N -0.20051 0.80211 0.14082
 C11 C -0.22048 0.84346 0.16075
 N12 N -0.19981 0.86335 0.20171
 C13 C -0.16386 0.15970 -0.22416
 N14 N -0.14470 0.20118 -0.20355
 C15 C -0.16647 0.22233 -0.16378
 N16 N -0.20684 0.20096 -0.14378
 C17 C -0.22626 0.15934 -0.16360
 N18 N -0.20515 0.13947 -0.20442
 C19 C 0.16379 0.83889 -0.22313
 N20 N 0.20547 0.85790 -0.20331
 C21 C 0.22560 0.83758 -0.16233
 N22 N 0.20344 0.79798 -0.14122
 C23 C 0.16207 0.77834 -0.16105
 N24 N 0.14259 0.79881 -0.20211
 C25 C 0.16395 1.16278 0.77593
 N26 N 0.20464 1.14318 0.79722
 C27 C 0.22301 1.16268 0.83939
 N28 N 0.20071 1.20239 0.86004
 C29 C 0.15966 1.22203 0.83963
 N30 N 0.14138 1.20188 0.79767
 C31 C 0.83174 0.83327 0.76664
 N32 N 0.85322 0.79329 0.78763
 C33 C 0.83392 0.77270 0.82888
 N34 N 0.79360 0.79335 0.85011
 C35 C 0.77162 0.83317 0.82939
 N36 N 0.79118 0.85322 0.78802
 C37 C 0.16488 0.83210 1.22883
 N38 N 0.20441 0.85306 1.20646
 C39 C 0.22314 0.83357 1.16434
 N40 N 0.20183 0.79292 1.14437
 C41 C 0.16251 0.77134 1.16651
 N42 N 0.14391 0.79158 1.20830
 C43 C 0.83545 1.16646 1.22830
 N44 N 0.85737 1.20506 1.20523
 C45 C 0.83776 1.22458 1.16365
 N46 N 0.79589 1.20477 1.14492
 C47 C 0.77388 1.16579 1.16723
 N48 N 0.79407 1.14656 1.20862
 O49 O 0.56861 0.91105 0.91285
 O50 O 0.62244 0.95605 0.95969
 C51 C 0.61276 0.92369 0.92602
 O52 O 0.43027 1.08569 0.91369
 O53 O 0.37695 1.04069 0.96126
 C54 C 0.38634 1.07318 0.92764
 O55 O 0.56830 1.08168 0.90857
 O56 O 0.62227 1.03919 0.95740
 C57 C 0.61241 1.06971 0.92222
 O58 O 0.42993 0.90753 0.91782
 O59 O 0.37693 0.95609 0.96225
 C60 C 0.38603 0.92135 0.93083
 Zr61 Zr 0.49952 0.93458 0.94088
 O62 O 0.49394 0.93104 0.86331
 O63 O 0.50458 0.85680 0.94456
 Zr64 Zr 0.49948 1.05935 0.93767
 O65 O 0.49368 1.05786 0.86005
 O66 O 0.50467 1.13720 0.93657
 O67 O 0.54320 0.99671 0.92912
 O68 O 0.45699 0.99677 0.93069
 O69 O 0.43131 0.91142 1.09018
 O70 O 0.37747 0.95665 1.04364
 C71 C 0.38717 0.92388 1.07683
 O72 O 0.56987 1.08656 1.08865
 O73 O 0.62299 1.04166 1.04068
 C74 C 0.61381 1.07401 1.07457
 O75 O 0.43133 1.09039 1.08609
 O76 O 0.37757 1.04156 1.04310
 C77 C 0.38722 1.07668 1.07393
 O78 O 0.57009 0.91596 1.09311
 O79 O 0.62300 0.95951 1.04378
 C80 C 0.61395 0.92861 1.07886
 Zr81 Zr 0.50048 0.93817 1.06547
 O82 O 0.49568 0.94032 1.14318
 O83 O 0.50576 0.86036 1.06718
 Zr84 Zr 0.50040 1.06277 1.06218
 O85 O 0.49580 1.06524 1.13988
 O86 O 0.50554 1.14058 1.05939
 Zr87 Zr 0.57277 0.99874 1.00069
 Zr88 Zr 0.42722 0.99875 1.00218
 O89 O 0.45792 1.00066 1.07315
 O90 O 0.54435 1.00077 1.07290
 O91 O 0.45622 0.92673 1.00381
 O92 O 0.54244 1.07008 0.99925
 O93 O 0.54256 0.92737 1.00299
 O94 O 0.45614 1.07075 1.00010
 H95 H 0.43475 0.99616 0.90189
 H96 H 0.56457 1.09907 0.99827
 H97 H 0.43591 1.00127 1.10223
 H98 H 0.56488 0.89853 1.00360
 H99 H 0.47653 1.15035 0.95557
 H100 H 0.47709 1.15271 1.04035
 H101 H 0.52293 1.04491 1.15297
 H102 H 0.52323 0.96078 1.15523
 H103 H 0.47834 0.84711 1.04734
 H104 H 0.47526 0.84474 0.96243
 H105 H 0.51981 0.95263 0.84957
 H106 H 0.52038 1.03656 0.84743
 O107 O 0.08811 0.42978 -0.08606
 O108 O 0.03991 0.37633 -0.04189
 C109 C 0.07437 0.38568 -0.07341
 O110 O 0.08373 0.56954 0.08864
 O111 O 0.03899 0.62292 0.04119
 C112 C 0.07109 0.61363 0.07500
 O113 O 0.08811 0.43067 0.08462
 O114 O 0.04002 0.37679 0.04095
 C115 C 0.07422 0.38644 0.07256
 O116 O 0.08378 0.56878 -0.09079
 O117 O 0.03974 0.62263 -0.04274
 C118 C 0.07133 0.61298 -0.07708
 Zr119 Zr 0.06047 0.49937 -0.06322
 O120 O 0.13806 0.50480 -0.06374
 O121 O 0.06000 0.49357 -0.14089
 Zr122 Zr 0.06051 0.50002 0.06131
 O123 O 0.13810 0.50552 0.06105
 O124 O 0.06039 0.49494 0.13902
 O125 O 0.07021 0.45576 -0.00082
 O126 O 0.06947 0.54233 -0.00110
 O127 O -0.08687 0.56856 -0.09102
 O128 O -0.04230 0.62245 -0.04376
 C129 C -0.07428 0.61283 -0.07763
 O130 O -0.09136 0.43061 0.08503
 O131 O -0.04304 0.37669 0.04139
 C132 C -0.07757 0.38637 0.07281
 O133 O -0.08654 0.56959 0.08940
 O134 O -0.04316 0.62296 0.04039
 C135 C -0.07416 0.61365 0.07534
 O136 O -0.09120 0.42956 -0.08618
 O137 O -0.04397 0.37651 -0.04088
 C138 C -0.07751 0.38554 -0.07327
 Zr139 Zr -0.06405 0.49925 -0.06279
 O140 O -0.14165 0.50464 -0.06141
 O141 O -0.06490 0.49354 -0.14044
 Zr142 Zr -0.06391 0.49999 0.06157
 O143 O -0.14149 0.50560 0.06109
 O144 O -0.06447 0.49483 0.13925
 Zr145 Zr -0.00159 0.42664 -0.00052
 Zr146 Zr -0.00169 0.57269 -0.00105
 O147 O -0.07290 0.54239 -0.00076
 O148 O -0.07348 0.45559 -0.00041
 O149 O -0.00179 0.54315 -0.07283
 O150 O -0.00167 0.45746 0.07061
 O151 O -0.00174 0.45666 -0.07187
 O152 O -0.00169 0.54395 0.07094
 H153 H 0.09838 0.56454 -0.00115
 H154 H -0.00166 0.43548 0.09968
 H155 H -0.10169 0.56475 -0.00081
 H156 H -0.00172 0.43430 -0.10072
 H157 H 0.04065 0.52275 0.15183
 H158 H -0.04334 0.52157 0.15205
 H159 H -0.15428 0.47751 0.04173
 H160 H -0.15431 0.47600 -0.04282
 H161 H -0.04323 0.51973 -0.15346
 H162 H 0.04087 0.52171 -0.15374
 H163 H 0.15092 0.47773 -0.04313
 H164 H 0.15094 0.47784 0.04109
 O165 O 1.08849 -0.08654 0.43006
 O166 O 1.04390 -0.03903 0.37660
 C167 C 1.07594 -0.07300 0.38600
 O168 O 0.91241 -0.08552 0.56731
 O169 O 0.95934 -0.04132 0.62173
 C170 C 0.92559 -0.07341 0.61163
 O171 O 0.91798 -0.08865 0.42903
 O172 O 0.96214 -0.03986 0.37612
 C173 C 0.93071 -0.07458 0.38518
 O174 O 1.09226 -0.08250 0.56859
 O175 O 1.04345 -0.03924 0.62236
 C176 C 1.07831 -0.07030 0.61270
 Zr177 Zr 1.06465 -0.05943 0.49943
 O178 O 1.06559 -0.13728 0.50436
 O179 O 1.14227 -0.05828 0.49426
 Zr180 Zr 0.94033 -0.06123 0.49853
 O181 O 0.94162 -0.13910 0.50318
 O182 O 0.86279 -0.06211 0.49253
 O183 O 1.00302 -0.06956 0.45504
 O184 O 1.00224 -0.06975 0.54149
 O185 O 1.08947 0.08806 0.57085
 O186 O 1.04112 0.04298 0.62333
 C187 C 1.07517 0.07515 0.61467
 O188 O 0.91494 0.09079 0.43035
 O189 O 0.96188 0.04531 0.37683
 C190 C 0.92884 0.07833 0.38626
 O191 O 0.90966 0.08554 0.56886
 O192 O 0.95724 0.04112 0.62243
 C193 C 0.92276 0.07256 0.61293
 O194 O 1.08716 0.09328 0.43197
 O195 O 1.04380 0.04546 0.37750
 C196 C 1.07525 0.07983 0.38763
 Zr197 Zr 1.06301 0.06520 0.50082
 O198 O 1.06142 0.14298 0.50683
 O199 O 1.14066 0.06643 0.49629
 Zr200 Zr 0.93858 0.06352 0.49964
 O201 O 0.93855 0.14133 0.50563
 O202 O 0.86104 0.06317 0.49379
 Zr203 Zr 1.00232 0.00270 0.42665
 Zr204 Zr 1.00085 0.00134 0.57249
 O205 O 1.00017 0.07298 0.54291
 O206 O 1.00114 0.07445 0.45646
 O207 O 1.07297 0.00263 0.54406
 O208 O 0.93090 0.00137 0.45641
 O209 O 1.07318 0.00334 0.45756
 O210 O 0.92936 0.00062 0.54284
 H211 H 1.00258 -0.09886 0.56345
 H212 H 0.90225 0.00114 0.43398
 H213 H 0.99944 0.10169 0.56547
 H214 H 1.10228 0.00368 0.43560
 H215 H 0.84941 -0.04281 0.52040
 H216 H 0.84823 0.04138 0.51998
 H217 H 0.95730 0.15447 0.47733
 H218 H 1.04199 0.15564 0.47886
 H219 H 1.15343 0.04629 0.52372
 H220 H 1.15465 -0.03794 0.52179
 H221 H 1.04584 -0.15028 0.47674
 H222 H 0.96184 -0.15142 0.47550
 C223 C 1.14153 0.14296 0.26724
 C224 C 1.15950 0.16472 0.31626
 C225 C 1.13787 0.14442 0.35670
 C226 C 1.10006 0.10403 0.34451
 C227 C 1.06367 0.12877 0.30922
 C228 C 1.08518 0.14891 0.26873
 C229 C 1.14980 0.08697 0.27210
 C230 C 1.12830 0.06682 0.31253
 H231 H 1.18689 0.19370 0.31897
 H232 H 1.14691 0.15622 0.39375
 H233 H 1.02432 0.13036 0.31557
 H234 H 1.06383 0.16719 0.24041
 H235 H 1.17036 0.06480 0.24591
 H236 H 1.13093 0.02778 0.32086
 C237 C 0.86360 -0.13564 0.26437
 C238 C 0.85265 -0.16362 0.31225
 C239 C 0.87478 -0.14400 0.35269
 C240 C 0.90615 -0.09808 0.34161
 C241 C 0.94231 -0.11483 0.30148
 C242 C 0.92014 -0.13413 0.26097
 C243 C 0.84877 -0.08183 0.27524
 C244 C 0.87107 -0.06237 0.31555
 H245 H 0.82950 -0.19616 0.31423
 H246 H 0.87058 -0.16009 0.38897
 H247 H 0.98194 -0.11162 0.30456
 H248 H 0.94105 -0.14709 0.22943
 H249 H 0.82358 -0.06037 0.25298
 H250 H 0.86466 -0.02473 0.32758
 C251 C 0.85880 0.13742 0.73382
 C252 C 0.83222 0.14956 0.68549
 C253 C 0.85279 0.12825 0.64497
 C254 C 0.89817 0.09645 0.65640
 C255 C 0.93314 0.13095 0.68431
 C256 C 0.91275 0.15239 0.72473
 C257 C 0.86007 0.08065 0.73575
 C258 C 0.88034 0.05933 0.69516
 H259 H 0.79989 0.17290 0.68330
 H260 H 0.83777 0.13336 0.60839
 H261 H 0.97095 0.13767 0.67338
 H262 H 0.93359 0.17707 0.74824
 H263 H 0.84639 0.05899 0.76640
 H264 H 0.88364 0.01965 0.69117
 C265 C 1.14081 -0.13704 0.73266
 C266 C 1.16887 -0.14715 0.68464
 C267 C 1.14879 -0.12516 0.64440
 C268 C 1.10236 -0.09478 0.65591
 C269 C 1.06757 -0.13088 0.68195
 C270 C 1.08755 -0.15304 0.72200
 C271 C 1.13825 -0.08051 0.73645
 C272 C 1.11840 -0.05842 0.69622
 H273 H 1.20181 -0.16962 0.68249
 H274 H 1.16485 -0.12880 0.60800
 H275 H 1.03019 -0.13816 0.67004
 H276 H 1.06692 -0.17905 0.74422
 H277 H 1.15095 -0.05962 0.76806
 H278 H 1.11426 -0.01874 0.69349
 C279 C 0.27007 1.14245 1.14350
 C280 C 0.31257 1.17820 1.13226
 C281 C 0.35130 1.15677 1.10866
 C282 C 0.34438 1.10138 1.09882
 C283 C 0.33297 1.07896 1.14936
 C284 C 0.29416 1.10026 1.17283
 C285 C 0.25704 1.11934 1.09355
 C286 C 0.29575 1.09792 1.07019
 H287 H 0.31221 1.21706 1.14187
 H288 H 0.38378 1.17740 1.09797
 H289 H 0.35373 1.04885 1.16538
 H290 H 0.28227 1.08820 1.20900
 H291 H 0.22041 1.11983 1.07777
 H292 H 0.29194 1.08042 1.03447
 C293 C 0.26754 0.85921 0.86071
 C294 C 0.25475 0.88271 0.91058
 C295 C 0.29390 0.90284 0.93418
 C296 C 0.34271 0.89781 0.90583
 C297 C 0.34796 0.84226 0.89603
 C298 C 0.30876 0.82209 0.87220
 C299 C 0.29329 0.90060 0.83155
 C300 C 0.33253 0.92059 0.85523
 H301 H 0.21798 0.88335 0.92617
 H302 H 0.29030 0.92033 0.96995
 H303 H 0.37967 0.82063 0.90687
 H304 H 0.30724 0.78327 0.86255
 H305 H 0.28214 0.91312 0.79535
 H306 H 0.35438 0.95007 0.83936
 C307 C 0.73674 0.86537 1.13956
 C308 C 0.68919 0.85207 1.16721
 C309 C 0.64792 0.87279 1.14783
 C310 C 0.65795 0.90516 1.10250
 C311 C 0.69644 0.94284 1.11979
 C312 C 0.73773 0.92212 1.13888
 C313 C 0.72680 0.85072 1.08562
 C314 C 0.68566 0.87148 1.06648
 H315 H 0.68804 0.82840 1.19937
 H316 H 0.61175 0.86685 1.16361
 H317 H 0.69179 0.98244 1.11691
 H318 H 0.76827 0.94422 1.15206
 H319 H 0.75026 0.82671 1.06387
 H320 H 0.67405 0.86481 1.02885
 C321 C 0.73204 1.13625 0.85855
 C322 C 0.68381 1.14703 0.83132
 C323 C 0.64366 1.12507 0.85175
 C324 C 0.65541 1.09406 0.89764
 C325 C 0.69513 1.05758 0.88055
 C326 C 0.73534 1.07958 0.86039
 C327 C 0.72206 1.15160 0.91236
 C328 C 0.68205 1.12953 0.93257
 H329 H 0.68142 1.16990 0.79867
 H330 H 0.60717 1.12914 0.83629
 H331 H 0.69207 1.01787 0.88430
 H332 H 0.76659 1.05847 0.84716
 H333 H 0.74472 1.17696 0.93331
 H334 H 0.67065 1.13637 0.97029
 C335 C 0.14331 0.27013 0.13980
 C336 C 0.09667 0.25524 0.11188
 C337 C 0.07352 0.29349 0.08954
 C338 C 0.09912 0.34361 0.09715
 C339 C 0.10323 0.34908 0.15329
 C340 C 0.12659 0.31078 0.17557
 C341 C 0.17522 0.29709 0.10144
 C342 C 0.15203 0.33554 0.07926
 H343 H 0.08288 0.21773 0.10999
 H344 H 0.03984 0.28832 0.06884
 H345 H 0.08901 0.38037 0.17377
 H346 H 0.13247 0.30949 0.21502
 H347 H 0.21285 0.28717 0.09259
 H348 H 0.16971 0.35810 0.05142
 C349 C -0.14355 0.26668 -0.13974
 C350 C -0.09674 0.25340 -0.11144
 C351 C -0.07469 0.29255 -0.08946
 C352 C -0.10146 0.34196 -0.09775
 C353 C -0.10538 0.34646 -0.15399
 C354 C -0.12764 0.30718 -0.17594
 C355 C -0.17630 0.29349 -0.10185
 C356 C -0.15421 0.33287 -0.08003
 H357 H -0.08199 0.21631 -0.10911
 H358 H -0.04095 0.28850 -0.06863
 H359 H -0.09184 0.37780 -0.17476
 H360 H -0.13323 0.30509 -0.21541
 H361 H -0.21375 0.28284 -0.09309
 H362 H -0.17261 0.35545 -0.05262
 C363 C 0.13798 0.73397 -0.13826
 C364 C 0.15206 0.72422 -0.08433
 C365 C 0.13006 0.68372 -0.06476
 C366 C 0.09599 0.65646 -0.10065
 C367 C 0.05957 0.69585 -0.11843
 C368 C 0.08150 0.73649 -0.13783
 C369 C 0.15016 0.68582 -0.16546
 C370 C 0.12830 0.64518 -0.14581
 H371 H 0.17668 0.74735 -0.06304
 H372 H 0.13616 0.67224 -0.02700
 H373 H 0.01994 0.69222 -0.11574
 H374 H 0.06051 0.76758 -0.15152
 H375 H 0.17395 0.68388 -0.19751
 H376 H 0.13337 0.60865 -0.16132
 C377 C -0.13766 0.73566 0.13821
 C378 C -0.08120 0.73738 0.13638
 C379 C -0.06036 0.69637 0.11646
 C380 C -0.09776 0.65743 0.09957
 C381 C -0.12911 0.64675 0.14554
 C382 C -0.14987 0.68779 0.16575
 C383 C -0.15321 0.72585 0.08462
 C384 C -0.13230 0.68499 0.06454
 H385 H -0.05942 0.76816 0.14964
 H386 H -0.02086 0.69213 0.11293
 H387 H -0.13432 0.61034 0.16116
 H388 H -0.17286 0.68632 0.19840
 H389 H -0.17806 0.74915 0.06388
 H390 H -0.13955 0.67343 0.02698
 C391 C 1.14225 0.14017 0.73371
 C392 C 1.17501 0.10311 0.70563
 C393 C 1.15249 0.08177 0.66628
 C394 C 1.09942 0.09908 0.65836
 C395 C 1.07344 0.08947 0.70789
 C396 C 1.09583 0.11094 0.74706
 C397 C 1.12546 0.17700 0.69409
 C398 C 1.10282 0.15550 0.65488
 H399 H 1.21273 0.09456 0.71530
 H400 H 1.17083 0.05501 0.64286
 H401 H 1.04000 0.06804 0.71206
 H402 H 1.08158 0.10750 0.78425
 H403 H 1.13089 0.21657 0.69659
 H404 H 1.08879 0.17671 0.62415
 C405 C 0.85502 -0.14279 0.72604
 C406 C 0.89907 -0.11143 0.74240
 C407 C 0.92270 -0.08835 0.70485
 C408 C 0.90023 -0.09865 0.65388
 C409 C 0.89986 -0.15514 0.64949
 C410 C 0.87599 -0.17825 0.68702
 C411 C 0.82220 -0.10708 0.69663
 C412 C 0.84597 -0.08408 0.65899
 H413 H 0.91082 -0.10775 0.78039
 H414 H 0.95465 -0.06524 0.71112
 H415 H 0.91680 -0.17524 0.61934
 H416 H 0.87242 -0.21807 0.68865
 H417 H 0.78355 -0.10065 0.70421
 H418 H 0.82776 -0.05794 0.63495
 C419 C 1.14231 -0.14421 0.27002
 C420 C 1.17867 -0.12264 0.30767
 C421 C 1.15658 -0.09853 0.34576
 C422 C 1.10016 -0.09851 0.34319
 C423 C 1.08830 -0.07647 0.29238
 C424 C 1.11035 -0.10035 0.25430
 C425 C 1.10776 -0.17707 0.30090
 C426 C 1.08579 -0.15305 0.33903
 H427 H 1.21832 -0.12604 0.30477
 H428 H 1.17736 -0.08120 0.37512
 H429 H 1.06486 -0.04466 0.28657
 H430 H 1.10551 -0.08892 0.21635
 H431 H 1.10140 -0.21596 0.29393
 H432 H 1.06056 -0.17127 0.36408
 C433 C 0.85871 0.14406 0.26969
 C434 C 0.82527 0.11121 0.30170
 C435 C 0.84894 0.08955 0.34007
 C436 C 0.90376 0.10251 0.34330
 C437 C 0.92485 0.08860 0.29245
 C438 C 0.90135 0.11038 0.25418
 C439 C 0.88161 0.18088 0.30631
 C440 C 0.90536 0.15907 0.34462
 H441 H 0.78629 0.10573 0.29530
 H442 H 0.83026 0.06550 0.36594
 H443 H 0.95576 0.06395 0.28674
 H444 H 0.91221 0.10412 0.21621
 H445 H 0.87929 0.22064 0.30258
 H446 H 0.92343 0.18017 0.37332
 C447 C 0.13707 0.26414 -0.13827
 C448 C 0.08354 0.27406 -0.15391
 C449 C 0.06347 0.31473 -0.13251
 C450 C 0.09838 0.34197 -0.09744
 C451 C 0.11499 0.30264 -0.06041
 C452 C 0.13488 0.26184 -0.08168
 C453 C 0.16462 0.31227 -0.14972
 C454 C 0.14441 0.35300 -0.12847
 H455 H 0.06277 0.25096 -0.17902
 H456 H 0.02597 0.32632 -0.13967
 H457 H 0.11104 0.30636 -0.02084
 H458 H 0.14764 0.23076 -0.06008
 H459 H 0.19731 0.31418 -0.17261
 H460 H 0.16008 0.38948 -0.13317
 C461 C -0.13992 0.26614 0.14027
 C462 C -0.08617 0.27637 0.15512
 C463 C -0.06626 0.31651 0.13278
 C464 C -0.10146 0.34304 0.09760
 C465 C -0.11853 0.30292 0.06147
 C466 C -0.13835 0.26260 0.08372
 C467 C -0.16724 0.31454 0.15112
 C468 C -0.14717 0.35477 0.12892
 H469 H -0.06509 0.25378 0.18035
 H470 H -0.02863 0.32813 0.13926
 H471 H -0.11498 0.30578 0.02180
 H472 H -0.15148 0.23108 0.06288
 H473 H -0.19973 0.31700 0.17425
 H474 H -0.16278 0.39134 0.13308
 C475 C -0.14126 0.72945 -0.14692
 C476 C -0.17704 0.68892 -0.13013
 C477 C -0.15485 0.65056 -0.10675
 C478 C -0.09876 0.65579 -0.10266
 C479 C -0.08092 0.66373 -0.15565
 C480 C -0.10301 0.70225 -0.17885
 C481 C -0.11332 0.74429 -0.10023
 C482 C -0.09105 0.70597 -0.07707
 H483 H -0.21645 0.69032 -0.13597
 H484 H -0.17538 0.61937 -0.09250
 H485 H -0.05318 0.64104 -0.17336
 H486 H -0.09415 0.71207 -0.21653
 H487 H -0.11134 0.78182 -0.08645
 H488 H -0.07034 0.71111 -0.04337
 C489 C 0.13884 0.73022 0.14377
 C490 C 0.17457 0.69056 0.12464
 C491 C 0.15202 0.65230 0.10136
 C492 C 0.09574 0.65665 0.09971
 C493 C 0.07996 0.66325 0.15352
 C494 C 0.10237 0.70164 0.17668
 C495 C 0.10867 0.74538 0.09859
 C496 C 0.08610 0.70708 0.07555
 H497 H 0.21418 0.69237 0.12893
 H498 H 0.17240 0.62168 0.08564
 H499 H 0.05342 0.63968 0.17186
 H500 H 0.09496 0.71030 0.21499
 H501 H 0.10538 0.78309 0.08567
 H502 H 0.06384 0.71243 0.04291
 C503 C 0.26694 1.13933 0.86350
 C504 C 0.26191 1.08320 0.86935
 C505 C 0.30183 1.06134 0.88995
 C506 C 0.34316 1.09757 0.90341
 C507 C 0.35463 1.12486 0.85508
 C508 C 0.31469 1.14661 0.83426
 C509 C 0.27872 1.15824 0.91568
 C510 C 0.31855 1.13631 0.93644
 H511 H 0.22973 1.06239 0.85817
 H512 H 0.30370 1.02188 0.89621
 H513 H 0.39081 1.12666 0.83832
 H514 H 0.31689 1.16705 0.80003
 H515 H 0.25764 1.18625 0.93491
 H516 H 0.33149 1.14583 0.97299
 C517 C 0.26715 0.85724 1.14030
 C518 C 0.27836 0.83981 1.08747
 C519 C 0.31844 0.86180 1.06699
 C520 C 0.34389 0.89914 1.10094
 C521 C 0.30314 0.93550 1.11597
 C522 C 0.26296 0.91358 1.13623
 C523 C 0.31505 0.84840 1.16876
 C524 C 0.35523 0.87020 1.14822
 H525 H 0.25666 0.81279 1.06760
 H526 H 0.33099 0.85325 1.03001
 H527 H 0.30557 0.97511 1.11094
 H528 H 0.23114 0.93451 1.14831
 H529 H 0.31714 0.82684 1.20229
 H530 H 0.39150 0.86730 1.16447
 C531 C 0.73038 1.14131 1.14330
 C532 C 0.70182 1.10490 1.17608
 C533 C 0.66334 1.08273 1.15297
 C534 C 0.65680 1.09866 1.09922
 C535 C 0.65284 1.15515 1.10122
 C536 C 0.69119 1.17745 1.12450
 C537 C 0.74531 1.11108 1.09791
 C538 C 0.70702 1.08874 1.07484
 H539 H 0.71069 1.09737 1.21424
 H540 H 0.63974 1.05618 1.17127
 H541 H 0.62248 1.17584 1.08568
 H542 H 0.69345 1.21715 1.12899
 H543 H 0.78289 1.10766 1.08488
 H544 H 0.71224 1.06650 1.04201
 C545 C 0.72854 0.85730 0.85461
 C546 C 0.74401 0.88688 0.90017
 C547 C 0.70598 0.90891 0.92414
 C548 C 0.65545 0.89931 0.90041
 C549 C 0.66139 0.91601 0.84682
 C550 C 0.69958 0.89416 0.82281
 C551 C 0.68954 0.82089 0.87352
 C552 C 0.65145 0.84285 0.89770
 H553 H 0.78175 0.89012 0.91263
 H554 H 0.71158 0.93071 0.95717
 H555 H 0.63761 0.94282 0.82927
 H556 H 0.70799 0.90226 0.78463
 H557 H 0.69175 0.78126 0.86848
 H558 H 0.62128 0.82194 0.91343
   
