data_POSCAR
  _audit_creation_date              2014-09-24
  _audit_creation_method            'ToBaCCo'
  _symmetry_space_group_name_H-M    'P1'
  _symmetry_Int_Tables_number       1
  _symmetry_cell_setting            triclinic
  loop_
  _symmetry_equiv_pos_as_xyz
 x,y,z
_cell_length_a 31.7677
_cell_length_b 31.6311
_cell_length_c 31.6267
_cell_angle_alpha 90.019000
_cell_angle_beta 89.954100
_cell_angle_gamma 89.924700
loop_
  _atom_site_label
  _atom_site_type_symbol
  _atom_site_fract_x
  _atom_site_fract_y
  _atom_site_fract_z
C1 C 0.16641 1.22210 0.22142
 C2 C 0.14894 1.25788 0.20191
 C3 C 0.16678 1.27478 0.16471
 C4 C 0.20345 1.25577 0.14811
 C5 C 0.22154 1.22032 0.16764
 C6 C 0.20287 1.20330 0.20433
 C7 C 0.14716 1.20416 0.25710
 C8 C 0.16379 1.16746 0.27620
 C9 C 0.20094 1.14963 0.25938
 C10 C 0.22020 1.16698 0.22343
 C11 C 0.25584 1.14774 0.20557
 C12 C 0.27444 1.16423 0.16872
 C13 C 0.25735 1.20090 0.15029
 H14 H 0.12068 1.27176 0.21527
 H15 H 0.21788 1.26815 0.11962
 H16 H 0.11877 1.21865 0.26950
 H17 H 0.21440 1.12142 0.27340
 H18 H 0.26874 1.11953 0.22010
 H19 H 0.27118 1.21374 0.12171
 C20 C 0.83859 0.77919 0.21805
 C21 C 0.85855 0.74477 0.19843
 C22 C 0.84082 0.72529 0.16248
 C23 C 0.80229 0.74090 0.14670
 C24 C 0.78231 0.77563 0.16573
 C25 C 0.80033 0.79466 0.20172
 C26 C 0.85694 0.79895 0.25320
 C27 C 0.83762 0.83419 0.27257
 C28 C 0.79892 0.84887 0.25631
 C29 C 0.78048 0.82969 0.22086
 C30 C 0.74320 0.84592 0.20342
 C31 C 0.72577 0.82802 0.16667
 C32 C 0.74520 0.79239 0.14849
 H33 H 0.88815 0.73346 0.21120
 H34 H 0.78810 0.72677 0.11893
 H35 H 0.88664 0.78693 0.26509
 H36 H 0.78346 0.87599 0.27045
 H37 H 0.72860 0.87343 0.21770
 H38 H 0.73194 0.77812 0.12033
 C39 C 0.83019 1.22152 -0.22036
 C40 C 0.84881 1.25726 -0.20190
 C41 C 0.83343 1.27377 -0.16355
 C42 C 0.79824 1.25473 -0.14441
 C43 C 0.77909 1.21923 -0.16268
 C44 C 0.79524 1.20239 -0.20067
 C45 C 0.84692 1.20384 -0.25745
 C46 C 0.82983 1.16654 -0.27486
 C47 C 0.79428 1.14830 -0.25531
 C48 C 0.77695 1.16594 -0.21850
 C49 C 0.74232 1.14692 -0.19858
 C50 C 0.72612 1.16338 -0.16056
 C51 C 0.74469 1.19968 -0.14292
 H52 H 0.87606 1.27144 -0.21684
 H53 H 0.78599 1.26717 -0.11492
 H54 H 0.87418 1.21858 -0.27186
 H55 H 0.78030 1.11983 -0.26821
 H56 H 0.72862 1.11868 -0.21224
 H57 H 0.73260 1.21263 -0.11359
 C58 C 0.16519 0.78156 -0.22303
 C59 C 0.14766 0.74493 -0.20533
 C60 C 0.16615 0.72541 -0.16976
 C61 C 0.20356 0.74266 -0.15305
 C62 C 0.22114 0.77957 -0.17016
 C63 C 0.20177 0.79923 -0.20511
 C64 C 0.14592 0.80147 -0.25764
 C65 C 0.16228 0.83931 -0.27421
 C66 C 0.19873 0.85679 -0.25601
 C67 C 0.21850 0.83706 -0.22163
 C68 C 0.25415 0.85519 -0.20284
 C69 C 0.27343 0.83608 -0.16765
 C70 C 0.25702 0.79789 -0.15192
 H71 H 0.11910 0.73216 -0.21902
 H72 H 0.21848 0.72827 -0.12580
 H73 H 0.11758 0.78793 -0.27104
 H74 H 0.21161 0.88600 -0.26838
 H75 H 0.26651 0.88456 -0.21536
 H76 H 0.27139 0.78299 -0.12465
 C77 C 0.56200 1.05667 -0.00779
 H78 H 0.55980 1.05885 0.02628
 C79 C 0.59169 1.08082 -0.02951
 H80 H 0.61213 1.10168 -0.01179
 C81 C 0.53880 1.02554 -0.07180
 H82 H 0.51882 1.00320 -0.08803
 C83 C 0.56838 1.04881 -0.09478
 H84 H 0.57032 1.04454 -0.12869
 N85 N 0.53613 1.02993 -0.02909
 C86 C 0.43831 1.00903 0.06534
 H87 H 0.43992 0.97494 0.06776
 C88 C 0.40915 1.03149 0.08955
 H89 H 0.38851 1.01433 0.11070
 C90 C 0.46234 1.07232 0.03340
 H91 H 0.48240 1.08797 0.01070
 C92 C 0.43328 1.09601 0.05668
 H93 H 0.43180 1.12990 0.05206
 Zn94 Zn 0.49965 0.99591 0.00370
 N95 N 0.46431 1.02962 0.03812
 C96 C 0.53703 0.96504 0.07961
 N97 N 0.53451 0.96062 0.03690
 C98 C 0.55972 0.93299 0.01580
 C99 C 0.58865 0.90808 0.03770
 C100 C 0.56591 0.94104 0.10278
 C101 C 0.43862 0.98531 -0.05845
 C102 C 0.40926 0.96406 -0.08338
 C103 C 0.43126 0.89837 -0.05123
 C104 C 0.46053 0.92089 -0.02716
 N105 N 0.46369 0.96358 -0.03124
 H106 H 0.51761 0.98806 0.09567
 H107 H 0.55770 0.93081 -0.01828
 H108 H 0.60870 0.88666 0.02011
 H109 H 0.56790 0.94546 0.13666
 H110 H 0.44118 1.01936 -0.06039
 H111 H 0.38944 0.98213 -0.10457
 H112 H 0.42889 0.86447 -0.04718
 H113 H 0.47986 0.90433 -0.00446
 C114 C 0.40602 1.07555 0.08506
 C115 C 0.59544 1.07680 -0.07358
 C116 C 0.40500 0.92002 -0.07969
 C117 C 0.59240 0.91228 0.08175
 C118 C -0.00736 0.56122 1.05899
 H119 H 0.02640 0.55828 1.06243
 C120 C -0.02940 0.59085 1.08309
 H121 H -0.01228 0.61053 1.10517
 C122 C -0.07019 0.53998 1.02473
 H123 H -0.08578 0.52079 1.00123
 C124 C -0.09342 0.56964 1.04779
 H125 H -0.12693 0.57244 1.04222
 N126 N -0.02795 0.53630 1.03076
 C127 C 0.06792 0.43957 1.01095
 H128 H 0.07187 0.44219 0.97707
 C129 C 0.09181 0.41033 1.03368
 H130 H 0.11425 0.39066 1.01698
 C131 C 0.03243 0.46093 1.07334
 H132 H 0.00847 0.47993 1.08847
 C133 C 0.05521 0.43164 1.09722
 H134 H 0.04899 0.42894 1.13078
 Zn135 Zn 0.00520 0.49980 0.99699
 N136 N 0.03915 0.46434 1.03100
 C137 C 0.08071 0.53884 0.96802
 N138 N 0.03847 0.53499 0.96210
 C139 C 0.01779 0.55919 0.93330
 C140 C 0.03972 0.58825 0.90852
 C141 C 0.10382 0.56799 0.94430
 C142 C -0.05702 0.43907 0.98592
 C143 C -0.08191 0.40971 0.96459
 C144 C -0.04848 0.43048 0.89919
 C145 C -0.02444 0.45977 0.92178
 N146 N -0.02922 0.46359 0.96436
 H147 H 0.09635 0.52032 0.99204
 H148 H -0.01597 0.55625 0.93002
 H149 H 0.02249 0.60746 0.88609
 H150 H 0.13730 0.57107 0.94987
 H151 H -0.05952 0.44214 1.01990
 H152 H -0.10362 0.39039 0.98254
 H153 H -0.04391 0.42761 0.86538
 H154 H -0.00126 0.47861 0.90538
 C155 C 0.08523 0.40573 1.07734
 C156 C -0.07298 0.59564 1.07735
 C157 C -0.07760 0.40485 0.92066
 C158 C 0.08325 0.59331 0.91420
 C159 C 1.05569 -0.00782 0.56124
 H160 H 1.05844 0.02617 0.55862
 C161 C 1.07974 -0.02964 0.59100
 H162 H 1.10107 -0.01208 0.61108
 C163 C 1.02333 -0.07149 0.53897
 H164 H 1.00057 -0.08751 0.51933
 C165 C 1.04649 -0.09456 0.56864
 H166 H 1.04171 -0.12836 0.57098
 N167 N 1.02843 -0.02892 0.53576
 C168 C 1.00945 0.06723 0.43902
 H169 H 0.97567 0.07107 0.44126
 C170 C 1.03236 0.09140 0.41017
 H171 H 1.01589 0.11392 0.39039
 C172 C 1.07144 0.03180 0.46103
 H173 H 1.08636 0.00780 0.48017
 C174 C 1.09551 0.05486 0.43212
 H175 H 1.12898 0.04878 0.42982
 Zn176 Zn 0.99504 0.00426 0.49901
 N177 N 1.02921 0.03837 0.46393
 C178 C 0.96632 0.08013 0.53809
 N179 N 0.96007 0.03779 0.53399
 C180 C 0.93099 0.01722 0.55786
 C181 C 0.90635 0.03938 0.58693
 C182 C 0.94274 0.10346 0.56725
 C183 C 0.98419 -0.05857 0.43834
 C184 C 0.96303 -0.08334 0.40871
 C185 C 0.89818 -0.04838 0.42821
 C186 C 0.92055 -0.02461 0.45790
 N187 N 0.96278 -0.03019 0.46246
 H188 H 0.99054 0.09566 0.51984
 H189 H 0.92742 -0.01664 0.55471
 H190 H 0.88373 0.02223 0.60594
 H191 H 0.94863 0.13700 0.57057
 H192 H 1.01792 -0.06162 0.44191
 H193 H 0.98082 -0.10554 0.38969
 H194 H 0.86467 -0.04319 0.42470
 H195 H 0.90432 -0.00094 0.47639
 C196 C 1.07592 0.08500 0.40610
 C197 C 1.07508 -0.07359 0.59524
 C198 C 0.91949 -0.07816 0.40306
 C199 C 0.91244 0.08301 0.59231
 N200 N 0.11284 0.32825 1.16021
 C201 C 0.14750 0.30905 1.14375
 N202 N 0.16224 0.32289 1.10583
 N203 N 0.14287 0.35393 1.08506
 C204 C 0.10805 0.37277 1.10143
 N205 N 0.09361 0.35948 1.13958
 N206 N -0.09954 0.67874 1.15511
 C207 C -0.13824 0.69167 1.14204
 N208 N -0.15570 0.67197 1.10809
 N209 N -0.13534 0.64107 1.08801
 C210 C -0.09648 0.62860 1.10085
 N211 N -0.07907 0.64800 1.13490
 N212 N -0.11359 0.33102 0.83753
 C213 C -0.14478 0.30948 0.85751
 N214 N -0.15442 0.32023 0.89796
 N215 N -0.13351 0.35086 0.91773
 C216 C -0.10212 0.37218 0.89788
 N217 N -0.09275 0.36177 0.85726
 N218 N 0.16437 0.67124 0.88383
 C219 C 0.14661 0.69051 0.84978
 N220 N 0.10854 0.67637 0.83620
 N221 N 0.08883 0.64506 0.85616
 C222 C 0.10641 0.62625 0.89046
 N223 N 0.14476 0.63976 0.90368
 N224 N 1.10490 0.16274 0.32398
 C225 C 1.14282 0.14808 0.31037
 N226 N 1.15916 0.11326 0.32957
 N227 N 1.13838 0.09380 0.36053
 C228 C 1.10021 0.10815 0.37356
 N229 N 1.08399 0.14314 0.35476
 N230 N 1.15090 -0.09828 0.68032
 C231 C 1.14055 -0.13864 0.69063
 N232 N 1.10908 -0.15782 0.66880
 N233 N 1.08871 -0.13744 0.63813
 C234 C 1.09883 -0.09695 0.62811
 N235 N 1.13043 -0.07786 0.64978
 N236 N 0.83863 -0.11133 0.32592
 C237 C 0.85731 -0.14489 0.30659
 N238 N 0.89611 -0.15697 0.32013
 N239 N 0.91556 -0.13615 0.35105
 C240 C 0.89698 -0.10244 0.37003
 N241 N 0.85799 -0.09062 0.35700
 N242 N 0.88304 0.16444 0.67077
 C243 C 0.84900 0.14686 0.69004
 N244 N 0.83508 0.10884 0.67570
 N245 N 0.85472 0.08897 0.64421
 C246 C 0.88900 0.10637 0.62541
 N247 N 0.90255 0.14469 0.63912
 N248 N 0.32046 1.10191 0.15982
 C249 C 0.31032 1.14205 0.14843
 N250 N 0.33262 1.16065 0.11685
 N251 N 0.36353 1.13988 0.09730
 C252 C 0.37332 1.09955 0.10837
 N253 N 0.35123 1.08108 0.14015
 N254 N 0.68105 1.15199 -0.09796
 C255 C 0.69092 1.14188 -0.13852
 N256 N 0.66861 1.11082 -0.15793
 N257 N 0.63791 1.09061 -0.13758
 C258 C 0.62832 1.10048 -0.09689
 N259 N 0.65047 1.13167 -0.07756
 N260 N 0.31971 0.89757 -0.15579
 C261 C 0.30928 0.85706 -0.14621
 N262 N 0.33128 0.83695 -0.11534
 N263 N 0.36216 0.85662 -0.09475
 C264 C 0.37224 0.89730 -0.10404
 N265 N 0.35046 0.91728 -0.13512
 N266 N 0.67806 0.83696 0.10579
 C267 C 0.68897 0.84798 0.14582
 N268 N 0.66695 0.87933 0.16523
 N269 N 0.63565 0.89907 0.14530
 C270 C 0.62517 0.88843 0.10505
 N271 N 0.64689 0.85679 0.08582
   
