data_POSCAR
  _audit_creation_date              2014-09-24
  _audit_creation_method            'ToBaCCo'
  _symmetry_space_group_name_H-M    'P1'
  _symmetry_Int_Tables_number       1
  _symmetry_cell_setting            triclinic
  loop_
  _symmetry_equiv_pos_as_xyz
 x,y,z
_cell_length_a 44.0199
_cell_length_b 44.2452
_cell_length_c 14.1580
_cell_angle_alpha 90.661300
_cell_angle_beta 89.606700
_cell_angle_gamma 120.210500
loop_
  _atom_site_label
  _atom_site_type_symbol
  _atom_site_fract_x
  _atom_site_fract_y
  _atom_site_fract_z
C1 C 0.24923 0.47166 0.55289
 C2 C 0.24422 0.46905 0.45716
 C3 C 0.21225 0.46666 0.41101
 C4 C 0.27264 0.47133 0.39490
 C5 C 0.27968 0.47200 0.59803
 C6 C 0.22482 0.47423 0.61995
 C7 C 0.17858 0.44838 0.45242
 C8 C 0.15057 0.45121 0.41677
 C9 C 0.15387 0.46847 0.33129
 C10 C 0.18663 0.48376 0.28417
 C11 C 0.21553 0.48363 0.32485
 C12 C 0.26675 0.44330 0.33558
 C13 C 0.29443 0.44471 0.28253
 C14 C 0.32840 0.47411 0.28823
 C15 C 0.33367 0.50289 0.34410
 C16 C 0.30607 0.50145 0.39686
 C17 C 0.30268 0.50094 0.65350
 C18 C 0.32878 0.50014 0.70677
 C19 C 0.33218 0.47020 0.70615
 C20 C 0.30906 0.44116 0.65080
 C21 C 0.28312 0.44214 0.59642
 C22 C 0.21736 0.50143 0.61399
 C23 C 0.19108 0.50097 0.67057
 C24 C 0.17218 0.47338 0.73409
 C25 C 0.18207 0.44812 0.74596
 C26 C 0.20822 0.44851 0.68919
 H27 H 0.17380 0.43236 0.51391
 H28 H 0.12565 0.43819 0.45396
 H29 H 0.19088 0.49790 0.21898
 H30 H 0.24074 0.49759 0.28953
 H31 H 0.24100 0.42000 0.33241
 H32 H 0.28954 0.42243 0.23894
 H33 H 0.31087 0.52370 0.44046
 H34 H 0.29991 0.52390 0.65696
 H35 H 0.34566 0.52264 0.75038
 H36 H 0.31114 0.41779 0.64964
 H37 H 0.26502 0.41929 0.55561
 H38 H 0.23085 0.52208 0.56292
 H39 H 0.18506 0.52171 0.66288
 H40 H 0.16824 0.42701 0.79558
 H41 H 0.21427 0.42774 0.69589
 H42 H 0.35900 0.52663 0.34722
 C43 C 0.51448 -0.23462 0.55274
 C44 C 0.51278 -0.23261 0.45745
 C45 C 0.52130 -0.25432 0.39471
 C46 C 0.50694 -0.20564 0.41358
 C47 C 0.51825 -0.20570 0.61410
 C48 C 0.51659 -0.26354 0.59844
 C49 C 0.55598 -0.24766 0.38968
 C50 C 0.56396 -0.26959 0.33664
 C51 C 0.53719 -0.29906 0.29030
 C52 C 0.50259 -0.30517 0.29315
 C53 C 0.49480 -0.28259 0.34397
 C54 C 0.53235 -0.18081 0.35327
 C55 C 0.52789 -0.15426 0.31574
 C56 C 0.49747 -0.15237 0.33632
 C57 C 0.47210 -0.17726 0.39698
 C58 C 0.47666 -0.20381 0.43476
 C59 C 0.48987 -0.20933 0.66815
 C60 C 0.49335 -0.18115 0.72231
 C61 C 0.52559 -0.14948 0.72496
 C62 C 0.55437 -0.14653 0.67421
 C63 C 0.55058 -0.17431 0.61790
 C64 C 0.49175 -0.29855 0.57806
 C65 C 0.49400 -0.32566 0.62073
 C66 C 0.52059 -0.31849 0.68679
 C67 C 0.54533 -0.28312 0.70757
 C68 C 0.54322 -0.25612 0.66393
 H69 H 0.57672 -0.22578 0.42822
 H70 H 0.59078 -0.26437 0.33489
 H71 H 0.48163 -0.32752 0.25663
 H72 H 0.46796 -0.28792 0.34692
 H73 H 0.55615 -0.18139 0.33730
 H74 H 0.54883 -0.13482 0.27260
 H75 H 0.45663 -0.22290 0.48090
 H76 H 0.46489 -0.23356 0.66625
 H77 H 0.47092 -0.18395 0.76179
 H78 H 0.57937 -0.12229 0.67547
 H79 H 0.57275 -0.17137 0.57685
 H80 H 0.47041 -0.30492 0.52954
 H81 H 0.47446 -0.35239 0.60287
 H82 H 0.56698 -0.27559 0.75550
 H83 H 0.56281 -0.22932 0.68051
 H84 H 0.44862 -0.17628 0.41464
 C85 C 1.23100 0.75472 0.54316
 C86 C 1.23433 0.75218 0.44815
 C87 C 1.26350 0.78077 0.39428
 C88 C 1.20809 0.72127 0.39411
 C89 C 1.20277 0.72580 0.59860
 C90 C 1.25607 0.78647 0.59594
 C91 C 1.25633 0.79949 0.32761
 C92 C 1.28376 0.82789 0.28066
 C93 C 1.31922 0.83822 0.29968
 C94 C 1.32597 0.81856 0.36506
 C95 C 1.29848 0.78997 0.41085
 C96 C 1.17356 0.71462 0.38471
 C97 C 1.14808 0.68391 0.34054
 C98 C 1.15669 0.65918 0.30619
 C99 C 1.19128 0.66598 0.31543
 C100 C 1.21698 0.69712 0.35762
 C101 C 1.19868 0.69229 0.59566
 C102 C 1.17111 0.66469 0.64389
 C103 C 1.14709 0.67010 0.69799
 C104 C 1.15274 0.70430 0.70523
 C105 C 1.18010 0.73178 0.65560
 C106 C 1.28524 0.78788 0.63904
 C107 C 1.31067 0.81868 0.68253
 C108 C 1.30669 0.84843 0.68650
 C109 C 1.27605 0.84592 0.64841
 C110 C 1.25134 0.81545 0.60154
 H111 H 1.22943 0.79263 0.31363
 H112 H 1.27661 0.84188 0.23210
 H113 H 1.35272 0.82532 0.38118
 H114 H 1.30453 0.77521 0.46010
 H115 H 1.16629 0.73294 0.41316
 H116 H 1.12143 0.67901 0.33579
 H117 H 1.24349 0.70183 0.36509
 H118 H 1.21689 0.68745 0.55571
 H119 H 1.16957 0.63958 0.63946
 H120 H 1.13529 0.70970 0.74718
 H121 H 1.18307 0.75758 0.66022
 H122 H 1.28876 0.76534 0.63669
 H123 H 1.33280 0.81858 0.71482
 H124 H 1.27191 0.86808 0.65126
 H125 H 1.22867 0.81452 0.56907
 H126 H 1.19839 0.64720 0.28980
 C127 C 0.75984 0.50545 0.55969
 C128 C 0.76426 0.50576 0.46422
 C129 C 0.79499 0.50543 0.41987
 C130 C 0.73822 0.50733 0.40192
 C131 C 0.73154 0.50998 0.60159
 C132 C 0.78312 0.50123 0.62648
 C133 C 0.82938 0.52787 0.45287
 C134 C 0.85763 0.52509 0.41757
 C135 C 0.85247 0.50111 0.34518
 C136 C 0.81841 0.47978 0.30876
 C137 C 0.78992 0.48185 0.34608
 C138 C 0.74489 0.53957 0.36677
 C139 C 0.71792 0.54263 0.32465
 C140 C 0.68379 0.51333 0.31690
 C141 C 0.67769 0.48085 0.34914
 C142 C 0.70472 0.47781 0.39068
 C143 C 0.69875 0.48078 0.62130
 C144 C 0.67203 0.48510 0.66094
 C145 C 0.67814 0.51863 0.68551
 C146 C 0.71124 0.54794 0.66454
 C147 C 0.73746 0.54356 0.62182
 C148 C 0.78866 0.47282 0.61745
 C149 C 0.81426 0.47145 0.67165
 C150 C 0.83477 0.49859 0.73674
 C151 C 0.82652 0.52510 0.75178
 C152 C 0.80111 0.52654 0.69684
 H153 H 0.83432 0.54716 0.50736
 H154 H 0.88370 0.54212 0.44579
 H155 H 0.81371 0.46096 0.25303
 H156 H 0.76379 0.46441 0.31889
 H157 H 0.77044 0.56271 0.37673
 H158 H 0.72353 0.56829 0.30297
 H159 H 0.69911 0.45281 0.41844
 H160 H 0.69382 0.45469 0.60536
 H161 H 0.64683 0.46202 0.67503
 H162 H 0.71690 0.57437 0.67797
 H163 H 0.76252 0.56637 0.60501
 H164 H 0.77404 0.45234 0.56580
 H165 H 0.81772 0.44919 0.66073
 H166 H 0.84111 0.54597 0.80250
 H167 H 0.79690 0.54845 0.70626
 H168 H 0.65169 0.45795 0.34440
 C169 C 0.47402 0.24803 0.55028
 C170 C 0.47648 0.24654 0.45421
 C171 C 0.48143 0.27507 0.39091
 C172 C 0.47577 0.21599 0.40763
 C173 C 0.47018 0.21845 0.60772
 C174 C 0.47765 0.27908 0.60401
 C175 C 0.45574 0.26870 0.32305
 C176 C 0.45891 0.29578 0.26630
 C177 C 0.48784 0.32971 0.27611
 C178 C 0.51464 0.33553 0.34051
 C179 C 0.51139 0.30841 0.39744
 C180 C 0.44398 0.18461 0.39400
 C181 C 0.44390 0.15550 0.35388
 C182 C 0.47573 0.15728 0.32831
 C183 C 0.50746 0.18865 0.34302
 C184 C 0.50744 0.21795 0.38091
 C185 C 0.49847 0.21268 0.61643
 C186 C 0.49494 0.18454 0.66830
 C187 C 0.46274 0.16124 0.71298
 C188 C 0.43509 0.16850 0.70815
 C189 C 0.43874 0.19677 0.65564
 C190 C 0.49587 0.28846 0.69053
 C191 C 0.49965 0.31694 0.74340
 C192 C 0.48686 0.33808 0.70950
 C193 C 0.46810 0.32857 0.62353
 C194 C 0.46262 0.29879 0.57319
 H195 H 0.43268 0.24295 0.31604
 H196 H 0.43817 0.29042 0.21654
 H197 H 0.53813 0.36087 0.34747
 H198 H 0.53193 0.31352 0.44764
 H199 H 0.41936 0.18264 0.41515
 H200 H 0.41910 0.13141 0.34488
 H201 H 0.53221 0.24197 0.39171
 H202 H 0.52339 0.23011 0.58292
 H203 H 0.51800 0.18200 0.67371
 H204 H 0.41020 0.15169 0.74270
 H205 H 0.41688 0.20142 0.65105
 H206 H 0.50752 0.27385 0.71770
 H207 H 0.51380 0.32314 0.80973
 H208 H 0.45616 0.34298 0.59691
 H209 H 0.44638 0.29118 0.51064
 H210 H 0.53226 0.19055 0.32425
 C211 C 0.74645 0.24476 0.52981
 C212 C 0.74898 0.24491 0.43403
 C213 C 0.72123 0.21692 0.37481
 C214 C 0.78068 0.27216 0.38555
 C215 C 0.77526 0.27160 0.58888
 C216 C 0.71589 0.21652 0.57929
 C217 C 0.72905 0.19518 0.31961
 C218 C 0.70253 0.16706 0.26905
 C219 C 0.66770 0.16003 0.27328
 C220 C 0.66022 0.18285 0.32528
 C221 C 0.68683 0.21110 0.37531
 C222 C 0.81220 0.27155 0.38817
 C223 C 0.84287 0.29899 0.34947
 C224 C 0.84247 0.32765 0.30882
 C225 C 0.81085 0.32810 0.30627
 C226 C 0.78002 0.30026 0.34303
 C227 C 0.78541 0.30697 0.58114
 C228 C 0.81526 0.33252 0.62811
 C229 C 0.83539 0.32332 0.68521
 C230 C 0.82387 0.28745 0.69660
 C231 C 0.79412 0.26196 0.64872
 C232 C 0.68904 0.22210 0.61260
 C233 C 0.65906 0.19484 0.65447
 C234 C 0.65620 0.16210 0.66659
 C235 C 0.68345 0.15674 0.63448
 C236 C 0.71299 0.18374 0.59035
 H237 H 0.75552 0.19942 0.31772
 H238 H 0.70906 0.15018 0.22851
 H239 H 0.63400 0.17915 0.32712
 H240 H 0.68052 0.22827 0.41517
 H241 H 0.81311 0.25015 0.42183
 H242 H 0.86707 0.29832 0.35395
 H243 H 0.75589 0.30118 0.34145
 H244 H 0.77076 0.31484 0.53658
 H245 H 0.82296 0.35972 0.61822
 H246 H 0.83806 0.27859 0.73919
 H247 H 0.78659 0.23471 0.65558
 H248 H 0.69097 0.24730 0.60393
 H249 H 0.63822 0.19935 0.67823
 H250 H 0.68150 0.13148 0.64146
 H251 H 0.73347 0.17908 0.56421
 H252 H 0.81005 0.35002 0.27568
 N253 N 0.96304 0.51544 0.08341
 N254 N 0.93475 0.51814 0.09452
 N255 N 1.04012 0.53843 0.14128
 N256 N 1.06597 0.55912 0.19902
 N257 N 1.03652 0.55683 0.07447
 N258 N 1.05945 0.59040 0.08559
 N259 N 0.96607 0.49755 0.15252
 N260 N 0.93998 0.48813 0.21371
 C261 C 0.92073 0.50126 0.17610
 C262 C 1.07786 0.59142 0.16267
 N263 N 1.04653 0.45565 0.07862
 N264 N 1.07472 0.45264 0.08564
 N265 N 0.97133 0.43471 0.15596
 N266 N 0.94465 0.41727 0.21420
 N267 N 0.97280 0.41348 0.09274
 N268 N 0.94745 0.38101 0.10704
 N269 N 1.04517 0.47500 0.14778
 N270 N 1.07172 0.48413 0.20689
 Mn271 Mn 1.00572 0.48648 0.15096
 C272 C 1.09006 0.47021 0.16605
 C273 C 0.93017 0.38379 0.18286
 N274 N 1.03303 0.55251 -0.12971
 N275 N 1.05882 0.58471 -0.14633
 N276 N 0.95964 0.48921 -0.18139
 N277 N 0.93114 0.47525 -0.23398
 N278 N 0.95909 0.51096 -0.11866
 N279 N 0.93001 0.51248 -0.12702
 N280 N 1.03303 0.53068 -0.19326
 N281 N 1.05881 0.54721 -0.25429
 Mn282 Mn 0.99795 0.53432 -0.02258
 C283 C 1.07453 0.58084 -0.22465
 C284 C 0.91296 0.48999 -0.19942
 N285 N 0.96811 0.40890 -0.11042
 N286 N 0.94138 0.37643 -0.11337
 N287 N 1.03832 0.46911 -0.18931
 N288 N 1.06518 0.48175 -0.24799
 N289 N 1.04202 0.45094 -0.12256
 N290 N 1.07179 0.45088 -0.13361
 N291 N 0.96497 0.42767 -0.17660
 N292 N 0.93607 0.40870 -0.22593
 Mn293 Mn 1.00742 0.43190 -0.01530
 Mn294 Mn 0.99895 0.47913 -0.18596
 Cl295 Cl 1.00256 0.48300 -0.01784
 C296 C 0.92168 0.37678 -0.18600
 C297 C 1.08573 0.47010 -0.21253
 N298 N 0.55604 0.59281 0.12794
 N299 N 0.55708 0.62296 0.14077
 N300 N 0.57567 0.53645 0.17955
 N301 N 0.59363 0.52568 0.22950
 N302 N 0.59605 0.55932 0.11649
 N303 N 0.62841 0.56497 0.12215
 N304 N 0.53524 0.56991 0.19040
 N305 N 0.52135 0.58367 0.24678
 C306 C 0.53547 0.61683 0.21575
 C307 C 0.62654 0.54389 0.19297
 N308 N 0.49088 0.44865 0.10904
 N309 N 0.48530 0.41663 0.12178
 N310 N 0.47179 0.50299 0.18521
 N311 N 0.45394 0.50998 0.24827
 N312 N 0.45086 0.48236 0.11825
 N313 N 0.41812 0.47474 0.13415
 N314 N 0.51186 0.46988 0.17497
 N315 N 0.52110 0.45314 0.23396
 Mn316 Mn 0.52370 0.51984 0.18353
 C317 C 0.50461 0.42009 0.19988
 C318 C 0.42057 0.49226 0.21564
 N319 N 0.59561 0.56230 -0.08638
 N320 N 0.62823 0.56950 -0.10098
 N321 N 0.53540 0.57530 -0.14195
 N322 N 0.52641 0.59294 -0.19885
 N323 N 0.55609 0.59579 -0.07462
 N324 N 0.56194 0.62790 -0.08391
 N325 N 0.57465 0.54094 -0.15214
 N326 N 0.59226 0.53258 -0.21243
 Mn327 Mn 0.57628 0.57791 0.02103
 C328 C 0.62562 0.55067 -0.17961
 C329 C 0.54310 0.62568 -0.16121
 N330 N 0.45060 0.48511 -0.08692
 N331 N 0.41759 0.47616 -0.10446
 N332 N 0.51023 0.47416 -0.16020
 N333 N 0.51433 0.45775 -0.23338
 N334 N 0.49054 0.45163 -0.09533
 N335 N 0.48138 0.41945 -0.12195
 N336 N 0.47178 0.50865 -0.14770
 N337 N 0.45414 0.51681 -0.20675
 Mn338 Mn 0.47032 0.46651 0.01134
 Mn339 Mn 0.52308 0.52482 -0.15135
 Cl340 Cl 0.52327 0.52215 0.01603
 C341 C 0.42049 0.49643 -0.17920
 C342 C 0.49684 0.42380 -0.20753
 N343 N 0.40987 -0.03714 0.07200
 N344 N 0.37719 -0.06341 0.07763
 N345 N 0.46513 0.03527 0.15329
 N346 N 0.47146 0.06014 0.21600
 N347 N 0.44604 0.03612 0.08352
 N348 N 0.43843 0.06110 0.09747
 N349 N 0.42899 -0.03857 0.14087
 N350 N 0.40984 -0.06593 0.19483
 C351 C 0.37760 -0.08121 0.15424
 C352 C 0.45462 0.07601 0.17990
 N353 N 0.55435 0.03805 0.10541
 N354 N 0.58552 0.06544 0.12378
 N355 N 0.49537 -0.03758 0.15496
 N356 N 0.48639 -0.06448 0.21153
 N357 N 0.51871 -0.03529 0.09281
 N358 N 0.52597 -0.06043 0.10429
 N359 N 0.53093 0.03613 0.16679
 N360 N 0.54551 0.06218 0.22842
 Mn361 Mn 0.48000 -0.00130 0.15537
 C362 C 0.57955 0.08015 0.20090
 C363 C 0.50571 -0.07848 0.17807
 N364 N 0.45326 0.04037 -0.12039
 N365 N 0.44906 0.06765 -0.13362
 N366 N 0.44016 -0.03232 -0.19008
 N367 N 0.42593 -0.05962 -0.24764
 N368 N 0.41657 -0.03325 -0.13110
 N369 N 0.38546 -0.06099 -0.14790
 N370 N 0.47660 0.04108 -0.17995
 N371 N 0.48916 0.06870 -0.23432
 Mn372 Mn 0.43106 0.00159 -0.02405
 C373 C 0.47174 0.08492 -0.20532
 C374 C 0.39181 -0.07695 -0.22128
 N375 N 0.52510 -0.03197 -0.10864
 N376 N 0.52943 -0.05931 -0.11847
 N377 N 0.54195 0.04224 -0.16669
 N378 N 0.56141 0.06810 -0.22471
 N379 N 0.56112 0.04139 -0.09741
 N380 N 0.59424 0.06626 -0.10690
 N381 N 0.50538 -0.03140 -0.17684
 N382 N 0.49544 -0.05837 -0.23436
 Mn383 Mn 0.54016 0.00312 -0.00172
 Mn384 Mn 0.49100 0.00490 -0.17929
 Cl385 Cl 0.48554 0.00210 -0.01221
 C386 C 0.51084 -0.07533 -0.19760
 C387 C 0.59389 0.08295 -0.18590
 C388 C 1.12575 0.46957 0.29714
 C389 C 1.12071 0.47251 0.20091
 H390 H 1.10358 0.46289 0.34369
 H391 H 1.13705 0.46863 0.15031
 C392 C 0.54569 0.67632 0.24223
 C393 C 0.52622 0.64188 0.25613
 H394 H 0.57000 0.68681 0.20251
 H395 H 0.50363 0.63173 0.30276
 C396 C 0.34819 -0.13232 0.25858
 C397 C 0.34618 -0.11258 0.19019
 H398 H 0.37419 -0.12516 0.28402
 H399 H 0.32149 -0.11912 0.15770
 C400 C 0.88302 0.49916 0.30823
 C401 C 0.88806 0.49761 0.21556
 H402 H 0.90354 0.50298 0.35707
 H403 H 0.86941 0.49773 0.16622
 C404 C 0.48861 0.35832 0.22018
 C405 C 0.50642 0.39181 0.24821
 H406 H 0.47195 0.35132 0.15829
 H407 H 0.52173 0.39914 0.31247
 C408 C 0.64006 0.12888 0.22257
 C409 C 0.60630 0.11197 0.24946
 H410 H 0.64819 0.11841 0.16439
 H411 H 0.59785 0.12083 0.31038
 C412 C 0.45709 0.13094 -0.23945
 C413 C 0.47859 0.11782 -0.24769
 H414 H 0.43305 0.11624 -0.19910
 H415 H 0.50121 0.12959 -0.29367
 C416 C 0.65086 0.52154 -0.27131
 C417 C 0.65547 0.54986 -0.22333
 H418 H 0.62468 0.49868 -0.27238
 H419 H 0.68138 0.57188 -0.20963
 C420 C 0.86672 0.35048 -0.27537
 C421 C 0.88828 0.34640 -0.21679
 H422 H 0.87417 0.37698 -0.29488
 H423 H 0.88196 0.32118 -0.18976
 C424 C 0.52914 -0.11875 -0.22380
 C425 C 0.50618 -0.10799 -0.23810
 H426 H 0.55272 -0.10274 -0.18278
 H427 H 0.48451 -0.12228 -0.28669
 C428 C 0.35958 0.46893 -0.23696
 C429 C 0.39148 0.49712 -0.22711
 H430 H 0.35440 0.44404 -0.20918
 H431 H 0.39784 0.52101 -0.26348
 C432 C 1.11784 0.64285 -0.25531
 C433 C 1.10578 0.60875 -0.27163
 H434 H 1.10310 0.64982 -0.20683
 H435 H 1.11746 0.60010 -0.32489
 C436 C 0.86422 0.50143 -0.21653
 C437 C 0.87935 0.48262 -0.23958
 H438 H 0.87717 0.52207 -0.16402
 H439 H 0.86907 0.46302 -0.29489
 C440 C 0.49236 0.36714 -0.23572
 C441 C 0.49155 0.39482 -0.26992
 H442 H 0.49983 0.36823 -0.16228
 H443 H 0.48915 0.39758 -0.34491
 C444 C 0.62419 0.13352 -0.29007
 C445 C 0.62568 0.11191 -0.22760
 H446 H 0.59912 0.13123 -0.30675
 H447 H 0.65091 0.11596 -0.20467
 C448 C 1.14067 0.46880 -0.21616
 C449 C 1.11922 0.47820 -0.25540
 H450 H 1.13314 0.45434 -0.15066
 H451 H 1.12547 0.49113 -0.32307
 C452 C 0.52148 0.65312 -0.27185
 C453 C 0.54265 0.65601 -0.20033
 H454 H 0.50332 0.62706 -0.29848
 H455 H 0.55990 0.68079 -0.16649
 C456 C 0.33214 -0.11970 -0.27274
 C457 C 0.36590 -0.11069 -0.26227
 H458 H 0.32471 -0.10035 -0.25512
 H459 H 0.37584 -0.12682 -0.29085
 C460 C 0.49222 -0.12423 0.29761
 C461 C 0.50697 -0.10854 0.21620
 H462 H 0.47588 -0.11649 0.33640
 H463 H 0.52192 -0.11729 0.17493
 C464 C 0.35773 0.47405 0.23577
 C465 C 0.39120 0.49262 0.26482
 H466 H 0.35139 0.45696 0.17462
 H467 H 0.39769 0.50818 0.32891
 C468 C 1.12966 0.62577 0.26358
 C469 C 1.10531 0.62431 0.20489
 H470 H 1.13080 0.60232 0.27741
 H471 H 1.10604 0.64819 0.18452
 C472 C 0.47656 0.12669 0.28795
 C473 C 0.45294 0.10535 0.22440
 H474 H 0.49849 0.12318 0.30577
 H475 H 0.43279 0.11059 0.20002
 C476 C 0.65355 0.51612 0.28240
 C477 C 0.65691 0.54125 0.22424
 H478 H 0.62745 0.49627 0.30455
 H479 H 0.68238 0.56001 0.19606
 C480 C 0.87485 0.35779 0.27165
 C481 C 0.89886 0.35386 0.22347
 H482 H 0.87786 0.38359 0.27886
 H483 H 0.89448 0.32791 0.20828
   
