data_POSCAR
  _audit_creation_date              2014-09-24
  _audit_creation_method            'ToBaCCo'
  _symmetry_space_group_name_H-M    'P1'
  _symmetry_Int_Tables_number       1
  _symmetry_cell_setting            triclinic
  loop_
  _symmetry_equiv_pos_as_xyz
 x,y,z
_cell_length_a 38.4505
_cell_length_b 30.2578
_cell_length_c 24.7281
_cell_angle_alpha 89.992000
_cell_angle_beta 90.028600
_cell_angle_gamma 89.988300
loop_
  _atom_site_label
  _atom_site_type_symbol
  _atom_site_fract_x
  _atom_site_fract_y
  _atom_site_fract_z
C1 C 0.21918 0.22425 0.23080
 C2 C 0.21985 0.27136 0.23153
 C3 C 0.24606 0.29338 0.26006
 C4 C 0.27253 0.27067 0.28718
 C5 C 0.27348 0.22361 0.28556
 C6 C 0.24635 0.20163 0.25777
 H7 H 0.24644 0.16588 0.25702
 H8 H 0.24608 0.32927 0.26072
 C9 C 0.77913 0.27545 0.22730
 C10 C 0.77798 0.22828 0.22525
 C11 C 0.75149 0.20545 0.25245
 C12 C 0.72560 0.22757 0.28159
 C13 C 0.72612 0.27425 0.28345
 C14 C 0.75252 0.29731 0.25634
 H15 H 0.75201 0.33309 0.25841
 H16 H 0.75102 0.16962 0.25077
 C17 C 0.72755 0.72498 0.71356
 C18 C 0.72824 0.77165 0.71124
 C19 C 0.75479 0.79483 0.73769
 C20 C 0.78138 0.77318 0.76696
 C21 C 0.78010 0.72604 0.76985
 C22 C 0.75354 0.70302 0.74290
 H23 H 0.75307 0.66721 0.74507
 H24 H 0.75429 0.83060 0.73515
 C25 C 0.27498 0.77323 0.71925
 C26 C 0.27273 0.72672 0.71538
 C27 C 0.24584 0.70439 0.74203
 C28 C 0.22093 0.72676 0.77375
 C29 C 0.22250 0.77390 0.77604
 C30 C 0.24982 0.79594 0.74947
 H31 H 0.25093 0.83173 0.75081
 H32 H 0.24558 0.66858 0.73979
 O33 O 1.03224 -0.05467 -0.00500
 O34 O 0.96492 0.01104 0.06377
 O35 O 0.96554 -0.05467 -0.00492
 O36 O 1.03291 0.01028 0.06466
 O37 O 1.03113 0.06010 -0.00060
 O38 O 0.96662 -0.00770 -0.07335
 O39 O 0.96370 0.05742 -0.00523
 O40 O 1.03467 -0.00476 -0.07018
 Cu41 Cu 0.99889 -0.02664 0.03663
 Cu42 Cu 0.99914 0.03106 -0.04417
 C43 C 1.04490 -0.04083 -0.04925
 C44 C 0.95254 0.04510 0.04065
 C45 C 0.95507 -0.04269 -0.05134
 C46 C 1.04314 0.04652 0.04426
 O47 O 0.53252 0.55481 0.49829
 O48 O 0.46506 0.48604 0.43419
 O49 O 0.46455 0.55452 0.49753
 O50 O 0.53256 0.48685 0.43354
 O51 O 0.53277 0.44229 0.50433
 O52 O 0.46553 0.51102 0.56929
 O53 O 0.46461 0.44241 0.50585
 O54 O 0.53311 0.51009 0.56893
 Cu55 Cu 0.49868 0.52506 0.45881
 Cu56 Cu 0.49903 0.47191 0.54417
 C57 C 0.54440 0.54403 0.54441
 C58 C 0.45318 0.45271 0.45933
 C59 C 0.45347 0.54432 0.54424
 C60 C 0.54421 0.45305 0.45796
 O61 O -0.03370 0.55868 0.00524
 O62 O 0.03426 0.49302 0.07353
 O63 O 0.03428 0.56030 0.00702
 O64 O -0.03347 0.49295 0.07267
 O65 O -0.03158 0.44568 0.00464
 O66 O 0.03516 0.51392 -0.06195
 O67 O 0.03589 0.44743 0.00377
 O68 O -0.03260 0.51209 -0.06351
 Cu69 Cu 0.00030 0.53096 0.04650
 Cu70 Cu 0.00168 0.47519 -0.03625
 C71 C -0.04475 0.54639 -0.04078
 C72 C 0.04664 0.45908 0.05015
 C73 C 0.04628 0.54852 -0.03860
 C74 C -0.04383 0.45768 0.05004
 O75 O 0.46757 1.05500 0.49982
 O76 O 0.53460 0.98625 0.56509
 O77 O 0.53508 1.05411 0.50045
 O78 O 0.46699 0.98755 0.56580
 O79 O 0.46743 0.94137 0.49659
 O80 O 0.53358 1.01016 0.42913
 O81 O 0.53525 0.94232 0.49373
 O82 O 0.46576 1.00848 0.43101
 Cu83 Cu 0.50107 1.02525 0.53986
 Cu84 Cu 0.50045 0.97102 0.45556
 C85 C 0.45512 1.04325 0.45447
 C86 C 0.54657 0.95283 0.54022
 C87 C 0.54575 1.04369 0.45359
 C88 C 0.45582 0.95294 0.54254
 C89 C 1.14286 0.14939 0.15511
 N90 N 1.16871 0.12971 0.18354
 N91 N 1.19305 0.15393 0.20784
 C92 C 1.19261 0.19891 0.20524
 N93 N 1.16612 0.21821 0.17754
 N94 N 1.14194 0.19412 0.15266
 C95 C 1.11670 0.12274 0.12672
 N96 N 1.09698 0.14084 0.08690
 N97 N 1.07369 0.11646 0.06039
 C98 C 1.06905 0.07321 0.07308
 N99 N 1.08862 0.05517 0.11313
 N100 N 1.11218 0.07943 0.13924
 C101 C 0.64949 0.64763 0.64157
 N102 N 0.66226 0.63715 0.69113
 N103 N 0.68693 0.66184 0.71394
 C104 C 0.69966 0.69810 0.68824
 N105 N 0.68714 0.70808 0.63840
 N106 N 0.66247 0.68348 0.61555
 C107 C 0.62215 0.62069 0.61637
 N108 N 0.60926 0.63158 0.56700
 N109 N 0.58445 0.60721 0.54408
 C110 C 0.57161 0.57105 0.56971
 N111 N 0.58449 0.56016 0.61909
 N112 N 0.60930 0.58454 0.64202
 C113 C -0.14471 0.35220 0.15440
 N114 N -0.16989 0.37103 0.18505
 N115 N -0.19422 0.34619 0.20842
 C116 C -0.19440 0.30141 0.20263
 N117 N -0.16864 0.28293 0.17259
 N118 N -0.14447 0.30766 0.14867
 C119 C -0.11840 0.37957 0.12740
 N120 N -0.09898 0.36282 0.08639
 N121 N -0.07540 0.38781 0.06143
 C122 C -0.07016 0.43033 0.07692
 N123 N -0.08946 0.44702 0.11811
 N124 N -0.11329 0.42217 0.14269
 C125 C 0.35292 0.84923 0.64483
 N126 N 0.34044 0.86043 0.69430
 N127 N 0.31595 0.83603 0.71800
 C128 C 0.30311 0.79936 0.69332
 N129 N 0.31544 0.78856 0.64365
 N130 N 0.33994 0.81286 0.61991
 C131 C 0.37977 0.87613 0.61840
 N132 N 0.39227 0.86462 0.56903
 N133 N 0.41652 0.88908 0.54486
 C134 C 0.42913 0.92597 0.56917
 N135 N 0.41664 0.93749 0.61855
 N136 N 0.39240 0.91301 0.64273
 C137 C -0.14748 0.64734 -0.14792
 N138 N -0.16839 0.67554 -0.12021
 N139 N -0.19157 0.70050 -0.14620
 C140 C -0.19420 0.69873 -0.20094
 N141 N -0.17383 0.66985 -0.22849
 N142 N -0.15084 0.64468 -0.20247
 C143 C -0.12129 0.62057 -0.11961
 N144 N -0.10406 0.58790 -0.14603
 N145 N -0.07987 0.56407 -0.12075
 C146 C -0.07182 0.57226 -0.06825
 N147 N -0.08901 0.60497 -0.04182
 N148 N -0.11338 0.62861 -0.06700
 C149 C 0.35136 1.14745 0.35518
 N150 N 0.35123 1.19192 0.36144
 N151 N 0.32646 1.21643 0.33867
 C152 C 0.30044 1.19778 0.30930
 N153 N 0.30096 1.15304 0.30308
 N154 N 0.32589 1.12843 0.32529
 C155 C 0.37842 1.12039 0.38079
 N156 N 0.38392 1.07809 0.36460
 N157 N 0.40849 1.05356 0.38793
 C158 C 0.42814 1.07028 0.42871
 N159 N 0.42251 1.11249 0.44509
 N160 N 0.39820 1.13718 0.42136
 C161 C 1.14587 -0.14495 -0.15444
 N162 N 1.13695 -0.18373 -0.17819
 N163 N 1.16113 -0.20932 -0.20072
 C164 C 1.19528 -0.19790 -0.19871
 N165 N 1.20398 -0.15855 -0.17586
 N166 N 1.17975 -0.13251 -0.15425
 C167 C 1.11946 -0.11763 -0.12798
 N168 N 1.12163 -0.07284 -0.12900
 N169 N 1.09767 -0.04818 -0.10436
 C170 C 1.07117 -0.06753 -0.07689
 N171 N 1.06920 -0.11229 -0.07552
 N172 N 1.09275 -0.13690 -0.10101
 C173 C 0.64909 0.35070 0.35843
 N174 N 0.66843 0.32180 0.38776
 N175 N 0.69291 0.29742 0.36402
 C176 C 0.69858 0.30049 0.30999
 N177 N 0.67971 0.33004 0.28087
 N178 N 0.65536 0.35462 0.30462
 C179 C 0.62187 0.37729 0.38443
 N180 N 0.60556 0.41000 0.35668
 N181 N 0.58084 0.43413 0.38018
 C182 C 0.57135 0.42624 0.43217
 N183 N 0.58758 0.39344 0.45990
 N184 N 0.61244 0.36946 0.43648
 C185 C 0.85714 -0.14916 -0.16063
 N186 N 0.85744 -0.19365 -0.15425
 N187 N 0.83348 -0.21871 -0.17815
 C188 C 0.80783 -0.20059 -0.20877
 N189 N 0.80801 -0.15588 -0.21534
 N190 N 0.83214 -0.13072 -0.19200
 C191 C 0.88287 -0.12147 -0.13287
 N192 N 0.88823 -0.07894 -0.14834
 N193 N 0.91137 -0.05378 -0.12257
 C194 C 0.92960 -0.07011 -0.07998
 N195 N 0.92410 -0.11255 -0.06440
 N196 N 0.90127 -0.13783 -0.09053
 C197 C 0.34777 0.34985 0.36202
 N198 N 0.32671 0.32356 0.39216
 N199 N 0.30258 0.29849 0.36854
 C200 C 0.29910 0.29828 0.31388
 N201 N 0.31966 0.32524 0.28389
 N202 N 0.34359 0.35052 0.30752
 C203 C 0.37489 0.37683 0.38767
 N204 N 0.39221 0.40790 0.35865
 N205 N 0.41709 0.43213 0.38157
 C206 C 0.42578 0.42591 0.43423
 N207 N 0.40853 0.39475 0.46325
 N208 N 0.38347 0.37072 0.44042
 C209 C 0.14988 0.65044 -0.14204
 N210 N 0.16604 0.63449 -0.18667
 N211 N 0.18907 0.65908 -0.21329
 C212 C 0.19663 0.70095 -0.19701
 N213 N 0.18106 0.71625 -0.15132
 N214 N 0.15806 0.69163 -0.12449
 C215 C 0.12342 0.62378 -0.11426
 N216 N 0.10838 0.63818 -0.06780
 N217 N 0.08387 0.61417 -0.04346
 C218 C 0.07341 0.57503 -0.06490
 N219 N 0.08847 0.56069 -0.11132
 N220 N 0.11303 0.58459 -0.13550
 C221 C 0.64876 1.14901 0.35418
 N222 N 0.65896 1.14136 0.30248
 N223 N 0.68316 1.16661 0.27940
 C224 C 0.69790 1.20063 0.30700
 N225 N 0.68805 1.20770 0.35894
 N226 N 0.66382 1.18256 0.38203
 C227 C 0.62199 1.12148 0.37980
 N228 N 0.61100 1.13053 0.43075
 N229 N 0.58669 1.10572 0.45417
 C230 C 0.57252 1.07088 0.42754
 N231 N 0.58352 1.06176 0.37657
 N232 N 0.60781 1.08664 0.35310
 C233 C 0.14815 0.35390 0.15363
 N234 N 0.16861 0.32612 0.12452
 N235 N 0.19144 0.29980 0.14917
 C236 C 0.19414 0.29973 0.20393
 N237 N 0.17421 0.32817 0.23295
 N238 N 0.15156 0.35470 0.20826
 C239 C 0.12238 0.38207 0.12656
 N240 N 0.10535 0.41422 0.15428
 N241 N 0.08146 0.43915 0.12986
 C242 C 0.07358 0.43260 0.07694
 N243 N 0.09060 0.40046 0.04927
 N244 N 0.11465 0.37575 0.07357
 C245 C 0.65133 0.84912 0.63784
 N246 N 0.67197 0.82250 0.60749
 N247 N 0.69639 0.79766 0.63072
 C248 C 0.70059 0.79793 0.68521
 N249 N 0.68040 0.82518 0.71545
 N250 N 0.65615 0.85025 0.69221
 C251 C 0.62425 0.87625 0.61237
 N252 N 0.60726 0.90773 0.64122
 N253 N 0.58260 0.93227 0.61816
 C254 C 0.57385 0.92598 0.56553
 N255 N 0.59076 0.89442 0.53672
 N256 N 0.61559 0.87008 0.55967
 C257 C 0.85001 0.14776 0.14520
 N258 N 0.84658 0.14595 0.19978
 N259 N 0.82381 0.17184 0.22511
 C260 C 0.80375 0.20063 0.19682
 N261 N 0.80646 0.20158 0.14208
 N262 N 0.82943 0.17590 0.11677
 C263 C 0.87595 0.12024 0.11760
 N264 N 0.88394 0.12753 0.06489
 N265 N 0.90823 0.10341 0.04031
 C266 C 0.92525 0.07093 0.06745
 N267 N 0.91709 0.06341 0.12005
 N268 N 0.89297 0.08774 0.14474
 C269 C 0.34868 0.64806 0.64164
 N270 N 0.34437 0.64758 0.69611
 N271 N 0.32030 0.67286 0.71940
 C272 C 0.29975 0.69964 0.68909
 N273 N 0.30342 0.69927 0.63451
 N274 N 0.32767 0.67422 0.61122
 C275 C 0.37574 0.62090 0.61618
 N276 N 0.38413 0.62671 0.56334
 N277 N 0.40901 0.60242 0.54047
 C278 C 0.42625 0.57127 0.56954
 N279 N 0.41777 0.56535 0.62232
 N280 N 0.39306 0.58985 0.64529
   
