data_POSCAR
  _audit_creation_date              2014-09-24
  _audit_creation_method            'ToBaCCo'
  _symmetry_space_group_name_H-M    'P1'
  _symmetry_Int_Tables_number       1
  _symmetry_cell_setting            triclinic
  loop_
  _symmetry_equiv_pos_as_xyz
 x,y,z
_cell_length_a 39.5314
_cell_length_b 40.7939
_cell_length_c 38.1505
_cell_angle_alpha 90.777700
_cell_angle_beta 89.650800
_cell_angle_gamma 89.532100
loop_
  _atom_site_label
  _atom_site_type_symbol
  _atom_site_fract_x
  _atom_site_fract_y
  _atom_site_fract_z
C1 C 0.69991 0.61707 0.95987
 H2 H 0.70991 0.59728 0.94376
 C3 C 0.67316 0.63597 0.94738
 H4 H 0.66307 0.63008 0.92182
 C5 C 0.70148 0.64881 1.01225
 H6 H 0.71308 0.65399 1.03729
 C7 C 0.67466 0.66840 1.00075
 H8 H 0.66547 0.68833 1.01735
 N9 N 0.71315 0.62335 0.99204
 C10 C 0.79810 0.61693 1.05700
 H11 H 0.78933 0.59632 1.07196
 C12 C 0.82457 0.63600 1.06973
 H13 H 0.83566 0.62984 1.09465
 C14 C 0.79414 0.64966 1.00630
 H15 H 0.78213 0.65463 0.98150
 C16 C 0.82050 0.66947 1.01812
 H17 H 0.82875 0.68970 1.00219
 Zn18 Zn 0.74905 0.59667 1.00850
 N19 N 0.78375 0.62383 1.02565
 C20 C 0.79694 0.57448 0.95700
 N21 N 0.76585 0.56946 0.97138
 C22 C 0.74649 0.54370 0.96101
 C23 C 0.75874 0.52102 0.93628
 C24 C 0.80980 0.55283 0.93140
 C25 C 0.70992 0.58018 1.06855
 C26 C 0.69665 0.55910 1.09362
 C27 C 0.73275 0.51588 1.07033
 C28 C 0.74569 0.53797 1.04622
 N29 N 0.73342 0.56916 1.04495
 H30 H 0.81205 0.59493 0.96570
 H31 H 0.72185 0.54024 0.97284
 H32 H 0.74339 0.50016 0.92902
 H33 H 0.83481 0.55681 0.92062
 H34 H 0.70089 0.60517 1.06762
 H35 H 0.67752 0.56870 1.11143
 H36 H 0.74253 0.49099 1.06991
 H37 H 0.76529 0.52994 1.02813
 C38 C 0.83632 0.66250 1.05005
 C39 C 0.65994 0.66187 0.96803
 C40 C 0.70730 0.52602 1.09420
 C41 C 0.79081 0.52541 0.92134
 C42 C 0.70577 0.33614 0.51132
 H43 H 0.72400 0.32409 0.49428
 C44 C 0.68093 0.31756 0.52757
 H45 H 0.68079 0.29128 0.52320
 C46 C 0.68294 0.38494 0.53656
 H47 H 0.68401 0.41129 0.53987
 C48 C 0.65725 0.36727 0.55301
 H49 H 0.63872 0.38015 0.56914
 N50 N 0.70687 0.36912 0.51668
 C51 C 0.78537 0.37297 0.43934
 H52 H 0.77408 0.39257 0.42451
 C53 C 0.81329 0.35569 0.42555
 H54 H 0.82293 0.36166 0.39981
 C55 C 0.78863 0.34304 0.49205
 H56 H 0.77991 0.33932 0.51862
 C57 C 0.81574 0.32450 0.47887
 H58 H 0.82746 0.30622 0.49528
 Zn59 Zn 0.74152 0.39395 0.49531
 N60 N 0.77380 0.36650 0.47219
 C61 C 0.76181 0.41581 0.56421
 N62 N 0.76685 0.41730 0.52895
 C63 C 0.79282 0.43459 0.51515
 C64 C 0.81470 0.45181 0.53687
 C65 C 0.78330 0.43275 0.58709
 C66 C 0.70481 0.41227 0.43514
 C67 C 0.68822 0.43391 0.41270
 C68 C 0.70468 0.47879 0.45066
 C69 C 0.72101 0.45639 0.47222
 N70 N 0.72096 0.42382 0.46411
 H71 H 0.74148 0.40125 0.57465
 H72 H 0.79653 0.43487 0.48704
 H73 H 0.83511 0.46549 0.52513
 H74 H 0.77893 0.43144 0.61505
 H75 H 0.70466 0.38619 0.42960
 H76 H 0.67545 0.42416 0.38989
 H77 H 0.70493 0.50457 0.45779
 H78 H 0.73313 0.46508 0.49583
 C79 C 0.82883 0.33126 0.44558
 C80 C 0.65637 0.33305 0.54887
 C81 C 0.68795 0.46770 0.42048
 C82 C 0.81014 0.45109 0.57333
 C83 C 0.21507 -0.17108 0.02470
 H84 H 0.23491 -0.18403 0.01058
 C85 C 0.19050 -0.18889 0.04260
 H86 H 0.19185 -0.21542 0.04220
 C87 C 0.18874 -0.12103 0.04197
 H88 H 0.18818 -0.09458 0.04175
 C89 C 0.16358 -0.13783 0.05997
 H90 H 0.14407 -0.12385 0.07357
 N91 N 0.21416 -0.13771 0.02528
 C92 C 0.29522 -0.13578 -0.04681
 H93 H 0.28278 -0.11801 -0.06317
 C94 C 0.32318 -0.15323 -0.05988
 H95 H 0.33160 -0.14874 -0.08639
 C96 C 0.29953 -0.16267 0.00763
 H97 H 0.29044 -0.16590 0.03416
 C98 C 0.32753 -0.18075 -0.00443
 H99 H 0.33979 -0.19783 0.01298
 Zn100 Zn 0.24919 -0.11268 0.00473
 N101 N 0.28438 -0.14023 -0.01334
 C102 C 0.29753 -0.08950 0.05438
 N103 N 0.26697 -0.08367 0.03933
 C104 C 0.24935 -0.05552 0.04651
 C105 C 0.26291 -0.03145 0.06847
 C106 C 0.31159 -0.06645 0.07727
 C107 C 0.20303 -0.09507 -0.04918
 C108 C 0.18897 -0.07400 -0.07397
 C109 C 0.23372 -0.03554 -0.06188
 C110 C 0.24744 -0.05777 -0.03836
 N111 N 0.23151 -0.08643 -0.03168
 H112 H 0.31154 -0.11160 0.04823
 H113 H 0.22539 -0.05102 0.03390
 H114 H 0.24903 -0.00879 0.07308
 H115 H 0.33621 -0.07125 0.08847
 H116 H 0.19092 -0.11810 -0.04353
 H117 H 0.16603 -0.08150 -0.08703
 H118 H 0.24665 -0.01253 -0.06574
 H119 H 0.27043 -0.05171 -0.02460
 C120 C 0.34014 -0.17558 -0.03833
 C121 C 0.16448 -0.17223 0.06079
 C122 C 0.20381 -0.04319 -0.08001
 C123 C 0.29446 -0.03679 0.08394
 C124 C 0.19549 0.11889 0.46241
 H125 H 0.20947 0.10247 0.44508
 C126 C 0.16906 0.13796 0.44903
 H127 H 0.16329 0.13623 0.42139
 C128 C 0.18577 0.14070 0.51944
 H129 H 0.19204 0.14137 0.54700
 C130 C 0.15943 0.16034 0.50715
 H131 H 0.14583 0.17616 0.52549
 N132 N 0.20331 0.12047 0.49712
 C133 C 0.29790 0.09952 0.55278
 H134 H 0.29976 0.07350 0.54767
 C135 C 0.32455 0.11548 0.56948
 H136 H 0.34627 0.10131 0.57775
 C137 C 0.26823 0.14974 0.54647
 H138 H 0.24706 0.16333 0.53626
 C139 C 0.29413 0.16663 0.56351
 H140 H 0.29214 0.19299 0.56673
 Zn141 Zn 0.23833 0.09266 0.51476
 N142 N 0.27047 0.11669 0.54150
 C143 C 0.28439 0.09652 0.46154
 N144 N 0.26342 0.07459 0.47673
 C145 C 0.26369 0.04242 0.46674
 C146 C 0.28678 0.03109 0.44118
 C147 C 0.30795 0.08627 0.43644
 C148 C 0.18786 0.06399 0.55717
 C149 C 0.17494 0.04228 0.58171
 C150 C 0.22644 0.01036 0.57656
 C151 C 0.23878 0.03319 0.55278
 N152 N 0.21956 0.05957 0.54369
 H153 H 0.28355 0.12196 0.46990
 H154 H 0.24656 0.02544 0.47896
 H155 H 0.28726 0.00536 0.43391
 H156 H 0.32487 0.10416 0.42531
 H157 H 0.17263 0.08469 0.54960
 H158 H 0.14984 0.04651 0.59245
 H159 H 0.24210 -0.01039 0.58366
 H160 H 0.26382 0.02985 0.54177
 C161 C 0.32297 0.14951 0.57474
 C162 C 0.15061 0.15902 0.47156
 C163 C 0.19445 0.01524 0.59184
 C164 C 0.30973 0.05315 0.42629
 C165 C 0.16462 0.51142 0.23185
 H166 H 0.17925 0.52586 0.25011
 C167 C 0.17976 0.49983 0.20085
 H168 H 0.20620 0.50491 0.19594
 C169 C 0.11214 0.48857 0.21511
 H170 H 0.08556 0.48492 0.22060
 C171 C 0.12632 0.47627 0.18398
 H172 H 0.11039 0.46306 0.16578
 N173 N 0.13145 0.50528 0.23858
 C174 C 0.13224 0.57410 0.32270
 H175 H 0.10953 0.58671 0.31456
 C176 C 0.15345 0.58893 0.34730
 H177 H 0.14716 0.61313 0.35750
 C178 C 0.16730 0.52669 0.32063
 H179 H 0.17202 0.50209 0.31075
 C180 C 0.18963 0.54094 0.34448
 H181 H 0.21167 0.52720 0.35276
 Zn182 Zn 0.10909 0.52238 0.27898
 N183 N 0.13954 0.54355 0.30983
 C184 C 0.07033 0.49817 0.33383
 N185 N 0.08765 0.48859 0.30452
 C186 C 0.08974 0.45638 0.29479
 C187 C 0.07277 0.43256 0.31411
 C188 C 0.05301 0.47527 0.35380
 C189 C 0.08871 0.57881 0.24415
 C190 C 0.06629 0.60128 0.22934
 C191 C 0.01982 0.57010 0.25273
 C192 C 0.04312 0.54827 0.26711
 N193 N 0.07685 0.55297 0.26260
 H194 H 0.06955 0.52383 0.34135
 H195 H 0.10446 0.44904 0.27203
 H196 H 0.07430 0.40719 0.30558
 H197 H 0.03887 0.48365 0.37666
 H198 H 0.11569 0.58169 0.24059
 H199 H 0.07634 0.62143 0.21450
 H200 H -0.00694 0.56568 0.25625
 H201 H 0.03415 0.52718 0.28112
 C202 C 0.18259 0.57229 0.35835
 C203 C 0.16060 0.48182 0.17657
 C204 C 0.03130 0.59688 0.23329
 C205 C 0.05372 0.44200 0.34383
 C206 C -0.15200 0.03553 0.19973
 H207 H -0.16045 0.02088 0.22143
 C208 C -0.17530 0.04587 0.17465
 H209 H -0.20157 0.03906 0.17763
 C210 C -0.10752 0.06147 0.16921
 H211 H -0.08085 0.06683 0.16685
 C212 C -0.12988 0.07245 0.14371
 H213 H -0.11981 0.08658 0.12234
 N214 N -0.11868 0.04292 0.19626
 C215 C -0.11845 -0.03018 0.24917
 H216 H -0.11791 -0.03543 0.22131
 C217 C -0.12912 -0.05415 0.27227
 H218 H -0.13695 -0.07776 0.26198
 C219 C -0.10690 0.00631 0.29642
 H220 H -0.09714 0.02956 0.30561
 C221 C -0.11825 -0.01687 0.32058
 H222 H -0.11717 -0.01135 0.34839
 Zn223 Zn -0.08559 0.02502 0.22704
 N224 N -0.10673 -0.00100 0.26148
 C225 C -0.03308 0.05420 0.26936
 N226 N -0.05998 0.05985 0.24796
 C227 C -0.06976 0.09104 0.24049
 C228 C -0.05119 0.11771 0.25247
 C229 C -0.01423 0.08051 0.28290
 C230 C -0.06743 -0.01148 0.16656
 C231 C -0.05613 -0.03976 0.14925
 C232 C -0.02358 -0.05367 0.20030
 C233 C -0.03578 -0.02502 0.21691
 N234 N -0.05821 -0.00510 0.20029
 H235 H -0.02610 0.02937 0.27583
 H236 H -0.09204 0.09555 0.22513
 H237 H -0.05915 0.14223 0.24547
 H238 H 0.00735 0.07578 0.29948
 H239 H -0.08598 0.00352 0.15375
 H240 H -0.06553 -0.04527 0.12324
 H241 H -0.00764 -0.07040 0.21469
 H242 H -0.02968 -0.02035 0.24408
 C243 C -0.12852 -0.04788 0.30843
 C244 C -0.16430 0.06417 0.14574
 C245 C -0.03511 -0.06189 0.16660
 C246 C -0.02291 0.11266 0.27366
 C247 C 0.36195 0.53374 0.74806
 H248 H 0.35213 0.53113 0.77427
 C249 C 0.34350 0.55194 0.72383
 H250 H 0.31983 0.56338 0.73185
 C251 C 0.40409 0.52192 0.70526
 H252 H 0.42721 0.50935 0.69773
 C253 C 0.38670 0.53999 0.68041
 H254 H 0.39700 0.54136 0.65415
 N255 N 0.39220 0.51992 0.73868
 C256 C 0.39390 0.45353 0.82007
 H257 H 0.40630 0.43488 0.80413
 C258 C 0.37460 0.44426 0.84903
 H259 H 0.37225 0.41847 0.85466
 C260 C 0.38202 0.50957 0.83197
 H261 H 0.38524 0.53506 0.82535
 C262 C 0.36229 0.50138 0.86103
 H263 H 0.35029 0.52073 0.87645
 Zn264 Zn 0.42090 0.49733 0.77018
 N265 N 0.39675 0.48571 0.81164
 C266 C 0.46229 0.53631 0.81447
 N267 N 0.45731 0.52582 0.78090
 C268 C 0.47420 0.53964 0.75374
 C269 C 0.49385 0.56744 0.75925
 C270 C 0.48211 0.56387 0.82124
 C271 C 0.40972 0.44155 0.73188
 C272 C 0.41637 0.41528 0.70929
 C273 C 0.47624 0.42515 0.71575
 C274 C 0.46835 0.45162 0.73830
 N275 N 0.43546 0.45931 0.74558
 H276 H 0.44925 0.52469 0.83585
 H277 H 0.47085 0.53046 0.72739
 H278 H 0.50527 0.57938 0.73698
 H279 H 0.48387 0.57310 0.84788
 H280 H 0.38382 0.44855 0.73777
 H281 H 0.39529 0.40188 0.69835
 H282 H 0.50244 0.41958 0.70961
 H283 H 0.48836 0.46648 0.74916
 C284 C 0.35804 0.46832 0.86965
 C285 C 0.35631 0.55580 0.68977
 C286 C 0.44990 0.40698 0.70056
 C287 C 0.49672 0.58071 0.79314
 C288 C 0.66578 0.95376 0.69019
 H289 H 0.67717 0.96457 0.71320
 C290 C 0.68646 0.94061 0.66363
 H291 H 0.71365 0.94101 0.66684
 C292 C 0.61678 0.94180 0.65707
 H293 H 0.58955 0.94297 0.65453
 C294 C 0.63652 0.92872 0.62972
 H295 H 0.62418 0.91940 0.60644
 N296 N 0.63160 0.95423 0.68640
 C297 C 0.62272 1.02640 0.76639
 H298 H 0.60687 1.04206 0.75070
 C299 C 0.63737 1.03903 0.79689
 H300 H 0.63293 1.06456 0.80356
 C301 C 0.64608 0.97390 0.77719
 H302 H 0.64848 0.94828 0.76984
 C303 C 0.66182 0.98565 0.80751
 H304 H 0.67660 0.96878 0.82300
 Zn305 Zn 0.60284 0.97642 0.71886
 N306 N 0.62716 0.99433 0.75721
 C307 C 0.54700 0.96115 0.75976
 N308 N 0.57088 0.94765 0.73812
 C309 C 0.57365 0.91458 0.73352
 C310 C 0.55171 0.89368 0.75126
 C311 C 0.52402 0.94129 0.77712
 C312 C 0.60389 1.03069 0.67713
 C313 C 0.59204 1.05659 0.65712
 C314 C 0.53479 1.04094 0.67125
 C315 C 0.54781 1.01482 0.69060
 N316 N 0.58188 1.01058 0.69361
 H317 H 0.54616 0.98742 0.76392
 H318 H 0.59348 0.90437 0.71696
 H319 H 0.55439 0.86739 0.74782
 H320 H 0.50520 0.95249 0.79431
 H321 H 0.63083 1.02652 0.67963
 H322 H 0.61012 1.07241 0.64446
 H323 H 0.50767 1.04423 0.66929
 H324 H 0.53065 0.99803 0.70299
 C325 C 0.65711 1.01854 0.81819
 C326 C 0.67189 0.92843 0.63264
 C327 C 0.55712 1.06219 0.65428
 C328 C 0.52654 0.90714 0.77331
 C329 C 0.04434 0.19772 -0.10876
 H330 H 0.06078 0.20929 -0.08985
 C331 C 0.05492 0.16893 -0.12608
 H332 H 0.07971 0.15890 -0.12057
 C333 C -0.00820 0.19632 -0.13828
 H334 H -0.03303 0.20687 -0.14240
 C335 C 0.00144 0.16777 -0.15636
 H336 H -0.01611 0.15663 -0.17456
 N337 N 0.01331 0.21089 -0.11532
 C338 C -0.02012 0.31267 -0.10703
 H339 H -0.01893 0.31544 -0.07882
 C340 C -0.03230 0.33838 -0.12717
 H341 H -0.03980 0.36104 -0.11418
 C342 C -0.01257 0.27919 -0.15776
 H343 H -0.00519 0.25600 -0.16955
 C344 C -0.02445 0.30444 -0.17901
 H345 H -0.02619 0.30033 -0.20704
 Zn346 Zn -0.00300 0.24865 -0.09104
 N347 N -0.01187 0.28336 -0.12232
 C348 C 0.05826 0.27668 -0.07138
 N349 N 0.02891 0.26452 -0.05834
 C350 C 0.02112 0.26724 -0.02367
 C351 C 0.04301 0.28344 -0.00073
 C352 C 0.08087 0.29303 -0.04940
 C353 C -0.07292 0.25398 -0.07726
 C354 C -0.10434 0.24427 -0.06476
 C355 C -0.07700 0.19957 -0.03487
 C356 C -0.04582 0.21052 -0.04774
 N357 N -0.04439 0.23708 -0.06888
 H358 H 0.06353 0.27465 -0.09920
 H359 H -0.00263 0.25794 -0.01397
 H360 H 0.03596 0.28608 0.02664
 H361 H 0.10366 0.30309 -0.06062
 H362 H -0.07177 0.27451 -0.09468
 H363 H -0.12640 0.25822 -0.07262
 H364 H -0.07727 0.17796 -0.01875
 H365 H -0.02283 0.19720 -0.04179
 C366 C -0.03560 0.33406 -0.16355
 C367 C 0.03331 0.15362 -0.15027
 C368 C -0.10710 0.21618 -0.04393
 C369 C 0.07303 0.29716 -0.01365
 C370 C 0.48625 0.21630 0.15245
 H371 H 0.49485 0.23860 0.16494
 C372 C 0.47666 0.18985 0.17305
 H373 H 0.47768 0.19220 0.20133
 C374 C 0.47437 0.18600 0.10060
 H375 H 0.47343 0.18484 0.07227
 C376 C 0.46439 0.15910 0.12013
 H377 H 0.45610 0.13722 0.10648
 N378 N 0.48394 0.21423 0.11692
 C379 C 0.54039 0.29875 0.10869
 H380 H 0.55683 0.28804 0.08884
 C381 C 0.55150 0.32554 0.12864
 H382 H 0.57664 0.33487 0.12403
 C383 C 0.48757 0.29981 0.13838
 H384 H 0.46255 0.28973 0.14177
 C385 C 0.49772 0.32640 0.15906
 H386 H 0.48030 0.33667 0.17836
 Zn387 Zn 0.49293 0.25015 0.08758
 N388 N 0.50902 0.28628 0.11413
 C389 C 0.45285 0.28980 0.04405
 N390 N 0.45236 0.26331 0.06532
 C391 C 0.42319 0.24686 0.07154
 C392 C 0.39316 0.25643 0.05556
 C393 C 0.42322 0.30045 0.02775
 C394 C 0.55463 0.22245 0.06592
 C395 C 0.57731 0.20693 0.04278
 C396 C 0.53901 0.21849 -0.00466
 C397 C 0.51710 0.23385 0.01937
 N398 N 0.52508 0.23526 0.05398
 H399 H 0.47631 0.30269 0.03985
 H400 H 0.42288 0.22648 0.08924
 H401 H 0.37023 0.24305 0.06105
 H402 H 0.42414 0.32157 0.01092
 H403 H 0.56001 0.22332 0.09369
 H404 H 0.60027 0.19632 0.05311
 H405 H 0.53180 0.21691 -0.03197
 H406 H 0.49316 0.24344 0.01047
 C407 C 0.53005 0.33963 0.15433
 C408 C 0.46473 0.16111 0.15688
 C409 C 0.56928 0.20425 0.00703
 C410 C 0.39286 0.28364 0.03351
 C411 C 0.96474 0.71255 0.67431
 H412 H 0.96921 0.73615 0.68650
 C413 C 0.95045 0.68741 0.69398
 H414 H 0.94360 0.69203 0.72114
 C415 C 0.96877 0.67744 0.62444
 H416 H 0.97628 0.67373 0.59735
 C417 C 0.95468 0.65179 0.64299
 H418 H 0.95162 0.62849 0.62965
 N419 N 0.97302 0.70723 0.64000
 C420 C 1.03744 0.78624 0.63775
 H421 H 1.05649 0.77213 0.62372
 C422 C 1.04693 0.81433 0.65616
 H423 H 1.07336 0.82097 0.65640
 C424 C 0.98001 0.79491 0.65377
 H425 H 0.95391 0.78726 0.65229
 C426 C 0.98847 0.82320 0.67281
 H427 H 0.96874 0.83731 0.68596
 Zn428 Zn 0.99315 0.73891 0.61101
 N429 N 1.00451 0.77692 0.63705
 C430 C 0.97117 0.77520 0.55257
 N431 N 0.96297 0.75077 0.57494
 C432 C 0.93230 0.73599 0.57345
 C433 C 0.90846 0.74565 0.54892
 C434 C 0.94774 0.78601 0.52778
 C435 C 1.05237 0.70519 0.61826
 C436 C 1.08241 0.68922 0.60941
 C437 C 1.07240 0.70170 0.54856
 C438 C 1.04208 0.71738 0.55865
 N439 N 1.03301 0.71905 0.59312
 H440 H 0.99559 0.78683 0.55458
 H441 H 0.92578 0.71721 0.59186
 H442 H 0.88404 0.73381 0.54871
 H443 H 0.95442 0.80586 0.51060
 H444 H 1.04438 0.70674 0.64540
 H445 H 1.09740 0.67862 0.63011
 H446 H 1.07956 0.70073 0.52114
 H447 H 1.02600 0.72826 0.53909
 C448 C 1.02232 0.83326 0.67393
 C449 C 0.94499 0.65663 0.67818
 C450 C 1.09297 0.68746 0.57427
 C451 C 0.91577 0.77131 0.52607
 C452 C 0.54608 0.71730 0.34979
 H453 H 0.56547 0.73226 0.36161
 C454 C 0.55506 0.68766 0.33331
 H455 H 0.58145 0.68044 0.33192
 C456 C 0.48802 0.70738 0.33918
 H457 H 0.46184 0.71460 0.34289
 C458 C 0.49594 0.67794 0.32177
 H459 H 0.47573 0.66282 0.31167
 N460 N 0.51298 0.72644 0.35265
 C461 C 0.46200 0.81937 0.37734
 H462 H 0.47094 0.82236 0.40393
 C463 C 0.44182 0.84364 0.36254
 H464 H 0.43540 0.86501 0.37835
 C465 C 0.46054 0.78770 0.32489
 H466 H 0.46857 0.76626 0.31005
 C467 C 0.44006 0.81127 0.30906
 H468 H 0.43237 0.80734 0.28214
 Zn469 Zn 0.50047 0.76282 0.38140
 N470 N 0.47098 0.79214 0.35849
 C471 C 0.55536 0.80149 0.36629
 N472 N 0.53913 0.78743 0.39367
 C473 C 0.54929 0.79276 0.42727
 C474 C 0.57724 0.81271 0.43420
 C475 C 0.58320 0.82155 0.37199
 C476 C 0.44467 0.74985 0.42554
 C477 C 0.42718 0.73227 0.45091
 C478 C 0.47977 0.70593 0.46676
 C479 C 0.49621 0.72384 0.44091
 N480 N 0.47850 0.74510 0.42078
 H481 H 0.54641 0.79719 0.33989
 H482 H 0.53557 0.78193 0.44872
 H483 H 0.58495 0.81667 0.46107
 H484 H 0.59571 0.83237 0.34968
 H485 H 0.43085 0.76614 0.40862
 H486 H 0.40017 0.73598 0.45374
 H487 H 0.49417 0.68856 0.48199
 H488 H 0.52292 0.71990 0.43594
 C489 C 0.43078 0.84003 0.32773
 C490 C 0.52977 0.66746 0.31938
 C491 C 0.44467 0.70951 0.47146
 C492 C 0.59456 0.82740 0.40627
 C493 C 0.36396 0.00519 0.20183
 C494 C 0.38337 0.01510 0.23060
 C495 C 0.40333 0.04330 0.22821
 C496 C 0.40363 0.06193 0.19755
 C497 C 0.38290 0.05236 0.16943
 C498 C 0.36319 0.02404 0.17142
 C499 C 0.38082 -0.00256 0.26402
 C500 C 0.38422 -0.03675 0.26504
 C501 C 0.38189 -0.05332 0.29702
 C502 C 0.37418 -0.03538 0.32793
 C503 C 0.37042 -0.00118 0.32690
 C504 C 0.37433 0.01501 0.29509
 H505 H 0.34791 -0.01611 0.20385
 H506 H 0.41863 0.05073 0.25035
 H507 H 0.39006 -0.05030 0.24112
 H508 H 0.37120 0.04141 0.29443
 H509 H 0.38167 0.06685 0.14596
 H510 H 0.37175 -0.04775 0.35273
 C511 C 0.12927 0.98530 0.71871
 C512 C 0.10625 0.97955 0.74600
 C513 C 0.08300 0.95390 0.74300
 C514 C 0.08329 0.93332 0.71319
 C515 C 0.10718 0.93880 0.68647
 C516 C 0.12986 0.96485 0.68893
 C517 C 0.10744 0.99978 0.77813
 C518 C 0.08732 1.02805 0.78146
 C519 C 0.08998 1.04875 0.81111
 C520 C 0.11354 1.04070 0.83727
 C521 C 0.13320 1.01196 0.83436
 C522 C 0.12992 0.99151 0.80483
 H523 H 0.14713 1.00522 0.72093
 H524 H 0.06513 0.94969 0.76407
 H525 H 0.06990 1.03410 0.76067
 H526 H 0.14565 0.96973 0.80215
 H527 H 0.10752 0.92371 0.66295
 H528 H 0.11627 1.05609 0.86035
 C529 C 0.63115 0.49390 0.20965
 C530 C 0.60674 0.48679 0.23507
 C531 C 0.58612 0.45923 0.23084
 C532 C 0.59001 0.43835 0.20137
 C533 C 0.61547 0.44529 0.17663
 C534 C 0.63578 0.47310 0.18050
 C535 C 0.60353 0.50796 0.26643
 C536 C 0.58350 0.53642 0.26563
 C537 C 0.58242 0.55804 0.29455
 C538 C 0.60149 0.55062 0.32445
 C539 C 0.62127 0.52185 0.32581
 C540 C 0.62219 0.50064 0.29648
 H541 H 0.64707 0.51520 0.21297
 H542 H 0.56707 0.45415 0.25051
 H543 H 0.56929 0.54203 0.24224
 H544 H 0.63800 0.47886 0.29646
 H545 H 0.61912 0.42988 0.15366
 H546 H 0.60037 0.56684 0.34711
 C547 C 0.86619 0.48686 0.70401
 C548 C 0.87636 0.49963 0.73664
 C549 C 0.88805 0.53200 0.73925
 C550 C 0.89060 0.55133 0.70924
 C551 C 0.88003 0.53830 0.67693
 C552 C 0.86788 0.50627 0.67402
 C553 C 0.87604 0.47871 0.76780
 C554 C 0.89515 0.44958 0.76802
 C555 C 0.89534 0.42962 0.79770
 C556 C 0.87467 0.43834 0.82654
 C557 C 0.85548 0.46740 0.82653
 C558 C 0.85681 0.48788 0.79737
 H559 H 0.85750 0.46180 0.70193
 H560 H 0.89640 0.54162 0.76433
 H561 H 0.91060 0.44297 0.74542
 H562 H 0.84183 0.51023 0.79710
 H563 H 0.88081 0.55315 0.65370
 H564 H 0.87342 0.42272 0.84918
 C565 C 0.18976 0.37005 0.01302
 C566 C 0.21695 0.39153 0.01764
 C567 C 0.21530 0.41574 0.04401
 C568 C 0.18715 0.41824 0.06657
 C569 C 0.15993 0.39668 0.06139
 C570 C 0.16092 0.37265 0.03464
 C571 C 0.24887 0.38633 -0.00199
 C572 C 0.26258 0.41119 -0.02269
 C573 C 0.29438 0.40690 -0.03896
 C574 C 0.31300 0.37802 -0.03280
 C575 C 0.29974 0.35337 -0.01153
 C576 C 0.26726 0.35731 0.00287
 H577 H 0.19156 0.35084 -0.00678
 H578 H 0.23680 0.43164 0.04797
 H579 H 0.24838 0.43371 -0.02627
 H580 H 0.25715 0.33864 0.01984
 H581 H 0.13785 0.39825 0.07813
 H582 H 0.33806 0.37488 -0.04392
 C583 C 0.68733 0.13399 0.97515
 C584 C 0.71485 0.11257 0.97017
 C585 C 0.71334 0.08773 0.94448
 C586 C 0.68474 0.08478 0.92301
 C587 C 0.65739 0.10663 0.92810
 C588 C 0.65831 0.13104 0.95438
 C589 C 0.74640 0.11859 0.98937
 C590 C 0.75398 0.10165 1.02006
 C591 C 0.78364 0.10867 1.03890
 C592 C 0.80591 0.13265 1.02609
 C593 C 0.79810 0.14998 0.99559
 C594 C 0.76825 0.14285 0.97755
 H595 H 0.68902 0.15349 0.99459
 H596 H 0.73487 0.07150 0.94037
 H597 H 0.73655 0.08335 1.02946
 H598 H 0.76197 0.15623 0.95409
 H599 H 0.63494 0.10416 0.91223
 H600 H 0.82844 0.13904 1.04047
 C601 C 0.23419 0.65303 0.53359
 C602 C 0.26307 0.64301 0.51494
 C603 C 0.25972 0.63158 0.48033
 C604 C 0.22754 0.62894 0.46481
 C605 C 0.19868 0.63911 0.48427
 C606 C 0.20202 0.65057 0.51891
 C607 C 0.29556 0.64009 0.53377
 C608 C 0.29586 0.62488 0.56653
 C609 C 0.32588 0.62116 0.58519
 C610 C 0.35606 0.63322 0.57101
 C611 C 0.35638 0.64896 0.53845
 C612 C 0.32592 0.65194 0.51966
 H613 H 0.23657 0.66146 0.56052
 H614 H 0.28197 0.62277 0.46630
 H615 H 0.27267 0.61506 0.57724
 H616 H 0.32559 0.66350 0.49431
 H617 H 0.17357 0.63598 0.47378
 H618 H 0.37927 0.63105 0.58571
 C619 C 0.72923 0.88176 0.44307
 C620 C 0.75692 0.88696 0.46506
 C621 C 0.75133 0.89428 0.50062
 C622 C 0.71842 0.89588 0.51468
 C623 C 0.69084 0.88934 0.49250
 C624 C 0.69615 0.88207 0.45671
 C625 C 0.79146 0.87895 0.45250
 C626 C 0.80570 0.89386 0.42292
 C627 C 0.83739 0.88319 0.40988
 C628 C 0.85474 0.85774 0.42682
 C629 C 0.84046 0.84271 0.45609
 C630 C 0.80904 0.85349 0.46880
 H631 H 0.73356 0.87492 0.41586
 H632 H 0.77291 0.89794 0.51756
 H633 H 0.79168 0.91271 0.40936
 H634 H 0.79775 0.84122 0.49097
 H635 H 0.66534 0.88937 0.50289
 H636 H 0.87869 0.84878 0.41642
 C637 C 0.01223 0.23137 0.34949
 C638 C 0.01916 0.25236 0.37772
 C639 C 0.04294 0.24287 0.40272
 C640 C 0.05948 0.21219 0.40014
 C641 C 0.05180 0.19099 0.37176
 C642 C 0.02833 0.20069 0.34625
 C643 C -0.00120 0.28252 0.38303
 C644 C -0.03508 0.27982 0.39368
 C645 C -0.05497 0.30787 0.40036
 C646 C -0.04048 0.33887 0.39598
 C647 C -0.00670 0.34206 0.38499
 C648 C 0.01295 0.31368 0.37853
 H649 H -0.00656 0.23853 0.33043
 H650 H 0.04790 0.25913 0.42475
 H651 H -0.04579 0.25573 0.39734
 H652 H 0.03921 0.31578 0.37069
 H653 H 0.06373 0.16710 0.36943
 H654 H -0.05522 0.36077 0.40165
 C655 C 0.99576 0.70915 0.15659
 C656 C 0.98702 0.73454 0.13375
 C657 C 0.95864 0.73118 0.11208
 C658 C 0.93860 0.70299 0.11319
 C659 C 0.94711 0.67827 0.13694
 C660 C 0.97545 0.68111 0.15869
 C661 C 1.00624 0.76547 0.13344
 C662 C 1.04091 0.76561 0.12527
 C663 C 1.05825 0.79547 0.12195
 C664 C 1.04088 0.82505 0.12945
 C665 C 1.00626 0.82507 0.13725
 C666 C 0.98904 0.79532 0.13882
 H667 H 1.01733 0.71190 0.17372
 H668 H 0.95216 0.75072 0.09431
 H669 H 1.05382 0.74262 0.11954
 H670 H 0.96208 0.79547 0.14418
 H671 H 0.93214 0.65631 0.13843
 H672 H 1.05359 0.84832 0.12750
 C673 C 0.50840 0.19302 0.61764
 C674 C 0.48791 0.22108 0.61509
 C675 C 0.45286 0.21702 0.61113
 C676 C 0.43830 0.18571 0.61031
 C677 C 0.45941 0.15786 0.61311
 C678 C 0.49455 0.16155 0.61625
 C679 C 0.50311 0.25443 0.61648
 C680 C 0.53575 0.25993 0.60324
 C681 C 0.55057 0.29113 0.60494
 C682 C 0.53192 0.31756 0.61964
 C683 C 0.49888 0.31253 0.63220
 C684 C 0.48505 0.28104 0.63099
 H685 H 0.53538 0.19535 0.62149
 H686 H 0.43673 0.23827 0.60771
 H687 H 0.54961 0.23999 0.59070
 H688 H 0.46008 0.27744 0.64201
 H689 H 0.44882 0.13349 0.61235
 H690 H 0.54260 0.34188 0.62084
 C691 C 0.51525 0.71541 0.84551
 C692 C 0.51958 0.73923 0.87185
 C693 C 0.54348 0.73411 0.89836
 C694 C 0.56301 0.70512 0.89872
 C695 C 0.55708 0.68081 0.87303
 C696 C 0.53343 0.68586 0.84650
 C697 C 0.49699 0.76809 0.87312
 C698 C 0.46998 0.76901 0.89713
 C699 C 0.44672 0.79517 0.89733
 C700 C 0.45155 0.82090 0.87379
 C701 C 0.47867 0.82061 0.84982
 C702 C 0.50118 0.79371 0.84933
 H703 H 0.49636 0.71902 0.82542
 H704 H 0.54679 0.75267 0.91859
 H705 H 0.46664 0.74889 0.91504
 H706 H 0.52186 0.79247 0.83065
 H707 H 0.57053 0.65766 0.87346
 H708 H 0.43455 0.84175 0.87443
 N709 N 0.38792 -0.10784 0.27044
 N710 N 0.40134 -0.13678 0.27780
 C711 C 0.41217 -0.13508 0.31127
 C712 C 0.40438 -0.10403 0.32429
 N713 N 0.38945 -0.08783 0.29799
 H714 H 0.41109 -0.09333 0.34936
 N715 N 0.92956 0.38576 0.77048
 N716 N 0.94840 0.36031 0.77974
 C717 C 0.94787 0.35952 0.81508
 C718 C 0.92782 0.38519 0.82711
 N719 N 0.91676 0.40092 0.79855
 H720 H 0.92178 0.39170 0.85400
 N721 N 0.04171 1.08259 0.79428
 N722 N 0.02598 1.11011 0.80374
 C723 C 0.04325 1.12299 0.83093
 C724 C 0.07021 1.10228 0.83783
 N725 N 0.06833 1.07728 0.81441
 H726 H 0.08904 1.10508 0.85805
 N727 N 0.53363 0.58984 0.27477
 N728 N 0.51880 0.61866 0.28070
 C729 C 0.53820 0.63495 0.30399
 C730 C 0.56532 0.61505 0.31230
 N731 N 0.56150 0.58708 0.29364
 H732 H 0.58542 0.62021 0.33065
 N733 N 0.54028 0.40581 0.21585
 N734 N 0.52358 0.37991 0.20408
 C735 C 0.54082 0.36806 0.17598
 C736 C 0.56873 0.38765 0.17098
 N737 N 0.56751 0.41101 0.19634
 H738 H 0.58761 0.38529 0.15050
 N739 N 0.02947 0.90650 0.72608
 N740 N 0.01227 0.88022 0.71607
 C741 C 0.03191 0.86371 0.69265
 C742 C 0.06160 0.88075 0.68865
 N743 N 0.05913 0.90731 0.70977
 H744 H 0.08279 0.87459 0.67170
 N745 N 0.90714 0.60210 0.73980
 N746 N 0.92158 0.63050 0.73251
 C747 C 0.92897 0.62982 0.69789
 C748 C 0.91854 0.60018 0.68435
 N749 N 0.90493 0.58362 0.71109
 H750 H 0.92089 0.59132 0.65763
 N751 N 0.43829 0.10545 0.22309
 N752 N 0.45497 0.13189 0.21334
 C753 C 0.45156 0.13405 0.17829
 C754 C 0.43212 0.10808 0.16695
 N755 N 0.42422 0.09084 0.19565
 H756 H 0.42419 0.10261 0.14047
 N757 N 0.29841 0.46329 -0.05956
 N758 N 0.31502 0.48041 -0.08331
 C759 C 0.33587 0.45929 -0.10058
 C760 C 0.33146 0.42859 -0.08645
 N761 N 0.30796 0.43211 -0.06093
 H762 H 0.34361 0.40581 -0.09439
 N763 N 0.86407 0.87613 0.35280
 N764 N 0.87285 0.89351 0.32524
 C765 C 0.86461 0.92501 0.33263
 C766 C 0.85024 0.92640 0.36581
 N767 N 0.85039 0.89531 0.37738
 H768 H 0.84069 0.94770 0.38004
 N769 N 0.76676 0.07683 1.08985
 N770 N 0.77986 0.06486 1.11894
 C771 C 0.81285 0.07315 1.11933
 C772 C 0.81943 0.09070 1.08922
 N773 N 0.79006 0.09246 1.07158
 H774 H 0.84324 0.10076 1.08066
 N775 N 0.29857 0.60336 0.63926
 N776 N 0.30567 0.58607 0.66748
 C777 C 0.33818 0.57619 0.66420
 C778 C 0.35086 0.58823 0.63318
 N779 N 0.32542 0.60502 0.61842
 H780 H 0.37593 0.58479 0.62216
 N781 N 0.24897 0.59440 0.41680
 N782 N 0.23801 0.57862 0.38858
 C783 C 0.20516 0.58684 0.38492
 C784 C 0.19634 0.60826 0.41186
 N785 N 0.22438 0.61227 0.43139
 H786 H 0.17156 0.61857 0.41739
 N787 N 0.69932 0.03096 0.89798
 N788 N 0.69219 0.01247 0.87020
 C789 C 0.67115 0.03009 0.84981
 C790 C 0.66564 0.06013 0.86630
 N791 N 0.68348 0.05961 0.89625
 H792 H 0.64999 0.08031 0.85772
 N793 N 0.73882 0.90366 0.57446
 N794 N 0.72750 0.91203 0.60608
 C795 C 0.69384 0.91672 0.60339
 C796 C 0.68491 0.91093 0.56883
 N797 N 0.71374 0.90287 0.55159
 H798 H 0.66018 0.91364 0.55723
 N799 N 0.21293 0.46125 0.10254
 N800 N 0.20700 0.47839 0.13171
 C801 C 0.17642 0.46924 0.14374
 C802 C 0.16381 0.44588 0.12087
 N803 N 0.18734 0.44149 0.09545
 H804 H 0.14028 0.43280 0.12327
 N805 N -0.09992 0.27859 0.43054
 N806 N -0.13088 0.28379 0.44300
 C807 C -0.14015 0.31422 0.43330
 C808 C -0.11376 0.32757 0.41461
 N809 N -0.08898 0.30464 0.41362
 H810 H -0.11232 0.35208 0.40427
 N811 N 0.41599 0.77689 0.94943
 N812 N 0.38782 0.78382 0.96716
 C813 C 0.37165 0.80777 0.94967
 C814 C 0.39095 0.81527 0.92068
 N815 N 0.41850 0.79565 0.92148
 H816 H 0.38558 0.83358 0.90126
 N817 N 1.11171 0.76942 0.10363
 N818 N 1.14007 0.77696 0.08696
 C819 C 1.13852 0.80935 0.08034
 C820 C 1.10829 0.82134 0.09365
 N821 N 1.09225 0.79577 0.10806
 H822 H 1.09828 0.84593 0.09132
 N823 N 0.60506 0.27009 0.58459
 N824 N 0.63326 0.28017 0.56957
 C825 C 0.63052 0.31293 0.56642
 C826 C 0.59950 0.32270 0.58031
 N827 N 0.58432 0.29510 0.59123
 H828 H 0.58849 0.34707 0.58079
 N829 N 0.38066 0.20751 0.61095
 N830 N 0.34971 0.19889 0.60178
 C831 C 0.35160 0.16751 0.59041
 C832 C 0.38491 0.15713 0.59303
 N833 N 0.40226 0.18287 0.60587
 H834 H 0.39573 0.13391 0.58444
 N835 N 0.90304 0.71990 0.06421
 N836 N 0.87601 0.70999 0.04677
 C837 C 0.86526 0.68237 0.06219
 C838 C 0.88671 0.67572 0.08965
 N839 N 0.91003 0.69963 0.09008
 H840 H 0.88556 0.65520 0.10719
 N841 N 0.59117 0.71804 0.95431
 N842 N 0.61679 0.70729 0.97343
 C843 C 0.63084 0.68168 0.95575
 C844 C 0.61293 0.67719 0.92518
 N845 N 0.58831 0.70018 0.92523
 H846 H 0.61760 0.65910 0.90477
 N847 N 0.08374 0.21713 0.45853
 N848 N 0.10747 0.20373 0.47816
 C849 C 0.12243 0.17981 0.45872
 C850 C 0.10677 0.17896 0.42627
 N851 N 0.08274 0.20267 0.42727
 H852 H 0.11248 0.16294 0.40417
 N853 N 0.54726 0.13345 0.60226
 N854 N 0.56476 0.10738 0.61192
 C855 C 0.54491 0.09051 0.63405
 C856 C 0.51429 0.10706 0.63737
 N857 N 0.51696 0.13377 0.61719
 H858 H 0.49340 0.10180 0.65483
 N859 N 0.95896 0.63656 0.19685
 N860 N 0.97283 0.61402 0.21694
 C861 C 1.00654 0.61883 0.21621
 C862 C 1.01285 0.64545 0.19500
 N863 N 0.98248 0.65569 0.18341
 H864 H 1.03701 0.65552 0.18749
 N865 N 0.95905 0.86061 0.12283
 N866 N 0.94788 0.89075 0.12928
 C867 C 0.97026 0.90511 0.15108
 C868 C 0.99573 0.88266 0.15781
 N869 N 0.98767 0.85529 0.13967
 H870 H 1.01756 0.88565 0.17451
 N871 N 0.44504 0.34049 0.63925
 N872 N 0.43115 0.36504 0.65725
 C873 C 0.45617 0.37981 0.67523
 C874 C 0.48626 0.36357 0.66722
 N875 N 0.47802 0.33914 0.64479
 H876 H 0.51110 0.36773 0.67808
 N877 N 0.52215 0.66425 0.78781
 N878 N 0.51307 0.63627 0.77268
 C879 C 0.51131 0.61366 0.79817
 C880 C 0.51986 0.62872 0.82945
 N881 N 0.52640 0.66012 0.82183
 H882 H 0.51964 0.61851 0.85548
 N883 N 0.01374 0.19135 0.28540
 N884 N -0.00017 0.16854 0.26536
 C885 C -0.00300 0.14140 0.28490
 C886 C 0.01003 0.14830 0.31780
 N887 N 0.02007 0.17983 0.31697
 H888 H 0.00905 0.13317 0.34088
 N889 N -0.00296 0.39992 0.40073
 N890 N 0.01260 0.42680 0.39062
 C891 C 0.03365 0.41810 0.36406
 C892 C 0.03057 0.38459 0.35841
 N893 N 0.00742 0.37428 0.38181
 H894 H 0.04273 0.36945 0.33845
 N895 N 0.46073 0.87241 0.82453
 N896 N 0.47247 0.89593 0.80441
 C897 C 0.50339 0.88618 0.79328
 C898 C 0.51027 0.85579 0.80729
 N899 N 0.48300 0.84808 0.82685
 H900 H 0.53363 0.84189 0.80519
 N901 N 0.68027 0.45773 0.13877
 N902 N 0.70023 0.47162 0.11536
 C903 C 0.69318 0.50413 0.11608
 C904 C 0.66828 0.50963 0.14130
 N905 N 0.66102 0.48014 0.15462
 H906 H 0.65584 0.53240 0.14881
 N907 N 0.17129 0.94734 0.64473
 N908 N 0.18905 0.95994 0.61867
 C909 C 0.18146 0.99223 0.61807
 C910 C 0.15879 0.99913 0.64488
 N911 N 0.15318 0.97053 0.66084
 H912 H 0.14694 1.02240 0.65168
 N913 N 0.18070 1.02484 0.87224
 N914 N 0.20076 1.01014 0.89495
 C915 C 0.18982 0.97898 0.89820
 C916 C 0.16224 0.97513 0.87623
 N917 N 0.15751 1.00423 0.86073
 H918 H 0.14717 0.95351 0.87149
 N919 N 0.64827 0.53707 0.38099
 N920 N 0.66606 0.52363 0.40642
 C921 C 0.66992 0.49155 0.39816
 C922 C 0.65384 0.48583 0.36658
 N923 N 0.64068 0.51486 0.35672
 H924 H 0.65151 0.46278 0.35251
 N925 N 0.87215 0.50405 0.61052
 N926 N 0.85742 0.48996 0.58328
 C927 C 0.83339 0.46997 0.59597
 C928 C 0.83410 0.47211 0.63223
 N929 N 0.85861 0.49369 0.64013
 H930 H 0.81779 0.46019 0.65093
 N931 N 0.32381 0.03689 0.12452
 N932 N 0.30458 0.02151 0.10134
 C933 C 0.31000 -0.01089 0.10556
 C934 C 0.33308 -0.01492 0.13212
 N935 N 0.34103 0.01543 0.14324
 H936 H 0.34315 -0.03760 0.14234
 N937 N 0.37782 0.04620 0.36487
 N938 N 0.36189 0.06164 0.39087
 C939 C 0.33583 0.04255 0.40055
 C940 C 0.33663 0.01446 0.37978
 N941 N 0.36320 0.01782 0.35789
 H942 H 0.31826 -0.00505 0.37862
 N943 N 0.81544 0.45366 0.87274
 N944 N 0.79738 0.46834 0.89783
 C945 C 0.80475 0.50055 0.89673
 C946 C 0.82783 0.50521 0.87000
 N947 N 0.83377 0.47537 0.85571
 H948 H 0.83925 0.52791 0.86182
 N949 N 0.17331 0.64731 0.57486
 N950 N 0.14478 0.65656 0.59032
 C951 C 0.12567 0.67127 0.56586
 C952 C 0.14354 0.67045 0.53443
 N953 N 0.17319 0.65543 0.54141
 H954 H 0.13659 0.68104 0.50961
 N955 N 0.60693 0.15927 0.93546
 N956 N 0.58303 0.17895 0.94847
 C957 C 0.59103 0.18524 0.98223
 C958 C 0.62080 0.16871 0.98941
 N959 N 0.62987 0.15282 0.95961
 H960 H 0.63389 0.16727 1.01415
 N961 N 0.80757 0.20177 0.96668
 N962 N 0.83276 0.22014 0.95566
 C963 C 0.86189 0.20536 0.96538
 C964 C 0.85338 0.17719 0.98345
 N965 N 0.81931 0.17588 0.98335
 H966 H 0.86997 0.15858 0.99396
 N967 N 0.41793 0.65338 0.53701
 N968 N 0.44204 0.66915 0.52010
 C969 C 0.42659 0.68852 0.49661
 C970 C 0.39208 0.68388 0.49960
 N971 N 0.38771 0.66172 0.52505
 H972 H 0.37220 0.69547 0.48474
 N973 N 0.66834 0.87725 0.40010
 N974 N 0.64180 0.86283 0.38583
 C975 C 0.62453 0.84840 0.41198
 C976 C 0.64139 0.85482 0.44301
 N977 N 0.66855 0.87286 0.43440
 H978 H 0.63568 0.84577 0.46889
 N979 N 0.11085 0.34397 0.05557
 N980 N 0.08734 0.32374 0.04380
 C981 C 0.09476 0.31701 0.00989
 C982 C 0.12385 0.33389 0.00132
 N983 N 0.13305 0.35041 0.03051
 H984 H 0.13638 0.33508 -0.02391
 N985 N 0.30729 0.29697 0.00744
 N986 N 0.33148 0.27778 0.01980
 C987 C 0.36057 0.29477 0.01812
 C988 C 0.35340 0.32502 0.00398
 N989 N 0.31992 0.32543 -0.00225
 H990 H 0.37022 0.34563 0.00117
 N991 N 0.83947 0.78804 0.48007
 N992 N 0.85886 0.76837 0.49868
 C993 C 0.88900 0.78328 0.50243
 C994 C 0.88751 0.81284 0.48504
 N995 N 0.85618 0.81478 0.47160
 H996 H 0.90615 0.83212 0.48454
   
