data_POSCAR
  _audit_creation_date              2014-09-24
  _audit_creation_method            'ToBaCCo'
  _symmetry_space_group_name_H-M    'P1'
  _symmetry_Int_Tables_number       1
  _symmetry_cell_setting            triclinic
  loop_
  _symmetry_equiv_pos_as_xyz
 x,y,z
_cell_length_a 36.8468
_cell_length_b 37.1874
_cell_length_c 36.9530
_cell_angle_alpha 90.071300
_cell_angle_beta 90.518400
_cell_angle_gamma 89.947700
loop_
  _atom_site_label
  _atom_site_type_symbol
  _atom_site_fract_x
  _atom_site_fract_y
  _atom_site_fract_z
N1 N 0.14547 0.16834 0.24185
 N2 N 0.16993 0.14265 0.24156
 C3 C 0.16822 0.12433 0.27292
 C4 C 0.14176 0.13986 0.29453
 C5 C 0.12751 0.16738 0.27335
 H6 H 0.18548 0.10179 0.27985
 H7 H 0.10451 0.18434 0.27945
 Cu8 Cu 0.20137 0.13576 0.19999
 Cu9 Cu 0.13786 0.20042 0.20100
 Cu10 Cu 0.19625 0.19159 0.12844
 N11 N 0.23237 0.12957 0.15803
 N12 N 0.22883 0.15019 0.12936
 C13 C 0.25350 0.14033 0.10457
 C14 C 0.27394 0.11207 0.11846
 C15 C 0.25998 0.10646 0.15276
 H16 H 0.25815 0.15461 0.07956
 H17 H 0.26931 0.08691 0.17239
 N18 N 0.16146 0.23169 0.13307
 N19 N 0.13994 0.23541 0.16119
 C20 C 0.12244 0.26711 0.15863
 C21 C 0.13367 0.28439 0.12762
 C22 C 0.15781 0.26079 0.11163
 H23 H 0.10390 0.27759 0.17857
 H24 H 0.17234 0.26502 0.08671
 H25 H 0.15877 0.16745 0.16034
 H26 H 0.19133 0.19826 0.18399
 N27 N -0.13145 0.83999 0.23213
 N28 N -0.15316 0.86781 0.22816
 C29 C -0.14582 0.89194 0.25446
 C30 C -0.11764 0.87871 0.27550
 C31 C -0.10944 0.84556 0.26082
 H32 H -0.15994 0.91715 0.25824
 H33 H -0.08944 0.82663 0.27082
 Cu34 Cu -0.18926 0.86977 0.18939
 Cu35 Cu -0.13412 0.79804 0.20086
 Cu36 Cu -0.20100 0.79806 0.13463
 N37 N -0.22725 0.86849 0.15241
 N38 N -0.23232 0.83998 0.13200
 C39 C -0.26122 0.84545 0.11023
 C40 C -0.27469 0.87971 0.11652
 C41 C -0.25260 0.89330 0.14396
 H42 H -0.27124 0.82615 0.09066
 H43 H -0.25601 0.91848 0.15820
 N44 N -0.16663 0.75813 0.14132
 N45 N -0.14114 0.75805 0.16662
 C46 C -0.12208 0.72723 0.16423
 C47 C -0.13655 0.70682 0.13637
 C48 C -0.16435 0.72747 0.12207
 H49 H -0.09928 0.72004 0.18138
 H50 H -0.18122 0.72081 0.09894
 H51 H -0.15595 0.82377 0.15615
 H52 H -0.18873 0.80423 0.18911
 N53 N -0.14028 0.16266 -0.23864
 N54 N -0.16416 0.13646 -0.23724
 C55 C -0.15667 0.11222 -0.26324
 C56 C -0.12619 0.12372 -0.28149
 C57 C -0.11682 0.15606 -0.26551
 H58 H -0.17230 0.08821 -0.26878
 H59 H -0.09502 0.17382 -0.27332
 Cu60 Cu -0.20339 0.13755 -0.20242
 Cu61 Cu -0.14270 0.20438 -0.20704
 Cu62 Cu -0.19767 0.19409 -0.13199
 N63 N -0.24385 0.14422 -0.16962
 N64 N -0.24115 0.16577 -0.14156
 C65 C -0.27169 0.16364 -0.12205
 C66 C -0.29555 0.14015 -0.13930
 C67 C -0.27644 0.12794 -0.16919
 H68 H -0.27631 0.17864 -0.09742
 H69 H -0.28462 0.10711 -0.18798
 N70 N -0.16053 0.23186 -0.13567
 N71 N -0.14002 0.23606 -0.16446
 C72 C -0.11788 0.26436 -0.15910
 C73 C -0.12485 0.27861 -0.12535
 C74 C -0.15233 0.25770 -0.11138
 H75 H -0.09836 0.27416 -0.17842
 H76 H -0.16553 0.26125 -0.08560
 H77 H -0.15879 0.17138 -0.16665
 H78 H -0.19527 0.20059 -0.18607
 N79 N 0.13415 0.84412 -0.22930
 N80 N 0.15309 0.87349 -0.22324
 C81 C 0.15073 0.89496 -0.25250
 C82 C 0.12978 0.87769 -0.27853
 C83 C 0.11928 0.84579 -0.26262
 H84 H 0.16369 0.92093 -0.25488
 H85 H 0.10274 0.82496 -0.27483
 Cu86 Cu 0.18098 0.87983 -0.17877
 Cu87 Cu 0.13132 0.80523 -0.19433
 Cu88 Cu 0.18993 0.81018 -0.12108
 N89 N 0.21886 0.87881 -0.14178
 N90 N 0.22244 0.85139 -0.11969
 C91 C 0.25205 0.85634 -0.09876
 C92 C 0.26784 0.88905 -0.10761
 C93 C 0.24601 0.90229 -0.13549
 H94 H 0.26144 0.83739 -0.07858
 H95 H 0.25094 0.92582 -0.15190
 N96 N 0.15486 0.77075 -0.12772
 N97 N 0.13264 0.76871 -0.15587
 C98 C 0.11398 0.73765 -0.15417
 C99 C 0.12542 0.71908 -0.12382
 C100 C 0.15086 0.74107 -0.10732
 H101 H 0.09451 0.72845 -0.17419
 H102 H 0.16604 0.73527 -0.08283
 H103 H 0.14631 0.83332 -0.14809
 H104 H 0.18382 0.81472 -0.17650
 N105 N 0.13984 1.11872 0.78486
 N106 N 0.11616 1.14513 0.78295
 C107 C 0.09557 1.14087 0.75297
 C108 C 0.10670 1.10986 0.73545
 C109 C 0.13505 1.09668 0.75634
 H110 H 0.07467 1.15937 0.74406
 H111 H 0.15208 1.07375 0.75036
 Cu112 Cu 0.11548 1.18309 0.81926
 Cu113 Cu 0.17661 1.11638 0.82288
 Cu114 Cu 0.19451 1.19930 0.86178
 N115 N 0.12104 1.22341 0.85246
 N116 N 0.15189 1.22901 0.86972
 C117 C 0.14907 1.25892 0.88997
 C118 C 0.11455 1.27269 0.88527
 C119 C 0.09755 1.24981 0.86096
 H120 H 0.17088 1.27050 0.90594
 H121 H 0.07042 1.25260 0.84988
 N122 N 0.22936 1.15924 0.86246
 N123 N 0.22186 1.12714 0.84911
 C124 C 0.25096 1.10567 0.85352
 C125 C 0.27829 1.12549 0.86986
 C126 C 0.26347 1.15910 0.87575
 H127 H 0.25245 1.07796 0.84469
 H128 H 0.27681 1.18190 0.88825
 H129 H 0.16094 1.15658 0.86006
 H130 H 0.18012 1.17013 0.81553
 N131 N 0.83880 0.86157 0.75998
 N132 N 0.86695 0.84011 0.76394
 C133 C 0.89215 0.84883 0.73925
 C134 C 0.87898 0.87730 0.71886
 C135 C 0.84490 0.88437 0.73250
 H136 H 0.91734 0.83450 0.73516
 H137 H 0.82559 0.90400 0.72252
 Cu138 Cu 0.86535 0.80040 0.79820
 Cu139 Cu 0.79509 0.85635 0.78880
 Cu140 Cu 0.80843 0.80739 0.86782
 N141 N 0.86361 0.76347 0.83543
 N142 N 0.84124 0.76650 0.86280
 C143 C 0.84459 0.73738 0.88416
 C144 C 0.86975 0.71442 0.86885
 C145 C 0.88172 0.73209 0.83826
 H146 H 0.82936 0.73296 0.90865
 H147 H 0.90146 0.72234 0.81911
 N148 N 0.76692 0.84010 0.86016
 N149 N 0.76135 0.85797 0.82974
 C150 C 0.72971 0.87595 0.83194
 C151 C 0.71434 0.86846 0.86502
 C152 C 0.73880 0.84601 0.88242
 H153 H 0.71823 0.89258 0.81074
 H154 H 0.73583 0.83410 0.90892
 H155 H 0.82868 0.84454 0.83033
 H156 H 0.80127 0.80577 0.81340
 N157 N 0.15753 0.87006 1.22916
 N158 N 0.13163 0.84577 1.22855
 C159 C 0.10876 0.85224 1.25608
 C160 C 0.12078 0.88247 1.27441
 C161 C 0.15193 0.89289 1.25682
 H162 H 0.08544 0.83600 1.26274
 H163 H 0.16984 0.91469 1.26446
 Cu164 Cu 0.13095 0.80759 1.19236
 Cu165 Cu 0.19814 0.86882 1.19601
 Cu166 Cu 0.19705 0.80247 1.13021
 N167 N 0.13011 0.77134 1.15422
 N168 N 0.15595 0.76970 1.12997
 C169 C 0.14939 0.74197 1.10745
 C170 C 0.11745 0.72559 1.11774
 C171 C 0.10618 0.74464 1.14783
 H172 H 0.16706 0.73362 1.08578
 H173 H 0.08253 0.73906 1.16400
 N174 N 0.23633 0.83808 1.13491
 N175 N 0.23685 0.86320 1.16016
 C176 C 0.26778 0.88221 1.15738
 C177 C 0.28785 0.86810 1.12936
 C178 C 0.26684 0.84058 1.11529
 H179 H 0.27562 0.90429 1.17483
 H180 H 0.27351 0.82354 1.09257
 H181 H 0.16960 0.84448 1.15425
 H182 H 0.19631 0.81427 1.18490
 N183 N 0.84227 1.13514 1.23212
 N184 N 0.87157 1.15467 1.22748
 C185 C 0.89651 1.14555 1.25271
 C186 C 0.88229 1.11842 1.27397
 C187 C 0.84763 1.11283 1.26027
 H188 H 0.92229 1.15895 1.25662
 H189 H 0.82729 1.09484 1.27090
 Cu190 Cu 0.87246 1.19243 1.19113
 Cu191 Cu 0.79782 1.14345 1.20431
 Cu192 Cu 0.81069 1.19010 1.12415
 N193 N 0.87313 1.22747 1.15217
 N194 N 0.84828 1.22685 1.12639
 C195 C 0.85378 1.25459 1.10376
 C196 C 0.88388 1.27333 1.11585
 C197 C 0.89543 1.25557 1.14671
 H198 H 0.83686 1.26095 1.08055
 H199 H 0.91768 1.26329 1.16435
 N200 N 0.76684 1.16170 1.13406
 N201 N 0.76142 1.14487 1.16497
 C202 C 0.72832 1.12957 1.16410
 C203 C 0.71190 1.13770 1.13132
 C204 C 0.73734 1.15762 1.11272
 H205 H 0.71686 1.11381 1.18575
 H206 H 0.73445 1.16849 1.08572
 H207 H 0.82983 1.15164 1.16132
 H208 H 0.80726 1.19298 1.17890
 N209 N 0.53754 1.04116 1.06125
 N210 N 0.56339 1.04846 1.08509
 N211 N 0.45975 1.06298 1.03588
 N212 N 0.42833 1.08011 1.03683
 N213 N 0.46130 1.03842 1.06143
 N214 N 0.43114 1.03837 1.08041
 N215 N 0.53646 1.06575 1.03586
 N216 N 0.56181 1.09020 1.04154
 C217 C 0.57822 1.07935 1.07261
 C218 C 0.41085 1.06453 1.06484
 N219 N 0.46039 1.03799 0.93289
 N220 N 0.43404 1.04299 0.90907
 N221 N 0.53583 1.06503 0.95787
 N222 N 0.56085 1.08951 0.95142
 N223 N 0.53651 1.03967 0.93309
 N224 N 0.56201 1.04623 0.90916
 N225 N 0.45982 1.06316 0.95775
 N226 N 0.43324 1.08613 0.95125
 Mn227 Mn 0.49795 1.06467 0.99694
 C228 C 0.41743 1.07332 0.92058
 C229 C 0.57683 1.07754 0.92079
 N230 N 0.46396 0.96132 1.06214
 N231 N 0.43737 0.95584 1.08519
 N232 N 0.54025 0.93822 1.03609
 N233 N 0.57055 0.91934 1.03752
 N234 N 0.54050 0.96357 1.06092
 N235 N 0.57109 0.96260 1.07982
 N236 N 0.46404 0.93631 1.03709
 N237 N 0.43768 0.91300 1.04249
 Mn238 Mn 0.50092 1.00111 1.06189
 C239 C 0.42146 0.92539 1.07274
 C240 C 0.58952 0.93483 1.06489
 N241 N 0.53809 0.96198 0.93327
 N242 N 0.56449 0.95645 0.90994
 N243 N 0.46188 0.93632 0.95929
 N244 N 0.43051 0.91918 0.96011
 N245 N 0.46146 0.96089 0.93373
 N246 N 0.42987 0.96091 0.91659
 N247 N 0.53851 0.93720 0.95847
 N248 N 0.56519 0.91421 0.95310
 Mn249 Mn 0.49924 1.00005 0.93283
 Mn250 Mn 0.50115 0.93659 0.99771
 Cl251 Cl 0.49987 1.00066 0.99732
 C252 C 0.58099 0.92630 0.92254
 C253 C 0.41085 0.93472 0.93323
 N254 N -0.06283 0.46013 0.03821
 N255 N -0.08203 0.43025 0.03968
 N256 N -0.03911 0.53581 0.06376
 N257 N -0.04508 0.56180 0.08733
 N258 N -0.06440 0.53561 0.03853
 N259 N -0.08836 0.56133 0.04429
 N260 N -0.03697 0.45995 0.06296
 N261 N -0.03767 0.42969 0.08161
 C262 C -0.06610 0.41164 0.06689
 C263 C -0.07604 0.57729 0.07496
 N264 N 0.06388 0.53855 0.03832
 N265 N 0.08192 0.56916 0.03919
 N266 N 0.04118 0.46222 0.06372
 N267 N 0.04750 0.43567 0.08665
 N268 N 0.06601 0.46288 0.03856
 N269 N 0.08982 0.43682 0.04359
 N270 N 0.03892 0.53808 0.06350
 N271 N 0.03938 0.56845 0.08209
 Mn272 Mn 0.00100 0.49898 0.06398
 C273 C 0.06638 0.58754 0.06661
 C274 C 0.07822 0.42024 0.07393
 N275 N -0.06489 0.53602 -0.03950
 N276 N -0.08781 0.56297 -0.04409
 N277 N -0.03843 0.46052 -0.06453
 N278 N -0.04019 0.43092 -0.08424
 N279 N -0.06352 0.46029 -0.03954
 N280 N -0.08305 0.43061 -0.04165
 N281 N -0.03993 0.53639 -0.06464
 N282 N -0.04519 0.56362 -0.08698
 Mn283 Mn -0.06435 0.49810 -0.00059
 C284 C -0.07542 0.57973 -0.07407
 C285 C -0.06811 0.41251 -0.06958
 N286 N 0.06494 0.46233 -0.03909
 N287 N 0.08370 0.43209 -0.03944
 N288 N 0.03821 0.53779 -0.06453
 N289 N 0.04235 0.56527 -0.08674
 N290 N 0.06360 0.53794 -0.03941
 N291 N 0.08577 0.56533 -0.04386
 N292 N 0.03965 0.46190 -0.06438
 N293 N 0.04069 0.43136 -0.08257
 Mn294 Mn 0.06502 0.50044 -0.00042
 Mn295 Mn -0.00012 0.49920 -0.06502
 Cl296 Cl 0.00038 0.49920 -0.00050
 C297 C 0.06828 0.41304 -0.06672
 C298 C 0.07243 0.58195 -0.07366
 N299 N 0.94095 -0.03757 0.46045
 N300 N 0.92158 -0.03941 0.43027
 N301 N 0.96648 -0.06250 0.53736
 N302 N 0.96475 -0.08197 0.56716
 N303 N 0.94043 -0.03836 0.53663
 N304 N 0.92003 -0.04104 0.56568
 N305 N 0.96648 -0.06223 0.46072
 N306 N 0.96517 -0.08139 0.43064
 C307 C 0.93706 -0.06682 0.41190
 C308 C 0.93550 -0.06836 0.58437
 N309 N 1.06945 -0.03649 0.53779
 N310 N 1.09226 -0.04087 0.56513
 N311 N 1.04451 -0.06119 0.46169
 N312 N 1.04648 -0.08060 0.43188
 N313 N 1.06889 -0.03540 0.46149
 N314 N 1.08781 -0.03643 0.43132
 N315 N 1.04469 -0.06179 0.53770
 N316 N 1.05015 -0.08419 0.56492
 Mn317 Mn 1.00548 -0.06242 0.49945
 C318 C 1.08026 -0.07101 0.58161
 C319 C 1.07354 -0.06486 0.41323
 N320 N 0.93918 0.03887 0.53746
 N321 N 0.91881 0.04048 0.56663
 N322 N 0.96473 0.06496 0.46180
 N323 N 0.96334 0.08416 0.43180
 N324 N 0.93972 0.03981 0.46127
 N325 N 0.92045 0.04147 0.43104
 N326 N 0.96412 0.06406 0.53829
 N327 N 0.96144 0.08338 0.56814
 Mn328 Mn 0.93959 0.00068 0.49891
 C329 C 0.93309 0.06831 0.58554
 C330 C 0.93547 0.06927 0.41302
 N331 N 1.06828 0.04211 0.46311
 N332 N 1.09251 0.04931 0.43806
 N333 N 1.04228 0.06528 0.53930
 N334 N 1.04235 0.08287 0.57034
 N335 N 1.06783 0.04059 0.53927
 N336 N 1.08570 0.04064 0.57039
 N337 N 1.04260 0.06654 0.46311
 N338 N 1.04851 0.09083 0.43784
 Mn339 Mn 1.06906 0.00269 0.50035
 Mn340 Mn 1.00337 0.06568 0.50062
 Cl341 Cl 1.00441 0.00166 0.49982
 C342 C 1.07995 0.07996 0.42259
 C343 C 1.06963 0.06728 0.58936
 C344 C 1.11759 0.07680 0.36791
 C345 C 1.13314 0.09121 0.33704
 C346 C 1.12989 0.12798 0.32883
 C347 C 1.11384 0.15111 0.35512
 C348 C 1.09747 0.13616 0.38653
 C349 C 1.09815 0.09832 0.39203
 C350 C 1.08293 0.15997 0.41237
 N351 N 1.08501 0.19596 0.40733
 N352 N 1.10134 0.20995 0.37869
 C353 C 1.11629 0.18890 0.35287
 H354 H 1.11979 0.04809 0.37229
 H355 H 1.14586 0.07267 0.31843
 H356 H 1.07125 0.15081 0.43730
 H357 H 1.13148 0.20216 0.33199
 C358 C 0.88768 -0.08104 0.36875
 C359 C 0.87442 -0.09398 0.33583
 C360 C 0.89815 -0.10505 0.30860
 C361 C 0.93609 -0.10098 0.31391
 C362 C 0.94963 -0.08737 0.34734
 C363 C 0.92507 -0.07860 0.37544
 C364 C 0.98726 -0.08167 0.35081
 N365 N 1.00964 -0.09005 0.32313
 N366 N 0.99700 -0.10326 0.29201
 C367 C 0.96105 -0.10880 0.28636
 H368 H 0.86849 -0.07381 0.38959
 H369 H 0.84534 -0.09648 0.33202
 H370 H 0.99913 -0.06968 0.37469
 H371 H 0.95240 -0.11845 0.26010
 C372 C 0.88216 0.08397 0.62537
 C373 C 0.86781 0.09717 0.65749
 C374 C 0.89056 0.10698 0.68641
 C375 C 0.92851 0.10133 0.68362
 C376 C 0.94314 0.08768 0.65092
 C377 C 0.91969 0.08015 0.62119
 C378 C 0.98065 0.08071 0.64972
 N379 N 1.00194 0.08767 0.67900
 N380 N 0.98830 0.10073 0.70953
 C381 C 0.95237 0.10760 0.71293
 H382 H 0.86381 0.07770 0.60318
 H383 H 0.83871 0.10087 0.65932
 H384 H 0.99322 0.06891 0.62628
 H385 H 0.94281 0.11704 0.73880
 C386 C 1.07187 -0.10224 0.63972
 C387 C 1.08354 -0.11378 0.67364
 C388 C 1.11976 -0.10980 0.68464
 C389 C 1.14522 -0.09544 0.65991
 C390 C 1.13325 -0.08340 0.62524
 C391 C 1.09584 -0.08582 0.61564
 C392 C 1.15960 -0.07099 0.60085
 N393 N 1.19507 -0.07007 0.61080
 N394 N 1.20621 -0.08126 0.64321
 C395 C 1.18264 -0.09420 0.66791
 H396 H 1.04351 -0.10542 0.63260
 H397 H 1.06380 -0.12537 0.69178
 H398 H 1.15290 -0.06315 0.57354
 H399 H 1.19373 -0.10425 0.69304
 C400 C 0.36740 1.07586 1.11386
 C401 C 0.33381 1.08648 1.12705
 C402 C 0.30532 1.09629 1.10346
 C403 C 0.31005 1.09090 1.06556
 C404 C 0.34436 1.07955 1.05222
 C405 C 0.37370 1.07384 1.07666
 C406 C 0.34746 1.07215 1.01500
 N407 N 0.31823 1.07570 0.99280
 N408 N 0.28605 1.08587 1.00521
 C409 C 0.28088 1.09329 1.04069
 H410 H 0.38914 1.07036 1.13302
 H411 H 0.33116 1.08935 1.15607
 H412 H 0.37236 1.06237 1.00338
 H413 H 0.25358 1.09920 1.04916
 C414 C 0.36268 0.88936 0.92654
 C415 C 0.32779 0.87825 0.91737
 C416 C 0.30116 0.90292 0.90572
 C417 C 0.30959 0.94039 0.90720
 C418 C 0.34541 0.95167 0.91673
 C419 C 0.37248 0.92559 0.92500
 C420 C 0.35225 0.98885 0.91972
 N421 N 0.32532 1.01293 0.91356
 N422 N 0.29173 1.00247 0.90543
 C423 C 0.28284 0.96723 0.90262
 H424 H 0.38265 0.86913 0.93378
 H425 H 0.32260 0.84961 0.91733
 H426 H 0.37819 0.99922 0.92832
 H427 H 0.25458 0.96083 0.89863
 C428 C 0.63213 0.88579 1.07882
 C429 C 0.66537 0.87227 1.09055
 C430 C 0.69394 0.89530 1.10082
 C431 C 0.68944 0.93305 1.09536
 C432 C 0.65530 0.94676 1.08329
 C433 C 0.62612 0.92280 1.07635
 C434 C 0.65226 0.98386 1.07637
 N435 N 0.68141 1.00563 1.08086
 N436 N 0.71353 0.99283 1.09130
 C437 C 0.71866 0.95742 1.09825
 H438 H 0.61046 0.86702 1.07261
 H439 H 0.66774 0.84340 1.09357
 H440 H 0.62746 0.99579 1.06628
 H441 H 0.74598 0.94870 1.10413
 C442 C 0.63354 1.11227 0.92525
 C443 C 0.66425 1.12821 0.91073
 C444 C 0.67023 1.12846 0.87318
 C445 C 0.64195 1.11567 0.84983
 C446 C 0.61073 1.09896 0.86482
 C447 C 0.60733 1.09619 0.90296
 C448 C 0.58299 1.08740 0.84101
 N449 N 0.58605 1.09273 0.80493
 N450 N 0.61455 1.10949 0.79099
 C451 C 0.64218 1.12159 0.81213
 H452 H 0.63100 1.11127 0.95443
 H453 H 0.68452 1.13827 0.92956
 H454 H 0.55825 1.07537 0.85051
 H455 H 0.66300 1.13722 0.79923
 C456 C 0.07208 0.36218 0.10542
 C457 C 0.08521 0.32922 0.11753
 C458 C 0.12210 0.32057 0.11506
 C459 C 0.14660 0.34687 0.10182
 C460 C 0.13306 0.38038 0.08885
 C461 C 0.09513 0.38748 0.08964
 C462 C 0.15831 0.40626 0.07724
 N463 N 0.19432 0.39887 0.07818
 N464 N 0.20696 0.36766 0.09051
 C465 C 0.18447 0.34164 0.10268
 H466 H 0.04332 0.36755 0.10758
 H467 H 0.06612 0.30996 0.12835
 H468 H 0.15025 0.43277 0.06860
 H469 H 0.19670 0.31774 0.11389
 C470 C -0.11812 0.37106 -0.08480
 C471 C -0.13186 0.33874 -0.09807
 C472 C -0.10854 0.31115 -0.10906
 C473 C -0.07054 0.31549 -0.10467
 C474 C -0.05650 0.34828 -0.09065
 C475 C -0.08063 0.37673 -0.08192
 C476 C -0.01884 0.35077 -0.08449
 N477 N 0.00311 0.32271 -0.09274
 N478 N -0.00999 0.29221 -0.10641
 C479 C -0.04601 0.28756 -0.11251
 H480 H -0.13697 0.39221 -0.07759
 H481 H -0.16100 0.33564 -0.10082
 H482 H -0.00663 0.37421 -0.07227
 H483 H -0.05508 0.26181 -0.12264
 C484 C 0.06364 0.64276 -0.09885
 C485 C 0.07645 0.67595 -0.11054
 C486 C 0.11376 0.68276 -0.11253
 C487 C 0.13873 0.65479 -0.10430
 C488 C 0.12567 0.62096 -0.09228
 C489 C 0.08775 0.61536 -0.08875
 C490 C 0.15112 0.59340 -0.08560
 N491 N 0.18701 0.59959 -0.09025
 N492 N 0.19923 0.63124 -0.10158
 C493 C 0.17639 0.65889 -0.10903
 H494 H 0.03461 0.63884 -0.09662
 H495 H 0.05701 0.69684 -0.11728
 H496 H 0.14300 0.56669 -0.07770
 H497 H 0.18800 0.68338 -0.11940
 C498 C -0.07082 0.63680 0.10376
 C499 C -0.08536 0.66796 0.11863
 C500 C -0.12291 0.67191 0.12275
 C501 C -0.14617 0.64290 0.11327
 C502 C -0.13135 0.61120 0.09775
 C503 C -0.09336 0.60865 0.09228
 C504 C -0.15506 0.58257 0.08960
 N505 N -0.19101 0.58571 0.09636
 N506 N -0.20485 0.61528 0.11113
 C507 C -0.18371 0.64380 0.12006
 H508 H -0.04170 0.63510 0.10022
 H509 H -0.06710 0.68962 0.12606
 H510 H -0.14547 0.55737 0.07877
 H511 H -0.19644 0.66639 0.13322
 C512 C 1.08218 0.11236 0.63652
 C513 C 1.09061 0.12267 0.67179
 C514 C 1.09497 0.09702 0.69923
 C515 C 1.08902 0.06013 0.69110
 C516 C 1.08055 0.04959 0.65502
 C517 C 1.07805 0.07607 0.62745
 C518 C 1.07322 0.01301 0.64823
 N519 N 1.07493 -0.01121 0.67557
 N520 N 1.08287 -0.00134 0.70934
 C521 C 1.08966 0.03344 0.71809
 H522 H 1.07958 0.13293 0.61591
 H523 H 1.09469 0.15098 0.67745
 H524 H 1.06527 0.00339 0.62179
 H525 H 1.09454 0.03984 0.74621
 C526 C 0.88656 -0.09226 0.62222
 C527 C 0.87296 -0.10526 0.65468
 C528 C 0.89494 -0.10714 0.68578
 C529 C 0.93109 -0.09413 0.68439
 C530 C 0.94491 -0.08075 0.65126
 C531 C 0.92258 -0.08078 0.61983
 C532 C 0.98021 -0.06640 0.65113
 N533 N 1.00029 -0.06589 0.68206
 N534 N 0.98745 -0.07861 0.71306
 C535 C 0.95357 -0.09261 0.71533
 H536 H 0.86900 -0.09181 0.59855
 H537 H 0.84515 -0.11469 0.65529
 H538 H 0.99189 -0.05508 0.62696
 H539 H 0.94437 -0.10161 0.74146
 C540 C 1.09017 -0.11322 0.37100
 C541 C 1.10100 -0.12605 0.33740
 C542 C 1.10647 -0.10248 0.30845
 C543 C 1.09904 -0.06532 0.31301
 C544 C 1.08770 -0.05225 0.34723
 C545 C 1.08441 -0.07644 0.37669
 C546 C 1.07837 -0.01565 0.35020
 N547 N 1.08100 0.00627 0.32105
 N548 N 1.09206 -0.00590 0.28910
 C549 C 1.10104 -0.04089 0.28405
 H550 H 1.08691 -0.13215 0.39299
 H551 H 1.10614 -0.15457 0.33426
 H552 H 1.06826 -0.00427 0.37504
 H553 H 1.10877 -0.04935 0.25722
 C554 C 0.88700 0.08778 0.37093
 C555 C 0.87420 0.09934 0.33741
 C556 C 0.89771 0.10352 0.30807
 C557 C 0.93495 0.09431 0.31255
 C558 C 0.94814 0.08321 0.34706
 C559 C 0.92385 0.08055 0.37649
 C560 C 0.98504 0.07376 0.35050
 N561 N 1.00703 0.07528 0.32133
 N562 N 0.99458 0.08515 0.28891
 C563 C 0.95935 0.09440 0.28345
 H564 H 0.86805 0.08534 0.39305
 H565 H 0.84567 0.10595 0.33472
 H566 H 0.99658 0.06450 0.37578
 H567 H 0.95073 0.10077 0.25622
 C568 C 0.07858 0.36714 -0.11362
 C569 C 0.08933 0.33320 -0.12527
 C570 C 0.10071 0.30708 -0.10043
 C571 C 0.09944 0.31467 -0.06287
 C572 C 0.08766 0.34902 -0.05086
 C573 C 0.07849 0.37589 -0.07674
 C574 C 0.08418 0.35459 -0.01332
 N575 N 0.09330 0.32811 0.01027
 N576 N 0.10517 0.29625 -0.00104
 C577 C 0.10837 0.28855 -0.03673
 H578 H 0.07095 0.38702 -0.13371
 H579 H 0.08982 0.32764 -0.15406
 H580 H 0.07336 0.37916 -0.00233
 H581 H 0.11718 0.26187 -0.04426
 C582 C -0.11371 0.37013 0.08720
 C583 C -0.12585 0.33668 0.09883
 C584 C -0.10198 0.30746 0.10140
 C585 C -0.06550 0.31158 0.09033
 C586 C -0.05325 0.34558 0.07804
 C587 C -0.07741 0.37526 0.07770
 C588 C -0.01757 0.34827 0.06509
 N589 N 0.00435 0.31895 0.06513
 N590 N -0.00696 0.28720 0.07719
 C591 C -0.04108 0.28249 0.08976
 H592 H -0.13267 0.39242 0.08631
 H593 H -0.15394 0.33380 0.10674
 H594 H -0.00702 0.37316 0.05440
 H595 H -0.04898 0.25590 0.09844
 C596 C -0.06781 0.63961 -0.10169
 C597 C -0.08095 0.67202 -0.11538
 C598 C -0.11831 0.67871 -0.11776
 C599 C -0.14299 0.65127 -0.10762
 C600 C -0.12959 0.61819 -0.09353
 C601 C -0.09156 0.61276 -0.08983
 C602 C -0.15485 0.59112 -0.08510
 N603 N -0.19085 0.59704 -0.09003
 N604 N -0.20337 0.62795 -0.10328
 C605 C -0.18075 0.65508 -0.11249
 H606 H -0.03871 0.63583 -0.09954
 H607 H -0.06169 0.69242 -0.12346
 H608 H -0.14656 0.56496 -0.07554
 H609 H -0.19263 0.67888 -0.12435
 C610 C 0.07899 0.63195 0.11467
 C611 C 0.09117 0.66524 0.12702
 C612 C 0.10140 0.69218 0.10269
 C613 C 0.09706 0.68606 0.06495
 C614 C 0.08457 0.65209 0.05233
 C615 C 0.07669 0.62445 0.07760
 C616 C 0.07913 0.64753 0.01480
 N617 N 0.08643 0.67482 -0.00828
 N618 N 0.09825 0.70657 0.00355
 C619 C 0.10352 0.71322 0.03928
 H620 H 0.07248 0.61141 0.13435
 H621 H 0.09386 0.66950 0.15593
 H622 H 0.06818 0.62307 0.00349
 H623 H 0.11179 0.73996 0.04717
 C624 C 0.36187 1.10972 0.92632
 C625 C 0.32808 1.12167 0.91449
 C626 C 0.31537 1.11356 0.87969
 C627 C 0.33845 1.09512 0.85533
 C628 C 0.37319 1.08304 0.86732
 C629 C 0.38416 1.08899 0.90391
 C630 C 0.39610 1.06682 0.84165
 N631 N 0.38453 1.06214 0.80705
 N632 N 0.35190 1.07309 0.79603
 C633 C 0.32865 1.08968 0.81881
 H634 H 0.37006 1.11584 0.95385
 H635 H 0.31120 1.13649 0.93319
 H636 H 0.42357 1.05904 0.84791
 H637 H 0.30326 1.09926 0.80772
 C638 C 0.36059 0.93182 1.09893
 C639 C 0.32835 0.91800 1.11240
 C640 C 0.32358 0.88087 1.11663
 C641 C 0.35279 0.85727 1.10872
 C642 C 0.38557 0.87137 1.09459
 C643 C 0.38902 0.90896 1.08902
 C644 C 0.41433 0.84737 1.08792
 N645 N 0.41035 0.81182 1.09481
 N646 N 0.37978 0.79865 1.10834
 C647 C 0.35105 0.82011 1.11579
 H648 H 0.36293 0.96063 1.09522
 H649 H 0.30656 0.93648 1.11875
 H650 H 0.44028 0.85643 1.07816
 H651 H 0.32763 0.80790 1.12801
 C652 C 0.63406 1.07583 1.10979
 C653 C 0.66642 1.08960 1.12355
 C654 C 0.67574 1.12566 1.11828
 C655 C 0.65051 1.14893 1.10087
 C656 C 0.61736 1.13485 1.08673
 C657 C 0.60994 1.09742 1.08987
 C658 C 0.59227 1.15922 1.07140
 N659 N 0.60027 1.19473 1.06963
 N660 N 0.63135 1.20779 1.08264
 C661 C 0.65654 1.18623 1.09844
 H662 H 0.62838 1.04759 1.11389
 H663 H 0.68490 1.07155 1.13751
 H664 H 0.56582 1.15099 1.06195
 H665 H 0.68046 1.19878 1.10980
 C666 C 0.63990 0.93221 0.89174
 C667 C 0.67215 0.91831 0.87816
 C668 C 0.67886 0.88125 0.87836
 C669 C 0.65154 0.85750 0.89069
 C670 C 0.61846 0.87161 0.90424
 C671 C 0.61321 0.90947 0.90578
 C672 C 0.59126 0.84711 0.91442
 N673 N 0.59725 0.81123 0.91198
 N674 N 0.62834 0.79806 0.89959
 C675 C 0.65553 0.81989 0.88865
 H676 H 0.63623 0.96112 0.89221
 H677 H 0.69251 0.93677 0.86827
 H678 H 0.56488 0.85583 0.92330
 H679 H 0.67957 0.80748 0.87774
   
