data_POSCAR
  _audit_creation_date              2014-09-24
  _audit_creation_method            'ToBaCCo'
  _symmetry_space_group_name_H-M    'P1'
  _symmetry_Int_Tables_number       1
  _symmetry_cell_setting            triclinic
  loop_
  _symmetry_equiv_pos_as_xyz
 x,y,z
_cell_length_a 44.2719
_cell_length_b 44.1734
_cell_length_c 25.8761
_cell_angle_alpha 89.666700
_cell_angle_beta 89.977400
_cell_angle_gamma 90.809200
loop_
  _atom_site_label
  _atom_site_type_symbol
  _atom_site_fract_x
  _atom_site_fract_y
  _atom_site_fract_z
C1 C -0.00092 0.26255 -0.02256
 C2 C -0.00270 0.26333 0.02996
 C3 C -0.03220 0.26285 0.05721
 C4 C 0.02496 0.26240 0.06205
 C5 C 0.02862 0.26296 -0.04964
 C6 C -0.02824 0.25932 -0.05513
 C7 C -0.05438 0.28420 0.04582
 C8 C -0.08321 0.28149 0.06752
 C9 C -0.09077 0.25703 0.10097
 C10 C -0.06728 0.23727 0.11530
 C11 C -0.03857 0.24001 0.09342
 C12 C 0.03332 0.28740 0.09228
 C13 C 0.06115 0.28793 0.11786
 C14 C 0.08078 0.26338 0.11361
 C15 C 0.07152 0.23765 0.08586
 C16 C 0.04388 0.23722 0.06004
 C17 C 0.03644 0.23857 -0.08123
 C18 C 0.06513 0.23742 -0.10351
 C19 C 0.08634 0.26068 -0.09455
 C20 C 0.07820 0.28564 -0.06463
 C21 C 0.04949 0.28680 -0.04234
 C22 C -0.04632 0.23301 -0.05239
 C23 C -0.07216 0.23025 -0.08312
 C24 C -0.08023 0.25374 -0.11700
 C25 C -0.06228 0.28021 -0.11903
 C26 C -0.03619 0.28276 -0.08897
 H27 H -0.04965 0.30249 0.01884
 H28 H -0.10000 0.29747 0.05484
 H29 H -0.07083 0.21983 0.14434
 H30 H -0.02148 0.22377 0.10390
 H31 H 0.01883 0.30691 0.09437
 H32 H 0.06778 0.30779 0.13967
 H33 H 0.03752 0.21760 0.03739
 H34 H 0.02062 0.22002 -0.08741
 H35 H 0.07100 0.21821 -0.12712
 H36 H 0.09426 0.30391 -0.05784
 H37 H 0.04369 0.30601 -0.01867
 H38 H -0.04037 0.21469 -0.02651
 H39 H -0.08584 0.20977 -0.08057
 H40 H -0.06852 0.29891 -0.14392
 H41 H -0.02252 0.30325 -0.09124
 H42 H 0.08610 0.21824 0.08312
 C43 C 0.49469 0.77009 0.47868
 C44 C 0.49666 0.76925 0.53128
 C45 C 0.46936 0.77105 0.56455
 C46 C 0.52626 0.76608 0.55760
 C47 C 0.52213 0.77143 0.44570
 C48 C 0.46508 0.76785 0.45222
 C49 C 0.44843 0.79436 0.55755
 C50 C 0.42199 0.79490 0.58696
 C51 C 0.41645 0.77261 0.62469
 C52 C 0.43771 0.74984 0.63288
 C53 C 0.46405 0.74913 0.60312
 C54 C 0.53600 0.78803 0.59304
 C55 C 0.56485 0.78652 0.61470
 C56 C 0.58434 0.76304 0.60114
 C57 C 0.57404 0.74026 0.56768
 C58 C 0.54519 0.74174 0.54611
 C59 C 0.52713 0.74863 0.40925
 C60 C 0.55471 0.74727 0.38321
 C61 C 0.57758 0.76873 0.39321
 C62 C 0.57198 0.79260 0.42724
 C63 C 0.54435 0.79403 0.45315
 C64 C 0.44639 0.74228 0.45963
 C65 C 0.41775 0.74094 0.43714
 C66 C 0.40713 0.76542 0.40775
 C67 C 0.42631 0.79051 0.39879
 C68 C 0.45518 0.79164 0.42066
 H69 H 0.45240 0.81192 0.52889
 H70 H 0.40577 0.81263 0.58022
 H71 H 0.43362 0.73237 0.66169
 H72 H 0.47994 0.73105 0.60930
 H73 H 0.52159 0.80677 0.60276
 H74 H 0.57221 0.80390 0.64142
 H75 H 0.53781 0.72424 0.51963
 H76 H 0.51024 0.73107 0.40283
 H77 H 0.55870 0.72882 0.35678
 H78 H 0.58936 0.80947 0.43495
 H79 H 0.54071 0.81208 0.48050
 H80 H 0.45393 0.72351 0.48322
 H81 H 0.40365 0.72101 0.44327
 H82 H 0.41872 0.80941 0.37558
 H83 H 0.46946 0.81142 0.41430
 H84 H 0.58860 0.72171 0.55749
 C85 C 0.99612 0.73660 -0.02519
 C86 C 0.99416 0.73763 0.02741
 C87 C 1.02179 0.73775 0.05997
 C88 C 0.96456 0.73929 0.05426
 C89 C 0.96893 0.73290 -0.05829
 C90 C 1.02576 0.73922 -0.05183
 C91 C 1.04338 0.71493 0.05477
 C92 C 1.07114 0.71736 0.08013
 C93 C 1.07749 0.74241 0.11152
 C94 C 1.05528 0.76426 0.11926
 C95 C 1.02756 0.76193 0.09364
 C96 C 0.95683 0.71776 0.09229
 C97 C 0.92824 0.71792 0.11522
 C98 C 0.90701 0.73964 0.10049
 C99 C 0.91515 0.76193 0.06406
 C100 C 0.94374 0.76180 0.04117
 C101 C 0.96384 0.75341 -0.09888
 C102 C 0.93755 0.75117 -0.12850
 C103 C 0.91614 0.72820 -0.11827
 C104 C 0.92148 0.70726 -0.07850
 C105 C 0.94787 0.70936 -0.04910
 C106 C 1.04465 0.76455 -0.04413
 C107 C 1.07358 0.76567 -0.06568
 C108 C 1.08443 0.74125 -0.09488
 C109 C 1.06452 0.71678 -0.10501
 C110 C 1.03555 0.71577 -0.08362
 H111 H 1.03912 0.69583 0.02963
 H112 H 1.08798 0.70016 0.07427
 H113 H 1.05984 0.78361 0.14372
 H114 H 1.01114 0.77966 0.09831
 H115 H 0.97267 0.70039 0.10323
 H116 H 0.92250 0.70090 0.14402
 H117 H 0.94950 0.77898 0.01266
 H118 H 0.97983 0.77165 -0.10669
 H119 H 0.93359 0.76767 -0.15879
 H120 H 0.90513 0.68943 -0.07011
 H121 H 0.95166 0.69294 -0.01864
 H122 H 1.03722 0.78314 -0.02040
 H123 H 1.08796 0.78507 -0.05731
 H124 H 1.07124 0.69846 -0.12997
 H125 H 1.02102 0.69632 -0.09083
 H126 H 0.89919 0.77913 0.05283
 C127 C 0.49760 0.23471 0.47689
 C128 C 0.49871 0.23584 0.52954
 C129 C 0.52791 0.23332 0.55743
 C130 C 0.47118 0.24131 0.56078
 C131 C 0.46843 0.23346 0.44867
 C132 C 0.52570 0.23606 0.44573
 C133 C 0.54718 0.20891 0.54805
 C134 C 0.57632 0.20882 0.56870
 C135 C 0.58639 0.23291 0.59952
 C136 C 0.56659 0.25638 0.61144
 C137 C 0.53750 0.25658 0.59054
 C138 C 0.46336 0.22167 0.60159
 C139 C 0.43659 0.22584 0.62920
 C140 C 0.41750 0.24992 0.61676
 C141 C 0.42555 0.26981 0.57644
 C142 C 0.45239 0.26583 0.54923
 C143 C 0.46222 0.25521 0.41053
 C144 C 0.43354 0.25648 0.38824
 C145 C 0.41077 0.23598 0.40370
 C146 C 0.41740 0.21315 0.43965
 C147 C 0.44610 0.21182 0.46186
 C148 C 0.54614 0.26045 0.45129
 C149 C 0.57412 0.26011 0.42647
 C150 C 0.58197 0.23542 0.39575
 C151 C 0.56096 0.21177 0.38804
 C152 C 0.53292 0.21213 0.41281
 H153 H 0.54000 0.19050 0.52328
 H154 H 0.59129 0.19039 0.55968
 H155 H 0.57403 0.27500 0.63556
 H156 H 0.52295 0.27553 0.59836
 H157 H 0.47761 0.20272 0.61120
 H158 H 0.43064 0.21019 0.66006
 H159 H 0.45828 0.28158 0.51851
 H160 H 0.47916 0.27199 0.39966
 H161 H 0.42878 0.27406 0.36016
 H162 H 0.40013 0.19692 0.45139
 H163 H 0.45065 0.19452 0.49054
 H164 H 0.54071 0.27931 0.47603
 H165 H 0.58998 0.27867 0.43231
 H166 H 0.56660 0.19277 0.36375
 H167 H 0.51733 0.19325 0.40792
 H168 H 0.41091 0.28828 0.56586
 C169 C 0.73621 -0.00509 -0.04186
 C170 C 0.73378 -0.00407 0.01069
 C171 C 0.73093 -0.03203 0.04285
 C172 C 0.73459 0.02499 0.03915
 C173 C 0.73603 0.02279 -0.07443
 C174 C 0.73922 -0.03436 -0.06923
 C175 C 0.70949 -0.05469 0.03115
 C176 C 0.70790 -0.08128 0.06049
 C177 C 0.72663 -0.08517 0.10397
 C178 C 0.74764 -0.06207 0.11618
 C179 C 0.74973 -0.03584 0.08599
 C180 C 0.71045 0.03242 0.07159
 C181 C 0.71137 0.05912 0.10015
 C182 C 0.73686 0.07837 0.09791
 C183 C 0.76088 0.07111 0.06496
 C184 C 0.75979 0.04455 0.03585
 C185 C 0.75801 0.02700 -0.11291
 C186 C 0.75828 0.05306 -0.14368
 C187 C 0.73636 0.07563 -0.13713
 C188 C 0.71443 0.07121 -0.09812
 C189 C 0.71388 0.04487 -0.06804
 C190 C 0.76277 -0.05407 -0.05713
 C191 C 0.76400 -0.08259 -0.07994
 C192 C 0.74149 -0.09226 -0.11500
 C193 C 0.71909 -0.07144 -0.12947
 C194 C 0.71795 -0.04287 -0.10668
 H195 H 0.69408 -0.05190 -0.00095
 H196 H 0.69135 -0.09847 0.05006
 H197 H 0.76327 -0.06478 0.14802
 H198 H 0.76649 -0.01871 0.09572
 H199 H 0.69083 0.01758 0.07452
 H200 H 0.69234 0.06466 0.12449
 H201 H 0.77874 0.03900 0.01135
 H202 H 0.77519 0.01016 -0.11890
 H203 H 0.77537 0.05515 -0.17348
 H204 H 0.69817 0.08855 -0.08952
 H205 H 0.69630 0.04192 -0.03929
 H206 H 0.77997 -0.04746 -0.02950
 H207 H 0.78281 -0.09700 -0.07043
 H208 H 0.70147 -0.07771 -0.15655
 H209 H 0.69979 -0.02778 -0.11691
 H210 H 0.78061 0.08582 0.06237
 C211 C 0.23115 0.50705 0.48725
 C212 C 0.23230 0.50752 0.54001
 C213 C 0.23090 0.47919 0.57144
 C214 C 0.23491 0.53649 0.56876
 C215 C 0.22795 0.53536 0.45634
 C216 C 0.23283 0.47822 0.45801
 C217 C 0.20795 0.45738 0.56345
 C218 C 0.20784 0.43017 0.59128
 C219 C 0.23017 0.42471 0.62845
 C220 C 0.25253 0.44682 0.63770
 C221 C 0.25284 0.47391 0.60951
 C222 C 0.21417 0.54292 0.60809
 C223 C 0.21535 0.57078 0.63329
 C224 C 0.23719 0.59268 0.61934
 C225 C 0.25877 0.58578 0.58165
 C226 C 0.25773 0.55783 0.55670
 C227 C 0.24832 0.54188 0.41605
 C228 C 0.24626 0.56894 0.38811
 C229 C 0.22363 0.58976 0.39972
 C230 C 0.20292 0.58308 0.43933
 C231 C 0.20482 0.55591 0.46702
 C232 C 0.25592 0.45742 0.46776
 C233 C 0.25598 0.42947 0.44276
 C234 C 0.23323 0.42207 0.40710
 C235 C 0.21121 0.44356 0.39505
 C236 C 0.21092 0.47135 0.42050
 H237 H 0.19041 0.46125 0.53511
 H238 H 0.19042 0.41330 0.58374
 H239 H 0.27001 0.44283 0.66612
 H240 H 0.27062 0.49047 0.61652
 H241 H 0.19663 0.52664 0.61840
 H242 H 0.19892 0.57552 0.66310
 H243 H 0.27442 0.55300 0.52737
 H244 H 0.26623 0.52631 0.40705
 H245 H 0.26257 0.57390 0.35791
 H246 H 0.18534 0.59893 0.44879
 H247 H 0.18849 0.55106 0.49722
 H248 H 0.27355 0.46261 0.49546
 H249 H 0.27347 0.41339 0.45185
 H250 H 0.19390 0.43851 0.36668
 H251 H 0.19318 0.48723 0.41183
 H252 H 0.27608 0.60223 0.57101
 C253 C 0.27061 1.00804 -0.01372
 C254 C 0.26890 1.00836 0.03900
 C255 C 0.26502 1.03693 0.06805
 C256 C 0.26921 0.97980 0.06996
 C257 C 0.26782 0.97903 -0.04204
 C258 C 0.27377 1.03631 -0.04523
 C259 C 0.28490 1.04440 0.10829
 C260 C 0.28142 1.07126 0.13579
 C261 C 0.25737 1.09086 0.12466
 C262 C 0.23779 1.08333 0.08358
 C263 C 0.24133 1.05651 0.05611
 C264 C 0.29215 0.95848 0.06319
 C265 C 0.29141 0.93110 0.09055
 C266 C 0.26816 0.92493 0.12605
 C267 C 0.24564 0.94646 0.13383
 C268 C 0.24621 0.97373 0.10613
 C269 C 0.24167 0.96104 -0.03679
 C270 C 0.23997 0.93257 -0.05966
 C271 C 0.26467 0.92108 -0.08745
 C272 C 0.29001 0.94029 -0.09559
 C273 C 0.29156 0.96895 -0.07298
 C274 C 0.25586 1.04030 -0.08947
 C275 C 0.25770 1.06715 -0.11820
 C276 C 0.27749 1.09079 -0.10334
 C277 C 0.29551 1.08662 -0.05909
 C278 C 0.29428 1.05942 -0.03131
 H279 H 0.30329 1.02951 0.11811
 H280 H 0.29701 1.07616 0.16699
 H281 H 0.22003 1.09851 0.07184
 H282 H 0.22570 1.05112 0.02521
 H283 H 0.31046 0.96293 0.03631
 H284 H 0.30895 0.91470 0.08408
 H285 H 0.22834 0.98983 0.11207
 H286 H 0.22272 0.96895 -0.01435
 H287 H 0.21919 0.91953 -0.05564
 H288 H 0.30938 0.93262 -0.11720
 H289 H 0.31176 0.98279 -0.07791
 H290 H 0.23979 1.02292 -0.10108
 H291 H 0.24265 1.06993 -0.15083
 H292 H 0.31120 1.10417 -0.04671
 H293 H 0.30912 1.05661 0.00156
 H294 H 0.22740 0.94192 0.16083
 C295 C 0.77040 0.49611 0.45835
 C296 C 0.77350 0.49585 0.51079
 C297 C 0.77470 0.52431 0.54103
 C298 C 0.77285 0.46707 0.54043
 C299 C 0.77028 0.46759 0.42819
 C300 C 0.76491 0.52466 0.42952
 C301 C 0.79562 0.54749 0.52877
 C302 C 0.79373 0.57571 0.55263
 C303 C 0.77104 0.58098 0.58921
 C304 C 0.75135 0.55730 0.60376
 C305 C 0.75319 0.52913 0.57987
 C306 C 0.79787 0.45865 0.57013
 C307 C 0.79764 0.43103 0.59676
 C308 C 0.77202 0.41193 0.59524
 C309 C 0.74693 0.42052 0.56574
 C310 C 0.74730 0.44793 0.53865
 C311 C 0.74563 0.46050 0.39612
 C312 C 0.74372 0.43237 0.37187
 C313 C 0.76650 0.41107 0.37925
 C314 C 0.79179 0.41854 0.40937
 C315 C 0.79380 0.44674 0.43336
 C316 C 0.74086 0.54340 0.44327
 C317 C 0.73683 0.57106 0.41813
 C318 C 0.75614 0.57997 0.37763
 C319 C 0.77979 0.56096 0.36309
 C320 C 0.78404 0.53340 0.38870
 H321 H 0.81268 0.54404 0.49946
 H322 H 0.80937 0.59368 0.54160
 H323 H 0.73391 0.56098 0.63231
 H324 H 0.73691 0.51155 0.59000
 H325 H 0.81777 0.47317 0.57171
 H326 H 0.81743 0.42449 0.61850
 H327 H 0.72773 0.45423 0.51612
 H328 H 0.72731 0.47628 0.39152
 H329 H 0.72407 0.42680 0.34871
 H330 H 0.80955 0.40225 0.41523
 H331 H 0.81326 0.45199 0.45718
 H332 H 0.72551 0.53681 0.47407
 H333 H 0.71869 0.58559 0.43032
 H334 H 0.79497 0.56755 0.33204
 H335 H 0.80261 0.51915 0.37743
 H336 H 0.72706 0.40598 0.56375
 O337 O 0.22035 0.27070 0.19899
 O338 O 0.29240 0.26177 0.26701
 O339 O 0.26036 0.22879 0.20309
 O340 O 0.25141 0.30363 0.26331
 O341 O 0.22752 0.28197 0.32887
 O342 O 0.23605 0.20752 0.26882
 O343 O 0.26852 0.24007 0.33260
 O344 O 0.19617 0.24889 0.26406
 Cu345 Cu 0.25870 0.26845 0.22672
 Cu346 Cu 0.22978 0.24260 0.30550
 C347 C 0.19610 0.26036 0.21889
 C348 C 0.29280 0.24963 0.31157
 C349 C 0.24883 0.20558 0.22508
 C350 C 0.23754 0.30558 0.30612
 O351 O 0.75631 0.72136 0.30802
 O352 O 0.74944 0.79726 0.24944
 O353 O 0.71756 0.76437 0.31355
 O354 O 0.78992 0.75485 0.24642
 O355 O 0.76588 0.73609 0.17890
 O356 O 0.69347 0.74334 0.24798
 O357 O 0.72407 0.77738 0.18445
 O358 O 0.73329 0.70164 0.24020
 Cu359 Cu 0.75590 0.76151 0.28583
 Cu360 Cu 0.72696 0.73767 0.20593
 C361 C 0.74523 0.69862 0.28444
 C362 C 0.73471 0.80039 0.20767
 C363 C 0.69327 0.75477 0.29296
 C364 C 0.79033 0.74378 0.20129
 O365 O 0.79532 0.23555 0.24797
 O366 O 0.72263 0.22761 0.31593
 O367 O 0.75356 0.19428 0.25239
 O368 O 0.76421 0.26922 0.31137
 O369 O 0.74057 0.29027 0.24547
 O370 O 0.73095 0.21534 0.18562
 O371 O 0.69947 0.24762 0.24894
 O372 O 0.77233 0.25747 0.18212
 Cu373 Cu 0.76130 0.22963 0.28861
 Cu374 Cu 0.73355 0.25490 0.20891
 C375 C 0.79607 0.24739 0.20317
 C376 C 0.69850 0.23592 0.29391
 C377 C 0.74053 0.19195 0.20885
 C378 C 0.75355 0.29240 0.28907
 O379 O 0.19438 0.76581 0.25722
 O380 O 0.26639 0.76922 0.32819
 O381 O 0.23825 0.80531 0.26567
 O382 O 0.22219 0.73004 0.32172
 O383 O 0.24499 0.70869 0.25573
 O384 O 0.26171 0.78409 0.20027
 O385 O 0.28926 0.74733 0.26288
 O386 O 0.21746 0.74459 0.19145
 Cu387 Cu 0.22793 0.76972 0.29975
 Cu388 Cu 0.25558 0.74408 0.22084
 C389 C 0.19369 0.75491 0.21190
 C390 C 0.29005 0.75842 0.30803
 C391 C 0.25315 0.80762 0.22389
 C392 C 0.23083 0.70649 0.29832
 O393 O 0.77353 0.27066 0.66690
 O394 O 0.76169 0.19449 0.72216
 O395 O 0.73019 0.23006 0.66261
 O396 O 0.80429 0.23530 0.72674
 O397 O 0.78283 0.25539 0.79511
 O398 O 0.70890 0.25063 0.73070
 O399 O 0.73947 0.21450 0.79019
 O400 O 0.75200 0.29059 0.73540
 Cu401 Cu 0.76951 0.23055 0.68769
 Cu402 Cu 0.74363 0.25466 0.76987
 C403 C 0.76517 0.29369 0.69207
 C404 C 0.74848 0.19159 0.76545
 C405 C 0.70692 0.23995 0.68535
 C406 C 0.80633 0.24676 0.77150
 O407 O 0.29894 0.75089 0.77223
 O408 O 0.22418 0.73929 0.83149
 O409 O 0.25708 0.70874 0.76805
 O410 O 0.26511 0.78155 0.83524
 O411 O 0.24428 0.80503 0.76891
 O412 O 0.23593 0.73216 0.70206
 O413 O 0.20298 0.76295 0.76571
 O414 O 0.27788 0.77422 0.70608
 Cu415 Cu 0.26360 0.74278 0.80828
 Cu416 Cu 0.23825 0.77090 0.72888
 C417 C 0.30124 0.76476 0.72929
 C418 C 0.20083 0.74906 0.80872
 C419 C 0.24456 0.70797 0.72392
 C420 C 0.25555 0.80556 0.81398
 O421 O 0.27217 0.23022 0.82414
 O422 O 0.25507 0.30560 0.77096
 O423 O 0.22698 0.26726 0.83223
 O424 O 0.29987 0.26863 0.76406
 O425 O 0.27851 0.24665 0.69668
 O426 O 0.20510 0.24714 0.76347
 O427 O 0.23414 0.28429 0.70262
 O428 O 0.24941 0.20902 0.75756
 Cu429 Cu 0.26559 0.27007 0.80477
 Cu430 Cu 0.23961 0.24455 0.72335
 C431 C 0.26399 0.20666 0.79961
 C432 C 0.24180 0.30783 0.72761
 C433 C 0.20365 0.25718 0.80923
 C434 C 0.30162 0.25806 0.71867
 O435 O 0.74404 0.69725 0.73161
 O436 O 0.73869 0.76877 0.80293
 O437 O 0.70408 0.73986 0.73786
 O438 O 0.77791 0.72579 0.79773
 O439 O 0.80047 0.75014 0.73342
 O440 O 0.72660 0.76341 0.67284
 O441 O 0.76102 0.79299 0.73828
 O442 O 0.76686 0.72133 0.66725
 Cu443 Cu 0.73884 0.73051 0.77395
 Cu444 Cu 0.76593 0.75946 0.69644
 C445 C 0.75632 0.69709 0.68722
 C446 C 0.74943 0.79301 0.78320
 C447 C 0.70264 0.75408 0.69516
 C448 C 0.80182 0.73543 0.77566
 C449 C 0.27766 0.16459 0.18469
 C450 C 0.27983 0.13617 0.16210
 C451 C 0.25394 0.11816 0.15242
 C452 C 0.22529 0.12899 0.16894
 C453 C 0.22314 0.15832 0.19073
 C454 C 0.24965 0.17595 0.19919
 C455 C 0.19428 0.16911 0.20333
 N456 N 0.16964 0.15083 0.19836
 N457 N 0.17190 0.12250 0.18180
 C458 C 0.19879 0.11087 0.16755
 H459 H 0.29811 0.17781 0.19110
 H460 H 0.30199 0.12889 0.14996
 H461 H 0.19097 0.19186 0.21707
 H462 H 0.19918 0.08736 0.15641
 C463 C 0.76842 0.64283 0.68812
 C464 C 0.77239 0.61495 0.66456
 C465 C 0.76723 0.61140 0.61160
 C466 C 0.75718 0.63638 0.58187
 C467 C 0.75290 0.66483 0.60594
 C468 C 0.75910 0.66808 0.65952
 C469 C 0.74139 0.68866 0.57574
 N470 N 0.73539 0.68435 0.52490
 N471 N 0.73977 0.65779 0.50225
 C472 C 0.75029 0.63365 0.52897
 H473 H 0.77310 0.64481 0.72908
 H474 H 0.77972 0.59594 0.68781
 H475 H 0.73646 0.71050 0.59197
 H476 H 0.75279 0.61252 0.50869
 C477 C 0.72884 0.83257 0.13032
 C478 C 0.72614 0.86017 0.10498
 C479 C 0.72576 0.88746 0.13248
 C480 C 0.72536 0.88624 0.18757
 C481 C 0.72742 0.85782 0.21358
 C482 C 0.73044 0.83084 0.18435
 C483 C 0.72481 0.85743 0.26791
 N484 N 0.72089 0.88355 0.29408
 N485 N 0.71877 0.91004 0.26980
 C486 C 0.72047 0.91225 0.21766
 H487 H 0.73052 0.81233 0.10708
 H488 H 0.72624 0.86016 0.06311
 H489 H 0.72471 0.83673 0.29013
 H490 H 0.71693 0.93422 0.20037
 C491 C 0.24100 0.34150 0.65124
 C492 C 0.23835 0.36962 0.62728
 C493 C 0.23103 0.39527 0.65587
 C494 C 0.22507 0.39230 0.70946
 C495 C 0.22730 0.36352 0.73391
 C496 C 0.23626 0.33805 0.70458
 C497 C 0.21951 0.36122 0.78657
 N498 N 0.21110 0.38619 0.81288
 N499 N 0.20962 0.41323 0.79013
 C500 C 0.21620 0.41713 0.73934
 H501 H 0.24763 0.32238 0.62800
 H502 H 0.24276 0.37154 0.58618
 H503 H 0.21929 0.33984 0.80698
 H504 H 0.21404 0.43950 0.72269
 C505 C 0.83628 0.27672 0.15906
 C506 C 0.86362 0.27916 0.13270
 C507 C 0.88064 0.25330 0.12039
 C508 C 0.86712 0.22416 0.13073
 C509 C 0.83978 0.22194 0.15939
 C510 C 0.82476 0.24853 0.17440
 C511 C 0.82730 0.19299 0.16957
 N512 N 0.84034 0.16807 0.14973
 N513 N 0.86473 0.17016 0.11984
 C514 C 0.87817 0.19720 0.10893
 H515 H 0.82452 0.29719 0.16928
 H516 H 0.87235 0.30184 0.12584
 H517 H 0.80686 0.18990 0.19186
 H518 H 0.89669 0.19734 0.08176
 C519 C 0.33336 0.76429 0.65147
 C520 C 0.36111 0.76591 0.62635
 C521 C 0.38766 0.77228 0.65368
 C522 C 0.38611 0.77816 0.70734
 C523 C 0.35776 0.77687 0.73306
 C524 C 0.33125 0.76903 0.70486
 C525 C 0.35695 0.78448 0.78582
 N526 N 0.38286 0.79190 0.81098
 N527 N 0.40947 0.79256 0.78699
 C528 C 0.41198 0.78607 0.73605
 H529 H 0.31343 0.75847 0.62913
 H530 H 0.36201 0.76153 0.58530
 H531 H 0.33605 0.78532 0.80721
 H532 H 0.43409 0.78753 0.71838
 C533 C 0.13850 0.74614 0.21232
 C534 C 0.11053 0.74281 0.18834
 C535 C 0.10773 0.74636 0.13486
 C536 C 0.13350 0.75435 0.10498
 C537 C 0.16200 0.75834 0.12947
 C538 C 0.16457 0.75337 0.18367
 C539 C 0.18659 0.76820 0.09883
 N540 N 0.18298 0.77253 0.04728
 N541 N 0.15643 0.76809 0.02425
 C542 C 0.13156 0.75930 0.05130
 H543 H 0.13986 0.74246 0.25369
 H544 H 0.09093 0.73699 0.21162
 H545 H 0.20850 0.77325 0.11513
 H546 H 0.11049 0.75662 0.03065
 C547 C 0.65180 0.23205 0.69171
 C548 C 0.62280 0.23007 0.67131
 C549 C 0.61785 0.23412 0.61843
 C550 C 0.64262 0.24074 0.58533
 C551 C 0.67226 0.24336 0.60618
 C552 C 0.67688 0.23839 0.66002
 C553 C 0.69586 0.25210 0.57243
 N554 N 0.69022 0.25657 0.52146
 N555 N 0.66258 0.25338 0.50187
 C556 C 0.63859 0.24581 0.53204
 H557 H 0.65464 0.22843 0.73286
 H558 H 0.60400 0.22528 0.69704
 H559 H 0.71861 0.25615 0.58575
 H560 H 0.61659 0.24413 0.51411
 C561 C 0.76929 0.14469 0.80110
 C562 C 0.76640 0.11623 0.82393
 C563 C 0.73779 0.10291 0.83358
 C564 C 0.71165 0.11844 0.81553
 C565 C 0.71476 0.14798 0.79392
 C566 C 0.74381 0.16114 0.78751
 C567 C 0.68864 0.16296 0.77725
 N568 N 0.66138 0.14873 0.77988
 N569 N 0.65855 0.12047 0.79747
 C570 C 0.68268 0.10474 0.81464
 H571 H 0.79168 0.15443 0.79566
 H572 H 0.78692 0.10550 0.83688
 H573 H 0.68972 0.18557 0.76113
 H574 H 0.67900 0.08140 0.82585
 C575 C 0.23009 0.67363 0.37577
 C576 C 0.22857 0.64550 0.40025
 C577 C 0.22257 0.61915 0.37206
 C578 C 0.21647 0.62140 0.31843
 C579 C 0.21769 0.65013 0.29346
 C580 C 0.22558 0.67634 0.32231
 C581 C 0.21008 0.65159 0.24068
 N582 N 0.20261 0.62595 0.21479
 N583 N 0.20193 0.59900 0.23809
 C584 C 0.20847 0.59585 0.28898
 H585 H 0.23592 0.69334 0.39863
 H586 H 0.23305 0.64416 0.44136
 H587 H 0.20925 0.67282 0.21987
 H588 H 0.20693 0.57349 0.30605
 C589 C 0.27077 0.85938 0.81636
 C590 C 0.27390 0.88722 0.84078
 C591 C 0.26361 0.89146 0.89169
 C592 C 0.25141 0.86588 0.91911
 C593 C 0.24745 0.83775 0.89346
 C594 C 0.25761 0.83454 0.84189
 C595 C 0.23319 0.81371 0.92044
 N596 N 0.22587 0.81688 0.97093
 N597 N 0.23185 0.84239 0.99623
 C598 C 0.24463 0.86677 0.97234
 H599 H 0.27872 0.85722 0.77694
 H600 H 0.28317 0.90597 0.81842
 H601 H 0.22768 0.79245 0.90207
 H602 H 0.24992 0.88634 0.99558
 C603 C 0.76704 0.34678 0.28469
 C604 C 0.77041 0.37541 0.30643
 C605 C 0.76287 0.38029 0.35817
 C606 C 0.75120 0.35605 0.38851
 C607 C 0.74756 0.32692 0.36639
 C608 C 0.75611 0.32225 0.31416
 C609 C 0.73444 0.30376 0.39701
 N610 N 0.72637 0.30941 0.44655
 N611 N 0.73030 0.33664 0.46750
 C612 C 0.74238 0.36014 0.44023
 H613 H 0.77337 0.34365 0.24463
 H614 H 0.77907 0.39391 0.28278
 H615 H 0.72997 0.28138 0.38204
 H616 H 0.74474 0.38184 0.45909
 C617 C 0.15332 0.27896 0.82090
 C618 C 0.12509 0.27999 0.84451
 C619 C 0.11699 0.25903 0.88308
 C620 C 0.13801 0.23689 0.89888
 C621 C 0.16689 0.23610 0.87523
 C622 C 0.17435 0.25726 0.83584
 C623 C 0.18726 0.21384 0.89150
 N624 N 0.17917 0.19395 0.92932
 N625 N 0.15215 0.19484 0.95189
 C626 C 0.13133 0.21561 0.93805
 H627 H 0.15887 0.29530 0.79082
 H628 H 0.10923 0.29702 0.83209
 H629 H 0.20947 0.21205 0.87448
 H630 H 0.10994 0.21548 0.95824
 C631 C 0.63880 0.76600 0.29269
 C632 C 0.61098 0.76974 0.31674
 C633 C 0.60781 0.76518 0.36999
 C634 C 0.63302 0.75590 0.39956
 C635 C 0.66129 0.75149 0.37497
 C636 C 0.66427 0.75733 0.32106
 C637 C 0.68520 0.74024 0.40512
 N638 N 0.68123 0.73503 0.45639
 N639 N 0.65491 0.73988 0.47958
 C640 C 0.63067 0.74996 0.45294
 H641 H 0.64051 0.77029 0.25151
 H642 H 0.59177 0.77648 0.29366
 H643 H 0.70683 0.73481 0.38861
 H644 H 0.60974 0.75290 0.47369
 C645 C 0.83316 0.73431 0.85435
 C646 C 0.86070 0.73269 0.87997
 C647 C 0.88737 0.72721 0.85276
 C648 C 0.88605 0.72178 0.79890
 C649 C 0.85790 0.72313 0.77273
 C650 C 0.83139 0.73048 0.80068
 C651 C 0.85727 0.71616 0.71970
 N652 N 0.88317 0.70918 0.69474
 N653 N 0.90960 0.70838 0.71919
 C654 C 0.91192 0.71432 0.77038
 H655 H 0.81317 0.73961 0.87652
 H656 H 0.86136 0.73665 0.92126
 H657 H 0.83648 0.71545 0.69794
 H658 H 0.93387 0.71268 0.78840
 C659 C 0.34675 0.23686 0.30856
 C660 C 0.37515 0.23338 0.33057
 C661 C 0.37985 0.23905 0.38306
 C662 C 0.35547 0.24885 0.41402
 C663 C 0.32649 0.25270 0.39152
 C664 C 0.32212 0.24622 0.33827
 C665 C 0.30332 0.26415 0.42287
 N666 N 0.30873 0.27039 0.47330
 N667 N 0.33578 0.26635 0.49449
 C668 C 0.35935 0.25598 0.46659
 H669 H 0.34394 0.23201 0.26782
 H670 H 0.39367 0.22617 0.30641
 H671 H 0.28112 0.26883 0.40790
 H672 H 0.38092 0.25376 0.48569
 C673 C 0.73951 0.84778 0.78492
 C674 C 0.73658 0.87543 0.80972
 C675 C 0.74206 0.87838 0.86306
 C676 C 0.74916 0.85177 0.89203
 C677 C 0.75333 0.82380 0.86616
 C678 C 0.74788 0.82179 0.81219
 C679 C 0.76305 0.79879 0.89548
 N680 N 0.76542 0.80087 0.94754
 N681 N 0.75881 0.82623 0.97231
 C682 C 0.75047 0.85156 0.94652
 H683 H 0.73512 0.84670 0.74376
 H684 H 0.73127 0.89498 0.78612
 H685 H 0.76900 0.77763 0.87781
 H686 H 0.74437 0.87102 0.96910
 C687 C 0.25847 0.35612 0.32721
 C688 C 0.25777 0.38385 0.35238
 C689 C 0.23273 0.39199 0.38198
 C690 C 0.20775 0.37165 0.38616
 C691 C 0.20800 0.34376 0.35910
 C692 C 0.23408 0.33559 0.33057
 C693 C 0.18177 0.32534 0.36091
 N694 N 0.15799 0.33341 0.39058
 N695 N 0.15849 0.35871 0.41826
 C696 C 0.18253 0.37803 0.41720
 H697 H 0.27857 0.35040 0.30567
 H698 H 0.27702 0.39915 0.34875
 H699 H 0.17953 0.30492 0.33848
 H700 H 0.18170 0.39808 0.44086
 C701 C 0.27161 0.17345 0.87549
 C702 C 0.27544 0.14546 0.89923
 C703 C 0.27768 0.11886 0.87005
 C704 C 0.27907 0.12141 0.81513
 C705 C 0.27595 0.15025 0.79087
 C706 C 0.27071 0.17630 0.82155
 C707 C 0.27968 0.15209 0.73681
 N708 N 0.28554 0.12688 0.70920
 N709 N 0.28853 0.09999 0.73184
 C710 C 0.28588 0.09645 0.78367
 H711 H 0.26826 0.19300 0.89984
 H712 H 0.27456 0.14447 0.94107
 H713 H 0.27920 0.17329 0.71604
 H714 H 0.29017 0.07431 0.79974
 C715 C 0.77314 0.65962 0.33289
 C716 C 0.77602 0.63080 0.35420
 C717 C 0.75219 0.60965 0.35179
 C718 C 0.72482 0.61779 0.32725
 C719 C 0.72151 0.64747 0.30698
 C720 C 0.74630 0.66826 0.30864
 C721 C 0.69311 0.65545 0.28685
 N722 N 0.67051 0.63449 0.28419
 N723 N 0.67422 0.60618 0.30059
 C724 C 0.70057 0.59709 0.32187
 H725 H 0.79221 0.67522 0.33482
 H726 H 0.79699 0.62500 0.37318
 H727 H 0.68833 0.67816 0.27396
 H728 H 0.70229 0.57375 0.33410
 C729 C 0.15243 0.77052 0.83616
 C730 C 0.12470 0.76907 0.86138
 C731 C 0.11410 0.74202 0.88451
 C732 C 0.13330 0.71630 0.88411
 C733 C 0.16119 0.71763 0.85686
 C734 C 0.17090 0.74517 0.83339
 C735 C 0.17842 0.69114 0.85396
 N736 N 0.16965 0.66596 0.88042
 N737 N 0.14487 0.66546 0.90952
 C738 C 0.12662 0.68976 0.91273
 H739 H 0.15964 0.79182 0.81886
 H740 H 0.11087 0.78911 0.86065
 H741 H 0.19869 0.69005 0.83084
 H742 H 0.10748 0.68821 0.93854
 C743 C 0.64732 0.25538 0.30902
 C744 C 0.61949 0.25574 0.33383
 C745 C 0.61225 0.23432 0.37188
 C746 C 0.63366 0.21219 0.38576
 C747 C 0.66187 0.21118 0.35956
 C748 C 0.66896 0.23349 0.32118
 C749 C 0.68148 0.18741 0.37234
 N750 N 0.67406 0.16751 0.41054
 N751 N 0.64827 0.16945 0.43664
 C752 C 0.62783 0.19107 0.42558
 H753 H 0.65207 0.27275 0.28030
 H754 H 0.60335 0.27289 0.32307
 H755 H 0.70236 0.18385 0.35220
 H756 H 0.60730 0.19158 0.44820
 C757 C 0.83722 0.24460 0.85084
 C758 C 0.86448 0.24562 0.87755
 C759 C 0.89178 0.25122 0.85163
 C760 C 0.89148 0.25569 0.79727
 C761 C 0.86354 0.25594 0.77022
 C762 C 0.83618 0.24947 0.79727
 C763 C 0.86413 0.26342 0.71719
 N764 N 0.89088 0.26790 0.69261
 N765 N 0.91710 0.26570 0.71737
 C766 C 0.91833 0.25967 0.76872
 H767 H 0.81671 0.23972 0.87236
 H768 H 0.86421 0.24228 0.91907
 H769 H 0.84377 0.26639 0.69497
 H770 H 0.94030 0.25790 0.78655
 C771 C 0.34549 0.76513 0.30760
 C772 C 0.37356 0.76741 0.33147
 C773 C 0.37633 0.76437 0.38512
 C774 C 0.34999 0.75919 0.41539
 C775 C 0.32144 0.75566 0.39090
 C776 C 0.31915 0.75945 0.33642
 C777 C 0.29639 0.74773 0.42204
 N778 N 0.29945 0.74580 0.47407
 N779 N 0.32585 0.75099 0.49716
 C780 C 0.35116 0.75770 0.46969
 H781 H 0.34435 0.76806 0.26604
 H782 H 0.39341 0.77131 0.30771
 H783 H 0.27450 0.74246 0.40590
 H784 H 0.37188 0.76198 0.49064
 C785 C 0.25757 0.84119 0.14757
 C786 C 0.26110 0.86942 0.12403
 C787 C 0.26663 0.89539 0.15337
 C788 C 0.27021 0.89263 0.20757
 C789 C 0.26717 0.86376 0.23171
 C790 C 0.25974 0.83794 0.20137
 C791 C 0.27268 0.86175 0.28522
 N792 N 0.27969 0.88702 0.31247
 N793 N 0.28191 0.91412 0.28992
 C794 C 0.27754 0.91778 0.23844
 H795 H 0.25224 0.82183 0.12354
 H796 H 0.25874 0.87115 0.08258
 H797 H 0.27229 0.84039 0.30567
 H798 H 0.28029 0.94023 0.22208
 C799 C 0.76585 0.32775 0.61619
 C800 C 0.76696 0.35624 0.59308
 C801 C 0.77169 0.38234 0.62256
 C802 C 0.77613 0.37954 0.67666
 C803 C 0.77615 0.35036 0.70007
 C804 C 0.76977 0.32434 0.66964
 C805 C 0.78308 0.34837 0.75310
 N806 N 0.78753 0.37391 0.78106
 N807 N 0.78573 0.40129 0.75965
 C808 C 0.78010 0.40499 0.70854
 H809 H 0.76112 0.30826 0.59213
 H810 H 0.76387 0.35798 0.55168
 H811 H 0.78563 0.32690 0.77262
 H812 H 0.77867 0.42779 0.69353
 C813 C 0.74147 0.16136 0.12940
 C814 C 0.74142 0.13411 0.10274
 C815 C 0.73801 0.10648 0.12897
 C816 C 0.73472 0.10641 0.18353
 C817 C 0.73374 0.13427 0.21065
 C818 C 0.73791 0.16203 0.18327
 C819 C 0.72802 0.13317 0.26418
 N820 N 0.72552 0.10614 0.28897
 N821 N 0.72815 0.08008 0.26395
 C822 C 0.73274 0.07927 0.21221
 H823 H 0.74483 0.18217 0.10763
 H824 H 0.74392 0.13460 0.06108
 H825 H 0.72494 0.15335 0.28662
 H826 H 0.73497 0.05742 0.19417
 C827 C 0.26480 0.65833 0.69930
 C828 C 0.26333 0.63084 0.67337
 C829 C 0.23774 0.62267 0.64464
 C830 C 0.21312 0.64280 0.64177
 C831 C 0.21425 0.67052 0.66930
 C832 C 0.24073 0.67859 0.69736
 C833 C 0.18844 0.68881 0.66857
 N834 N 0.16413 0.68070 0.63970
 N835 N 0.16372 0.65548 0.61179
 C836 C 0.18735 0.63631 0.61174
 H837 H 0.28516 0.66402 0.72057
 H838 H 0.28231 0.61568 0.67598
 H839 H 0.18700 0.70920 0.69116
 H840 H 0.18577 0.61628 0.58803
 C841 C 0.84060 0.76488 0.17919
 C842 C 0.86848 0.76421 0.15441
 C843 C 0.87650 0.73949 0.12405
 C844 C 0.85572 0.71503 0.11803
 C845 C 0.82744 0.71541 0.14406
 C846 C 0.81970 0.74090 0.17437
 C847 C 0.80832 0.68980 0.13973
 N848 N 0.81636 0.66638 0.10924
 N849 N 0.84226 0.66667 0.08309
 C850 C 0.86217 0.69016 0.08637
 H851 H 0.83519 0.78454 0.20210
 H852 H 0.88411 0.78307 0.15938
 H853 H 0.78730 0.68780 0.16068
 H854 H 0.88278 0.68918 0.06405
 C855 C 0.33901 0.23200 0.66475
 C856 C 0.36719 0.22970 0.64138
 C857 C 0.38841 0.25345 0.64422
 C858 C 0.38093 0.28021 0.67111
 C859 C 0.35189 0.28290 0.69382
 C860 C 0.33108 0.25815 0.69167
 C861 C 0.34456 0.31064 0.71693
 N862 N 0.36553 0.33324 0.71969
 N863 N 0.39324 0.33011 0.70068
 C864 C 0.40168 0.30439 0.67664
 H865 H 0.32344 0.21290 0.66253
 H866 H 0.37247 0.20921 0.62062
 H867 H 0.32232 0.31492 0.73209
 H868 H 0.42456 0.30311 0.66233
 C869 C 0.14068 0.26650 0.21676
 C870 C 0.11295 0.26781 0.19152
 C871 C 0.11109 0.26448 0.13786
 C872 C 0.13790 0.26043 0.10888
 C873 C 0.16602 0.25758 0.13471
 C874 C 0.16745 0.26145 0.18928
 C875 C 0.19145 0.25014 0.10472
 N876 N 0.18923 0.24859 0.05256
 N877 N 0.16328 0.25346 0.02823
 C878 C 0.13755 0.25925 0.05451
 H879 H 0.14119 0.26942 0.25830
 H880 H 0.09267 0.27097 0.21419
 H881 H 0.21299 0.24494 0.12173
 H882 H 0.11716 0.26303 0.03258
 C883 C 0.65100 0.73535 0.67696
 C884 C 0.62278 0.73706 0.65363
 C885 C 0.61527 0.76194 0.62280
 C886 C 0.63691 0.78548 0.61482
 C887 C 0.66539 0.78431 0.64006
 C888 C 0.67271 0.75854 0.67062
 C889 C 0.68511 0.80945 0.63455
 N890 N 0.67761 0.83284 0.60314
 N891 N 0.65166 0.83304 0.57721
 C892 C 0.63109 0.81018 0.58190
 H893 H 0.65599 0.71543 0.69989
 H894 H 0.60652 0.71886 0.66003
 H895 H 0.70613 0.81124 0.65543
 H896 H 0.61048 0.81152 0.55967
   
