data_POSCAR
  _audit_creation_date              2014-09-24
  _audit_creation_method            'ToBaCCo'
  _symmetry_space_group_name_H-M    'P1'
  _symmetry_Int_Tables_number       1
  _symmetry_cell_setting            triclinic
  loop_
  _symmetry_equiv_pos_as_xyz
 x,y,z
_cell_length_a 17.9427
_cell_length_b 30.4158
_cell_length_c 16.5989
_cell_angle_alpha 89.223400
_cell_angle_beta 90.215800
_cell_angle_gamma 89.095200
loop_
  _atom_site_label
  _atom_site_type_symbol
  _atom_site_fract_x
  _atom_site_fract_y
  _atom_site_fract_z
N1 N 0.11764 0.04922 0.10576
 N2 N 0.15973 0.08368 0.11830
 N3 N 0.06293 -0.04166 0.16411
 N4 N 0.06370 -0.07595 0.21382
 N5 N 0.12096 -0.04305 0.11625
 N6 N 0.16286 -0.07806 0.13211
 N7 N 0.05854 0.05057 0.15195
 N8 N 0.05873 0.08571 0.19750
 C9 C 0.12213 0.10595 0.17585
 C10 C 0.12675 -0.09804 0.19347
 N11 N -0.13775 -0.04736 0.07664
 N12 N -0.18200 -0.08145 0.08708
 N13 N -0.09992 0.04888 0.12642
 N14 N -0.11403 0.08549 0.16580
 N15 N -0.14495 0.04530 0.06447
 N16 N -0.19311 0.08165 0.06041
 N17 N -0.09483 -0.04276 0.14011
 N18 N -0.10886 -0.07275 0.19546
 Mn19 Mn -0.01842 0.00393 0.14640
 C20 C -0.16282 -0.09670 0.16185
 C21 C -0.17132 0.10515 0.12477
 N22 N 0.14461 -0.04757 -0.05499
 N23 N 0.19196 -0.08431 -0.05211
 N24 N 0.09743 0.04410 -0.12759
 N25 N 0.11160 0.07829 -0.17531
 N26 N 0.14134 0.04432 -0.06412
 N27 N 0.18645 0.07794 -0.06682
 N28 N 0.10140 -0.04924 -0.11881
 N29 N 0.11566 -0.08521 -0.16021
 Mn30 Mn 0.13186 0.00060 0.02586
 C31 C 0.17140 -0.10626 -0.11882
 C32 C 0.16769 0.09883 -0.13616
 N33 N -0.12165 0.04144 -0.10669
 N34 N -0.16390 0.07663 -0.12170
 N35 N -0.05755 -0.05149 -0.14444
 N36 N -0.05780 -0.08661 -0.19066
 N37 N -0.11541 -0.05134 -0.09626
 N38 N -0.15838 -0.08832 -0.10988
 N39 N -0.06263 0.04140 -0.15341
 N40 N -0.06349 0.07633 -0.20155
 Mn41 Mn -0.13096 -0.00321 -0.01576
 Mn42 Mn 0.01978 -0.00371 -0.13735
 Cl43 Cl 0.00046 -0.00062 0.00459
 C44 C -0.12722 0.09781 -0.18157
 C45 C -0.11986 -0.10884 -0.16904
 N46 N 0.61395 0.55074 0.59873
 N47 N 0.65489 0.58561 0.61251
 N48 N 0.56117 0.45732 0.65307
 N49 N 0.56198 0.42216 0.70061
 N50 N 0.62066 0.45781 0.60708
 N51 N 0.66317 0.42269 0.62192
 N52 N 0.55563 0.55016 0.64637
 N53 N 0.55532 0.58477 0.69368
 C54 C 0.61764 0.60650 0.67202
 C55 C 0.62614 0.40104 0.68096
 N56 N 0.35781 0.45482 0.56186
 N57 N 0.31274 0.42114 0.56338
 N58 N 0.39696 0.54784 0.61935
 N59 N 0.38103 0.58290 0.66252
 N60 N 0.35443 0.54688 0.55485
 N61 N 0.30815 0.58105 0.55262
 N62 N 0.40133 0.45456 0.62566
 N63 N 0.38691 0.42005 0.67244
 Mn64 Mn 0.47867 0.50235 0.63736
 C65 C 0.33112 0.39976 0.63236
 C66 C 0.32526 0.60312 0.62023
 N67 N 0.64502 0.45500 0.43617
 N68 N 0.69287 0.42161 0.43889
 N69 N 0.59520 0.54365 0.36190
 N70 N 0.60984 0.57383 0.30712
 N71 N 0.63773 0.54785 0.42579
 N72 N 0.68231 0.58186 0.41622
 N73 N 0.60074 0.45206 0.37338
 N74 N 0.61737 0.41669 0.33150
 Mn75 Mn 0.63042 0.50309 0.51724
 C76 C 0.67508 0.39816 0.37312
 C77 C 0.66371 0.59750 0.34154
 N78 N 0.37930 0.54352 0.38378
 N79 N 0.33741 0.57859 0.36829
 N80 N 0.44239 0.45019 0.34648
 N81 N 0.44270 0.41530 0.30024
 N82 N 0.38289 0.45121 0.39211
 N83 N 0.34102 0.41680 0.37847
 N84 N 0.43768 0.54248 0.33640
 N85 N 0.43716 0.57707 0.28739
 Mn86 Mn 0.36786 0.49923 0.47302
 Mn87 Mn 0.51908 0.49692 0.35379
 Cl88 Cl 0.49912 0.50043 0.49555
 C89 C 0.37390 0.59898 0.30766
 C90 C 0.37916 0.39489 0.32086
 C91 C 0.14521 0.14763 0.21003
 C92 C 0.20884 0.16894 0.18399
 C93 C 0.23042 0.21130 0.21729
 N94 N 0.29253 0.23139 0.19012
 N95 N 0.31252 0.26991 0.21980
 C96 C 0.27104 0.28971 0.27766
 N97 N 0.20892 0.26963 0.30480
 N98 N 0.18895 0.23111 0.27513
 C99 C 0.29257 0.33201 0.31120
 C100 C 0.35637 0.35336 0.28581
 H101 H 0.24336 0.15445 0.13764
 H102 H 0.25784 0.34639 0.35748
 H103 H 0.11035 0.16207 0.25609
 H104 H 0.39153 0.33905 0.23986
 C105 C 0.80612 0.86541 0.20437
 C106 C 0.77551 0.82970 0.16586
 C107 C 0.76115 0.78873 0.21119
 N108 N 0.73876 0.75244 0.17198
 N109 N 0.72811 0.71493 0.21232
 C110 C 0.73976 0.71216 0.29329
 N111 N 0.76213 0.74845 0.33251
 N112 N 0.77281 0.78597 0.29216
 C113 C 0.72530 0.67116 0.33854
 C114 C 0.69552 0.63534 0.29960
 H115 H 0.76750 0.83059 0.10113
 H116 H 0.73250 0.67034 0.40337
 H117 H 0.81680 0.86339 0.26859
 H118 H 0.68577 0.63731 0.23520
 C119 C 0.85019 0.14065 0.78293
 C120 C 0.78884 0.16468 0.81070
 C121 C 0.76869 0.20875 0.77831
 N122 N 0.70901 0.23093 0.80845
 N123 N 0.69036 0.27089 0.78030
 C124 C 0.73077 0.29026 0.72093
 N125 N 0.79046 0.26807 0.69080
 N126 N 0.80911 0.22811 0.71894
 C127 C 0.71058 0.33434 0.68861
 C128 C 0.64891 0.35817 0.71616
 H129 H 0.75515 0.15115 0.85876
 H130 H 0.74442 0.34802 0.64083
 H131 H 0.88443 0.15413 0.73534
 H132 H 0.61448 0.34446 0.76338
 C133 C 0.20239 0.85523 0.86050
 C134 C 0.18023 0.83206 0.79258
 C135 C 0.21435 0.78937 0.77156
 N136 N 0.19074 0.76796 0.70520
 N137 N 0.22105 0.72932 0.68544
 C138 C 0.27611 0.71061 0.73139
 N139 N 0.29969 0.73201 0.79776
 N140 N 0.26939 0.77065 0.81751
 C141 C 0.31058 0.66807 0.71024
 C142 C 0.28904 0.64488 0.64242
 H143 H 0.13641 0.84522 0.75365
 H144 H 0.35466 0.65490 0.74875
 H145 H 0.24620 0.84153 0.89880
 H146 H 0.24521 0.65790 0.60347
 C147 C 0.20445 0.13958 0.83894
 C148 C 0.17986 0.16730 0.77674
 C149 C 0.21641 0.20978 0.76123
 N150 N 0.19059 0.23726 0.70213
 N151 N 0.22276 0.27587 0.68866
 C152 C 0.28190 0.28858 0.73381
 N153 N 0.30771 0.26110 0.79290
 N154 N 0.27555 0.22250 0.80636
 C155 C 0.31842 0.33108 0.71855
 C156 C 0.29435 0.35881 0.65615
 H157 H 0.13204 0.15846 0.74076
 H158 H 0.36587 0.33997 0.75507
 H159 H 0.25158 0.14922 0.87525
 H160 H 0.24766 0.34916 0.61920
 C161 C 0.86008 0.85314 0.79752
 C162 C 0.79607 0.83058 0.82116
 C163 C 0.77307 0.78879 0.78493
 N164 N 0.71036 0.76887 0.81139
 N165 N 0.68837 0.73118 0.77958
 C166 C 0.72829 0.71189 0.71994
 N167 N 0.79104 0.73180 0.69344
 N168 N 0.81306 0.76952 0.72528
 C169 C 0.70473 0.67013 0.68392
 C170 C 0.64081 0.64809 0.70857
 H171 H 0.76092 0.84385 0.86823
 H172 H 0.73879 0.65638 0.63646
 H173 H 0.89498 0.83954 0.75060
 H174 H 0.60636 0.66166 0.75585
 C175 C 0.14948 0.85936 0.22854
 C176 C 0.21071 0.83630 0.19841
 C177 C 0.23128 0.79188 0.22661
 N178 N 0.29033 0.77064 0.19324
 N179 N 0.30922 0.73002 0.21723
 C180 C 0.26952 0.70918 0.27536
 N181 N 0.21047 0.73042 0.30873
 N182 N 0.19158 0.77104 0.28474
 C183 C 0.29004 0.66471 0.30338
 C184 C 0.35130 0.64172 0.27315
 H185 H 0.24370 0.85075 0.15066
 H186 H 0.25696 0.65016 0.35095
 H187 H 0.11584 0.84528 0.27606
 H188 H 0.38507 0.65596 0.22589
 C189 C 0.79746 0.14376 0.14380
 C190 C 0.82122 0.16827 0.20934
 C191 C 0.78693 0.21099 0.22882
 N192 N 0.81192 0.23370 0.29302
 N193 N 0.78132 0.27244 0.31145
 C194 C 0.72462 0.28989 0.26628
 N195 N 0.69969 0.26720 0.20205
 N196 N 0.73028 0.22847 0.18362
 C197 C 0.68973 0.33236 0.28616
 C198 C 0.71241 0.35669 0.35204
 H199 H 0.86639 0.15613 0.24752
 H200 H 0.64425 0.34448 0.24845
 H201 H 0.75229 0.15641 0.10618
 H202 H 0.75766 0.34478 0.39022
   
