data_POSCAR
  _audit_creation_date              2014-09-24
  _audit_creation_method            'ToBaCCo'
  _symmetry_space_group_name_H-M    'P1'
  _symmetry_Int_Tables_number       1
  _symmetry_cell_setting            triclinic
  loop_
  _symmetry_equiv_pos_as_xyz
 x,y,z
_cell_length_a 23.6662
_cell_length_b 23.7461
_cell_length_c 23.7484
_cell_angle_alpha 90.228000
_cell_angle_beta 90.224400
_cell_angle_gamma 89.999700
loop_
  _atom_site_label
  _atom_site_type_symbol
  _atom_site_fract_x
  _atom_site_fract_y
  _atom_site_fract_z
O1 O 0.57968 0.14125 0.00550
 O2 O 0.64217 0.06731 0.00307
 C3 C 0.63032 0.12044 0.00518
 O4 O 0.42206 -0.00396 0.14403
 O5 O 0.35934 -0.00178 0.07005
 C6 C 0.37129 -0.00376 0.12322
 O7 O 0.58028 0.00338 0.14406
 O8 O 0.64250 0.00072 0.07020
 C9 C 0.63095 0.00307 0.12341
 O10 O 0.42165 0.14121 -0.00207
 O11 O 0.35916 0.06730 0.00050
 C12 C 0.37101 0.12040 -0.00188
 Zr13 Zr 0.50065 0.09953 0.00199
 O14 O 0.49440 0.16211 0.06544
 O15 O 0.50684 0.16234 -0.06072
 Zr16 Zr 0.50103 -0.00050 0.10231
 O17 O 0.49489 0.06278 0.16505
 O18 O 0.50767 -0.06351 0.16483
 O19 O 0.55146 0.05740 0.06000
 O20 O 0.45157 0.05684 0.05942
 O21 O 0.42109 0.00247 -0.14031
 O22 O 0.35886 0.00017 -0.06641
 C23 C 0.37047 0.00228 -0.11957
 O24 O 0.57966 -0.14290 -0.00211
 O25 O 0.64216 -0.06896 0.00053
 C26 C 0.63030 -0.12208 -0.00185
 O27 O 0.42172 -0.14293 0.00556
 O28 O 0.35919 -0.06903 0.00309
 C29 C 0.37107 -0.12214 0.00531
 O30 O 0.57916 -0.00475 -0.14030
 O31 O 0.64199 -0.00222 -0.06639
 C32 C 0.62994 -0.00440 -0.11958
 Zr33 Zr 0.50028 -0.00120 -0.09853
 O34 O 0.49366 -0.06478 -0.16099
 O35 O 0.50639 0.06153 -0.16134
 Zr36 Zr 0.50068 -0.10120 0.00183
 O37 O 0.49398 -0.16420 -0.06119
 O38 O 0.50744 -0.16358 0.06497
 Zr39 Zr 0.58538 -0.00082 0.00189
 Zr40 Zr 0.41594 -0.00085 0.00185
 O41 O 0.45117 -0.05855 -0.05567
 O42 O 0.55103 -0.05905 -0.05620
 O43 O 0.44990 0.05699 -0.05614
 O44 O 0.55018 -0.05812 0.05937
 O45 O 0.54966 0.05647 -0.05558
 O46 O 0.45031 -0.05868 0.05989
 H47 H 0.42623 0.08040 0.08283
 H48 H 0.57571 -0.08149 0.08278
 H49 H 0.42567 -0.08208 -0.07913
 H50 H 0.57489 0.07989 -0.07905
 H51 H 0.47573 -0.08985 0.15938
 H52 H 0.47581 -0.15791 0.09149
 H53 H 0.52527 -0.15839 -0.08803
 H54 H 0.52588 -0.09081 -0.15582
 H55 H 0.47489 0.08826 -0.15556
 H56 H 0.47560 0.15617 -0.08783
 H57 H 0.52670 0.15706 0.09148
 H58 H 0.52645 0.08942 0.15931
 O59 O -0.00371 0.57780 -0.14397
 O60 O -0.00093 0.64011 -0.06985
 C61 C -0.00335 0.62839 -0.12309
 O62 O -0.14157 0.42092 0.00250
 O63 O -0.06819 0.35805 -0.00156
 C64 C -0.12162 0.37007 0.00161
 O65 O -0.14166 0.57742 -0.00534
 O66 O -0.06817 0.64020 -0.00148
 C67 C -0.12165 0.62825 -0.00441
 O68 O 0.00339 0.41992 -0.14405
 O69 O 0.00172 0.35781 -0.07024
 C70 C 0.00339 0.36935 -0.12348
 Zr71 Zr 0.00012 0.49903 -0.10223
 O72 O -0.06355 0.49261 -0.16482
 O73 O 0.06342 0.50517 -0.16468
 Zr74 Zr -0.09982 0.49919 -0.00138
 O75 O -0.16344 0.49240 -0.06398
 O76 O -0.16231 0.50602 0.06188
 O77 O -0.05788 0.54951 -0.05958
 O78 O -0.05729 0.45001 -0.05918
 O79 O 0.14278 0.42072 -0.00576
 O80 O 0.06930 0.35796 -0.00213
 C81 C 0.12275 0.36989 -0.00499
 O82 O 0.00471 0.57918 0.13996
 O83 O 0.00231 0.64131 0.06597
 C84 C 0.00441 0.62973 0.11920
 O85 O -0.00253 0.42083 0.14057
 O86 O -0.00075 0.35822 0.06661
 C87 C -0.00259 0.37018 0.11984
 O88 O 0.14303 0.57724 0.00301
 O89 O 0.06957 0.64011 0.00044
 C90 C 0.12305 0.62809 0.00302
 Zr91 Zr 0.10109 0.49908 -0.00192
 O92 O 0.16517 0.49258 0.06017
 O93 O 0.16311 0.50567 -0.06561
 Zr94 Zr 0.00126 0.49955 0.09882
 O95 O 0.06545 0.49347 0.16089
 O96 O -0.06112 0.50608 0.16216
 Zr97 Zr 0.00065 0.58361 -0.00157
 Zr98 Zr 0.00059 0.41467 -0.00177
 O99 O 0.05855 0.45020 0.05571
 O100 O 0.05916 0.54969 0.05635
 O101 O 0.05843 0.44851 -0.05997
 O102 O -0.05663 0.54845 0.05608
 O103 O 0.05801 0.54827 -0.05925
 O104 O -0.05718 0.44893 0.05651
 H105 H -0.08103 0.42469 -0.08263
 H106 H -0.08012 0.57375 0.07961
 H107 H 0.08220 0.42499 0.07915
 H108 H 0.08148 0.57370 -0.08244
 H109 H -0.15683 0.47436 0.08827
 H110 H -0.08855 0.47526 0.15589
 H111 H 0.09058 0.52645 0.15667
 H112 H 0.15807 0.52219 0.08867
 H113 H 0.15812 0.47332 -0.09152
 H114 H 0.08965 0.47317 -0.15942
 H115 H -0.09008 0.52428 -0.15911
 H116 H -0.15756 0.52329 -0.09114
 O117 O 0.14121 -0.00322 0.42237
 O118 O 0.06791 0.00055 0.35908
 C119 C 0.12138 -0.00247 0.37137
 O120 O -0.00512 -0.14096 0.57788
 O121 O -0.00136 -0.06788 0.64118
 C122 C -0.00427 -0.12123 0.62891
 O123 O 0.00253 -0.14103 0.42121
 O124 O -0.00103 -0.06795 0.35848
 C125 C 0.00181 -0.12128 0.37032
 O126 O 0.14117 0.00473 0.57903
 O127 O 0.06780 0.00124 0.64169
 C128 C 0.12127 0.00398 0.62986
 Zr129 Zr 0.09929 0.00097 0.50049
 O130 O 0.16245 -0.06186 0.50706
 O131 O 0.16211 0.06415 0.49437
 Zr132 Zr -0.00126 -0.09915 0.49973
 O133 O 0.06196 -0.16192 0.50625
 O134 O -0.06461 -0.16181 0.49280
 O135 O 0.05697 -0.05708 0.44955
 O136 O 0.05641 -0.05643 0.54926
 O137 O 0.00291 0.14315 0.57882
 O138 O -0.00078 0.07014 0.64161
 C139 C 0.00213 0.12348 0.62973
 O140 O -0.14357 0.00499 0.42125
 O141 O -0.07023 0.00110 0.35854
 C142 C -0.12371 0.00407 0.37039
 O143 O -0.14343 -0.00264 0.57812
 O144 O -0.06991 0.00101 0.64121
 C145 C -0.12340 -0.00186 0.62909
 O146 O -0.00466 0.14288 0.42189
 O147 O -0.00127 0.06958 0.35884
 C148 C -0.00389 0.12296 0.37090
 Zr149 Zr -0.00112 0.10120 0.50031
 O150 O -0.06463 0.16371 0.50669
 O151 O 0.06196 0.16411 0.49430
 Zr152 Zr -0.10165 0.00111 0.49977
 O153 O -0.16460 0.06415 0.50625
 O154 O -0.16466 -0.06189 0.49286
 Zr155 Zr -0.00118 0.00092 0.41532
 Zr156 Zr -0.00112 0.00109 0.58484
 O157 O -0.05871 0.05856 0.54923
 O158 O -0.05934 0.05900 0.44942
 O159 O 0.05706 0.05906 0.55104
 O160 O -0.05886 -0.05641 0.45053
 O161 O 0.05649 0.05836 0.45129
 O162 O -0.05938 -0.05690 0.55029
 H163 H 0.08004 -0.08001 0.57437
 H164 H -0.08252 -0.07997 0.42525
 H165 H -0.08230 0.08216 0.57436
 H166 H 0.08018 0.08184 0.42633
 H167 H -0.09132 -0.15617 0.52425
 H168 H -0.15922 -0.08837 0.52445
 H169 H -0.15885 0.09089 0.47498
 H170 H -0.09078 0.15863 0.47448
 H171 H 0.08905 0.15819 0.52553
 H172 H 0.15695 0.09042 0.52636
 H173 H 0.15649 -0.08893 0.47585
 H174 H 0.08855 -0.15655 0.47470
 C175 C -0.24380 0.23682 0.00678
 C176 C -0.26079 0.29287 0.01213
 C177 C -0.22089 0.33591 0.01074
 C178 C -0.32358 0.15932 0.00629
 C179 C -0.14620 0.26692 -0.00092
 C180 C -0.18647 0.22373 0.00041
 C181 C -0.28610 0.19354 0.00672
 C182 C -0.16312 0.32356 0.00394
 H183 H -0.30507 0.30338 0.01702
 H184 H -0.23553 0.37893 0.01484
 H185 H -0.10210 0.25604 -0.00618
 H186 H -0.17300 0.18033 -0.00385
 C187 C 0.24526 0.76142 0.00815
 C188 C 0.26229 0.70543 0.01370
 C189 C 0.22237 0.66237 0.01252
 C190 C 0.32500 0.83896 0.00678
 C191 C 0.14758 0.73123 0.00083
 C192 C 0.18785 0.77444 0.00195
 C193 C 0.28756 0.80471 0.00762
 C194 C 0.16454 0.67463 0.00572
 H195 H 0.30662 0.69497 0.01850
 H196 H 0.23704 0.61938 0.01665
 H197 H 0.10343 0.74205 -0.00444
 H198 H 0.17433 0.81779 -0.00245
 C199 C 0.24503 0.23660 -0.00698
 C200 C 0.26190 0.29240 -0.01439
 C201 C 0.22193 0.33543 -0.01430
 C202 C 0.32490 0.15925 -0.00389
 C203 C 0.14740 0.26689 -0.00003
 C204 C 0.18773 0.22371 -0.00005
 C205 C 0.28740 0.19341 -0.00541
 C206 C 0.16422 0.32332 -0.00675
 H207 H 0.30614 0.30276 -0.01980
 H208 H 0.23648 0.37827 -0.01986
 H209 H 0.10335 0.25619 0.00589
 H210 H 0.17434 0.18051 0.00577
 C211 C -0.24385 0.76160 -0.00653
 C212 C -0.18649 0.77451 0.00036
 C213 C -0.14620 0.73130 0.00048
 C214 C -0.32362 0.83905 -0.00374
 C215 C -0.22090 0.66267 -0.01358
 C216 C -0.26083 0.70573 -0.01377
 C217 C -0.28616 0.80485 -0.00513
 C218 C -0.16312 0.67482 -0.00611
 H219 H -0.17301 0.81776 0.00605
 H220 H -0.10209 0.74203 0.00633
 H221 H -0.23553 0.61978 -0.01903
 H222 H -0.30513 0.69535 -0.01913
 C223 C 0.00604 -0.24400 0.23639
 C224 C 0.00076 -0.18666 0.22350
 C225 C -0.00029 -0.14630 0.26682
 C226 C 0.00551 -0.32400 0.15837
 C227 C 0.00946 -0.22072 0.33573
 C228 C 0.01055 -0.26072 0.29257
 C229 C 0.00595 -0.28648 0.19282
 C230 C 0.00380 -0.16296 0.32356
 H231 H -0.00285 -0.17321 0.18010
 H232 H -0.00468 -0.10227 0.25595
 H233 H 0.01289 -0.23528 0.37875
 H234 H 0.01462 -0.30490 0.30311
 C235 C 0.00554 0.24683 0.76330
 C236 C 0.01096 0.26321 0.70714
 C237 C 0.01023 0.22300 0.66414
 C238 C 0.00441 0.32734 0.84092
 C239 C -0.00093 0.14898 0.73316
 C240 C -0.00024 0.18956 0.77632
 C241 C 0.00506 0.28958 0.80667
 C242 C 0.00402 0.16533 0.67643
 H243 H 0.01545 0.30731 0.69646
 H244 H 0.01434 0.23735 0.62113
 H245 H -0.00578 0.10502 0.74413
 H246 H -0.00454 0.17634 0.81970
 C247 C -0.00597 0.24490 0.23711
 C248 C -0.00101 0.18744 0.22425
 C249 C -0.00075 0.14736 0.26753
 C250 C -0.00410 0.32424 0.15904
 C251 C -0.01072 0.22228 0.33637
 C252 C -0.01101 0.26201 0.29324
 C253 C -0.00509 0.28704 0.19354
 C254 C -0.00535 0.16441 0.32421
 H255 H 0.00298 0.17366 0.18091
 H256 H 0.00346 0.10324 0.25665
 H257 H -0.01450 0.23712 0.37936
 H258 H -0.01487 0.30629 0.30377
 C259 C -0.00687 -0.24478 0.76122
 C260 C -0.01332 -0.26099 0.70495
 C261 C -0.01293 -0.22068 0.66239
 C262 C -0.00493 -0.32537 0.83805
 C263 C -0.00013 -0.14690 0.73207
 C264 C -0.00047 -0.18759 0.77481
 C265 C -0.00593 -0.28764 0.80411
 C266 C -0.00604 -0.16309 0.67523
 H267 H -0.01831 -0.30503 0.69385
 H268 H -0.01781 -0.23490 0.61927
 H269 H 0.00527 -0.10301 0.74345
 H270 H 0.00462 -0.17452 0.81829
 C271 C 0.24403 0.00617 0.76366
 C272 C 0.26084 0.01264 0.70775
 C273 C 0.22077 0.01239 0.66460
 C274 C 0.32416 0.00389 0.84142
 C275 C 0.14618 -0.00028 0.73310
 C276 C 0.18661 -0.00008 0.77641
 C277 C 0.28655 0.00503 0.80709
 C278 C 0.16294 0.00563 0.67660
 H279 H 0.30513 0.01752 0.69741
 H280 H 0.23533 0.01727 0.62172
 H281 H 0.10206 -0.00559 0.74377
 H282 H 0.17318 -0.00518 0.81964
 C283 C -0.24664 0.00669 0.23660
 C284 C -0.26337 0.01303 0.29260
 C285 C -0.22325 0.01262 0.33574
 C286 C -0.32699 0.00456 0.15891
 C287 C -0.14874 0.00004 0.26707
 C288 C -0.18922 0.00039 0.22377
 C289 C -0.28924 0.00567 0.19317
 C290 C -0.16543 0.00583 0.32366
 H291 H -0.30764 0.01793 0.30304
 H292 H -0.23779 0.01740 0.37867
 H293 H -0.10463 -0.00528 0.25631
 H294 H -0.17581 -0.00462 0.18048
 C295 C 0.24470 -0.00626 0.23901
 C296 C 0.18736 0.00027 0.22552
 C297 C 0.14672 0.00103 0.26835
 C298 C 0.32512 -0.00500 0.16209
 C299 C 0.22095 -0.01160 0.33781
 C300 C 0.26121 -0.01241 0.29516
 C301 C 0.28743 -0.00571 0.19608
 C302 C 0.16320 -0.00457 0.32509
 H303 H 0.17415 0.00512 0.18209
 H304 H 0.10268 0.00651 0.25712
 H305 H 0.23532 -0.01626 0.38089
 H306 H 0.30542 -0.01749 0.30608
 C307 C -0.24500 -0.00610 0.76301
 C308 C -0.26249 -0.01022 0.70689
 C309 C -0.22285 -0.00911 0.66363
 C310 C -0.32412 -0.00553 0.84126
 C311 C -0.14740 -0.00009 0.73242
 C312 C -0.18736 -0.00117 0.77581
 C313 C -0.28697 -0.00600 0.80668
 C314 C -0.16480 -0.00382 0.67574
 H315 H -0.30696 -0.01401 0.69649
 H316 H -0.23791 -0.01223 0.62061
 H317 H -0.10308 0.00401 0.74322
 H318 H -0.17338 0.00214 0.81919
   
