data_POSCAR
  _audit_creation_date              2014-09-24
  _audit_creation_method            'ToBaCCo'
  _symmetry_space_group_name_H-M    'P1'
  _symmetry_Int_Tables_number       1
  _symmetry_cell_setting            triclinic
  loop_
  _symmetry_equiv_pos_as_xyz
 x,y,z
_cell_length_a 52.5900
_cell_length_b 52.2352
_cell_length_c 14.9214
_cell_angle_alpha 89.930300
_cell_angle_beta 90.485800
_cell_angle_gamma 120.049600
loop_
  _atom_site_label
  _atom_site_type_symbol
  _atom_site_fract_x
  _atom_site_fract_y
  _atom_site_fract_z
C1 C 0.24849 0.50132 0.54707
 C2 C 0.24894 0.50122 0.45553
 C3 C 0.22489 0.50114 0.40236
 C4 C 0.27190 0.49853 0.40629
 C5 C 0.27328 0.50363 0.60204
 C6 C 0.22188 0.49652 0.59503
 C7 C 0.20752 0.47744 0.34498
 C8 C 0.18156 0.47428 0.30825
 C9 C 0.17199 0.49452 0.32898
 C10 C 0.19144 0.51997 0.37936
 C11 C 0.21736 0.52306 0.41596
 C12 C 0.27725 0.47534 0.42606
 C13 C 0.30093 0.47460 0.38758
 C14 C 0.31924 0.49669 0.32748
 C15 C 0.31299 0.51893 0.30344
 C16 C 0.28935 0.51983 0.34265
 C17 C 0.30240 0.52575 0.58498
 C18 C 0.32579 0.52531 0.62861
 C19 C 0.32035 0.50321 0.69137
 C20 C 0.29133 0.48213 0.71235
 C21 C 0.26793 0.48238 0.66813
 C22 C 0.22300 0.51857 0.65124
 C23 C 0.19716 0.51534 0.68786
 C24 C 0.17005 0.48999 0.66878
 C25 C 0.16923 0.46722 0.61688
 C26 C 0.19497 0.47045 0.58030
 H27 H 0.21334 0.46064 0.33180
 H28 H 0.16900 0.45584 0.26318
 H29 H 0.18563 0.53640 0.39792
 H30 H 0.23081 0.54181 0.45908
 H31 H 0.26363 0.45836 0.47356
 H32 H 0.30540 0.45717 0.40607
 H33 H 0.28536 0.53771 0.32606
 H34 H 0.30702 0.54269 0.53553
 H35 H 0.34813 0.54178 0.61209
 H36 H 0.28686 0.46490 0.76057
 H37 H 0.24569 0.46517 0.68256
 H38 H 0.24365 0.53870 0.66365
 H39 H 0.19813 0.53297 0.72856
 H40 H 0.14851 0.44734 0.60270
 H41 H 0.19384 0.45303 0.53818
 H42 H 0.32692 0.53602 0.25666
 C43 C 0.50915 -0.24886 0.54418
 C44 C 0.50945 -0.24815 0.45270
 C45 C 0.51252 -0.27031 0.39923
 C46 C 0.50889 -0.22381 0.40284
 C47 C 0.51319 -0.22288 0.59646
 C48 C 0.50627 -0.27474 0.59491
 C49 C 0.53649 -0.27466 0.41390
 C50 C 0.53873 -0.29639 0.36615
 C51 C 0.51718 -0.31394 0.30251
 C52 C 0.49345 -0.30925 0.28682
 C53 C 0.49135 -0.28730 0.33405
 C54 C 0.53196 -0.20594 0.34502
 C55 C 0.53357 -0.18073 0.30695
 C56 C 0.51208 -0.17314 0.32608
 C57 C 0.48802 -0.19201 0.37912
 C58 C 0.48644 -0.21719 0.41739
 C59 C 0.49138 -0.22551 0.65555
 C60 C 0.49360 -0.20028 0.69591
 C61 C 0.51769 -0.17226 0.67768
 C62 C 0.54031 -0.16987 0.62293
 C63 C 0.53816 -0.19501 0.58299
 C64 C 0.48450 -0.30368 0.57223
 C65 C 0.48343 -0.32794 0.61544
 C66 C 0.50346 -0.32393 0.68493
 C67 C 0.52475 -0.29470 0.70885
 C68 C 0.52599 -0.27049 0.66481
 H69 H 0.55323 -0.26147 0.46318
 H70 H 0.55709 -0.29980 0.37958
 H71 H 0.47631 -0.32295 0.23924
 H72 H 0.47276 -0.28417 0.32190
 H73 H 0.54938 -0.21078 0.33262
 H74 H 0.55205 -0.16657 0.26498
 H75 H 0.46823 -0.23098 0.46075
 H76 H 0.47209 -0.24688 0.66714
 H77 H 0.47604 -0.20242 0.73838
 H78 H 0.55914 -0.14839 0.60879
 H79 H 0.55544 -0.19264 0.53883
 H80 H 0.46877 -0.30755 0.51925
 H81 H 0.46766 -0.34987 0.59145
 H82 H 0.54036 -0.29045 0.76258
 H83 H 0.54288 -0.24838 0.68394
 H84 H 0.47108 -0.18663 0.39359
 C85 C 1.25154 0.74945 0.54920
 C86 C 1.25094 0.75134 0.45807
 C87 C 1.27398 0.77711 0.40923
 C88 C 1.22656 0.72798 0.40433
 C89 C 1.22554 0.72641 0.59757
 C90 C 1.27755 0.77069 0.60317
 C91 C 1.27982 0.80577 0.42941
 C92 C 1.30339 0.83024 0.38958
 C93 C 1.32199 0.82654 0.33009
 C94 C 1.31478 0.79757 0.30591
 C95 C 1.29097 0.77311 0.34505
 C96 C 1.20838 0.73485 0.35271
 C97 C 1.18287 0.71227 0.31264
 C98 C 1.17541 0.68264 0.32353
 C99 C 1.19463 0.67594 0.37002
 C100 C 1.22006 0.69848 0.41026
 C101 C 1.22748 0.70466 0.64710
 C102 C 1.20213 0.68069 0.68216
 C103 C 1.17427 0.67789 0.66795
 C104 C 1.17298 0.70112 0.62385
 C105 C 1.19828 0.72495 0.58862
 C106 C 1.30598 0.77726 0.57945
 C107 C 1.33055 0.79978 0.62334
 C108 C 1.32732 0.81542 0.69505
 C109 C 1.29865 0.80774 0.72123
 C110 C 1.27409 0.78559 0.67592
 H111 H 1.26655 0.80918 0.47781
 H112 H 1.30797 0.85213 0.40908
 H113 H 1.32755 0.79384 0.25648
 H114 H 1.28637 0.75107 0.32751
 H115 H 1.21316 0.75752 0.34726
 H116 H 1.16833 0.71776 0.27629
 H117 H 1.23411 0.69288 0.44889
 H118 H 1.24845 0.70572 0.65595
 H119 H 1.20438 0.66433 0.72067
 H120 H 1.15215 0.70010 0.61183
 H121 H 1.19647 0.74181 0.55149
 H122 H 1.30919 0.76547 0.52514
 H123 H 1.35216 0.80472 0.60181
 H124 H 1.29519 0.81998 0.77361
 H125 H 1.25239 0.78097 0.69523
 H126 H 1.18932 0.65318 0.37798
 C127 C 0.75124 0.50332 0.54085
 C128 C 0.75334 0.50581 0.44984
 C129 C 0.77927 0.50911 0.40090
 C130 C 0.72915 0.50463 0.39575
 C131 C 0.72653 0.50334 0.58820
 C132 C 0.77387 0.50135 0.59552
 C133 C 0.80770 0.53202 0.42275
 C134 C 0.83220 0.53327 0.38261
 C135 C 0.82862 0.51164 0.32009
 C136 C 0.80015 0.48992 0.29389
 C137 C 0.77566 0.48861 0.33420
 C138 C 0.73015 0.53086 0.36955
 C139 C 0.70540 0.52993 0.33112
 C140 C 0.67970 0.50267 0.31573
 C141 C 0.67985 0.47636 0.33453
 C142 C 0.70414 0.47734 0.37650
 C143 C 0.70587 0.47823 0.63444
 C144 C 0.68088 0.47721 0.67050
 C145 C 0.67563 0.50103 0.65896
 C146 C 0.69767 0.52690 0.61759
 C147 C 0.72284 0.52807 0.58339
 C148 C 0.78169 0.47992 0.57616
 C149 C 0.80699 0.48198 0.61419
 C150 C 0.82500 0.50557 0.67218
 C151 C 0.81500 0.52481 0.69970
 C152 C 0.78979 0.52287 0.66095
 H153 H 0.81091 0.54845 0.47263
 H154 H 0.85399 0.55049 0.40251
 H155 H 0.79698 0.47348 0.24410
 H156 H 0.75394 0.47097 0.31557
 H157 H 0.74951 0.55207 0.38338
 H158 H 0.70603 0.55050 0.31577
 H159 H 0.70327 0.45691 0.39559
 H160 H 0.70879 0.45920 0.64098
 H161 H 0.66573 0.45777 0.70786
 H162 H 0.69496 0.54595 0.60777
 H163 H 0.73910 0.54805 0.55062
 H164 H 0.76907 0.46254 0.52792
 H165 H 0.81304 0.46568 0.59592
 H166 H 0.82791 0.54288 0.74562
 H167 H 0.78383 0.53934 0.67768
 H168 H 0.66072 0.45507 0.31993
 C169 C 0.49373 0.24487 0.55207
 C170 C 0.49421 0.24563 0.46047
 C171 C 0.49487 0.27061 0.41006
 C172 C 0.49095 0.21997 0.40804
 C173 C 0.49719 0.22223 0.60313
 C174 C 0.48772 0.26538 0.60466
 C175 C 0.47423 0.26491 0.34148
 C176 C 0.47189 0.28806 0.30306
 C177 C 0.48983 0.31723 0.33355
 C178 C 0.51191 0.32321 0.39725
 C179 C 0.51461 0.30012 0.43455
 C180 C 0.46750 0.19148 0.42569
 C181 C 0.46522 0.16702 0.38099
 C182 C 0.48581 0.17063 0.31578
 C183 C 0.50894 0.19915 0.29649
 C184 C 0.51137 0.22374 0.34194
 C185 C 0.51958 0.21608 0.58220
 C186 C 0.52123 0.19323 0.62545
 C187 C 0.50129 0.17675 0.69359
 C188 C 0.47938 0.18360 0.71595
 C189 C 0.47743 0.20610 0.67145
 C190 C 0.50657 0.28212 0.67485
 C191 C 0.50160 0.30228 0.72195
 C192 C 0.47732 0.30584 0.70086
 C193 C 0.45833 0.28859 0.63070
 C194 C 0.46317 0.26826 0.58446
 H195 H 0.45901 0.24242 0.32055
 H196 H 0.45525 0.28312 0.25210
 H197 H 0.52638 0.34563 0.42037
 H198 H 0.53126 0.30515 0.48549
 H199 H 0.45125 0.18815 0.47542
 H200 H 0.44742 0.14516 0.39755
 H201 H 0.52951 0.24558 0.32720
 H202 H 0.53551 0.22866 0.53114
 H203 H 0.53856 0.18885 0.60676
 H204 H 0.46283 0.17063 0.76511
 H205 H 0.45982 0.21025 0.68837
 H206 H 0.52547 0.27997 0.69205
 H207 H 0.51661 0.31480 0.77591
 H208 H 0.44035 0.29162 0.60860
 H209 H 0.44813 0.25527 0.53110
 H210 H 0.52509 0.20231 0.24660
 C211 C 0.74489 0.25497 0.54131
 C212 C 0.74615 0.25585 0.44983
 C213 C 0.72188 0.23304 0.39377
 C214 C 0.77299 0.27794 0.40301
 C215 C 0.76794 0.27917 0.59792
 C216 C 0.72219 0.22815 0.58795
 C217 C 0.72763 0.21633 0.33208
 C218 C 0.70451 0.19241 0.28732
 C219 C 0.67534 0.18517 0.30227
 C220 C 0.66967 0.20257 0.36136
 C221 C 0.69277 0.22644 0.40631
 C222 C 0.80017 0.28024 0.42326
 C223 C 0.82590 0.30290 0.38643
 C224 C 0.82480 0.32351 0.32861
 C225 C 0.79750 0.32022 0.30402
 C226 C 0.77166 0.29744 0.34092
 C227 C 0.77780 0.30902 0.57894
 C228 C 0.80163 0.33151 0.62582
 C229 C 0.81545 0.32489 0.69632
 C230 C 0.80458 0.29480 0.71721
 C231 C 0.78118 0.27234 0.66885
 C232 C 0.70419 0.23024 0.65305
 C233 C 0.68278 0.20478 0.69619
 C234 C 0.67947 0.17705 0.67548
 C235 C 0.69747 0.17504 0.61033
 C236 C 0.71893 0.20039 0.56804
 H237 H 0.74989 0.22094 0.32180
 H238 H 0.70929 0.17897 0.24304
 H239 H 0.64729 0.19724 0.37402
 H240 H 0.68791 0.23923 0.45308
 H241 H 0.80149 0.26496 0.46964
 H242 H 0.84680 0.30489 0.40476
 H243 H 0.75080 0.29573 0.32393
 H244 H 0.76773 0.31497 0.52540
 H245 H 0.81004 0.35405 0.60360
 H246 H 0.81399 0.28847 0.77170
 H247 H 0.77395 0.24952 0.68542
 H248 H 0.70655 0.25151 0.66968
 H249 H 0.66898 0.20668 0.74612
 H250 H 0.69503 0.15380 0.59285
 H251 H 0.73300 0.19836 0.51942
 H252 H 0.79634 0.33580 0.25864
 N253 N 0.97031 0.53189 0.09037
 N254 N 0.94661 0.53439 0.09732
 N255 N 1.03250 0.54470 0.15041
 N256 N 1.05418 0.55946 0.20791
 N257 N 1.03229 0.56231 0.08803
 N258 N 1.05393 0.58966 0.10153
 N259 N 0.97090 0.51480 0.15396
 N260 N 0.94782 0.50545 0.20607
 C261 C 0.93268 0.51761 0.16974
 C262 C 1.06724 0.58753 0.17711
 N263 N 1.03033 0.47035 0.09311
 N264 N 1.05196 0.46475 0.10607
 N265 N 0.96976 0.45930 0.15760
 N266 N 0.94813 0.44608 0.21508
 N267 N 0.96858 0.44046 0.09737
 N268 N 0.94609 0.41380 0.11268
 N269 N 1.03146 0.48922 0.15335
 N270 N 1.05392 0.49711 0.20852
 Mn271 Mn 1.00120 0.50203 0.15474
 C272 C 1.06637 0.48154 0.17859
 C273 C 0.93372 0.41761 0.18715
 N274 N 1.03094 0.56038 -0.10509
 N275 N 1.05515 0.58626 -0.11394
 N276 N 0.96798 0.51175 -0.16280
 N277 N 0.94570 0.50389 -0.21847
 N278 N 0.96895 0.53053 -0.10278
 N279 N 0.94733 0.53610 -0.11645
 N280 N 1.02969 0.54172 -0.16623
 N281 N 1.05287 0.55446 -0.21851
 Mn282 Mn 1.00063 0.54666 -0.00742
 C283 C 1.06873 0.58220 -0.18485
 C284 C 0.93319 0.51951 -0.18967
 N285 N 0.96631 0.43854 -0.09597
 N286 N 0.94156 0.41285 -0.09856
 N287 N 1.02800 0.48589 -0.16316
 N288 N 1.04933 0.49281 -0.22070
 N289 N 1.02829 0.46840 -0.10050
 N290 N 1.04994 0.46294 -0.11387
 N291 N 0.96628 0.45613 -0.15895
 N292 N 0.94157 0.44293 -0.20577
 Mn293 Mn 0.99839 0.45406 -0.00158
 Mn294 Mn 0.99800 0.49886 -0.16375
 Cl295 Cl 0.99958 0.50041 -0.00446
 C296 C 0.92640 0.41597 -0.16747
 C297 C 1.06264 0.47807 -0.18992
 N298 N 0.46405 0.43667 0.10407
 N299 N 0.45847 0.40939 0.11843
 N300 N 0.45673 0.49014 0.15686
 N301 N 0.44443 0.50020 0.21270
 N302 N 0.43724 0.47153 0.09950
 N303 N 0.41111 0.46817 0.11560
 N304 N 0.48369 0.45508 0.16179
 N305 N 0.49226 0.44089 0.21639
 C306 C 0.47612 0.41242 0.18902
 C307 C 0.41583 0.48608 0.18705
 N308 N 0.53086 0.55795 0.07967
 N309 N 0.53574 0.58531 0.08166
 N310 N 0.54029 0.50765 0.15085
 N311 N 0.55343 0.49775 0.20453
 N312 N 0.55752 0.52254 0.08437
 N313 N 0.58265 0.52271 0.09053
 N314 N 0.51337 0.54239 0.14503
 N315 N 0.50586 0.55870 0.19310
 Mn316 Mn 0.49855 0.49886 0.15473
 C317 C 0.51985 0.58540 0.15251
 C318 C 0.57979 0.50697 0.16595
 N319 N 0.43423 0.46778 -0.09284
 N320 N 0.40938 0.46823 -0.09654
 N321 N 0.47825 0.44778 -0.15406
 N322 N 0.48403 0.43068 -0.20494
 N323 N 0.46064 0.43241 -0.08858
 N324 N 0.45383 0.40447 -0.09337
 N325 N 0.45137 0.48283 -0.15959
 N326 N 0.43847 0.49366 -0.21100
 Mn327 Mn 0.44872 0.45180 0.00543
 C328 C 0.41236 0.48440 -0.17065
 C329 C 0.46829 0.40365 -0.16680
 N330 N 0.55459 0.51865 -0.10730
 N331 N 0.58060 0.52136 -0.12018
 N332 N 0.50824 0.53549 -0.17071
 N333 N 0.49789 0.54948 -0.21931
 N334 N 0.52785 0.55367 -0.11251
 N335 N 0.53149 0.58045 -0.12041
 N336 N 0.53546 0.50055 -0.16650
 N337 N 0.54812 0.49063 -0.22176
 Mn338 Mn 0.54306 0.53850 -0.01398
 Mn339 Mn 0.49333 0.49159 -0.16408
 Cl340 Cl 0.49591 0.49517 -0.00459
 C341 C 0.57627 0.50349 -0.19123
 C342 C 0.51269 0.57753 -0.18717
 N343 N 0.44090 -0.03362 0.09112
 N344 N 0.41470 -0.05730 0.09994
 N345 N 0.48735 0.02971 0.15283
 N346 N 0.49327 0.05191 0.20770
 N347 N 0.46966 0.02835 0.08816
 N348 N 0.46323 0.04953 0.09688
 N349 N 0.45872 -0.03247 0.15519
 N350 N 0.44521 -0.05543 0.20888
 C351 C 0.41784 -0.07084 0.17314
 C352 C 0.47776 0.06392 0.17221
 N353 N 0.56165 0.03221 0.09847
 N354 N 0.58693 0.05728 0.10179
 N355 N 0.51443 -0.03024 0.16160
 N356 N 0.50647 -0.05272 0.21689
 N357 N 0.53244 -0.03003 0.10079
 N358 N 0.53738 -0.05219 0.11312
 N359 N 0.54347 0.03221 0.15832
 N360 N 0.55597 0.05731 0.20387
 Mn361 Mn 0.50105 -0.00015 0.15829
 C362 C 0.58309 0.07274 0.16771
 C363 C 0.52108 -0.06604 0.18575
 N364 N 0.47072 0.02783 -0.10362
 N365 N 0.46912 0.05222 -0.10677
 N366 N 0.45994 -0.03400 -0.16212
 N367 N 0.44773 -0.05917 -0.20747
 N368 N 0.44173 -0.03449 -0.10163
 N369 N 0.41670 -0.05980 -0.10464
 N370 N 0.48940 0.02875 -0.16315
 N371 N 0.50107 0.05390 -0.20789
 Mn372 Mn 0.45543 -0.00304 -0.00674
 C373 C 0.48818 0.06834 -0.17196
 C374 C 0.42073 -0.07506 -0.17075
 N375 N 0.53324 -0.03095 -0.09266
 N376 N 0.53957 -0.05219 -0.10512
 N377 N 0.54511 0.03060 -0.15776
 N378 N 0.55976 0.05294 -0.21320
 N379 N 0.56245 0.03114 -0.09319
 N380 N 0.58914 0.05387 -0.10238
 N381 N 0.51560 -0.03154 -0.15638
 N382 N 0.50925 -0.05326 -0.21315
 Mn383 Mn 0.54771 0.00051 0.00356
 Mn384 Mn 0.50246 -0.00151 -0.16111
 Cl385 Cl 0.50167 -0.00107 -0.00144
 C386 C 0.52460 -0.06578 -0.18129
 C387 C 0.58738 0.06711 -0.17812
 C388 C 1.11700 0.51126 0.23523
 C389 C 1.14269 0.51468 0.27383
 C390 C 1.14527 0.49006 0.29993
 C391 C 1.11940 0.46135 0.29348
 C392 C 1.09359 0.45799 0.25060
 C393 C 1.09276 0.48323 0.22013
 C394 C 1.06863 0.42953 0.24517
 N395 N 1.06891 0.40628 0.28429
 N396 N 1.09222 0.40962 0.32981
 C397 C 1.11710 0.43626 0.33726
 H398 H 1.11641 0.53082 0.21415
 H399 H 1.16125 0.53697 0.27690
 H400 H 1.04853 0.42558 0.21281
 H401 H 1.13431 0.43764 0.38051
 C402 C 0.51846 0.61519 0.27764
 C403 C 0.51832 0.63960 0.31385
 C404 C 0.51829 0.66123 0.25847
 C405 C 0.51832 0.65805 0.16405
 C406 C 0.51775 0.63272 0.12687
 C407 C 0.51856 0.61149 0.18473
 C408 C 0.51557 0.62929 0.03301
 N409 N 0.51577 0.65060 -0.01947
 N410 N 0.51781 0.67502 0.01535
 C411 C 0.51916 0.67950 0.10515
 H412 H 0.51885 0.59917 0.32300
 H413 H 0.51804 0.64153 0.38610
 H414 H 0.51313 0.60975 0.00055
 H415 H 0.52096 0.69984 0.12945
 C416 C 0.36629 -0.10101 0.21861
 C417 C 0.34325 -0.12539 0.25971
 C418 C 0.34678 -0.14856 0.29370
 C419 C 0.37501 -0.14610 0.28833
 C420 C 0.39830 -0.12146 0.24435
 C421 C 0.39392 -0.09849 0.21116
 C422 C 0.42528 -0.12074 0.23500
 N423 N 0.42937 -0.14187 0.27386
 N424 N 0.40837 -0.16367 0.32125
 C425 C 0.38152 -0.16637 0.33055
 H426 H 0.36258 -0.08365 0.19358
 H427 H 0.32213 -0.12652 0.26209
 H428 H 0.44312 -0.10379 0.19681
 H429 H 0.36586 -0.18396 0.37258
 C430 C 0.89960 0.53749 0.19726
 C431 C 0.87498 0.53643 0.23497
 C432 C 0.85464 0.51159 0.28280
 C433 C 0.85925 0.48719 0.29264
 C434 C 0.88377 0.48775 0.25131
 C435 C 0.90471 0.51370 0.20566
 C436 C 0.88594 0.46195 0.25599
 N437 N 0.86638 0.43844 0.30460
 N438 N 0.84456 0.43874 0.34813
 C439 C 0.84033 0.46226 0.34391
 H440 H 0.91513 0.55742 0.16249
 H441 H 0.87175 0.55523 0.22679
 H442 H 0.90240 0.45972 0.22007
 H443 H 0.82236 0.46128 0.38133
 C444 C 0.50558 0.38901 0.22564
 C445 C 0.50888 0.36602 0.26017
 C446 C 0.48522 0.34141 0.30018
 C447 C 0.45788 0.34053 0.30806
 C448 C 0.45438 0.36361 0.27081
 C449 C 0.47844 0.38785 0.22891
 C450 C 0.42704 0.36210 0.27952
 N451 N 0.40493 0.33919 0.32375
 N452 N 0.40836 0.31784 0.36031
 C453 C 0.43406 0.31780 0.35453
 H454 H 0.52422 0.40755 0.19426
 H455 H 0.53000 0.36728 0.25458
 H456 H 0.42315 0.37909 0.25282
 H457 H 0.43567 0.30027 0.38773
 C458 C 0.60891 0.10902 0.28843
 C459 C 0.63114 0.13606 0.32091
 C460 C 0.65072 0.15794 0.26240
 C461 C 0.64687 0.15289 0.16863
 C462 C 0.62408 0.12534 0.13530
 C463 C 0.60557 0.10289 0.19639
 C464 C 0.62007 0.12172 0.04174
 N465 N 0.63817 0.14384 -0.01387
 N466 N 0.65975 0.16948 0.01748
 C467 C 0.66461 0.17484 0.10666
 H468 H 0.59478 0.09234 0.33600
 H469 H 0.63366 0.13962 0.39276
 H470 H 0.60235 0.10198 0.01190
 H471 H 0.68196 0.19637 0.12810
 C472 C 0.50095 0.10582 -0.28990
 C473 C 0.50466 0.13240 -0.32268
 C474 C 0.50181 0.15241 -0.26650
 C475 C 0.49829 0.14649 -0.17269
 C476 C 0.49501 0.11949 -0.13911
 C477 C 0.49480 0.09834 -0.19949
 C478 C 0.49356 0.11535 -0.04553
 N479 N 0.49483 0.13647 0.00999
 N480 N 0.49806 0.16177 -0.02126
 C481 C 0.50022 0.16766 -0.11020
 H482 H 0.50168 0.09037 -0.33675
 H483 H 0.50766 0.13620 -0.39421
 H484 H 0.49270 0.09624 -0.01520
 H485 H 0.50447 0.18929 -0.13060
 C486 C 0.62862 0.52542 -0.22813
 C487 C 0.65260 0.52515 -0.26522
 C488 C 0.64973 0.49991 -0.30862
 C489 C 0.62097 0.47453 -0.31652
 C490 C 0.59650 0.47470 -0.27635
 C491 C 0.60040 0.50063 -0.23275
 C492 C 0.56897 0.44865 -0.28086
 N493 N 0.56559 0.42496 -0.32780
 N494 N 0.58788 0.42552 -0.37091
 C495 C 0.61524 0.44949 -0.36780
 H496 H 0.63230 0.54549 -0.19522
 H497 H 0.67393 0.54477 -0.25623
 H498 H 0.55007 0.44664 -0.24729
 H499 H 0.63188 0.44882 -0.40776
 C500 C 0.89127 0.36437 -0.20872
 C501 C 0.86425 0.34213 -0.24075
 C502 C 0.84105 0.34753 -0.26002
 C503 C 0.84520 0.37607 -0.23859
 C504 C 0.87319 0.39900 -0.20837
 C505 C 0.89649 0.39306 -0.19547
 C506 C 0.87646 0.42682 -0.18763
 N507 N 0.85317 0.43112 -0.19442
 N508 N 0.82670 0.40939 -0.21883
 C509 C 0.82182 0.38202 -0.23956
 H510 H 0.90873 0.35939 -0.19785
 H511 H 0.86238 0.32098 -0.25584
 H512 H 0.89698 0.44499 -0.16340
 H513 H 0.79947 0.36501 -0.25362
 C514 C 0.52622 -0.11208 -0.16508
 C515 C 0.52365 -0.13823 -0.19813
 C516 C 0.51855 -0.14516 -0.28939
 C517 C 0.51588 -0.12542 -0.34865
 C518 C 0.51963 -0.09824 -0.31591
 C519 C 0.52398 -0.09195 -0.22237
 C520 C 0.51951 -0.07815 -0.37896
 N521 N 0.51355 -0.08596 -0.46652
 N522 N 0.50824 -0.11223 -0.49593
 C523 C 0.50937 -0.13213 -0.44023
 H524 H 0.52955 -0.10778 -0.09368
 H525 H 0.52578 -0.15315 -0.15220
 H526 H 0.52470 -0.05609 -0.36080
 H527 H 0.50513 -0.15300 -0.46804
 C528 C 0.38131 0.48573 -0.29287
 C529 C 0.35888 0.48999 -0.32588
 C530 C 0.34492 0.50064 -0.27026
 C531 C 0.35417 0.50780 -0.17994
 C532 C 0.37699 0.50342 -0.14606
 C533 C 0.39007 0.49156 -0.20287
 C534 C 0.38654 0.51202 -0.05711
 N535 N 0.37358 0.52360 -0.00573
 N536 N 0.35182 0.52721 -0.03719
 C537 C 0.34168 0.51974 -0.12251
 H538 H 0.39128 0.47692 -0.33731
 H539 H 0.35182 0.48424 -0.39496
 H540 H 0.40448 0.51021 -0.02825
 H541 H 0.32423 0.52352 -0.14496
 C542 C 1.10229 0.63472 -0.21927
 C543 C 1.12730 0.65784 -0.25737
 C544 C 1.14825 0.65300 -0.30032
 C545 C 1.14260 0.62332 -0.30749
 C546 C 1.11767 0.59989 -0.26478
 C547 C 1.09692 0.60566 -0.22234
 C548 C 1.11461 0.57149 -0.26595
 N549 N 1.13320 0.56633 -0.31472
 N550 N 1.15475 0.58761 -0.36204
 C551 C 1.15991 0.61576 -0.36084
 H552 H 1.08681 0.63967 -0.18739
 H553 H 1.13072 0.67997 -0.24987
 H554 H 1.09800 0.55336 -0.22790
 H555 H 1.17710 0.63172 -0.40323
 C556 C 0.88651 0.51947 -0.17438
 C557 C 0.86021 0.51609 -0.20764
 C558 C 0.85272 0.51031 -0.29896
 C559 C 0.87380 0.51038 -0.35899
 C560 C 0.90086 0.51425 -0.32483
 C561 C 0.90667 0.51779 -0.23109
 C562 C 0.92189 0.51612 -0.38662
 N563 N 0.91611 0.51399 -0.47574
 N564 N 0.89102 0.51074 -0.50781
 C565 C 0.86995 0.50928 -0.45299
 H566 H 0.89074 0.52261 -0.10288
 H567 H 0.84493 0.51657 -0.16034
 H568 H 0.94337 0.52043 -0.36617
 H569 H 0.85096 0.50830 -0.48421
 C570 C 0.49622 0.37977 -0.21230
 C571 C 0.49866 0.35586 -0.24137
 C572 C 0.47360 0.32799 -0.25651
 C573 C 0.44556 0.32422 -0.23427
 C574 C 0.44315 0.34904 -0.20752
 C575 C 0.46883 0.37705 -0.19726
 C576 C 0.41496 0.34488 -0.19223
 N577 N 0.39112 0.31735 -0.19625
 N578 N 0.39356 0.29375 -0.21449
 C579 C 0.41989 0.29618 -0.23265
 H580 H 0.51603 0.40070 -0.20120
 H581 H 0.52045 0.35990 -0.25687
 H582 H 0.41153 0.36313 -0.17707
 H583 H 0.42052 0.27607 -0.24372
 C584 C 0.60532 0.11431 -0.25906
 C585 C 0.62741 0.14133 -0.29138
 C586 C 0.65703 0.14984 -0.27953
 C587 C 0.66455 0.13096 -0.23246
 C588 C 0.64213 0.10283 -0.20299
 C589 C 0.61210 0.09475 -0.21471
 C590 C 0.65085 0.08362 -0.16519
 N591 N 0.67972 0.09299 -0.15144
 N592 N 0.70059 0.12009 -0.17386
 C593 C 0.69402 0.13937 -0.21386
 H594 H 0.58266 0.10872 -0.26859
 H595 H 0.62132 0.15550 -0.32749
 H596 H 0.63536 0.06103 -0.14840
 H597 H 0.71189 0.16112 -0.23040
 C598 C 1.11097 0.48149 -0.17326
 C599 C 1.13724 0.48524 -0.20681
 C600 C 1.14238 0.48748 -0.29908
 C601 C 1.12065 0.48609 -0.35897
 C602 C 1.09360 0.48163 -0.32510
 C603 C 1.08905 0.47994 -0.23093
 C604 C 1.07183 0.47830 -0.38738
 N605 N 1.07757 0.48101 -0.47640
 N606 N 1.10346 0.48657 -0.50769
 C607 C 1.12517 0.48920 -0.45217
 H608 H 1.10795 0.48028 -0.10132
 H609 H 1.15366 0.48622 -0.16039
 H610 H 1.05010 0.47294 -0.36702
 H611 H 1.14573 0.49377 -0.48147
 C612 C 0.53343 0.62933 -0.23249
 C613 C 0.53135 0.65354 -0.26112
 C614 C 0.50391 0.65154 -0.27551
 C615 C 0.47801 0.62446 -0.25310
 C616 C 0.48026 0.59955 -0.22530
 C617 C 0.50830 0.60202 -0.21726
 C618 C 0.45438 0.57347 -0.20162
 N619 N 0.42818 0.57256 -0.20419
 N620 N 0.42612 0.59606 -0.22714
 C621 C 0.45006 0.62199 -0.25027
 H622 H 0.55505 0.63179 -0.22454
 H623 H 0.55163 0.67354 -0.27701
 H624 H 0.45464 0.55403 -0.17857
 H625 H 0.44701 0.64062 -0.26311
 C626 C 0.39654 -0.11253 -0.28993
 C627 C 0.37404 -0.13938 -0.32268
 C628 C 0.35220 -0.16007 -0.26564
 C629 C 0.35551 -0.15454 -0.17149
 C630 C 0.37887 -0.12727 -0.13806
 C631 C 0.39851 -0.10547 -0.19882
 C632 C 0.38256 -0.12341 -0.04445
 N633 N 0.36396 -0.14509 0.01138
 N634 N 0.34222 -0.17065 -0.01976
 C635 C 0.33760 -0.17625 -0.10885
 H636 H 0.41177 -0.09654 -0.33717
 H637 H 0.37255 -0.14285 -0.39457
 H638 H 0.40067 -0.10399 -0.01461
 H639 H 0.32058 -0.19803 -0.12948
 C640 C 0.49652 -0.12025 0.19809
 C641 C 0.49435 -0.14614 0.23193
 C642 C 0.51525 -0.14498 0.29320
 C643 C 0.53843 -0.11710 0.32255
 C644 C 0.54050 -0.09080 0.28832
 C645 C 0.51939 -0.09258 0.22549
 C646 C 0.56355 -0.06347 0.31902
 N647 N 0.58298 -0.06270 0.38080
 N648 N 0.58088 -0.08737 0.41384
 C649 C 0.55931 -0.11451 0.38702
 H650 H 0.48034 -0.12181 0.14960
 H651 H 0.47644 -0.16727 0.20932
 H652 H 0.56617 -0.04274 0.29496
 H653 H 0.55843 -0.13370 0.41755
 C654 C 0.36751 0.48292 0.17506
 C655 C 0.34452 0.48619 0.20690
 C656 C 0.34558 0.49686 0.29327
 C657 C 0.37050 0.50492 0.34841
 C658 C 0.39373 0.50084 0.31738
 C659 C 0.39239 0.49012 0.22844
 C660 C 0.41675 0.50684 0.37832
 N661 N 0.41728 0.51797 0.46081
 N662 N 0.39619 0.52311 0.48769
 C663 C 0.37276 0.51681 0.43459
 H664 H 0.36567 0.47449 0.10762
 H665 H 0.32546 0.47979 0.16431
 H666 H 0.43405 0.50230 0.36349
 H667 H 0.35611 0.52116 0.46019
 C668 C 1.11534 0.63305 0.16265
 C669 C 1.14163 0.65576 0.19763
 C670 C 1.14682 0.65862 0.29018
 C671 C 1.12455 0.63896 0.34913
 C672 C 1.09761 0.61598 0.31366
 C673 C 1.09344 0.61256 0.21922
 C674 C 1.07545 0.59791 0.37448
 N675 N 1.08043 0.60213 0.46400
 N676 N 1.10587 0.62339 0.49712
 C677 C 1.12800 0.64203 0.44293
 H678 H 1.11244 0.63097 0.09052
 H679 H 1.15834 0.67090 0.15200
 H680 H 1.05393 0.58099 0.35243
 H681 H 1.14786 0.65927 0.47384
 C682 C 0.50381 0.11193 0.25154
 C683 C 0.50636 0.13821 0.28294
 C684 C 0.48344 0.14422 0.27094
 C685 C 0.45762 0.12352 0.22461
 C686 C 0.45438 0.09611 0.19607
 C687 C 0.47813 0.09060 0.20798
 C688 C 0.42704 0.07503 0.15894
 N689 N 0.40571 0.08198 0.14497
 N690 N 0.40957 0.10841 0.16654
 C691 C 0.43476 0.12939 0.20584
 H692 H 0.52221 0.10830 0.26118
 H693 H 0.52619 0.15376 0.31862
 H694 H 0.42183 0.05283 0.14286
 H695 H 0.43670 0.15049 0.22170
 C696 C 0.63152 0.51886 0.16608
 C697 C 0.65563 0.51836 0.20270
 C698 C 0.65289 0.50188 0.27967
 C699 C 0.62479 0.48482 0.31905
 C700 C 0.59967 0.48331 0.27727
 C701 C 0.60342 0.50210 0.20303
 C702 C 0.57187 0.46277 0.31164
 N703 N 0.56980 0.44760 0.38752
 N704 N 0.59354 0.45131 0.43128
 C705 C 0.62092 0.46952 0.40011
 H706 H 0.63513 0.53297 0.10871
 H707 H 0.67680 0.53134 0.17108
 H708 H 0.55165 0.45760 0.27837
 H709 H 0.63931 0.47195 0.43952
 C710 C 0.88530 0.37243 0.17153
 C711 C 0.85866 0.35021 0.20467
 C712 C 0.85239 0.34884 0.29597
 C713 C 0.87319 0.37059 0.35513
 C714 C 0.90072 0.39282 0.32204
 C715 C 0.90655 0.39397 0.22864
 C716 C 0.92158 0.41251 0.38462
 N717 N 0.91450 0.41108 0.47239
 N718 N 0.88815 0.39113 0.50239
 C719 C 0.86728 0.37085 0.44690
 H720 H 0.88920 0.37291 0.10020
 H721 H 0.84292 0.33369 0.15883
 H722 H 0.94365 0.42862 0.36591
 H723 H 0.84627 0.35519 0.47506
   
