data_POSCAR
  _audit_creation_date              2014-09-24
  _audit_creation_method            'ToBaCCo'
  _symmetry_space_group_name_H-M    'P1'
  _symmetry_Int_Tables_number       1
  _symmetry_cell_setting            triclinic
  loop_
  _symmetry_equiv_pos_as_xyz
 x,y,z
_cell_length_a 46.2463
_cell_length_b 42.0861
_cell_length_c 22.3141
_cell_angle_alpha 89.886900
_cell_angle_beta 89.743800
_cell_angle_gamma 90.188200
loop_
  _atom_site_label
  _atom_site_type_symbol
  _atom_site_fract_x
  _atom_site_fract_y
  _atom_site_fract_z
C1 C 1.27600 0.21674 0.27988
 C2 C 1.25037 0.23106 0.26007
 C3 C 1.22710 0.21176 0.24211
 C4 C 1.22979 0.17846 0.24091
 C5 C 1.25622 0.16468 0.25811
 C6 C 1.27949 0.18358 0.27851
 C7 C 1.24878 0.26625 0.25557
 C8 C 1.27248 0.28346 0.23192
 C9 C 1.27173 0.31679 0.22758
 C10 C 1.24703 0.33265 0.24828
 C11 C 1.22361 0.31614 0.27321
 C12 C 1.22415 0.28282 0.27556
 H13 H 1.29356 0.23178 0.29501
 H14 H 1.20731 0.22276 0.22685
 H15 H 1.29126 0.27069 0.21574
 H16 H 1.20608 0.26999 0.29515
 H17 H 1.25833 0.13906 0.25686
 H18 H 1.24597 0.35834 0.24603
 C19 C 0.77376 -0.28480 0.27569
 C20 C 0.74916 -0.26827 0.25551
 C21 C 0.72518 -0.28560 0.23421
 C22 C 0.72556 -0.31883 0.23326
 C23 C 0.74979 -0.33481 0.25478
 C24 C 0.77404 -0.31834 0.27656
 C25 C 0.74777 -0.23297 0.25762
 C26 C 0.77116 -0.21396 0.23858
 C27 C 0.76862 -0.18059 0.23573
 C28 C 0.74211 -0.16650 0.25237
 C29 C 0.71889 -0.18521 0.27355
 C30 C 0.72213 -0.21825 0.27651
 H31 H 0.79205 -0.27154 0.29281
 H32 H 0.70641 -0.27322 0.21723
 H33 H 0.79097 -0.22525 0.22390
 H34 H 0.70426 -0.23276 0.29235
 H35 H 0.74950 -0.36055 0.25464
 H36 H 0.73972 -0.14093 0.25006
 C37 C 0.77190 0.21202 -0.23009
 C38 C 0.74845 0.23138 -0.24612
 C39 C 0.72313 0.21718 -0.26820
 C40 C 0.72100 0.18413 -0.27466
 C41 C 0.74455 0.16501 -0.25753
 C42 C 0.77011 0.17874 -0.23498
 C43 C 0.75016 0.26649 -0.24016
 C44 C 0.77516 0.28324 -0.25858
 C45 C 0.77599 0.31670 -0.25638
 C46 C 0.75195 0.33286 -0.23302
 C47 C 0.72722 0.31664 -0.21378
 C48 C 0.72622 0.28349 -0.21796
 H49 H 0.79128 0.22290 -0.21219
 H50 H 0.70533 0.23207 -0.28224
 H51 H 0.79330 0.27024 -0.27703
 H52 H 0.70701 0.27092 -0.20304
 H53 H 0.74305 0.13943 -0.26205
 H54 H 0.75208 0.35856 -0.23055
 C55 C 1.27488 -0.28163 -0.22510
 C56 C 1.25146 -0.26383 -0.24767
 C57 C 1.22645 -0.27990 -0.26733
 C58 C 1.22521 -0.31321 -0.26559
 C59 C 1.24836 -0.33026 -0.24179
 C60 C 1.27347 -0.31499 -0.22161
 C61 C 1.25371 -0.22858 -0.25160
 C62 C 1.27979 -0.21442 -0.27021
 C63 C 1.28341 -0.18133 -0.26964
 C64 C 1.26019 -0.16207 -0.25089
 C65 C 1.23335 -0.17566 -0.23449
 C66 C 1.23041 -0.20900 -0.23504
 H67 H 1.29395 -0.26934 -0.20914
 H68 H 1.20860 -0.26669 -0.28625
 H69 H 1.29760 -0.22934 -0.28431
 H70 H 1.21028 -0.21983 -0.22054
 H71 H 1.24678 -0.35595 -0.24011
 H72 H 1.26281 -0.13648 -0.25047
 C73 C 0.21941 0.27641 0.72585
 C74 C 0.23536 0.24998 0.74504
 C75 C 0.22068 0.22232 0.76402
 C76 C 0.19014 0.22103 0.76373
 C77 C 0.17479 0.24831 0.74509
 C78 C 0.18924 0.27604 0.72664
 C79 C 0.26738 0.25195 0.74343
 C80 C 0.28118 0.27999 0.76295
 C81 C 0.31071 0.28512 0.75169
 C82 C 0.32641 0.26127 0.72220
 C83 C 0.31355 0.23250 0.70581
 C84 C 0.28393 0.22773 0.71674
 H85 H 0.23065 0.29758 0.71054
 H86 H 0.23309 0.20194 0.77853
 H87 H 0.26853 0.29829 0.78480
 H88 H 0.27360 0.20601 0.70186
 H89 H 0.15137 0.24822 0.74507
 H90 H 0.34934 0.26443 0.71388
 C91 C 0.71290 0.77095 0.72494
 C92 C 0.73029 0.74649 0.74847
 C93 C 0.71737 0.71735 0.76496
 C94 C 0.68836 0.71103 0.75160
 C95 C 0.67197 0.73497 0.72432
 C96 C 0.68338 0.76538 0.71308
 C97 C 0.76232 0.74942 0.74967
 C98 C 0.77648 0.77740 0.76843
 C99 C 0.80692 0.77919 0.76768
 C100 C 0.82291 0.75246 0.74944
 C101 C 0.80910 0.72452 0.73069
 C102 C 0.77893 0.72348 0.72992
 H103 H 0.72266 0.79356 0.71318
 H104 H 0.73044 0.69899 0.78539
 H105 H 0.76393 0.79766 0.78306
 H106 H 0.76824 0.70217 0.71408
 H107 H 0.64943 0.73033 0.71469
 H108 H 0.84632 0.75341 0.74967
 C109 C 0.72096 0.28483 0.23151
 C110 C 0.73330 0.25542 0.24742
 C111 C 0.71515 0.23038 0.26653
 C112 C 0.68524 0.23529 0.27276
 C113 C 0.67373 0.26516 0.25937
 C114 C 0.69131 0.28995 0.23872
 C115 C 0.76523 0.25234 0.24977
 C116 C 0.78156 0.27758 0.27329
 C117 C 0.81170 0.27612 0.27568
 C118 C 0.82565 0.24842 0.25612
 C119 C 0.80978 0.22238 0.23392
 C120 C 0.77948 0.22466 0.23022
 H121 H 0.73456 0.30415 0.21571
 H122 H 0.72437 0.20775 0.27935
 H123 H 0.77070 0.29867 0.28948
 H124 H 0.76703 0.20498 0.21252
 H125 H 0.65066 0.26903 0.26384
 H126 H 0.84901 0.24715 0.25824
 C127 C 0.21918 0.77821 0.23253
 C128 C 0.23349 0.75061 0.25203
 C129 C 0.21735 0.72511 0.27534
 C130 C 0.18712 0.72583 0.27688
 C131 C 0.17309 0.75363 0.25759
 C132 C 0.18875 0.78023 0.23592
 C133 C 0.26538 0.74748 0.24925
 C134 C 0.28360 0.77153 0.27162
 C135 C 0.31332 0.76575 0.27877
 C136 C 0.32455 0.73611 0.26287
 C137 C 0.30690 0.71244 0.23872
 C138 C 0.27749 0.71841 0.23066
 H139 H 0.23180 0.79793 0.21512
 H140 H 0.22863 0.70427 0.29147
 H141 H 0.27450 0.79390 0.28636
 H142 H 0.26377 0.69986 0.21261
 H143 H 0.14969 0.75447 0.25930
 H144 H 0.34747 0.73161 0.26810
 O145 O 1.04083 0.05583 0.10906
 O146 O 1.07305 0.02698 0.05265
 C147 C 1.06697 0.04813 0.09305
 O148 O 0.95944 -0.06016 0.10072
 O149 O 0.92747 -0.02854 0.04984
 C150 C 0.93336 -0.05180 0.08601
 O151 O 1.03984 -0.05574 0.10889
 O152 O 1.07285 -0.02774 0.05217
 C153 C 1.06610 -0.04872 0.09294
 O154 O 0.96038 0.05774 0.10475
 O155 O 0.92770 0.02897 0.04939
 C156 C 0.93425 0.05089 0.08825
 Zr157 Zr 1.00038 0.03960 0.07579
 O158 O 0.99823 0.03974 0.17054
 O159 O 1.00117 0.08974 0.06974
 Zr160 Zr 0.99994 -0.04000 0.07526
 O161 O 0.99794 -0.03613 0.16959
 O162 O 1.00211 -0.09015 0.07914
 O163 O 1.02628 -0.00026 0.08718
 O164 O 0.97452 -0.00033 0.08645
 O165 O 0.95975 0.05899 -0.10226
 O166 O 0.92763 0.02743 -0.05050
 C167 C 0.93365 0.05044 -0.08734
 O168 O 1.04177 -0.05593 -0.10789
 O169 O 1.07348 -0.02636 -0.05195
 C170 C 1.06779 -0.04778 -0.09196
 O171 O 0.96092 -0.05844 -0.10411
 O172 O 0.92795 -0.02957 -0.04959
 C173 C 0.93469 -0.05160 -0.08800
 O174 O 1.04020 0.05577 -0.10955
 O175 O 1.07303 0.02831 -0.05256
 C176 C 1.06641 0.04912 -0.09352
 Zr177 Zr 1.00019 0.04023 -0.07481
 O178 O 0.99732 0.04224 -0.16936
 O179 O 1.00139 0.09026 -0.06669
 Zr180 Zr 1.00090 -0.03963 -0.07599
 O181 O 0.99861 -0.03865 -0.17075
 O182 O 1.00204 -0.08984 -0.07314
 Zr183 Zr 1.04402 0.00020 -0.00002
 Zr184 Zr 0.95673 -0.00028 -0.00010
 O185 O 0.97513 0.00007 -0.08647
 O186 O 1.02664 0.00059 -0.08729
 O187 O 0.97438 0.04590 0.00069
 O188 O 1.02560 -0.04558 -0.00015
 O189 O 1.02568 0.04583 0.00032
 O190 O 0.97470 -0.04621 -0.00072
 H191 H 0.96117 -0.00056 0.12131
 H192 H 1.03823 -0.06455 -0.00007
 H193 H 0.96211 0.00013 -0.12162
 H194 H 1.03850 0.06474 0.00042
 H195 H 0.99398 -0.09812 0.04107
 H196 H 1.00221 -0.09712 -0.11537
 H197 H 1.01616 -0.02769 -0.18579
 H198 H 1.01110 0.02647 -0.18546
 H199 H 1.00162 0.09879 -0.10812
 H200 H 1.00154 0.09772 0.11149
 H201 H 1.01200 0.02351 0.18495
 H202 H 0.99745 -0.05819 0.18515
 O203 O 1.04068 0.55634 0.61724
 O204 O 1.07289 0.52847 0.55900
 C205 C 1.06667 0.54944 0.59966
 O206 O 0.96086 0.43913 0.60495
 O207 O 0.92807 0.47133 0.55746
 C208 C 0.93470 0.44735 0.59135
 O209 O 1.04061 0.44470 0.61369
 O210 O 1.07321 0.47322 0.55695
 C211 C 1.06671 0.45188 0.59721
 O212 O 0.96073 0.55767 0.61498
 O213 O 0.92785 0.52931 0.55948
 C214 C 0.93459 0.55104 0.59853
 Zr215 Zr 1.00051 0.53987 0.58469
 O216 O 0.99884 0.53878 0.67948
 O217 O 1.00099 0.59009 0.58058
 Zr218 Zr 1.00066 0.46050 0.58116
 O219 O 0.99877 0.46362 0.67560
 O220 O 1.00335 0.41037 0.58400
 O221 O 1.02682 0.50019 0.59401
 O222 O 0.97492 0.49974 0.59459
 O223 O 0.95956 0.56167 0.40994
 O224 O 0.92755 0.52866 0.45874
 C225 C 0.93362 0.55279 0.42453
 O226 O 1.04074 0.44645 0.39693
 O227 O 1.07303 0.47528 0.45293
 C228 C 1.06675 0.45396 0.41305
 O229 O 0.96083 0.44373 0.40221
 O230 O 0.92784 0.47142 0.45875
 C231 C 0.93469 0.44985 0.41941
 O232 O 1.03929 0.55784 0.39881
 O233 O 1.07262 0.53023 0.45426
 C234 C 1.06557 0.55131 0.41414
 Zr235 Zr 0.99969 0.54201 0.43421
 O236 O 0.99583 0.54453 0.33984
 O237 O 1.00119 0.59201 0.44321
 Zr238 Zr 1.00053 0.46251 0.43015
 O239 O 0.99769 0.46474 0.33550
 O240 O 1.00172 0.41227 0.43082
 Zr241 Zr 1.04402 0.50154 0.50643
 Zr242 Zr 0.95670 0.50067 0.50852
 O243 O 0.97454 0.50207 0.42172
 O244 O 1.02620 0.50274 0.41962
 O245 O 0.97424 0.54685 0.51047
 O246 O 1.02575 0.45576 0.50504
 O247 O 1.02542 0.54702 0.50887
 O248 O 0.97498 0.45495 0.50571
 H249 H 0.96167 0.49902 0.62961
 H250 H 1.03832 0.43674 0.50439
 H251 H 0.96132 0.50245 0.38690
 H252 H 1.03804 0.56609 0.50903
 H253 H 0.99617 0.40258 0.54497
 H254 H 1.00167 0.40542 0.38833
 H255 H 1.01529 0.47558 0.32040
 H256 H 1.01014 0.52967 0.32267
 H257 H 1.00130 0.60081 0.40197
 H258 H 1.00140 0.59766 0.62260
 H259 H 1.01322 0.52297 0.69294
 H260 H 0.99832 0.44144 0.69053
 O261 O 0.44724 -0.04581 0.39268
 O262 O 0.47454 -0.08102 0.44713
 C263 C 0.45402 -0.07427 0.40951
 O264 O 0.55304 0.04210 0.38393
 O265 O 0.52614 0.07876 0.43605
 C266 C 0.54670 0.07099 0.39902
 O267 O 0.54897 -0.04529 0.38001
 O268 O 0.52649 -0.08085 0.44343
 C269 C 0.54432 -0.07379 0.39982
 O270 O 0.44495 0.04100 0.39296
 O271 O 0.47221 0.07857 0.44179
 C272 C 0.45109 0.07009 0.40655
 Zr273 Zr 0.46343 -0.00173 0.42075
 O274 O 0.46618 -0.00225 0.32619
 O275 O 0.41773 -0.00351 0.42048
 Zr276 Zr 0.53475 -0.00131 0.41243
 O277 O 0.52768 -0.00083 0.31895
 O278 O 0.58015 -0.00335 0.40154
 O279 O 0.49887 -0.03086 0.40671
 O280 O 0.49879 0.02701 0.40422
 O281 O 0.44909 0.04473 0.59667
 O282 O 0.47517 0.08011 0.53933
 C283 C 0.45486 0.07315 0.57770
 O284 O 0.55480 -0.04275 0.59612
 O285 O 0.52705 -0.07949 0.54636
 C286 C 0.54786 -0.07166 0.58244
 O287 O 0.55839 0.04444 0.58196
 O288 O 0.52961 0.08035 0.53273
 C289 C 0.55217 0.07292 0.56467
 O290 O 0.45326 -0.04250 0.60973
 O291 O 0.47558 -0.07963 0.55016
 C292 C 0.45782 -0.07148 0.59303
 Zr293 Zr 0.46695 0.00080 0.57201
 O294 O 0.47046 0.00626 0.66605
 O295 O 0.42124 -0.00134 0.57542
 Zr296 Zr 0.53864 0.00075 0.56368
 O297 O 0.53898 0.00615 0.65805
 O298 O 0.58432 -0.00115 0.55833
 Zr299 Zr 0.50094 -0.04862 0.49506
 Zr300 Zr 0.50082 0.04783 0.48961
 O301 O 0.50312 0.02948 0.57710
 O302 O 0.50306 -0.02811 0.58123
 O303 O 0.45929 0.02752 0.49531
 O304 O 0.54222 -0.02774 0.48895
 O305 O 0.45964 -0.02795 0.49865
 O306 O 0.54236 0.02763 0.48587
 H307 H 0.49805 0.04133 0.36893
 H308 H 0.55982 -0.04107 0.48771
 H309 H 0.50409 0.04495 0.61048
 H310 H 0.44209 -0.04145 0.50121
 H311 H 0.58859 0.00330 0.44024
 H312 H 0.59167 -0.00032 0.60001
 H313 H 0.53144 -0.01378 0.67588
 H314 H 0.48138 -0.01215 0.68158
 H315 H 0.41568 -0.00055 0.61837
 H316 H 0.41128 0.00419 0.46020
 H317 H 0.44599 -0.00205 0.31154
 H318 H 0.54711 0.00000 0.30014
 O319 O 0.53806 0.55625 0.10981
 O320 O 0.57055 0.52790 0.05316
 C321 C 0.56417 0.54893 0.09350
 O322 O 0.45852 0.43875 0.09775
 O323 O 0.42637 0.47037 0.04722
 C324 C 0.43253 0.44677 0.08235
 O325 O 0.53877 0.44562 0.10971
 O326 O 0.57120 0.47348 0.05149
 C327 C 0.56487 0.45330 0.09352
 O328 O 0.45760 0.55615 0.10592
 O329 O 0.42574 0.52690 0.04946
 C330 C 0.43170 0.54823 0.08946
 Zr331 Zr 0.49812 0.53968 0.07595
 O332 O 0.49607 0.54032 0.17068
 O333 O 0.49811 0.58979 0.06916
 Zr334 Zr 0.49854 0.45997 0.07471
 O335 O 0.49562 0.46318 0.16905
 O336 O 0.50178 0.40989 0.07837
 O337 O 0.52427 0.50001 0.08744
 O338 O 0.47277 0.49931 0.08590
 O339 O 0.45883 0.56038 -0.10038
 O340 O 0.42653 0.52837 -0.05006
 C341 C 0.43279 0.55202 -0.08525
 O342 O 0.54009 0.44462 -0.10765
 O343 O 0.57160 0.47409 -0.05096
 C344 C 0.56590 0.45250 -0.09061
 O345 O 0.45965 0.44303 -0.10684
 O346 O 0.42660 0.47172 -0.05236
 C347 C 0.43342 0.45031 -0.09167
 O348 O 0.53913 0.55464 -0.11073
 O349 O 0.57139 0.52782 -0.05149
 C350 C 0.56517 0.54745 -0.09433
 Zr351 Zr 0.49883 0.54070 -0.07467
 O352 O 0.49550 0.54349 -0.16906
 O353 O 0.50094 0.59071 -0.06653
 Zr354 Zr 0.49948 0.46086 -0.07660
 O355 O 0.49785 0.46172 -0.17145
 O356 O 0.50026 0.41066 -0.07366
 Zr357 Zr 0.54209 0.50066 0.00044
 Zr358 Zr 0.45532 0.49966 -0.00096
 O359 O 0.47384 0.50064 -0.08715
 O360 O 0.52513 0.50108 -0.08713
 O361 O 0.47260 0.54601 0.00059
 O362 O 0.52412 0.45472 -0.00045
 O363 O 0.52383 0.54630 0.00084
 O364 O 0.47338 0.45381 -0.00173
 H365 H 0.45940 0.49846 0.12070
 H366 H 0.53686 0.43585 0.00018
 H367 H 0.46094 0.50119 -0.12249
 H368 H 0.53677 0.56511 0.00056
 H369 H 0.49380 0.40176 0.04028
 H370 H 0.50045 0.40336 -0.11588
 H371 H 0.51531 0.47303 -0.18605
 H372 H 0.50791 0.52657 -0.18574
 H373 H 0.50175 0.59920 -0.10795
 H374 H 0.49795 0.59789 0.11083
 H375 H 0.50863 0.52296 0.18516
 H376 H 0.49559 0.44102 0.18411
 C377 C 1.16035 0.12100 0.18403
 N378 N 1.15568 0.15103 0.20400
 N379 N 1.17767 0.16924 0.22186
 C380 C 1.20524 0.15813 0.22089
 N381 N 1.20984 0.12800 0.20117
 N382 N 1.18788 0.10987 0.18285
 C383 C 1.13604 0.10115 0.16284
 N384 N 1.14100 0.07390 0.13191
 N385 N 1.11905 0.05666 0.11074
 C386 C 1.09124 0.06579 0.12026
 N387 N 1.08629 0.09286 0.15174
 N388 N 1.10824 0.11022 0.17249
 C389 C 1.15669 0.63046 0.67428
 N390 N 1.15123 0.65894 0.70069
 N391 N 1.17293 0.67774 0.71805
 C392 C 1.20079 0.66858 0.70965
 N393 N 1.20606 0.64035 0.68243
 N394 N 1.18448 0.62174 0.66483
 C395 C 1.13326 0.60889 0.65696
 N396 N 1.13922 0.58232 0.62479
 N397 N 1.11811 0.56269 0.60815
 C398 C 1.09031 0.56869 0.62388
 N399 N 1.08439 0.59509 0.65665
 N400 N 1.10549 0.61482 0.67303
 C401 C 0.64677 0.14431 0.64685
 N402 N 0.64542 0.17318 0.67373
 N403 N 0.66895 0.18579 0.69890
 C404 C 0.69458 0.16989 0.69885
 N405 N 0.69574 0.14098 0.67228
 N406 N 0.67235 0.12853 0.64675
 C407 C 0.62127 0.12925 0.61935
 N408 N 0.62519 0.10244 0.58706
 N409 N 0.60270 0.08617 0.56667
 C410 C 0.57525 0.09597 0.57711
 N411 N 0.57104 0.12330 0.60833
 N412 N 0.59377 0.13978 0.62887
 C413 C 0.65602 0.62539 0.17520
 N414 N 0.65126 0.65500 0.19725
 N415 N 0.67334 0.67324 0.21453
 C416 C 0.70092 0.66240 0.21053
 N417 N 0.70554 0.63289 0.18801
 N418 N 0.68356 0.61480 0.17043
 C419 C 0.63203 0.60493 0.15646
 N420 N 0.63744 0.57760 0.12626
 N421 N 0.61581 0.55922 0.10766
 C422 C 0.58798 0.56730 0.11933
 N423 N 0.58256 0.59445 0.15018
 N424 N 0.60421 0.61295 0.16845
 C425 C 0.83887 -0.12468 0.17543
 N426 N 0.81159 -0.11277 0.17602
 N427 N 0.78937 -0.13038 0.19543
 C428 C 0.79343 -0.16072 0.21462
 N429 N 0.82076 -0.17258 0.21388
 N430 N 0.84300 -0.15492 0.19488
 C431 C 0.86350 -0.10531 0.15341
 N432 N 0.89116 -0.11539 0.16080
 N433 N 0.91337 -0.09817 0.14019
 C434 C 0.90883 -0.07025 0.11106
 N435 N 0.88117 -0.06019 0.10364
 N436 N 0.85897 -0.07730 0.12462
 C437 C 0.84418 0.36991 0.67799
 N438 N 0.81925 0.38389 0.69539
 N439 N 0.79756 0.36654 0.71695
 C440 C 0.79962 0.33441 0.72156
 N441 N 0.82465 0.32034 0.70368
 N442 N 0.84662 0.33782 0.68265
 C443 C 0.86778 0.38963 0.65474
 N444 N 0.89537 0.37882 0.65373
 N445 N 0.91674 0.39746 0.63413
 C446 C 0.91124 0.42741 0.61451
 N447 N 0.88363 0.43811 0.61508
 N448 N 0.86232 0.41960 0.63530
 C449 C 0.36414 -0.14262 0.68129
 N450 N 0.34621 -0.12692 0.71945
 N451 N 0.32050 -0.13897 0.73454
 C452 C 0.31168 -0.16737 0.71228
 N453 N 0.32969 -0.18314 0.67423
 N454 N 0.35532 -0.17092 0.65864
 C455 C 0.39185 -0.12798 0.66303
 N456 N 0.40667 -0.13790 0.61362
 N457 N 0.42959 -0.12157 0.59334
 C458 C 0.43871 -0.09499 0.62233
 N459 N 0.42443 -0.08596 0.67279
 N460 N 0.40158 -0.10209 0.69279
 C461 C 0.34010 0.36995 0.16259
 N462 N 0.31422 0.38358 0.17414
 N463 N 0.29227 0.36625 0.19479
 C464 C 0.29508 0.33448 0.20422
 N465 N 0.32101 0.32076 0.19175
 N466 N 0.34317 0.33821 0.17165
 C467 C 0.36423 0.38964 0.14146
 N468 N 0.39188 0.37913 0.14483
 N469 N 0.41370 0.39760 0.12684
 C470 C 0.40863 0.42712 0.10460
 N471 N 0.38098 0.43754 0.10096
 N472 N 0.35919 0.41921 0.11951
 C473 C 0.83990 0.12228 -0.17820
 N474 N 0.81278 0.10991 -0.18134
 N475 N 0.79070 0.12764 -0.20008
 C476 C 0.79480 0.15856 -0.21593
 N477 N 0.82197 0.17086 -0.21273
 N478 N 0.84407 0.15307 -0.19450
 C479 C 0.86431 0.10298 -0.15633
 N480 N 0.89196 0.11354 -0.16254
 N481 N 0.91402 0.09655 -0.14154
 C482 C 0.90931 0.06842 -0.11310
 N483 N 0.88165 0.05785 -0.10687
 N484 N 0.85960 0.07473 -0.12831
 C485 C 0.84206 0.62907 0.34221
 N486 N 0.84487 0.66104 0.33521
 N487 N 0.82290 0.67833 0.31452
 C488 C 0.79748 0.66419 0.29932
 N489 N 0.79501 0.63220 0.30651
 N490 N 0.81671 0.61504 0.32774
 C491 C 0.86589 0.60953 0.36426
 N492 N 0.89349 0.62046 0.36287
 N493 N 0.91507 0.60206 0.38134
 C494 C 0.90982 0.57222 0.40211
 N495 N 0.88219 0.56138 0.40390
 N496 N 0.86064 0.57965 0.38483
 C497 C 0.35726 0.14300 0.32738
 N498 N 0.35231 0.17425 0.33794
 N499 N 0.32722 0.18737 0.32211
 C500 C 0.30593 0.16974 0.29600
 N501 N 0.31098 0.13841 0.28631
 N502 N 0.33612 0.12542 0.30132
 C503 C 0.38466 0.12758 0.34350
 N504 N 0.39150 0.09985 0.31654
 N505 N 0.41416 0.08316 0.33447
 C506 C 0.43107 0.09332 0.38019
 N507 N 0.42481 0.12163 0.40650
 N508 N 0.40205 0.13860 0.38811
 C509 C 0.34114 0.63003 -0.16151
 N510 N 0.34479 0.66180 -0.16962
 N511 N 0.32287 0.67984 -0.18806
 C512 C 0.29658 0.66669 -0.19976
 N513 N 0.29319 0.63489 -0.19127
 N514 N 0.31491 0.61697 -0.17227
 C515 C 0.36504 0.60977 -0.14212
 N516 N 0.35966 0.58008 -0.12075
 N517 N 0.38125 0.56143 -0.10324
 C518 C 0.40903 0.57164 -0.10744
 N519 N 0.41443 0.60125 -0.12919
 N520 N 0.39281 0.62003 -0.14613
 C521 C 1.16286 -0.11877 -0.18125
 N522 N 1.15866 -0.14896 -0.20083
 N523 N 1.18099 -0.16687 -0.21774
 C524 C 1.20848 -0.15534 -0.21619
 N525 N 1.21263 -0.12501 -0.19700
 N526 N 1.19031 -0.10715 -0.17963
 C527 C 1.13810 -0.09937 -0.16068
 N528 N 1.14245 -0.07190 -0.13005
 N529 N 1.12009 -0.05517 -0.10925
 C530 C 1.09247 -0.06504 -0.11878
 N531 N 1.08813 -0.09233 -0.14996
 N532 N 1.11049 -0.10918 -0.17037
 C533 C 1.15611 0.37331 0.33501
 N534 N 1.15022 0.34450 0.31032
 N535 N 1.17161 0.32552 0.29231
 C536 C 1.19958 0.33485 0.29825
 N537 N 1.20531 0.36345 0.32369
 N538 N 1.18403 0.38225 0.34198
 C539 C 1.13294 0.39491 0.35317
 N540 N 1.13917 0.42166 0.38461
 N541 N 1.11820 0.44121 0.40212
 C542 C 1.09028 0.43491 0.38797
 N543 N 1.08410 0.40835 0.35590
 N544 N 1.10505 0.38871 0.33870
 C545 C 0.63835 -0.14594 0.31978
 N546 N 0.64740 -0.17335 0.34564
 N547 N 0.67304 -0.18566 0.33115
 C548 C 0.69083 -0.17084 0.29105
 N549 N 0.68182 -0.14330 0.26565
 N550 N 0.65609 -0.13117 0.27967
 C551 C 0.61055 -0.13129 0.33640
 N552 N 0.60049 -0.10668 0.30346
 N553 N 0.57752 -0.09036 0.32159
 C554 C 0.56345 -0.09793 0.37326
 N555 N 0.57289 -0.12328 0.40549
 N556 N 0.59593 -0.13982 0.38711
 C557 C 0.65779 0.37336 -0.16026
 N558 N 0.65283 0.34446 -0.18535
 N559 N 0.67484 0.32571 -0.20062
 C560 C 0.70253 0.33528 -0.19135
 N561 N 0.70732 0.36399 -0.16549
 N562 N 0.68539 0.38260 -0.14998
 C563 C 0.63395 0.39463 -0.14484
 N564 N 0.63918 0.42180 -0.11397
 N565 N 0.61757 0.44094 -0.09848
 C566 C 0.59000 0.43380 -0.11405
 N567 N 0.58481 0.40684 -0.14563
 N568 N 0.60641 0.38760 -0.16088
 C569 C 1.14403 0.14101 -0.18442
 N570 N 1.17308 0.14240 -0.17559
 N571 N 1.18821 0.16802 -0.19282
 C572 C 1.17481 0.19341 -0.21862
 N573 N 1.14578 0.19171 -0.22700
 N574 N 1.13081 0.16611 -0.21061
 C575 C 1.12618 0.11370 -0.16524
 N576 N 1.09904 0.11105 -0.18729
 N577 N 1.08092 0.08912 -0.16634
 C578 C 1.08901 0.06881 -0.12227
 N579 N 1.11646 0.07086 -0.10076
 N580 N 1.13479 0.09288 -0.12210
 C581 C 1.14055 0.64647 0.32888
 N582 N 1.16961 0.64746 0.33655
 N583 N 1.18465 0.67313 0.31994
 C584 C 1.17124 0.69897 0.29593
 N585 N 1.14210 0.69786 0.28915
 N586 N 1.12713 0.67213 0.30500
 C587 C 1.12326 0.61865 0.34636
 N588 N 1.09622 0.61563 0.32420
 N589 N 1.07881 0.59265 0.34357
 C590 C 1.08761 0.57171 0.38597
 N591 N 1.11500 0.57415 0.40743
 N592 N 1.13262 0.59717 0.38760
 C593 C 0.62645 0.16490 0.32647
 N594 N 0.65217 0.15665 0.30129
 N595 N 0.67137 0.17888 0.28544
 C596 C 0.66544 0.21011 0.29413
 N597 N 0.63983 0.21815 0.31993
 N598 N 0.62075 0.19601 0.33600
 C599 C 0.60497 0.14076 0.34294
 N600 N 0.58079 0.14891 0.37406
 N601 N 0.56156 0.12688 0.39042
 C602 C 0.56569 0.09599 0.37551
 N603 N 0.58970 0.08796 0.34380
 N604 N 0.60899 0.10994 0.32771
 C605 C 0.64651 0.62796 -0.20216
 N606 N 0.67322 0.63421 -0.17982
 N607 N 0.68748 0.66048 -0.19635
 C608 C 0.67523 0.68172 -0.23468
 N609 N 0.64884 0.67477 -0.25765
 N610 N 0.63486 0.64850 -0.24194
 C611 C 0.62822 0.60226 -0.17903
 N612 N 0.60184 0.59791 -0.20389
 N613 N 0.58239 0.57908 -0.17803
 C614 C 0.58855 0.56377 -0.12625
 N615 N 0.61532 0.56716 -0.10208
 N616 N 0.63485 0.58623 -0.12799
 C617 C 0.85449 -0.14028 -0.18009
 N618 N 0.82734 -0.14504 -0.15804
 N619 N 0.81168 -0.17013 -0.17551
 C620 C 0.82274 -0.19147 -0.21520
 N621 N 0.84969 -0.18631 -0.23748
 N622 N 0.86517 -0.16129 -0.22043
 C623 C 0.87344 -0.11442 -0.15887
 N624 N 0.90030 -0.11163 -0.18288
 N625 N 0.91910 -0.09067 -0.16138
 C626 C 0.91190 -0.07143 -0.11503
 N627 N 0.88479 -0.07367 -0.09137
 N628 N 0.86586 -0.09484 -0.11295
 C629 C 0.85931 0.35549 0.33276
 N630 N 0.83136 0.35172 0.35024
 N631 N 0.81623 0.32644 0.33234
 C632 C 0.82855 0.30384 0.29699
 N633 N 0.85653 0.30765 0.27997
 N634 N 0.87156 0.33298 0.29741
 C635 C 0.87679 0.38277 0.35221
 N636 N 0.90320 0.38722 0.32722
 N637 N 0.92067 0.40988 0.34713
 C638 C 0.91255 0.42917 0.39279
 N639 N 0.88580 0.42529 0.41732
 N640 N 0.86814 0.40250 0.39712
 C641 C 0.37307 -0.16680 0.33869
 N642 N 0.34824 -0.15740 0.31162
 N643 N 0.32861 -0.17869 0.29422
 C644 C 0.33323 -0.21015 0.30315
 N645 N 0.35790 -0.21940 0.33100
 N646 N 0.37741 -0.19816 0.34870
 C647 C 0.39511 -0.14347 0.35542
 N648 N 0.41827 -0.15182 0.38929
 N649 N 0.43788 -0.13015 0.40527
 C650 C 0.43514 -0.09952 0.38707
 N651 N 0.41219 -0.09143 0.35259
 N652 N 0.39257 -0.11296 0.33697
 C653 C 0.35438 0.36565 -0.19486
 N654 N 0.32682 0.36053 -0.17571
 N655 N 0.31220 0.33491 -0.19398
 C656 C 0.32483 0.31327 -0.23107
 N657 N 0.35223 0.31893 -0.25035
 N658 N 0.36662 0.34453 -0.23283
 C659 C 0.37240 0.39154 -0.17199
 N660 N 0.39919 0.39538 -0.19568
 N661 N 0.41795 0.41529 -0.17112
 C662 C 0.41071 0.43227 -0.12185
 N663 N 0.38358 0.42924 -0.09872
 N664 N 0.36469 0.40909 -0.12339
 C665 C 1.14347 -0.13967 0.18420
 N666 N 1.17228 -0.14177 0.17255
 N667 N 1.18718 -0.16740 0.18972
 C668 C 1.17375 -0.19210 0.21826
 N669 N 1.14496 -0.18966 0.22950
 N670 N 1.13023 -0.16406 0.21315
 C671 C 1.12577 -0.11249 0.16483
 N672 N 1.09878 -0.10953 0.18795
 N673 N 1.08069 -0.08784 0.16686
 C674 C 1.08868 -0.06808 0.12162
 N675 N 1.11599 -0.07040 0.09905
 N676 N 1.13428 -0.09220 0.12047
 C677 C 1.14281 0.35802 0.68029
 N678 N 1.17004 0.35363 0.65902
 N679 N 1.18485 0.32761 0.67375
 C680 C 1.17285 0.30485 0.70957
 N681 N 1.14560 0.30934 0.73057
 N682 N 1.13093 0.33540 0.71629
 C683 C 1.12546 0.38574 0.66299
 N684 N 1.09955 0.39039 0.69001
 N685 N 1.08188 0.41303 0.67098
 C686 C 1.08932 0.43211 0.62428
 N687 N 1.11563 0.42811 0.59794
 N688 N 1.13346 0.40536 0.61719
 C689 C 0.62697 -0.16537 0.65547
 N690 N 0.65446 -0.15747 0.67110
 N691 N 0.67314 -0.17978 0.68835
 C692 C 0.66488 -0.21080 0.69111
 N693 N 0.63741 -0.21838 0.67469
 N694 N 0.61891 -0.19625 0.65700
 C695 C 0.60593 -0.14115 0.63811
 N696 N 0.58048 -0.14966 0.61231
 N697 N 0.56136 -0.12770 0.59595
 C698 C 0.56686 -0.09648 0.60587
 N699 N 0.59217 -0.08807 0.63227
 N700 N 0.61136 -0.10998 0.64815
 C701 C 0.64830 0.37388 0.19527
 N702 N 0.67264 0.36563 0.16478
 N703 N 0.68735 0.33965 0.18013
 C704 C 0.67800 0.32095 0.22606
 N705 N 0.65417 0.32982 0.25735
 N706 N 0.63963 0.35575 0.24229
 C707 C 0.62894 0.39870 0.17330
 N708 N 0.60269 0.40219 0.19969
 N709 N 0.58276 0.42077 0.17535
 C710 C 0.58837 0.43673 0.12380
 N711 N 0.61494 0.43406 0.09807
 N712 N 0.63489 0.41521 0.12231
 C713 C 0.85588 0.14127 0.17998
 N714 N 0.86693 0.16190 0.22055
 N715 N 0.85205 0.18727 0.23785
 C716 C 0.82535 0.19314 0.21555
 N717 N 0.81398 0.17223 0.17545
 N718 N 0.82904 0.14682 0.15772
 C719 C 0.87407 0.11477 0.15899
 N720 N 0.86650 0.09597 0.11193
 N721 N 0.88494 0.07429 0.09048
 C722 C 0.91152 0.07069 0.11551
 N723 N 0.91863 0.08909 0.16308
 N724 N 0.90033 0.11057 0.18441
 C725 C 0.85756 0.64434 0.68199
 N726 N 0.86914 0.66747 0.71687
 N727 N 0.85380 0.69293 0.73195
 C728 C 0.82616 0.69630 0.71292
 N729 N 0.81448 0.67303 0.67820
 N730 N 0.82994 0.64760 0.66269
 C731 C 0.87552 0.61721 0.66407
 N732 N 0.86731 0.59671 0.62015
 N733 N 0.88539 0.57419 0.60075
 C734 C 0.91217 0.57136 0.62503
 N735 N 0.91991 0.59142 0.66974
 N736 N 0.90198 0.61382 0.68891
 C737 C 0.37143 0.16427 0.64234
 N738 N 0.37489 0.19531 0.62786
 N739 N 0.35564 0.21670 0.64589
 C740 C 0.33205 0.20791 0.67855
 N741 N 0.32816 0.17669 0.69168
 N742 N 0.34754 0.15525 0.67388
 C743 C 0.39380 0.14112 0.62656
 N744 N 0.39223 0.11108 0.64819
 N745 N 0.41248 0.08997 0.63423
 C746 C 0.43518 0.09808 0.59847
 N747 N 0.43691 0.12824 0.57703
 N748 N 0.41666 0.14946 0.59125
 C749 C 0.34850 0.62838 0.19063
 N750 N 0.35680 0.64505 0.23952
 N751 N 0.34272 0.67107 0.25583
 C752 C 0.31974 0.68150 0.22395
 N753 N 0.31072 0.66427 0.17603
 N754 N 0.32499 0.63819 0.15942
 C755 C 0.36757 0.60345 0.16801
 N756 N 0.36214 0.58806 0.11575
 N757 N 0.38204 0.56903 0.09159
 C758 C 0.40805 0.56513 0.11869
 N759 N 0.41311 0.58000 0.17138
 N760 N 0.39323 0.59870 0.19565
   
