data_POSCAR
  _audit_creation_date              2014-09-24
  _audit_creation_method            'ToBaCCo'
  _symmetry_space_group_name_H-M    'P1'
  _symmetry_Int_Tables_number       1
  _symmetry_cell_setting            triclinic
  loop_
  _symmetry_equiv_pos_as_xyz
 x,y,z
_cell_length_a 25.9811
_cell_length_b 25.8365
_cell_length_c 26.1076
_cell_angle_alpha 84.031500
_cell_angle_beta 92.072200
_cell_angle_gamma 88.498300
loop_
  _atom_site_label
  _atom_site_type_symbol
  _atom_site_fract_x
  _atom_site_fract_y
  _atom_site_fract_z
C1 C -0.00155 0.48107 0.25355
 C2 C 0.01352 0.52834 0.74729
 C3 C 0.24747 0.00353 0.50944
 C4 C 0.75255 -0.01054 0.49235
 C5 C 0.48781 0.24754 1.02407
 C6 C 0.49732 0.75169 0.97224
 B7 B 0.99369 1.05607 0.03160
 B8 B 0.99154 1.06103 -0.03475
 B9 B 1.04745 1.03882 0.00133
 B10 B 1.02945 0.99996 0.05475
 B11 B 0.96346 1.00015 0.05364
 B12 B 0.93869 1.03665 -0.00101
 B13 B 0.99746 0.95251 -0.03121
 B14 B 0.99774 0.94747 0.03520
 B15 B 0.94174 0.96976 -0.00075
 B16 B 0.96143 1.00729 -0.05445
 B17 B 1.02745 1.00969 -0.05304
 B18 B 1.05053 0.97140 0.00127
 B19 B 0.55889 0.49132 0.46662
 B20 B 0.56158 0.49276 0.53216
 B21 B 0.54159 0.54765 0.49252
 B22 B 0.50578 0.52864 0.44191
 B23 B 0.50322 0.46203 0.44895
 B24 B 0.53670 0.43866 0.50566
 B25 B 0.45343 0.49966 0.53185
 B26 B 0.45148 0.49879 0.46518
 B27 B 0.47049 0.44368 0.50611
 B28 B 0.50709 0.46283 0.55647
 B29 B 0.50906 0.52943 0.54943
 B30 B 0.47486 0.55238 0.49344
 C31 C 1.00169 1.34902 0.16100
 C32 C 0.95634 1.37878 0.16376
 C33 C 0.95641 1.42269 0.19095
 C34 C 1.00120 1.43609 0.21843
 C35 C 1.04780 1.40940 0.20949
 C36 C 1.04773 1.36561 0.18224
 C37 C 1.00082 1.30049 0.13830
 C38 C 1.00008 1.25914 0.12062
 C39 C 0.99887 1.20947 0.10009
 C40 C 0.96067 1.19994 0.06385
 C41 C 0.96006 1.15211 0.04341
 C42 C 0.99553 1.11116 0.05919
 C43 C 1.03585 1.12351 0.09362
 C44 C 1.03693 1.17121 0.11458
 H45 H 0.92064 1.36735 0.14602
 H46 H 0.92061 1.44467 0.19302
 H47 H 1.08461 1.42159 0.22369
 H48 H 1.08357 1.34418 0.17848
 H49 H 0.93200 1.22992 0.05027
 H50 H 0.93335 1.14869 0.01315
 H51 H 1.06919 1.09821 0.10222
 H52 H 1.06843 1.17872 0.14088
 C53 C 0.98641 0.63145 0.16168
 C54 C 0.94232 0.61120 0.18428
 C55 C 0.94380 0.56076 0.20951
 C56 C 0.99047 0.53087 0.21502
 C57 C 1.03156 0.54867 0.18445
 C58 C 1.03010 0.59918 0.15929
 C59 C 0.98826 0.68621 0.14514
 C60 C 0.99052 0.73235 0.13293
 C61 C 0.99380 0.78729 0.11809
 C62 C 0.94972 0.81946 0.11334
 C63 C 0.95298 0.87132 0.09253
 C64 C 0.99863 0.89131 0.07213
 C65 C 1.04348 0.86141 0.08842
 C66 C 1.04132 0.80928 0.10866
 H67 H 0.90745 0.63512 0.18437
 H68 H 0.90889 0.54662 0.22656
 H69 H 1.06680 0.52535 0.18435
 H70 H 1.06400 0.61391 0.14039
 H71 H 0.91284 0.80455 0.12487
 H72 H 0.91919 0.89631 0.09295
 H73 H 1.08080 0.87629 0.08434
 H74 H 1.07667 0.78611 0.11615
 C75 C 0.98618 1.37259 -0.17783
 C76 C 1.02654 1.38047 -0.21114
 C77 C 1.03683 1.43024 -0.23319
 C78 C 1.00780 1.47443 -0.22146
 C79 C 0.96647 1.46557 -0.18806
 C80 C 0.95616 1.41520 -0.16597
 C81 C 0.97705 1.32013 -0.15662
 C82 C 0.97455 1.27492 -0.14028
 C83 C 0.97782 1.22070 -0.12089
 C84 C 1.02620 1.19713 -0.10976
 C85 C 1.03053 1.14563 -0.08774
 C86 C 0.98746 1.11744 -0.07148
 C87 C 0.94008 1.13860 -0.09305
 C88 C 0.93443 1.19032 -0.11538
 H89 H 1.04962 1.34770 -0.22116
 H90 H 1.06642 1.43300 -0.26127
 H91 H 0.94131 1.49760 -0.18015
 H92 H 0.92436 1.40946 -0.14048
 H93 H 1.06081 1.21860 -0.11769
 H94 H 1.06839 1.12995 -0.08208
 H95 H 0.90778 1.11374 -0.09598
 H96 H 0.89672 1.20599 -0.12891
 C97 C 1.02048 0.66487 -0.16725
 C98 C 1.02151 0.61532 -0.13966
 C99 C 1.01977 0.57065 -0.16592
 C100 C 1.01567 0.57514 -0.22032
 C101 C 1.01703 0.62554 -0.24712
 C102 C 1.01886 0.66970 -0.22095
 C103 C 1.01976 0.71140 -0.14143
 C104 C 1.01787 0.75173 -0.12207
 C105 C 1.01406 0.80053 -0.10032
 C106 C 0.97776 0.80767 -0.06369
 C107 C 0.97375 0.85512 -0.04292
 C108 C 1.00339 0.89797 -0.05896
 C109 C 1.04274 0.88790 -0.09322
 C110 C 1.04718 0.84060 -0.11462
 H111 H 1.02362 0.61121 -0.09791
 H112 H 1.02222 0.53310 -0.14341
 H113 H 1.01561 0.63060 -0.28886
 H114 H 1.01854 0.70778 -0.24274
 H115 H 0.95337 0.77615 -0.05006
 H116 H 0.94997 0.85659 -0.01167
 H117 H 1.07336 0.91441 -0.10077
 H118 H 1.07754 0.83483 -0.14103
 C119 C 1.17295 0.98667 0.35911
 C120 C 1.14559 0.97452 0.40399
 C121 C 1.16783 0.98149 0.45268
 C122 C 1.21751 1.00193 0.45719
 C123 C 1.24443 1.01311 0.41133
 C124 C 1.22231 1.00612 0.36318
 C125 C 1.15061 0.98104 0.30842
 C126 C 1.13232 0.97931 0.26532
 C127 C 1.10845 0.98193 0.21410
 C128 C 1.12843 0.95516 0.17493
 C129 C 1.10474 0.96099 0.12511
 C130 C 1.06064 0.99398 0.11254
 C131 C 1.04235 1.02023 0.15371
 C132 C 1.06537 1.01445 0.20293
 H133 H 1.10734 0.95907 0.40144
 H134 H 1.14671 0.96941 0.48659
 H135 H 1.28349 1.02663 0.41287
 H136 H 1.24409 1.01555 0.32900
 H137 H 1.16259 0.93024 0.18258
 H138 H 1.12290 0.94067 0.09647
 H139 H 1.00947 1.04629 0.14909
 H140 H 1.04937 1.03598 0.23244
 C141 C 1.16756 1.02115 -0.34828
 C142 C 1.14610 1.04410 -0.39560
 C143 C 1.16984 1.03636 -0.44193
 C144 C 1.21482 1.00435 -0.44199
 C145 C 1.23590 0.98232 -0.39351
 C146 C 1.21226 0.99003 -0.34770
 C147 C 1.14426 1.02824 -0.29984
 C148 C 1.12559 1.03071 -0.25830
 C149 C 1.10202 1.02880 -0.20876
 C150 C 1.12211 1.05425 -0.16807
 C151 C 1.09966 1.04839 -0.11954
 C152 C 1.05667 1.01660 -0.10963
 C153 C 1.03816 0.99168 -0.15231
 C154 C 1.05991 0.99762 -0.20039
 H155 H 1.11162 1.06873 -0.39665
 H156 H 1.15393 1.05672 -0.47753
 H157 H 1.27209 0.96036 -0.39041
 H158 H 1.22966 0.97240 -0.31148
 H159 H 1.15550 1.07815 -0.17351
 H160 H 1.11772 1.06839 -0.09002
 H161 H 1.00711 0.96534 -0.14941
 H162 H 1.04412 0.97673 -0.23100
 C163 C 0.83595 1.00564 0.35026
 C164 C 0.78255 1.01197 0.34960
 C165 C 0.75693 1.00689 0.39548
 C166 C 0.78422 0.99672 0.44346
 C167 C 0.83821 0.98873 0.44340
 C168 C 0.86388 0.99370 0.39702
 C169 C 0.86084 1.00809 0.30217
 C170 C 0.87933 1.00882 0.26066
 C171 C 0.89988 1.00742 0.21076
 C172 C 0.89101 1.04873 0.17256
 C173 C 0.91080 1.04619 0.12385
 C174 C 0.93749 1.00101 0.11064
 C175 C 0.94951 0.96237 0.15228
 C176 C 0.92974 0.96460 0.20079
 H177 H 0.76053 1.02003 0.31346
 H178 H 0.71529 1.01109 0.39373
 H179 H 0.86063 0.97724 0.47858
 H180 H 0.90527 0.98722 0.39754
 H181 H 0.86946 1.08327 0.18053
 H182 H 0.90510 1.08048 0.09701
 H183 H 0.97948 0.93350 0.15071
 H184 H 0.93981 0.93383 0.23124
 C185 C 0.83242 0.99161 -0.35838
 C186 C 0.79610 0.95406 -0.36536
 C187 C 0.77170 0.95228 -0.41336
 C188 C 0.78429 0.98713 -0.45630
 C189 C 0.82022 1.02581 -0.44801
 C190 C 0.84456 1.02757 -0.39962
 C191 C 0.85457 0.99462 -0.30785
 C192 C 0.87180 0.99664 -0.26484
 C193 C 0.89196 0.99951 -0.21354
 C194 C 0.88895 0.95736 -0.17606
 C195 C 0.91044 0.96009 -0.12667
 C196 C 0.93303 1.00615 -0.11208
 C197 C 0.93927 1.04585 -0.15287
 C198 C 0.91770 1.04348 -0.20206
 H199 H 0.78547 0.92698 -0.33321
 H200 H 0.74159 0.92446 -0.41588
 H201 H 0.82870 1.05533 -0.47883
 H202 H 0.87190 1.05765 -0.39411
 H203 H 0.87112 0.92185 -0.18527
 H204 H 0.90970 0.92516 -0.10049
 H205 H 0.96664 1.07567 -0.15021
 H206 H 0.92373 1.07486 -0.23196
 C207 C 1.33384 1.18640 0.03955
 C208 C 1.34103 1.23938 0.02749
 C209 C 1.39061 1.25786 0.02350
 C210 C 1.43432 1.22360 0.03036
 C211 C 1.42648 1.17044 0.04535
 C212 C 1.37645 1.15198 0.04924
 C213 C 1.28263 1.16727 0.03918
 C214 C 1.24016 1.15017 0.03710
 C215 C 1.19137 1.12616 0.03314
 C216 C 1.14695 1.15411 0.01406
 C217 C 1.10139 1.12777 0.00596
 C218 C 1.09977 1.07262 0.01254
 C219 C 1.14378 1.04766 0.03847
 C220 C 1.18906 1.07317 0.04713
 H221 H 1.30830 1.26635 0.02027
 H222 H 1.39510 1.29921 0.01361
 H223 H 1.45840 1.14303 0.05440
 H224 H 1.37099 1.11080 0.05936
 H225 H 1.14721 1.19609 0.00613
 H226 H 1.06709 1.15167 -0.00234
 H227 H 1.14547 1.00721 0.04998
 H228 H 1.22270 1.05103 0.06386
 C229 C 0.62425 1.14484 0.02434
 C230 C 0.62348 1.18522 0.05563
 C231 C 0.57972 1.21696 0.05665
 C232 C 0.53412 1.20807 0.02779
 C233 C 0.53580 1.16724 -0.00432
 C234 C 0.58040 1.13564 -0.00575
 C235 C 0.67273 1.11821 0.01964
 C236 C 0.71602 1.10127 0.01697
 C237 C 0.76941 1.08671 0.01390
 C238 C 0.80128 1.12001 -0.01428
 C239 C 0.85372 1.10801 -0.01669
 C240 C 0.87736 1.06062 0.00686
 C241 C 0.84311 1.03013 0.03896
 C242 C 0.79072 1.04248 0.04206
 H243 H 0.65779 1.19385 0.07768
 H244 H 0.58324 1.24992 0.07868
 H245 H 0.50301 1.16078 -0.02938
 H246 H 0.58119 1.10532 -0.03144
 H247 H 0.78572 1.15652 -0.03375
 H248 H 0.87282 1.13968 -0.03522
 H249 H 0.85526 0.99375 0.06032
 H250 H 0.76682 1.01682 0.06584
 C251 C 1.34258 0.82265 -0.04282
 C252 C 1.38442 0.85382 -0.05620
 C253 C 1.43459 0.83201 -0.05355
 C254 C 1.44350 0.77897 -0.03576
 C255 C 1.40014 0.74784 -0.02612
 C256 C 1.35052 0.76951 -0.02901
 C257 C 1.29171 0.84492 -0.03996
 C258 C 1.24926 0.86320 -0.03537
 C259 C 1.19992 0.88723 -0.02851
 C260 C 1.19395 0.94065 -0.03913
 C261 C 1.14749 0.96530 -0.03027
 C262 C 1.10559 0.93901 -0.00767
 C263 C 1.11137 0.88389 -0.00272
 C264 C 1.15812 0.85840 -0.01130
 H265 H 1.37834 0.89505 -0.06796
 H266 H 1.46583 0.85679 -0.06524
 H267 H 1.40504 0.70652 -0.01428
 H268 H 1.31843 0.74491 -0.01915
 H269 H 1.22537 0.96366 -0.05425
 H270 H 1.14627 1.00586 -0.04033
 H271 H 1.07914 0.85933 0.00404
 H272 H 1.16114 0.81627 -0.00567
 C273 C 0.63513 0.84642 -0.02868
 C274 C 0.63450 0.80050 -0.05230
 C275 C 0.59051 0.77089 -0.05215
 C276 C 0.54459 0.78733 -0.03013
 C277 C 0.54672 0.83253 -0.00394
 C278 C 0.59130 0.86223 -0.00393
 C279 C 0.68278 0.87378 -0.02686
 C280 C 0.72494 0.89236 -0.02544
 C281 C 0.77725 0.90957 -0.02228
 C282 C 0.81401 0.87813 0.00643
 C283 C 0.86497 0.89343 0.01090
 C284 C 0.88250 0.94243 -0.01105
 C285 C 0.84362 0.97101 -0.04400
 C286 C 0.79252 0.95549 -0.04901
 H287 H 0.66872 0.78667 -0.06987
 H288 H 0.59326 0.73431 -0.06872
 H289 H 0.51410 0.84465 0.01700
 H290 H 0.59189 0.89682 0.01621
 H291 H 0.80341 0.84073 0.02529
 H292 H 0.88785 0.86308 0.03061
 H293 H 0.85099 1.00813 -0.06468
 H294 H 0.76485 0.98007 -0.07302
 C295 C 0.86257 0.47500 0.34715
 C296 C 0.89464 0.51767 0.34616
 C297 C 0.94077 0.51715 0.32014
 C298 C 0.95422 0.47510 0.29209
 C299 C 0.92541 0.42949 0.30036
 C300 C 0.87934 0.42999 0.32647
 C301 C 0.81125 0.47845 0.36615
 C302 C 0.76766 0.48113 0.38048
 C303 C 0.71543 0.48321 0.39735
 C304 C 0.68574 0.52931 0.39015
 C305 C 0.63594 0.53107 0.40890
 C306 C 0.61431 0.48730 0.43672
 C307 C 0.64442 0.44056 0.43967
 C308 C 0.69401 0.43857 0.42098
 H309 H 0.88295 0.55225 0.36345
 H310 H 0.96369 0.55164 0.31799
 H311 H 0.93696 0.39378 0.28524
 H312 H 0.85592 0.39579 0.32893
 H313 H 0.70112 0.56415 0.37037
 H314 H 0.61478 0.56747 0.40087
 H315 H 0.63197 0.40478 0.45869
 H316 H 0.71607 0.40209 0.42605
 C317 C 0.14684 0.48472 0.33702
 C318 C 0.12249 0.53134 0.31612
 C319 C 0.07321 0.53118 0.29310
 C320 C 0.04821 0.48384 0.28801
 C321 C 0.06985 0.43850 0.31663
 C322 C 0.11952 0.43859 0.33949
 C323 C 0.20043 0.48459 0.35343
 C324 C 0.24554 0.48619 0.36580
 C325 C 0.29913 0.48954 0.38104
 C326 C 0.32105 0.53796 0.38340
 C327 C 0.37097 0.54116 0.40459
 C328 C 0.39861 0.49669 0.42804
 C329 C 0.37942 0.44855 0.41533
 C330 C 0.32966 0.44468 0.39410
 H331 H 0.14225 0.56776 0.31614
 H332 H 0.05581 0.56830 0.27780
 H333 H 0.05002 0.40209 0.31763
 H334 H 0.13722 0.40242 0.35736
 H335 H 0.29924 0.57339 0.36995
 H336 H 0.38583 0.57898 0.40386
 H337 H 0.40257 0.41309 0.42270
 H338 H 0.31482 0.40668 0.38900
 C339 C 0.86822 0.52589 0.65805
 C340 C 0.87448 0.56169 0.69399
 C341 C 0.92176 0.56513 0.72014
 C342 C 0.96505 0.53355 0.71023
 C343 C 0.95814 0.49827 0.67274
 C344 C 0.91033 0.49468 0.64680
 C345 C 0.81732 0.51885 0.63648
 C346 C 0.77384 0.51346 0.62044
 C347 C 0.72166 0.50704 0.60201
 C348 C 0.68301 0.54384 0.60889
 C349 C 0.63314 0.53863 0.58826
 C350 C 0.61935 0.49574 0.56122
 C351 C 0.65995 0.45982 0.55502
 C352 C 0.70982 0.46490 0.57521
 H353 H 0.84196 0.58541 0.70374
 H354 H 0.92264 0.59059 0.75042
 H355 H 0.98915 0.47154 0.66543
 H356 H 0.90575 0.46615 0.61949
 H357 H 0.69185 0.57790 0.62813
 H358 H 0.60698 0.57157 0.58907
 H359 H 0.65506 0.42793 0.53332
 H360 H 0.73953 0.43632 0.56873
 C361 C 0.16504 0.53086 0.67934
 C362 C 0.12099 0.54188 0.64696
 C363 C 0.07185 0.54221 0.66759
 C364 C 0.06605 0.53027 0.72102
 C365 C 0.11131 0.52176 0.75302
 C366 C 0.15999 0.52154 0.73241
 C367 C 0.21541 0.52738 0.65837
 C368 C 0.25724 0.52325 0.64032
 C369 C 0.30552 0.51745 0.61578
 C370 C 0.30479 0.51600 0.56288
 C371 C 0.35042 0.50981 0.53771
 C372 C 0.39929 0.50496 0.56363
 C373 C 0.39861 0.50594 0.61788
 C374 C 0.35262 0.51216 0.64357
 H375 H 0.12462 0.54995 0.60571
 H376 H 0.03896 0.55200 0.64158
 H377 H 0.10864 0.51386 0.79439
 H378 H 0.19369 0.51340 0.75794
 H379 H 0.26857 0.51956 0.54064
 H380 H 0.34520 0.50891 0.49750
 H381 H 0.43353 0.50193 0.64153
 H382 H 0.35396 0.51275 0.68502
 C383 C 0.50908 0.67480 0.13031
 C384 C 0.47855 0.71972 0.11803
 C385 C 0.47549 0.74389 0.06785
 C386 C 0.50135 0.72273 0.02746
 C387 C 0.53533 0.67957 0.04128
 C388 C 0.53830 0.65512 0.09209
 C389 C 0.50984 0.65009 0.18251
 C390 C 0.50875 0.63075 0.22660
 C391 C 0.50758 0.60722 0.27913
 C392 C 0.47547 0.62712 0.31471
 C393 C 0.47489 0.60323 0.36553
 C394 C 0.50659 0.55903 0.38263
 C395 C 0.53815 0.54011 0.34499
 C396 C 0.53881 0.56364 0.29461
 H397 H 0.45698 0.73635 0.14744
 H398 H 0.45244 0.77957 0.06096
 H399 H 0.55935 0.66461 0.01284
 H400 H 0.56342 0.62109 0.10153
 H401 H 0.45112 0.66136 0.30338
 H402 H 0.45130 0.62174 0.39166
 H403 H 0.56157 0.50522 0.35282
 H404 H 0.56344 0.54714 0.26745
 C405 C 0.49261 0.66443 0.83730
 C406 C 0.49906 0.71801 0.83276
 C407 C 0.50084 0.74448 0.87644
 C408 C 0.49752 0.71804 0.92644
 C409 C 0.48887 0.66402 0.93043
 C410 C 0.48714 0.63736 0.88614
 C411 C 0.49216 0.63845 0.79107
 C412 C 0.49329 0.61957 0.75075
 C413 C 0.49663 0.59859 0.70192
 C414 C 0.46210 0.61478 0.66105
 C415 C 0.46620 0.59410 0.61379
 C416 C 0.50650 0.55837 0.60415
 C417 C 0.53856 0.54135 0.64802
 C418 C 0.53465 0.56149 0.69529
 H419 H 0.50266 0.73957 0.79523
 H420 H 0.50506 0.78627 0.87128
 H421 H 0.48208 0.64239 0.96709
 H422 H 0.48107 0.59584 0.88994
 H423 H 0.43064 0.64188 0.66618
 H424 H 0.43370 0.60262 0.58760
 H425 H 0.56760 0.51210 0.64740
 H426 H 0.56123 0.54745 0.72695
 C427 C 0.49823 0.33542 0.15752
 C428 C 0.49447 0.36301 0.10836
 C429 C 0.49038 0.33610 0.06450
 C430 C 0.49116 0.28112 0.06959
 C431 C 0.49239 0.25462 0.11986
 C432 C 0.49649 0.28137 0.16307
 C433 C 0.50222 0.36132 0.20329
 C434 C 0.50455 0.37970 0.24368
 C435 C 0.50526 0.39963 0.29283
 C436 C 0.46802 0.43608 0.30281
 C437 C 0.46766 0.45490 0.35076
 C438 C 0.50227 0.43595 0.39254
 C439 C 0.54197 0.40189 0.37887
 C440 C 0.54279 0.38291 0.33067
 H441 H 0.49437 0.40517 0.10397
 H442 H 0.48595 0.35853 0.02726
 H443 H 0.49135 0.21253 0.12549
 H444 H 0.49835 0.25973 0.20100
 H445 H 0.44026 0.45170 0.27279
 H446 H 0.44313 0.48860 0.35141
 H447 H 0.57332 0.38914 0.40451
 H448 H 0.57318 0.35563 0.32284
 C449 C 0.50254 0.32251 0.86748
 C450 C 0.53727 0.33355 0.90686
 C451 C 0.53186 0.31058 0.95738
 C452 C 0.49068 0.27740 0.96968
 C453 C 0.45750 0.26548 0.92846
 C454 C 0.46292 0.28840 0.87849
 C455 C 0.50733 0.34436 0.81508
 C456 C 0.50884 0.36129 0.77045
 C457 C 0.50910 0.38129 0.71706
 C458 C 0.55481 0.39722 0.69528
 C459 C 0.55444 0.42021 0.64454
 C460 C 0.50840 0.42943 0.61404
 C461 C 0.46331 0.40893 0.63615
 C462 C 0.46346 0.38589 0.68700
 H463 H 0.56889 0.35918 0.89842
 H464 H 0.56023 0.31817 0.98685
 H465 H 0.42790 0.23704 0.93381
 H466 H 0.43662 0.27854 0.84805
 H467 H 0.59075 0.39325 0.71794
 H468 H 0.59075 0.43353 0.63154
 H469 H 0.42687 0.41140 0.61499
 H470 H 0.42769 0.37252 0.70307
 C471 C 0.68882 0.83807 0.47285
 C472 C 0.65587 0.88229 0.46632
 C473 C 0.67506 0.93150 0.47273
 C474 C 0.72740 0.93678 0.48697
 C475 C 0.76005 0.89167 0.49157
 C476 C 0.74089 0.84299 0.48515
 C477 C 0.66957 0.78721 0.46815
 C478 C 0.65334 0.74435 0.46560
 C479 C 0.63127 0.69424 0.46415
 C480 C 0.58214 0.69127 0.44249
 C481 C 0.55677 0.64446 0.44815
 C482 C 0.57730 0.59992 0.47900
 C483 C 0.63086 0.60186 0.49090
 C484 C 0.65694 0.64880 0.48607
 H485 H 0.61543 0.87875 0.45604
 H486 H 0.64907 0.96501 0.46553
 H487 H 0.80085 0.89428 0.50063
 H488 H 0.76679 0.80911 0.48988
 H489 H 0.56235 0.72565 0.42300
 H490 H 0.51874 0.64613 0.43217
 H491 H 0.65426 0.56725 0.50069
 H492 H 0.69695 0.64945 0.49914
 C493 C 0.65837 0.12809 0.51102
 C494 C 0.69873 0.13075 0.47734
 C495 C 0.72724 0.08621 0.46978
 C496 C 0.71520 0.03680 0.49448
 C497 C 0.67460 0.03490 0.52923
 C498 C 0.64602 0.08011 0.53698
 C499 C 0.63197 0.17593 0.51904
 C500 C 0.61303 0.21851 0.52193
 C501 C 0.59279 0.27087 0.52107
 C502 C 0.61196 0.30424 0.55530
 C503 C 0.59470 0.35634 0.55118
 C504 C 0.55983 0.37777 0.51122
 C505 C 0.53843 0.34122 0.48001
 C506 C 0.55539 0.28935 0.48387
 H507 H 0.70933 0.16786 0.45787
 H508 H 0.76026 0.09156 0.44598
 H509 H 0.66600 -0.00134 0.55149
 H510 H 0.61525 0.07782 0.56395
 H511 H 0.64018 0.29004 0.58540
 H512 H 0.60887 0.37842 0.58041
 H513 H 0.50518 0.35121 0.45478
 H514 H 0.53849 0.26345 0.45826
 C515 C 0.33352 0.85603 0.50749
 C516 C 0.28291 0.85736 0.52345
 C517 C 0.25680 0.90484 0.52549
 C518 C 0.28093 0.95271 0.51283
 C519 C 0.33195 0.95081 0.49593
 C520 C 0.35812 0.90285 0.49381
 C521 C 0.35881 0.80620 0.50390
 C522 C 0.37825 0.76356 0.50152
 C523 C 0.40093 0.71225 0.49948
 C524 C 0.37093 0.67118 0.48651
 C525 C 0.39317 0.62122 0.48583
 C526 C 0.44660 0.61095 0.49458
 C527 C 0.47406 0.65236 0.51366
 C528 C 0.45241 0.70226 0.51437
 H529 H 0.26311 0.82151 0.53342
 H530 H 0.21695 0.90422 0.53623
 H531 H 0.35116 0.98605 0.48268
 H532 H 0.39711 0.90229 0.48048
 H533 H 0.32993 0.67734 0.47824
 H534 H 0.36709 0.59116 0.48042
 H535 H 0.51219 0.64595 0.53121
 H536 H 0.47559 0.73259 0.52816
 C537 C 0.32018 0.15256 0.52261
 C538 C 0.34180 0.10695 0.54955
 C539 C 0.32025 0.05859 0.54362
 C540 C 0.27737 0.05464 0.50950
 C541 C 0.25576 0.10150 0.48351
 C542 C 0.27731 0.14950 0.48946
 C543 C 0.34127 0.20278 0.52889
 C544 C 0.35900 0.24507 0.53258
 C545 C 0.38219 0.29495 0.53507
 C546 C 0.43275 0.29703 0.55354
 C547 C 0.45787 0.34422 0.54912
 C548 C 0.43571 0.39026 0.52142
 C549 C 0.38146 0.38870 0.51447
 C550 C 0.35547 0.34153 0.51826
 H551 H 0.37469 0.10886 0.57593
 H552 H 0.33626 0.02445 0.56685
 H553 H 0.22086 0.10157 0.45963
 H554 H 0.25971 0.18452 0.46892
 H555 H 0.45316 0.26211 0.57101
 H556 H 0.49495 0.34335 0.56849
 H557 H 0.35828 0.42299 0.50404
 H558 H 0.31483 0.34151 0.50742
   
