data_POSCAR
  _audit_creation_date              2014-09-24
  _audit_creation_method            'ToBaCCo'
  _symmetry_space_group_name_H-M    'P1'
  _symmetry_Int_Tables_number       1
  _symmetry_cell_setting            triclinic
  loop_
  _symmetry_equiv_pos_as_xyz
 x,y,z
_cell_length_a 49.5612
_cell_length_b 38.2300
_cell_length_c 34.9783
_cell_angle_alpha 90.154200
_cell_angle_beta 90.043300
_cell_angle_gamma 90.111200
loop_
  _atom_site_label
  _atom_site_type_symbol
  _atom_site_fract_x
  _atom_site_fract_y
  _atom_site_fract_z
C1 C 0.24956 0.26873 0.24927
 C2 C 0.24953 0.23306 0.24915
 C3 C 0.22786 0.21261 0.22997
 C4 C 0.27117 0.21265 0.26820
 C5 C 0.26936 0.28910 0.27226
 C6 C 0.22979 0.28909 0.22643
 C7 C 0.20057 0.21812 0.23906
 C8 C 0.18036 0.19896 0.22049
 C9 C 0.18726 0.17384 0.19291
 C10 C 0.21447 0.16782 0.18426
 C11 C 0.23464 0.18701 0.20280
 C12 C 0.26434 0.18702 0.29522
 C13 C 0.28450 0.16792 0.31367
 C14 C 0.31167 0.17405 0.30507
 C15 C 0.31863 0.19914 0.27768
 C16 C 0.29847 0.21824 0.25917
 C17 C 0.28549 0.31454 0.25449
 C18 C 0.30474 0.33312 0.27560
 C19 C 0.30791 0.32668 0.31473
 C20 C 0.29148 0.30191 0.33281
 C21 C 0.27219 0.28333 0.31174
 C22 C 0.22693 0.28333 0.18692
 C23 C 0.20770 0.30193 0.16597
 C24 C 0.19136 0.32671 0.18422
 C25 C 0.19455 0.33312 0.22339
 C26 C 0.21374 0.31452 0.24437
 H27 H 0.19496 0.23727 0.26048
 H28 H 0.15942 0.20384 0.22767
 H29 H 0.22017 0.14844 0.16308
 H30 H 0.25557 0.18224 0.19560
 H31 H 0.24340 0.18218 0.30239
 H32 H 0.27890 0.14852 0.33475
 H33 H 0.30413 0.23740 0.23787
 H34 H 0.28350 0.31951 0.22415
 H35 H 0.31730 0.35229 0.26135
 H36 H 0.29368 0.29684 0.36311
 H37 H 0.25960 0.26430 0.32612
 H38 H 0.23946 0.26431 0.17241
 H39 H 0.20549 0.29689 0.13564
 H40 H 0.18206 0.35229 0.23777
 H41 H 0.21575 0.31947 0.27474
 H42 H 0.33960 0.20396 0.27070
 C43 C 0.75003 0.23206 0.24979
 C44 C 0.74998 0.26773 0.24977
 C45 C 0.76993 0.28816 0.22727
 C46 C 0.72999 0.28809 0.27227
 C47 C 0.72847 0.21159 0.26901
 C48 C 0.77165 0.21169 0.23058
 C49 C 0.78593 0.31353 0.24555
 C50 C 0.80527 0.33226 0.22493
 C51 C 0.80865 0.32603 0.18577
 C52 C 0.79237 0.30130 0.16718
 C53 C 0.77299 0.28257 0.18777
 C54 C 0.72695 0.28269 0.31177
 C55 C 0.70754 0.30137 0.33236
 C56 C 0.69120 0.32587 0.31376
 C57 C 0.69456 0.33191 0.27460
 C58 C 0.71393 0.31323 0.25398
 C59 C 0.70113 0.21684 0.25994
 C60 C 0.68105 0.19787 0.27884
 C61 C 0.68809 0.17323 0.30665
 C62 C 0.71530 0.16739 0.31522
 C63 C 0.73539 0.18636 0.29640
 C64 C 0.76479 0.18625 0.20320
 C65 C 0.78494 0.16736 0.18440
 C66 C 0.81213 0.17351 0.19298
 C67 C 0.81911 0.19836 0.22078
 C68 C 0.79897 0.21725 0.23965
 H69 H 0.78376 0.31835 0.27592
 H70 H 0.81771 0.35140 0.23957
 H71 H 0.79473 0.29640 0.13685
 H72 H 0.76050 0.26358 0.17300
 H73 H 0.73949 0.26390 0.32655
 H74 H 0.70520 0.29662 0.36270
 H75 H 0.71608 0.31791 0.22360
 H76 H 0.69540 0.23570 0.23838
 H77 H 0.66005 0.20247 0.27185
 H78 H 0.72097 0.14832 0.33662
 H79 H 0.75635 0.18178 0.30360
 H80 H 0.74385 0.18143 0.19599
 H81 H 0.77932 0.14812 0.16301
 H82 H 0.84009 0.20319 0.22777
 H83 H 0.80465 0.23628 0.26121
 H84 H 0.68207 0.35087 0.25995
 C85 C 0.75034 0.77151 0.75061
 C86 C 0.75028 0.73583 0.75058
 C87 C 0.73014 0.71536 0.72832
 C88 C 0.77035 0.71543 0.77281
 C89 C 0.77214 0.79191 0.76956
 C90 C 0.72862 0.79186 0.73168
 C91 C 0.71433 0.69000 0.74676
 C92 C 0.69505 0.67092 0.72630
 C93 C 0.69151 0.67678 0.68714
 C94 C 0.70753 0.70159 0.66839
 C95 C 0.72687 0.72068 0.68883
 C96 C 0.77366 0.72089 0.81230
 C97 C 0.79295 0.70187 0.83269
 C98 C 0.80889 0.67699 0.81390
 C99 C 0.80531 0.67098 0.77473
 C100 C 0.78608 0.69000 0.75431
 C101 C 0.79938 0.78634 0.76022
 C102 C 0.81972 0.80494 0.77915
 C103 C 0.81303 0.82956 0.80733
 C104 C 0.78588 0.83580 0.81610
 C105 C 0.76555 0.81718 0.79720
 C106 C 0.73530 0.81704 0.70409
 C107 C 0.71502 0.83560 0.68523
 C108 C 0.68787 0.82939 0.69399
 C109 C 0.68108 0.80489 0.72209
 C110 C 0.70136 0.78633 0.74101
 H111 H 0.71668 0.68538 0.77712
 H112 H 0.68280 0.65172 0.74106
 H113 H 0.70505 0.70621 0.63805
 H114 H 0.73922 0.73964 0.67393
 H115 H 0.76137 0.73990 0.82724
 H116 H 0.79546 0.70660 0.86304
 H117 H 0.78371 0.68527 0.72394
 H118 H 0.80484 0.76743 0.73847
 H119 H 0.84063 0.79995 0.77194
 H120 H 0.78040 0.85483 0.83775
 H121 H 0.74466 0.82199 0.80463
 H122 H 0.75620 0.82181 0.69668
 H123 H 0.72050 0.85455 0.66360
 H124 H 0.66015 0.80000 0.72921
 H125 H 0.69581 0.76750 0.76272
 H126 H 0.81750 0.65174 0.75993
 C127 C 0.24949 0.73214 0.75092
 C128 C 0.24948 0.76781 0.75085
 C129 C 0.26935 0.78818 0.72816
 C130 C 0.22959 0.78824 0.77346
 C131 C 0.22779 0.71174 0.76995
 C132 C 0.27120 0.71173 0.73195
 C133 C 0.28530 0.81375 0.74620
 C134 C 0.30447 0.83255 0.72534
 C135 C 0.30774 0.82618 0.68619
 C136 C 0.29153 0.80122 0.66785
 C137 C 0.27232 0.78242 0.68867
 C138 C 0.22661 0.78279 0.81296
 C139 C 0.20741 0.80165 0.83373
 C140 C 0.19119 0.82642 0.81530
 C141 C 0.19447 0.83247 0.77609
 C142 C 0.21364 0.81359 0.75532
 C143 C 0.20051 0.71722 0.76073
 C144 C 0.18027 0.69837 0.77944
 C145 C 0.18711 0.67359 0.80725
 C146 C 0.21429 0.66753 0.81596
 C147 C 0.23452 0.68640 0.79730
 C148 C 0.26449 0.68615 0.70466
 C149 C 0.28475 0.66730 0.68603
 C150 C 0.31190 0.67363 0.69471
 C151 C 0.31873 0.69862 0.72244
 C152 C 0.29848 0.71746 0.74113
 H153 H 0.28320 0.81871 0.77655
 H154 H 0.31687 0.85186 0.73979
 H155 H 0.29381 0.79621 0.63752
 H156 H 0.25985 0.76329 0.67408
 H157 H 0.23908 0.76383 0.82761
 H158 H 0.20519 0.79681 0.86408
 H159 H 0.21575 0.81831 0.72495
 H160 H 0.19494 0.73618 0.73919
 H161 H 0.15933 0.70322 0.77226
 H162 H 0.21988 0.64838 0.83734
 H163 H 0.25543 0.68165 0.80462
 H164 H 0.24358 0.68120 0.69737
 H165 H 0.27924 0.64796 0.66470
 H166 H 0.33968 0.70360 0.72950
 H167 H 0.30405 0.73660 0.76262
 H168 H 0.18211 0.85161 0.76147
 O169 O 1.02758 -0.04586 -0.00114
 O170 O 0.97448 0.00186 0.05077
 O171 O 0.97500 -0.04569 -0.00278
 O172 O 1.02695 0.00191 0.05207
 O173 O 1.02759 0.04323 0.00794
 O174 O 0.97569 -0.00433 -0.04685
 O175 O 0.97513 0.04321 0.00668
 O176 O 1.02826 -0.00453 -0.04525
 Cu177 Cu 1.00092 -0.02614 0.02916
 Cu178 Cu 1.00173 0.02354 -0.02384
 C179 C 1.03691 -0.03323 -0.03192
 C180 C 0.96591 0.03064 0.03757
 C181 C 0.96658 -0.03304 -0.03408
 C182 C 1.03601 0.03065 0.03926
 O183 O 0.52665 0.45408 0.49914
 O184 O 0.47478 0.50271 0.55253
 O185 O 0.47402 0.45402 0.50028
 O186 O 0.52729 0.50299 0.55101
 O187 O 0.52667 0.54334 0.50582
 O188 O 0.47345 0.49441 0.45514
 O189 O 0.47416 0.54309 0.50738
 O190 O 0.52607 0.49444 0.45396
 Cu191 Cu 0.50073 0.47436 0.53027
 Cu192 Cu 0.50001 0.52287 0.47599
 C193 C 0.53519 0.46611 0.46762
 C194 C 0.46574 0.53113 0.53900
 C195 C 0.46472 0.46600 0.46916
 C196 C 0.53597 0.53143 0.53695
 O197 O -0.02659 0.54383 -0.00539
 O198 O 0.02652 0.49488 0.04492
 O199 O 0.02592 0.54362 -0.00698
 O200 O -0.02609 0.49489 0.04614
 O201 O -0.02680 0.45457 0.00069
 O202 O 0.02518 0.50328 -0.05241
 O203 O 0.02582 0.45453 -0.00050
 O204 O -0.02734 0.50352 -0.05085
 Cu205 Cu 0.00003 0.52335 0.02428
 Cu206 Cu -0.00084 0.47488 -0.03033
 C207 C -0.03593 0.53194 -0.03659
 C208 C 0.03516 0.46648 0.03070
 C209 C 0.03429 0.53169 -0.03869
 C210 C -0.03529 0.46657 0.03230
 O211 O 0.47287 1.04293 0.49201
 O212 O 0.52469 0.99578 0.54686
 O213 O 0.52533 1.04302 0.49326
 O214 O 0.47212 0.99551 0.54527
 O215 O 0.47271 0.95391 0.50122
 O216 O 0.52590 1.00140 0.44923
 O217 O 0.52529 0.95416 0.50284
 O218 O 0.47343 1.00135 0.44794
 Cu219 Cu 0.49871 1.02349 0.52382
 Cu220 Cu 0.49940 0.97348 0.47089
 C221 C 0.46443 1.03014 0.46071
 C222 C 0.53373 0.96702 0.53412
 C223 C 0.53452 1.03028 0.46239
 C224 C 0.46341 0.96671 0.53198
 C225 C 1.11649 0.10567 0.08095
 C226 C 1.11079 0.13641 0.10870
 C227 C 1.13049 0.12022 0.13757
 C228 C 1.13650 0.08978 0.11013
 C229 C 1.09352 0.08485 0.09971
 C230 C 1.11322 0.06866 0.12858
 C231 C 1.08749 0.11530 0.12715
 C232 C 1.10752 0.09942 0.15636
 C233 C 1.15120 0.13996 0.15834
 C234 C 1.16842 0.15622 0.17509
 C235 C 1.07299 0.06528 0.07838
 C236 C 1.05611 0.04936 0.06062
 H237 H 1.11996 0.10802 0.04971
 H238 H 1.11002 0.16448 0.10077
 H239 H 1.15689 0.07951 0.10337
 H240 H 1.11399 0.04058 0.13650
 H241 H 1.06711 0.12557 0.13390
 H242 H 1.10407 0.09708 0.18760
 C243 C 0.61804 0.60665 0.57315
 C244 C 0.61305 0.63773 0.60074
 C245 C 0.63319 0.62163 0.62905
 C246 C 0.63852 0.59085 0.60177
 C247 C 0.59531 0.58627 0.59304
 C248 C 0.61545 0.57017 0.62134
 C249 C 0.58999 0.61705 0.62031
 C250 C 0.61046 0.60125 0.64892
 C251 C 0.65417 0.64132 0.64935
 C252 C 0.67128 0.65750 0.66637
 C253 C 0.57416 0.56661 0.57305
 C254 C 0.55672 0.55050 0.55661
 H255 H 0.62092 0.60864 0.54176
 H256 H 0.61230 0.66574 0.59250
 H257 H 0.65871 0.58031 0.59437
 H258 H 0.61621 0.54217 0.62960
 H259 H 0.56980 0.62760 0.62773
 H260 H 0.60758 0.59926 0.68031
 C261 C -0.11813 0.39424 0.07079
 C262 C -0.11348 0.36256 0.09752
 C263 C -0.13253 0.37926 0.12697
 C264 C -0.13752 0.41064 0.10056
 C265 C -0.09440 0.41322 0.09015
 C266 C -0.11346 0.42992 0.11959
 C267 C -0.08942 0.38184 0.11656
 C268 C -0.10880 0.39825 0.14632
 C269 C -0.15368 0.36034 0.14763
 C270 C -0.17095 0.34474 0.16486
 C271 C -0.07320 0.43219 0.06963
 C272 C -0.05583 0.44784 0.05267
 H273 H -0.12172 0.39280 0.03949
 H274 H -0.11373 0.33466 0.08867
 H275 H -0.15752 0.42226 0.09420
 H276 H -0.11321 0.45782 0.12846
 H277 H -0.06941 0.37022 0.12292
 H278 H -0.10521 0.39969 0.17762
 C279 C 0.38031 0.89455 0.57041
 C280 C 0.38513 0.86302 0.59730
 C281 C 0.36605 0.87972 0.62671
 C282 C 0.36089 0.91094 0.60015
 C283 C 0.40398 0.91378 0.58961
 C284 C 0.38490 0.93047 0.61902
 C285 C 0.40912 0.88255 0.61617
 C286 C 0.38972 0.89895 0.64590
 C287 C 0.34505 0.86070 0.64759
 C288 C 0.32794 0.84500 0.66502
 C289 C 0.42516 0.93272 0.56902
 C290 C 0.44262 0.94826 0.55212
 H291 H 0.37667 0.89294 0.53913
 H292 H 0.38498 0.83508 0.58860
 H293 H 0.34082 0.92240 0.59380
 H294 H 0.38504 0.95842 0.62773
 H295 H 0.42919 0.87109 0.62253
 H296 H 0.39335 0.90056 0.67718
 C297 C -0.09500 0.59458 -0.13538
 C298 C -0.12517 0.58404 -0.13740
 C299 C -0.13294 0.62202 -0.12819
 C300 C -0.10309 0.63286 -0.12648
 C301 C -0.09514 0.58673 -0.09233
 C302 C -0.10291 0.62472 -0.08312
 C303 C -0.12498 0.57589 -0.09403
 C304 C -0.13308 0.61419 -0.08513
 C305 C -0.15387 0.64165 -0.14841
 C306 C -0.17094 0.65778 -0.16538
 C307 C -0.07403 0.56711 -0.07245
 C308 C -0.05664 0.55101 -0.05611
 H309 H -0.07911 0.58630 -0.15583
 H310 H -0.13456 0.56753 -0.15994
 H311 H -0.09432 0.65651 -0.14004
 H312 H -0.09351 0.64123 -0.06058
 H313 H -0.13375 0.55224 -0.08047
 H314 H -0.14898 0.62247 -0.06470
 C315 C 0.38230 1.10129 0.41853
 C316 C 0.38770 1.13446 0.39436
 C317 C 0.37018 1.11900 0.36223
 C318 C 0.36446 1.08613 0.38608
 C319 C 0.40704 1.08390 0.40017
 C320 C 0.38952 1.06843 0.36804
 C321 C 0.41277 1.11678 0.37632
 C322 C 0.39491 1.10162 0.34385
 C323 C 0.34952 1.13860 0.34142
 C324 C 0.33236 1.15476 0.32465
 C325 C 0.42753 1.06449 0.42154
 C326 C 0.44437 1.04870 0.43933
 H327 H 0.37734 1.10094 0.44947
 H328 H 0.38673 1.16183 0.40494
 H329 H 0.34436 1.07374 0.38986
 H330 H 0.39049 1.04106 0.35747
 H331 H 0.43286 1.12916 0.37255
 H332 H 0.39986 1.10199 0.31291
 C333 C 1.11888 -0.10738 -0.07016
 C334 C 1.11385 -0.13767 -0.09882
 C335 C 1.13406 -0.12075 -0.12648
 C336 C 1.13943 -0.09075 -0.09815
 C337 C 1.09622 -0.08647 -0.08944
 C338 C 1.11643 -0.06955 -0.11710
 C339 C 1.09086 -0.11647 -0.11778
 C340 C 1.11140 -0.09984 -0.14575
 C341 C 1.15501 -0.13988 -0.14731
 C342 C 1.17208 -0.15567 -0.16472
 C343 C 1.07508 -0.06741 -0.06890
 C344 C 1.05766 -0.05178 -0.05203
 H345 H 1.12172 -0.11026 -0.03884
 H346 H 1.11303 -0.16589 -0.09153
 H347 H 1.15964 -0.08040 -0.09030
 H348 H 1.11726 -0.04132 -0.12439
 H349 H 1.07066 -0.12683 -0.12563
 H350 H 1.10855 -0.09695 -0.17706
 C351 C 0.59312 0.40348 0.36684
 C352 C 0.62271 0.41600 0.36260
 C353 C 0.63235 0.37898 0.37264
 C354 C 0.60308 0.36616 0.37655
 C355 C 0.59424 0.41287 0.40954
 C356 C 0.60388 0.37584 0.41958
 C357 C 0.62350 0.42569 0.40562
 C358 C 0.63348 0.38836 0.41534
 C359 C 0.65350 0.36010 0.35193
 C360 C 0.67078 0.34453 0.33468
 C361 C 0.57304 0.43179 0.43012
 C362 C 0.55569 0.44742 0.44715
 H363 H 0.57629 0.40990 0.34712
 H364 H 0.63069 0.43231 0.33894
 H365 H 0.59493 0.34146 0.36438
 H366 H 0.59589 0.35953 0.44323
 H367 H 0.63166 0.45038 0.41780
 H368 H 0.65031 0.38194 0.43505
 C369 C 0.88423 -0.06793 -0.11447
 C370 C 0.88932 -0.09007 -0.15092
 C371 C 0.87115 -0.11897 -0.13452
 C372 C 0.86574 -0.09711 -0.09841
 C373 C 0.90856 -0.08558 -0.09537
 C374 C 0.89039 -0.11448 -0.07898
 C375 C 0.91398 -0.10743 -0.13148
 C376 C 0.89549 -0.13662 -0.11542
 C377 C 0.85020 -0.13758 -0.15606
 C378 C 0.83282 -0.15296 -0.17344
 C379 C 0.92932 -0.06693 -0.07348
 C380 C 0.94635 -0.05151 -0.05546
 H381 H 0.87982 -0.03947 -0.11384
 H382 H 0.88864 -0.08025 -0.18074
 H383 H 0.84567 -0.09307 -0.08506
 H384 H 0.89106 -0.12431 -0.04916
 H385 H 0.93405 -0.11148 -0.14482
 H386 H 0.89988 -0.16508 -0.11606
 C387 C 0.37925 0.42989 0.39646
 C388 C 0.38318 0.40973 0.35840
 C389 C 0.36671 0.37918 0.37480
 C390 C 0.36245 0.39904 0.41255
 C391 C 0.40497 0.41270 0.41213
 C392 C 0.38850 0.38214 0.42855
 C393 C 0.40922 0.39283 0.37439
 C394 C 0.39243 0.36198 0.39047
 C395 C 0.34553 0.36053 0.35374
 C396 C 0.32828 0.34515 0.33612
 C397 C 0.42631 0.43150 0.43271
 C398 C 0.44386 0.44714 0.44944
 H399 H 0.37407 0.45802 0.39915
 H400 H 0.38076 0.42087 0.32933
 H401 H 0.34298 0.40139 0.42800
 H402 H 0.39093 0.37100 0.45762
 H403 H 0.42868 0.39047 0.35892
 H404 H 0.39761 0.33385 0.38778
 C405 C 0.09982 0.62424 -0.09048
 C406 C 0.13000 0.61396 -0.09282
 C407 C 0.12930 0.62053 -0.13612
 C408 C 0.09945 0.63111 -0.13412
 C409 C 0.09209 0.58592 -0.09817
 C410 C 0.09139 0.59248 -0.14148
 C411 C 0.12195 0.57535 -0.10018
 C412 C 0.12157 0.58221 -0.14381
 C413 C 0.15014 0.63979 -0.15704
 C414 C 0.16743 0.65565 -0.17396
 C415 C 0.07143 0.56661 -0.07695
 C416 C 0.05447 0.55069 -0.05947
 H417 H 0.09066 0.64130 -0.06831
 H418 H 0.14611 0.62301 -0.07304
 H419 H 0.09043 0.65425 -0.14831
 H420 H 0.07528 0.58344 -0.16125
 H421 H 0.13098 0.55222 -0.08599
 H422 H 0.13075 0.56516 -0.16598
 C423 C 0.62318 1.07943 0.40847
 C424 C 0.62660 1.07883 0.36445
 C425 C 0.62964 1.11883 0.36488
 C426 C 0.62654 1.11973 0.40858
 C427 C 0.59263 1.08411 0.40310
 C428 C 0.59568 1.12411 0.40353
 C429 C 0.59573 1.08321 0.35940
 C430 C 0.59910 1.12351 0.35951
 C431 C 0.65033 1.13819 0.34378
 C432 C 0.66746 1.15415 0.32668
 C433 C 0.57200 1.06482 0.42438
 C434 C 0.55495 1.04901 0.44181
 H435 H 0.63285 1.06109 0.42884
 H436 H 0.63955 1.06043 0.34813
 H437 H 0.63944 1.13497 0.42856
 H438 H 0.58274 1.14251 0.41985
 H439 H 0.58283 1.06797 0.33942
 H440 H 0.58943 1.14185 0.33914
 C441 C 0.10384 0.42173 0.12830
 C442 C 0.10335 0.38219 0.13785
 C443 C 0.13280 0.37939 0.12448
 C444 C 0.13360 0.41864 0.11524
 C445 C 0.09470 0.41304 0.08737
 C446 C 0.12414 0.41024 0.07399
 C447 C 0.09389 0.37379 0.09661
 C448 C 0.12367 0.37069 0.08356
 C449 C 0.15389 0.36066 0.14543
 C450 C 0.17107 0.34523 0.16295
 C451 C 0.07345 0.43191 0.06692
 C452 C 0.05595 0.44759 0.05029
 H453 H 0.09545 0.44291 0.14648
 H454 H 0.09504 0.37046 0.16435
 H455 H 0.15017 0.43687 0.12313
 H456 H 0.13245 0.42199 0.04749
 H457 H 0.07733 0.35555 0.08873
 H458 H 0.13206 0.34949 0.06539
 C459 C 0.61403 0.89250 0.57759
 C460 C 0.63469 0.91005 0.60484
 C461 C 0.62886 0.88163 0.63470
 C462 C 0.60851 0.86380 0.60779
 C463 C 0.59159 0.91484 0.59550
 C464 C 0.58574 0.88642 0.62537
 C465 C 0.61194 0.93267 0.62242
 C466 C 0.60642 0.90396 0.65262
 C467 C 0.64973 0.86310 0.65627
 C468 C 0.66704 0.84779 0.67368
 C469 C 0.57089 0.93338 0.57358
 C470 C 0.55392 0.94869 0.55554
 H471 H 0.61693 0.88799 0.54650
 H472 H 0.65505 0.91957 0.59664
 H473 H 0.60732 0.83527 0.60202
 H474 H 0.56538 0.87690 0.63355
 H475 H 0.61312 0.96120 0.62819
 H476 H 0.60353 0.90846 0.68372
 C477 C 0.90786 0.12441 0.10257
 C478 C 0.87742 0.12517 0.09247
 C479 C 0.87071 0.11926 0.13485
 C480 C 0.90082 0.11881 0.14527
 C481 C 0.90778 0.08457 0.09671
 C482 C 0.90107 0.07866 0.13909
 C483 C 0.87766 0.08503 0.08629
 C484 C 0.87063 0.07942 0.12899
 C485 C 0.84999 0.13859 0.15591
 C486 C 0.83281 0.15450 0.17298
 C487 C 0.92844 0.06527 0.07548
 C488 C 0.94549 0.04943 0.05809
 H489 H 0.92339 0.14270 0.09146
 H490 H 0.86747 0.14451 0.07354
 H491 H 0.91011 0.13291 0.16976
 H492 H 0.91102 0.05931 0.15801
 H493 H 0.86837 0.07093 0.06180
 H494 H 0.85510 0.06113 0.14010
 C495 C 0.40798 0.62505 0.60468
 C496 C 0.37756 0.62570 0.59452
 C497 C 0.37081 0.61971 0.63686
 C498 C 0.40091 0.61936 0.64736
 C499 C 0.40800 0.58521 0.59876
 C500 C 0.40126 0.57921 0.64110
 C501 C 0.37790 0.58558 0.58827
 C502 C 0.37083 0.57988 0.63094
 C503 C 0.34998 0.63891 0.65786
 C504 C 0.33270 0.65472 0.67484
 C505 C 0.42865 0.56596 0.57744
 C506 C 0.44560 0.55008 0.55988
 H507 H 0.42349 0.64341 0.59364
 H508 H 0.36758 0.64504 0.57560
 H509 H 0.41014 0.63346 0.67190
 H510 H 0.41123 0.55988 0.66002
 H511 H 0.36866 0.57148 0.56374
 H512 H 0.35532 0.56151 0.64198
   
