data_POSCAR
  _audit_creation_date              2014-09-24
  _audit_creation_method            'ToBaCCo'
  _symmetry_space_group_name_H-M    'P1'
  _symmetry_Int_Tables_number       1
  _symmetry_cell_setting            triclinic
  loop_
  _symmetry_equiv_pos_as_xyz
 x,y,z
_cell_length_a 32.5092
_cell_length_b 32.3988
_cell_length_c 54.0088
_cell_angle_alpha 88.476600
_cell_angle_beta 90.704700
_cell_angle_gamma 85.141400
loop_
  _atom_site_label
  _atom_site_type_symbol
  _atom_site_fract_x
  _atom_site_fract_y
  _atom_site_fract_z
O1 O 0.03842 0.53312 1.02430
 O2 O 0.03964 0.45626 0.97509
 O3 O 0.04014 0.53680 0.97607
 O4 O 0.03863 0.45258 1.02302
 O5 O -0.02957 0.45994 1.02269
 O6 O -0.02799 0.54172 0.97400
 O7 O -0.02858 0.46142 0.97443
 O8 O -0.02973 0.54031 1.02218
 Cu9 Cu 0.04607 0.49417 0.99975
 Cu10 Cu -0.03581 0.50147 0.99819
 C11 C 0.00408 0.55001 1.03146
 C12 C 0.00567 0.44541 0.96662
 C13 C 0.00638 0.55347 0.96690
 C14 C 0.00432 0.44197 1.03087
 O15 O 0.45649 0.04132 0.52172
 O16 O 0.53287 0.03817 0.47171
 O17 O 0.45266 0.03813 0.47387
 O18 O 0.53676 0.04206 0.51971
 O19 O 0.54145 -0.02622 0.52377
 O20 O 0.46054 -0.03031 0.47564
 O21 O 0.54067 -0.03007 0.47564
 O22 O 0.46158 -0.02712 0.52380
 Cu23 Cu 0.49411 0.04680 0.49646
 Cu24 Cu 0.50171 -0.03530 0.49999
 C25 C 0.44566 0.00755 0.53102
 C26 C 0.55016 0.00347 0.46536
 C27 C 0.44238 0.00329 0.46688
 C28 C 0.55318 0.00864 0.52969
 C29 C 0.07686 -0.01741 0.26226
 H30 H 0.08067 -0.02183 0.24261
 C31 C 0.11155 -0.01694 0.27774
 H32 H 0.14207 -0.02125 0.26991
 C33 C 0.03240 -0.00532 0.29623
 H34 H 0.00152 -0.00019 0.30332
 C35 C 0.06620 -0.00359 0.31225
 H36 H 0.06097 0.00221 0.33166
 N37 N 0.03825 -0.01254 0.27177
 C38 C -0.03792 -0.06541 0.21562
 H39 H -0.06281 -0.04103 0.21427
 C40 C -0.03862 -0.09989 0.20074
 H41 H -0.06423 -0.10170 0.18792
 C42 C 0.02568 -0.09218 0.23400
 H43 H 0.05031 -0.08950 0.24728
 C44 C 0.02641 -0.12709 0.21930
 H45 H 0.05199 -0.15067 0.22130
 Zn46 Zn -0.00778 -0.01269 0.24994
 N47 N -0.00577 -0.06179 0.23152
 C48 C 0.00101 0.02870 0.20370
 N49 N -0.00652 0.03401 0.22818
 C50 C -0.01117 0.07251 0.23775
 C51 C -0.01032 0.10768 0.22230
 C52 C 0.00312 0.06298 0.18770
 C53 C -0.06186 -0.04280 0.28420
 C54 C -0.09686 -0.04329 0.29887
 C55 C -0.12256 0.02242 0.27996
 C56 C -0.08718 0.02146 0.26549
 N57 N -0.05729 -0.01042 0.26823
 H58 H 0.00595 -0.00212 0.19656
 H59 H -0.01587 0.07587 0.25742
 H60 H -0.01459 0.13812 0.23016
 H61 H 0.00902 0.05818 0.16825
 H62 H -0.03788 -0.06806 0.28575
 H63 H -0.09946 -0.06909 0.31175
 H64 H -0.14573 0.04834 0.27773
 H65 H -0.08376 0.04626 0.25214
 C66 C -0.00587 -0.13109 0.20223
 C67 C 0.10636 -0.00981 0.30306
 C68 C -0.12758 -0.01010 0.29709
 C69 C -0.00303 0.10307 0.19693
 C70 C -0.03304 0.07809 0.77260
 H71 H -0.06121 0.07187 0.76319
 C72 C -0.03319 0.11192 0.78811
 H73 H -0.06172 0.13110 0.79048
 C74 C 0.03827 0.06131 0.78062
 H75 H 0.06628 0.04200 0.77721
 C76 C 0.03956 0.09491 0.79619
 H77 H 0.06860 0.10060 0.80495
 N78 N 0.00227 0.05325 0.76936
 C79 C 0.07456 -0.02814 0.72482
 H80 H 0.06613 -0.05685 0.73318
 C81 C 0.10944 -0.02821 0.70998
 H82 H 0.12767 -0.05721 0.70718
 C83 C 0.06059 0.04431 0.71810
 H84 H 0.04118 0.07239 0.72133
 C85 C 0.09524 0.04568 0.70317
 H86 H 0.10223 0.07509 0.69497
 Zn87 Zn 0.00324 0.00734 0.74815
 N88 N 0.05089 0.00776 0.72848
 C89 C -0.04052 0.01872 0.70248
 N90 N -0.04465 0.01167 0.72724
 C91 C -0.08234 0.00708 0.73718
 C92 C -0.11755 0.00854 0.72198
 C93 C -0.07505 0.02141 0.68671
 C94 C 0.03602 -0.04933 0.78532
 C95 C 0.03838 -0.08501 0.80054
 C96 C -0.02060 -0.10739 0.77865
 C97 C -0.02152 -0.07153 0.76365
 N98 N 0.00597 -0.04284 0.76755
 H99 H -0.01044 0.02213 0.69483
 H100 H -0.08493 0.00156 0.75692
 H101 H -0.14719 0.00430 0.73017
 H102 H -0.07109 0.02683 0.66704
 H103 H 0.05815 -0.02674 0.78782
 H104 H 0.06221 -0.08918 0.81479
 H105 H -0.04311 -0.12952 0.77541
 H106 H -0.04421 -0.06688 0.74888
 C107 C 0.12012 0.00903 0.69884
 C108 C 0.00344 0.12066 0.80021
 C109 C 0.00942 -0.11432 0.79754
 C110 C -0.11408 0.01584 0.69641
 C111 C 0.00130 -0.35951 0.08533
 N112 N -0.03400 -0.36895 0.07392
 N113 N -0.03307 -0.39799 0.05690
 C114 C 0.00323 -0.41857 0.05057
 N115 N 0.03857 -0.40918 0.06198
 N116 N 0.03761 -0.38020 0.07909
 C117 C 0.00013 -0.32688 0.10374
 N118 N 0.03482 -0.31884 0.11635
 N119 N 0.03370 -0.28869 0.13271
 C120 C -0.00212 -0.26543 0.13699
 N121 N -0.03679 -0.27355 0.12440
 N122 N -0.03570 -0.30376 0.10812
 C123 C -0.00329 -0.23140 0.15446
 N124 N -0.03809 -0.20560 0.15667
 N125 N -0.03897 -0.17401 0.17198
 C126 C -0.00516 -0.16703 0.18578
 N127 N 0.02957 -0.19308 0.18367
 N128 N 0.03053 -0.22461 0.16827
 C129 C 0.00323 0.34398 0.08269
 N130 N 0.03784 0.35016 0.06978
 N131 N 0.03827 0.38174 0.05351
 C132 C 0.00398 0.40805 0.04937
 N133 N -0.03069 0.40185 0.06224
 N134 N -0.03099 0.37050 0.07871
 C135 C 0.00271 0.30870 0.10025
 N136 N -0.02745 0.30736 0.11736
 N137 N -0.02795 0.27506 0.13313
 C138 C 0.00142 0.24277 0.13218
 N139 N 0.03147 0.24407 0.11502
 N140 N 0.03223 0.27654 0.09943
 C141 C 0.00049 0.20674 0.14915
 N142 N 0.02241 0.17047 0.14415
 N143 N 0.02121 0.13752 0.15932
 C144 C -0.00160 0.13971 0.18021
 N145 N -0.02331 0.17613 0.18529
 N146 N -0.02247 0.20897 0.16997
 C147 C 0.35361 0.00954 0.58445
 N148 N 0.37302 -0.02690 0.57736
 N149 N 0.40261 -0.02745 0.56051
 C150 C 0.41394 0.00842 0.55014
 N151 N 0.39468 0.04490 0.55731
 N152 N 0.36503 0.04545 0.57416
 C153 C 0.32016 0.00991 0.60250
 N154 N 0.29916 0.04608 0.60873
 N155 N 0.26811 0.04619 0.62462
 C156 C 0.25698 0.01014 0.63487
 N157 N 0.27811 -0.02599 0.62873
 N158 N 0.30911 -0.02610 0.61282
 C159 C 0.22211 0.01006 0.65191
 N160 N 0.21123 -0.02604 0.66219
 N161 N 0.17907 -0.02630 0.67722
 C162 C 0.15646 0.00950 0.68254
 N163 N 0.16752 0.04561 0.67227
 N164 N 0.19972 0.04590 0.65726
 C165 C -0.35115 0.01341 0.58166
 N166 N -0.36280 0.04671 0.56663
 N167 N -0.39360 0.04530 0.55026
 C168 C -0.41356 0.01040 0.54813
 N169 N -0.40184 -0.02296 0.56311
 N170 N -0.37132 -0.02140 0.57967
 C171 C -0.31681 0.01483 0.59944
 N172 N -0.31090 -0.01393 0.61817
 N173 N -0.27940 -0.01286 0.63410
 C174 C -0.25245 0.01675 0.63172
 N175 N -0.25831 0.04544 0.61295
 N176 N -0.29004 0.04463 0.59718
 C177 C -0.21704 0.01726 0.64880
 N178 N -0.18460 0.03915 0.64284
 N179 N -0.15195 0.03880 0.65801
 C180 C -0.15069 0.01691 0.67985
 N181 N -0.18335 -0.00468 0.68590
 N182 N -0.21583 -0.00469 0.67060
 C183 C 0.00843 -0.35238 0.91460
 N184 N -0.02786 -0.36690 0.92139
 N185 N -0.02854 -0.39750 0.93832
 C186 C 0.00708 -0.41488 0.94900
 N187 N 0.04339 -0.40047 0.94208
 N188 N 0.04404 -0.36972 0.92525
 C189 C 0.00912 -0.31805 0.89634
 N190 N 0.04446 -0.29959 0.89217
 N191 N 0.04489 -0.26789 0.87598
 C192 C 0.01007 -0.25364 0.86325
 N193 N -0.02522 -0.27225 0.86731
 N194 N -0.02571 -0.30380 0.88360
 C195 C 0.01033 -0.21818 0.84575
 N196 N -0.02307 -0.20679 0.83105
 N197 N -0.02315 -0.17411 0.81554
 C198 C 0.01008 -0.15141 0.81421
 N199 N 0.04351 -0.16293 0.82894
 N200 N 0.04368 -0.19574 0.84435
 C201 C 0.00594 0.35281 0.91416
 N202 N -0.03012 0.37251 0.92163
 N203 N -0.03015 0.40228 0.93818
 C204 C 0.00588 0.41351 0.94782
 N205 N 0.04197 0.39397 0.94026
 N206 N 0.04199 0.36414 0.92374
 C207 C 0.00582 0.31922 0.89643
 N208 N 0.04164 0.29779 0.89004
 N209 N 0.04139 0.26671 0.87438
 C210 C 0.00531 0.25597 0.86452
 N211 N -0.03049 0.27751 0.87085
 N212 N -0.03024 0.30853 0.88654
 C213 C 0.00492 0.22126 0.84760
 N214 N -0.03105 0.21121 0.83728
 N215 N -0.03149 0.17940 0.82218
 C216 C 0.00400 0.15632 0.81682
 N217 N 0.03996 0.16650 0.82717
 N218 N 0.04043 0.19835 0.84225
 C219 C -0.36017 -0.00082 0.41237
 N220 N -0.38011 0.03594 0.41850
 N221 N -0.40939 0.03738 0.43559
 C222 C -0.41989 0.00207 0.44713
 N223 N -0.40008 -0.03469 0.44085
 N224 N -0.37073 -0.03610 0.42384
 C225 C -0.32703 -0.00244 0.39409
 N226 N -0.30441 -0.03870 0.38994
 N227 N -0.27362 -0.04012 0.37386
 C228 C -0.26441 -0.00536 0.36125
 N229 N -0.28718 0.03088 0.36529
 N230 N -0.31789 0.03233 0.38145
 C231 C -0.22971 -0.00683 0.34405
 N232 N -0.22190 0.02714 0.33022
 N233 N -0.18978 0.02596 0.31509
 C234 C -0.16412 -0.00916 0.31327
 N235 N -0.17211 -0.04313 0.32709
 N236 N -0.20431 -0.04203 0.34214
 C237 C 0.34487 -0.00033 0.41606
 N238 N 0.37159 -0.03435 0.42047
 N239 N 0.40278 -0.03326 0.43663
 C240 C 0.40862 0.00203 0.44873
 N241 N 0.38210 0.03611 0.44416
 N242 N 0.35068 0.03489 0.42822
 C243 C 0.30980 -0.00166 0.39881
 N244 N 0.27750 0.02772 0.39939
 N245 N 0.24529 0.02633 0.38405
 C246 C 0.24439 -0.00422 0.36739
 N247 N 0.27682 -0.03346 0.36668
 N248 N 0.30886 -0.03233 0.38222
 C249 C 0.20873 -0.00569 0.35061
 N250 N 0.21141 -0.02890 0.33004
 N251 N 0.17897 -0.03002 0.31482
 C252 C 0.14250 -0.00834 0.31976
 N253 N 0.13984 0.01470 0.34041
 N254 N 0.17240 0.01618 0.35547
   
