data_POSCAR
  _audit_creation_date              2014-09-24
  _audit_creation_method            'ToBaCCo'
  _symmetry_space_group_name_H-M    'P1'
  _symmetry_Int_Tables_number       1
  _symmetry_cell_setting            triclinic
  loop_
  _symmetry_equiv_pos_as_xyz
 x,y,z
_cell_length_a 50.0761
_cell_length_b 49.4403
_cell_length_c 49.2871
_cell_angle_alpha 90.086000
_cell_angle_beta 90.025100
_cell_angle_gamma 89.929800
loop_
  _atom_site_label
  _atom_site_type_symbol
  _atom_site_fract_x
  _atom_site_fract_y
  _atom_site_fract_z
N1 N 0.16814 1.22296 0.14894
 N2 N 0.14970 1.22257 0.16787
 C3 C 0.13294 1.24355 0.16404
 C4 C 0.14130 1.25804 0.14143
 C5 C 0.16378 1.24414 0.13242
 H6 H 0.11609 1.24797 0.17697
 H7 H 0.17633 1.24903 0.11531
 Cu8 Cu 0.14989 1.19510 0.19611
 Cu9 Cu 0.19693 1.19645 0.14747
 Cu10 Cu 0.19765 1.14735 0.19764
 N11 N 0.15051 1.16740 0.22413
 N12 N 0.16925 1.14882 0.22460
 C13 C 0.16533 1.13252 0.24605
 C14 C 0.14281 1.14130 0.26004
 C15 C 0.13398 1.16357 0.24532
 H16 H 0.17813 1.11565 0.25101
 H17 H 0.11691 1.17621 0.24968
 N18 N 0.22466 1.14925 0.16862
 N19 N 0.22439 1.16790 0.14952
 C20 C 0.24552 1.16404 0.13306
 C21 C 0.25990 1.14187 0.14221
 C22 C 0.24596 1.13304 0.16481
 H23 H 0.25010 1.17655 0.11575
 H24 H 0.25103 1.11620 0.17775
 H25 H 0.17644 1.16583 0.16677
 H26 H 0.19752 1.18821 0.18853
 N27 N 0.83128 0.77716 0.14817
 N28 N 0.84970 0.77751 0.16714
 C29 C 0.86642 0.75650 0.16326
 C30 C 0.85803 0.74212 0.14061
 C31 C 0.83563 0.75597 0.13160
 H32 H 0.88323 0.75188 0.17618
 H33 H 0.82318 0.75097 0.11441
 Cu34 Cu 0.84953 0.80501 0.19545
 Cu35 Cu 0.80250 0.80365 0.14678
 Cu36 Cu 0.80173 0.85280 0.19704
 N37 N 0.84890 0.83274 0.22352
 N38 N 0.83017 0.85134 0.22399
 C39 C 0.83409 0.86767 0.24547
 C40 C 0.85659 0.85890 0.25947
 C41 C 0.86541 0.83660 0.24475
 H42 H 0.82129 0.88456 0.25044
 H43 H 0.88248 0.82396 0.24910
 N44 N 0.77472 0.85084 0.16799
 N45 N 0.77504 0.83217 0.14886
 C46 C 0.75391 0.83595 0.13239
 C47 C 0.73946 0.85809 0.14154
 C48 C 0.75337 0.86698 0.16419
 H49 H 0.74936 0.82337 0.11507
 H50 H 0.74824 0.88384 0.17714
 H51 H 0.82299 0.83435 0.16623
 H52 H 0.80190 0.81198 0.18791
 N53 N 0.83223 1.22239 -0.14822
 N54 N 0.85253 1.21959 -0.16485
 C55 C 0.86943 1.24046 -0.16137
 C56 C 0.85922 1.25731 -0.14136
 C57 C 0.83554 1.24508 -0.13352
 H58 H 0.88783 1.24302 -0.17252
 H59 H 0.82155 1.25222 -0.11843
 Cu60 Cu 0.85505 1.18900 -0.18948
 Cu61 Cu 0.80295 1.19653 -0.14701
 Cu62 Cu 0.80252 1.14721 -0.19689
 N63 N 0.85201 1.16477 -0.22037
 N64 N 0.83158 1.14838 -0.22313
 C65 C 0.83459 1.13391 -0.24607
 C66 C 0.85827 1.14165 -0.25859
 C67 C 0.86870 1.16141 -0.24149
 H68 H 0.82043 1.11895 -0.25298
 H69 H 0.88702 1.17264 -0.24401
 N70 N 0.77501 1.14961 -0.16837
 N71 N 0.77518 1.16842 -0.14937
 C72 C 0.75394 1.16480 -0.13305
 C73 C 0.73958 1.14261 -0.14217
 C74 C 0.75365 1.13353 -0.16464
 H75 H 0.74937 1.17742 -0.11576
 H76 H 0.74876 1.11648 -0.17742
 H77 H 0.82216 1.16331 -0.16364
 H78 H 0.80662 1.18783 -0.18789
 N79 N 0.16886 0.77733 -0.14809
 N80 N 0.15030 0.77741 -0.16692
 C81 C 0.13378 0.75635 -0.16280
 C82 C 0.14242 0.74221 -0.14013
 C83 C 0.16478 0.75626 -0.13135
 H84 H 0.11687 0.75157 -0.17554
 H85 H 0.17741 0.75145 -0.11425
 Cu86 Cu 0.15000 0.80463 -0.19541
 Cu87 Cu 0.19739 0.80407 -0.14708
 Cu88 Cu 0.19733 0.85270 -0.19771
 N89 N 0.15015 0.83208 -0.22367
 N90 N 0.16872 0.85078 -0.22443
 C91 C 0.16449 0.86687 -0.24599
 C92 C 0.14194 0.85783 -0.25974
 C93 C 0.13342 0.83562 -0.24477
 H94 H 0.17710 0.88379 -0.25119
 H95 H 0.11643 0.82284 -0.24889
 N96 N 0.22457 0.85124 -0.16885
 N97 N 0.22456 0.83278 -0.14956
 C98 C 0.24576 0.83690 -0.13327
 C99 C 0.25993 0.85904 -0.14272
 C100 C 0.24578 0.86758 -0.16533
 H101 H 0.25053 0.82460 -0.11585
 H102 H 0.25069 0.88430 -0.17848
 H103 H 0.17647 0.83443 -0.16660
 H104 H 0.19761 0.81199 -0.18827
 Si105 Si 0.49990 1.00051 -0.00055
 Si106 Si 0.00070 0.49947 1.00007
 Si107 Si 0.99951 0.00030 0.50017
 C108 C 0.12970 0.31763 1.09636
 C109 C 0.10707 0.32914 1.10827
 C110 C 0.09570 0.31708 1.13114
 C111 C 0.10693 0.29361 1.14211
 C112 C 0.12984 0.28170 1.13035
 C113 C 0.14101 0.29417 1.10723
 C114 C 0.09525 0.35302 1.09667
 C115 C 0.08531 0.37278 1.08651
 C116 C 0.07351 0.39552 1.07404
 C117 C 0.06318 0.41447 1.06280
 C118 C 0.05042 0.43636 1.04858
 C119 C 0.03479 0.45526 1.06265
 C120 C 0.02069 0.47514 1.04839
 C121 C 0.02222 0.47625 1.01999
 C122 C 0.03832 0.45762 1.00607
 C123 C 0.05239 0.43780 1.02030
 H124 H 0.13860 0.32675 1.07855
 H125 H 0.07808 0.32578 1.14047
 H126 H 0.09744 0.28500 1.15978
 H127 H 0.15848 0.28601 1.09729
 H128 H 0.03297 0.45420 1.08452
 H129 H 0.00801 0.48898 1.05951
 H130 H 0.03941 0.45796 0.98412
 H131 H 0.06426 0.42317 1.00919
 C132 C -0.13058 0.68060 1.09564
 C133 C -0.10731 0.66972 1.10694
 C134 C -0.09534 0.68245 1.12917
 C135 C -0.10655 0.70596 1.14011
 C136 C -0.12998 0.71714 1.12894
 C137 C -0.14185 0.70411 1.10653
 C138 C -0.09542 0.64579 1.09545
 C139 C -0.08513 0.62598 1.08569
 C140 C -0.07261 0.60319 1.07401
 C141 C -0.06142 0.58419 1.06370
 C142 C -0.04733 0.56225 1.05085
 C143 C -0.01950 0.56079 1.05295
 C144 C -0.00540 0.54102 1.03862
 C145 C -0.01901 0.52247 1.02212
 C146 C -0.04696 0.52355 1.02051
 C147 C -0.06108 0.54338 1.03488
 H148 H -0.13998 0.67094 1.07836
 H149 H -0.07725 0.67425 1.13802
 H150 H -0.09670 0.71530 1.15723
 H151 H -0.15985 0.71194 1.09730
 H152 H -0.00863 0.57540 1.06508
 H153 H 0.01620 0.54070 1.03978
 H154 H -0.05783 0.50976 1.00754
 H155 H -0.08261 0.54445 1.03294
 C156 C -0.09586 0.31871 0.86691
 C157 C -0.10632 0.33049 0.89045
 C158 C -0.12810 0.31851 0.90346
 C159 C -0.13937 0.29481 0.89306
 C160 C -0.12897 0.28268 0.86945
 C161 C -0.10710 0.29498 0.85645
 C162 C -0.09433 0.35442 0.90178
 C163 C -0.08426 0.37415 0.91188
 C164 C -0.07233 0.39677 0.92446
 C165 C -0.06192 0.41557 0.93590
 C166 C -0.04910 0.43721 0.95047
 C167 C -0.05114 0.43833 0.97877
 C168 C -0.03703 0.45789 0.99334
 C169 C -0.02084 0.47659 0.97975
 C170 C -0.01922 0.47580 0.95134
 C171 C -0.03335 0.45618 0.93674
 H172 H -0.07895 0.32779 0.85670
 H173 H -0.13627 0.32737 0.92179
 H174 H -0.15599 0.28592 0.90381
 H175 H -0.09863 0.28642 0.83818
 H176 H -0.06309 0.42364 0.98962
 H177 H -0.03819 0.45797 1.01529
 H178 H -0.00646 0.48969 0.94047
 H179 H -0.03146 0.45537 0.91485
 C180 C 0.13096 0.68168 0.90596
 C181 C 0.10845 0.66989 0.89405
 C182 C 0.09698 0.68170 0.87106
 C183 C 0.10798 0.70518 0.85997
 C184 C 0.13067 0.71727 0.87173
 C185 C 0.14201 0.70518 0.89491
 C186 C 0.09677 0.64598 0.90566
 C187 C 0.08661 0.62618 0.91545
 C188 C 0.07417 0.60339 0.92710
 C189 C 0.06299 0.58440 0.93735
 C190 C 0.04887 0.56248 0.95006
 C191 C 0.02103 0.56118 0.94796
 C192 C 0.00689 0.54138 0.96210
 C193 C 0.02047 0.52263 0.97838
 C194 C 0.04842 0.52358 0.98001
 C195 C 0.06258 0.54345 0.96585
 H196 H 0.13995 0.67277 0.92384
 H197 H 0.07948 0.67279 0.86173
 H198 H 0.09857 0.71374 0.84220
 H199 H 0.15939 0.71376 0.90466
 H200 H 0.01019 0.57591 0.93597
 H201 H -0.01471 0.54116 0.96093
 H202 H 0.05926 0.50964 0.99284
 H203 H 0.08411 0.54440 0.96779
 C204 C 1.09729 0.13048 0.31913
 C205 C 1.10894 0.10783 0.33128
 C206 C 1.13185 0.09632 0.31990
 C207 C 1.14310 0.10735 0.29645
 C208 C 1.13157 0.13020 0.28383
 C209 C 1.10845 0.14160 0.29567
 C210 C 1.09705 0.09598 0.35503
 C211 C 1.08690 0.08571 0.37464
 C212 C 1.07473 0.07319 0.39717
 C213 C 1.06400 0.06199 0.41594
 C214 C 1.05070 0.04794 0.43761
 C215 C 1.05230 0.01971 0.43908
 C216 C 1.03771 0.00571 0.45868
 C217 C 1.02150 0.01981 0.47709
 C218 C 1.02029 0.04814 0.47592
 C219 C 1.03489 0.06216 0.45626
 H220 H 1.07946 0.13949 0.32772
 H221 H 1.14098 0.07869 0.32909
 H222 H 1.16077 0.09772 0.28837
 H223 H 1.09870 0.15906 0.28698
 H224 H 1.06432 0.00849 0.42465
 H225 H 1.03856 -0.01618 0.45905
 H226 H 1.00750 0.05940 0.48955
 H227 H 1.03333 0.08399 0.45517
 C228 C 1.13009 -0.09771 0.68016
 C229 C 1.10720 -0.10945 0.66905
 C230 C 1.09587 -0.13211 0.68142
 C231 C 1.10732 -0.14299 0.70487
 C232 C 1.13041 -0.13133 0.71646
 C233 C 1.14163 -0.10850 0.70360
 C234 C 1.09495 -0.09784 0.64533
 C235 C 1.08445 -0.08783 0.62575
 C236 C 1.07180 -0.07572 0.60324
 C237 C 1.06060 -0.06495 0.58449
 C238 C 1.04666 -0.05153 0.56279
 C239 C 1.01879 -0.05313 0.56131
 C240 C 1.00493 -0.03836 0.54168
 C241 C 1.01881 -0.02197 0.52329
 C242 C 1.04677 -0.02079 0.52446
 C243 C 1.06065 -0.03556 0.54415
 H244 H 1.13899 -0.08008 0.67078
 H245 H 1.07807 -0.14133 0.67302
 H246 H 1.09782 -0.16047 0.71375
 H247 H 1.15928 -0.09868 0.71148
 H248 H 1.00774 -0.06525 0.57573
 H249 H 0.98332 -0.03921 0.54128
 H250 H 1.05786 -0.00788 0.51083
 H251 H 1.08220 -0.03400 0.54526
 C252 C 0.90205 -0.13016 0.31866
 C253 C 0.89043 -0.10745 0.33076
 C254 C 0.86755 -0.09595 0.31932
 C255 C 0.85631 -0.10705 0.29587
 C256 C 0.86782 -0.12997 0.28330
 C257 C 0.89090 -0.14136 0.29519
 C258 C 0.90230 -0.09554 0.35453
 C259 C 0.91243 -0.08522 0.37417
 C260 C 0.92456 -0.07267 0.39676
 C261 C 0.93525 -0.06146 0.41558
 C262 C 0.94849 -0.04741 0.43735
 C263 C 0.94685 -0.01919 0.43890
 C264 C 0.96138 -0.00517 0.45859
 C265 C 0.97757 -0.01925 0.47701
 C266 C 0.97879 -0.04758 0.47577
 C267 C 0.96425 -0.06162 0.45601
 H268 H 0.91988 -0.13916 0.32728
 H269 H 0.85845 -0.07825 0.32846
 H270 H 0.83868 -0.09740 0.28774
 H271 H 0.90063 -0.15887 0.28652
 H272 H 0.93484 -0.00797 0.42448
 H273 H 0.96050 0.01671 0.45903
 H274 H 0.99155 -0.05883 0.48942
 H275 H 0.96582 -0.08345 0.45487
 C276 C 0.86760 0.10062 0.67835
 C277 C 0.89194 0.11063 0.66885
 C278 C 0.90492 0.13121 0.68314
 C279 C 0.89376 0.14163 0.70696
 C280 C 0.86931 0.13157 0.71703
 C281 C 0.85634 0.11097 0.70216
 C282 C 0.90403 0.09918 0.64496
 C283 C 0.91448 0.08922 0.62531
 C284 C 0.92714 0.07706 0.60280
 C285 C 0.93837 0.06621 0.58409
 C286 C 0.95233 0.05261 0.56249
 C287 C 0.98020 0.05410 0.56112
 C288 C 0.99408 0.03913 0.54162
 C289 C 0.98020 0.02266 0.52323
 C290 C 0.95223 0.02156 0.52432
 C291 C 0.93834 0.03653 0.54388
 H292 H 0.85741 0.08460 0.66748
 H293 H 0.92383 0.13908 0.67598
 H294 H 0.90459 0.15743 0.71737
 H295 H 0.83758 0.10248 0.70879
 H296 H 0.99125 0.06630 0.57553
 H297 H 1.01569 0.03991 0.54130
 H298 H 0.94114 0.00858 0.51071
 H299 H 0.91678 0.03504 0.54493
 C300 C 0.31954 1.09563 0.13050
 C301 C 0.33196 1.10812 0.10843
 C302 C 0.32095 1.13168 0.09741
 C303 C 0.29759 1.14271 0.10838
 C304 C 0.28484 1.13028 0.13057
 C305 C 0.29619 1.10660 0.14151
 C306 C 0.35561 1.09635 0.09672
 C307 C 0.37515 1.08609 0.08676
 C308 C 0.39760 1.07357 0.07480
 C309 C 0.41630 1.06237 0.06422
 C310 C 0.43789 1.04832 0.05104
 C311 C 0.45628 1.06249 0.03506
 C312 C 0.47583 1.04844 0.02042
 C313 C 0.47711 1.02012 0.02174
 C314 C 0.45899 1.00608 0.03819
 C315 C 0.43952 1.02012 0.05283
 H316 H 0.32782 1.07730 0.13913
 H317 H 0.33036 1.14148 0.08025
 H318 H 0.28965 1.16095 0.09937
 H319 H 0.28707 1.09630 0.15846
 H320 H 0.45507 1.08430 0.03336
 H321 H 0.48925 1.05965 0.00745
 H322 H 0.45947 0.98420 0.03914
 H323 H 0.42530 1.00892 0.06497
 C324 C 0.67912 1.13237 -0.09669
 C325 C 0.66771 1.10915 -0.10801
 C326 C 0.67965 1.09690 -0.13055
 C327 C 0.70294 1.10779 -0.14171
 C328 C 0.71469 1.13113 -0.13045
 C329 C 0.70240 1.14331 -0.10780
 C330 C 0.64412 1.09754 -0.09610
 C331 C 0.62464 1.08761 -0.08581
 C332 C 0.60223 1.07565 -0.07330
 C333 C 0.58356 1.06507 -0.06213
 C334 C 0.56198 1.05189 -0.04814
 C335 C 0.54360 1.03599 -0.06247
 C336 C 0.52404 1.02141 -0.04848
 C337 C 0.52273 1.02270 -0.02008
 C338 C 0.54084 1.03906 -0.00588
 C339 C 0.56034 1.05364 -0.01985
 H340 H 0.67009 1.14197 -0.07917
 H341 H 0.67104 1.07884 -0.13942
 H342 H 0.71167 1.09773 -0.15905
 H343 H 0.71066 1.16125 -0.09850
 H344 H 0.54483 1.03432 -0.08436
 H345 H 0.51062 1.00852 -0.05982
 H346 H 0.54033 1.04000 0.01607
 H347 H 0.57455 1.06572 -0.00853
 C348 C 0.31913 0.90581 -0.13137
 C349 C 0.33201 0.89323 -0.10959
 C350 C 0.32145 0.86945 -0.09867
 C351 C 0.29808 0.85829 -0.10944
 C352 C 0.28486 0.87081 -0.13133
 C353 C 0.29576 0.89472 -0.14218
 C354 C 0.35567 0.90509 -0.09804
 C355 C 0.37521 0.91534 -0.08813
 C356 C 0.39766 0.92781 -0.07616
 C357 C 0.41635 0.93895 -0.06555
 C358 C 0.43793 0.95293 -0.05231
 C359 C 0.45630 0.93869 -0.03631
 C360 C 0.47583 0.95268 -0.02162
 C361 C 0.47713 0.98100 -0.02292
 C362 C 0.45904 0.99510 -0.03939
 C363 C 0.43957 0.98113 -0.05407
 H364 H 0.32708 0.92431 -0.13992
 H365 H 0.33121 0.85958 -0.08174
 H366 H 0.29052 0.83987 -0.10052
 H367 H 0.28625 0.90508 -0.15890
 H368 H 0.45507 0.91688 -0.03462
 H369 H 0.48923 0.94142 -0.00863
 H370 H 0.45953 1.01698 -0.04033
 H371 H 0.42536 0.99237 -0.06623
 C372 C 0.67879 0.86814 0.09622
 C373 C 0.66739 0.89144 0.10743
 C374 C 0.67941 0.90381 0.12986
 C375 C 0.70276 0.89297 0.14101
 C376 C 0.71450 0.86955 0.12985
 C377 C 0.70213 0.85725 0.10732
 C378 C 0.64377 0.90302 0.09549
 C379 C 0.62426 0.91293 0.08515
 C380 C 0.60185 0.92488 0.07257
 C381 C 0.58320 0.93549 0.06134
 C382 C 0.56167 0.94874 0.04727
 C383 C 0.54331 0.96476 0.06153
 C384 C 0.52385 0.97948 0.04746
 C385 C 0.52263 0.97819 0.01905
 C386 C 0.54072 0.96172 0.00492
 C387 C 0.56011 0.94701 0.01897
 H388 H 0.66970 0.85844 0.07879
 H389 H 0.67081 0.92193 0.13864
 H390 H 0.71157 0.90314 0.15825
 H391 H 0.71037 0.83923 0.09811
 H392 H 0.54448 0.96643 0.08341
 H393 H 0.51046 0.99246 0.05874
 H394 H 0.54029 0.96080 -0.01703
 H395 H 0.57432 0.93484 0.00771
   
