data_POSCAR
  _audit_creation_date              2014-09-24
  _audit_creation_method            'ToBaCCo'
  _symmetry_space_group_name_H-M    'P1'
  _symmetry_Int_Tables_number       1
  _symmetry_cell_setting            triclinic
  loop_
  _symmetry_equiv_pos_as_xyz
 x,y,z
_cell_length_a 41.7100
_cell_length_b 41.7049
_cell_length_c 41.9559
_cell_angle_alpha 89.961400
_cell_angle_beta 90.082600
_cell_angle_gamma 89.888800
loop_
  _atom_site_label
  _atom_site_type_symbol
  _atom_site_fract_x
  _atom_site_fract_y
  _atom_site_fract_z
C1 C 0.19533 0.15531 0.19494
 C2 C 0.18150 0.14183 0.22230
 C3 C 0.15433 0.15584 0.23691
 C4 C 0.14145 0.18405 0.22318
 C5 C 0.15492 0.19759 0.19567
 C6 C 0.18210 0.18332 0.18164
 C7 C 0.22229 0.14108 0.18079
 C8 C 0.23659 0.15437 0.15325
 C9 C 0.22298 0.18263 0.14034
 C10 C 0.19588 0.19693 0.15415
 C11 C 0.18197 0.22433 0.14044
 C12 C 0.15442 0.23831 0.15384
 C13 C 0.14122 0.22494 0.18164
 H14 H 0.19290 0.12096 0.23271
 H15 H 0.11991 0.19485 0.23277
 H16 H 0.23266 0.12021 0.19219
 H17 H 0.23232 0.19291 0.11856
 H18 H 0.19211 0.23433 0.11884
 H19 H 0.12027 0.23589 0.19238
 C20 C -0.19361 0.84660 0.19835
 C21 C -0.17893 0.86064 0.22501
 C22 C -0.15131 0.84693 0.23911
 C23 C -0.13879 0.81852 0.22556
 C24 C -0.15311 0.80442 0.19875
 C25 C -0.18078 0.81835 0.18525
 C26 C -0.22104 0.86051 0.18471
 C27 C -0.23621 0.84667 0.15789
 C28 C -0.22303 0.81813 0.14520
 C29 C -0.19545 0.80414 0.15849
 C30 C -0.18192 0.77647 0.14498
 C31 C -0.15387 0.76286 0.15784
 C32 C -0.13980 0.77684 0.18492
 H33 H -0.19004 0.88168 0.23532
 H34 H -0.11691 0.80794 0.23472
 H35 H -0.23107 0.88160 0.19598
 H36 H -0.23308 0.80740 0.12395
 H37 H -0.19275 0.76598 0.12393
 H38 H -0.11847 0.76616 0.19526
 C39 C -0.19607 0.15053 -0.19499
 C40 C -0.18183 0.13656 -0.22190
 C41 C -0.15487 0.15065 -0.23625
 C42 C -0.14215 0.17902 -0.22334
 C43 C -0.15608 0.19319 -0.19639
 C44 C -0.18329 0.17903 -0.18228
 C45 C -0.22286 0.13633 -0.18064
 C46 C -0.23758 0.15018 -0.15359
 C47 C -0.22455 0.17897 -0.14137
 C48 C -0.19755 0.19323 -0.15533
 C49 C -0.18421 0.22120 -0.14232
 C50 C -0.15674 0.23514 -0.15587
 C51 C -0.14299 0.22110 -0.18310
 H52 H -0.19190 0.11483 -0.23190
 H53 H -0.12104 0.18972 -0.23395
 H54 H -0.23281 0.11504 -0.19156
 H55 H -0.23426 0.18972 -0.11998
 H56 H -0.19473 0.23169 -0.12114
 H57 H -0.12210 0.23197 -0.19397
 C58 C 0.19660 0.84534 -0.19504
 C59 C 0.18378 0.86003 -0.22232
 C60 C 0.15634 0.84751 -0.23772
 C61 C 0.14211 0.81961 -0.22483
 C62 C 0.15450 0.80491 -0.19735
 C63 C 0.18189 0.81775 -0.18243
 C64 C 0.22391 0.85797 -0.18009
 C65 C 0.23659 0.84354 -0.15251
 C66 C 0.22169 0.81607 -0.14000
 C67 C 0.19447 0.80309 -0.15477
 C68 C 0.17946 0.77584 -0.14215
 C69 C 0.15189 0.76312 -0.15667
 C70 C 0.13962 0.77776 -0.18432
 H71 H 0.19620 0.88057 -0.23208
 H72 H 0.12035 0.80993 -0.23508
 H73 H 0.23497 0.87945 -0.18958
 H74 H 0.23148 0.80464 -0.11891
 H75 H 0.18885 0.76491 -0.12061
 H76 H 0.11857 0.76782 -0.19582
 C77 C 0.15541 1.19637 0.80451
 C78 C 0.14194 1.18234 0.77722
 C79 C 0.15603 1.15514 0.76274
 C80 C 0.18429 1.14244 0.77652
 C81 C 0.19782 1.15610 0.80396
 C82 C 0.18347 1.18331 0.81787
 C83 C 0.14110 1.22336 0.81856
 C84 C 0.15436 1.23783 0.84605
 C85 C 0.18268 1.22439 0.85900
 C86 C 0.19706 1.19728 0.84530
 C87 C 0.22450 1.18350 0.85908
 C88 C 0.23854 1.15591 0.84580
 C89 C 0.22520 1.14255 0.81804
 H90 H 0.12101 1.19360 0.76677
 H91 H 0.19516 1.12088 0.76704
 H92 H 0.12018 1.23360 0.80711
 H93 H 0.19294 1.23386 0.88075
 H94 H 0.23448 1.19377 0.88064
 H95 H 0.23620 1.12157 0.80740
 C96 C 0.84634 0.80691 0.80150
 C97 C 0.86010 0.82138 0.77460
 C98 C 0.84737 0.85000 0.76159
 C99 C 0.82014 0.86363 0.77640
 C100 C 0.80595 0.84918 0.80305
 C101 C 0.81901 0.82064 0.81559
 C102 C 0.85982 0.77902 0.81464
 C103 C 0.84626 0.76410 0.84172
 C104 C 0.81828 0.77785 0.85502
 C105 C 0.80482 0.80596 0.84232
 C106 C 0.77767 0.81996 0.85638
 C107 C 0.76459 0.84853 0.84413
 C108 C 0.77884 0.86290 0.81737
 H109 H 0.88174 0.81089 0.76488
 H110 H 0.80889 0.88488 0.76659
 H111 H 0.88034 0.76846 0.80283
 H112 H 0.80769 0.76787 0.87636
 H113 H 0.76707 0.80897 0.87728
 H114 H 0.76864 0.88471 0.80755
 C115 C 0.15165 0.80344 1.19480
 C116 C 0.13835 0.81781 1.22200
 C117 C 0.15253 0.84511 1.23564
 C118 C 0.18039 0.85794 1.22183
 C119 C 0.19402 0.84376 1.19474
 C120 C 0.17971 0.81630 1.18126
 C121 C 0.13714 0.77655 1.18090
 C122 C 0.15031 0.76177 1.15354
 C123 C 0.17880 0.77475 1.14063
 C124 C 0.19333 0.80186 1.15410
 C125 C 0.22098 0.81517 1.14039
 C126 C 0.23511 0.84281 1.15343
 C127 C 0.22159 0.85680 1.18077
 H128 H 0.11656 0.80812 1.23221
 H129 H 0.19161 0.87885 1.23234
 H130 H 0.11615 0.76661 1.19235
 H131 H 0.18905 0.76494 1.11904
 H132 H 0.23107 0.80447 1.11910
 H133 H 0.23260 0.87785 1.19122
 C134 C 0.84580 1.19592 1.19623
 C135 C 0.86053 1.18269 1.22329
 C136 C 0.84762 1.15546 1.23870
 C137 C 0.81926 1.14189 1.22606
 C138 C 0.80449 1.15473 1.19883
 C139 C 0.81769 1.18194 1.18392
 C140 C 0.85890 1.22295 1.18122
 C141 C 0.84439 1.23611 1.15391
 C142 C 0.81629 1.22205 1.14179
 C143 C 0.80292 1.19501 1.15654
 C144 C 0.77531 1.18052 1.14405
 C145 C 0.76233 1.15301 1.15845
 C146 C 0.77696 1.14040 1.18596
 H147 H 0.88147 1.19461 1.23285
 H148 H 0.80927 1.12028 1.23630
 H149 H 0.88036 1.23388 1.19090
 H150 H 0.80522 1.23177 1.12047
 H151 H 0.76436 1.19018 1.12264
 H152 H 0.76681 1.11945 1.19741
 O153 O 0.45431 1.05647 1.05741
 O154 O 0.41960 1.02517 1.02870
 C155 C 0.42560 1.04763 1.04918
 O156 O 0.54531 1.05430 0.94477
 O157 O 0.58024 1.02479 0.97527
 C158 C 0.57408 1.04572 0.95322
 O159 O 0.45510 1.05718 0.94696
 O160 O 0.41995 1.02612 0.97533
 C161 C 0.42626 1.04861 0.95493
 O162 O 0.54451 1.05353 1.06112
 O163 O 0.57983 1.02462 1.03067
 C164 C 0.57340 1.04523 1.05290
 Zr165 Zr 0.49957 1.03847 1.04277
 O166 O 0.50307 1.08910 1.04307
 O167 O 0.49562 1.03797 1.09306
 Zr168 Zr 0.50012 1.03897 0.96215
 O169 O 0.50359 1.08960 0.96238
 O170 O 0.49686 1.03903 0.91178
 O171 O 0.47124 1.04499 1.00226
 O172 O 0.52766 1.04460 1.00271
 O173 O 0.54490 0.94202 1.06042
 O174 O 0.58000 0.97165 1.03046
 C175 C 0.57372 0.95068 1.05239
 O176 O 0.45534 0.93982 0.94629
 O177 O 0.42008 0.97043 0.97511
 C178 C 0.42646 0.94819 0.95450
 O179 O 0.54563 0.94298 0.94396
 O180 O 0.58035 0.97188 0.97506
 C181 C 0.57435 0.95136 0.95264
 O182 O 0.45457 0.93903 1.05669
 O183 O 0.41973 0.97011 1.02769
 C184 C 0.42580 0.94760 1.04817
 Zr185 Zr 0.49982 0.95729 1.04232
 O186 O 0.50355 0.90666 1.04212
 O187 O 0.49589 0.95719 1.09263
 Zr188 Zr 0.50035 0.95778 0.96174
 O189 O 0.50416 0.90715 0.96180
 O190 O 0.49706 0.95792 0.91139
 Zr191 Zr 0.45241 0.99813 1.00182
 Zr192 Zr 0.54751 0.99819 1.00262
 O193 O 0.52795 0.95173 1.00222
 O194 O 0.47153 0.95128 1.00176
 O195 O 0.52820 0.99787 1.04902
 O196 O 0.47246 0.99839 0.95585
 O197 O 0.47187 0.99781 1.04814
 O198 O 0.52880 0.99844 0.95591
 H199 H 0.54219 1.06336 1.00292
 H200 H 0.45798 0.99849 0.93711
 H201 H 0.54262 0.93301 1.00221
 H202 H 0.45720 0.99762 1.06669
 H203 H 0.51512 1.02636 0.90354
 H204 H 0.51467 0.97149 0.90324
 H205 H 0.48590 0.89866 0.97421
 H206 H 0.48590 0.89834 1.02873
 H207 H 0.51391 0.96997 1.10115
 H208 H 0.51357 1.02493 1.10145
 H209 H 0.48526 1.09759 1.02995
 H210 H 0.48573 1.09792 0.97548
 O211 O 0.05210 0.54519 -0.06052
 O212 O 0.02293 0.58020 -0.02996
 C213 C 0.04363 0.57399 -0.05217
 O214 O -0.06167 0.45475 -0.05780
 O215 O -0.03034 0.41984 -0.02920
 C216 C -0.05279 0.42597 -0.04972
 O217 O -0.05917 0.54508 -0.06056
 O218 O -0.02993 0.58014 -0.03011
 C219 C -0.05068 0.57389 -0.05228
 O220 O 0.05547 0.45493 -0.05744
 O221 O 0.02418 0.41989 -0.02914
 C222 C 0.04670 0.42612 -0.04947
 Zr223 Zr 0.03734 0.50006 -0.04245
 O224 O 0.03769 0.49648 -0.09277
 O225 O 0.08795 0.50381 -0.04192
 Zr226 Zr -0.04394 0.49994 -0.04261
 O227 O -0.04412 0.49647 -0.09294
 O228 O -0.09458 0.50343 -0.04228
 O229 O -0.00339 0.52849 -0.04883
 O230 O -0.00320 0.47229 -0.04836
 O231 O 0.05549 0.45498 0.05309
 O232 O 0.02479 0.41986 0.02423
 C233 C 0.04707 0.42615 0.04488
 O234 O -0.05894 0.54500 0.05599
 O235 O -0.03007 0.58010 0.02532
 C236 C -0.05065 0.57383 0.04761
 O237 O -0.06163 0.45472 0.05315
 O238 O -0.03028 0.41982 0.02471
 C239 C -0.05275 0.42593 0.04512
 O240 O 0.05234 0.54517 0.05587
 O241 O 0.02284 0.58021 0.02549
 C242 C 0.04372 0.57397 0.04759
 Zr243 Zr 0.03735 0.50006 0.03799
 O244 O 0.03753 0.49655 0.08833
 O245 O 0.08797 0.50372 0.03772
 Zr246 Zr -0.04395 0.49991 0.03790
 O247 O -0.04447 0.49638 0.08823
 O248 O -0.09459 0.50348 0.03716
 Zr249 Zr -0.00346 0.54753 -0.00230
 Zr250 Zr -0.00317 0.45240 -0.00222
 O251 O -0.00319 0.47226 0.04387
 O252 O -0.00339 0.52846 0.04423
 O253 O 0.04366 0.47140 -0.00220
 O254 O -0.04985 0.52781 -0.00237
 O255 O 0.04306 0.52797 -0.00224
 O256 O -0.05011 0.47123 -0.00234
 H257 H -0.00314 0.45789 -0.06713
 H258 H -0.06860 0.54244 -0.00238
 H259 H -0.00307 0.45779 0.06260
 H260 H 0.06173 0.54262 -0.00225
 H261 H -0.10284 0.48516 -0.02970
 H262 H -0.10287 0.48492 0.02503
 H263 H -0.03050 0.51356 0.09661
 H264 H 0.02426 0.51435 0.09665
 H265 H 0.09639 0.48556 0.02507
 H266 H 0.09640 0.48547 -0.02951
 H267 H 0.02396 0.51391 -0.10118
 H268 H -0.03083 0.51421 -0.10126
 O269 O 1.06238 -0.05387 0.54444
 O270 O 1.03185 -0.02471 0.57946
 C271 C 1.05416 -0.04542 0.57312
 O272 O 1.05819 0.06098 0.45512
 O273 O 1.02971 0.02952 0.42042
 C274 C 1.05008 0.05213 0.42651
 O275 O 1.06165 0.05756 0.54496
 O276 O 1.03055 0.02870 0.57963
 C277 C 1.05291 0.04935 0.57356
 O278 O 1.05887 -0.05643 0.45462
 O279 O 1.02935 -0.02553 0.42015
 C280 C 1.05022 -0.04782 0.42607
 Zr281 Zr 1.04411 -0.03856 0.49968
 O282 O 1.09472 -0.03800 0.49590
 O283 O 1.04464 -0.08921 0.50307
 Zr284 Zr 1.04344 0.04268 0.50004
 O285 O 1.09404 0.04311 0.49630
 O286 O 1.04278 0.09329 0.50386
 O287 O 1.05023 0.00196 0.52822
 O288 O 1.04951 0.00221 0.47224
 O289 O 0.94788 -0.05698 0.45508
 O290 O 0.97588 -0.02514 0.42038
 C291 C 0.95565 -0.04787 0.42648
 O292 O 0.94433 0.05672 0.54537
 O293 O 0.97553 0.02756 0.57988
 C294 C 0.95299 0.04816 0.57392
 O295 O 0.94677 0.06016 0.45557
 O296 O 0.97640 0.03009 0.42056
 C297 C 0.95534 0.05208 0.42690
 O298 O 0.94535 -0.05449 0.54484
 O299 O 0.97597 -0.02520 0.57964
 C300 C 0.95378 -0.04602 0.57346
 Zr301 Zr 0.96301 -0.03905 0.49997
 O302 O 0.91237 -0.03929 0.49658
 O303 O 0.96357 -0.08970 0.50336
 Zr304 Zr 0.96233 0.04213 0.50033
 O305 O 0.91168 0.04197 0.49698
 O306 O 0.96220 0.09275 0.50413
 Zr307 Zr 1.00348 0.00154 0.54724
 Zr308 Zr 1.00298 0.00205 0.45278
 O309 O 0.95666 0.00167 0.47256
 O310 O 0.95654 0.00135 0.52852
 O311 O 1.00345 -0.04492 0.47139
 O312 O 1.00296 0.04809 0.52785
 O313 O 1.00375 -0.04480 0.52748
 O314 O 1.00270 0.04882 0.47181
 H315 H 1.06821 0.00229 0.45771
 H316 H 1.00279 0.06680 0.54239
 H317 H 0.93779 0.00169 0.45818
 H318 H 1.00397 -0.06359 0.54195
 H319 H 1.02980 0.10166 0.48593
 H320 H 0.97482 0.10127 0.48608
 H321 H 0.90349 0.02841 0.51450
 H322 H 0.90397 -0.02642 0.51452
 H323 H 0.97644 -0.09793 0.48534
 H324 H 1.03123 -0.09761 0.48551
 H325 H 1.10307 -0.02526 0.51396
 H326 H 1.10262 0.02968 0.51379
 C327 C 1.11087 0.11316 0.31846
 C328 C 1.12778 0.09435 0.29647
 C329 C 1.14233 0.10834 0.26995
 C330 C 1.14012 0.14171 0.26433
 C331 C 1.12306 0.16041 0.28675
 C332 C 1.10886 0.14634 0.31348
 C333 C 1.09497 0.09800 0.34620
 C334 C 1.09775 0.11133 0.37683
 C335 C 1.08321 0.09650 0.40301
 C336 C 1.06531 0.06826 0.39897
 C337 C 1.06225 0.05523 0.36820
 C338 C 1.07702 0.06985 0.34217
 H339 H 1.15399 0.09245 0.25322
 H340 H 1.12145 0.18620 0.28452
 H341 H 1.08596 0.10718 0.42637
 H342 H 1.04866 0.03349 0.36420
 H343 H 1.09592 0.16141 0.33011
 H344 H 1.11163 0.13292 0.38060
 H345 H 1.12978 0.06867 0.29981
 H346 H 1.07419 0.05928 0.31876
 C347 C 0.89396 -0.10932 0.31914
 C348 C 0.89602 -0.14254 0.31450
 C349 C 0.88128 -0.15694 0.28823
 C350 C 0.86363 -0.13853 0.26594
 C351 C 0.86150 -0.10511 0.27114
 C352 C 0.87657 -0.09078 0.29722
 C353 C 0.91007 -0.09393 0.34665
 C354 C 0.92773 -0.06562 0.34239
 C355 C 0.94274 -0.05088 0.36826
 C356 C 0.94018 -0.06397 0.39906
 C357 C 0.92254 -0.09234 0.40330
 C358 C 0.90777 -0.10726 0.37731
 H359 H 0.88289 -0.18275 0.28632
 H360 H 0.84940 -0.08945 0.25444
 H361 H 0.95611 -0.02903 0.36414
 H362 H 0.92018 -0.10308 0.42669
 H363 H 0.87453 -0.06507 0.30031
 H364 H 0.93016 -0.05504 0.31894
 H365 H 0.90933 -0.15740 0.33107
 H366 H 0.89410 -0.12895 0.38127
 C367 C 0.88962 0.10664 0.68209
 C368 C 0.88464 0.13996 0.68304
 C369 C 0.87019 0.15425 0.70952
 C370 C 0.86026 0.13550 0.73552
 C371 C 0.86503 0.10215 0.73446
 C372 C 0.87962 0.08789 0.70807
 C373 C 0.90556 0.09151 0.65430
 C374 C 0.92885 0.06756 0.65884
 C375 C 0.94417 0.05351 0.63277
 C376 C 0.93644 0.06297 0.60149
 C377 C 0.91302 0.08684 0.59695
 C378 C 0.89781 0.10101 0.62308
 H379 H 0.86656 0.17997 0.70957
 H380 H 0.85788 0.08714 0.75427
 H381 H 0.96219 0.03532 0.63721
 H382 H 0.90646 0.09468 0.57320
 H383 H 0.88288 0.06212 0.70788
 H384 H 0.93561 0.06005 0.68263
 H385 H 0.89237 0.15504 0.66350
 H386 H 0.87971 0.11918 0.61886
 C387 C 1.11601 -0.10663 0.68067
 C388 C 1.13318 -0.08887 0.70330
 C389 C 1.14677 -0.10392 0.72986
 C390 C 1.14323 -0.13727 0.73484
 C391 C 1.12594 -0.15488 0.71174
 C392 C 1.11273 -0.13979 0.68502
 C393 C 1.10100 -0.09051 0.65290
 C394 C 1.10351 -0.10379 0.62224
 C395 C 1.08876 -0.08888 0.59619
 C396 C 1.07088 -0.06060 0.60037
 C397 C 1.06856 -0.04724 0.63105
 C398 C 1.08359 -0.06196 0.65699
 H399 H 1.15873 -0.08883 0.74710
 H400 H 1.12337 -0.18062 0.71345
 H401 H 1.09096 -0.09979 0.57288
 H402 H 1.05508 -0.02539 0.63505
 H403 H 1.09953 -0.15405 0.66791
 H404 H 1.11704 -0.12564 0.61841
 H405 H 1.13611 -0.06323 0.70047
 H406 H 1.08107 -0.05136 0.68042
 C407 C 0.31727 1.10977 1.10933
 C408 C 0.31260 1.14297 1.10684
 C409 C 0.28612 1.15765 1.12113
 C410 C 0.26364 1.13956 1.13877
 C411 C 0.26887 1.10614 1.14134
 C412 C 0.29515 1.09153 1.12669
 C413 C 0.34503 1.09410 1.09371
 C414 C 0.34087 1.06559 1.07641
 C415 C 0.36699 1.05068 1.06177
 C416 C 0.39792 1.06380 1.06436
 C417 C 0.40207 1.09233 1.08170
 C418 C 0.37586 1.10741 1.09608
 H419 H 0.28421 1.18344 1.11919
 H420 H 0.25203 1.09070 1.15346
 H421 H 0.36294 1.02870 1.04863
 H422 H 0.42557 1.10308 1.08409
 H423 H 0.29825 1.06584 1.12905
 H424 H 0.31732 1.05499 1.07395
 H425 H 0.32933 1.15760 1.09353
 H426 H 0.37974 1.12925 1.10949
 C427 C 0.31869 0.88544 0.89384
 C428 C 0.31781 0.88223 0.86051
 C429 C 0.29127 0.86846 0.84548
 C430 C 0.26510 0.85749 0.86347
 C431 C 0.26613 0.86036 0.89683
 C432 C 0.29261 0.87424 0.91184
 C433 C 0.34641 0.90099 0.90972
 C434 C 0.34151 0.92283 0.93472
 C435 C 0.36749 0.93801 0.94930
 C436 C 0.39903 0.93163 0.93928
 C437 C 0.40395 0.90955 0.91444
 C438 C 0.37792 0.89445 0.89978
 H439 H 0.29127 0.86627 0.81977
 H440 H 0.24620 0.85238 0.91129
 H441 H 0.36277 0.95485 0.96837
 H442 H 0.42792 0.90403 0.90617
 H443 H 0.29275 0.87610 0.93758
 H444 H 0.31750 0.92864 0.94265
 H445 H 0.33741 0.89091 0.84599
 H446 H 0.38245 0.87745 0.88081
 C447 C 0.68200 0.89068 1.11511
 C448 C 0.68644 0.85741 1.11329
 C449 C 0.71326 0.84291 1.12724
 C450 C 0.73632 0.86127 1.14386
 C451 C 0.73127 0.89475 1.14585
 C452 C 0.70465 0.90918 1.13154
 C453 C 0.65410 0.90618 1.09946
 C454 C 0.65828 0.93405 1.08115
 C455 C 0.63218 0.94847 1.06593
 C456 C 0.60122 0.93552 1.06895
 C457 C 0.59700 0.90780 1.08756
 C458 C 0.62322 0.89317 1.10250
 H459 H 0.71504 0.81708 1.12580
 H460 H 0.74852 0.91038 1.15718
 H461 H 0.63629 0.96980 1.05180
 H462 H 0.57349 0.89719 1.09031
 H463 H 0.70175 0.93493 1.13334
 H464 H 0.68188 0.94441 1.07816
 H465 H 0.66932 0.84258 1.10069
 H466 H 0.61932 0.87184 1.11671
 C467 C 0.68200 1.10580 0.89074
 C468 C 0.68612 1.13911 0.89233
 C469 C 0.71253 1.15371 0.87792
 C470 C 0.73549 1.13542 0.86106
 C471 C 0.73084 1.10188 0.85942
 C472 C 0.70462 1.08735 0.87420
 C473 C 0.65429 1.09029 0.90650
 C474 C 0.65865 1.06249 0.92491
 C475 C 0.63262 1.04806 0.94011
 C476 C 0.60159 1.06094 0.93693
 C477 C 0.59722 1.08861 0.91825
 C478 C 0.62333 1.10324 0.90334
 H479 H 0.71400 1.17957 0.87913
 H480 H 0.74807 1.08633 0.84793
 H481 H 0.63682 1.02675 0.95428
 H482 H 0.57365 1.09917 0.91537
 H483 H 0.70196 1.06157 0.87258
 H484 H 0.68231 1.05218 0.92795
 H485 H 0.66901 1.15391 0.90501
 H486 H 0.61930 1.12450 0.88905
 C487 C 0.10943 0.31895 0.10746
 C488 C 0.14292 0.31772 0.11101
 C489 C 0.15754 0.29166 0.12621
 C490 C 0.13896 0.26636 0.13832
 C491 C 0.10546 0.26773 0.13498
 C492 C 0.09086 0.29370 0.11968
 C493 C 0.09386 0.34641 0.09102
 C494 C 0.06842 0.34127 0.06965
 C495 C 0.05346 0.36710 0.05446
 C496 C 0.06352 0.39872 0.06038
 C497 C 0.08912 0.40382 0.08163
 C498 C 0.10415 0.37795 0.09672
 H499 H 0.18339 0.29138 0.12866
 H500 H 0.09054 0.24843 0.14376
 H501 H 0.03386 0.36225 0.03821
 H502 H 0.09748 0.42784 0.08676
 H503 H 0.06498 0.29415 0.11761
 H504 H 0.06025 0.31720 0.06445
 H505 H 0.15787 0.33670 0.10162
 H506 H 0.12348 0.38267 0.11331
 C507 C -0.11336 0.31754 -0.11145
 C508 C -0.09433 0.29219 -0.12284
 C509 C -0.10841 0.26566 -0.13752
 C510 C -0.14186 0.26382 -0.14107
 C511 C -0.16091 0.28925 -0.12986
 C512 C -0.14680 0.31588 -0.11529
 C513 C -0.09830 0.34540 -0.09533
 C514 C -0.10881 0.37680 -0.10166
 C515 C -0.09419 0.40300 -0.08679
 C516 C -0.06882 0.39832 -0.06515
 C517 C -0.05858 0.36684 -0.05861
 C518 C -0.07311 0.34072 -0.07355
 H519 H -0.09313 0.24629 -0.14561
 H520 H -0.18673 0.28861 -0.13251
 H521 H -0.10268 0.42690 -0.09239
 H522 H -0.03919 0.36228 -0.04200
 H523 H -0.16209 0.33494 -0.10652
 H524 H -0.12799 0.38115 -0.11855
 H525 H -0.06848 0.29295 -0.12056
 H526 H -0.06480 0.31678 -0.06782
 C527 C 0.10476 0.68163 -0.11456
 C528 C 0.08681 0.70788 -0.12576
 C529 C 0.10208 0.73416 -0.13974
 C530 C 0.13564 0.73483 -0.14263
 C531 C 0.15358 0.70852 -0.13156
 C532 C 0.13829 0.68216 -0.11776
 C533 C 0.08864 0.65401 -0.09914
 C534 C 0.09824 0.62245 -0.10599
 C535 C 0.08344 0.59647 -0.09101
 C536 C 0.05882 0.60147 -0.06868
 C537 C 0.04914 0.63308 -0.06196
 C538 C 0.06381 0.65903 -0.07710
 H539 H 0.08768 0.75422 -0.14780
 H540 H 0.17944 0.70828 -0.13373
 H541 H 0.09148 0.57246 -0.09679
 H542 H 0.03034 0.63785 -0.04483
 H543 H 0.15276 0.66241 -0.10908
 H544 H 0.11707 0.61786 -0.12314
 H545 H 0.06092 0.70800 -0.12386
 H546 H 0.05616 0.68310 -0.07107
 C547 C -0.10985 0.68142 0.11220
 C548 C -0.14321 0.68246 0.11680
 C549 C -0.15753 0.70881 0.13171
 C550 C -0.13876 0.73457 0.14250
 C551 C -0.10538 0.73338 0.13813
 C552 C -0.09109 0.70714 0.12309
 C553 C -0.09466 0.65380 0.09578
 C554 C -0.07038 0.65880 0.07315
 C555 C -0.05615 0.63288 0.05753
 C556 C -0.06575 0.60129 0.06429
 C557 C -0.08998 0.59629 0.08703
 C558 C -0.10433 0.62226 0.10253
 H559 H -0.18328 0.70897 0.13498
 H560 H -0.09034 0.75303 0.14590
 H561 H -0.03765 0.63766 0.04009
 H562 H -0.09795 0.57229 0.09284
 H563 H -0.06530 0.70686 0.12016
 H564 H -0.06271 0.68286 0.06717
 H565 H -0.15830 0.66312 0.10841
 H566 H -0.12274 0.61767 0.12011
 C567 C 1.11348 0.11098 0.68145
 C568 C 1.14667 0.10918 0.68642
 C569 C 1.16070 0.12361 0.71306
 C570 C 1.14193 0.14072 0.73540
 C571 C 1.10856 0.14273 0.72979
 C572 C 1.09461 0.12794 0.70335
 C573 C 1.09840 0.09489 0.65376
 C574 C 1.07037 0.07677 0.65783
 C575 C 1.05586 0.06178 0.63183
 C576 C 1.06889 0.06479 0.60107
 C577 C 1.09701 0.08287 0.59701
 C578 C 1.11172 0.09762 0.62314
 H579 H 1.18650 0.12216 0.71528
 H580 H 1.09263 0.15442 0.74646
 H581 H 1.03421 0.04806 0.63584
 H582 H 1.10769 0.08559 0.57365
 H583 H 1.06891 0.12978 0.70001
 H584 H 1.05981 0.07398 0.68124
 H585 H 1.16178 0.09622 0.66985
 H586 H 1.13322 0.11163 0.61935
 C587 C 0.89082 -0.10573 0.68093
 C588 C 0.89273 -0.13900 0.68525
 C589 C 0.87858 -0.15356 0.71172
 C590 C 0.86167 -0.13526 0.73456
 C591 C 0.85962 -0.10177 0.72968
 C592 C 0.87415 -0.08727 0.70339
 C593 C 0.90654 -0.09025 0.65328
 C594 C 0.92494 -0.06241 0.65748
 C595 C 0.94028 -0.04810 0.63157
 C596 C 0.93727 -0.06114 0.60080
 C597 C 0.91856 -0.08881 0.59656
 C598 C 0.90350 -0.10333 0.62257
 H599 H 0.88005 -0.17940 0.71336
 H600 H 0.84804 -0.08621 0.74678
 H601 H 0.95446 -0.02677 0.63566
 H602 H 0.91580 -0.09946 0.57319
 H603 H 0.87228 -0.06152 0.70057
 H604 H 0.92790 -0.05201 0.68095
 H605 H 0.90552 -0.15380 0.66827
 H606 H 0.88922 -0.12463 0.61867
 C607 C 1.10954 -0.10992 0.31761
 C608 C 1.11249 -0.14346 0.31603
 C609 C 1.12646 -0.15807 0.28947
 C610 C 1.13795 -0.13944 0.26401
 C611 C 1.13521 -0.10590 0.26571
 C612 C 1.12112 -0.09131 0.29219
 C613 C 1.09418 -0.09434 0.34549
 C614 C 1.07277 -0.06868 0.34109
 C615 C 1.05842 -0.05377 0.36722
 C616 C 1.06522 -0.06409 0.39844
 C617 C 1.08657 -0.08985 0.40285
 C618 C 1.10083 -0.10487 0.37664
 H619 H 1.12851 -0.18396 0.28892
 H620 H 1.14357 -0.09095 0.24633
 H621 H 1.04205 -0.03405 0.36288
 H622 H 1.09234 -0.09841 0.42655
 H623 H 1.11949 -0.06541 0.29288
 H624 H 1.06683 -0.06033 0.31735
 H625 H 1.10354 -0.15842 0.33514
 H626 H 1.11747 -0.12440 0.38076
 C627 C 0.89363 0.11394 0.31963
 C628 C 0.86037 0.11130 0.31562
 C629 C 0.84523 0.12487 0.28910
 C630 C 0.86290 0.14190 0.26589
 C631 C 0.89637 0.14473 0.27049
 C632 C 0.91145 0.13079 0.29684
 C633 C 0.90976 0.09871 0.34727
 C634 C 0.93803 0.08090 0.34296
 C635 C 0.95287 0.06587 0.36884
 C636 C 0.93993 0.06860 0.39966
 C637 C 0.91187 0.08680 0.40401
 C638 C 0.89684 0.10155 0.37804
 H639 H 0.81942 0.12283 0.28768
 H640 H 0.91149 0.15643 0.25312
 H641 H 0.97452 0.05212 0.36468
 H642 H 0.90127 0.08932 0.42742
 H643 H 0.93718 0.13323 0.29941
 H644 H 0.94833 0.07810 0.31945
 H645 H 0.84605 0.09836 0.33286
 H646 H 0.87522 0.11540 0.38203
 C647 C 0.10938 0.31837 -0.11011
 C648 C 0.09125 0.29615 -0.12749
 C649 C 0.10599 0.26992 -0.14213
 C650 C 0.13943 0.26486 -0.13955
 C651 C 0.15741 0.28747 -0.12193
 C652 C 0.14261 0.31389 -0.10764
 C653 C 0.09357 0.34600 -0.09440
 C654 C 0.10671 0.37691 -0.09663
 C655 C 0.09149 0.40299 -0.08213
 C656 C 0.06301 0.39861 -0.06480
 C657 C 0.05006 0.36759 -0.06236
 C658 C 0.06510 0.34162 -0.07712
 H659 H 0.09062 0.25299 -0.15424
 H660 H 0.18321 0.28570 -0.11999
 H661 H 0.10212 0.42655 -0.08440
 H662 H 0.02812 0.36336 -0.04924
 H663 H 0.15716 0.33069 -0.09432
 H664 H 0.12851 0.38097 -0.11002
 H665 H 0.06555 0.29910 -0.12984
 H666 H 0.05464 0.31799 -0.07476
 C667 C -0.11307 0.31746 0.10690
 C668 C -0.14642 0.31596 0.11140
 C669 C -0.16028 0.28955 0.12660
 C670 C -0.14105 0.26420 0.13777
 C671 C -0.10770 0.26578 0.13334
 C672 C -0.09388 0.29209 0.11806
 C673 C -0.09823 0.34531 0.09059
 C674 C -0.07336 0.34064 0.06853
 C675 C -0.05884 0.36678 0.05363
 C676 C -0.06881 0.39828 0.06048
 C677 C -0.09391 0.40294 0.08234
 C678 C -0.10850 0.37673 0.09719
 H679 H -0.18601 0.28910 0.12992
 H680 H -0.09231 0.24645 0.14138
 H681 H -0.03967 0.36224 0.03684
 H682 H -0.10218 0.42685 0.08816
 H683 H -0.06808 0.29272 0.11525
 H684 H -0.06524 0.31670 0.06261
 H685 H -0.16183 0.33503 0.10282
 H686 H -0.12741 0.38107 0.11431
 C687 C -0.11020 0.68200 -0.11568
 C688 C -0.09168 0.70422 -0.13261
 C689 C -0.10599 0.73087 -0.14700
 C690 C -0.13935 0.73640 -0.14452
 C691 C -0.15776 0.71371 -0.12747
 C692 C -0.14339 0.68684 -0.11348
 C693 C -0.09481 0.65416 -0.09984
 C694 C -0.10808 0.62334 -0.10254
 C695 C -0.09358 0.59717 -0.08740
 C696 C -0.06575 0.60138 -0.06893
 C697 C -0.05257 0.63227 -0.06622
 C698 C -0.06684 0.65832 -0.08166
 H699 H -0.09033 0.74780 -0.15872
 H700 H -0.18354 0.71585 -0.12567
 H701 H -0.10437 0.57371 -0.08990
 H702 H -0.03114 0.63634 -0.05221
 H703 H -0.15823 0.67003 -0.10051
 H704 H -0.12951 0.61947 -0.11661
 H705 H -0.06600 0.70098 -0.13472
 H706 H -0.05630 0.68188 -0.07896
 C707 C 0.10469 0.68152 0.11002
 C708 C 0.08668 0.70417 0.12701
 C709 C 0.10164 0.73029 0.14158
 C710 C 0.13515 0.73484 0.13923
 C711 C 0.15298 0.71184 0.12195
 C712 C 0.13798 0.68552 0.10778
 C713 C 0.08878 0.65389 0.09446
 C714 C 0.10167 0.62289 0.09733
 C715 C 0.08683 0.59688 0.08245
 C716 C 0.05897 0.60139 0.06406
 C717 C 0.04608 0.63244 0.06122
 C718 C 0.06073 0.65838 0.07643
 H719 H 0.08641 0.74756 0.15345
 H720 H 0.17881 0.71322 0.12021
 H721 H 0.09741 0.57329 0.08505
 H722 H 0.02463 0.63673 0.04727
 H723 H 0.15243 0.66838 0.09475
 H724 H 0.12312 0.61875 0.11134
 H725 H 0.06094 0.70160 0.12913
 H726 H 0.05044 0.68209 0.07363
 C727 C 0.31914 1.11111 0.89240
 C728 C 0.29388 1.09251 0.88025
 C729 C 0.26791 1.10705 0.86490
 C730 C 0.26657 1.14054 0.86143
 C731 C 0.29187 1.15917 0.87348
 C732 C 0.31793 1.14460 0.88873
 C733 C 0.34658 1.09558 0.90889
 C734 C 0.37814 1.10576 0.90311
 C735 C 0.40400 1.09067 0.91817
 C736 C 0.39886 1.06514 0.93947
 C737 C 0.36724 1.05522 0.94550
 C738 C 0.34142 1.07024 0.93034
 H739 H 0.24861 1.09210 0.85616
 H740 H 0.29159 1.18501 0.87093
 H741 H 0.42803 1.09893 0.91296
 H742 H 0.36236 1.03569 0.96181
 H743 H 0.33692 1.15957 0.89808
 H744 H 0.38287 1.12502 0.88645
 H745 H 0.29431 1.06663 0.88240
 H746 H 0.31734 1.06216 0.93561
 C747 C 0.31708 0.88601 1.10816
 C748 C 0.29166 0.90505 1.11937
 C749 C 0.26521 0.89101 1.13418
 C750 C 0.26352 0.85759 1.13805
 C751 C 0.28894 0.83851 1.12690
 C752 C 0.31551 0.85259 1.11220
 C753 C 0.34501 0.90109 1.09223
 C754 C 0.37641 0.89088 1.09906
 C755 C 0.40268 0.90578 1.08464
 C756 C 0.39810 0.93113 1.06297
 C757 C 0.36661 0.94098 1.05584
 C758 C 0.34042 0.92617 1.07033
 H759 H 0.24584 0.90630 1.14223
 H760 H 0.28839 0.81271 1.12978
 H761 H 0.42658 0.89758 1.09067
 H762 H 0.36212 0.96032 1.03917
 H763 H 0.33463 0.83730 1.10358
 H764 H 0.38068 0.87178 1.11605
 H765 H 0.29234 0.93089 1.11692
 H766 H 0.31649 0.93424 1.06423
 C767 C 0.68068 1.10639 1.11598
 C768 C 0.70679 1.08831 1.12729
 C769 C 0.73309 1.10343 1.14137
 C770 C 0.73394 1.13698 1.14432
 C771 C 0.70776 1.15507 1.13319
 C772 C 0.68136 1.13993 1.11926
 C773 C 0.65311 1.09037 1.10033
 C774 C 0.62152 1.10005 1.10692
 C775 C 0.59561 1.08521 1.09179
 C776 C 0.60075 1.06049 1.06958
 C777 C 0.63238 1.05078 1.06309
 C778 C 0.65824 1.06549 1.07836
 H779 H 0.75306 1.08890 1.14945
 H780 H 0.70765 1.18094 1.13539
 H781 H 0.57158 1.09328 1.09738
 H782 H 0.63726 1.03190 1.04607
 H783 H 0.66171 1.15450 1.11051
 H784 H 0.61684 1.11893 1.12400
 H785 H 0.70680 1.06242 1.12535
 H786 H 0.68233 1.05778 1.07252
 C787 C 0.68289 0.89252 0.88934
 C788 C 0.68381 0.85921 0.88430
 C789 C 0.71030 0.84491 0.86964
 C790 C 0.73635 0.86364 0.85955
 C791 C 0.73535 0.89696 0.86443
 C792 C 0.70894 0.91123 0.87921
 C793 C 0.65502 0.90768 0.90535
 C794 C 0.65969 0.93173 0.92832
 C795 C 0.63353 0.94588 0.94361
 C796 C 0.60204 0.93642 0.93619
 C797 C 0.59737 0.91244 0.91310
 C798 C 0.62358 0.89818 0.89792
 H799 H 0.71029 0.81922 0.86595
 H800 H 0.75521 0.91197 0.85719
 H801 H 0.63806 0.96419 0.96133
 H802 H 0.57346 0.90460 0.90678
 H803 H 0.70879 0.93699 0.88249
 H804 H 0.68365 0.93927 0.93483
 H805 H 0.66422 0.84414 0.89213
 H806 H 0.61924 0.87996 0.88006
   
