data_POSCAR
  _audit_creation_date              2014-09-24
  _audit_creation_method            'ToBaCCo'
  _symmetry_space_group_name_H-M    'P1'
  _symmetry_Int_Tables_number       1
  _symmetry_cell_setting            triclinic
  loop_
  _symmetry_equiv_pos_as_xyz
 x,y,z
_cell_length_a 29.2678
_cell_length_b 18.0385
_cell_length_c 17.9409
_cell_angle_alpha 89.781200
_cell_angle_beta 90.133700
_cell_angle_gamma 89.863500
loop_
  _atom_site_label
  _atom_site_type_symbol
  _atom_site_fract_x
  _atom_site_fract_y
  _atom_site_fract_z
O1 O 0.06411 0.12740 0.13782
 O2 O 0.11452 0.06078 0.06647
 C3 C 0.10504 0.10816 0.11822
 O4 O -0.06297 -0.13798 0.13066
 O5 O -0.11361 -0.06651 0.06355
 C6 C -0.10397 -0.11833 0.11121
 O7 O 0.06511 -0.13085 0.13729
 O8 O 0.11518 -0.06454 0.06487
 C9 C 0.10604 -0.11198 0.11709
 O10 O -0.06351 0.13447 0.13058
 O11 O -0.11388 0.06339 0.06367
 C12 C -0.10445 0.11495 0.11126
 Zr13 Zr 0.00036 0.09197 0.09490
 O14 O -0.00477 0.09119 0.21260
 O15 O 0.00544 0.20906 0.09398
 Zr16 Zr 0.00082 -0.09511 0.09534
 O17 O -0.00422 -0.09385 0.21306
 O18 O 0.00620 -0.21217 0.09599
 O19 O 0.04149 -0.00157 0.10979
 O20 O -0.03925 -0.00164 0.10867
 O21 O -0.06361 0.13536 -0.12866
 O22 O -0.11394 0.06399 -0.06161
 C23 C -0.10451 0.11581 -0.10925
 O24 O 0.06410 -0.12986 -0.13590
 O25 O 0.11452 -0.06330 -0.06444
 C26 C 0.10503 -0.11058 -0.11630
 O27 O -0.06352 -0.13694 -0.12879
 O28 O -0.11389 -0.06587 -0.06183
 C29 C -0.10447 -0.11734 -0.10953
 O30 O 0.06452 0.12772 -0.13522
 O31 O 0.11508 0.06065 -0.06342
 C32 C 0.10554 0.10839 -0.11534
 Zr33 Zr 0.00033 0.09229 -0.09341
 O34 O -0.00505 0.09087 -0.21114
 O35 O 0.00543 0.20934 -0.09450
 Zr36 Zr 0.00035 -0.09467 -0.09288
 O37 O -0.00507 -0.09426 -0.21058
 O38 O 0.00577 -0.21176 -0.09160
 Zr39 Zr 0.06872 -0.00130 0.00105
 Zr40 Zr -0.06797 -0.00131 0.00097
 O41 O -0.03955 -0.00106 -0.10672
 O42 O 0.04117 -0.00120 -0.10771
 O43 O -0.04049 0.10672 0.00067
 O44 O 0.04035 -0.10843 0.00116
 O45 O 0.04006 0.10580 0.00082
 O46 O -0.04025 -0.10941 0.00127
 H47 H -0.05983 -0.00175 0.15244
 H48 H 0.06097 -0.15207 0.00102
 H49 H -0.06023 -0.00089 -0.15053
 H50 H 0.06061 0.14936 0.00082
 H51 H -0.01871 -0.23163 0.06436
 H52 H -0.02024 -0.23127 -0.06245
 H53 H 0.01992 -0.06301 -0.23019
 H54 H 0.02163 0.06337 -0.23059
 H55 H -0.01921 0.22891 -0.06244
 H56 H -0.02043 0.22860 0.06422
 H57 H 0.02063 0.06050 0.23220
 H58 H 0.02229 -0.06598 0.23251
 O59 O 0.56400 0.62928 0.63488
 O60 O 0.61393 0.56305 0.56265
 C61 C 0.60507 0.61043 0.61488
 O62 O 0.43562 0.36492 0.62852
 O63 O 0.38554 0.43630 0.56074
 C64 C 0.39451 0.38444 0.60891
 O65 O 0.56416 0.37217 0.63625
 O66 O 0.61404 0.43919 0.56450
 C67 C 0.60519 0.39150 0.61669
 O68 O 0.43544 0.63640 0.62728
 O69 O 0.38547 0.56505 0.56020
 C70 C 0.39439 0.61690 0.60788
 Zr71 Zr 0.49973 0.59430 0.59300
 O72 O 0.49454 0.59373 0.71069
 O73 O 0.50483 0.71135 0.59283
 Zr74 Zr 0.49985 0.40681 0.59379
 O75 O 0.49460 0.40702 0.71146
 O76 O 0.50523 0.28975 0.59425
 O77 O 0.54053 0.50049 0.60816
 O78 O 0.46011 0.50064 0.60694
 O79 O 0.43519 0.63642 0.36938
 O80 O 0.38536 0.56517 0.43700
 C81 C 0.39414 0.61699 0.38885
 O82 O 0.56407 0.37181 0.36344
 O83 O 0.61400 0.43872 0.43505
 C84 C 0.60514 0.39098 0.38316
 O85 O 0.43551 0.36476 0.37079
 O86 O 0.38550 0.43634 0.43760
 C87 C 0.39444 0.38433 0.39010
 O88 O 0.56394 0.62858 0.36238
 O89 O 0.61391 0.56122 0.43444
 C90 C 0.60501 0.60899 0.38221
 Zr91 Zr 0.49959 0.59426 0.40437
 O92 O 0.49423 0.59383 0.28667
 O93 O 0.50478 0.71129 0.40370
 Zr94 Zr 0.49976 0.40693 0.40503
 O95 O 0.49435 0.40807 0.28733
 O96 O 0.50507 0.28988 0.40457
 Zr97 Zr 0.56753 0.50032 0.49933
 Zr98 Zr 0.43195 0.50066 0.49895
 O99 O 0.45992 0.50064 0.39103
 O100 O 0.54041 0.50049 0.39032
 O101 O 0.45898 0.60890 0.49855
 O102 O 0.53944 0.39310 0.49960
 O103 O 0.53926 0.60773 0.49869
 O104 O 0.45919 0.39236 0.49938
 H105 H 0.43928 0.50066 0.65040
 H106 H 0.56028 0.34973 0.49986
 H107 H 0.43901 0.50066 0.34752
 H108 H 0.55994 0.65114 0.49840
 H109 H 0.47975 0.27027 0.56384
 H110 H 0.48039 0.27035 0.43659
 H111 H 0.52045 0.43687 0.26777
 H112 H 0.51989 0.56383 0.26730
 H113 H 0.47945 0.73088 0.43431
 H114 H 0.47959 0.73088 0.56165
 H115 H 0.52048 0.56432 0.73040
 H116 H 0.52001 0.43740 0.73097
 C117 C 0.27333 0.32740 0.34178
 C118 C 0.28106 0.27260 0.28829
 C119 C 0.32580 0.25377 0.26850
 C120 C 0.36275 0.28981 0.30182
 C121 C 0.14257 0.14257 0.15585
 C122 C 0.31020 0.36357 0.37519
 C123 C 0.24309 0.23642 0.25292
 C124 C 0.21133 0.20647 0.22280
 C125 C 0.17422 0.17182 0.18697
 C126 C 0.35538 0.34535 0.35540
 H127 H 0.23880 0.34240 0.35745
 H128 H 0.33212 0.21143 0.22708
 H129 H 0.39702 0.27437 0.28530
 H130 H 0.30324 0.40591 0.41630
 C131 C 0.67429 0.73137 0.25260
 C132 C 0.71894 0.71124 0.27221
 C133 C 0.72636 0.65716 0.32700
 C134 C 0.68931 0.62356 0.36245
 C135 C 0.85850 0.84387 0.14544
 C136 C 0.63712 0.69784 0.28796
 C137 C 0.75717 0.74680 0.23693
 C138 C 0.78922 0.77695 0.20784
 C139 C 0.82667 0.81275 0.17414
 C140 C 0.64421 0.64372 0.34355
 H141 H 0.66820 0.77324 0.21025
 H142 H 0.76080 0.64121 0.34260
 H143 H 0.69606 0.58205 0.40486
 H144 H 0.60292 0.71465 0.27202
 C145 C 0.72646 0.34192 0.67292
 C146 C 0.71888 0.28823 0.72794
 C147 C 0.67420 0.26886 0.74733
 C148 C 0.63714 0.30274 0.71155
 C149 C 0.85787 0.15379 0.85642
 C150 C 0.68948 0.37590 0.63703
 C151 C 0.75697 0.25222 0.76369
 C152 C 0.78885 0.22160 0.79324
 C153 C 0.82612 0.18527 0.82744
 C154 C 0.64435 0.35647 0.65573
 H155 H 0.76094 0.35727 0.65749
 H156 H 0.66800 0.22729 0.78985
 H157 H 0.60290 0.28649 0.72735
 H158 H 0.69632 0.41709 0.59444
 C159 C 0.27323 0.67265 0.65752
 C160 C 0.28097 0.72738 0.71107
 C161 C 0.32572 0.74672 0.73030
 C162 C 0.36267 0.71117 0.69643
 C163 C 0.14256 0.85535 0.84574
 C164 C 0.31011 0.63698 0.62355
 C165 C 0.24302 0.76295 0.74711
 C166 C 0.21128 0.79240 0.77779
 C167 C 0.17418 0.82649 0.81422
 C168 C 0.35530 0.65563 0.64285
 H169 H 0.23870 0.65727 0.64227
 H170 H 0.33206 0.78903 0.77174
 H171 H 0.39696 0.72695 0.71257
 H172 H 0.30315 0.59461 0.58248
 C173 C 0.32607 0.25432 0.73220
 C174 C 0.28123 0.27340 0.71269
 C175 C 0.27338 0.32823 0.65873
 C176 C 0.31018 0.36412 0.62466
 C177 C 0.14309 0.14309 0.84698
 C178 C 0.36294 0.29010 0.69823
 C179 C 0.24332 0.23731 0.74870
 C180 C 0.21167 0.20734 0.77932
 C181 C 0.17466 0.17253 0.81563
 C182 C 0.35545 0.34566 0.64419
 H183 H 0.33255 0.21197 0.77392
 H184 H 0.23880 0.34346 0.64319
 H185 H 0.30310 0.40648 0.58324
 H186 H 0.39726 0.27441 0.71461
 C187 C 0.67408 0.73258 0.74500
 C188 C 0.71884 0.71341 0.72552
 C189 C 0.72643 0.66022 0.67032
 C190 C 0.68947 0.62652 0.63450
 C191 C 0.85788 0.84537 0.85568
 C192 C 0.63703 0.69897 0.70930
 C193 C 0.75695 0.74886 0.76160
 C194 C 0.78884 0.77890 0.79153
 C195 C 0.82612 0.81452 0.82626
 C196 C 0.64427 0.64564 0.65342
 H197 H 0.66780 0.77372 0.78764
 H198 H 0.76093 0.64494 0.65476
 H199 H 0.69636 0.58565 0.59189
 H200 H 0.60277 0.71501 0.72532
 C201 C 0.27264 0.67274 0.33891
 C202 C 0.28005 0.72745 0.28480
 C203 C 0.32476 0.74668 0.26523
 C204 C 0.36192 0.71115 0.29929
 C205 C 0.14038 0.85646 0.15112
 C206 C 0.30971 0.63711 0.37306
 C207 C 0.24180 0.76321 0.24879
 C208 C 0.20977 0.79282 0.21834
 C209 C 0.17230 0.82722 0.18227
 C210 C 0.35485 0.65569 0.35347
 H211 H 0.23819 0.65738 0.35452
 H212 H 0.33091 0.78895 0.22340
 H213 H 0.39613 0.72691 0.28287
 H214 H 0.30293 0.59483 0.41457
 C215 C 0.67414 0.26789 0.25395
 C216 C 0.71889 0.28690 0.27359
 C217 C 0.72648 0.34049 0.32840
 C218 C 0.68953 0.37468 0.36374
 C219 C 0.85789 0.15263 0.14566
 C220 C 0.63709 0.30198 0.28918
 C221 C 0.75700 0.25079 0.23815
 C222 C 0.78887 0.22018 0.20877
 C223 C 0.82614 0.18393 0.17464
 C224 C 0.64433 0.35564 0.34475
 H225 H 0.66786 0.22646 0.21160
 H226 H 0.76099 0.35564 0.34406
 H227 H 0.69642 0.41577 0.40613
 H228 H 0.60283 0.28600 0.27311
   
