data_POSCAR
  _audit_creation_date              2014-09-24
  _audit_creation_method            'ToBaCCo'
  _symmetry_space_group_name_H-M    'P1'
  _symmetry_Int_Tables_number       1
  _symmetry_cell_setting            triclinic
  loop_
  _symmetry_equiv_pos_as_xyz
 x,y,z
_cell_length_a 56.2828
_cell_length_b 57.5357
_cell_length_c 56.3206
_cell_angle_alpha 89.588800
_cell_angle_beta 89.907300
_cell_angle_gamma 90.053700
loop_
  _atom_site_label
  _atom_site_type_symbol
  _atom_site_fract_x
  _atom_site_fract_y
  _atom_site_fract_z
N1 N 0.30268 0.26210 0.23863
 N2 N 0.28928 0.27735 0.22754
 C3 C 0.30072 0.28503 0.20801
 C4 C 0.32251 0.27391 0.20665
 C5 C 0.32311 0.25948 0.22648
 H6 H 0.29334 0.29723 0.19535
 H7 H 0.33716 0.24766 0.23154
 Cu8 Cu 0.25756 0.28482 0.23863
 Cu9 Cu 0.29196 0.24591 0.26721
 Cu10 Cu 0.23850 0.26394 0.29135
 N11 N 0.22985 0.29753 0.25443
 N12 N 0.22236 0.28935 0.27495
 C13 C 0.20262 0.30093 0.28138
 C14 C 0.19744 0.31732 0.26395
 C15 C 0.21522 0.31461 0.24713
 H16 H 0.19282 0.29761 0.29757
 H17 H 0.21723 0.32407 0.23061
 N18 N 0.25760 0.23848 0.30515
 N19 N 0.27802 0.23170 0.29599
 C20 C 0.28627 0.21352 0.30870
 C21 C 0.27028 0.20850 0.32676
 C22 C 0.25232 0.22476 0.32392
 H23 H 0.30236 0.20414 0.30459
 H24 H 0.23637 0.22630 0.33449
 H25 H 0.25562 0.24935 0.26260
 H26 H 0.27126 0.27367 0.27797
 N27 N 0.69804 -0.26023 0.23822
 N28 N 0.71165 -0.27575 0.22799
 C29 C 0.70065 -0.28389 0.20857
 C30 C 0.67884 -0.27278 0.20624
 C31 C 0.67788 -0.25789 0.22559
 H32 H 0.70831 -0.29669 0.19691
 H33 H 0.66384 -0.24591 0.23009
 Cu34 Cu 0.74293 -0.28332 0.24018
 Cu35 Cu 0.70812 -0.24361 0.26657
 Cu36 Cu 0.76054 -0.26209 0.29277
 N37 N 0.76985 -0.29634 0.25714
 N38 N 0.77678 -0.28802 0.27763
 C39 C 0.79612 -0.29978 0.28497
 C40 C 0.80174 -0.31648 0.26811
 C41 C 0.78445 -0.31369 0.25072
 H42 H 0.80543 -0.29614 0.30129
 H43 H 0.78260 -0.32330 0.23442
 N44 N 0.74145 -0.23611 0.30521
 N45 N 0.72148 -0.22908 0.29526
 C46 C 0.71328 -0.21047 0.30711
 C47 C 0.72885 -0.20543 0.32543
 C48 C 0.74648 -0.22216 0.32363
 H49 H 0.69753 -0.20087 0.30223
 H50 H 0.76210 -0.22382 0.33461
 H51 H 0.74449 -0.24755 0.26315
 H52 H 0.72800 -0.27145 0.27871
 N53 N 0.69766 0.25983 0.75947
 N54 N 0.71106 0.27551 0.76976
 C55 C 0.69966 0.28381 0.78891
 C56 C 0.67789 0.27267 0.79090
 C57 C 0.67727 0.25755 0.77182
 H58 H 0.70701 0.29656 0.80083
 H59 H 0.66318 0.24560 0.76733
 Cu60 Cu 0.74262 0.28293 0.75804
 Cu61 Cu 0.70821 0.24303 0.73142
 Cu62 Cu 0.76112 0.26136 0.70585
 N63 N 0.76990 0.29579 0.74143
 N64 N 0.77717 0.28736 0.72108
 C65 C 0.79662 0.29911 0.71392
 C66 C 0.80196 0.31594 0.73074
 C67 C 0.78439 0.31322 0.74793
 H68 H 0.80618 0.29542 0.69774
 H69 H 0.78225 0.32296 0.76411
 N70 N 0.74217 0.23531 0.69329
 N71 N 0.72203 0.22833 0.70302
 C72 C 0.71393 0.20974 0.69110
 C73 C 0.72973 0.20465 0.67295
 C74 C 0.74740 0.22133 0.67493
 H75 H 0.69806 0.20017 0.69579
 H76 H 0.76317 0.22297 0.66408
 H77 H 0.74452 0.24702 0.73532
 H78 H 0.72834 0.27081 0.71937
 N79 N 0.30262 -0.26193 0.76204
 N80 N 0.28926 -0.27713 0.77334
 C81 C 0.30079 -0.28470 0.79281
 C82 C 0.32260 -0.27355 0.79393
 C83 C 0.32311 -0.25922 0.77401
 H84 H 0.29346 -0.29684 0.80559
 H85 H 0.33714 -0.24741 0.76877
 Cu86 Cu 0.25747 -0.28465 0.76256
 Cu87 Cu 0.29177 -0.24593 0.73343
 Cu88 Cu 0.23821 -0.26433 0.70980
 N89 N 0.22976 -0.29764 0.74708
 N90 N 0.22220 -0.28971 0.72653
 C91 C 0.20256 -0.30154 0.72026
 C92 C 0.19743 -0.31788 0.73789
 C93 C 0.21528 -0.31479 0.75460
 H94 H 0.19278 -0.29826 0.70409
 H95 H 0.21768 -0.32414 0.77112
 N96 N 0.25723 -0.23887 0.69569
 N97 N 0.27767 -0.23196 0.70466
 C98 C 0.28585 -0.21383 0.69177
 C99 C 0.26977 -0.20897 0.67380
 C100 C 0.25186 -0.22528 0.67688
 H101 H 0.30193 -0.20436 0.69572
 H102 H 0.23587 -0.22692 0.66643
 H103 H 0.25544 -0.24941 0.73827
 H104 H 0.27104 -0.27383 0.72303
 N105 N 0.70592 -0.25143 0.76933
 N106 N 0.71476 -0.27125 0.77694
 C107 C 0.70321 -0.27775 0.79689
 C108 C 0.68623 -0.26107 0.80209
 C109 C 0.68851 -0.24465 0.78411
 H110 H 0.70716 -0.29325 0.80706
 H111 H 0.67831 -0.22889 0.78188
 Cu112 Cu 0.74090 -0.28618 0.76027
 Cu113 Cu 0.71790 -0.23553 0.74113
 Cu114 Cu 0.76369 -0.26234 0.71059
 N115 N 0.76651 -0.30117 0.74285
 N116 N 0.77509 -0.29181 0.72331
 C117 C 0.79300 -0.30501 0.71519
 C118 C 0.79612 -0.32375 0.73056
 C119 C 0.77878 -0.32068 0.74790
 H120 H 0.80335 -0.30070 0.69961
 H121 H 0.77557 -0.33148 0.76334
 N122 N 0.74981 -0.23244 0.70058
 N123 N 0.73242 -0.22222 0.71224
 C124 C 0.72739 -0.20182 0.70152
 C125 C 0.74238 -0.19899 0.68218
 C126 C 0.75632 -0.21881 0.68216
 H127 H 0.71417 -0.18968 0.70770
 H128 H 0.77032 -0.22294 0.66975
 H129 H 0.72975 -0.26510 0.72431
 H130 H 0.75194 -0.24894 0.74247
 N131 N 0.29350 0.25052 0.76534
 N132 N 0.28512 0.27080 0.77184
 C133 C 0.29668 0.27775 0.79150
 C134 C 0.31320 0.26086 0.79766
 C135 C 0.31062 0.24386 0.78055
 H136 H 0.29306 0.29370 0.80082
 H137 H 0.32041 0.22778 0.77921
 Cu138 Cu 0.25949 0.28565 0.75417
 Cu139 Cu 0.28130 0.23378 0.73803
 Cu140 Cu 0.23617 0.26026 0.70598
 N141 N 0.23429 0.30052 0.73591
 N142 N 0.22547 0.29050 0.71696
 C143 C 0.20784 0.30372 0.70814
 C144 C 0.20529 0.32312 0.72233
 C145 C 0.22245 0.32048 0.73981
 H146 H 0.19706 0.29903 0.69306
 H147 H 0.22577 0.33201 0.75450
 N148 N 0.24940 0.22968 0.69771
 N149 N 0.26662 0.21966 0.70989
 C150 C 0.27142 0.19886 0.70022
 C151 C 0.25648 0.19554 0.68103
 C152 C 0.24277 0.21549 0.67999
 H153 H 0.28453 0.18682 0.70697
 H154 H 0.22895 0.21939 0.66730
 H155 H 0.27016 0.26283 0.71948
 H156 H 0.24760 0.24796 0.73861
 N157 N 0.29589 -0.25181 0.23602
 N158 N 0.28814 -0.27248 0.23003
 C159 C 0.29973 -0.27940 0.21036
 C160 C 0.31568 -0.26213 0.20369
 C161 C 0.31268 -0.24489 0.22048
 H162 H 0.29673 -0.29576 0.20155
 H163 H 0.32168 -0.22832 0.22115
 Cu164 Cu 0.26324 -0.28817 0.24813
 Cu165 Cu 0.28332 -0.23501 0.26305
 Cu166 Cu 0.23788 -0.26124 0.29480
 N167 N 0.23681 -0.30196 0.26564
 N168 N 0.22723 -0.29147 0.28393
 C169 C 0.20899 -0.30430 0.29221
 C170 C 0.20685 -0.32394 0.27831
 C171 C 0.22486 -0.32185 0.26159
 H172 H 0.19757 -0.29921 0.30671
 H173 H 0.22874 -0.33371 0.24731
 N174 N 0.25105 -0.23067 0.30306
 N175 N 0.26838 -0.22070 0.29094
 C176 C 0.27315 -0.19987 0.30056
 C177 C 0.25806 -0.19648 0.31967
 C178 C 0.24429 -0.21643 0.32070
 H179 H 0.28636 -0.18787 0.29384
 H180 H 0.23036 -0.22031 0.33334
 H181 H 0.27227 -0.26380 0.28228
 H182 H 0.24998 -0.25024 0.26187
 N183 N 0.70476 0.25241 0.22929
 N184 N 0.71331 0.27257 0.22221
 C185 C 0.70189 0.27927 0.20231
 C186 C 0.68524 0.26241 0.19660
 C187 C 0.68764 0.24564 0.21421
 H188 H 0.70542 0.29524 0.19273
 H189 H 0.67795 0.22948 0.21579
 Cu190 Cu 0.73885 0.28776 0.23956
 Cu191 Cu 0.71670 0.23611 0.25720
 Cu192 Cu 0.76181 0.26290 0.28862
 N193 N 0.76437 0.30250 0.25731
 N194 N 0.77297 0.29276 0.27664
 C195 C 0.79072 0.30596 0.28509
 C196 C 0.79359 0.32504 0.27025
 C197 C 0.77652 0.32225 0.25276
 H198 H 0.80137 0.30147 0.30040
 H199 H 0.77339 0.33356 0.23769
 N200 N 0.74823 0.23263 0.29791
 N201 N 0.73111 0.22238 0.28591
 C202 C 0.72616 0.20177 0.29627
 C203 C 0.74091 0.19883 0.31573
 C204 C 0.75464 0.21881 0.31619
 H205 H 0.71310 0.18960 0.28981
 H206 H 0.76836 0.22297 0.32886
 H207 H 0.72790 0.26544 0.27489
 H208 H 0.75049 0.25026 0.25628
 C209 C 0.26215 0.00538 0.43696
 C210 C 0.26614 0.02501 0.45100
 C211 C 0.26628 0.02255 0.47583
 C212 C 0.26130 0.00094 0.48685
 C213 C 0.25671 -0.01833 0.47222
 C214 C 0.25785 -0.01641 0.44738
 C215 C 0.26115 -0.00156 0.51342
 C216 C 0.26599 -0.02316 0.52448
 C217 C 0.26555 -0.02563 0.54931
 C218 C 0.26137 -0.00601 0.56331
 C219 C 0.25721 0.01578 0.55286
 C220 C 0.25640 0.01771 0.52801
 H221 H 0.26193 0.00711 0.41780
 H222 H 0.27081 0.03756 0.48634
 H223 H 0.25256 -0.03508 0.47998
 H224 H 0.27066 -0.03816 0.51401
 H225 H 0.26089 -0.00775 0.58247
 H226 H 0.25236 0.03445 0.52022
 C227 C 0.74024 0.00091 0.56232
 C228 C 0.73625 0.02158 0.54964
 C229 C 0.73503 0.02088 0.52473
 C230 C 0.73936 0.00006 0.51226
 C231 C 0.74422 -0.02024 0.52556
 C232 C 0.74394 -0.02011 0.55048
 C233 C 0.73909 -0.00047 0.48558
 C234 C 0.73456 -0.02132 0.47322
 C235 C 0.73535 -0.02205 0.44829
 C236 C 0.73909 -0.00137 0.43550
 C237 C 0.74297 0.01967 0.44725
 C238 C 0.74365 0.01984 0.47215
 H239 H 0.73989 0.00112 0.58155
 H240 H 0.73096 0.03676 0.51524
 H241 H 0.74867 -0.03629 0.51677
 H242 H 0.73069 -0.03720 0.48281
 H243 H 0.73843 -0.00161 0.41628
 H244 H 0.74820 0.03592 0.48083
 C245 C 0.43534 0.26691 0.00017
 C246 C 0.44834 0.27056 0.02102
 C247 C 0.47322 0.27206 0.01975
 C248 C 0.48539 0.26848 -0.00187
 C249 C 0.47181 0.26403 -0.02239
 C250 C 0.44688 0.26391 -0.02166
 C251 C 0.51205 0.26926 -0.00305
 C252 C 0.52386 0.27461 -0.02454
 C253 C 0.54877 0.27458 -0.02601
 C254 C 0.56211 0.27051 -0.00540
 C255 C 0.55090 0.26583 0.01636
 C256 C 0.52598 0.26459 0.01723
 H257 H 0.41611 0.26698 0.00088
 H258 H 0.48293 0.27580 0.03581
 H259 H 0.48042 0.26023 -0.03909
 H260 H 0.51389 0.27918 -0.04027
 H261 H 0.58133 0.27096 -0.00631
 H262 H 0.51770 0.25953 0.03381
 C263 C 0.56302 0.73080 0.00416
 C264 C 0.54978 0.72665 0.02488
 C265 C 0.52487 0.72661 0.02362
 C266 C 0.51295 0.73203 0.00226
 C267 C 0.52677 0.73678 -0.01813
 C268 C 0.55168 0.73555 -0.01748
 C269 C 0.48628 0.73275 0.00130
 C270 C 0.47402 0.72920 -0.02023
 C271 C 0.44913 0.73063 -0.02131
 C272 C 0.43623 0.73418 -0.00034
 C273 C 0.44786 0.73713 0.02141
 C274 C 0.47280 0.73709 0.02194
 H275 H 0.58224 0.73035 0.00490
 H276 H 0.51498 0.72197 0.03943
 H277 H 0.51841 0.74190 -0.03461
 H278 H 0.48365 0.72553 -0.03638
 H279 H 0.41699 0.73404 -0.00090
 H280 H 0.48149 0.74085 0.03858
 C281 C -0.00351 0.43938 0.26707
 C282 C 0.01839 0.45050 0.26354
 C283 C 0.01935 0.47489 0.26379
 C284 C -0.00094 0.48831 0.26910
 C285 C -0.02260 0.47656 0.27319
 C286 C -0.02415 0.45226 0.27154
 C287 C 0.00060 0.51434 0.27068
 C288 C -0.01971 0.52844 0.26751
 C289 C -0.01848 0.55269 0.27008
 C290 C 0.00360 0.56313 0.27427
 C291 C 0.02418 0.54967 0.27682
 C292 C 0.02241 0.52538 0.27572
 H293 H -0.00450 0.42060 0.26644
 H294 H 0.03607 0.48318 0.25955
 H295 H -0.03838 0.48601 0.27821
 H296 H -0.03670 0.52075 0.26334
 H297 H 0.00483 0.58191 0.27501
 H298 H 0.03819 0.51527 0.27929
 C299 C -0.00259 0.56076 0.73833
 C300 C 0.01929 0.54935 0.74034
 C301 C 0.01996 0.52502 0.73879
 C302 C -0.00064 0.51200 0.73350
 C303 C -0.02231 0.52412 0.73089
 C304 C -0.02352 0.54829 0.73407
 C305 C 0.00061 0.48604 0.73057
 C306 C -0.01978 0.47190 0.73336
 C307 C -0.01873 0.44777 0.72976
 C308 C 0.00325 0.43740 0.72492
 C309 C 0.02390 0.45085 0.72271
 C310 C 0.02229 0.47509 0.72476
 H311 H -0.00328 0.57955 0.73935
 H312 H 0.03674 0.51647 0.74200
 H313 H -0.03847 0.51500 0.72651
 H314 H -0.03668 0.47942 0.73809
 H315 H 0.00435 0.41867 0.72348
 H316 H 0.03813 0.48520 0.72140
 C317 C 0.37200 0.27754 0.14851
 C318 C 0.37408 0.25991 0.16562
 C319 C 0.35838 0.25903 0.18488
 C320 C 0.34028 0.27574 0.18721
 C321 C 0.33876 0.29373 0.17020
 C322 C 0.35449 0.29458 0.15099
 C323 C 0.38674 0.27728 0.12761
 C324 C 0.39838 0.27658 0.10964
 C325 C 0.41140 0.27508 0.08770
 C326 C 0.40495 0.25831 0.07106
 C327 C 0.41703 0.25688 0.04946
 C328 C 0.43577 0.27226 0.04414
 C329 C 0.44230 0.28899 0.06104
 C330 C 0.43013 0.29041 0.08270
 H331 H 0.38749 0.24654 0.16379
 H332 H 0.36006 0.24487 0.19749
 H333 H 0.32530 0.30706 0.17152
 H334 H 0.35269 0.30828 0.13781
 H335 H 0.39052 0.24633 0.07476
 H336 H 0.41185 0.24358 0.03698
 H337 H 0.45652 0.30118 0.05737
 H338 H 0.43521 0.30352 0.09544
 C339 C 0.62958 0.72089 0.14980
 C340 C 0.62493 0.73607 0.16852
 C341 C 0.64094 0.73790 0.18740
 C342 C 0.66204 0.72462 0.18783
 C343 C 0.66613 0.70901 0.16902
 C344 C 0.65008 0.70724 0.15022
 C345 C 0.61401 0.72010 0.12956
 C346 C 0.60159 0.71976 0.11215
 C347 C 0.58747 0.71984 0.09086
 C348 C 0.56645 0.73279 0.08977
 C349 C 0.55379 0.73439 0.06848
 C350 C 0.56206 0.72314 0.04796
 C351 C 0.58286 0.70967 0.04941
 C352 C 0.59547 0.70806 0.07072
 H353 H 0.60910 0.74676 0.16835
 H354 H 0.63676 0.75004 0.20135
 H355 H 0.68183 0.69824 0.16840
 H356 H 0.65387 0.69544 0.13579
 H357 H 0.56017 0.74209 0.10521
 H358 H 0.53799 0.74511 0.06785
 H359 H 0.58950 0.70058 0.03400
 H360 H 0.61172 0.69799 0.07136
 C361 C 0.62778 0.27918 -0.15176
 C362 C 0.62570 0.26087 -0.16784
 C363 C 0.64165 0.25898 -0.18680
 C364 C 0.66002 0.27537 -0.18987
 C365 C 0.66161 0.29399 -0.17387
 C366 C 0.64563 0.29584 -0.15495
 C367 C 0.61246 0.28022 -0.13130
 C368 C 0.60017 0.28075 -0.11375
 C369 C 0.58616 0.28086 -0.09234
 C370 C 0.56506 0.26802 -0.09100
 C371 C 0.55249 0.26660 -0.06960
 C372 C 0.56092 0.27795 -0.04922
 C373 C 0.58179 0.29135 -0.05094
 C374 C 0.59432 0.29276 -0.07235
 H375 H 0.61200 0.24780 -0.16548
 H376 H 0.63989 0.24437 -0.19864
 H377 H 0.67528 0.30710 -0.17576
 H378 H 0.64743 0.31009 -0.14260
 H379 H 0.55865 0.25864 -0.10632
 H380 H 0.53663 0.25595 -0.06877
 H381 H 0.58854 0.30053 -0.03565
 H382 H 0.61062 0.30276 -0.07319
 C383 C 0.37226 0.72325 -0.14822
 C384 C 0.37430 0.74077 -0.16546
 C385 C 0.35855 0.74150 -0.18464
 C386 C 0.34044 0.72476 -0.18675
 C387 C 0.33896 0.70687 -0.16962
 C388 C 0.35474 0.70617 -0.15049
 C389 C 0.38707 0.72365 -0.12742
 C390 C 0.39878 0.72445 -0.10954
 C391 C 0.41191 0.72601 -0.08771
 C392 C 0.43068 0.71075 -0.08285
 C393 C 0.44294 0.71221 -0.06129
 C394 C 0.43646 0.72891 -0.04434
 C395 C 0.41767 0.74424 -0.04951
 C396 C 0.40550 0.74277 -0.07102
 H397 H 0.38773 0.75416 -0.16381
 H398 H 0.36022 0.75558 -0.19736
 H399 H 0.32549 0.69351 -0.17076
 H400 H 0.35297 0.69255 -0.13721
 H401 H 0.43573 0.69766 -0.09563
 H402 H 0.45719 0.70006 -0.05772
 H403 H 0.41253 0.75752 -0.03699
 H404 H 0.39104 0.75470 -0.07461
 C405 C 0.13813 0.36441 0.26092
 C406 C 0.13875 0.34675 0.27812
 C407 C 0.15807 0.33152 0.27922
 C408 C 0.17707 0.33371 0.26307
 C409 C 0.17628 0.35162 0.24591
 C410 C 0.15695 0.36684 0.24486
 C411 C 0.11816 0.37999 0.25979
 C412 C 0.10133 0.39292 0.25910
 C413 C 0.08107 0.40818 0.25876
 C414 C 0.08143 0.42874 0.27187
 C415 C 0.06126 0.44286 0.27282
 C416 C 0.04041 0.43656 0.26069
 C417 C 0.04042 0.41614 0.24706
 C418 C 0.06063 0.40205 0.24614
 H419 H 0.12425 0.34470 0.29065
 H420 H 0.15789 0.31792 0.29257
 H421 H 0.19060 0.35405 0.23330
 H422 H 0.15668 0.38049 0.23151
 H423 H 0.09713 0.43361 0.28177
 H424 H 0.06171 0.45829 0.28370
 H425 H 0.02475 0.41098 0.23730
 H426 H 0.06018 0.38619 0.23589
 C427 C 0.13958 0.63495 0.74116
 C428 C 0.14218 0.64986 0.72162
 C429 C 0.16131 0.66536 0.72043
 C430 C 0.17826 0.66625 0.73886
 C431 C 0.17542 0.65093 0.75839
 C432 C 0.15625 0.63548 0.75949
 C433 C 0.11966 0.61928 0.74248
 C434 C 0.10283 0.60632 0.74339
 C435 C 0.08251 0.59111 0.74406
 C436 C 0.06269 0.59679 0.75788
 C437 C 0.04234 0.58284 0.75729
 C438 C 0.04156 0.56302 0.74282
 C439 C 0.06181 0.55714 0.72947
 C440 C 0.08213 0.57112 0.73007
 H441 H 0.12935 0.64958 0.70730
 H442 H 0.16255 0.67659 0.70502
 H443 H 0.18780 0.65075 0.77302
 H444 H 0.15441 0.62400 0.77471
 H445 H 0.06282 0.61222 0.76880
 H446 H 0.02714 0.58768 0.76796
 H447 H 0.06166 0.54219 0.71790
 H448 H 0.09733 0.56661 0.71922
 C449 C -0.13995 0.63691 0.26796
 C450 C -0.14317 0.65219 0.28688
 C451 C -0.16250 0.66743 0.28708
 C452 C -0.17903 0.66773 0.26825
 C453 C -0.17562 0.65199 0.24940
 C454 C -0.15626 0.63678 0.24929
 C455 C -0.11967 0.62169 0.26758
 C456 C -0.10243 0.60925 0.26753
 C457 C -0.08152 0.59487 0.26797
 C458 C -0.06400 0.59887 0.28503
 C459 C -0.04355 0.58516 0.28562
 C460 C -0.04028 0.56721 0.26909
 C461 C -0.05802 0.56324 0.25200
 C462 C -0.07850 0.57704 0.25143
 H463 H -0.13063 0.65243 0.30145
 H464 H -0.16419 0.67899 0.30202
 H465 H -0.18771 0.65131 0.23453
 H466 H -0.15394 0.62500 0.23454
 H467 H -0.06616 0.61258 0.29795
 H468 H -0.03040 0.58842 0.29921
 H469 H -0.05590 0.54971 0.23891
 H470 H -0.09194 0.57384 0.23809
 C471 C -0.13996 0.36295 0.73116
 C472 C -0.15650 0.36306 0.74968
 C473 C -0.17578 0.34771 0.74948
 C474 C -0.17887 0.33183 0.73070
 C475 C -0.16209 0.33214 0.71203
 C476 C -0.14285 0.34753 0.71231
 C477 C -0.11978 0.37834 0.73162
 C478 C -0.10262 0.39091 0.73174
 C479 C -0.08178 0.40545 0.73138
 C480 C -0.07853 0.42270 0.74850
 C481 C -0.05807 0.43657 0.74807
 C482 C -0.04059 0.43327 0.73051
 C483 C -0.04413 0.41595 0.71336
 C484 C -0.06455 0.40216 0.71381
 H485 H -0.15444 0.37494 0.76437
 H486 H -0.18804 0.34838 0.76424
 H487 H -0.16352 0.32048 0.69714
 H488 H -0.13013 0.34729 0.69786
 H489 H -0.09174 0.42535 0.76222
 H490 H -0.05574 0.44961 0.76164
 H491 H -0.03119 0.41324 0.69940
 H492 H -0.06690 0.38891 0.70044
 C493 C 0.27295 0.15060 0.37554
 C494 C 0.29315 0.15693 0.36249
 C495 C 0.29242 0.17599 0.34696
 C496 C 0.27141 0.18900 0.34418
 C497 C 0.25133 0.18274 0.35776
 C498 C 0.25211 0.16366 0.37327
 C499 C 0.27328 0.13008 0.39033
 C500 C 0.27334 0.11252 0.40216
 C501 C 0.27306 0.09110 0.41555
 C502 C 0.28523 0.07168 0.40697
 C503 C 0.28356 0.05035 0.41888
 C504 C 0.26966 0.04812 0.43956
 C505 C 0.25803 0.06789 0.44844
 C506 C 0.25968 0.08923 0.43646
 H507 H 0.30938 0.14693 0.36408
 H508 H 0.30831 0.18036 0.33708
 H509 H 0.23481 0.19219 0.35608
 H510 H 0.23632 0.15886 0.38320
 H511 H 0.29565 0.07293 0.39082
 H512 H 0.29296 0.03551 0.41179
 H513 H 0.24700 0.06666 0.46417
 H514 H 0.25010 0.10412 0.44320
 C515 C 0.72776 0.14591 0.62599
 C516 C 0.74792 0.16011 0.62684
 C517 C 0.74843 0.17942 0.64176
 C518 C 0.72875 0.18481 0.65618
 C519 C 0.70838 0.17063 0.65484
 C520 C 0.70793 0.15132 0.63989
 C521 C 0.72796 0.12520 0.61177
 C522 C 0.72871 0.10755 0.60035
 C523 C 0.73037 0.08612 0.58738
 C524 C 0.74744 0.06966 0.59397
 C525 C 0.74926 0.04874 0.58169
 C526 C 0.73399 0.04392 0.56257
 C527 C 0.71691 0.06060 0.55598
 C528 C 0.71511 0.08157 0.56835
 H529 H 0.76344 0.15604 0.61624
 H530 H 0.76446 0.18976 0.64227
 H531 H 0.69279 0.17427 0.66542
 H532 H 0.69223 0.14043 0.63941
 H533 H 0.75941 0.07301 0.60860
 H534 H 0.76284 0.03643 0.58696
 H535 H 0.70476 0.05731 0.54150
 H536 H 0.70179 0.09418 0.56312
 C537 C 0.27214 -0.15120 0.62484
 C538 C 0.25128 -0.16424 0.62741
 C539 C 0.25060 -0.18329 0.64297
 C540 C 0.27080 -0.18954 0.65628
 C541 C 0.29182 -0.17657 0.65319
 C542 C 0.29245 -0.15753 0.63761
 C543 C 0.27239 -0.13069 0.61002
 C544 C 0.27244 -0.11313 0.59819
 C545 C 0.27220 -0.09170 0.58482
 C546 C 0.25907 -0.08988 0.56379
 C547 C 0.25751 -0.06854 0.55180
 C548 C 0.26897 -0.04872 0.56079
 C549 C 0.28261 -0.05089 0.58160
 C550 C 0.28419 -0.07222 0.59352
 H551 H 0.23541 -0.15943 0.61769
 H552 H 0.23408 -0.19272 0.64490
 H553 H 0.30780 -0.18095 0.66286
 H554 H 0.30869 -0.14756 0.63579
 H555 H 0.24962 -0.10481 0.55696
 H556 H 0.24667 -0.06735 0.53597
 H557 H 0.29187 -0.03602 0.58880
 H558 H 0.29441 -0.07342 0.60976
 C559 C 0.72668 -0.14658 0.37227
 C560 C 0.70716 -0.15167 0.35787
 C561 C 0.70766 -0.17101 0.34295
 C562 C 0.72778 -0.18554 0.34215
 C563 C 0.74714 -0.18046 0.35706
 C564 C 0.74658 -0.16112 0.37196
 C565 C 0.72686 -0.12584 0.38647
 C566 C 0.72760 -0.10817 0.39785
 C567 C 0.72929 -0.08671 0.41076
 C568 C 0.71430 -0.08227 0.43009
 C569 C 0.71616 -0.06126 0.44239
 C570 C 0.73301 -0.04443 0.43544
 C571 C 0.74801 -0.04916 0.41606
 C572 C 0.74614 -0.07011 0.40383
 H573 H 0.69166 -0.14051 0.35792
 H574 H 0.69233 -0.17438 0.33196
 H575 H 0.76298 -0.19106 0.35699
 H576 H 0.76186 -0.15729 0.38294
 H577 H 0.70118 -0.09499 0.43561
 H578 H 0.70423 -0.05805 0.45711
 H579 H 0.76144 -0.03676 0.41052
 H580 H 0.75791 -0.07338 0.38899
 C581 C 0.63847 0.74047 -0.13822
 C582 C 0.64131 0.76019 -0.15259
 C583 C 0.65676 0.75969 -0.17204
 C584 C 0.66964 0.73940 -0.17739
 C585 C 0.66658 0.71964 -0.16283
 C586 C 0.65110 0.72019 -0.14340
 C587 C 0.62277 0.74104 -0.11805
 C588 C 0.60977 0.74130 -0.10102
 C589 C 0.59448 0.74118 -0.08052
 C590 C 0.60159 0.75234 -0.05971
 C591 C 0.58740 0.75105 -0.03934
 C592 C 0.56591 0.73854 -0.03953
 C593 C 0.55865 0.72785 -0.06072
 C594 C 0.57287 0.72915 -0.08106
 H595 H 0.63166 0.77601 -0.14870
 H596 H 0.65874 0.77531 -0.18265
 H597 H 0.67599 0.70367 -0.16643
 H598 H 0.64902 0.70480 -0.13239
 H599 H 0.61826 0.76174 -0.05912
 H600 H 0.59331 0.75972 -0.02339
 H601 H 0.54234 0.71787 -0.06134
 H602 H 0.56723 0.72040 -0.09706
 C603 C 0.36070 0.26020 -0.14256
 C604 C 0.35764 0.24017 -0.15612
 C605 C 0.34226 0.24038 -0.17558
 C606 C 0.32967 0.26069 -0.18176
 C607 C 0.33294 0.28077 -0.16799
 C608 C 0.34835 0.28049 -0.14854
 C609 C 0.37630 0.25985 -0.12236
 C610 C 0.38923 0.25962 -0.10532
 C611 C 0.40440 0.25959 -0.08479
 C612 C 0.39780 0.24710 -0.06441
 C613 C 0.41190 0.24800 -0.04402
 C614 C 0.43280 0.26145 -0.04378
 C615 C 0.43954 0.27354 -0.06453
 C616 C 0.42540 0.27262 -0.08489
 H617 H 0.36706 0.22433 -0.15160
 H618 H 0.34014 0.22453 -0.18555
 H619 H 0.32375 0.29675 -0.17223
 H620 H 0.35059 0.29611 -0.13814
 H621 H 0.38160 0.23691 -0.06417
 H622 H 0.40641 0.23828 -0.02842
 H623 H 0.45535 0.28427 -0.06480
 H624 H 0.43062 0.28241 -0.10055
 C625 C 0.36243 0.73940 0.14318
 C626 C 0.34487 0.72225 0.14507
 C627 C 0.32975 0.72163 0.16479
 C628 C 0.33195 0.73822 0.18291
 C629 C 0.34978 0.75533 0.18084
 C630 C 0.36488 0.75589 0.16112
 C631 C 0.37783 0.74013 0.12277
 C632 C 0.39062 0.74061 0.10559
 C633 C 0.40569 0.74089 0.08493
 C634 C 0.39894 0.75344 0.06467
 C635 C 0.41295 0.75274 0.04416
 C636 C 0.43389 0.73941 0.04367
 C637 C 0.44079 0.72727 0.06431
 C638 C 0.42675 0.72799 0.08478
 H639 H 0.34281 0.70940 0.13125
 H640 H 0.31620 0.70831 0.16562
 H641 H 0.35223 0.76825 0.19446
 H642 H 0.37845 0.76921 0.15986
 H643 H 0.38269 0.76353 0.06462
 H644 H 0.40733 0.76250 0.02865
 H645 H 0.45665 0.71663 0.06438
 H646 H 0.43210 0.71815 0.10035
 C647 C 0.63797 0.26103 0.13665
 C648 C 0.65621 0.27753 0.13763
 C649 C 0.67152 0.27808 0.15715
 C650 C 0.66881 0.26208 0.17599
 C651 C 0.65032 0.24561 0.17483
 C652 C 0.63503 0.24511 0.15529
 C653 C 0.62230 0.26048 0.11649
 C654 C 0.60929 0.26024 0.09951
 C655 C 0.59396 0.26036 0.07909
 C656 C 0.60102 0.24925 0.05822
 C657 C 0.58676 0.25049 0.03795
 C658 C 0.56524 0.26292 0.03830
 C659 C 0.55805 0.27359 0.05953
 C660 C 0.57235 0.27233 0.07977
 H661 H 0.65864 0.28994 0.12327
 H662 H 0.68556 0.29091 0.15727
 H663 H 0.64747 0.23315 0.18901
 H664 H 0.62092 0.23230 0.15474
 H665 H 0.61770 0.23989 0.05752
 H666 H 0.59263 0.24184 0.02197
 H667 H 0.54174 0.28353 0.06028
 H668 H 0.56675 0.28106 0.09582
 C669 C -0.14904 0.62594 0.72867
 C670 C -0.16575 0.62551 0.74705
 C671 C -0.18423 0.64174 0.74745
 C672 C -0.18620 0.65888 0.72948
 C673 C -0.16953 0.65860 0.71070
 C674 C -0.15114 0.64232 0.71038
 C675 C -0.12884 0.61064 0.72929
 C676 C -0.11135 0.59860 0.73005
 C677 C -0.08985 0.58516 0.73137
 C678 C -0.08505 0.56786 0.71467
 C679 C -0.06357 0.55564 0.71557
 C680 C -0.04662 0.56069 0.73315
 C681 C -0.05177 0.57793 0.74997
 C682 C -0.07321 0.59007 0.74906
 H683 H -0.16423 0.61291 0.76136
 H684 H -0.19653 0.64098 0.76218
 H685 H -0.17024 0.67107 0.69629
 H686 H -0.13826 0.64283 0.69607
 H687 H -0.09776 0.56403 0.70081
 H688 H -0.05999 0.54262 0.70225
 H689 H -0.03922 0.58198 0.76390
 H690 H -0.07673 0.60343 0.76206
 C691 C -0.15036 0.37561 0.27420
 C692 C -0.16352 0.37338 0.25328
 C693 C -0.18220 0.35737 0.25212
 C694 C -0.18784 0.34327 0.27187
 C695 C -0.17486 0.34611 0.29300
 C696 C -0.15624 0.36214 0.29412
 C697 C -0.12993 0.39063 0.27487
 C698 C -0.11230 0.40252 0.27539
 C699 C -0.09072 0.41591 0.27581
 C700 C -0.08921 0.43707 0.26349
 C701 C -0.06770 0.44923 0.26265
 C702 C -0.04740 0.44030 0.27406
 C703 C -0.04926 0.41928 0.28684
 C704 C -0.07078 0.40718 0.28768
 H705 H -0.15903 0.38366 0.23771
 H706 H -0.19169 0.35560 0.23554
 H707 H -0.17888 0.33584 0.30866
 H708 H -0.14615 0.36372 0.31040
 H709 H -0.10451 0.44391 0.25413
 H710 H -0.06673 0.46523 0.25245
 H711 H -0.03402 0.41211 0.29604
 H712 H -0.07176 0.39081 0.29727
 C713 C 0.14956 0.37396 0.71748
 C714 C 0.16315 0.37213 0.73819
 C715 C 0.18171 0.35603 0.73961
 C716 C 0.18682 0.34141 0.72032
 C717 C 0.17339 0.34382 0.69937
 C718 C 0.15489 0.35995 0.69800
 C719 C 0.12930 0.38918 0.71668
 C720 C 0.11185 0.40132 0.71626
 C721 C 0.09051 0.41507 0.71620
 C722 C 0.08864 0.43449 0.73089
 C723 C 0.06718 0.44663 0.73238
 C724 C 0.04728 0.43941 0.71925
 C725 C 0.04956 0.42027 0.70399
 C726 C 0.07103 0.40818 0.70252
 H727 H 0.15910 0.38281 0.75344
 H728 H 0.19153 0.35462 0.75604
 H729 H 0.17698 0.33313 0.68407
 H730 H 0.14446 0.36120 0.68189
 H731 H 0.10356 0.43989 0.74166
 H732 H 0.06589 0.46112 0.74449
 H733 H 0.03464 0.41449 0.69345
 H734 H 0.07229 0.39316 0.69110
 C735 C 0.15060 0.62562 0.28215
 C736 C 0.15529 0.63996 0.30152
 C737 C 0.17394 0.65598 0.30048
 C738 C 0.18815 0.65793 0.27998
 C739 C 0.18368 0.64299 0.26081
 C740 C 0.16497 0.62700 0.26188
 C741 C 0.13020 0.61054 0.28259
 C742 C 0.11260 0.59858 0.28284
 C743 C 0.09106 0.58511 0.28283
 C744 C 0.07151 0.59248 0.29617
 C745 C 0.04991 0.58057 0.29477
 C746 C 0.04760 0.56112 0.27997
 C747 C 0.06754 0.55345 0.26713
 C748 C 0.08913 0.56542 0.26852
 H749 H 0.14426 0.63905 0.31729
 H750 H 0.17702 0.66693 0.31570
 H751 H 0.19413 0.64406 0.24470
 H752 H 0.16141 0.61605 0.24672
 H753 H 0.07281 0.60771 0.30731
 H754 H 0.03495 0.58671 0.30508
 H755 H 0.06622 0.53869 0.25537
 H756 H 0.10412 0.55965 0.25802
 C757 C 0.74651 -0.14014 0.63490
 C758 C 0.72703 -0.14277 0.65013
 C759 C 0.72561 -0.16195 0.66541
 C760 C 0.74370 -0.17882 0.66567
 C761 C 0.76317 -0.17607 0.65015
 C762 C 0.76455 -0.15684 0.63489
 C763 C 0.74795 -0.12020 0.61944
 C764 C 0.74872 -0.10331 0.60669
 C765 C 0.74900 -0.08294 0.59177
 C766 C 0.73610 -0.08267 0.57056
 C767 C 0.73496 -0.06239 0.55683
 C768 C 0.74671 -0.04208 0.56417
 C769 C 0.76007 -0.04268 0.58526
 C770 C 0.76119 -0.06300 0.59897
 H771 H 0.71293 -0.12995 0.65023
 H772 H 0.71026 -0.16354 0.67688
 H773 H 0.77753 -0.18854 0.64993
 H774 H 0.77972 -0.15494 0.62317
 H775 H 0.72650 -0.09799 0.56490
 H776 H 0.72426 -0.06238 0.54086
 H777 H 0.76952 -0.02740 0.59123
 H778 H 0.77122 -0.06303 0.61537
 C779 C 0.25397 -0.13623 0.36420
 C780 C 0.23592 -0.15295 0.36502
 C781 C 0.23726 -0.17263 0.35064
 C782 C 0.25669 -0.17581 0.33522
 C783 C 0.27478 -0.15890 0.33466
 C784 C 0.27340 -0.13928 0.34904
 C785 C 0.25273 -0.11587 0.37878
 C786 C 0.25240 -0.09857 0.39070
 C787 C 0.25295 -0.07770 0.40455
 C788 C 0.23717 -0.07463 0.42351
 C789 C 0.23844 -0.05454 0.43732
 C790 C 0.25553 -0.03732 0.43228
 C791 C 0.27111 -0.04051 0.41302
 C792 C 0.26982 -0.06056 0.39929
 H793 H 0.22080 -0.15073 0.37671
 H794 H 0.22292 -0.18513 0.35148
 H795 H 0.29012 -0.16079 0.32325
 H796 H 0.28751 -0.12647 0.34832
 H797 H 0.22402 -0.08780 0.42771
 H798 H 0.22606 -0.05245 0.45188
 H799 H 0.28469 -0.02774 0.40892
 H800 H 0.28218 -0.06282 0.38472
 C801 C 0.74488 0.13960 0.36255
 C802 C 0.76262 0.15661 0.36309
 C803 C 0.76130 0.17594 0.34796
 C804 C 0.74219 0.17849 0.33204
 C805 C 0.72440 0.16127 0.33174
 C806 C 0.72576 0.14199 0.34689
 C807 C 0.74624 0.11962 0.37796
 C808 C 0.74704 0.10272 0.39070
 C809 C 0.74743 0.08238 0.40566
 C810 C 0.75965 0.06247 0.39840
 C811 C 0.75874 0.04221 0.41221
 C812 C 0.74555 0.04161 0.43345
 C813 C 0.73380 0.06188 0.44087
 C814 C 0.73473 0.08212 0.42703
 H815 H 0.77752 0.15490 0.37513
 H816 H 0.77543 0.18866 0.34862
 H817 H 0.70933 0.16267 0.31993
 H818 H 0.71190 0.12892 0.34637
 H819 H 0.76957 0.06251 0.38190
 H820 H 0.76821 0.02696 0.40621
 H821 H 0.72328 0.06188 0.45698
 H822 H 0.72513 0.09741 0.43276
 C823 C 0.25253 0.13538 0.63635
 C824 C 0.23447 0.15205 0.63559
 C825 C 0.23576 0.17170 0.65002
 C826 C 0.25516 0.17489 0.66544
 C827 C 0.27323 0.15801 0.66596
 C828 C 0.27190 0.13843 0.65153
 C829 C 0.25137 0.11507 0.62168
 C830 C 0.25113 0.09782 0.60969
 C831 C 0.25183 0.07698 0.59577
 C832 C 0.23634 0.07397 0.57662
 C833 C 0.23777 0.05392 0.56277
 C834 C 0.25473 0.03667 0.56797
 C835 C 0.27003 0.03981 0.58741
 C836 C 0.26857 0.05981 0.60119
 H837 H 0.21937 0.14983 0.62391
 H838 H 0.22143 0.18418 0.64923
 H839 H 0.28853 0.15991 0.67738
 H840 H 0.28601 0.12564 0.65221
 H841 H 0.22329 0.08716 0.57230
 H842 H 0.22559 0.05186 0.54807
 H843 H 0.28351 0.02702 0.59164
 H844 H 0.28072 0.06202 0.61592
   
