data_POSCAR
  _audit_creation_date              2014-09-24
  _audit_creation_method            'ToBaCCo'
  _symmetry_space_group_name_H-M    'P1'
  _symmetry_Int_Tables_number       1
  _symmetry_cell_setting            triclinic
  loop_
  _symmetry_equiv_pos_as_xyz
 x,y,z
_cell_length_a 42.2003
_cell_length_b 41.0709
_cell_length_c 13.7985
_cell_angle_alpha 89.952400
_cell_angle_beta 89.657200
_cell_angle_gamma 119.696500
loop_
  _atom_site_label
  _atom_site_type_symbol
  _atom_site_fract_x
  _atom_site_fract_y
  _atom_site_fract_z
C1 C 0.18265 0.47994 0.40618
 C2 C 0.16397 0.47657 0.49353
 C3 C 0.17876 0.47534 0.58326
 C4 C 0.21606 0.48470 0.58739
 C5 C 0.23694 0.49267 0.50071
 C6 C 0.22017 0.49003 0.40979
 C7 C 0.24205 0.49988 0.32578
 C8 C 0.27818 0.50826 0.32929
 C9 C 0.29532 0.51053 0.41795
 C10 C 0.27475 0.50335 0.50498
 C11 C 0.23367 0.48824 0.67603
 C12 C 0.26952 0.49595 0.67965
 C13 C 0.29155 0.50575 0.59601
 C14 C 0.32905 0.51535 0.59929
 C15 C 0.34769 0.51960 0.51161
 C16 C 0.33209 0.51873 0.42204
 H17 H 0.23189 0.50206 0.25589
 H18 H 0.29224 0.51283 0.26082
 H19 H 0.22029 0.48548 0.74484
 H20 H 0.27885 0.49290 0.74962
 H21 H 0.13547 0.46917 0.49096
 H22 H 0.37597 0.52617 0.51276
 C23 C 0.54942 -0.14530 0.58586
 C24 C 0.55053 -0.12811 0.49750
 C25 C 0.55065 -0.14462 0.40903
 C26 C 0.54810 -0.18033 0.40836
 C27 C 0.54772 -0.19787 0.49720
 C28 C 0.54696 -0.18099 0.58616
 C29 C 0.54183 -0.20118 0.67236
 C30 C 0.54125 -0.23530 0.67208
 C31 C 0.54701 -0.25019 0.58610
 C32 C 0.54777 -0.23255 0.49708
 C33 C 0.54392 -0.19995 0.32185
 C34 C 0.54328 -0.23411 0.32189
 C35 C 0.54807 -0.24961 0.40795
 C36 C 0.54994 -0.28329 0.40803
 C37 C 0.54746 -0.30115 0.49703
 C38 C 0.54892 -0.28382 0.58603
 H39 H 0.53714 -0.19137 0.74075
 H40 H 0.53510 -0.25038 0.74005
 H41 H 0.53999 -0.18968 0.25337
 H42 H 0.53780 -0.24875 0.25366
 H43 H 0.55333 -0.10039 0.49764
 H44 H 0.54927 -0.32661 0.49717
 C45 C 1.18474 0.66997 0.41492
 C46 C 1.16786 0.65340 0.50306
 C47 C 1.18441 0.66843 0.59241
 C48 C 1.21797 0.70307 0.59181
 C49 C 1.23761 0.71741 0.50368
 C50 C 1.22104 0.70048 0.41495
 C51 C 1.24064 0.71549 0.32860
 C52 C 1.27454 0.74789 0.32852
 C53 C 1.29222 0.76532 0.41540
 C54 C 1.27288 0.75026 0.50400
 C55 C 1.23029 0.72624 0.67358
 C56 C 1.26397 0.75867 0.67370
 C57 C 1.28734 0.76938 0.59249
 C58 C 1.32269 0.80154 0.59427
 C59 C 1.34031 0.81708 0.50599
 C60 C 1.32666 0.79929 0.41679
 H61 H 1.22972 0.70275 0.25929
 H62 H 1.28523 0.75970 0.25831
 H63 H 1.21307 0.72106 0.73650
 H64 H 1.27040 0.77629 0.73683
 H65 H 1.14092 0.62878 0.50157
 H66 H 1.36683 0.84234 0.50730
 C67 C 0.68816 0.49250 0.58964
 C68 C 0.67509 0.49682 0.49992
 C69 C 0.69306 0.49916 0.41250
 C70 C 0.72736 0.50076 0.41451
 C71 C 0.74123 0.49603 0.50364
 C72 C 0.72201 0.49240 0.59181
 C73 C 0.73883 0.49166 0.67898
 C74 C 0.77131 0.49087 0.67953
 C75 C 0.79115 0.49521 0.59386
 C76 C 0.77530 0.49650 0.50473
 C77 C 0.74943 0.50953 0.33110
 C78 C 0.78175 0.50836 0.33182
 C79 C 0.79392 0.49925 0.41659
 C80 C 0.82525 0.49486 0.41704
 C81 C 0.84068 0.49400 0.50604
 C82 C 0.82599 0.49753 0.59435
 H83 H 0.72833 0.49308 0.74901
 H84 H 0.78043 0.48653 0.74883
 H85 H 0.74267 0.51854 0.26469
 H86 H 0.79774 0.51628 0.26581
 H87 H 0.64906 0.49612 0.49724
 H88 H 0.86595 0.49313 0.50584
 C89 C 0.46900 0.30606 0.59427
 C90 C 0.47253 0.32385 0.50513
 C91 C 0.46816 0.30531 0.41695
 C92 C 0.45803 0.26674 0.41780
 C93 C 0.45424 0.24810 0.50763
 C94 C 0.45924 0.26765 0.59606
 C95 C 0.45385 0.24805 0.68358
 C96 C 0.44694 0.21133 0.68492
 C97 C 0.44161 0.19102 0.59882
 C98 C 0.44539 0.20975 0.50902
 C99 C 0.45077 0.24597 0.33187
 C100 C 0.44383 0.20919 0.33290
 C101 C 0.44117 0.19051 0.42047
 C102 C 0.43539 0.15349 0.42201
 C103 C 0.43453 0.13656 0.51051
 C104 C 0.43517 0.15351 0.59914
 H105 H 0.45502 0.26066 0.75291
 H106 H 0.44705 0.19983 0.75505
 H107 H 0.45018 0.25762 0.26230
 H108 H 0.44103 0.19587 0.26359
 H109 H 0.48048 0.35334 0.50435
 H110 H 0.42989 0.10809 0.50993
 C111 C 0.65767 0.20784 0.58692
 C112 C 0.64126 0.19508 0.49703
 C113 C 0.66094 0.20752 0.41042
 C114 C 0.69906 0.23306 0.41336
 C115 C 0.71647 0.24601 0.50439
 C116 C 0.69562 0.23373 0.59146
 C117 C 0.71358 0.24689 0.68022
 C118 C 0.75090 0.27157 0.68383
 C119 C 0.77270 0.28204 0.59958
 C120 C 0.75504 0.27016 0.50852
 C121 C 0.72056 0.24497 0.32869
 C122 C 0.75781 0.26987 0.33256
 C123 C 0.77587 0.28204 0.42154
 C124 C 0.81411 0.30621 0.42576
 C125 C 0.83071 0.31928 0.51547
 C126 C 0.81131 0.30578 0.60291
 H127 H 0.69928 0.23852 0.74864
 H128 H 0.76211 0.28282 0.75398
 H129 H 0.70925 0.23512 0.25791
 H130 H 0.77219 0.27945 0.26427
 H131 H 0.61234 0.17474 0.49450
 H132 H 0.86013 0.33718 0.51694
 N133 N 0.96637 0.52081 0.10883
 N134 N 0.93701 0.52434 0.11705
 N135 N 1.04370 0.53567 0.16958
 N136 N 1.07141 0.55468 0.22879
 N137 N 1.04327 0.55771 0.10133
 N138 N 1.07052 0.59213 0.11179
 N139 N 0.96711 0.49935 0.17838
 N140 N 0.93874 0.48833 0.23688
 C141 C 0.92051 0.50445 0.19820
 C142 C 1.08794 0.58985 0.19107
 N143 N 1.03867 0.44048 0.10280
 N144 N 1.06619 0.43393 0.11093
 N145 N 0.96358 0.42745 0.17869
 N146 N 0.93583 0.41044 0.23989
 N147 N 0.96191 0.40413 0.11123
 N148 N 0.93317 0.37070 0.12467
 N149 N 1.04028 0.46373 0.17045
 N150 N 1.06870 0.47340 0.22685
 Mn151 Mn 1.00373 0.48156 0.17551
 C152 C 1.08453 0.45458 0.18886
 C153 C 0.91722 0.37504 0.20510
 N154 N 1.04132 0.55609 -0.10628
 N155 N 1.07200 0.58830 -0.11454
 N156 N 0.96249 0.49689 -0.16732
 N157 N 0.93542 0.48982 -0.22709
 N158 N 0.96457 0.52011 -0.09913
 N159 N 0.93907 0.52938 -0.11008
 N160 N 1.03905 0.53297 -0.17518
 N161 N 1.06774 0.54913 -0.23342
 Mn162 Mn 1.00387 0.53902 0.00117
 C163 C 1.08781 0.58366 -0.19489
 C164 C 0.92106 0.51027 -0.18977
 N165 N 0.95884 0.40257 -0.09729
 N166 N 0.92929 0.36929 -0.10416
 N167 N 1.03597 0.46108 -0.17405
 N168 N 1.06250 0.46873 -0.23716
 N169 N 1.03550 0.43853 -0.10581
 N170 N 1.06156 0.43022 -0.12038
 N171 N 0.95939 0.42509 -0.16582
 N172 N 0.93045 0.40772 -0.22152
 Mn173 Mn 0.99871 0.42103 0.00276
 Mn174 Mn 0.99921 0.47898 -0.17187
 Cl175 Cl 1.00139 0.48014 0.00186
 C176 C 0.91201 0.37299 -0.18225
 C177 C 1.07812 0.44918 -0.20244
 N178 N 0.46986 0.43934 0.10914
 N179 N 0.46059 0.40368 0.11844
 N180 N 0.46692 0.51026 0.17752
 N181 N 0.45365 0.52592 0.23659
 N182 N 0.44278 0.49004 0.11178
 N183 N 0.41261 0.49183 0.12330
 N184 N 0.49331 0.45957 0.17631
 N185 N 0.50025 0.43821 0.23385
 C186 C 0.47943 0.40348 0.19725
 C187 C 0.41982 0.51409 0.20159
 N188 N 0.56427 0.59123 0.10155
 N189 N 0.57620 0.62740 0.11155
 N190 N 0.56708 0.52123 0.17012
 N191 N 0.58146 0.50693 0.22951
 N192 N 0.58967 0.53929 0.09843
 N193 N 0.61977 0.53720 0.10598
 N194 N 0.54097 0.57209 0.17105
 N195 N 0.53665 0.59476 0.23073
 Mn196 Mn 0.51702 0.51584 0.17490
 C197 C 0.55883 0.62915 0.19252
 C198 C 0.61426 0.51718 0.18837
 N199 N 0.44076 0.48965 -0.09538
 N200 N 0.41014 0.49076 -0.10180
 N201 N 0.48966 0.45867 -0.17134
 N202 N 0.49637 0.43729 -0.22940
 N203 N 0.46782 0.43882 -0.10005
 N204 N 0.45952 0.40338 -0.10698
 N205 N 0.46332 0.50918 -0.16581
 N206 N 0.44827 0.52327 -0.22369
 Mn207 Mn 0.45488 0.46399 0.00637
 C208 C 0.41524 0.51169 -0.18217
 C209 C 0.47711 0.40293 -0.18888
 N210 N 0.58743 0.53835 -0.11011
 N211 N 0.61613 0.53377 -0.11968
 N212 N 0.53758 0.57106 -0.17214
 N213 N 0.53277 0.59354 -0.23133
 N214 N 0.56220 0.59049 -0.10663
 N215 N 0.57453 0.62666 -0.11867
 N216 N 0.56336 0.51986 -0.17768
 N217 N 0.57529 0.50271 -0.23598
 Mn218 Mn 0.57635 0.56514 -0.00428
 Mn219 Mn 0.51342 0.51479 -0.17286
 Cl220 Cl 0.51541 0.51496 0.00108
 C221 C 0.60826 0.51188 -0.19912
 C222 C 0.55602 0.62811 -0.19670
 N223 N 0.42179 -0.05396 0.11234
 N224 N 0.39540 -0.08898 0.12269
 N225 N 0.46184 0.02972 0.17661
 N226 N 0.46351 0.05608 0.23461
 N227 N 0.43652 0.02098 0.11089
 N228 N 0.42030 0.04115 0.12219
 N229 N 0.44661 -0.04521 0.17950
 N230 N 0.43739 -0.07392 0.23867
 C231 C 0.40543 -0.10092 0.20193
 C232 C 0.43739 0.06282 0.19964
 N233 N 0.56255 0.06301 0.09928
 N234 N 0.58974 0.09773 0.10586
 N235 N 0.52376 -0.01973 0.17220
 N236 N 0.52253 -0.04604 0.22972
 N237 N 0.54775 -0.01189 0.10225
 N238 N 0.56346 -0.03265 0.11008
 N239 N 0.53911 0.05518 0.17061
 N240 N 0.55018 0.08422 0.22915
 Mn241 Mn 0.49284 0.00501 0.17611
 C242 C 0.58164 0.11051 0.18707
 C243 C 0.54752 -0.05367 0.19001
 N244 N 0.43467 0.01988 -0.09756
 N245 N 0.41891 0.04061 -0.10603
 N246 N 0.44336 -0.04717 -0.16624
 N247 N 0.43202 -0.07590 -0.22598
 N248 N 0.41991 -0.05503 -0.09490
 N249 N 0.39244 -0.08951 -0.10267
 N250 N 0.45849 0.02744 -0.16783
 N251 N 0.45939 0.05330 -0.22644
 Mn252 Mn 0.42780 -0.01716 0.00775
 C253 C 0.43449 0.06111 -0.18702
 C254 C 0.40037 -0.10206 -0.18461
 N255 N 0.54578 -0.01318 -0.10579
 N256 N 0.56164 -0.03374 -0.11589
 N257 N 0.53570 0.05309 -0.17424
 N258 N 0.54471 0.08205 -0.23225
 N259 N 0.56053 0.06172 -0.10720
 N260 N 0.58672 0.09686 -0.11644
 N261 N 0.52059 -0.02186 -0.17185
 N262 N 0.51872 -0.04855 -0.22905
 Mn263 Mn 0.55455 0.02503 -0.00293
 Mn264 Mn 0.48955 0.00286 -0.17141
 Cl265 Cl 0.49115 0.00392 0.00239
 C266 C 0.54455 -0.05555 -0.19310
 C267 C 0.57650 0.10903 -0.19469
 C268 C 1.16176 0.46971 0.32032
 C269 C 1.16605 0.45096 0.24219
 C270 C 1.13772 0.44299 0.18166
 C271 C 1.11796 0.45699 0.22718
 O272 O 1.13200 0.47264 0.31140
 H273 H 1.18586 0.44175 0.23287
 H274 H 1.13171 0.42802 0.11368
 C275 C 0.55786 0.70205 0.32427
 C276 C 0.57945 0.72311 0.24688
 C277 C 0.58239 0.69842 0.18706
 C278 C 0.56294 0.66416 0.23221
 O279 O 0.54853 0.66620 0.31586
 H280 H 0.59337 0.75321 0.23725
 H281 H 0.59751 0.70473 0.11953
 C282 C 0.34835 -0.18265 0.33399
 C283 C 0.35205 -0.19956 0.25106
 C284 C 0.37435 -0.17094 0.19045
 C285 C 0.38399 -0.13879 0.24200
 O286 O 0.36892 -0.14563 0.32911
 H287 H 0.34112 -0.22910 0.23692
 H288 H 0.38296 -0.17317 0.11791
 C289 C 0.84354 0.49213 0.32728
 C290 C 0.82627 0.47481 0.24211
 C291 C 0.85335 0.47894 0.18034
 C292 C 0.88485 0.49715 0.23336
 O293 O 0.87910 0.50470 0.32262
 H294 H 0.79734 0.46023 0.22716
 H295 H 0.85039 0.46852 0.10702
 C296 C 0.47582 0.32822 0.32710
 C297 C 0.49526 0.32706 0.24733
 C298 C 0.49740 0.35397 0.18538
 C299 C 0.48027 0.37039 0.23314
 O300 O 0.46771 0.35542 0.31946
 H301 H 0.50755 0.30961 0.23677
 H302 H 0.51128 0.36193 0.11593
 C303 C 0.64049 0.18988 0.32073
 C304 C 0.64145 0.20820 0.23577
 C305 C 0.61922 0.18059 0.17341
 C306 C 0.60527 0.14788 0.22640
 O307 O 0.61779 0.15335 0.31566
 H308 H 0.65667 0.23798 0.22083
 H309 H 0.61364 0.18385 0.09864
 C310 C 0.42864 0.13144 -0.31677
 C311 C 0.40774 0.13004 -0.23733
 C312 C 0.40685 0.10309 -0.17766
 C313 C 0.42687 0.08980 -0.22522
 O314 O 0.43952 0.10632 -0.30986
 H315 H 0.39323 0.14529 -0.22608
 H316 H 0.39306 0.09402 -0.10830
 C317 C 0.66655 0.48902 -0.32785
 C318 C 0.66198 0.46784 -0.24518
 C319 C 0.63997 0.47425 -0.18491
 C320 C 0.63143 0.49748 -0.23630
 O321 O 0.64666 0.50584 -0.32326
 H322 H 0.67190 0.44852 -0.23138
 H323 H 0.63035 0.46252 -0.11338
 C324 C 0.83222 0.31486 -0.31153
 C325 C 0.82548 0.29142 -0.23236
 C326 C 0.85458 0.31018 -0.17241
 C327 C 0.87706 0.34342 -0.21935
 O328 O 0.86399 0.34615 -0.30377
 H329 H 0.80338 0.26303 -0.22190
 H330 H 0.85921 0.30050 -0.10377
 C331 C 0.55413 -0.12323 -0.32513
 C332 C 0.57847 -0.11804 -0.25222
 C333 C 0.57750 -0.09242 -0.19144
 C334 C 0.55304 -0.08353 -0.23241
 O335 O 0.53904 -0.10186 -0.31381
 H336 H 0.59586 -0.13037 -0.24613
 H337 H 0.59336 -0.08090 -0.12640
 C338 C 0.34919 0.52054 -0.31476
 C339 C 0.34479 0.53442 -0.22714
 C340 C 0.36905 0.53281 -0.16534
 C341 C 0.38768 0.51987 -0.22042
 O342 O 0.37637 0.51309 -0.31095
 H343 H 0.32713 0.54578 -0.21029
 H344 H 0.37323 0.54084 -0.08979
 C345 C 1.16631 0.64848 -0.32218
 C346 C 1.18198 0.65155 -0.23202
 C347 C 1.15425 0.62825 -0.17187
 C348 C 1.12405 0.61139 -0.22989
 O349 O 1.13116 0.62287 -0.32090
 H350 H 1.21040 0.66764 -0.21205
 H351 H 1.15600 0.62317 -0.09563
 C352 C 0.84801 0.50610 -0.32224
 C353 C 0.84859 0.52865 -0.24676
 C354 C 0.87553 0.53231 -0.18678
 C355 C 0.89009 0.51249 -0.23011
 O356 O 0.87404 0.49707 -0.31292
 H357 H 0.83303 0.54295 -0.23883
 H358 H 0.88431 0.54853 -0.12074
 C359 C 0.47670 0.32937 -0.31737
 C360 C 0.49803 0.33028 -0.24053
 C361 C 0.49894 0.35654 -0.17852
 C362 C 0.47916 0.37048 -0.22355
 O363 O 0.46626 0.35474 -0.30833
 H364 H 0.51217 0.31453 -0.23201
 H365 H 0.51381 0.36585 -0.11124
 C366 C 0.63442 0.18956 -0.32720
 C367 C 0.63026 0.20739 -0.24736
 C368 C 0.60732 0.17922 -0.18629
 C369 C 0.59826 0.14661 -0.23535
 O370 O 0.61439 0.15268 -0.32070
 H371 H 0.64279 0.23723 -0.23469
 H372 H 0.59835 0.18202 -0.11469
 C373 C 1.15458 0.46166 -0.33660
 C374 C 1.15449 0.43756 -0.26611
 C375 C 1.12582 0.42990 -0.20669
 C376 C 1.10991 0.44910 -0.24578
 O377 O 1.12667 0.46774 -0.32555
 H378 H 1.17211 0.42547 -0.26076
 H379 H 1.11719 0.41199 -0.14317
 C380 C 0.55608 0.70122 -0.32992
 C381 C 0.57734 0.72215 -0.25283
 C382 C 0.57980 0.69732 -0.19257
 C383 C 0.56036 0.66312 -0.23711
 O384 O 0.54644 0.66531 -0.32091
 H385 H 0.59133 0.75225 -0.24373
 H386 H 0.59460 0.70349 -0.12509
 C387 C 0.34149 -0.18122 -0.31946
 C388 C 0.33681 -0.19861 -0.23011
 C389 C 0.35886 -0.17109 -0.16793
 C390 C 0.37657 -0.13932 -0.22407
 O391 O 0.36675 -0.14529 -0.31591
 H392 H 0.31982 -0.22795 -0.21186
 H393 H 0.36180 -0.17378 -0.09092
 C394 C 0.55632 -0.12196 0.32047
 C395 C 0.58111 -0.11646 0.24758
 C396 C 0.58057 -0.09050 0.18708
 C397 C 0.55597 -0.08171 0.22842
 O398 O 0.54145 -0.10044 0.30951
 H399 H 0.59843 -0.12888 0.24124
 H400 H 0.59679 -0.07869 0.12206
 C401 C 0.35569 0.52605 0.33551
 C402 C 0.36144 0.55155 0.26262
 C403 C 0.38600 0.54994 0.20091
 C404 C 0.39416 0.52456 0.24253
 O405 O 0.37625 0.51031 0.32438
 H406 H 0.34951 0.56947 0.25596
 H407 H 0.39720 0.56584 0.13474
 C408 C 1.16199 0.65692 0.32636
 C409 C 1.16081 0.68067 0.25729
 C410 C 1.13378 0.65825 0.19564
 C411 C 1.11971 0.62254 0.23262
 O412 O 1.13642 0.62155 0.31251
 H413 H 1.17670 0.71095 0.25446
 H414 H 1.12444 0.66704 0.13323
 C415 C 0.42865 0.13039 0.33410
 C416 C 0.40206 0.12345 0.26646
 C417 C 0.40235 0.09762 0.20501
 C418 C 0.42861 0.09030 0.24082
 O419 O 0.44436 0.10980 0.31948
 H420 H 0.38388 0.13493 0.26419
 H421 H 0.38492 0.08494 0.14308
 C422 C 0.67403 0.49856 0.32142
 C423 C 0.67432 0.48090 0.23626
 C424 C 0.65294 0.48691 0.17346
 C425 C 0.63997 0.50631 0.22601
 O426 O 0.65219 0.51304 0.31579
 H427 H 0.68789 0.46490 0.22195
 H428 H 0.64642 0.47712 0.09955
 C429 C 0.83857 0.31541 0.34019
 C430 C 0.83736 0.28921 0.27538
 C431 C 0.86634 0.30844 0.21468
 C432 C 0.88361 0.34475 0.24817
 O433 O 0.86715 0.34909 0.32492
 H434 H 0.81821 0.25941 0.27429
 H435 H 0.87447 0.29719 0.15466
   
