data_POSCAR
  _audit_creation_date              2014-09-24
  _audit_creation_method            'ToBaCCo'
  _symmetry_space_group_name_H-M    'P1'
  _symmetry_Int_Tables_number       1
  _symmetry_cell_setting            triclinic
  loop_
  _symmetry_equiv_pos_as_xyz
 x,y,z
_cell_length_a 17.6356
_cell_length_b 17.2688
_cell_length_c 18.1590
_cell_angle_alpha 93.723500
_cell_angle_beta 89.086200
_cell_angle_gamma 85.638800
loop_
  _atom_site_label
  _atom_site_type_symbol
  _atom_site_fract_x
  _atom_site_fract_y
  _atom_site_fract_z
Si1 Si -0.00659 0.52033 0.26174
 Si2 Si -0.01294 0.48612 0.75009
 Si3 Si 0.21750 0.02987 0.50820
 Si4 Si 0.78179 -0.01809 0.51191
 Si5 Si 0.49108 0.24246 0.97103
 Si6 Si 0.53189 0.72306 1.00701
 B7 B 0.99482 1.08224 0.05070
 B8 B 0.99574 1.07059 -0.04277
 B9 B 1.07812 1.05358 0.00463
 B10 B 1.05572 1.01085 0.08293
 B11 B 0.95983 1.00188 0.08537
 B12 B 0.92257 1.03940 0.00853
 B13 B 1.02184 0.91340 -0.03639
 B14 B 1.01956 0.92375 0.05743
 B15 B 0.93587 0.94176 0.01066
 B16 B 0.96080 0.98446 -0.06697
 B17 B 1.05834 0.99367 -0.06768
 B18 B 1.09579 0.95498 0.00990
 B19 B 0.57150 0.49855 0.44658
 B20 B 0.49498 0.55810 0.42281
 B21 B 0.49561 0.45693 0.41053
 B22 B 0.54082 0.41780 0.48693
 B23 B 0.56795 0.49609 0.54218
 B24 B 0.54097 0.58221 0.50104
 B25 B 0.41022 0.50695 0.53815
 B26 B 0.48825 0.45369 0.56592
 B27 B 0.48836 0.55418 0.57202
 B28 B 0.44201 0.58985 0.49922
 B29 B 0.41587 0.51040 0.44335
 B30 B 0.44450 0.42552 0.48391
 C31 C 0.96912 1.32124 0.14049
 C32 C 1.00881 1.26370 0.17945
 N33 N 1.04133 1.28413 0.24413
 C34 C 1.03750 1.35981 0.27015
 C35 C 1.00325 1.41776 0.22757
 N36 N 0.96792 1.39679 0.16481
 N37 N 0.93156 1.30078 0.07927
 C38 C 0.93426 1.22574 0.05320
 C39 C 0.97986 1.16813 0.08754
 N40 N 1.01447 1.18865 0.15159
 H41 H 1.06053 1.37409 0.32371
 H42 H 0.90278 1.21340 0.00464
 C43 C 1.04292 0.71170 0.16896
 C44 C 0.98021 0.72882 0.12503
 N45 N 0.92707 0.67645 0.11433
 C46 C 0.93313 0.60810 0.14770
 C47 C 0.99458 0.59276 0.19386
 N48 N 1.04830 0.64444 0.20243
 N49 N 1.09540 0.76419 0.18076
 C50 C 1.08865 0.83329 0.14930
 C51 C 1.02684 0.85003 0.10352
 N52 N 0.97353 0.79763 0.09385
 H53 H 0.88846 0.56863 0.14179
 H54 H 1.13284 0.87265 0.15783
 C55 C 0.96715 1.27273 -0.17632
 C56 C 1.02865 1.26299 -0.12896
 N57 N 1.07876 1.31867 -0.12182
 C58 C 1.06901 1.38422 -0.15925
 C59 C 1.00559 1.39499 -0.20439
 N60 N 0.95645 1.33864 -0.21246
 N61 N 0.91810 1.21677 -0.18441
 C62 C 0.92645 1.15217 -0.14606
 C63 C 0.98560 1.14310 -0.09488
 N64 N 1.03606 1.19896 -0.08947
 H65 H 1.10925 1.42832 -0.15245
 H66 H 0.88511 1.11091 -0.15522
 C67 C 1.03009 0.69576 -0.16898
 C68 C 1.01966 0.69626 -0.09253
 N69 N 0.99996 0.63050 -0.06196
 C70 C 0.98973 0.56481 -0.10548
 C71 C 0.99926 0.56629 -0.18230
 N72 N 1.01968 0.63148 -0.21125
 N73 N 1.04521 0.76085 -0.20107
 C74 C 1.04800 0.82837 -0.16048
 C75 C 1.03491 0.83188 -0.08355
 N76 N 1.02259 0.76433 -0.05146
 H77 H 0.97341 0.51309 -0.08072
 H78 H 1.05575 0.87792 -0.19060
 C79 C 1.16957 1.03723 0.29335
 C80 C 1.09404 1.01887 0.28951
 N81 N 1.05474 1.00644 0.35212
 C82 C 1.08838 1.01117 0.41896
 C83 C 1.16448 1.02838 0.42256
 N84 N 1.20330 1.04103 0.35966
 N85 N 1.20839 1.04959 0.23059
 C86 C 1.17488 1.04377 0.16367
 C87 C 1.09907 1.02387 0.15907
 N88 N 1.06152 1.01229 0.22292
 H89 H 1.05669 1.00034 0.46821
 H90 H 1.20795 1.05367 0.11548
 C91 C 1.17459 0.99494 -0.28004
 C92 C 1.11252 1.04782 -0.26043
 N93 N 1.08212 1.09521 -0.31097
 C94 C 1.11093 1.09112 -0.38112
 C95 C 1.17175 1.03659 -0.40100
 N96 N 1.20278 0.99048 -0.34983
 N97 N 1.20444 0.94743 -0.22960
 C98 C 1.17312 0.94849 -0.16070
 C99 C 1.10726 0.99784 -0.14208
 N100 N 1.08086 1.04778 -0.19237
 H101 H 1.08659 1.12958 -0.42073
 H102 H 1.19646 0.90715 -0.12386
 C103 C 0.86387 1.02402 0.31108
 C104 C 0.89306 0.95122 0.27991
 N105 N 0.89475 0.88872 0.32199
 C106 C 0.86706 0.89602 0.39302
 C107 C 0.83547 0.96885 0.42281
 N108 N 0.83516 1.03086 0.38084
 N109 N 0.86227 1.08670 0.27060
 C110 C 0.88970 1.08090 0.20045
 C111 C 0.91939 1.00819 0.16703
 N112 N 0.91984 0.94475 0.20860
 H113 H 0.86764 0.84525 0.42494
 H114 H 0.88193 1.13203 0.17028
 C115 C 0.83522 0.97329 -0.27304
 C116 C 0.91461 0.97147 -0.27345
 N117 N 0.95350 0.97227 -0.33857
 C118 C 0.91608 0.97534 -0.40343
 C119 C 0.83642 0.97849 -0.40276
 N120 N 0.79784 0.97700 -0.33751
 N121 N 0.79661 0.97321 -0.20802
 C122 C 0.83374 0.97232 -0.14306
 C123 C 0.91397 0.97198 -0.14226
 N124 N 0.95139 0.97160 -0.20848
 H125 H 0.94801 0.97567 -0.45470
 H126 H 0.79978 0.97588 -0.09320
 C127 C 1.27970 1.18327 -0.00184
 C128 C 1.28006 1.10729 -0.03323
 N129 N 1.34644 1.06958 -0.05968
 C130 C 1.41262 1.10533 -0.05620
 C131 C 1.41133 1.18202 -0.02559
 N132 N 1.34489 1.21908 0.00042
 N133 N 1.21411 1.22051 0.02549
 C134 C 1.14885 1.18394 0.02569
 C135 C 1.14882 1.10592 -0.00253
 N136 N 1.21462 1.07126 -0.03357
 H137 H 1.46485 1.07503 -0.07826
 H138 H 1.09867 1.21733 0.04608
 C139 C 0.68665 1.12824 0.00996
 C140 C 0.73804 1.14998 -0.04299
 N141 N 0.71371 1.19894 -0.09425
 C142 C 0.63965 1.22631 -0.09430
 C143 C 0.58752 1.19934 -0.04365
 N144 N 0.61288 1.15123 0.00705
 N145 N 0.71154 1.08813 0.06637
 C146 C 0.78566 1.06593 0.07103
 C147 C 0.83759 1.07906 0.01379
 N148 N 0.81173 1.12316 -0.04086
 H149 H 0.62311 1.26998 -0.13212
 H150 H 0.79842 1.02899 0.11429
 C151 C 1.32084 0.81342 0.00699
 C152 C 1.32364 0.89316 0.02195
 N153 N 1.39506 0.92115 0.03635
 C154 C 1.46396 0.87366 0.03349
 C155 C 1.45370 0.79334 0.01505
 N156 N 1.38499 0.76665 0.00284
 N157 N 1.25375 0.78171 0.00041
 C158 C 1.18697 0.82523 0.00535
 C159 C 1.18402 0.90675 0.01455
 N160 N 1.25431 0.93872 0.02504
 H161 H 1.52012 0.89935 0.08062
 H162 H 1.13721 0.79433 0.00462
 C163 C 0.72584 0.81199 -0.02401
 C164 C 0.71917 0.88085 0.01963
 N165 N 0.64660 0.90979 0.04534
 C166 C 0.58056 0.87047 0.03329
 C167 C 0.59774 0.79321 0.00087
 N168 N 0.66605 0.76885 -0.03058
 N169 N 0.79272 0.78713 -0.05781
 C170 C 0.85599 0.82590 -0.04757
 C171 C 0.85687 0.88998 0.00460
 N172 N 0.78581 0.91592 0.03545
 H173 H 0.90091 0.81026 -0.08620
 C174 C 0.78395 0.48004 0.32205
 C175 C 0.75338 0.55153 0.35393
 N176 N 0.79636 0.61352 0.35928
 C177 C 0.86993 0.60618 0.33521
 C178 C 0.90083 0.53360 0.30558
 N179 N 0.85681 0.47275 0.29826
 N180 N 0.74111 0.41827 0.31789
 C181 C 0.67097 0.42351 0.35024
 C182 C 0.64488 0.49200 0.39272
 N183 N 0.68413 0.55552 0.38648
 H184 H 0.90326 0.65634 0.33829
 H185 H 0.63987 0.37228 0.34780
 C186 C 0.20596 0.49581 0.32259
 C187 C 0.21740 0.56124 0.36882
 N188 N 0.15796 0.61441 0.38689
 C189 C 0.08729 0.60348 0.36069
 C190 C 0.07699 0.53653 0.31508
 N191 N 0.13706 0.48610 0.29599
 N192 N 0.26218 0.43973 0.30878
 C193 C 0.32959 0.44464 0.34155
 C194 C 0.34279 0.50967 0.39044
 N195 N 0.28603 0.56693 0.39975
 H196 H 0.04074 0.64694 0.37365
 H197 H 0.36735 0.39288 0.33563
 C198 C 0.77326 0.45792 0.67504
 C199 C 0.74892 0.53210 0.65406
 N200 N 0.79479 0.59119 0.66434
 C201 C 0.86492 0.57875 0.69314
 C202 C 0.89067 0.50373 0.71208
 N203 N 0.84345 0.44511 0.70387
 N204 N 0.72723 0.39931 0.66363
 C205 C 0.66056 0.41052 0.62777
 C206 C 0.63993 0.48271 0.59771
 N207 N 0.68269 0.54244 0.61781
 H208 H 0.90007 0.62709 0.70069
 H209 H 0.62728 0.36146 0.61957
 C210 C 0.19292 0.45852 0.64979
 C211 C 0.19955 0.52844 0.61660
 N212 N 0.13718 0.57910 0.61294
 C213 C 0.06947 0.56352 0.64365
 C214 C 0.06492 0.49586 0.68237
 N215 N 0.12674 0.44436 0.68311
 N216 N 0.25305 0.40591 0.64907
 C217 C 0.31974 0.41992 0.61680
 C218 C 0.33007 0.49207 0.58464
 N219 N 0.26777 0.54358 0.58694
 H220 H 0.02135 0.60591 0.64185
 H221 H 0.36156 0.37146 0.61277
 C222 C 0.49176 0.67539 0.21795
 C223 C 0.55692 0.63082 0.23765
 N224 N 0.61345 0.61145 0.18634
 C225 C 0.60723 0.63470 0.11613
 C226 C 0.54118 0.67841 0.09641
 N227 N 0.48556 0.69833 0.14830
 N228 N 0.43393 0.69201 0.26760
 C229 C 0.43661 0.66366 0.33552
 C230 C 0.50023 0.61499 0.35542
 N231 N 0.55952 0.60200 0.30558
 H232 H 0.65350 0.62018 0.07659
 H233 H 0.38563 0.67243 0.36882
 C234 C 0.48231 0.66646 0.79443
 C235 C 0.54435 0.61620 0.76886
 N236 N 0.59859 0.59303 0.81687
 C237 C 0.59375 0.61875 0.88946
 C238 C 0.53189 0.66982 0.91506
 N239 N 0.47784 0.69269 0.86655
 N240 N 0.42703 0.68755 0.74698
 C241 C 0.42990 0.65918 0.67522
 C242 C 0.49117 0.60658 0.64902
 N243 N 0.54723 0.58803 0.69729
 H244 H 0.63883 0.60160 0.92618
 H245 H 0.38142 0.67255 0.64198
 C246 C 0.48965 0.37580 0.17018
 C247 C 0.50864 0.32142 0.22284
 N248 N 0.51786 0.24504 0.19919
 C249 C 0.51017 0.22179 0.12641
 C250 C 0.49558 0.27717 0.07293
 N251 N 0.48478 0.35324 0.09701
 N252 N 0.46926 0.44950 0.19373
 C253 C 0.46957 0.47253 0.26605
 C254 C 0.49673 0.42249 0.32090
 N255 N 0.51308 0.34571 0.29673
 H256 H 0.51531 0.16019 0.11042
 H257 H 0.43798 0.52629 0.27939
 C258 C 0.46539 0.37092 0.79112
 C259 C 0.49008 0.31735 0.73199
 N260 N 0.50257 0.24129 0.74549
 C261 C 0.49394 0.21794 0.81515
 C262 C 0.47735 0.27363 0.87527
 N263 N 0.46198 0.34890 0.86138
 N264 N 0.44087 0.44335 0.77695
 C265 C 0.44408 0.46630 0.70782
 C266 C 0.48073 0.41848 0.64864
 N267 N 0.49908 0.34235 0.66229
 H268 H 0.50627 0.15710 0.82450
 H269 H 0.41086 0.51901 0.69968
 C270 C 0.69053 0.78110 0.50791
 C271 C 0.61234 0.79900 0.50952
 N272 N 0.58529 0.87703 0.51572
 C273 C 0.63277 0.93831 0.51766
 C274 C 0.71228 0.91346 0.51249
 N275 N 0.73798 0.83793 0.50788
 N276 N 0.71920 0.70685 0.50867
 C277 C 0.67385 0.64760 0.51012
 C278 C 0.59419 0.66015 0.50792
 N279 N 0.56608 0.73756 0.50902
 H280 H 0.60266 1.00225 0.55937
 H281 H 0.70238 0.59068 0.50784
 C282 C 0.69196 0.19729 0.49012
 C283 C 0.61373 0.19233 0.49594
 N284 N 0.58675 0.12083 0.50911
 C285 C 0.63383 0.05298 0.51526
 C286 C 0.71362 0.06387 0.50979
 N287 N 0.73951 0.13342 0.49631
 N288 N 0.72041 0.26689 0.48268
 C289 C 0.67476 0.33334 0.48033
 C290 C 0.59482 0.33243 0.48443
 N291 N 0.56730 0.26047 0.49376
 H292 H 0.70197 0.38713 0.47997
 C293 C 0.30208 0.81544 0.49800
 C294 C 0.38060 0.81818 0.49967
 N295 N 0.41026 0.89055 0.50486
 C296 C 0.36488 0.96046 0.50671
 C297 C 0.28507 0.95050 0.50207
 N298 N 0.25688 0.88063 0.49741
 N299 N 0.27045 0.74793 0.50242
 C300 C 0.31320 0.68100 0.50747
 C301 C 0.39262 0.67734 0.50409
 N302 N 0.42414 0.74827 0.50137
 H303 H 0.39655 1.01934 0.54632
 H304 H 0.28291 0.63233 0.51015
 C305 C 0.30254 0.22539 0.47624
 C306 C 0.38085 0.21093 0.48290
 N307 N 0.40991 0.13655 0.49677
 C308 C 0.36432 0.07526 0.50445
 C309 C 0.28454 0.09755 0.50119
 N310 N 0.25686 0.16867 0.48488
 N311 N 0.27143 0.29771 0.46841
 C312 C 0.31448 0.35858 0.46805
 C313 C 0.39418 0.34832 0.47518
 N314 N 0.42460 0.27343 0.48266
 H315 H 0.28425 0.41501 0.46846
   
