data_POSCAR
  _audit_creation_date              2014-09-24
  _audit_creation_method            'ToBaCCo'
  _symmetry_space_group_name_H-M    'P1'
  _symmetry_Int_Tables_number       1
  _symmetry_cell_setting            triclinic
  loop_
  _symmetry_equiv_pos_as_xyz
 x,y,z
_cell_length_a 31.0331
_cell_length_b 31.0350
_cell_length_c 30.9705
_cell_angle_alpha 90.427100
_cell_angle_beta 90.126500
_cell_angle_gamma 90.277100
loop_
  _atom_site_label
  _atom_site_type_symbol
  _atom_site_fract_x
  _atom_site_fract_y
  _atom_site_fract_z
N1 N 0.54818 0.08395 0.02421
 N2 N 0.57887 0.10874 0.04050
 N3 N 0.45801 0.08589 -0.02131
 N4 N 0.42587 0.10957 -0.03624
 N5 N 0.45795 0.08624 0.02111
 N6 N 0.42597 0.10956 0.03610
 N7 N 0.54902 0.08463 -0.01820
 N8 N 0.58055 0.10987 -0.03182
 C9 C 0.59908 0.12451 0.00525
 C10 C 0.40610 0.12402 0.00024
 N11 N 0.46045 -0.02413 -0.08687
 N12 N 0.42961 -0.04049 -0.11127
 N13 N 0.55055 0.01766 -0.08374
 N14 N 0.58169 0.03123 -0.10956
 N15 N 0.55072 -0.02454 -0.08125
 N16 N 0.58357 -0.04117 -0.10671
 N17 N 0.45960 0.01817 -0.08746
 N18 N 0.42804 0.03166 -0.11278
 Mn19 Mn 0.50413 0.05211 -0.05319
 C20 C 0.40954 -0.00554 -0.12730
 C21 C 0.60187 -0.00523 -0.12337
 N22 N 0.45281 0.02221 0.08658
 N23 N 0.42087 0.03895 0.10903
 N24 N 0.54043 -0.02325 0.09162
 N25 N 0.57033 -0.03972 0.11675
 N26 N 0.54346 0.01885 0.09057
 N27 N 0.57749 0.03250 0.11690
 N28 N 0.45026 -0.01998 0.08627
 N29 N 0.41671 -0.03318 0.10880
 Mn30 Mn 0.50085 0.05316 0.05593
 C31 C 0.39851 0.00404 0.12261
 C32 C 0.59293 -0.00540 0.13217
 N33 N 0.54592 -0.08918 -0.01484
 N34 N 0.57931 -0.11270 -0.02672
 N35 N 0.45178 -0.08680 0.02099
 N36 N 0.41858 -0.11025 0.03364
 N37 N 0.45534 -0.08792 -0.02119
 N38 N 0.42451 -0.11180 -0.03848
 N39 N 0.54193 -0.08913 0.02730
 N40 N 0.57239 -0.11234 0.04532
 Mn41 Mn 0.50333 -0.05672 -0.05138
 Mn42 Mn 0.49583 -0.05508 0.05684
 Cl43 Cl 0.50103 -0.00154 0.00196
 C44 C 0.59552 -0.12689 0.01133
 C45 C 0.40171 -0.12543 -0.00394
 N46 N 0.08301 0.44612 0.01684
 N47 N 0.10662 0.41292 0.02901
 N48 N 0.09157 0.53975 -0.01755
 N49 N 0.11624 0.57239 -0.02915
 N50 N 0.09071 0.53633 0.02465
 N51 N 0.11473 0.56655 0.04294
 N52 N 0.08381 0.44983 -0.02535
 N53 N 0.10759 0.41940 -0.04296
 C54 C 0.12142 0.39631 -0.00885
 C55 C 0.13055 0.58875 0.00897
 N56 N -0.01383 0.55306 -0.08618
 N57 N -0.02543 0.58585 -0.11049
 N58 N 0.02034 0.45972 -0.09176
 N59 N 0.03287 0.42693 -0.11594
 N60 N -0.02177 0.46301 -0.09232
 N61 N -0.03911 0.43274 -0.11693
 N62 N 0.02822 0.54990 -0.08450
 N63 N 0.04698 0.58227 -0.10917
 Mn64 Mn 0.05632 0.49986 -0.05511
 C65 C 0.01213 0.60370 -0.12434
 C66 C -0.00464 0.41047 -0.13147
 N67 N 0.02376 0.53767 0.08871
 N68 N 0.04117 0.56630 0.11532
 N69 N -0.02682 0.45193 0.08100
 N70 N -0.04523 0.42123 0.10390
 N71 N 0.01528 0.44761 0.08132
 N72 N 0.02658 0.41397 0.10446
 N73 N -0.01830 0.54207 0.08749
 N74 N -0.03060 0.57372 0.11335
 Mn75 Mn 0.05353 0.49174 0.05328
 C76 C 0.00690 0.58867 0.13045
 C77 C -0.01151 0.39760 0.11813
 N78 N -0.08885 0.46422 -0.02848
 N79 N -0.11371 0.43437 -0.04635
 N80 N -0.08229 0.55220 0.01989
 N81 N -0.10509 0.58470 0.03548
 N82 N -0.08044 0.55420 -0.02238
 N83 N -0.10136 0.58797 -0.03669
 N84 N -0.09028 0.46178 0.01379
 N85 N -0.11604 0.43010 0.02581
 Mn86 Mn -0.05155 0.50861 -0.05762
 Mn87 Mn -0.05484 0.50211 0.05096
 Cl88 Cl 0.00087 0.50055 -0.00204
 C89 C -0.13050 0.41328 -0.01208
 C90 C -0.11644 0.60692 -0.00040
 N91 N 0.02641 0.08330 0.44932
 N92 N 0.04255 0.10463 0.41636
 N93 N -0.01361 0.09191 0.54114
 N94 N -0.02590 0.11718 0.57320
 N95 N 0.02853 0.08920 0.53988
 N96 N 0.04615 0.11247 0.57109
 N97 N -0.01566 0.08698 0.45041
 N98 N -0.02934 0.11086 0.41808
 C99 C 0.00737 0.12150 0.39696
 C100 C 0.01179 0.12975 0.59161
 N101 N -0.08764 -0.01068 0.54725
 N102 N -0.11296 -0.02219 0.57937
 N103 N -0.08554 0.02671 0.45502
 N104 N -0.10836 0.04238 0.42297
 N105 N -0.08892 -0.01543 0.45631
 N106 N -0.11456 -0.02956 0.42504
 N107 N -0.08427 0.03146 0.54552
 N108 N -0.10744 0.04974 0.57629
 Mn109 Mn -0.05007 0.05962 0.49813
 C110 C -0.12499 0.01581 0.59736
 C111 C -0.12625 0.00705 0.40441
 N112 N 0.08861 0.01991 0.54277
 N113 N 0.11392 0.03642 0.57280
 N114 N 0.08437 -0.02878 0.45544
 N115 N 0.10634 -0.04741 0.42404
 N116 N 0.08676 0.01332 0.45241
 N117 N 0.11040 0.02452 0.41899
 N118 N 0.08596 -0.02213 0.54637
 N119 N 0.10990 -0.03535 0.57913
 Mn120 Mn 0.05790 0.05167 0.49595
 C121 C 0.12699 0.00181 0.59542
 C122 C 0.12233 -0.01369 0.40148
 N123 N -0.02811 -0.08599 0.45941
 N124 N -0.04514 -0.11069 0.42890
 N125 N 0.01501 -0.08341 0.55046
 N126 N 0.02812 -0.10771 0.58270
 N127 N -0.02722 -0.08072 0.55012
 N128 N -0.04392 -0.10298 0.58219
 N129 N 0.01406 -0.08951 0.45972
 N130 N 0.02680 -0.11662 0.42929
 Mn131 Mn -0.05838 -0.04858 0.50318
 Mn132 Mn 0.05024 -0.05641 0.50316
 Cl133 Cl -0.00010 0.00148 0.50012
 C134 C -0.01050 -0.12955 0.41022
 C135 C -0.00903 -0.11947 0.60243
 C136 C -0.31615 0.20015 0.05070
 C137 C -0.29932 0.22024 0.01337
 C138 C -0.31578 0.20651 -0.02728
 C139 C -0.34818 0.17468 -0.02994
 C140 C -0.36506 0.15607 0.00749
 C141 C -0.34840 0.16881 0.04764
 C142 C -0.30027 0.22496 -0.06511
 C143 C -0.26926 0.25737 -0.06372
 C144 C -0.25233 0.27290 -0.02415
 C145 C -0.26730 0.25371 0.01504
 C146 C -0.25012 0.26894 0.05462
 C147 C -0.22010 0.30218 0.05612
 C148 C -0.20573 0.32170 0.01843
 C149 C -0.22124 0.30727 -0.02235
 C150 C -0.20513 0.32828 -0.05953
 C151 C -0.17559 0.36227 -0.05604
 C152 C -0.16101 0.37660 -0.01561
 C153 C -0.17602 0.35591 0.02148
 H154 H -0.30555 0.20804 0.08291
 H155 H -0.36078 0.16493 -0.06122
 H156 H -0.36067 0.15477 0.07711
 H157 H -0.31252 0.21445 -0.09628
 H158 H -0.25945 0.26977 -0.09455
 H159 H -0.25934 0.25607 0.08542
 H160 H -0.20816 0.31291 0.08735
 H161 H -0.21475 0.31954 -0.09184
 H162 H -0.16433 0.37759 -0.08527
 H163 H -0.16475 0.36662 0.05297
 C164 C 0.31603 0.80145 -0.05115
 C165 C 0.29715 0.78293 -0.01400
 C166 C 0.31253 0.79703 0.02694
 C167 C 0.34570 0.82784 0.03009
 C168 C 0.36469 0.84474 -0.00708
 C169 C 0.34923 0.83169 -0.04758
 C170 C 0.29536 0.77978 0.06459
 C171 C 0.26420 0.74762 0.06276
 C172 C 0.24867 0.73141 0.02290
 C173 C 0.26444 0.75029 -0.01610
 C174 C 0.24733 0.73558 -0.05589
 C175 C 0.21730 0.70243 -0.05780
 C176 C 0.20309 0.68240 -0.02033
 C177 C 0.21815 0.69669 0.02066
 C178 C 0.20259 0.67488 0.05757
 C179 C 0.17393 0.64028 0.05364
 C180 C 0.15977 0.62619 0.01301
 C181 C 0.17413 0.64769 -0.02382
 H182 H 0.30672 0.79277 -0.08356
 H183 H 0.35747 0.83787 0.06162
 H184 H 0.36326 0.84446 -0.07685
 H185 H 0.30665 0.79079 0.09596
 H186 H 0.25299 0.73612 0.09346
 H187 H 0.25644 0.74900 -0.08649
 H188 H 0.20547 0.69196 -0.08916
 H189 H 0.21233 0.68314 0.08998
 H190 H 0.16316 0.62421 0.08265
 H191 H 0.16317 0.63707 -0.05544
 C192 C 0.31536 0.19022 0.04652
 C193 C 0.29807 0.21121 0.01005
 C194 C 0.31593 0.20088 -0.03092
 C195 C 0.35058 0.17180 -0.03455
 C196 C 0.36807 0.15263 0.00229
 C197 C 0.34965 0.16172 0.04257
 C198 C 0.29950 0.22004 -0.06798
 C199 C 0.26625 0.24980 -0.06545
 C200 C 0.24804 0.26206 -0.02540
 C201 C 0.26417 0.24234 0.01299
 C202 C 0.24648 0.25505 0.05312
 C203 C 0.21484 0.28637 0.05592
 C204 C 0.19910 0.30625 0.01901
 C205 C 0.21486 0.29400 -0.02230
 C206 C 0.19699 0.31475 -0.05869
 C207 C 0.16621 0.34707 -0.05397
 C208 C 0.15188 0.35993 -0.01302
 C209 C 0.16799 0.33888 0.02335
 H210 H 0.30345 0.19507 0.07878
 H211 H 0.36439 0.16473 -0.06593
 H212 H 0.36202 0.14693 0.07162
 H213 H 0.31275 0.21220 -0.09942
 H214 H 0.25601 0.26315 -0.09573
 H215 H 0.25682 0.24193 0.08345
 H216 H 0.20279 0.29539 0.08754
 H217 H 0.20615 0.30709 -0.09135
 H218 H 0.15397 0.36247 -0.08275
 H219 H 0.15687 0.34836 0.05518
 C220 C -0.32092 0.80065 0.06118
 C221 C -0.29672 0.78674 0.02501
 C222 C -0.30783 0.80388 -0.01590
 C223 C -0.34264 0.83231 -0.02022
 C224 C -0.36687 0.84455 0.01579
 C225 C -0.35530 0.82900 0.05648
 C226 C -0.28450 0.79226 -0.05246
 C227 C -0.25077 0.76328 -0.04976
 C228 C -0.23912 0.74419 -0.01015
 C229 C -0.26245 0.75612 0.02790
 C230 C -0.25146 0.73621 0.06730
 C231 C -0.21976 0.70488 0.06937
 C232 C -0.19726 0.69237 0.03254
 C233 C -0.20580 0.71256 -0.00756
 C234 C -0.18106 0.69954 -0.04364
 C235 C -0.15134 0.66627 -0.04048
 C236 C -0.14470 0.64501 -0.00135
 C237 C -0.16689 0.65898 0.03540
 H238 H -0.31434 0.79032 0.09361
 H239 H -0.35108 0.84465 -0.05178
 H240 H -0.37323 0.83840 0.08498
 H241 H -0.29266 0.80546 -0.08374
 H242 H -0.23510 0.75586 -0.07984
 H243 H -0.26747 0.74332 0.09728
 H244 H -0.21317 0.68986 0.10018
 H245 H -0.18400 0.71393 -0.07500
 H246 H -0.13394 0.65668 -0.06925
 H247 H -0.16156 0.64297 0.06594
 C248 C 0.05362 -0.32997 0.20962
 C249 C 0.01651 -0.30897 0.22593
 C250 C -0.02407 -0.32215 0.20909
 C251 C -0.02697 -0.35509 0.17773
 C252 C 0.01009 -0.37578 0.16251
 C253 C 0.05030 -0.36271 0.17857
 C254 C -0.06169 -0.30266 0.22379
 C255 C -0.06029 -0.27065 0.25532
 C256 C -0.02090 -0.25660 0.27369
 C257 C 0.01820 -0.27580 0.25846
 C258 C 0.05763 -0.26137 0.27645
 C259 C 0.05897 -0.22992 0.30855
 C260 C 0.02125 -0.21141 0.32423
 C261 C -0.01929 -0.22418 0.30698
 C262 C -0.05650 -0.20410 0.32420
 C263 C -0.05338 -0.17333 0.35724
 C264 C -0.01329 -0.16131 0.37435
 C265 C 0.02395 -0.18030 0.35742
 H266 H 0.08579 -0.32221 0.22026
 H267 H -0.05829 -0.36488 0.16544
 H268 H 0.07949 -0.37805 0.16725
 H269 H -0.09278 -0.31246 0.21091
 H270 H -0.09099 -0.25764 0.26466
 H271 H 0.08839 -0.27381 0.26654
 H272 H 0.09005 -0.22015 0.32146
 H273 H -0.08863 -0.21151 0.31321
 H274 H -0.08269 -0.15907 0.36962
 H275 H 0.05521 -0.17113 0.37035
 C276 C -0.05148 0.32474 0.79514
 C277 C -0.01429 0.30373 0.77915
 C278 C 0.02641 0.31817 0.79461
 C279 C 0.02933 0.35239 0.82435
 C280 C -0.00780 0.37321 0.83895
 C281 C -0.04811 0.35885 0.82446
 C282 C 0.06410 0.29890 0.77990
 C283 C 0.06265 0.26642 0.74896
 C284 C 0.02313 0.25166 0.73146
 C285 C -0.01604 0.26972 0.74775
 C286 C -0.05563 0.25351 0.73179
 C287 C -0.05706 0.22224 0.69966
 C288 C -0.01928 0.20583 0.68202
 C289 C 0.02144 0.21980 0.69785
 C290 C 0.05871 0.20187 0.67855
 C291 C 0.05541 0.17223 0.64463
 C292 C 0.01508 0.15941 0.62881
 C293 C -0.02214 0.17585 0.64805
 H294 H -0.08370 0.31632 0.78520
 H295 H 0.06069 0.36328 0.83559
 H296 H -0.07734 0.37438 0.83545
 H297 H 0.09524 0.30949 0.79200
 H298 H 0.09337 0.25360 0.73940
 H299 H -0.08643 0.26431 0.74335
 H300 H -0.08824 0.21121 0.68804
 H301 H 0.09096 0.21049 0.68822
 H302 H 0.08468 0.15976 0.63034
 H303 H -0.05353 0.16586 0.63609
 C304 C -0.05909 0.31463 0.19350
 C305 C -0.02207 0.29277 0.20870
 C306 C 0.01839 0.30509 0.19133
 C307 C 0.02137 0.33846 0.16111
 C308 C -0.01543 0.36052 0.14757
 C309 C -0.05566 0.34790 0.16352
 C310 C 0.05590 0.28458 0.20464
 C311 C 0.05462 0.25280 0.23584
 C312 C 0.01548 0.24015 0.25532
 C313 C -0.02363 0.25988 0.24096
 C314 C -0.06285 0.24654 0.25982
 C315 C -0.06386 0.21616 0.29246
 C316 C -0.02601 0.19769 0.30776
 C317 C 0.01422 0.20891 0.28916
 C318 C 0.05158 0.18889 0.30594
 C319 C 0.04899 0.16011 0.34024
 C320 C 0.00929 0.15005 0.35902
 C321 C -0.02820 0.16845 0.34217
 H322 H -0.09119 0.30737 0.20444
 H323 H 0.05267 0.34780 0.14869
 H324 H -0.08466 0.36429 0.15334
 H325 H 0.08683 0.29358 0.19112
 H326 H 0.08525 0.23903 0.24418
 H327 H -0.09363 0.25925 0.25037
 H328 H -0.09473 0.20741 0.30630
 H329 H 0.08348 0.19506 0.29386
 H330 H 0.07846 0.14610 0.35248
 H331 H -0.05915 0.16066 0.35637
 C332 C 0.05756 -0.31297 0.80541
 C333 C 0.02013 -0.29337 0.78840
 C334 C -0.02033 -0.30840 0.80344
 C335 C -0.02285 -0.34229 0.83322
 C336 C 0.01459 -0.36235 0.84873
 C337 C 0.05475 -0.34669 0.83486
 C338 C -0.05827 -0.28997 0.78831
 C339 C -0.05727 -0.25755 0.75771
 C340 C -0.01797 -0.24213 0.74067
 C341 C 0.02142 -0.25996 0.75667
 C342 C 0.06074 -0.24427 0.73990
 C343 C 0.06170 -0.21324 0.70790
 C344 C 0.02370 -0.19634 0.69124
 C345 C -0.01674 -0.20999 0.70765
 C346 C -0.05423 -0.19126 0.68968
 C347 C -0.05148 -0.16144 0.65624
 C348 C -0.01147 -0.14906 0.63956
 C349 C 0.02604 -0.16619 0.65768
 H350 H 0.08969 -0.30344 0.79646
 H351 H -0.05432 -0.35336 0.84373
 H352 H 0.08451 -0.36078 0.84631
 H353 H -0.08930 -0.30107 0.79995
 H354 H -0.08819 -0.24557 0.74779
 H355 H 0.09170 -0.25561 0.75045
 H356 H 0.09270 -0.20268 0.69570
 H357 H -0.08631 -0.19915 0.70024
 H358 H -0.08099 -0.14845 0.64301
 H359 H 0.05721 -0.15658 0.64515
 C360 C 0.32296 -0.05406 0.80125
 C361 C 0.30400 -0.01766 0.78174
 C362 C 0.31984 0.02360 0.79429
 C363 C 0.35380 0.02774 0.82435
 C364 C 0.37266 -0.00882 0.84242
 C365 C 0.35658 -0.04956 0.83087
 C366 C 0.30203 0.06056 0.77650
 C367 C 0.26928 0.05774 0.74598
 C368 C 0.25289 0.01751 0.73164
 C369 C 0.27035 -0.02085 0.75001
 C370 C 0.25403 -0.06108 0.73559
 C371 C 0.22248 -0.06395 0.70381
 C372 C 0.20558 -0.02702 0.68509
 C373 C 0.22008 0.01429 0.69904
 C374 C 0.20139 0.05069 0.67928
 C375 C 0.17089 0.04608 0.64646
 C376 C 0.15756 0.00525 0.63206
 C377 C 0.17458 -0.03126 0.65199
 H378 H 0.31289 -0.08662 0.79433
 H379 H 0.36586 0.05943 0.83326
 H380 H 0.37026 -0.07845 0.84460
 H381 H 0.31377 0.09219 0.78607
 H382 H 0.25785 0.08804 0.73393
 H383 H 0.26526 -0.09137 0.74785
 H384 H 0.21142 -0.09560 0.69353
 H385 H 0.20969 0.08331 0.68803
 H386 H 0.15796 0.07496 0.63198
 H387 H 0.16429 -0.06302 0.64122
 C388 C -0.32706 -0.05379 0.20404
 C389 C -0.30519 -0.01720 0.22077
 C390 C -0.31763 0.02375 0.20508
 C391 C -0.35144 0.02761 0.17511
 C392 C -0.37366 -0.00896 0.15982
 C393 C -0.36052 -0.04966 0.17429
 C394 C -0.29660 0.06084 0.21963
 C395 C -0.26380 0.05852 0.24996
 C396 C -0.25075 0.01873 0.26747
 C397 C -0.27181 -0.01980 0.25266
 C398 C -0.25938 -0.05949 0.27088
 C399 C -0.22812 -0.06155 0.30289
 C400 C -0.20759 -0.02437 0.31792
 C401 C -0.21800 0.01626 0.29999
 C402 C -0.19542 0.05283 0.31584
 C403 C -0.16533 0.04926 0.34902
 C404 C -0.15633 0.00930 0.36752
 C405 C -0.17704 -0.02757 0.35135
 H406 H -0.31930 -0.08624 0.21316
 H407 H -0.36056 0.05941 0.16409
 H408 H -0.37631 -0.07887 0.16294
 H409 H -0.30581 0.09222 0.20761
 H410 H -0.24984 0.08893 0.25950
 H411 H -0.27374 -0.08984 0.26170
 H412 H -0.22017 -0.09271 0.31628
 H413 H -0.20018 0.08482 0.30361
 H414 H -0.14932 0.07826 0.36053
 H415 H -0.16995 -0.05871 0.36526
 C416 C 0.30955 0.04928 0.19212
 C417 C 0.29078 0.01180 0.21015
 C418 C 0.30738 -0.02869 0.19688
 C419 C 0.34162 -0.03109 0.16739
 C420 C 0.36048 0.00642 0.15102
 C421 C 0.34380 0.04647 0.16319
 C422 C 0.29036 -0.06663 0.21369
 C423 C 0.25818 -0.06548 0.24471
 C424 C 0.24144 -0.02606 0.26017
 C425 C 0.25707 0.01317 0.24162
 C426 C 0.23890 0.05250 0.25557
 C427 C 0.20817 0.05382 0.28793
 C428 C 0.19420 0.01619 0.30779
 C429 C 0.21003 -0.02443 0.29397
 C430 C 0.19439 -0.06155 0.31545
 C431 C 0.16533 -0.05807 0.34968
 C432 C 0.15085 -0.01772 0.36362
 C433 C 0.16488 0.01919 0.34205
 H434 H 0.29932 0.08141 0.20023
 H435 H 0.35430 -0.06228 0.15801
 H436 H 0.35769 0.07596 0.15078
 H437 H 0.30258 -0.09768 0.20328
 H438 H 0.24725 -0.09634 0.25607
 H439 H 0.24779 0.08320 0.24225
 H440 H 0.19567 0.08488 0.29799
 H441 H 0.20446 -0.09372 0.30729
 H442 H 0.15476 -0.08713 0.36576
 H443 H 0.15357 0.05060 0.35245
 C444 C -0.31372 -0.04835 0.80614
 C445 C -0.29689 -0.01085 0.78658
 C446 C -0.31426 0.02938 0.79965
 C447 C -0.34767 0.03144 0.83039
 C448 C -0.36483 -0.00633 0.84858
 C449 C -0.34688 -0.04604 0.83627
 C450 C -0.29855 0.06737 0.78162
 C451 C -0.26653 0.06648 0.75029
 C452 C -0.24873 0.02726 0.73545
 C453 C -0.26392 -0.01204 0.75423
 C454 C -0.24605 -0.05131 0.73962
 C455 C -0.21529 -0.05245 0.70729
 C456 C -0.20074 -0.01469 0.68812
 C457 C -0.21668 0.02585 0.70209
 C458 C -0.20008 0.06310 0.68156
 C459 C -0.16992 0.05984 0.64817
 C460 C -0.15526 0.01956 0.63406
 C461 C -0.17049 -0.01750 0.65459
 H462 H -0.30240 -0.08027 0.79881
 H463 H -0.36065 0.06260 0.83952
 H464 H -0.35860 -0.07605 0.84968
 H465 H -0.31146 0.09828 0.79158
 H466 H -0.25668 0.09735 0.73803
 H467 H -0.25534 -0.08219 0.75219
 H468 H -0.20296 -0.08348 0.69691
 H469 H -0.20986 0.09525 0.69020
 H470 H -0.15846 0.08904 0.63298
 H471 H -0.15909 -0.04887 0.64413
   
