data_POSCAR
  _audit_creation_date              2014-09-24
  _audit_creation_method            'ToBaCCo'
  _symmetry_space_group_name_H-M    'P1'
  _symmetry_Int_Tables_number       1
  _symmetry_cell_setting            triclinic
  loop_
  _symmetry_equiv_pos_as_xyz
 x,y,z
_cell_length_a 41.1043
_cell_length_b 40.9267
_cell_length_c 56.4762
_cell_angle_alpha 89.965100
_cell_angle_beta 90.060400
_cell_angle_gamma 120.288400
loop_
  _atom_site_label
  _atom_site_type_symbol
  _atom_site_fract_x
  _atom_site_fract_y
  _atom_site_fract_z
C1 C -0.01762 0.49102 1.25079
 C2 C 0.02076 0.50994 1.25088
 C3 C 0.04277 0.52228 1.27325
 C4 C 0.04281 0.51929 1.22858
 C5 C -0.03959 0.48154 1.22840
 C6 C -0.03975 0.47869 1.27307
 C7 C 0.03774 0.54524 1.28961
 C8 C 0.05892 0.55683 1.31051
 C9 C 0.08556 0.54583 1.31515
 C10 C 0.09094 0.52329 1.29876
 C11 C 0.06976 0.51171 1.27791
 C12 C 0.07056 0.55694 1.22394
 C13 C 0.09158 0.56621 1.20307
 C14 C 0.08526 0.53793 1.18671
 C15 C 0.05796 0.50025 1.19134
 C16 C 0.03692 0.49091 1.21224
 C17 C -0.06745 0.44389 1.22385
 C18 C -0.08859 0.43451 1.20300
 C19 C -0.08231 0.46268 1.18654
 C20 C -0.05483 0.50036 1.19105
 C21 C -0.03366 0.50980 1.21194
 C22 C -0.03487 0.45565 1.28947
 C23 C -0.05620 0.44407 1.31028
 C24 C -0.08276 0.45514 1.31475
 C25 C -0.08799 0.47774 1.29835
 C26 C -0.06670 0.48935 1.27759
 H27 H 0.01758 0.55430 1.28612
 H28 H 0.05456 0.57447 1.32291
 H29 H 0.11152 0.51464 1.30201
 H30 H 0.07421 0.49422 1.26545
 H31 H 0.07567 0.57916 1.23639
 H32 H 0.11276 0.59543 1.19970
 H33 H 0.01615 0.46161 1.21572
 H34 H -0.07260 0.42174 1.23638
 H35 H -0.10989 0.40530 1.19974
 H36 H -0.04992 0.52242 1.17851
 H37 H -0.01281 0.53911 1.21533
 H38 H -0.01473 0.44654 1.28609
 H39 H -0.05212 0.42637 1.32279
 H40 H -0.10859 0.48632 1.30161
 H41 H -0.07102 0.50690 1.26509
 H42 H 0.05304 0.47812 1.17886
 C43 C 0.51064 0.49194 1.25218
 C44 C 0.49156 0.51116 1.25224
 C45 C 0.47951 0.52114 1.27456
 C46 C 0.48158 0.52321 1.22990
 C47 C 0.52058 0.47998 1.22980
 C48 C 0.52268 0.48183 1.27447
 C49 C 0.45681 0.49322 1.29114
 C50 C 0.44531 0.50319 1.31188
 C51 C 0.45614 0.54106 1.31613
 C52 C 0.47846 0.56888 1.29958
 C53 C 0.48997 0.55898 1.27889
 C54 C 0.44379 0.51203 1.22533
 C55 C 0.43383 0.52296 1.20439
 C56 C 0.46156 0.54540 1.18787
 C57 C 0.49939 0.55710 1.19243
 C58 C 0.50941 0.54620 1.21341
 C59 C 0.55833 0.49101 1.22527
 C60 C 0.56823 0.47999 1.20435
 C61 C 0.54047 0.45759 1.18781
 C62 C 0.50268 0.44609 1.19231
 C63 C 0.49273 0.45709 1.21327
 C64 C 0.54542 0.50966 1.29108
 C65 C 0.55676 0.49954 1.31185
 C66 C 0.54573 0.46161 1.31607
 C67 C 0.52342 0.43388 1.29947
 C68 C 0.51207 0.44394 1.27874
 H69 H 0.44782 0.46378 1.28791
 H70 H 0.42783 0.48140 1.32450
 H71 H 0.48686 0.59824 1.30265
 H72 H 0.50725 0.58086 1.26626
 H73 H 0.42198 0.49450 1.23789
 H74 H 0.40451 0.51389 1.20107
 H75 H 0.53878 0.55568 1.21683
 H76 H 0.58016 0.50845 1.23786
 H77 H 0.59752 0.48890 1.20109
 H78 H 0.48095 0.42854 1.17970
 H79 H 0.46337 0.44769 1.21664
 H80 H 0.55450 0.53914 1.28789
 H81 H 0.57423 0.52125 1.32452
 H82 H 0.51487 0.40449 1.30252
 H83 H 0.49475 0.42213 1.26608
 H84 H 0.52109 0.57468 1.17983
 C85 C 0.50846 1.01972 1.24780
 C86 C 0.48940 0.98116 1.24789
 C87 C 0.47944 0.95911 1.27029
 C88 C 0.47732 0.95886 1.22561
 C89 C 0.52056 1.04187 1.22544
 C90 C 0.51840 1.04192 1.27011
 C91 C 0.50724 0.96454 1.28690
 C92 C 0.49727 0.94349 1.30789
 C93 C 0.45947 0.91659 1.31236
 C94 C 0.43176 0.91075 1.29571
 C95 C 0.44171 0.93179 1.27477
 C96 C 0.48790 0.93170 1.22131
 C97 C 0.47654 0.91021 1.20057
 C98 C 0.45427 0.91542 1.18396
 C99 C 0.44328 0.94219 1.18821
 C100 C 0.45461 0.96372 1.20899
 C101 C 0.51013 1.06912 1.22102
 C102 C 0.52166 1.09064 1.20029
 C103 C 0.54401 1.08538 1.18377
 C104 C 0.55481 1.05845 1.18814
 C105 C 0.54328 1.03691 1.20892
 C106 C 0.49056 1.03664 1.28661
 C107 C 0.50052 1.05772 1.30756
 C108 C 0.53834 1.08451 1.31210
 C109 C 0.56608 1.09024 1.29554
 C110 C 0.55614 1.06916 1.27464
 H111 H 0.53659 0.98498 1.28357
 H112 H 0.51905 0.94815 1.32054
 H113 H 0.40243 0.88995 1.29888
 H114 H 0.41991 0.92703 1.26213
 H115 H 0.50520 0.92737 1.23397
 H116 H 0.48506 0.88945 1.19751
 H117 H 0.44555 0.98400 1.21220
 H118 H 0.49284 1.07354 1.23360
 H119 H 0.51322 1.11147 1.19721
 H120 H 0.57231 1.05425 1.17560
 H121 H 0.55224 1.01656 1.21222
 H122 H 0.46120 1.01626 1.28322
 H123 H 0.47873 1.05316 1.32015
 H124 H 0.59543 1.11096 1.29877
 H125 H 0.57795 1.07379 1.26207
 H126 H 0.42582 0.94625 1.17555
 C127 C 1.02048 0.50894 0.74974
 C128 C 0.98208 0.48993 0.74986
 C129 C 0.95985 0.47725 0.72758
 C130 C 0.96022 0.48070 0.77227
 C131 C 1.04265 0.51820 0.77202
 C132 C 1.04239 0.52157 0.72733
 C133 C 0.93247 0.48734 0.72302
 C134 C 0.91101 0.47527 0.70230
 C135 C 0.91649 0.45275 0.68599
 C136 C 0.94349 0.44226 0.69051
 C137 C 0.96498 0.45431 0.71126
 C138 C 0.96635 0.50914 0.78863
 C139 C 0.94519 0.49998 0.80950
 C140 C 0.91752 0.46240 0.81409
 C141 C 0.91106 0.43405 0.79774
 C142 C 0.93219 0.44315 0.77691
 C143 C 1.03673 0.48976 0.78834
 C144 C 1.05794 0.49895 0.80919
 C145 C 1.08549 0.53659 0.81382
 C146 C 1.09179 0.56494 0.79746
 C147 C 1.07059 0.55577 0.77665
 C148 C 1.06979 0.51157 0.72262
 C149 C 1.09097 0.52361 0.70180
 C150 C 1.08520 0.54602 0.68550
 C151 C 1.05815 0.55641 0.69018
 C152 C 1.03695 0.54438 0.71104
 H153 H 0.92793 0.50480 0.73545
 H154 H 0.89009 0.48342 0.69901
 H155 H 0.94778 0.42463 0.67807
 H156 H 0.98543 0.44559 0.71468
 H157 H 0.98732 0.53838 0.78517
 H158 H 0.95025 0.52218 0.82196
 H159 H 0.92687 0.42087 0.76446
 H160 H 1.01581 0.46050 0.78487
 H161 H 1.05292 0.47668 0.82162
 H162 H 1.11310 0.59416 0.80076
 H163 H 1.07572 0.57804 0.76422
 H164 H 1.07457 0.49422 0.73502
 H165 H 1.11189 0.51548 0.69848
 H166 H 1.05354 0.57395 0.67782
 H167 H 1.01650 0.55303 0.71456
 H168 H 0.88963 0.40491 0.80107
 C169 C 0.49023 0.50933 0.74810
 C170 C 0.51005 0.49085 0.74817
 C171 C 0.52028 0.47892 0.72591
 C172 C 0.52239 0.48132 0.77058
 C173 C 0.47785 0.51889 0.77042
 C174 C 0.47993 0.52114 0.72576
 C175 C 0.49260 0.45565 0.70940
 C176 C 0.50277 0.44421 0.68873
 C177 C 0.54061 0.45567 0.68449
 C178 C 0.56822 0.47857 0.70096
 C179 C 0.55810 0.49003 0.72160
 C180 C 0.51218 0.44362 0.77518
 C181 C 0.52343 0.43409 0.79617
 C182 C 0.54523 0.46218 0.81273
 C183 C 0.55595 0.49994 0.80814
 C184 C 0.54474 0.50952 0.78711
 C185 C 0.48819 0.55663 0.77501
 C186 C 0.47698 0.56618 0.79597
 C187 C 0.45511 0.53809 0.81249
 C188 C 0.44424 0.50030 0.80791
 C189 C 0.45541 0.49069 0.78691
 C190 C 0.50754 0.54428 0.70919
 C191 C 0.49730 0.55571 0.68850
 C192 C 0.45946 0.54436 0.68428
 C193 C 0.43193 0.52155 0.70081
 C194 C 0.44210 0.51011 0.72146
 H195 H 0.46318 0.44618 0.71263
 H196 H 0.48116 0.42627 0.67616
 H197 H 0.59755 0.48745 0.69790
 H198 H 0.57980 0.50775 0.73418
 H199 H 0.49517 0.42153 0.76260
 H200 H 0.51513 0.40483 0.79949
 H201 H 0.55350 0.53886 0.78369
 H202 H 0.50528 0.57871 0.76245
 H203 H 0.48539 0.59547 0.79931
 H204 H 0.42709 0.47832 0.82051
 H205 H 0.44656 0.46133 0.78348
 H206 H 0.53696 0.55371 0.71240
 H207 H 0.51887 0.57357 0.67590
 H208 H 0.40260 0.51274 0.69777
 H209 H 0.42045 0.49249 0.73407
 H210 H 0.57304 0.52193 0.82076
 C211 C 0.48859 -0.02073 0.75177
 C212 C 0.50859 0.01782 0.75186
 C213 C 0.52108 0.03995 0.72954
 C214 C 0.51893 0.03998 0.77420
 C215 C 0.47831 -0.04305 0.77403
 C216 C 0.47616 -0.04269 0.72936
 C217 C 0.54342 0.03436 0.71306
 C218 C 0.55456 0.05521 0.69202
 C219 C 0.54376 0.08203 0.68740
 C220 C 0.52204 0.08812 0.70393
 C221 C 0.51086 0.06730 0.72493
 C222 C 0.55679 0.06707 0.77858
 C223 C 0.56701 0.08866 0.79928
 C224 C 0.53946 0.08361 0.81578
 C225 C 0.50158 0.05685 0.81148
 C226 C 0.49131 0.03522 0.79074
 C227 C 0.44045 -0.07005 0.77841
 C228 C 0.43028 -0.09167 0.79910
 C229 C 0.45789 -0.08672 0.81557
 C230 C 0.49580 -0.06006 0.81122
 C231 C 0.50600 -0.03842 0.79049
 C232 C 0.45394 -0.03692 0.71283
 C233 C 0.44281 -0.05764 0.69173
 C234 C 0.45349 -0.08456 0.68707
 C235 C 0.47513 -0.09080 0.70366
 C236 C 0.48628 -0.07009 0.72471
 H237 H 0.55216 0.01388 0.71651
 H238 H 0.57159 0.05046 0.67940
 H239 H 0.51367 0.10893 0.70056
 H240 H 0.49384 0.07216 0.73749
 H241 H 0.57845 0.07133 0.76599
 H242 H 0.59637 0.10940 0.80238
 H243 H 0.46187 0.01500 0.78747
 H244 H 0.41875 -0.07419 0.76585
 H245 H 0.40087 -0.11231 0.80218
 H246 H 0.51750 -0.05612 0.82374
 H247 H 0.53544 -0.01825 0.78720
 H248 H 0.44526 -0.01640 0.71630
 H249 H 0.42586 -0.05268 0.67913
 H250 H 0.48348 -0.11164 0.70035
 H251 H 0.50321 -0.07509 0.73730
 H252 H 0.48001 0.05292 0.82405
 O253 O 0.38990 0.65406 0.97983
 O254 O 0.38708 0.71530 0.97232
 C255 C 0.36847 0.73137 0.96751
 O256 O 0.33964 0.72590 0.97903
 O257 O 0.27846 0.66114 0.97221
 C258 C 0.26230 0.62608 0.96785
 O259 O 0.26752 0.60288 0.97987
 O260 O 0.33163 0.60606 0.97305
 C261 C 0.36640 0.62497 0.96830
 O262 O 0.38816 0.66488 1.02697
 O263 O 0.38849 0.72775 1.01944
 C264 C 0.36441 0.73215 1.03093
 O265 O 0.32956 0.71467 1.02626
 O266 O 0.26663 0.65152 1.01944
 C267 C 0.26245 0.62341 1.03145
 O268 O 0.27965 0.60574 1.02710
 O269 O 0.34211 0.60551 1.02029
 C270 C 0.37051 0.62998 1.03186
 Cr271 Cr 0.38633 0.68941 0.99964
 Cr272 Cr 0.30463 0.68730 0.99925
 Cr273 Cr 0.30624 0.60713 1.00006
 O274 O 0.33241 0.66129 0.99965
 O275 O 0.61057 0.34610 0.98027
 O276 O 0.61270 0.28441 0.97310
 C277 C 0.63110 0.26813 0.96833
 O278 O 0.65997 0.27352 0.97982
 O279 O 0.72155 0.33797 0.97299
 C280 C 0.73791 0.37299 0.96850
 O281 O 0.73282 0.39641 0.98034
 O282 O 0.66896 0.39385 0.97352
 C283 C 0.63418 0.37511 0.96874
 O284 O 0.61231 0.33569 1.02750
 O285 O 0.61134 0.27243 1.02030
 C286 C 0.63525 0.26772 1.03179
 O287 O 0.67007 0.28482 1.02707
 O288 O 0.73332 0.34765 1.02026
 C289 C 0.73795 0.37607 1.03209
 O290 O 0.72108 0.39403 1.02760
 O291 O 0.65885 0.39482 1.02079
 C292 C 0.63030 0.37061 1.03235
 Cr293 Cr 0.61383 0.31075 1.00029
 Cr294 Cr 0.69517 0.31202 1.00004
 Cr295 Cr 0.69439 0.39267 1.00055
 O296 O 0.66778 0.33847 1.00030
 O297 O 0.66914 0.38376 0.52775
 O298 O 0.73191 0.38419 0.52057
 C299 C 0.73601 0.35969 0.53190
 O300 O 0.71873 0.32483 0.52685
 O301 O 0.65595 0.26195 0.51919
 C302 C 0.62782 0.25762 0.53105
 O303 O 0.61023 0.27489 0.52662
 O304 O 0.61022 0.33785 0.52014
 C305 C 0.63421 0.36600 0.53212
 O306 O 0.65964 0.38695 0.48058
 O307 O 0.72073 0.38417 0.47338
 C308 C 0.73661 0.36541 0.46845
 O309 O 0.73092 0.33618 0.47976
 O310 O 0.66659 0.27501 0.47209
 C311 C 0.63180 0.25899 0.46740
 O312 O 0.60849 0.26401 0.47930
 O313 O 0.61200 0.32871 0.47288
 C314 C 0.63095 0.36383 0.46866
 Cr315 Cr 0.69428 0.38268 0.50055
 Cr316 Cr 0.69204 0.30056 0.49949
 Cr317 Cr 0.61231 0.30235 0.49975
 O318 O 0.66622 0.32855 0.49993
 O319 O 0.33022 0.61616 0.52747
 O320 O 0.26713 0.61517 0.52039
 C321 C 0.26267 0.63940 0.53174
 O322 O 0.27956 0.67427 0.52670
 O323 O 0.34207 0.73755 0.51939
 C324 C 0.37037 0.74216 0.53121
 O325 O 0.38831 0.72529 0.52668
 O326 O 0.38896 0.66268 0.52016
 C327 C 0.36513 0.63422 0.53198
 O328 O 0.33974 0.61350 0.48026
 O329 O 0.27828 0.61566 0.47315
 C330 C 0.26228 0.63430 0.46816
 O331 O 0.26774 0.66342 0.47950
 O332 O 0.33181 0.72505 0.47218
 C333 C 0.36661 0.74126 0.46749
 O334 O 0.39003 0.73631 0.47934
 O335 O 0.38722 0.67194 0.47288
 C336 C 0.36847 0.63686 0.46849
 Cr337 Cr 0.30491 0.61723 0.50030
 Cr338 Cr 0.30632 0.69901 0.49946
 Cr339 Cr 0.38654 0.69804 0.49977
 O340 O 0.33258 0.67141 0.49984
 C341 C 0.42241 0.57425 0.37544
 C342 C 0.43991 0.61739 0.37634
 C343 C 0.42907 0.62970 0.39553
 C344 C 0.40179 0.59768 0.41197
 C345 C 0.42208 0.57602 0.41840
 C346 C 0.43293 0.56370 0.39918
 C347 C 0.37972 0.55831 0.37679
 C348 C 0.36888 0.57063 0.39600
 C349 C 0.43416 0.56135 0.35462
 C350 C 0.44403 0.55160 0.33722
 C351 C 0.39008 0.61119 0.43251
 C352 C 0.38033 0.62272 0.44911
 H353 H 0.45915 0.63660 0.36307
 H354 H 0.43903 0.65945 0.39869
 H355 H 0.42743 0.57082 0.43644
 H356 H 0.44757 0.54793 0.40075
 H357 H 0.35976 0.53902 0.36383
 H358 H 0.33963 0.56189 0.39948
 C359 C 0.42737 0.85336 0.37187
 C360 C 0.44160 0.82522 0.37346
 C361 C 0.42963 0.80305 0.39319
 C362 C 0.40460 0.81119 0.40943
 C363 C 0.37237 0.80685 0.39351
 C364 C 0.38433 0.82900 0.37378
 C365 C 0.44000 0.87588 0.39511
 C366 C 0.42802 0.85369 0.41486
 C367 C 0.43993 0.87697 0.35050
 C368 C 0.44950 0.89583 0.33269
 C369 C 0.39149 0.78702 0.43055
 C370 C 0.38031 0.76650 0.44760
 H371 H 0.45953 0.82293 0.36025
 H372 H 0.43732 0.78178 0.39689
 H373 H 0.34274 0.78803 0.39739
 H374 H 0.36493 0.82915 0.36077
 H375 H 0.45687 0.90652 0.39597
 H376 H 0.43463 0.86533 0.43264
 C377 C 0.14868 0.57877 0.37342
 C378 C 0.16779 0.62138 0.37843
 C379 C 0.19025 0.63246 0.39801
 C380 C 0.19139 0.59985 0.41068
 C381 C 0.20348 0.58144 0.39160
 C382 C 0.18104 0.57037 0.37203
 C383 C 0.12757 0.55956 0.39633
 C384 C 0.15004 0.57065 0.41593
 C385 C 0.12479 0.56681 0.35222
 C386 C 0.10572 0.55683 0.33453
 C387 C 0.21588 0.61185 0.43162
 C388 C 0.23668 0.62193 0.44850
 H389 H 0.16399 0.64110 0.36756
 H390 H 0.20569 0.66168 0.40392
 H391 H 0.22756 0.57744 0.39331
 H392 H 0.18591 0.55688 0.35698
 H393 H 0.09762 0.53909 0.39709
 H394 H 0.13934 0.55968 0.43348
 C395 C 0.57858 0.42783 0.37552
 C396 C 0.56872 0.43909 0.39921
 C397 C 0.57925 0.42651 0.41848
 C398 C 0.59858 0.40391 0.41213
 C399 C 0.63163 0.43023 0.39604
 C400 C 0.62111 0.44281 0.37679
 C401 C 0.56013 0.38460 0.37661
 C402 C 0.57064 0.37203 0.39584
 C403 C 0.56718 0.44098 0.35466
 C404 C 0.55757 0.45091 0.33721
 C405 C 0.60993 0.39011 0.43270
 C406 C 0.61940 0.37831 0.44930
 H407 H 0.55474 0.45551 0.40072
 H408 H 0.57428 0.43213 0.43650
 H409 H 0.66073 0.43831 0.39947
 H410 H 0.64120 0.46167 0.36373
 H411 H 0.54051 0.36552 0.36342
 H412 H 0.56003 0.34219 0.39914
 C413 C 0.57055 0.14746 0.37165
 C414 C 0.56587 0.12516 0.39450
 C415 C 0.57793 0.14723 0.41429
 C416 C 0.59346 0.18942 0.40926
 C417 C 0.56168 0.19112 0.39605
 C418 C 0.54963 0.16905 0.37628
 C419 C 0.61242 0.17799 0.37094
 C420 C 0.62446 0.20004 0.39070
 C421 C 0.55792 0.12397 0.35026
 C422 C 0.54832 0.10520 0.33244
 C423 C 0.60667 0.21346 0.43041
 C424 C 0.61795 0.23388 0.44749
 H425 H 0.55411 0.09472 0.39509
 H426 H 0.57650 0.13572 0.43183
 H427 H 0.54967 0.20813 0.40175
 H428 H 0.52730 0.16715 0.36503
 H429 H 0.63099 0.18195 0.35620
 H430 H 0.65334 0.22288 0.39288
 C431 C 0.85138 0.42104 0.37451
 C432 C 0.83501 0.44660 0.38006
 C433 C 0.81228 0.43550 0.39947
 C434 C 0.80813 0.39992 0.41144
 C435 C 0.84859 0.40934 0.41680
 C436 C 0.87135 0.42046 0.39736
 C437 C 0.81704 0.38104 0.37238
 C438 C 0.79431 0.36994 0.39180
 C439 C 0.87556 0.43302 0.35349
 C440 C 0.89487 0.44300 0.33595
 C441 C 0.78337 0.38790 0.43219
 C442 C 0.76237 0.37780 0.44894
 H443 H 0.84079 0.47128 0.36966
 H444 H 0.79858 0.45066 0.40571
 H445 H 0.85847 0.40744 0.43430
 H446 H 0.90074 0.42809 0.39820
 H447 H 0.81113 0.36301 0.35699
 H448 H 0.76891 0.34238 0.39304
 C449 C 0.57263 0.42535 1.12740
 C450 C 0.60580 0.45846 1.11457
 C451 C 0.61738 0.44784 1.09492
 C452 C 0.59465 0.40514 1.09002
 C453 C 0.55342 0.39549 1.08882
 C454 C 0.54183 0.40612 1.10848
 C455 C 0.58591 0.39710 1.13255
 C456 C 0.59748 0.38648 1.11291
 C457 C 0.56040 0.43675 1.14868
 C458 C 0.55094 0.44616 1.16640
 C459 C 0.60723 0.39351 1.06901
 C460 C 0.61772 0.38340 1.05207
 H461 H 0.61902 0.48769 1.12040
 H462 H 0.64051 0.46795 1.08391
 H463 H 0.53496 0.38157 1.07384
 H464 H 0.51346 0.40130 1.11035
 H465 H 0.58620 0.38636 1.15009
 H466 H 0.60768 0.36666 1.11364
 C467 C 0.85221 0.43206 1.12651
 C468 C 0.87387 0.43966 1.10311
 C469 C 0.85124 0.42853 1.08358
 C470 C 0.80920 0.41090 1.08939
 C471 C 0.80653 0.44077 1.10436
 C472 C 0.82914 0.45189 1.12387
 C473 C 0.82305 0.38960 1.12612
 C474 C 0.80045 0.37848 1.10662
 C475 C 0.87627 0.44377 1.14764
 C476 C 0.89546 0.45277 1.16525
 C477 C 0.78455 0.39877 1.06852
 C478 C 0.76364 0.38852 1.05169
 H479 H 0.90427 0.45264 1.10198
 H480 H 0.86225 0.43197 1.06572
 H481 H 0.78849 0.45220 1.10000
 H482 H 0.83047 0.47284 1.13622
 H483 H 0.82039 0.36997 1.13996
 H484 H 0.77844 0.34933 1.10375
 C485 C 0.57782 0.15113 1.12534
 C486 C 0.56936 0.12977 1.10172
 C487 C 0.58068 0.15291 1.08239
 C488 C 0.59933 0.19511 1.08859
 C489 C 0.63162 0.20267 1.10554
 C490 C 0.62032 0.17956 1.12485
 C491 C 0.55908 0.17533 1.12329
 C492 C 0.57038 0.19843 1.10398
 C493 C 0.56565 0.12652 1.14628
 C494 C 0.55557 0.10690 1.16376
 C495 C 0.61165 0.22030 1.06792
 C496 C 0.62216 0.24161 1.05125
 H497 H 0.55571 0.09920 1.10031
 H498 H 0.57671 0.14215 1.06442
 H499 H 0.66082 0.22427 1.10262
 H500 H 0.63983 0.18136 1.13847
 H501 H 0.53870 0.17438 1.13590
 H502 H 0.55967 0.21727 1.10005
 C503 C 0.42908 0.57683 1.12725
 C504 C 0.41726 0.60629 1.13204
 C505 C 0.40553 0.61658 1.11231
 C506 C 0.40676 0.59642 1.08972
 C507 C 0.38312 0.55404 1.09541
 C508 C 0.39486 0.54374 1.11515
 C509 C 0.45926 0.59438 1.10786
 C510 C 0.44752 0.60469 1.08811
 C511 C 0.44146 0.56577 1.14861
 C512 C 0.45101 0.55659 1.16640
 C513 C 0.39400 0.60770 1.06863
 C514 C 0.38332 0.61752 1.05163
 H515 H 0.41804 0.61804 1.14940
 H516 H 0.39626 0.63716 1.11278
 H517 H 0.35929 0.53390 1.08485
 H518 H 0.38109 0.51476 1.12151
 H519 H 0.48735 0.59834 1.10950
 H520 H 0.46554 0.61749 1.07282
 C521 C 0.14974 0.56812 1.12637
 C522 C 0.14100 0.59139 1.10886
 C523 C 0.16325 0.60233 1.08920
 C524 C 0.19203 0.58892 1.08900
 C525 C 0.16861 0.54582 1.09216
 C526 C 0.14636 0.53487 1.11182
 C527 C 0.19191 0.59287 1.13185
 C528 C 0.21414 0.60380 1.11222
 C529 C 0.12609 0.55660 1.14763
 C530 C 0.10720 0.54774 1.16534
 C531 C 0.21629 0.60087 1.06801
 C532 C 0.23697 0.61102 1.05111
 H533 H 0.11924 0.59860 1.11164
 H534 H 0.16056 0.61892 1.07514
 H535 H 0.16941 0.52568 1.08002
 H536 H 0.12809 0.50536 1.11653
 H537 H 0.20332 0.60110 1.14961
 H538 H 0.24459 0.62140 1.11315
 C539 C 0.42068 0.84868 1.12438
 C540 C 0.43598 0.86997 1.10092
 C541 C 0.42493 0.84688 1.08158
 C542 C 0.39969 0.80479 1.08762
 C543 C 0.36675 0.80254 1.10177
 C544 C 0.37778 0.82561 1.12109
 C545 C 0.43336 0.81925 1.12497
 C546 C 0.42233 0.79619 1.10566
 C547 C 0.43254 0.87322 1.14532
 C548 C 0.44236 0.89278 1.16280
 C549 C 0.38766 0.77964 1.06697
 C550 C 0.37733 0.75831 1.05032
 H551 H 0.45387 0.90047 1.09962
 H552 H 0.43337 0.85759 1.06370
 H553 H 0.33733 0.78444 1.09702
 H554 H 0.35783 0.82728 1.13289
 H555 H 0.44961 0.81676 1.13930
 H556 H 0.42913 0.77395 1.10345
 C557 C 0.57377 0.42162 0.62536
 C558 C 0.55275 0.37858 0.62173
 C559 C 0.56483 0.36749 0.60254
 C560 C 0.59675 0.40052 0.58886
 C561 C 0.62768 0.42233 0.60733
 C562 C 0.61561 0.43342 0.62651
 C563 C 0.56929 0.43785 0.60187
 C564 C 0.58137 0.42675 0.58267
 C565 C 0.56106 0.43358 0.64614
 C566 C 0.55131 0.44355 0.66348
 C567 C 0.60990 0.38851 0.56832
 C568 C 0.62093 0.37840 0.55166
 H569 H 0.53034 0.35859 0.63321
 H570 H 0.55277 0.33798 0.59757
 H571 H 0.65654 0.42853 0.60550
 H572 H 0.63413 0.44912 0.64112
 H573 H 0.55763 0.45639 0.60045
 H574 H 0.58008 0.43579 0.56479
 C575 C 0.57526 0.14554 0.62650
 C576 C 0.57014 0.12340 0.60352
 C577 C 0.58037 0.14541 0.58369
 C578 C 0.59470 0.18735 0.58883
 C579 C 0.62694 0.19916 0.60667
 C580 C 0.61672 0.17719 0.62648
 C581 C 0.55275 0.16574 0.62270
 C582 C 0.56297 0.18771 0.60290
 C583 C 0.56426 0.12220 0.64794
 C584 C 0.55506 0.10360 0.66582
 C585 C 0.60587 0.21138 0.56769
 C586 C 0.61555 0.23201 0.55071
 H587 H 0.55943 0.09315 0.60288
 H588 H 0.57843 0.13402 0.56605
 H589 H 0.65532 0.22271 0.60398
 H590 H 0.63634 0.18189 0.64074
 H591 H 0.53069 0.16299 0.63452
 H592 H 0.54967 0.20379 0.59775
 C593 C 0.85038 0.41716 0.62624
 C594 C 0.87210 0.42802 0.60274
 C595 C 0.84936 0.41641 0.58327
 C596 C 0.80717 0.39509 0.58923
 C597 C 0.80147 0.42205 0.60527
 C598 C 0.82417 0.43365 0.62472
 C599 C 0.82414 0.37411 0.62493
 C600 C 0.80142 0.36251 0.60547
 C601 C 0.87458 0.42969 0.64730
 C602 C 0.89396 0.44011 0.66483
 C603 C 0.78245 0.38259 0.56840
 C604 C 0.76156 0.37221 0.55157
 H605 H 0.90262 0.44344 0.60151
 H606 H 0.86041 0.42189 0.56535
 H607 H 0.78136 0.43124 0.60166
 H608 H 0.82352 0.45277 0.63777
 H609 H 0.82348 0.35447 0.63811
 H610 H 0.78130 0.33292 0.60198
 C611 C 0.42607 0.57854 0.62518
 C612 C 0.38316 0.56139 0.62435
 C613 C 0.37100 0.57251 0.60518
 C614 C 0.40293 0.59970 0.58870
 C615 C 0.42408 0.57894 0.58222
 C616 C 0.43625 0.56781 0.60141
 C617 C 0.44235 0.62148 0.62382
 C618 C 0.43019 0.63261 0.60465
 C619 C 0.43888 0.56653 0.64595
 C620 C 0.44869 0.55653 0.66328
 C621 C 0.38967 0.61174 0.56817
 C622 C 0.37854 0.62185 0.55152
 H623 H 0.36399 0.54217 0.63764
 H624 H 0.34143 0.56281 0.60207
 H625 H 0.42906 0.57347 0.56417
 H626 H 0.45166 0.55281 0.59979
 H627 H 0.46175 0.64141 0.63676
 H628 H 0.43917 0.66206 0.60118
 C629 C 0.42256 0.85347 0.62710
 C630 C 0.43533 0.87646 0.60404
 C631 C 0.42511 0.85462 0.58414
 C632 C 0.40314 0.81196 0.58928
 C633 C 0.36960 0.80570 0.60456
 C634 C 0.37981 0.82752 0.62444
 C635 C 0.43873 0.82692 0.62590
 C636 C 0.42853 0.80511 0.60603
 C637 C 0.43356 0.87665 0.64864
 C638 C 0.44279 0.89512 0.66659
 C639 C 0.39202 0.78809 0.56804
 C640 C 0.38243 0.76761 0.55098
 H641 H 0.45098 0.90716 0.60341
 H642 H 0.43201 0.86660 0.56645
 H643 H 0.34039 0.78590 0.60014
 H644 H 0.35935 0.82641 0.63705
 H645 H 0.45665 0.82540 0.63947
 H646 H 0.43773 0.78492 0.60258
 C647 C 0.14932 0.58111 0.62654
 C648 C 0.17653 0.56581 0.62519
 C649 C 0.19896 0.57750 0.60564
 C650 C 0.19202 0.60338 0.58931
 C651 C 0.19694 0.63597 0.60523
 C652 C 0.17450 0.62427 0.62480
 C653 C 0.12730 0.56911 0.60314
 C654 C 0.14976 0.58082 0.58355
 C655 C 0.12540 0.56848 0.64773
 C656 C 0.10628 0.55800 0.66537
 C657 C 0.21648 0.61603 0.56837
 C658 C 0.23721 0.62659 0.55146
 H659 H 0.17804 0.54738 0.63844
 H660 H 0.21968 0.56909 0.60214
 H661 H 0.21633 0.66564 0.60146
 H662 H 0.17466 0.64391 0.63778
 H663 H 0.09677 0.55287 0.60204
 H664 H 0.13847 0.57461 0.56569
 C665 C 0.42260 0.56919 0.87316
 C666 C 0.42649 0.55129 0.89610
 C667 C 0.41571 0.56252 0.91586
 C668 C 0.40212 0.59054 0.91070
 C669 C 0.37056 0.57063 0.89231
 C670 C 0.38132 0.55941 0.87259
 C671 C 0.44543 0.61205 0.87750
 C672 C 0.43466 0.62327 0.89724
 C673 C 0.43412 0.55735 0.85179
 C674 C 0.44361 0.54821 0.83399
 C675 C 0.39026 0.60272 0.93177
 C676 C 0.37981 0.61286 0.94870
 H677 H 0.43680 0.53155 0.89677
 H678 H 0.41678 0.55242 0.93346
 H679 H 0.34222 0.56574 0.89460
 H680 H 0.36221 0.54491 0.85798
 H681 H 0.46809 0.63184 0.86609
 H682 H 0.44808 0.65267 0.90273
 C683 C 0.14914 0.56650 0.87297
 C684 C 0.12708 0.55256 0.89626
 C685 C 0.14944 0.56393 0.91592
 C686 C 0.19164 0.58813 0.91032
 C687 C 0.19531 0.62101 0.89522
 C688 C 0.17298 0.60965 0.87560
 C689 C 0.17757 0.55265 0.87363
 C690 C 0.19992 0.56402 0.89326
 C691 C 0.12537 0.55467 0.85172
 C692 C 0.10639 0.54578 0.83402
 C693 C 0.21601 0.60075 0.93130
 C694 C 0.23675 0.61191 0.94820
 H695 H 0.09660 0.53526 0.89723
 H696 H 0.13813 0.55639 0.93372
 H697 H 0.21382 0.65064 0.89956
 H698 H 0.17237 0.62955 0.86314
 H699 H 0.17991 0.53540 0.85990
 H700 H 0.22141 0.55651 0.89635
 C701 C 0.42594 0.84746 0.87387
 C702 C 0.44368 0.82235 0.87575
 C703 C 0.43204 0.79925 0.89506
 C704 C 0.40379 0.80352 0.91060
 C705 C 0.37160 0.79681 0.89382
 C706 C 0.38324 0.81990 0.87451
 C707 C 0.43514 0.86890 0.89748
 C708 C 0.42349 0.84578 0.91681
 C709 C 0.43825 0.87205 0.85297
 C710 C 0.44779 0.89168 0.83552
 C711 C 0.39118 0.77841 0.93126
 C712 C 0.38078 0.75721 0.94797
 H713 H 0.46366 0.82270 0.86304
 H714 H 0.44204 0.77981 0.89889
 H715 H 0.34224 0.77577 0.89684
 H716 H 0.36385 0.81866 0.86099
 H717 H 0.44954 0.89952 0.89889
 H718 H 0.42789 0.85658 0.93479
 C719 C 0.57796 0.43106 0.87344
 C720 C 0.57309 0.39145 0.87131
 C721 C 0.58391 0.38022 0.89104
 C722 C 0.59855 0.40969 0.91100
 C723 C 0.56671 0.41817 0.91553
 C724 C 0.55588 0.42942 0.89577
 C725 C 0.61954 0.45713 0.87998
 C726 C 0.63036 0.44589 0.89972
 C727 C 0.56636 0.44293 0.85206
 C728 C 0.55681 0.45208 0.83424
 C729 C 0.61045 0.39748 0.93209
 C730 C 0.62087 0.38730 0.94905
 H731 H 0.56208 0.37375 0.85567
 H732 H 0.58216 0.35291 0.89229
 H733 H 0.55384 0.41559 0.93272
 H734 H 0.53372 0.43647 0.89604
 H735 H 0.63877 0.48222 0.87000
 H736 H 0.65888 0.46137 0.90664
 C737 C 0.85208 0.43201 0.87410
 C738 C 0.83316 0.45552 0.87878
 C739 C 0.81055 0.44419 0.89829
 C740 C 0.80909 0.41045 0.91121
 C741 C 0.85036 0.42297 0.91667
 C742 C 0.87297 0.43430 0.89716
 C743 C 0.81955 0.39089 0.87278
 C744 C 0.79698 0.37957 0.89226
 C745 C 0.87613 0.44383 0.85298
 C746 C 0.89531 0.45274 0.83537
 C747 C 0.78446 0.39791 0.93207
 C748 C 0.76356 0.38690 0.94889
 H749 H 0.83719 0.47903 0.86776
 H750 H 0.79522 0.45799 0.90397
 H751 H 0.86089 0.42296 0.93431
 H752 H 0.90287 0.44401 0.89808
 H753 H 0.81467 0.37227 0.85784
 H754 H 0.77277 0.35127 0.89400
 C755 C 0.57249 0.15111 0.87505
 C756 C 0.56963 0.13060 0.89840
 C757 C 0.58150 0.15392 0.91764
 C758 C 0.59505 0.19543 0.91162
 C759 C 0.56193 0.19459 0.89846
 C760 C 0.55007 0.17130 0.87924
 C761 C 0.61380 0.18295 0.87353
 C762 C 0.62565 0.20623 0.89275
 C763 C 0.55995 0.12631 0.85422
 C764 C 0.55023 0.10651 0.83684
 C765 C 0.60790 0.22077 0.93220
 C766 C 0.61852 0.24211 0.94885
 H767 H 0.55921 0.10045 0.89971
 H768 H 0.58125 0.14374 0.93543
 H769 H 0.54892 0.21085 0.90379
 H770 H 0.52691 0.16760 0.86810
 H771 H 0.63215 0.18685 0.85866
 H772 H 0.65415 0.23007 0.89434
   
