data_POSCAR
  _audit_creation_date              2014-09-24
  _audit_creation_method            'ToBaCCo'
  _symmetry_space_group_name_H-M    'P1'
  _symmetry_Int_Tables_number       1
  _symmetry_cell_setting            triclinic
  loop_
  _symmetry_equiv_pos_as_xyz
 x,y,z
_cell_length_a 30.9310
_cell_length_b 31.4165
_cell_length_c 32.4940
_cell_angle_alpha 89.969300
_cell_angle_beta 89.567400
_cell_angle_gamma 89.435300
loop_
  _atom_site_label
  _atom_site_type_symbol
  _atom_site_fract_x
  _atom_site_fract_y
  _atom_site_fract_z
N1 N 0.15112 0.17109 0.27689
 N2 N 0.18454 0.14492 0.27390
 C3 C 0.17780 0.11092 0.29831
 C4 C 0.13854 0.11689 0.31785
 C5 C 0.12193 0.15477 0.30337
 H6 H 0.19825 0.08281 0.29937
 H7 H 0.08998 0.16782 0.30920
 Cu8 Cu 0.23070 0.15489 0.23427
 Cu9 Cu 0.14515 0.22134 0.24217
 Cu10 Cu 0.22231 0.23360 0.16517
 N11 N 0.26882 0.15695 0.18644
 N12 N 0.26614 0.18877 0.16018
 C13 C 0.29269 0.18095 0.12799
 C14 C 0.31320 0.14252 0.13481
 C15 C 0.29696 0.12750 0.17168
 H16 H 0.29383 0.19967 0.10006
 H17 H 0.30242 0.09637 0.18502
 N18 N 0.17486 0.27482 0.17496
 N19 N 0.14502 0.27004 0.20392
 C20 C 0.11513 0.30142 0.20040
 C21 C 0.12706 0.32670 0.16773
 C22 C 0.16488 0.30927 0.15221
 H23 H 0.08618 0.30467 0.21903
 H24 H 0.18264 0.31988 0.12539
 H25 H 0.17822 0.19388 0.19342
 H26 H 0.20953 0.22966 0.22777
 N27 N -0.16061 0.82942 0.27008
 N28 N -0.19452 0.85508 0.26919
 C29 C -0.19188 0.88354 0.30015
 C30 C -0.15442 0.87479 0.32138
 C31 C -0.13523 0.84039 0.30176
 H32 H -0.21530 0.90846 0.30668
 H33 H -0.10514 0.82476 0.30975
 Cu34 Cu -0.23861 0.84840 0.22751
 Cu35 Cu -0.15149 0.78407 0.22972
 Cu36 Cu -0.22313 0.78095 0.14826
 N37 N -0.27411 0.85166 0.17855
 N38 N -0.26811 0.82512 0.14762
 C39 C -0.29383 0.83695 0.11623
 C40 C -0.31733 0.87223 0.12871
 C41 C -0.30370 0.88138 0.16794
 H42 H -0.29295 0.82310 0.08576
 H43 H -0.31205 0.90920 0.18605
 N44 N -0.17528 0.73930 0.15479
 N45 N -0.14784 0.74066 0.18579
 C46 C -0.11860 0.70879 0.18154
 C47 C -0.12829 0.68664 0.14633
 C48 C -0.16427 0.70649 0.12991
 H49 H -0.09223 0.70221 0.20232
 H50 H -0.18090 0.69784 0.10203
 H51 H -0.18268 0.81747 0.18365
 H52 H -0.21470 0.77597 0.21111
 N53 N -0.14509 0.16595 -0.26805
 N54 N -0.17984 0.14208 -0.26626
 C55 C -0.17875 0.11374 -0.29745
 C56 C -0.14148 0.12059 -0.31988
 C57 C -0.12071 0.15384 -0.30065
 H58 H -0.20313 0.09014 -0.30340
 H59 H -0.09028 0.16794 -0.30954
 Cu60 Cu -0.22318 0.15085 -0.22336
 Cu61 Cu -0.13397 0.21070 -0.22745
 Cu62 Cu -0.20558 0.21733 -0.14473
 N63 N -0.25940 0.14953 -0.17417
 N64 N -0.25259 0.17587 -0.14342
 C65 C -0.27956 0.16617 -0.11204
 C66 C -0.30477 0.13252 -0.12431
 C67 C -0.29077 0.12203 -0.16343
 H68 H -0.27872 0.18040 -0.08175
 H69 H -0.30044 0.09486 -0.18147
 N70 N -0.15599 0.25629 -0.15178
 N71 N -0.12852 0.25373 -0.18314
 C72 C -0.09851 0.28446 -0.17923
 C73 C -0.10778 0.30712 -0.14386
 C74 C -0.14430 0.28868 -0.12713
 H75 H -0.07219 0.29015 -0.20055
 H76 H -0.16108 0.29830 -0.09930
 H77 H -0.16587 0.17909 -0.18078
 H78 H -0.19657 0.22204 -0.20773
 N79 N 0.16403 0.82222 -0.26962
 N80 N 0.19823 0.84682 -0.26913
 C81 C 0.19565 0.87515 -0.30024
 C82 C 0.15785 0.86740 -0.32096
 C83 C 0.13847 0.83376 -0.30104
 H84 H 0.21898 0.89972 -0.30676
 H85 H 0.10786 0.81936 -0.30836
 Cu86 Cu 0.24148 0.84033 -0.22665
 Cu87 Cu 0.15393 0.77836 -0.22857
 Cu88 Cu 0.22148 0.77838 -0.14412
 N89 N 0.27425 0.84604 -0.17639
 N90 N 0.26591 0.82264 -0.14368
 C91 C 0.28946 0.83709 -0.11186
 C92 C 0.31409 0.87059 -0.12605
 C93 C 0.30329 0.87600 -0.16672
 H94 H 0.28648 0.82617 -0.08040
 H95 H 0.31288 0.90186 -0.18669
 N96 N 0.17445 0.73645 -0.15142
 N97 N 0.14888 0.73656 -0.18387
 C98 C 0.12030 0.70459 -0.18046
 C99 C 0.12838 0.68357 -0.14423
 C100 C 0.16279 0.70423 -0.12634
 H101 H 0.09558 0.69711 -0.20258
 H102 H 0.17811 0.69635 -0.09748
 H103 H 0.18370 0.81383 -0.18317
 H104 H 0.21664 0.76977 -0.20673
 N105 N 0.16026 1.14423 0.73353
 N106 N 0.12810 1.17132 0.73953
 C107 C 0.10018 1.16874 0.70798
 C108 C 0.11597 1.13831 0.68125
 C109 C 0.15396 1.12320 0.69809
 H110 H 0.07051 1.18697 0.70513
 H111 H 0.17510 1.09865 0.68575
 Cu112 Cu 0.12501 1.20618 0.78861
 Cu113 Cu 0.20775 1.13791 0.77205
 Cu114 Cu 0.20999 1.20991 0.85260
 N115 N 0.13037 1.25055 0.82951
 N116 N 0.16343 1.25193 0.85474
 C117 C 0.15888 1.28596 0.87970
 C118 C 0.12101 1.30653 0.86901
 C119 C 0.10365 1.28366 0.83725
 H120 H 0.18144 1.29517 0.90327
 H121 H 0.07412 1.29072 0.82088
 N122 N 0.25392 1.16479 0.84491
 N123 N 0.25299 1.13706 0.81434
 C124 C 0.28703 1.11013 0.81764
 C125 C 0.31008 1.12188 0.85175
 C126 C 0.28856 1.15644 0.86850
 H127 H 0.29446 1.08408 0.79696
 H128 H 0.29735 1.17392 0.89580
 H129 H 0.17717 1.16096 0.82444
 H130 H 0.20335 1.20097 0.78990
 N131 N 0.83812 0.84763 0.74050
 N132 N 0.86563 0.81566 0.74450
 C133 C 0.89453 0.81689 0.71312
 C134 C 0.88406 0.85145 0.68877
 C135 C 0.84831 0.87029 0.70679
 H136 H 0.92088 0.79453 0.70833
 H137 H 0.83100 0.89821 0.69612
 Cu138 Cu 0.86040 0.77592 0.79059
 Cu139 Cu 0.79067 0.85799 0.77857
 Cu140 Cu 0.77847 0.78660 0.85876
 N141 N 0.85196 0.73534 0.83556
 N142 N 0.81972 0.73984 0.86196
 C143 C 0.82131 0.70825 0.88999
 C144 C 0.85634 0.68282 0.88051
 C145 C 0.87533 0.70055 0.84592
 H146 H 0.79900 0.70434 0.91546
 H147 H 0.90395 0.68919 0.82989
 N148 N 0.73992 0.83587 0.85058
 N149 N 0.74455 0.86331 0.82007
 C150 C 0.71325 0.89339 0.82288
 C151 C 0.68820 0.88400 0.85669
 C152 C 0.70562 0.84759 0.87371
 H153 H 0.70894 0.91990 0.80204
 H154 H 0.69413 0.83103 0.90078
 H155 H 0.81872 0.82908 0.82902
 H156 H 0.78408 0.79505 0.79580
 N157 N 0.14711 0.85815 1.25172
 N158 N 0.11643 0.83112 1.24246
 C159 C 0.08919 0.82712 1.27487
 C160 C 0.10421 0.85296 1.30574
 C161 C 0.14076 0.87228 1.29025
 H162 H 0.06080 0.80730 1.27570
 H163 H 0.16081 0.89526 1.30563
 Cu164 Cu 0.11555 0.80373 1.18913
 Cu165 Cu 0.19281 0.87398 1.21344
 Cu166 Cu 0.19996 0.81510 1.12398
 N167 N 0.12602 0.76500 1.14372
 N168 N 0.15887 0.76952 1.11819
 C169 C 0.16030 0.73644 1.09184
 C170 C 0.12658 0.71016 1.10180
 C171 C 0.10529 0.72887 1.13470
 H172 H 0.18507 0.73093 1.06873
 H173 H 0.07819 0.71628 1.15189
 N174 N 0.23858 0.86236 1.13618
 N175 N 0.23649 0.88485 1.17050
 C176 C 0.26961 0.91251 1.17102
 C177 C 0.29319 0.90654 1.13536
 C178 C 0.27289 0.87480 1.11391
 H179 H 0.27705 0.93384 1.19603
 H180 H 0.28345 0.86065 1.08518
 H181 H 0.16296 0.85722 1.15936
 H182 H 0.19305 0.81417 1.18748
 N183 N 0.84568 1.14130 1.25778
 N184 N 0.87429 1.17160 1.25221
 C185 C 0.90375 1.16958 1.28269
 C186 C 0.89257 1.13630 1.30824
 C187 C 0.85574 1.11899 1.29177
 H188 H 0.93096 1.19060 1.28610
 H189 H 0.83765 1.09232 1.30363
 Cu190 Cu 0.86979 1.21071 1.20560
 Cu191 Cu 0.79711 1.13256 1.22108
 Cu192 Cu 0.78749 1.20232 1.13928
 N193 N 0.86189 1.25087 1.16019
 N194 N 0.82993 1.24665 1.13404
 C195 C 0.83107 1.27832 1.10614
 C196 C 0.86544 1.30364 1.11552
 C197 C 0.88458 1.28576 1.14989
 H198 H 0.80811 1.28315 1.08161
 H199 H 0.91226 1.29757 1.16633
 N200 N 0.74731 1.15579 1.14914
 N201 N 0.75028 1.12907 1.18042
 C202 C 0.71683 1.10177 1.17904
 C203 C 0.69224 1.11244 1.14532
 C204 C 0.71219 1.14652 1.12702
 H205 H 0.71062 1.07659 1.20092
 H206 H 0.70150 1.16351 1.09996
 H207 H 0.82621 1.15820 1.17001
 H208 H 0.79293 1.19509 1.20279
 N209 N 0.45149 0.93399 0.95611
 N210 N 0.41415 0.91391 0.95528
 N211 N 0.54409 0.95962 0.92864
 N212 N 0.57680 0.95165 0.90329
 N213 N 0.54223 0.93065 0.95771
 N214 N 0.57334 0.90210 0.95312
 N215 N 0.45279 0.96350 0.92738
 N216 N 0.41619 0.96434 0.90666
 C217 C 0.39314 0.93224 0.92343
 C218 C 0.59447 0.91575 0.91930
 N219 N 0.54755 1.08120 0.95662
 N220 N 0.58540 1.10035 0.95743
 N221 N 0.45626 1.05522 0.92601
 N222 N 0.42400 1.06160 0.90021
 N223 N 0.45647 1.08486 0.95445
 N224 N 0.42453 1.11233 0.94895
 N225 N 0.54761 1.05139 0.92817
 N226 N 0.58555 1.04968 0.90918
 Mn227 Mn 0.50020 1.00744 0.92699
 C228 C 0.60818 1.08147 0.92666
 C229 C 0.40482 1.09739 0.91510
 N230 N 0.54099 0.93199 1.04610
 N231 N 0.57833 0.91119 1.04595
 N232 N 0.44940 0.96424 1.07301
 N233 N 0.41464 0.96068 1.09666
 N234 N 0.45004 0.93463 1.04453
 N235 N 0.41599 0.91005 1.04779
 N236 N 0.54075 0.96173 1.07460
 N237 N 0.57796 0.96174 1.09430
 Mn238 Mn 0.49619 0.93239 1.00116
 C239 C 0.60037 0.92905 1.07716
 C240 C 0.39455 0.92660 1.08033
 N241 N 0.45256 1.08506 1.04291
 N242 N 0.41608 1.10724 1.04205
 N243 N 0.54203 1.05327 1.07427
 N244 N 0.57454 1.05772 1.10004
 N245 N 0.54350 1.08232 1.04525
 N246 N 0.57683 1.10748 1.05035
 N247 N 0.45099 1.05602 1.07207
 N248 N 0.41351 1.05805 1.09184
 Mn249 Mn 0.50004 1.08383 0.99981
 Mn250 Mn 0.49573 1.00878 1.07404
 Cl251 Cl 0.49804 1.00814 1.00047
 C252 C 0.39278 1.09105 1.07362
 C253 C 0.59560 1.09173 1.08449
 N254 N 0.04941 0.46046 0.08266
 N255 N 0.05666 0.43073 0.11074
 N256 N 0.07593 0.55002 0.05108
 N257 N 0.09812 0.58563 0.05425
 N258 N 0.04429 0.54952 0.07826
 N259 N 0.04394 0.58429 0.10077
 N260 N 0.08068 0.46061 0.05510
 N261 N 0.11002 0.43127 0.06337
 C262 C 0.09457 0.41300 0.09790
 C263 C 0.07766 0.60614 0.08562
 N264 N 0.05425 0.54282 -0.06736
 N265 N 0.06164 0.57373 -0.09425
 N266 N 0.08579 0.45566 -0.03310
 N267 N 0.11383 0.42368 -0.03553
 N268 N 0.05720 0.45319 -0.06270
 N269 N 0.06475 0.41968 -0.08607
 N270 N 0.08187 0.54490 -0.03692
 N271 N 0.10865 0.57681 -0.04196
 Mn272 Mn 0.08152 0.50281 0.00906
 C273 C 0.09567 0.59444 -0.07757
 C274 C 0.10009 0.40181 -0.06876
 N275 N -0.04821 0.54657 0.07435
 N276 N -0.05781 0.57885 0.09898
 N277 N -0.07195 0.45435 0.04923
 N278 N -0.09544 0.41974 0.05473
 N279 N -0.04321 0.45754 0.07864
 N280 N -0.04617 0.42580 0.10487
 N281 N -0.07625 0.54425 0.04427
 N282 N -0.10570 0.57482 0.04748
 Mn283 Mn 0.00053 0.50350 0.07885
 C284 C -0.09361 0.59605 0.08160
 C285 C -0.07878 0.40278 0.08974
 N286 N -0.03612 0.44940 -0.06727
 N287 N -0.04134 0.41695 -0.09281
 N288 N -0.07074 0.54004 -0.04476
 N289 N -0.09754 0.57197 -0.05321
 N290 N -0.03883 0.53883 -0.07173
 N291 N -0.04285 0.56944 -0.09915
 N292 N -0.06736 0.45032 -0.03958
 N293 N -0.09442 0.41874 -0.04524
 Mn294 Mn 0.00916 0.49599 -0.06777
 Mn295 Mn -0.07217 0.49726 0.00226
 Cl296 Cl 0.00468 0.49986 0.00552
 C297 C -0.07777 0.39819 -0.07825
 C298 C -0.07944 0.58963 -0.08731
 N299 N 0.92925 0.04295 0.54058
 N300 N 0.90365 0.05167 0.57240
 N301 N 0.96043 0.06553 0.45145
 N302 N 0.95539 0.09034 0.41884
 N303 N 0.92899 0.03776 0.45390
 N304 N 0.90185 0.04262 0.42315
 N305 N 0.96060 0.07084 0.53805
 N306 N 0.95743 0.09909 0.56797
 C307 C 0.92185 0.08683 0.58891
 C308 C 0.91870 0.07536 0.40173
 N309 N 1.08282 0.02890 0.45409
 N310 N 1.10469 0.02507 0.41927
 N311 N 1.05339 0.06549 0.53844
 N312 N 1.05935 0.09248 0.56906
 N313 N 1.08150 0.03396 0.54035
 N314 N 1.10764 0.03860 0.57179
 N315 N 1.05408 0.05990 0.45145
 N316 N 1.05597 0.07798 0.41471
 Mn317 Mn 1.00720 0.06602 0.49470
 C318 C 1.08864 0.05666 0.39564
 C319 C 1.09345 0.07511 0.58918
 N320 N 0.92473 -0.05373 0.45798
 N321 N 0.89788 -0.05979 0.42702
 N322 N 0.95329 -0.08064 0.54558
 N323 N 0.94650 -0.10542 0.57781
 N324 N 0.92492 -0.04923 0.54471
 N325 N 0.89788 -0.05176 0.57619
 N326 N 0.95399 -0.08433 0.45915
 N327 N 0.94803 -0.11201 0.42932
 Mn328 Mn 0.92641 -0.00551 0.49941
 C329 C 0.91308 -0.09632 0.40971
 C330 C 0.91185 -0.08684 0.59635
 N331 N 1.07709 -0.05750 0.54547
 N332 N 1.10449 -0.06508 0.57568
 N333 N 1.04711 -0.08900 0.45882
 N334 N 1.05043 -0.11373 0.42590
 N335 N 1.07903 -0.06179 0.45968
 N336 N 1.10523 -0.06741 0.42809
 N337 N 1.04590 -0.08560 0.54567
 N338 N 1.05081 -0.11285 0.57616
 Mn339 Mn 1.08048 -0.01401 0.50010
 Mn340 Mn 1.00003 -0.08538 0.50221
 Cl341 Cl 1.00343 -0.00970 0.49913
 C342 C 1.08721 -0.09949 0.59449
 C343 C 1.08727 -0.09982 0.40765
 N344 N 1.11645 0.08716 0.33623
 N345 N 1.09600 0.05814 0.35237
 N346 N 0.86125 -0.10322 0.35672
 N347 N 0.89530 -0.11653 0.37444
 N348 N 0.87238 0.09779 0.64411
 N349 N 0.90650 0.10860 0.62487
 N350 N 1.14126 -0.10967 0.64459
 N351 N 1.10561 -0.12081 0.62890
 N352 N 0.33169 1.11944 1.10608
 N353 N 0.34738 1.09822 1.07774
 N354 N 0.33218 0.89962 0.89675
 N355 N 0.34769 0.92826 0.91769
 N356 N 0.66302 0.89899 1.10420
 N357 N 0.64610 0.92493 1.08077
 N358 N 0.67318 1.10769 0.90030
 N359 N 0.65423 1.08350 0.92407
 N360 N 0.10274 0.36111 0.15039
 N361 N 0.11666 0.37888 0.11784
 N362 N -0.08486 0.34316 -0.12831
 N363 N -0.09820 0.36183 -0.09580
 N364 N 0.10560 0.64741 -0.12881
 N365 N 0.11666 0.63060 -0.09489
 N366 N -0.10505 0.65058 0.13038
 N367 N -0.11677 0.63210 0.09754
 N368 N 1.09576 0.12355 0.64468
 N369 N 1.11200 0.09189 0.62558
 N370 N 0.90559 -0.13490 0.65207
 N371 N 0.89188 -0.10204 0.63313
 N372 N 1.08468 -0.13894 0.34495
 N373 N 1.10344 -0.11297 0.36861
 N374 N 0.91439 0.12249 0.34463
 N375 N 0.89926 0.09145 0.36514
 N376 N 0.10301 0.34456 -0.11394
 N377 N 0.12000 0.36374 -0.08375
 N378 N -0.12290 0.34197 0.09485
 N379 N -0.09225 0.36421 0.10865
 N380 N -0.12942 0.64625 -0.09699
 N381 N -0.09567 0.62610 -0.10851
 N382 N 0.11837 0.66928 0.08484
 N383 N 0.08823 0.64722 0.10033
 N384 N 0.34834 1.10180 0.86694
 N385 N 0.36693 1.11666 0.89849
 N386 N 0.33362 0.92518 1.12482
 N387 N 0.35415 0.91052 1.09387
 N388 N 0.65322 1.09317 1.13199
 N389 N 0.63436 1.10861 1.10065
 N390 N 0.65137 0.90724 0.87124
 N391 N 0.63137 0.89419 0.90300
   
