data_POSCAR
  _audit_creation_date              2014-09-24
  _audit_creation_method            'ToBaCCo'
  _symmetry_space_group_name_H-M    'P1'
  _symmetry_Int_Tables_number       1
  _symmetry_cell_setting            triclinic
  loop_
  _symmetry_equiv_pos_as_xyz
 x,y,z
_cell_length_a 47.8916
_cell_length_b 47.4397
_cell_length_c 48.0088
_cell_angle_alpha 90.002800
_cell_angle_beta 90.044400
_cell_angle_gamma 90.029000
loop_
  _atom_site_label
  _atom_site_type_symbol
  _atom_site_fract_x
  _atom_site_fract_y
  _atom_site_fract_z
N1 N 0.26814 0.21601 0.18871
 N2 N 0.25553 0.23854 0.17884
 C3 C 0.26996 0.24827 0.15673
 C4 C 0.29261 0.23082 0.15271
 C5 C 0.29095 0.21063 0.17325
 H6 H 0.26482 0.26693 0.14485
 H7 H 0.30561 0.19375 0.17710
 Cu8 Cu 0.22222 0.25338 0.19684
 Cu9 Cu 0.25496 0.19610 0.22171
 Cu10 Cu 0.19547 0.22245 0.25376
 N11 N 0.18881 0.26803 0.21480
 N12 N 0.17844 0.25573 0.23708
 C13 C 0.15607 0.27038 0.24594
 C14 C 0.15232 0.29290 0.22823
 C15 C 0.17334 0.29096 0.20875
 H16 H 0.14386 0.26539 0.26423
 H17 H 0.17736 0.30549 0.19185
 N18 N 0.21570 0.18901 0.26743
 N19 N 0.23836 0.17898 0.25526
 C20 C 0.24789 0.15688 0.27014
 C21 C 0.23035 0.15294 0.29251
 C22 C 0.21024 0.17355 0.29033
 H23 H 0.26659 0.14501 0.26552
 H24 H 0.19337 0.17741 0.30478
 H25 H 0.21352 0.20733 0.21769
 H26 H 0.23571 0.23029 0.24021
 N27 N 0.73007 -0.21522 0.18843
 N28 N 0.74371 -0.23649 0.17732
 C29 C 0.72922 -0.24628 0.15525
 C30 C 0.70538 -0.23022 0.15266
 C31 C 0.70645 -0.21071 0.17387
 H32 H 0.73522 -0.26406 0.14249
 H33 H 0.69099 -0.19483 0.17867
 Cu34 Cu 0.77870 -0.25013 0.19293
 Cu35 Cu 0.74345 -0.19556 0.22134
 Cu36 Cu 0.80266 -0.22209 0.25306
 N37 N 0.81034 -0.26613 0.21289
 N38 N 0.81956 -0.25521 0.23634
 C39 C 0.84110 -0.27075 0.24581
 C40 C 0.84540 -0.29246 0.22727
 C41 C 0.82572 -0.28904 0.20658
 H42 H 0.85244 -0.26684 0.26491
 H43 H 0.82248 -0.30249 0.18868
 N44 N 0.78275 -0.18865 0.26691
 N45 N 0.76015 -0.17846 0.25479
 C46 C 0.75094 -0.15616 0.26955
 C47 C 0.76865 -0.15229 0.29184
 C48 C 0.78855 -0.17311 0.28968
 H49 H 0.73240 -0.14405 0.26486
 H50 H 0.80554 -0.17701 0.30401
 H51 H 0.78526 -0.20541 0.21731
 H52 H 0.76322 -0.23087 0.23738
 N53 N 0.73053 0.21573 0.81075
 N54 N 0.74278 0.23841 0.82077
 C55 C 0.72816 0.24778 0.84292
 C56 C 0.70579 0.22991 0.84682
 C57 C 0.70779 0.20987 0.82615
 H58 H 0.73302 0.26643 0.85493
 H59 H 0.69343 0.19271 0.82226
 Cu60 Cu 0.77588 0.25392 0.80294
 Cu61 Cu 0.74420 0.19616 0.77777
 Cu62 Cu 0.80331 0.22372 0.74600
 N63 N 0.80905 0.26929 0.78513
 N64 N 0.81967 0.25731 0.76278
 C65 C 0.84190 0.27232 0.75412
 C66 C 0.84526 0.29475 0.77204
 C67 C 0.82418 0.29240 0.79145
 H68 H 0.85436 0.26756 0.73593
 H69 H 0.81998 0.30666 0.80851
 N70 N 0.78375 0.18990 0.73218
 N71 N 0.76123 0.17941 0.74425
 C72 C 0.75224 0.15705 0.72939
 C73 C 0.77000 0.15344 0.70713
 C74 C 0.78966 0.17449 0.70937
 H75 H 0.73381 0.14472 0.73397
 H76 H 0.80657 0.17863 0.69502
 H77 H 0.78543 0.20815 0.78195
 H78 H 0.76293 0.23077 0.75945
 N79 N 0.26984 -0.21623 0.81076
 N80 N 0.25665 -0.23807 0.82131
 C81 C 0.27103 -0.24768 0.84351
 C82 C 0.29424 -0.23086 0.84690
 C83 C 0.29300 -0.21115 0.82588
 H84 H 0.26536 -0.26578 0.85598
 H85 H 0.30803 -0.19469 0.82164
 Cu86 Cu 0.22254 -0.25262 0.80456
 Cu87 Cu 0.25664 -0.19664 0.77770
 Cu88 Cu 0.19732 -0.22311 0.74580
 N89 N 0.18994 -0.26773 0.78549
 N90 N 0.18020 -0.25620 0.76254
 C91 C 0.15814 -0.27125 0.75342
 C92 C 0.15402 -0.29323 0.77171
 C93 C 0.17445 -0.29058 0.79176
 H94 H 0.14632 -0.26681 0.73472
 H95 H 0.17799 -0.30448 0.80926
 N96 N 0.21749 -0.18976 0.73193
 N97 N 0.24013 -0.17965 0.74410
 C98 C 0.24958 -0.15749 0.72926
 C99 C 0.23199 -0.15361 0.70688
 C100 C 0.21195 -0.17432 0.70903
 H101 H 0.26817 -0.14545 0.73395
 H102 H 0.19502 -0.17817 0.69461
 H103 H 0.21498 -0.20721 0.78183
 H104 H 0.23708 -0.23152 0.76058
 N105 N 0.73104 -0.21525 0.81097
 N106 N 0.74180 -0.23938 0.81912
 C107 C 0.72701 -0.24924 0.84090
 C108 C 0.70601 -0.23025 0.84652
 C109 C 0.70900 -0.20897 0.82723
 H110 H 0.73083 -0.26897 0.85152
 H111 H 0.69573 -0.19069 0.82480
 Cu112 Cu 0.77342 -0.25647 0.80012
 Cu113 Cu 0.74531 -0.19479 0.77890
 Cu114 Cu 0.80442 -0.22157 0.74716
 N115 N 0.80825 -0.26930 0.78363
 N116 N 0.82037 -0.25565 0.76307
 C117 C 0.84364 -0.26959 0.75541
 C118 C 0.84609 -0.29301 0.77220
 C119 C 0.82342 -0.29236 0.78983
 H120 H 0.85744 -0.26344 0.73864
 H121 H 0.81821 -0.30770 0.80567
 N122 N 0.78528 -0.18734 0.73401
 N123 N 0.76273 -0.17707 0.74614
 C124 C 0.75369 -0.15460 0.73152
 C125 C 0.77148 -0.15065 0.70934
 C126 C 0.79119 -0.17167 0.71136
 H127 H 0.73504 -0.14260 0.73604
 H128 H 0.80795 -0.17579 0.69684
 H129 H 0.76333 -0.22860 0.75850
 H130 H 0.78578 -0.20936 0.78418
 N131 N 0.26820 0.21485 0.81233
 N132 N 0.25562 0.23736 0.82225
 C133 C 0.27005 0.24698 0.84445
 C134 C 0.29263 0.22943 0.84850
 C135 C 0.29097 0.20935 0.82784
 H136 H 0.26496 0.26563 0.85636
 H137 H 0.30562 0.19244 0.82399
 Cu138 Cu 0.22251 0.25243 0.80410
 Cu139 Cu 0.25499 0.19507 0.77925
 Cu140 Cu 0.19582 0.22188 0.74696
 N141 N 0.18936 0.26743 0.78595
 N142 N 0.17904 0.25532 0.76354
 C143 C 0.15684 0.27018 0.75456
 C144 C 0.15316 0.29266 0.77233
 C145 C 0.17405 0.29047 0.79198
 H146 H 0.14463 0.26533 0.73620
 H147 H 0.17802 0.30486 0.80900
 N148 N 0.21580 0.18825 0.73338
 N149 N 0.23837 0.17806 0.74561
 C150 C 0.24771 0.15582 0.73083
 C151 C 0.23012 0.15196 0.70845
 C152 C 0.21020 0.17276 0.71053
 H153 H 0.26627 0.14376 0.73554
 H154 H 0.19334 0.17668 0.69604
 H155 H 0.23603 0.22944 0.76075
 H156 H 0.21364 0.20657 0.78306
 N157 N 0.26956 -0.21476 0.18856
 N158 N 0.25691 -0.23732 0.17880
 C159 C 0.27132 -0.24718 0.15675
 C160 C 0.29401 -0.22980 0.15265
 C161 C 0.29242 -0.20951 0.17311
 H162 H 0.26610 -0.26587 0.14493
 H163 H 0.30712 -0.19259 0.17682
 Cu164 Cu 0.22354 -0.25202 0.19671
 Cu165 Cu 0.25629 -0.19466 0.22138
 Cu166 Cu 0.19661 -0.22075 0.25329
 N167 N 0.19006 -0.26652 0.21458
 N168 N 0.17958 -0.25411 0.23674
 C169 C 0.15710 -0.26869 0.24549
 C170 C 0.15340 -0.29126 0.22780
 C171 C 0.17457 -0.28942 0.20846
 H172 H 0.14471 -0.26360 0.26364
 H173 H 0.17862 -0.30397 0.19160
 N174 N 0.21684 -0.18725 0.26687
 N175 N 0.23958 -0.17731 0.25477
 C176 C 0.24909 -0.15514 0.26956
 C177 C 0.23142 -0.15105 0.29180
 C178 C 0.21128 -0.17164 0.28964
 H179 H 0.26783 -0.14331 0.26498
 H180 H 0.19433 -0.17539 0.30404
 H181 H 0.23690 -0.22869 0.23996
 H182 H 0.21488 -0.20589 0.21719
 N183 N 0.73292 0.21203 0.18689
 N184 N 0.74593 0.23394 0.17622
 C185 C 0.73131 0.24348 0.15414
 C186 C 0.70815 0.22652 0.15094
 C187 C 0.70968 0.20684 0.17197
 H188 H 0.73667 0.26173 0.14175
 H189 H 0.69464 0.19044 0.17647
 Cu190 Cu 0.77990 0.24889 0.19291
 Cu191 Cu 0.74621 0.19282 0.22012
 Cu192 Cu 0.80522 0.22001 0.25196
 N193 N 0.81226 0.26446 0.21205
 N194 N 0.82209 0.25311 0.23506
 C195 C 0.84365 0.26870 0.24441
 C196 C 0.84743 0.29085 0.22625
 C197 C 0.82724 0.28771 0.20602
 H198 H 0.85524 0.26468 0.26334
 H199 H 0.82336 0.30173 0.18868
 N200 N 0.78532 0.18661 0.26600
 N201 N 0.76278 0.17623 0.25388
 C202 C 0.75339 0.15421 0.26895
 C203 C 0.77094 0.15070 0.29142
 C204 C 0.79088 0.17147 0.28908
 H205 H 0.73483 0.14207 0.26438
 H206 H 0.80771 0.17562 0.30354
 H207 H 0.76539 0.22800 0.23701
 H208 H 0.78775 0.20371 0.21600
 C209 C 0.24799 0.01535 0.47494
 C210 C 0.24824 -0.01431 0.47477
 C211 C 0.24850 -0.02908 0.50004
 C212 C 0.24823 -0.01460 0.52547
 C213 C 0.24793 0.01506 0.52564
 C214 C 0.24795 0.02982 0.50037
 H215 H 0.24752 0.05269 0.50050
 H216 H 0.24850 -0.05195 0.49991
 C217 C 0.75307 -0.01531 0.47486
 C218 C 0.75353 0.01436 0.47471
 C219 C 0.75374 0.02911 0.49998
 C220 C 0.75378 0.01464 0.52541
 C221 C 0.75334 -0.01502 0.52558
 C222 C 0.75283 -0.02978 0.50030
 H223 H 0.75268 -0.05266 0.50042
 H224 H 0.75428 0.05198 0.49985
 C225 C 0.47431 0.24703 -0.01393
 C226 C 0.47448 0.24735 0.01539
 C227 C 0.50000 0.24739 0.02969
 C228 C 0.52533 0.24677 0.01512
 C229 C 0.52516 0.24651 -0.01419
 C230 C 0.49965 0.24680 -0.02850
 H231 H 0.49951 0.24628 -0.05110
 H232 H 0.50012 0.24733 0.05229
 C233 C 0.47501 0.75343 -0.01449
 C234 C 0.47500 0.75344 0.01482
 C235 C 0.50039 0.75337 0.02931
 C236 C 0.52582 0.75345 0.01491
 C237 C 0.52583 0.75342 -0.01441
 C238 C 0.50043 0.75331 -0.02890
 H239 H 0.50044 0.75344 -0.05150
 H240 H 0.50037 0.75353 0.05191
 C241 C 0.01329 0.47538 0.24178
 C242 C -0.01610 0.47557 0.24162
 C243 C -0.03042 0.50132 0.24139
 C244 C -0.01578 0.52688 0.24107
 C245 C 0.01361 0.52670 0.24121
 C246 C 0.02793 0.50096 0.24168
 H247 H 0.05059 0.50082 0.24160
 H248 H -0.05308 0.50145 0.24109
 C249 C 0.01449 0.52637 0.75948
 C250 C -0.01489 0.52660 0.76011
 C251 C -0.02959 0.50106 0.76001
 C252 C -0.01533 0.47529 0.75954
 C253 C 0.01407 0.47507 0.75895
 C254 C 0.02875 0.50061 0.75879
 H255 H 0.05141 0.50044 0.75855
 H256 H -0.05223 0.50123 0.76069
 C257 C 0.31484 0.23423 0.13292
 C258 C 0.33407 0.23684 0.11693
 C259 C 0.35770 0.23965 0.09863
 C260 C 0.35390 0.24369 0.06994
 C261 C 0.37710 0.24586 0.05231
 C262 C 0.40414 0.24401 0.06335
 C263 C 0.40789 0.24012 0.09203
 C264 C 0.38475 0.23794 0.10961
 C265 C 0.42819 0.24562 0.04549
 C266 C 0.44897 0.24661 0.03136
 H267 H 0.33307 0.24502 0.06123
 H268 H 0.37397 0.24882 0.03015
 H269 H 0.42870 0.23860 0.10078
 H270 H 0.38795 0.23480 0.13174
 C271 C 0.68436 0.76635 0.13392
 C272 C 0.66539 0.76356 0.11761
 C273 C 0.64235 0.76047 0.09859
 C274 C 0.64263 0.77441 0.07287
 C275 C 0.61974 0.77221 0.05486
 C276 C 0.59647 0.75608 0.06255
 C277 C 0.59630 0.74196 0.08818
 C278 C 0.61917 0.74415 0.10617
 C279 C 0.57224 0.75492 0.04486
 C280 C 0.55140 0.75413 0.03079
 H281 H 0.66038 0.78721 0.06689
 H282 H 0.62002 0.78335 0.03515
 H283 H 0.57833 0.72956 0.09439
 H284 H 0.61863 0.73340 0.12607
 C285 C 0.68373 0.23261 -0.13309
 C286 C 0.66472 0.23457 -0.11675
 C287 C 0.64138 0.23655 -0.09797
 C288 C 0.61580 0.22436 -0.10542
 C289 C 0.59285 0.22648 -0.08760
 C290 C 0.59532 0.24079 -0.06220
 C291 C 0.62093 0.25290 -0.05462
 C292 C 0.64393 0.25079 -0.07250
 C293 C 0.57133 0.24323 -0.04432
 C294 C 0.55063 0.24492 -0.03016
 H295 H 0.61357 0.21332 -0.12506
 H296 H 0.57315 0.21707 -0.09368
 H297 H 0.62305 0.26402 -0.03502
 H298 H 0.66362 0.26031 -0.06653
 C299 C 0.31611 0.76592 -0.13287
 C300 C 0.33479 0.76338 -0.11622
 C301 C 0.35753 0.76060 -0.09680
 C302 C 0.37400 0.73620 -0.09683
 C303 C 0.39702 0.73413 -0.07900
 C304 C 0.40365 0.75645 -0.06106
 C305 C 0.38694 0.78068 -0.06073
 C306 C 0.36392 0.78275 -0.07856
 C307 C 0.42832 0.75505 -0.04401
 C308 C 0.44938 0.75417 -0.03028
 H309 H 0.36931 0.71898 -0.11090
 H310 H 0.40988 0.71535 -0.07950
 H311 H 0.39196 0.79812 -0.04703
 H312 H 0.35139 0.80175 -0.07844
 C313 C 0.13205 0.31505 0.23082
 C314 C 0.11537 0.33394 0.23310
 C315 C 0.09594 0.35692 0.23585
 C316 C 0.09905 0.37635 0.25761
 C317 C 0.08108 0.39948 0.25957
 C318 C 0.05989 0.40329 0.23979
 C319 C 0.05647 0.38361 0.21828
 C320 C 0.07447 0.36046 0.21632
 C321 C 0.04268 0.42812 0.24079
 C322 C 0.02895 0.44940 0.24138
 H323 H 0.11562 0.37385 0.27280
 H324 H 0.08397 0.41462 0.27623
 H325 H 0.04022 0.38641 0.20282
 H326 H 0.07191 0.34560 0.19937
 C327 C 0.13474 0.68584 0.76966
 C328 C 0.11792 0.66701 0.76795
 C329 C 0.09825 0.64413 0.76610
 C330 C 0.09112 0.63281 0.74009
 C331 C 0.07300 0.60973 0.73843
 C332 C 0.06193 0.59790 0.76279
 C333 C 0.06880 0.60944 0.78877
 C334 C 0.08691 0.63251 0.79042
 C335 C 0.04454 0.57321 0.76127
 C336 C 0.03055 0.55211 0.76029
 H337 H 0.09984 0.64158 0.72117
 H338 H 0.06793 0.60089 0.71824
 H339 H 0.06047 0.60035 0.80773
 H340 H 0.09236 0.64102 0.81065
 C341 C -0.13547 0.68650 0.22942
 C342 C -0.11868 0.66766 0.23122
 C343 C -0.09900 0.64482 0.23311
 C344 C -0.08828 0.63656 0.25903
 C345 C -0.07004 0.61358 0.26082
 C346 C -0.06249 0.59879 0.23670
 C347 C -0.07287 0.60736 0.21076
 C348 C -0.09108 0.63031 0.20898
 C349 C -0.04523 0.57405 0.23860
 C350 C -0.03146 0.55283 0.23988
 H351 H -0.09428 0.64761 0.27785
 H352 H -0.06218 0.60708 0.28099
 H353 H -0.06724 0.59604 0.19199
 H354 H -0.09927 0.63651 0.18885
 C355 C -0.13555 0.31578 0.77011
 C356 C -0.11876 0.33466 0.76843
 C357 C -0.09910 0.35755 0.76654
 C358 C -0.09165 0.36851 0.74047
 C359 C -0.07352 0.39158 0.73875
 C360 C -0.06276 0.40376 0.76309
 C361 C -0.06993 0.39257 0.78912
 C362 C -0.08805 0.36951 0.79085
 C363 C -0.04536 0.42844 0.76148
 C364 C -0.03135 0.44954 0.76043
 H365 H -0.10012 0.35946 0.72154
 H366 H -0.06822 0.40015 0.71851
 H367 H -0.06184 0.40192 0.80807
 H368 H -0.09372 0.36126 0.81111
 C369 C 0.23367 0.13321 0.31497
 C370 C 0.23634 0.11720 0.33429
 C371 C 0.23936 0.09882 0.35797
 C372 C 0.24187 0.11044 0.38467
 C373 C 0.24427 0.09285 0.40789
 C374 C 0.24416 0.06352 0.40455
 C375 C 0.24181 0.05183 0.37784
 C376 C 0.23941 0.06946 0.35457
 C377 C 0.24587 0.04568 0.42871
 C378 C 0.24701 0.03148 0.44949
 H379 H 0.24180 0.13309 0.38757
 H380 H 0.24602 0.10210 0.42846
 H381 H 0.24166 0.02916 0.37506
 H382 H 0.23744 0.06023 0.33402
 C383 C 0.76725 0.13351 0.68477
 C384 C 0.76502 0.11734 0.66553
 C385 C 0.76248 0.09877 0.64195
 C386 C 0.76126 0.06948 0.64567
 C387 C 0.75910 0.05165 0.62251
 C388 C 0.75814 0.06309 0.59561
 C389 C 0.75928 0.09236 0.59196
 C390 C 0.76144 0.11014 0.61505
 C391 C 0.75633 0.04507 0.57158
 C392 C 0.75503 0.03079 0.55085
 H393 H 0.76207 0.06046 0.66638
 H394 H 0.75828 0.02904 0.62555
 H395 H 0.75860 0.10142 0.57125
 H396 H 0.76238 0.13274 0.61193
 C397 C 0.23513 -0.13368 0.68458
 C398 C 0.23766 -0.11747 0.66541
 C399 C 0.24050 -0.09886 0.64190
 C400 C 0.24078 -0.06954 0.64561
 C401 C 0.24299 -0.05167 0.62249
 C402 C 0.24494 -0.06310 0.59565
 C403 C 0.24483 -0.09239 0.59201
 C404 C 0.24262 -0.11021 0.61506
 C405 C 0.24648 -0.04506 0.57163
 C406 C 0.24745 -0.03076 0.55091
 H407 H 0.23912 -0.06053 0.66628
 H408 H 0.24301 -0.02904 0.62552
 H409 H 0.24626 -0.10144 0.57134
 H410 H 0.24239 -0.13283 0.61195
 C411 C 0.76553 -0.13256 0.31431
 C412 C 0.76298 -0.11662 0.33369
 C413 C 0.76011 -0.09839 0.35748
 C414 C 0.75767 -0.11017 0.38413
 C415 C 0.75559 -0.09270 0.40747
 C416 C 0.75590 -0.06336 0.40431
 C417 C 0.75811 -0.05152 0.37766
 C418 C 0.76020 -0.06902 0.35426
 C419 C 0.75453 -0.04562 0.42858
 C420 C 0.75369 -0.03145 0.44940
 H421 H 0.75757 -0.13284 0.38687
 H422 H 0.75394 -0.10208 0.42798
 H423 H 0.75840 -0.02884 0.37500
 H424 H 0.76206 -0.05969 0.33375
 C425 C 0.68402 0.76671 -0.13339
 C426 C 0.66522 0.76404 -0.11693
 C427 C 0.64230 0.76081 -0.09784
 C428 C 0.61911 0.74456 -0.10553
 C429 C 0.59628 0.74221 -0.08756
 C430 C 0.59652 0.75610 -0.06181
 C431 C 0.61985 0.77207 -0.05393
 C432 C 0.64271 0.77443 -0.07194
 C433 C 0.57229 0.75488 -0.04419
 C434 C 0.55143 0.75409 -0.03020
 H435 H 0.61853 0.73400 -0.12553
 H436 H 0.57830 0.72990 -0.09390
 H437 H 0.62020 0.78298 -0.03411
 H438 H 0.66051 0.78709 -0.06582
 C439 C 0.31474 0.23263 -0.13153
 C440 C 0.33387 0.23499 -0.11536
 C441 C 0.35740 0.23735 -0.09684
 C442 C 0.38367 0.22802 -0.10571
 C443 C 0.40676 0.23032 -0.08808
 C444 C 0.40374 0.24193 -0.06143
 C445 C 0.37747 0.25124 -0.05245
 C446 C 0.35431 0.24895 -0.07015
 C447 C 0.42781 0.24429 -0.04366
 C448 C 0.44865 0.24580 -0.02964
 H449 H 0.38630 0.21901 -0.12628
 H450 H 0.42698 0.22308 -0.09522
 H451 H 0.37493 0.26027 -0.03188
 H452 H 0.33409 0.25623 -0.06308
 C453 C 0.31597 0.76669 0.13263
 C454 C 0.33481 0.76381 0.11625
 C455 C 0.35780 0.76050 0.09726
 C456 C 0.38040 0.74328 0.10459
 C457 C 0.40341 0.74103 0.08685
 C458 C 0.40395 0.75599 0.06170
 C459 C 0.38120 0.77292 0.05416
 C460 C 0.35816 0.77518 0.07192
 C461 C 0.42840 0.75485 0.04439
 C462 C 0.44938 0.75410 0.03057
 H463 H 0.38038 0.73192 0.12416
 H464 H 0.42095 0.72798 0.09292
 H465 H 0.38147 0.78465 0.03480
 H466 H 0.34083 0.78862 0.06609
 C467 C 0.68574 0.22992 0.13133
 C468 C 0.66643 0.23250 0.11542
 C469 C 0.64276 0.23516 0.09712
 C470 C 0.64462 0.25104 0.07256
 C471 C 0.62131 0.25370 0.05511
 C472 C 0.59611 0.24050 0.06221
 C473 C 0.59433 0.22460 0.08673
 C474 C 0.61757 0.22194 0.10413
 C475 C 0.57187 0.24332 0.04472
 C476 C 0.55098 0.24518 0.03083
 H477 H 0.66399 0.26139 0.06697
 H478 H 0.62291 0.26606 0.03621
 H479 H 0.57494 0.21434 0.09244
 H480 H 0.61588 0.20965 0.12307
 C481 C -0.13420 0.68645 0.77071
 C482 C -0.11713 0.66783 0.76954
 C483 C -0.09737 0.64504 0.76834
 C484 C -0.08235 0.63984 0.74383
 C485 C -0.06436 0.61665 0.74224
 C486 C -0.06132 0.59863 0.76517
 C487 C -0.07602 0.60409 0.78980
 C488 C -0.09399 0.62725 0.79138
 C489 C -0.04419 0.57382 0.76311
 C490 C -0.03049 0.55257 0.76160
 H491 H -0.08487 0.65341 0.72586
 H492 H -0.05319 0.61254 0.72305
 H493 H -0.07393 0.59021 0.80760
 H494 H -0.10557 0.63103 0.81040
 C495 C -0.13331 0.31387 0.22913
 C496 C -0.11754 0.33353 0.23156
 C497 C -0.09925 0.35744 0.23435
 C498 C -0.07022 0.35403 0.23272
 C499 C -0.05263 0.37751 0.23488
 C500 C -0.06404 0.40443 0.23868
 C501 C -0.09304 0.40777 0.24051
 C502 C -0.11060 0.38434 0.23836
 C503 C -0.04628 0.42884 0.24007
 C504 C -0.03213 0.44983 0.24095
 H505 H -0.06125 0.33331 0.22963
 H506 H -0.03022 0.37471 0.23338
 H507 H -0.10207 0.42850 0.24339
 H508 H -0.13300 0.38722 0.23963
 C509 C 0.13289 0.31482 0.76992
 C510 C 0.11616 0.33369 0.76796
 C511 C 0.09658 0.35659 0.76582
 C512 C 0.08469 0.36802 0.78996
 C513 C 0.06670 0.39115 0.78806
 C514 C 0.06052 0.40295 0.76203
 C515 C 0.07212 0.39130 0.73784
 C516 C 0.09011 0.36815 0.73974
 C517 C 0.04342 0.42781 0.76039
 C518 C 0.02971 0.44909 0.75949
 H519 H 0.08962 0.35932 0.81024
 H520 H 0.05797 0.40010 0.80690
 H521 H 0.06760 0.40035 0.71762
 H522 H 0.09927 0.35952 0.72095
 C523 C 0.13296 0.68672 0.23005
 C524 C 0.11617 0.66787 0.23180
 C525 C 0.09659 0.64493 0.23371
 C526 C 0.08843 0.63463 0.25982
 C527 C 0.07049 0.61141 0.26161
 C528 C 0.06063 0.59845 0.23729
 C529 C 0.06851 0.60899 0.21119
 C530 C 0.08643 0.63218 0.20940
 C531 C 0.04344 0.57364 0.23901
 C532 C 0.02957 0.55247 0.24017
 H533 H 0.09623 0.64427 0.27875
 H534 H 0.06463 0.60335 0.28189
 H535 H 0.06111 0.59903 0.19226
 H536 H 0.09269 0.63991 0.18911
 C537 C 0.76827 -0.13097 0.68683
 C538 C 0.76558 -0.11510 0.66741
 C539 C 0.76248 -0.09701 0.64354
 C540 C 0.76166 -0.06764 0.64664
 C541 C 0.75911 -0.05031 0.62316
 C542 C 0.75737 -0.06234 0.59654
 C543 C 0.75804 -0.09169 0.59351
 C544 C 0.76058 -0.10897 0.61693
 C545 C 0.75551 -0.04481 0.57216
 C546 C 0.75431 -0.03087 0.55121
 H547 H 0.76312 -0.05817 0.66713
 H548 H 0.75867 -0.02763 0.62572
 H549 H 0.75677 -0.10121 0.57303
 H550 H 0.76122 -0.13164 0.61429
 C551 C 0.23472 -0.13129 0.31421
 C552 C 0.23737 -0.11531 0.33355
 C553 C 0.24033 -0.09703 0.35727
 C554 C 0.23999 -0.06766 0.35402
 C555 C 0.24225 -0.05012 0.37738
 C556 C 0.24487 -0.06194 0.40401
 C557 C 0.24539 -0.09128 0.40719
 C558 C 0.24314 -0.10877 0.38389
 C559 C 0.24642 -0.04423 0.42827
 C560 C 0.24742 -0.03018 0.44916
 H561 H 0.23780 -0.05836 0.33353
 H562 H 0.24176 -0.02745 0.37472
 H563 H 0.24735 -0.10062 0.42769
 H564 H 0.24339 -0.13143 0.38664
 C565 C 0.76776 0.13115 0.31403
 C566 C 0.76518 0.11528 0.33346
 C567 C 0.76227 0.09705 0.35724
 C568 C 0.76039 0.10880 0.38393
 C569 C 0.75802 0.09133 0.40722
 C570 C 0.75751 0.06199 0.40398
 C571 C 0.75925 0.05018 0.37728
 C572 C 0.76162 0.06769 0.35392
 C573 C 0.75574 0.04427 0.42822
 C574 C 0.75456 0.03022 0.44909
 H575 H 0.76090 0.13146 0.38673
 H576 H 0.75675 0.10068 0.42778
 H577 H 0.75893 0.02751 0.37455
 H578 H 0.76309 0.05838 0.33337
 C579 C 0.23332 0.13219 0.68603
 C580 C 0.23591 0.11618 0.66670
 C581 C 0.23886 0.09786 0.64300
 C582 C 0.24126 0.10954 0.61632
 C583 C 0.24365 0.09200 0.59308
 C584 C 0.24368 0.06267 0.59635
 C585 C 0.24141 0.05091 0.62304
 C586 C 0.23901 0.06849 0.64635
 C587 C 0.24552 0.04492 0.57214
 C588 C 0.24678 0.03089 0.55126
 H589 H 0.24113 0.13220 0.61348
 H590 H 0.24533 0.10131 0.57253
 H591 H 0.24134 0.02824 0.62579
 H592 H 0.23713 0.05924 0.66689
   
