data_POSCAR
  _audit_creation_date              2014-09-24
  _audit_creation_method            'ToBaCCo'
  _symmetry_space_group_name_H-M    'P1'
  _symmetry_Int_Tables_number       1
  _symmetry_cell_setting            triclinic
  loop_
  _symmetry_equiv_pos_as_xyz
 x,y,z
_cell_length_a 41.2009
_cell_length_b 41.2079
_cell_length_c 41.0988
_cell_angle_alpha 90.001300
_cell_angle_beta 90.089100
_cell_angle_gamma 90.013200
loop_
  _atom_site_label
  _atom_site_type_symbol
  _atom_site_fract_x
  _atom_site_fract_y
  _atom_site_fract_z
C1 C 0.16953 0.16771 0.20950
 N2 N 0.15611 0.19463 0.19604
 C3 C 0.16952 0.20806 0.16907
 N4 N 0.19639 0.19461 0.15560
 C5 C 0.20981 0.16769 0.16905
 N6 N 0.19640 0.15426 0.19602
 C7 C -0.16897 0.83230 0.20864
 N8 N -0.15558 0.80537 0.19522
 C9 C -0.16904 0.79190 0.16826
 N10 N -0.19596 0.80531 0.15477
 C11 C -0.20937 0.83224 0.16818
 N12 N -0.19590 0.84571 0.19515
 C13 C -0.16988 0.16796 -0.20857
 N14 N -0.15641 0.19484 -0.19509
 C15 C -0.16981 0.20829 -0.16813
 N16 N -0.19674 0.19490 -0.15470
 C17 C -0.21022 0.16801 -0.16819
 N18 N -0.19681 0.15456 -0.19515
 C19 C 0.16878 0.83205 -0.20910
 N20 N 0.15540 0.80514 -0.19562
 C21 C 0.16887 0.79174 -0.16863
 N22 N 0.19578 0.80521 -0.15516
 C23 C 0.20917 0.83212 -0.16863
 N24 N 0.19570 0.84552 -0.19563
 C25 C 0.16729 1.16922 0.79081
 N26 N 0.15386 1.19614 0.80425
 C27 C 0.16726 1.20954 0.83129
 N28 N 0.19414 1.19608 0.84483
 C29 C 0.20756 1.16917 0.83139
 N30 N 0.19417 1.15578 0.80437
 C31 C 0.83178 0.83200 0.79022
 N32 N 0.84520 0.80509 0.80372
 C33 C 0.83177 0.79169 0.83069
 N34 N 0.80488 0.80514 0.84412
 C35 C 0.79146 0.83204 0.83063
 N36 N 0.80488 0.84544 0.80366
 C37 C 0.16802 0.83076 1.20936
 N38 N 0.19490 0.84420 1.19589
 C39 C 0.20831 0.83077 1.16892
 N40 N 0.19487 0.80385 1.15547
 C41 C 0.16799 0.79040 1.16893
 N42 N 0.15459 0.80383 1.19590
 C43 C 0.83221 1.16938 1.20909
 N44 N 0.80528 1.15598 1.19560
 C45 C 0.79177 1.16947 1.16868
 N46 N 0.80515 1.19643 1.15529
 C47 C 0.83209 1.20984 1.16877
 N48 N 0.84559 1.19634 1.19570
 N49 N 0.53369 1.05763 0.96510
 N50 N 0.55852 1.07752 0.96122
 N51 N 0.46532 1.03503 0.94258
 N52 N 0.44043 1.03894 0.92269
 N53 N 0.46537 1.05753 0.96522
 N54 N 0.44051 1.07738 0.96139
 N55 N 0.53365 1.03513 0.94246
 N56 N 0.55844 1.03907 0.92253
 C57 C 0.57357 1.06560 0.93457
 C58 C 0.42534 1.06544 0.93478
 N59 N 0.46551 0.94256 0.96499
 N60 N 0.44070 0.92265 0.96107
 N61 N 0.53374 0.96525 0.94232
 N62 N 0.55852 0.96145 0.92236
 N63 N 0.53384 0.94267 0.96487
 N64 N 0.55870 0.92286 0.96090
 N65 N 0.46541 0.96514 0.94243
 N66 N 0.44053 0.96125 0.92253
 Mn67 Mn 0.49953 1.00014 0.94205
 C68 C 0.42549 0.93466 0.93450
 C69 C 0.57372 0.93492 0.93430
 N70 N 0.46559 1.05738 1.03529
 N71 N 0.44074 1.07720 1.03927
 N72 N 0.53402 1.03491 1.05773
 N73 N 0.55891 1.03883 1.07762
 N74 N 0.53391 1.05750 1.03517
 N75 N 0.55871 1.07742 1.03907
 N76 N 0.46570 1.03480 1.05785
 N77 N 0.44092 1.03861 1.07782
 Mn78 Mn 0.49964 1.05790 1.00020
 C79 C 0.42573 1.06515 1.06589
 C80 C 0.57393 1.06542 1.06564
 N81 N 0.53408 0.94252 1.03495
 N82 N 0.55895 0.92268 1.03877
 N83 N 0.46580 0.96491 1.05771
 N84 N 0.44102 0.96096 1.07765
 N85 N 0.46575 0.94242 1.03506
 N86 N 0.44093 0.92252 1.03895
 N87 N 0.53412 0.96502 1.05759
 N88 N 0.55902 0.96112 1.07747
 Mn89 Mn 0.49979 0.94215 0.99997
 Mn90 Mn 0.49991 0.99991 1.05812
 Cl91 Cl 0.49972 1.00002 1.00008
 C92 C 0.57413 0.93463 1.06538
 C93 C 0.42589 0.93443 1.06560
 N94 N -0.05721 0.46581 0.03539
 N95 N -0.07714 0.44103 0.03934
 N96 N -0.03459 0.53412 0.05795
 N97 N -0.03846 0.55896 0.07786
 N98 N -0.05715 0.53411 0.03534
 N99 N -0.07702 0.55894 0.03921
 N100 N -0.03464 0.46581 0.05799
 N101 N -0.03856 0.44102 0.07796
 C102 C -0.06516 0.42594 0.06598
 C103 C -0.06502 0.57406 0.06582
 N104 N 0.05784 0.53405 0.03536
 N105 N 0.07771 0.55890 0.03924
 N106 N 0.03527 0.46576 0.05800
 N107 N 0.03919 0.44094 0.07793
 N108 N 0.05778 0.46574 0.03540
 N109 N 0.07765 0.44090 0.03931
 N110 N 0.03532 0.53407 0.05796
 N111 N 0.03923 0.55893 0.07784
 Mn112 Mn 0.00035 0.49994 0.05837
 C113 C 0.06576 0.57404 0.06583
 C114 C 0.06570 0.42581 0.06592
 N115 N -0.05724 0.53408 -0.03473
 N116 N -0.07710 0.55892 -0.03867
 N117 N -0.03480 0.46574 -0.05728
 N118 N -0.03877 0.44090 -0.07720
 N119 N -0.05730 0.46577 -0.03468
 N120 N -0.07723 0.44097 -0.03857
 N121 N -0.03473 0.53404 -0.05733
 N122 N -0.03863 0.55886 -0.07728
 Mn123 Mn -0.05762 0.49994 0.00033
 C124 C -0.06514 0.57399 -0.06529
 C125 C -0.06532 0.42584 -0.06518
 N126 N 0.05768 0.46568 -0.03468
 N127 N 0.07753 0.44084 -0.03860
 N128 N 0.03517 0.53400 -0.05732
 N129 N 0.03905 0.55882 -0.07725
 N130 N 0.05774 0.53400 -0.03472
 N131 N 0.07763 0.55882 -0.03862
 N132 N 0.03510 0.46569 -0.05728
 N133 N 0.03894 0.44086 -0.07721
 Mn134 Mn 0.05816 0.49987 0.00034
 Mn135 Mn 0.00019 0.49987 -0.05770
 Cl136 Cl 0.00027 0.49991 0.00034
 C137 C 0.06549 0.42573 -0.06521
 C138 C 0.06562 0.57392 -0.06524
 N139 N 0.96518 -0.05763 0.53378
 N140 N 0.96120 -0.07749 0.55867
 N141 N 0.94282 -0.03511 0.46519
 N142 N 0.92295 -0.03902 0.44027
 N143 N 0.96533 -0.05767 0.46529
 N144 N 0.96142 -0.07759 0.44042
 N145 N 0.94265 -0.03508 0.53368
 N146 N 0.92271 -0.03895 0.55849
 C147 C 0.93462 -0.06550 0.57370
 C148 C 0.93489 -0.06560 0.42519
 N149 N 0.96546 0.05730 0.46524
 N150 N 0.96156 0.07726 0.44041
 N151 N 0.94271 0.03480 0.53363
 N152 N 0.92275 0.03872 0.55841
 N153 N 0.96527 0.05733 0.53373
 N154 N 0.96129 0.07723 0.55859
 N155 N 0.94289 0.03478 0.46515
 N156 N 0.92300 0.03877 0.44025
 Mn157 Mn 0.94238 -0.00015 0.49941
 C158 C 0.93500 0.06535 0.42519
 C159 C 0.93468 0.06527 0.57360
 N160 N 1.03524 -0.05772 0.46558
 N161 N 1.03918 -0.07764 0.44074
 N162 N 1.05765 -0.03516 0.53414
 N163 N 1.07751 -0.03909 0.55907
 N164 N 1.03509 -0.05769 0.53407
 N165 N 1.03896 -0.07759 0.55895
 N166 N 1.05781 -0.03520 0.46565
 N167 N 1.07776 -0.03916 0.44085
 Mn168 Mn 1.00021 -0.05807 0.49968
 C169 C 1.06579 -0.06572 0.42569
 C170 C 1.06551 -0.06564 0.57417
 N171 N 1.03518 0.05729 0.53400
 N172 N 1.03907 0.07724 0.55884
 N173 N 1.05788 0.03470 0.46563
 N174 N 1.07786 0.03860 0.44085
 N175 N 1.03536 0.05725 0.46552
 N176 N 1.03938 0.07715 0.44067
 N177 N 1.05771 0.03474 0.53412
 N178 N 1.07758 0.03871 0.55905
 Mn179 Mn 1.00032 0.05769 0.49962
 Mn180 Mn 1.05816 -0.00023 0.49989
 Cl181 Cl 1.00027 -0.00019 0.49965
 C182 C 1.06560 0.06531 0.57409
 C183 C 1.06597 0.06516 0.42566
 C184 C 1.13041 0.12882 0.29041
 C185 C 1.13542 0.09203 0.29341
 C186 C 1.12228 0.07906 0.32091
 C187 C 1.10542 0.10416 0.34271
 C188 C 1.08045 0.12085 0.32057
 C189 C 1.09359 0.13382 0.29308
 C190 C 1.14445 0.14308 0.32195
 C191 C 1.13131 0.13011 0.34944
 C192 C 1.14458 0.14283 0.26086
 C193 C 1.15629 0.15447 0.23666
 C194 C 1.09131 0.09023 0.37233
 C195 C 1.07974 0.07880 0.39668
 H196 H 1.14816 0.07745 0.27552
 H197 H 1.12376 0.05337 0.32657
 H198 H 1.05471 0.12235 0.32601
 H199 H 1.07911 0.14642 0.27497
 H200 H 1.16306 0.16172 0.32263
 H201 H 1.13867 0.13765 0.37366
 C202 C 0.87036 -0.12895 0.28964
 C203 C 0.86451 -0.09234 0.29326
 C204 C 0.87772 -0.07947 0.32081
 C205 C 0.89549 -0.10447 0.34204
 C206 C 0.92054 -0.12022 0.31938
 C207 C 0.90733 -0.13308 0.29183
 C208 C 0.85712 -0.14400 0.32111
 C209 C 0.87033 -0.13114 0.34865
 C210 C 0.85610 -0.14286 0.26004
 C211 C 0.84432 -0.15446 0.23582
 C212 C 0.90966 -0.09064 0.37172
 C213 C 0.92122 -0.07925 0.39614
 H214 H 0.85118 -0.07780 0.27573
 H215 H 0.87571 -0.05390 0.32688
 H216 H 0.94638 -0.12116 0.32452
 H217 H 0.92185 -0.14506 0.27337
 H218 H 0.83897 -0.16310 0.32170
 H219 H 0.86349 -0.13921 0.37283
 C220 C 0.87008 0.12850 0.70895
 C221 C 0.86551 0.09164 0.70604
 C222 C 0.87871 0.07879 0.67852
 C223 C 0.89519 0.10406 0.65661
 C224 C 0.92003 0.12110 0.67863
 C225 C 0.90683 0.13396 0.70614
 C226 C 0.85576 0.14251 0.67744
 C227 C 0.86896 0.12966 0.64993
 C228 C 0.85585 0.14240 0.73852
 C229 C 0.84412 0.15398 0.76273
 C230 C 0.90936 0.09025 0.62697
 C231 C 0.92094 0.07888 0.60260
 H232 H 0.85302 0.07694 0.72401
 H233 H 0.87753 0.05307 0.67292
 H234 H 0.94573 0.12291 0.67309
 H235 H 0.92123 0.14677 0.72419
 H236 H 0.83691 0.16091 0.67679
 H237 H 0.86142 0.13705 0.62571
 C238 C 1.12960 -0.12921 0.70982
 C239 C 1.14511 -0.14198 0.67839
 C240 C 1.13201 -0.12906 0.65083
 C241 C 1.10468 -0.10462 0.65738
 C242 C 1.11970 -0.07922 0.68021
 C243 C 1.13280 -0.09215 0.70778
 C244 C 1.09316 -0.13600 0.70598
 C245 C 1.08005 -0.12307 0.67841
 C246 C 1.14376 -0.14317 0.73945
 C247 C 1.15549 -0.15476 0.76370
 C248 C 1.09062 -0.09073 0.62768
 C249 C 1.07914 -0.07930 0.60324
 H250 H 1.16466 -0.15963 0.67783
 H251 H 1.14034 -0.13564 0.62666
 H252 H 1.12000 -0.05336 0.67518
 H253 H 1.14433 -0.07736 0.72636
 H254 H 1.07890 -0.14974 0.72339
 H255 H 1.05457 -0.12574 0.67220
 C256 C 0.29055 1.12873 1.12996
 C257 C 0.29252 1.13218 1.09283
 C258 C 0.31998 1.11918 1.07977
 C259 C 0.34279 1.10402 1.10513
 C260 C 0.32182 1.07926 1.12346
 C261 C 0.29435 1.09225 1.13652
 C262 C 0.32193 1.14418 1.14287
 C263 C 0.34939 1.13119 1.12982
 C264 C 0.26104 1.14277 1.14407
 C265 C 0.23689 1.15443 1.15577
 C266 C 0.37239 1.09009 1.09111
 C267 C 0.39674 1.07869 1.07960
 H268 H 0.27397 1.14378 1.07808
 H269 H 0.32496 1.11966 1.05384
 H270 H 0.32799 1.05376 1.12595
 H271 H 0.27700 1.07789 1.15020
 H272 H 0.32254 1.16362 1.16070
 H273 H 0.37352 1.13950 1.13647
 C274 C 0.29006 0.87105 0.87047
 C275 C 0.32141 0.85613 0.85698
 C276 C 0.34893 0.86909 0.87005
 C277 C 0.34241 0.89570 0.89534
 C278 C 0.32003 0.87984 0.92059
 C279 C 0.29251 0.86688 0.90752
 C280 C 0.29350 0.90768 0.86462
 C281 C 0.32102 0.92064 0.87770
 C282 C 0.26049 0.85703 0.85635
 C283 C 0.23630 0.84538 0.84464
 C284 C 0.37206 0.90962 0.90937
 C285 C 0.39646 0.92104 0.92085
 H286 H 0.32196 0.83706 0.83876
 H287 H 0.37303 0.86112 0.86302
 H288 H 0.32533 0.87889 0.94646
 H289 H 0.27423 0.85482 0.92219
 H290 H 0.27587 0.92216 0.85139
 H291 H 0.32696 0.94623 0.87566
 C292 C 0.70969 0.87106 1.12911
 C293 C 0.70689 0.90791 1.13388
 C294 C 0.67934 0.92087 1.12086
 C295 C 0.65730 0.89571 1.10436
 C296 C 0.65082 0.86998 1.13057
 C297 C 0.67836 0.85703 1.14358
 C298 C 0.70656 0.86579 1.09226
 C299 C 0.67902 0.87875 1.07925
 C300 C 0.73928 0.85706 1.14319
 C301 C 0.76349 0.84544 1.15489
 C302 C 0.62762 0.90962 1.09039
 C303 C 0.60320 0.92103 1.07897
 H304 H 0.72495 0.92253 1.14636
 H305 H 0.67382 0.94659 1.12219
 H306 H 0.62672 0.86259 1.13823
 H307 H 0.67784 0.83854 1.16239
 H308 H 0.72441 0.85302 1.07768
 H309 H 0.67328 0.87708 1.05351
 C310 C 0.70891 1.12919 0.87078
 C311 C 0.70633 1.09227 0.86647
 C312 C 0.67882 1.07931 0.87949
 C313 C 0.65659 1.10454 0.89554
 C314 C 0.65004 1.12989 0.86896
 C315 C 0.67754 1.14284 0.85595
 C316 C 0.70564 1.13491 0.90754
 C317 C 0.67813 1.12195 0.92056
 C318 C 0.73847 1.14319 0.85672
 C319 C 0.76265 1.15481 0.84505
 C320 C 0.62695 1.09063 0.90951
 C321 C 0.60257 1.07921 0.92095
 H322 H 0.72450 1.07760 0.85429
 H323 H 0.67343 1.05354 0.87846
 H324 H 0.62592 1.13703 0.86105
 H325 H 0.67698 1.16108 0.83689
 H326 H 0.72338 1.14797 0.92207
 H327 H 0.67231 1.12391 0.94624
 C328 C 0.12972 0.29047 0.12947
 C329 C 0.13366 0.29296 0.09241
 C330 C 0.12058 0.32047 0.07948
 C331 C 0.10485 0.34279 0.10487
 C332 C 0.13161 0.34932 0.13005
 C333 C 0.14469 0.32182 0.14298
 C334 C 0.09311 0.29384 0.13550
 C335 C 0.08003 0.32135 0.12257
 C336 C 0.14384 0.26091 0.14345
 C337 C 0.15552 0.23672 0.15507
 C338 C 0.09081 0.37242 0.09097
 C339 C 0.07933 0.39681 0.07956
 H340 H 0.14565 0.27473 0.07764
 H341 H 0.12136 0.32580 0.05362
 H342 H 0.13960 0.37343 0.13710
 H343 H 0.16388 0.32237 0.16111
 H344 H 0.07873 0.27617 0.14875
 H345 H 0.05445 0.32725 0.12474
 C346 C -0.12977 0.29061 -0.12856
 C347 C -0.09252 0.29031 -0.12765
 C348 C -0.07934 0.31780 -0.11475
 C349 C -0.10471 0.34288 -0.10404
 C350 C -0.12702 0.32460 -0.08042
 C351 C -0.14020 0.29712 -0.09332
 C352 C -0.13875 0.32158 -0.14727
 C353 C -0.12558 0.34906 -0.13438
 C354 C -0.14399 0.26108 -0.14251
 C355 C -0.15575 0.23692 -0.15412
 C356 C -0.09057 0.37249 -0.09018
 C357 C -0.07902 0.39685 -0.07879
 H358 H -0.07779 0.27027 -0.13635
 H359 H -0.05332 0.32131 -0.11240
 H360 H -0.13202 0.33254 -0.05574
 H361 H -0.15648 0.28151 -0.07969
 H362 H -0.15411 0.32190 -0.16876
 H363 H -0.12964 0.37292 -0.14482
 C364 C 0.12927 0.70931 -0.12893
 C365 C 0.14465 0.67799 -0.14197
 C366 C 0.13167 0.65048 -0.12899
 C367 C 0.10458 0.65697 -0.10424
 C368 C 0.07978 0.67804 -0.12246
 C369 C 0.09276 0.70556 -0.13544
 C370 C 0.13283 0.70716 -0.09180
 C371 C 0.11985 0.67964 -0.07882
 C372 C 0.14330 0.73888 -0.14296
 C373 C 0.15492 0.76308 -0.15461
 C374 C 0.09064 0.62732 -0.09030
 C375 C 0.07922 0.60294 -0.07887
 H376 H 0.16403 0.67746 -0.15983
 H377 H 0.13994 0.62638 -0.13574
 H378 H 0.05427 0.67190 -0.12493
 H379 H 0.07837 0.72300 -0.14903
 H380 H 0.14451 0.72562 -0.07701
 H381 H 0.12040 0.67453 -0.05291
 C382 C -0.12919 0.70945 0.12892
 C383 C -0.13445 0.70611 0.09208
 C384 C -0.12133 0.67859 0.07926
 C385 C -0.10423 0.65710 0.10454
 C386 C -0.12991 0.65059 0.13076
 C387 C -0.14303 0.67811 0.14357
 C388 C -0.09232 0.70689 0.13375
 C389 C -0.07919 0.67937 0.12093
 C390 C -0.14335 0.73902 0.14278
 C391 C -0.15506 0.76322 0.15432
 C392 C -0.09014 0.62746 0.09076
 C393 C -0.07864 0.60307 0.07941
 H394 H -0.14734 0.72381 0.07737
 H395 H -0.12297 0.67271 0.05356
 H396 H -0.13715 0.62649 0.13857
 H397 H -0.16151 0.67757 0.16236
 H398 H -0.07780 0.72510 0.14613
 H399 H -0.05343 0.67400 0.12233
 C400 C 1.12871 0.12997 0.70969
 C401 C 1.11214 0.09708 0.71528
 C402 C 1.09932 0.08386 0.68771
 C403 C 1.10433 0.10483 0.65725
 C404 C 1.14111 0.11046 0.65540
 C405 C 1.15393 0.12367 0.68296
 C406 C 1.10273 0.15127 0.69353
 C407 C 1.08991 0.13806 0.66596
 C408 C 1.14257 0.14423 0.73932
 C409 C 1.15411 0.15598 0.76359
 C410 C 1.09054 0.09064 0.62756
 C411 C 1.07919 0.07905 0.60314
 H412 H 1.11061 0.08521 0.73881
 H413 H 1.08681 0.06066 0.68762
 H414 H 1.15580 0.10457 0.63430
 H415 H 1.17960 0.12910 0.68547
 H416 H 1.09507 0.17467 0.70291
 H417 H 1.07126 0.15014 0.65174
 C418 C 0.87072 -0.12913 0.70921
 C419 C 0.90722 -0.13561 0.70553
 C420 C 0.92024 -0.12263 0.67799
 C421 C 0.89548 -0.10444 0.65682
 C422 C 0.88023 -0.07912 0.67953
 C423 C 0.86721 -0.09210 0.70708
 C424 C 0.85534 -0.14211 0.67775
 C425 C 0.86836 -0.12913 0.65021
 C426 C 0.85666 -0.14316 0.73881
 C427 C 0.84501 -0.15479 0.76304
 C428 C 0.90946 -0.09050 0.62714
 C429 C 0.92094 -0.07908 0.60274
 H430 H 0.92158 -0.14919 0.72303
 H431 H 0.94575 -0.12508 0.67189
 H432 H 0.87971 -0.05327 0.67444
 H433 H 0.85554 -0.07738 0.72558
 H434 H 0.83593 -0.15993 0.67716
 H435 H 0.86010 -0.13583 0.62603
 C436 C 1.12928 -0.13007 0.29032
 C437 C 1.14559 -0.14193 0.32174
 C438 C 1.13269 -0.12879 0.34926
 C439 C 1.10473 -0.10506 0.34266
 C440 C 1.08015 -0.12441 0.32232
 C441 C 1.09306 -0.13756 0.29480
 C442 C 1.13172 -0.09291 0.29164
 C443 C 1.11881 -0.07977 0.31917
 C444 C 1.14322 -0.14426 0.26074
 C445 C 1.15482 -0.15598 0.23653
 C446 C 1.09086 -0.09095 0.37231
 C447 C 1.07945 -0.07941 0.39669
 H448 H 1.16553 -0.15915 0.32233
 H449 H 1.14158 -0.13475 0.37341
 H450 H 1.05484 -0.12750 0.32894
 H451 H 1.07881 -0.15191 0.27785
 H452 H 1.14261 -0.07823 0.27264
 H453 H 1.11865 -0.05382 0.32374
 C454 C 0.87123 0.13001 0.28993
 C455 C 0.88576 0.09611 0.28470
 C456 C 0.89875 0.08290 0.31219
 C457 C 0.89594 0.10489 0.34221
 C458 C 0.85962 0.11261 0.34510
 C459 C 0.84662 0.12581 0.31762
 C460 C 0.89889 0.15023 0.30465
 C461 C 0.91188 0.13702 0.33213
 C462 C 0.85719 0.14426 0.26039
 C463 C 0.84551 0.15605 0.23621
 C464 C 0.90990 0.09071 0.37182
 C465 C 0.92135 0.07912 0.39619
 H466 H 0.88583 0.08358 0.26146
 H467 H 0.90996 0.05906 0.31250
 H468 H 0.84535 0.10809 0.36682
 H469 H 0.82123 0.13260 0.31580
 H470 H 0.90752 0.17291 0.29438
 H471 H 0.93165 0.14840 0.34541
 C472 C 0.12859 0.29040 -0.12953
 C473 C 0.13534 0.29408 -0.09297
 C474 C 0.12249 0.32159 -0.07982
 C475 C 0.10416 0.34271 -0.10452
 C476 C 0.07869 0.32008 -0.11969
 C477 C 0.09153 0.29257 -0.13284
 C478 C 0.14151 0.32174 -0.14498
 C479 C 0.12867 0.34924 -0.13184
 C480 C 0.14248 0.26084 -0.14372
 C481 C 0.15405 0.23666 -0.15545
 C482 C 0.09037 0.37234 -0.09041
 C483 C 0.07904 0.39672 -0.07888
 H484 H 0.14898 0.27662 -0.07866
 H485 H 0.12514 0.32768 -0.05425
 H486 H 0.05284 0.32520 -0.12006
 H487 H 0.07669 0.27413 -0.14447
 H488 H 0.15919 0.32230 -0.16453
 H489 H 0.13536 0.37334 -0.14014
 C490 C -0.12901 0.29073 0.12986
 C491 C -0.11656 0.28632 0.09496
 C492 C -0.10355 0.31381 0.08194
 C493 C -0.10426 0.34302 0.10512
 C494 C -0.08684 0.33140 0.13604
 C495 C -0.09985 0.30391 0.14905
 C496 C -0.15301 0.31917 0.12798
 C497 C -0.14000 0.34665 0.11497
 C498 C -0.14307 0.26119 0.14391
 C499 C -0.15471 0.23699 0.15556
 C500 C -0.09028 0.37263 0.09114
 C501 C -0.07881 0.39698 0.07966
 H502 H -0.11785 0.26360 0.08163
 H503 H -0.09369 0.31465 0.05747
 H504 H -0.06610 0.34367 0.14676
 H505 H -0.09026 0.29264 0.17092
 H506 H -0.17803 0.31783 0.13612
 H507 H -0.15387 0.36886 0.11198
 C508 C -0.12866 0.70931 -0.12940
 C509 C -0.13364 0.70647 -0.09250
 C510 C -0.12069 0.67897 -0.07941
 C511 C -0.10404 0.65700 -0.10452
 C512 C -0.07892 0.67880 -0.12132
 C513 C -0.09186 0.70631 -0.13440
 C514 C -0.14295 0.67794 -0.14359
 C515 C -0.13001 0.65045 -0.13051
 C516 C -0.14265 0.73886 -0.14353
 C517 C -0.15426 0.76304 -0.15525
 C518 C -0.09014 0.62737 -0.09047
 C519 C -0.07874 0.60299 -0.07897
 H520 H -0.14621 0.72448 -0.07793
 H521 H -0.12217 0.67342 -0.05363
 H522 H -0.05323 0.67315 -0.12279
 H523 H -0.07726 0.72421 -0.14708
 H524 H -0.16160 0.67737 -0.16228
 H525 H -0.13758 0.62633 -0.13800
 C526 C 0.12918 0.70950 0.12981
 C527 C 0.09312 0.70469 0.13781
 C528 C 0.08020 0.67717 0.12473
 C529 C 0.10462 0.65715 0.10494
 C530 C 0.13299 0.65076 0.12832
 C531 C 0.14590 0.67827 0.14140
 C532 C 0.13105 0.70830 0.09253
 C533 C 0.11813 0.68078 0.07945
 C534 C 0.14315 0.73907 0.14395
 C535 C 0.15476 0.76327 0.15566
 C536 C 0.09075 0.62749 0.09091
 C537 C 0.07936 0.60308 0.07944
 H538 H 0.07897 0.72144 0.15244
 H539 H 0.05498 0.67034 0.12815
 H540 H 0.14214 0.62673 0.13410
 H541 H 0.16611 0.67781 0.15838
 H542 H 0.14157 0.72739 0.07771
 H543 H 0.11758 0.67629 0.05342
 C544 C 0.28992 1.12938 0.87119
 C545 C 0.29350 1.09285 0.86478
 C546 C 0.32102 1.07980 0.87776
 C547 C 0.34225 1.10455 0.89586
 C548 C 0.31972 1.11993 0.92127
 C549 C 0.29221 1.13299 0.90830
 C550 C 0.32127 1.14462 0.85804
 C551 C 0.34877 1.13157 0.87101
 C552 C 0.26036 1.14348 0.85715
 C553 C 0.23619 1.15517 0.84547
 C554 C 0.37189 1.09054 0.90978
 C555 C 0.39630 1.07907 0.92119
 H556 H 0.27597 1.07850 0.85126
 H557 H 0.32705 1.05426 0.87535
 H558 H 0.32492 1.12051 0.94717
 H559 H 0.27383 1.14475 0.92308
 H560 H 0.32181 1.16397 0.84012
 H561 H 0.37288 1.13974 0.86420
 C562 C 0.29063 0.87054 1.12925
 C563 C 0.29494 0.86318 1.09289
 C564 C 0.32243 0.87622 1.07992
 C565 C 0.34292 0.89534 1.10458
 C566 C 0.34944 0.87145 1.13249
 C567 C 0.32196 0.85842 1.14546
 C568 C 0.29219 0.90768 1.13184
 C569 C 0.31968 0.92071 1.11887
 C570 C 0.26110 0.85646 1.14327
 C571 C 0.23693 0.84478 1.15491
 C572 C 0.37254 0.90933 1.09065
 C573 C 0.39690 0.92079 1.07922
 H574 H 0.27790 0.84900 1.07860
 H575 H 0.32894 0.87320 1.05451
 H576 H 0.37353 0.86532 1.14130
 H577 H 0.32250 0.84112 1.16537
 H578 H 0.27336 0.92243 1.14287
 H579 H 0.32440 0.94664 1.11879
 C580 C 0.70934 1.12961 1.12907
 C581 C 0.70515 1.13642 1.09258
 C582 C 0.67763 1.12331 1.07966
 C583 C 0.65700 1.10466 1.10450
 C584 C 0.65053 1.12900 1.13200
 C585 C 0.67804 1.14212 1.14492
 C586 C 0.70761 1.09252 1.13223
 C587 C 0.68009 1.07941 1.11931
 C588 C 0.73891 1.14377 1.14303
 C589 C 0.76310 1.15547 1.15466
 C590 C 0.62735 1.09059 1.09063
 C591 C 0.60296 1.07908 1.07924
 H592 H 0.72229 1.15031 1.07816
 H593 H 0.67119 1.12595 1.05417
 H594 H 0.62645 1.13538 1.14059
 H595 H 0.67753 1.15972 1.16456
 H596 H 0.72635 1.07786 1.14359
 H597 H 0.67526 1.05351 1.11961
 C598 C 0.70908 0.87162 0.87035
 C599 C 0.70561 0.90826 0.86450
 C600 C 0.67809 0.92118 0.87753
 C601 C 0.65676 0.89620 0.89513
 C602 C 0.67918 0.88036 0.92042
 C603 C 0.70670 0.86744 0.90739
 C604 C 0.67773 0.85667 0.85680
 C605 C 0.65022 0.86958 0.86983
 C606 C 0.73864 0.85765 0.85628
 C607 C 0.76282 0.84603 0.84462
 C608 C 0.62711 0.91006 0.90913
 C609 C 0.60273 0.92141 0.92061
 H610 H 0.72321 0.92277 0.85131
 H611 H 0.67212 0.94676 0.87550
 H612 H 0.67393 0.87939 0.94628
 H613 H 0.72501 0.85540 0.92208
 H614 H 0.67718 0.83761 0.83857
 H615 H 0.62611 0.86158 0.86276
   
