data_POSCAR
  _audit_creation_date              2014-09-24
  _audit_creation_method            'ToBaCCo'
  _symmetry_space_group_name_H-M    'P1'
  _symmetry_Int_Tables_number       1
  _symmetry_cell_setting            triclinic
  loop_
  _symmetry_equiv_pos_as_xyz
 x,y,z
_cell_length_a 38.5950
_cell_length_b 38.6024
_cell_length_c 38.5140
_cell_angle_alpha 90.124600
_cell_angle_beta 90.022400
_cell_angle_gamma 90.025700
loop_
  _atom_site_label
  _atom_site_type_symbol
  _atom_site_fract_x
  _atom_site_fract_y
  _atom_site_fract_z
O1 O 0.33566 0.38279 0.03545
 O2 O 0.38160 0.33682 -0.03464
 O3 O 0.33332 0.38412 -0.03209
 O4 O 0.38326 0.33479 0.03289
 O5 O 0.34279 0.29422 0.03288
 O6 O 0.29299 0.34342 -0.03194
 O7 O 0.34116 0.29621 -0.03452
 O8 O 0.29528 0.34211 0.03547
 Cu9 Cu 0.36254 0.36374 0.00040
 Cu10 Cu 0.31399 0.31490 0.00048
 C11 C 0.30762 0.37027 0.04715
 C12 C 0.36920 0.30867 -0.04628
 C13 C 0.30464 0.37212 -0.04289
 C14 C 0.37148 0.30608 0.04374
 O15 O 0.66569 0.61741 0.03080
 O16 O 0.61783 0.66401 -0.03748
 O17 O 0.66536 0.61611 -0.03674
 O18 O 0.61744 0.66501 0.03010
 O19 O 0.65792 0.70557 0.02958
 O20 O 0.70582 0.65668 -0.03717
 O21 O 0.65841 0.70450 -0.03786
 O22 O 0.70608 0.65807 0.03026
 Cu23 Cu 0.63748 0.63654 -0.00321
 Cu24 Cu 0.68613 0.68529 -0.00380
 C25 C 0.69411 0.62978 0.04185
 C26 C 0.63009 0.69219 -0.04913
 C27 C 0.69373 0.62813 -0.04819
 C28 C 0.62946 0.69366 0.04094
 O29 O 0.61765 0.33626 1.03745
 O30 O 0.66558 0.38286 0.96920
 O31 O 0.61719 0.33538 0.96986
 O32 O 0.66524 0.38413 1.03674
 O33 O 0.70561 0.34349 1.03714
 O34 O 0.65757 0.29476 0.97034
 O35 O 0.70586 0.34214 0.96972
 O36 O 0.65813 0.29573 1.03778
 Cu37 Cu 0.63732 0.36376 1.00320
 Cu38 Cu 0.68586 0.31493 1.00374
 C39 C 0.62986 0.30807 1.04908
 C40 C 0.69396 0.37046 0.95815
 C41 C 0.62914 0.30674 0.95898
 C42 C 0.69358 0.37205 1.04818
 O43 O 0.38186 0.66323 1.03483
 O44 O 0.33572 0.61706 0.96491
 O45 O 0.38332 0.66514 0.96730
 O46 O 0.33365 0.61578 1.03246
 O47 O 0.29327 0.65639 1.03237
 O48 O 0.34280 0.70563 0.96736
 O49 O 0.29530 0.65765 0.96495
 O50 O 0.34137 0.70375 1.03477
 Cu51 Cu 0.36272 0.63620 0.99988
 Cu52 Cu 0.31412 0.68494 0.99985
 C53 C 0.36948 0.69138 1.04647
 C54 C 0.30763 0.62950 0.95326
 C55 C 0.37147 0.69382 0.95645
 C56 C 0.30499 0.62773 1.04331
 O57 O 0.03168 0.33321 0.38199
 O58 O -0.03438 0.38235 0.33381
 O59 O -0.03577 0.33400 0.38097
 O60 O 0.03283 0.38173 0.33467
 O61 O 0.03294 0.34169 0.29352
 O62 O -0.03557 0.29405 0.33973
 O63 O -0.03419 0.34233 0.29262
 O64 O 0.03181 0.29324 0.34078
 Cu65 Cu -0.00138 0.36183 0.36207
 Cu66 Cu -0.00120 0.31376 0.31255
 C67 C 0.04275 0.30482 0.36961
 C68 C -0.04526 0.37073 0.30497
 C69 C -0.04721 0.30592 0.36816
 C70 C 0.04417 0.36995 0.30607
 O71 O 0.03186 0.66630 0.61783
 O72 O -0.03432 0.61738 0.66610
 O73 O -0.03560 0.66555 0.61875
 O74 O 0.03289 0.61794 0.66533
 O75 O 0.03304 0.65814 0.70634
 O76 O -0.03535 0.70564 0.65984
 O77 O -0.03409 0.65755 0.70715
 O78 O 0.03202 0.70642 0.65890
 Cu79 Cu -0.00126 0.63777 0.63781
 Cu80 Cu -0.00104 0.68603 0.68716
 C81 C 0.04296 0.69472 0.63013
 C82 C -0.04519 0.62912 0.69489
 C83 C -0.04700 0.69368 0.63144
 C84 C 0.04423 0.62982 0.69391
 O85 O 0.96826 0.66553 0.38462
 O86 O 1.03444 0.61726 0.33537
 O87 O 1.03561 0.66457 0.38369
 O88 O 0.96681 0.61789 0.33630
 O89 O 0.96679 0.65873 0.29613
 O90 O 1.03543 0.70528 0.34338
 O91 O 1.03425 0.65809 0.29517
 O92 O 0.96822 0.70626 0.34433
 Cu93 Cu 1.00124 0.63714 0.36403
 Cu94 Cu 1.00112 0.68616 0.31566
 C95 C 0.95728 0.69418 0.37289
 C96 C 1.04557 0.62962 0.30698
 C97 C 1.04704 0.69289 0.37154
 C98 C 0.95525 0.63042 0.30815
 O99 O 0.96782 0.33434 0.61515
 O100 O 1.03410 0.38249 0.66456
 O101 O 1.03519 0.33519 0.61618
 O102 O 0.96646 0.38195 0.66355
 O103 O 0.96633 0.34107 0.70368
 O104 O 1.03490 0.29444 0.65645
 O105 O 1.03381 0.34163 0.70471
 O106 O 0.96768 0.29357 0.65540
 Cu107 Cu 1.00086 0.36266 0.63583
 Cu108 Cu 1.00061 0.31361 0.68414
 C109 C 0.95678 0.30568 0.62683
 C110 C 1.04518 0.37011 0.69295
 C111 C 1.04655 0.30684 0.62830
 C112 C 0.95487 0.36941 0.69169
 O113 O 0.38238 0.03420 0.33508
 O114 O 0.33449 -0.03337 0.38252
 O115 O 0.38267 -0.03323 0.33463
 O116 O 0.33464 0.03403 0.38277
 O117 O 0.29427 0.03396 0.34200
 O118 O 0.34223 -0.03319 0.29395
 O119 O 0.29413 -0.03333 0.34174
 O120 O 0.34191 0.03411 0.29439
 Cu121 Cu 0.36264 0.00030 0.36287
 Cu122 Cu 0.31407 0.00030 0.31391
 C123 C 0.37017 0.04555 0.30672
 C124 C 0.30606 -0.04451 0.37028
 C125 C 0.37070 -0.04433 0.30601
 C126 C 0.30633 0.04534 0.37047
 O127 O 0.61743 0.03707 0.66469
 O128 O 0.66555 -0.03099 0.61784
 O129 O 0.61725 -0.03038 0.66554
 O130 O 0.66513 0.03639 0.61685
 O131 O 0.70550 0.03699 0.65762
 O132 O 0.65764 -0.02969 0.70627
 O133 O 0.70585 -0.03028 0.65867
 O134 O 0.65790 0.03762 0.70536
 Cu135 Cu 0.63725 0.00288 0.63712
 Cu136 Cu 0.68578 0.00367 0.68609
 C137 C 0.62960 0.04880 0.69297
 C138 C 0.69398 -0.04190 0.63023
 C139 C 0.62924 -0.04113 0.69424
 C140 C 0.69344 0.04791 0.62902
 O141 O 0.38216 0.96596 0.66521
 O142 O 0.33409 1.03332 0.61767
 O143 O 0.38232 1.03338 0.66552
 O144 O 0.33446 0.96593 0.61747
 O145 O 0.29409 0.96591 0.65822
 O146 O 0.34190 1.03326 0.70620
 O147 O 0.29375 1.03320 0.65844
 O148 O 0.34170 0.96596 0.70587
 Cu149 Cu 0.36235 0.99976 0.63735
 Cu150 Cu 0.31379 0.99966 0.68629
 C151 C 0.36997 0.95459 0.69357
 C152 C 0.30563 1.04439 0.62989
 C153 C 0.37033 1.04449 0.69412
 C154 C 0.30619 0.95454 0.62978
 O155 O 0.66644 1.03149 0.38239
 O156 O 0.61822 0.96355 0.33531
 O157 O 0.66597 0.96408 0.38313
 O158 O 0.61805 1.03099 0.33472
 O159 O 0.65839 1.03047 0.29396
 O160 O 0.70629 0.96364 0.34235
 O161 O 0.65864 0.96316 0.29461
 O162 O 0.70668 1.03094 0.34155
 Cu163 Cu 0.63809 0.99765 0.36300
 Cu164 Cu 0.68656 0.99707 0.31401
 C165 C 0.69486 1.04247 0.37003
 C166 C 0.63034 0.95193 0.30697
 C167 C 0.69425 0.95260 0.37091
 C168 C 0.62999 1.04183 0.30604
 C169 C 0.81450 0.81466 0.52062
 C170 C 0.81538 0.81392 0.48523
 C171 C 0.84050 0.79197 0.46601
 C172 C 0.79265 0.83652 0.46387
 C173 C 0.79268 0.83993 0.53980
 C174 C 0.83688 0.79167 0.54194
 C175 C 0.87632 0.79538 0.47168
 C176 C 0.89973 0.77491 0.45309
 C177 C 0.88762 0.75111 0.42842
 C178 C 0.85200 0.74790 0.42235
 C179 C 0.82855 0.76833 0.44096
 C180 C 0.80759 0.85879 0.43928
 C181 C 0.78687 0.88133 0.42002
 C182 C 0.75095 0.88171 0.42492
 C183 C 0.73573 0.85901 0.44880
 C184 C 0.75646 0.83636 0.46808
 C185 C 0.76865 0.82816 0.56447
 C186 C 0.74805 0.85177 0.58272
 C187 C 0.75150 0.88736 0.57668
 C188 C 0.77577 0.89927 0.55247
 C189 C 0.79640 0.87571 0.53425
 C190 C 0.83661 0.75552 0.53735
 C191 C 0.85936 0.73458 0.55629
 C192 C 0.88227 0.74955 0.58024
 C193 C 0.88190 0.78541 0.58562
 C194 C 0.85927 0.80634 0.56669
 H195 H 0.88608 0.81402 0.49033
 H196 H 0.92727 0.77780 0.45777
 H197 H 0.84237 0.72971 0.40318
 H198 H 0.80105 0.76561 0.43602
 H199 H 0.83540 0.85927 0.43557
 H200 H 0.79891 0.89875 0.40160
 H201 H 0.74438 0.81899 0.48651
 H202 H 0.76567 0.80069 0.56932
 H203 H 0.72949 0.84229 0.60154
 H204 H 0.77886 0.92677 0.54780
 H205 H 0.81532 0.88533 0.51588
 H206 H 0.81916 0.74364 0.51879
 H207 H 0.85935 0.70684 0.55199
 H208 H 0.89949 0.79726 0.60409
 H209 H 0.85984 0.83411 0.57070
 H210 H 0.70793 0.85901 0.45271
 C211 C 0.18533 0.18561 0.51776
 C212 C 0.18462 0.18580 0.48236
 C213 C 0.15950 0.20735 0.46276
 C214 C 0.20750 0.16292 0.46141
 C215 C 0.20717 0.16074 0.53735
 C216 C 0.16274 0.20876 0.53872
 C217 C 0.12367 0.20389 0.46828
 C218 C 0.10028 0.22409 0.44944
 C219 C 0.11242 0.24764 0.42466
 C220 C 0.14806 0.25084 0.41869
 C221 C 0.17149 0.23068 0.43756
 C222 C 0.19272 0.14013 0.43709
 C223 C 0.21357 0.11726 0.41831
 C224 C 0.24947 0.11704 0.42342
 C225 C 0.26454 0.14026 0.44701
 C226 C 0.24367 0.16325 0.46581
 C227 C 0.23103 0.17300 0.56201
 C228 C 0.25157 0.14978 0.58073
 C229 C 0.24821 0.11408 0.57516
 C230 C 0.22412 0.10167 0.55094
 C231 C 0.20356 0.12486 0.53225
 C232 C 0.16283 0.24486 0.53381
 C233 C 0.14000 0.26593 0.55258
 C234 C 0.11719 0.25116 0.57665
 C235 C 0.11769 0.21537 0.58230
 C236 C 0.14039 0.19431 0.56355
 H237 H 0.11389 0.18548 0.48706
 H238 H 0.07274 0.22123 0.45407
 H239 H 0.15771 0.26886 0.39946
 H240 H 0.19900 0.23342 0.43272
 H241 H 0.16492 0.13951 0.43325
 H242 H 0.20165 0.09944 0.40010
 H243 H 0.25563 0.18100 0.48404
 H244 H 0.23391 0.20056 0.56651
 H245 H 0.26999 0.15963 0.59955
 H246 H 0.22113 0.07409 0.54664
 H247 H 0.18476 0.11486 0.51390
 H248 H 0.18024 0.25658 0.51518
 H249 H 0.13990 0.29363 0.54808
 H250 H 0.10018 0.20367 0.60088
 H251 H 0.13996 0.16658 0.56781
 H252 H 0.29231 0.14039 0.45107
 C253 C 0.18596 0.81390 0.48223
 C254 C 0.18512 0.81366 0.51762
 C255 C 0.15995 0.79205 0.53709
 C256 C 0.20788 0.83656 0.53868
 C257 C 0.20783 0.83884 0.46275
 C258 C 0.16342 0.79077 0.46116
 C259 C 0.12414 0.79548 0.53147
 C260 C 0.10069 0.77528 0.55024
 C261 C 0.11277 0.75174 0.57507
 C262 C 0.14840 0.74854 0.58112
 C263 C 0.17188 0.76871 0.56232
 C264 C 0.19297 0.85932 0.56293
 C265 C 0.21372 0.88225 0.58179
 C266 C 0.24963 0.88256 0.57682
 C267 C 0.26483 0.85937 0.55332
 C268 C 0.24407 0.83632 0.53444
 C269 C 0.23173 0.82664 0.43812
 C270 C 0.25223 0.84992 0.41942
 C271 C 0.24881 0.88561 0.42499
 C272 C 0.22470 0.89795 0.44919
 C273 C 0.20417 0.87471 0.46786
 C274 C 0.16350 0.75468 0.46601
 C275 C 0.14066 0.73363 0.44720
 C276 C 0.11785 0.74844 0.42315
 C277 C 0.11837 0.78424 0.41755
 C278 C 0.14109 0.80527 0.43634
 H279 H 0.11440 0.81389 0.51267
 H280 H 0.07316 0.77813 0.54554
 H281 H 0.15800 0.73054 0.60040
 H282 H 0.19938 0.76599 0.56724
 H283 H 0.16516 0.85987 0.56665
 H284 H 0.20170 0.90005 0.59994
 H285 H 0.25611 0.81860 0.51626
 H286 H 0.23464 0.79909 0.43360
 H287 H 0.27067 0.84012 0.40062
 H288 H 0.22165 0.92552 0.45350
 H289 H 0.18534 0.88465 0.48618
 H290 H 0.18091 0.74293 0.48464
 H291 H 0.14054 0.70593 0.45166
 H292 H 0.10085 0.79596 0.39899
 H293 H 0.14066 0.83300 0.43214
 H294 H 0.29261 0.85932 0.54937
 C295 C 0.81411 0.18494 0.47876
 C296 C 0.81494 0.18583 0.51416
 C297 C 0.84005 0.20787 0.53336
 C298 C 0.79214 0.16334 0.53555
 C299 C 0.79231 0.15956 0.45961
 C300 C 0.83650 0.20789 0.45741
 C301 C 0.87588 0.20449 0.52777
 C302 C 0.89928 0.22499 0.54641
 C303 C 0.88714 0.24879 0.57105
 C304 C 0.85151 0.25198 0.57702
 C305 C 0.82808 0.23152 0.55837
 C306 C 0.80699 0.14120 0.56031
 C307 C 0.78619 0.11881 0.57966
 C308 C 0.75028 0.11843 0.57467
 C309 C 0.73515 0.14100 0.55061
 C310 C 0.75595 0.16351 0.53124
 C311 C 0.76840 0.17121 0.43475
 C312 C 0.74785 0.14753 0.41650
 C313 C 0.75122 0.11196 0.42273
 C314 C 0.77536 0.10016 0.44714
 C315 C 0.79594 0.12381 0.46537
 C316 C 0.83618 0.24406 0.46190
 C317 C 0.85895 0.26498 0.44297
 C318 C 0.88194 0.24999 0.41915
 C319 C 0.88161 0.21411 0.41386
 C320 C 0.85895 0.19320 0.43277
 H321 H 0.88567 0.18585 0.50916
 H322 H 0.92681 0.22211 0.54179
 H323 H 0.84186 0.27017 0.59617
 H324 H 0.80057 0.23422 0.56326
 H325 H 0.83480 0.14073 0.56411
 H326 H 0.79817 0.10148 0.59822
 H327 H 0.74394 0.18078 0.51268
 H328 H 0.76549 0.19866 0.42974
 H329 H 0.72941 0.15692 0.39752
 H330 H 0.77838 0.07269 0.45196
 H331 H 0.81476 0.11426 0.48388
 H332 H 0.81868 0.25595 0.48037
 H333 H 0.85892 0.29274 0.44719
 H334 H 0.89926 0.20224 0.39548
 H335 H 0.85956 0.16541 0.42885
 H336 H 0.70736 0.14100 0.54663
 C337 C 0.51783 0.81522 0.81288
 C338 C 0.48252 0.81447 0.81410
 C339 C 0.46112 0.83702 0.79145
 C340 C 0.46352 0.79245 0.83937
 C341 C 0.53920 0.79193 0.83477
 C342 C 0.53691 0.84067 0.79116
 C343 C 0.43676 0.85946 0.80653
 C344 C 0.41777 0.88225 0.78585
 C345 C 0.42275 0.88267 0.74987
 C346 C 0.44630 0.85971 0.73451
 C347 C 0.46530 0.83682 0.75519
 C348 C 0.46966 0.79551 0.87523
 C349 C 0.45135 0.77493 0.89876
 C350 C 0.42648 0.75134 0.88676
 C351 C 0.41993 0.74849 0.85111
 C352 C 0.43826 0.76903 0.82754
 C353 C 0.53457 0.75581 0.83391
 C354 C 0.55352 0.73453 0.85630
 C355 C 0.57747 0.74916 0.87938
 C356 C 0.58290 0.78499 0.87957
 C357 C 0.56397 0.80627 0.85731
 C358 C 0.56190 0.82907 0.76731
 C359 C 0.58047 0.85281 0.74721
 C360 C 0.57447 0.88839 0.75094
 C361 C 0.54985 0.90015 0.77493
 C362 C 0.53129 0.87645 0.79508
 H363 H 0.43310 0.85994 0.83441
 H364 H 0.39957 0.89988 0.79798
 H365 H 0.45024 0.85977 0.70666
 H366 H 0.48358 0.81932 0.74303
 H367 H 0.48848 0.81396 0.88495
 H368 H 0.45643 0.77757 0.92631
 H369 H 0.43293 0.76654 0.80003
 H370 H 0.51597 0.74423 0.81631
 H371 H 0.54921 0.70679 0.85589
 H372 H 0.60140 0.79655 0.89733
 H373 H 0.56797 0.83403 0.85830
 H374 H 0.56684 0.80163 0.76418
 H375 H 0.59957 0.84343 0.72885
 H376 H 0.54517 0.92763 0.77823
 H377 H 0.51273 0.88597 0.81388
 H378 H 0.40060 0.73048 0.84154
 C379 C 0.51802 0.18506 0.18744
 C380 C 0.48271 0.18571 0.18619
 C381 C 0.46135 0.16313 0.20884
 C382 C 0.46367 0.20766 0.16088
 C383 C 0.53933 0.20836 0.16550
 C384 C 0.53718 0.15971 0.20921
 C385 C 0.43697 0.14066 0.19377
 C386 C 0.41797 0.11789 0.21445
 C387 C 0.42294 0.11750 0.25043
 C388 C 0.44652 0.14048 0.26579
 C389 C 0.46553 0.16336 0.24511
 C390 C 0.46978 0.20455 0.12503
 C391 C 0.45146 0.22508 0.10146
 C392 C 0.42660 0.24867 0.11343
 C393 C 0.42009 0.25157 0.14909
 C394 C 0.43843 0.23108 0.17268
 C395 C 0.53465 0.24448 0.16629
 C396 C 0.55350 0.26576 0.14383
 C397 C 0.57740 0.25114 0.12071
 C398 C 0.58289 0.21532 0.12059
 C399 C 0.56406 0.19405 0.14293
 C400 C 0.56219 0.17142 0.23299
 C401 C 0.58087 0.14777 0.25310
 C402 C 0.57493 0.11216 0.24944
 C403 C 0.55028 0.10030 0.22551
 C404 C 0.53162 0.12391 0.20536
 H405 H 0.43330 0.14016 0.16589
 H406 H 0.39977 0.10024 0.20232
 H407 H 0.45045 0.14045 0.29365
 H408 H 0.48381 0.18089 0.25727
 H409 H 0.48859 0.18610 0.11534
 H410 H 0.45652 0.22240 0.07392
 H411 H 0.43313 0.23361 0.20019
 H412 H 0.51608 0.25605 0.18390
 H413 H 0.54916 0.29349 0.14419
 H414 H 0.60136 0.20377 0.10282
 H415 H 0.56809 0.16629 0.14199
 H416 H 0.56709 0.19888 0.23607
 H417 H 0.60000 0.15724 0.27140
 H418 H 0.54565 0.07280 0.22226
 H419 H 0.51303 0.11430 0.18660
 H420 H 0.40077 0.26958 0.15863
 C421 C 0.48192 0.18765 0.81371
 C422 C 0.51723 0.18847 0.81475
 C423 C 0.53855 0.16609 0.79175
 C424 C 0.53636 0.21017 0.84030
 C425 C 0.46052 0.21055 0.83610
 C426 C 0.46284 0.16237 0.79168
 C427 C 0.56296 0.14353 0.80650
 C428 C 0.58187 0.12089 0.78551
 C429 C 0.57679 0.12071 0.74954
 C430 C 0.55318 0.14378 0.73450
 C431 C 0.53425 0.16653 0.75550
 C432 C 0.53041 0.20664 0.87613
 C433 C 0.54907 0.22670 0.89994
 C434 C 0.57411 0.25021 0.88824
 C435 C 0.58042 0.25355 0.85261
 C436 C 0.56175 0.23353 0.82876
 C437 C 0.46505 0.24669 0.83601
 C438 C 0.44584 0.26758 0.85863
 C439 C 0.42172 0.25255 0.88120
 C440 C 0.41644 0.21669 0.88067
 C441 C 0.43563 0.19582 0.85817
 C442 C 0.43786 0.17414 0.76795
 C443 C 0.41928 0.15054 0.74758
 C444 C 0.42528 0.11494 0.75093
 C445 C 0.44990 0.10302 0.77481
 C446 C 0.46846 0.12658 0.79522
 H447 H 0.56671 0.14284 0.83436
 H448 H 0.60010 0.10317 0.79740
 H449 H 0.54915 0.14392 0.70667
 H450 H 0.51594 0.18413 0.74359
 H451 H 0.51152 0.18820 0.88561
 H452 H 0.54414 0.22371 0.92746
 H453 H 0.56695 0.23635 0.80128
 H454 H 0.48373 0.25860 0.81877
 H455 H 0.45006 0.29533 0.85880
 H456 H 0.39784 0.20481 0.89804
 H457 H 0.43168 0.16804 0.85858
 H458 H 0.43293 0.20161 0.76512
 H459 H 0.40017 0.16004 0.72932
 H460 H 0.45456 0.07551 0.77782
 H461 H 0.48703 0.11693 0.81393
 H462 H 0.59985 0.27153 0.84327
 C463 C 0.48245 0.81304 0.18602
 C464 C 0.51777 0.81232 0.18496
 C465 C 0.53908 0.83475 0.20796
 C466 C 0.53692 0.79061 0.15943
 C467 C 0.46107 0.79003 0.16367
 C468 C 0.46334 0.83823 0.20810
 C469 C 0.56347 0.85736 0.19323
 C470 C 0.58240 0.88001 0.21423
 C471 C 0.57738 0.88014 0.25021
 C472 C 0.55379 0.85703 0.26523
 C473 C 0.53484 0.83427 0.24422
 C474 C 0.53090 0.79400 0.12360
 C475 C 0.54951 0.77388 0.09983
 C476 C 0.57459 0.75044 0.11157
 C477 C 0.58099 0.74725 0.14721
 C478 C 0.56235 0.76733 0.17101
 C479 C 0.46566 0.75390 0.16381
 C480 C 0.44643 0.73291 0.14125
 C481 C 0.42221 0.74783 0.11870
 C482 C 0.41687 0.78367 0.11918
 C483 C 0.43608 0.80464 0.14161
 C484 C 0.43841 0.82635 0.23182
 C485 C 0.41982 0.84986 0.25227
 C486 C 0.42576 0.88549 0.24900
 C487 C 0.45033 0.89752 0.22513
 C488 C 0.46889 0.87405 0.20465
 H489 H 0.56719 0.85808 0.16537
 H490 H 0.60062 0.89776 0.20236
 H491 H 0.54980 0.85685 0.29307
 H492 H 0.51655 0.81664 0.25612
 H493 H 0.51197 0.81237 0.11407
 H494 H 0.54451 0.77676 0.07230
 H495 H 0.56761 0.76460 0.19850
 H496 H 0.48441 0.74207 0.18103
 H497 H 0.45071 0.70517 0.14113
 H498 H 0.39820 0.79547 0.10183
 H499 H 0.43207 0.83241 0.14117
 H500 H 0.43352 0.79886 0.23459
 H501 H 0.40075 0.84027 0.27051
 H502 H 0.45495 0.92504 0.22218
 H503 H 0.48743 0.88379 0.18595
 H504 H 0.60044 0.72932 0.15659
 C505 C 0.81429 0.51512 0.81400
 C506 C 0.81392 0.47980 0.81447
 C507 C 0.79242 0.46037 0.83975
 C508 C 0.83658 0.45888 0.79128
 C509 C 0.83911 0.53470 0.79213
 C510 C 0.79144 0.53609 0.83694
 C511 C 0.79630 0.46586 0.87563
 C512 C 0.77575 0.44766 0.89921
 C513 C 0.75140 0.42355 0.88721
 C514 C 0.74784 0.41751 0.85153
 C515 C 0.76838 0.43574 0.82789
 C516 C 0.85923 0.43439 0.80581
 C517 C 0.88209 0.41583 0.78472
 C518 C 0.88246 0.42131 0.74881
 C519 C 0.85933 0.44501 0.73397
 C520 C 0.83635 0.46359 0.75508
 C521 C 0.82677 0.55956 0.76863
 C522 C 0.84994 0.57860 0.74835
 C523 C 0.88565 0.57313 0.75161
 C524 C 0.89813 0.54864 0.77527
 C525 C 0.87499 0.52962 0.79558
 C526 C 0.75528 0.53154 0.83691
 C527 C 0.73445 0.55069 0.85968
 C528 C 0.74953 0.57476 0.88239
 C529 C 0.78542 0.57992 0.88194
 C530 C 0.80623 0.56080 0.85930
 H531 H 0.81523 0.48423 0.88529
 H532 H 0.77890 0.45232 0.92678
 H533 H 0.72922 0.39875 0.84200
 H534 H 0.76528 0.43097 0.80034
 H535 H 0.85979 0.43029 0.83362
 H536 H 0.89983 0.39754 0.79648
 H537 H 0.81872 0.48194 0.74328
 H538 H 0.79920 0.56404 0.76591
 H539 H 0.84005 0.59763 0.73025
 H540 H 0.92573 0.54441 0.77816
 H541 H 0.88502 0.51111 0.81413
 H542 H 0.74330 0.51301 0.81949
 H543 H 0.70669 0.54657 0.85973
 H544 H 0.79736 0.59849 0.89937
 H545 H 0.83401 0.56478 0.85969
 H546 H 0.85931 0.44938 0.70620
 C547 C 0.18625 0.51808 0.18534
 C548 C 0.18592 0.48277 0.18670
 C549 C 0.20901 0.46143 0.16446
 C550 C 0.16099 0.46357 0.20891
 C551 C 0.16353 0.53934 0.20807
 C552 C 0.20791 0.53716 0.15983
 C553 C 0.19447 0.43629 0.14244
 C554 C 0.21549 0.41715 0.12004
 C555 C 0.25130 0.42273 0.11955
 C556 C 0.26616 0.44710 0.14207
 C557 C 0.24512 0.46626 0.16461
 C558 C 0.12511 0.46857 0.20531
 C559 C 0.10189 0.44980 0.22580
 C560 C 0.11425 0.42560 0.24984
 C561 C 0.14996 0.42024 0.25330
 C562 C 0.17322 0.43903 0.23283
 C563 C 0.16401 0.53546 0.24436
 C564 C 0.14090 0.55421 0.26511
 C565 C 0.11740 0.57722 0.24981
 C566 C 0.11753 0.58191 0.21380
 C567 C 0.14054 0.56318 0.19304
 C568 C 0.23125 0.56261 0.17142
 C569 C 0.25159 0.58090 0.14766
 C570 C 0.24861 0.57415 0.11204
 C571 C 0.22506 0.54912 0.10028
 C572 C 0.20468 0.53084 0.12401
 H573 H 0.16672 0.43211 0.14200
 H574 H 0.20374 0.39837 0.10271
 H575 H 0.29387 0.45156 0.14193
 H576 H 0.25688 0.48514 0.18179
 H577 H 0.11512 0.48679 0.18645
 H578 H 0.07430 0.45396 0.22271
 H579 H 0.20078 0.43457 0.23571
 H580 H 0.18191 0.51759 0.25648
 H581 H 0.14111 0.55050 0.29299
 H582 H 0.09951 0.59971 0.20171
 H583 H 0.13982 0.56661 0.16514
 H584 H 0.23387 0.56807 0.19890
 H585 H 0.26957 0.60034 0.15704
 H586 H 0.22232 0.54387 0.07277
 H587 H 0.18629 0.51187 0.11449
 H588 H 0.15980 0.40144 0.27167
 C589 C 0.81424 0.48494 0.18607
 C590 C 0.81387 0.52026 0.18557
 C591 C 0.79236 0.53967 0.16028
 C592 C 0.83657 0.54120 0.20872
 C593 C 0.83906 0.46539 0.20795
 C594 C 0.79137 0.46396 0.16315
 C595 C 0.79621 0.53417 0.12441
 C596 C 0.77570 0.55241 0.10082
 C597 C 0.75142 0.57657 0.11281
 C598 C 0.74789 0.58261 0.14849
 C599 C 0.76839 0.56434 0.17213
 C600 C 0.85926 0.56562 0.19415
 C601 C 0.88220 0.58415 0.21522
 C602 C 0.88260 0.57870 0.25113
 C603 C 0.85942 0.55507 0.26600
 C604 C 0.83636 0.53652 0.24493
 C605 C 0.82673 0.44052 0.23145
 C606 C 0.84991 0.42146 0.25169
 C607 C 0.88561 0.42691 0.24840
 C608 C 0.89809 0.45141 0.22476
 C609 C 0.87494 0.47046 0.20447
 C610 C 0.75522 0.46848 0.16319
 C611 C 0.73437 0.44933 0.14041
 C612 C 0.74944 0.42529 0.11769
 C613 C 0.78532 0.42015 0.11813
 C614 C 0.80615 0.43927 0.14079
 H615 H 0.81509 0.51578 0.11475
 H616 H 0.77883 0.54775 0.07325
 H617 H 0.72934 0.60141 0.15801
 H618 H 0.76533 0.56913 0.19968
 H619 H 0.85981 0.56968 0.16634
 H620 H 0.89999 0.60239 0.20343
 H621 H 0.81869 0.51821 0.25675
 H622 H 0.79916 0.43604 0.23418
 H623 H 0.84002 0.40242 0.26979
 H624 H 0.92569 0.45563 0.22184
 H625 H 0.88497 0.48897 0.18592
 H626 H 0.74326 0.48700 0.18061
 H627 H 0.70661 0.45343 0.14035
 H628 H 0.79725 0.40160 0.10069
 H629 H 0.83393 0.43532 0.14040
 H630 H 0.85941 0.55073 0.29378
 C631 C 0.18573 0.48164 0.81511
 C632 C 0.18551 0.51696 0.81379
 C633 C 0.20866 0.53823 0.83609
 C634 C 0.16067 0.53622 0.79155
 C635 C 0.16299 0.46043 0.79230
 C636 C 0.20733 0.46250 0.84063
 C637 C 0.19420 0.56341 0.85810
 C638 C 0.21528 0.58252 0.88050
 C639 C 0.25108 0.57689 0.88102
 C640 C 0.26586 0.55247 0.85852
 C641 C 0.24476 0.53334 0.83598
 C642 C 0.12476 0.53126 0.79505
 C643 C 0.10163 0.55005 0.77447
 C644 C 0.11410 0.57423 0.75047
 C645 C 0.14983 0.57956 0.74713
 C646 C 0.17300 0.56075 0.76767
 C647 C 0.16352 0.46436 0.75602
 C648 C 0.14044 0.44561 0.73518
 C649 C 0.11692 0.42254 0.75039
 C650 C 0.11700 0.41781 0.78640
 C651 C 0.13998 0.43654 0.80724
 C652 C 0.23066 0.43708 0.82905
 C653 C 0.25102 0.41881 0.85282
 C654 C 0.24806 0.42556 0.88843
 C655 C 0.22450 0.45055 0.90019
 C656 C 0.20410 0.46881 0.87645
 H657 H 0.16646 0.56765 0.85851
 H658 H 0.20358 0.60134 0.89781
 H659 H 0.29356 0.54797 0.85867
 H660 H 0.25647 0.51444 0.81880
 H661 H 0.11470 0.51306 0.81387
 H662 H 0.07403 0.54592 0.77747
 H663 H 0.20057 0.56517 0.76487
 H664 H 0.18144 0.48225 0.74395
 H665 H 0.14070 0.44935 0.70731
 H666 H 0.09896 0.39998 0.79843
 H667 H 0.13922 0.43307 0.83513
 H668 H 0.23328 0.43164 0.80157
 H669 H 0.26901 0.39940 0.84344
 H670 H 0.22179 0.45579 0.92770
 H671 H 0.18573 0.48777 0.88597
 H672 H 0.15975 0.59835 0.72878
 C673 C 0.28896 0.38867 0.07352
 C674 C 0.27234 0.40419 0.09496
 C675 C 0.71355 0.61114 0.06741
 C676 C 0.73055 0.59542 0.08836
 C677 C 0.71343 0.38908 0.93259
 C678 C 0.73047 0.40476 0.91165
 C679 C 0.28888 0.61102 0.92696
 C680 C 0.27219 0.59546 0.90557
 C681 C 0.06768 0.28512 0.38883
 C682 C 0.08824 0.26819 0.40512
 C683 C 0.06794 0.71435 0.61088
 C684 C 0.08854 0.73123 0.59459
 C685 C 0.93238 0.71364 0.39247
 C686 C 0.91183 0.73050 0.40890
 C687 C 0.93188 0.28625 0.60716
 C688 C 0.91134 0.26939 0.59066
 C689 C 0.38884 0.07148 0.28785
 C690 C 0.40442 0.09280 0.27123
 C691 C 0.61082 0.07478 0.71176
 C692 C 0.59524 0.09609 0.72846
 C693 C 0.38867 0.92870 0.71245
 C694 C 0.40424 0.90739 0.72907
 C695 C 0.61152 0.92600 0.28809
 C696 C 0.59588 0.90473 0.27133
 C697 C 0.38759 0.29004 0.92733
 C698 C 0.40313 0.27347 0.90586
 C699 C 0.61137 0.71099 0.92493
 C700 C 0.59584 0.72783 0.90374
 C701 C 0.38796 0.71013 0.07276
 C702 C 0.40356 0.72679 0.09414
 C703 C 0.61117 0.28929 0.07505
 C704 C 0.59568 0.27247 0.09628
 C705 C 0.28608 0.06950 0.61077
 C706 C 0.26906 0.09006 0.59458
 C707 C 0.71337 0.06654 0.38787
 C708 C 0.73037 0.08747 0.40375
 C709 C 0.71353 0.93264 0.61145
 C710 C 0.73058 0.91177 0.59563
 C711 C 0.28656 0.93030 0.38939
 C712 C 0.26960 0.90969 0.40557
 C713 C 0.07087 0.38872 0.71240
 C714 C 0.09213 0.40418 0.72934
 C715 C 0.07128 0.61100 0.28763
 C716 C 0.09257 0.59555 0.27076
 C717 C 0.92994 0.39036 0.28558
 C718 C 0.90954 0.40699 0.26883
 C719 C 0.92998 0.60956 0.71432
 C720 C 0.90957 0.59299 0.73112
 C721 C 0.71183 0.60991 0.92769
 C722 C 0.72856 0.59381 0.90672
 C723 C 0.28585 0.39040 0.93362
 C724 C 0.26878 0.40650 0.91295
 C725 C 0.28628 0.60941 0.06684
 C726 C 0.26927 0.59327 0.08752
 C727 C 0.71171 0.39020 0.07233
 C728 C 0.72846 0.40627 0.09333
 C729 C 0.92833 0.71174 0.61405
 C730 C 0.90695 0.72851 0.59863
 C731 C 0.92808 0.28782 0.38545
 C732 C 0.90667 0.27103 0.40080
 C733 C 0.07119 0.28900 0.61061
 C734 C 0.09254 0.27229 0.59504
 C735 C 0.07174 0.71068 0.38922
 C736 C 0.09315 0.72735 0.40477
 C737 C 0.61007 0.93369 0.71377
 C738 C 0.59386 0.91290 0.73055
 C739 C 0.38999 0.93049 0.28652
 C740 C 0.40628 0.90979 0.26964
 C741 C 0.61075 0.06699 0.28656
 C742 C 0.59445 0.08774 0.26981
 C743 C 0.38956 0.06976 0.71355
 C744 C 0.40582 0.09055 0.73038
 C745 C 0.61027 0.71325 0.06616
 C746 C 0.59403 0.73005 0.08699
 C747 C 0.39106 0.28639 0.06851
 C748 C 0.40734 0.26938 0.08907
 C749 C 0.60989 0.28723 0.93373
 C750 C 0.59360 0.27050 0.91286
 C751 C 0.39098 0.71354 0.93166
 C752 C 0.40723 0.73058 0.91110
 C753 C 0.71335 0.92705 0.38995
 C754 C 0.73006 0.90605 0.40592
 C755 C 0.28719 0.92863 0.61102
 C756 C 0.27051 0.90731 0.59537
 C757 C 0.28725 0.07114 0.38925
 C758 C 0.27047 0.09238 0.40490
 C759 C 0.71256 0.07336 0.60985
 C760 C 0.72932 0.09424 0.59378
 C761 C 0.92902 0.61206 0.28913
 C762 C 0.90751 0.59679 0.27230
 C763 C 0.92872 0.38783 0.71073
 C764 C 0.90728 0.40315 0.72759
 C765 C 0.06951 0.61044 0.71307
 C766 C 0.09011 0.59398 0.72983
 C767 C 0.06952 0.38936 0.28703
 C768 C 0.09018 0.40584 0.27037
   
