data_POSCAR
  _audit_creation_date              2014-09-24
  _audit_creation_method            'ToBaCCo'
  _symmetry_space_group_name_H-M    'P1'
  _symmetry_Int_Tables_number       1
  _symmetry_cell_setting            triclinic
  loop_
  _symmetry_equiv_pos_as_xyz
 x,y,z
_cell_length_a 22.4395
_cell_length_b 22.4660
_cell_length_c 22.9459
_cell_angle_alpha 89.218000
_cell_angle_beta 88.243100
_cell_angle_gamma 91.175200
loop_
  _atom_site_label
  _atom_site_type_symbol
  _atom_site_fract_x
  _atom_site_fract_y
  _atom_site_fract_z
N1 N 0.35789 0.37068 1.36099
 N2 N 1.13762 0.64193 0.86118
 N3 N 0.61615 -0.13533 0.12025
 N4 N -0.13753 1.13026 -0.34286
 N5 N 0.64078 0.65633 0.64556
 N6 N 0.85434 0.36065 0.15213
 N7 N 0.36489 0.13085 0.85815
 N8 N 0.11171 0.88227 0.38029
 Zn9 Zn 0.06993 0.96304 0.02626
 Zn10 Zn 0.01510 1.07173 -0.02136
 Zn11 Zn -0.04661 0.95186 -0.03272
 Zn12 Zn -0.03920 1.01271 0.08326
 O13 O -0.00049 0.99950 0.01366
 O14 O 0.13303 1.00285 -0.00567
 O15 O -0.01911 1.07741 -0.08933
 O16 O -0.00997 0.88317 -0.05380
 O17 O 0.09216 1.08526 -0.03801
 O18 O 0.07366 0.89129 -0.00553
 O19 O -0.06549 0.99021 -0.09944
 O20 O -0.10906 0.97375 0.08934
 O21 O -0.01221 1.13403 0.01866
 O22 O -0.11662 0.92995 0.00372
 O23 O -0.05696 1.08920 0.09472
 O24 O 0.00307 0.99042 0.14445
 O25 O 0.08385 0.95304 0.10206
 C26 C 0.13711 1.05288 -0.03194
 C27 C -0.05149 1.04248 -0.11806
 C28 C 0.03998 0.86264 -0.03901
 C29 C -0.13772 0.94160 0.05438
 C30 C -0.04370 1.13609 0.06532
 C31 C 0.05356 0.96623 0.14748
 Zn32 Zn 0.49637 -0.06123 0.45247
 Zn33 Zn 0.53638 -0.00074 0.55971
 Zn34 Zn 0.54186 0.06432 0.44630
 Zn35 Zn 0.42334 0.03513 0.50451
 O36 O 0.49931 0.00930 0.49077
 O37 O 0.52662 -0.12110 0.49372
 O38 O 0.60519 0.04094 0.56293
 O39 O 0.57274 0.03439 0.38076
 O40 O 0.55294 -0.07683 0.57495
 O41 O 0.53682 -0.05822 0.38367
 O42 O 0.60401 0.09564 0.48211
 O43 O 0.41032 0.10376 0.46715
 O44 O 0.49242 0.02432 0.62037
 O45 O 0.49829 0.12557 0.42494
 O46 O 0.40779 0.04962 0.58047
 O47 O 0.36683 -0.01607 0.48011
 O48 O 0.42173 -0.08534 0.43832
 C49 C 0.54738 -0.12326 0.54449
 C50 C 0.62780 0.08136 0.52940
 C51 C 0.56774 -0.01670 0.35863
 C52 C 0.44420 0.13773 0.43571
 C53 C 0.44030 0.04507 0.62461
 C54 C 0.37128 -0.06433 0.45218
 Zn55 Zn 1.00911 0.42910 0.47179
 Zn56 Zn 1.06955 0.53696 0.51816
 Zn57 Zn 0.95113 0.54717 0.46283
 Zn58 Zn 0.96167 0.48528 0.57983
 O59 O 0.99763 0.49973 0.50815
 O60 O 1.08561 0.41730 0.45293
 O61 O 1.07409 0.60876 0.48513
 O62 O 0.93049 0.51273 0.39526
 O63 O 1.13043 0.49837 0.48572
 O64 O 0.97209 0.42480 0.40410
 O65 O 0.98699 0.61783 0.44359
 O66 O 0.89032 0.51876 0.58537
 O67 O 1.08556 0.54931 0.59307
 O68 O 0.88258 0.56479 0.49988
 O69 O 1.00350 0.51513 0.63911
 O70 O 0.94908 0.40700 0.59567
 O71 O 0.98362 0.36581 0.51467
 C72 C 1.13202 0.44943 0.45894
 C73 C 1.03826 0.63859 0.45557
 C74 C 0.94161 0.46145 0.37550
 C75 C 0.86168 0.55087 0.55036
 C76 C 1.05453 0.54072 0.63967
 C77 C 0.95959 0.36122 0.56534
 Zn78 Zn 0.46690 0.48008 0.92200
 Zn79 Zn 0.45138 0.54089 1.03629
 Zn80 Zn 0.50855 0.42186 1.03074
 Zn81 Zn 0.57390 0.52770 0.98226
 O82 O 0.50002 0.49275 0.99281
 O83 O 0.39516 0.51397 0.91558
 O84 O 0.42597 0.50633 1.10389
 O85 O 0.48779 0.35973 0.98769
 O86 O 0.38480 0.56076 0.99942
 O87 O 0.45649 0.40240 0.90690
 O88 O 0.46448 0.41665 1.09666
 O89 O 0.63289 0.48756 1.01593
 O90 O 0.48790 0.60968 1.05459
 O91 O 0.58328 0.40900 1.05255
 O92 O 0.57754 0.59923 1.01336
 O93 O 0.59375 0.54086 0.90712
 O94 O 0.51253 0.51004 0.86285
 C95 C 0.36538 0.54687 0.94992
 C96 C 0.43307 0.45414 1.12401
 C97 C 0.46706 0.35617 0.93706
 C98 C 0.63131 0.43923 1.04537
 C99 C 0.54035 0.62934 1.04236
 C100 C 0.56428 0.53410 0.86129
 C101 C 1.31029 0.39629 0.39511
 C102 C 1.28507 0.44803 0.38191
 C103 C 1.23144 0.46801 0.41412
 C104 C 1.18825 0.42953 0.43262
 H105 H 1.30338 0.47663 0.34729
 H106 H 1.22503 0.51548 0.41785
 H107 H 1.29295 0.37150 0.43305
 H108 H 1.19166 0.38256 0.42323
 C109 C 0.19343 0.62236 0.88442
 C110 C 0.22376 0.57631 0.86212
 C111 C 0.28211 0.55527 0.88227
 C112 C 0.30711 0.57013 0.93261
 H113 H 0.20624 0.55269 0.82541
 H114 H 0.30478 0.52429 0.85391
 H115 H 0.21124 0.64622 0.92084
 H116 H 0.28447 0.59922 0.96278
 C117 C -0.32734 0.88914 0.09797
 C118 C -0.28910 0.85780 0.06469
 C119 C -0.23018 0.88129 0.04342
 C120 C -0.19718 0.91908 0.07419
 H121 H -0.30083 0.81324 0.05135
 H122 H -0.21206 0.86367 0.00306
 H123 H -0.31517 0.93430 0.10932
 H124 H -0.21358 0.93348 0.11649
 C125 C 0.81644 0.09728 0.62833
 C126 C 0.77296 0.12421 0.60042
 C127 C 0.72111 0.08962 0.58120
 C128 C 0.68214 0.11363 0.54563
 H129 H 0.77364 0.17219 0.59489
 H130 H 0.71419 0.04423 0.59712
 H131 H 0.81434 0.04920 0.63318
 H132 H 0.69070 0.15778 0.52719
 C133 C 0.37929 0.31459 0.38214
 C134 C 0.43202 0.29273 0.36501
 C135 C 0.45449 0.23541 0.38650
 C136 C 0.41976 0.19279 0.41231
 H137 H 0.46140 0.31864 0.33574
 H138 H 0.50180 0.22823 0.37999
 H139 H 0.35256 0.29108 0.41538
 H140 H 0.37213 0.19790 0.41752
 C141 C 0.88479 0.18609 0.63229
 C142 C 0.90338 0.23106 0.66566
 C143 C 0.92165 0.29085 0.64248
 C144 C 0.94306 0.30106 0.58796
 H145 H 0.90100 0.22558 0.71263
 H146 H 0.91873 0.32751 0.67253
 H147 H 0.88172 0.19307 0.58571
 H148 H 0.94951 0.26427 0.55862
 C149 C 0.10629 0.68828 -0.10786
 C150 C 0.06463 0.72224 -0.13232
 C151 C 0.03695 0.77478 -0.10418
 C152 C 0.06219 0.80541 -0.06128
 H153 H 0.05033 0.71259 -0.17582
 H154 H -0.00291 0.79172 -0.12340
 H155 H 0.11911 0.69725 -0.06374
 H156 H 0.10402 0.79105 -0.04425
 C157 C 0.58878 0.81348 1.09378
 C158 C 0.55241 0.77549 1.12436
 C159 C 0.52868 0.71978 1.10034
 C160 C 0.56019 0.68800 1.06202
 H161 H 0.53997 0.78425 1.16929
 H162 H 0.48707 0.70187 1.11905
 H163 H 0.59918 0.80474 1.04837
 H164 H 0.60403 0.70365 1.04686
 C165 C 0.37692 0.39529 1.30492
 C166 C 0.37984 0.36078 1.25778
 C167 C 0.40405 0.38067 1.20017
 C168 C 0.40511 0.43726 1.18092
 H169 H 0.36787 0.31398 1.26245
 H170 H 0.42080 0.34607 1.17202
 H171 H 0.38924 0.44203 1.30166
 H172 H 0.38508 0.47187 1.20684
 C173 C 0.58446 -0.10736 0.16779
 C174 C 0.61208 -0.08062 0.21131
 C175 C 0.57803 -0.06583 0.26474
 C176 C 0.59966 -0.02785 0.30320
 H177 H 0.66000 -0.07361 0.20967
 H178 H 0.53469 -0.08707 0.27315
 H179 H 0.53639 -0.11347 0.17143
 H180 H 0.64103 -0.00349 0.29334
 C181 C -0.11024 1.10468 -0.29238
 C182 C -0.13813 1.06272 -0.25831
 C183 C -0.11289 1.03662 -0.20528
 C184 C -0.07270 1.06536 -0.17377
 H185 H -0.18193 1.04605 -0.26894
 H186 H -0.13163 0.99436 -0.18955
 H187 H -0.06612 1.12065 -0.28182
 H188 H -0.05677 1.10942 -0.18706
 C189 C 1.11917 0.62126 0.80513
 C190 C 1.06646 0.59313 0.79912
 C191 C 1.04528 0.56737 0.74390
 C192 C 1.07874 0.56276 0.69467
 H193 H 1.03650 0.58895 0.83693
 H194 H 0.99928 0.55174 0.74432
 H195 H 1.15094 0.62568 0.76896
 H196 H 1.12478 0.57780 0.69290
 C197 C 0.68941 0.62629 0.61689
 C198 C 0.72433 0.58899 0.64597
 C199 C 0.77925 0.56231 0.62187
 C200 C 0.80343 0.57413 0.56872
 H201 H 0.71426 0.57896 0.69150
 H202 H 0.80225 0.53326 0.65138
 H203 H 0.69986 0.63791 0.57187
 H204 H 0.78203 0.60311 0.53822
 C205 C 0.80151 0.37733 1.12210
 C206 C 0.78500 0.43413 1.11646
 C207 C 0.73267 0.45301 1.08324
 C208 C 0.68529 0.41749 1.07338
 H209 H 0.81262 0.46910 1.13420
 H210 H 0.73182 0.49939 1.06982
 H211 H 0.77750 0.34299 1.09924
 H212 H 0.68345 0.37235 1.09050
 C213 C 0.31349 1.11171 -0.10713
 C214 C 0.29213 1.05562 -0.10673
 C215 C 0.23811 1.03651 -0.07243
 C216 C 0.19422 1.07381 -0.05833
 H217 H 0.31554 1.02196 -0.13115
 H218 H 0.23225 0.98932 -0.06308
 H219 H 0.29329 1.14379 -0.07820
 H220 H 0.19714 1.12006 -0.07212
 C221 C 0.15930 -0.08458 0.40636
 C222 C 0.21144 -0.10985 0.41669
 C223 C 0.26287 -0.07491 0.43721
 C224 C 0.31751 -0.09765 0.43501
 H225 H 0.21715 -0.15647 0.40677
 H226 H 0.25638 -0.02986 0.45214
 H227 H 0.15488 -0.03707 0.41209
 H228 H 0.32355 -0.14194 0.41788
 C229 C 0.62275 -0.28796 0.62045
 C230 C 0.58985 -0.24848 0.64988
 C231 C 0.57371 -0.19031 0.62489
 C232 C 0.56510 -0.18128 0.56794
 H233 H 0.57694 -0.25671 0.69507
 H234 H 0.56560 -0.15466 0.65526
 H235 H 0.63905 -0.27648 0.57672
 H236 H 0.56825 -0.21790 0.53788
 C237 C 1.09261 0.82513 0.40458
 C238 C 1.04371 0.79591 0.38642
 C239 C 1.02318 0.73642 0.40828
 C240 C 1.05847 0.69823 0.43524
 H241 H 1.01589 0.81672 0.35464
 H242 H 0.97780 0.72294 0.39929
 H243 H 1.11734 0.80689 0.44013
 H244 H 1.10452 0.71016 0.44265
 C245 C -0.11539 1.30868 0.13185
 C246 C -0.14017 1.25441 0.14023
 C247 C -0.11132 1.19813 0.12388
 C248 C -0.06648 1.19410 0.08417
 H249 H -0.18338 1.25072 0.16251
 H250 H -0.13089 1.15775 0.14324
 H251 H -0.07046 1.31417 0.11390
 H252 H -0.04891 1.23351 0.06150
 C253 C 0.39522 0.18357 0.87772
 C254 C 0.41153 0.22855 0.84125
 C255 C 0.43170 0.28761 0.86171
 C256 C 0.45402 0.29655 0.91448
 H257 H 0.40395 0.22430 0.79512
 H258 H 0.42668 0.32508 0.83219
 H259 H 0.39686 0.18972 0.92433
 H260 H 0.46243 0.25924 0.94315
 C261 C 0.61338 0.63257 0.69866
 C262 C 0.58851 0.57790 0.70045
 C263 C 0.56387 0.55045 0.75488
 C264 C 0.59044 0.55737 0.80587
 H265 H 0.58442 0.55336 0.66042
 H266 H 0.52436 0.52224 0.75224
 H267 H 0.61372 0.65931 0.73756
 H268 H 0.63218 0.58237 0.80743
 C269 C 0.37918 0.10340 0.80310
 C270 C 0.43555 0.10074 0.78255
 C271 C 0.45359 0.07360 0.72657
 C272 C 0.41745 0.06607 0.68154
 H273 H 0.47109 0.11783 0.80891
 H274 H 0.50039 0.06340 0.72121
 H275 H 0.34357 0.08213 0.77977
 H276 H 0.37146 0.07950 0.68470
 C277 C 0.09296 0.90056 0.32361
 C278 C 0.07764 0.95658 0.31183
 C279 C 0.05594 0.97445 0.25429
 C280 C 0.07747 0.95138 0.20460
 H281 H 0.07653 0.98896 0.34633
 H282 H 0.02260 1.00859 0.25300
 H283 H 0.08820 0.86686 0.29063
 H284 H 0.11428 0.92094 0.20556
 C285 C 0.87233 0.39008 0.20488
 C286 C 0.91953 0.37202 0.23480
 C287 C 0.93782 0.39429 0.29209
 C288 C 0.91916 0.44413 0.31796
 H289 H 0.94582 0.33571 0.21841
 H290 H 0.97045 0.36746 0.31355
 H291 H 0.84496 0.42511 0.22227
 H292 H 0.88867 0.47334 0.29656
   
