data_POSCAR
  _audit_creation_date              2014-09-24
  _audit_creation_method            'ToBaCCo'
  _symmetry_space_group_name_H-M    'P1'
  _symmetry_Int_Tables_number       1
  _symmetry_cell_setting            triclinic
  loop_
  _symmetry_equiv_pos_as_xyz
 x,y,z
_cell_length_a 23.7892
_cell_length_b 23.7930
_cell_length_c 23.8432
_cell_angle_alpha 90.117300
_cell_angle_beta 90.128900
_cell_angle_gamma 89.997500
loop_
  _atom_site_label
  _atom_site_type_symbol
  _atom_site_fract_x
  _atom_site_fract_y
  _atom_site_fract_z
O1 O 0.44467 1.04685 -0.55148
 O2 O 0.55808 1.04629 -0.44642
 O3 O 0.55402 1.04557 -0.55550
 O4 O 0.44858 1.04546 -0.44239
 O5 O 0.44564 0.95283 -0.44582
 O6 O 0.55662 0.95291 -0.55289
 O7 O 0.55501 0.95378 -0.44363
 O8 O 0.44719 0.95421 -0.55487
 Cu9 Cu 0.50137 1.05534 -0.49888
 Cu10 Cu 0.50113 0.94414 -0.49935
 C11 C 0.42697 1.00069 -0.57166
 C12 C 0.57562 1.00004 -0.42637
 C13 C 0.57383 0.99916 -0.57306
 C14 C 0.42851 0.99904 -0.42533
 O15 O -0.55728 1.44522 -0.04569
 O16 O -0.44859 1.55564 -0.04626
 O17 O -0.44739 1.44618 -0.04806
 O18 O -0.55798 1.55410 -0.04615
 O19 O -0.55519 1.55547 0.04622
 O20 O -0.44739 1.44415 0.04445
 O21 O -0.44564 1.55327 0.04620
 O22 O -0.55628 1.44537 0.04672
 Cu23 Cu -0.50289 1.50027 -0.05580
 Cu24 Cu -0.50113 1.49960 0.05516
 C25 C -0.57561 1.42640 0.00069
 C26 C -0.42825 1.57304 -0.00004
 C27 C -0.42866 1.42645 -0.00222
 C28 C -0.57540 1.57371 0.00027
 O29 O 0.04682 0.44639 0.44616
 O30 O 0.04730 0.55588 0.55520
 O31 O 0.04607 0.44603 0.55503
 O32 O 0.04565 0.55606 0.44636
 O33 O -0.04711 0.55583 0.44659
 O34 O -0.04668 0.44635 0.55518
 O35 O -0.04532 0.55538 0.55625
 O36 O -0.04593 0.44676 0.44570
 Cu37 Cu 0.05574 0.50109 0.50069
 Cu38 Cu -0.05554 0.50112 0.50095
 C39 C 0.00046 0.42792 0.42714
 C40 C 0.00118 0.57441 0.57467
 C41 C -0.00034 0.42739 0.57367
 C42 C -0.00090 0.57466 0.42783
 O43 O -0.14393 1.00030 -0.07720
 O44 O 0.14535 0.99871 -0.07460
 O45 O -0.00006 1.07478 -0.14508
 O46 O 0.00368 0.92275 -0.14389
 O47 O 0.00160 0.85471 -0.07510
 O48 O -0.00246 1.14382 -0.07710
 O49 O 0.07730 0.99679 -0.14362
 O50 O -0.07493 1.00119 -0.14507
 Zr51 Zr 0.00088 0.99921 -0.09882
 O52 O 0.05164 0.94870 -0.05026
 O53 O -0.05079 1.05041 -0.05191
 C54 C -0.12704 1.00133 -0.12893
 C55 C 0.12921 0.99695 -0.12664
 C56 C -0.00200 1.12689 -0.12890
 C57 C 0.00351 0.87088 -0.12704
 H58 H 0.07513 1.07438 -0.07449
 O59 O 0.05104 1.05051 -0.05063
 H60 H -0.07393 0.92459 -0.07498
 O61 O -0.05014 0.94879 -0.05095
 O62 O 0.14431 1.00218 0.07686
 O63 O -0.14484 0.99867 0.07460
 O64 O 0.07543 1.14498 0.00045
 O65 O 0.07644 0.85568 -0.00124
 O66 O -0.07574 0.85531 0.00236
 O67 O -0.07659 1.14426 -0.00414
 O68 O 0.00147 1.07730 0.14350
 O69 O -0.00150 0.92527 0.14462
 O70 O 0.00040 1.14532 0.07470
 O71 O -0.00231 0.85614 0.07665
 O72 O 0.14424 1.07668 0.00354
 O73 O -0.14480 1.07543 -0.00317
 O74 O -0.14435 0.92373 0.00043
 O75 O 0.14491 0.92438 0.00038
 O76 O 0.07543 1.00362 0.14471
 O77 O -0.07660 0.99859 0.14348
 Zr78 Zr 0.09896 1.00034 0.00077
 Zr79 Zr -0.09870 0.99972 -0.00095
 Zr80 Zr -0.00036 1.09888 -0.00089
 Zr81 Zr 0.00024 0.90116 0.00043
 Zr82 Zr -0.00034 1.00086 0.09844
 O83 O -0.05108 0.94929 0.05070
 O84 O 0.05065 1.05173 0.05081
 C85 C 0.12754 1.00371 0.12860
 C86 C -0.12853 0.99788 0.12661
 C87 C 0.12745 1.12862 0.00278
 C88 C 0.12841 0.87237 -0.00094
 C89 C -0.12778 0.87178 0.00201
 C90 C -0.12852 1.12748 -0.00462
 C91 C 0.00164 1.12918 0.12670
 C92 C -0.00275 0.87314 0.12845
 H93 H -0.07527 1.07511 0.07340
 O94 O -0.05107 1.05102 0.04976
 H95 H 0.07452 0.92600 0.07542
 O96 O 0.05065 0.94979 0.05116
 C97 C 0.29842 1.00251 0.30129
 C98 C 0.30794 1.05010 0.33489
 C99 C 0.34990 1.04958 0.37600
 C100 C 0.38255 1.00115 0.38488
 C101 C 0.37252 0.95332 0.35166
 C102 C 0.33113 0.95416 0.30997
 C103 C 0.25471 1.00340 0.25703
 C104 C 0.26699 0.98396 0.20280
 C105 C 0.22587 0.98482 0.16091
 C106 C 0.17136 1.00435 0.17266
 C107 C 0.15906 1.02363 0.22703
 C108 C 0.20049 1.02358 0.26870
 H109 H 0.35656 1.08701 0.40107
 H110 H 0.39708 0.91545 0.35747
 H111 H 0.23656 0.96942 0.11951
 H112 H 0.11750 1.03906 0.23729
 H113 H 0.32425 0.91680 0.28484
 H114 H 0.30863 0.96862 0.19270
 H115 H 0.28349 1.08800 0.32870
 H116 H 0.18997 1.03849 0.31032
 C117 C -0.29984 0.99790 0.29817
 C118 C -0.30911 0.95004 0.33123
 C119 C -0.35042 0.95036 0.37280
 C120 C -0.38271 0.99884 0.38268
 C121 C -0.37313 1.04685 0.34983
 C122 C -0.33237 1.04624 0.30768
 C123 C -0.25616 0.99744 0.25405
 C124 C -0.26823 1.01760 0.20003
 C125 C -0.22699 1.01703 0.15837
 C126 C -0.17261 0.99712 0.17021
 C127 C -0.16054 0.97716 0.22436
 C128 C -0.20205 0.97693 0.26574
 H129 H -0.35677 0.91276 0.39751
 H130 H -0.39746 1.08477 0.35639
 H131 H -0.23744 1.03295 0.11711
 H132 H -0.11909 0.96135 0.23466
 H133 H -0.32568 1.08379 0.28298
 H134 H -0.30978 1.03326 0.18992
 H135 H -0.28482 0.91215 0.32441
 H136 H -0.19164 0.96150 0.30719
 C137 C -0.29774 1.00054 -0.30137
 C138 C -0.31352 1.05067 -0.32789
 C139 C -0.35564 1.05062 -0.36883
 C140 C -0.38217 1.00011 -0.38500
 C141 C -0.36553 0.94978 -0.35866
 C142 C -0.32419 0.95016 -0.31691
 C143 C -0.25398 1.00087 -0.25726
 C144 C -0.26435 0.97574 -0.20510
 C145 C -0.22330 0.97658 -0.16311
 C146 C -0.17073 1.00156 -0.17298
 C147 C -0.16020 1.02626 -0.22539
 C148 C -0.20172 1.02644 -0.26697
 H149 H -0.36702 1.09026 -0.38804
 H150 H -0.38482 0.91003 -0.36975
 H151 H -0.23237 0.95693 -0.12320
 H152 H -0.12010 1.04600 -0.23396
 H153 H -0.31236 0.91094 -0.29712
 H154 H -0.30450 0.95607 -0.19666
 H155 H -0.29382 1.09006 -0.31625
 H156 H -0.19282 1.04587 -0.30703
 C157 C 0.30126 0.99751 -0.29750
 C158 C 0.31042 0.94991 -0.33114
 C159 C 0.35205 0.95031 -0.37238
 C160 C 0.38478 0.99864 -0.38136
 C161 C 0.37530 1.04642 -0.34794
 C162 C 0.33421 1.04569 -0.30611
 C163 C 0.25736 0.99689 -0.25361
 C164 C 0.26938 1.01623 -0.19923
 C165 C 0.22797 1.01551 -0.15775
 C166 C 0.17346 0.99623 -0.17012
 C167 C 0.16144 0.97709 -0.22466
 C168 C 0.20312 0.97701 -0.26587
 H169 H 0.35829 0.91291 -0.39757
 H170 H 0.39995 1.08421 -0.35382
 H171 H 0.23845 1.03080 -0.11621
 H172 H 0.11988 0.96190 -0.23544
 H173 H 0.32762 1.08305 -0.28093
 H174 H 0.31103 1.03138 -0.18869
 H175 H 0.28580 0.91213 -0.32502
 H176 H 0.19276 0.96221 -0.30762
 C177 C 0.29890 1.30028 0.00223
 C178 C 0.31527 1.32518 -0.04844
 C179 C 0.35712 1.36640 -0.04912
 C180 C 0.38271 1.38451 0.00115
 C181 C 0.36560 1.35964 0.05196
 C182 C 0.32459 1.31759 0.05235
 C183 C 0.25491 1.25643 0.00282
 C184 C 0.26471 1.20474 0.02939
 C185 C 0.22338 1.16297 0.02915
 C186 C 0.17110 1.17270 0.00339
 C187 C 0.16110 1.22477 -0.02249
 C188 C 0.20286 1.26605 -0.02327
 H189 H 0.36893 1.38440 -0.08909
 H190 H 0.38419 1.37218 0.09156
 H191 H 0.23206 1.12327 0.04958
 H192 H 0.12130 1.23323 -0.04296
 H193 H 0.31229 1.29908 0.09194
 H194 H 0.30468 1.19643 0.04958
 H195 H 0.29612 1.31216 -0.08762
 H196 H 0.19438 1.30576 -0.04375
 C197 C 0.29934 0.70012 0.00049
 C198 C 0.31527 0.67394 -0.04973
 C199 C 0.35695 0.63261 -0.04986
 C200 C 0.38295 0.61565 0.00055
 C201 C 0.36631 0.64175 0.05098
 C202 C 0.32538 0.68395 0.05079
 C203 C 0.25558 0.74424 0.00025
 C204 C 0.26570 0.79650 0.02576
 C205 C 0.22464 0.83851 0.02463
 C206 C 0.17232 0.82852 -0.00100
 C207 C 0.16206 0.77600 -0.02603
 C208 C 0.20356 0.73443 -0.02591
 H209 H 0.36835 0.61366 -0.08960
 H210 H 0.38524 0.63008 0.09064
 H211 H 0.23348 0.87851 0.04456
 H212 H 0.12216 0.76730 -0.04623
 H213 H 0.31344 0.70350 0.09007
 H214 H 0.30567 0.80500 0.04590
 H215 H 0.29591 0.68606 -0.08906
 H216 H 0.19484 0.69432 -0.04565
 C217 C -0.29949 0.69989 0.00074
 C218 C -0.33230 0.69073 -0.04747
 C219 C -0.37383 0.64917 -0.04795
 C220 C -0.38390 0.61658 0.00007
 C221 C -0.35122 0.62601 0.04837
 C222 C -0.30914 0.66698 0.04855
 C223 C -0.25550 0.74389 0.00127
 C224 C -0.20144 0.73206 0.02191
 C225 C -0.15982 0.77352 0.02200
 C226 C -0.17176 0.82787 0.00228
 C227 C -0.22606 0.83977 -0.01786
 C228 C -0.26737 0.79806 -0.01874
 H229 H -0.39841 0.64291 -0.08574
 H230 H -0.35790 0.60144 0.08596
 H231 H -0.11842 0.76316 0.03789
 H232 H -0.23644 0.88115 -0.03362
 H233 H -0.28465 0.67356 0.08635
 H234 H -0.19121 0.69047 0.03724
 H235 H -0.32533 0.71534 -0.08499
 H236 H -0.30888 0.80829 -0.03446
 C237 C -0.30073 1.29880 -0.00486
 C238 C -0.31107 1.33170 -0.05260
 C239 C -0.35297 1.37289 -0.05192
 C240 C -0.38468 1.38255 -0.00317
 C241 C -0.37394 1.34991 0.04473
 C242 C -0.33265 1.30815 0.04374
 C243 C -0.25679 1.25477 -0.00567
 C244 C -0.26847 1.20068 0.01461
 C245 C -0.22700 1.15912 0.01420
 C246 C -0.17275 1.17111 -0.00573
 C247 C -0.16105 1.22532 -0.02591
 C248 C -0.20284 1.26663 -0.02630
 H249 H -0.36021 1.39751 -0.08940
 H250 H -0.39778 1.35632 0.08285
 H251 H -0.23719 1.11783 0.03029
 H252 H -0.11969 1.23573 -0.04167
 H253 H -0.32513 1.28358 0.08120
 H254 H -0.30989 1.19045 0.03036
 H255 H -0.28722 1.32499 -0.09067
 H256 H -0.19278 1.30816 -0.04184
 C257 C 0.00145 1.30089 0.29857
 C258 C 0.04963 1.31087 0.33121
 C259 C 0.04937 1.35239 0.37273
 C260 C 0.00063 1.38415 0.38303
 C261 C -0.04772 1.37381 0.35064
 C262 C -0.04716 1.33286 0.30850
 C263 C 0.00191 1.25710 0.25438
 C264 C -0.01870 1.26888 0.20044
 C265 C -0.01808 1.22756 0.15869
 C266 C 0.00232 1.17337 0.17039
 C267 C 0.02273 1.16159 0.22447
 C268 C 0.02293 1.20319 0.26593
 H269 H 0.08722 1.35933 0.39710
 H270 H -0.08583 1.39773 0.35753
 H271 H -0.03432 1.23780 0.11749
 H272 H 0.03890 1.12030 0.23467
 H273 H -0.08495 1.32562 0.28411
 H274 H -0.03475 1.31028 0.19046
 H275 H 0.08772 1.28700 0.32406
 H276 H 0.03873 1.19302 0.30732
 C277 C -0.00157 1.29879 -0.29988
 C278 C 0.04706 1.30868 -0.33165
 C279 C 0.04771 1.35085 -0.37241
 C280 C -0.00058 1.38328 -0.38275
 C281 C -0.04933 1.37302 -0.35118
 C282 C -0.04967 1.33148 -0.30985
 C283 C -0.00213 1.25459 -0.25628
 C284 C -0.02303 1.26629 -0.20249
 C285 C -0.02291 1.22483 -0.16107
 C286 C -0.00270 1.17057 -0.17293
 C287 C 0.01756 1.15873 -0.22702
 C288 C 0.01826 1.20049 -0.26816
 H289 H 0.08582 1.35771 -0.39619
 H290 H -0.08713 1.39743 -0.35812
 H291 H -0.03895 1.23516 -0.11985
 H292 H 0.03364 1.11740 -0.23734
 H293 H -0.08777 1.32436 -0.28612
 H294 H -0.03866 1.30781 -0.19226
 H295 H 0.08479 1.28425 -0.32441
 H296 H 0.03420 1.19040 -0.30949
 C297 C 0.00305 0.69942 -0.29872
 C298 C -0.04774 0.67432 -0.31517
 C299 C -0.04856 0.63350 -0.35742
 C300 C 0.00171 0.61599 -0.38333
 C301 C 0.05264 0.64104 -0.36611
 C302 C 0.05315 0.68270 -0.32471
 C303 C 0.00377 0.74308 -0.25453
 C304 C 0.02991 0.79505 -0.26420
 C305 C 0.02966 0.83674 -0.22281
 C306 C 0.00435 0.82669 -0.17059
 C307 C -0.02100 0.77430 -0.16067
 C308 C -0.02181 0.73308 -0.20251
 H309 H -0.08862 0.61532 -0.36928
 H310 H 0.09226 0.62896 -0.38493
 H311 H 0.04967 0.87667 -0.23145
 H312 H -0.04111 0.76558 -0.12090
 H313 H 0.09283 0.70139 -0.31239
 H314 H 0.04970 0.80366 -0.30414
 H315 H -0.08693 0.68691 -0.29579
 H316 H -0.04194 0.69315 -0.19413
 C317 C -0.00262 0.70220 0.30033
 C318 C -0.05069 0.66960 0.31049
 C319 C -0.05024 0.62845 0.35223
 C320 C -0.00140 0.61850 0.38398
 C321 C 0.04685 0.65084 0.37343
 C322 C 0.04609 0.69261 0.33229
 C323 C -0.00327 0.74612 0.25646
 C324 C 0.01708 0.80028 0.26816
 C325 C 0.01650 0.84178 0.22679
 C326 C -0.00359 0.82962 0.17261
 C327 C -0.02380 0.77532 0.16090
 C328 C -0.02406 0.73410 0.20259
 H329 H -0.08800 0.60407 0.35932
 H330 H 0.08504 0.64419 0.39733
 H331 H 0.03257 0.88315 0.23699
 H332 H -0.03974 0.76480 0.11962
 H333 H 0.08379 0.71699 0.32491
 H334 H 0.03293 0.81062 0.30954
 H335 H -0.08885 0.67650 0.28661
 H336 H -0.03968 0.69252 0.19252
   
