data_POSCAR
  _audit_creation_date              2014-09-24
  _audit_creation_method            'ToBaCCo'
  _symmetry_space_group_name_H-M    'P1'
  _symmetry_Int_Tables_number       1
  _symmetry_cell_setting            triclinic
  loop_
  _symmetry_equiv_pos_as_xyz
 x,y,z
_cell_length_a 26.9723
_cell_length_b 26.1574
_cell_length_c 28.4106
_cell_angle_alpha 89.632200
_cell_angle_beta 90.595100
_cell_angle_gamma 90.175400
loop_
  _atom_site_label
  _atom_site_type_symbol
  _atom_site_fract_x
  _atom_site_fract_y
  _atom_site_fract_z
C1 C 1.24430 0.25585 0.24804
 C2 C 0.74587 -0.24734 0.24979
 C3 C 0.74680 0.25708 -0.24945
 C4 C 1.25296 -0.24788 -0.24766
 C5 C 0.24586 0.24357 0.75432
 C6 C 0.74615 0.74783 0.74691
 C7 C 0.75897 0.24217 0.24667
 C8 C 0.25620 0.74612 0.25171
 O9 O 1.06484 0.04762 0.06146
 O10 O 0.90134 -0.05454 0.01858
 O11 O 0.97376 0.07436 0.05357
 O12 O 1.05344 -0.10810 0.03979
 O13 O 0.90654 0.03779 0.03196
 O14 O 1.07227 -0.03828 0.07308
 O15 O 0.96140 -0.10004 0.05074
 O16 O 1.05030 0.10728 0.01446
 C17 C 1.07105 0.09302 0.05126
 C18 C 0.91720 -0.08571 0.04980
 C19 C 0.92941 0.06536 0.06056
 C20 C 1.07107 -0.08522 0.07396
 O21 O 1.10212 -0.05327 -0.01869
 O22 O 0.93424 0.05316 -0.05935
 O23 O 1.02524 0.06696 -0.06392
 O24 O 0.94969 -0.10634 -0.03935
 O25 O 0.93116 -0.03578 -0.07287
 O26 O 1.09394 0.03930 -0.03212
 O27 O 1.04279 -0.10124 -0.04936
 O28 O 0.96187 0.12174 -0.02471
 Co29 Co 1.07722 -0.00156 0.01915
 Co30 Co 0.92545 -0.00072 -0.01841
 Co31 Co 0.99789 0.06720 -0.00535
 Co32 Co 1.00173 -0.09477 0.00051
 O33 O 1.00264 -0.01031 0.00060
 C34 C 1.08691 -0.08597 -0.04848
 C35 C 0.92998 0.10088 -0.05322
 C36 C 1.07111 0.06031 -0.06625
 C37 C 0.93241 -0.08283 -0.07379
 O38 O 1.09595 0.56085 0.53251
 O39 O 0.90788 0.44375 0.53564
 O40 O 0.94387 0.60009 0.52914
 O41 O 1.05965 0.40447 0.53490
 O42 O 0.91653 0.53037 0.55730
 O43 O 1.08622 0.47550 0.56012
 O44 O 0.97691 0.41584 0.56198
 O45 O 1.02777 0.59120 0.55691
 C46 C 1.07289 0.58595 0.56227
 C47 C 0.93197 0.42132 0.56725
 C48 C 0.92142 0.57693 0.56086
 C49 C 1.08178 0.42907 0.56607
 O50 O 1.09467 0.44213 0.46897
 O51 O 0.90697 0.55880 0.46460
 O52 O 1.05898 0.59860 0.46652
 O53 O 0.94321 0.40230 0.47236
 O54 O 0.91639 0.47149 0.44260
 O55 O 1.08592 0.52758 0.44192
 O56 O 1.02566 0.41290 0.44433
 O57 O 0.97550 0.58825 0.43942
 Co58 Co 1.08203 0.50143 0.50090
 Co59 Co 0.92065 0.50111 0.50001
 Co60 Co 1.00151 0.58526 0.49830
 Co61 Co 1.00142 0.41815 0.50310
 O62 O 1.00139 0.50154 0.50058
 C63 C 1.07032 0.41932 0.43803
 C64 C 0.93043 0.58292 0.43392
 C65 C 1.08138 0.57399 0.43609
 C66 C 0.92057 0.42473 0.43998
 O67 O 0.59153 0.06285 0.53428
 O68 O 0.40228 -0.05734 0.52585
 O69 O 0.43949 0.09954 0.53262
 O70 O 0.55409 -0.09350 0.53185
 O71 O 0.41064 0.02753 0.55487
 O72 O 0.58094 -0.02356 0.55980
 O73 O 0.47001 -0.08480 0.55473
 O74 O 0.52295 0.09034 0.55955
 C75 C 0.56792 0.08490 0.56550
 C76 C 0.42472 -0.08051 0.55788
 C77 C 0.41559 0.07374 0.56185
 C78 C 0.57514 -0.06999 0.56434
 O79 O 0.59359 -0.05428 0.46889
 O80 O 0.40337 0.06346 0.46545
 O81 O 0.55490 0.10249 0.46880
 O82 O 0.44233 -0.09241 0.46225
 O83 O 0.41467 -0.02157 0.43634
 O84 O 0.58427 0.03237 0.44351
 O85 O 0.52585 -0.08121 0.43974
 O86 O 0.47163 0.09348 0.44127
 Co87 Co 0.57863 0.00420 0.50139
 Co88 Co 0.41666 0.00306 0.49583
 Co89 Co 0.49726 0.08744 0.50037
 Co90 Co 0.49805 -0.07905 0.49733
 O91 O 0.49766 0.00395 0.49872
 C92 C 0.57105 -0.07643 0.43640
 C93 C 0.42678 0.08734 0.43490
 C94 C 0.57953 0.07899 0.43894
 C95 C 0.42115 -0.06770 0.43042
 O96 O 0.59038 0.52186 0.05783
 O97 O 0.42090 0.47119 0.06495
 O98 O 0.47667 0.58276 0.06255
 O99 O 0.53561 0.40923 0.05561
 O100 O 0.40740 0.55692 0.03684
 O101 O 0.60053 0.43788 0.02384
 O102 O 0.45006 0.40099 0.03894
 O103 O 0.55846 0.59314 0.03692
 C104 C 0.58233 0.56732 0.06643
 C105 C 0.42871 0.42513 0.07068
 C106 C 0.43171 0.57912 0.06793
 C107 C 0.58107 0.41297 0.05605
 O108 O 0.58332 0.47751 -0.06216
 O109 O 0.41247 0.52319 -0.05253
 O110 O 0.52545 0.58695 -0.05547
 O111 O 0.46944 0.41221 -0.05599
 O112 O 0.40409 0.43687 -0.02304
 O113 O 0.59495 0.56160 -0.03014
 O114 O 0.55490 0.40506 -0.03948
 O115 O 0.44337 0.59401 -0.02913
 Co116 Co 0.58308 0.49961 -0.00212
 Co117 Co 0.42051 0.49719 0.00604
 Co118 Co 0.50108 0.58071 0.00352
 Co119 Co 0.50241 0.41541 -0.00002
 O120 O 0.50176 0.49820 0.00184
 C121 C 0.57569 0.43181 -0.07012
 C122 C 0.41841 0.56953 -0.05863
 C123 C 0.57041 0.58374 -0.06124
 C124 C 0.42399 0.41548 -0.05682
 C125 C 1.14725 0.17673 0.14813
 C126 C 1.15430 0.22946 0.14521
 C127 C 1.18409 0.25415 0.17844
 C128 C 1.20894 0.22644 0.21454
 C129 C 1.19826 0.17382 0.21910
 C130 C 1.16829 0.14913 0.18570
 C131 C 1.11928 0.15058 0.11221
 C132 C 1.09676 0.12636 0.08305
 H133 H 1.13743 0.25141 0.11685
 H134 H 1.18942 0.29505 0.17499
 H135 H 1.21286 0.15144 0.24815
 H136 H 1.16187 0.10836 0.18896
 C137 C 1.15553 0.66768 0.65615
 C138 C 1.20623 0.65717 0.65868
 C139 C 1.23699 0.68505 0.68891
 C140 C 1.21750 0.72303 0.71859
 C141 C 1.16669 0.73539 0.71312
 C142 C 1.13598 0.70740 0.68277
 C143 C 1.12425 0.63876 0.62477
 C144 C 1.09964 0.61442 0.59722
 H145 H 1.22207 0.62738 0.63724
 H146 H 1.27617 0.67614 0.69006
 H147 H 1.15030 0.76693 0.73168
 H148 H 1.09702 0.71703 0.67982
 C149 C 0.64750 0.16313 0.66409
 C150 C 0.65368 0.21521 0.65501
 C151 C 0.68533 0.24433 0.68315
 C152 C 0.71282 0.22194 0.72056
 C153 C 0.70400 0.16976 0.73094
 C154 C 0.67220 0.14051 0.70243
 C155 C 0.61754 0.13328 0.63224
 C156 C 0.59380 0.11032 0.60302
 H157 H 0.63442 0.23331 0.62571
 H158 H 0.68924 0.28469 0.67520
 H159 H 0.72086 0.15130 0.76118
 H160 H 0.66699 0.10026 0.71023
 C161 C 0.64946 0.64952 0.17004
 C162 C 0.64613 0.70244 0.16416
 C163 C 0.67517 0.73487 0.19183
 C164 C 0.70968 0.71503 0.22493
 C165 C 0.70825 0.66178 0.23410
 C166 C 0.67922 0.62928 0.20610
 C167 C 0.62512 0.61679 0.13647
 C168 C 0.60547 0.59232 0.10568
 H169 H 0.62246 0.71866 0.13690
 H170 H 0.67304 0.77566 0.18538
 H171 H 0.72984 0.64458 0.26217
 H172 H 0.68092 0.58834 0.21188
 C173 C 0.83122 -0.15810 0.14707
 C174 C 0.80553 -0.20177 0.13275
 C175 C 0.77925 -0.23105 0.16532
 C176 C 0.77628 -0.21632 0.21313
 C177 C 0.80572 -0.17431 0.22757
 C178 C 0.83214 -0.14497 0.19477
 C179 C 0.85931 -0.12939 0.11292
 C180 C 0.88426 -0.10787 0.08379
 H181 H 0.80634 -0.21371 0.09631
 H182 H 0.76193 -0.26561 0.15249
 H183 H 0.80726 -0.16353 0.26430
 H184 H 0.85345 -0.11225 0.20666
 C185 C 0.85297 0.34081 0.66367
 C186 C 0.84564 0.35491 0.71044
 C187 C 0.81257 0.32716 0.73844
 C188 C 0.78452 0.28622 0.71952
 C189 C 0.79588 0.27015 0.67343
 C190 C 0.82898 0.29771 0.64570
 C191 C 0.88332 0.37103 0.63284
 C192 C 0.90666 0.39493 0.60423
 H193 H 0.86489 0.38767 0.72507
 H194 H 0.80758 0.33869 0.77461
 H195 H 0.77940 0.23626 0.65826
 H196 H 0.83548 0.28561 0.60988
 C197 C 0.34415 -0.15918 0.65482
 C198 C 0.29446 -0.14653 0.66171
 C199 C 0.26562 -0.17521 0.69285
 C200 C 0.28632 -0.21618 0.71901
 C201 C 0.33589 -0.23001 0.70937
 C202 C 0.36458 -0.20130 0.67824
 C203 C 0.37357 -0.13061 0.62192
 C204 C 0.39766 -0.10737 0.59342
 H205 H 0.27784 -0.11478 0.64270
 H206 H 0.22701 -0.16513 0.69703
 H207 H 0.35274 -0.26364 0.72485
 H208 H 0.40256 -0.21249 0.67189
 C209 C 0.35290 0.34266 0.16714
 C210 C 0.34379 0.35584 0.21387
 C211 C 0.30981 0.32733 0.24025
 C212 C 0.28248 0.28699 0.21943
 C213 C 0.29594 0.27178 0.17361
 C214 C 0.32996 0.29986 0.14763
 C215 C 0.38312 0.37385 0.13725
 C216 C 0.40555 0.39821 0.10842
 H217 H 0.36232 0.38839 0.22965
 H218 H 0.30379 0.33766 0.27657
 H219 H 0.28017 0.23814 0.15728
 H220 H 0.33780 0.28854 0.11184
 C221 C 0.84448 0.17985 -0.14766
 C222 C 0.84147 0.16300 -0.19426
 C223 C 0.81005 0.18766 -0.22665
 C224 C 0.77958 0.22857 -0.21268
 C225 C 0.78560 0.24670 -0.16602
 C226 C 0.81694 0.22208 -0.13387
 C227 C 0.87543 0.15373 -0.11373
 C228 C 0.90063 0.13080 -0.08544
 H229 H 0.86345 0.13084 -0.20561
 H230 H 0.80919 0.17457 -0.26273
 H231 H 0.76696 0.28064 -0.15400
 H232 H 0.81991 0.23628 -0.09820
 C233 C 0.85253 0.66858 0.33815
 C234 C 0.84788 0.65775 0.29014
 C235 C 0.81558 0.68655 0.26159
 C236 C 0.78540 0.72510 0.28096
 C237 C 0.79480 0.73877 0.32836
 C238 C 0.82715 0.71020 0.35669
 C239 C 0.88177 0.63664 0.36930
 C240 C 0.90461 0.61115 0.39767
 H241 H 0.86836 0.62645 0.27497
 H242 H 0.81215 0.67698 0.22468
 H243 H 0.77701 0.77120 0.34429
 H244 H 0.83175 0.72017 0.39344
 C245 C 0.34427 0.16572 0.33801
 C246 C 0.31958 0.20790 0.35611
 C247 C 0.28723 0.23616 0.32773
 C248 C 0.27715 0.22194 0.28057
 C249 C 0.30469 0.18085 0.26211
 C250 C 0.33718 0.15241 0.29079
 C251 C 0.37608 0.13647 0.36894
 C252 C 0.40064 0.11348 0.39772
 H253 H 0.32565 0.21933 0.39232
 H254 H 0.27104 0.26989 0.34298
 H255 H 0.30107 0.17075 0.22535
 H256 H 0.35688 0.12032 0.27609
 C257 C 0.33959 0.65249 -0.15446
 C258 C 0.35074 0.70448 -0.15831
 C259 C 0.32261 0.73581 -0.18803
 C260 C 0.28357 0.71554 -0.21581
 C261 C 0.27121 0.66334 -0.20937
 C262 C 0.29947 0.63208 -0.17952
 C263 C 0.36772 0.62101 -0.12255
 C264 C 0.39116 0.59631 -0.09434
 H265 H 0.38095 0.72095 -0.13798
 H266 H 0.33167 0.77613 -0.18991
 H267 H 0.23920 0.64639 -0.22635
 H268 H 0.28950 0.59215 -0.17543
 C269 C 1.17454 -0.15834 -0.14249
 C270 C 1.21212 -0.13508 -0.16855
 C271 C 1.23764 -0.16301 -0.20241
 C272 C 1.22485 -0.21450 -0.21194
 C273 C 1.18854 -0.23778 -0.18331
 C274 C 1.16325 -0.20986 -0.14958
 C275 C 1.14657 -0.12983 -0.10884
 C276 C 1.12072 -0.10830 -0.08095
 H277 H 1.22191 -0.09543 -0.16255
 H278 H 1.26786 -0.14412 -0.22018
 H279 H 1.17936 -0.27782 -0.18758
 H280 H 1.13470 -0.22852 -0.12907
 C281 C 1.14420 0.34433 0.33542
 C282 C 1.17047 0.36940 0.29987
 C283 C 1.20150 0.34167 0.27028
 C284 C 1.20825 0.28855 0.27715
 C285 C 1.17795 0.26359 0.31051
 C286 C 1.14699 0.29126 0.33981
 C287 C 1.11665 0.37268 0.36943
 C288 C 1.09483 0.39476 0.39992
 H289 H 1.16754 0.41046 0.29543
 H290 H 1.22006 0.36216 0.24240
 H291 H 1.17990 0.22250 0.31513
 H292 H 1.12614 0.27131 0.36671
 C293 C 0.64866 -0.15572 0.33845
 C294 C 0.67137 -0.13263 0.29970
 C295 C 0.70158 -0.16139 0.27010
 C296 C 0.71111 -0.21363 0.27976
 C297 C 0.68465 -0.23684 0.31698
 C298 C 0.65454 -0.20810 0.34636
 C299 C 0.62044 -0.12592 0.37115
 C300 C 0.59756 -0.10245 0.40015
 H301 H 0.66598 -0.09231 0.29246
 H302 H 0.71686 -0.14227 0.23974
 H303 H 0.68877 -0.27731 0.32425
 H304 H 0.63642 -0.22669 0.37575
 C305 C 0.64406 0.35340 -0.17297
 C306 C 0.67191 0.37535 -0.20909
 C307 C 0.70355 0.34490 -0.23564
 C308 C 0.70934 0.29237 -0.22488
 C309 C 0.67728 0.27044 -0.19125
 C310 C 0.64560 0.30074 -0.16516
 C311 C 0.61778 0.38454 -0.14037
 C312 C 0.59758 0.40778 -0.10973
 H313 H 0.67009 0.41609 -0.21599
 H314 H 0.72357 0.36303 -0.26395
 H315 H 0.67872 0.22985 -0.18357
 H316 H 0.62370 0.28329 -0.13757
 C317 C 1.15649 0.13659 -0.16165
 C318 C 1.19780 0.16068 -0.14152
 C319 C 1.22706 0.19391 -0.16819
 C320 C 1.21472 0.20558 -0.21560
 C321 C 1.17546 0.17734 -0.23644
 C322 C 1.14598 0.14415 -0.20953
 C323 C 1.12447 0.10621 -0.13190
 C324 C 1.09910 0.08348 -0.10375
 H325 H 1.20727 0.15413 -0.10481
 H326 H 1.25941 0.21011 -0.15116
 H327 H 1.16665 0.18229 -0.27345
 H328 H 1.11470 0.12496 -0.22593
 C329 C 1.16141 0.65533 0.34091
 C330 C 1.18248 0.70039 0.35798
 C331 C 1.21299 0.73010 0.32940
 C332 C 1.22521 0.71438 0.28318
 C333 C 1.19999 0.67057 0.26559
 C334 C 1.16947 0.64086 0.29443
 C335 C 1.13172 0.62444 0.37177
 C336 C 1.10803 0.60028 0.39992
 H337 H 1.17513 0.71282 0.39355
 H338 H 1.22649 0.76574 0.34384
 H339 H 1.20455 0.65880 0.22943
 H340 H 1.15218 0.60667 0.28043
 C341 C 0.66416 0.15764 0.34468
 C342 C 0.64361 0.19595 0.31624
 C343 C 0.67339 0.22345 0.28504
 C344 C 0.72442 0.21205 0.28036
 C345 C 0.74495 0.17535 0.31162
 C346 C 0.71503 0.14788 0.34280
 C347 C 0.63334 0.12958 0.37696
 C348 C 0.60809 0.10633 0.40463
 H349 H 0.60454 0.20504 0.31854
 H350 H 0.65607 0.25423 0.26549
 H351 H 0.78433 0.16744 0.31131
 H352 H 0.73166 0.11918 0.36559
 C353 C 0.64537 0.66106 -0.16303
 C354 C 0.65261 0.71341 -0.15666
 C355 C 0.68410 0.74058 -0.18635
 C356 C 0.71047 0.71574 -0.22234
 C357 C 0.69974 0.66357 -0.23051
 C358 C 0.66817 0.63635 -0.20055
 C359 C 0.61683 0.63268 -0.12925
 C360 C 0.59459 0.60994 -0.09906
 H361 H 0.63464 0.73313 -0.12810
 H362 H 0.68925 0.78109 -0.18032
 H363 H 0.71535 0.64341 -0.25989
 H364 H 0.66194 0.59594 -0.20637
 C365 C 0.85380 -0.16682 -0.16832
 C366 C 0.84733 -0.15527 -0.21606
 C367 C 0.81385 -0.18372 -0.24330
 C368 C 0.78455 -0.22270 -0.22275
 C369 C 0.79509 -0.23649 -0.17549
 C370 C 0.82862 -0.20824 -0.14850
 C371 C 0.88427 -0.13543 -0.13842
 C372 C 0.90752 -0.11041 -0.11041
 H373 H 0.86748 -0.12387 -0.23204
 H374 H 0.80942 -0.17410 -0.28022
 H375 H 0.77755 -0.26902 -0.15887
 H376 H 0.83445 -0.21840 -0.11181
 C377 C 0.84436 0.33877 0.34389
 C378 C 0.86789 0.29857 0.32099
 C379 C 0.84120 0.26712 0.29011
 C380 C 0.79041 0.27619 0.28027
 C381 C 0.76682 0.31519 0.30598
 C382 C 0.79360 0.34655 0.33679
 C383 C 0.87174 0.37043 0.37645
 C384 C 0.89431 0.39603 0.40467
 H385 H 0.90686 0.29106 0.32747
 H386 H 0.86063 0.23528 0.27494
 H387 H 0.72743 0.32184 0.30156
 H388 H 0.77460 0.37668 0.35529
 C389 C 0.35237 -0.15418 0.33130
 C390 C 0.34877 -0.20599 0.34284
 C391 C 0.31894 -0.23838 0.31589
 C392 C 0.28985 -0.21922 0.27786
 C393 C 0.29893 -0.16780 0.26369
 C394 C 0.32873 -0.13544 0.29089
 C395 C 0.37793 -0.12030 0.36289
 C396 C 0.39813 -0.09437 0.39222
 H397 H 0.36808 -0.22120 0.37348
 H398 H 0.31680 -0.27828 0.32610
 H399 H 0.28252 -0.15188 0.23197
 H400 H 0.33266 -0.09563 0.28078
 C401 C 0.33896 0.33979 -0.15429
 C402 C 0.36026 0.31524 -0.19267
 C403 C 0.33100 0.28538 -0.22294
 C404 C 0.27985 0.27784 -0.21444
 C405 C 0.25851 0.30631 -0.17768
 C406 C 0.28781 0.33609 -0.14751
 C407 C 0.36957 0.36763 -0.12111
 C408 C 0.39474 0.38994 -0.09232
 H409 H 0.39963 0.31895 -0.19914
 H410 H 0.34889 0.26873 -0.25298
 H411 H 0.21902 0.30405 -0.17143
 H412 H 0.27058 0.35570 -0.11849
 C413 C 1.14874 -0.17057 0.16860
 C414 C 1.15805 -0.15690 0.21523
 C415 C 1.19171 -0.18509 0.24248
 C416 C 1.21904 -0.22603 0.22287
 C417 C 1.20458 -0.24227 0.17715
 C418 C 1.17082 -0.21413 0.15014
 C419 C 1.11876 -0.13890 0.13841
 C420 C 1.09582 -0.11337 0.11044
 H421 H 1.14005 -0.12393 0.23028
 H422 H 1.19797 -0.17350 0.27857
 H423 H 1.21963 -0.27645 0.16161
 H424 H 1.16252 -0.22599 0.11443
 C425 C 1.15845 0.35068 0.66814
 C426 C 1.20989 0.34773 0.66376
 C427 C 1.23734 0.31498 0.69293
 C428 C 1.21386 0.28283 0.72622
 C429 C 1.16246 0.28993 0.73317
 C430 C 1.13497 0.32276 0.70376
 C431 C 1.12998 0.38000 0.63419
 C432 C 1.10738 0.40316 0.60396
 H433 H 1.22875 0.36975 0.63688
 H434 H 1.27703 0.31280 0.68797
 H435 H 1.14295 0.27014 0.76086
 H436 H 1.09527 0.32572 0.70835
 C437 C 0.64705 -0.15447 0.66393
 C438 C 0.64823 -0.20719 0.65669
 C439 C 0.67898 -0.23801 0.68445
 C440 C 0.71066 -0.21653 0.71901
 C441 C 0.70550 -0.16380 0.72864
 C442 C 0.67472 -0.13297 0.70067
 C443 C 0.62004 -0.12257 0.63144
 C444 C 0.59881 -0.09747 0.60193
 H445 H 0.62631 -0.22436 0.62876
 H446 H 0.67964 -0.27871 0.67773
 H447 H 0.72511 -0.14590 0.75751
 H448 H 0.67308 -0.09226 0.70726
 C449 C 0.66947 0.33042 0.14568
 C450 C 0.66294 0.27762 0.15039
 C451 C 0.69298 0.24964 0.18152
 C452 C 0.72906 0.27415 0.21003
 C453 C 0.73783 0.32679 0.20170
 C454 C 0.70775 0.35466 0.17052
 C455 C 0.63744 0.35964 0.11487
 C456 C 0.61108 0.38412 0.08865
 H457 H 0.63430 0.25809 0.13035
 H458 H 0.68679 0.20886 0.18482
 H459 H 0.76781 0.34697 0.21900
 H460 H 0.71434 0.39526 0.16586
 C461 C 0.85074 0.14490 0.15753
 C462 C 0.81183 0.12307 0.18289
 C463 C 0.78203 0.15351 0.21137
 C464 C 0.79142 0.20654 0.21625
 C465 C 0.82925 0.22814 0.18829
 C466 C 0.85896 0.19762 0.15992
 C467 C 0.87983 0.11421 0.12613
 C468 C 0.90330 0.09039 0.09773
 H469 H 0.80384 0.08259 0.17994
 H470 H 0.75106 0.13518 0.22845
 H471 H 0.83611 0.26895 0.18889
 H472 H 0.88800 0.21534 0.13933
 C473 C 0.84197 0.65848 0.65538
 C474 C 0.83746 0.64550 0.70296
 C475 C 0.80680 0.67428 0.73206
 C476 C 0.77852 0.71544 0.71375
 C477 C 0.78626 0.72966 0.66622
 C478 C 0.81688 0.70098 0.63736
 C479 C 0.87180 0.62848 0.62433
 C480 C 0.89532 0.60443 0.59629
 H481 H 0.85757 0.61321 0.71757
 H482 H 0.80461 0.66405 0.76897
 H483 H 0.76951 0.76348 0.65099
 H484 H 0.82117 0.71221 0.60084
 C485 C 0.33240 0.14718 0.65981
 C486 C 0.29156 0.17424 0.64234
 C487 C 0.26286 0.20376 0.67236
 C488 C 0.27543 0.20864 0.72065
 C489 C 0.31396 0.17714 0.73841
 C490 C 0.34284 0.14764 0.70816
 C491 C 0.36338 0.11981 0.62744
 C492 C 0.38805 0.09829 0.59840
 H493 H 0.28200 0.17284 0.60522
 H494 H 0.23086 0.22267 0.65719
 H495 H 0.32287 0.17694 0.77566
 H496 H 0.37360 0.12574 0.72242
 C497 C 0.35670 0.66001 0.16595
 C498 C 0.33821 0.63801 0.20710
 C499 C 0.30656 0.66584 0.23591
 C500 C 0.29058 0.71575 0.22292
 C501 C 0.31392 0.73862 0.18343
 C502 C 0.34555 0.71074 0.15487
 C503 C 0.38512 0.63021 0.13364
 C504 C 0.40729 0.60621 0.10463
 H505 H 0.34787 0.59912 0.21675
 H506 H 0.29459 0.64773 0.26819
 H507 H 0.30626 0.77792 0.17370
 H508 H 0.36064 0.72860 0.12360
   
