data_POSCAR
  _audit_creation_date              2014-09-24
  _audit_creation_method            'ToBaCCo'
  _symmetry_space_group_name_H-M    'P1'
  _symmetry_Int_Tables_number       1
  _symmetry_cell_setting            triclinic
  loop_
  _symmetry_equiv_pos_as_xyz
 x,y,z
_cell_length_a 28.2942
_cell_length_b 28.2941
_cell_length_c 28.2253
_cell_angle_alpha 89.969500
_cell_angle_beta 90.030400
_cell_angle_gamma 89.818700
loop_
  _atom_site_label
  _atom_site_type_symbol
  _atom_site_fract_x
  _atom_site_fract_y
  _atom_site_fract_z
C1 C 0.21410 0.15114 0.21491
 C2 C 0.19361 0.13123 0.25554
 C3 C 0.15315 0.15171 0.27573
 C4 C 0.13287 0.19217 0.25537
 C5 C 0.15291 0.21250 0.21478
 C6 C 0.19371 0.19197 0.19440
 C7 C 0.25470 0.13107 0.19449
 C8 C 0.27498 0.15140 0.15400
 C9 C 0.25473 0.19187 0.13362
 C10 C 0.21416 0.21235 0.15358
 C11 C 0.19376 0.25297 0.13355
 C12 C 0.15337 0.27327 0.15387
 C13 C 0.13298 0.25311 0.19429
 H14 H 0.20916 0.09992 0.27148
 H15 H 0.10159 0.20788 0.27117
 H16 H 0.27056 0.09976 0.21013
 H17 H 0.27059 0.20746 0.10231
 H18 H 0.20928 0.26888 0.10226
 H19 H 0.10172 0.26914 0.20975
 C20 C -0.21407 0.84891 0.21475
 C21 C -0.19366 0.86878 0.25543
 C22 C -0.15314 0.84839 0.27562
 C23 C -0.13270 0.80808 0.25523
 C24 C -0.15265 0.78779 0.21459
 C25 C -0.19352 0.80822 0.19419
 C26 C -0.25474 0.86888 0.19434
 C27 C -0.27494 0.84859 0.15381
 C28 C -0.25454 0.80826 0.13336
 C29 C -0.21389 0.78787 0.15332
 C30 C -0.19333 0.74738 0.13325
 C31 C -0.15286 0.72720 0.15361
 C32 C -0.13256 0.74732 0.19406
 H33 H -0.20934 0.89999 0.27141
 H34 H -0.10135 0.79245 0.27104
 H35 H -0.27071 0.90008 0.21002
 H36 H -0.27035 0.79270 0.10201
 H37 H -0.20879 0.73148 0.10193
 H38 H -0.10124 0.73138 0.20955
 C39 C -0.21604 0.15312 -0.21307
 C40 C -0.19553 0.13303 -0.25364
 C41 C -0.15515 0.15327 -0.27387
 C42 C -0.13492 0.19363 -0.25372
 C43 C -0.15494 0.21416 -0.21321
 C44 C -0.19569 0.19389 -0.19272
 C45 C -0.25657 0.13329 -0.19256
 C46 C -0.27684 0.15379 -0.15212
 C47 C -0.25665 0.19422 -0.13188
 C48 C -0.21613 0.21448 -0.15194
 C49 C -0.19573 0.25504 -0.13208
 C50 C -0.15536 0.27505 -0.15254
 C51 C -0.13502 0.25469 -0.19290
 H52 H -0.21094 0.10177 -0.26955
 H53 H -0.10368 0.20904 -0.26968
 H54 H -0.27237 0.10201 -0.20809
 H55 H -0.27250 0.20994 -0.10060
 H56 H -0.21121 0.27112 -0.10083
 H57 H -0.10378 0.27048 -0.20846
 C58 C 0.21461 0.84700 -0.21530
 C59 C 0.19402 0.86713 -0.25583
 C60 C 0.15361 0.84687 -0.27608
 C61 C 0.13345 0.80641 -0.25588
 C62 C 0.15359 0.78586 -0.21536
 C63 C 0.19435 0.80617 -0.19493
 C64 C 0.25514 0.86685 -0.19483
 C65 C 0.27548 0.84635 -0.15445
 C66 C 0.25544 0.80591 -0.13416
 C67 C 0.21492 0.78559 -0.15417
 C68 C 0.19464 0.74500 -0.13425
 C69 C 0.15426 0.72493 -0.15462
 C70 C 0.13379 0.74528 -0.19498
 H71 H 0.20947 0.89844 -0.27166
 H72 H 0.10218 0.79089 -0.27173
 H73 H 0.27095 0.89816 -0.21026
 H74 H 0.27147 0.79030 -0.10292
 H75 H 0.21023 0.72895 -0.10300
 H76 H 0.10253 0.72944 -0.21049
 C77 C 0.15111 1.21413 0.78511
 C78 C 0.13120 1.19363 0.74448
 C79 C 0.15168 1.15317 0.72428
 C80 C 0.19214 1.13290 0.74464
 C81 C 0.21248 1.15293 0.78523
 C82 C 0.19194 1.19373 0.80561
 C83 C 0.13105 1.25473 0.80552
 C84 C 0.15137 1.27500 0.84601
 C85 C 0.19184 1.25475 0.86640
 C86 C 0.21233 1.21418 0.84644
 C87 C 0.25294 1.19378 0.86647
 C88 C 0.27324 1.15339 0.84615
 C89 C 0.25308 1.13300 0.80573
 H90 H 0.09989 1.20918 0.72854
 H91 H 0.20785 1.10161 0.72884
 H92 H 0.09974 1.27058 0.78988
 H93 H 0.20743 1.27061 0.89770
 H94 H 0.26885 1.20930 0.89775
 H95 H 0.26911 1.10174 0.79026
 C96 C 0.84889 0.78595 0.78527
 C97 C 0.86876 0.80636 0.74459
 C98 C 0.84837 0.84688 0.72440
 C99 C 0.80806 0.86732 0.74479
 C100 C 0.78777 0.84737 0.78543
 C101 C 0.80820 0.80650 0.80582
 C102 C 0.86885 0.74528 0.80568
 C103 C 0.84856 0.72508 0.84621
 C104 C 0.80823 0.74548 0.86666
 C105 C 0.78784 0.78613 0.84670
 C106 C 0.74736 0.80669 0.86676
 C107 C 0.72717 0.84716 0.84641
 C108 C 0.74730 0.86746 0.80595
 H109 H 0.89996 0.79068 0.72861
 H110 H 0.79243 0.89867 0.72898
 H111 H 0.90006 0.72931 0.78999
 H112 H 0.79267 0.72967 0.89801
 H113 H 0.73145 0.79124 0.89808
 H114 H 0.73136 0.89878 0.79046
 C115 C 0.15309 0.78399 1.21308
 C116 C 0.13300 0.80450 1.25365
 C117 C 0.15325 0.84488 1.27389
 C118 C 0.19361 0.86511 1.25374
 C119 C 0.21414 0.84509 1.21322
 C120 C 0.19387 0.80433 1.19273
 C121 C 0.13327 0.74346 1.19257
 C122 C 0.15377 0.72318 1.15213
 C123 C 0.19420 0.74338 1.13189
 C124 C 0.21446 0.78389 1.15196
 C125 C 0.25502 0.80430 1.13210
 C126 C 0.27503 0.84466 1.15256
 C127 C 0.25467 0.86500 1.19291
 H128 H 0.10175 0.78909 1.26956
 H129 H 0.20902 0.89635 1.26969
 H130 H 0.10199 0.72766 1.20809
 H131 H 0.20992 0.72752 1.10061
 H132 H 0.27110 0.78882 1.10084
 H133 H 0.27046 0.89624 1.20848
 C134 C 0.84698 1.21463 1.21532
 C135 C 0.86710 1.19404 1.25585
 C136 C 0.84684 1.15362 1.27609
 C137 C 0.80638 1.13347 1.25589
 C138 C 0.78584 1.15361 1.21538
 C139 C 0.80615 1.19438 1.19494
 C140 C 0.86683 1.25516 1.19485
 C141 C 0.84633 1.27550 1.15447
 C142 C 0.80589 1.25547 1.13418
 C143 C 0.78557 1.21494 1.15418
 C144 C 0.74498 1.19467 1.13426
 C145 C 0.72491 1.15429 1.15463
 C146 C 0.74525 1.13381 1.19499
 H147 H 0.89842 1.20949 1.27168
 H148 H 0.79086 1.10220 1.27174
 H149 H 0.89814 1.27097 1.21029
 H150 H 0.79028 1.27150 1.10293
 H151 H 0.72893 1.21026 1.10301
 H152 H 0.72941 1.10255 1.21049
 N153 N 0.45074 0.94865 1.08400
 N154 N 0.41479 0.94229 1.11309
 N155 N 0.55067 0.91672 1.05137
 N156 N 0.58682 0.88771 1.05745
 N157 N 0.55021 0.94944 1.08436
 N158 N 0.58603 0.94363 1.11383
 N159 N 0.45123 0.91597 1.05097
 N160 N 0.41565 0.88644 1.05663
 C161 C 0.39344 0.90339 1.09547
 C162 C 0.60835 0.90504 1.09650
 N163 N 0.55063 0.94995 0.91649
 N164 N 0.58652 0.94414 0.88717
 N165 N 0.45142 0.91634 0.94896
 N166 N 0.41579 0.88693 0.94282
 N167 N 0.45117 0.94929 0.91617
 N168 N 0.41537 0.94326 0.88678
 N169 N 0.55086 0.91705 0.94934
 N170 N 0.58688 0.88792 0.94332
 Mn171 Mn 0.50105 0.91596 1.00016
 C172 C 0.60862 0.90536 0.90447
 C173 C 0.39383 0.90426 0.90393
 N174 N 0.54911 1.05124 1.08464
 N175 N 0.58494 1.05731 1.11398
 N176 N 0.44936 1.08344 1.05155
 N177 N 0.41326 1.11249 1.05769
 N178 N 0.44964 1.05047 1.08434
 N179 N 0.41377 1.05615 1.11371
 N180 N 0.54885 1.08416 1.05180
 N181 N 0.58448 1.11356 1.05786
 Mn182 Mn 0.49992 0.99995 1.08490
 C183 C 0.60646 1.09628 1.09674
 C184 C 0.39156 1.09491 1.09654
 N185 N 0.45013 1.05110 0.91645
 N186 N 0.41431 1.05698 0.88700
 N187 N 0.54921 1.08450 0.94972
 N188 N 0.58485 1.11396 0.94387
 N189 N 0.54959 1.05175 0.91675
 N190 N 0.58548 1.05798 0.88755
 N191 N 0.44971 1.08380 0.94946
 N192 N 0.41361 1.11286 0.94342
 Mn193 Mn 0.50038 1.00053 0.91590
 Mn194 Mn 0.49928 1.08455 1.00064
 Cl195 Cl 0.50016 1.00025 1.00040
 C196 C 0.39205 1.09559 0.90438
 C197 C 0.60696 1.09687 0.90499
 N198 N -0.08368 0.45144 0.05106
 N199 N -0.11309 0.41581 0.05720
 N200 N -0.05008 0.55065 0.08352
 N201 N -0.05589 0.58655 0.11285
 N202 N -0.08298 0.55088 0.05068
 N203 N -0.11211 0.58690 0.05670
 N204 N -0.05072 0.45119 0.08385
 N205 N -0.05676 0.41540 0.11324
 C206 C -0.09575 0.39385 0.09609
 C207 C -0.09466 0.60865 0.09554
 N208 N 0.08448 0.54924 0.05029
 N209 N 0.11394 0.58488 0.05614
 N210 N 0.05108 0.45016 0.08357
 N211 N 0.05696 0.41434 0.11301
 N212 N 0.08378 0.44974 0.05055
 N213 N 0.11284 0.41364 0.05659
 N214 N 0.05173 0.54962 0.08326
 N215 N 0.05796 0.58550 0.11246
 Mn216 Mn 0.00051 0.50041 0.08412
 C217 C 0.09685 0.60699 0.09502
 C218 C 0.09558 0.39208 0.09563
 N219 N -0.08331 0.55069 -0.05135
 N220 N -0.11232 0.58684 -0.05743
 N221 N -0.05137 0.45076 -0.08398
 N222 N -0.05773 0.41480 -0.11307
 N223 N -0.08406 0.45124 -0.05095
 N224 N -0.11359 0.41566 -0.05661
 N225 N -0.05058 0.55023 -0.08435
 N226 N -0.05640 0.58604 -0.11381
 Mn227 Mn -0.08406 0.50107 -0.00014
 C228 C -0.09499 0.60837 -0.09648
 C229 C -0.09663 0.39345 -0.09545
 N230 N 0.08342 0.44939 -0.05154
 N231 N 0.11247 0.41329 -0.05768
 N232 N 0.05121 0.54913 -0.08463
 N233 N 0.05727 0.58495 -0.11397
 N234 N 0.08414 0.54887 -0.05180
 N235 N 0.11353 0.58450 -0.05786
 N236 N 0.05044 0.44966 -0.08433
 N237 N 0.05612 0.41378 -0.11369
 Mn238 Mn 0.08452 0.49930 -0.00063
 Mn239 Mn -0.00008 0.49994 -0.08489
 Cl240 Cl 0.00023 0.50018 -0.00038
 C241 C 0.09489 0.39158 -0.09653
 C242 C 0.09625 0.60648 -0.09674
 N243 N 1.05060 0.08358 0.54983
 N244 N 1.05646 0.11290 0.58571
 N245 N 1.08356 0.05062 0.45018
 N246 N 1.11288 0.05648 0.41430
 N247 N 1.05072 0.08354 0.45009
 N248 N 1.05678 0.11276 0.41410
 N249 N 1.08352 0.05074 0.54992
 N250 N 1.11273 0.05680 0.58591
 C251 C 1.09530 0.09568 0.60771
 C252 C 1.09565 0.09532 0.39230
 N253 N 1.05080 -0.08392 0.45023
 N254 N 1.05675 -0.11329 0.41439
 N255 N 1.08369 -0.05111 0.54990
 N256 N 1.11306 -0.05717 0.58576
 N257 N 1.05095 -0.08392 0.54990
 N258 N 1.05712 -0.11325 0.58580
 N259 N 1.08365 -0.05121 0.45018
 N260 N 1.11289 -0.05741 0.41424
 Mn261 Mn 1.08418 -0.00024 0.50005
 C262 C 1.09554 -0.09623 0.39245
 C263 C 1.09595 -0.09600 0.60765
 N264 N 0.94887 0.08371 0.45011
 N265 N 0.94281 0.11308 0.41425
 N266 N 0.91606 0.05083 0.54979
 N267 N 0.88668 0.05677 0.58562
 N268 N 0.94876 0.08367 0.54984
 N269 N 0.94256 0.11291 0.58577
 N270 N 0.91605 0.05097 0.45011
 N271 N 0.88672 0.05714 0.41422
 Mn272 Mn 0.99974 0.08420 0.49997
 C273 C 0.90397 0.09596 0.39236
 C274 C 0.90375 0.09557 0.60757
 N275 N 0.94918 -0.08379 0.54984
 N276 N 0.94338 -0.11309 0.58576
 N277 N 0.91619 -0.05080 0.45018
 N278 N 0.88689 -0.05661 0.41426
 N279 N 0.94902 -0.08372 0.45014
 N280 N 0.94299 -0.11288 0.41414
 N281 N 0.91627 -0.05096 0.54988
 N282 N 0.88710 -0.05699 0.58588
 Mn283 Mn 0.99999 -0.08440 0.50003
 Mn284 Mn 0.91558 0.00001 0.49999
 Cl285 Cl 0.99988 -0.00010 0.50001
 C286 C 0.90456 -0.09585 0.60773
 C287 C 0.90413 -0.09542 0.39229
 C288 C 1.13356 0.13244 0.31536
 C289 C 1.11619 0.11552 0.35047
 C290 C 0.86635 -0.13239 0.31529
 C291 C 0.88365 -0.11553 0.35044
 C292 C 0.86560 0.13277 0.68435
 C293 C 0.88307 0.11581 0.64931
 C294 C 1.13396 -0.13361 0.68440
 C295 C 1.11656 -0.11644 0.64937
 C296 C 0.31460 1.13199 1.13450
 C297 C 0.34972 1.11502 1.11717
 C298 C 0.31722 0.86679 0.86618
 C299 C 0.35220 0.88388 0.88344
 C300 C 0.68539 0.86794 1.13434
 C301 C 0.65023 0.88491 1.11707
 C302 C 0.68363 1.13449 0.86745
 C303 C 0.64863 1.11739 0.88468
 C304 C 0.13289 0.31513 0.13330
 C305 C 0.11581 0.35025 0.11612
 C306 C -0.13475 0.31679 -0.13223
 C307 C -0.11735 0.35179 -0.11542
 C308 C 0.13381 0.68316 -0.13415
 C309 C 0.11666 0.64814 -0.11708
 C310 C -0.13221 0.68545 0.13308
 C311 C -0.11499 0.65040 0.11597
 C312 C 1.13241 0.13359 0.68465
 C313 C 1.11550 0.11622 0.64954
 C314 C 0.86759 -0.13363 0.68473
 C315 C 0.88445 -0.11633 0.64958
 C316 C 1.13275 -0.13438 0.31567
 C317 C 1.11579 -0.11691 0.35071
 C318 C 0.86636 0.13397 0.31562
 C319 C 0.88353 0.11658 0.35065
 C320 C 0.13197 0.31463 -0.13449
 C321 C 0.11500 0.34974 -0.11716
 C322 C -0.13322 0.31724 0.13384
 C323 C -0.11614 0.35222 0.11659
 C324 C -0.13209 0.68540 -0.13432
 C325 C -0.11512 0.65025 -0.11705
 C326 C 0.13446 0.68366 0.13256
 C327 C 0.11737 0.64866 0.11533
 C328 C 0.31510 1.13290 0.86671
 C329 C 0.35022 1.11582 0.88390
 C330 C 0.31677 0.86528 1.13225
 C331 C 0.35178 0.88267 1.11544
 C332 C 0.68314 1.13384 1.13416
 C333 C 0.64812 1.11670 1.11708
 C334 C 0.68542 0.86781 0.86693
 C335 C 0.65038 0.88504 0.88405
   
