data_POSCAR
  _audit_creation_date              2014-09-24
  _audit_creation_method            'ToBaCCo'
  _symmetry_space_group_name_H-M    'P1'
  _symmetry_Int_Tables_number       1
  _symmetry_cell_setting            triclinic
  loop_
  _symmetry_equiv_pos_as_xyz
 x,y,z
_cell_length_a 30.1884
_cell_length_b 30.5325
_cell_length_c 30.8424
_cell_angle_alpha 90.295700
_cell_angle_beta 89.853300
_cell_angle_gamma 88.149300
loop_
  _atom_site_label
  _atom_site_type_symbol
  _atom_site_fract_x
  _atom_site_fract_y
  _atom_site_fract_z
Si1 Si 0.24408 0.50507 1.00232
 Si2 Si 0.74828 0.49381 -0.00378
 Si3 Si -0.00291 0.25089 0.49847
 Si4 Si 1.00733 0.75145 0.49828
 Si5 Si 0.51444 0.00962 0.24442
 Si6 Si 0.49222 -0.01001 0.74852
 C7 C 0.31794 0.03195 0.43340
 H8 H 0.31343 0.05816 0.45688
 C9 C 0.35090 0.03430 0.40190
 H10 H 0.37158 0.06262 0.40087
 C11 C 0.29813 -0.03807 0.40763
 H12 H 0.27887 -0.06702 0.41118
 C13 C 0.33050 -0.03677 0.37509
 H14 H 0.33554 -0.06447 0.35339
 N15 N 0.29264 -0.00396 0.43601
 C16 C 0.19214 0.04994 0.52444
 H17 H 0.19860 0.02862 0.55176
 C18 C 0.16101 0.08446 0.52825
 H19 H 0.14463 0.08977 0.55913
 C20 C 0.20705 0.06885 0.45163
 H21 H 0.22477 0.06214 0.42169
 C22 C 0.17519 0.10316 0.45364
 H23 H 0.16871 0.12211 0.42470
 Zn24 Zn 0.25559 -0.00526 0.48545
 N25 N 0.21496 0.04321 0.48686
 C26 C 0.29792 0.03438 0.55720
 N27 N 0.29407 -0.00320 0.53380
 C28 C 0.31954 -0.03959 0.54274
 C29 C 0.34845 -0.03992 0.57798
 C30 C 0.32708 0.03575 0.59222
 C31 C 0.19769 -0.06768 0.45201
 C32 C 0.16951 -0.10306 0.45378
 C33 C 0.18925 -0.11286 0.52906
 C34 C 0.21759 -0.07787 0.52564
 N35 N 0.22153 -0.05622 0.48745
 H36 H 0.27877 0.06350 0.54849
 H37 H 0.31689 -0.06859 0.52273
 H38 H 0.36801 -0.06936 0.58508
 H39 H 0.32945 0.06573 0.61088
 H40 H 0.19993 -0.04878 0.42256
 H41 H 0.15027 -0.11142 0.42551
 H42 H 0.18592 -0.12929 0.55988
 H43 H 0.23513 -0.06706 0.55401
 C44 C 0.15169 0.11167 0.49251
 C45 C 0.35766 -0.00051 0.37265
 C46 C 0.16477 -0.12577 0.49286
 C47 C 0.35220 -0.00196 0.60335
 C48 C 0.68045 0.03607 0.56134
 H49 H 0.68124 0.06508 0.54144
 C50 C 0.64984 0.03404 0.59535
 H51 H 0.62767 0.06188 0.60195
 C52 C 0.70622 -0.03656 0.57541
 H53 H 0.72726 -0.06455 0.56689
 C54 C 0.67556 -0.04032 0.60896
 H55 H 0.67412 -0.07081 0.62664
 N56 N 0.70865 0.00142 0.55272
 C57 C 0.82201 0.04756 0.47976
 H58 H 0.82684 0.01806 0.46055
 C59 C 0.85269 0.08051 0.47696
 H60 H 0.88133 0.07491 0.45634
 C61 C 0.77962 0.08858 0.53128
 H62 H 0.75150 0.09148 0.55286
 C63 C 0.80889 0.12314 0.52845
 H64 H 0.80198 0.15252 0.54733
 Zn65 Zn 0.74867 0.00331 0.50512
 N66 N 0.78628 0.05198 0.50649
 C67 C 0.71810 0.03853 0.42535
 N68 N 0.71483 0.00491 0.45382
 C69 C 0.68623 -0.02788 0.44701
 C70 C 0.65977 -0.02802 0.41000
 C71 C 0.69213 0.03976 0.38794
 C72 C 0.81193 -0.05383 0.54138
 C73 C 0.84440 -0.08731 0.54209
 C74 C 0.82595 -0.10514 0.46797
 C75 C 0.79295 -0.07201 0.46904
 N76 N 0.78694 -0.04690 0.50529
 H77 H 0.74068 0.06454 0.43168
 H78 H 0.68395 -0.05388 0.47054
 H79 H 0.63677 -0.05413 0.40553
 H80 H 0.69534 0.06660 0.36546
 H81 H 0.80720 -0.03261 0.56932
 H82 H 0.86460 -0.09196 0.57078
 H83 H 0.83143 -0.12413 0.43857
 H84 H 0.77358 -0.06512 0.44032
 C85 C 0.84614 0.11954 0.50084
 C86 C 0.64721 -0.00461 0.61954
 C87 C 0.85225 -0.11274 0.50474
 C88 C 0.66258 0.00609 0.37980
 C89 C 0.46967 0.18765 1.04955
 H90 H 0.44262 0.18648 1.02667
 C91 C 0.47031 0.16030 1.08565
 H92 H 0.44365 0.13785 1.09003
 C93 C 0.53833 0.21696 1.07001
 H94 H 0.56522 0.23844 1.06334
 C95 C 0.54028 0.19021 1.10658
 H96 H 0.56836 0.19208 1.12820
 N97 N 0.50326 0.21534 1.04252
 C98 C 0.44224 0.31062 0.95453
 H99 H 0.46225 0.30484 0.92579
 C100 C 0.40871 0.34319 0.95445
 H101 H 0.40246 0.36114 0.92484
 C102 C 0.42692 0.29390 1.02784
 H103 H 0.43508 0.27553 1.05675
 C104 C 0.39374 0.32676 1.02948
 H105 H 0.37673 0.33297 1.05993
 Zn106 Zn 0.50113 0.24865 0.99115
 N107 N 0.45065 0.28678 0.99085
 C108 C 0.46332 0.20431 0.91959
 N109 N 0.50009 0.20830 0.94451
 C110 C 0.53603 0.18086 0.93922
 C111 C 0.53658 0.14881 0.90686
 C112 C 0.46212 0.17212 0.88727
 C113 C 0.55194 0.31642 1.01962
 C114 C 0.58637 0.34571 1.02050
 C115 C 0.61735 0.31012 0.95668
 C116 C 0.58202 0.28164 0.95677
 N117 N 0.55059 0.28488 0.98842
 H118 H 0.43435 0.22519 0.92552
 H119 H 0.56432 0.18385 0.96036
 H120 H 0.56609 0.12812 0.90275
 H121 H 0.43200 0.16890 0.86878
 H122 H 0.52585 0.31899 1.04369
 H123 H 0.58570 0.37143 1.04462
 H124 H 0.64236 0.30713 0.93151
 H125 H 0.57966 0.25736 0.93139
 C126 C 0.38450 0.35247 0.99262
 C127 C 0.50599 0.16132 1.11478
 C128 C 0.61998 0.34233 0.98915
 C129 C 0.49920 0.14382 0.88037
 C130 C 0.46263 0.82179 -0.04495
 H131 H 0.44401 0.82910 -0.01564
 C132 C 0.46005 0.85062 -0.07985
 H133 H 0.43975 0.88025 -0.07635
 C134 C 0.51385 0.77546 -0.08304
 H135 H 0.53532 0.74649 -0.08393
 C136 C 0.51141 0.80287 -0.11919
 H137 H 0.53047 0.79389 -0.14781
 N138 N 0.48945 0.78525 -0.04694
 C139 C 0.43627 0.69328 0.04604
 H140 H 0.45937 0.69591 0.07261
 C141 C 0.40090 0.66511 0.04932
 H142 H 0.39645 0.64779 0.07939
 C143 C 0.41464 0.71326 -0.02501
 H144 H 0.42075 0.73141 -0.05430
 C145 C 0.37996 0.68409 -0.02382
 H146 H 0.36040 0.68041 -0.05279
 Zn147 Zn 0.49326 0.75103 0.00403
 N148 N 0.44212 0.71712 0.00951
 C149 C 0.46781 0.79427 0.08334
 N150 N 0.49860 0.79087 0.05103
 C151 C 0.53232 0.81923 0.04856
 C152 C 0.53614 0.85248 0.07937
 C153 C 0.47069 0.82683 0.11516
 C154 C 0.53762 0.67696 -0.02749
 C155 C 0.57075 0.64439 -0.03150
 C156 C 0.61372 0.68237 0.02199
 C157 C 0.57934 0.71413 0.02537
 N158 N 0.54234 0.71096 0.00054
 H159 H 0.44010 0.77285 0.08382
 H160 H 0.55562 0.81663 0.02189
 H161 H 0.56288 0.87514 0.07671
 H162 H 0.44540 0.82978 0.13999
 H163 H 0.50771 0.67499 -0.04655
 H164 H 0.56620 0.61754 -0.05397
 H165 H 0.64275 0.68495 0.04228
 H166 H 0.58213 0.74092 0.04810
 C167 C 0.37246 0.65927 0.01377
 C168 C 0.48451 0.84139 -0.11791
 C169 C 0.60940 0.64676 -0.00654
 C170 C 0.50503 0.85653 0.11309
 C171 C 1.04495 0.46126 0.18776
 H172 H 1.02639 0.43239 0.19470
 C173 C 1.07906 0.45914 0.15703
 H174 H 1.08713 0.42811 0.14133
 C175 C 1.05666 0.53661 0.19998
 H176 H 1.04695 0.56706 0.21586
 C177 C 1.09046 0.53615 0.16904
 H178 H 1.10631 0.56653 0.16175
 N179 N 1.03534 0.49929 0.20947
 C180 C 0.95684 0.44965 0.31684
 H181 H 0.92889 0.47262 0.31479
 C182 C 0.95749 0.41719 0.34854
 H183 H 0.93007 0.41581 0.37096
 C184 C 1.02797 0.42600 0.29180
 H185 H 1.05599 0.43044 0.27062
 C186 C 1.03001 0.39308 0.32314
 H187 H 1.05920 0.37161 0.32508
 Zn188 Zn 0.98833 0.50124 0.25039
 N189 N 0.99148 0.45318 0.28894
 C190 C 0.91146 0.46468 0.21431
 N191 N 0.93524 0.50157 0.21823
 C192 C 0.92494 0.53808 0.19482
 C193 C 0.88994 0.53820 0.16539
 C194 C 0.87658 0.46314 0.18469
 C195 C 1.03142 0.55927 0.30399
 C196 C 1.03576 0.59319 0.33389
 C197 C 0.95750 0.61046 0.32645
 C198 C 0.95486 0.57668 0.29591
 N199 N 0.99152 0.55172 0.28561
 H200 H 0.92096 0.43568 0.23244
 H201 H 0.94509 0.56659 0.19784
 H202 H 0.88335 0.56702 0.14581
 H203 H 0.85898 0.43305 0.18072
 H204 H 1.05986 0.53836 0.29580
 H205 H 1.06814 0.59869 0.34738
 H206 H 0.92753 0.62872 0.33549
 H207 H 0.92318 0.56920 0.28193
 C208 C 0.99433 0.38827 0.35181
 C209 C 1.10273 0.49685 0.14754
 C210 C 0.99824 0.61865 0.34656
 C211 C 0.86616 0.49995 0.15910
 C212 C -0.05177 0.46835 0.81146
 H213 H -0.02624 0.44268 0.81020
 C214 C -0.08477 0.46729 0.84295
 H215 H -0.08479 0.44046 0.86580
 C216 C -0.08173 0.53542 0.78414
 H217 H -0.07942 0.56271 0.76220
 C218 C -0.11569 0.53550 0.81513
 H219 H -0.13935 0.56281 0.81663
 N220 N -0.05071 0.50205 0.78293
 C221 C 0.03680 0.44266 0.68502
 H222 H 0.06421 0.46459 0.68656
 C223 C 0.03739 0.40846 0.65469
 H224 H 0.06521 0.40469 0.63277
 C225 C -0.03452 0.42365 0.70942
 H226 H -0.06310 0.43053 0.72978
 C227 C -0.03532 0.38917 0.67954
 H228 H -0.06428 0.36920 0.67769
 Zn229 Zn -0.00048 0.50091 0.74634
 N230 N 0.00112 0.44972 0.71144
 C231 C 0.07369 0.46578 0.79284
 N232 N 0.04880 0.50248 0.78394
 C233 C 0.05520 0.54069 0.80543
 C234 C 0.08878 0.54356 0.83615
 C235 C 0.10676 0.46678 0.82450
 C236 C -0.03746 0.55629 0.68296
 C237 C -0.03811 0.58923 0.65174
 C238 C 0.03698 0.60558 0.67142
 C239 C 0.03597 0.57271 0.70260
 N240 N -0.00097 0.54896 0.70793
 H241 H 0.06686 0.43532 0.77651
 H242 H 0.03406 0.56910 0.79863
 H243 H 0.09391 0.57491 0.85142
 H244 H 0.12473 0.43659 0.83194
 H245 H -0.06597 0.53610 0.68698
 H246 H -0.06790 0.59480 0.63288
 H247 H 0.06724 0.62313 0.66698
 H248 H 0.06538 0.56512 0.72132
 C249 C 0.00080 0.38147 0.65149
 C250 C -0.11699 0.50130 0.84526
 C251 C -0.00025 0.61404 0.64511
 C252 C 0.11496 0.50619 0.84671
 C253 C 0.05006 0.17896 0.52978
 C254 C 0.04627 0.21222 0.49890
 C255 C 0.08154 0.21606 0.46931
 C256 C 0.11697 0.18477 0.46824
 C257 C 0.11761 0.14818 0.49621
 C258 C 0.08460 0.14786 0.52831
 C259 C 0.05554 0.11191 0.54231
 C260 C 0.01774 0.14585 0.54410
 H261 H 0.08126 0.24212 0.44578
 H262 H 0.14291 0.18884 0.44451
 H263 H 0.06469 0.09893 0.57479
 H264 H 0.05144 0.08665 0.51665
 H265 H 0.00570 0.15201 0.57769
 H266 H -0.00844 0.13964 0.51983
 C267 C 0.66253 0.53316 -0.01283
 C268 C 0.70761 0.54055 -0.00746
 C269 C 0.72126 0.58422 -0.00786
 C270 C 0.68964 0.61932 -0.00853
 C271 C 0.64387 0.61118 -0.00964
 C272 C 0.63155 0.56763 -0.01418
 C273 C 0.59821 0.54328 0.01104
 C274 C 0.63215 0.50563 0.01306
 H275 H 0.75614 0.59118 -0.00597
 H276 H 0.70090 0.65259 -0.00707
 H277 H 0.56869 0.53569 -0.00876
 H278 H 0.59078 0.55852 0.04319
 H279 H 0.62163 0.47619 -0.00502
 H280 H 0.64450 0.49927 0.04640
 C281 C 0.93172 -0.20554 0.53536
 C282 C 0.96048 -0.20810 0.49981
 C283 C 0.95703 -0.17485 0.46850
 C284 C 0.92163 -0.14377 0.46985
 C285 C 0.88997 -0.14460 0.50345
 C286 C 0.89743 -0.17419 0.53732
 C287 C 0.86639 -0.20522 0.55747
 C288 C 0.90376 -0.23969 0.55504
 H289 H 0.98128 -0.17319 0.44274
 H290 H 0.91883 -0.11937 0.44457
 H291 H 0.83787 -0.21250 0.53615
 H292 H 0.85746 -0.19553 0.59124
 H293 H 0.89693 -0.26686 0.53212
 H294 H 0.91615 -0.25011 0.58743
 C295 C 0.28584 0.42449 1.02878
 C296 C 0.28500 0.45840 0.99852
 C297 C 0.32018 0.45993 0.96864
 C298 C 0.35319 0.42631 0.96710
 C299 C 0.35141 0.38980 0.99503
 C300 C 0.31817 0.39104 1.02689
 C301 C 0.28634 0.35669 1.03847
 C302 C 0.25083 0.39286 1.03993
 H303 H 0.32219 0.48721 0.94649
 H304 H 0.37971 0.42911 0.94376
 H305 H 0.29341 0.34218 1.07079
 H306 H 0.28167 0.33260 1.01183
 H307 H 0.23708 0.39856 1.07303
 H308 H 0.22591 0.38970 1.01379
 C309 C 0.91444 0.21868 0.52830
 C310 C 0.94662 0.21781 0.49559
 C311 C 0.94026 0.18982 0.46000
 C312 C 0.90574 0.15990 0.46013
 C313 C 0.87768 0.15606 0.49673
 C314 C 0.88124 0.18828 0.52904
 C315 C 0.88277 0.18472 0.57728
 C316 C 0.91854 0.21861 0.57655
 H317 H 0.96316 0.18967 0.43291
 H318 H 0.90268 0.13868 0.43223
 H319 H 0.89502 0.15188 0.58827
 H320 H 0.85159 0.19710 0.59294
 H321 H 0.95128 0.20597 0.58802
 H322 H 0.90737 0.25042 0.59120
 C323 C 0.30789 0.55849 0.04355
 C324 C 0.27706 0.55541 0.01000
 C325 C 0.27205 0.59194 -0.01746
 C326 C 0.30085 0.62731 -0.01442
 C327 C 0.33640 0.62668 0.01552
 C328 C 0.33646 0.59298 0.04636
 C329 C 0.37278 0.56435 0.06473
 C330 C 0.34128 0.52658 0.06184
 H331 H 0.24750 0.59271 -0.04281
 H332 H 0.29599 0.65395 -0.03699
 H333 H 0.38081 0.57319 0.09875
 H334 H 0.40176 0.56065 0.04253
 H335 H 0.33105 0.51419 0.09405
 H336 H 0.35304 0.50106 0.03849
 C337 C 0.06740 -0.18800 0.53368
 C338 C 0.05918 -0.21723 0.49977
 C339 C 0.09078 -0.22094 0.46612
 C340 C 0.12679 -0.19268 0.46458
 C341 C 0.13215 -0.16062 0.49704
 C342 C 0.10348 -0.16100 0.53269
 C343 C 0.07829 -0.12363 0.55337
 C344 C 0.03845 -0.15264 0.55387
 H345 H 0.08644 -0.24370 0.43961
 H346 H 0.14913 -0.19450 0.43706
 H347 H 0.07421 -0.09490 0.53155
 H348 H 0.09094 -0.11610 0.58630
 H349 H 0.01160 -0.14037 0.53216
 H350 H 0.02761 -0.16052 0.58723
 C351 C 0.71472 0.41239 1.02540
 C352 C 0.71835 0.44173 0.99100
 C353 C 0.69567 0.43192 0.95245
 C354 C 0.66538 0.39779 0.95114
 C355 C 0.65648 0.37343 0.98869
 C356 C 0.68399 0.37973 1.02459
 C357 C 0.67589 0.38311 1.07233
 C358 C 0.71001 0.41870 1.07326
 H359 H 0.69850 0.45258 0.92436
 H360 H 0.64635 0.39291 0.92189
 H361 H 0.68691 0.35290 1.08971
 H362 H 0.64241 0.39627 1.08122
 H363 H 0.74055 0.40850 1.09105
 H364 H 0.69593 0.45154 1.08234
 C365 C 0.55025 0.08058 1.19796
 C366 C 0.51174 0.06244 1.21431
 C367 C 0.47112 0.08409 1.20446
 C368 C 0.46926 0.11843 1.17411
 C369 C 0.50802 0.13173 1.15283
 C370 C 0.54849 0.11442 1.16825
 C371 C 0.58863 0.09698 1.14470
 C372 C 0.59084 0.06005 1.17766
 H373 H 0.44038 0.07306 1.21761
 H374 H 0.43719 0.13274 1.16564
 H375 H 0.61686 0.11932 1.14725
 H376 H 0.58101 0.08569 1.11128
 H377 H 0.62008 0.06154 1.19938
 H378 H 0.58525 0.02730 1.16324
 C379 C 0.03167 0.71387 0.58001
 C380 C 0.00363 0.71223 0.54410
 C381 C -0.02290 0.67542 0.53947
 C382 C -0.02366 0.64300 0.57156
 C383 C 0.00164 0.64688 0.60969
 C384 C 0.03036 0.68200 0.61215
 C385 C 0.03460 0.71450 0.64790
 C386 C 0.03526 0.74941 0.61326
 H387 H -0.04336 0.67165 0.51099
 H388 H -0.04438 0.61523 0.56637
 H389 H 0.06664 0.71036 0.66532
 H390 H 0.00471 0.71686 0.66904
 H391 H 0.06751 0.76586 0.61158
 H392 H 0.00540 0.77169 0.61417
 C393 C 0.51873 0.90602 -0.21713
 C394 C 0.48617 0.93959 -0.21873
 C395 C 0.44812 0.93509 -0.19291
 C396 C 0.44594 0.90127 -0.16220
 C397 C 0.48246 0.87185 -0.15565
 C398 C 0.51712 0.87342 -0.18600
 C399 C 0.56621 0.87228 -0.18011
 C400 C 0.56808 0.90729 -0.21487
 H401 H 0.42109 0.95922 -0.19464
 H402 H 0.41651 0.89991 -0.14227
 H403 H 0.58191 0.84050 -0.19049
 H404 H 0.57617 0.88409 -0.14750
 H405 H 0.58416 0.89500 -0.24522
 H406 H 0.58022 0.93909 -0.20304
 C407 C 0.96587 0.28957 0.41954
 C408 C 0.99879 0.28878 0.45141
 C409 C 1.03331 0.31844 0.44722
 C410 C 1.03255 0.35002 0.41401
 C411 C 0.99638 0.35365 0.38524
 C412 C 0.96442 0.32149 0.38763
 C413 C 0.91494 0.32481 0.38859
 C414 C 0.91652 0.28970 0.42327
 H415 H 1.06005 0.31828 0.47055
 H416 H 1.05898 0.37310 0.41230
 H417 H 0.90006 0.31362 0.35769
 H418 H 0.90143 0.35656 0.40134
 H419 H 0.90248 0.25846 0.41198
 H420 H 0.90431 0.30155 0.45543
 C421 C 0.51765 0.91987 0.21794
 C422 C 0.51362 0.96356 0.20475
 C423 C 0.51085 0.97158 0.15986
 C424 C 0.50860 0.93665 0.13002
 C425 C 0.50788 0.89295 0.14447
 C426 C 0.51464 0.88554 0.18872
 C427 C 0.49179 0.85762 0.22089
 C428 C 0.49586 0.89512 0.25328
 H429 H 0.50906 1.00471 0.14762
 H430 H 0.50559 0.94386 0.09578
 H431 H 0.51211 0.82800 0.22966
 H432 H 0.45683 0.85152 0.21219
 H433 H 0.51895 0.88699 0.28027
 H434 H 0.46347 0.90987 0.26369
 C435 C 0.02800 0.28237 0.58003
 C436 C -0.00454 0.28572 0.54796
 C437 C -0.03902 0.31731 0.55386
 C438 C -0.03796 0.34746 0.58853
 C439 C -0.00172 0.34739 0.61735
 C440 C 0.02971 0.31274 0.61358
 C441 C 0.07924 0.31153 0.61338
 C442 C 0.07726 0.27808 0.57679
 H443 H -0.06585 0.31990 0.53070
 H444 H -0.06413 0.37243 0.59129
 H445 H 0.09330 0.29765 0.64381
 H446 H 0.09377 0.34258 0.60260
 H447 H 0.09001 0.24499 0.58638
 H448 H 0.09019 0.29020 0.54543
 C449 C 0.52389 0.03617 0.82149
 C450 C 0.49385 0.03719 0.78703
 C451 C 0.46940 0.07656 0.77996
 C452 C 0.47216 0.11205 0.80913
 C453 C 0.49907 0.10884 0.84648
 C454 C 0.52622 0.07099 0.85043
 C455 C 0.53297 0.04168 0.88848
 C456 C 0.53021 0.00347 0.85714
 H457 H 0.44737 0.07998 0.75263
 H458 H 0.45239 0.14147 0.80271
 H459 H 0.50492 0.04395 0.91192
 H460 H 0.56642 0.04463 0.90299
 H461 H 0.50065 -0.01644 0.86287
 H462 H 0.56207 -0.01551 0.85439
 C463 C 0.97214 0.71730 0.41953
 C464 C 1.00659 0.71521 0.44972
 C465 C 1.03604 0.67862 0.44830
 C466 C 1.03301 0.64688 0.41547
 C467 C 1.00082 0.65127 0.38249
 C468 C 0.96959 0.68611 0.38655
 C469 C 0.95573 0.71926 0.35362
 C470 C 0.95912 0.75346 0.38915
 H471 H 1.06122 0.67424 0.47301
 H472 H 1.05604 0.61904 0.41626
 H473 H 0.92118 0.71485 0.34242
 H474 H 0.98067 0.72265 0.32735
 H475 H 0.92656 0.76919 0.39785
 H476 H 0.98631 0.77647 0.38341
 C477 C 1.17418 0.46572 0.04971
 C478 C 1.20576 0.49830 0.04912
 C479 C 1.20761 0.52602 0.08566
 C480 C 1.17551 0.52424 0.11877
 C481 C 1.14015 0.49513 0.11588
 C482 C 1.14246 0.46417 0.08216
 C483 C 1.10802 0.44824 0.05183
 C484 C 1.14296 0.44926 0.01621
 H485 H 1.23247 0.55053 0.08813
 H486 H 1.17773 0.54688 0.14571
 H487 H 1.08029 0.47263 0.04720
 H488 H 1.09788 0.41451 0.05968
 H489 H 1.13458 0.47316 -0.00962
 H490 H 1.15274 0.41604 0.00408
 C491 C 0.55480 -0.04708 0.68885
 C492 C 0.54423 -0.01174 0.71628
 C493 C 0.57292 0.02378 0.71636
 C494 C 0.60762 0.02569 0.68582
 C495 C 0.61467 -0.00826 0.65516
 C496 C 0.58962 -0.04577 0.65960
 C497 C 0.56513 -0.07103 0.62630
 C498 C 0.52689 -0.07239 0.65844
 H499 H 0.56685 0.05155 0.73770
 H500 H 0.62759 0.05450 0.68495
 H501 H 0.58106 -0.10377 0.61993
 H502 H 0.55724 -0.05138 0.59689
 H503 H 0.52080 -0.10587 0.67060
 H504 H 0.49692 -0.05358 0.64738
 C505 C -0.22539 0.49771 0.90740
 C506 C -0.21129 0.49681 0.95061
 C507 C -0.16532 0.49547 0.95839
 C508 C -0.13493 0.49717 0.92401
 C509 C -0.14962 0.50147 0.88095
 C510 C -0.19525 0.50010 0.87328
 C511 C -0.22498 0.53084 0.84846
 C512 C -0.25785 0.52825 0.88560
 H513 H -0.15227 0.49413 0.99088
 H514 H -0.09981 0.49639 0.93118
 H515 H -0.23698 0.51585 0.81793
 H516 H -0.21143 0.56403 0.84495
 H517 H -0.28883 0.51201 0.87623
 H518 H -0.26286 0.55986 0.90322
 C519 C 0.42327 0.00922 0.26891
 C520 C 0.46725 0.00657 0.28305
 C521 C 0.47459 0.00468 0.32812
 C522 C 0.43879 0.00222 0.35724
 C523 C 0.39495 0.00060 0.34189
 C524 C 0.38805 0.00642 0.29750
 C525 C 0.36105 -0.01794 0.26550
 C526 C 0.39951 -0.01412 0.23376
 H527 H 0.50785 0.00419 0.34107
 H528 H 0.44540 0.00033 0.39170
 H529 H 0.33086 0.00117 0.25550
 H530 H 0.35540 -0.05225 0.27547
 H531 H 0.39146 0.00769 0.20594
 H532 H 0.41535 -0.04615 0.22466
 C533 C 0.17960 0.54305 0.94552
 C534 C 0.21080 0.50898 0.95179
 C535 C 0.21543 0.47737 0.91856
 C536 C 0.18577 0.47739 0.88323
 C537 C 0.15011 0.50863 0.88068
 C538 C 0.15021 0.54286 0.91130
 C539 C 0.11448 0.56521 0.93779
 C540 C 0.14749 0.56643 0.97505
 H541 H 0.24038 0.45126 0.92070
 H542 H 0.19024 0.45191 0.85903
 H543 H 0.08619 0.54367 0.94412
 H544 H 0.10526 0.59841 0.92549
 H545 H 0.13756 0.54700 1.00354
 H546 H 0.15805 0.60009 0.98290
 C547 C 0.58430 0.04715 0.29236
 C548 C 0.56718 0.00846 0.27582
 C549 C 0.58904 -0.03121 0.28735
 C550 C 0.62234 -0.03200 0.31929
 C551 C 0.63440 0.00695 0.34044
 C552 C 0.61722 0.04644 0.32358
 C553 C 0.59793 0.08617 0.34591
 C554 C 0.56199 0.08718 0.31140
 H555 H 0.57876 -0.06199 0.27423
 H556 H 0.63669 -0.06335 0.32907
 H557 H 0.62013 0.11444 0.34398
 H558 H 0.58528 0.07895 0.37892
 H559 H 0.56383 0.11586 0.28951
 H560 H 0.52844 0.08115 0.32448
 C561 C 0.78051 0.53169 0.07407
 C562 C 0.77979 0.49428 0.04785
 C563 C 0.80915 0.45903 0.05769
 C564 C 0.83630 0.46033 0.09452
 C565 C 0.83488 0.49709 0.12236
 C566 C 0.80762 0.53307 0.11051
 C567 C 0.77266 0.55639 0.13690
 C568 C 0.74301 0.55477 0.09732
 H569 H 0.81129 0.43051 0.03668
 H570 H 0.85884 0.43281 0.10081
 H571 H 0.78212 0.59016 0.14573
 H572 H 0.76082 0.53636 0.16436
 H573 H 0.73523 0.58773 0.08370
 H574 H 0.71392 0.53376 0.10163
 C575 C 0.44014 0.03170 0.68279
 C576 C 0.44543 -0.00498 0.70943
 C577 C 0.41515 -0.03880 0.70426
 C578 C 0.38369 -0.03727 0.67063
 C579 C 0.38167 -0.00178 0.64157
 C580 C 0.40855 0.03368 0.65024
 C581 C 0.43825 0.05783 0.62063
 C582 C 0.47297 0.05548 0.65624
 H583 H 0.41730 -0.06778 0.72416
 H584 H 0.36218 -0.06465 0.66633
 H585 H 0.42546 0.09173 0.61430
 H586 H 0.44778 0.03847 0.59121
 H587 H 0.48031 0.08802 0.67033
 H588 H 0.50252 0.03474 0.64719
   
