data_POSCAR
  _audit_creation_date              2014-09-24
  _audit_creation_method            'ToBaCCo'
  _symmetry_space_group_name_H-M    'P1'
  _symmetry_Int_Tables_number       1
  _symmetry_cell_setting            triclinic
  loop_
  _symmetry_equiv_pos_as_xyz
 x,y,z
_cell_length_a 40.1055
_cell_length_b 40.6938
_cell_length_c 8.7531
_cell_angle_alpha 89.862400
_cell_angle_beta 90.203100
_cell_angle_gamma 90.114300
loop_
  _atom_site_label
  _atom_site_type_symbol
  _atom_site_fract_x
  _atom_site_fract_y
  _atom_site_fract_z
C1 C 0.16230 0.25070 0.17659
 C2 C 0.17825 0.22199 0.22508
 C3 C 0.21250 0.22241 0.25671
 C4 C 0.23147 0.25129 0.23489
 C5 C 0.21499 0.27996 0.18422
 C6 C 0.18052 0.27971 0.15735
 C7 C 0.26823 0.25130 0.26389
 C8 C 0.28476 0.27991 0.31512
 C9 C 0.31923 0.27967 0.34209
 C10 C 0.33739 0.25074 0.32239
 C11 C 0.32139 0.22209 0.27336
 C12 C 0.28715 0.22249 0.24163
 H13 H 0.13570 0.25050 0.15317
 H14 H 0.22417 0.20016 0.29875
 H15 H 0.22878 0.30243 0.16371
 H16 H 0.27101 0.30231 0.33600
 H17 H 0.36399 0.25055 0.34588
 H18 H 0.27544 0.20029 0.19921
 C19 C 0.83711 0.25146 0.17805
 C20 C 0.81900 0.28047 0.15838
 C21 C 0.78455 0.28073 0.18482
 C22 C 0.76800 0.25205 0.23540
 C23 C 0.78690 0.22319 0.25756
 C24 C 0.82109 0.22280 0.22646
 C25 C 0.73127 0.25203 0.26390
 C26 C 0.71226 0.22319 0.24163
 C27 C 0.67804 0.22275 0.27296
 C28 C 0.66217 0.25140 0.32162
 C29 C 0.68043 0.28036 0.34134
 C30 C 0.71486 0.28064 0.31473
 H31 H 0.86367 0.25116 0.15505
 H32 H 0.77082 0.30319 0.16403
 H33 H 0.77528 0.20090 0.29937
 H34 H 0.72387 0.20099 0.19954
 H35 H 0.63560 0.25117 0.34487
 H36 H 0.72870 0.30306 0.33563
 C37 C 0.66290 0.75237 0.67914
 C38 C 0.67894 0.72373 0.72755
 C39 C 0.71317 0.72419 0.75868
 C40 C 0.73210 0.75308 0.73652
 C41 C 0.71554 0.78173 0.68596
 C42 C 0.68105 0.78141 0.65950
 C43 C 0.76888 0.75310 0.76482
 C44 C 0.78549 0.78172 0.81558
 C45 C 0.82001 0.78143 0.84207
 C46 C 0.83808 0.75241 0.82222
 C47 C 0.82197 0.72382 0.77362
 C48 C 0.78774 0.72427 0.74248
 H49 H 0.63631 0.75201 0.65608
 H50 H 0.72481 0.70192 0.80047
 H51 H 0.72929 0.80421 0.66513
 H52 H 0.77171 0.80411 0.83646
 H53 H 0.86470 0.75197 0.84518
 H54 H 0.77605 0.70204 0.70054
 C55 C 0.33719 0.75154 0.67904
 C56 C 0.31903 0.78051 0.65916
 C57 C 0.28458 0.78072 0.68537
 C58 C 0.26806 0.75203 0.73595
 C59 C 0.28701 0.72320 0.75836
 C60 C 0.32120 0.72286 0.72745
 C61 C 0.23132 0.75194 0.76414
 C62 C 0.21238 0.72305 0.74204
 C63 C 0.17816 0.72254 0.77315
 C64 C 0.16219 0.75117 0.82138
 C65 C 0.18037 0.78019 0.84086
 C66 C 0.21482 0.78054 0.81451
 H67 H 0.36376 0.75127 0.65621
 H68 H 0.27082 0.80315 0.66438
 H69 H 0.27541 0.70090 0.80021
 H70 H 0.22405 0.70086 0.70025
 H71 H 0.13561 0.75089 0.84444
 H72 H 0.22859 0.80301 0.83524
 O73 O 1.03269 -0.03983 0.21690
 O74 O 0.96791 0.02250 0.28781
 O75 O 0.96766 -0.03993 0.21720
 O76 O 1.03263 0.02263 0.28737
 O77 O 1.03227 0.03514 0.04135
 O78 O 0.96751 -0.02718 -0.02852
 O79 O 0.96777 0.03502 0.04179
 O80 O 1.03235 -0.02709 -0.02882
 Cu81 Cu 1.00025 -0.01005 0.27696
 Cu82 Cu 0.99995 0.00521 -0.01816
 C83 C 1.04336 -0.04406 0.08208
 C84 C 0.95720 0.03954 0.17645
 C85 C 0.95671 -0.04417 0.08248
 C86 C 1.04311 0.03971 0.17590
 O87 O 0.46752 0.47271 0.47365
 O88 O 0.53222 0.53511 0.54343
 O89 O 0.53237 0.47288 0.47332
 O90 O 0.46774 0.53494 0.54373
 O91 O 0.46788 0.52245 0.78978
 O92 O 0.53272 0.46017 0.71906
 O93 O 0.53258 0.52262 0.78948
 O94 O 0.46768 0.46000 0.71940
 Cu95 Cu 0.49994 0.50515 0.48391
 Cu96 Cu 0.50024 0.48991 0.77908
 C97 C 0.45674 0.45572 0.58469
 C98 C 0.54305 0.53970 0.67799
 C99 C 0.54339 0.45594 0.58425
 C100 C 0.45716 0.53948 0.67837
 O101 O 0.03289 0.47300 0.02767
 O102 O -0.03165 0.53536 -0.04256
 O103 O -0.03197 0.47309 0.02788
 O104 O 0.03283 0.53530 -0.04266
 O105 O 0.03269 0.52304 -0.28867
 O106 O -0.03232 0.46059 -0.21782
 O107 O -0.03201 0.52309 -0.28856
 O108 O 0.03272 0.46051 -0.21804
 Cu109 Cu 0.00056 0.50541 0.01718
 Cu110 Cu 0.00025 0.49043 -0.27790
 C111 C 0.04363 0.45612 -0.08329
 C112 C -0.04246 0.54005 -0.17715
 C113 C -0.04303 0.45624 -0.08304
 C114 C 0.04342 0.54000 -0.17730
 O115 O 0.53196 1.02367 0.21106
 O116 O 0.46717 0.96102 0.28234
 O117 O 0.46724 1.02351 0.21115
 O118 O 0.53221 0.96119 0.28226
 O119 O 0.53232 0.97378 0.52786
 O120 O 0.46755 1.03587 0.45705
 O121 O 0.46746 0.97361 0.52794
 O122 O 0.53204 1.03603 0.45696
 Cu123 Cu 0.49962 0.99096 0.22208
 Cu124 Cu 0.49986 1.00605 0.51704
 C125 C 0.54265 1.04068 0.32231
 C126 C 0.45647 0.95668 0.41716
 C127 C 0.45672 1.04047 0.32243
 C128 C 0.54314 0.95690 0.41705
 C129 C 1.16055 0.19347 0.23570
 C130 C 1.14440 0.16847 0.24003
 C131 C 1.12477 0.13966 0.23874
 C132 C 1.10730 0.11558 0.23231
 C133 C 1.08594 0.08813 0.21864
 C134 C 1.06687 0.06550 0.20186
 C135 C 0.66029 0.69357 0.73900
 C136 C 0.64416 0.66858 0.74302
 C137 C 0.62455 0.63975 0.74141
 C138 C 0.60712 0.61565 0.73475
 C139 C 0.58580 0.58818 0.72087
 C140 C 0.56677 0.56552 0.70398
 C141 C -0.16372 0.30991 0.11243
 C142 C -0.14786 0.33388 0.07637
 C143 C -0.12787 0.36119 0.03696
 C144 C -0.10973 0.38386 0.00573
 C145 C -0.08740 0.40972 -0.02803
 C146 C -0.06753 0.43125 -0.05446
 C147 C 0.33628 0.80997 0.61322
 C148 C 0.35208 0.83399 0.57715
 C149 C 0.37199 0.86134 0.53768
 C150 C 0.39005 0.88407 0.50636
 C151 C 0.41229 0.91001 0.47247
 C152 C 0.43208 0.93160 0.44591
 C153 C -0.15947 0.69370 -0.23803
 C154 C -0.14338 0.66874 -0.24217
 C155 C -0.12382 0.63996 -0.24066
 C156 C -0.10641 0.61590 -0.23404
 C157 C -0.08513 0.58847 -0.22017
 C158 C -0.06613 0.56584 -0.20324
 C159 C 0.33905 1.19362 0.26237
 C160 C 0.35520 1.16870 0.25784
 C161 C 0.37487 1.13998 0.25901
 C162 C 0.39238 1.11600 0.26545
 C163 C 0.41380 1.08867 0.27923
 C164 C 0.43292 1.06614 0.29618
 C165 C 1.16317 -0.19042 -0.11339
 C166 C 1.14743 -0.16646 -0.07745
 C167 C 1.12759 -0.13916 -0.03811
 C168 C 1.10960 -0.11647 -0.00688
 C169 C 1.08744 -0.09060 0.02692
 C170 C 1.06771 -0.06906 0.05342
 C171 C 0.66331 0.30976 0.38759
 C172 C 0.64759 0.33370 0.42391
 C173 C 0.62776 0.36098 0.46362
 C174 C 0.60975 0.38364 0.49509
 C175 C 0.58756 0.40948 0.52908
 C176 C 0.56779 0.43098 0.55563
 C177 C 0.83640 -0.19074 -0.11426
 C178 C 0.85217 -0.16673 -0.07783
 C179 C 0.87207 -0.13939 -0.03801
 C180 C 0.89014 -0.11668 -0.00649
 C181 C 0.91242 -0.09078 0.02751
 C182 C 0.93225 -0.06922 0.05403
 C183 C 0.33647 0.30909 0.38850
 C184 C 0.35227 0.33307 0.42489
 C185 C 0.37219 0.36041 0.46462
 C186 C 0.39026 0.38313 0.49605
 C187 C 0.41251 0.40906 0.52991
 C188 C 0.43231 0.43065 0.55631
 C189 C 0.16051 0.69398 -0.23757
 C190 C 0.14442 0.66895 -0.24193
 C191 C 0.12486 0.64008 -0.24064
 C192 C 0.10745 0.61596 -0.23415
 C193 C 0.08617 0.58846 -0.22039
 C194 C 0.06714 0.56580 -0.20349
 C195 C 0.66030 1.19425 0.26203
 C196 C 0.64410 1.16929 0.25754
 C197 C 0.62440 1.14052 0.25875
 C198 C 0.60688 1.11648 0.26521
 C199 C 0.58547 1.08907 0.27902
 C200 C 0.56638 1.06646 0.29600
 C201 C 0.16333 0.30918 0.11152
 C202 C 0.14760 0.33322 0.07556
 C203 C 0.12778 0.36062 0.03628
 C204 C 0.10981 0.38340 0.00516
 C205 C 0.08767 0.40939 -0.02848
 C206 C 0.06796 0.43101 -0.05481
 C207 C 0.66376 0.81081 0.61348
 C208 C 0.64791 0.83475 0.57731
 C209 C 0.62792 0.86201 0.53773
 C210 C 0.60980 0.88466 0.50633
 C211 C 0.58747 0.91047 0.47237
 C212 C 0.56762 0.93195 0.44578
 C213 C 0.83971 0.19269 0.23800
 C214 C 0.85587 0.16776 0.24206
 C215 C 0.87553 0.13905 0.24045
 C216 C 0.89302 0.11506 0.23373
 C217 C 0.91440 0.08774 0.21973
 C218 C 0.93347 0.06521 0.20269
 C219 C 0.33985 0.69277 0.73916
 C220 C 0.35600 0.66784 0.74337
 C221 C 0.37563 0.63910 0.74191
 C222 C 0.39308 0.61508 0.73532
 C223 C 0.41441 0.58773 0.72146
 C224 C 0.43345 0.56517 0.70452
   
