data_POSCAR
  _audit_creation_date              2014-09-24
  _audit_creation_method            'ToBaCCo'
  _symmetry_space_group_name_H-M    'P1'
  _symmetry_Int_Tables_number       1
  _symmetry_cell_setting            triclinic
  loop_
  _symmetry_equiv_pos_as_xyz
 x,y,z
_cell_length_a 17.7159
_cell_length_b 16.2244
_cell_length_c 16.8522
_cell_angle_alpha 90.488400
_cell_angle_beta 90.978100
_cell_angle_gamma 89.939000
loop_
  _atom_site_label
  _atom_site_type_symbol
  _atom_site_fract_x
  _atom_site_fract_y
  _atom_site_fract_z
N1 N 0.34550 0.34892 1.35469
 N2 N 1.16251 0.65576 0.83482
 N3 N 0.67728 -0.13781 0.15737
 N4 N -0.15165 1.12506 -0.36855
 N5 N 0.66322 0.63986 0.65229
 N6 N 0.85409 0.38149 0.13500
 N7 N 0.34260 0.14591 0.83863
 N8 N 0.14563 0.85402 0.36056
 Zn9 Zn 0.01482 1.11891 -0.03411
 Zn10 Zn -0.05302 0.95493 -0.07039
 Zn11 Zn 0.10257 0.96813 0.00114
 Zn12 Zn -0.03066 1.01261 0.09852
 O13 O 0.00841 1.01308 -0.00101
 O14 O -0.02815 1.13259 -0.12822
 O15 O -0.00775 0.86623 -0.11072
 O16 O 0.17275 1.03720 -0.03626
 O17 O -0.08323 1.01319 -0.15550
 O18 O 0.10928 1.15438 -0.04627
 O19 O 0.10741 0.87537 -0.05806
 O20 O 0.03267 0.96870 0.17189
 O21 O -0.13591 0.91728 -0.02401
 O22 O 0.13318 0.94061 0.09983
 O23 O -0.11647 0.95549 0.10135
 O24 O -0.05681 1.11400 0.13280
 O25 O -0.03107 1.19056 0.02866
 C26 C -0.06701 1.08662 -0.17384
 C27 C 0.05863 0.83857 -0.10186
 C28 C 0.16992 1.11366 -0.05217
 C29 C 0.09983 0.94185 0.16595
 C30 C -0.15627 0.92022 0.04767
 C31 C -0.05808 1.18260 0.09715
 Zn32 Zn 0.44199 0.00092 0.41012
 Zn33 Zn 0.43961 -0.06066 0.57398
 Zn34 Zn 0.57437 -0.08414 0.48132
 Zn35 Zn 0.53370 0.08459 0.52661
 O36 O 0.49726 -0.01552 0.49865
 O37 O 0.35673 -0.05565 0.40861
 O38 O 0.48889 -0.14326 0.62550
 O39 O 0.59009 -0.09778 0.37751
 O40 O 0.35165 -0.10140 0.53213
 O41 O 0.49328 -0.02997 0.32300
 O42 O 0.55931 -0.18286 0.52508
 O43 O 0.63205 0.08306 0.55207
 O44 O 0.41700 0.01519 0.64757
 O45 O 0.66131 -0.04699 0.52593
 O46 O 0.48752 0.12204 0.61292
 O47 O 0.51796 0.16115 0.45134
 O48 O 0.41292 0.10701 0.40228
 C49 C 0.32350 -0.09525 0.46227
 C50 C 0.53515 -0.19382 0.59493
 C51 C 0.55393 -0.07158 0.31680
 C52 C 0.67896 0.02383 0.55289
 C53 C 0.44030 0.08879 0.65840
 C54 C 0.45534 0.16886 0.41449
 Zn55 Zn 1.00128 0.40647 0.43385
 Zn56 Zn 1.09156 0.53628 0.50289
 Zn57 Zn 0.92770 0.56065 0.46417
 Zn58 Zn 0.97587 0.45045 0.59669
 O59 O 0.99943 0.49088 0.50106
 O60 O 1.09386 0.36093 0.42656
 O61 O 1.09041 0.63357 0.45489
 O62 O 0.87976 0.51985 0.37736
 O63 O 1.16250 0.47140 0.45649
 O64 O 0.97060 0.43652 0.33734
 O65 O 0.96819 0.65672 0.43251
 O66 O 0.88895 0.49248 0.63216
 O67 O 1.12263 0.55591 0.60278
 O68 O 0.85608 0.57953 0.53669
 O69 O 1.04424 0.47855 0.67202
 O70 O 0.96113 0.34044 0.59267
 O71 O 0.93630 0.32925 0.46388
 C72 C 1.15729 0.39747 0.43074
 C73 C 1.03693 0.67874 0.42879
 C74 C 0.90858 0.47400 0.32453
 C75 C 0.84424 0.54600 0.60352
 C76 C 1.09966 0.52803 0.66833
 C77 C 0.93135 0.30190 0.53375
 Zn78 Zn 0.44495 0.48882 0.91382
 Zn79 Zn 0.58716 0.55557 0.98895
 Zn80 Zn 0.43848 0.58107 1.06830
 Zn81 Zn 0.50479 0.41375 1.06195
 O82 O 0.49423 0.50989 1.00799
 O83 O 0.49703 0.52305 0.82976
 O84 O 0.60028 0.65201 1.04198
 O85 O 0.35798 0.61959 1.01648
 O86 O 0.60133 0.57638 0.88369
 O87 O 0.35901 0.54482 0.90595
 O88 O 0.49089 0.66825 1.10202
 O89 O 0.45918 0.41493 1.15623
 O90 O 0.66373 0.49010 1.02376
 O91 O 0.40207 0.53607 1.15608
 O92 O 0.60155 0.38638 1.07757
 O93 O 0.46210 0.32818 1.01173
 O94 O 0.41920 0.38155 0.89937
 C95 C 0.55934 0.56077 0.82313
 C96 C 0.55741 0.69189 1.08853
 C97 C 0.32906 0.59887 0.95016
 C98 C 0.41481 0.46691 1.18762
 C99 C 0.66289 0.42149 1.05992
 C100 C 0.42757 0.32064 0.94575
 N101 N 1.27970 0.39136 0.37729
 N102 N 1.22366 0.35383 0.40659
 N103 N 0.22763 0.61487 0.86126
 N104 N 0.26150 0.63817 0.92452
 N105 N -0.25378 0.89687 0.13622
 N106 N -0.22637 0.88404 0.06806
 N107 N 0.78095 0.10843 0.58942
 N108 N 0.75228 0.03663 0.58732
 N109 N 0.36494 0.27277 0.38837
 N110 N 0.43313 0.24788 0.38601
 N111 N 0.88967 0.19635 0.61476
 N112 N 0.88998 0.22795 0.54622
 N113 N 0.14099 0.72913 -0.12705
 N114 N 0.07837 0.76415 -0.14224
 N115 N 0.64768 0.79581 1.11269
 N116 N 0.58479 0.76344 1.12949
 N117 N 0.38834 0.37710 1.29109
 N118 N 0.37495 0.44541 1.25740
 N119 N 0.64852 -0.11761 0.23204
 N120 N 0.58166 -0.09046 0.23967
 N121 N -0.13548 1.08473 -0.29695
 N122 N -0.09063 1.11993 -0.24778
 N123 N 1.12365 0.62684 0.76692
 N124 N 1.13610 0.55475 0.73979
 N125 N 0.73043 0.61639 0.61561
 N126 N 0.77804 0.56725 0.64660
 N127 N 0.78777 0.42265 1.11114
 N128 N 0.73199 0.38218 1.08269
 N129 N 0.28359 1.11032 -0.11928
 N130 N 0.23407 1.15350 -0.08459
 N131 N 0.21638 -0.11173 0.38003
 N132 N 0.25142 -0.13069 0.44406
 N133 N 0.62016 -0.30063 0.61181
 N134 N 0.56600 -0.25984 0.64138
 N135 N 1.12141 0.78414 0.40135
 N136 N 1.05522 0.75500 0.39227
 N137 N -0.12300 1.30908 0.09629
 N138 N -0.08926 1.25289 0.13559
 N139 N 0.37013 0.22529 0.85643
 N140 N 0.39732 0.24152 0.92503
 N141 N 0.64615 0.61275 0.72928
 N142 N 0.58013 0.58777 0.74551
 N143 N 0.36859 0.10277 0.77236
 N144 N 0.41458 0.13492 0.72480
 N145 N 0.10515 0.88156 0.29327
 N146 N 0.13949 0.91219 0.23468
 N147 N 0.89284 0.40477 0.20475
 N148 N 0.86855 0.45997 0.25164
   
