data_POSCAR
  _audit_creation_date              2014-09-24
  _audit_creation_method            'ToBaCCo'
  _symmetry_space_group_name_H-M    'P1'
  _symmetry_Int_Tables_number       1
  _symmetry_cell_setting            triclinic
  loop_
  _symmetry_equiv_pos_as_xyz
 x,y,z
_cell_length_a 45.2850
_cell_length_b 45.3745
_cell_length_c 17.6089
_cell_angle_alpha 90.023100
_cell_angle_beta 90.023500
_cell_angle_gamma 120.003700
loop_
  _atom_site_label
  _atom_site_type_symbol
  _atom_site_fract_x
  _atom_site_fract_y
  _atom_site_fract_z
C1 C 0.16662 0.45945 0.43046
 C2 C 0.15167 0.45967 0.49965
 C3 C 0.16675 0.45957 0.56880
 C4 C 0.19768 0.45901 0.56963
 C5 C 0.21311 0.45863 0.49969
 C6 C 0.19754 0.45884 0.42970
 C7 C 0.21343 0.45869 0.36118
 C8 C 0.24410 0.45854 0.36124
 C9 C 0.26003 0.45856 0.42977
 C10 C 0.24441 0.45851 0.49971
 C11 C 0.21371 0.45907 0.63816
 C12 C 0.24442 0.45899 0.63816
 C13 C 0.26028 0.45882 0.56962
 C14 C 0.29171 0.45920 0.56868
 C15 C 0.30665 0.45911 0.49937
 C16 C 0.29136 0.45891 0.43044
 H17 H 0.20225 0.45875 0.30686
 H18 H 0.25531 0.45850 0.30698
 H19 H 0.20262 0.45928 0.69248
 H20 H 0.25574 0.45914 0.69244
 H21 H 0.12805 0.46043 0.49969
 H22 H 0.33095 0.45971 0.49890
 C23 C 0.54060 -0.29230 0.43288
 C24 C 0.54038 -0.30756 0.50178
 C25 C 0.54043 -0.29258 0.57113
 C26 C 0.54094 -0.26117 0.57233
 C27 C 0.54130 -0.24529 0.50255
 C28 C 0.54114 -0.26092 0.43246
 C29 C 0.54126 -0.24491 0.36407
 C30 C 0.54133 -0.21419 0.36431
 C31 C 0.54128 -0.19839 0.43297
 C32 C 0.54136 -0.21399 0.50281
 C33 C 0.54083 -0.24534 0.64100
 C34 C 0.54086 -0.21463 0.64125
 C35 C 0.54101 -0.19856 0.57284
 C36 C 0.54058 -0.16759 0.57210
 C37 C 0.54065 -0.15252 0.50290
 C38 C 0.54087 -0.16750 0.43385
 H39 H 0.54122 -0.25610 0.30972
 H40 H 0.54135 -0.20291 0.31012
 H41 H 0.54063 -0.25670 0.69522
 H42 H 0.54068 -0.20356 0.69562
 H43 H 0.53966 -0.33187 0.50126
 H44 H 0.54000 -0.12890 0.50259
 C45 C 1.16746 0.70831 0.56994
 C46 C 1.15250 0.69336 0.50057
 C47 C 1.16759 0.70866 0.43171
 C48 C 1.19849 0.74000 0.43119
 C49 C 1.21399 0.75564 0.50121
 C50 C 1.19843 0.73976 0.57104
 C51 C 1.21437 0.75562 0.63965
 C52 C 1.24509 0.78635 0.63981
 C53 C 1.26105 0.80239 0.57135
 C54 C 1.24532 0.78696 0.50133
 C55 C 1.21439 0.75595 0.36274
 C56 C 1.24513 0.78664 0.36283
 C57 C 1.26110 0.80254 0.43143
 C58 C 1.29255 0.83348 0.43235
 C59 C 1.30765 0.84844 0.50162
 C60 C 1.29248 0.83335 0.57068
 H61 H 1.20320 0.74430 0.69388
 H62 H 1.25633 0.79745 0.69419
 H63 H 1.20319 0.74472 0.30842
 H64 H 1.25637 0.79783 0.30856
 H65 H 1.12887 0.66905 0.49999
 H66 H 1.33199 0.87208 0.50178
 C67 C 0.70780 0.54063 0.57069
 C68 C 0.69272 0.54060 0.50146
 C69 C 0.70794 0.54081 0.43244
 C70 C 0.73936 0.54133 0.43168
 C71 C 0.75509 0.54148 0.50159
 C72 C 0.73928 0.54112 0.57155
 C73 C 0.75524 0.54101 0.64004
 C74 C 0.78601 0.54103 0.63993
 C75 C 0.80201 0.54118 0.57133
 C76 C 0.78646 0.54151 0.50148
 C77 C 0.75528 0.54143 0.36310
 C78 C 0.78606 0.54148 0.36300
 C79 C 0.80199 0.54142 0.43146
 C80 C 0.83294 0.54100 0.43201
 C81 C 0.84802 0.54078 0.50094
 C82 C 0.83302 0.54074 0.57026
 H83 H 0.74395 0.54082 0.69437
 H84 H 0.79719 0.54086 0.69419
 H85 H 0.74399 0.54141 0.30886
 H86 H 0.79726 0.54149 0.30868
 H87 H 0.66837 0.53989 0.50111
 H88 H 0.87169 0.54013 0.50046
 C89 C 0.45907 0.16754 0.57059
 C90 C 0.45911 0.15239 0.50165
 C91 C 0.45893 0.16724 0.43242
 C92 C 0.45844 0.19810 0.43128
 C93 C 0.45830 0.21377 0.50103
 C94 C 0.45862 0.19844 0.57110
 C95 C 0.45875 0.21449 0.63946
 C96 C 0.45877 0.24521 0.63915
 C97 C 0.45864 0.26097 0.57043
 C98 C 0.45829 0.24504 0.50068
 C99 C 0.45836 0.21381 0.36256
 C100 C 0.45834 0.24450 0.36219
 C101 C 0.45840 0.26055 0.43053
 C102 C 0.45884 0.29188 0.43086
 C103 C 0.45908 0.30723 0.49969
 C104 C 0.45911 0.29237 0.56913
 H105 H 0.45893 0.20344 0.69382
 H106 H 0.45895 0.25660 0.69334
 H107 H 0.45839 0.20250 0.30844
 H108 H 0.45835 0.25562 0.30779
 H109 H 0.45980 0.12881 0.50187
 H110 H 0.45975 0.33151 0.49904
 C111 C 0.70864 0.16779 0.43211
 C112 C 0.69349 0.15283 0.50118
 C113 C 0.70859 0.16789 0.57028
 C114 C 0.73998 0.19880 0.57115
 C115 C 0.75576 0.21426 0.50126
 C116 C 0.74003 0.19870 0.43133
 C117 C 0.75592 0.21454 0.36280
 C118 C 0.78666 0.24526 0.36280
 C119 C 0.80258 0.26121 0.43133
 C120 C 0.78707 0.24555 0.50129
 C121 C 0.75584 0.21474 0.63970
 C122 C 0.78659 0.24547 0.63976
 C123 C 0.80259 0.26137 0.57123
 C124 C 0.83358 0.29279 0.57030
 C125 C 0.84856 0.30780 0.50103
 C126 C 0.83349 0.29257 0.43203
 H127 H 0.74464 0.20331 0.30855
 H128 H 0.79786 0.25649 0.30853
 H129 H 0.74451 0.20358 0.69393
 H130 H 0.79773 0.25676 0.69408
 H131 H 0.66918 0.12922 0.50114
 H132 H 0.87220 0.33210 0.50064
 N133 N 0.96464 0.53513 0.08057
 N134 N 0.94189 0.54427 0.09757
 N135 N 1.03638 0.55024 0.13225
 N136 N 1.05910 0.56731 0.18542
 N137 N 1.03633 0.57103 0.08041
 N138 N 1.05902 0.60291 0.09723
 N139 N 0.96475 0.51436 0.13239
 N140 N 0.94210 0.50872 0.18570
 C141 C 0.92772 0.52702 0.16255
 C142 C 1.07334 0.59993 0.16213
 N143 N 1.03663 0.46609 0.08097
 N144 N 1.05922 0.45679 0.09838
 N145 N 0.96492 0.45106 0.13265
 N146 N 0.94227 0.43409 0.18595
 N147 N 0.96491 0.43018 0.08094
 N148 N 0.94226 0.39833 0.09799
 N149 N 1.03656 0.48695 0.13264
 N150 N 1.05910 0.49251 0.18624
 Mn151 Mn 1.00065 0.50066 0.13299
 C152 C 1.07338 0.47405 0.16343
 C153 C 0.92802 0.40141 0.16289
 N154 N 1.03626 0.57094 -0.08382
 N155 N 1.05895 0.60280 -0.10079
 N156 N 0.96459 0.51415 -0.13541
 N157 N 0.94178 0.50834 -0.18852
 N158 N 0.96453 0.53499 -0.08365
 N159 N 0.94168 0.54400 -0.10044
 N160 N 1.03625 0.55007 -0.13556
 N161 N 1.05893 0.56707 -0.18883
 Mn162 Mn 1.00044 0.55335 -0.00162
 C163 C 1.07321 0.59974 -0.16572
 C164 C 0.92737 0.52662 -0.16527
 N165 N 0.96482 0.43005 -0.08330
 N166 N 0.94207 0.39816 -0.10003
 N167 N 1.03640 0.48673 -0.13521
 N168 N 1.05909 0.49241 -0.18843
 N169 N 1.03652 0.46598 -0.08334
 N170 N 1.05931 0.45689 -0.10019
 N171 N 0.96476 0.45083 -0.13515
 N172 N 0.94199 0.43375 -0.18825
 Mn173 Mn 1.00072 0.44775 -0.00120
 Mn174 Mn 1.00050 0.50044 -0.13587
 Cl175 Cl 1.00058 0.50055 -0.00143
 C176 C 0.92772 0.40112 -0.16492
 C177 C 1.07350 0.47415 -0.16514
 N178 N 0.53429 0.57018 0.08077
 N179 N 0.54355 0.60202 0.09814
 N180 N 0.54919 0.51350 0.13226
 N181 N 0.56616 0.50786 0.18566
 N182 N 0.57015 0.53441 0.08069
 N183 N 0.60206 0.54363 0.09794
 N184 N 0.51335 0.54924 0.13231
 N185 N 0.50772 0.56616 0.18581
 C186 C 0.52621 0.59887 0.16306
 C187 C 0.59892 0.52630 0.16280
 N188 N 0.46488 0.42928 0.07960
 N189 N 0.45568 0.39742 0.09641
 N190 N 0.44987 0.48582 0.13151
 N191 N 0.43280 0.49145 0.18464
 N192 N 0.42903 0.46504 0.07953
 N193 N 0.39710 0.45587 0.09623
 N194 N 0.48570 0.45010 0.13156
 N195 N 0.49132 0.43308 0.18478
 Mn196 Mn 0.49952 0.49966 0.13242
 C197 C 0.47294 0.40044 0.16143
 C198 C 0.40011 0.47311 0.16120
 N199 N 0.57033 0.53458 -0.08354
 N200 N 0.60226 0.54367 -0.10008
 N201 N 0.51365 0.54952 -0.13551
 N202 N 0.50789 0.56657 -0.18844
 N203 N 0.53444 0.57031 -0.08347
 N204 N 0.54347 0.60216 -0.09989
 N205 N 0.54950 0.51381 -0.13556
 N206 N 0.56660 0.50813 -0.18859
 Mn207 Mn 0.55263 0.55269 -0.00140
 C208 C 0.59929 0.52642 -0.16503
 C209 C 0.52616 0.59917 -0.16478
 N210 N 0.42916 0.46521 -0.08471
 N211 N 0.39726 0.45607 -0.10179
 N212 N 0.48598 0.45038 -0.13626
 N213 N 0.49177 0.43344 -0.18945
 N214 N 0.46507 0.42947 -0.08464
 N215 N 0.45599 0.39764 -0.10161
 N216 N 0.45011 0.48610 -0.13631
 N217 N 0.43312 0.49181 -0.18959
 Mn218 Mn 0.44671 0.44692 -0.00256
 Mn219 Mn 0.49982 0.49996 -0.13645
 Cl220 Cl 0.49967 0.49981 -0.00200
 C221 C 0.40037 0.47341 -0.16663
 C222 C 0.47340 0.40077 -0.16639
 N223 N 0.42916 -0.03659 0.08334
 N224 N 0.39726 -0.05917 0.10072
 N225 N 0.48587 0.03505 0.13483
 N226 N 0.49160 0.05778 0.18795
 N227 N 0.46492 0.03498 0.08312
 N228 N 0.45574 0.05768 0.09995
 N229 N 0.45015 -0.03646 0.13505
 N230 N 0.43321 -0.05893 0.18864
 C231 C 0.40043 -0.07323 0.16580
 C232 C 0.47315 0.07201 0.16475
 N233 N 0.57033 0.03521 0.08272
 N234 N 0.60224 0.05802 0.09942
 N235 N 0.51373 -0.03630 0.13467
 N236 N 0.50812 -0.05892 0.18789
 N237 N 0.53456 -0.03634 0.08280
 N238 N 0.54378 -0.05900 0.09966
 N239 N 0.54946 0.03519 0.13456
 N240 N 0.56651 0.05796 0.18762
 Mn241 Mn 0.49981 -0.00062 0.13529
 C242 C 0.59920 0.07231 0.16427
 C243 C 0.52651 -0.07320 0.16461
 N244 N 0.46479 0.03490 -0.08105
 N245 N 0.45574 0.05772 -0.09755
 N246 N 0.44995 -0.03659 -0.13287
 N247 N 0.43291 -0.05926 -0.18609
 N248 N 0.42907 -0.03666 -0.08099
 N249 N 0.39715 -0.05939 -0.09785
 N250 N 0.48564 0.03491 -0.13293
 N251 N 0.49141 0.05771 -0.18585
 Mn252 Mn 0.44665 -0.00085 0.00109
 C253 C 0.47308 0.07204 -0.16236
 C254 C 0.40021 -0.07360 -0.16280
 N255 N 0.53443 -0.03647 -0.08145
 N256 N 0.54361 -0.05916 -0.09836
 N257 N 0.54924 0.03504 -0.13319
 N258 N 0.56621 0.05784 -0.18618
 N259 N 0.57018 0.03512 -0.08143
 N260 N 0.60206 0.05799 -0.09808
 N261 N 0.51352 -0.03649 -0.13322
 N262 N 0.50783 -0.05918 -0.18642
 Mn263 Mn 0.55270 -0.00062 0.00066
 Mn264 Mn 0.49959 -0.00078 -0.13359
 Cl265 Cl 0.49968 -0.00073 0.00086
 C266 C 0.52626 -0.07345 -0.16326
 C267 C 0.59893 0.07226 -0.16284
 C268 C 1.15069 0.46108 0.36583
 C269 C 1.13513 0.46310 0.31236
 C270 C 1.11517 0.46620 0.25471
 C271 C 1.09676 0.46945 0.21018
 C272 C 0.53896 0.68927 0.36450
 C273 C 0.53695 0.67161 0.31130
 C274 C 0.53390 0.64848 0.25395
 C275 C 0.53071 0.62681 0.20964
 C276 C 0.31012 -0.15057 0.36781
 C277 C 0.32771 -0.13500 0.31443
 C278 C 0.35079 -0.11502 0.25689
 C279 C 0.37245 -0.09661 0.21246
 C280 C 0.84980 0.53947 0.36368
 C281 C 0.86549 0.53756 0.31045
 C282 C 0.88561 0.53460 0.25309
 C283 C 0.90416 0.53147 0.20886
 C284 C 0.46038 0.31016 0.36241
 C285 C 0.46230 0.32771 0.30913
 C286 C 0.46528 0.35075 0.25178
 C287 C 0.46844 0.37243 0.20760
 C288 C 0.69011 0.15085 0.36396
 C289 C 0.67235 0.13503 0.31100
 C290 C 0.64909 0.11473 0.25405
 C291 C 0.62729 0.09603 0.21020
 C292 C 0.46075 0.15075 -0.36117
 C293 C 0.46274 0.13495 -0.30830
 C294 C 0.46571 0.11460 -0.25161
 C295 C 0.46879 0.09584 -0.20802
 C296 C 0.69020 0.53898 -0.36481
 C297 C 0.67251 0.53697 -0.31166
 C298 C 0.64925 0.53395 -0.25466
 C299 C 0.62742 0.53081 -0.21084
 C300 C 0.84956 0.31039 -0.36521
 C301 C 0.86524 0.32806 -0.31201
 C302 C 0.88542 0.35127 -0.25488
 C303 C 0.90406 0.37305 -0.21092
 C304 C 0.53889 -0.15167 -0.36336
 C305 C 0.53686 -0.13599 -0.31023
 C306 C 0.53381 -0.11576 -0.25323
 C307 C 0.53065 -0.09711 -0.20933
 C308 C 0.30941 0.46087 -0.36689
 C309 C 0.32718 0.46290 -0.31380
 C310 C 0.35049 0.46593 -0.25680
 C311 C 0.37231 0.46906 -0.21284
 C312 C 1.15145 0.69062 -0.36569
 C313 C 1.13573 0.67286 -0.31267
 C314 C 1.11549 0.64957 -0.25573
 C315 C 1.09685 0.62778 -0.21184
 C316 C 0.84902 0.53907 -0.36534
 C317 C 0.86473 0.53705 -0.31223
 C318 C 0.88496 0.53404 -0.25520
 C319 C 0.90364 0.53093 -0.21129
 C320 C 0.46080 0.31009 -0.36658
 C321 C 0.46285 0.32781 -0.31351
 C322 C 0.46590 0.35104 -0.25649
 C323 C 0.46905 0.37279 -0.21253
 C324 C 0.69000 0.15101 -0.36167
 C325 C 0.67217 0.13518 -0.30889
 C326 C 0.64882 0.11483 -0.25224
 C327 C 0.62698 0.09607 -0.20862
 C328 C 1.15091 0.46126 -0.36660
 C329 C 1.13542 0.46331 -0.31315
 C330 C 1.11548 0.46642 -0.25565
 C331 C 1.09701 0.46965 -0.21139
 C332 C 0.53877 0.68981 -0.36451
 C333 C 0.53675 0.67216 -0.31137
 C334 C 0.53370 0.64899 -0.25435
 C335 C 0.53055 0.62722 -0.21053
 C336 C 0.30995 -0.15083 -0.36463
 C337 C 0.32746 -0.13538 -0.31107
 C338 C 0.35048 -0.11548 -0.25345
 C339 C 0.37217 -0.09706 -0.20910
 C340 C 0.53932 -0.15064 0.36567
 C341 C 0.53735 -0.13504 0.31245
 C342 C 0.53430 -0.11506 0.25506
 C343 C 0.53107 -0.09663 0.21083
 C344 C 0.30973 0.46043 0.36216
 C345 C 0.32729 0.46236 0.30888
 C346 C 0.35035 0.46538 0.25149
 C347 C 0.37205 0.46858 0.20731
 C348 C 1.15082 0.69028 0.36335
 C349 C 1.13524 0.67271 0.31003
 C350 C 1.11526 0.64965 0.25259
 C351 C 1.09681 0.62796 0.20834
 C352 C 0.46056 0.15026 0.36446
 C353 C 0.46254 0.13446 0.31158
 C354 C 0.46557 0.11424 0.25467
 C355 C 0.46873 0.09562 0.21078
 C356 C 0.68942 0.53917 0.36421
 C357 C 0.67175 0.53715 0.31102
 C358 C 0.64861 0.53406 0.25363
 C359 C 0.62691 0.53083 0.20931
 C360 C 0.85031 0.31100 0.36379
 C361 C 0.86596 0.32864 0.31064
 C362 C 0.88603 0.35175 0.25338
 C363 C 0.90452 0.37344 0.20920
   
