data_POSCAR
  _audit_creation_date              2014-09-24
  _audit_creation_method            'ToBaCCo'
  _symmetry_space_group_name_H-M    'P1'
  _symmetry_Int_Tables_number       1
  _symmetry_cell_setting            triclinic
  loop_
  _symmetry_equiv_pos_as_xyz
 x,y,z
_cell_length_a 24.6409
_cell_length_b 41.0452
_cell_length_c 14.5769
_cell_angle_alpha 90.008400
_cell_angle_beta 90.062700
_cell_angle_gamma 90.098100
loop_
  _atom_site_label
  _atom_site_type_symbol
  _atom_site_fract_x
  _atom_site_fract_y
  _atom_site_fract_z
C1 C 0.70746 0.31438 0.58298
 C2 C 0.69812 0.32943 0.49767
 C3 C 0.70739 0.31364 0.41410
 C4 C 0.72737 0.28140 0.41460
 C5 C 0.73770 0.26542 0.49927
 C6 C 0.72740 0.28182 0.58361
 C7 C 0.73865 0.26538 0.66609
 C8 C 0.75747 0.23353 0.66641
 C9 C 0.76810 0.21671 0.58426
 C10 C 0.75793 0.23281 0.49948
 C11 C 0.73720 0.26473 0.33229
 C12 C 0.75607 0.23291 0.33236
 C13 C 0.76760 0.21644 0.41486
 C14 C 0.78673 0.18380 0.41495
 C15 C 0.79525 0.16837 0.49991
 C16 C 0.78699 0.18400 0.58464
 H17 H 0.73359 0.27679 0.73224
 H18 H 0.76269 0.22235 0.73285
 H19 H 0.73036 0.27608 0.26633
 H20 H 0.76040 0.22140 0.26618
 H21 H 0.67810 0.35284 0.49530
 H22 H 0.81560 0.14510 0.50011
 C23 C 0.20269 0.81337 0.58307
 C24 C 0.19149 0.82834 0.49885
 C25 C 0.20368 0.81349 0.41489
 C26 C 0.22731 0.78209 0.41480
 C27 C 0.23871 0.76627 0.49942
 C28 C 0.22623 0.78194 0.58368
 C29 C 0.23761 0.76579 0.66631
 C30 C 0.25995 0.73472 0.66676
 C31 C 0.27331 0.71859 0.58448
 C32 C 0.26214 0.73455 0.49973
 C33 C 0.24003 0.76615 0.33234
 C34 C 0.26248 0.73511 0.33250
 C35 C 0.27400 0.71888 0.41515
 C36 C 0.29657 0.68727 0.41524
 C37 C 0.30687 0.67190 0.49913
 C38 C 0.29559 0.68661 0.58425
 H39 H 0.22924 0.77693 0.73202
 H40 H 0.26560 0.72352 0.73307
 H41 H 0.23284 0.77749 0.26648
 H42 H 0.27024 0.72389 0.26667
 H43 H 0.17001 0.85135 0.49859
 H44 H 0.32864 0.64904 0.49737
 C45 C 0.20571 0.18666 -0.41578
 C46 C 0.19584 0.17134 -0.49990
 C47 C 0.20607 0.18653 -0.58475
 C48 C 0.22695 0.21892 -0.58433
 C49 C 0.23789 0.23481 -0.49941
 C50 C 0.22707 0.21861 -0.41516
 C51 C 0.23818 0.23471 -0.33219
 C52 C 0.25883 0.26619 -0.33134
 C53 C 0.27018 0.28276 -0.41341
 C54 C 0.25965 0.26705 -0.49853
 C55 C 0.23875 0.23564 -0.66622
 C56 C 0.25924 0.26720 -0.66537
 C57 C 0.27093 0.28342 -0.58257
 C58 C 0.29211 0.31575 -0.58123
 C59 C 0.30193 0.33046 -0.49554
 C60 C 0.29154 0.31470 -0.41229
 H61 H 0.23139 0.22309 -0.26660
 H62 H 0.26549 0.27743 -0.26515
 H63 H 0.23293 0.22464 -0.73278
 H64 H 0.26513 0.27859 -0.73134
 H65 H 0.17494 0.14815 -0.49847
 H66 H 0.32292 0.35360 -0.49254
 C67 C -0.28553 0.68334 -0.41746
 C68 C -0.29370 0.66807 -0.50279
 C69 C -0.28558 0.68398 -0.58713
 C70 C -0.26725 0.71682 -0.58603
 C71 C -0.25734 0.73278 -0.50093
 C72 C -0.26678 0.71612 -0.41665
 C73 C -0.25545 0.73247 -0.33383
 C74 C -0.23704 0.76443 -0.33311
 C75 C -0.22749 0.78139 -0.41507
 C76 C -0.23760 0.76553 -0.50005
 C77 C -0.25693 0.73394 -0.66784
 C78 C -0.23865 0.76592 -0.66687
 C79 C -0.22757 0.78222 -0.58406
 C80 C -0.20803 0.81489 -0.58283
 C81 C -0.19891 0.82982 -0.49725
 C82 C -0.20797 0.81378 -0.41396
 H83 H -0.25958 0.72076 -0.26789
 H84 H -0.23035 0.77566 -0.26692
 H85 H -0.26200 0.72288 -0.73451
 H86 H -0.23386 0.77754 -0.73279
 H87 H -0.31372 0.64466 -0.50368
 H88 H -0.17917 0.85335 -0.49449
 N89 N -0.05856 0.94186 -0.09817
 N90 N -0.09449 0.91900 -0.11842
 N91 N 0.05535 0.96515 -0.16174
 N92 N 0.09118 0.95884 -0.22643
 N93 N 0.05516 0.94194 -0.09972
 N94 N 0.09049 0.91899 -0.12134
 N95 N -0.05902 0.96495 -0.16054
 N96 N -0.09574 0.95867 -0.22404
 C97 C -0.11787 0.93016 -0.19649
 C98 C 0.11315 0.93021 -0.19990
 N99 N 0.05498 1.05863 -0.10044
 N100 N 0.09066 1.08148 -0.12178
 N101 N -0.05910 1.03494 -0.16101
 N102 N -0.09558 1.04079 -0.22501
 N103 N -0.05880 1.05832 -0.09947
 N104 N -0.09467 1.08103 -0.12103
 N105 N 0.05521 1.03531 -0.16220
 N106 N 0.09143 1.04147 -0.22645
 Mn107 Mn -0.00185 1.00009 -0.16208
 C108 C 0.11356 1.07012 -0.19995
 C109 C -0.11780 1.06936 -0.19887
 N110 N 0.05627 0.94213 0.09863
 N111 N 0.09161 0.91915 0.11995
 N112 N -0.05722 0.96544 0.16205
 N113 N -0.09283 0.95942 0.22722
 N114 N -0.05749 0.94206 0.10055
 N115 N -0.09290 0.91918 0.12324
 N116 N 0.05707 0.96547 0.16026
 N117 N 0.09336 0.95921 0.22438
 Mn118 Mn -0.00119 0.94167 0.00030
 C119 C 0.11498 0.93049 0.19788
 C120 C -0.11516 0.93075 0.20179
 N121 N -0.05785 1.05850 0.09957
 N122 N -0.09392 1.08107 0.12127
 N123 N 0.05685 1.03548 0.15966
 N124 N 0.09292 1.04181 0.22400
 N125 N 0.05595 1.05889 0.09824
 N126 N 0.09105 1.08206 0.12016
 N127 N -0.05741 1.03525 0.16146
 N128 N -0.09357 1.04104 0.22589
 Mn129 Mn -0.00147 1.05895 -0.00055
 Mn130 Mn -0.00013 1.00042 0.16144
 Cl131 Cl -0.00115 1.00029 -0.00026
 C132 C -0.11636 1.06945 0.19966
 C133 C 0.11435 1.07066 0.19811
 N134 N 0.44548 0.46586 0.16298
 N135 N 0.41024 0.45993 0.22883
 N136 N 0.55853 0.44180 0.09835
 N137 N 0.59404 0.41881 0.11885
 N138 N 0.55977 0.46512 0.16004
 N139 N 0.59660 0.45887 0.22329
 N140 N 0.44480 0.44237 0.10175
 N141 N 0.40942 0.41958 0.12521
 C142 C 0.38765 0.43126 0.20400
 C143 C 0.61800 0.43014 0.19632
 N144 N 0.55636 0.46468 -0.16226
 N145 N 0.59192 0.45850 -0.22734
 N146 N 0.44269 0.44202 -0.09683
 N147 N 0.40647 0.41929 -0.11674
 N148 N 0.44207 0.46519 -0.15896
 N149 N 0.40500 0.45909 -0.22199
 N150 N 0.55646 0.44143 -0.10038
 N151 N 0.59172 0.41848 -0.12271
 Mn152 Mn 0.50063 0.44156 0.00073
 C153 C 0.61402 0.42987 -0.20149
 C154 C 0.38277 0.43063 -0.19435
 N155 N 0.56105 0.53507 0.15885
 N156 N 0.59798 0.54092 0.22215
 N157 N 0.44696 0.55907 0.09955
 N158 N 0.41158 0.58204 0.12073
 N159 N 0.44675 0.53594 0.16183
 N160 N 0.41080 0.54233 0.22629
 N161 N 0.56071 0.55834 0.09699
 N162 N 0.59703 0.58097 0.11764
 Mn163 Mn 0.50324 0.50051 0.16159
 C164 C 0.62045 0.56936 0.19524
 C165 C 0.38886 0.57094 0.19940
 N166 N 0.44351 0.53517 -0.16004
 N167 N 0.40744 0.54152 -0.22430
 N168 N 0.55878 0.55795 -0.10189
 N169 N 0.59487 0.58044 -0.12459
 N170 N 0.55775 0.53456 -0.16337
 N171 N 0.59350 0.54022 -0.22863
 N172 N 0.44502 0.55875 -0.09913
 N173 N 0.41036 0.58204 -0.12137
 Mn174 Mn 0.49989 0.49990 -0.16176
 Mn175 Mn 0.50290 0.55888 -0.00110
 Cl176 Cl 0.50165 0.50021 -0.00012
 C177 C 0.38665 0.57054 -0.19891
 C178 C 0.61670 0.56866 -0.20322
 C179 C 0.30826 0.33242 0.33781
 C180 C 0.31181 0.36503 0.33266
 C181 C 0.33995 0.38177 0.25693
 C182 C 0.34986 0.41368 0.26403
 H183 H 0.29586 0.38004 0.38746
 H184 H 0.35705 0.36776 0.20097
 H185 H 0.32006 0.31868 0.27782
 H186 H 0.33413 0.42704 0.32239
 C187 C -0.19240 0.83166 0.33611
 C188 C -0.19013 0.86427 0.33035
 C189 C -0.16222 0.88110 0.25458
 C190 C -0.15314 0.91309 0.26120
 H191 H -0.20680 0.87921 0.38472
 H192 H -0.14440 0.86711 0.19921
 H193 H -0.17973 0.81796 0.27653
 H194 H -0.16949 0.92645 0.31908
 C195 C 0.69859 0.66790 0.33069
 C196 C 0.69769 0.63533 0.32209
 C197 C 0.66857 0.61885 0.24687
 C198 C 0.65992 0.58679 0.25256
 H199 H 0.71597 0.62013 0.37442
 H200 H 0.64927 0.63310 0.19343
 H201 H 0.68435 0.68206 0.27298
 H202 H 0.67761 0.57319 0.30890
 C203 C 0.19067 1.17017 0.33335
 C204 C 0.18835 1.13756 0.32689
 C205 C 0.16056 1.12074 0.25082
 C206 C 0.15237 1.08863 0.25688
 H207 H 0.20492 1.12256 0.38128
 H208 H 0.14207 1.13472 0.19603
 H209 H 0.17853 1.18410 0.27385
 H210 H 0.16950 1.07530 0.31423
 C211 C 0.69173 0.33091 -0.33567
 C212 C 0.68932 0.36351 -0.32951
 C213 C 0.66116 0.38021 -0.25383
 C214 C 0.65212 0.41220 -0.26048
 H215 H 0.70605 0.37855 -0.38366
 H216 H 0.64316 0.36617 -0.19869
 H217 H 0.67913 0.31706 -0.27629
 H218 H 0.66867 0.42558 -0.31821
 C219 C 0.18454 0.83009 -0.33169
 C220 C 0.18854 0.86243 -0.32212
 C221 C 0.15915 0.88003 -0.24959
 C222 C 0.15149 0.91212 -0.25757
 H223 H 0.20990 0.87652 -0.37370
 H224 H 0.13916 0.86647 -0.19544
 H225 H 0.16377 0.81600 -0.27956
 H226 H 0.16949 0.92510 -0.31475
 C227 C 0.31091 0.67015 -0.33406
 C228 C 0.31393 0.63755 -0.32853
 C229 C 0.34118 0.62070 -0.25209
 C230 C 0.34906 0.58858 -0.25807
 H231 H 0.29817 0.62260 -0.38380
 H232 H 0.35946 0.63465 -0.19696
 H233 H 0.32209 0.68401 -0.27383
 H234 H 0.33199 0.57528 -0.31558
 C235 C -0.19686 1.16781 -0.33355
 C236 C -0.19519 1.13522 -0.32577
 C237 C -0.16598 1.11877 -0.25068
 C238 C -0.15688 1.08676 -0.25687
 H239 H -0.21306 1.11999 -0.37852
 H240 H -0.14719 1.13301 -0.19663
 H241 H -0.18303 1.18193 -0.27541
 H242 H -0.17414 1.07318 -0.31369
 C243 C 0.69823 0.66681 -0.33621
 C244 C 0.69565 0.63420 -0.32956
 C245 C 0.66624 0.61769 -0.25476
 C246 C 0.65559 0.58586 -0.26216
 H247 H 0.71291 0.61900 -0.38281
 H248 H 0.64869 0.63187 -0.19954
 H249 H 0.68488 0.68076 -0.27752
 H250 H 0.67160 0.57236 -0.32002
 C251 C 0.18736 1.16988 -0.33054
 C252 C 0.19137 1.13756 -0.32038
 C253 C 0.16106 1.12005 -0.24859
 C254 C 0.15261 1.08802 -0.25701
 H255 H 0.21321 1.12340 -0.37112
 H256 H 0.14104 1.13369 -0.19470
 H257 H 0.16599 1.18393 -0.27910
 H258 H 0.17064 1.07497 -0.31398
 C259 C 0.30939 0.33105 -0.32606
 C260 C 0.30471 0.36328 -0.31452
 C261 C 0.33510 0.38068 -0.24252
 C262 C 0.34306 0.41277 -0.25031
 H263 H 0.28251 0.37750 -0.36474
 H264 H 0.35584 0.36696 -0.18952
 H265 H 0.33111 0.31685 -0.27529
 H266 H 0.32436 0.42590 -0.30658
 C267 C -0.19016 0.83030 -0.32790
 C268 C -0.19555 0.86248 -0.31609
 C269 C -0.16515 0.88006 -0.24444
 C270 C -0.15732 0.91215 -0.25261
 H271 H -0.21838 0.87657 -0.36580
 H272 H -0.14434 0.86646 -0.19127
 H273 H -0.16770 0.81632 -0.27759
 H274 H -0.17602 0.92517 -0.30909
 C275 C 0.31509 0.67076 0.32975
 C276 C 0.31125 0.63843 0.31938
 C277 C 0.34165 0.62097 0.24770
 C278 C 0.34995 0.58895 0.25627
 H279 H 0.28943 0.62420 0.37008
 H280 H 0.36178 0.63461 0.19386
 H281 H 0.33632 0.68499 0.27845
 H282 H 0.33181 0.57593 0.31327
 C283 C -0.19708 1.16754 0.33332
 C284 C -0.19481 1.13496 0.32595
 C285 C -0.16543 1.11858 0.25100
 C286 C -0.15551 1.08668 0.25776
 H287 H -0.21228 1.11969 0.37891
 H288 H -0.14720 1.13285 0.19654
 H289 H -0.18364 1.18166 0.27496
 H290 H -0.17221 1.07310 0.31498
 C291 C 0.68941 0.33022 0.32833
 C292 C 0.69472 0.36242 0.31684
 C293 C 0.66452 0.37996 0.24499
 C294 C 0.65721 0.41210 0.25263
 H295 H 0.71745 0.37653 0.36676
 H296 H 0.64350 0.36633 0.19203
 H297 H 0.66706 0.31622 0.27780
 H298 H 0.67619 0.42517 0.30881
 C299 C 0.18630 0.83025 0.32921
 C300 C 0.19021 0.86261 0.32007
 C301 C 0.16103 0.88026 0.24731
 C302 C 0.15345 0.91236 0.25536
 H303 H 0.21116 0.87666 0.37231
 H304 H 0.14103 0.86674 0.19303
 H305 H 0.16603 0.81616 0.27642
 H306 H 0.17155 0.92532 0.31258
   
