data_POSCAR
  _audit_creation_date              2014-09-24
  _audit_creation_method            'ToBaCCo'
  _symmetry_space_group_name_H-M    'P1'
  _symmetry_Int_Tables_number       1
  _symmetry_cell_setting            triclinic
  loop_
  _symmetry_equiv_pos_as_xyz
 x,y,z
_cell_length_a 24.8068
_cell_length_b 24.7342
_cell_length_c 24.8344
_cell_angle_alpha 89.971700
_cell_angle_beta 89.678200
_cell_angle_gamma 88.749600
loop_
  _atom_site_label
  _atom_site_type_symbol
  _atom_site_fract_x
  _atom_site_fract_y
  _atom_site_fract_z
N1 N 0.14197 0.14771 0.14685
 N2 N -0.14319 0.85244 0.15208
 N3 N -0.15299 0.15158 -0.14796
 N4 N 0.14217 0.85458 -0.14394
 N5 N 0.15045 1.14760 0.84623
 N6 N 0.85609 0.85629 0.84926
 N7 N 0.14608 0.84625 1.15022
 N8 N 0.85477 1.14634 1.14451
 O9 O 0.42603 1.09606 1.10049
 O10 O 0.36539 1.04671 1.05254
 C11 C 0.37724 1.08353 1.08743
 O12 O 0.57204 1.08732 0.90184
 O13 O 0.63236 1.03794 0.95260
 C14 C 0.62064 1.07198 0.91447
 O15 O 0.42209 1.10305 0.91958
 O16 O 0.36305 1.04706 0.96234
 C17 C 0.37368 1.08817 0.93183
 O18 O 0.57731 1.08434 1.10349
 O19 O 0.63496 1.03691 1.04757
 C20 C 0.62527 1.06970 1.08740
 Zr21 Zr 0.50116 1.06406 1.07222
 O22 O 0.50915 1.14913 1.06965
 O23 O 0.49669 1.06675 1.15726
 Zr24 Zr 0.49753 1.06513 0.93633
 O25 O 0.50657 1.14987 0.93284
 O26 O 0.48596 1.06394 0.85192
 O27 O 0.45149 1.07658 1.00598
 O28 O 0.54661 1.07304 1.00287
 O29 O 0.57615 0.89594 1.09585
 O30 O 0.63447 0.94624 1.04532
 C31 C 0.62426 0.90937 1.08085
 O32 O 0.41965 0.89840 0.91464
 O33 O 0.36179 0.95309 0.96372
 C34 C 0.37165 0.91388 0.93012
 O35 O 0.57135 0.90100 0.90237
 O36 O 0.63227 0.94784 0.95258
 C37 C 0.62026 0.91365 0.91513
 O38 O 0.42479 0.89968 1.09988
 O39 O 0.36479 0.95365 1.05323
 C40 C 0.37623 0.91606 1.08805
 Zr41 Zr 0.49984 0.92752 1.07137
 O42 O 0.49683 0.84215 1.07594
 O43 O 0.49856 0.93175 1.15660
 Zr44 Zr 0.49619 0.92870 0.93504
 O45 O 0.50107 0.84324 0.93228
 O46 O 0.48699 0.93170 0.85037
 Zr47 Zr 0.41856 0.99861 1.00607
 Zr48 Zr 0.57911 0.99376 1.00121
 O49 O 0.54468 0.91674 1.00145
 O50 O 0.45018 0.91884 1.00473
 O51 O 0.54892 0.99401 1.08081
 O52 O 0.44947 0.99848 0.92709
 O53 O 0.45391 0.99718 1.08296
 O54 O 0.54470 0.99547 0.92368
 H55 H 0.57174 1.10364 1.00237
 H56 H 0.42343 0.99959 0.89697
 H57 H 0.56885 0.88440 0.99956
 H58 H 0.43052 0.99791 1.11543
 H59 H 0.51623 1.04266 0.83592
 H60 H 0.51893 0.94970 0.83526
 H61 H 0.47782 0.82977 0.96165
 H62 H 0.51874 0.82689 1.04605
 H63 H 0.53408 0.94443 1.16865
 H64 H 0.51987 1.03682 1.17093
 H65 H 0.47522 1.16490 1.05515
 H66 H 0.48675 1.16538 0.96402
 O67 O 0.06628 0.42305 -0.12467
 O68 O 0.03524 0.36390 -0.06102
 C69 C 0.05958 0.37450 -0.10605
 O70 O 0.11775 0.57191 0.06434
 O71 O 0.05534 0.63270 0.03057
 C72 C 0.09930 0.62078 0.05634
 O73 O 0.12142 0.41973 0.05614
 O74 O 0.05734 0.36286 0.02379
 C75 C 0.10298 0.37191 0.04683
 O76 O 0.06117 0.57591 -0.12556
 O77 O 0.03107 0.63424 -0.05964
 C78 C 0.05339 0.62420 -0.10590
 Zr79 Zr 0.04775 0.49949 -0.08899
 O80 O 0.13123 0.50332 -0.10666
 O81 O 0.03192 0.49806 -0.17245
 Zr82 Zr 0.08475 0.49675 0.04181
 O83 O 0.16682 0.50113 0.01883
 O84 O 0.10689 0.48895 0.12371
 O85 O 0.07632 0.44972 -0.02725
 O86 O 0.07562 0.54504 -0.02565
 O87 O -0.11709 0.57920 -0.07111
 O88 O -0.05485 0.63615 -0.03545
 C89 C -0.09889 0.62703 -0.06143
 O90 O -0.07004 0.42304 0.11049
 O91 O -0.03333 0.36369 0.04865
 C92 C -0.06093 0.37460 0.09202
 O93 O -0.06218 0.57473 0.11757
 O94 O -0.03031 0.63386 0.05436
 C95 C -0.05336 0.62319 0.09995
 O96 O -0.12060 0.42700 -0.06747
 O97 O -0.05647 0.36627 -0.03714
 C98 C -0.10229 0.37810 -0.05947
 Zr99 Zr -0.08383 0.50194 -0.05117
 O100 O -0.16593 0.50947 -0.02809
 O101 O -0.10620 0.49791 -0.13322
 Zr102 Zr -0.04649 0.49895 0.07975
 O103 O -0.12819 0.50710 0.10407
 O104 O -0.02264 0.49038 0.16108
 Zr105 Zr 0.00046 0.41908 -0.00584
 Zr106 Zr 0.00041 0.57941 -0.00344
 O107 O -0.07467 0.54744 0.01776
 O108 O -0.07531 0.45257 0.01646
 O109 O -0.02097 0.54890 -0.07958
 O110 O 0.02173 0.45066 0.06956
 O111 O -0.02082 0.45403 -0.08027
 O112 O 0.02198 0.54575 0.07161
 H113 H 0.10574 0.56938 -0.03404
 H114 H 0.03001 0.42523 0.09938
 H115 H -0.10504 0.57249 0.02697
 H116 H -0.02967 0.43011 -0.11081
 H117 H 0.09130 0.52050 0.14322
 H118 H 0.00236 0.51989 0.16906
 H119 H -0.14839 0.47866 0.08546
 H120 H -0.17333 0.47998 -0.00237
 H121 H -0.09192 0.53022 -0.15147
 H122 H -0.00761 0.50123 -0.17629
 H123 H 0.14766 0.46727 -0.09933
 H124 H 0.17346 0.47345 -0.00929
 O125 O 0.93607 0.12507 0.42282
 O126 O 0.96918 0.05973 0.36523
 C127 C 0.94506 0.10570 0.37486
 O128 O 1.12252 0.06452 0.57430
 O129 O 1.05720 0.03826 0.63379
 C130 C 1.10361 0.05875 0.62279
 O131 O 1.11831 0.07101 0.42335
 O132 O 1.05686 0.03484 0.36583
 C133 C 1.10039 0.06099 0.37551
 O134 O 0.92994 0.12371 0.57506
 O135 O 0.96612 0.06198 0.63458
 C136 C 0.93886 0.10583 0.62351
 Zr137 Zr 0.95274 0.08975 0.49937
 O138 O 0.97541 0.17163 0.50392
 O139 O 0.87054 0.11374 0.49339
 Zr140 Zr 1.08434 0.05138 0.49926
 O141 O 1.10247 0.13448 0.50480
 O142 O 1.16746 0.03145 0.49282
 O143 O 1.02126 0.07978 0.45094
 O144 O 1.02110 0.08081 0.54606
 O145 O 0.88075 -0.05552 0.57793
 O146 O 0.94428 -0.02325 0.63574
 C147 C 0.89885 -0.04606 0.62590
 O148 O 1.06541 -0.11822 0.42649
 O149 O 1.03237 -0.05499 0.36690
 C150 C 1.05633 -0.10066 0.37801
 O151 O 1.07250 -0.11111 0.57781
 O152 O 1.03512 -0.04862 0.63616
 C153 C 1.06305 -0.09243 0.62585
 O154 O 0.88448 -0.06416 0.42650
 O155 O 0.94616 -0.03035 0.36672
 C156 C 0.90259 -0.05606 0.37806
 Zr157 Zr 0.91751 -0.04189 0.50183
 O158 O 0.89753 -0.12435 0.50955
 O159 O 0.83482 -0.01995 0.49605
 Zr160 Zr 1.04904 -0.08009 0.50169
 O161 O 1.02657 -0.16179 0.50978
 O162 O 1.13120 -0.10435 0.49498
 Zr163 Zr 1.00082 0.00335 0.42049
 Zr164 Zr 1.00082 0.00613 0.58042
 O165 O 0.98076 -0.06967 0.54882
 O166 O 0.98052 -0.07195 0.45391
 O167 O 0.92483 0.02769 0.54836
 O168 O 1.07619 -0.01794 0.45382
 O169 O 0.92552 0.02590 0.45400
 O170 O 1.07688 -0.01654 0.54827
 H171 H 1.02923 0.11130 0.57036
 H172 H 1.10686 -0.02739 0.42963
 H173 H 0.97275 -0.09950 0.57407
 H174 H 0.89491 0.03434 0.42973
 H175 H 1.17409 -0.00075 0.51561
 H176 H 1.15068 -0.08784 0.52525
 H177 H 1.00133 -0.16964 0.48025
 H178 H 0.91181 -0.14358 0.47741
 H179 H 0.82758 0.00900 0.52272
 H180 H 0.85122 0.09739 0.52407
 H181 H 1.00055 0.17828 0.47370
 H182 H 1.09052 0.15211 0.47101
 C183 C 1.11391 0.12275 0.19048
 C184 C 1.14008 0.10533 0.23418
 C185 C 1.11002 0.08355 0.28008
 C186 C 1.13164 0.08046 0.32920
 H187 H 1.18338 0.10955 0.23689
 H188 H 1.06858 0.07198 0.27390
 H189 H 1.07020 0.12212 0.18976
 H190 H 1.17212 0.09459 0.33589
 C191 C 0.88726 -0.12808 0.19671
 C192 C 0.86267 -0.10631 0.23968
 C193 C 0.89411 -0.08617 0.28494
 C194 C 0.87131 -0.07711 0.33303
 H195 H 0.81900 -0.10419 0.24169
 H196 H 0.93681 -0.07948 0.27897
 H197 H 0.93076 -0.13361 0.19637
 H198 H 0.82939 -0.08673 0.33982
 C199 C 0.86552 0.12149 0.80576
 C200 C 0.88616 0.14609 0.76260
 C201 C 0.90698 0.11443 0.71663
 C202 C 0.91662 0.13748 0.66890
 H203 H 0.88755 0.18984 0.76126
 H204 H 0.91411 0.07132 0.72189
 H205 H 0.86100 0.07796 0.80540
 H206 H 0.90658 0.17988 0.66264
 C207 C 1.10838 -0.12058 0.81604
 C208 C 1.11147 -0.13659 0.76487
 C209 C 1.08213 -0.10733 0.72213
 C210 C 1.08697 -0.12311 0.67086
 H211 H 1.13792 -0.17046 0.75426
 H212 H 1.05805 -0.07167 0.73246
 H213 H 1.08433 -0.08506 0.82683
 H214 H 1.11126 -0.15882 0.66118
 C215 C 0.18592 1.11897 1.12158
 C216 C 0.23679 1.13145 1.13176
 C217 C 0.28120 1.10178 1.10485
 C218 C 0.33267 1.11300 1.11454
 H219 H 0.24526 1.16371 1.15980
 H220 H 0.27141 1.07017 1.07651
 H221 H 0.17695 1.08661 1.09383
 H222 H 0.34233 1.14447 1.14306
 C223 C 0.18284 0.88738 0.87968
 C224 C 0.23138 0.86640 0.89163
 C225 C 0.27483 0.90024 0.91239
 C226 C 0.32625 0.88317 0.90880
 H227 H 0.23975 0.82392 0.88376
 H228 H 0.26481 0.93944 0.92971
 H229 H 0.17558 0.93063 0.88343
 H230 H 0.33567 0.84501 0.88903
 C231 C 0.81295 0.88484 1.13155
 C232 C 0.76564 0.86286 1.12090
 C233 C 0.72040 0.89606 1.10059
 C234 C 0.66987 0.87884 1.10421
 H235 H 0.76015 0.82012 1.12834
 H236 H 0.72859 0.93505 1.08268
 H237 H 0.81750 0.92822 1.12819
 H238 H 0.66175 0.84108 1.12460
 C239 C 0.80539 1.12999 0.88561
 C240 C 0.75901 1.11405 0.86464
 C241 C 0.71583 1.09328 0.89914
 C242 C 0.66483 1.09412 0.88224
 H243 H 0.75236 1.11801 0.82169
 H244 H 0.72573 1.07810 0.93894
 H245 H 0.81055 1.13007 0.92896
 H246 H 0.65498 1.11221 0.84364
 C247 C 0.11482 0.19043 0.11818
 C248 C 0.14194 0.23089 0.09598
 C249 C 0.11248 0.27665 0.07157
 C250 C 0.13504 0.32487 0.06535
 H251 H 0.18548 0.23172 0.09884
 H252 H 0.07028 0.27163 0.06191
 H253 H 0.07107 0.19229 0.11864
 H254 H 0.17633 0.33069 0.07775
 C255 C -0.12205 0.19581 -0.12854
 C256 C -0.14583 0.23913 -0.10586
 C257 C -0.11338 0.28415 -0.08690
 C258 C -0.13536 0.33310 -0.07763
 H259 H -0.18940 0.24176 -0.10255
 H260 H -0.07034 0.27737 -0.08192
 H261 H -0.07877 0.19506 -0.13516
 H262 H -0.17777 0.34074 -0.08553
 C263 C 0.12725 0.80503 -0.11771
 C264 C 0.10214 0.76501 -0.14312
 C265 C 0.08492 0.71700 -0.11300
 C266 C 0.07176 0.67088 -0.13749
 H267 H 0.09399 0.76744 -0.18578
 H268 H 0.08350 0.71942 -0.06939
 H269 H 0.13754 0.79982 -0.07559
 H270 H 0.07627 0.66688 -0.18074
 C271 C -0.12352 0.80709 0.12112
 C272 C -0.10071 0.76373 0.14456
 C273 C -0.08123 0.71785 0.11181
 C274 C -0.07166 0.66909 0.13344
 H275 H -0.09758 0.76171 0.18803
 H276 H -0.07618 0.72379 0.06880
 H277 H -0.12989 0.80712 0.07793
 H278 H -0.07972 0.66227 0.17581
 C279 C 1.12096 0.13242 0.80256
 C280 C 1.14406 0.10463 0.75876
 C281 C 1.11244 0.08815 0.71591
 C282 C 1.13504 0.07611 0.66553
 H283 H 1.18748 0.09908 0.75643
 H284 H 1.06896 0.08811 0.72096
 H285 H 1.07950 0.14689 0.79875
 H286 H 1.17705 0.08499 0.65804
 C287 C 0.88388 -0.11523 0.80761
 C288 C 0.85756 -0.09350 0.76584
 C289 C 0.88787 -0.06971 0.72102
 C290 C 0.86630 -0.06395 0.67207
 H291 H 0.81413 -0.09643 0.76329
 H292 H 0.92981 -0.06013 0.72743
 H293 H 0.92764 -0.11565 0.80761
 H294 H 0.82525 -0.07620 0.66502
 C295 C 1.12733 -0.12259 0.19570
 C296 C 1.10494 -0.14583 0.23877
 C297 C 1.08538 -0.11271 0.28430
 C298 C 1.07534 -0.13439 0.33261
 H299 H 1.10180 -0.18943 0.24065
 H300 H 1.08029 -0.06943 0.27840
 H301 H 1.13357 -0.07931 0.19578
 H302 H 1.08344 -0.17706 0.33950
 C303 C 0.87109 0.11908 0.19335
 C304 C 0.89571 0.14412 0.23395
 C305 C 0.91403 0.11329 0.28152
 C306 C 0.92586 0.13743 0.32817
 H307 H 0.90239 0.18713 0.23246
 H308 H 0.91720 0.06958 0.27840
 H309 H 0.86207 0.07656 0.19761
 H310 H 0.91954 0.18069 0.33265
 C311 C 0.13460 0.19187 -0.12400
 C312 C 0.10889 0.23734 -0.14678
 C313 C 0.09041 0.28027 -0.11479
 C314 C 0.07970 0.33136 -0.13687
 H315 H 0.10617 0.24072 -0.19021
 H316 H 0.08738 0.27462 -0.07155
 H317 H 0.14639 0.19434 -0.08203
 H318 H 0.09152 0.33905 -0.17825
 C319 C -0.11121 0.18526 0.11934
 C320 C -0.11220 0.23669 0.13548
 C321 C -0.08230 0.27846 0.10623
 C322 C -0.08508 0.32999 0.12243
 H323 H -0.13736 0.24838 0.16955
 H324 H -0.05962 0.26734 0.07031
 H325 H -0.08850 0.17355 0.08363
 H326 H -0.10816 0.34040 0.15831
 C327 C -0.11534 0.81289 -0.12437
 C328 C -0.14067 0.76902 -0.10714
 C329 C -0.10978 0.72311 -0.08441
 C330 C -0.13062 0.67381 -0.08131
 H331 H -0.18384 0.76602 -0.11240
 H332 H -0.06842 0.72934 -0.07232
 H333 H -0.07167 0.81380 -0.12252
 H334 H -0.17107 0.66719 -0.09586
 C335 C 0.11531 0.80184 0.13090
 C336 C 0.13945 0.75884 0.10799
 C337 C 0.10771 0.71391 0.08768
 C338 C 0.13067 0.66558 0.07760
 H339 H 0.18306 0.75658 0.10497
 H340 H 0.06475 0.72029 0.08170
 H341 H 0.07200 0.80242 0.13721
 H342 H 0.17293 0.65834 0.08661
 C343 C 0.19159 1.11461 0.86417
 C344 C 0.23745 1.13503 0.88865
 C345 C 0.27882 1.10078 0.90683
 C346 C 0.33116 1.11961 0.91157
 H347 H 0.24303 1.17840 0.88914
 H348 H 0.27112 1.05826 0.91333
 H349 H 0.19230 1.07205 0.85332
 H350 H 0.34019 1.15908 0.89516
 C351 C 0.18819 0.86726 1.11695
 C352 C 0.23675 0.87647 1.13726
 C353 C 0.28032 0.89738 1.10329
 C354 C 0.33175 0.89180 1.11834
 H355 H 0.24452 0.86739 1.17926
 H356 H 0.27018 0.91753 1.06577
 H357 H 0.18122 0.87224 1.07415
 H358 H 0.34157 0.86928 1.15459
 C359 C 0.81337 1.12332 1.11197
 C360 C 0.76578 1.11033 1.13330
 C361 C 0.72189 1.08934 1.09988
 C362 C 0.67094 1.09115 1.11788
 H363 H 0.75853 1.11719 1.17587
 H364 H 0.73118 1.07326 1.06021
 H365 H 0.81937 1.12039 1.06875
 H366 H 0.66208 1.10976 1.15655
 C367 C 0.81188 0.88263 0.87665
 C368 C 0.76098 0.87036 0.86599
 C369 C 0.71642 0.89777 0.89516
 C370 C 0.66486 0.88673 0.88535
 H371 H 0.75258 0.84001 0.83589
 H372 H 0.72622 0.92749 0.92546
 H373 H 0.82066 0.91312 0.90650
 H374 H 0.65514 0.85715 0.85491
   
