data_POSCAR
  _audit_creation_date              2014-09-24
  _audit_creation_method            'ToBaCCo'
  _symmetry_space_group_name_H-M    'P1'
  _symmetry_Int_Tables_number       1
  _symmetry_cell_setting            triclinic
  loop_
  _symmetry_equiv_pos_as_xyz
 x,y,z
_cell_length_a 56.7924
_cell_length_b 56.8873
_cell_length_c 21.4091
_cell_angle_alpha 89.931400
_cell_angle_beta 90.072900
_cell_angle_gamma 120.014300
loop_
  _atom_site_label
  _atom_site_type_symbol
  _atom_site_fract_x
  _atom_site_fract_y
  _atom_site_fract_z
C1 C 0.20120 0.50322 0.55621
 C2 C 0.18920 0.50317 0.49919
 C3 C 0.20133 0.50317 0.44249
 C4 C 0.22630 0.50328 0.44223
 C5 C 0.23872 0.50334 0.49994
 C6 C 0.22614 0.50330 0.55724
 C7 C 0.23880 0.50330 0.61380
 C8 C 0.26331 0.50327 0.61416
 C9 C 0.27612 0.50326 0.55799
 C10 C 0.26372 0.50332 0.50033
 C11 C 0.23914 0.50328 0.38607
 C12 C 0.26365 0.50328 0.38649
 C13 C 0.27625 0.50327 0.44304
 C14 C 0.30105 0.50316 0.44396
 C15 C 0.31304 0.50310 0.50082
 C16 C 0.30097 0.50312 0.55760
 H17 H 0.22981 0.50329 0.65837
 H18 H 0.27216 0.50324 0.65897
 H19 H 0.23028 0.50326 0.34124
 H20 H 0.27266 0.50326 0.34197
 H21 H 0.16998 0.50303 0.49894
 H22 H 0.33209 0.50293 0.50074
 C23 C 0.49810 -0.30076 0.44466
 C24 C 0.49789 -0.31302 0.50129
 C25 C 0.49814 -0.30099 0.55831
 C26 C 0.49857 -0.27591 0.55930
 C27 C 0.49877 -0.26324 0.50197
 C28 C 0.49853 -0.27572 0.44435
 C29 C 0.49878 -0.26282 0.38812
 C30 C 0.49929 -0.23809 0.38837
 C31 C 0.49959 -0.22535 0.44485
 C32 C 0.49931 -0.23801 0.50222
 C33 C 0.49886 -0.26315 0.61580
 C34 C 0.49938 -0.23841 0.61604
 C35 C 0.49963 -0.22546 0.55980
 C36 C 0.50023 -0.20029 0.55931
 C37 C 0.50049 -0.18808 0.50242
 C38 C 0.50018 -0.20024 0.44559
 H39 H 0.49859 -0.27177 0.34339
 H40 H 0.49948 -0.22901 0.34377
 H41 H 0.49870 -0.27222 0.66040
 H42 H 0.49960 -0.22948 0.66082
 H43 H 0.49763 -0.33225 0.50085
 H44 H 0.50097 -0.16874 0.50223
 C45 C 1.20126 0.69974 0.55772
 C46 C 1.18942 0.68752 0.50085
 C47 C 1.20137 0.69967 0.44409
 C48 C 1.22593 0.72477 0.44336
 C49 C 1.23826 0.73746 0.50074
 C50 C 1.22590 0.72491 0.55829
 C51 C 1.23846 0.73787 0.61456
 C52 C 1.26265 0.76267 0.61439
 C53 C 1.27523 0.77549 0.55793
 C54 C 1.26293 0.76277 0.50054
 C55 C 1.23843 0.73752 0.38691
 C56 C 1.26261 0.76232 0.38669
 C57 C 1.27522 0.77533 0.44295
 C58 C 1.29976 0.80058 0.44337
 C59 C 1.31166 0.81287 0.50019
 C60 C 1.29977 0.80072 0.55714
 H61 H 1.22965 0.72891 0.65930
 H62 H 1.27143 0.77176 0.65905
 H63 H 1.22959 0.72839 0.34232
 H64 H 1.27137 0.77126 0.34190
 H65 H 1.17046 0.66823 0.50062
 H66 H 1.33051 0.83227 0.50010
 C67 C 0.80091 0.50227 0.44420
 C68 C 0.81309 0.50229 0.50089
 C69 C 0.80111 0.50226 0.55791
 C70 C 0.77616 0.50219 0.55879
 C71 C 0.76358 0.50216 0.50144
 C72 C 0.77600 0.50220 0.44386
 C73 C 0.76321 0.50219 0.38760
 C74 C 0.73869 0.50218 0.38778
 C75 C 0.72604 0.50216 0.44422
 C76 C 0.73856 0.50214 0.50162
 C77 C 0.76348 0.50216 0.61525
 C78 C 0.73894 0.50214 0.61543
 C79 C 0.72612 0.50214 0.55915
 C80 C 0.70121 0.50216 0.55859
 C81 C 0.68914 0.50219 0.50167
 C82 C 0.70120 0.50220 0.44488
 H83 H 0.77209 0.50221 0.34287
 H84 H 0.72970 0.50218 0.34315
 H85 H 0.77246 0.50217 0.65990
 H86 H 0.73008 0.50213 0.66018
 H87 H 0.83226 0.50238 0.50051
 H88 H 0.67004 0.50224 0.50143
 C89 C 0.49899 0.29868 0.55712
 C90 C 0.49877 0.31056 0.50017
 C91 C 0.49905 0.29860 0.44346
 C92 C 0.49959 0.27403 0.44316
 C93 C 0.49981 0.26174 0.50079
 C94 C 0.49950 0.27411 0.55807
 C95 C 0.49969 0.26160 0.61460
 C96 C 0.50012 0.23733 0.61496
 C97 C 0.50040 0.22467 0.55876
 C98 C 0.50027 0.23702 0.50112
 C99 C 0.49988 0.26143 0.38696
 C100 C 0.50034 0.23717 0.38727
 C101 C 0.50052 0.22465 0.44379
 C102 C 0.50089 0.20002 0.44466
 C103 C 0.50101 0.18806 0.50151
 C104 C 0.50075 0.19997 0.55833
 H105 H 0.49947 0.27048 0.65915
 H106 H 0.50022 0.22853 0.65976
 H107 H 0.49974 0.27023 0.34220
 H108 H 0.50053 0.22829 0.34272
 H109 H 0.49834 0.32943 0.49997
 H110 H 0.50121 0.16906 0.50139
 C111 C 0.70002 0.20114 0.44323
 C112 C 0.68777 0.18919 0.49994
 C113 C 0.69986 0.20108 0.55683
 C114 C 0.72495 0.22568 0.55773
 C115 C 0.73763 0.23807 0.50041
 C116 C 0.72511 0.22576 0.44282
 C117 C 0.73803 0.23834 0.38658
 C118 C 0.76281 0.26256 0.38681
 C119 C 0.77558 0.27508 0.44329
 C120 C 0.76290 0.26276 0.50066
 C121 C 0.73768 0.23816 0.61422
 C122 C 0.76247 0.26239 0.61450
 C123 C 0.77546 0.27504 0.55826
 C124 C 0.80069 0.29963 0.55778
 C125 C 0.81292 0.31152 0.50089
 C126 C 0.80074 0.29961 0.44404
 H127 H 0.72905 0.22952 0.34186
 H128 H 0.77190 0.27141 0.34221
 H129 H 0.72855 0.22926 0.65877
 H130 H 0.77141 0.27115 0.65929
 H131 H 0.66852 0.17022 0.49980
 H132 H 0.83229 0.33038 0.50071
 O133 O 1.03753 0.55900 0.11487
 O134 O 1.06772 0.55343 0.05416
 C135 C 1.06193 0.56513 0.09863
 O136 O 0.96172 0.43802 0.10798
 O137 O 0.93151 0.44540 0.05178
 C138 C 0.93730 0.43221 0.09259
 O139 O 1.03768 0.47801 0.11362
 O140 O 1.06779 0.51429 0.05404
 C141 C 1.06207 0.49652 0.09791
 O142 O 0.96167 0.52356 0.10863
 O143 O 0.93149 0.48626 0.05177
 C144 C 0.93725 0.50506 0.09301
 Zr145 Zr 0.99962 0.52955 0.07722
 O146 O 0.99770 0.53006 0.17584
 O147 O 1.00086 0.56718 0.06922
 Zr148 Zr 0.99969 0.47022 0.07758
 O149 O 0.99914 0.47237 0.17608
 O150 O 0.99845 0.43237 0.08053
 O151 O 1.02389 0.51197 0.08945
 O152 O 0.97599 0.48803 0.08900
 O153 O 0.96155 0.52368 -0.11041
 O154 O 0.93145 0.48598 -0.05454
 C155 C 0.93716 0.50498 -0.09522
 O156 O 1.03750 0.47830 -0.11670
 O157 O 1.06771 0.51437 -0.05684
 C158 C 1.06191 0.49673 -0.10092
 O159 O 0.96162 0.43802 -0.11017
 O160 O 0.93146 0.44536 -0.05381
 C161 C 0.93720 0.43220 -0.09476
 O162 O 1.03748 0.55946 -0.11650
 O163 O 1.06772 0.55353 -0.05667
 C164 C 1.06190 0.56544 -0.10070
 Zr165 Zr 0.99958 0.52964 -0.07953
 O166 O 0.99655 0.52910 -0.17813
 O167 O 1.00224 0.56809 -0.07616
 Zr168 Zr 0.99963 0.47015 -0.07953
 O169 O 0.99655 0.46771 -0.17811
 O170 O 1.00226 0.43434 -0.07608
 Zr171 Zr 1.04046 0.52027 -0.00134
 Zr172 Zr 0.95892 0.47952 -0.00106
 O173 O 0.97606 0.48812 -0.09116
 O174 O 1.02375 0.51197 -0.09212
 O175 O 0.97510 0.52189 -0.00107
 O176 O 1.02361 0.47789 -0.00109
 O177 O 1.02359 0.54584 -0.00111
 O178 O 0.97529 0.45346 -0.00095
 H179 H 0.96396 0.48201 0.12610
 H180 H 1.03629 0.47071 -0.00160
 H181 H 0.96403 0.48208 -0.12829
 H182 H 1.03604 0.56575 -0.00103
 H183 H 1.01380 0.43385 0.05571
 H184 H 0.98829 0.42181 -0.04626
 H185 H 1.01031 0.48555 -0.19495
 H186 H 1.01047 0.52524 -0.19495
 H187 H 0.98747 0.56636 -0.04860
 H188 H 1.00106 0.57341 0.11252
 H189 H 1.00721 0.52069 0.19170
 H190 H 0.99856 0.45571 0.19193
 O191 O 0.44083 0.47812 0.11521
 O192 O 0.44645 0.51392 0.05451
 C193 C 0.43472 0.49640 0.09897
 O194 O 0.56196 0.52336 0.10878
 O195 O 0.55462 0.48598 0.05223
 C196 C 0.56780 0.50484 0.09322
 O197 O 0.52160 0.55887 0.11512
 O198 O 0.48565 0.55310 0.05464
 C199 C 0.50324 0.56490 0.09901
 O200 O 0.47629 0.43786 0.10905
 O201 O 0.51380 0.44526 0.05262
 C202 C 0.49490 0.43208 0.09366
 Zr203 Zr 0.47029 0.46975 0.07747
 O204 O 0.46967 0.46721 0.17608
 O205 O 0.43261 0.43337 0.06915
 Zr206 Zr 0.52977 0.52919 0.07814
 O207 O 0.52859 0.52664 0.17672
 O208 O 0.56556 0.56775 0.07890
 O209 O 0.48793 0.51155 0.08985
 O210 O 0.51187 0.48770 0.08936
 O211 O 0.47646 0.43792 -0.10987
 O212 O 0.51415 0.44544 -0.05372
 C213 C 0.49516 0.43222 -0.09453
 O214 O 0.52173 0.55906 -0.11617
 O215 O 0.48573 0.55322 -0.05603
 C216 C 0.50338 0.56509 -0.10014
 O217 O 0.56176 0.52319 -0.11057
 O218 O 0.55459 0.48593 -0.05356
 C219 C 0.56765 0.50470 -0.09488
 O220 O 0.44054 0.47798 -0.11641
 O221 O 0.44646 0.51400 -0.05645
 C222 C 0.43456 0.49638 -0.10060
 Zr223 Zr 0.47032 0.46986 -0.07923
 O224 O 0.47078 0.46738 -0.17782
 O225 O 0.43179 0.43405 -0.07591
 Zr226 Zr 0.52999 0.52946 -0.07889
 O227 O 0.53295 0.52960 -0.17742
 O228 O 0.56563 0.56810 -0.07418
 Zr229 Zr 0.47970 0.51995 -0.00088
 Zr230 Zr 0.52047 0.47930 -0.00070
 O231 O 0.51189 0.48795 -0.09077
 O232 O 0.48809 0.51171 -0.09166
 O233 O 0.47802 0.45305 -0.00080
 O234 O 0.52219 0.54550 -0.00039
 O235 O 0.45405 0.47753 -0.00086
 O236 O 0.54672 0.52173 -0.00035
 H237 H 0.51787 0.48167 0.12651
 H238 H 0.52973 0.56542 -0.00022
 H239 H 0.51786 0.48198 -0.12798
 H240 H 0.43410 0.47006 -0.00085
 H241 H 0.57912 0.56646 0.05241
 H242 H 0.58016 0.56567 -0.05518
 H243 H 0.51482 0.52449 -0.19445
 H244 H 0.47489 0.48523 -0.19466
 H245 H 0.43355 0.42093 -0.04873
 H246 H 0.42631 0.42726 0.11240
 H247 H 0.47984 0.48607 0.19186
 H248 H 0.54507 0.54311 0.19194
 O249 O 0.55835 0.03645 -0.11628
 O250 O 0.55270 0.06659 -0.05571
 C251 C 0.56446 0.06081 -0.10009
 O252 O 0.43711 -0.03935 -0.10932
 O253 O 0.44460 -0.06941 -0.05299
 C254 C 0.43134 -0.06370 -0.09383
 O255 O 0.47703 0.03648 -0.11503
 O256 O 0.51342 0.06660 -0.05564
 C257 C 0.49556 0.06084 -0.09938
 O258 O 0.52289 -0.03929 -0.10987
 O259 O 0.48555 -0.06939 -0.05292
 C260 C 0.50437 -0.06366 -0.09415
 Zr261 Zr 0.52885 -0.00139 -0.07862
 O262 O 0.52931 -0.00339 -0.17724
 O263 O 0.56656 -0.00012 -0.07060
 Zr264 Zr 0.46938 -0.00142 -0.07911
 O265 O 0.47170 -0.00201 -0.17757
 O266 O 0.43147 -0.00265 -0.08272
 O267 O 0.51119 0.02279 -0.09098
 O268 O 0.48725 -0.02505 -0.09035
 O269 O 0.52288 -0.03939 0.10897
 O270 O 0.48516 -0.06951 0.05298
 C271 C 0.50416 -0.06377 0.09378
 O272 O 0.47743 0.03645 0.11506
 O273 O 0.51354 0.06659 0.05514
 C274 C 0.49587 0.06081 0.09920
 O275 O 0.43722 -0.03930 0.10895
 O276 O 0.44460 -0.06940 0.05270
 C277 C 0.43143 -0.06367 0.09366
 O278 O 0.55878 0.03652 0.11506
 O279 O 0.55279 0.06664 0.05509
 C280 C 0.56474 0.06089 0.09916
 Zr281 Zr 0.52896 -0.00135 0.07815
 O282 O 0.52852 -0.00431 0.17675
 O283 O 0.56749 0.00132 0.07478
 Zr284 Zr 0.46933 -0.00136 0.07808
 O285 O 0.46692 -0.00434 0.17668
 O286 O 0.43342 0.00119 0.07458
 Zr287 Zr 0.51949 0.03938 -0.00022
 Zr288 Zr 0.47877 -0.04199 -0.00019
 O289 O 0.48738 -0.02484 0.08986
 O290 O 0.51122 0.02276 0.09062
 O291 O 0.52122 -0.02581 -0.00024
 O292 O 0.47703 0.02250 -0.00047
 O293 O 0.54514 0.02258 -0.00034
 O294 O 0.45261 -0.02572 -0.00044
 H295 H 0.48123 -0.03710 -0.12738
 H296 H 0.46980 0.03513 0.00001
 H297 H 0.48136 -0.03683 0.12702
 H298 H 0.56509 0.03502 -0.00041
 H299 H 0.43263 0.01211 -0.05625
 H300 H 0.42080 -0.01291 0.04511
 H301 H 0.48479 0.00944 0.19347
 H302 H 0.52448 0.00947 0.19355
 H303 H 0.56573 -0.01349 0.04744
 H304 H 0.57279 0.00006 -0.11389
 H305 H 0.52014 0.00631 -0.19316
 H306 H 0.45503 -0.00261 -0.19363
 C307 C 1.15830 0.50168 0.29272
 N308 N 1.13913 0.47758 0.26852
 N309 N 1.12163 0.47670 0.22576
 C310 C 1.12274 0.49989 0.20591
 N311 N 1.14200 0.52399 0.22989
 N312 N 1.15950 0.52487 0.27265
 C313 C 1.17504 0.50236 0.34375
 C314 C 1.18797 0.50280 0.38894
 C315 C 1.10217 0.49872 0.16489
 C316 C 1.08419 0.49770 0.13293
 C317 C 0.49873 0.65635 0.29269
 N318 N 0.52270 0.66143 0.26731
 N319 N 0.52337 0.64463 0.22491
 C320 C 0.50009 0.62223 0.20663
 N321 N 0.47610 0.61721 0.23180
 N322 N 0.47544 0.63401 0.27420
 C323 C 0.49835 0.67267 0.34332
 C324 C 0.49817 0.68537 0.38819
 C325 C 0.50110 0.60273 0.16589
 C326 C 0.50205 0.58576 0.13405
 C327 C 0.34045 -0.15736 0.29179
 N328 N 0.36122 -0.16005 0.26875
 N329 N 0.37742 -0.14329 0.22447
 C330 C 0.37334 -0.12333 0.20178
 N331 N 0.35249 -0.12073 0.22460
 N332 N 0.33629 -0.13749 0.26889
 C333 C 0.32487 -0.17349 0.34399
 C334 C 0.31267 -0.18611 0.38973
 C335 C 0.39269 -0.10333 0.15972
 C336 C 0.40988 -0.08566 0.12759
 C337 C 0.84354 0.50294 0.29005
 N338 N 0.84095 0.47940 0.26808
 N339 N 0.85771 0.47978 0.22404
 C340 C 0.87755 0.50370 0.20055
 N341 N 0.88005 0.52723 0.22231
 N342 N 0.86329 0.52685 0.26634
 C343 C 0.82743 0.50264 0.34201
 C344 C 0.81484 0.50244 0.38755
 C345 C 0.89755 0.50420 0.15874
 C346 C 0.91523 0.50462 0.12680
 C347 C 0.49772 0.34046 0.28967
 N348 N 0.52120 0.36137 0.26710
 N349 N 0.52063 0.37779 0.22338
 C350 C 0.49657 0.37378 0.20082
 N351 N 0.47309 0.35279 0.22316
 N352 N 0.47366 0.33638 0.26689
 C353 C 0.49826 0.32465 0.34140
 C354 C 0.49866 0.31228 0.38683
 C355 C 0.49590 0.39328 0.15927
 C356 C 0.49539 0.41053 0.12746
 C357 C 0.65685 0.15726 0.29169
 N358 N 0.66175 0.13819 0.26688
 N359 N 0.64482 0.12061 0.22475
 C360 C 0.62244 0.12152 0.20621
 N361 N 0.61761 0.14067 0.23080
 N362 N 0.63455 0.15826 0.27292
 C363 C 0.67329 0.17410 0.34211
 C364 C 0.68608 0.18709 0.38685
 C365 C 0.60281 0.10092 0.16573
 C366 C 0.58572 0.08295 0.13408
 C367 C 0.49983 0.15701 -0.29252
 N368 N 0.52317 0.15825 -0.27305
 N369 N 0.52248 0.14074 -0.23067
 C370 C 0.49844 0.12141 -0.20651
 N371 N 0.47511 0.12024 -0.22576
 N372 N 0.47580 0.13776 -0.26814
 C373 C 0.50030 0.17375 -0.34324
 C374 C 0.50057 0.18666 -0.38825
 C375 C 0.49747 0.10085 -0.16588
 C376 C 0.49660 0.08290 -0.13420
 C377 C 0.65972 0.50268 -0.29067
 N378 N 0.63861 0.47913 -0.26900
 N379 N 0.62209 0.47948 -0.22529
 C380 C 0.62617 0.50337 -0.20185
 N381 N 0.64736 0.52692 -0.22330
 N382 N 0.66388 0.52658 -0.26700
 C383 C 0.67565 0.50243 -0.34242
 C384 C 0.68810 0.50228 -0.38790
 C385 C 0.60657 0.50385 -0.16035
 C386 C 0.58925 0.50426 -0.12859
 C387 C 0.84298 0.34060 -0.29114
 N388 N 0.84025 0.36134 -0.26831
 N389 N 0.85716 0.37770 -0.22441
 C390 C 0.87729 0.37381 -0.20192
 N391 N 0.87993 0.35298 -0.22453
 N392 N 0.86303 0.33662 -0.26843
 C393 C 0.82672 0.32486 -0.34306
 C394 C 0.81403 0.31258 -0.38865
 C395 C 0.89741 0.39331 -0.16026
 C396 C 0.91515 0.41059 -0.12843
 C397 C 0.50165 -0.15796 -0.28982
 N398 N 0.47817 -0.16063 -0.26697
 N399 N 0.47874 -0.14369 -0.22324
 C400 C 0.50281 -0.12358 -0.20095
 N401 N 0.52629 -0.12099 -0.22359
 N402 N 0.52572 -0.13793 -0.26732
 C403 C 0.50109 -0.17425 -0.34162
 C404 C 0.50066 -0.18695 -0.38714
 C405 C 0.50345 -0.10344 -0.15948
 C406 C 0.50393 -0.08569 -0.12777
 C407 C 0.34290 0.50159 -0.29350
 N408 N 0.33802 0.47749 -0.26948
 N409 N 0.35485 0.47659 -0.22732
 C410 C 0.37709 0.49977 -0.20795
 N411 N 0.38190 0.52388 -0.23175
 N412 N 0.36507 0.52478 -0.27391
 C413 C 0.32663 0.50229 -0.34405
 C414 C 0.31403 0.50274 -0.38897
 C415 C 0.39663 0.49859 -0.16741
 C416 C 0.41365 0.49757 -0.13567
 C417 C 1.15823 0.65744 -0.29351
 N418 N 1.15931 0.63523 -0.27466
 N419 N 1.14175 0.61833 -0.23247
 C420 C 1.12253 0.62309 -0.20788
 N421 N 1.12153 0.64537 -0.22650
 N422 N 1.13909 0.66228 -0.26870
 C423 C 1.17501 0.67382 -0.34406
 C424 C 1.18794 0.68654 -0.38895
 C425 C 1.10194 0.60348 -0.16735
 C426 C 1.08397 0.58640 -0.13566
 C427 C 0.84314 0.50292 -0.29119
 N428 N 0.84053 0.47939 -0.26909
 N429 N 0.85735 0.47976 -0.22514
 C430 C 0.87727 0.50368 -0.20190
 N431 N 0.87979 0.52722 -0.22377
 N432 N 0.86296 0.52684 -0.26772
 C433 C 0.82703 0.50262 -0.34314
 C434 C 0.81444 0.50242 -0.38871
 C435 C 0.89736 0.50418 -0.16042
 C436 C 0.91511 0.50458 -0.12876
 C437 C 0.49767 0.34051 -0.28955
 N438 N 0.52117 0.36128 -0.26670
 N439 N 0.52065 0.37767 -0.22300
 C440 C 0.49660 0.37378 -0.20076
 N441 N 0.47310 0.35292 -0.22337
 N442 N 0.47362 0.33653 -0.26707
 C443 C 0.49818 0.32477 -0.34123
 C444 C 0.49857 0.31243 -0.38656
 C445 C 0.49601 0.39332 -0.15950
 C446 C 0.49556 0.41062 -0.12799
 C447 C 0.65656 0.15724 -0.29200
 N448 N 0.66155 0.13828 -0.26676
 N449 N 0.64460 0.12069 -0.22469
 C450 C 0.62214 0.12150 -0.20666
 N451 N 0.61722 0.14054 -0.23166
 N452 N 0.63417 0.15814 -0.27372
 C453 C 0.67299 0.17402 -0.34237
 C454 C 0.68580 0.18699 -0.38704
 C455 C 0.60250 0.10087 -0.16640
 C456 C 0.58540 0.08287 -0.13492
 C457 C 1.15808 0.50188 -0.29487
 N458 N 1.13902 0.47781 -0.27037
 N459 N 1.12150 0.47696 -0.22780
 C460 C 1.12251 0.50014 -0.20852
 N461 N 1.14166 0.52422 -0.23279
 N462 N 1.15918 0.52508 -0.27535
 C463 C 1.17481 0.50252 -0.34566
 C464 C 1.18775 0.50291 -0.39062
 C465 C 1.10194 0.49897 -0.16777
 C466 C 1.08397 0.49794 -0.13597
 C467 C 0.49889 0.65681 -0.29293
 N468 N 0.52290 0.66178 -0.26791
 N469 N 0.52359 0.64495 -0.22555
 C470 C 0.50030 0.62264 -0.20700
 N471 N 0.47628 0.61775 -0.23178
 N472 N 0.47558 0.63457 -0.27414
 C473 C 0.49846 0.67307 -0.34361
 C474 C 0.49824 0.68574 -0.38853
 C475 C 0.50133 0.60308 -0.16654
 C476 C 0.50226 0.58602 -0.13496
 C477 C 0.34026 -0.15726 -0.29130
 N478 N 0.36079 -0.16021 -0.26754
 N479 N 0.37693 -0.14350 -0.22313
 C480 C 0.37302 -0.12338 -0.20105
 N481 N 0.35240 -0.12053 -0.22458
 N482 N 0.33625 -0.13723 -0.26899
 C483 C 0.32480 -0.17330 -0.34361
 C484 C 0.31268 -0.18588 -0.38938
 C485 C 0.39242 -0.10339 -0.15919
 C486 C 0.40969 -0.08570 -0.12735
 C487 C 0.50152 -0.15740 0.29135
 N488 N 0.47802 -0.16015 0.26826
 N489 N 0.47857 -0.14340 0.22396
 C490 C 0.50262 -0.12343 0.20133
 N491 N 0.52611 -0.12078 0.22419
 N492 N 0.52557 -0.13752 0.26849
 C493 C 0.50099 -0.17349 0.34350
 C494 C 0.50059 -0.18612 0.38911
 C495 C 0.50325 -0.10343 0.15948
 C496 C 0.50372 -0.08574 0.12754
 C497 C 0.34364 0.50169 0.29240
 N498 N 0.33860 0.47759 0.26812
 N499 N 0.35528 0.47670 0.22569
 C500 C 0.37752 0.49986 0.20633
 N501 N 0.38249 0.52397 0.23038
 N502 N 0.36581 0.52486 0.27280
 C503 C 0.32751 0.50237 0.34301
 C504 C 0.31491 0.50280 0.38780
 C505 C 0.39693 0.49866 0.16572
 C506 C 0.41388 0.49761 0.13398
 C507 C 1.15794 0.65662 0.29220
 N508 N 1.15879 0.63421 0.27419
 N509 N 1.14134 0.61741 0.23169
 C510 C 1.12251 0.62250 0.20597
 N511 N 1.12176 0.64498 0.22374
 N512 N 1.13920 0.66179 0.26624
 C513 C 1.17455 0.67292 0.34292
 C514 C 1.18739 0.68564 0.38781
 C515 C 1.10198 0.60299 0.16532
 C516 C 1.08401 0.58599 0.13359
 C517 C 0.50030 0.15656 0.29284
 N518 N 0.52361 0.15756 0.27428
 N519 N 0.52295 0.14016 0.23174
 C520 C 0.49896 0.12123 0.20650
 N521 N 0.47567 0.12033 0.22482
 N522 N 0.47633 0.13773 0.26737
 C523 C 0.50067 0.17316 0.34358
 C524 C 0.50084 0.18600 0.38844
 C525 C 0.49795 0.10075 0.16582
 C526 C 0.49702 0.08283 0.13410
 C527 C 0.65935 0.50287 0.29048
 N528 N 0.63849 0.47932 0.26813
 N529 N 0.62219 0.47969 0.22380
 C530 C 0.62628 0.50361 0.20038
 N531 N 0.64723 0.52715 0.22248
 N532 N 0.66354 0.52678 0.26682
 C533 C 0.67503 0.50257 0.34269
 C534 C 0.68737 0.50237 0.38835
 C535 C 0.60678 0.50409 0.15857
 C536 C 0.58946 0.50447 0.12675
 C537 C 0.84364 0.34102 0.28979
 N538 N 0.86375 0.33710 0.26747
 N539 N 0.88049 0.35330 0.22319
 C540 C 0.87761 0.37389 0.19980
 N541 N 0.85740 0.37771 0.22188
 N542 N 0.84065 0.36151 0.26617
 C543 C 0.82753 0.32548 0.34195
 C544 C 0.81488 0.31328 0.38756
 C545 C 0.89761 0.39331 0.15800
 C546 C 0.91530 0.41057 0.12616
   
