data_POSCAR
  _audit_creation_date              2014-09-24
  _audit_creation_method            'ToBaCCo'
  _symmetry_space_group_name_H-M    'P1'
  _symmetry_Int_Tables_number       1
  _symmetry_cell_setting            triclinic
  loop_
  _symmetry_equiv_pos_as_xyz
 x,y,z
_cell_length_a 11.5591
_cell_length_b 11.5596
_cell_length_c 13.6786
_cell_angle_alpha 90.000000
_cell_angle_beta 89.559300
_cell_angle_gamma 90.000000
loop_
  _atom_site_label
  _atom_site_type_symbol
  _atom_site_fract_x
  _atom_site_fract_y
  _atom_site_fract_z
O1 O 0.22053 0.13732 0.06447
 O2 O -0.22049 -0.13183 0.06791
 O3 O -0.13334 0.22307 0.07042
 O4 O 0.13342 -0.21726 0.06782
 O5 O -0.19833 0.06247 0.12322
 O6 O 0.19834 -0.05718 0.12043
 O7 O -0.06061 -0.19461 0.12133
 O8 O 0.06140 0.20097 0.12051
 C9 C 0.16561 0.18536 0.13169
 C10 C -0.16507 -0.18101 0.13354
 C11 C -0.18389 0.16696 0.13607
 C12 C 0.18366 -0.16167 0.13310
 O13 O 0.22048 -0.13183 -0.06791
 O14 O -0.22055 0.13732 -0.06447
 O15 O 0.13333 0.22307 -0.07042
 O16 O -0.13344 -0.21726 -0.06782
 O17 O -0.19836 -0.05718 -0.12043
 O18 O 0.19831 0.06247 -0.12322
 O19 O 0.06059 -0.19461 -0.12133
 O20 O -0.06141 0.20098 -0.12051
 Co21 Co 0.18919 0.00269 -0.00136
 Co22 Co -0.18921 0.00269 0.00136
 Co23 Co -0.00001 0.19191 0.00000
 Co24 Co -0.00001 -0.18574 -0.00000
 O25 O -0.00001 0.00292 0.00000
 C26 C 0.16506 -0.18101 -0.13354
 C27 C -0.16563 0.18536 -0.13169
 C28 C 0.18387 0.16696 -0.13607
 C29 C -0.18367 -0.16167 -0.13310
 O30 O 0.36584 0.27707 0.43363
 O31 O 0.63481 0.71791 0.43368
 O32 O 0.28017 0.63104 0.43156
 O33 O 0.72066 0.36410 0.43052
 O34 O 0.44098 0.69546 0.37837
 O35 O 0.56091 0.29888 0.37804
 O36 O 0.69828 0.55865 0.37834
 O37 O 0.30263 0.43689 0.37971
 C38 C 0.31736 0.33262 0.36756
 C39 C 0.68360 0.66303 0.36694
 C40 C 0.33646 0.68161 0.36611
 C41 C 0.66540 0.31400 0.36492
 O42 O 0.63414 0.27707 0.56637
 O43 O 0.36518 0.71791 0.56632
 O44 O 0.27933 0.36410 0.56948
 O45 O 0.71982 0.63104 0.56844
 O46 O 0.55901 0.69546 0.62163
 O47 O 0.43908 0.29888 0.62196
 O48 O 0.69736 0.43689 0.62029
 O49 O 0.30171 0.55866 0.62166
 Co50 Co 0.49999 0.30815 0.50000
 Co51 Co 0.49999 0.68645 0.50000
 Co52 Co 0.31113 0.49767 0.50061
 Co53 Co 0.68886 0.49767 0.49939
 O54 O 0.49999 0.49744 0.50000
 C55 C 0.68262 0.33262 0.63244
 C56 C 0.31639 0.66303 0.63306
 C57 C 0.33459 0.31400 0.63508
 C58 C 0.66352 0.68161 0.63389
 C59 C 0.22286 0.23308 0.21472
 C60 C 0.26775 0.27636 0.28480
 C61 C 0.77809 0.76712 0.21544
 C62 C 0.73345 0.72080 0.28466
 C63 C 0.77712 0.23308 0.78528
 C64 C 0.73224 0.27636 0.71520
 C65 C 0.22190 0.76712 0.78456
 C66 C 0.26653 0.72080 0.71534
 C67 C 0.23109 0.21840 0.78849
 C68 C 0.27697 0.26341 0.71845
 C69 C 0.76510 0.78087 0.78474
 C70 C 0.71998 0.73439 0.71581
 C71 C 0.23488 0.78087 0.21526
 C72 C 0.28001 0.73439 0.28419
 C73 C 0.76890 0.21840 0.21151
 C74 C 0.72301 0.26341 0.28155
   
