data_POSCAR
  _audit_creation_date              2014-09-24
  _audit_creation_method            'ToBaCCo'
  _symmetry_space_group_name_H-M    'P1'
  _symmetry_Int_Tables_number       1
  _symmetry_cell_setting            triclinic
  loop_
  _symmetry_equiv_pos_as_xyz
 x,y,z
_cell_length_a 30.2912
_cell_length_b 31.2918
_cell_length_c 29.9339
_cell_angle_alpha 90.356900
_cell_angle_beta 90.717300
_cell_angle_gamma 88.445600
loop_
  _atom_site_label
  _atom_site_type_symbol
  _atom_site_fract_x
  _atom_site_fract_y
  _atom_site_fract_z
C1 C 0.21987 0.52243 1.08237
 H2 H 0.24443 0.54680 1.08257
 C3 C 0.19228 0.51862 1.11904
 H4 H 0.19763 0.53955 1.14732
 C5 C 0.18493 0.46518 1.04558
 H6 H 0.18204 0.44479 1.01642
 C7 C 0.15623 0.46057 1.08118
 H8 H 0.13103 0.43702 1.07751
 N9 N 0.21587 0.49574 1.04672
 C10 C 0.27731 0.58432 0.97164
 H11 H 0.25216 0.58307 0.94588
 C12 C 0.30212 0.62103 0.97628
 H13 H 0.29495 0.64785 0.95446
 C14 C 0.31744 0.55102 1.03087
 H15 H 0.32325 0.52339 1.05190
 C16 C 0.34348 0.58686 1.03626
 H17 H 0.36983 0.58602 1.06100
 Zn18 Zn 0.25089 0.50066 0.99540
 N19 N 0.28479 0.55053 0.99930
 C20 C 0.18064 0.53489 0.94475
 N21 N 0.21135 0.50239 0.94606
 C22 C 0.21046 0.46964 0.91593
 C23 C 0.17737 0.46866 0.88301
 C24 C 0.14786 0.53581 0.91166
 C25 C 0.29201 0.42363 1.02431
 C26 C 0.32337 0.39022 1.02343
 C27 C 0.35076 0.41771 0.95409
 C28 C 0.31898 0.45086 0.95643
 N29 N 0.29046 0.45317 0.99117
 H30 H 0.18101 0.55960 0.97018
 H31 H 0.23423 0.44338 0.91848
 H32 H 0.17603 0.44190 0.85996
 H33 H 0.12321 0.56155 0.91135
 H34 H 0.26969 0.42649 1.05209
 H35 H 0.32473 0.36727 1.05039
 H36 H 0.37402 0.41701 0.92700
 H37 H 0.31752 0.47530 0.93100
 C38 C 0.33578 0.62273 1.00894
 C39 C 0.15925 0.48758 1.11905
 C40 C 0.35325 0.38713 0.98812
 C41 C 0.14567 0.50205 0.88087
 C42 C 0.79989 0.53977 -0.04734
 H43 H 0.79770 0.56598 -0.02367
 C44 C 0.82774 0.54233 -0.08386
 H45 H 0.84513 0.57159 -0.08860
 C46 C 0.77886 0.47041 -0.06935
 H47 H 0.76031 0.44210 -0.06296
 C48 C 0.80801 0.47075 -0.10512
 H49 H 0.81132 0.44210 -0.12522
 N50 N 0.77549 0.50456 -0.04127
 C51 C 0.67418 0.55003 0.05118
 H52 H 0.67593 0.52455 0.07545
 C53 C 0.64209 0.58265 0.05504
 H54 H 0.61936 0.58243 0.08267
 C55 C 0.70025 0.58027 -0.01558
 H56 H 0.72141 0.57836 -0.04425
 C57 C 0.66922 0.61390 -0.01256
 H58 H 0.66737 0.63778 -0.03860
 Zn59 Zn 0.74146 0.50128 0.01092
 N60 N 0.70253 0.54942 0.01631
 C61 C 0.78154 0.52507 0.09449
 N62 N 0.78233 0.49773 0.05895
 C63 C 0.81541 0.46796 0.05400
 C64 C 0.84971 0.46491 0.08528
 C65 C 0.81513 0.52280 0.12702
 C66 C 0.67126 0.45445 -0.02047
 C67 C 0.64263 0.42047 -0.02428
 C68 C 0.68706 0.38199 0.03051
 C69 C 0.71441 0.41721 0.03395
 N70 N 0.70631 0.45229 0.00821
 H71 H 0.75549 0.54917 0.09724
 H72 H 0.81553 0.44705 0.02508
 H73 H 0.87589 0.44111 0.08052
 H74 H 0.81454 0.54518 0.15474
 H75 H 0.66527 0.48300 -0.04007
 H76 H 0.61432 0.42388 -0.04645
 H77 H 0.69475 0.35399 0.05048
 H78 H 0.74217 0.41630 0.05695
 C79 C 0.63942 0.61507 0.02286
 C80 C 0.83317 0.50715 -0.11304
 C81 C 0.65054 0.38319 0.00097
 C82 C 0.85003 0.49268 0.12226
 C83 C -0.03467 0.30605 0.44875
 H84 H -0.06406 0.30132 0.46808
 C85 C -0.03530 0.33635 0.41479
 H86 H -0.06629 0.35289 0.40767
 C87 C 0.04033 0.28844 0.43509
 H88 H 0.07010 0.27055 0.44413
 C89 C 0.04159 0.31921 0.40157
 H90 H 0.07311 0.32395 0.38625
 N91 N 0.00244 0.28216 0.45754
 C92 C -0.05543 0.18341 0.53818
 H93 H -0.03382 0.18508 0.56715
 C94 C -0.08944 0.15428 0.53710
 H95 H -0.09371 0.13354 0.56545
 C96 C -0.07425 0.20686 0.46509
 H97 H -0.06738 0.22644 0.43657
 C98 C -0.10846 0.17783 0.46241
 H99 H -0.12828 0.17619 0.43214
 Zn100 Zn 0.00126 0.24414 0.50616
 N101 N -0.04863 0.20915 0.50266
 C102 C -0.03674 0.28231 0.58369
 N103 N -0.00024 0.27896 0.55779
 C104 C 0.03473 0.30461 0.56466
 C105 C 0.03370 0.33556 0.59842
 C106 C -0.03906 0.31272 0.61796
 C107 C 0.05971 0.18429 0.46838
 C108 C 0.09212 0.15176 0.46780
 C109 C 0.10634 0.16511 0.54614
 C110 C 0.07414 0.19801 0.54499
 N111 N 0.05120 0.20650 0.50660
 H112 H -0.06483 0.26270 0.57675
 H113 H 0.06277 0.30205 0.54268
 H114 H 0.06095 0.35686 0.60161
 H115 H -0.06861 0.31551 0.63788
 H116 H 0.04047 0.19125 0.43849
 H117 H 0.09829 0.13498 0.43672
 H118 H 0.12271 0.15766 0.57758
 H119 H 0.06601 0.21533 0.57529
 C120 C -0.11610 0.15077 0.49860
 C121 C 0.00324 0.34390 0.39028
 C122 C 0.11514 0.14076 0.50738
 C123 C -0.00371 0.34012 0.62535
 C124 C 0.96586 0.67585 0.54675
 H125 H 0.94597 0.67463 0.51653
 C126 C 0.96181 0.64454 0.57909
 H127 H 0.93842 0.61937 0.57381
 C128 C 1.02164 0.70948 0.58953
 H129 H 1.04561 0.73433 0.59272
 C130 C 1.01801 0.67908 0.62336
 H131 H 1.03919 0.68065 0.65270
 N132 N 0.99582 0.70707 0.55210
 C133 C 0.95120 0.80658 0.46088
 H134 H 0.97771 0.80483 0.43700
 C135 C 0.91839 0.83847 0.45716
 H136 H 0.91952 0.86084 0.42976
 C137 C 0.91862 0.78025 0.52647
 H138 H 0.91971 0.75823 0.55416
 C139 C 0.88507 0.81181 0.52403
 H140 H 0.86065 0.81389 0.55007
 Zn141 Zn 1.00161 0.74244 0.50197
 N142 N 0.95117 0.77876 0.49551
 C143 C 0.97297 0.70183 0.42224
 N144 N 1.00686 0.70500 0.45215
 C145 C 1.04273 0.67810 0.45007
 C146 C 1.04657 0.64800 0.41570
 C147 C 0.97451 0.67079 0.38848
 C148 C 1.04711 0.81165 0.53738
 C149 C 1.07998 0.84208 0.54076
 C150 C 1.12132 0.80279 0.48493
 C151 C 1.08703 0.77400 0.48156
 N152 N 1.05095 0.77855 0.50792
 H153 H 0.94381 0.72221 0.42559
 H154 H 1.06839 0.67981 0.47543
 H155 H 1.07653 0.62861 0.41418
 H156 H 0.94598 0.66820 0.36676
 H157 H 1.01767 0.81518 0.55731
 H158 H 1.07471 0.86888 0.56316
 H159 H 1.14998 0.79750 0.46425
 H160 H 1.08928 0.74852 0.45727
 C161 C 0.88542 0.84210 0.48964
 C162 C 0.98835 0.64569 0.61774
 C163 C 1.11800 0.83805 0.51426
 C164 C 1.01186 0.64319 0.38447
 C165 C 0.44876 -0.02112 0.32296
 H166 H 0.48076 -0.03659 0.32811
 C167 C 0.41567 -0.02649 0.35422
 H168 H 0.42341 -0.04532 0.38358
 C169 C 0.40144 0.02367 0.27924
 H170 H 0.39607 0.04359 0.25029
 C171 C 0.36695 0.01838 0.30927
 H172 H 0.33524 0.03381 0.30232
 N173 N 0.44133 0.00364 0.28634
 C174 C 0.51216 -0.03330 0.16761
 H175 H 0.52661 -0.00304 0.15992
 C176 C 0.51371 -0.06640 0.13621
 H177 H 0.53051 -0.06098 0.10520
 C178 C 0.47490 -0.07668 0.21859
 H179 H 0.45931 -0.08027 0.25057
 C180 C 0.47628 -0.11096 0.18843
 H181 H 0.46063 -0.14012 0.19794
 Zn182 Zn 0.49011 0.00845 0.24737
 N183 N 0.49273 -0.03882 0.20773
 C184 C 0.57588 -0.01932 0.27640
 N185 N 0.54186 0.00905 0.28331
 C186 C 0.54277 0.03749 0.31775
 C187 C 0.57863 0.03777 0.34742
 C188 C 0.61261 -0.01994 0.30515
 C189 C 0.45349 0.06239 0.18093
 C190 C 0.45413 0.09460 0.14891
 C191 C 0.52299 0.11818 0.18088
 C192 C 0.52064 0.08599 0.21281
 N193 N 0.48660 0.05845 0.21187
 H194 H 0.57442 -0.04171 0.24880
 H195 H 0.51499 0.05941 0.32269
 H196 H 0.57731 0.05984 0.37507
 H197 H 0.63951 -0.04253 0.29873
 H198 H 0.42785 0.03902 0.17950
 H199 H 0.42827 0.09639 0.12362
 H200 H 0.55094 0.13903 0.18125
 H201 H 0.54726 0.08175 0.23683
 C202 C 0.49574 -0.10630 0.14613
 C203 C 0.37373 -0.00705 0.34751
 C204 C 0.48984 0.12223 0.14795
 C205 C 0.61423 0.00857 0.34168
 C206 C 0.56955 -0.04447 0.68692
 H207 H 0.54396 -0.06792 0.68678
 C208 C 0.60146 -0.04562 0.65363
 H209 H 0.60054 -0.07022 0.62805
 C210 C 0.59987 0.01812 0.71838
 H211 H 0.59800 0.04409 0.74221
 C212 C 0.63306 0.01753 0.68634
 H213 H 0.65667 0.04292 0.68612
 N214 N 0.56860 -0.01232 0.71772
 C215 C 0.47693 -0.05504 0.81790
 H216 H 0.45093 -0.03129 0.81193
 C217 C 0.47150 -0.08638 0.84998
 H218 H 0.44052 -0.08691 0.86742
 C219 C 0.54814 -0.08311 0.80077
 H220 H 0.57813 -0.08115 0.78176
 C221 C 0.54440 -0.11479 0.83333
 H222 H 0.57197 -0.13684 0.83894
 Zn223 Zn 0.51734 -0.00833 0.75334
 N224 N 0.51446 -0.05422 0.79369
 C225 C 0.44257 -0.04355 0.70943
 N226 N 0.46848 -0.00886 0.71297
 C227 C 0.46163 0.02558 0.68608
 C228 C 0.42600 0.02716 0.65607
 C229 C 0.40730 -0.04387 0.67888
 C230 C 0.54949 0.04936 0.81766
 C231 C 0.54847 0.08506 0.84594
 C232 C 0.47630 0.10431 0.81601
 C233 C 0.47890 0.06856 0.78801
 N234 N 0.51542 0.04224 0.78875
 H235 H 0.44967 -0.07139 0.72973
 H236 H 0.48342 0.05233 0.68868
 H237 H 0.42034 0.05586 0.63666
 H238 H 0.38811 -0.07241 0.67621
 H239 H 0.57734 0.02700 0.81902
 H240 H 0.57580 0.09004 0.86887
 H241 H 0.44700 0.12492 0.81483
 H242 H 0.45113 0.06138 0.76659
 C243 C 0.50547 -0.11690 0.85845
 C244 C 0.63314 -0.01382 0.65264
 C245 C 0.51148 0.11308 0.84529
 C246 C 0.39798 -0.00785 0.65201
 Si247 Si 0.24885 -0.01308 0.50743
 Si248 Si 0.75627 0.00020 0.49052
 Si249 Si 0.50413 0.25067 0.99333
 Si250 Si 0.48622 0.74771 0.00955
 Si251 Si 1.00969 0.48929 0.25348
 Si252 Si -0.01355 0.49651 0.75169
 C253 C 0.17939 0.09871 0.54161
 C254 C 0.14589 0.10266 0.50899
 C255 C 0.14110 0.06765 0.47935
 C256 C 0.17210 0.03332 0.47921
 C257 C 0.20848 0.03273 0.50884
 C258 C 0.20980 0.06462 0.54172
 C259 C 0.24638 0.09262 0.55669
 C260 C 0.21305 0.12979 0.55654
 H261 H 0.11391 0.06677 0.45564
 H262 H 0.16807 0.00775 0.45517
 H263 H 0.27240 0.09585 0.53125
 H264 H 0.25873 0.08430 0.59075
 H265 H 0.21959 0.15417 0.53076
 H266 H 0.20630 0.14272 0.59051
 C267 C 0.56081 0.63771 0.03465
 C268 C 0.60412 0.64852 0.02494
 C269 C 0.61211 0.69169 0.01532
 C270 C 0.57675 0.72169 0.01130
 C271 C 0.53291 0.70877 0.01576
 C272 C 0.52593 0.66705 0.03002
 C273 C 0.49631 0.63368 0.01130
 C274 C 0.53452 0.60172 0.01675
 H275 H 0.64540 0.70188 0.00941
 H276 H 0.58355 0.75447 0.00297
 H277 H 0.48684 0.63946 -0.02416
 H278 H 0.46844 0.62690 0.03371
 H279 H 0.54724 0.58901 -0.01554
 H280 H 0.52872 0.57720 0.04258
 C281 C 0.80998 -0.12263 0.50080
 C282 C 0.85443 -0.12044 0.48949
 C283 C 0.86910 -0.07923 0.47862
 C284 C 0.83992 -0.04315 0.47904
 C285 C 0.79486 -0.04700 0.48976
 C286 C 0.78172 -0.08795 0.50036
 C287 C 0.74338 -0.11290 0.51503
 C288 C 0.77521 -0.15217 0.51522
 H289 H 0.90339 -0.07452 0.47064
 H290 H 0.85323 -0.01256 0.47110
 H291 H 0.71697 -0.11466 0.48909
 H292 H 0.73197 -0.10326 0.54886
 H293 H 0.76736 -0.17626 0.48908
 H294 H 0.78170 -0.16517 0.54921
 C295 C 0.39140 0.32159 0.95618
 C296 C 0.38831 0.35351 0.98910
 C297 C 0.41755 0.35056 1.02589
 C298 C 0.45170 0.31934 1.02688
 C299 C 0.45642 0.28925 0.99207
 C300 C 0.42453 0.28988 0.95780
 C301 C 0.42992 0.29048 0.90826
 C302 C 0.39396 0.32517 0.90660
 H303 H 0.41522 0.37365 1.05293
 H304 H 0.47507 0.31954 1.05441
 H305 H 0.41952 0.26032 0.89199
 H306 H 0.46282 0.30169 0.89814
 H307 H 0.36321 0.31476 0.88959
 H308 H 0.40642 0.35632 0.89536
 C309 C 0.82812 0.10416 0.53357
 C310 C 0.85070 0.11686 0.49555
 C311 C 0.84370 0.09378 0.45564
 C312 C 0.81345 0.06056 0.45392
 C313 C 0.78982 0.04920 0.49207
 C314 C 0.79834 0.07095 0.53210
 C315 C 0.76664 0.09567 0.56108
 C316 C 0.79941 0.13131 0.56282
 H317 H 0.86191 0.10097 0.42585
 H318 H 0.80918 0.04309 0.42289
 H319 H 0.76248 0.08082 0.59429
 H320 H 0.73528 0.10456 0.54333
 H321 H 0.81442 0.13599 0.59651
 H322 H 0.78718 0.16106 0.54611
 C323 C 0.37264 0.68570 -0.02454
 C324 C 0.36380 0.66090 0.01291
 C325 C 0.38491 0.67233 0.05351
 C326 C 0.41914 0.70204 0.05399
 C327 C 0.43242 0.72107 0.01405
 C328 C 0.40601 0.71508 -0.02400
 C329 C 0.41812 0.70506 -0.07126
 C330 C 0.38175 0.67264 -0.07167
 H331 H 0.37742 0.65620 0.08426
 H332 H 0.43752 0.70687 0.08466
 H333 H 0.45175 0.69036 -0.07441
 H334 H 0.41099 0.73254 -0.09383
 H335 H 0.39430 0.63901 -0.07448
 H336 H 0.35395 0.68140 -0.09471
 C337 C 0.18333 -0.12567 0.48088
 C338 C 0.15353 -0.12956 0.51610
 C339 C 0.15858 -0.10100 0.55257
 C340 C 0.18817 -0.06706 0.55055
 C341 C 0.21494 -0.06168 0.51301
 C342 C 0.21331 -0.09287 0.47942
 C343 C 0.20763 -0.08830 0.42996
 C344 C 0.17482 -0.12397 0.43167
 H345 H 0.13861 -0.10340 0.58205
 H346 H 0.18860 -0.04391 0.57757
 H347 H 0.23804 -0.09772 0.41157
 H348 H 0.19237 -0.05707 0.42000
 H349 H 0.18664 -0.15348 0.41420
 H350 H 0.14042 -0.11332 0.42319
 C351 C 0.61607 0.31650 1.03101
 C352 C 0.62101 0.34597 0.99635
 C353 C 0.59596 0.33905 0.95691
 C354 C 0.56251 0.30877 0.95575
 C355 C 0.55410 0.28371 0.99336
 C356 C 0.58360 0.28597 1.02952
 C357 C 0.57584 0.28950 1.07858
 C358 C 0.61113 0.32315 1.08014
 H359 H 0.60047 0.35827 0.92750
 H360 H 0.54186 0.30644 0.92610
 H361 H 0.58593 0.25974 1.09651
 H362 H 0.54246 0.30241 1.08688
 H363 H 0.64120 0.31268 1.09919
 H364 H 0.59800 0.35569 1.08863
 C365 C 0.45674 0.17581 1.09462
 C366 C 0.49375 0.15294 1.11089
 C367 C 0.53412 0.15819 1.08878
 C368 C 0.53745 0.18836 1.05431
 C369 C 0.50105 0.21499 1.04246
 C370 C 0.46036 0.20652 1.06170
 C371 C 0.42738 0.23553 1.08421
 C372 C 0.42291 0.20138 1.11954
 H373 H 0.56307 0.13911 1.09819
 H374 H 0.56866 0.19138 1.03752
 H375 H 0.39692 0.24066 1.06362
 H376 H 0.44218 0.26499 1.09795
 H377 H 0.39019 0.18615 1.11875
 H378 H 0.43473 0.21140 1.15324
 C379 C -0.01506 0.56837 0.63607
 C380 C -0.01422 0.61088 0.65064
 C381 C -0.01731 0.61891 0.69688
 C382 C -0.01786 0.58471 0.72731
 C383 C -0.01449 0.54205 0.71211
 C384 C -0.01488 0.53472 0.66603
 C385 C 0.01648 0.50866 0.63804
 C386 C 0.01582 0.54539 0.60520
 H387 H -0.01847 0.65143 0.70945
 H388 H -0.01919 0.59174 0.76267
 H389 H 0.00131 0.47951 0.62399
 H390 H 0.04915 0.50320 0.65468
 H391 H -0.00033 0.53751 0.57275
 H392 H 0.04814 0.56118 0.60261
 C393 C 0.46768 0.85411 -0.07474
 C394 C 0.49889 0.84901 -0.10781
 C395 C 0.52163 0.80845 -0.10854
 C396 C 0.51625 0.77555 -0.07606
 C397 C 0.48418 0.77752 -0.04216
 C398 C 0.45448 0.81116 -0.04238
 C399 C 0.41337 0.84531 0.00166
 C400 C 0.43191 0.89955 -0.04112
 H401 H 0.54596 0.80204 -0.13399
 H402 H 0.53896 0.74826 -0.07690
 H403 H 0.41934 0.84517 0.03846
 H404 H 0.37785 0.83659 -0.00188
 H405 H 0.45031 0.92800 -0.02955
 H406 H 0.40351 0.91320 -0.06116
 C407 C 0.96781 0.40494 0.34992
 C408 C 1.00303 0.37496 0.35563
 C409 C 1.03760 0.37722 0.32425
 C410 C 1.03893 0.41061 0.29316
 C411 C 1.00522 0.44233 0.29102
 C412 C 0.96861 0.43734 0.31831
 C413 C 0.94533 0.46862 0.34841
 C414 C 0.94534 0.43371 0.38324
 H415 H 1.06456 0.35401 0.32342
 H416 H 1.06772 0.41227 0.27247
 H417 H 0.91141 0.47715 0.33647
 H418 H 0.96542 0.49634 0.35829
 H419 H 0.91146 0.42350 0.39111
 H420 H 0.96669 0.44052 0.41280
 C421 C 0.50326 0.86636 0.06884
 C422 C 0.49793 0.85945 0.11486
 C423 C 0.49641 0.81611 0.12821
 C424 C 0.49512 0.78275 0.09647
 C425 C 0.49397 0.79157 0.05052
 C426 C 0.50075 0.83412 0.03733
 C427 C 0.48341 0.86416 -0.00060
 C428 C 0.48432 0.89899 0.03749
 H429 H 0.49641 0.80741 0.16311
 H430 H 0.49366 0.75018 0.10810
 H431 H 0.40797 0.84859 -0.05947
 H432 H 0.51515 0.87074 -0.01836
 H433 H 0.45139 0.91110 0.04865
 H434 H 0.50782 0.92484 0.03083
 C435 C 0.02403 0.38099 0.69270
 C436 C -0.00779 0.37483 0.65901
 C437 C -0.04568 0.40205 0.65941
 C438 C -0.04834 0.43732 0.68875
 C439 C -0.01384 0.44548 0.71932
 C440 C 0.02070 0.41502 0.72254
 C441 C 0.06958 0.41981 0.72478
 C442 C 0.07327 0.38290 0.69174
 H443 H -0.07191 0.39781 0.63499
 H444 H -0.07609 0.45968 0.68546
 H445 H 0.08368 0.41159 0.75817
 H446 H 0.08026 0.45069 0.71098
 H447 H 0.08967 0.35383 0.70615
 H448 H 0.08642 0.39339 0.65929
 C449 C 0.46900 0.16303 0.89576
 C450 C 0.50885 0.15064 0.87566
 C451 C 0.54629 0.17482 0.88623
 C452 C 0.54441 0.20664 0.91977
 C453 C 0.50520 0.21475 0.94360
 C454 C 0.46750 0.19354 0.92945
 C455 C 0.43375 0.17009 0.95478
 C456 C 0.43511 0.13674 0.91761
 H457 H 0.57746 0.16793 0.87005
 H458 H 0.57442 0.22273 0.92878
 H459 H 0.40174 0.18820 0.95651
 H460 H 0.44660 0.15730 0.98707
 H461 H 0.40393 0.13583 0.89769
 H462 H 0.44854 0.10504 0.92861
 C463 C 1.04645 0.57586 0.35060
 C464 C 1.01454 0.60931 0.34885
 C465 C 0.98559 0.60924 0.31115
 C466 C 0.98460 0.57393 0.28159
 C467 C 1.01295 0.53821 0.28843
 C468 C 1.04589 0.54170 0.32111
 C469 C 1.06426 0.51101 0.35490
 C470 C 1.06409 0.54827 0.38778
 H471 H 0.96259 0.63551 0.30476
 H472 H 0.96075 0.57419 0.25438
 H473 H 1.09806 0.49928 0.34622
 H474 H 1.04130 0.48566 0.36422
 H475 H 1.09795 0.55686 0.39863
 H476 H 1.03998 0.54496 0.41518
 C477 C 1.12425 0.51770 0.18690
 C478 C 1.12986 0.48430 0.15548
 C479 C 1.10377 0.44787 0.16193
 C480 C 1.06950 0.44838 0.19322
 C481 C 1.06095 0.48463 0.21995
 C482 C 1.09078 0.51778 0.21825
 C483 C 1.08246 0.56484 0.21446
 C484 C 1.11864 0.56491 0.17998
 H485 H 1.10822 0.41916 0.14212
 H486 H 1.04797 0.42135 0.19445
 H487 H 1.09140 0.58214 0.24568
 H488 H 1.04923 0.57328 0.20048
 H489 H 1.14794 0.58277 0.19147
 H490 H 1.10635 0.57304 0.14582
 C491 C 0.70749 -0.00193 0.61942
 C492 C 0.66259 -0.01017 0.61393
 C493 C 0.64520 -0.01035 0.57000
 C494 C 0.67303 -0.00630 0.53304
 C495 C 0.71895 -0.00259 0.53915
 C496 C 0.73501 0.00084 0.58292
 C497 C 0.77251 -0.02164 0.60634
 C498 C 0.74232 -0.02498 0.64639
 H499 H 0.61014 -0.01407 0.56422
 H500 H 0.65856 -0.00744 0.49986
 H501 H 0.80071 -0.00028 0.61243
 H502 H 0.78137 -0.05312 0.59110
 H503 H 0.75337 -0.00576 0.67560
 H504 H 0.73345 -0.05837 0.65410
 C505 C -0.10083 0.53852 0.84922
 C506 C -0.13422 0.50821 0.84981
 C507 C -0.13433 0.47821 0.81420
 C508 C -0.09891 0.47500 0.78420
 C509 C -0.06305 0.50253 0.78786
 C510 C -0.06636 0.53577 0.81916
 C511 C -0.03388 0.55154 0.85308
 C512 C -0.07163 0.55475 0.88579
 H513 H -0.16058 0.45579 0.81012
 H514 H -0.09912 0.44965 0.75964
 H515 H -0.02072 0.58315 0.84425
 H516 H -0.00862 0.52711 0.86330
 H517 H -0.08008 0.58834 0.89535
 H518 H -0.06801 0.53205 0.91413
 C519 C 0.30288 0.01711 0.38535
 C520 C 0.33763 -0.01309 0.38027
 C521 C 0.33737 -0.04903 0.40876
 C522 C 0.30861 -0.05010 0.44531
 C523 C 0.27865 -0.01594 0.45358
 C524 C 0.27392 0.01558 0.42088
 C525 C 0.27053 0.06313 0.42451
 C526 C 0.30263 0.06482 0.38595
 H527 H 0.36086 -0.07535 0.40461
 H528 H 0.31173 -0.07639 0.46861
 H529 H 0.28429 0.07560 0.45633
 H530 H 0.23690 0.07571 0.41566
 H531 H 0.33524 0.07772 0.39570
 H532 H 0.28743 0.07877 0.35516
 C533 C 0.09841 0.53408 0.82028
 C534 C 0.10810 0.50024 0.84939
 C535 C 0.07836 0.46651 0.85106
 C536 C 0.04195 0.46545 0.82154
 C537 C 0.03529 0.49757 0.78928
 C538 C 0.06291 0.53260 0.79050
 C539 C 0.08878 0.55182 0.75391
 C540 C 0.12747 0.55352 0.78654
 H541 H 0.08346 0.44096 0.87496
 H542 H 0.01955 0.43914 0.82329
 H543 H 0.07573 0.58405 0.74437
 H544 H 0.09450 0.52939 0.72549
 H545 H 0.13639 0.58664 0.79589
 H546 H 0.15576 0.53206 0.77711
 C547 C 0.67179 0.04383 0.39110
 C548 C 0.65255 0.00686 0.37347
 C549 C 0.67308 -0.03276 0.38525
 C550 C 0.70728 -0.03496 0.41764
 C551 C 0.72217 0.00239 0.43860
 C552 C 0.70608 0.04150 0.42215
 C553 C 0.69155 0.08137 0.44568
 C554 C 0.65318 0.08373 0.41255
 H555 H 0.66081 -0.06241 0.37180
 H556 H 0.71992 -0.06596 0.42811
 H557 H 0.71533 0.10746 0.44159
 H558 H 0.68122 0.07567 0.48060
 H559 H 0.65418 0.11187 0.39014
 H560 H 0.62131 0.07921 0.42960
 C561 C 0.93038 0.48201 0.13980
 C562 C 0.88738 0.49039 0.15466
 C563 C 0.88134 0.49588 0.20097
 C564 C 0.91794 0.49589 0.23049
 C565 C 0.96125 0.49058 0.21447
 C566 C 0.96652 0.48225 0.16885
 C567 C 0.99376 0.50477 0.13535
 C568 C 0.95436 0.50387 0.10371
 H569 H 0.84854 0.50100 0.21427
 H570 H 0.91237 0.50170 0.26552
 H571 H 1.02199 0.48475 0.12316
 H572 H 1.00228 0.53759 0.14617
 H573 H 0.95979 0.48271 0.07421
 H574 H 0.94010 0.53615 0.09604
 C575 C 0.35771 0.02195 0.58407
 C576 C 0.35949 -0.00644 0.62018
 C577 C 0.32283 -0.03303 0.62503
 C578 C 0.28945 -0.03467 0.59186
 C579 C 0.29099 -0.00909 0.55340
 C580 C 0.32462 0.02062 0.55163
 C581 C 0.35598 0.03107 0.51535
 C582 C 0.39205 0.03258 0.55093
 H583 H 0.32021 -0.05368 0.65362
 H584 H 0.26356 -0.05723 0.59599
 H585 H 0.34856 0.06282 0.50027
 H586 H 0.36153 0.00457 0.49113
 H587 H 0.40487 0.06521 0.55612
 H588 H 0.41776 0.00677 0.54735
   
