data_POSCAR
  _audit_creation_date              2014-09-24
  _audit_creation_method            'ToBaCCo'
  _symmetry_space_group_name_H-M    'P1'
  _symmetry_Int_Tables_number       1
  _symmetry_cell_setting            triclinic
  loop_
  _symmetry_equiv_pos_as_xyz
 x,y,z
_cell_length_a 50.3335
_cell_length_b 50.3628
_cell_length_c 50.3741
_cell_angle_alpha 90.008400
_cell_angle_beta 90.024800
_cell_angle_gamma 89.984700
loop_
  _atom_site_label
  _atom_site_type_symbol
  _atom_site_fract_x
  _atom_site_fract_y
  _atom_site_fract_z
C1 C 0.28566 0.32010 0.01295
 C2 C 0.28568 0.32015 -0.01505
 C3 C 0.30264 0.30296 -0.02889
 C4 C 0.31977 0.28591 -0.01506
 C5 C 0.31972 0.28587 0.01294
 C6 C 0.30258 0.30287 0.02675
 H7 H 0.30276 0.30303 0.04829
 H8 H 0.30286 0.30319 -0.05045
 C9 C 0.71373 0.68041 0.01331
 C10 C 0.71374 0.68053 -0.01464
 C11 C 0.69673 0.69770 -0.02843
 C12 C 0.67951 0.71461 -0.01455
 C13 C 0.67952 0.71449 0.01346
 C14 C 0.69672 0.69748 0.02721
 H15 H 0.69653 0.69718 0.04874
 H16 H 0.69660 0.69754 -0.04997
 C17 C 0.71421 0.32041 0.98591
 C18 C 0.71428 0.32038 1.01392
 C19 C 0.69732 0.30319 1.02776
 C20 C 0.68014 0.28624 1.01392
 C21 C 0.68008 0.28628 0.98596
 C22 C 0.69720 0.30326 0.97212
 H23 H 0.69693 0.30347 0.95058
 H24 H 0.69712 0.30329 1.04930
 C25 C 0.28527 0.68057 0.98750
 C26 C 0.28523 0.68054 1.01551
 C27 C 0.30219 0.69772 1.02938
 C28 C 0.31936 0.71474 1.01558
 C29 C 0.31935 0.71476 0.98758
 C30 C 0.30222 0.69777 0.97374
 H31 H 0.30244 0.69759 0.95220
 H32 H 0.30237 0.69751 1.05094
 C33 C 0.01431 0.28523 0.31925
 C34 C -0.01367 0.28509 0.31909
 C35 C -0.02752 0.30197 0.30186
 C36 C -0.01369 0.31918 0.28497
 C37 C 0.01430 0.31932 0.28512
 C38 C 0.02815 0.30225 0.30217
 H39 H 0.04970 0.30257 0.30249
 H40 H -0.04907 0.30207 0.30195
 C41 C 0.01366 0.71421 0.68005
 C42 C -0.01436 0.71417 0.67996
 C43 C -0.02823 0.69717 0.69709
 C44 C -0.01440 0.68003 0.71411
 C45 C 0.01363 0.68009 0.71419
 C46 C 0.02747 0.69726 0.69726
 H47 H 0.04902 0.69710 0.69713
 H48 H -0.04980 0.69695 0.69683
 C49 C 0.98655 0.71370 0.31957
 C50 C 1.01453 0.71370 0.31957
 C51 C 1.02838 0.69676 0.30240
 C52 C 1.01455 0.67961 0.28539
 C53 C 0.98652 0.67963 0.28539
 C54 C 0.97270 0.69677 0.30239
 H55 H 0.95115 0.69659 0.30260
 H56 H 1.04995 0.69662 0.30266
 C57 C 0.98646 0.28544 0.67961
 C58 C 1.01449 0.28544 0.67965
 C59 C 1.02830 0.30244 0.69684
 C60 C 1.01442 0.31960 0.71376
 C61 C 0.98644 0.31960 0.71370
 C62 C 0.97262 0.30244 0.69673
 H63 H 0.95107 0.30265 0.69650
 H64 H 1.04986 0.30269 0.69674
 C65 C 0.32005 0.01311 0.28630
 C66 C 0.32007 -0.01489 0.28633
 C67 C 0.30294 -0.02871 0.30337
 C68 C 0.28599 -0.01484 0.32057
 C69 C 0.28600 0.01317 0.32051
 C70 C 0.30293 0.02695 0.30329
 H71 H 0.30312 0.04849 0.30345
 H72 H 0.30313 -0.05027 0.30359
 C73 C 0.68018 0.01392 0.71455
 C74 C 0.68026 -0.01405 0.71468
 C75 C 0.69745 -0.02793 0.69778
 C76 C 0.71438 -0.01414 0.68057
 C77 C 0.71431 0.01383 0.68045
 C78 C 0.69730 0.02771 0.69752
 H79 H 0.69703 0.04925 0.69721
 H80 H 0.69730 -0.04947 0.69768
 C81 C 0.31975 0.98721 0.71468
 C82 C 0.31976 1.01522 0.71463
 C83 C 0.30261 1.02904 0.69759
 C84 C 0.28566 1.01517 0.68040
 C85 C 0.28568 0.98716 0.68045
 C86 C 0.30262 0.97338 0.69768
 H87 H 0.30282 0.95184 0.69752
 H88 H 0.30280 1.05060 0.69736
 C89 C 0.68046 0.98594 0.28588
 C90 C 0.68048 1.01390 0.28586
 C91 C 0.69766 1.02775 0.30280
 C92 C 0.71466 1.01392 0.31997
 C93 C 0.71464 0.98590 0.31996
 C94 C 0.69763 0.97209 0.30282
 H95 H 0.69740 0.95056 0.30302
 H96 H 0.69741 1.04930 0.30294
 O97 O 0.89205 0.85427 0.47453
 O98 O 0.85540 0.89094 0.52625
 O99 O 0.89202 0.85426 0.52627
 O100 O 0.85543 0.89093 0.47451
 O101 O 0.82438 0.85987 0.47454
 O102 O 0.86088 0.82329 0.52617
 O103 O 0.82435 0.85987 0.52615
 O104 O 0.86091 0.82330 0.47456
 Cu105 Cu 0.87687 0.87574 0.50040
 Cu106 Cu 0.83950 0.83846 0.50035
 C107 C 0.88265 0.83256 0.46585
 C108 C 0.83365 0.88159 0.53488
 C109 C 0.88262 0.83255 0.53492
 C110 C 0.83369 0.88158 0.46583
 O111 O 0.14550 0.10871 0.52661
 O112 O 0.10880 0.14519 0.47477
 O113 O 0.14547 0.10857 0.47488
 O114 O 0.10880 0.14531 0.52651
 O115 O 0.13988 0.17634 0.52638
 O116 O 0.17647 0.13969 0.47487
 O117 O 0.13989 0.17621 0.47476
 O118 O 0.17650 0.13983 0.52648
 Cu119 Cu 0.12400 0.12380 0.50070
 Cu120 Cu 0.16131 0.16114 0.50062
 C121 C 0.16723 0.11812 0.53525
 C122 C 0.11817 0.16689 0.46605
 C123 C 0.16719 0.11794 0.46620
 C124 C 0.11816 0.16705 0.53512
 O125 O 0.10893 0.85491 0.52570
 O126 O 0.14571 0.89145 0.47400
 O127 O 0.10907 0.85480 0.47398
 O128 O 0.14553 0.89159 0.52573
 O129 O 0.17659 0.86052 0.52585
 O130 O 0.14021 0.82382 0.47421
 O131 O 0.17676 0.86037 0.47423
 O132 O 0.14008 0.82393 0.52582
 Cu133 Cu 0.12417 0.87633 0.49983
 Cu134 Cu 0.16154 0.83904 0.50004
 C135 C 0.11831 0.83321 0.53445
 C136 C 0.16748 0.88206 0.46543
 C137 C 0.11849 0.83307 0.46540
 C138 C 0.16725 0.88225 0.53449
 O139 O 0.85483 0.10772 0.47358
 O140 O 0.89153 0.14442 0.52526
 O141 O 0.85487 0.10782 0.52532
 O142 O 0.89154 0.14429 0.47353
 O143 O 0.86045 0.17533 0.47353
 O144 O 0.82387 0.13895 0.52519
 O145 O 0.86044 0.17546 0.52513
 O146 O 0.82384 0.13886 0.47358
 Cu147 Cu 0.87633 0.12291 0.49943
 Cu148 Cu 0.83902 0.16028 0.49935
 C149 C 0.83311 0.11711 0.46489
 C150 C 0.88216 0.16617 0.53388
 C151 C 0.83315 0.11724 0.53396
 C152 C 0.88217 0.16600 0.46483
 O153 O 0.47393 0.89187 0.85580
 O154 O 0.52569 0.85503 0.89230
 O155 O 0.52570 0.89171 0.85573
 O156 O 0.47392 0.85524 0.89242
 O157 O 0.47380 0.82424 0.86131
 O158 O 0.52547 0.86063 0.82471
 O159 O 0.52545 0.82405 0.86118
 O160 O 0.47383 0.86079 0.82478
 Cu161 Cu 0.49983 0.87660 0.87721
 Cu162 Cu 0.49962 0.83930 0.83987
 C163 C 0.46519 0.88254 0.83409
 C164 C 0.53427 0.83329 0.88288
 C165 C 0.53429 0.88231 0.83399
 C166 C 0.46516 0.83355 0.88305
 O167 O 0.52567 0.14501 0.10835
 O168 O 0.47396 0.10831 0.14498
 O169 O 0.47390 0.14491 0.10831
 O170 O 0.52573 0.10838 0.14497
 O171 O 0.52561 0.13950 0.17596
 O172 O 0.47390 0.17593 0.13938
 O173 O 0.47396 0.13943 0.17596
 O174 O 0.52555 0.17603 0.13942
 Cu175 Cu 0.49982 0.12351 0.12351
 Cu176 Cu 0.49975 0.16085 0.16080
 C177 C 0.53430 0.16675 0.11772
 C178 C 0.46528 0.11768 0.16669
 C179 C 0.46520 0.16662 0.11766
 C180 C 0.53438 0.11779 0.16669
 O181 O 0.47341 0.14569 0.89131
 O182 O 0.52517 0.10891 0.85481
 O183 O 0.52519 0.14558 0.89140
 O184 O 0.47339 0.10901 0.85473
 O185 O 0.47355 0.14008 0.82370
 O186 O 0.52522 0.17655 0.86027
 O187 O 0.52520 0.13997 0.82378
 O188 O 0.47356 0.17666 0.86019
 Cu189 Cu 0.49928 0.12416 0.87620
 Cu190 Cu 0.49939 0.16144 0.83886
 C191 C 0.46479 0.16742 0.88190
 C192 C 0.53388 0.11824 0.83309
 C193 C 0.53390 0.16727 0.88201
 C194 C 0.46477 0.11839 0.83299
 O195 O 0.47316 0.85475 0.10921
 O196 O 0.52505 0.89142 0.14566
 O197 O 0.52494 0.85482 0.10900
 O198 O 0.47328 0.89136 0.14586
 O199 O 0.47352 0.86024 0.17683
 O200 O 0.52506 0.82379 0.14007
 O201 O 0.52517 0.86030 0.17663
 O202 O 0.47341 0.82372 0.14027
 Cu203 Cu 0.49909 0.87623 0.12430
 Cu204 Cu 0.49931 0.83889 0.16157
 C205 C 0.46456 0.83302 0.11860
 C206 C 0.53383 0.88204 0.16733
 C207 C 0.53368 0.83311 0.11833
 C208 C 0.46472 0.88196 0.16760
 O209 O 0.89167 0.52635 0.85392
 O210 O 0.85503 0.47466 0.89061
 O211 O 0.89169 0.47460 0.85401
 O212 O 0.85502 0.52640 0.89054
 O213 O 0.82399 0.52628 0.85943
 O214 O 0.86057 0.47461 0.82299
 O215 O 0.82401 0.47466 0.85951
 O216 O 0.86056 0.52624 0.82291
 Cu217 Cu 0.87650 0.50051 0.87541
 Cu218 Cu 0.83916 0.50044 0.83808
 C219 C 0.88229 0.53498 0.83219
 C220 C 0.83330 0.46598 0.88125
 C221 C 0.88231 0.46590 0.83230
 C222 C 0.83328 0.53503 0.88114
 O223 O 0.14523 0.47476 0.10828
 O224 O 0.10857 0.52636 0.14510
 O225 O 0.14524 0.52650 0.10852
 O226 O 0.10859 0.47461 0.14489
 O227 O 0.13970 0.47454 0.17590
 O228 O 0.17625 0.52630 0.13963
 O229 O 0.13968 0.52616 0.17612
 O230 O 0.17626 0.47468 0.13939
 Cu231 Cu 0.12376 0.50057 0.12355
 Cu232 Cu 0.16110 0.50041 0.16089
 C233 C 0.16696 0.46604 0.11763
 C234 C 0.11795 0.53493 0.16686
 C235 C 0.16696 0.53512 0.11795
 C236 C 0.11797 0.46586 0.16657
 O237 O 0.85465 0.52557 0.10770
 O238 O 0.89135 0.47377 0.14422
 O239 O 0.85463 0.47382 0.10765
 O240 O 0.89135 0.52552 0.14429
 O241 O 0.86029 0.52544 0.17533
 O242 O 0.82366 0.47387 0.13878
 O243 O 0.86029 0.47382 0.17526
 O244 O 0.82367 0.52550 0.13882
 Cu245 Cu 0.87613 0.49967 0.12282
 Cu246 Cu 0.83885 0.49966 0.16018
 C247 C 0.83293 0.53424 0.11710
 C248 C 0.88201 0.46509 0.16594
 C249 C 0.83291 0.46516 0.11705
 C250 C 0.88201 0.53416 0.16603
 O251 O 0.14528 0.52573 0.89185
 O252 O 0.10882 0.47402 0.85498
 O253 O 0.14544 0.47398 0.89165
 O254 O 0.10868 0.52575 0.85515
 O255 O 0.13984 0.52588 0.82420
 O256 O 0.17650 0.47424 0.86061
 O257 O 0.13997 0.47426 0.82403
 O258 O 0.17634 0.52586 0.86081
 Cu259 Cu 0.12391 0.49985 0.87654
 Cu260 Cu 0.16130 0.50008 0.83930
 C261 C 0.16699 0.53449 0.88254
 C262 C 0.11825 0.46545 0.83325
 C263 C 0.16721 0.46541 0.88227
 C264 C 0.11807 0.53451 0.83348
 C265 C 0.21675 0.38202 0.08908
 C266 C 0.21000 0.36936 0.06185
 C267 C 0.23893 0.37365 0.05315
 C268 C 0.24592 0.38601 0.08013
 C269 C 0.20984 0.40945 0.07764
 C270 C 0.23877 0.41372 0.06890
 C271 C 0.20284 0.39712 0.05063
 C272 C 0.23202 0.40108 0.04169
 C273 C 0.25540 0.35402 0.03943
 C274 C 0.26913 0.33830 0.02774
 C275 C 0.19405 0.42951 0.09159
 C276 C 0.18146 0.44613 0.10333
 H277 H 0.21028 0.37440 0.10871
 H278 H 0.19838 0.35088 0.05880
 H279 H 0.26380 0.38121 0.09211
 H280 H 0.25042 0.43219 0.07193
 H281 H 0.18497 0.40191 0.03863
 H282 H 0.23849 0.40866 0.02204
 C283 C 0.79994 0.60896 0.05492
 C284 C 0.77411 0.60310 0.03921
 C285 C 0.76070 0.62676 0.05307
 C286 C 0.78626 0.63295 0.06854
 C287 C 0.78992 0.59094 0.07739
 C288 C 0.77650 0.61460 0.09122
 C289 C 0.76436 0.58477 0.06189
 C290 C 0.75071 0.60872 0.07551
 C291 C 0.74415 0.64641 0.03946
 C292 C 0.73035 0.66217 0.02790
 C293 C 0.80577 0.57085 0.09124
 C294 C 0.81839 0.55420 0.10291
 H295 H 0.82035 0.60882 0.04658
 H296 H 0.77292 0.59862 0.01766
 H297 H 0.79507 0.65299 0.07113
 H298 H 0.77766 0.61911 0.11276
 H299 H 0.75553 0.56474 0.05928
 H300 H 0.73029 0.60884 0.08384
 C301 C 0.76479 0.39719 0.90978
 C302 C 0.77457 0.36943 0.91871
 C303 C 0.76108 0.37380 0.94570
 C304 C 0.75107 0.40127 0.93698
 C305 C 0.79030 0.40947 0.92119
 C306 C 0.77681 0.41384 0.94820
 C307 C 0.80034 0.38201 0.92993
 C308 C 0.78658 0.38607 0.95716
 C309 C 0.74455 0.35425 0.95943
 C310 C 0.73078 0.33857 0.97113
 C311 C 0.80616 0.42948 0.90725
 C312 C 0.81878 0.44607 0.89551
 H313 H 0.75599 0.40199 0.89014
 H314 H 0.77345 0.35095 0.90674
 H315 H 0.73063 0.40896 0.94002
 H316 H 0.77791 0.43229 0.96021
 H317 H 0.82079 0.37433 0.92689
 H318 H 0.79532 0.38125 0.97682
 C319 C 0.23187 0.60745 0.90946
 C320 C 0.22091 0.63277 0.92307
 C321 C 0.23866 0.62699 0.94719
 C322 C 0.24985 0.60198 0.93380
 C323 C 0.20967 0.59118 0.92261
 C324 C 0.22742 0.58541 0.94676
 C325 C 0.19845 0.61618 0.93602
 C326 C 0.21647 0.61073 0.96039
 C327 C 0.25508 0.64663 0.96096
 C328 C 0.26877 0.66236 0.97268
 C329 C 0.19394 0.57109 0.90863
 C330 C 0.18141 0.55444 0.89686
 H331 H 0.23803 0.60588 0.88836
 H332 H 0.21843 0.65246 0.91348
 H333 H 0.27116 0.59637 0.93302
 H334 H 0.22991 0.56574 0.95637
 H335 H 0.17713 0.62177 0.93680
 H336 H 0.21034 0.61233 0.98150
 C337 C 0.09177 0.22076 0.38410
 C338 C 0.06743 0.21174 0.36754
 C339 C 0.05413 0.23861 0.37315
 C340 C 0.07824 0.24787 0.38940
 C341 C 0.07842 0.20960 0.40915
 C342 C 0.06509 0.23647 0.41473
 C343 C 0.05429 0.20032 0.39292
 C344 C 0.04076 0.22746 0.39820
 C345 C 0.04054 0.25505 0.35340
 C346 C 0.02896 0.26875 0.33757
 C347 C 0.09226 0.19385 0.42933
 C348 C 0.10394 0.18132 0.44604
 H349 H 0.11290 0.21782 0.37852
 H350 H 0.06825 0.20177 0.34790
 H351 H 0.08794 0.26759 0.38772
 H352 H 0.06425 0.24647 0.43436
 H353 H 0.04457 0.18061 0.39461
 H354 H 0.01961 0.23042 0.40374
 C355 C 0.08989 0.76493 0.60343
 C356 C 0.08079 0.77477 0.63111
 C357 C 0.05388 0.76110 0.62669
 C358 C 0.06276 0.75103 0.59931
 C359 C 0.07835 0.79029 0.59099
 C360 C 0.05142 0.77662 0.58659
 C361 C 0.06945 0.80040 0.61836
 C362 C 0.04230 0.78645 0.61427
 C363 C 0.04016 0.74456 0.64626
 C364 C 0.02847 0.73079 0.66192
 C365 C 0.09228 0.80613 0.57097
 C366 C 0.10402 0.81873 0.55436
 H367 H 0.10961 0.75624 0.59874
 H368 H 0.09271 0.77381 0.64963
 H369 H 0.05987 0.73054 0.59170
 H370 H 0.03946 0.77757 0.56809
 H371 H 0.07234 0.82089 0.62596
 H372 H 0.02255 0.79509 0.61897
 C373 C 0.94720 0.79845 0.39370
 C374 C 0.95976 0.77082 0.39884
 C375 C 0.94670 0.76052 0.37325
 C376 C 0.93438 0.78788 0.36778
 C377 C 0.92239 0.78965 0.40912
 C378 C 0.90936 0.77934 0.38353
 C379 C 0.93474 0.76229 0.41456
 C380 C 0.92191 0.75174 0.38869
 C381 C 0.96031 0.74401 0.35357
 C382 C 0.97190 0.73026 0.33781
 C383 C 0.90855 0.80547 0.42923
 C384 C 0.89687 0.81806 0.44589
 H385 H 0.95748 0.81782 0.39599
 H386 H 0.98065 0.76712 0.40488
 H387 H 0.93438 0.79820 0.34831
 H388 H 0.88848 0.78303 0.37745
 H389 H 0.93477 0.75195 0.43402
 H390 H 0.91166 0.73236 0.38641
 C391 C 0.93798 0.23442 0.58414
 C392 C 0.92429 0.24861 0.60773
 C393 C 0.94638 0.23848 0.62618
 C394 C 0.96030 0.22454 0.60288
 C395 C 0.92198 0.20922 0.59045
 C396 C 0.94410 0.19907 0.60888
 C397 C 0.90809 0.22317 0.61376
 C398 C 0.93041 0.21328 0.63251
 C399 C 0.96005 0.25505 0.64576
 C400 C 0.97171 0.26884 0.66145
 C401 C 0.90811 0.19334 0.57042
 C402 C 0.89641 0.18071 0.55380
 H403 H 0.94097 0.24293 0.56404
 H404 H 0.91628 0.26915 0.60749
 H405 H 0.98194 0.22532 0.59865
 H406 H 0.95211 0.17854 0.60912
 H407 H 0.88647 0.22243 0.61802
 H408 H 0.92745 0.20480 0.65263
 C409 C 0.41318 0.05060 0.22309
 C410 C 0.40092 0.06174 0.24899
 C411 C 0.37329 0.05325 0.23918
 C412 C 0.38525 0.04188 0.21352
 C413 C 0.40886 0.07773 0.20982
 C414 C 0.38124 0.06924 0.19998
 C415 C 0.39688 0.08906 0.23549
 C416 C 0.36896 0.08037 0.22591
 C417 C 0.35379 0.03955 0.25580
 C418 C 0.33816 0.02787 0.26964
 C419 C 0.42882 0.09167 0.19389
 C420 C 0.44539 0.10340 0.18123
 H421 H 0.43156 0.03848 0.22174
 H422 H 0.40878 0.05851 0.26932
 H423 H 0.38023 0.02231 0.20471
 H424 H 0.37339 0.07246 0.17964
 H425 H 0.40189 0.10861 0.24436
 H426 H 0.35056 0.09245 0.22727
 C427 C 0.61846 0.07060 0.80013
 C428 C 0.61491 0.04287 0.78722
 C429 C 0.62647 0.05390 0.76124
 C430 C 0.63033 0.08138 0.77387
 C431 C 0.59061 0.07832 0.79031
 C432 C 0.60218 0.08931 0.76431
 C433 C 0.58675 0.05082 0.77767
 C434 C 0.59861 0.06161 0.75144
 C435 C 0.64614 0.04023 0.74477
 C436 C 0.66191 0.02860 0.73106
 C437 C 0.57050 0.09223 0.80608
 C438 C 0.55384 0.10396 0.81864
 H439 H 0.62638 0.07443 0.82034
 H440 H 0.62039 0.02360 0.79643
 H441 H 0.64847 0.09379 0.77212
 H442 H 0.59671 0.10855 0.75505
 H443 H 0.56863 0.03837 0.77941
 H444 H 0.59067 0.05778 0.73124
 C445 C 0.38124 0.93142 0.80106
 C446 C 0.38536 0.95860 0.78721
 C447 C 0.37306 0.94707 0.76177
 C448 C 0.36863 0.92014 0.77535
 C449 C 0.40870 0.92258 0.79108
 C450 C 0.39639 0.91110 0.76563
 C451 C 0.41312 0.94953 0.77751
 C452 C 0.40053 0.93824 0.75182
 C453 C 0.35353 0.96078 0.74516
 C454 C 0.33788 0.97246 0.73133
 C455 C 0.42869 0.90863 0.80698
 C456 C 0.44528 0.89686 0.81960
 H457 H 0.37355 0.92847 0.82150
 H458 H 0.38058 0.97830 0.79586
 H459 H 0.35012 0.90820 0.77426
 H460 H 0.40115 0.89141 0.75692
 H461 H 0.43161 0.96150 0.77857
 H462 H 0.40823 0.94119 0.73139
 C463 C 0.58542 0.93381 0.23760
 C464 C 0.61153 0.92111 0.24777
 C465 C 0.62667 0.94611 0.23912
 C466 C 0.60085 0.95904 0.22919
 C467 C 0.59071 0.92180 0.21007
 C468 C 0.60584 0.94684 0.20139
 C469 C 0.61654 0.90890 0.22000
 C470 C 0.63199 0.93415 0.21158
 C471 C 0.64639 0.95972 0.25559
 C472 C 0.66219 0.97131 0.26933
 C473 C 0.57055 0.90795 0.19430
 C474 C 0.55385 0.89627 0.18176
 H475 H 0.56605 0.93354 0.24813
 H476 H 0.61409 0.91067 0.26701
 H477 H 0.59466 0.97982 0.23317
 H478 H 0.60326 0.95729 0.18216
 H479 H 0.62277 0.88813 0.21603
 H480 H 0.65138 0.93443 0.20109
 C481 C 0.41385 0.23748 0.93462
 C482 C 0.38841 0.24883 0.92156
 C483 C 0.37232 0.23980 0.94583
 C484 C 0.39747 0.22869 0.95911
 C485 C 0.40811 0.21052 0.92155
 C486 C 0.39204 0.20146 0.94584
 C487 C 0.38296 0.22163 0.90829
 C488 C 0.36656 0.21284 0.93279
 C489 C 0.35270 0.25638 0.95944
 C490 C 0.33700 0.27019 0.97107
 C491 C 0.42819 0.19463 0.90773
 C492 C 0.44483 0.18198 0.89608
 H493 H 0.43352 0.24743 0.93525
 H494 H 0.38670 0.26848 0.91172
 H495 H 0.40318 0.23180 0.98018
 H496 H 0.39376 0.18182 0.95569
 H497 H 0.37721 0.21854 0.88724
 H498 H 0.34688 0.20291 0.93218
 C499 C 0.61621 0.77917 0.90910
 C500 C 0.63257 0.78786 0.93368
 C501 C 0.62688 0.76079 0.94653
 C502 C 0.61082 0.75187 0.92218
 C503 C 0.59102 0.79013 0.92239
 C504 C 0.58535 0.76306 0.93528
 C505 C 0.60705 0.79907 0.94677
 C506 C 0.60169 0.77175 0.95985
 C507 C 0.64653 0.74419 0.96007
 C508 C 0.66226 0.73035 0.97164
 C509 C 0.57091 0.80605 0.90864
 C510 C 0.55424 0.81871 0.89703
 H511 H 0.62196 0.78241 0.88808
 H512 H 0.65222 0.79784 0.93317
 H513 H 0.61260 0.73229 0.91222
 H514 H 0.56571 0.75305 0.93581
 H515 H 0.60526 0.81864 0.95675
 H516 H 0.59597 0.76849 0.98089
 C517 C 0.41218 0.77598 0.05228
 C518 C 0.39922 0.75063 0.06387
 C519 C 0.37193 0.76078 0.05474
 C520 C 0.38459 0.78590 0.04292
 C521 C 0.40777 0.79002 0.07901
 C522 C 0.38048 0.80021 0.06986
 C523 C 0.39509 0.76489 0.09078
 C524 C 0.36750 0.77482 0.08144
 C525 C 0.35229 0.74423 0.04112
 C526 C 0.33659 0.73043 0.02948
 C527 C 0.42788 0.80588 0.09281
 C528 C 0.44456 0.81850 0.10444
 H529 H 0.43075 0.77664 0.04041
 H530 H 0.40670 0.73005 0.06127
 H531 H 0.38002 0.79431 0.02306
 H532 H 0.37302 0.82079 0.07246
 H533 H 0.39964 0.75642 0.11061
 H534 H 0.34891 0.77414 0.09327
 C535 C 0.61604 0.22099 0.09126
 C536 C 0.63246 0.21221 0.06676
 C537 C 0.62666 0.23916 0.05373
 C538 C 0.61055 0.24818 0.07800
 C539 C 0.59091 0.20985 0.07800
 C540 C 0.58513 0.23680 0.06493
 C541 C 0.60700 0.20081 0.05371
 C542 C 0.60153 0.22803 0.04044
 C543 C 0.64626 0.25577 0.04014
 C544 C 0.66196 0.26960 0.02856
 C545 C 0.57086 0.19394 0.09183
 C546 C 0.55423 0.18129 0.10350
 H547 H 0.62179 0.21790 0.11231
 H548 H 0.65215 0.20230 0.06737
 H549 H 0.61223 0.26783 0.08784
 H550 H 0.56545 0.24674 0.06430
 H551 H 0.60530 0.18116 0.04385
 H552 H 0.59581 0.23113 0.01938
 C553 C 0.23695 0.06479 0.58612
 C554 C 0.24888 0.07805 0.61117
 C555 C 0.23958 0.05423 0.62777
 C556 C 0.22789 0.04075 0.60301
 C557 C 0.21031 0.07849 0.59196
 C558 C 0.20098 0.05465 0.60855
 C559 C 0.22200 0.09194 0.61673
 C560 C 0.21294 0.06789 0.63364
 C561 C 0.25616 0.04062 0.64740
 C562 C 0.26996 0.02901 0.66313
 C563 C 0.19442 0.09231 0.57188
 C564 C 0.18177 0.10395 0.55522
 H565 H 0.24664 0.06364 0.56636
 H566 H 0.26875 0.08753 0.61247
 H567 H 0.23052 0.01953 0.59762
 H568 H 0.18112 0.04516 0.60723
 H569 H 0.21939 0.11315 0.62215
 H570 H 0.20327 0.06902 0.65341
 C571 C 0.79969 0.06989 0.38030
 C572 C 0.78696 0.04206 0.38374
 C573 C 0.76079 0.05304 0.37249
 C574 C 0.77324 0.08062 0.36873
 C575 C 0.79007 0.07734 0.40827
 C576 C 0.76388 0.08828 0.39700
 C577 C 0.77761 0.04975 0.41202
 C578 C 0.75120 0.06049 0.40046
 C579 C 0.74421 0.03942 0.35288
 C580 C 0.73039 0.02778 0.33719
 C581 C 0.80595 0.09119 0.42833
 C582 C 0.81858 0.10287 0.44496
 H583 H 0.81982 0.07388 0.37225
 H584 H 0.79623 0.02288 0.37804
 H585 H 0.77124 0.09316 0.35072
 H586 H 0.75455 0.10743 0.40269
 H587 H 0.77959 0.03717 0.43001
 H588 H 0.73107 0.05648 0.40853
 C589 C 0.76488 0.91021 0.60332
 C590 C 0.77450 0.91864 0.63129
 C591 C 0.76139 0.94587 0.62716
 C592 C 0.75154 0.93765 0.59949
 C593 C 0.79064 0.92145 0.59145
 C594 C 0.77753 0.94870 0.58733
 C595 C 0.80053 0.92969 0.61911
 C596 C 0.78714 0.95716 0.61530
 C597 C 0.74482 0.95954 0.64674
 C598 C 0.73101 0.97117 0.66243
 C599 C 0.80651 0.90755 0.57142
 C600 C 0.81913 0.89584 0.55480
 H601 H 0.75588 0.89076 0.59816
 H602 H 0.77306 0.90644 0.64958
 H603 H 0.73121 0.94106 0.59165
 H604 H 0.77896 0.96094 0.56906
 H605 H 0.82086 0.92628 0.62694
 H606 H 0.79608 0.97664 0.62047
 C607 C 0.23915 0.91375 0.40152
 C608 C 0.23196 0.91665 0.37177
 C609 C 0.23991 0.94606 0.37311
 C610 C 0.24733 0.94336 0.40258
 C611 C 0.21061 0.92174 0.40884
 C612 C 0.21856 0.95117 0.41019
 C613 C 0.20316 0.92445 0.37938
 C614 C 0.21139 0.95410 0.38041
 C615 C 0.25649 0.95969 0.35352
 C616 C 0.27029 0.97131 0.33782
 C617 C 0.19470 0.90791 0.42888
 C618 C 0.18204 0.89625 0.44550
 H619 H 0.25040 0.89701 0.41044
 H620 H 0.23766 0.90262 0.35576
 H621 H 0.26569 0.95129 0.41189
 H622 H 0.21289 0.96524 0.42617
 H623 H 0.18480 0.91654 0.37007
 H624 H 0.20019 0.97088 0.37150
 C625 C 0.09240 0.39103 0.76955
 C626 C 0.07673 0.36691 0.78044
 C627 C 0.05424 0.37313 0.76079
 C628 C 0.06970 0.39695 0.74966
 C629 C 0.07857 0.40887 0.79008
 C630 C 0.05606 0.41507 0.77042
 C631 C 0.06309 0.38507 0.80123
 C632 C 0.04037 0.39096 0.78130
 C633 C 0.04062 0.35352 0.74420
 C634 C 0.02903 0.33781 0.73038
 C635 C 0.09242 0.42891 0.80598
 C636 C 0.10407 0.44553 0.81865
 H637 H 0.11396 0.39128 0.76489
 H638 H 0.08507 0.34689 0.78436
 H639 H 0.07228 0.40160 0.72828
 H640 H 0.04768 0.43508 0.76648
 H641 H 0.06052 0.38042 0.82262
 H642 H 0.01880 0.39067 0.78592
 C643 C 0.09066 0.60566 0.23390
 C644 C 0.07936 0.63234 0.22355
 C645 C 0.05375 0.62716 0.23927
 C646 C 0.06483 0.60078 0.24985
 C647 C 0.07813 0.59145 0.20998
 C648 C 0.05249 0.58629 0.22570
 C649 C 0.06702 0.61782 0.19937
 C650 C 0.04117 0.61297 0.21536
 C651 C 0.04009 0.64673 0.25585
 C652 C 0.02843 0.66240 0.26967
 C653 C 0.09201 0.57143 0.19409
 C654 C 0.10371 0.55483 0.18143
 H655 H 0.11117 0.60243 0.24136
 H656 H 0.09026 0.65148 0.22287
 H657 H 0.06379 0.59401 0.27079
 H658 H 0.04156 0.56716 0.22640
 H659 H 0.06806 0.62458 0.17842
 H660 H 0.02064 0.61622 0.20796
 C661 C 0.94745 0.39390 0.20051
 C662 C 0.95896 0.39881 0.22862
 C663 C 0.94635 0.37265 0.23798
 C664 C 0.93507 0.36741 0.21012
 C665 C 0.92192 0.40843 0.20881
 C666 C 0.90933 0.38226 0.21816
 C667 C 0.93323 0.41364 0.23666
 C668 C 0.92084 0.38719 0.24625
 C669 C 0.96002 0.35303 0.25451
 C670 C 0.97164 0.33733 0.26832
 C671 C 0.90800 0.42849 0.19299
 C672 C 0.89628 0.44514 0.18041
 H673 H 0.95826 0.39689 0.18154
 H674 H 0.97953 0.40536 0.23312
 H675 H 0.93598 0.34816 0.19942
 H676 H 0.88877 0.37567 0.21367
 H677 H 0.93235 0.43287 0.24739
 H678 H 0.91005 0.38421 0.26523
 C679 C 0.93479 0.58603 0.76208
 C680 C 0.92186 0.61169 0.75112
 C681 C 0.94641 0.62744 0.76005
 C682 C 0.95956 0.60206 0.77077
 C683 C 0.92206 0.59163 0.78923
 C684 C 0.94664 0.60736 0.79818
 C685 C 0.90894 0.61701 0.77851
 C686 C 0.93372 0.63307 0.78720
 C687 C 0.96006 0.64706 0.74354
 C688 C 0.97171 0.66278 0.72977
 C689 C 0.90820 0.57156 0.80506
 C690 C 0.89651 0.55492 0.81767
 H691 H 0.93510 0.56646 0.75193
 H692 H 0.91182 0.61369 0.73160
 H693 H 0.98055 0.59617 0.76739
 H694 H 0.95670 0.60535 0.81769
 H695 H 0.88796 0.62294 0.78188
 H696 H 0.93343 0.65264 0.79733
 C697 C 0.77876 0.58821 0.94902
 C698 C 0.78764 0.61690 0.95569
 C699 C 0.76083 0.62722 0.94534
 C700 C 0.75171 0.59884 0.93891
 C701 C 0.79017 0.59158 0.92093
 C702 C 0.76336 0.60191 0.91064
 C703 C 0.79932 0.61996 0.92738
 C704 C 0.77225 0.63060 0.91728
 C705 C 0.74423 0.64676 0.95902
 C706 C 0.73039 0.66241 0.97066
 C707 C 0.80608 0.57157 0.90705
 C708 C 0.81873 0.55496 0.89536
 H709 H 0.78162 0.57059 0.96195
 H710 H 0.79740 0.62330 0.97439
 H711 H 0.73194 0.59038 0.94380
 H712 H 0.75353 0.59552 0.89196
 H713 H 0.81910 0.62840 0.92250
 H714 H 0.76937 0.64824 0.90439
 C715 C 0.23298 0.39308 0.90859
 C716 C 0.25052 0.39831 0.93330
 C717 C 0.23961 0.37281 0.94595
 C718 C 0.22230 0.36727 0.92146
 C719 C 0.21031 0.40866 0.92180
 C720 C 0.19937 0.38317 0.93447
 C721 C 0.22762 0.41418 0.94632
 C722 C 0.21695 0.38838 0.95921
 C723 C 0.25619 0.35316 0.95951
 C724 C 0.26999 0.33742 0.97110
 C725 C 0.19441 0.42877 0.90804
 C726 C 0.18176 0.44543 0.89643
 H727 H 0.23941 0.39525 0.88762
 H728 H 0.27174 0.40431 0.93295
 H729 H 0.22032 0.34776 0.91139
 H730 H 0.17814 0.37719 0.93482
 H731 H 0.22961 0.43367 0.95642
 H732 H 0.21057 0.38618 0.98019
 C733 C 0.23913 0.58797 0.07054
 C734 C 0.23289 0.60027 0.04306
 C735 C 0.23918 0.62788 0.05443
 C736 C 0.24566 0.61587 0.08169
 C737 C 0.20995 0.59198 0.07853
 C738 C 0.21623 0.61959 0.08988
 C739 C 0.20345 0.60397 0.05125
 C740 C 0.21000 0.63192 0.06238
 C741 C 0.25574 0.64755 0.04090
 C742 C 0.26954 0.66328 0.02933
 C743 C 0.19409 0.57184 0.09226
 C744 C 0.18147 0.55514 0.10384
 H745 H 0.25093 0.56967 0.07402
 H746 H 0.23993 0.59259 0.02364
 H747 H 0.26319 0.62099 0.09405
 H748 H 0.20919 0.62731 0.10928
 H749 H 0.18594 0.59885 0.03886
 H750 H 0.19823 0.65023 0.05887
 C751 C 0.77896 0.38328 0.09048
 C752 C 0.75158 0.38869 0.07751
 C753 C 0.76047 0.37283 0.05304
 C754 C 0.78761 0.36711 0.06577
 C755 C 0.78980 0.40857 0.07733
 C756 C 0.79872 0.39274 0.05282
 C757 C 0.76267 0.41426 0.06456
 C758 C 0.77132 0.39812 0.03985
 C759 C 0.74387 0.35325 0.03942
 C760 C 0.73003 0.33758 0.02779
 C761 C 0.80571 0.42861 0.09116
 C762 C 0.81836 0.44523 0.10283
 H763 H 0.78229 0.37739 0.11146
 H764 H 0.73203 0.38679 0.08752
 H765 H 0.79766 0.34749 0.06612
 H766 H 0.81826 0.39464 0.04280
 H767 H 0.75259 0.43387 0.06418
 H768 H 0.76797 0.40397 0.01886
 C769 C 0.93494 0.76231 0.58597
 C770 C 0.95975 0.77091 0.60202
 C771 C 0.94657 0.76024 0.62738
 C772 C 0.92199 0.75140 0.61162
 C773 C 0.92230 0.78951 0.59158
 C774 C 0.90915 0.77884 0.61694
 C775 C 0.94691 0.79838 0.60732
 C776 C 0.93396 0.78744 0.63301
 C777 C 0.96017 0.74367 0.64700
 C778 C 0.97178 0.72987 0.66271
 C779 C 0.90848 0.80539 0.57151
 C780 C 0.89682 0.81803 0.55487
 H781 H 0.93523 0.75217 0.56641
 H782 H 0.98072 0.76745 0.59614
 H783 H 0.91189 0.73191 0.61362
 H784 H 0.88819 0.78229 0.62286
 H785 H 0.95703 0.81786 0.60531
 H786 H 0.93371 0.79756 0.65258
 C787 C 0.94908 0.22236 0.41251
 C788 C 0.95795 0.21260 0.38472
 C789 C 0.94643 0.23807 0.37249
 C790 C 0.93779 0.24807 0.39998
 C791 C 0.92204 0.20886 0.40822
 C792 C 0.91056 0.23435 0.39598
 C793 C 0.93069 0.19883 0.38074
 C794 C 0.91941 0.22458 0.36820
 C795 C 0.96007 0.25463 0.35291
 C796 C 0.97168 0.26845 0.33723
 C797 C 0.90814 0.19304 0.42826
 C798 C 0.89643 0.18046 0.44489
 H799 H 0.96115 0.22126 0.43092
 H800 H 0.97761 0.20388 0.37984
 H801 H 0.94085 0.26851 0.40765
 H802 H 0.89092 0.24313 0.40085
 H803 H 0.92763 0.17839 0.37308
 H804 H 0.90737 0.22569 0.34977
 C805 C 0.08814 0.23726 0.60141
 C806 C 0.05953 0.24822 0.59867
 C807 C 0.05381 0.23936 0.62728
 C808 C 0.08221 0.22863 0.63032
 C809 C 0.07828 0.21010 0.59162
 C810 C 0.07255 0.20120 0.62022
 C811 C 0.04986 0.22083 0.58859
 C812 C 0.04390 0.21220 0.61751
 C813 C 0.04010 0.25592 0.64683
 C814 C 0.02841 0.26972 0.66247
 C815 C 0.09219 0.19423 0.57161
 C816 C 0.10391 0.18160 0.55502
 H817 H 0.10648 0.24740 0.59456
 H818 H 0.05403 0.26775 0.59004
 H819 H 0.09536 0.23203 0.64769
 H820 H 0.07804 0.18167 0.62884
 H821 H 0.03668 0.21745 0.57124
 H822 H 0.02553 0.20213 0.62436
 C823 C 0.09063 0.76493 0.39598
 C824 C 0.06383 0.75048 0.40026
 C825 C 0.05442 0.76066 0.37309
 C826 C 0.08101 0.77488 0.36852
 C827 C 0.07877 0.78994 0.40882
 C828 C 0.06934 0.80016 0.38167
 C829 C 0.05216 0.77572 0.41338
 C830 C 0.04251 0.78566 0.38592
 C831 C 0.04078 0.74409 0.35349
 C832 C 0.02918 0.73030 0.33777
 C833 C 0.09263 0.80583 0.42886
 C834 C 0.10430 0.81849 0.44547
 H835 H 0.11057 0.75657 0.40036
 H836 H 0.06142 0.72986 0.40767
 H837 H 0.09272 0.77434 0.34986
 H838 H 0.07175 0.82078 0.37427
 H839 H 0.04042 0.77624 0.43203
 H840 H 0.02255 0.79397 0.38153
 C841 C 0.58508 0.93566 0.76438
 C842 C 0.60201 0.95969 0.77344
 C843 C 0.62676 0.94620 0.76172
 C844 C 0.61012 0.92240 0.75242
 C845 C 0.59097 0.92194 0.79098
 C846 C 0.61573 0.90848 0.77926
 C847 C 0.60759 0.94577 0.80031
 C848 C 0.63268 0.93252 0.78832
 C849 C 0.64638 0.95979 0.74515
 C850 C 0.66209 0.97135 0.73133
 C851 C 0.57090 0.90813 0.80684
 C852 C 0.55425 0.89648 0.81947
 H853 H 0.56529 0.93682 0.75472
 H854 H 0.59662 0.98091 0.77084
 H855 H 0.61139 0.91294 0.73255
 H856 H 0.62115 0.88727 0.78184
 H857 H 0.60631 0.95524 0.82016
 H858 H 0.65248 0.93138 0.79796
 C859 C 0.38309 0.90837 0.22202
 C860 C 0.38864 0.92171 0.24917
 C861 C 0.37246 0.94594 0.24014
 C862 C 0.36660 0.93283 0.21323
 C863 C 0.40817 0.92164 0.21079
 C864 C 0.39201 0.94589 0.20174
 C865 C 0.41400 0.93478 0.23770
 C866 C 0.39753 0.95923 0.22891
 C867 C 0.35290 0.95957 0.25675
 C868 C 0.33724 0.97122 0.27059
 C869 C 0.42820 0.90781 0.19487
 C870 C 0.44481 0.89615 0.18219
 H871 H 0.37737 0.88730 0.21900
 H872 H 0.38703 0.91191 0.26884
 H873 H 0.34688 0.93218 0.20339
 H874 H 0.39363 0.95570 0.18208
 H875 H 0.43371 0.93546 0.24757
 H876 H 0.40322 0.98032 0.23196
 C877 C 0.60427 0.09010 0.23444
 C878 C 0.59988 0.06352 0.24924
 C879 C 0.62688 0.05375 0.23892
 C880 C 0.63157 0.08011 0.22435
 C881 C 0.59108 0.07807 0.20969
 C882 C 0.61807 0.06829 0.19934
 C883 C 0.58640 0.05168 0.22426
 C884 C 0.61371 0.04168 0.21418
 C885 C 0.64652 0.04013 0.25548
 C886 C 0.66226 0.02854 0.26927
 C887 C 0.57100 0.09192 0.19383
 C888 C 0.55435 0.10359 0.18121
 H889 H 0.60015 0.11016 0.24260
 H890 H 0.59263 0.06141 0.26994
 H891 H 0.65036 0.09165 0.22459
 H892 H 0.62531 0.07039 0.17864
 H893 H 0.56763 0.04011 0.22403
 H894 H 0.61784 0.02159 0.20608
 C895 C 0.38277 0.09187 0.77910
 C896 C 0.38816 0.07882 0.75178
 C897 C 0.37227 0.05439 0.76073
 C898 C 0.36657 0.06720 0.78780
 C899 C 0.40806 0.07869 0.78998
 C900 C 0.39219 0.05423 0.79895
 C901 C 0.41374 0.06584 0.76290
 C902 C 0.39755 0.04119 0.77161
 C903 C 0.35266 0.04076 0.74416
 C904 C 0.33697 0.02911 0.73035
 C905 C 0.42814 0.09253 0.80585
 C906 C 0.44480 0.10419 0.81847
 H907 H 0.37691 0.11287 0.78237
 H908 H 0.38627 0.08879 0.73222
 H909 H 0.34694 0.06762 0.79783
 H910 H 0.39408 0.04425 0.81850
 H911 H 0.43335 0.06541 0.75285
 H912 H 0.40338 0.02017 0.76832
 C913 C 0.58606 0.77709 0.05112
 C914 C 0.61394 0.78682 0.04248
 C915 C 0.62603 0.76118 0.05376
 C916 C 0.59845 0.75121 0.06216
 C917 C 0.59028 0.79028 0.07830
 C918 C 0.60238 0.76462 0.08954
 C919 C 0.61785 0.80028 0.06988
 C920 C 0.63026 0.77436 0.08093
 C921 C 0.64563 0.74470 0.04002
 C922 C 0.66133 0.73099 0.02830
 C923 C 0.57023 0.80608 0.09226
 C924 C 0.55361 0.81864 0.10402
 H925 H 0.56769 0.77840 0.03898
 H926 H 0.61894 0.79573 0.02295
 H927 H 0.59070 0.73084 0.05885
 H928 H 0.59739 0.75566 0.10904
 H929 H 0.62559 0.82066 0.07320
 H930 H 0.64865 0.77305 0.09302
 C931 C 0.41300 0.22296 0.05063
 C932 C 0.38516 0.21328 0.04175
 C933 C 0.37300 0.23884 0.05315
 C934 C 0.40053 0.24876 0.06179
 C935 C 0.40865 0.20958 0.07769
 C936 C 0.39647 0.23515 0.08904
 C937 C 0.38112 0.19962 0.06904
 C938 C 0.36864 0.22546 0.08019
 C939 C 0.35347 0.25541 0.03942
 C940 C 0.33783 0.26923 0.02772
 C941 C 0.42865 0.19372 0.09164
 C942 C 0.44526 0.18111 0.10339
 H943 H 0.43143 0.22176 0.03859
 H944 H 0.38026 0.20450 0.02213
 H945 H 0.40829 0.26916 0.05867
 H946 H 0.40136 0.24398 0.10864
 H947 H 0.37338 0.17922 0.07216
 H948 H 0.35019 0.22668 0.09219
 C949 C 0.60266 0.23580 0.91043
 C950 C 0.59882 0.24933 0.93777
 C951 C 0.62644 0.23939 0.94613
 C952 C 0.63058 0.22609 0.91901
 C953 C 0.59061 0.21019 0.92180
 C954 C 0.61822 0.20022 0.93018
 C955 C 0.58648 0.22348 0.94895
 C956 C 0.61441 0.21378 0.95755
 C957 C 0.64609 0.25592 0.95975
 C958 C 0.66184 0.26970 0.97133
 C959 C 0.57053 0.19435 0.90794
 C960 C 0.55387 0.18176 0.89625
 H961 H 0.59760 0.24470 0.89091
 H962 H 0.59107 0.26971 0.94103
 H963 H 0.64892 0.22737 0.90686
 H964 H 0.62596 0.17983 0.92692
 H965 H 0.56816 0.22222 0.96114
 H966 H 0.61948 0.20495 0.97710
 C967 C 0.41407 0.76342 0.93536
 C968 C 0.39841 0.77199 0.96040
 C969 C 0.37278 0.76163 0.94746
 C970 C 0.38815 0.75281 0.92265
 C971 C 0.40853 0.79074 0.92299
 C972 C 0.38289 0.78037 0.91008
 C973 C 0.39318 0.79959 0.94782
 C974 C 0.36721 0.78895 0.93512
 C975 C 0.35319 0.74512 0.96117
 C976 C 0.33750 0.73135 0.97284
 C977 C 0.42858 0.80654 0.90906
 C978 C 0.44522 0.81910 0.89732
 H979 H 0.43357 0.75310 0.93533
 H980 H 0.40454 0.76834 0.98126
 H981 H 0.38585 0.73340 0.91245
 H982 H 0.37673 0.78401 0.88923
 H983 H 0.39549 0.81898 0.95803
 H984 H 0.34771 0.79925 0.93518
 C985 C 0.77873 0.90792 0.38457
 C986 C 0.75207 0.92219 0.39022
 C987 C 0.76155 0.94578 0.37340
 C988 C 0.78798 0.93174 0.36745
 C989 C 0.79076 0.92138 0.40917
 C990 C 0.80027 0.94500 0.39237
 C991 C 0.76433 0.93545 0.41510
 C992 C 0.77358 0.95927 0.39799
 C993 C 0.74501 0.95945 0.35380
 C994 C 0.73123 0.97112 0.33811
 C995 C 0.80660 0.90751 0.42923
 C996 C 0.81920 0.89581 0.44588
 H997 H 0.78104 0.88665 0.37927
 H998 H 0.73207 0.91295 0.38911
 H999 H 0.79750 0.93037 0.34762
 H1000 H 0.82026 0.95425 0.39349
 H1001 H 0.75479 0.93685 0.43492
 H1002 H 0.77125 0.98055 0.40326
 C1003 C 0.20011 0.93010 0.61895
 C1004 C 0.22639 0.91938 0.63090
 C1005 C 0.23900 0.94685 0.62695
 C1006 C 0.21299 0.95782 0.61532
 C1007 C 0.20997 0.92228 0.59116
 C1008 C 0.22258 0.94977 0.58722
 C1009 C 0.23599 0.91136 0.60281
 C1010 C 0.24883 0.93905 0.59916
 C1011 C 0.25545 0.96062 0.64656
 C1012 C 0.26916 0.97234 0.66227
 C1013 C 0.19422 0.90831 0.57109
 C1014 C 0.18168 0.89654 0.55445
 H1015 H 0.17988 0.92628 0.62684
 H1016 H 0.22815 0.90704 0.64907
 H1017 H 0.20376 0.97711 0.62071
 H1018 H 0.22084 0.96215 0.56907
 H1019 H 0.24528 0.89210 0.59743
 H1020 H 0.26906 0.94287 0.59125
 C1021 C 0.23299 0.05887 0.41618
 C1022 C 0.22224 0.03935 0.39498
 C1023 C 0.23924 0.05345 0.37393
 C1024 C 0.25022 0.07274 0.39484
 C1025 C 0.21011 0.07799 0.40965
 C1026 C 0.22711 0.09206 0.38860
 C1027 C 0.19909 0.05868 0.38875
 C1028 C 0.21636 0.07254 0.36738
 C1029 C 0.25572 0.03970 0.35435
 C1030 C 0.26946 0.02798 0.33867
 C1031 C 0.19430 0.09193 0.42968
 C1032 C 0.18170 0.10367 0.44629
 H1033 H 0.23964 0.05337 0.43647
 H1034 H 0.22046 0.01750 0.39735
 H1035 H 0.27142 0.07838 0.39712
 H1036 H 0.22894 0.11389 0.38620
 H1037 H 0.17790 0.05304 0.38649
 H1038 H 0.20973 0.07802 0.34708
 C1039 C 0.76353 0.06412 0.58505
 C1040 C 0.77261 0.04001 0.60186
 C1041 C 0.76112 0.05350 0.62670
 C1042 C 0.75180 0.07738 0.61018
 C1043 C 0.79026 0.07769 0.59078
 C1044 C 0.77877 0.09116 0.61562
 C1045 C 0.79960 0.05379 0.60728
 C1046 C 0.78785 0.06705 0.63245
 C1047 C 0.74462 0.03996 0.64640
 C1048 C 0.73086 0.02842 0.66218
 C1049 C 0.80607 0.09147 0.57064
 C1050 C 0.81866 0.10309 0.55395
 H1051 H 0.75372 0.06303 0.56534
 H1052 H 0.76987 0.01881 0.59646
 H1053 H 0.73198 0.08694 0.61161
 H1054 H 0.78148 0.11235 0.62106
 H1055 H 0.81942 0.04422 0.60585
 H1056 H 0.79763 0.06811 0.65217
 C1057 C 0.94798 0.60447 0.20126
 C1058 C 0.93596 0.63138 0.21014
 C1059 C 0.94636 0.62632 0.23837
 C1060 C 0.95862 0.59974 0.22975
 C1061 C 0.92192 0.59066 0.20908
 C1062 C 0.93235 0.58563 0.23730
 C1063 C 0.90968 0.61725 0.21770
 C1064 C 0.92031 0.61250 0.24616
 C1065 C 0.96005 0.64587 0.25495
 C1066 C 0.97173 0.66152 0.26876
 C1067 C 0.90801 0.57066 0.19319
 C1068 C 0.89628 0.55406 0.18055
 H1069 H 0.95923 0.60093 0.18265
 H1070 H 0.93759 0.65043 0.19919
 H1071 H 0.97891 0.59279 0.23490
 H1072 H 0.93074 0.56659 0.24829
 H1073 H 0.88940 0.62423 0.21255
 H1074 H 0.90908 0.61603 0.26479
 C1075 C 0.92853 0.41238 0.75988
 C1076 C 0.95684 0.40156 0.76519
 C1077 C 0.94649 0.37325 0.76044
 C1078 C 0.91840 0.38378 0.75489
 C1079 C 0.92211 0.40913 0.78952
 C1080 C 0.91178 0.38082 0.78477
 C1081 C 0.95023 0.39862 0.79508
 C1082 C 0.94011 0.36998 0.79008
 C1083 C 0.96014 0.35358 0.74397
 C1084 C 0.97176 0.33783 0.73024
 C1085 C 0.90824 0.42924 0.80529
 C1086 C 0.89654 0.44592 0.81785
 H1087 H 0.92364 0.43004 0.74763
 H1088 H 0.97554 0.40983 0.75695
 H1089 H 0.90546 0.37746 0.73820
 H1090 H 0.89310 0.37251 0.79302
 H1091 H 0.96319 0.40494 0.81176
 H1092 H 0.94503 0.35230 0.80229
 C1093 C 0.06924 0.61848 0.80057
 C1094 C 0.08063 0.63118 0.77496
 C1095 C 0.05374 0.62676 0.76123
 C1096 C 0.04211 0.61438 0.78656
 C1097 C 0.07816 0.59108 0.79052
 C1098 C 0.05125 0.58667 0.77679
 C1099 C 0.08974 0.60348 0.76517
 C1100 C 0.06265 0.59936 0.75122
 C1101 C 0.04006 0.64631 0.74464
 C1102 C 0.02840 0.66197 0.73082
 C1103 C 0.09206 0.57106 0.80639
 C1104 C 0.10379 0.55444 0.81900
 H1105 H 0.07209 0.62609 0.82105
 H1106 H 0.09255 0.64970 0.77400
 H1107 H 0.02235 0.61911 0.79514
 H1108 H 0.03930 0.56818 0.77773
 H1109 H 0.10948 0.59877 0.75654
 H1110 H 0.05979 0.59173 0.73074
 C1111 C 0.09054 0.39543 0.23372
 C1112 C 0.06417 0.39985 0.24891
 C1113 C 0.05406 0.37307 0.23839
 C1114 C 0.08021 0.36835 0.22343
 C1115 C 0.07829 0.40900 0.20929
 C1116 C 0.06816 0.38222 0.19874
 C1117 C 0.05211 0.41371 0.22425
 C1118 C 0.04177 0.38662 0.21396
 C1119 C 0.04049 0.35337 0.25487
 C1120 C 0.02892 0.33759 0.26860
 C1121 C 0.09210 0.42914 0.19351
 C1122 C 0.10376 0.44584 0.18097
 H1123 H 0.11074 0.39928 0.24168
 H1124 H 0.06239 0.40687 0.26972
 H1125 H 0.09161 0.34947 0.22330
 H1126 H 0.06994 0.37522 0.17792
 H1127 H 0.04068 0.43256 0.22440
 H1128 H 0.02154 0.38275 0.20606
   
