data_POSCAR
  _audit_creation_date              2014-09-24
  _audit_creation_method            'ToBaCCo'
  _symmetry_space_group_name_H-M    'P1'
  _symmetry_Int_Tables_number       1
  _symmetry_cell_setting            triclinic
  loop_
  _symmetry_equiv_pos_as_xyz
 x,y,z
_cell_length_a 54.9313
_cell_length_b 54.9142
_cell_length_c 52.0169
_cell_angle_alpha 90.527600
_cell_angle_beta 89.426400
_cell_angle_gamma 89.558700
loop_
  _atom_site_label
  _atom_site_type_symbol
  _atom_site_fract_x
  _atom_site_fract_y
  _atom_site_fract_z
C1 C 0.29108 0.27886 0.23811
 H2 H 0.29307 0.27819 0.25876
 C3 C 0.30723 0.29257 0.22335
 H4 H 0.32155 0.30254 0.23286
 C5 C 0.26996 0.26656 0.20074
 H6 H 0.25572 0.25610 0.19189
 C7 C 0.28552 0.28027 0.18529
 H8 H 0.28286 0.28029 0.16470
 N9 N 0.27269 0.26648 0.22671
 C10 C 0.21370 0.26006 0.28275
 H11 H 0.21088 0.24059 0.28201
 C12 C 0.19843 0.27483 0.29793
 H13 H 0.18392 0.26651 0.30892
 C14 C 0.23603 0.29442 0.26906
 H15 H 0.25047 0.30205 0.25752
 C16 C 0.22134 0.30985 0.28419
 H17 H 0.22478 0.32923 0.28415
 Zn18 Zn 0.25149 0.24860 0.24834
 N19 N 0.23213 0.26999 0.26882
 C20 C 0.26938 0.23035 0.29553
 N21 N 0.27107 0.22875 0.26947
 C22 C 0.28739 0.21347 0.25775
 C23 C 0.30256 0.19862 0.27236
 C24 C 0.28421 0.21585 0.31089
 C25 C 0.21398 0.24037 0.21298
 C26 C 0.19768 0.22671 0.19841
 C27 C 0.21385 0.19017 0.21757
 C28 C 0.23005 0.20450 0.23150
 N29 N 0.23005 0.22911 0.22876
 H30 H 0.25662 0.24293 0.30450
 H31 H 0.28857 0.21281 0.23698
 H32 H 0.31533 0.18652 0.26259
 H33 H 0.28249 0.21737 0.33160
 H34 H 0.21391 0.26002 0.21167
 H35 H 0.18518 0.23602 0.18581
 H36 H 0.21425 0.17061 0.21996
 H37 H 0.24244 0.19589 0.24466
 C38 C 0.20222 0.30008 0.29886
 C39 C 0.30438 0.29362 0.19659
 C40 C 0.19750 0.20125 0.20061
 C41 C 0.30105 0.19965 0.29933
 C42 C 0.79182 0.77889 0.23804
 H43 H 0.79412 0.77778 0.25864
 C44 C 0.80799 0.79262 0.22332
 H45 H 0.82260 0.80202 0.23297
 C46 C 0.76995 0.76766 0.20084
 H47 H 0.75540 0.75762 0.19203
 C48 C 0.78544 0.78145 0.18541
 H49 H 0.78225 0.78185 0.16491
 N50 N 0.77308 0.76700 0.22672
 C51 C 0.71406 0.76047 0.28265
 H52 H 0.71111 0.74102 0.28173
 C53 C 0.69880 0.77523 0.29783
 H54 H 0.68416 0.76694 0.30866
 C55 C 0.73672 0.79477 0.26938
 H56 H 0.75131 0.80236 0.25802
 C57 C 0.72205 0.81019 0.28453
 H58 H 0.72563 0.82955 0.28468
 Zn59 Zn 0.75196 0.74903 0.24835
 N60 N 0.73263 0.77037 0.26891
 C61 C 0.76979 0.73065 0.29550
 N62 N 0.77159 0.72917 0.26944
 C63 C 0.78801 0.71400 0.25772
 C64 C 0.80316 0.69913 0.27232
 C65 C 0.78459 0.71612 0.31085
 C66 C 0.71424 0.74074 0.21322
 C67 C 0.69795 0.72703 0.19868
 C68 C 0.71455 0.69051 0.21747
 C69 C 0.73073 0.70488 0.23137
 N70 N 0.73051 0.72951 0.22879
 H71 H 0.75694 0.74314 0.30446
 H72 H 0.78927 0.71344 0.23695
 H73 H 0.81601 0.68710 0.26255
 H74 H 0.78277 0.71754 0.33156
 H75 H 0.71398 0.76040 0.21205
 H76 H 0.68529 0.73631 0.18624
 H77 H 0.71514 0.67093 0.21972
 H78 H 0.74328 0.69630 0.24437
 C79 C 0.70276 0.80046 0.29898
 C80 C 0.80479 0.79434 0.19657
 C81 C 0.69800 0.70155 0.20071
 C82 C 0.80153 0.70002 0.29929
 C83 C 0.79190 0.27833 0.73909
 H84 H 0.79393 0.27768 0.75974
 C85 C 0.80800 0.29206 0.72429
 H86 H 0.82232 0.30206 0.73376
 C87 C 0.77073 0.26597 0.70178
 H88 H 0.75649 0.25549 0.69297
 C89 C 0.78623 0.27969 0.68629
 H90 H 0.78353 0.27970 0.66570
 N91 N 0.77350 0.26591 0.72774
 C92 C 0.71453 0.25959 0.78382
 H93 H 0.71170 0.24012 0.78312
 C94 C 0.69924 0.27439 0.79893
 H95 H 0.68471 0.26610 0.80992
 C96 C 0.73687 0.29392 0.77007
 H97 H 0.75132 0.30151 0.75852
 C98 C 0.72217 0.30937 0.78513
 H99 H 0.72561 0.32876 0.78504
 Zn100 Zn 0.75232 0.24807 0.74942
 N101 N 0.73297 0.26949 0.76988
 C102 C 0.77019 0.22978 0.79659
 N103 N 0.77189 0.22821 0.77055
 C104 C 0.78819 0.21292 0.75884
 C105 C 0.80331 0.19801 0.77342
 C106 C 0.78495 0.21524 0.81197
 C107 C 0.71477 0.23985 0.71411
 C108 C 0.69847 0.22620 0.69953
 C109 C 0.71467 0.18964 0.71862
 C110 C 0.73086 0.20396 0.73257
 N111 N 0.73085 0.22857 0.72986
 H112 H 0.75744 0.24239 0.80554
 H113 H 0.78936 0.21229 0.73807
 H114 H 0.81597 0.18598 0.76336
 H115 H 0.78300 0.21696 0.83266
 H116 H 0.71469 0.25950 0.71282
 H117 H 0.68597 0.23552 0.68694
 H118 H 0.71509 0.17007 0.72098
 H119 H 0.74327 0.19534 0.74571
 C120 C 0.70302 0.29965 0.79979
 C121 C 0.80509 0.29309 0.69753
 C122 C 0.69832 0.20073 0.70168
 C123 C 0.80189 0.19888 0.80053
 C124 C 0.29097 0.77931 0.73851
 H125 H 0.29299 0.77865 0.75916
 C126 C 0.30710 0.79303 0.72374
 H127 H 0.32143 0.80300 0.73323
 C128 C 0.26983 0.76700 0.70117
 H129 H 0.25558 0.75653 0.69233
 C130 C 0.28536 0.78071 0.68570
 H131 H 0.28268 0.78073 0.66511
 N132 N 0.27258 0.76691 0.72713
 C133 C 0.21365 0.76040 0.78323
 H134 H 0.21085 0.74093 0.78250
 C135 C 0.19835 0.77516 0.79840
 H136 H 0.18385 0.76682 0.80939
 C137 C 0.23592 0.79480 0.76952
 H138 H 0.25035 0.80244 0.75798
 C139 C 0.22121 0.81020 0.78464
 H140 H 0.22462 0.82960 0.78460
 Zn141 Zn 0.25144 0.74901 0.74879
 N142 N 0.23206 0.77036 0.76929
 C143 C 0.26939 0.73073 0.79596
 N144 N 0.27107 0.72919 0.76989
 C145 C 0.28742 0.71396 0.75813
 C146 C 0.30261 0.69910 0.77270
 C147 C 0.28424 0.71621 0.81127
 C148 C 0.21391 0.74066 0.71346
 C149 C 0.19766 0.72695 0.69890
 C150 C 0.21394 0.69046 0.71806
 C151 C 0.23009 0.70485 0.73198
 N152 N 0.23002 0.72946 0.72923
 H153 H 0.25660 0.74327 0.80495
 H154 H 0.28859 0.71334 0.73736
 H155 H 0.31540 0.68703 0.76289
 H156 H 0.28253 0.71768 0.83198
 H157 H 0.21378 0.76031 0.71214
 H158 H 0.18513 0.73621 0.68629
 H159 H 0.21442 0.67090 0.72045
 H160 H 0.24251 0.69628 0.74515
 C161 C 0.20210 0.80042 0.79932
 C162 C 0.30422 0.79407 0.69697
 C163 C 0.19756 0.70148 0.70110
 C164 C 0.30111 0.70006 0.79967
 C165 C 0.02887 0.04076 0.01134
 H166 H 0.02835 0.04264 -0.00933
 C167 C 0.04258 0.05693 0.02607
 H168 H 0.05268 0.07114 0.01652
 C169 C 0.01623 0.01991 0.04878
 H170 H 0.00563 0.00579 0.05767
 C171 C 0.02991 0.03548 0.06421
 H172 H 0.02980 0.03293 0.08482
 N173 N 0.01635 0.02247 0.02279
 C174 C 0.01017 -0.03655 -0.03324
 H175 H -0.00930 -0.03935 -0.03258
 C176 C 0.02498 -0.05183 -0.04836
 H177 H 0.01670 -0.06632 -0.05940
 C178 C 0.04449 -0.01429 -0.01938
 H179 H 0.05208 0.00012 -0.00778
 C180 C 0.05996 -0.02898 -0.03445
 H181 H 0.07935 -0.02557 -0.03432
 Zn182 Zn -0.00141 0.00118 0.00117
 N183 N 0.02006 -0.01815 -0.01925
 C184 C -0.01958 0.01908 -0.04607
 N185 N -0.02130 0.02067 -0.02001
 C186 C -0.03675 0.03684 -0.00830
 C187 C -0.05164 0.05195 -0.02292
 C188 C -0.03412 0.03385 -0.06144
 C189 C -0.00960 -0.03613 0.03684
 C190 C -0.02323 -0.05242 0.05148
 C191 C -0.05971 -0.03692 0.03164
 C192 C -0.04543 -0.02067 0.01771
 N193 N -0.02086 -0.02034 0.02076
 H194 H -0.00686 0.00644 -0.05502
 H195 H -0.03750 0.03793 0.01247
 H196 H -0.06388 0.06460 -0.01316
 H197 H -0.03250 0.03222 -0.08214
 H198 H 0.01002 -0.03597 0.03838
 H199 H -0.01395 -0.06468 0.06436
 H200 H -0.07925 -0.03680 0.02902
 H201 H -0.05401 -0.00851 0.00429
 C202 C 0.05024 -0.04807 -0.04918
 C203 C 0.04345 0.05420 0.05286
 C204 C -0.04865 -0.05293 0.04896
 C205 C -0.05048 0.05055 -0.04989
 C206 C 0.02963 0.54053 0.51154
 H207 H 0.02899 0.54253 0.49088
 C208 C 0.04333 0.55667 0.52629
 H209 H 0.05331 0.57100 0.51678
 C210 C 0.01728 0.51940 0.54890
 H211 H 0.00680 0.50516 0.55776
 C212 C 0.03096 0.53495 0.56436
 H213 H 0.03096 0.53228 0.58495
 N214 N 0.01722 0.52214 0.52294
 C215 C 0.01081 0.46313 0.46695
 H216 H -0.00865 0.46031 0.46771
 C217 C 0.02557 0.44784 0.45179
 H218 H 0.01726 0.43332 0.44082
 C219 C 0.04517 0.48545 0.48059
 H220 H 0.05280 0.49990 0.49211
 C221 C 0.06059 0.47075 0.46548
 H222 H 0.07997 0.47418 0.46550
 Zn223 Zn -0.00064 0.50094 0.50132
 N224 N 0.02075 0.48157 0.48085
 C225 C -0.01885 0.51883 0.45411
 N226 N -0.02046 0.52053 0.48017
 C227 C -0.03575 0.53686 0.49187
 C228 C -0.05060 0.55201 0.47725
 C229 C -0.03335 0.53365 0.43874
 C230 C -0.00889 0.46341 0.53670
 C231 C -0.02255 0.44713 0.55130
 C232 C -0.05908 0.46334 0.53220
 C233 C -0.04475 0.47952 0.51823
 N234 N -0.02014 0.47950 0.52093
 H235 H -0.00626 0.50607 0.44516
 H236 H -0.03642 0.53804 0.51264
 H237 H -0.06271 0.56479 0.48701
 H238 H -0.03181 0.53193 0.41804
 H239 H 0.01076 0.46333 0.53798
 H240 H -0.01324 0.43462 0.56390
 H241 H -0.07864 0.46376 0.52985
 H242 H -0.05335 0.49193 0.50508
 C243 C 0.05082 0.45162 0.45084
 C244 C 0.04434 0.55381 0.55306
 C245 C -0.04801 0.44698 0.54915
 C246 C -0.04955 0.55050 0.45028
 C247 C 0.52997 0.04076 0.51163
 H248 H 0.52937 0.04281 0.49098
 C249 C 0.54370 0.05683 0.52645
 H250 H 0.55373 0.07115 0.51699
 C251 C 0.51752 0.01957 0.54892
 H252 H 0.50700 0.00533 0.55773
 C253 C 0.53124 0.03504 0.56443
 H254 H 0.53121 0.03232 0.58503
 N255 N 0.51751 0.02237 0.52296
 C256 C 0.51113 -0.03651 0.46682
 H257 H 0.49166 -0.03930 0.46750
 C258 C 0.52591 -0.05179 0.45166
 H259 H 0.51760 -0.06627 0.44063
 C260 C 0.54549 -0.01428 0.48063
 H261 H 0.55310 0.00013 0.49222
 C262 C 0.56092 -0.02897 0.46553
 H263 H 0.58031 -0.02557 0.46562
 Zn264 Zn 0.49966 0.00125 0.50126
 N265 N 0.52106 -0.01812 0.48080
 C266 C 0.48151 0.01922 0.45405
 N267 N 0.47990 0.02090 0.48011
 C268 C 0.46462 0.03724 0.49182
 C269 C 0.44977 0.05239 0.47721
 C270 C 0.46700 0.03403 0.43869
 C271 C 0.49124 -0.03633 0.53655
 C272 C 0.47750 -0.05260 0.55110
 C273 C 0.44106 -0.03628 0.53190
 C274 C 0.45547 -0.02011 0.51800
 N275 N 0.48007 -0.02020 0.52077
 H276 H 0.49408 0.00645 0.44509
 H277 H 0.46395 0.03841 0.51259
 H278 H 0.43765 0.06516 0.48698
 H279 H 0.46851 0.03231 0.41798
 H280 H 0.51088 -0.03646 0.53790
 H281 H 0.48674 -0.06515 0.56371
 H282 H 0.42151 -0.03580 0.52949
 H283 H 0.44693 -0.00767 0.50483
 C284 C 0.55117 -0.04805 0.45081
 C285 C 0.54467 0.05390 0.55321
 C286 C 0.45204 -0.05268 0.54887
 C287 C 0.45079 0.05087 0.45024
 C288 C 0.52990 0.54066 0.01130
 H289 H 0.52924 0.54269 -0.00935
 C290 C 0.54360 0.55680 0.02607
 H291 H 0.55356 0.57114 0.01657
 C292 C 0.51760 0.51947 0.04865
 H293 H 0.50714 0.50521 0.05749
 C294 C 0.53129 0.53501 0.06411
 H295 H 0.53131 0.53231 0.08470
 N296 N 0.51752 0.52225 0.02269
 C297 C 0.51111 0.46329 -0.03336
 H298 H 0.49165 0.46049 -0.03265
 C299 C 0.52590 0.44798 -0.04847
 H300 H 0.51759 0.43346 -0.05946
 C301 C 0.54546 0.48558 -0.01963
 H302 H 0.55307 0.50002 -0.00809
 C303 C 0.56090 0.47086 -0.03470
 H304 H 0.58029 0.47427 -0.03462
 Zn305 Zn 0.49965 0.50109 0.00104
 N306 N 0.52103 0.48171 -0.01943
 C307 C 0.48140 0.51903 -0.04615
 N308 N 0.47985 0.52072 -0.02008
 C309 C 0.46460 0.53707 -0.00834
 C310 C 0.44974 0.55224 -0.02291
 C311 C 0.46688 0.53386 -0.06148
 C312 C 0.49129 0.46353 0.03639
 C313 C 0.47757 0.44725 0.05094
 C314 C 0.44111 0.46353 0.03174
 C315 C 0.45549 0.47971 0.01784
 N316 N 0.48009 0.47965 0.02060
 H317 H 0.49395 0.50624 -0.05513
 H318 H 0.46398 0.53824 0.01243
 H319 H 0.43766 0.56502 -0.01312
 H320 H 0.46835 0.53214 -0.08219
 H321 H 0.51093 0.46341 0.03772
 H322 H 0.48682 0.43472 0.06355
 H323 H 0.42155 0.46399 0.02934
 H324 H 0.44695 0.49214 0.00467
 C325 C 0.55115 0.45173 -0.04935
 C326 C 0.54463 0.55390 0.05283
 C327 C 0.45211 0.44714 0.04872
 C328 C 0.45071 0.55072 -0.04989
 C329 C 0.15685 -0.15423 -0.15533
 N330 N 0.17810 -0.14577 -0.16517
 N331 N 0.19244 -0.16014 -0.17961
 C332 C 0.18615 -0.18358 -0.18467
 N333 N 0.16489 -0.19201 -0.17473
 N334 N 0.15049 -0.17761 -0.16039
 C335 C 0.14099 -0.13838 -0.13949
 N336 N 0.11854 -0.14593 -0.13206
 N337 N 0.10411 -0.13153 -0.11775
 C338 C 0.11164 -0.10910 -0.11025
 N339 N 0.13411 -0.10156 -0.11763
 N340 N 0.14850 -0.11592 -0.13204
 C341 C 0.09574 -0.09327 -0.09443
 N342 N 0.10417 -0.07202 -0.08453
 N343 N 0.08975 -0.05771 -0.07012
 C344 C 0.06630 -0.06401 -0.06515
 N345 N 0.05791 -0.08526 -0.07514
 N346 N 0.07236 -0.09964 -0.08945
 C347 C 0.15708 0.34546 0.34430
 N348 N 0.17832 0.35391 0.33442
 N349 N 0.19262 0.33953 0.31995
 C350 C 0.18630 0.31610 0.31490
 N351 N 0.16505 0.30768 0.32488
 N352 N 0.15069 0.32209 0.33925
 C353 C 0.14126 0.36132 0.36019
 N354 N 0.11884 0.35377 0.36770
 N355 N 0.10446 0.36817 0.38206
 C356 C 0.11202 0.39060 0.38954
 N357 N 0.13447 0.39813 0.38208
 N358 N 0.14881 0.38377 0.36762
 C359 C 0.09617 0.40643 0.40542
 N360 N 0.10463 0.42768 0.41527
 N361 N 0.09025 0.44199 0.42973
 C362 C 0.06683 0.43568 0.43481
 N363 N 0.05841 0.41443 0.42486
 N364 N 0.07281 0.40005 0.41050
 C365 C 0.65758 -0.15417 0.34439
 N366 N 0.67892 -0.14578 0.33470
 N367 N 0.69324 -0.16016 0.32025
 C368 C 0.68683 -0.18353 0.31502
 N369 N 0.66548 -0.19189 0.32481
 N370 N 0.65111 -0.17748 0.33916
 C371 C 0.64174 -0.13831 0.36026
 N372 N 0.61925 -0.14581 0.36759
 N373 N 0.60484 -0.13141 0.38193
 C374 C 0.61245 -0.10905 0.38957
 N375 N 0.63497 -0.10157 0.38228
 N376 N 0.64933 -0.11592 0.36784
 C377 C 0.59658 -0.09322 0.40543
 N378 N 0.60506 -0.07203 0.41541
 N379 N 0.59066 -0.05773 0.42986
 C380 C 0.56720 -0.06398 0.43479
 N381 N 0.55875 -0.08517 0.42471
 N382 N 0.57317 -0.09954 0.41037
 C383 C 0.65774 0.34517 -0.15508
 N384 N 0.67902 0.35359 -0.16492
 N385 N 0.69336 0.33915 -0.17928
 C386 C 0.68706 0.31571 -0.18427
 N387 N 0.66577 0.30733 -0.17433
 N388 N 0.65136 0.32179 -0.16008
 C389 C 0.64186 0.36109 -0.13933
 N390 N 0.61941 0.35358 -0.13189
 N391 N 0.60497 0.36804 -0.11766
 C392 C 0.61251 0.39049 -0.11023
 N393 N 0.63499 0.39798 -0.11762
 N394 N 0.64939 0.38357 -0.13196
 C395 C 0.59661 0.40638 -0.09448
 N396 N 0.60505 0.42765 -0.08466
 N397 N 0.59064 0.44202 -0.07030
 C398 C 0.56719 0.43574 -0.06529
 N399 N 0.55879 0.41447 -0.07521
 N400 N 0.57322 0.40004 -0.08947
 C401 C -0.15470 0.15562 -0.15569
 N402 N -0.15320 0.15460 -0.18172
 N403 N -0.16737 0.16874 -0.19601
 C404 C -0.18366 0.18453 -0.18493
 N405 N -0.18504 0.18543 -0.15878
 N406 N -0.17088 0.17130 -0.14448
 C407 C -0.13912 0.14000 -0.13992
 N408 N -0.14056 0.14110 -0.11386
 N409 N -0.12644 0.12691 -0.09956
 C410 C -0.11037 0.11109 -0.11079
 N411 N -0.10893 0.10999 -0.13684
 N412 N -0.12304 0.12418 -0.15115
 C413 C -0.09484 0.09542 -0.09501
 N414 N -0.07889 0.07949 -0.10623
 N415 N -0.06482 0.06526 -0.09191
 C416 C -0.06613 0.06640 -0.06582
 N417 N -0.08212 0.08238 -0.05466
 N418 N -0.09620 0.09661 -0.06897
 C419 C -0.15370 0.65556 0.34440
 N420 N -0.16982 0.67132 0.35562
 N421 N -0.18401 0.68542 0.34130
 C422 C -0.18264 0.68435 0.31521
 N423 N -0.16646 0.66856 0.30405
 N424 N -0.15228 0.65444 0.31836
 C425 C -0.13810 0.63996 0.36018
 N426 N -0.12211 0.62406 0.34897
 N427 N -0.10800 0.60987 0.36329
 C428 C -0.10936 0.61108 0.38934
 N429 N -0.12534 0.62699 0.40056
 N430 N -0.13946 0.64117 0.38624
 C431 C -0.09383 0.59542 0.40513
 N432 N -0.09510 0.59671 0.43117
 N433 N -0.08105 0.58247 0.44549
 C434 C -0.06517 0.56637 0.43434
 N435 N -0.06394 0.56514 0.40825
 N436 N -0.07799 0.57937 0.39393
 C437 C 0.34605 0.15541 0.34444
 N438 N 0.32996 0.17120 0.35566
 N439 N 0.31570 0.18523 0.34134
 C440 C 0.31695 0.18405 0.31526
 N441 N 0.33309 0.16822 0.30409
 N442 N 0.34736 0.15418 0.31839
 C443 C 0.36174 0.13990 0.36021
 N444 N 0.37772 0.12399 0.34898
 N445 N 0.39193 0.10989 0.36329
 C446 C 0.39068 0.11119 0.38935
 N447 N 0.37471 0.12712 0.40058
 N448 N 0.36050 0.14121 0.38627
 C449 C 0.40630 0.09561 0.40513
 N450 N 0.40511 0.09697 0.43117
 N451 N 0.41924 0.08280 0.44547
 C452 C 0.43512 0.06670 0.43431
 N453 N 0.43626 0.06540 0.40822
 N454 N 0.42213 0.07957 0.39391
 C455 C 0.34608 0.65567 -0.15536
 N456 N 0.34738 0.65451 -0.18141
 N457 N 0.33313 0.66860 -0.19567
 C458 C 0.31701 0.68442 -0.18445
 N459 N 0.31576 0.68553 -0.15836
 N460 N 0.33002 0.67145 -0.14409
 C461 C 0.36176 0.64010 -0.13964
 N462 N 0.36053 0.64135 -0.11358
 N463 N 0.37472 0.62719 -0.09932
 C464 C 0.39066 0.61126 -0.11060
 N465 N 0.39189 0.61002 -0.13666
 N466 N 0.37770 0.62418 -0.15092
 C467 C 0.40626 0.59562 -0.09487
 N468 N 0.42205 0.57956 -0.10613
 N469 N 0.43616 0.56534 -0.09186
 C470 C 0.43505 0.56660 -0.06577
 N471 N 0.41921 0.58270 -0.05456
 N472 N 0.40510 0.59693 -0.06882
 C473 C -0.15015 -0.16286 0.15224
 N474 N -0.16955 -0.17417 0.14167
 N475 N -0.18394 -0.18816 0.15593
 C476 C -0.17966 -0.19129 0.18141
 N477 N -0.16016 -0.17991 0.19189
 N478 N -0.14566 -0.16604 0.17759
 C479 C -0.13455 -0.14711 0.13658
 N480 N -0.11320 -0.13863 0.14590
 N481 N -0.09923 -0.12408 0.13175
 C482 C -0.10621 -0.11736 0.10786
 N483 N -0.12758 -0.12582 0.09857
 N484 N -0.14145 -0.14049 0.11263
 C485 C -0.09112 -0.10092 0.09245
 N486 N -0.10002 -0.09083 0.07073
 N487 N -0.08652 -0.07561 0.05693
 C488 C -0.06353 -0.07001 0.06420
 N489 N -0.05461 -0.08025 0.08588
 N490 N -0.06817 -0.09535 0.09979
 C491 C -0.14944 0.33681 0.65231
 N492 N -0.17058 0.32807 0.64277
 N493 N -0.18488 0.31401 0.65706
 C494 C -0.17868 0.30825 0.68150
 N495 N -0.15749 0.31703 0.69100
 N496 N -0.14311 0.33099 0.67666
 C497 C -0.13392 0.35264 0.63665
 N498 N -0.11148 0.35917 0.64484
 N499 N -0.09756 0.37378 0.63072
 C500 C -0.10564 0.38250 0.60797
 N501 N -0.12808 0.37598 0.59980
 N502 N -0.14194 0.36126 0.61384
 C503 C -0.09056 0.39896 0.59259
 N504 N -0.09999 0.41038 0.57188
 N505 N -0.08647 0.42559 0.55810
 C506 C -0.06293 0.42990 0.56439
 N507 N -0.05349 0.41835 0.58507
 N508 N -0.06706 0.40323 0.59896
 C509 C 0.34995 -0.16241 0.65181
 N510 N 0.35620 -0.16824 0.67618
 N511 N 0.34174 -0.18213 0.69050
 C512 C 0.32054 -0.19083 0.68096
 N513 N 0.31440 -0.18507 0.65651
 N514 N 0.32879 -0.17108 0.64224
 C515 C 0.36557 -0.14666 0.63617
 N516 N 0.35764 -0.13803 0.61334
 N517 N 0.37159 -0.12339 0.59931
 C518 C 0.39404 -0.11696 0.60753
 N519 N 0.40203 -0.12569 0.63031
 N520 N 0.38802 -0.14023 0.64441
 C521 C 0.40923 -0.10056 0.59218
 N522 N 0.43273 -0.09637 0.59861
 N523 N 0.44638 -0.08130 0.58477
 C524 C 0.43703 -0.06972 0.56406
 N525 N 0.41350 -0.07395 0.55770
 N526 N 0.39988 -0.08912 0.57144
 C527 C 0.35011 0.33719 0.15149
 N528 N 0.32897 0.32851 0.14189
 N529 N 0.31458 0.31450 0.15614
 C530 C 0.32070 0.30873 0.18060
 N531 N 0.34189 0.31744 0.19017
 N532 N 0.35635 0.33135 0.17587
 C533 C 0.36573 0.35297 0.13588
 N534 N 0.38816 0.35943 0.14414
 N535 N 0.40216 0.37400 0.13007
 C536 C 0.39417 0.38274 0.10730
 N537 N 0.37174 0.37628 0.09905
 N538 N 0.35780 0.36161 0.11305
 C539 C 0.40935 0.39918 0.09197
 N540 N 0.40000 0.41062 0.07123
 N541 N 0.41359 0.42582 0.05751
 C542 C 0.43711 0.43007 0.06389
 N543 N 0.44647 0.41850 0.08459
 N544 N 0.43283 0.40340 0.09842
 C545 C 0.14941 0.15870 0.15735
 N546 N 0.16078 0.14929 0.17811
 N547 N 0.17602 0.16281 0.19183
 C548 C 0.18040 0.18632 0.18544
 N549 N 0.16890 0.19574 0.16471
 N550 N 0.15376 0.18217 0.15089
 C551 C 0.13292 0.14361 0.14204
 N552 N 0.12428 0.15163 0.11924
 N553 N 0.10965 0.13770 0.10518
 C554 C 0.10302 0.11532 0.11349
 N555 N 0.11156 0.10736 0.13635
 N556 N 0.12630 0.12122 0.15033
 C557 C 0.08717 0.09978 0.09790
 N558 N 0.07831 0.07872 0.10756
 N559 N 0.06424 0.06439 0.09333
 C560 C 0.05859 0.07048 0.06883
 N561 N 0.06749 0.09158 0.05920
 N562 N 0.08145 0.10599 0.07348
 C563 C 0.14971 0.65873 0.65777
 N564 N 0.16112 0.64935 0.67852
 N565 N 0.17628 0.66295 0.69226
 C566 C 0.18053 0.68649 0.68591
 N567 N 0.16898 0.69587 0.66519
 N568 N 0.15392 0.68223 0.65134
 C569 C 0.13331 0.64356 0.64243
 N570 N 0.12460 0.65157 0.61965
 N571 N 0.11007 0.63758 0.60555
 C572 C 0.10360 0.61513 0.61381
 N573 N 0.11221 0.60718 0.63664
 N574 N 0.12685 0.62111 0.65066
 C575 C 0.08785 0.59952 0.59818
 N576 N 0.07916 0.57836 0.60777
 N577 N 0.06517 0.56398 0.59351
 C578 C 0.05943 0.57012 0.56905
 N579 N 0.06817 0.59132 0.55949
 N580 N 0.08205 0.60577 0.57380
 C581 C 0.65035 0.15820 0.65825
 N582 N 0.65462 0.18171 0.65189
 N583 N 0.66972 0.19527 0.66577
 C584 C 0.68125 0.18581 0.68645
 N585 N 0.67694 0.16226 0.69275
 N586 N 0.66174 0.14875 0.67897
 C587 C 0.63390 0.14312 0.64286
 N588 N 0.62738 0.12066 0.65103
 N589 N 0.61269 0.10682 0.63697
 C590 C 0.60411 0.11486 0.61416
 N591 N 0.61064 0.13731 0.60598
 N592 N 0.62522 0.15122 0.62011
 C593 C 0.58831 0.09934 0.59849
 N594 N 0.58253 0.10569 0.57413
 N595 N 0.56860 0.09131 0.55977
 C596 C 0.55980 0.07012 0.56926
 N597 N 0.56552 0.06389 0.59370
 N598 N 0.57955 0.07818 0.60801
 C599 C 0.65006 0.65881 0.15747
 N600 N 0.66162 0.64939 0.17810
 N601 N 0.67681 0.66298 0.19182
 C602 C 0.68094 0.68656 0.18555
 N603 N 0.66924 0.69599 0.16496
 N604 N 0.65416 0.68236 0.15113
 C605 C 0.63364 0.64364 0.14215
 N606 N 0.62482 0.65171 0.11945
 N607 N 0.61027 0.63771 0.10537
 C608 C 0.60391 0.61521 0.11356
 N609 N 0.61263 0.60722 0.13633
 N610 N 0.62728 0.62114 0.15033
 C611 C 0.58815 0.59961 0.09795
 N612 N 0.57954 0.57840 0.10750
 N613 N 0.56554 0.56402 0.09325
 C614 C 0.55972 0.57021 0.06882
 N615 N 0.56838 0.59145 0.05930
 N616 N 0.58226 0.60591 0.07360
   
