data_POSCAR
  _audit_creation_date              2014-09-24
  _audit_creation_method            'ToBaCCo'
  _symmetry_space_group_name_H-M    'P1'
  _symmetry_Int_Tables_number       1
  _symmetry_cell_setting            triclinic
  loop_
  _symmetry_equiv_pos_as_xyz
 x,y,z
_cell_length_a 13.0171
_cell_length_b 13.0171
_cell_length_c 10.9449
_cell_angle_alpha 90.000000
_cell_angle_beta 90.000000
_cell_angle_gamma 90.000000
loop_
  _atom_site_label
  _atom_site_type_symbol
  _atom_site_fract_x
  _atom_site_fract_y
  _atom_site_fract_z
C1 C 0.35791 -0.00000 0.25000
 C2 C 0.14209 -0.00000 0.75000
 C3 C 0.64209 0.50000 0.25000
 C4 C 0.85791 0.50000 0.75000
 C5 C 0.25000 0.39209 1.00000
 C6 C 0.75000 0.10791 1.00000
 C7 C 0.25000 0.60791 0.50000
 C8 C 0.75000 0.89209 0.50000
 C9 C -0.00000 0.25000 0.37500
 C10 C -0.00000 0.75000 0.12500
 C11 C 0.50000 0.25000 0.62500
 C12 C 0.50000 0.75000 0.87500
 C13 C -0.25000 0.60791 1.00000
 C14 C -0.25000 0.39209 0.50000
 C15 C 0.25000 -0.10791 -0.00000
 C16 C 0.25000 1.10791 0.50000
 C17 C 0.14209 0.50000 0.25000
 C18 C -0.14209 1.00000 0.25000
 C19 C 0.35791 0.50000 -0.25000
 C20 C 0.64209 -0.00000 -0.25000
 C21 C -0.00000 0.25000 0.87500
 C22 C 0.50000 0.25000 0.12500
 C23 C -0.00000 0.75000 0.62500
 C24 C 0.50000 0.75000 0.37500
 B25 B -0.06562 0.03124 1.11657
 B26 B -0.11820 0.04613 0.98314
 B27 B -0.01563 0.12958 0.99799
 B28 B 0.05916 0.04999 1.10108
 B29 B 0.01608 -0.06201 1.11755
 B30 B -0.09067 -0.06553 1.03569
 B31 B 0.06562 -0.03124 0.88343
 B32 B 0.11820 -0.04613 1.01686
 B33 B 0.01563 -0.12958 1.00201
 B34 B -0.05916 -0.04999 0.89892
 B35 B -0.01608 0.06201 0.88245
 B36 B 0.09067 0.06553 0.96431
 B37 B 0.43438 0.53124 0.61657
 B38 B 0.38180 0.54613 0.48314
 B39 B 0.48437 0.62958 0.49799
 B40 B 0.55916 0.54999 0.60108
 B41 B 0.51608 0.43799 0.61755
 B42 B 0.40933 0.43447 0.53569
 B43 B 0.56562 0.46876 0.38343
 B44 B 0.61820 0.45387 0.51686
 B45 B 0.51563 0.37042 0.50201
 B46 B 0.44084 0.45001 0.39892
 B47 B 0.48392 0.56201 0.38245
 B48 B 0.59067 0.56553 0.46431
 B49 B 0.56562 0.96876 0.61657
 B50 B 0.61820 0.95387 0.48314
 B51 B 0.51563 0.87042 0.49799
 B52 B 0.44084 0.95001 0.60108
 B53 B 0.48392 1.06201 0.61755
 B54 B 0.59067 1.06553 0.53569
 B55 B 0.43438 1.03124 0.38343
 B56 B 0.38180 1.04613 0.51686
 B57 B 0.48437 1.12958 0.50201
 B58 B 0.55916 1.04999 0.39892
 B59 B 0.51608 0.93799 0.38245
 B60 B 0.40933 0.93447 0.46431
 B61 B 0.06562 0.46876 1.11657
 B62 B 0.11820 0.45387 0.98314
 B63 B 0.01563 0.37042 0.99799
 B64 B -0.05916 0.45001 1.10108
 B65 B -0.01608 0.56201 1.11755
 B66 B 0.09067 0.56553 1.03569
 B67 B -0.06562 0.53124 0.88343
 B68 B -0.11820 0.54613 1.01686
 B69 B -0.01563 0.62958 1.00201
 B70 B 0.05916 0.54999 0.89892
 B71 B 0.01608 0.43799 0.88245
 B72 B -0.09067 0.43447 0.96431
 B73 B 0.06562 0.53124 0.38343
 B74 B 0.11820 0.54613 0.51686
 B75 B 0.01563 0.62958 0.50201
 B76 B -0.05916 0.54999 0.39892
 B77 B -0.01608 0.43799 0.38245
 B78 B 0.09067 0.43447 0.46431
 B79 B -0.06562 0.46876 0.61657
 B80 B -0.11820 0.45387 0.48314
 B81 B -0.01563 0.37042 0.49799
 B82 B 0.05916 0.45001 0.60108
 B83 B 0.01608 0.56201 0.61755
 B84 B -0.09067 0.56553 0.53569
 B85 B 0.56562 0.03124 -0.11657
 B86 B 0.61820 0.04613 0.01686
 B87 B 0.51563 0.12958 0.00201
 B88 B 0.44084 0.04999 -0.10108
 B89 B 0.48392 -0.06201 -0.11755
 B90 B 0.59067 -0.06553 -0.03569
 B91 B 0.43438 -0.03124 0.11657
 B92 B 0.38180 -0.04613 -0.01686
 B93 B 0.48437 -0.12958 -0.00201
 B94 B 0.55916 -0.04999 0.10108
 B95 B 0.51608 0.06201 0.11755
 B96 B 0.40933 0.06553 0.03569
 B97 B 0.43438 0.46876 -0.11657
 B98 B 0.38180 0.45387 0.01686
 B99 B 0.48437 0.37042 0.00201
 B100 B 0.55916 0.45001 -0.10108
 B101 B 0.51608 0.56201 -0.11755
 B102 B 0.40933 0.56553 -0.03569
 B103 B 0.56562 0.53124 0.11657
 B104 B 0.61820 0.54613 -0.01686
 B105 B 0.51563 0.62958 -0.00201
 B106 B 0.44084 0.54999 0.10108
 B107 B 0.48392 0.43799 0.11755
 B108 B 0.59067 0.43447 0.03569
 B109 B -0.06562 0.96876 0.38343
 B110 B -0.11820 0.95387 0.51686
 B111 B -0.01563 0.87042 0.50201
 B112 B 0.05916 0.95001 0.39892
 B113 B 0.01608 1.06201 0.38245
 B114 B -0.09067 1.06553 0.46431
 B115 B 0.06562 1.03124 0.61657
 B116 B 0.11820 1.04613 0.48314
 B117 B 0.01563 1.12958 0.49799
 B118 B -0.05916 1.04999 0.60108
 B119 B -0.01608 0.93799 0.61755
 B120 B 0.09067 0.93447 0.53569
 B121 B 0.78124 0.18438 0.13343
 B122 B 0.79613 0.13180 0.26686
 B123 B 0.87958 0.23437 0.25201
 B124 B 0.79999 0.30916 0.14892
 B125 B 0.68799 0.26608 0.13245
 B126 B 0.68447 0.15933 0.21431
 B127 B 0.71876 0.31562 0.36657
 B128 B 0.70387 0.36820 0.23314
 B129 B 0.62042 0.26563 0.24799
 B130 B 0.70001 0.19084 0.35108
 B131 B 0.81201 0.23392 0.36755
 B132 B 0.81553 0.34067 0.28569
 B133 B 0.71876 0.81562 0.63343
 B134 B 0.70387 0.86820 0.76686
 B135 B 0.62042 0.76563 0.75201
 B136 B 0.70001 0.69084 0.64892
 B137 B 0.81201 0.73392 0.63245
 B138 B 0.81553 0.84067 0.71431
 B139 B 0.78124 0.68438 0.86657
 B140 B 0.79613 0.63180 0.73314
 B141 B 0.87958 0.73437 0.74799
 B142 B 0.79999 0.80916 0.85108
 B143 B 0.68799 0.76608 0.86755
 B144 B 0.68447 0.65933 0.78569
 B145 B 0.28124 0.31562 0.86657
 B146 B 0.29613 0.36820 0.73314
 B147 B 0.37958 0.26563 0.74799
 B148 B 0.29999 0.19084 0.85108
 B149 B 0.18799 0.23392 0.86755
 B150 B 0.18447 0.34067 0.78569
 B151 B 0.21876 0.18438 0.63343
 B152 B 0.20387 0.13180 0.76686
 B153 B 0.12042 0.23437 0.75201
 B154 B 0.20001 0.30916 0.64892
 B155 B 0.31201 0.26608 0.63245
 B156 B 0.31553 0.15933 0.71431
 B157 B 0.21876 0.68438 0.36657
 B158 B 0.20387 0.63180 0.23314
 B159 B 0.12042 0.73437 0.24799
 B160 B 0.20001 0.80916 0.35108
 B161 B 0.31201 0.76608 0.36755
 B162 B 0.31553 0.65933 0.28569
 B163 B 0.28124 0.81562 0.13343
 B164 B 0.29613 0.86820 0.26686
 B165 B 0.37958 0.76563 0.25201
 B166 B 0.29999 0.69084 0.14892
 B167 B 0.18799 0.73392 0.13245
 B168 B 0.18447 0.84067 0.21431
 B169 B 0.28124 0.68438 0.63343
 B170 B 0.29613 0.63180 0.76686
 B171 B 0.37958 0.73437 0.75201
 B172 B 0.29999 0.80916 0.64892
 B173 B 0.18799 0.76608 0.63245
 B174 B 0.18447 0.65933 0.71431
 B175 B 0.21876 0.81562 0.86657
 B176 B 0.20387 0.86820 0.73314
 B177 B 0.12042 0.76563 0.74799
 B178 B 0.20001 0.69084 0.85108
 B179 B 0.31201 0.73392 0.86755
 B180 B 0.31553 0.84067 0.78569
 B181 B 0.21876 0.31562 0.13343
 B182 B 0.20387 0.36820 0.26686
 B183 B 0.12042 0.26563 0.25201
 B184 B 0.20001 0.19084 0.14892
 B185 B 0.31201 0.23392 0.13245
 B186 B 0.31553 0.34067 0.21431
 B187 B 0.28124 0.18438 0.36657
 B188 B 0.29613 0.13180 0.23314
 B189 B 0.37958 0.23437 0.24799
 B190 B 0.29999 0.30916 0.35108
 B191 B 0.18799 0.26608 0.36755
 B192 B 0.18447 0.15933 0.28569
 B193 B 0.78124 0.81562 0.36657
 B194 B 0.79613 0.86820 0.23314
 B195 B 0.87958 0.76563 0.24799
 B196 B 0.79999 0.69084 0.35108
 B197 B 0.68799 0.73392 0.36755
 B198 B 0.68447 0.84067 0.28569
 B199 B 0.71876 0.68438 0.13343
 B200 B 0.70387 0.63180 0.26686
 B201 B 0.62042 0.73437 0.25201
 B202 B 0.70001 0.80916 0.14892
 B203 B 0.81201 0.76608 0.13245
 B204 B 0.81553 0.65933 0.21431
 B205 B 0.71876 0.18438 0.86657
 B206 B 0.70387 0.13180 0.73314
 B207 B 0.62042 0.23437 0.74799
 B208 B 0.70001 0.30916 0.85108
 B209 B 0.81201 0.26608 0.86755
 B210 B 0.81553 0.15933 0.78569
 B211 B 0.78124 0.31562 0.63343
 B212 B 0.79613 0.36820 0.76686
 B213 B 0.87958 0.26563 0.75201
 B214 B 0.79999 0.19084 0.64892
 B215 B 0.68799 0.23392 0.63245
 B216 B 0.68447 0.34067 0.71431
   
