data_POSCAR
  _audit_creation_date              2014-09-24
  _audit_creation_method            'ToBaCCo'
  _symmetry_space_group_name_H-M    'P1'
  _symmetry_Int_Tables_number       1
  _symmetry_cell_setting            triclinic
  loop_
  _symmetry_equiv_pos_as_xyz
 x,y,z
_cell_length_a 36.0909
_cell_length_b 30.3231
_cell_length_c 15.4540
_cell_angle_alpha 90.907900
_cell_angle_beta 90.299300
_cell_angle_gamma 131.714800
loop_
  _atom_site_label
  _atom_site_type_symbol
  _atom_site_fract_x
  _atom_site_fract_y
  _atom_site_fract_z
C1 C 0.48323 1.00773 0.45874
 C2 C 0.47570 0.99266 0.54362
 C3 C 0.43926 0.92992 0.56983
 C4 C 0.49564 1.03783 0.61418
 C5 C 0.51088 1.06941 0.43211
 C6 C 0.45627 0.96221 0.38785
 C7 C 0.38891 0.89393 0.54620
 C8 C 0.35360 0.83764 0.58010
 C9 C 0.36768 0.81613 0.64015
 C10 C 0.41873 0.85196 0.66091
 C11 C 0.45390 0.90830 0.62682
 C12 C 0.46203 1.03249 0.66894
 C13 C 0.47819 1.07820 0.72667
 C14 C 0.52846 1.13021 0.73164
 C15 C 0.56284 1.13408 0.68150
 C16 C 0.54650 1.08821 0.62273
 C17 C 0.54957 1.09580 0.37332
 C18 C 0.57158 1.15069 0.33908
 C19 C 0.55514 1.18008 0.36274
 C20 C 0.51691 1.15395 0.42293
 C21 C 0.49470 1.09892 0.45655
 C22 C 0.46010 0.91929 0.37661
 C23 C 0.43055 0.87394 0.31373
 C24 C 0.39653 0.87077 0.26251
 C25 C 0.39460 0.91532 0.27136
 C26 C 0.42432 0.96067 0.33299
 H27 H 0.37661 0.91032 0.50388
 H28 H 0.31533 0.81241 0.56054
 H29 H 0.43166 0.83755 0.70610
 H30 H 0.49254 0.93571 0.64656
 H31 H 0.42270 0.99411 0.66392
 H32 H 0.45098 1.07330 0.76605
 H33 H 0.57312 1.09294 0.58163
 H34 H 0.56188 1.07316 0.35243
 H35 H 0.60079 1.16956 0.29260
 H36 H 0.50256 1.17454 0.44172
 H37 H 0.46363 1.07837 0.49927
 H38 H 0.48491 0.92011 0.41786
 H39 H 0.43255 0.83993 0.30788
 H40 H 0.36922 0.91439 0.23180
 H41 H 0.42081 0.99333 0.34026
 H42 H 0.60185 1.17362 0.68474
 C43 C -0.03529 0.39462 0.46780
 C44 C -0.04239 0.38063 0.55340
 C45 C -0.00708 0.38026 0.60234
 C46 C -0.07903 0.37721 0.60531
 C47 C -0.06086 0.41162 0.42453
 C48 C 0.00424 0.40341 0.41739
 C49 C -0.02362 0.32961 0.64520
 C50 C 0.00967 0.33096 0.69522
 C51 C 0.05968 0.38347 0.70420
 C52 C 0.07595 0.43380 0.66059
 C53 C 0.04297 0.43225 0.61025
 C54 C -0.12746 0.34683 0.57340
 C55 C -0.15743 0.35467 0.61347
 C56 C -0.14058 0.39010 0.68889
 C57 C -0.09466 0.41508 0.72622
 C58 C -0.06386 0.40926 0.68431
 C59 C -0.05029 0.46343 0.45094
 C60 C -0.07203 0.48157 0.40769
 C61 C -0.10521 0.44798 0.33699
 C62 C -0.11660 0.39511 0.31234
 C63 C -0.09393 0.37768 0.35478
 C64 C 0.03756 0.45510 0.36996
 C65 C 0.07696 0.46630 0.32735
 C66 C 0.08439 0.42655 0.33221
 C67 C 0.05033 0.37392 0.37728
 C68 C 0.01018 0.36207 0.41844
 H69 H -0.06231 0.28935 0.64049
 H70 H -0.00410 0.29178 0.72920
 H71 H 0.11420 0.47493 0.66670
 H72 H 0.05621 0.47205 0.57886
 H73 H -0.14101 0.31977 0.51477
 H74 H -0.19320 0.33435 0.58450
 H75 H -0.02705 0.43270 0.71128
 H76 H -0.02455 0.49029 0.50445
 H77 H -0.06261 0.52188 0.43060
 H78 H -0.14188 0.36800 0.25848
 H79 H -0.10223 0.33767 0.33345
 H80 H 0.03401 0.48782 0.36772
 H81 H 0.10254 0.50701 0.29263
 H82 H 0.05447 0.34175 0.38031
 H83 H -0.01573 0.32112 0.45241
 H84 H -0.08118 0.44249 0.78455
 C85 C 0.56196 0.58321 0.45175
 C86 C 0.55487 0.57138 0.53788
 C87 C 0.51418 0.56201 0.58390
 C88 C 0.58773 0.56788 0.58921
 C89 C 0.59787 0.58455 0.40291
 C90 C 0.53504 0.59677 0.40338
 C91 C 0.52437 0.59660 0.65737
 C92 C 0.48628 0.59030 0.69693
 C93 C 0.43716 0.54894 0.66409
 C94 C 0.42731 0.51343 0.59137
 C95 C 0.46524 0.51968 0.55242
 C96 C 0.63932 0.61421 0.58825
 C97 C 0.67053 0.61029 0.63320
 C98 C 0.65087 0.56045 0.68289
 C99 C 0.59888 0.51512 0.68670
 C100 C 0.56765 0.51873 0.64002
 C101 C 0.58958 0.53271 0.39003
 C102 C 0.62391 0.53421 0.34529
 C103 C 0.66763 0.58779 0.31480
 C104 C 0.67603 0.63977 0.32808
 C105 C 0.64092 0.63794 0.37065
 C106 C 0.50750 0.56459 0.32758
 C107 C 0.48128 0.57679 0.28348
 C108 C 0.48274 0.62183 0.31397
 C109 C 0.51047 0.65386 0.39001
 C110 C 0.53667 0.64185 0.43356
 H111 H 0.56201 0.62945 0.68278
 H112 H 0.49548 0.61816 0.75293
 H113 H 0.39049 0.48052 0.56336
 H114 H 0.45652 0.49192 0.49659
 H115 H 0.65558 0.65368 0.55247
 H116 H 0.70998 0.64729 0.62960
 H117 H 0.52781 0.48280 0.64258
 H118 H 0.55643 0.49116 0.41432
 H119 H 0.61661 0.49356 0.33531
 H120 H 0.70909 0.68143 0.30393
 H121 H 0.64774 0.67830 0.38011
 H122 H 0.50588 0.52965 0.30320
 H123 H 0.46041 0.55156 0.22503
 H124 H 0.51207 0.68827 0.41665
 H125 H 0.55816 0.66767 0.49130
 H126 H 0.58222 0.47636 0.72472
 O127 O 0.37500 0.62128 -0.10140
 O128 O 0.33898 0.67016 -0.14030
 C129 C 0.30266 0.66680 -0.15411
 O130 O 0.26597 0.64066 -0.10417
 O131 O 0.20735 0.52678 -0.09579
 C132 C 0.19698 0.47801 -0.09353
 O133 O 0.21975 0.46908 -0.04417
 O134 O 0.31017 0.52442 -0.08953
 C135 C 0.34882 0.56756 -0.12702
 O136 O 0.38430 0.65820 0.06568
 O137 O 0.35073 0.70843 0.02592
 C138 C 0.31588 0.69743 0.07073
 O139 O 0.27183 0.64793 0.06903
 O140 O 0.20796 0.53271 0.07837
 C141 C 0.21871 0.51055 0.13077
 O142 O 0.25417 0.51201 0.11925
 O143 O 0.34473 0.56274 0.07611
 C144 C 0.37821 0.61660 0.10080
 Cr145 Cr 0.35985 0.66163 -0.03651
 Cr146 Cr 0.24032 0.58705 -0.01295
 Cr147 Cr 0.28293 0.51990 0.01441
 O148 O 0.29453 0.58978 -0.01144
 O149 O 0.66617 0.44637 -0.08772
 O150 O 0.61654 0.33718 -0.04173
 C151 C 0.62504 0.30702 -0.07845
 O152 O 0.66466 0.31665 -0.06588
 O153 O 0.76194 0.39058 -0.05645
 C154 C 0.78313 0.43268 -0.10904
 O155 O 0.78742 0.47735 -0.09698
 O156 O 0.74754 0.52249 -0.07276
 C157 C 0.70610 0.49609 -0.11074
 O158 O 0.68386 0.48089 0.08053
 O159 O 0.63781 0.37353 0.12518
 C160 C 0.63857 0.33437 0.14917
 O161 O 0.66082 0.32133 0.10841
 O162 O 0.75783 0.39755 0.11745
 C163 C 0.79796 0.45091 0.12516
 O164 O 0.80973 0.49088 0.07464
 O165 O 0.76467 0.53035 0.09835
 C166 C 0.72586 0.52123 0.11673
 Cr167 Cr 0.65340 0.40992 0.01880
 Cr168 Cr 0.71146 0.35916 0.02545
 Cr169 Cr 0.77510 0.50216 0.00130
 O170 O 0.71326 0.42369 0.01535
 C171 C 0.33379 0.76432 -0.31909
 C172 C 0.28244 0.72701 -0.32749
 C173 C 0.26372 0.68421 -0.26809
 C174 C 0.30450 0.69745 -0.22882
 O175 O 0.34678 0.74549 -0.25957
 H176 H 0.26054 0.73092 -0.36877
 H177 H 0.22503 0.64843 -0.25366
 C178 C 0.09476 0.38919 -0.23572
 C179 C 0.09085 0.34404 -0.20316
 C180 C 0.13047 0.37112 -0.14666
 C181 C 0.15504 0.43041 -0.14897
 O182 O 0.13360 0.44119 -0.20282
 H183 H 0.06240 0.29717 -0.21775
 H184 H 0.13932 0.35010 -0.10668
 C185 C 0.39898 0.54281 -0.29573
 C186 C 0.34938 0.50254 -0.32163
 C187 C 0.32530 0.50871 -0.26288
 C188 C 0.36140 0.55257 -0.20571
 O189 O 0.40627 0.57371 -0.22514
 H190 H 0.33174 0.47100 -0.37528
 H191 H 0.28571 0.48331 -0.26071
 C192 C 0.54382 0.18116 -0.21509
 C193 C 0.51346 0.19301 -0.20035
 C194 C 0.54060 0.24253 -0.14906
 C195 C 0.58566 0.25754 -0.13587
 O196 O 0.58801 0.22060 -0.17637
 H197 H 0.47599 0.16866 -0.22460
 H198 H 0.52872 0.26469 -0.12322
 C199 C 0.83204 0.40647 -0.27643
 C200 C 0.81818 0.43123 -0.32543
 C201 C 0.79939 0.44621 -0.26808
 C202 C 0.80260 0.42866 -0.18878
 O203 O 0.82261 0.40474 -0.19335
 H204 H 0.82270 0.43899 -0.39424
 H205 H 0.78435 0.46654 -0.28236
 C206 C 0.68207 0.55617 -0.27085
 C207 C 0.73340 0.59568 -0.27537
 C208 C 0.74845 0.57664 -0.21817
 C209 C 0.70566 0.52691 -0.18264
 O210 O 0.66523 0.51394 -0.21470
 H211 H 0.75771 0.63417 -0.31474
 H212 H 0.78636 0.59735 -0.20274
 C213 C 0.87445 0.46715 0.28971
 C214 C 0.88929 0.52260 0.29776
 C215 C 0.86267 0.52349 0.23645
 C216 C 0.83290 0.46856 0.19629
 O217 O 0.83979 0.43419 0.22807
 H218 H 0.91728 0.55923 0.34055
 H219 H 0.86461 0.55986 0.22261
 C220 C 0.57585 0.23555 0.31977
 C221 C 0.56731 0.27230 0.34323
 C222 C 0.59037 0.31503 0.28273
 C223 C 0.61142 0.30144 0.22708
 O224 O 0.60290 0.25356 0.24945
 H225 H 0.54646 0.26852 0.39716
 H226 H 0.59133 0.35139 0.27908
 C227 C 0.70264 0.58792 0.26576
 C228 C 0.75363 0.63317 0.26551
 C229 C 0.77028 0.61375 0.21116
 C230 C 0.72806 0.55862 0.18183
 O231 O 0.68725 0.54290 0.21507
 H232 H 0.77591 0.67501 0.30088
 H233 H 0.80827 0.63738 0.19342
 C234 C 0.12784 0.44093 0.29014
 C235 C 0.15072 0.42034 0.31480
 C236 C 0.18924 0.44541 0.25980
 C237 C 0.18686 0.47919 0.20558
 O238 O 0.14981 0.47672 0.22397
 H239 H 0.14085 0.39103 0.36694
 H240 H 0.21533 0.43895 0.25824
 C241 C 0.35989 0.81882 0.20562
 C242 C 0.31148 0.79463 0.19499
 C243 C 0.28906 0.74605 0.14309
 C244 C 0.32543 0.74434 0.12492
 O245 O 0.36861 0.78828 0.16310
 H246 H 0.29419 0.80968 0.22380
 H247 H 0.25065 0.71531 0.12103
 C248 C 0.45706 0.63688 0.26521
 C249 C 0.46742 0.68947 0.27655
 C250 C 0.43851 0.68746 0.21742
 C251 C 0.41227 0.63389 0.17384
 O252 O 0.42336 0.60282 0.20245
 H253 H 0.49399 0.72616 0.32053
 H254 H 0.43719 0.72157 0.20634
   
