data_POSCAR
  _audit_creation_date              2014-09-24
  _audit_creation_method            'ToBaCCo'
  _symmetry_space_group_name_H-M    'P1'
  _symmetry_Int_Tables_number       1
  _symmetry_cell_setting            triclinic
  loop_
  _symmetry_equiv_pos_as_xyz
 x,y,z
_cell_length_a 45.2746
_cell_length_b 45.2746
_cell_length_c 45.2746
_cell_angle_alpha 88.862700
_cell_angle_beta 88.862600
_cell_angle_gamma 88.862600
loop_
  _atom_site_label
  _atom_site_type_symbol
  _atom_site_fract_x
  _atom_site_fract_y
  _atom_site_fract_z
C1 C 0.75594 0.61782 0.99946
 C2 C 0.74958 0.37852 0.50362
 C3 C 0.24958 -0.12148 0.00362
 C4 C 0.25594 0.11782 0.49946
 C5 C 0.11782 0.49947 0.25594
 C6 C -0.12149 0.00362 0.24958
 C7 C 0.37852 0.50362 0.74959
 C8 C 0.61782 0.99946 0.75594
 C9 C 0.00361 0.24959 -0.12148
 C10 C 0.49946 0.25594 0.11782
 C11 C 0.99946 0.75594 0.61782
 C12 C 0.50362 0.74958 0.37852
 C13 C 0.42397 -0.02839 0.28029
 H14 H 0.42532 -0.00713 0.29063
 C15 C 0.43945 -0.05285 0.29196
 H16 H 0.45293 -0.05041 0.31123
 C17 C 0.40337 -0.05811 0.24369
 H18 H 0.38857 -0.06041 0.22552
 C19 C 0.41847 -0.08305 0.25462
 H20 H 0.41545 -0.10428 0.24459
 N21 N 0.40620 -0.03147 0.25668
 C22 C 0.38769 0.05570 0.21775
 H23 H 0.36395 0.05391 0.21665
 C24 C 0.40137 0.08108 0.20687
 H25 H 0.38816 0.09888 0.19726
 C26 C 0.43389 0.03463 0.23167
 H27 H 0.44639 0.01640 0.24127
 C28 C 0.44853 0.05976 0.22099
 H29 H 0.47233 0.06090 0.22239
 Zn30 Zn 0.38180 0.00091 0.24463
 N31 N 0.40394 0.03329 0.23016
 C32 C 0.36161 0.04072 0.28803
 N33 N 0.35896 0.01276 0.27804
 C34 C 0.34202 -0.00737 0.29291
 C35 C 0.32677 0.00047 0.31888
 C36 C 0.34676 0.04944 0.31376
 C37 C 0.37212 -0.01616 0.18736
 C38 C 0.35657 -0.02531 0.16303
 C39 C 0.31139 -0.02200 0.19224
 C40 C 0.32784 -0.01282 0.21613
 N41 N 0.35771 -0.01057 0.21337
 H42 H 0.37579 0.05620 0.27654
 H43 H 0.34080 -0.02965 0.28485
 H44 H 0.31356 -0.01570 0.33079
 H45 H 0.34928 0.07167 0.32165
 H46 H 0.39584 -0.01387 0.18574
 H47 H 0.36834 -0.03022 0.14258
 H48 H 0.28769 -0.02428 0.19465
 H49 H 0.31677 -0.00778 0.23684
 C50 C 0.43202 0.08323 0.20864
 C51 C 0.43638 -0.08049 0.27918
 C52 C 0.32599 -0.02848 0.16553
 C53 C 0.32931 0.02915 0.32940
 C54 C 0.08141 1.02706 0.78584
 H55 H 0.07918 1.00576 0.79684
 C56 C 0.06648 1.05187 0.79709
 H57 H 0.05255 1.04968 0.81671
 C58 C 0.10360 1.05642 0.74787
 H59 H 0.11879 1.05840 0.72929
 C60 C 0.08908 1.08171 0.75835
 H61 H 0.09292 1.10291 0.74758
 N62 N 0.09968 1.02978 0.76174
 C63 C 0.11547 0.94204 0.72582
 H64 H 0.13936 0.94249 0.72486
 C65 C 0.10083 0.91782 0.71509
 H66 H 0.11345 0.89953 0.70581
 C67 C 0.06986 0.96564 0.73860
 H68 H 0.05796 0.98451 0.74745
 C69 C 0.05427 0.94174 0.72801
 H70 H 0.03034 0.94217 0.72881
 Zn71 Zn 0.12311 0.99672 0.75005
 N72 N 0.09994 0.96520 0.73745
 C73 C 0.14237 0.95646 0.79441
 N74 N 0.14564 0.98427 0.78299
 C75 C 0.16327 1.00402 0.79606
 C76 C 0.17871 0.99592 0.82153
 C77 C 0.15739 0.94749 0.81974
 C78 C 0.13326 1.01377 0.69186
 C79 C 0.14905 1.02250 0.66655
 C80 C 0.19422 1.01734 0.69394
 C81 C 0.17753 1.00862 0.71885
 N82 N 0.14756 1.00750 0.71744
 H83 H 0.12766 0.94133 0.78433
 H84 H 0.16500 1.02618 0.78689
 H85 H 0.19253 1.01178 0.83196
 H86 H 0.15443 0.92538 0.82878
 H87 H 0.10945 1.01236 0.69133
 H88 H 0.13738 1.02797 0.64645
 H89 H 0.21801 1.01874 0.69525
 H90 H 0.18849 1.00302 0.73924
 C91 C 0.06998 0.91764 0.71616
 C92 C 0.07064 1.07949 0.78336
 C93 C 0.17975 1.02452 0.66765
 C94 C 0.17562 0.96738 0.83348
 C95 C 0.58142 0.52705 0.28584
 H96 H 0.57919 0.50576 0.29684
 C97 C 0.56649 0.55187 0.29709
 H98 H 0.55256 0.54967 0.31671
 C99 C 0.60361 0.55642 0.24787
 H100 H 0.61880 0.55840 0.22929
 C101 C 0.58909 0.58170 0.25835
 H102 H 0.59293 0.60291 0.24758
 N103 N 0.59969 0.52978 0.26174
 C104 C 0.61548 0.44204 0.22582
 H105 H 0.63936 0.44249 0.22486
 C106 C 0.60084 0.41782 0.21509
 H107 H 0.61346 0.39953 0.20582
 C108 C 0.56987 0.46564 0.23860
 H109 H 0.55797 0.48451 0.24745
 C110 C 0.55427 0.44174 0.22801
 H111 H 0.53034 0.44217 0.22881
 Zn112 Zn 0.62312 0.49672 0.25005
 N113 N 0.59995 0.46520 0.23745
 C114 C 0.64238 0.45646 0.29441
 N115 N 0.64565 0.48427 0.28299
 C116 C 0.66328 0.50402 0.29606
 C117 C 0.67872 0.49591 0.32153
 C118 C 0.65740 0.44749 0.31974
 C119 C 0.63327 0.51377 0.19186
 C120 C 0.64905 0.52249 0.16655
 C121 C 0.69423 0.51733 0.19394
 C122 C 0.67754 0.50861 0.21885
 N123 N 0.64756 0.50750 0.21744
 H124 H 0.62766 0.44133 0.28433
 H125 H 0.66500 0.52618 0.28689
 H126 H 0.69254 0.51177 0.33196
 H127 H 0.65444 0.42538 0.32878
 H128 H 0.60946 0.51236 0.19133
 H129 H 0.63738 0.52797 0.14645
 H130 H 0.71802 0.51874 0.19525
 H131 H 0.68849 0.50302 0.23924
 C132 C 0.56999 0.41764 0.21616
 C133 C 0.57064 0.57949 0.28337
 C134 C 0.67976 0.52452 0.16765
 C135 C 0.67563 0.46738 0.33348
 C136 C 0.92397 0.47161 0.78029
 H137 H 0.92532 0.49287 0.79062
 C138 C 0.93945 0.44715 0.79196
 H139 H 0.95293 0.44960 0.81123
 C140 C 0.90337 0.44189 0.74369
 H141 H 0.88857 0.43959 0.72552
 C142 C 0.91847 0.41695 0.75462
 H143 H 0.91546 0.39572 0.74459
 N144 N 0.90620 0.46853 0.75668
 C145 C 0.88769 0.55571 0.71775
 H146 H 0.86395 0.55392 0.71665
 C147 C 0.90137 0.58108 0.70687
 H148 H 0.88816 0.59888 0.69726
 C149 C 0.93389 0.53463 0.73167
 H150 H 0.94639 0.51640 0.74127
 C151 C 0.94853 0.55976 0.72099
 H152 H 0.97233 0.56090 0.72239
 Zn153 Zn 0.88180 0.50091 0.74463
 N154 N 0.90394 0.53330 0.73016
 C155 C 0.86161 0.54072 0.78803
 N156 N 0.85896 0.51276 0.77803
 C157 C 0.84202 0.49263 0.79291
 C158 C 0.82677 0.50047 0.81887
 C159 C 0.84675 0.54944 0.81375
 C160 C 0.87212 0.48384 0.68736
 C161 C 0.85657 0.47469 0.66302
 C162 C 0.81139 0.47800 0.69224
 C163 C 0.82784 0.48718 0.71613
 N164 N 0.85771 0.48944 0.71336
 H165 H 0.87578 0.55620 0.77653
 H166 H 0.84080 0.47036 0.78485
 H167 H 0.81356 0.48430 0.83079
 H168 H 0.84928 0.57167 0.82165
 H169 H 0.89584 0.48613 0.68574
 H170 H 0.86834 0.46978 0.64258
 H171 H 0.78769 0.47572 0.69464
 H172 H 0.81677 0.49222 0.73683
 C173 C 0.93201 0.58324 0.70863
 C174 C 0.93638 0.41951 0.77917
 C175 C 0.82599 0.47152 0.66553
 C176 C 0.82931 0.52915 0.82940
 C177 C 0.28028 0.42397 -0.02839
 H178 H 0.29062 0.42532 -0.00713
 C179 C 0.29196 0.43945 -0.05285
 H180 H 0.31123 0.45293 -0.05040
 C181 C 0.24369 0.40337 -0.05811
 H182 H 0.22552 0.38857 -0.06041
 C183 C 0.25461 0.41847 -0.08304
 H184 H 0.24459 0.41546 -0.10428
 N185 N 0.25668 0.40620 -0.03147
 C186 C 0.21774 0.38770 0.05571
 H187 H 0.21664 0.36395 0.05392
 C188 C 0.20687 0.40138 0.08108
 H189 H 0.19726 0.38817 0.09888
 C190 C 0.23167 0.43389 0.03464
 H191 H 0.24126 0.44639 0.01640
 C192 C 0.22099 0.44853 0.05977
 H193 H 0.22239 0.47233 0.06090
 Zn194 Zn 0.24463 0.38180 0.00091
 N195 N 0.23016 0.40394 0.03330
 C196 C 0.28803 0.36161 0.04072
 N197 N 0.27803 0.35897 0.01276
 C198 C 0.29290 0.34203 -0.00737
 C199 C 0.31887 0.32677 0.00048
 C200 C 0.31375 0.34676 0.04944
 C201 C 0.18736 0.37212 -0.01616
 C202 C 0.16302 0.35658 -0.02531
 C203 C 0.19224 0.31139 -0.02200
 C204 C 0.21613 0.32784 -0.01282
 N205 N 0.21336 0.35772 -0.01056
 H206 H 0.27653 0.37579 0.05620
 H207 H 0.28485 0.34080 -0.02964
 H208 H 0.33079 0.31356 -0.01569
 H209 H 0.32165 0.34928 0.07167
 H210 H 0.18573 0.39584 -0.01386
 H211 H 0.14258 0.36834 -0.03022
 H212 H 0.19464 0.28769 -0.02428
 H213 H 0.23683 0.31678 -0.00778
 C214 C 0.20863 0.43202 0.08324
 C215 C 0.27917 0.43638 -0.08049
 C216 C 0.16553 0.32599 -0.02848
 C217 C 0.32940 0.32931 0.02915
 C218 C 0.78584 0.08142 1.02705
 H219 H 0.79684 0.07919 1.00576
 C220 C 0.79709 0.06649 1.05187
 H221 H 0.81671 0.05256 1.04967
 C222 C 0.74786 0.10361 1.05642
 H223 H 0.72929 0.11880 1.05840
 C224 C 0.75835 0.08909 1.08171
 H225 H 0.74758 0.09293 1.10291
 N226 N 0.76174 0.09969 1.02978
 C227 C 0.72582 0.11548 0.94204
 H228 H 0.72485 0.13937 0.94249
 C229 C 0.71508 0.10084 0.91782
 H230 H 0.70581 0.11346 0.89953
 C231 C 0.73859 0.06987 0.96564
 H232 H 0.74745 0.05797 0.98451
 C233 C 0.72801 0.05428 0.94174
 H234 H 0.72881 0.03035 0.94217
 Zn235 Zn 0.75005 0.12312 0.99672
 N236 N 0.73745 0.09995 0.96520
 C237 C 0.79441 0.14238 0.95646
 N238 N 0.78299 0.14565 0.98427
 C239 C 0.79606 0.16328 1.00402
 C240 C 0.82153 0.17872 0.99591
 C241 C 0.81974 0.15740 0.94749
 C242 C 0.69186 0.13327 1.01377
 C243 C 0.66655 0.14905 1.02249
 C244 C 0.69394 0.19423 1.01733
 C245 C 0.71885 0.17754 1.00862
 N246 N 0.71744 0.14757 1.00750
 H247 H 0.78433 0.12767 0.94133
 H248 H 0.78689 0.16501 1.02618
 H249 H 0.83196 0.19254 1.01178
 H250 H 0.82878 0.15444 0.92538
 H251 H 0.69133 0.10946 1.01236
 H252 H 0.64645 0.13739 1.02797
 H253 H 0.69525 0.21802 1.01874
 H254 H 0.73924 0.18850 1.00302
 C255 C 0.71616 0.06999 0.91764
 C256 C 0.78336 0.07064 1.07949
 C257 C 0.66764 0.17976 1.02452
 C258 C 0.83348 0.17563 0.96738
 C259 C 0.28584 0.58142 0.52706
 H260 H 0.29684 0.57918 0.50576
 C261 C 0.29709 0.56649 0.55187
 H262 H 0.31671 0.55256 0.54968
 C263 C 0.24787 0.60361 0.55642
 H264 H 0.22929 0.61880 0.55840
 C265 C 0.25835 0.58909 0.58171
 H266 H 0.24758 0.59293 0.60291
 N267 N 0.26174 0.59969 0.52978
 C268 C 0.22582 0.61548 0.44204
 H269 H 0.22486 0.63936 0.44249
 C270 C 0.21509 0.60084 0.41783
 H271 H 0.20581 0.61346 0.39953
 C272 C 0.23860 0.56987 0.46564
 H273 H 0.24745 0.55797 0.48451
 C274 C 0.22801 0.55427 0.44174
 H275 H 0.22881 0.53034 0.44217
 Zn276 Zn 0.25005 0.62312 0.49672
 N277 N 0.23745 0.59995 0.46521
 C278 C 0.29441 0.64238 0.45646
 N279 N 0.28299 0.64565 0.48427
 C280 C 0.29606 0.66328 0.50402
 C281 C 0.32153 0.67872 0.49591
 C282 C 0.31974 0.65739 0.44749
 C283 C 0.19186 0.63327 0.51377
 C284 C 0.16655 0.64905 0.52250
 C285 C 0.19394 0.69423 0.51734
 C286 C 0.21885 0.67754 0.50862
 N287 N 0.21744 0.64756 0.50750
 H288 H 0.28433 0.62766 0.44133
 H289 H 0.28689 0.66500 0.52618
 H290 H 0.33196 0.69254 0.51178
 H291 H 0.32878 0.65444 0.42538
 H292 H 0.19133 0.60946 0.51236
 H293 H 0.14645 0.63739 0.52797
 H294 H 0.19525 0.71802 0.51874
 H295 H 0.23924 0.68849 0.50302
 C296 C 0.21616 0.56999 0.41764
 C297 C 0.28336 0.57064 0.57949
 C298 C 0.16765 0.67976 0.52452
 C299 C 0.33348 0.67563 0.46738
 C300 C 0.78028 0.92397 0.47161
 H301 H 0.79062 0.92532 0.49287
 C302 C 0.79196 0.93945 0.44715
 H303 H 0.81123 0.95294 0.44960
 C304 C 0.74369 0.90337 0.44189
 H305 H 0.72551 0.88858 0.43959
 C306 C 0.75461 0.91848 0.41695
 H307 H 0.74458 0.91546 0.39572
 N308 N 0.75668 0.90620 0.46853
 C309 C 0.71774 0.88770 0.55571
 H310 H 0.71664 0.86395 0.55392
 C311 C 0.70687 0.90138 0.58108
 H312 H 0.69726 0.88816 0.59888
 C313 C 0.73167 0.93389 0.53463
 H314 H 0.74126 0.94639 0.51640
 C315 C 0.72098 0.94853 0.55977
 H316 H 0.72239 0.97233 0.56090
 Zn317 Zn 0.74463 0.88180 0.50091
 N318 N 0.73016 0.90394 0.53330
 C319 C 0.78803 0.86162 0.54072
 N320 N 0.77803 0.85897 0.51276
 C321 C 0.79290 0.84203 0.49263
 C322 C 0.81887 0.82677 0.50047
 C323 C 0.81375 0.84676 0.54944
 C324 C 0.68736 0.87212 0.48384
 C325 C 0.66302 0.85658 0.47469
 C326 C 0.69224 0.81139 0.47800
 C327 C 0.71613 0.82784 0.48718
 N328 N 0.71336 0.85772 0.48944
 H329 H 0.77653 0.87579 0.55620
 H330 H 0.78485 0.84080 0.47035
 H331 H 0.83078 0.81357 0.48430
 H332 H 0.82165 0.84928 0.57167
 H333 H 0.68573 0.89584 0.48614
 H334 H 0.64257 0.86834 0.46978
 H335 H 0.69464 0.78769 0.47572
 H336 H 0.73683 0.81678 0.49222
 C337 C 0.70863 0.93202 0.58324
 C338 C 0.77917 0.93639 0.41951
 C339 C 0.66553 0.82599 0.47152
 C340 C 0.82940 0.82932 0.52915
 C341 C -0.02839 0.28029 0.42397
 H342 H -0.00713 0.29063 0.42532
 C343 C -0.05285 0.29196 0.43945
 H344 H -0.05041 0.31123 0.45293
 C345 C -0.05811 0.24369 0.40337
 H346 H -0.06041 0.22552 0.38857
 C347 C -0.08305 0.25462 0.41847
 H348 H -0.10428 0.24459 0.41546
 N349 N -0.03147 0.25668 0.40620
 C350 C 0.05571 0.21775 0.38769
 H351 H 0.05391 0.21665 0.36395
 C352 C 0.08108 0.20687 0.40138
 H353 H 0.09888 0.19726 0.38816
 C354 C 0.03463 0.23167 0.43389
 H355 H 0.01640 0.24127 0.44639
 C356 C 0.05976 0.22099 0.44853
 H357 H 0.06090 0.22239 0.47233
 Zn358 Zn 0.00091 0.24463 0.38180
 N359 N 0.03330 0.23016 0.40394
 C360 C 0.04072 0.28803 0.36161
 N361 N 0.01276 0.27804 0.35897
 C362 C -0.00738 0.29291 0.34202
 C363 C 0.00047 0.31888 0.32677
 C364 C 0.04944 0.31376 0.34676
 C365 C -0.01616 0.18736 0.37212
 C366 C -0.02531 0.16303 0.35657
 C367 C -0.02200 0.19224 0.31139
 C368 C -0.01282 0.21613 0.32784
 N369 N -0.01057 0.21337 0.35771
 H370 H 0.05620 0.27654 0.37579
 H371 H -0.02965 0.28485 0.34080
 H372 H -0.01570 0.33079 0.31356
 H373 H 0.07167 0.32165 0.34928
 H374 H -0.01387 0.18574 0.39584
 H375 H -0.03022 0.14258 0.36834
 H376 H -0.02428 0.19465 0.28769
 H377 H -0.00778 0.23684 0.31678
 C378 C 0.08324 0.20864 0.43202
 C379 C -0.08049 0.27917 0.43638
 C380 C -0.02848 0.16553 0.32599
 C381 C 0.02915 0.32940 0.32931
 C382 C 1.02705 0.78584 0.08142
 H383 H 1.00576 0.79684 0.07918
 C384 C 1.05186 0.79709 0.06649
 H385 H 1.04967 0.81671 0.05256
 C386 C 1.05642 0.74787 0.10361
 H387 H 1.05840 0.72929 0.11879
 C388 C 1.08170 0.75835 0.08909
 H389 H 1.10290 0.74759 0.09293
 N390 N 1.02977 0.76174 0.09969
 C391 C 0.94203 0.72582 0.11548
 H392 H 0.94248 0.72486 0.13936
 C393 C 0.91782 0.71509 0.10084
 H394 H 0.89953 0.70582 0.11346
 C395 C 0.96563 0.73860 0.06987
 H396 H 0.98451 0.74745 0.05797
 C397 C 0.94174 0.72801 0.05427
 H398 H 0.94217 0.72881 0.03034
 Zn399 Zn 0.99671 0.75005 0.12312
 N400 N 0.96520 0.73746 0.09995
 C401 C 0.95646 0.79442 0.14238
 N402 N 0.98426 0.78300 0.14565
 C403 C 1.00401 0.79606 0.16328
 C404 C 0.99591 0.82153 0.17872
 C405 C 0.94748 0.81974 0.15739
 C406 C 1.01376 0.69187 0.13327
 C407 C 1.02249 0.66656 0.14905
 C408 C 1.01733 0.69395 0.19423
 C409 C 1.00861 0.71885 0.17754
 N410 N 1.00749 0.71744 0.14756
 H411 H 0.94132 0.78433 0.12766
 H412 H 1.02618 0.78690 0.16500
 H413 H 1.01177 0.83196 0.19254
 H414 H 0.92537 0.82878 0.15444
 H415 H 1.01236 0.69134 0.10946
 H416 H 1.02797 0.64645 0.13739
 H417 H 1.01874 0.69526 0.21802
 H418 H 1.00301 0.73925 0.18849
 C419 C 0.91763 0.71616 0.06999
 C420 C 1.07948 0.78337 0.07064
 C421 C 1.02452 0.66765 0.17976
 C422 C 0.96738 0.83348 0.17563
 C423 C 0.52705 0.28584 0.58142
 H424 H 0.50576 0.29684 0.57919
 C425 C 0.55186 0.29709 0.56649
 H426 H 0.54967 0.31671 0.55256
 C427 C 0.55642 0.24787 0.60361
 H428 H 0.55840 0.22929 0.61880
 C429 C 0.58170 0.25835 0.58909
 H430 H 0.60290 0.24758 0.59293
 N431 N 0.52978 0.26174 0.59969
 C432 C 0.44203 0.22582 0.61548
 H433 H 0.44248 0.22486 0.63936
 C434 C 0.41782 0.21509 0.60084
 H435 H 0.39953 0.20582 0.61346
 C436 C 0.46563 0.23860 0.56987
 H437 H 0.48451 0.24745 0.55797
 C438 C 0.44174 0.22801 0.55428
 H439 H 0.44217 0.22881 0.53034
 Zn440 Zn 0.49672 0.25005 0.62312
 N441 N 0.46520 0.23746 0.59995
 C442 C 0.45646 0.29442 0.64238
 N443 N 0.48427 0.28300 0.64565
 C444 C 0.50402 0.29606 0.66328
 C445 C 0.49591 0.32153 0.67872
 C446 C 0.44749 0.31974 0.65740
 C447 C 0.51376 0.19187 0.63327
 C448 C 0.52249 0.16656 0.64905
 C449 C 0.51733 0.19395 0.69423
 C450 C 0.50861 0.21885 0.67754
 N451 N 0.50749 0.21744 0.64756
 H452 H 0.44133 0.28433 0.62766
 H453 H 0.52618 0.28690 0.66500
 H454 H 0.51177 0.33196 0.69254
 H455 H 0.42538 0.32878 0.65444
 H456 H 0.51236 0.19134 0.60946
 H457 H 0.52797 0.14645 0.63739
 H458 H 0.51874 0.19526 0.71802
 H459 H 0.50301 0.23925 0.68850
 C460 C 0.41763 0.21616 0.56999
 C461 C 0.57949 0.28337 0.57064
 C462 C 0.52452 0.16765 0.67976
 C463 C 0.46738 0.33348 0.67563
 C464 C 0.47161 0.78029 0.92397
 H465 H 0.49286 0.79063 0.92533
 C466 C 0.44715 0.79197 0.93945
 H467 H 0.44959 0.81123 0.95294
 C468 C 0.44188 0.74369 0.90337
 H469 H 0.43959 0.72552 0.88858
 C470 C 0.41695 0.75462 0.91848
 H471 H 0.39571 0.74459 0.91546
 N472 N 0.46853 0.75669 0.90620
 C473 C 0.55570 0.71775 0.88770
 H474 H 0.55391 0.71665 0.86395
 C475 C 0.58107 0.70687 0.90138
 H476 H 0.59888 0.69726 0.88817
 C477 C 0.53463 0.73167 0.93389
 H478 H 0.51640 0.74127 0.94640
 C479 C 0.55976 0.72099 0.94853
 H480 H 0.56089 0.72239 0.97234
 Zn481 Zn 0.50091 0.74463 0.88180
 N482 N 0.53329 0.73016 0.90394
 C483 C 0.54072 0.78804 0.86162
 N484 N 0.51275 0.77804 0.85897
 C485 C 0.49262 0.79291 0.84203
 C486 C 0.50047 0.81888 0.82677
 C487 C 0.54944 0.81376 0.84676
 C488 C 0.48384 0.68736 0.87212
 C489 C 0.47468 0.66303 0.85658
 C490 C 0.47800 0.69224 0.81140
 C491 C 0.48717 0.71614 0.82784
 N492 N 0.48943 0.71337 0.85772
 H493 H 0.55619 0.77654 0.87579
 H494 H 0.47035 0.78485 0.84080
 H495 H 0.48430 0.83079 0.81357
 H496 H 0.57167 0.82165 0.84929
 H497 H 0.48613 0.68574 0.89584
 H498 H 0.46978 0.64258 0.86835
 H499 H 0.47572 0.69465 0.78769
 H500 H 0.49222 0.73684 0.81678
 C501 C 0.58323 0.70864 0.93202
 C502 C 0.41951 0.77918 0.93639
 C503 C 0.47152 0.66553 0.82600
 C504 C 0.52914 0.82940 0.82932
 C505 C 0.49495 -0.22501 0.35979
 C506 C 0.48757 -0.20337 0.34557
 C507 C 0.47848 -0.17747 0.33009
 C508 C 0.47015 -0.15512 0.31765
 C509 C 0.45955 -0.12887 0.30381
 C510 C 0.44959 -0.10661 0.29243
 C511 C 0.99495 0.27500 0.85979
 C512 C 0.98757 0.29664 0.84557
 C513 C 0.97848 0.32253 0.83009
 C514 C 0.97015 0.34488 0.81765
 C515 C 0.95955 0.37114 0.80381
 C516 C 0.94959 0.39339 0.79243
 C517 C 0.01282 1.22438 0.86043
 C518 C 0.02044 1.20283 0.84676
 C519 C 0.02961 1.17698 0.83192
 C520 C 0.03785 1.15460 0.82005
 C521 C 0.04820 1.12825 0.80686
 C522 C 0.05787 1.10586 0.79601
 C523 C 0.51282 0.72437 0.36043
 C524 C 0.52045 0.70283 0.34676
 C525 C 0.52961 0.67698 0.33192
 C526 C 0.53785 0.65460 0.32005
 C527 C 0.54821 0.62825 0.30686
 C528 C 0.55788 0.60585 0.29601
 C529 C 0.50740 0.28034 0.13676
 C530 C 0.51450 0.30102 0.15126
 C531 C 0.52364 0.32568 0.16707
 C532 C 0.53237 0.34695 0.17965
 C533 C 0.54387 0.37187 0.19334
 C534 C 0.55498 0.39296 0.20420
 C535 C 0.00740 0.78035 0.63675
 C536 C 0.01450 0.80102 0.65126
 C537 C 0.02364 0.82568 0.66707
 C538 C 0.03237 0.84695 0.67965
 C539 C 0.04387 0.87187 0.69334
 C540 C 0.05498 0.89296 0.70420
 C541 C 0.99100 0.73002 0.63574
 C542 C 0.98387 0.70796 0.64923
 C543 C 0.97508 0.68159 0.66374
 C544 C 0.96690 0.65884 0.67517
 C545 C 0.95626 0.63215 0.68759
 C546 C 0.94599 0.60960 0.69751
 C547 C 0.49100 0.23002 0.13574
 C548 C 0.48387 0.20796 0.14924
 C549 C 0.47508 0.18159 0.16374
 C550 C 0.46691 0.15883 0.17517
 C551 C 0.45627 0.13215 0.18760
 C552 C 0.44599 0.10959 0.19751
 C553 C 0.35979 0.49496 -0.22500
 C554 C 0.34557 0.48757 -0.20336
 C555 C 0.33009 0.47848 -0.17747
 C556 C 0.31765 0.47016 -0.15511
 C557 C 0.30381 0.45956 -0.12886
 C558 C 0.29243 0.44960 -0.10661
 C559 C 0.85979 0.99496 0.27500
 C560 C 0.84557 0.98758 0.29663
 C561 C 0.83008 0.97848 0.32253
 C562 C 0.81765 0.97016 0.34488
 C563 C 0.80381 0.95956 0.37114
 C564 C 0.79242 0.94960 0.39339
 C565 C 0.86043 0.01283 1.22438
 C566 C 0.84675 0.02045 1.20283
 C567 C 0.83192 0.02961 1.17698
 C568 C 0.82005 0.03786 1.15460
 C569 C 0.80686 0.04821 1.12825
 C570 C 0.79601 0.05788 1.10585
 C571 C 0.36043 0.51283 0.72438
 C572 C 0.34675 0.52045 0.70283
 C573 C 0.33192 0.52961 0.67698
 C574 C 0.32005 0.53785 0.65460
 C575 C 0.30686 0.54821 0.62825
 C576 C 0.29601 0.55788 0.60586
 C577 C 0.13675 0.50741 0.28035
 C578 C 0.15126 0.51450 0.30102
 C579 C 0.16707 0.52365 0.32569
 C580 C 0.17965 0.53238 0.34695
 C581 C 0.19334 0.54387 0.37188
 C582 C 0.20420 0.55498 0.39296
 C583 C 0.63675 0.00741 0.78035
 C584 C 0.65126 0.01450 0.80102
 C585 C 0.66707 0.02365 0.82568
 C586 C 0.67965 0.03238 0.84695
 C587 C 0.69334 0.04388 0.87187
 C588 C 0.70419 0.05498 0.89296
 C589 C 0.63574 0.99100 0.73002
 C590 C 0.64923 0.98388 0.70796
 C591 C 0.66374 0.97509 0.68159
 C592 C 0.67517 0.96691 0.65884
 C593 C 0.68759 0.95627 0.63216
 C594 C 0.69751 0.94599 0.60960
 C595 C 0.13574 0.49100 0.23002
 C596 C 0.14923 0.48388 0.20796
 C597 C 0.16374 0.47509 0.18159
 C598 C 0.17517 0.46691 0.15884
 C599 C 0.18759 0.45627 0.13216
 C600 C 0.19751 0.44599 0.10960
 C601 C -0.22501 0.35979 0.49495
 C602 C -0.20337 0.34557 0.48757
 C603 C -0.17747 0.33009 0.47848
 C604 C -0.15512 0.31765 0.47015
 C605 C -0.12887 0.30381 0.45956
 C606 C -0.10661 0.29243 0.44959
 C607 C 0.27499 0.85980 0.99495
 C608 C 0.29663 0.84558 0.98757
 C609 C 0.32252 0.83009 0.97848
 C610 C 0.34488 0.81766 0.97016
 C611 C 0.37113 0.80382 0.95956
 C612 C 0.39338 0.79243 0.94960
 C613 C 1.22437 0.86044 0.01282
 C614 C 1.20283 0.84676 0.02045
 C615 C 1.17697 0.83193 0.02961
 C616 C 1.15459 0.82005 0.03785
 C617 C 1.12824 0.80687 0.04821
 C618 C 1.10585 0.79602 0.05787
 C619 C 0.72437 0.36043 0.51282
 C620 C 0.70283 0.34675 0.52045
 C621 C 0.67697 0.33192 0.52961
 C622 C 0.65459 0.32005 0.53785
 C623 C 0.62824 0.30686 0.54821
 C624 C 0.60585 0.29601 0.55788
 C625 C 0.28034 0.13675 0.50741
 C626 C 0.30102 0.15126 0.51450
 C627 C 0.32568 0.16707 0.52365
 C628 C 0.34694 0.17965 0.53238
 C629 C 0.37187 0.19335 0.54387
 C630 C 0.39296 0.20420 0.55498
 C631 C 0.78034 0.63676 0.00740
 C632 C 0.80102 0.65126 0.01450
 C633 C 0.82568 0.66707 0.02365
 C634 C 0.84694 0.67965 0.03237
 C635 C 0.87187 0.69334 0.04387
 C636 C 0.89296 0.70420 0.05498
 C637 C 0.73001 0.63574 0.99100
 C638 C 0.70796 0.64924 0.98388
 C639 C 0.68159 0.66374 0.97509
 C640 C 0.65883 0.67517 0.96691
 C641 C 0.63215 0.68760 0.95627
 C642 C 0.60959 0.69751 0.94599
 C643 C 0.23002 0.13574 0.49100
 C644 C 0.20796 0.14924 0.48388
 C645 C 0.18159 0.16374 0.47508
 C646 C 0.15883 0.17517 0.46691
 C647 C 0.13215 0.18760 0.45627
 C648 C 0.10960 0.19751 0.44599
 C649 C 0.59919 0.02506 0.74783
 C650 C 0.58504 0.04664 0.74025
 C651 C 0.56980 0.07229 0.73025
 C652 C 0.55787 0.09435 0.72061
 C653 C 0.54512 0.12017 0.70794
 C654 C 0.53521 0.14202 0.69583
 C655 C 1.09919 0.52506 0.24783
 C656 C 1.08504 0.54664 0.24025
 C657 C 1.06980 0.57229 0.23025
 C658 C 1.05787 0.59435 0.22061
 C659 C 1.04512 0.62017 0.20794
 C660 C 1.03522 0.64203 0.19583
 C661 C 0.89715 0.97828 0.24090
 C662 C 0.91120 0.95684 0.23303
 C663 C 0.92615 0.93122 0.22292
 C664 C 0.93763 0.90901 0.21347
 C665 C 0.94954 0.88276 0.20139
 C666 C 0.95840 0.86027 0.19016
 C667 C 0.39715 0.47828 0.74091
 C668 C 0.41120 0.45684 0.73303
 C669 C 0.42615 0.43122 0.72292
 C670 C 0.43763 0.40901 0.71347
 C671 C 0.44954 0.38276 0.70139
 C672 C 0.45840 0.36027 0.69017
 C673 C 0.39678 0.52832 0.75805
 C674 C 0.41069 0.54913 0.76583
 C675 C 0.42574 0.57385 0.77598
 C676 C 0.43761 0.59509 0.78564
 C677 C 0.45042 0.61993 0.79824
 C678 C 0.46049 0.64093 0.81019
 C679 C -0.10322 0.02832 0.25805
 C680 C -0.08931 0.04913 0.26583
 C681 C -0.07426 0.07385 0.27597
 C682 C -0.06239 0.09509 0.28564
 C683 C -0.04958 0.11993 0.29823
 C684 C -0.03951 0.14093 0.31019
 C685 C 0.09951 0.47451 0.26535
 C686 C 0.08553 0.45334 0.27343
 C687 C 0.07050 0.42793 0.28345
 C688 C 0.05888 0.40577 0.29264
 C689 C 0.04682 0.37940 0.30429
 C690 C 0.03793 0.35666 0.31515
 C691 C 0.59951 0.97451 0.76535
 C692 C 0.58553 0.95334 0.77343
 C693 C 0.57050 0.92793 0.78345
 C694 C 0.55888 0.90577 0.79264
 C695 C 0.54682 0.87940 0.80429
 C696 C 0.53793 0.85666 0.81515
 C697 C 0.74782 0.59919 0.02506
 C698 C 0.74025 0.58504 0.04664
 C699 C 0.73025 0.56981 0.07229
 C700 C 0.72061 0.55787 0.09435
 C701 C 0.70794 0.54513 0.12017
 C702 C 0.69582 0.53522 0.14202
 C703 C 0.24782 1.09919 0.52506
 C704 C 0.24025 1.08504 0.54664
 C705 C 0.23025 1.06981 0.57229
 C706 C 0.22061 1.05788 0.59435
 C707 C 0.20793 1.04513 0.62017
 C708 C 0.19582 1.03522 0.64202
 C709 C 0.24090 0.89715 0.97828
 C710 C 0.23302 0.91121 0.95684
 C711 C 0.22291 0.92616 0.93122
 C712 C 0.21346 0.93763 0.90901
 C713 C 0.20138 0.94955 0.88276
 C714 C 0.19016 0.95841 0.86026
 C715 C 0.74090 0.39715 0.47828
 C716 C 0.73303 0.41120 0.45684
 C717 C 0.72292 0.42615 0.43122
 C718 C 0.71347 0.43763 0.40901
 C719 C 0.70139 0.44954 0.38276
 C720 C 0.69017 0.45840 0.36026
 C721 C 0.75805 0.39678 0.52832
 C722 C 0.76583 0.41069 0.54913
 C723 C 0.77597 0.42574 0.57385
 C724 C 0.78564 0.43761 0.59509
 C725 C 0.79823 0.45042 0.61993
 C726 C 0.81019 0.46049 0.64093
 C727 C 0.25805 -0.10321 0.02832
 C728 C 0.26583 -0.08930 0.04913
 C729 C 0.27597 -0.07425 0.07385
 C730 C 0.28563 -0.06238 0.09509
 C731 C 0.29823 -0.04958 0.11993
 C732 C 0.31019 -0.03951 0.14093
 C733 C 0.26534 0.09952 0.47451
 C734 C 0.27343 0.08553 0.45334
 C735 C 0.28345 0.07050 0.42793
 C736 C 0.29264 0.05889 0.40577
 C737 C 0.30429 0.04682 0.37940
 C738 C 0.31514 0.03794 0.35665
 C739 C 0.76534 0.59952 0.97451
 C740 C 0.77343 0.58554 0.95334
 C741 C 0.78344 0.57050 0.92792
 C742 C 0.79263 0.55889 0.90577
 C743 C 0.80429 0.54683 0.87940
 C744 C 0.81514 0.53794 0.85665
 C745 C 0.02506 0.74782 0.59919
 C746 C 0.04664 0.74025 0.58504
 C747 C 0.07228 0.73025 0.56980
 C748 C 0.09435 0.72061 0.55787
 C749 C 0.12017 0.70794 0.54513
 C750 C 0.14202 0.69583 0.53522
 C751 C 0.52506 0.24782 1.09919
 C752 C 0.54664 0.24025 1.08504
 C753 C 0.57228 0.23025 1.06981
 C754 C 0.59435 0.22061 1.05788
 C755 C 0.62017 0.20794 1.04513
 C756 C 0.64202 0.19583 1.03522
 C757 C 0.97828 0.24091 0.89715
 C758 C 0.95684 0.23303 0.91120
 C759 C 0.93122 0.22292 0.92615
 C760 C 0.90901 0.21347 0.93763
 C761 C 0.88276 0.20139 0.94955
 C762 C 0.86026 0.19017 0.95840
 C763 C 0.47828 0.74090 0.39715
 C764 C 0.45684 0.73302 0.41120
 C765 C 0.43122 0.72292 0.42615
 C766 C 0.40901 0.71346 0.43763
 C767 C 0.38276 0.70139 0.44955
 C768 C 0.36026 0.69016 0.45840
 C769 C 0.52831 0.75805 0.39678
 C770 C 0.54913 0.76583 0.41069
 C771 C 0.57384 0.77597 0.42574
 C772 C 0.59508 0.78564 0.43761
 C773 C 0.61992 0.79824 0.45042
 C774 C 0.64092 0.81019 0.46049
 C775 C 0.02831 0.25805 -0.10321
 C776 C 0.04913 0.26583 -0.08930
 C777 C 0.07384 0.27598 -0.07426
 C778 C 0.09508 0.28564 -0.06239
 C779 C 0.11992 0.29824 -0.04958
 C780 C 0.14092 0.31019 -0.03951
 C781 C 0.47451 0.26535 0.09952
 C782 C 0.45334 0.27343 0.08554
 C783 C 0.42792 0.28345 0.07050
 C784 C 0.40576 0.29264 0.05889
 C785 C 0.37940 0.30429 0.04683
 C786 C 0.35665 0.31515 0.03794
 C787 C 0.97451 0.76535 0.59951
 C788 C 0.95334 0.77343 0.58553
 C789 C 0.92792 0.78345 0.57050
 C790 C 0.90576 0.79264 0.55888
 C791 C 0.87940 0.80429 0.54682
 C792 C 0.85665 0.81515 0.53794
   
