data_POSCAR
  _audit_creation_date              2014-09-24
  _audit_creation_method            'ToBaCCo'
  _symmetry_space_group_name_H-M    'P1'
  _symmetry_Int_Tables_number       1
  _symmetry_cell_setting            triclinic
  loop_
  _symmetry_equiv_pos_as_xyz
 x,y,z
_cell_length_a 36.2436
_cell_length_b 36.2575
_cell_length_c 36.2271
_cell_angle_alpha 90.194400
_cell_angle_beta 90.223800
_cell_angle_gamma 89.803400
loop_
  _atom_site_label
  _atom_site_type_symbol
  _atom_site_fract_x
  _atom_site_fract_y
  _atom_site_fract_z
N1 N 0.15482 0.15660 0.15482
 N2 N -0.15273 0.84556 0.15591
 N3 N -0.15841 0.15340 -0.15493
 N4 N 0.15454 0.84370 -0.15443
 N5 N 0.15701 1.15557 0.84648
 N6 N 0.84368 0.84548 0.84151
 N7 N 0.15520 0.84202 1.15633
 N8 N 0.84403 1.15687 1.15591
 O9 O 0.44746 0.92946 0.93868
 O10 O 0.40733 0.96509 0.97253
 C11 C 0.41454 0.93946 0.94868
 O12 O 0.55185 0.93312 1.07053
 O13 O 0.59153 0.96639 1.03451
 C14 C 0.58463 0.94284 1.06027
 O15 O 0.44819 0.92990 1.06716
 O16 O 0.40768 0.96528 1.03347
 C17 C 0.41514 0.93980 1.05727
 O18 O 0.55143 0.93317 0.93497
 O19 O 0.59167 0.96708 0.97046
 C20 C 0.58439 0.94323 0.94485
 Zr21 Zr 0.49944 0.95044 0.95604
 O22 O 0.50397 0.89221 0.95636
 O23 O 0.49490 0.95030 0.89776
 Zr24 Zr 0.49997 0.95079 1.04955
 O25 O 0.50438 0.89255 1.04920
 O26 O 0.49616 0.95133 1.10785
 O27 O 0.46691 0.94337 1.00288
 O28 O 0.53176 0.94403 1.00270
 O29 O 0.55062 1.06136 0.93506
 O30 O 0.59129 1.02797 0.97059
 C31 C 0.58369 1.05162 0.94500
 O32 O 0.44760 1.06512 1.06703
 O33 O 0.40739 1.02926 1.03350
 C34 C 0.41465 1.05501 1.05720
 O35 O 0.55162 1.06199 1.07011
 O36 O 0.59174 1.02811 1.03453
 C37 C 0.58456 1.05209 1.06004
 O38 O 0.44672 1.06459 0.93870
 O39 O 0.40696 1.02909 0.97256
 C40 C 0.41390 1.05460 0.94873
 Zr41 Zr 0.49887 1.04379 0.95599
 O42 O 0.50267 1.10204 0.95586
 O43 O 0.49430 1.04310 0.89771
 Zr44 Zr 0.49957 1.04420 1.04956
 O45 O 0.50337 1.10245 1.04966
 O46 O 0.49580 1.04385 1.10787
 Zr47 Zr 0.44479 0.99723 1.00293
 Zr48 Zr 0.55424 0.99749 1.00263
 O49 O 0.53114 1.05081 1.00267
 O50 O 0.46639 1.05114 1.00287
 O51 O 0.53197 0.99718 0.94875
 O52 O 0.46781 0.99747 1.05635
 O53 O 0.46710 0.99702 0.94940
 O54 O 0.53272 0.99758 1.05663
 H55 H 0.54860 0.92244 1.00259
 H56 H 0.45113 0.99753 1.07795
 H57 H 0.54775 1.07246 1.00260
 H58 H 0.45016 0.99694 0.92786
 H59 H 0.51672 0.96653 1.11740
 H60 H 0.51709 1.02961 1.11742
 H61 H 0.48290 1.11200 1.03426
 H62 H 0.48233 1.11171 0.97127
 H63 H 0.51531 1.02857 0.88804
 H64 H 0.51526 0.96551 0.88806
 H65 H 0.48330 0.88259 0.97121
 H66 H 0.48358 0.88287 1.03434
 O67 O 0.06151 0.55088 -0.07113
 O68 O 0.02787 0.59131 -0.03564
 C69 C 0.05166 0.58388 -0.06113
 O70 O -0.07063 0.44763 -0.06774
 O71 O -0.03493 0.40750 -0.03396
 C72 C -0.06063 0.41471 -0.05774
 O73 O -0.06702 0.55156 -0.07135
 O74 O -0.03310 0.59165 -0.03574
 C75 C -0.05700 0.58447 -0.06135
 O76 O 0.06478 0.44695 -0.06755
 O77 O 0.02914 0.40715 -0.03387
 C78 C 0.05477 0.41412 -0.05757
 Zr79 Zr 0.04389 0.49910 -0.05033
 O80 O 0.04320 0.49465 -0.10862
 O81 O 0.10216 0.50296 -0.05036
 Zr82 Zr -0.04957 0.49958 -0.05041
 O83 O -0.04942 0.49513 -0.10869
 O84 O -0.10782 0.50404 -0.05036
 O85 O -0.00280 0.53214 -0.05757
 O86 O -0.00290 0.46730 -0.05703
 O87 O 0.06496 0.44760 0.06084
 O88 O 0.02926 0.40747 0.02708
 C89 C 0.05488 0.41469 0.05094
 O90 O -0.06649 0.55212 0.06403
 O91 O -0.03288 0.59192 0.02833
 C92 C -0.05653 0.58494 0.05400
 O93 O -0.07009 0.44822 0.06077
 O94 O -0.03474 0.40777 0.02701
 C95 C -0.06016 0.41520 0.05089
 O96 O 0.06178 0.55147 0.06407
 O97 O 0.02802 0.59163 0.02840
 C98 C 0.05188 0.58440 0.05403
 Zr99 Zr 0.04418 0.49954 0.04321
 O100 O 0.04420 0.49566 0.10151
 O101 O 0.10246 0.50340 0.04296
 Zr102 Zr -0.04932 0.49999 0.04311
 O103 O -0.04923 0.49612 0.10140
 O104 O -0.10758 0.50446 0.04253
 Zr105 Zr -0.00261 0.55421 -0.00364
 Zr106 Zr -0.00277 0.44489 -0.00352
 O107 O -0.00259 0.46784 0.04991
 O108 O -0.00249 0.53259 0.05032
 O109 O 0.05118 0.46648 -0.00350
 O110 O -0.05609 0.53181 -0.00368
 O111 O 0.05080 0.53125 -0.00358
 O112 O -0.05667 0.46700 -0.00361
 H113 H -0.00298 0.45037 -0.07855
 H114 H -0.07762 0.54873 -0.00371
 H115 H -0.00255 0.45118 0.07154
 H116 H 0.07241 0.54791 -0.00355
 H117 H -0.11744 0.48368 -0.03509
 H118 H -0.11726 0.48340 0.02806
 H119 H -0.03375 0.51641 0.11105
 H120 H 0.02925 0.51641 0.11111
 H121 H 0.11201 0.48246 0.02823
 H122 H 0.11182 0.48270 -0.03483
 H123 H 0.02866 0.51567 -0.11826
 H124 H -0.03451 0.51574 -0.11832
 O125 O 1.07095 -0.06085 0.55274
 O126 O 1.03523 -0.02704 0.59280
 C127 C 1.06079 -0.05096 0.58566
 O128 O 1.06764 0.07122 0.44931
 O129 O 1.03412 0.03566 0.40879
 C130 C 1.05781 0.06123 0.41625
 O131 O 1.07079 0.06766 0.55337
 O132 O 1.03513 0.03393 0.59311
 C133 C 1.06070 0.05770 0.58621
 O134 O 1.06785 -0.06411 0.44872
 O135 O 1.03424 -0.02837 0.40847
 C136 C 1.05798 -0.05408 0.41574
 Zr137 Zr 1.05036 -0.04312 0.50069
 O138 O 1.10864 -0.04257 0.49691
 O139 O 1.05065 -0.10137 0.50457
 Zr140 Zr 1.05011 0.05031 0.50112
 O141 O 1.10838 0.05003 0.49736
 O142 O 1.04972 0.10854 0.50554
 O143 O 1.05730 0.00354 0.53382
 O144 O 1.05702 0.00361 0.46892
 O145 O 0.93960 -0.06385 0.44788
 O146 O 0.97335 -0.02827 0.40808
 C147 C 0.94959 -0.05383 0.41505
 O148 O 0.93540 0.06761 0.55237
 O149 O 0.97107 0.03394 0.59265
 C150 C 0.94532 0.05763 0.58534
 O151 O 0.93912 0.07120 0.44842
 O152 O 0.97316 0.03571 0.40835
 C153 C 0.94917 0.06121 0.41550
 O154 O 0.93589 -0.06058 0.55180
 O155 O 0.97123 -0.02693 0.59238
 C156 C 0.94575 -0.05071 0.58487
 Zr157 Zr 0.95686 -0.04306 0.50005
 O158 O 0.89860 -0.04276 0.49548
 O159 O 0.95719 -0.10131 0.50396
 Zr160 Zr 0.95664 0.05041 0.50045
 O161 O 0.89839 0.05061 0.49590
 O162 O 0.95706 0.10864 0.50492
 Zr163 Zr 1.00330 0.00355 0.55528
 Zr164 Zr 1.00364 0.00366 0.44588
 O165 O 0.95013 0.00370 0.46822
 O166 O 0.94946 0.00364 0.53303
 O167 O 1.00372 -0.05025 0.46752
 O168 O 1.00325 0.05701 0.53284
 O169 O 1.00352 -0.04984 0.53232
 O170 O 1.00345 0.05755 0.46796
 H171 H 1.07861 0.00358 0.45223
 H172 H 1.00312 0.07852 0.54978
 H173 H 0.92859 0.00372 0.45130
 H174 H 1.00350 -0.07144 0.54899
 H175 H 1.03468 0.11818 0.48487
 H176 H 0.97152 0.11825 0.48396
 H177 H 0.88871 0.03502 0.51598
 H178 H 0.88886 -0.02795 0.51627
 H179 H 0.97218 -0.11094 0.48328
 H180 H 1.03518 -0.11098 0.48418
 H181 H 1.11813 -0.02822 0.51817
 H182 H 1.11797 0.03492 0.51798
 C183 C 1.12357 0.12748 0.25803
 C184 C 1.13020 0.08625 0.26493
 C185 C 1.11812 0.07461 0.29843
 C186 C 1.10058 0.10531 0.32185
 C187 C 1.06995 0.12158 0.29741
 C188 C 1.08203 0.13323 0.26389
 C189 C 1.14217 0.14724 0.29072
 C190 C 1.13006 0.13555 0.32435
 C191 C 1.13606 0.13936 0.22152
 C192 C 1.14521 0.14784 0.19073
 C193 C 1.08697 0.09192 0.35741
 C194 C 1.07441 0.07899 0.38523
 H195 H 1.14330 0.06781 0.24523
 H196 H 1.12088 0.04618 0.30741
 H197 H 1.04128 0.12384 0.30573
 H198 H 1.06370 0.14547 0.24352
 H199 H 1.16296 0.16849 0.28771
 H200 H 1.14045 0.14678 0.35016
 C201 C 0.88142 -0.12243 0.25777
 C202 C 0.87544 -0.08094 0.26387
 C203 C 0.88828 -0.06855 0.29700
 C204 C 0.90587 -0.09884 0.32084
 C205 C 0.93585 -0.11616 0.29643
 C206 C 0.92300 -0.12856 0.26329
 C207 C 0.86318 -0.14105 0.29103
 C208 C 0.87606 -0.12863 0.32426
 C209 C 0.86803 -0.13519 0.22171
 C210 C 0.85798 -0.14456 0.19134
 C211 C 0.92017 -0.08479 0.35604
 C212 C 0.93302 -0.07158 0.38378
 H213 H 0.86221 -0.06287 0.24394
 H214 H 0.88607 -0.03986 0.30542
 H215 H 0.96464 -0.11855 0.30450
 H216 H 0.94078 -0.14157 0.24297
 H217 H 0.84207 -0.16211 0.28869
 H218 H 0.86600 -0.13902 0.35041
 C219 C 0.87447 0.12222 0.74273
 C220 C 0.86979 0.08061 0.73644
 C221 C 0.88262 0.06872 0.70319
 C222 C 0.89888 0.09959 0.67942
 C223 C 0.92856 0.11759 0.70379
 C224 C 0.91573 0.12948 0.73703
 C225 C 0.85519 0.14051 0.70964
 C226 C 0.86805 0.12859 0.67628
 C227 C 0.86127 0.13455 0.77894
 C228 C 0.85166 0.14370 0.80946
 C229 C 0.91343 0.08622 0.64412
 C230 C 0.92708 0.07390 0.61641
 H231 H 0.85741 0.06211 0.75635
 H232 H 0.88124 0.04003 0.69461
 H233 H 0.95717 0.12077 0.69561
 H234 H 0.93335 0.14285 0.75732
 H235 H 0.83339 0.16097 0.71219
 H236 H 0.85730 0.13881 0.65023
 C237 C 1.12557 -0.12125 0.74327
 C238 C 1.08437 -0.12728 0.73561
 C239 C 1.07297 -0.11402 0.70235
 C240 C 1.10388 -0.09601 0.67994
 C241 C 1.13409 -0.12565 0.67693
 C242 C 1.14553 -0.13896 0.71030
 C243 C 1.13146 -0.07960 0.73883
 C244 C 1.12005 -0.06633 0.70556
 C245 C 1.13725 -0.13506 0.77948
 C246 C 1.14569 -0.14536 0.80998
 C247 C 1.09081 -0.08124 0.64461
 C248 C 1.07817 -0.06799 0.61684
 H249 H 1.06576 -0.14083 0.75462
 H250 H 1.04459 -0.11621 0.69290
 H251 H 1.14549 -0.13531 0.65095
 H252 H 1.16672 -0.16002 0.71293
 H253 H 1.14358 -0.06206 0.75995
 H254 H 1.12241 -0.03743 0.69819
 C255 C 0.25717 1.12417 1.12332
 C256 C 0.26334 1.08279 1.12969
 C257 C 0.29660 1.07032 1.11748
 C258 C 0.32051 1.10044 1.10009
 C259 C 0.32358 1.13064 1.12976
 C260 C 0.29020 1.14314 1.14201
 C261 C 0.26306 1.12976 1.08179
 C262 C 0.29633 1.11729 1.06958
 C263 C 0.22095 1.13703 1.13594
 C264 C 0.19043 1.14652 1.14517
 C265 C 0.35583 1.08629 1.08636
 C266 C 0.38356 1.07296 1.07376
 H267 H 0.24335 1.06484 1.14271
 H268 H 0.30509 1.04168 1.12004
 H269 H 0.34959 1.14124 1.14020
 H270 H 0.28761 1.16446 1.16295
 H271 H 0.24289 1.14247 1.06356
 H272 H 0.30465 1.11932 1.04089
 C273 C 0.25691 0.87298 0.88012
 C274 C 0.28989 0.85359 0.86180
 C275 C 0.32329 0.86536 0.87473
 C276 C 0.32029 0.89530 0.90466
 C277 C 0.29565 0.87860 0.93459
 C278 C 0.26235 0.86686 0.92169
 C279 C 0.26361 0.91430 0.87429
 C280 C 0.29689 0.92603 0.88718
 C281 C 0.22067 0.86101 0.86666
 C282 C 0.19014 0.85248 0.85649
 C283 C 0.35564 0.90876 0.91903
 C284 C 0.38340 0.92172 0.93196
 H285 H 0.28724 0.83252 0.84060
 H286 H 0.34927 0.85438 0.86463
 H287 H 0.30369 0.87613 0.96339
 H288 H 0.24186 0.85433 0.93944
 H289 H 0.24395 0.93275 0.86113
 H290 H 0.30571 0.95454 0.88506
 C291 C 0.74384 0.87708 1.12640
 C292 C 0.73675 0.87048 1.08513
 C293 C 0.70311 0.88259 1.07344
 C294 C 0.67977 0.90012 1.10415
 C295 C 0.70409 0.93071 1.12049
 C296 C 0.73774 0.91860 1.13218
 C297 C 0.71141 0.85849 1.14612
 C298 C 0.67765 0.87064 1.13439
 C299 C 0.78048 0.86454 1.13837
 C300 C 0.81131 0.85530 1.14697
 C301 C 0.64404 0.91374 1.09075
 C302 C 0.61600 0.92629 1.07787
 H303 H 0.75641 0.85739 1.06669
 H304 H 0.69398 0.87986 1.04497
 H305 H 0.69559 0.95938 1.12275
 H306 H 0.75806 0.93690 1.14446
 H307 H 0.71468 0.83769 1.16738
 H308 H 0.65198 0.86025 1.14559
 C309 C 0.73990 1.11981 0.87650
 C310 C 0.73391 1.12584 0.91799
 C311 C 0.70091 1.11308 0.93028
 C312 C 0.67707 1.09552 0.89989
 C313 C 0.70156 1.06549 0.88268
 C314 C 0.73457 1.07826 0.87038
 C315 C 0.70649 1.13809 0.85771
 C316 C 0.67338 1.12529 0.87004
 C317 C 0.77584 1.13308 0.86387
 C318 C 0.80617 1.14294 0.85469
 C319 C 0.64204 1.08126 0.91388
 C320 C 0.61454 1.06836 0.92712
 H321 H 0.75383 1.13904 0.93614
 H322 H 0.69258 1.11534 0.95896
 H323 H 0.69364 1.03672 0.88028
 H324 H 0.75493 1.06042 0.85745
 H325 H 0.70864 1.15918 0.83663
 H326 H 0.64715 1.13539 0.85953
 C327 C 0.12295 0.25814 0.12036
 C328 C 0.08147 0.26447 0.12599
 C329 C 0.06921 0.29747 0.11290
 C330 C 0.09963 0.32097 0.09546
 C331 C 0.11688 0.29618 0.06571
 C332 C 0.12914 0.26317 0.07879
 C333 C 0.14170 0.29150 0.13863
 C334 C 0.12941 0.32461 0.12551
 C335 C 0.13559 0.22222 0.13397
 C336 C 0.14491 0.19194 0.14409
 C337 C 0.08571 0.35603 0.08089
 C338 C 0.07258 0.38362 0.06780
 H339 H 0.06330 0.24477 0.13915
 H340 H 0.04054 0.30602 0.11486
 H341 H 0.11932 0.30391 0.03689
 H342 H 0.14208 0.24262 0.06118
 H343 H 0.16273 0.28932 0.15993
 H344 H 0.13990 0.35081 0.13556
 C345 C -0.12836 0.25642 -0.12322
 C346 C -0.08716 0.26300 -0.13003
 C347 C -0.07515 0.29647 -0.11796
 C348 C -0.10551 0.32017 -0.10026
 C349 C -0.12159 0.29604 -0.06956
 C350 C -0.13360 0.26255 -0.08163
 C351 C -0.14814 0.28908 -0.14171
 C352 C -0.13610 0.32268 -0.12961
 C353 C -0.14062 0.21995 -0.13575
 C354 C -0.14938 0.18923 -0.14505
 C355 C -0.09176 0.35571 -0.08669
 C356 C -0.07858 0.38357 -0.07421
 H357 H -0.06898 0.24312 -0.14323
 H358 H -0.04669 0.30525 -0.12083
 H359 H -0.12346 0.30455 -0.04086
 H360 H -0.14576 0.24239 -0.06327
 H361 H -0.16966 0.28609 -0.16242
 H362 H -0.14728 0.34848 -0.13994
 C363 C 0.12049 0.74124 -0.12610
 C364 C 0.07895 0.73614 -0.13263
 C365 C 0.06605 0.70285 -0.12125
 C366 C 0.09595 0.67788 -0.10446
 C367 C 0.11337 0.70092 -0.07338
 C368 C 0.12626 0.73418 -0.08475
 C369 C 0.13884 0.70830 -0.14560
 C370 C 0.12591 0.67491 -0.13419
 C371 C 0.13391 0.77749 -0.13769
 C372 C 0.14391 0.80804 -0.14594
 C373 C 0.08154 0.64256 -0.09137
 C374 C 0.06853 0.61486 -0.07866
 H375 H 0.06122 0.75684 -0.14516
 H376 H 0.03727 0.69504 -0.12404
 H377 H 0.11545 0.69186 -0.04490
 H378 H 0.13939 0.75360 -0.06602
 H379 H 0.16006 0.71096 -0.16648
 H380 H 0.13603 0.64895 -0.14529
 C381 C -0.12149 0.74299 0.12349
 C382 C -0.12828 0.73695 0.08208
 C383 C -0.11629 0.70359 0.06953
 C384 C -0.09868 0.67948 0.09960
 C385 C -0.12805 0.67667 0.12989
 C386 C -0.14007 0.71014 0.14248
 C387 C -0.07994 0.73668 0.12897
 C388 C -0.06795 0.70332 0.11641
 C389 C -0.13391 0.77931 0.13643
 C390 C -0.14307 0.80989 0.14591
 C391 C -0.08520 0.64405 0.08535
 C392 C -0.07283 0.61620 0.07197
 H393 H -0.14142 0.75709 0.06418
 H394 H -0.11915 0.69518 0.04086
 H395 H -0.13845 0.65076 0.14050
 H396 H -0.16078 0.71291 0.16388
 H397 H -0.06154 0.75665 0.14167
 H398 H -0.03928 0.69471 0.11835
 C399 C 1.12759 0.12413 0.74508
 C400 C 1.13135 0.08224 0.74000
 C401 C 1.11945 0.06992 0.70648
 C402 C 1.10495 0.10068 0.68123
 C403 C 1.13665 0.12856 0.67882
 C404 C 1.14858 0.14091 0.71246
 C405 C 1.08679 0.13258 0.73730
 C406 C 1.07490 0.12027 0.70379
 C407 C 1.13976 0.13688 0.78162
 C408 C 1.14847 0.14625 0.81246
 C409 C 1.09134 0.08686 0.64560
 C410 C 1.07836 0.07424 0.61761
 H411 H 1.14246 0.06384 0.76090
 H412 H 1.12038 0.04099 0.69868
 H413 H 1.14866 0.13776 0.65305
 H414 H 1.17081 0.16069 0.71550
 H415 H 1.06880 0.14705 0.75643
 H416 H 1.04672 0.12419 0.69424
 C417 C 0.87617 -0.11992 0.74039
 C418 C 0.91767 -0.12604 0.73469
 C419 C 0.93030 -0.11297 0.70192
 C420 C 0.90020 -0.09502 0.67799
 C421 C 0.88290 -0.06520 0.70268
 C422 C 0.87027 -0.07828 0.73546
 C423 C 0.85761 -0.13775 0.70660
 C424 C 0.87028 -0.12464 0.67373
 C425 C 0.86315 -0.13355 0.77611
 C426 C 0.85364 -0.14373 0.80626
 C427 C 0.91451 -0.08047 0.64317
 C428 C 0.92787 -0.06745 0.61575
 H429 H 0.93558 -0.13953 0.75463
 H430 H 0.95903 -0.11525 0.69382
 H431 H 0.88070 -0.03633 0.69506
 H432 H 0.85724 -0.06061 0.75590
 H433 H 0.83644 -0.15877 0.70834
 H434 H 0.85996 -0.13441 0.64730
 C435 C 1.12375 -0.12480 0.25857
 C436 C 1.14221 -0.14363 0.29182
 C437 C 1.13003 -0.13072 0.32508
 C438 C 1.10063 -0.10030 0.32172
 C439 C 1.07003 -0.11710 0.29762
 C440 C 1.08218 -0.12997 0.26446
 C441 C 1.13045 -0.08341 0.26440
 C442 C 1.11830 -0.07055 0.29755
 C443 C 1.13633 -0.13807 0.22243
 C444 C 1.14555 -0.14778 0.19194
 C445 C 1.08697 -0.08574 0.35695
 C446 C 1.07445 -0.07217 0.38463
 H447 H 1.16296 -0.16515 0.28944
 H448 H 1.14034 -0.14118 0.35121
 H449 H 1.04133 -0.11880 0.30592
 H450 H 1.06388 -0.14270 0.24436
 H451 H 1.14365 -0.06575 0.24426
 H452 H 1.12109 -0.04186 0.30579
 C453 C 0.87920 0.12744 0.25813
 C454 C 0.86107 0.14664 0.29133
 C455 C 0.87434 0.13486 0.32461
 C456 C 0.90439 0.10509 0.32131
 C457 C 0.93400 0.12202 0.29644
 C458 C 0.92077 0.13376 0.26325
 C459 C 0.87366 0.08606 0.26480
 C460 C 0.88689 0.07432 0.29797
 C461 C 0.86539 0.13944 0.22198
 C462 C 0.85504 0.14802 0.19150
 C463 C 0.91912 0.09165 0.35658
 C464 C 0.93227 0.07878 0.38431
 H465 H 0.83974 0.16760 0.28891
 H466 H 0.86440 0.14573 0.35071
 H467 H 0.96284 0.12462 0.30424
 H468 H 0.93826 0.14643 0.24264
 H469 H 0.86044 0.06758 0.24520
 H470 H 0.88501 0.04578 0.30675
 C471 C 0.12490 0.25628 -0.12280
 C472 C 0.13000 0.26241 -0.08116
 C473 C 0.11727 0.29569 -0.06910
 C474 C 0.10066 0.31965 -0.09985
 C475 C 0.07082 0.29554 -0.11785
 C476 C 0.08355 0.26227 -0.12991
 C477 C 0.14396 0.28928 -0.14106
 C478 C 0.13119 0.32266 -0.12897
 C479 C 0.13801 0.22001 -0.13528
 C480 C 0.14755 0.18938 -0.14443
 C481 C 0.08623 0.35502 -0.08630
 C482 C 0.07276 0.38283 -0.07389
 H483 H 0.14259 0.24238 -0.06274
 H484 H 0.11895 0.30415 -0.04036
 H485 H 0.04217 0.30391 -0.12092
 H486 H 0.06581 0.24216 -0.14330
 H487 H 0.16553 0.28666 -0.16161
 H488 H 0.14182 0.34865 -0.13916
 C489 C -0.12640 0.25870 0.12090
 C490 C -0.14544 0.29205 0.13899
 C491 C -0.13365 0.32518 0.12573
 C492 C -0.10402 0.32158 0.09572
 C493 C -0.12117 0.29655 0.06607
 C494 C -0.13293 0.26352 0.07930
 C495 C -0.08496 0.26531 0.12653
 C496 C -0.07321 0.29832 0.11331
 C497 C -0.13843 0.22271 0.13468
 C498 C -0.14706 0.19235 0.14498
 C499 C -0.09057 0.35667 0.08100
 C500 C -0.07771 0.38424 0.06783
 H501 H -0.16631 0.28985 0.16027
 H502 H -0.14441 0.35136 0.13564
 H503 H -0.12390 0.30413 0.03721
 H504 H -0.14574 0.24282 0.06176
 H505 H -0.06646 0.24578 0.13980
 H506 H -0.04463 0.30704 0.11525
 C507 C -0.12394 0.74256 -0.12856
 C508 C -0.08239 0.73668 -0.13423
 C509 C -0.06996 0.70329 -0.12230
 C510 C -0.10029 0.67897 -0.10585
 C511 C -0.12994 0.67624 -0.13614
 C512 C -0.14240 0.70974 -0.14810
 C513 C -0.13025 0.73597 -0.08725
 C514 C -0.11783 0.70259 -0.07533
 C515 C -0.13683 0.77896 -0.14076
 C516 C -0.14633 0.80965 -0.14949
 C517 C -0.08635 0.64349 -0.09220
 C518 C -0.07364 0.61565 -0.07915
 H519 H -0.06430 0.75696 -0.14661
 H520 H -0.04124 0.69497 -0.12446
 H521 H -0.14021 0.65035 -0.14719
 H522 H -0.16335 0.71256 -0.16941
 H523 H -0.14339 0.75578 -0.06895
 H524 H -0.12033 0.69384 -0.04681
 C525 C 0.12091 0.74060 0.12370
 C526 C 0.12676 0.73466 0.08217
 C527 C 0.11376 0.70177 0.06951
 C528 C 0.09614 0.67797 0.09960
 C529 C 0.06631 0.70260 0.11693
 C530 C 0.07932 0.73550 0.12959
 C531 C 0.13905 0.70705 0.14223
 C532 C 0.12601 0.67406 0.12954
 C533 C 0.13445 0.77644 0.13675
 C534 C 0.14453 0.80668 0.14630
 C535 C 0.08165 0.64301 0.08527
 C536 C 0.06865 0.61546 0.07190
 H537 H 0.14002 0.75453 0.06426
 H538 H 0.11587 0.69350 0.04076
 H539 H 0.03749 0.69486 0.11912
 H540 H 0.06164 0.75592 0.14264
 H541 H 0.16022 0.70903 0.16342
 H542 H 0.13599 0.64776 0.13984
 C543 C 0.25694 1.12384 0.88015
 C544 C 0.26234 1.12984 0.92179
 C545 C 0.29537 1.11726 0.93474
 C546 C 0.31982 1.09991 0.90480
 C547 C 0.32346 1.12976 0.87507
 C548 C 0.29034 1.14237 0.86209
 C549 C 0.26290 1.08234 0.87409
 C550 C 0.29591 1.06977 0.88704
 C551 C 0.22096 1.13679 0.86666
 C552 C 0.19058 1.14621 0.85660
 C553 C 0.35493 1.08566 0.91922
 C554 C 0.38262 1.07237 0.93212
 H555 H 0.24203 1.14289 0.93954
 H556 H 0.30333 1.11953 0.96358
 H557 H 0.34968 1.14007 0.86513
 H558 H 0.28818 1.16348 0.84101
 H559 H 0.24295 1.06439 0.86074
 H560 H 0.30421 1.04105 0.88478
 C561 C 0.25779 0.87230 1.12412
 C562 C 0.29085 0.85300 1.14253
 C563 C 0.32422 0.86505 1.13011
 C564 C 0.32114 0.89518 1.10055
 C565 C 0.29749 0.92565 1.11819
 C566 C 0.26424 0.91363 1.13057
 C567 C 0.26340 0.86650 1.08253
 C568 C 0.29667 0.87852 1.07014
 C569 C 0.22153 0.85999 1.13696
 C570 C 0.19093 0.85115 1.14641
 C571 C 0.35646 0.90892 1.08664
 C572 C 0.38415 0.92201 1.07394
 H573 H 0.28827 0.83177 1.16341
 H574 H 0.35023 0.85417 1.14035
 H575 H 0.30613 0.95419 1.12079
 H576 H 0.24443 0.93187 1.14377
 H577 H 0.24305 0.85396 1.06439
 H578 H 0.30479 0.87629 1.04140
 C579 C 0.74183 1.12209 1.12623
 C580 C 0.70867 1.14022 1.14548
 C581 C 0.67540 1.12700 1.13369
 C582 C 0.67867 1.09699 1.10385
 C583 C 0.70385 1.06735 1.12074
 C584 C 0.73702 1.08053 1.13251
 C585 C 0.73481 1.12768 1.08483
 C586 C 0.70166 1.11450 1.07307
 C587 C 0.77797 1.13582 1.13827
 C588 C 0.80844 1.14604 1.14693
 C589 C 0.64342 1.08229 1.09040
 C590 C 0.61571 1.06910 1.07755
 H591 H 0.71111 1.16150 1.16648
 H592 H 0.64933 1.13695 1.14458
 H593 H 0.69626 1.03852 1.12331
 H594 H 0.75784 1.06301 1.14516
 H595 H 0.75418 1.14090 1.06634
 H596 H 0.69265 1.11643 1.04451
 C597 C 0.74148 0.87726 0.87434
 C598 C 0.70825 0.85885 0.85544
 C599 C 0.67500 0.87111 0.86827
 C600 C 0.67836 0.90053 0.89869
 C601 C 0.70219 0.93105 0.88189
 C602 C 0.73534 0.91883 0.86910
 C603 C 0.73590 0.87063 0.91575
 C604 C 0.70276 0.88285 0.92854
 C605 C 0.77761 0.86459 0.86116
 C606 C 0.80808 0.85527 0.85156
 C607 C 0.64315 0.91425 0.91318
 C608 C 0.61548 0.92679 0.92673
 H609 H 0.71063 0.83808 0.83393
 H610 H 0.64889 0.86085 0.85775
 H611 H 0.69374 0.95975 0.88013
 H612 H 0.75527 0.93706 0.85638
 H613 H 0.75619 0.85742 0.93349
 H614 H 0.69469 0.88011 0.95724
   
