data_POSCAR
  _audit_creation_date              2014-09-24
  _audit_creation_method            'ToBaCCo'
  _symmetry_space_group_name_H-M    'P1'
  _symmetry_Int_Tables_number       1
  _symmetry_cell_setting            triclinic
  loop_
  _symmetry_equiv_pos_as_xyz
 x,y,z
_cell_length_a 18.9915
_cell_length_b 18.9743
_cell_length_c 27.7367
_cell_angle_alpha 90.077800
_cell_angle_beta 92.790800
_cell_angle_gamma 89.987400
loop_
  _atom_site_label
  _atom_site_type_symbol
  _atom_site_fract_x
  _atom_site_fract_y
  _atom_site_fract_z
C1 C -0.00660 0.56497 1.02623
 C2 C 0.00658 0.56422 0.97531
 C3 C 0.02061 0.49786 0.95448
 C4 C 0.00667 0.43276 0.97637
 C5 C -0.00621 0.43341 1.02696
 C6 C -0.02102 0.49931 1.04778
 H7 H -0.04163 0.49932 1.08353
 H8 H 0.04041 0.49645 0.91854
 C9 C 0.43724 -0.00633 0.52467
 C10 C 0.43330 0.00501 0.47334
 C11 C 0.49681 -0.00035 0.44922
 C12 C 0.56459 -0.00602 0.47246
 C13 C 0.56848 0.00283 0.52423
 C14 C 0.50481 -0.00343 0.54812
 H15 H 0.50801 -0.00487 0.58698
 H16 H 0.49326 0.00066 0.41034
 C17 C 0.12685 0.01448 0.26967
 H18 H 0.12897 0.01666 0.23079
 C19 C 0.18883 0.02038 0.29865
 H20 H 0.23843 0.02502 0.28138
 C21 C 0.05926 0.00255 0.33870
 H22 H 0.00877 -0.00403 0.35434
 C23 C 0.11984 0.00798 0.36898
 H24 H 0.11498 0.00328 0.40755
 N25 N 0.06378 0.00524 0.28997
 C26 C -0.07633 -0.09765 0.18212
 H27 H -0.12089 -0.06210 0.18207
 C28 C -0.07861 -0.15684 0.15215
 H29 H -0.12489 -0.16440 0.12859
 C30 C 0.03918 -0.12664 0.21141
 H31 H 0.08506 -0.11474 0.23449
 C32 C 0.03919 -0.18642 0.18202
 H33 H 0.08594 -0.21910 0.18229
 Zn34 Zn -0.01847 -0.00038 0.24864
 N35 N -0.01778 -0.08320 0.21051
 C36 C -0.02444 0.07443 0.15989
 N37 N -0.01954 0.08056 0.20876
 C38 C -0.01195 0.14460 0.23042
 C39 C -0.00850 0.20583 0.20272
 C40 C -0.02173 0.13421 0.13085
 C41 C -0.10985 -0.06107 0.31315
 C42 C -0.16646 -0.06396 0.34336
 C43 C -0.20369 0.05039 0.31398
 C44 C -0.14640 0.05106 0.28432
 N45 N -0.09958 -0.00312 0.28562
 H46 H -0.02975 0.02320 0.14317
 H47 H -0.00822 0.14799 0.26941
 H48 H -0.00407 0.25586 0.22121
 H49 H -0.02651 0.12809 0.09201
 H50 H -0.07314 -0.10461 0.31223
 H51 H -0.17344 -0.11080 0.36480
 H52 H -0.24039 0.09389 0.31143
 H53 H -0.13923 0.09524 0.26055
 C54 C -0.02055 -0.20307 0.15213
 C55 C 0.18586 0.01857 0.34925
 C56 C -0.21255 -0.00612 0.34604
 C57 C -0.01158 0.20110 0.15200
 C58 C 0.01006 0.14101 0.77002
 H59 H 0.00555 0.14449 0.73106
 C60 C 0.00649 0.20213 0.79797
 H61 H 0.00111 0.25217 0.77967
 C62 C 0.02474 0.07076 0.84026
 H63 H 0.03100 0.01955 0.85679
 C64 C 0.02203 0.13042 0.86952
 H65 H 0.02775 0.12422 0.90832
 N66 N 0.01880 0.07698 0.79143
 C67 C 0.11062 -0.06389 0.68686
 H68 H 0.07454 -0.10793 0.68777
 C69 C 0.16730 -0.06606 0.65666
 H70 H 0.17491 -0.11275 0.63507
 C71 C 0.14545 0.04891 0.71560
 H72 H 0.13758 0.09311 0.73931
 C73 C 0.20276 0.04896 0.68595
 H74 H 0.23871 0.09304 0.68852
 Zn75 Zn 0.01824 -0.00393 0.75132
 N76 N 0.09946 -0.00597 0.71435
 C77 C -0.05941 -0.00234 0.66130
 N78 N -0.06406 0.00122 0.70998
 C79 C -0.12718 0.01105 0.73013
 C80 C -0.18905 0.01700 0.70101
 C81 C -0.11985 0.00294 0.63091
 C82 C 0.07672 -0.10125 0.81744
 C83 C 0.07914 -0.16030 0.84745
 C84 C -0.03876 -0.18999 0.81781
 C85 C -0.03891 -0.13031 0.78842
 N86 N 0.01801 -0.08685 0.78923
 H87 H -0.00890 -0.00946 0.64576
 H88 H -0.12942 0.01384 0.76899
 H89 H -0.23868 0.02234 0.71817
 H90 H -0.11487 -0.00235 0.59236
 H91 H 0.12126 -0.06570 0.81741
 H92 H 0.12551 -0.16771 0.87093
 H93 H -0.08552 -0.22264 0.81768
 H94 H -0.08493 -0.11842 0.76549
 C95 C 0.21255 -0.00760 0.65398
 C96 C 0.01076 0.19728 0.84867
 C97 C 0.02105 -0.20645 0.84766
 C98 C -0.18588 0.01439 0.65045
 C99 C -0.00753 -0.37359 0.05861
 C100 C -0.08321 -0.34716 0.06445
 C101 C -0.08896 -0.29165 0.09489
 C102 C -0.01826 -0.26649 0.11837
 C103 C 0.01300 -0.33328 0.14244
 C104 C 0.02018 -0.38826 0.11139
 C105 C 0.03687 -0.30863 0.04637
 C106 C 0.02941 -0.25259 0.07630
 H107 H -0.12936 -0.37271 0.04765
 H108 H -0.14033 -0.27282 0.10436
 H109 H 0.03086 -0.33638 0.18015
 H110 H 0.04701 -0.43617 0.12309
 H111 H 0.07926 -0.30923 0.02198
 H112 H 0.06196 -0.20579 0.07392
 C113 C -0.00396 0.37270 0.05969
 C114 C -0.07796 0.34335 0.06759
 C115 C -0.07936 0.28734 0.09785
 C116 C -0.00700 0.26560 0.11966
 C117 C 0.03938 0.25364 0.07648
 C118 C 0.04228 0.30964 0.04615
 C119 C 0.02627 0.38879 0.11163
 C120 C 0.02401 0.33346 0.14286
 H121 H -0.12591 0.36582 0.05109
 H122 H -0.12830 0.26217 0.10693
 H123 H 0.07544 0.20950 0.07408
 H124 H 0.08404 0.31269 0.02135
 H125 H 0.05395 0.43695 0.12184
 H126 H 0.04983 0.33644 0.17852
 C127 C 0.37477 -0.01103 0.55852
 C128 C 0.38925 -0.05308 0.60593
 C129 C 0.33614 -0.05034 0.63725
 C130 C 0.27174 -0.00767 0.61862
 C131 C 0.30113 0.06516 0.60593
 C132 C 0.35518 0.06301 0.57586
 C133 C 0.30562 -0.04517 0.53889
 C134 C 0.25149 -0.04108 0.56920
 H135 H 0.43446 -0.08725 0.61276
 H136 H 0.33789 -0.07989 0.67078
 H137 H 0.27980 0.11511 0.61734
 H138 H 0.38057 0.11072 0.56383
 H139 H 0.30101 -0.07811 0.50727
 H140 H 0.20087 -0.06544 0.56016
 C141 C -0.36433 0.01171 0.55795
 C142 C -0.30134 0.05200 0.53843
 C143 C -0.24273 0.05286 0.56866
 C144 C -0.25220 0.01614 0.61736
 C145 C -0.31684 0.05401 0.63680
 C146 C -0.37488 0.05237 0.60575
 C147 C -0.33640 -0.06055 0.57494
 C148 C -0.27794 -0.05831 0.60485
 H149 H -0.30516 0.08752 0.50818
 H150 H -0.19791 0.08609 0.56153
 H151 H -0.31539 0.08628 0.66914
 H152 H -0.42096 0.08411 0.61244
 H153 H -0.36158 -0.11002 0.56451
 H154 H -0.25339 -0.10572 0.61972
 C155 C 0.00767 -0.37519 0.94233
 C156 C 0.08339 -0.34900 0.93641
 C157 C 0.08927 -0.29410 0.90558
 C158 C 0.01865 -0.26931 0.88181
 C159 C -0.01257 -0.33654 0.85818
 C160 C -0.01983 -0.39092 0.88962
 C161 C -0.03678 -0.30996 0.95399
 C162 C -0.02917 -0.25453 0.92368
 H163 H 0.12947 -0.37431 0.95345
 H164 H 0.14069 -0.27558 0.89603
 H165 H -0.03035 -0.34032 0.82048
 H166 H -0.04665 -0.43904 0.87825
 H167 H -0.07928 -0.31004 0.97830
 H168 H -0.06173 -0.20765 0.92566
 C169 C 0.00387 0.36836 0.94178
 C170 C 0.07783 0.33962 0.93300
 C171 C 0.07904 0.28380 0.90245
 C172 C 0.00640 0.26163 0.88131
 C173 C -0.03876 0.24905 0.92499
 C174 C -0.04125 0.30478 0.95568
 C175 C -0.02744 0.38460 0.89027
 C176 C -0.02560 0.32944 0.85874
 H177 H 0.12587 0.36263 0.94895
 H178 H 0.12795 0.25920 0.89265
 H179 H -0.07410 0.20442 0.92777
 H180 H -0.08183 0.30696 0.98136
 H181 H -0.05513 0.43292 0.88057
 H182 H -0.05190 0.33258 0.82325
 C183 C -0.37596 -0.01022 0.44062
 C184 C -0.39032 -0.05089 0.39241
 C185 C -0.33680 -0.04786 0.36143
 C186 C -0.27201 -0.00675 0.38117
 C187 C -0.30036 0.06612 0.39488
 C188 C -0.35488 0.06401 0.42453
 C189 C -0.30764 -0.04638 0.45993
 C190 C -0.25296 -0.04202 0.43010
 H191 H -0.43575 -0.08453 0.38478
 H192 H -0.33844 -0.07655 0.32751
 H193 H -0.27801 0.11598 0.38429
 H194 H -0.37959 0.11187 0.43708
 H195 H -0.30427 -0.08151 0.49037
 H196 H -0.20306 -0.06790 0.43893
 C197 C 0.36570 0.01452 0.44032
 C198 C 0.30329 0.05461 0.46084
 C199 C 0.24406 0.05597 0.43115
 C200 C 0.25249 0.01985 0.38202
 C201 C 0.31673 0.05788 0.36227
 C202 C 0.37533 0.05578 0.39273
 C203 C 0.33726 -0.05750 0.42317
 C204 C 0.27831 -0.05480 0.39376
 H205 H 0.30791 0.08947 0.49152
 H206 H 0.19944 0.08909 0.43902
 H207 H 0.31455 0.09076 0.33027
 H208 H 0.42104 0.08795 0.38594
 H209 H 0.36227 -0.10715 0.43329
 H210 H 0.25320 -0.10201 0.37893
   
