data_POSCAR
  _audit_creation_date              2014-09-24
  _audit_creation_method            'ToBaCCo'
  _symmetry_space_group_name_H-M    'P1'
  _symmetry_Int_Tables_number       1
  _symmetry_cell_setting            triclinic
  loop_
  _symmetry_equiv_pos_as_xyz
 x,y,z
_cell_length_a 50.0642
_cell_length_b 29.1750
_cell_length_c 16.1273
_cell_angle_alpha 89.996400
_cell_angle_beta 89.996300
_cell_angle_gamma 89.995100
loop_
  _atom_site_label
  _atom_site_type_symbol
  _atom_site_fract_x
  _atom_site_fract_y
  _atom_site_fract_z
C1 C 0.72844 0.26777 0.54489
 C2 C 0.72858 0.26774 0.45739
 C3 C 0.74993 0.24771 0.41450
 C4 C 0.77123 0.22766 0.45768
 C5 C 0.77113 0.22771 0.54532
 C6 C 0.74974 0.24775 0.58821
 H7 H 0.74967 0.24776 0.65556
 H8 H 0.74993 0.24776 0.34718
 C9 C 0.22868 0.76799 0.54537
 C10 C 0.22856 0.76806 0.45798
 C11 C 0.24977 0.74790 0.41464
 C12 C 0.27108 0.72770 0.45747
 C13 C 0.27123 0.72767 0.54496
 C14 C 0.25000 0.74784 0.58830
 H15 H 0.25001 0.74787 0.65561
 H16 H 0.24969 0.74790 0.34737
 C17 C 0.27027 0.27113 -0.54471
 C18 C 0.27025 0.27113 -0.45740
 C19 C 0.24895 0.25121 -0.41413
 C20 C 0.22757 0.23118 -0.45704
 C21 C 0.22760 0.23116 -0.54474
 C22 C 0.24897 0.25116 -0.58782
 H23 H 0.24906 0.25124 -0.65513
 H24 H 0.24907 0.25135 -0.34682
 C25 C -0.22989 0.77155 -0.54448
 C26 C -0.22990 0.77162 -0.45717
 C27 C -0.25113 0.75143 -0.41406
 C28 C -0.27240 0.73114 -0.45713
 C29 C -0.27239 0.73105 -0.54483
 C30 C -0.25108 0.75130 -0.58775
 H31 H -0.25094 0.75138 -0.65506
 H32 H -0.25106 0.75159 -0.34675
 O33 O -0.03734 0.92169 0.15293
 O34 O -0.06669 0.96255 0.07284
 C35 C -0.06138 0.93335 0.13109
 O36 O 0.03757 1.08445 0.14453
 O37 O 0.06692 1.04021 0.07033
 C38 C 0.06161 1.07212 0.12382
 O39 O -0.03734 1.08072 0.15217
 O40 O -0.06670 1.03950 0.07269
 C41 C -0.06138 1.06892 0.13062
 O42 O 0.03733 0.91716 0.14493
 O43 O 0.06670 0.96106 0.07027
 C44 C 0.06138 0.92928 0.12406
 Zr45 Zr 0.00002 0.94310 0.10462
 O46 O 0.00264 0.94073 0.23555
 O47 O -0.00126 0.87087 0.09552
 Zr48 Zr 0.00007 1.05897 0.10454
 O49 O 0.00303 1.05961 0.23549
 O50 O -0.00289 1.13137 0.10249
 O51 O -0.02378 1.00106 0.12101
 O52 O 0.02321 1.00101 0.11991
 O53 O 0.03763 0.91687 -0.14246
 O54 O 0.06703 0.96143 -0.06885
 C55 C 0.06169 0.92928 -0.12189
 O56 O -0.03739 1.08043 -0.15211
 O57 O -0.06670 1.03940 -0.07216
 C58 C -0.06141 1.06872 -0.13025
 O59 O 0.03734 1.08454 -0.14501
 O60 O 0.06671 1.04088 -0.06996
 C61 C 0.06139 1.07254 -0.12394
 O62 O -0.03733 0.92089 -0.15132
 O63 O -0.06670 0.96240 -0.07226
 C64 C -0.06139 0.93282 -0.12996
 Zr65 Zr 0.00006 0.94286 -0.10395
 O66 O 0.00305 0.94245 -0.23490
 O67 O -0.00241 0.87044 -0.10231
 Zr68 Zr -0.00000 1.05865 -0.10460
 O69 O 0.00293 1.05852 -0.23556
 O70 O -0.00300 1.13105 -0.10376
 Zr71 Zr -0.03993 1.00094 0.00023
 Zr72 Zr 0.03988 1.00101 0.00015
 O73 O 0.02323 1.00074 -0.11964
 O74 O -0.02383 1.00072 -0.12064
 O75 O 0.02398 0.93418 0.00048
 O76 O -0.02327 1.06718 -0.00000
 O77 O -0.02338 0.93466 0.00045
 O78 O 0.02395 1.06790 -0.00010
 H79 H 0.03512 1.00091 0.16896
 H80 H -0.03535 1.09409 -0.00006
 H81 H 0.03526 1.00062 -0.16843
 H82 H -0.03547 0.90777 0.00058
 H83 H 0.01265 1.14324 0.07131
 H84 H 0.01214 1.14302 -0.07083
 H85 H -0.01186 1.03950 -0.25720
 H86 H -0.01171 0.96143 -0.25682
 H87 H 0.01067 0.85935 -0.06091
 H88 H -0.00131 0.85919 0.15323
 H89 H -0.01061 0.96271 0.25761
 H90 H -0.01163 1.04042 0.25748
 O91 O 0.46315 0.41975 0.14977
 O92 O 0.43378 0.46093 0.07020
 C93 C 0.43910 0.43152 0.12818
 O94 O 0.53784 0.58284 0.14331
 O95 O 0.56723 0.53923 0.06824
 C96 C 0.56190 0.57085 0.12229
 O97 O 0.46311 0.57882 0.15029
 O98 O 0.43377 0.53788 0.07033
 C99 C 0.43908 0.56713 0.12849
 O100 O 0.53810 0.41563 0.14076
 O101 O 0.56755 0.45994 0.06681
 C102 C 0.56217 0.42793 0.12013
 Zr103 Zr 0.50054 0.44130 0.10158
 O104 O 0.50320 0.43838 0.23245
 O105 O 0.49927 0.36909 0.09210
 Zr106 Zr 0.50048 0.55709 0.10274
 O107 O 0.50341 0.55688 0.23372
 O108 O 0.49750 0.62949 0.10201
 O109 O 0.47667 0.49916 0.11855
 O110 O 0.52369 0.49915 0.11757
 O111 O 0.53782 0.41550 -0.14650
 O112 O 0.56721 0.45960 -0.07225
 C113 C 0.56188 0.42767 -0.12574
 O114 O 0.46310 0.57949 -0.15383
 O115 O 0.43376 0.53817 -0.07443
 C116 C 0.43906 0.56769 -0.13222
 O117 O 0.53788 0.58356 -0.14629
 O118 O 0.56723 0.53958 -0.07175
 C119 C 0.56191 0.57146 -0.12529
 O120 O 0.46311 0.41988 -0.15433
 O121 O 0.43377 0.46114 -0.07480
 C122 C 0.43908 0.43171 -0.13270
 Zr123 Zr 0.50049 0.44188 -0.10710
 O124 O 0.50346 0.44253 -0.23807
 O125 O 0.49801 0.36946 -0.10683
 Zr126 Zr 0.50052 0.55760 -0.10643
 O127 O 0.50351 0.55790 -0.23738
 O128 O 0.49752 0.63000 -0.10475
 Zr129 Zr 0.46054 0.49951 -0.00224
 Zr130 Zr 0.54039 0.49954 -0.00214
 O131 O 0.52375 0.49974 -0.12196
 O132 O 0.47663 0.49977 -0.12313
 O133 O 0.52445 0.43274 -0.00273
 O134 O 0.47721 0.56574 -0.00180
 O135 O 0.47712 0.43325 -0.00269
 O136 O 0.52441 0.56640 -0.00173
 H137 H 0.53564 0.49897 0.16655
 H138 H 0.46514 0.59266 -0.00163
 H139 H 0.53579 0.49975 -0.17074
 H140 H 0.46505 0.40633 -0.00276
 H141 H 0.51279 0.64151 0.06983
 H142 H 0.51273 0.64187 -0.07204
 H143 H 0.48875 0.53891 -0.25927
 H144 H 0.48833 0.46076 -0.25966
 H145 H 0.51069 0.35818 -0.06441
 H146 H 0.49947 0.35733 0.14975
 H147 H 0.49004 0.46041 0.25481
 H148 H 0.48850 0.53815 0.25538
 C149 C 0.39898 0.35596 0.27395
 C150 C 0.37279 0.36826 0.25326
 C151 C 0.36828 0.40137 0.19209
 C152 C 0.38983 0.42204 0.15157
 C153 C 0.29198 0.29157 0.40922
 C154 C 0.42058 0.37657 0.23353
 C155 C 0.35056 0.34705 0.29497
 C156 C 0.33198 0.32939 0.33023
 C157 C 0.31032 0.30888 0.37225
 C158 C 0.41627 0.40983 0.17171
 H159 H 0.40270 0.33040 0.32131
 H160 H 0.34809 0.41123 0.17568
 H161 H 0.38573 0.44754 0.10445
 H162 H 0.44063 0.36635 0.25062
 C163 C -0.10146 0.85766 0.27636
 C164 C -0.12763 0.86980 0.25524
 C165 C -0.13216 0.90292 0.19413
 C166 C -0.11061 0.92374 0.15398
 C167 C -0.20827 0.79221 0.40962
 C168 C -0.07986 0.87843 0.23632
 C169 C -0.14983 0.84837 0.29641
 C170 C -0.16838 0.83049 0.33126
 C171 C -0.18999 0.80974 0.37288
 C172 C -0.08418 0.91167 0.17448
 H173 H -0.09775 0.83209 0.32372
 H174 H -0.15235 0.91262 0.17745
 H175 H -0.11470 0.94922 0.10682
 H176 H -0.05981 0.86833 0.25364
 C177 C 0.60148 0.64881 0.26516
 C178 C 0.62775 0.63617 0.24627
 C179 C 0.63254 0.60281 0.18571
 C180 C 0.61116 0.58188 0.14466
 C181 C 0.70724 0.71163 0.41076
 C182 C 0.58007 0.62795 0.22425
 C183 C 0.64971 0.65695 0.29007
 C184 C 0.66796 0.67427 0.32751
 C185 C 0.68920 0.69445 0.37210
 C186 C 0.58463 0.59404 0.16376
 H187 H 0.59754 0.67458 0.31196
 H188 H 0.65280 0.59274 0.17060
 H189 H 0.61544 0.55594 0.09849
 H190 H 0.55995 0.63818 0.24056
 C191 C 0.13226 1.10367 0.18694
 C192 C 0.12752 1.13731 0.24698
 C193 C 0.10131 1.15030 0.26564
 C194 C 0.07986 1.12947 0.22497
 C195 C 0.20716 1.21203 0.41095
 C196 C 0.11085 1.08276 0.14614
 C197 C 0.14950 1.15797 0.29059
 C198 C 0.16779 1.17513 0.32791
 C199 C 0.18907 1.19508 0.37237
 C200 C 0.08436 1.09526 0.16502
 H201 H 0.15249 1.09335 0.17208
 H202 H 0.09743 1.17630 0.31208
 H203 H 0.05976 1.13995 0.24106
 H204 H 0.11506 1.05659 0.10035
 C205 C 0.63259 0.39543 -0.18803
 C206 C 0.62787 0.36206 -0.24862
 C207 C 0.60162 0.34946 -0.26785
 C208 C 0.58016 0.37038 -0.22726
 C209 C 0.70788 0.28700 -0.41140
 C210 C 0.61116 0.41642 -0.14732
 C211 C 0.64990 0.34129 -0.29211
 C212 C 0.66826 0.32406 -0.32919
 C213 C 0.68967 0.30402 -0.37326
 C214 C 0.58465 0.40432 -0.16678
 H215 H 0.65282 0.40547 -0.17265
 H216 H 0.59773 0.32369 -0.31468
 H217 H 0.56006 0.36021 -0.24385
 H218 H 0.61539 0.44237 -0.10113
 C219 C 0.13233 0.89720 -0.18436
 C220 C 0.12757 0.86348 -0.24425
 C221 C 0.10134 0.85056 -0.26289
 C222 C 0.07991 0.87154 -0.22241
 C223 C 0.20714 0.78836 -0.40799
 C224 C 0.11093 0.91826 -0.14374
 C225 C 0.14953 0.84272 -0.28780
 C226 C 0.16780 0.82548 -0.32509
 C227 C 0.18906 0.80542 -0.36951
 C228 C 0.08443 0.90586 -0.16267
 H229 H 0.15257 0.90746 -0.16951
 H230 H 0.09745 0.82451 -0.30922
 H231 H 0.05981 0.86114 -0.23853
 H232 H 0.11516 0.94450 -0.09810
 C233 C 0.36820 0.59820 -0.19517
 C234 C 0.37268 0.63125 -0.25645
 C235 C 0.39886 0.64342 -0.27752
 C236 C 0.42049 0.62272 -0.23736
 C237 C 0.29179 0.70821 -0.41168
 C238 C 0.38977 0.57745 -0.15491
 C239 C 0.35042 0.65254 -0.29792
 C240 C 0.33182 0.67025 -0.33298
 C241 C 0.31014 0.69083 -0.37482
 C242 C 0.41621 0.58950 -0.17544
 H243 H 0.34802 0.58845 -0.17845
 H244 H 0.40255 0.66893 -0.32498
 H245 H 0.44053 0.63282 -0.25477
 H246 H 0.38570 0.55199 -0.10769
 C247 C -0.10160 1.14418 -0.27567
 C248 C -0.12776 1.13207 -0.25430
 C249 C -0.13224 1.09914 -0.19284
 C250 C -0.11067 1.07843 -0.15264
 C251 C -0.20843 1.20847 -0.41052
 C252 C -0.07997 1.12352 -0.23557
 C253 C -0.14999 1.15324 -0.29578
 C254 C -0.16856 1.17085 -0.33098
 C255 C -0.19017 1.19126 -0.37316
 C256 C -0.08425 1.09043 -0.17345
 H257 H -0.09793 1.16959 -0.32331
 H258 H -0.15242 1.08946 -0.17598
 H259 H -0.11472 1.05307 -0.10525
 H260 H -0.05993 1.13356 -0.25315
 C261 C 0.60152 0.64978 -0.26708
 C262 C 0.62775 0.63700 -0.24821
 C263 C 0.63253 0.60351 -0.18790
 C264 C 0.61114 0.58254 -0.14709
 C265 C 0.70721 0.71187 -0.41278
 C266 C 0.58009 0.62888 -0.22641
 C267 C 0.64969 0.65767 -0.29196
 C268 C 0.66794 0.67485 -0.32944
 C269 C 0.68917 0.69485 -0.37408
 C270 C 0.58464 0.59479 -0.16625
 H271 H 0.59761 0.67565 -0.31373
 H272 H 0.65278 0.59336 -0.17287
 H273 H 0.61538 0.55647 -0.10113
 H274 H 0.55999 0.63917 -0.24272
 C275 C 0.13207 1.10438 -0.18711
 C276 C 0.12733 1.13764 -0.24789
 C277 C 0.10108 1.15030 -0.26693
 C278 C 0.07963 1.12956 -0.22599
 C279 C 0.20709 1.21209 -0.41261
 C280 C 0.11066 1.08355 -0.14603
 C281 C 0.14933 1.15822 -0.29180
 C282 C 0.16764 1.17531 -0.32930
 C283 C 0.18897 1.19519 -0.37394
 C284 C 0.08415 1.09572 -0.16532
 H285 H 0.15231 1.09428 -0.17188
 H286 H 0.09717 1.17599 -0.31391
 H287 H 0.05953 1.13978 -0.24244
 H288 H 0.11491 1.05767 -0.09972
 C289 C 0.39892 0.35607 -0.27784
 C290 C 0.37276 0.36828 -0.25668
 C291 C 0.36827 0.40135 -0.19548
 C292 C 0.38983 0.42209 -0.15531
 C293 C 0.29194 0.29153 -0.41148
 C294 C 0.42054 0.37676 -0.23778
 C295 C 0.35054 0.34702 -0.29799
 C296 C 0.33194 0.32934 -0.33295
 C297 C 0.31028 0.30884 -0.37467
 C298 C 0.41625 0.40998 -0.17590
 H299 H 0.40260 0.33054 -0.32528
 H300 H 0.34809 0.41110 -0.17876
 H301 H 0.38577 0.44756 -0.10811
 H302 H 0.44058 0.36664 -0.25519
 C303 C -0.13220 0.90253 -0.19375
 C304 C -0.12766 0.86941 -0.25488
 C305 C -0.10147 0.85713 -0.27555
 C306 C -0.07988 0.87778 -0.23515
 C307 C -0.20827 0.79229 -0.41108
 C308 C -0.11066 0.92323 -0.15324
 C309 C -0.14987 0.84815 -0.29661
 C310 C -0.16841 0.83041 -0.33193
 C311 C -0.19000 0.80976 -0.37404
 C312 C -0.08421 0.91105 -0.17337
 H313 H -0.15239 0.91236 -0.17735
 H314 H -0.09773 0.83157 -0.32289
 H315 H -0.05982 0.86759 -0.25226
 H316 H -0.11477 0.94874 -0.10615
 C317 C 0.39907 0.64238 0.27465
 C318 C 0.37289 0.63034 0.25350
 C319 C 0.36832 0.59752 0.19190
 C320 C 0.38984 0.57686 0.15134
 C321 C 0.29258 0.70716 0.41074
 C322 C 0.42064 0.62177 0.23421
 C323 C 0.35073 0.65152 0.29531
 C324 C 0.33225 0.66921 0.33082
 C325 C 0.31076 0.68978 0.37328
 C326 C 0.41628 0.58879 0.17196
 H327 H 0.40281 0.66771 0.32239
 H328 H 0.34812 0.58791 0.17520
 H329 H 0.38573 0.55158 0.10386
 H330 H 0.44070 0.63175 0.25166
 C331 C -0.13219 1.09909 0.19469
 C332 C -0.12765 1.13199 0.25620
 C333 C -0.10146 1.14419 0.27696
 C334 C -0.07987 1.12367 0.23632
 C335 C -0.20826 1.20833 0.41378
 C336 C -0.11066 1.07851 0.15394
 C337 C -0.14985 1.15307 0.29826
 C338 C -0.16839 1.17064 0.33389
 C339 C -0.18998 1.19107 0.37639
 C340 C -0.08421 1.09060 0.17420
 H341 H -0.15239 1.08932 0.17822
 H342 H -0.09771 1.16959 0.32459
 H343 H -0.05981 1.13379 0.25353
 H344 H -0.11477 1.05315 0.10659
 C345 C 0.60162 0.34957 0.26226
 C346 C 0.62786 0.36257 0.24411
 C347 C 0.63272 0.39618 0.18408
 C348 C 0.61138 0.41708 0.14287
 C349 C 0.70707 0.28800 0.41028
 C350 C 0.58025 0.37039 0.22120
 C351 C 0.64974 0.34200 0.28834
 C352 C 0.66792 0.32488 0.32622
 C353 C 0.68908 0.30496 0.37131
 C354 C 0.58486 0.40462 0.16134
 H355 H 0.59765 0.32360 0.30868
 H356 H 0.65298 0.40650 0.16961
 H357 H 0.61568 0.44327 0.09718
 H358 H 0.56013 0.35994 0.23698
 C359 C 0.13203 0.89736 0.18747
 C360 C 0.12725 0.86397 0.24798
 C361 C 0.10099 0.85127 0.26679
 C362 C 0.07957 0.87210 0.22586
 C363 C 0.20691 0.78857 0.41175
 C364 C 0.11065 0.91828 0.14641
 C365 C 0.14922 0.84320 0.29178
 C366 C 0.16749 0.82591 0.32913
 C367 C 0.18879 0.80574 0.37348
 C368 C 0.08412 0.90606 0.16544
 H369 H 0.15228 0.90748 0.17242
 H370 H 0.09705 0.82546 0.31355
 H371 H 0.05946 0.86183 0.24213
 H372 H 0.11491 0.94425 0.10029
   
