data_POSCAR
  _audit_creation_date              2014-09-24
  _audit_creation_method            'ToBaCCo'
  _symmetry_space_group_name_H-M    'P1'
  _symmetry_Int_Tables_number       1
  _symmetry_cell_setting            triclinic
  loop_
  _symmetry_equiv_pos_as_xyz
 x,y,z
_cell_length_a 20.0322
_cell_length_b 19.7242
_cell_length_c 47.7103
_cell_angle_alpha 83.307100
_cell_angle_beta 95.464100
_cell_angle_gamma 118.876600
loop_
  _atom_site_label
  _atom_site_type_symbol
  _atom_site_fract_x
  _atom_site_fract_y
  _atom_site_fract_z
C1 C 0.04440 0.17102 0.52789
 H2 H 0.09823 0.17232 0.52562
 C3 C 0.04155 0.22285 0.54453
 H4 H 0.09341 0.26432 0.55500
 C5 C -0.08878 0.11464 0.51707
 H6 H -0.13918 0.07213 0.50633
 C7 C -0.09441 0.16504 0.53399
 H8 H -0.14952 0.16077 0.53648
 N9 N -0.01999 0.11828 0.51463
 C10 C 0.03214 -0.06946 0.50923
 H11 H 0.04085 -0.06595 0.48697
 C12 C 0.03385 -0.12969 0.52742
 H13 H 0.04561 -0.17162 0.51925
 C14 C 0.00148 -0.02212 0.54684
 H15 H -0.01409 0.01788 0.55418
 C16 C 0.00150 -0.08180 0.56555
 H17 H -0.01317 -0.08658 0.58723
 Zn18 Zn -0.00267 0.05311 0.49372
 N19 N 0.01626 -0.01716 0.51922
 C20 C 0.14746 0.11658 0.47258
 N21 N 0.08128 0.12049 0.47146
 C22 C 0.07239 0.17661 0.45473
 C23 C 0.13055 0.23052 0.43756
 C24 C 0.20725 0.16947 0.45563
 C25 C -0.15173 -0.06532 0.48207
 C26 C -0.20818 -0.12307 0.46600
 C27 C -0.13026 -0.06347 0.42551
 C28 C -0.07578 -0.00695 0.44229
 N29 N -0.08677 -0.00930 0.47011
 H30 H 0.15392 0.07265 0.48652
 H31 H 0.01952 0.17896 0.45464
 H32 H 0.12231 0.27410 0.42397
 H33 H 0.25949 0.16559 0.45624
 H34 H -0.15753 -0.06810 0.50455
 H35 H -0.25589 -0.17027 0.47688
 H36 H -0.11920 -0.05908 0.40341
 H37 H -0.02297 0.03649 0.43324
 C38 C 0.01822 -0.13624 0.55596
 C39 C -0.02836 0.22028 0.54777
 C40 C -0.19814 -0.12380 0.43711
 C41 C 0.19838 0.22651 0.43767
 C42 C 1.18210 0.06085 0.13388
 H43 H 1.17981 0.11479 0.13275
 C44 C 1.23505 0.05583 0.11857
 H45 H 1.27311 0.10575 0.10529
 C46 C 1.13472 -0.07019 0.15258
 H47 H 1.09586 -0.11861 0.16612
 C48 C 1.18707 -0.07779 0.13750
 H49 H 1.18805 -0.13253 0.13918
 N50 N 1.13330 -0.00152 0.15039
 C51 C 0.95050 0.05432 0.15618
 H52 H 0.95662 0.06659 0.17807
 C53 C 0.88735 0.04962 0.13949
 H54 H 0.84595 0.06058 0.14832
 C55 C 0.99386 0.01967 0.11842
 H56 H 1.03341 0.00451 0.11062
 C57 C 0.93128 0.01354 0.10116
 H58 H 0.92418 -0.00445 0.08000
 Zn59 Zn 1.06974 0.01853 0.17086
 N60 N 1.00139 0.03804 0.14557
 C61 C 1.13751 0.17292 0.18927
 N62 N 1.13672 0.10314 0.19172
 C63 C 1.18914 0.09079 0.20857
 C64 C 1.24502 0.14957 0.22409
 C65 C 1.19291 0.23375 0.20447
 C66 C 0.95172 -0.13099 0.18384
 C67 C 0.89401 -0.18903 0.20032
 C68 C 0.95313 -0.11455 0.24084
 C69 C 1.00934 -0.05768 0.22357
 N70 N 1.00729 -0.06651 0.19558
 H71 H 1.09602 0.18168 0.17536
 H72 H 1.18746 0.03487 0.20982
 H73 H 1.28596 0.13869 0.23765
 H74 H 1.19355 0.28931 0.20250
 H75 H 0.95006 -0.13531 0.16136
 H76 H 0.84839 -0.23878 0.19059
 H77 H 0.95418 -0.10608 0.26293
 H78 H 1.05213 -0.00487 0.23233
 C79 C 0.87584 0.02586 0.11204
 C80 C 1.23847 -0.01377 0.12055
 C81 C 0.89423 -0.18061 0.22913
 C82 C 1.24791 0.22229 0.22181
 C83 C 0.02824 0.88055 0.87747
 H84 H -0.02308 0.82540 0.87587
 C85 C 0.08924 0.88512 0.89526
 H86 H 0.08481 0.83350 0.90759
 C87 C 0.09635 1.01519 0.86326
 H88 H 0.09882 1.06530 0.85050
 C89 C 0.15905 1.02238 0.88090
 H90 H 0.20977 1.07833 0.88192
 N91 N 0.03231 0.94508 0.86223
 C92 C -0.20372 0.89674 0.84939
 H93 H -0.21172 0.89675 0.82665
 C94 C -0.25857 0.89713 0.86538
 H95 H -0.30807 0.89817 0.85450
 C96 C -0.12400 0.90689 0.89040
 H97 H -0.07024 0.91418 0.90005
 C98 C -0.17722 0.90702 0.90715
 H99 H -0.16435 0.91124 0.92965
 Zn100 Zn -0.05568 0.92682 0.83911
 N101 N -0.13748 0.90287 0.86202
 C102 C -0.13817 0.77786 0.81544
 N103 N -0.07219 0.84604 0.81727
 C104 C -0.01000 0.86166 0.80305
 C105 C -0.01319 0.80919 0.78522
 C106 C -0.14379 0.72314 0.79777
 C107 C -0.03214 1.07974 0.82563
 C108 C -0.03580 1.14001 0.80812
 C109 C -0.06367 1.06412 0.76818
 C110 C -0.05934 1.00556 0.78635
 N111 N -0.04417 1.01403 0.81453
 H112 H -0.18647 0.76658 0.82725
 H113 H 0.04181 0.91614 0.80517
 H114 H 0.03603 0.82332 0.77336
 H115 H -0.19682 0.66972 0.79565
 H116 H -0.02220 1.08420 0.84819
 H117 H -0.02665 1.19194 0.81711
 H118 H -0.07700 1.05609 0.74587
 H119 H -0.07132 0.95212 0.77796
 C120 C -0.24559 0.90303 0.89479
 C121 C 0.15510 0.95676 0.89734
 C122 C -0.05334 1.13153 0.77913
 C123 C -0.08090 0.73981 0.78214
 O124 O 0.58499 0.01902 -0.02762
 O125 O 0.48328 0.03389 0.03027
 O126 O 0.61554 0.04278 0.02574
 O127 O 0.46062 0.03038 -0.02404
 O128 O 0.39986 -0.09755 -0.01636
 O129 O 0.55690 -0.08475 0.03415
 O130 O 0.42393 -0.09406 0.03771
 O131 O 0.52404 -0.10864 -0.01944
 Cu132 Cu 0.54208 0.04416 0.00018
 Cu133 Cu 0.47068 -0.10891 0.00966
 C134 C 0.57134 -0.04814 -0.03329
 C135 C 0.43579 -0.02816 0.04371
 C136 C 0.61252 -0.01819 0.03886
 C137 C 0.40302 -0.03477 -0.02808
 O138 O -0.11562 0.37611 0.68799
 O139 O -0.09163 0.54048 0.63585
 O140 O -0.10400 0.40294 0.63307
 O141 O -0.12314 0.50485 0.68851
 O142 O 0.00163 0.56242 0.69742
 O143 O 0.02056 0.45672 0.64214
 O144 O 0.03292 0.59389 0.64462
 O145 O 0.00910 0.43410 0.69659
 Cu146 Cu -0.12099 0.45008 0.66043
 Cu147 Cu 0.02827 0.51700 0.67107
 C148 C -0.05658 0.37787 0.70129
 C149 C -0.02457 0.59655 0.63217
 C150 C -0.03905 0.41227 0.62804
 C151 C -0.06427 0.55278 0.70174
 O152 O 0.58846 0.62592 0.30164
 O153 O 0.43647 0.50398 0.35185
 O154 O 0.56269 0.63836 0.35348
 O155 O 0.45295 0.50711 0.29892
 O156 O 0.51276 0.43816 0.31126
 O157 O 0.62207 0.56986 0.36752
 O158 O 0.49638 0.43533 0.36466
 O159 O 0.64803 0.55854 0.31658
 Cu160 Cu 0.50504 0.57642 0.32542
 Cu161 Cu 0.57562 0.49383 0.34143
 C162 C 0.64378 0.61169 0.30024
 C163 C 0.43956 0.44642 0.36584
 C164 C 0.61082 0.62725 0.36974
 C165 C 0.46306 0.44988 0.29587
 C166 C -0.05905 0.32635 0.55788
 C167 C -0.03165 0.27269 0.56690
 C168 C -0.00366 0.27015 0.59488
 C169 C -0.00416 0.31781 0.61406
 C170 C -0.03358 0.36892 0.60601
 C171 C -0.06065 0.37436 0.57771
 C172 C -0.08272 0.33517 0.52948
 C173 C -0.10904 0.38851 0.52097
 C174 C -0.11137 0.43472 0.54038
 C175 C -0.08706 0.42827 0.56845
 H176 H -0.08013 0.30203 0.51350
 H177 H -0.12709 0.39453 0.49913
 H178 H -0.13125 0.47647 0.53358
 H179 H -0.08795 0.46675 0.58264
 H180 H 0.01809 0.23004 0.60206
 H181 H 0.01658 0.31312 0.63564
 C182 C 0.81237 0.68326 0.25167
 C183 C 0.83026 0.76228 0.24659
 C184 C 0.78558 0.78825 0.25796
 C185 C 0.72435 0.73787 0.27443
 C186 C 0.70540 0.65947 0.28021
 C187 C 0.74860 0.63084 0.26810
 C188 C 0.85738 0.65550 0.24107
 C189 C 0.83813 0.57728 0.24524
 C190 C 0.77414 0.52534 0.26007
 C191 C 0.72987 0.55145 0.27141
 H192 H 0.90796 0.69383 0.22956
 H193 H 0.87283 0.55678 0.23679
 H194 H 0.75879 0.46436 0.26291
 H195 H 0.68072 0.50793 0.28234
 H196 H 0.79844 0.84849 0.25409
 H197 H 0.69258 0.76111 0.28333
 C198 C 0.23934 0.00302 -0.05836
 C199 C 0.21886 -0.03790 -0.08299
 C200 C 0.25657 -0.07899 -0.08823
 C201 C 0.31528 -0.07853 -0.06996
 C202 C 0.33814 -0.03668 -0.04599
 C203 C 0.29953 0.00368 -0.03970
 C204 C 0.19969 0.04121 -0.05137
 C205 C 0.21932 0.07969 -0.02673
 C206 C 0.27798 0.08023 -0.00847
 C207 C 0.31760 0.04245 -0.01473
 H208 H 0.15263 0.04093 -0.06458
 H209 H 0.18835 0.10860 -0.02164
 H210 H 0.29240 0.10947 0.01078
 H211 H 0.36142 0.04294 0.00044
 H212 H 0.24047 -0.11155 -0.10674
 H213 H 0.34396 -0.11005 -0.07482
 C214 C 0.05405 0.80827 0.60212
 C215 C 0.01381 0.79746 0.57548
 C216 C -0.03754 0.72191 0.56830
 C217 C -0.05026 0.65760 0.58706
 C218 C -0.01257 0.66680 0.61372
 C219 C 0.03846 0.74286 0.62182
 C220 C 0.10978 0.88283 0.60960
 C221 C 0.14516 0.89347 0.63651
 C222 C 0.12584 0.83040 0.65646
 C223 C 0.07307 0.75585 0.64933
 H224 H 0.12686 0.93348 0.59472
 H225 H 0.18716 0.95107 0.64201
 H226 H 0.15216 0.83920 0.67755
 H227 H 0.05900 0.70922 0.66580
 H228 H -0.06920 0.71269 0.54813
 H229 H -0.08957 0.60008 0.58063
 C230 C 0.38605 0.31436 0.23571
 C231 C 0.30660 0.28473 0.23856
 C232 C 0.28175 0.31211 0.25891
 C233 C 0.33379 0.36602 0.27695
 C234 C 0.41242 0.39420 0.27534
 C235 C 0.43939 0.36950 0.25432
 C236 C 0.41377 0.29202 0.21430
 C237 C 0.49200 0.32251 0.21153
 C238 C 0.54396 0.37647 0.22965
 C239 C 0.51808 0.40027 0.25072
 H240 H 0.37551 0.25193 0.19926
 H241 H 0.51240 0.30485 0.19501
 H242 H 0.60462 0.40071 0.22718
 H243 H 0.56001 0.44387 0.26376
 H244 H 0.22131 0.28998 0.26133
 H245 H 0.31228 0.38468 0.29283
 C246 C 0.62340 -0.13179 -0.09097
 C247 C 0.70468 -0.08723 -0.08876
 C248 C 0.73766 -0.02863 -0.06975
 C249 C 0.69320 -0.01366 -0.05339
 C250 C 0.61379 -0.05681 -0.05510
 C251 C 0.57800 -0.11455 -0.07465
 C252 C 0.58586 -0.19683 -0.10724
 C253 C 0.50644 -0.23817 -0.10971
 C254 C 0.46254 -0.21698 -0.09563
 C255 C 0.49767 -0.15621 -0.07809
 H256 H 0.61699 -0.21788 -0.11766
 H257 H 0.47880 -0.28712 -0.12257
 H258 H 0.40091 -0.24871 -0.09790
 H259 H 0.46133 -0.14199 -0.06739
 H260 H 0.79898 0.00764 -0.06781
 H261 H 0.72141 0.03040 -0.03847
 C262 C 0.37339 0.02856 0.10672
 C263 C 0.29328 -0.01990 0.10365
 C264 C 0.26366 -0.07213 0.08264
 C265 C 0.31138 -0.07461 0.06394
 C266 C 0.39028 -0.02484 0.06556
 C267 C 0.42240 0.02604 0.08750
 C268 C 0.40600 0.07823 0.12885
 C269 C 0.48484 0.12464 0.13188
 C270 C 0.53267 0.12183 0.11324
 C271 C 0.50209 0.07277 0.09134
 H272 H 0.37112 0.08072 0.14426
 H273 H 0.50902 0.16236 0.14898
 H274 H 0.59388 0.15729 0.11593
 H275 H 0.54159 0.07095 0.07788
 H276 H 0.20265 -0.10949 0.08007
 H277 H 0.28603 -0.11421 0.04740
 C278 C 0.67055 0.77735 0.42386
 C279 C 0.75184 0.81621 0.42149
 C280 C 0.78197 0.78845 0.40272
 C281 C 0.73568 0.72416 0.38774
 C282 C 0.65690 0.68497 0.39026
 C283 C 0.62366 0.71006 0.40882
 C284 C 0.63348 0.80785 0.43825
 C285 C 0.55460 0.76829 0.44077
 C286 C 0.51026 0.69889 0.42832
 C287 C 0.54407 0.67029 0.41220
 H288 H 0.66431 0.86368 0.44692
 H289 H 0.52765 0.79205 0.45226
 H290 H 0.44910 0.66812 0.43053
 H291 H 0.50732 0.61696 0.40234
 H292 H 0.84288 0.81395 0.40045
 H293 H 0.76171 0.70612 0.37333
 C294 C -0.11451 0.21742 0.76236
 C295 C -0.05910 0.19335 0.75990
 C296 C -0.00750 0.22829 0.73832
 C297 C -0.00887 0.28702 0.71959
 C298 C -0.06203 0.31300 0.72165
 C299 C -0.11524 0.27869 0.74334
 C300 C -0.16969 0.18152 0.78311
 C301 C -0.22215 0.20741 0.78590
 C302 C -0.22076 0.26927 0.76816
 C303 C -0.16789 0.30485 0.74710
 H304 H -0.17308 0.13308 0.79727
 H305 H -0.26386 0.17959 0.80202
 H306 H -0.26102 0.28971 0.77070
 H307 H -0.16852 0.35321 0.73410
 H308 H 0.03486 0.21028 0.73608
 H309 H 0.03228 0.31256 0.70319
 C310 C 0.73129 -0.04425 0.10332
 C311 C 0.80545 0.01181 0.09474
 C312 C 0.81360 0.05495 0.06868
 C313 C 0.75028 0.04399 0.05116
 C314 C 0.67628 -0.01030 0.05908
 C315 C 0.66599 -0.05378 0.08572
 C316 C 0.72048 -0.09188 0.12881
 C317 C 0.64733 -0.14398 0.13762
 C318 C 0.58368 -0.14980 0.12132
 C319 C 0.59256 -0.10526 0.09565
 H320 H 0.76811 -0.08982 0.14211
 H321 H 0.64000 -0.17960 0.15733
 H322 H 0.52704 -0.18933 0.12855
 H323 H 0.54131 -0.11109 0.08406
 H324 H 0.86979 0.09761 0.06178
 H325 H 0.75936 0.07800 0.03099
 C326 C 0.27682 0.25483 0.39506
 C327 C 0.25867 0.28061 0.41831
 C328 C 0.29656 0.35992 0.42270
 C329 C 0.35389 0.41344 0.40510
 C330 C 0.37502 0.38898 0.38271
 C331 C 0.33553 0.30940 0.37714
 C332 C 0.23642 0.17626 0.38877
 C333 C 0.25386 0.15196 0.36551
 C334 C 0.31115 0.20519 0.34798
 C335 C 0.35153 0.28311 0.35359
 H336 H 0.19040 0.13310 0.40146
 H337 H 0.22230 0.09161 0.36093
 H338 H 0.32397 0.18617 0.32978
 H339 H 0.39433 0.32239 0.33904
 H340 H 0.28216 0.38036 0.44013
 H341 H 0.38318 0.47411 0.40937
 C342 C -0.11216 0.69420 0.73244
 C343 C -0.08579 0.68826 0.76107
 C344 C -0.05409 0.63895 0.76916
 C345 C -0.04741 0.59559 0.74967
 C346 C -0.07265 0.59999 0.72155
 C347 C -0.10510 0.64949 0.71267
 C348 C -0.14334 0.74384 0.72223
 C349 C -0.15807 0.79702 0.73505
 C350 C -0.12754 0.65752 0.68426
 H351 H -0.14464 0.77331 0.73912
 H352 H -0.18421 0.83458 0.72253
 H353 H 0.12880 0.72140 0.57414
 H354 H -0.12217 0.62807 0.66760
 H355 H -0.03271 0.63535 0.79072
 H356 H -0.02229 0.55825 0.75659
   
