data_POSCAR
  _audit_creation_date              2014-09-24
  _audit_creation_method            'ToBaCCo'
  _symmetry_space_group_name_H-M    'P1'
  _symmetry_Int_Tables_number       1
  _symmetry_cell_setting            triclinic
  loop_
  _symmetry_equiv_pos_as_xyz
 x,y,z
_cell_length_a 25.5118
_cell_length_b 25.5337
_cell_length_c 25.4357
_cell_angle_alpha 90.000000
_cell_angle_beta 90.000000
_cell_angle_gamma 88.856300
loop_
  _atom_site_label
  _atom_site_type_symbol
  _atom_site_fract_x
  _atom_site_fract_y
  _atom_site_fract_z
Zn1 Zn 0.79168 0.70747 0.78446
 Zn2 Zn 0.78650 0.79299 0.70553
 Zn3 Zn 0.70525 0.70988 0.70447
 Zn4 Zn 0.70664 0.78982 0.79061
 O5 O 0.74741 0.74991 0.74626
 O6 O 0.85982 0.71814 0.77123
 O7 O 0.77479 0.78407 0.63712
 O8 O 0.71796 0.64077 0.71241
 O9 O 0.85546 0.78308 0.71377
 O10 O 0.78192 0.63972 0.77131
 O11 O 0.71360 0.72368 0.63547
 O12 O 0.63818 0.78068 0.78051
 O13 O 0.77426 0.86073 0.71878
 O14 O 0.63670 0.71968 0.71864
 O15 O 0.71662 0.85903 0.78372
 O16 O 0.71783 0.77404 0.85829
 O17 O 0.78261 0.71503 0.85406
 C18 C 0.88190 0.75069 0.74117
 C19 C 0.74401 0.75486 0.61198
 C20 C 0.75063 0.61597 0.74129
 C21 C 0.61321 0.75022 0.75071
 C22 C 0.74527 0.88418 0.75208
 C23 C 0.75010 0.74262 0.88042
 Zn24 Zn 0.20525 0.70988 0.70447
 Zn25 Zn 0.20664 0.78983 0.79061
 Zn26 Zn 0.29168 0.70747 0.78446
 Zn27 Zn 0.28650 0.79299 0.70553
 O28 O 0.24741 0.74991 0.74626
 O29 O 0.13670 0.71968 0.71864
 O30 O 0.21783 0.77404 0.85829
 O31 O 0.28192 0.63972 0.77131
 O32 O 0.13818 0.78068 0.78051
 O33 O 0.21796 0.64077 0.71241
 O34 O 0.28261 0.71503 0.85406
 O35 O 0.35546 0.78309 0.71377
 O36 O 0.21662 0.85904 0.78372
 O37 O 0.35982 0.71815 0.77123
 O38 O 0.27426 0.86073 0.71877
 O39 O 0.27479 0.78407 0.63712
 O40 O 0.21359 0.72368 0.63547
 C41 C 0.11321 0.75022 0.75071
 C42 C 0.25010 0.74262 0.88042
 C43 C 0.25063 0.61597 0.74129
 C44 C 0.38190 0.75069 0.74117
 C45 C 0.24527 0.88419 0.75208
 C46 C 0.24401 0.75486 0.61198
 Zn47 Zn 0.70525 0.20988 0.80013
 Zn48 Zn 0.79168 0.20747 0.72014
 Zn49 Zn 0.70664 0.28982 0.71399
 Zn50 Zn 0.78650 0.29299 0.79907
 O51 O 0.74741 0.24991 0.75834
 O52 O 0.71796 0.14077 0.79219
 O53 O 0.78261 0.21503 0.65054
 O54 O 0.63818 0.28068 0.72409
 O55 O 0.78192 0.13972 0.73329
 O56 O 0.63670 0.21968 0.78597
 O57 O 0.71783 0.27404 0.64632
 O58 O 0.77426 0.36073 0.78583
 O59 O 0.85982 0.21814 0.73337
 O60 O 0.71662 0.35903 0.72088
 O61 O 0.85546 0.28308 0.79083
 O62 O 0.77479 0.28407 0.86748
 O63 O 0.71360 0.22368 0.86913
 C64 C 0.75063 0.11597 0.76331
 C65 C 0.75010 0.24262 0.62418
 C66 C 0.61321 0.25022 0.75390
 C67 C 0.74527 0.38418 0.75252
 C68 C 0.88190 0.25069 0.76343
 C69 C 0.74402 0.25486 0.89262
 Zn70 Zn 0.29168 0.20747 0.72014
 Zn71 Zn 0.20525 0.20988 0.80014
 Zn72 Zn 0.28650 0.29299 0.79907
 Zn73 Zn 0.20664 0.28983 0.71399
 O74 O 0.24741 0.24991 0.75834
 O75 O 0.28192 0.13972 0.73330
 O76 O 0.21359 0.22368 0.86913
 O77 O 0.35546 0.28309 0.79083
 O78 O 0.21796 0.14077 0.79219
 O79 O 0.35982 0.21815 0.73338
 O80 O 0.27479 0.28407 0.86748
 O81 O 0.21662 0.35904 0.72088
 O82 O 0.13670 0.21968 0.78596
 O83 O 0.27426 0.36073 0.78583
 O84 O 0.13818 0.28068 0.72409
 O85 O 0.21783 0.27404 0.64632
 O86 O 0.28261 0.21503 0.65055
 C87 C 0.25063 0.11597 0.76331
 C88 C 0.24401 0.25486 0.89262
 C89 C 0.38190 0.25069 0.76343
 C90 C 0.24527 0.38418 0.75252
 C91 C 0.11321 0.25022 0.75389
 C92 C 0.25010 0.24262 0.62418
 Zn93 Zn 0.70525 0.70988 0.20447
 Zn94 Zn 0.78650 0.79299 0.20553
 Zn95 Zn 0.70664 0.78982 0.29061
 Zn96 Zn 0.79168 0.70747 0.28446
 O97 O 0.74741 0.74991 0.24626
 O98 O 0.71359 0.72369 0.13547
 O99 O 0.77426 0.86073 0.21878
 O100 O 0.63818 0.78068 0.28051
 O101 O 0.77479 0.78407 0.13712
 O102 O 0.63670 0.71968 0.21864
 O103 O 0.71662 0.85904 0.28372
 O104 O 0.78262 0.71503 0.35406
 O105 O 0.85546 0.78309 0.21377
 O106 O 0.71783 0.77403 0.35829
 O107 O 0.85982 0.71814 0.27122
 O108 O 0.78192 0.63972 0.27130
 O109 O 0.71796 0.64077 0.21241
 C110 C 0.74401 0.75487 0.11198
 C111 C 0.74527 0.88418 0.25208
 C112 C 0.61321 0.75022 0.25071
 C113 C 0.75010 0.74262 0.38042
 C114 C 0.88190 0.75069 0.24117
 C115 C 0.75063 0.61597 0.24129
 Zn116 Zn 0.28650 0.79299 0.20553
 Zn117 Zn 0.20525 0.70988 0.20447
 Zn118 Zn 0.29168 0.70747 0.28446
 Zn119 Zn 0.20664 0.78982 0.29061
 O120 O 0.24741 0.74991 0.24626
 O121 O 0.27479 0.78407 0.13712
 O122 O 0.21796 0.64077 0.21241
 O123 O 0.35982 0.71814 0.27123
 O124 O 0.21360 0.72368 0.13547
 O125 O 0.35546 0.78308 0.21378
 O126 O 0.28192 0.63972 0.27130
 O127 O 0.21783 0.77403 0.35829
 O128 O 0.13670 0.71968 0.21864
 O129 O 0.28261 0.71502 0.35406
 O130 O 0.13818 0.78068 0.28051
 O131 O 0.21662 0.85903 0.28372
 O132 O 0.27426 0.86073 0.21878
 C133 C 0.24401 0.75487 0.11198
 C134 C 0.25063 0.61597 0.24129
 C135 C 0.38190 0.75069 0.24117
 C136 C 0.25010 0.74261 0.38042
 C137 C 0.11321 0.75022 0.25071
 C138 C 0.24527 0.88418 0.25208
 Zn139 Zn 0.70664 0.28982 0.21399
 Zn140 Zn 0.79168 0.20747 0.22014
 Zn141 Zn 0.78650 0.29299 0.29907
 Zn142 Zn 0.70525 0.20988 0.30014
 O143 O 0.74741 0.24991 0.25834
 O144 O 0.71783 0.27403 0.14632
 O145 O 0.85982 0.21814 0.23338
 O146 O 0.77426 0.36073 0.28582
 O147 O 0.78262 0.21503 0.15055
 O148 O 0.71662 0.35904 0.22088
 O149 O 0.85546 0.28309 0.29083
 O150 O 0.71359 0.22369 0.36913
 O151 O 0.78192 0.13972 0.23330
 O152 O 0.77479 0.28407 0.36748
 O153 O 0.71796 0.14077 0.29219
 O154 O 0.63670 0.21968 0.28596
 O155 O 0.63818 0.28068 0.22409
 C156 C 0.75010 0.24262 0.12418
 C157 C 0.88190 0.25069 0.26343
 C158 C 0.74527 0.38418 0.25252
 C159 C 0.74401 0.25487 0.39262
 C160 C 0.75063 0.11597 0.26332
 C161 C 0.61321 0.25022 0.25389
 Zn162 Zn 0.20664 0.28982 0.21399
 Zn163 Zn 0.29168 0.20747 0.22014
 Zn164 Zn 0.28650 0.29299 0.29907
 Zn165 Zn 0.20525 0.20988 0.30014
 O166 O 0.24741 0.24991 0.25834
 O167 O 0.21783 0.27403 0.14632
 O168 O 0.35982 0.21814 0.23337
 O169 O 0.27426 0.36073 0.28582
 O170 O 0.28261 0.21502 0.15055
 O171 O 0.21662 0.35903 0.22088
 O172 O 0.35546 0.28308 0.29083
 O173 O 0.21360 0.22368 0.36913
 O174 O 0.28192 0.13972 0.23330
 O175 O 0.27479 0.28407 0.36748
 O176 O 0.21796 0.14077 0.29219
 O177 O 0.13670 0.21968 0.28597
 O178 O 0.13818 0.28068 0.22409
 C179 C 0.25010 0.24261 0.12418
 C180 C 0.38190 0.25069 0.26343
 C181 C 0.24527 0.38418 0.25252
 C182 C 0.24401 0.25487 0.39262
 C183 C 0.25063 0.11597 0.26331
 C184 C 0.11321 0.25022 0.25390
 C185 C -0.06064 0.75158 0.73742
 C186 C -0.03042 0.70925 0.74724
 C187 C 0.02714 0.70944 0.74134
 C188 C 0.05570 0.75096 0.75413
 H189 H -0.04841 0.67233 0.75661
 H190 H 0.04659 0.67321 0.72953
 H191 H -0.04310 0.78714 0.72306
 H192 H 0.03673 0.78547 0.77083
 C193 C 0.74562 -0.05820 0.75288
 C194 C 0.71902 -0.02921 0.78831
 C195 C 0.71854 0.02890 0.78938
 C196 C 0.75304 0.05834 0.76345
 H197 H 0.69501 -0.04854 0.81726
 H198 H 0.68853 0.04789 0.81319
 H199 H 0.76836 -0.03981 0.72245
 H200 H 0.78437 0.04034 0.74084
 C201 C 0.75007 0.73777 -0.06200
 C202 C 0.70654 0.74642 -0.03355
 C203 C 0.70558 0.74130 0.02421
 C204 C 0.74507 0.75750 0.05427
 H205 H 0.66966 0.75483 -0.05323
 H206 H 0.66999 0.72752 0.04234
 H207 H 0.78584 0.72423 -0.04296
 H208 H 0.77857 0.77569 0.03612
 C209 C 0.55570 0.75096 0.75413
 C210 C 0.52714 0.70944 0.74133
 C211 C 0.46958 0.70926 0.74723
 C212 C 0.43936 0.75158 0.73742
 H213 H 0.54659 0.67321 0.72953
 H214 H 0.45159 0.67233 0.75661
 H215 H 0.53673 0.78547 0.77083
 H216 H 0.45690 0.78714 0.72306
 C217 C 0.24562 -0.05819 0.75288
 C218 C 0.21902 -0.02921 0.78831
 C219 C 0.21854 0.02890 0.78938
 C220 C 0.25304 0.05834 0.76345
 H221 H 0.19501 -0.04854 0.81726
 H222 H 0.18853 0.04789 0.81319
 H223 H 0.26836 -0.03980 0.72245
 H224 H 0.28438 0.04034 0.74084
 C225 C 0.25007 0.73777 -0.06200
 C226 C 0.20654 0.74642 -0.03355
 C227 C 0.20558 0.74130 0.02421
 C228 C 0.24508 0.75749 0.05427
 H229 H 0.16966 0.75483 -0.05323
 H230 H 0.17000 0.72752 0.04234
 H231 H 0.28584 0.72423 -0.04296
 H232 H 0.27857 0.77568 0.03612
 C233 C -0.06064 0.25158 0.76718
 C234 C -0.03042 0.20925 0.75736
 C235 C 0.02714 0.20944 0.76327
 C236 C 0.05570 0.25096 0.75047
 H237 H -0.04841 0.17233 0.74799
 H238 H 0.04659 0.17321 0.77507
 H239 H -0.04310 0.28714 0.78154
 H240 H 0.03673 0.28547 0.73377
 C241 C 0.75304 0.55834 0.74115
 C242 C 0.71854 0.52890 0.71522
 C243 C 0.71902 0.47079 0.71629
 C244 C 0.74562 0.44180 0.75172
 H245 H 0.68853 0.54789 0.69141
 H246 H 0.69501 0.45146 0.68734
 H247 H 0.78438 0.54034 0.76376
 H248 H 0.76836 0.46019 0.78215
 C249 C 0.74508 0.25749 -0.04967
 C250 C 0.70558 0.24129 -0.01961
 C251 C 0.70654 0.24641 0.03815
 C252 C 0.75007 0.23776 0.06661
 H253 H 0.67000 0.22751 -0.03774
 H254 H 0.66966 0.25482 0.05783
 H255 H 0.77857 0.27568 -0.03152
 H256 H 0.78584 0.22423 0.04756
 C257 C 0.55570 0.25096 0.75047
 C258 C 0.52714 0.20944 0.76327
 C259 C 0.46958 0.20926 0.75737
 C260 C 0.43936 0.25158 0.76718
 H261 H 0.54659 0.17321 0.77507
 H262 H 0.45159 0.17233 0.74799
 H263 H 0.53673 0.28547 0.73377
 H264 H 0.45690 0.28714 0.78154
 C265 C 0.25304 0.55834 0.74115
 C266 C 0.21854 0.52890 0.71522
 C267 C 0.21902 0.47079 0.71629
 C268 C 0.24562 0.44181 0.75172
 H269 H 0.18853 0.54789 0.69141
 H270 H 0.19501 0.45146 0.68734
 H271 H 0.28438 0.54034 0.76376
 H272 H 0.26836 0.46020 0.78215
 C273 C 0.24507 0.25749 -0.04967
 C274 C 0.20558 0.24129 -0.01961
 C275 C 0.20654 0.24641 0.03815
 C276 C 0.25007 0.23776 0.06661
 H277 H 0.17000 0.22752 -0.03774
 H278 H 0.16966 0.25483 0.05783
 H279 H 0.27857 0.27568 -0.03152
 H280 H 0.28584 0.22422 0.04756
 C281 C -0.06064 0.75158 0.23742
 C282 C -0.03042 0.70926 0.24723
 C283 C 0.02714 0.70944 0.24133
 C284 C 0.05570 0.75096 0.25413
 H285 H -0.04841 0.67233 0.25661
 H286 H 0.04659 0.67321 0.22952
 H287 H -0.04310 0.78714 0.22306
 H288 H 0.03673 0.78547 0.27083
 C289 C 0.74562 -0.05819 0.25288
 C290 C 0.71902 -0.02921 0.28832
 C291 C 0.71854 0.02890 0.28939
 C292 C 0.75304 0.05834 0.26346
 H293 H 0.69502 -0.04854 0.31727
 H294 H 0.68853 0.04789 0.31320
 H295 H 0.76836 -0.03980 0.22246
 H296 H 0.78438 0.04034 0.24085
 C297 C 0.74508 0.75749 0.55427
 C298 C 0.70558 0.74129 0.52421
 C299 C 0.70654 0.74641 0.46645
 C300 C 0.75007 0.73776 0.43800
 H301 H 0.67000 0.72751 0.54234
 H302 H 0.66966 0.75482 0.44677
 H303 H 0.77857 0.77568 0.53612
 H304 H 0.78584 0.72423 0.45704
 C305 C 0.55570 0.75096 0.25413
 C306 C 0.52714 0.70944 0.24134
 C307 C 0.46958 0.70925 0.24724
 C308 C 0.43936 0.75158 0.23742
 H309 H 0.54659 0.67321 0.22953
 H310 H 0.45160 0.67233 0.25661
 H311 H 0.53673 0.78547 0.27083
 H312 H 0.45690 0.78714 0.22306
 C313 C 0.24562 -0.05820 0.25288
 C314 C 0.21902 -0.02921 0.28832
 C315 C 0.21854 0.02890 0.28939
 C316 C 0.25304 0.05834 0.26346
 H317 H 0.19501 -0.04854 0.31727
 H318 H 0.18853 0.04789 0.31320
 H319 H 0.26836 -0.03981 0.22246
 H320 H 0.28438 0.04034 0.24084
 C321 C 0.24507 0.75749 0.55427
 C322 C 0.20558 0.74129 0.52421
 C323 C 0.20654 0.74641 0.46645
 C324 C 0.25007 0.73776 0.43800
 H325 H 0.17000 0.72752 0.54234
 H326 H 0.16966 0.75483 0.44677
 H327 H 0.27857 0.77568 0.53612
 H328 H 0.28584 0.72422 0.45704
 C329 C -0.06064 0.25158 0.26718
 C330 C -0.03042 0.20926 0.25737
 C331 C 0.02714 0.20944 0.26327
 C332 C 0.05570 0.25096 0.25047
 H333 H -0.04841 0.17233 0.24800
 H334 H 0.04659 0.17321 0.27508
 H335 H -0.04310 0.28714 0.28154
 H336 H 0.03673 0.28547 0.23377
 C337 C 0.75304 0.55834 0.24114
 C338 C 0.71854 0.52890 0.21522
 C339 C 0.71902 0.47079 0.21628
 C340 C 0.74562 0.44181 0.25172
 H341 H 0.68853 0.54789 0.19141
 H342 H 0.69502 0.45146 0.18733
 H343 H 0.78438 0.54034 0.26376
 H344 H 0.76835 0.46020 0.28214
 C345 C 0.75007 0.23777 0.56661
 C346 C 0.70654 0.24642 0.53815
 C347 C 0.70558 0.24130 0.48039
 C348 C 0.74507 0.25750 0.45033
 H349 H 0.66966 0.25483 0.55783
 H350 H 0.66999 0.22752 0.46226
 H351 H 0.78584 0.22423 0.54756
 H352 H 0.77857 0.27569 0.46848
 C353 C 0.55570 0.25096 0.25047
 C354 C 0.52714 0.20944 0.26327
 C355 C 0.46958 0.20925 0.25736
 C356 C 0.43936 0.25158 0.26718
 H357 H 0.54659 0.17321 0.27507
 H358 H 0.45160 0.17233 0.24799
 H359 H 0.53673 0.28547 0.23377
 H360 H 0.45690 0.28714 0.28154
 C361 C 0.25304 0.55833 0.24114
 C362 C 0.21854 0.52890 0.21522
 C363 C 0.21902 0.47079 0.21629
 C364 C 0.24562 0.44180 0.25172
 H365 H 0.18853 0.54789 0.19141
 H366 H 0.19501 0.45146 0.18733
 H367 H 0.28438 0.54034 0.26376
 H368 H 0.26836 0.46019 0.28214
 C369 C 0.25007 0.23777 0.56661
 C370 C 0.20654 0.24642 0.53815
 C371 C 0.20558 0.24130 0.48039
 C372 C 0.24508 0.25749 0.45033
 H373 H 0.16966 0.25483 0.55783
 H374 H 0.17000 0.22752 0.46226
 H375 H 0.28584 0.22423 0.54756
 H376 H 0.27857 0.27568 0.46848
   
