data_POSCAR
  _audit_creation_date              2014-09-24
  _audit_creation_method            'ToBaCCo'
  _symmetry_space_group_name_H-M    'P1'
  _symmetry_Int_Tables_number       1
  _symmetry_cell_setting            triclinic
  loop_
  _symmetry_equiv_pos_as_xyz
 x,y,z
_cell_length_a 31.9820
_cell_length_b 32.6735
_cell_length_c 45.5313
_cell_angle_alpha 88.074400
_cell_angle_beta 87.229600
_cell_angle_gamma 91.829000
loop_
  _atom_site_label
  _atom_site_type_symbol
  _atom_site_fract_x
  _atom_site_fract_y
  _atom_site_fract_z
C1 C 0.01729 0.50758 0.98639
 C2 C 0.01712 0.50767 1.01633
 C3 C 0.01481 0.54616 1.03265
 C4 C 0.01947 0.46933 1.03459
 C5 C 0.02043 0.46902 0.97024
 C6 C 0.01481 0.54602 0.96826
 C7 C 0.04541 0.57769 1.02803
 C8 C 0.04280 0.61362 1.04380
 C9 C 0.00948 0.61858 1.06487
 C10 C -0.02088 0.58645 1.06931
 C11 C -0.01808 0.55068 1.05356
 C12 C 0.05075 0.46618 1.05501
 C13 C 0.05337 0.43074 1.07268
 C14 C 0.02492 0.39760 1.07022
 C15 C -0.00701 0.40101 1.05013
 C16 C -0.00981 0.43671 1.03258
 C17 C -0.01204 0.45696 0.95250
 C18 C -0.01077 0.41979 0.93827
 C19 C 0.02360 0.39424 0.94104
 C20 C 0.05638 0.40680 0.95852
 C21 C 0.05495 0.44394 0.97288
 C22 C -0.01808 0.57292 0.97279
 C23 C -0.01837 0.61021 0.95679
 C24 C 0.01392 0.62088 0.93548
 C25 C 0.04602 0.59324 0.93046
 C26 C 0.04638 0.55615 0.94658
 H27 H 0.07135 0.57445 1.01217
 H28 H 0.06696 0.63700 1.03890
 H29 H -0.04704 0.58876 1.08517
 H30 H -0.04190 0.52654 1.05751
 H31 H 0.07337 0.49117 1.05713
 H32 H 0.07796 0.42906 1.08819
 H33 H -0.03500 0.43903 1.01762
 H34 H -0.03902 0.47588 0.95037
 H35 H -0.03733 0.41101 0.92583
 H36 H 0.08313 0.38774 0.96117
 H37 H 0.08050 0.45295 0.98630
 H38 H -0.04312 0.56537 0.98913
 H39 H -0.04339 0.63068 0.96178
 H40 H 0.07128 0.60059 0.91424
 H41 H 0.07194 0.53575 0.94264
 H42 H -0.03043 0.37673 1.04834
 C43 C 0.49379 -0.01816 0.48559
 C44 C 0.49258 -0.00889 0.51452
 C45 C 0.45205 -0.00700 0.53151
 C46 C 0.53129 -0.00054 0.53041
 C47 C 0.53372 -0.02434 0.46860
 C48 C 0.45503 -0.02140 0.46908
 C49 C 0.43822 0.03061 0.54147
 C50 C 0.39903 0.03284 0.55622
 C51 C 0.37375 -0.00268 0.56201
 C52 C 0.38800 -0.04049 0.55241
 C53 C 0.42678 -0.04255 0.53711
 C54 C 0.56092 0.02933 0.51943
 C55 C 0.59822 0.03657 0.53326
 C56 C 0.60857 0.01345 0.56078
 C57 C 0.57433 -0.01701 0.57158
 C58 C 0.53788 -0.02276 0.55648
 C59 C 0.56172 -0.05389 0.47766
 C60 C 0.59883 -0.05972 0.46103
 C61 C 0.60844 -0.03644 0.43491
 C62 C 0.58033 -0.00661 0.42607
 C63 C 0.54324 -0.00095 0.44263
 C64 C 0.44511 -0.05760 0.45493
 C65 C 0.41012 -0.06002 0.43779
 C66 C 0.38455 -0.02619 0.43425
 C67 C 0.39475 0.01022 0.44845
 C68 C 0.42963 0.01248 0.46573
 H69 H 0.45734 0.05832 0.53719
 H70 H 0.38852 0.06229 0.56329
 H71 H 0.36877 -0.06823 0.55606
 H72 H 0.43707 -0.07179 0.52945
 H73 H 0.55519 0.04714 0.49962
 H74 H 0.62050 0.05950 0.52372
 H75 H 0.51473 -0.04561 0.56500
 H76 H 0.55469 -0.07257 0.49749
 H77 H 0.61997 -0.08271 0.46847
 H78 H 0.58681 0.01304 0.40675
 H79 H 0.52211 0.02218 0.43539
 H80 H 0.46467 -0.08390 0.45702
 H81 H 0.40330 -0.08830 0.42694
 H82 H 0.37689 0.03747 0.44574
 H83 H 0.43751 0.04105 0.47586
 H84 H 0.57820 -0.03547 0.59136
 C85 C 0.09115 -0.00041 0.26191
 H86 H 0.09847 -0.00204 0.23854
 C87 C 0.12353 0.00183 0.28136
 H88 H 0.15548 0.00303 0.27243
 C89 C 0.04032 0.00067 0.30145
 H90 H 0.00788 -0.00004 0.30927
 C91 C 0.07168 0.00284 0.32167
 H92 H 0.06299 0.00392 0.34492
 N93 N 0.05046 -0.00086 0.27215
 C94 C -0.01031 -0.05825 0.19943
 H95 H -0.03313 -0.03602 0.19390
 C96 C -0.00515 -0.09219 0.18195
 H97 H -0.02369 -0.09484 0.16283
 C98 C 0.04228 -0.08072 0.23049
 H99 H 0.06040 -0.07649 0.24962
 C100 C 0.04845 -0.11512 0.21362
 H101 H 0.07164 -0.13684 0.21980
 Zn102 Zn 0.00701 -0.00508 0.24526
 N103 N 0.01361 -0.05281 0.22298
 C104 C -0.02745 0.04890 0.20461
 N105 N 0.00759 0.04204 0.21954
 C106 C 0.04103 0.06890 0.21696
 C107 C 0.04046 0.10368 0.19829
 C108 C -0.02954 0.08336 0.18586
 C109 C -0.06653 -0.04473 0.27117
 C110 C -0.10493 -0.04674 0.28727
 C111 C -0.09887 0.02650 0.29286
 C112 C -0.06047 0.02696 0.27699
 N113 N -0.04518 -0.00828 0.26649
 H114 H -0.05429 0.02797 0.20770
 H115 H 0.06827 0.06371 0.22944
 H116 H 0.06795 0.12377 0.19701
 H117 H -0.05798 0.08802 0.17434
 H118 H -0.05365 -0.07232 0.26252
 H119 H -0.12112 -0.07621 0.29017
 H120 H -0.11042 0.05508 0.30091
 H121 H -0.04274 0.05551 0.27296
 C122 C 0.02460 -0.12124 0.18901
 C123 C 0.11389 0.00303 0.31179
 C124 C -0.12165 -0.01066 0.29851
 C125 C 0.00466 0.11148 0.18232
 C126 C -0.00917 0.09926 0.76269
 H127 H -0.00709 0.09855 0.73892
 C128 C -0.00728 0.13667 0.77649
 H129 H -0.00369 0.16476 0.76315
 C130 C -0.01695 0.06331 0.80879
 H131 H -0.02153 0.03465 0.82124
 C132 C -0.01532 0.10016 0.82356
 H133 H -0.01898 0.09906 0.84729
 N134 N -0.01346 0.06355 0.77889
 C135 C 0.03714 -0.01981 0.71441
 H136 H 0.01038 -0.04010 0.71148
 C137 C 0.07462 -0.02496 0.69806
 H138 H 0.07648 -0.04925 0.68250
 C139 C 0.06793 0.03513 0.73939
 H140 H 0.06552 0.05792 0.75598
 C141 C 0.10622 0.03037 0.72407
 H142 H 0.13290 0.04997 0.72866
 Zn143 Zn -0.01619 0.01511 0.75732
 N144 N 0.03423 0.01039 0.73420
 C145 C -0.06061 0.01899 0.70396
 N146 N -0.06342 0.01908 0.73386
 C147 C -0.10092 0.02266 0.74872
 C148 C -0.13777 0.02427 0.73363
 C149 C -0.09675 0.02068 0.68789
 C150 C 0.00849 -0.03936 0.80169
 C151 C 0.00669 -0.07474 0.81990
 C152 C -0.05792 -0.09509 0.79827
 C153 C -0.05484 -0.05933 0.78056
 N154 N -0.02212 -0.03217 0.78267
 H155 H -0.03042 0.01745 0.69245
 H156 H -0.10220 0.02343 0.77248
 H157 H -0.16730 0.02623 0.74615
 H158 H -0.09310 0.01949 0.66425
 H159 H 0.03455 -0.01756 0.80258
 H160 H 0.03162 -0.07878 0.83476
 H161 H -0.08424 -0.11627 0.79600
 H162 H -0.07827 -0.05382 0.76474
 C163 C 0.10970 0.00040 0.70290
 C164 C -0.01004 0.13754 0.80729
 C165 C -0.02685 -0.10359 0.81822
 C166 C -0.13632 0.02289 0.70279
 C167 C 0.00500 -0.34751 0.08088
 C168 C 0.03308 -0.31358 0.08036
 C169 C 0.02523 -0.27748 0.09840
 C170 C 0.05940 -0.25431 0.10787
 C171 C 0.05304 -0.22035 0.12523
 C172 C 0.01218 -0.20879 0.13334
 C173 C -0.02195 -0.23114 0.12302
 C174 C -0.01559 -0.26515 0.10576
 C175 C 0.00394 -0.17298 0.15159
 C176 C 0.03257 -0.15727 0.17090
 H177 H 0.06293 -0.31382 0.06825
 H178 H 0.09114 -0.26273 0.10201
 H179 H 0.08017 -0.20300 0.13181
 H180 H -0.05371 -0.22238 0.12845
 H181 H -0.04269 -0.28124 0.09787
 H182 H -0.02686 -0.16031 0.15101
 H183 H -0.02216 -0.34670 0.09602
 H184 H 0.06130 -0.17310 0.17407
 C185 C 0.02897 0.36085 0.08963
 C186 C 0.01401 0.32172 0.08306
 C187 C 0.01931 0.28482 0.10222
 C188 C -0.00657 0.25000 0.09873
 C189 C -0.00274 0.21459 0.11640
 C190 C 0.02717 0.21334 0.13808
 C191 C 0.05385 0.24774 0.14095
 C192 C 0.05010 0.28305 0.12326
 C193 C 0.03241 0.17677 0.15759
 C194 C 0.00119 0.14605 0.16332
 H195 H -0.00270 0.31768 0.06320
 H196 H -0.02997 0.25021 0.08230
 H197 H -0.02285 0.18831 0.11255
 H198 H 0.07771 0.24737 0.15705
 H199 H 0.07193 0.30841 0.12596
 H200 H 0.06148 0.17570 0.16861
 H201 H 0.04553 0.36508 0.10950
 H202 H -0.02825 0.14934 0.15289
 C203 C 0.33216 0.00063 0.57712
 C204 C 0.31497 -0.02982 0.59670
 C205 C 0.27369 -0.02599 0.61213
 C206 C 0.26750 -0.04097 0.64129
 C207 C 0.22880 -0.03733 0.65644
 C208 C 0.19533 -0.01953 0.64237
 C209 C 0.20109 -0.00583 0.61289
 C210 C 0.24011 -0.00855 0.59796
 C211 C 0.15414 -0.01565 0.65790
 C212 C 0.15055 -0.00501 0.68729
 H213 H 0.33365 -0.05562 0.60266
 H214 H 0.29284 -0.05498 0.65248
 H215 H 0.22486 -0.04899 0.67898
 H216 H 0.17554 0.00756 0.60156
 H217 H 0.24381 0.00235 0.57523
 H218 H 0.12628 -0.01774 0.64534
 H219 H 0.31596 0.02902 0.57437
 H220 H 0.17867 0.00270 0.69855
 C221 C -0.34588 0.02150 0.57685
 C222 C -0.33743 0.00330 0.60383
 C223 C -0.29676 0.00940 0.61750
 C224 C -0.29159 -0.00799 0.64562
 C225 C -0.25344 -0.00349 0.65906
 C226 C -0.21957 0.01869 0.64463
 C227 C -0.22455 0.03568 0.61634
 C228 C -0.26284 0.03136 0.60293
 C229 C -0.17838 0.02298 0.65799
 C230 C -0.17443 0.02263 0.68851
 H231 H -0.36134 -0.01613 0.61541
 H232 H -0.31708 -0.02541 0.65716
 H233 H -0.25037 -0.01826 0.68044
 H234 H -0.19879 0.05250 0.60463
 H235 H -0.26567 0.04490 0.58112
 H236 H -0.15124 0.02810 0.64312
 H237 H -0.36929 0.01648 0.56947
 H238 H -0.20304 0.02234 0.70228
 C239 C 0.01653 -0.33915 0.91891
 C240 C -0.01612 -0.31177 0.91776
 C241 C -0.01183 -0.27141 0.90181
 C242 C -0.04800 -0.25242 0.89273
 C243 C -0.04520 -0.21443 0.87755
 C244 C -0.00595 -0.19457 0.87112
 C245 C 0.03007 -0.21295 0.88108
 C246 C 0.02726 -0.25091 0.89626
 C247 C -0.00129 -0.15452 0.85476
 C248 C -0.03062 -0.14059 0.83515
 H249 H -0.04669 -0.32074 0.92747
 H250 H -0.07858 -0.26713 0.89729
 H251 H -0.07389 -0.20060 0.87136
 H252 H 0.06060 -0.19797 0.87695
 H253 H 0.05573 -0.26363 0.90393
 H254 H 0.02763 -0.13729 0.85715
 H255 H 0.04546 -0.33162 0.90629
 H256 H -0.05767 -0.16037 0.83189
 C257 C 0.02571 0.35386 0.92710
 C258 C 0.00058 0.34223 0.90428
 C259 C 0.00093 0.30137 0.89098
 C260 C -0.01904 0.29636 0.86450
 C261 C -0.02041 0.25840 0.85129
 C262 C -0.00150 0.22441 0.86424
 C263 C 0.01773 0.22914 0.89104
 C264 C 0.01897 0.26714 0.90433
 C265 C -0.00236 0.18353 0.85098
 C266 C -0.00867 0.17796 0.82117
 H267 H -0.01950 0.36451 0.89469
 H268 H -0.03390 0.32195 0.85399
 H269 H -0.03704 0.25586 0.83129
 H270 H 0.03189 0.20331 0.90176
 H271 H 0.03346 0.26910 0.92521
 H272 H 0.00439 0.15743 0.86498
 H273 H 0.04904 0.33327 0.93463
 H274 H -0.01082 0.20467 0.80671
 C275 C -0.35170 -0.04348 0.41805
 C276 C -0.34318 -0.02949 0.38895
 C277 C -0.30246 -0.03434 0.37283
 C278 C -0.29025 -0.00590 0.35003
 C279 C -0.25190 -0.00893 0.33440
 C280 C -0.22508 -0.04081 0.34113
 C281 C -0.23791 -0.07016 0.36321
 C282 C -0.27615 -0.06688 0.37909
 C283 C -0.18419 -0.04446 0.32501
 C284 C -0.16023 -0.00988 0.31466
 H285 H -0.36636 -0.01266 0.37752
 H286 H -0.31030 0.01903 0.34446
 H287 H -0.24359 0.01339 0.31681
 H288 H -0.21806 -0.09540 0.36840
 H289 H -0.28521 -0.09018 0.39582
 H290 H -0.17191 -0.07478 0.32345
 H291 H -0.32815 -0.06024 0.42924
 H292 H -0.17166 0.01984 0.32039
 C293 C 0.34921 -0.02967 0.41443
 C294 C 0.31785 -0.00100 0.41230
 C295 C 0.28459 -0.00332 0.39077
 C296 C 0.24859 0.01953 0.39541
 C297 C 0.21687 0.01897 0.37535
 C298 C 0.22046 -0.00468 0.35013
 C299 C 0.25685 -0.02686 0.34519
 C300 C 0.28862 -0.02618 0.36520
 C301 C 0.18789 -0.00610 0.32806
 C302 C 0.14654 0.00512 0.33376
 H303 H 0.31639 0.02358 0.42757
 H304 H 0.24505 0.03805 0.41461
 H305 H 0.19014 0.03771 0.37953
 H306 H 0.26079 -0.04474 0.32570
 H307 H 0.31648 -0.04296 0.36009
 H308 H 0.19653 -0.01874 0.30706
 H309 H 0.34767 -0.05664 0.40135
 H310 H 0.13668 0.01349 0.35573
   
