data_POSCAR
  _audit_creation_date              2014-09-24
  _audit_creation_method            'ToBaCCo'
  _symmetry_space_group_name_H-M    'P1'
  _symmetry_Int_Tables_number       1
  _symmetry_cell_setting            triclinic
  loop_
  _symmetry_equiv_pos_as_xyz
 x,y,z
_cell_length_a 46.9026
_cell_length_b 46.1310
_cell_length_c 49.4498
_cell_angle_alpha 88.334600
_cell_angle_beta 91.498100
_cell_angle_gamma 90.513100
loop_
  _atom_site_label
  _atom_site_type_symbol
  _atom_site_fract_x
  _atom_site_fract_y
  _atom_site_fract_z
N1 N 0.19972 1.24205 0.19074
 N2 N 0.18213 1.24432 0.21083
 C3 C 0.16436 1.26660 0.20543
 C4 C 0.17114 1.27897 0.18060
 C5 C 0.19380 1.26288 0.17184
 H6 H 0.14739 1.27300 0.21834
 H7 H 0.20502 1.26578 0.15313
 Cu8 Cu 0.18300 1.21705 0.24142
 Cu9 Cu 0.22877 1.21207 0.19050
 Cu10 Cu 0.23082 1.16363 0.24558
 N11 N 0.17730 1.18300 0.26477
 N12 N 0.19618 1.16210 0.26633
 C13 C 0.18715 1.14115 0.28363
 C14 C 0.16110 1.14923 0.29329
 C15 C 0.15544 1.17602 0.28092
 H16 H 0.19854 1.12130 0.28852
 H17 H 0.13682 1.18932 0.28308
 N18 N 0.25767 1.16232 0.21577
 N19 N 0.25664 1.18030 0.19451
 C20 C 0.27667 1.17261 0.17708
 C21 C 0.29079 1.14858 0.18794
 C22 C 0.27821 1.14267 0.21240
 H23 H 0.28017 1.18323 0.15767
 H24 H 0.28310 1.12479 0.22634
 H25 H 0.20703 1.18208 0.21445
 H26 H 0.23303 1.20681 0.23144
 N27 N 0.82835 0.72718 0.17054
 N28 N 0.84031 0.72221 0.19454
 C29 C 0.86007 0.70141 0.19276
 C30 C 0.86049 0.69290 0.16622
 C31 C 0.84004 0.70968 0.15264
 H32 H 0.87355 0.69349 0.20939
 H33 H 0.83421 0.70947 0.13136
 Cu34 Cu 0.83022 0.74463 0.22538
 Cu35 Cu 0.79853 0.75593 0.16435
 Cu36 Cu 0.78146 0.79726 0.21909
 N37 N 0.82873 0.77543 0.25120
 N38 N 0.80992 0.79633 0.24852
 C39 C 0.81415 0.81511 0.26862
 C40 C 0.83703 0.80539 0.28467
 C41 C 0.84565 0.78014 0.27304
 H42 H 0.80167 0.83441 0.27101
 H43 H 0.86328 0.76650 0.27969
 N44 N 0.76181 0.80115 0.18348
 N45 N 0.76874 0.78588 0.16249
 C46 C 0.75202 0.79388 0.14108
 C47 C 0.73371 0.81510 0.14895
 C48 C 0.74048 0.81928 0.17597
 H49 H 0.75292 0.78491 0.12116
 H50 H 0.73092 0.83456 0.18912
 H51 H 0.81260 0.78293 0.19484
 H52 H 0.78404 0.75598 0.20303
 N53 N 0.80981 1.24401 -0.16803
 N54 N 0.83039 1.24558 -0.18557
 C55 C 0.84924 1.26624 -0.17802
 C56 C 0.83985 1.27816 -0.15450
 C57 C 0.81479 1.26361 -0.14881
 H58 H 0.86854 1.27174 -0.18853
 H59 H 0.80163 1.26652 -0.13148
 Cu60 Cu 0.83092 1.21968 -0.21594
 Cu61 Cu 0.77935 1.21518 -0.17009
 Cu62 Cu 0.77985 1.16879 -0.22402
 N63 N 0.83036 1.19424 -0.24667
 N64 N 0.81019 1.17456 -0.24985
 C65 C 0.81495 1.15982 -0.27238
 C66 C 0.83957 1.17083 -0.28388
 C67 C 0.84872 1.19263 -0.26706
 H68 H 0.80167 1.14220 -0.27948
 H69 H 0.86753 1.20610 -0.26946
 N70 N 0.75094 1.16647 -0.19577
 N71 N 0.75046 1.18450 -0.17554
 C72 C 0.72912 1.17666 -0.15909
 C73 C 0.71562 1.15246 -0.16942
 C74 C 0.72998 1.14657 -0.19261
 H75 H 0.72462 1.18692 -0.14032
 H76 H 0.72595 1.12853 -0.20569
 H77 H 0.80178 1.18474 -0.19073
 H78 H 0.77988 1.21105 -0.21159
 N79 N 0.17772 0.78524 -0.18140
 N80 N 0.15752 0.78761 -0.20025
 C81 C 0.13900 0.76536 -0.19736
 C82 C 0.14793 0.74826 -0.17545
 C83 C 0.17262 0.76147 -0.16574
 H84 H 0.12016 0.76202 -0.21001
 H85 H 0.18575 0.75459 -0.14849
 Cu86 Cu 0.15652 0.81982 -0.22639
 Cu87 Cu 0.20849 0.81371 -0.17811
 Cu88 Cu 0.20872 0.86981 -0.22629
 N89 N 0.16198 0.84626 -0.25716
 N90 N 0.18269 0.86562 -0.25717
 C91 C 0.18065 0.88215 -0.27999
 C92 C 0.15730 0.87275 -0.29505
 C93 C 0.14597 0.84977 -0.28001
 H94 H 0.19448 0.90037 -0.28482
 H95 H 0.12709 0.83710 -0.28476
 N96 N 0.23765 0.86614 -0.19692
 N97 N 0.23760 0.84491 -0.17843
 C98 C 0.25925 0.84930 -0.16049
 C99 C 0.27358 0.87443 -0.16825
 C100 C 0.25941 0.88441 -0.19141
 H101 H 0.26383 0.83559 -0.14285
 H102 H 0.26424 0.90403 -0.20296
 H103 H 0.18695 0.84796 -0.19548
 H104 H 0.20764 0.82570 -0.21888
 C105 C 0.55533 1.02419 -0.00743
 H106 H 0.56557 1.01047 0.00789
 C107 C 0.57217 1.04118 -0.02464
 H108 H 0.59514 1.04022 -0.02221
 C109 C 0.51322 1.04349 -0.02804
 H110 H 0.49027 1.04466 -0.02913
 C111 C 0.52927 1.06111 -0.04546
 H112 H 0.51848 1.07553 -0.05999
 N113 N 0.52636 1.02522 -0.00963
 C114 C 0.46220 1.01083 0.05144
 H115 H 0.45954 0.98754 0.05062
 C116 C 0.44454 1.02685 0.06756
 H117 H 0.42882 1.01525 0.07929
 C118 C 0.48662 1.05349 0.03707
 H119 H 0.50306 1.06374 0.02513
 C120 C 0.46936 1.07039 0.05285
 H121 H 0.47266 1.09366 0.05285
 Zn122 Zn 0.50403 1.00109 0.01374
 N123 N 0.48258 1.02430 0.03649
 C124 C 0.52966 0.97876 0.06250
 N125 N 0.52858 0.97649 0.03514
 C126 C 0.54588 0.95788 0.02262
 C127 C 0.56532 0.94074 0.03761
 C128 C 0.54879 0.96208 0.07831
 C129 C 0.45514 0.99353 -0.01875
 C130 C 0.43443 0.97905 -0.03412
 C131 C 0.45951 0.93432 -0.02453
 C132 C 0.47969 0.94972 -0.00923
 N133 N 0.47750 0.97893 -0.00704
 H134 H 0.51607 0.99393 0.07214
 H135 H 0.54499 0.95680 0.00078
 H136 H 0.57849 0.92639 0.02658
 H137 H 0.54938 0.96457 0.10004
 H138 H 0.45295 1.01647 -0.01564
 H139 H 0.41703 0.99178 -0.04259
 H140 H 0.46191 0.91109 -0.02611
 H141 H 0.49692 0.93813 0.00093
 C142 C 0.44771 1.05721 0.06810
 C143 C 0.55909 1.05970 -0.04419
 C144 C 0.43654 0.94889 -0.03753
 C145 C 0.56729 0.94290 0.06601
 C146 C 0.01478 0.53705 1.02727
 H147 H 0.03761 0.54071 1.02785
 C148 C -0.00288 0.55411 1.04250
 H149 H 0.00677 0.57100 1.05446
 C150 C -0.02522 0.51165 1.00937
 H151 H -0.03394 0.49557 0.99597
 C152 C -0.04364 0.52815 1.02428
 H153 H -0.06643 0.52435 1.02239
 N154 N 0.00344 0.51623 1.01122
 C155 C 0.07144 0.45457 0.99843
 H156 H 0.07163 0.45495 0.97655
 C157 C 0.08923 0.43561 1.01334
 H158 H 0.10322 0.42148 1.00278
 C159 C 0.05240 0.47204 1.03870
 H160 H 0.03777 0.48603 1.04851
 C161 C 0.06980 0.45337 1.05441
 H162 H 0.06871 0.45402 1.07618
 Zn163 Zn 0.02853 0.49566 0.98948
 N164 N 0.05352 0.47231 1.01124
 C165 C 0.07805 0.52470 0.96973
 N166 N 0.04908 0.52358 0.96886
 C167 C 0.03360 0.54358 0.95429
 C168 C 0.04715 0.56571 0.93953
 C169 C 0.09255 0.54638 0.95519
 C170 C -0.00627 0.44788 0.97864
 C171 C -0.02216 0.42839 0.96317
 C172 C -0.00873 0.45561 0.92295
 C173 C 0.00695 0.47454 0.93925
 N174 N 0.00756 0.47059 0.96660
 H175 H 0.09002 0.50902 0.98192
 H176 H 0.01054 0.54247 0.95438
 H177 H 0.03375 0.58114 0.92858
 H178 H 0.11566 0.54683 0.95627
 H179 H -0.00496 0.44497 1.00043
 H180 H -0.03255 0.41068 0.97381
 H181 H -0.00905 0.45936 0.90120
 H182 H 0.01861 0.49233 0.92998
 C183 C 0.08828 0.43451 1.04167
 C184 C -0.03259 0.54967 1.04116
 C185 C -0.02385 0.43221 0.93474
 C186 C 0.07723 0.56742 0.93977
 C187 C 1.01530 -0.01600 0.51317
 H188 H 1.02527 -0.00121 0.49890
 C189 C 1.03233 -0.03269 0.53113
 H190 H 1.05526 -0.03098 0.52981
 C191 C 0.97337 -0.03611 0.53207
 H192 H 0.95032 -0.03707 0.53242
 C193 C 0.98955 -0.05323 0.55031
 H194 H 0.97882 -0.06743 0.56468
 N195 N 0.98637 -0.01810 0.51387
 C196 C 0.98303 0.05882 0.46840
 H197 H 0.96908 0.06901 0.48226
 C198 C 0.99932 0.07605 0.45086
 H199 H 0.99797 0.09944 0.45160
 C200 C 1.00129 0.01613 0.45006
 H201 H 1.00188 -0.00731 0.44992
 C202 C 1.01798 0.03249 0.43221
 H203 H 1.03169 0.02114 0.41895
 Zn204 Zn 0.96247 0.00516 0.49089
 N205 N 0.98452 0.02941 0.46788
 C206 C 0.95435 0.04464 0.53136
 N207 N 0.94006 0.02739 0.51369
 C208 C 0.91119 0.02470 0.51398
 C209 C 0.89554 0.03996 0.53247
 C210 C 0.93960 0.06045 0.55005
 C211 C 0.94279 -0.04764 0.46877
 C212 C 0.92744 -0.06476 0.45057
 C213 C 0.90511 -0.02139 0.43186
 C214 C 0.92101 -0.00512 0.45037
 N215 N 0.93941 -0.01840 0.46832
 H216 H 0.97740 0.04576 0.53115
 H217 H 0.90028 0.01024 0.50029
 H218 H 0.87256 0.03726 0.53249
 H219 H 0.95204 0.07329 0.56401
 H220 H 0.95790 -0.05777 0.48283
 H221 H 0.93078 -0.08787 0.45193
 H222 H 0.89080 -0.01022 0.41759
 H223 H 0.91903 0.01823 0.45017
 C224 C 1.01700 0.06297 0.43236
 C225 C 1.01940 -0.05142 0.55021
 C226 C 0.90850 -0.05163 0.43134
 C227 C 0.90961 0.05826 0.55088
 C228 C 0.15704 0.30221 1.16760
 C229 C 0.16425 0.31311 1.14197
 C230 C 0.14853 0.33683 1.12744
 C231 C 0.15033 0.33942 1.09920
 C232 C 0.13541 0.36108 1.08458
 C233 C 0.11861 0.38097 1.09804
 C234 C 0.11709 0.37858 1.12632
 C235 C 0.13201 0.35692 1.14093
 C236 C 0.10148 0.40359 1.08339
 C237 C 0.10670 0.41345 1.05695
 H238 H 0.18107 0.30285 1.13124
 H239 H 0.16290 0.32424 1.08830
 H240 H 0.13662 0.36154 1.06278
 H241 H 0.10436 0.39363 1.13720
 H242 H 0.13071 0.35629 1.16273
 H243 H 0.08394 0.41253 1.09408
 H244 H 0.13926 0.31134 1.17784
 H245 H 0.12441 0.40469 1.04636
 C246 C -0.12032 0.67126 1.15528
 C247 C -0.12087 0.66451 1.12793
 C248 C -0.10139 0.64365 1.11578
 C249 C -0.10794 0.63412 1.08963
 C250 C -0.08994 0.61506 1.07695
 C251 C -0.06490 0.60498 1.09024
 C252 C -0.05811 0.61482 1.11623
 C253 C -0.07611 0.63392 1.12893
 C254 C -0.04481 0.58545 1.07718
 C255 C -0.05277 0.56784 1.05567
 H256 H -0.13675 0.67467 1.11461
 H257 H -0.12701 0.64161 1.07884
 H258 H -0.09548 0.60891 1.05653
 H259 H -0.03871 0.60778 1.12674
 H260 H -0.06971 0.64132 1.14872
 H261 H -0.02333 0.58425 1.08560
 H262 H -0.10567 0.66049 1.16940
 H263 H -0.07503 0.56652 1.04951
 C264 C -0.14629 0.30017 0.86249
 C265 C -0.11957 0.31216 0.85688
 C266 C -0.10425 0.33268 0.87481
 C267 C -0.08123 0.34881 0.86453
 C268 C -0.06569 0.36782 0.88093
 C269 C -0.07295 0.37114 0.90810
 C270 C -0.09567 0.35465 0.91849
 C271 C -0.11115 0.33563 0.90212
 C272 C -0.05681 0.39046 0.92657
 C273 C -0.03967 0.41371 0.91766
 H274 H -0.10940 0.30651 0.83839
 H275 H -0.07511 0.34657 0.84372
 H276 H -0.04772 0.37926 0.87232
 H277 H -0.10143 0.35639 0.93945
 H278 H -0.12799 0.32293 0.91126
 H279 H -0.05996 0.38658 0.94791
 H280 H -0.15764 0.30666 0.88003
 H281 H -0.03902 0.41837 0.89612
 C282 C 0.13294 0.72232 0.83513
 C283 C 0.14154 0.70759 0.85899
 C284 C 0.12581 0.68252 0.87108
 C285 C 0.13900 0.66625 0.89225
 C286 C 0.12473 0.64298 0.90483
 C287 C 0.09684 0.63536 0.89636
 C288 C 0.08357 0.65180 0.87538
 C289 C 0.09777 0.67511 0.86288
 C290 C 0.08030 0.61155 0.90956
 C291 C 0.09259 0.58938 0.92587
 H292 H 0.16082 0.71467 0.86943
 H293 H 0.16039 0.67172 0.89929
 H294 H 0.13549 0.63164 0.92152
 H295 H 0.06195 0.64674 0.86870
 H296 H 0.08629 0.68742 0.84729
 H297 H 0.05761 0.61158 0.90537
 H298 H 0.11445 0.71513 0.82362
 H299 H 0.11560 0.58879 0.92784
 C300 C 1.14450 0.13276 0.31111
 C301 C 1.11833 0.14207 0.32043
 C302 C 1.10033 0.12394 0.33852
 C303 C 1.08080 0.13747 0.35495
 C304 C 1.06336 0.12101 0.37216
 C305 C 1.06505 0.09055 0.37312
 C306 C 1.08405 0.07703 0.35613
 C307 C 1.10154 0.09348 0.33903
 C308 C 1.04694 0.07206 0.39081
 C309 C 1.03437 0.08176 0.41420
 H310 H 1.11110 0.16379 0.31522
 H311 H 1.07908 0.16089 0.35455
 H312 H 1.04831 0.13228 0.38418
 H313 H 1.08543 0.05360 0.35612
 H314 H 1.11552 0.08217 0.32593
 H315 H 1.04420 0.04970 0.38529
 H316 H 1.15276 0.11195 0.31807
 H317 H 1.03717 0.10415 0.41965
 C318 C 1.14690 -0.11424 0.68087
 C319 C 1.12212 -0.12373 0.66737
 C320 C 1.10873 -0.10807 0.64375
 C321 C 1.08787 -0.12249 0.62819
 C322 C 1.07345 -0.10808 0.60673
 C323 C 1.07943 -0.07874 0.60056
 C324 C 1.10071 -0.06449 0.61570
 C325 C 1.11506 -0.07885 0.63721
 C326 C 1.06389 -0.06230 0.57873
 C327 C 1.03611 -0.06932 0.57016
 H328 H 1.11170 -0.14345 0.67443
 H329 H 1.08259 -0.14499 0.63273
 H330 H 1.05780 -0.12007 0.59500
 H331 H 1.10574 -0.04190 0.61132
 H332 H 1.13042 -0.06659 0.64897
 H333 H 1.07370 -0.04250 0.57109
 H334 H 1.15863 -0.09575 0.67291
 H335 H 1.02514 -0.08721 0.58012
 C336 C 0.84995 -0.18208 0.30729
 C337 C 0.84116 -0.15581 0.31766
 C338 C 0.85569 -0.14138 0.34077
 C339 C 0.84217 -0.11795 0.35249
 C340 C 0.85530 -0.10324 0.37387
 C341 C 0.88243 -0.11159 0.38387
 C342 C 0.89581 -0.13517 0.37241
 C343 C 0.88281 -0.14975 0.35095
 C344 C 0.89729 -0.09660 0.40632
 C345 C 0.89331 -0.06721 0.41144
 H346 H 0.82263 -0.14517 0.30859
 H347 H 0.82129 -0.11103 0.34513
 H348 H 0.84398 -0.08566 0.38269
 H349 H 0.91672 -0.14202 0.37976
 H350 H 0.89450 -0.16712 0.34232
 H351 H 0.91363 -0.10881 0.41725
 H352 H 0.86762 -0.19367 0.31680
 H353 H 0.87865 -0.05517 0.39817
 C354 C 0.85338 0.16206 0.69309
 C355 C 0.84324 0.13957 0.67696
 C356 C 0.85848 0.12878 0.65335
 C357 C 0.85033 0.10182 0.64300
 C358 C 0.86463 0.09025 0.62138
 C359 C 0.88732 0.10559 0.60945
 C360 C 0.89523 0.13270 0.61949
 C361 C 0.88085 0.14435 0.64102
 C362 C 0.90422 0.09329 0.58771
 C363 C 0.89335 0.07258 0.56991
 H364 H 0.82384 0.12826 0.68249
 H365 H 0.83319 0.08934 0.65205
 H366 H 0.85838 0.06895 0.61467
 H367 H 0.91264 0.14495 0.61064
 H368 H 0.88742 0.16553 0.64767
 H369 H 0.92549 0.10197 0.58534
 H370 H 0.87313 0.17306 0.68833
 H371 H 0.87078 0.06753 0.57054
 C372 C 0.31292 1.13103 0.17584
 C373 C 0.32532 1.13870 0.15128
 C374 C 0.34602 1.12010 0.13797
 C375 C 0.36463 1.13274 0.11916
 C376 C 0.38387 1.11570 0.10560
 C377 C 0.38473 1.08551 0.11053
 C378 C 0.36579 1.07284 0.12901
 C379 C 0.34667 1.08988 0.14264
 C380 C 0.40385 1.06636 0.09588
 C381 C 0.42911 1.07590 0.08395
 H382 H 0.32023 1.15945 0.14165
 H383 H 0.36420 1.15590 0.11485
 H384 H 0.39738 1.12620 0.09083
 H385 H 0.36566 1.04959 0.13282
 H386 H 0.33199 1.07915 0.15623
 H387 H 0.39756 1.04384 0.09493
 H388 H 0.31958 1.11154 0.18685
 H389 H 0.43552 1.09836 0.08581
 C390 C 0.69305 1.13447 -0.15714
 C391 C 0.67810 1.14337 -0.13485
 C392 C 0.65785 1.12439 -0.12005
 C393 C 0.63689 1.13710 -0.10461
 C394 C 0.61845 1.11985 -0.08910
 C395 C 0.62086 1.08948 -0.08856
 C396 C 0.64196 1.07679 -0.10384
 C397 C 0.66021 1.09401 -0.11953
 C398 C 0.60299 1.07059 -0.07110
 C399 C 0.57601 1.07839 -0.06266
 H400 H 0.68108 1.16532 -0.12804
 H401 H 0.63496 1.16047 -0.10434
 H402 H 0.60301 1.13044 -0.07695
 H403 H 0.64451 1.05346 -0.10343
 H404 H 0.67669 1.08346 -0.13046
 H405 H 0.61098 1.04921 -0.06561
 H406 H 0.68830 1.11370 -0.16590
 H407 H 0.56623 1.09799 -0.07096
 C408 C 0.29747 0.88940 -0.15455
 C409 C 0.30918 0.87992 -0.12964
 C410 C 0.33131 0.89651 -0.11452
 C411 C 0.34763 0.88227 -0.09407
 C412 C 0.36817 0.89741 -0.07890
 C413 C 0.37279 0.92726 -0.08394
 C414 C 0.35613 0.94154 -0.10409
 C415 C 0.33562 0.92645 -0.11919
 C416 C 0.39368 0.94463 -0.06807
 C417 C 0.41665 0.93273 -0.05295
 H418 H 0.30204 0.85945 -0.12084
 H419 H 0.34438 0.85934 -0.08972
 H420 H 0.37980 0.88572 -0.06296
 H421 H 0.35885 0.96461 -0.10809
 H422 H 0.32282 0.93860 -0.13397
 H423 H 0.39114 0.96784 -0.06973
 H424 H 0.30559 0.90882 -0.16450
 H425 H 0.41990 0.90957 -0.05364
 C426 C 0.71220 0.82985 0.13140
 C427 C 0.69257 0.84927 0.14116
 C428 C 0.67096 0.86423 0.12353
 C429 C 0.64593 0.87414 0.13500
 C430 C 0.62509 0.88841 0.11897
 C431 C 0.62915 0.89352 0.09112
 C432 C 0.65424 0.88362 0.07972
 C433 C 0.67500 0.86930 0.09571
 C434 C 0.60782 0.90859 0.07318
 C435 C 0.58706 0.92725 0.08258
 H436 H 0.69208 0.85269 0.16271
 H437 H 0.64231 0.87049 0.15638
 H438 H 0.60576 0.89488 0.12850
 H439 H 0.65797 0.88729 0.05836
 H440 H 0.69435 0.86276 0.08623
 H441 H 0.61008 0.90586 0.05175
 H442 H 0.71144 0.82437 0.11027
 H443 H 0.58673 0.93082 0.10409
   
