data_POSCAR
  _audit_creation_date              2014-09-24
  _audit_creation_method            'ToBaCCo'
  _symmetry_space_group_name_H-M    'P1'
  _symmetry_Int_Tables_number       1
  _symmetry_cell_setting            triclinic
  loop_
  _symmetry_equiv_pos_as_xyz
 x,y,z
_cell_length_a 49.9541
_cell_length_b 50.0065
_cell_length_c 50.1908
_cell_angle_alpha 89.960800
_cell_angle_beta 89.961200
_cell_angle_gamma 89.893600
loop_
  _atom_site_label
  _atom_site_type_symbol
  _atom_site_fract_x
  _atom_site_fract_y
  _atom_site_fract_z
N1 N 0.37317 0.29888 0.31816
 N2 N 0.37287 0.31758 0.29970
 C3 C 0.39351 0.31351 0.28285
 C4 C 0.40721 0.29111 0.29130
 C5 C 0.39395 0.28230 0.31371
 H6 H 0.39831 0.32587 0.26583
 H7 H 0.39911 0.26519 0.32588
 Cu8 Cu 0.34533 0.34512 0.29970
 Cu9 Cu 0.34654 0.29724 0.34652
 Cu10 Cu 0.29733 0.34635 0.34643
 N11 N 0.31777 0.37264 0.29963
 N12 N 0.29900 0.37294 0.31804
 C13 C 0.28246 0.39375 0.31360
 C14 C 0.29139 0.40704 0.29126
 C15 C 0.31379 0.39331 0.28283
 H16 H 0.26534 0.39894 0.32577
 H17 H 0.32624 0.39813 0.26586
 N18 N 0.29908 0.31771 0.37340
 N19 N 0.31783 0.29903 0.37344
 C20 C 0.31361 0.28245 0.39420
 C21 C 0.29121 0.29117 0.40764
 C22 C 0.28246 0.31350 0.39413
 H23 H 0.32593 0.26539 0.39928
 H24 H 0.26534 0.32577 0.39916
 H25 H 0.31622 0.31601 0.32567
 H26 H 0.33774 0.33759 0.34706
 N27 N 0.37399 0.79927 -0.18235
 N28 N 0.37366 0.81794 -0.20085
 C29 C 0.39436 0.81391 -0.21766
 C30 C 0.40810 0.79156 -0.20911
 C31 C 0.39484 0.78274 -0.18671
 H32 H 0.39914 0.82625 -0.23471
 H33 H 0.40001 0.76568 -0.17447
 Cu34 Cu 0.34596 0.84543 -0.20104
 Cu35 Cu 0.34731 0.79759 -0.15403
 Cu36 Cu 0.29803 0.84659 -0.15416
 N37 N 0.31835 0.87303 -0.20094
 N38 N 0.29960 0.87328 -0.18250
 C39 C 0.28305 0.89413 -0.18683
 C40 C 0.29195 0.90749 -0.20916
 C41 C 0.31435 0.89378 -0.21769
 H42 H 0.26596 0.89926 -0.17460
 H43 H 0.32679 0.89864 -0.23465
 N44 N 0.29977 0.81791 -0.12719
 N45 N 0.31856 0.79927 -0.12713
 C46 C 0.31436 0.78267 -0.10637
 C47 C 0.29191 0.79132 -0.09294
 C48 C 0.28313 0.81364 -0.10646
 H49 H 0.32670 0.76564 -0.10129
 H50 H 0.26599 0.82588 -0.10145
 H51 H 0.31704 0.81623 -0.17490
 H52 H 0.33857 0.83791 -0.15360
 N53 N 0.87267 0.29980 -0.18212
 N54 N 0.87237 0.31847 -0.20061
 C55 C 0.89300 0.31434 -0.21746
 C56 C 0.90669 0.29194 -0.20898
 C57 C 0.89343 0.28319 -0.18656
 H58 H 0.89786 0.32673 -0.23445
 H59 H 0.89861 0.26613 -0.17432
 Cu60 Cu 0.84515 0.34637 -0.20054
 Cu61 Cu 0.84612 0.29831 -0.15373
 Cu62 Cu 0.79708 0.34750 -0.15366
 N63 N 0.81735 0.37369 -0.20055
 N64 N 0.79866 0.37406 -0.18204
 C65 C 0.78211 0.39489 -0.18645
 C66 C 0.79095 0.40806 -0.20890
 C67 C 0.81331 0.39432 -0.21740
 H68 H 0.76507 0.40012 -0.17420
 H69 H 0.82573 0.39910 -0.23441
 N70 N 0.79883 0.31886 -0.12669
 N71 N 0.81753 0.30013 -0.12674
 C72 C 0.81326 0.28346 -0.10606
 C73 C 0.79088 0.29216 -0.09258
 C74 C 0.78219 0.31459 -0.10598
 H75 H 0.82550 0.26631 -0.10109
 H76 H 0.76507 0.32685 -0.10093
 H77 H 0.81597 0.31735 -0.17454
 H78 H 0.83758 0.33881 -0.15309
 N79 N 0.87284 0.79965 0.31805
 N80 N 0.87254 0.81831 0.29956
 C81 C 0.89320 0.81422 0.28274
 C82 C 0.90691 0.79185 0.29125
 C83 C 0.89365 0.78307 0.31366
 H84 H 0.89801 0.82655 0.26570
 H85 H 0.89881 0.76601 0.32588
 Cu86 Cu 0.84507 0.84597 0.29930
 Cu87 Cu 0.84623 0.79810 0.34637
 Cu88 Cu 0.79708 0.84713 0.34631
 N89 N 0.81738 0.87341 0.29950
 N90 N 0.79866 0.87371 0.31796
 C91 C 0.78212 0.89456 0.31358
 C92 C 0.79103 0.90781 0.29121
 C93 C 0.81340 0.89409 0.28270
 H94 H 0.76505 0.89975 0.32581
 H95 H 0.82584 0.89890 0.26573
 N96 N 0.79883 0.81852 0.37329
 N97 N 0.81758 0.79984 0.37331
 C98 C 0.81338 0.78325 0.39406
 C99 C 0.79099 0.79194 0.40754
 C100 C 0.78222 0.81429 0.39404
 H101 H 0.82570 0.76619 0.39911
 H102 H 0.76510 0.82655 0.39908
 H103 H 0.81598 0.81691 0.32541
 H104 H 0.83757 0.83854 0.34674
 N105 N 0.62705 0.70123 0.31809
 N106 N 0.62776 0.68290 0.29930
 C107 C 0.60714 0.68692 0.28246
 C108 C 0.59303 0.70891 0.29126
 C109 C 0.60601 0.71753 0.31386
 H110 H 0.60255 0.67472 0.26528
 H111 H 0.60047 0.73427 0.32634
 Cu112 Cu 0.65539 0.65548 0.29929
 Cu113 Cu 0.65346 0.70271 0.34662
 Cu114 Cu 0.70272 0.65362 0.34658
 N115 N 0.68287 0.62790 0.29929
 N116 N 0.70125 0.62723 0.31805
 C117 C 0.71754 0.60617 0.31384
 C118 C 0.70884 0.59313 0.29130
 C119 C 0.68683 0.60724 0.28250
 H120 H 0.73430 0.60064 0.32633
 H121 H 0.67457 0.60261 0.26537
 N122 N 0.70078 0.68215 0.37364
 N123 N 0.68202 0.70082 0.37366
 C124 C 0.68622 0.71742 0.39437
 C125 C 0.70863 0.70873 0.40781
 C126 C 0.71740 0.68639 0.39435
 H127 H 0.67395 0.73452 0.39938
 H128 H 0.73458 0.67419 0.39933
 H129 H 0.68404 0.68416 0.32610
 H130 H 0.66221 0.66227 0.34690
 N131 N 0.62709 0.20064 -0.18216
 N132 N 0.62780 0.18230 -0.20095
 C133 C 0.60714 0.18632 -0.21777
 C134 C 0.59302 0.20832 -0.20897
 C135 C 0.60604 0.21694 -0.18638
 H136 H 0.60255 0.17414 -0.23495
 H137 H 0.60052 0.23370 -0.17391
 Cu138 Cu 0.65551 0.15490 -0.20099
 Cu139 Cu 0.65354 0.20220 -0.15367
 Cu140 Cu 0.70287 0.15315 -0.15375
 N141 N 0.68302 0.12728 -0.20100
 N142 N 0.70143 0.12665 -0.18226
 C143 C 0.71773 0.10557 -0.18643
 C144 C 0.70900 0.09247 -0.20895
 C145 C 0.68696 0.10656 -0.21776
 H146 H 0.73450 0.10009 -0.17393
 H147 H 0.67465 0.10191 -0.23486
 N148 N 0.70094 0.18174 -0.12669
 N149 N 0.68214 0.20037 -0.12667
 C150 C 0.68633 0.21701 -0.10597
 C151 C 0.70876 0.20839 -0.09253
 C152 C 0.71757 0.18605 -0.10599
 H153 H 0.67401 0.23409 -0.10097
 H154 H 0.73476 0.17388 -0.10099
 H155 H 0.68408 0.18374 -0.17420
 H156 H 0.66230 0.16183 -0.15338
 N157 N 0.12711 0.70115 -0.18206
 N158 N 0.12772 0.68278 -0.20081
 C159 C 0.10711 0.68687 -0.21765
 C160 C 0.09310 0.70895 -0.20889
 C161 C 0.10615 0.71755 -0.18631
 H162 H 0.10245 0.67466 -0.23480
 H163 H 0.10069 0.73434 -0.17386
 Cu164 Cu 0.15523 0.65523 -0.20082
 Cu165 Cu 0.15356 0.70258 -0.15357
 Cu166 Cu 0.20263 0.65331 -0.15358
 N167 N 0.18265 0.62760 -0.20081
 N168 N 0.20105 0.62690 -0.18207
 C169 C 0.21736 0.60588 -0.18633
 C170 C 0.20868 0.59290 -0.20891
 C171 C 0.18664 0.60699 -0.21765
 H172 H 0.23416 0.60035 -0.17389
 H173 H 0.17440 0.60241 -0.23482
 N174 N 0.20082 0.68186 -0.12657
 N175 N 0.18214 0.70061 -0.12656
 C176 C 0.18647 0.71726 -0.10591
 C177 C 0.20887 0.70852 -0.09252
 C178 C 0.21751 0.68610 -0.10592
 H179 H 0.17428 0.73443 -0.10093
 H180 H 0.23465 0.67384 -0.10095
 H181 H 0.18402 0.68386 -0.17410
 H182 H 0.16214 0.66210 -0.15322
 N183 N 0.12702 0.20109 0.31793
 N184 N 0.12773 0.18279 0.29911
 C185 C 0.10714 0.18687 0.28225
 C186 C 0.09304 0.20886 0.29106
 C187 C 0.10600 0.21743 0.31369
 H188 H 0.10256 0.17471 0.26504
 H189 H 0.10046 0.23415 0.32620
 Cu190 Cu 0.15534 0.15535 0.29907
 Cu191 Cu 0.15339 0.20252 0.34649
 Cu192 Cu 0.20263 0.15341 0.34639
 N193 N 0.18282 0.12778 0.29904
 N194 N 0.20119 0.12708 0.31782
 C195 C 0.21748 0.10603 0.31359
 C196 C 0.20882 0.09304 0.29101
 C197 C 0.18681 0.10715 0.28222
 H198 H 0.23423 0.10048 0.32608
 H199 H 0.17456 0.10255 0.26507
 N200 N 0.20067 0.18187 0.37350
 N201 N 0.18191 0.20055 0.37354
 C202 C 0.18610 0.21710 0.39429
 C203 C 0.20849 0.20838 0.40772
 C204 C 0.21727 0.18607 0.39423
 H205 H 0.17383 0.23420 0.39932
 H206 H 0.23444 0.17385 0.39921
 H207 H 0.18396 0.18399 0.32595
 H208 H 0.16211 0.16207 0.34670
 N209 N 0.62670 0.29919 0.68191
 N210 N 0.62698 0.31790 0.70035
 C211 C 0.60636 0.31386 0.71721
 C212 C 0.59267 0.29150 0.70879
 C213 C 0.60594 0.28267 0.68639
 H214 H 0.60156 0.32622 0.73424
 H215 H 0.60081 0.26557 0.67424
 Cu216 Cu 0.65450 0.34541 0.70049
 Cu217 Cu 0.65334 0.29752 0.65360
 Cu218 Cu 0.70252 0.34646 0.65364
 N219 N 0.68214 0.37281 0.70040
 N220 N 0.70092 0.37306 0.68198
 C221 C 0.71750 0.39376 0.68648
 C222 C 0.70864 0.40702 0.70889
 C223 C 0.68620 0.39338 0.71726
 H224 H 0.73465 0.39887 0.67434
 H225 H 0.67378 0.39819 0.73427
 N226 N 0.70078 0.31783 0.62668
 N227 N 0.68204 0.29920 0.62668
 C228 C 0.68625 0.28262 0.60593
 C229 C 0.70863 0.29127 0.59245
 C230 C 0.71738 0.31357 0.60593
 H231 H 0.67394 0.26560 0.60087
 H232 H 0.73448 0.32579 0.60087
 H233 H 0.68362 0.31620 0.67445
 H234 H 0.66208 0.33785 0.65306
 N235 N 0.62685 0.79943 1.18215
 N236 N 0.62716 0.81810 1.20060
 C237 C 0.60648 0.81416 1.21742
 C238 C 0.59279 0.79181 1.20900
 C239 C 0.60606 0.78293 1.18662
 H240 H 0.60166 0.82655 1.23442
 H241 H 0.60092 0.76584 1.17449
 Cu242 Cu 0.65459 0.84564 1.20061
 Cu243 Cu 0.65349 0.79774 1.15383
 Cu244 Cu 0.70271 0.84664 1.15385
 N245 N 0.68232 0.87287 1.20065
 N246 N 0.70105 0.87314 1.18222
 C247 C 0.71767 0.89381 1.18674
 C248 C 0.70881 0.90701 1.20915
 C249 C 0.68634 0.89344 1.21752
 H250 H 0.73483 0.89889 1.17464
 H251 H 0.67392 0.89829 1.23451
 N252 N 0.70093 0.81802 1.12693
 N253 N 0.68220 0.79940 1.12692
 C254 C 0.68642 0.78281 1.10619
 C255 C 0.70881 0.79147 1.09273
 C256 C 0.71756 0.81377 1.10620
 H257 H 0.67412 0.76579 1.10113
 H258 H 0.73466 0.82599 1.10115
 H259 H 0.68385 0.81647 1.17465
 H260 H 0.66235 0.83810 1.15322
 N261 N 0.12677 0.29962 1.18202
 N262 N 0.12699 0.31838 1.20039
 C263 C 0.10636 0.31438 1.21724
 C264 C 0.09273 0.29196 1.20888
 C265 C 0.10603 0.28307 1.18653
 H266 H 0.10152 0.32679 1.23422
 H267 H 0.10094 0.26592 1.17444
 Cu268 Cu 0.15450 0.34584 1.20032
 Cu269 Cu 0.15343 0.29787 1.15371
 Cu270 Cu 0.20256 0.34688 1.15360
 N271 N 0.18202 0.37328 1.20029
 N272 N 0.20081 0.37350 1.18189
 C273 C 0.21740 0.39418 1.18637
 C274 C 0.20851 0.40744 1.20873
 C275 C 0.18606 0.39387 1.21713
 H276 H 0.23457 0.39926 1.17425
 H277 H 0.17365 0.39871 1.23412
 N278 N 0.20085 0.31818 1.12675
 N279 N 0.18215 0.29952 1.12680
 C280 C 0.18640 0.28287 1.10611
 C281 C 0.20878 0.29152 1.09263
 C282 C 0.21748 0.31388 1.10603
 H283 H 0.17413 0.26582 1.10110
 H284 H 0.23457 0.32612 1.10095
 H285 H 0.18377 0.31671 1.17447
 H286 H 0.16221 0.33826 1.15298
 N287 N 0.12682 0.79958 0.68187
 N288 N 0.12707 0.81831 0.70027
 C289 C 0.10647 0.81429 0.71715
 C290 C 0.09281 0.79190 0.70877
 C291 C 0.10607 0.78304 0.68638
 H292 H 0.10166 0.82668 0.73416
 H293 H 0.10095 0.76592 0.67425
 Cu294 Cu 0.15463 0.84573 0.70022
 Cu295 Cu 0.15344 0.79789 0.65350
 Cu296 Cu 0.20262 0.84686 0.65346
 N297 N 0.18221 0.87310 0.70029
 N298 N 0.20096 0.87335 0.68186
 C299 C 0.21769 0.89390 0.68647
 C300 C 0.20893 0.90702 0.70896
 C301 C 0.18639 0.89353 0.71728
 H302 H 0.23488 0.89895 0.67438
 H303 H 0.17405 0.89830 0.73435
 N304 N 0.20082 0.81827 0.62652
 N305 N 0.18212 0.79961 0.62655
 C306 C 0.18637 0.78301 0.60582
 C307 C 0.20875 0.79168 0.59236
 C308 C 0.21745 0.81401 0.60580
 H309 H 0.17410 0.76595 0.60079
 H310 H 0.23455 0.82624 0.60075
 H311 H 0.18383 0.81666 0.67426
 H312 H 0.16226 0.83827 0.65285
 N313 N 0.37301 0.70105 0.68231
 N314 N 0.37237 0.68267 0.70108
 C315 C 0.39292 0.68673 0.71799
 C316 C 0.40692 0.70881 0.70928
 C317 C 0.39393 0.71742 0.68663
 H318 H 0.39753 0.67452 0.73519
 H319 H 0.39937 0.73422 0.67419
 Cu320 Cu 0.34483 0.65517 0.70102
 Cu321 Cu 0.34662 0.70255 0.65373
 Cu322 Cu 0.29758 0.65340 0.65362
 N323 N 0.31741 0.62756 0.70094
 N324 N 0.29907 0.62693 0.68213
 C325 C 0.28277 0.60593 0.68634
 C326 C 0.29138 0.59287 0.70895
 C327 C 0.31338 0.60692 0.71777
 H328 H 0.26602 0.60048 0.67384
 H329 H 0.32556 0.60229 0.73497
 N330 N 0.29944 0.68198 0.62657
 N331 N 0.31811 0.70068 0.62661
 C332 C 0.31386 0.71732 0.60589
 C333 C 0.29153 0.70863 0.59239
 C334 C 0.28285 0.68625 0.60583
 H335 H 0.32606 0.73445 0.60092
 H336 H 0.26575 0.67402 0.60079
 H337 H 0.31608 0.68389 0.67416
 H338 H 0.33805 0.66209 0.65338
 N339 N 0.37339 0.20032 1.18196
 N340 N 0.37315 0.18154 1.20034
 C341 C 0.39377 0.18552 1.21718
 C342 C 0.40741 0.20794 1.20881
 C343 C 0.39413 0.21686 1.18645
 H344 H 0.39859 0.17309 1.23416
 H345 H 0.39923 0.23401 1.17434
 Cu346 Cu 0.34563 0.15410 1.20032
 Cu347 Cu 0.34672 0.20208 1.15365
 Cu348 Cu 0.29759 0.15307 1.15363
 N349 N 0.31811 0.12667 1.20033
 N350 N 0.29934 0.12647 1.18195
 C351 C 0.28273 0.10579 1.18645
 C352 C 0.29161 0.09252 1.20881
 C353 C 0.31406 0.10608 1.21719
 H354 H 0.26557 0.10072 1.17434
 H355 H 0.32645 0.10122 1.23418
 N356 N 0.29932 0.18176 1.12676
 N357 N 0.31801 0.20043 1.12676
 C358 C 0.31374 0.21707 1.10605
 C359 C 0.29136 0.20841 1.09262
 C360 C 0.28268 0.18604 1.10606
 H361 H 0.32600 0.23413 1.10100
 H362 H 0.26560 0.17380 1.10102
 H363 H 0.31635 0.18321 1.17446
 H364 H 0.33793 0.16167 1.15297
 N365 N 0.87331 0.70038 1.18207
 N366 N 0.87338 0.68131 1.20016
 C367 C 0.89395 0.68534 1.21705
 C368 C 0.90725 0.70809 1.20899
 C369 C 0.89381 0.71715 1.18678
 H370 H 0.89896 0.67274 1.23385
 H371 H 0.89865 0.73455 1.17492
 Cu372 Cu 0.84607 0.65367 1.19965
 Cu373 Cu 0.84657 0.70223 1.15380
 Cu374 Cu 0.79746 0.65309 1.15376
 N375 N 0.81845 0.62636 1.20013
 N376 N 0.79938 0.62640 1.18203
 C377 C 0.78263 0.60590 1.18676
 C378 C 0.79169 0.59250 1.20898
 C379 C 0.81442 0.60581 1.21704
 H380 H 0.76523 0.60104 1.17491
 H381 H 0.82700 0.60081 1.23385
 N382 N 0.79910 0.68190 1.12695
 N383 N 0.81778 0.70060 1.12697
 C384 C 0.81352 0.71722 1.10625
 C385 C 0.79118 0.70853 1.09279
 C386 C 0.78249 0.68616 1.10623
 H387 H 0.82579 0.73427 1.10119
 H388 H 0.76546 0.67387 1.10114
 H389 H 0.81641 0.68306 1.17464
 H390 H 0.83769 0.66190 1.15255
 N391 N 0.87301 0.20055 0.68186
 N392 N 0.87277 0.18183 0.70030
 C393 C 0.89332 0.18593 0.71719
 C394 C 0.90693 0.20837 0.70879
 C395 C 0.89369 0.21717 0.68636
 H396 H 0.89813 0.17357 0.73423
 H397 H 0.89878 0.23430 0.67421
 Cu398 Cu 0.84530 0.15433 0.70029
 Cu399 Cu 0.84642 0.20215 0.65348
 Cu400 Cu 0.79739 0.15304 0.65347
 N401 N 0.81782 0.12685 0.70033
 N402 N 0.79910 0.12655 0.68188
 C403 C 0.78245 0.10593 0.68648
 C404 C 0.79121 0.09283 0.70898
 C405 C 0.81367 0.10640 0.71733
 H406 H 0.76530 0.10082 0.67438
 H407 H 0.82598 0.10167 0.73441
 N408 N 0.79914 0.18165 0.62652
 N409 N 0.81779 0.20036 0.62653
 C410 C 0.81352 0.21696 0.60579
 C411 C 0.79119 0.20822 0.59233
 C412 C 0.78253 0.18586 0.60579
 H413 H 0.82574 0.23405 0.60074
 H414 H 0.76547 0.17358 0.60075
 H415 H 0.81602 0.18327 0.67425
 H416 H 0.83770 0.16171 0.65290
 N417 N 0.29879 0.37295 0.68203
 N418 N 0.31718 0.37228 0.70079
 C419 C 0.31315 0.39289 0.71762
 C420 C 0.29109 0.40694 0.70886
 C421 C 0.28244 0.39394 0.68628
 H422 H 0.32537 0.39749 0.73479
 H423 H 0.26565 0.39944 0.67383
 Cu424 Cu 0.34466 0.34470 0.70083
 Cu425 Cu 0.29728 0.34652 0.65354
 Cu426 Cu 0.34645 0.29734 0.65360
 N427 N 0.37222 0.31720 0.70086
 N428 N 0.37288 0.29882 0.68211
 C429 C 0.39387 0.28246 0.68641
 C430 C 0.40687 0.29109 0.70900
 C431 C 0.39283 0.31315 0.71772
 H432 H 0.39935 0.26566 0.67397
 H433 H 0.39744 0.32537 0.73488
 N434 N 0.31788 0.29924 0.62657
 N435 N 0.29917 0.31796 0.62655
 C436 C 0.28251 0.31369 0.60588
 C437 C 0.29120 0.29128 0.59249
 C438 C 0.31361 0.28258 0.60592
 H439 H 0.26536 0.32591 0.60088
 H440 H 0.32583 0.26543 0.60095
 H441 H 0.31591 0.31603 0.67409
 H442 H 0.33777 0.33782 0.65322
 N443 N 0.29926 0.87342 0.18144
 N444 N 0.31794 0.87309 0.19991
 C445 C 0.31383 0.89366 0.21677
 C446 C 0.29143 0.90735 0.20832
 C447 C 0.28265 0.89418 0.18589
 H448 H 0.32619 0.89845 0.23378
 H449 H 0.26557 0.89936 0.17370
 Cu450 Cu 0.34576 0.84585 0.19996
 Cu451 Cu 0.29770 0.84684 0.15314
 Cu452 Cu 0.34678 0.79769 0.15330
 N453 N 0.37296 0.81799 0.20008
 N454 N 0.37329 0.79928 0.18166
 C455 C 0.39405 0.78269 0.18618
 C456 C 0.40723 0.79152 0.20859
 C457 C 0.39354 0.81393 0.21696
 H458 H 0.39926 0.76560 0.17403
 H459 H 0.39835 0.82635 0.23392
 N460 N 0.31819 0.79945 0.12634
 N461 N 0.29949 0.81818 0.12627
 C462 C 0.28286 0.81390 0.10558
 C463 C 0.29158 0.79147 0.09222
 C464 C 0.31394 0.78277 0.10570
 H465 H 0.26576 0.82616 0.10051
 H466 H 0.32620 0.76564 0.10074
 H467 H 0.31663 0.81674 0.17410
 H468 H 0.33822 0.83818 0.15254
 N469 N 0.79908 0.37342 0.18177
 N470 N 0.81746 0.37274 0.20054
 C471 C 0.81338 0.39329 0.21743
 C472 C 0.79130 0.40732 0.20871
 C473 C 0.78269 0.39437 0.18608
 H474 H 0.82557 0.39785 0.23463
 H475 H 0.76587 0.39985 0.17366
 Cu476 Cu 0.84492 0.34515 0.20058
 Cu477 Cu 0.79756 0.34698 0.15329
 Cu478 Cu 0.84667 0.29775 0.15337
 N479 N 0.87245 0.31763 0.20062
 N480 N 0.87309 0.29923 0.18189
 C481 C 0.89405 0.28284 0.18621
 C482 C 0.90705 0.29147 0.20880
 C483 C 0.89303 0.31357 0.21750
 H484 H 0.89953 0.26603 0.17379
 H485 H 0.89765 0.32579 0.23465
 N486 N 0.81811 0.29966 0.12632
 N487 N 0.79942 0.31840 0.12629
 C488 C 0.78276 0.31414 0.10562
 C489 C 0.79143 0.29171 0.09223
 C490 C 0.81382 0.28300 0.10567
 H491 H 0.76562 0.32638 0.10061
 H492 H 0.82603 0.26582 0.10072
 H493 H 0.81617 0.31648 0.17386
 H494 H 0.83807 0.33823 0.15298
 N495 N 0.79903 0.87377 0.68203
 N496 N 0.81741 0.87311 0.70078
 C497 C 0.81333 0.89368 0.71767
 C498 C 0.79122 0.90772 0.70896
 C499 C 0.78262 0.89473 0.68634
 H500 H 0.82552 0.89824 0.73487
 H501 H 0.76578 0.90017 0.67392
 Cu502 Cu 0.84490 0.84548 0.70081
 Cu503 Cu 0.79754 0.84727 0.65355
 Cu504 Cu 0.84668 0.79804 0.65360
 N505 N 0.87247 0.81796 0.70083
 N506 N 0.87311 0.79956 0.68210
 C507 C 0.89408 0.78317 0.68640
 C508 C 0.90709 0.79180 0.70898
 C509 C 0.89308 0.81389 0.71769
 H510 H 0.89954 0.76635 0.67398
 H511 H 0.89770 0.82610 0.73485
 N512 N 0.81810 0.79993 0.62658
 N513 N 0.79939 0.81866 0.62654
 C514 C 0.78273 0.81437 0.60588
 C515 C 0.79142 0.79194 0.59249
 C516 C 0.81382 0.78326 0.60594
 H517 H 0.76558 0.82659 0.60087
 H518 H 0.82604 0.76609 0.60099
 H519 H 0.81622 0.81671 0.67409
 H520 H 0.83809 0.83847 0.65320
 N521 N 0.70085 0.62661 0.68210
 N522 N 0.68213 0.62691 0.70056
 C523 C 0.68618 0.60626 0.71738
 C524 C 0.70858 0.59254 0.70890
 C525 C 0.71742 0.60581 0.68651
 H526 H 0.67381 0.60147 0.73441
 H527 H 0.73453 0.60066 0.67433
 Cu528 Cu 0.65462 0.65453 0.70072
 Cu529 Cu 0.70252 0.65327 0.65379
 Cu530 Cu 0.65339 0.70243 0.65385
 N531 N 0.62703 0.68207 0.70063
 N532 N 0.62674 0.70078 0.68218
 C533 C 0.60595 0.71737 0.68664
 C534 C 0.59268 0.70856 0.70904
 C535 C 0.60638 0.68615 0.71748
 H536 H 0.60082 0.73449 0.67448
 H537 H 0.60159 0.67379 0.73451
 N538 N 0.68210 0.70070 0.62691
 N539 N 0.70082 0.68199 0.62689
 C540 C 0.71747 0.68626 0.60618
 C541 C 0.70877 0.70867 0.59276
 C542 C 0.68637 0.71736 0.60622
 H543 H 0.73457 0.67398 0.60113
 H544 H 0.67409 0.73446 0.60121
 H545 H 0.68371 0.68356 0.67462
 H546 H 0.66208 0.66200 0.65330
 N547 N 0.70107 0.12611 0.18160
 N548 N 0.68234 0.12637 0.20003
 C549 C 0.68645 0.10576 0.21690
 C550 C 0.70890 0.09212 0.20847
 C551 C 0.71771 0.10538 0.18606
 H552 H 0.67410 0.10097 0.23394
 H553 H 0.73486 0.10028 0.17392
 Cu554 Cu 0.65467 0.15382 0.20033
 Cu555 Cu 0.70270 0.15280 0.15336
 Cu556 Cu 0.65361 0.20191 0.15349
 N557 N 0.62723 0.18149 0.20016
 N558 N 0.62697 0.20024 0.18177
 C559 C 0.60622 0.21685 0.18626
 C560 C 0.59295 0.20800 0.20864
 C561 C 0.60660 0.18555 0.21702
 H562 H 0.60110 0.23400 0.17414
 H563 H 0.60178 0.17316 0.23402
 N564 N 0.68228 0.20025 0.12657
 N565 N 0.70100 0.18154 0.12650
 C566 C 0.71765 0.18586 0.10581
 C567 C 0.70894 0.20830 0.09244
 C568 C 0.68655 0.21696 0.10593
 H569 H 0.73476 0.17360 0.10073
 H570 H 0.67427 0.23408 0.10096
 H571 H 0.68381 0.18293 0.17436
 H572 H 0.66221 0.16144 0.15290
 N573 N 0.20068 0.62664 0.18150
 N574 N 0.18196 0.62697 0.19995
 C575 C 0.18601 0.60636 0.21681
 C576 C 0.20843 0.59266 0.20839
 C577 C 0.21726 0.60587 0.18597
 H578 H 0.17359 0.60155 0.23381
 H579 H 0.23439 0.60069 0.17382
 Cu580 Cu 0.15420 0.65430 0.19996
 Cu581 Cu 0.20234 0.65326 0.15319
 Cu582 Cu 0.15328 0.70246 0.15326
 N583 N 0.12693 0.68212 0.20002
 N584 N 0.12666 0.70086 0.18160
 C585 C 0.10589 0.71747 0.18611
 C586 C 0.09264 0.70862 0.20851
 C587 C 0.10631 0.68618 0.21688
 H588 H 0.10074 0.73459 0.17396
 H589 H 0.10145 0.67374 0.23384
 N590 N 0.18197 0.70070 0.12631
 N591 N 0.20065 0.68196 0.12629
 C592 C 0.21735 0.68624 0.10562
 C593 C 0.20872 0.70868 0.09222
 C594 C 0.18631 0.71739 0.10566
 H595 H 0.23446 0.67396 0.10060
 H596 H 0.17409 0.73454 0.10067
 H597 H 0.18341 0.68340 0.17406
 H598 H 0.16184 0.66198 0.15254
 N599 N 0.20075 0.12609 0.68217
 N600 N 0.18236 0.12672 0.70095
 C601 C 0.18647 0.10613 0.71784
 C602 C 0.20860 0.09211 0.70911
 C603 C 0.21717 0.10514 0.68646
 H604 H 0.17429 0.10155 0.73506
 H605 H 0.23402 0.09973 0.67403
 Cu606 Cu 0.15484 0.15436 0.70099
 Cu607 Cu 0.20222 0.15262 0.65368
 Cu608 Cu 0.15306 0.20184 0.65375
 N609 N 0.12724 0.18190 0.70102
 N610 N 0.12661 0.20031 0.68228
 C611 C 0.10565 0.21671 0.68658
 C612 C 0.09261 0.20809 0.70918
 C613 C 0.10662 0.18598 0.71790
 H614 H 0.10021 0.23354 0.67415
 H615 H 0.10199 0.17377 0.73508
 N616 N 0.18164 0.19997 0.62669
 N617 N 0.20036 0.18125 0.62664
 C618 C 0.21701 0.18556 0.60595
 C619 C 0.20832 0.20800 0.59256
 C620 C 0.18592 0.21667 0.60603
 H621 H 0.23417 0.17335 0.60092
 H622 H 0.17369 0.23383 0.60108
 H623 H 0.18352 0.18317 0.67421
 H624 H 0.16166 0.16142 0.65337
 N625 N 0.29921 0.62665 0.31802
 N626 N 0.31797 0.62691 0.29960
 C627 C 0.31396 0.60631 0.28277
 C628 C 0.29154 0.59268 0.29118
 C629 C 0.28265 0.60593 0.31355
 H630 H 0.32637 0.60150 0.26576
 H631 H 0.26551 0.60081 0.32569
 Cu632 Cu 0.34547 0.65439 0.29958
 Cu633 Cu 0.29746 0.65324 0.34634
 Cu634 Cu 0.34656 0.70228 0.34630
 N635 N 0.37298 0.68186 0.29957
 N636 N 0.37321 0.70059 0.31798
 C637 C 0.39394 0.71716 0.31350
 C638 C 0.40723 0.70832 0.29112
 C639 C 0.39361 0.68592 0.28271
 H640 H 0.39903 0.73427 0.32563
 H641 H 0.39845 0.67355 0.26571
 N642 N 0.31786 0.70058 0.37321
 N643 N 0.29916 0.68191 0.37323
 C644 C 0.28253 0.68617 0.39396
 C645 C 0.29123 0.70851 0.40739
 C646 C 0.31360 0.71719 0.39392
 H647 H 0.26545 0.67392 0.39903
 H648 H 0.32587 0.73424 0.39895
 H649 H 0.31624 0.68348 0.32552
 H650 H 0.33783 0.66190 0.34695
 N651 N 0.29897 0.12652 0.81802
 N652 N 0.31736 0.12720 0.79924
 C653 C 0.31344 0.10656 0.78244
 C654 C 0.29146 0.09247 0.79125
 C655 C 0.28274 0.10549 0.81382
 H656 H 0.32570 0.10192 0.76528
 H657 H 0.26599 0.09997 0.82632
 Cu658 Cu 0.34476 0.15477 0.79922
 Cu659 Cu 0.29738 0.15289 0.84656
 Cu660 Cu 0.34645 0.20199 0.84654
 N661 N 0.37230 0.18222 0.79920
 N662 N 0.37291 0.20055 0.81800
 C663 C 0.39387 0.21689 0.81375
 C664 C 0.40693 0.20830 0.79113
 C665 C 0.39292 0.18628 0.78235
 H666 H 0.39931 0.23364 0.82623
 H667 H 0.39757 0.17410 0.76516
 N668 N 0.31789 0.20008 0.87361
 N669 N 0.29921 0.18140 0.87361
 C670 C 0.28255 0.18564 0.89432
 C671 C 0.29121 0.20800 0.90776
 C672 C 0.31359 0.21669 0.89431
 H673 H 0.26542 0.17343 0.89932
 H674 H 0.32578 0.23381 0.89931
 H675 H 0.31591 0.18337 0.82606
 H676 H 0.33783 0.16150 0.84684
 N677 N 0.79934 0.62667 0.81817
 N678 N 0.81771 0.62732 0.79936
 C679 C 0.81370 0.60671 0.78253
 C680 C 0.79167 0.59266 0.79133
 C681 C 0.78303 0.60569 0.81394
 H682 H 0.82590 0.60212 0.76532
 H683 H 0.76625 0.60024 0.82643
 Cu684 Cu 0.84511 0.65495 0.79929
 Cu685 Cu 0.79779 0.65314 0.84666
 Cu686 Cu 0.84679 0.70232 0.84655
 N687 N 0.87261 0.68248 0.79923
 N688 N 0.87320 0.70084 0.81799
 C689 C 0.89412 0.71723 0.81369
 C690 C 0.90716 0.70865 0.79107
 C691 C 0.89321 0.68657 0.78234
 H692 H 0.89953 0.73402 0.82614
 H693 H 0.89787 0.67438 0.76516
 N694 N 0.81825 0.70042 0.87364
 N695 N 0.79959 0.68171 0.87369
 C696 C 0.78294 0.68598 0.89440
 C697 C 0.79158 0.70837 0.90779
 C698 C 0.81394 0.71706 0.89431
 H699 H 0.76583 0.67376 0.89943
 H700 H 0.82612 0.73421 0.89927
 H701 H 0.81634 0.68369 0.82611
 H702 H 0.83829 0.66188 0.84692
 N703 N 0.79937 0.12646 0.31790
 N704 N 0.81775 0.12712 0.29911
 C705 C 0.81379 0.10651 0.28228
 C706 C 0.79178 0.09246 0.29107
 C707 C 0.78309 0.10547 0.31367
 H708 H 0.82602 0.10190 0.26510
 H709 H 0.76631 0.09998 0.32614
 Cu710 Cu 0.84514 0.15471 0.29905
 Cu711 Cu 0.79774 0.15286 0.34639
 Cu712 Cu 0.84671 0.20205 0.34629
 N713 N 0.87259 0.18224 0.29899
 N714 N 0.87315 0.20061 0.31775
 C715 C 0.89405 0.21700 0.31345
 C716 C 0.90712 0.20841 0.29084
 C717 C 0.89318 0.18633 0.28211
 H718 H 0.89945 0.23380 0.32589
 H719 H 0.89786 0.17413 0.26494
 N720 N 0.81816 0.20014 0.37337
 N721 N 0.79952 0.18142 0.37341
 C722 C 0.78284 0.18567 0.39410
 C723 C 0.79145 0.20807 0.40750
 C724 C 0.81382 0.21678 0.39404
 H725 H 0.76574 0.17343 0.39912
 H726 H 0.82598 0.23394 0.39900
 H727 H 0.81624 0.18333 0.32582
 H728 H 0.83818 0.16155 0.34666
 N729 N 0.70088 0.37304 0.31779
 N730 N 0.68251 0.37242 0.29901
 C731 C 0.68651 0.39305 0.28218
 C732 C 0.70853 0.40706 0.29098
 C733 C 0.71718 0.39402 0.31356
 H734 H 0.67430 0.39770 0.26501
 H735 H 0.73395 0.39948 0.32603
 Cu736 Cu 0.65507 0.34489 0.29898
 Cu737 Cu 0.70245 0.34663 0.34630
 Cu738 Cu 0.65340 0.29752 0.34624
 N739 N 0.62757 0.31740 0.29895
 N740 N 0.62697 0.29902 0.31772
 C741 C 0.60604 0.28266 0.31345
 C742 C 0.59300 0.29128 0.29084
 C743 C 0.60698 0.31335 0.28209
 H744 H 0.60062 0.26586 0.32590
 H745 H 0.60233 0.32557 0.26491
 N746 N 0.68193 0.29937 0.37330
 N747 N 0.70060 0.31807 0.37332
 C748 C 0.71723 0.31379 0.39402
 C749 C 0.70857 0.29140 0.40744
 C750 C 0.68621 0.28272 0.39399
 H751 H 0.73434 0.32600 0.39904
 H752 H 0.67402 0.26559 0.39897
 H753 H 0.68395 0.31624 0.32575
 H754 H 0.66202 0.33804 0.34659
 N755 N 0.70076 0.87348 0.81832
 N756 N 0.68198 0.87325 0.79993
 C757 C 0.68595 0.89390 0.78313
 C758 C 0.70835 0.90754 0.79154
 C759 C 0.71728 0.89424 0.81386
 H760 H 0.67351 0.89878 0.76618
 H761 H 0.73440 0.89937 0.82600
 Cu762 Cu 0.65445 0.84580 0.79998
 Cu763 Cu 0.70250 0.84690 0.84665
 Cu764 Cu 0.65335 0.79789 0.84673
 N765 N 0.62692 0.81833 0.80000
 N766 N 0.62667 0.79959 0.81843
 C767 C 0.60592 0.78305 0.81397
 C768 C 0.59263 0.79191 0.79159
 C769 C 0.60629 0.81431 0.78317
 H770 H 0.60081 0.76593 0.82613
 H771 H 0.60148 0.82670 0.76616
 N772 N 0.68208 0.79958 0.87361
 N773 N 0.70079 0.81823 0.87357
 C774 C 0.71744 0.81397 0.89426
 C775 C 0.70875 0.79163 0.90773
 C776 C 0.68636 0.78297 0.89433
 H777 H 0.73453 0.82621 0.89927
 H778 H 0.67409 0.76591 0.89942
 H779 H 0.68372 0.81670 0.82589
 H780 H 0.66216 0.83828 0.84734
 N781 N 0.20046 0.37318 0.81820
 N782 N 0.18172 0.37295 0.79982
 C783 C 0.18575 0.39356 0.78295
 C784 C 0.20817 0.40720 0.79134
 C785 C 0.21704 0.39392 0.81372
 H786 H 0.17336 0.39838 0.76595
 H787 H 0.23417 0.39902 0.82584
 Cu788 Cu 0.15414 0.34550 0.79972
 Cu789 Cu 0.20214 0.34654 0.84652
 Cu790 Cu 0.15305 0.29749 0.84655
 N791 N 0.12667 0.31793 0.79984
 N792 N 0.12642 0.29920 0.81824
 C793 C 0.10568 0.28263 0.81376
 C794 C 0.09242 0.29149 0.79137
 C795 C 0.10607 0.31391 0.78297
 H796 H 0.10057 0.26550 0.82589
 H797 H 0.10126 0.32629 0.76596
 N798 N 0.18174 0.29918 0.87346
 N799 N 0.20044 0.31786 0.87344
 C800 C 0.21707 0.31358 0.89415
 C801 C 0.20838 0.29122 0.90761
 C802 C 0.18601 0.28256 0.89418
 H803 H 0.23415 0.32583 0.89919
 H804 H 0.17375 0.26549 0.89923
 H805 H 0.18333 0.31629 0.82573
 H806 H 0.16174 0.33783 0.84715
 N807 N 0.20064 0.87331 0.31797
 N808 N 0.18194 0.87306 0.29953
 C809 C 0.18600 0.89366 0.28268
 C810 C 0.20839 0.90728 0.29113
 C811 C 0.21722 0.89403 0.31352
 H812 H 0.17364 0.89849 0.26567
 H813 H 0.23431 0.89916 0.32569
 Cu814 Cu 0.15429 0.84572 0.29932
 Cu815 Cu 0.20229 0.84676 0.34629
 Cu816 Cu 0.15323 0.79781 0.34633
 N817 N 0.12688 0.81813 0.29958
 N818 N 0.12660 0.79945 0.31804
 C819 C 0.10584 0.78291 0.31361
 C820 C 0.09259 0.79174 0.29121
 C821 C 0.10626 0.81410 0.28275
 H822 H 0.10070 0.76582 0.32580
 H823 H 0.10146 0.82646 0.26572
 N824 N 0.18188 0.79949 0.37325
 N825 N 0.20058 0.81815 0.37322
 C826 C 0.21723 0.81388 0.39391
 C827 C 0.20856 0.79153 0.40738
 C828 C 0.18617 0.78286 0.39396
 H829 H 0.23433 0.82612 0.39891
 H830 H 0.17392 0.76579 0.39901
 H831 H 0.18349 0.81667 0.32537
 H832 H 0.16184 0.83830 0.34676
 C833 C 0.26005 1.02426 0.24024
 C834 C 0.23980 1.02428 0.25977
 C835 C 0.22981 0.99996 0.26935
 C836 C 0.23976 0.97564 0.25967
 C837 C 0.25998 0.97563 0.24010
 C838 C 0.26998 0.99994 0.23055
 H839 H 0.28556 0.99995 0.21547
 H840 H 0.21423 0.99997 0.28444
 C841 C 0.26006 0.52424 0.74021
 C842 C 0.23979 0.52427 0.75974
 C843 C 0.22977 0.49996 0.76937
 C844 C 0.23970 0.47560 0.75976
 C845 C 0.25995 0.47556 0.74022
 C846 C 0.26998 0.49987 0.73060
 H847 H 0.28556 0.49983 0.71552
 H848 H 0.21419 0.50001 0.78444
 C849 C 0.76054 -0.02481 0.26024
 C850 C 0.74036 -0.02479 0.24067
 C851 C 0.73047 -0.00048 0.23089
 C852 C 0.74046 0.02386 0.24036
 C853 C 0.76066 0.02386 0.25993
 C854 C 0.77055 -0.00046 0.26973
 H855 H 0.78608 -0.00045 0.28483
 H856 H 0.71493 -0.00050 0.21579
 C857 C 0.76030 0.47536 0.76012
 C858 C 0.74010 0.47538 0.74055
 C859 C 0.73017 0.49975 0.73089
 C860 C 0.74013 0.52408 0.74047
 C861 C 0.76036 0.52407 0.76002
 C862 C 0.77027 0.49970 0.76970
 H863 H 0.78581 0.49968 0.78479
 H864 H 0.71462 0.49977 0.71581
 C865 C 0.26017 0.47566 0.25982
 C866 C 0.23997 0.47569 0.24026
 C867 C 0.23002 0.50002 0.23059
 C868 C 0.23996 0.52434 0.24017
 C869 C 0.26016 0.52433 0.25973
 C870 C 0.27011 0.49998 0.26941
 H871 H 0.28566 0.49997 0.28450
 H872 H 0.21447 0.50003 0.21550
 C873 C 0.75960 1.02479 0.74081
 C874 C 0.73940 1.02482 0.76041
 C875 C 0.72950 1.00045 0.77000
 C876 C 0.73949 0.97613 0.76029
 C877 C 0.75969 0.97614 0.74070
 C878 C 0.76958 1.00049 0.73112
 H879 H 0.78512 1.00053 0.71600
 H880 H 0.71396 1.00041 0.78512
 C881 C 0.76005 0.52433 0.24053
 C882 C 0.73978 0.52435 0.26004
 C883 C 0.72974 0.50003 0.26958
 C884 C 0.73968 0.47571 0.25987
 C885 C 0.75995 0.47571 0.24036
 C886 C 0.76997 0.50002 0.23083
 H887 H 0.78557 0.50003 0.21577
 H888 H 0.71415 0.50003 0.28464
 C889 C 0.26097 -0.02503 0.76021
 C890 C 0.24066 -0.02502 0.74075
 C891 C 0.23054 -0.00071 0.73115
 C892 C 0.24039 0.02366 0.74070
 C893 C 0.26069 0.02368 0.76017
 C894 C 0.27082 -0.00064 0.76978
 H895 H 0.28644 -0.00059 0.78480
 H896 H 0.21493 -0.00075 0.71613
 C897 C 0.24002 0.25989 1.02436
 C898 C 0.25984 0.23982 1.02436
 C899 C 0.26953 0.22987 1.00012
 C900 C 0.25970 0.23968 0.97588
 C901 C 0.23988 0.25975 0.97587
 C902 C 0.23019 0.26970 1.00011
 H903 H 0.21492 0.28516 1.00012
 H904 H 0.28480 0.21441 1.00013
 C905 C 0.24019 0.76020 0.52413
 C906 C 0.26005 0.74017 0.52415
 C907 C 0.26978 0.73027 0.49990
 C908 C 0.25995 0.74009 0.47566
 C909 C 0.24010 0.76013 0.47565
 C910 C 0.23038 0.77004 0.49989
 H911 H 0.21509 0.78548 0.49989
 H912 H 0.28508 0.71484 0.49990
 C913 C 0.26047 0.75993 -0.02454
 C914 C 0.24052 0.74006 -0.02451
 C915 C 0.23064 0.73031 -0.00026
 C916 C 0.24039 0.74011 0.02399
 C917 C 0.26035 0.75998 0.02397
 C918 C 0.27024 0.76972 -0.00029
 H919 H 0.28562 0.78502 -0.00028
 H920 H 0.21526 0.71501 -0.00025
 C921 C 0.25975 0.25974 0.47593
 C922 C 0.23986 0.23981 0.47593
 C923 C 0.23004 0.22998 0.50017
 C924 C 0.23982 0.23976 0.52443
 C925 C 0.25970 0.25970 0.52442
 C926 C 0.26951 0.26953 0.50018
 H927 H 0.28484 0.28488 0.50018
 H928 H 0.21472 0.21463 0.50016
 C929 C 0.74017 0.76005 1.02442
 C930 C 0.75998 0.73998 1.02442
 C931 C 0.76977 0.73011 1.00019
 C932 C 0.76004 0.74001 0.97594
 C933 C 0.74022 0.76009 0.97594
 C934 C 0.73045 0.76996 1.00018
 H935 H 0.71518 0.78543 1.00018
 H936 H 0.78503 0.71465 1.00020
 C937 C 0.73992 0.25974 0.52410
 C938 C 0.75974 0.23967 0.52410
 C939 C 0.76951 0.22978 0.49987
 C940 C 0.75979 0.23967 0.47562
 C941 C 0.73997 0.25974 0.47561
 C942 C 0.73018 0.26962 0.49985
 H943 H 0.71491 0.28508 0.49984
 H944 H 0.78479 0.21432 0.49988
 C945 C 0.75968 0.26030 -0.02438
 C946 C 0.73999 0.24017 -0.02435
 C947 C 0.73033 0.23024 -0.00008
 C948 C 0.74011 0.24007 0.02416
 C949 C 0.75984 0.26016 0.02413
 C950 C 0.76946 0.27013 -0.00014
 H951 H 0.78465 0.28560 -0.00016
 H952 H 0.71514 0.21476 -0.00005
 C953 C 0.75982 0.76035 0.47591
 C954 C 0.74003 0.74032 0.47596
 C955 C 0.73032 0.73044 0.50023
 C956 C 0.74011 0.74026 0.52446
 C957 C 0.75991 0.76028 0.52442
 C958 C 0.76962 0.77016 0.50014
 H959 H 0.78488 0.78557 0.50011
 H960 H 0.71506 0.71502 0.50025
 C961 C 1.02437 0.24006 0.25976
 C962 C 1.02434 0.26041 0.24035
 C963 C 0.99997 0.27037 0.23075
 C964 C 0.97564 0.26026 0.24025
 C965 C 0.97567 0.23990 0.25965
 C966 C 1.00004 0.22996 0.26927
 H967 H 1.00008 0.21430 0.28425
 H968 H 0.99994 0.28603 0.21577
 C969 C 0.52431 0.23964 0.75983
 C970 C 0.52427 0.25994 0.74036
 C971 C 0.49988 0.26989 0.73077
 C972 C 0.47555 0.25988 0.74037
 C973 C 0.47558 0.23960 0.75986
 C974 C 0.49997 0.22964 0.76945
 H975 H 0.50000 0.21405 0.78449
 H976 H 0.49984 0.28549 0.71573
 C977 C -0.02475 0.26023 0.75976
 C978 C -0.02473 0.23988 0.74037
 C979 C -0.00036 0.22977 0.73087
 C980 C 0.02400 0.23969 0.74047
 C981 C 0.02399 0.26005 0.75986
 C982 C -0.00039 0.27015 0.76936
 H983 H -0.00040 0.28580 0.78433
 H984 H -0.00035 0.21412 0.71591
 C985 C 0.47573 0.25969 0.25979
 C986 C 0.47578 0.23939 0.24035
 C987 C 0.50016 0.22943 0.23075
 C988 C 0.52449 0.23949 0.24024
 C989 C 0.52446 0.25982 0.25965
 C990 C 0.50007 0.26975 0.26929
 H991 H 0.50003 0.28538 0.28428
 H992 H 0.50019 0.21380 0.21576
 C993 C 1.02443 0.74020 0.75984
 C994 C 1.02440 0.76049 0.74036
 C995 C 1.00003 0.77047 0.73078
 C996 C 0.97569 0.76045 0.74036
 C997 C 0.97572 0.74013 0.75981
 C998 C 1.00009 0.73018 0.76942
 H999 H 1.00012 0.71456 0.78444
 H1000 H 1.00000 0.78608 0.71576
 C1001 C 0.52435 0.74005 0.25991
 C1002 C 0.52435 0.76035 0.24045
 C1003 C 0.50000 0.77028 0.23079
 C1004 C 0.47565 0.76022 0.24029
 C1005 C 0.47565 0.73992 0.25976
 C1006 C 0.50001 0.73000 0.26943
 H1007 H 0.50002 0.71438 0.28446
 H1008 H 0.49999 0.78590 0.21577
 C1009 C -0.02456 0.76028 0.25982
 C1010 C -0.02453 0.73991 0.24044
 C1011 C -0.00015 0.72997 0.23080
 C1012 C 0.02420 0.74004 0.24027
 C1013 C 0.02417 0.76034 0.25970
 C1014 C -0.00021 0.77033 0.26931
 H1015 H -0.00024 0.78598 0.28427
 H1016 H -0.00013 0.71433 0.21583
 C1017 C 0.47543 0.76051 0.76014
 C1018 C 0.47544 0.74021 0.74069
 C1019 C 0.49983 0.73022 0.73108
 C1020 C 0.52420 0.74018 0.74063
 C1021 C 0.52418 0.76046 0.76011
 C1022 C 0.49980 0.77046 0.76971
 H1023 H 0.49979 0.78605 0.78473
 H1024 H 0.49984 0.71462 0.71606
 C1025 C 0.43096 0.27982 0.27975
 C1026 C 0.45115 0.27050 0.27042
 C1027 C 0.43064 0.78084 0.78002
 C1028 C 0.45084 0.77144 0.77072
 C1029 C -0.06953 0.28060 0.77953
 C1030 C -0.04932 0.27119 0.77028
 C1031 C -0.06933 0.78051 0.27973
 C1032 C -0.04914 0.77114 0.27043
 C1033 C 0.56916 0.72003 0.27982
 C1034 C 0.54892 0.72927 0.27055
 C1035 C 0.56915 0.21949 0.77961
 C1036 C 0.54890 0.22879 0.77038
 C1037 C 1.06925 0.72013 0.77968
 C1038 C 1.04901 0.72940 0.77043
 C1039 C 1.06919 0.22002 0.27962
 C1040 C 1.04895 0.22927 0.27035
 C1041 C 0.56896 0.28018 0.72039
 C1042 C 0.54881 0.27081 0.72973
 C1043 C 0.56906 0.78055 0.22058
 C1044 C 0.54890 0.77121 0.22988
 C1045 C 1.06903 0.28068 0.22047
 C1046 C 1.04887 0.27131 0.22978
 C1047 C 1.06910 0.78063 0.72037
 C1048 C 1.04894 0.77132 0.72972
 C1049 C 0.43070 0.72004 0.72081
 C1050 C 0.45088 0.72937 0.73010
 C1051 C 0.43111 0.21921 0.22040
 C1052 C 0.45125 0.22854 0.22975
 C1053 C -0.06915 0.71951 0.22063
 C1054 C -0.04905 0.72896 0.22994
 C1055 C -0.06941 0.21972 0.72040
 C1056 C -0.04928 0.22907 0.72975
 C1057 C 0.28020 0.43087 0.27978
 C1058 C 0.27095 0.45109 0.27048
 C1059 C 0.28130 -0.06988 0.78005
 C1060 C 0.27193 -0.04963 0.77080
 C1061 C 0.78034 0.43060 0.78021
 C1062 C 0.77107 0.45080 0.77084
 C1063 C 0.78047 -0.06960 0.28036
 C1064 C 0.77126 -0.04937 0.27100
 C1065 C 0.28021 0.56901 0.72037
 C1066 C 0.27092 0.54878 0.72962
 C1067 C 0.28028 1.06887 0.22037
 C1068 C 0.27092 1.04875 0.22968
 C1069 C 0.78032 0.56891 0.22063
 C1070 C 0.77093 0.54883 0.22997
 C1071 C 0.77979 1.06932 0.72072
 C1072 C 0.77040 1.04927 0.73016
 C1073 C 0.71987 0.56920 0.27994
 C1074 C 0.72904 0.54892 0.27069
 C1075 C 0.71943 1.06974 0.78033
 C1076 C 0.72861 1.04942 0.77108
 C1077 C 0.21979 0.56905 0.77964
 C1078 C 0.22902 0.54882 0.77036
 C1079 C 0.21986 1.06912 0.27964
 C1080 C 0.22904 1.04885 0.27040
 C1081 C 0.71995 0.43071 0.72051
 C1082 C 0.72929 0.45084 0.72989
 C1083 C 0.72015 -0.06938 0.22077
 C1084 C 0.72952 -0.04929 0.23010
 C1085 C 0.21983 0.43108 0.22031
 C1086 C 0.22916 0.45119 0.22965
 C1087 C 0.22041 -0.06951 0.72070
 C1088 C 0.22985 -0.04950 0.73013
 C1089 C 0.27982 0.27980 0.43135
 C1090 C 0.27050 0.27049 0.45147
 C1091 C 0.28055 0.77995 -0.06919
 C1092 C 0.27124 0.77065 -0.04904
 C1093 C 0.77949 0.28067 -0.06893
 C1094 C 0.77025 0.27121 -0.04884
 C1095 C 0.77967 0.78055 0.43127
 C1096 C 0.77044 0.77118 0.45142
 C1097 C 0.71997 0.27989 0.56871
 C1098 C 0.72923 0.27055 0.54857
 C1099 C 0.72016 0.78012 1.06901
 C1100 C 0.72945 0.77081 1.04887
 C1101 C 0.22013 0.28011 1.06893
 C1102 C 0.22938 0.27073 1.04881
 C1103 C 0.22014 0.78030 0.56868
 C1104 C 0.22946 0.77098 0.54857
 C1105 C 0.28012 0.72006 0.56872
 C1106 C 0.27079 0.72941 0.54861
 C1107 C 0.27996 0.21979 1.06893
 C1108 C 0.27062 0.22910 1.04882
 C1109 C 0.77987 0.71987 1.06904
 C1110 C 0.77064 0.72918 1.04889
 C1111 C 0.77978 0.21959 0.56865
 C1112 C 0.77046 0.22891 0.54854
 C1113 C 0.72003 0.72017 0.43145
 C1114 C 0.72933 0.72953 0.45153
 C1115 C 0.72011 0.21988 -0.06888
 C1116 C 0.72935 0.22931 -0.04880
 C1117 C 0.22039 0.71997 -0.06896
 C1118 C 0.22977 0.72932 -0.04892
 C1119 C 0.21987 0.21976 0.43139
 C1120 C 0.22917 0.22908 0.45148
 C1121 C 0.27995 0.43078 0.72031
 C1122 C 0.27071 0.45100 0.72959
 C1123 C 0.28008 0.93101 0.21994
 C1124 C 0.27076 0.95112 0.22937
 C1125 C 0.78005 0.43105 0.22027
 C1126 C 0.77075 0.45120 0.22965
 C1127 C 0.77991 0.93146 0.72056
 C1128 C 0.77056 0.95161 0.72997
 C1129 C 0.71992 0.56880 0.72046
 C1130 C 0.72928 0.54864 0.72981
 C1131 C 0.72030 0.06847 0.22012
 C1132 C 0.72967 0.04837 0.22958
 C1133 C 0.21977 0.56898 0.22004
 C1134 C 0.22913 0.54886 0.22946
 C1135 C 0.21996 0.06835 0.72069
 C1136 C 0.22940 0.04820 0.73004
 C1137 C 0.28027 0.56899 0.27964
 C1138 C 0.27096 0.54885 0.27032
 C1139 C 0.28048 0.06855 0.77991
 C1140 C 0.27137 0.04826 0.77072
 C1141 C 0.78049 0.56883 0.77987
 C1142 C 0.77120 0.54863 0.77061
 C1143 C 0.78069 0.06863 0.27966
 C1144 C 0.77146 0.04841 0.27045
 C1145 C 0.71962 0.43092 0.27959
 C1146 C 0.72886 0.45116 0.27040
 C1147 C 0.71950 0.93134 0.78010
 C1148 C 0.72874 0.95157 0.77085
 C1149 C 0.21948 0.43092 0.77975
 C1150 C 0.22883 0.45107 0.77041
 C1151 C 0.21966 0.93097 0.27959
 C1152 C 0.22896 0.95112 0.27027
 C1153 C 0.43072 0.27992 0.72047
 C1154 C 0.45096 0.27067 0.72976
 C1155 C 0.43095 0.78026 0.22018
 C1156 C 0.45111 0.77097 0.22958
 C1157 C 0.93086 0.28030 0.22030
 C1158 C 0.95107 0.27104 0.22962
 C1159 C 0.93090 0.78058 0.72047
 C1160 C 0.95112 0.77128 0.72976
 C1161 C 0.56920 0.28007 0.27938
 C1162 C 0.54901 0.27073 0.27016
 C1163 C 0.56891 0.78062 0.78003
 C1164 C 0.54874 0.77128 0.77071
 C1165 C 0.06871 0.28020 0.77979
 C1166 C 0.04855 0.27086 0.77046
 C1167 C 0.06887 0.78047 0.27965
 C1168 C 0.04871 0.77116 0.27031
 C1169 C 0.56894 0.71992 0.72063
 C1170 C 0.54877 0.72931 0.72998
 C1171 C 0.56923 0.21933 0.22023
 C1172 C 0.54906 0.22868 0.22959
 C1173 C 0.06892 0.71993 0.22013
 C1174 C 0.04876 0.72925 0.22955
 C1175 C 0.06879 0.21936 0.72067
 C1176 C 0.04858 0.22874 0.72993
 C1177 C 0.43094 0.71964 0.27957
 C1178 C 0.45110 0.72902 0.27028
 C1179 C 0.43079 0.21947 0.77970
 C1180 C 0.45102 0.22875 0.77045
 C1181 C 0.93096 0.71988 0.77960
 C1182 C 0.95116 0.72923 0.77035
 C1183 C 0.93092 0.21963 0.27939
 C1184 C 0.95112 0.22898 0.27016
 C1185 C 0.27975 0.27981 0.56890
 C1186 C 0.27041 0.27045 0.54885
 C1187 C 0.28025 0.78007 0.06854
 C1188 C 0.27100 0.77073 0.04842
 C1189 C 0.77996 0.28026 0.06862
 C1190 C 0.77059 0.27091 0.04856
 C1191 C 0.77997 0.78046 0.56890
 C1192 C 0.77064 0.77107 0.54884
 C1193 C 0.27988 0.71990 0.43109
 C1194 C 0.27061 0.72926 0.45121
 C1195 C 0.27973 0.21945 0.93138
 C1196 C 0.27039 0.22884 0.95144
 C1197 C 0.78012 0.71984 0.93142
 C1198 C 0.77077 0.72922 0.95150
 C1199 C 0.77994 0.21952 0.43112
 C1200 C 0.77056 0.22889 0.45118
 C1201 C 0.71999 0.27994 0.43108
 C1202 C 0.72930 0.27056 0.45116
 C1203 C 0.72018 0.78023 0.93140
 C1204 C 0.72951 0.77088 0.95149
 C1205 C 0.21979 0.27982 0.93130
 C1206 C 0.22912 0.27049 0.95141
 C1207 C 0.21998 0.78015 0.43107
 C1208 C 0.22933 0.77085 0.45119
 C1209 C 0.72016 0.72009 0.56906
 C1210 C 0.72944 0.72946 0.54894
 C1211 C 0.72029 0.21977 0.06876
 C1212 C 0.72952 0.22919 0.04864
 C1213 C 0.22019 0.72010 0.06856
 C1214 C 0.22958 0.72941 0.04845
 C1215 C 0.21977 0.21952 0.56894
 C1216 C 0.22910 0.22894 0.54887
   
