data_POSCAR
  _audit_creation_date              2014-09-24
  _audit_creation_method            'ToBaCCo'
  _symmetry_space_group_name_H-M    'P1'
  _symmetry_Int_Tables_number       1
  _symmetry_cell_setting            triclinic
  loop_
  _symmetry_equiv_pos_as_xyz
 x,y,z
_cell_length_a 23.3235
_cell_length_b 23.3070
_cell_length_c 23.3087
_cell_angle_alpha 90.062700
_cell_angle_beta 90.059300
_cell_angle_gamma 89.949100
loop_
  _atom_site_label
  _atom_site_type_symbol
  _atom_site_fract_x
  _atom_site_fract_y
  _atom_site_fract_z
O1 O 0.20332 1.05495 0.05441
 O2 O 0.20698 0.93456 -0.04720
 O3 O 0.20249 0.94746 0.05885
 O4 O 0.20052 1.05064 -0.06005
 O5 O 0.29435 1.06247 -0.05317
 O6 O 0.29670 0.94194 0.04877
 O7 O 0.29712 0.95510 -0.06682
 O8 O 0.29819 1.05570 0.05465
 Cu9 Cu 0.19345 0.99801 -0.00048
 Cu10 Cu 0.30648 1.00222 -0.00332
 C11 C 0.25061 1.07391 0.07365
 C12 C 0.25248 0.92539 -0.07561
 C13 C 0.25035 0.92586 0.07259
 C14 C 0.24638 1.07585 -0.07499
 O15 O 0.70476 0.55324 0.55713
 O16 O 0.70468 0.44405 0.44331
 O17 O 0.70255 0.44168 0.55473
 O18 O 0.70322 0.55574 0.44530
 O19 O 0.79803 0.55469 0.44473
 O20 O 0.79738 0.44186 0.55582
 O21 O 0.79953 0.44288 0.44425
 O22 O 0.79960 0.55362 0.55667
 Cu23 Cu 0.69423 0.49878 0.50006
 Cu24 Cu 0.80820 0.49828 0.50040
 C25 C 0.75223 0.57195 0.57606
 C26 C 0.75209 0.42476 0.42484
 C27 C 0.74979 0.42259 0.57389
 C28 C 0.75065 0.57429 0.42626
 O29 O 0.70258 0.95286 1.06768
 O30 O 0.70007 1.05156 0.94410
 O31 O 0.70326 0.94089 0.95042
 O32 O 0.70604 1.06493 1.04892
 O33 O 0.79386 1.03902 1.07189
 O34 O 0.79694 0.95057 0.94017
 O35 O 0.79368 1.06039 0.95600
 O36 O 0.79056 0.92855 1.04375
 Cu37 Cu 0.69257 1.00036 1.00380
 Cu38 Cu 0.80399 0.99670 1.00422
 C39 C 0.74588 0.92030 1.07360
 C40 C 0.74717 1.07560 0.93170
 C41 C 0.74997 0.92746 0.92550
 C42 C 0.75059 1.07124 1.07957
 O43 O 0.29490 0.44773 0.55702
 O44 O 0.29544 0.55562 0.44252
 O45 O 0.29738 0.55921 0.55406
 O46 O 0.29746 0.44429 0.44567
 O47 O 0.20261 0.44506 0.44468
 O48 O 0.20254 0.55904 0.55450
 O49 O 0.20057 0.55658 0.44276
 O50 O 0.20002 0.44748 0.55615
 Cu51 Cu 0.30591 0.50173 0.49988
 Cu52 Cu 0.19183 0.50211 0.49949
 C53 C 0.24733 0.42921 0.57571
 C54 C 0.24807 0.57435 0.42337
 C55 C 0.25006 0.57836 0.57282
 C56 C 0.25012 0.42539 0.42672
 O57 O 1.05197 0.29772 0.05652
 O58 O 0.93234 0.29567 -0.04618
 O59 O 0.94391 0.29170 0.06135
 O60 O 1.04796 0.29691 -0.05720
 O61 O 1.05965 0.20282 -0.05193
 O62 O 0.93750 0.19807 0.04753
 O63 O 0.95381 0.20606 -0.06768
 O64 O 1.05214 0.20281 0.05578
 Cu65 Cu 0.99466 0.30544 0.00226
 Cu66 Cu 0.99908 0.19254 -0.00308
 C67 C 1.07091 0.25023 0.07508
 C68 C 0.92474 0.25124 -0.07664
 C69 C 0.92169 0.24351 0.07314
 C70 C 1.07297 0.25101 -0.07302
 O71 O 0.55785 0.79926 0.55398
 O72 O 0.44498 0.79908 0.44378
 O73 O 0.44621 0.79713 0.55546
 O74 O 0.55658 0.79594 0.44211
 O75 O 0.55565 0.70105 0.44219
 O76 O 0.44657 0.70223 0.55640
 O77 O 0.44415 0.70417 0.44472
 O78 O 0.55809 0.70434 0.55391
 Cu79 Cu 0.50147 0.80741 0.49879
 Cu80 Cu 0.50109 0.69338 0.49936
 C81 C 0.57701 0.75188 0.57257
 C82 C 0.42548 0.75166 0.42568
 C83 C 0.42779 0.74979 0.57510
 C84 C 0.57466 0.74821 0.42291
 O85 O 0.06830 0.70553 -0.04981
 O86 O -0.05612 0.70094 0.04732
 O87 O -0.04316 0.70794 -0.06988
 O88 O 0.05454 0.70370 0.05502
 O89 O 0.06185 0.79777 0.04556
 O90 O -0.06782 0.79573 -0.04516
 O91 O -0.04755 0.79452 0.05974
 O92 O 0.04323 0.79427 -0.07049
 Cu93 Cu 0.00363 0.69416 -0.00542
 Cu94 Cu -0.00074 0.80586 -0.00359
 C95 C 0.07455 0.75044 -0.07968
 C96 C -0.06981 0.74680 0.07349
 C97 C -0.07491 0.75190 -0.07653
 C98 C 0.07732 0.75111 0.06914
 O99 O 0.55637 0.29418 0.44698
 O100 O 0.44253 0.29617 0.55574
 O101 O 0.55394 0.29765 0.55845
 O102 O 0.44478 0.29797 0.44434
 O103 O 0.44332 0.20307 0.44524
 O104 O 0.55366 0.20274 0.55866
 O105 O 0.44212 0.20123 0.55672
 O106 O 0.55498 0.19926 0.44701
 Cu107 Cu 0.49952 0.30610 0.50129
 Cu108 Cu 0.49846 0.19198 0.50194
 C109 C 0.57481 0.24635 0.42855
 C110 C 0.42320 0.24897 0.57465
 C111 C 0.57235 0.25024 0.57775
 C112 C 0.42535 0.25067 0.42573
 O113 O 1.05509 0.05256 0.20515
 O114 O 0.93268 -0.04716 0.20644
 O115 O 0.94817 0.05968 0.20438
 O116 O 1.04891 -0.06116 0.20085
 O117 O 1.06100 -0.05492 0.29476
 O118 O 0.94008 0.04651 0.29803
 O119 O 0.95324 -0.06892 0.29610
 O120 O 1.05345 0.05323 0.30004
 Cu121 Cu 0.99699 -0.00094 0.19427
 Cu122 Cu 1.00044 -0.00557 0.30719
 C123 C 1.07297 0.07198 0.25286
 C124 C 0.92340 -0.07665 0.25125
 C125 C 0.92554 0.07214 0.25210
 C126 C 1.07425 -0.07642 0.24660
 O127 O 0.55430 0.55804 0.70664
 O128 O 0.44518 0.44455 0.70649
 O129 O 0.44280 0.55586 0.70303
 O130 O 0.55674 0.44629 0.70349
 O131 O 0.55614 0.44571 0.79837
 O132 O 0.44303 0.55684 0.79792
 O133 O 0.44456 0.44526 0.80142
 O134 O 0.55474 0.55772 0.80155
 Cu135 Cu 0.49984 0.50115 0.69535
 Cu136 Cu 0.49967 0.50143 0.80937
 C137 C 0.57301 0.57698 0.75417
 C138 C 0.42624 0.42598 0.75399
 C139 C 0.42370 0.57496 0.75026
 C140 C 0.57550 0.42719 0.75087
 O141 O 0.94974 1.06561 0.70096
 O142 O 1.05484 0.94817 0.69813
 O143 O 0.94119 0.94936 0.70426
 O144 O 1.05743 1.05639 0.70331
 O145 O 1.04593 1.06461 0.79715
 O146 O 0.95223 0.93795 0.79778
 O147 O 1.06003 0.95289 0.79278
 O148 O 0.93166 1.04546 0.79151
 Cu149 Cu 0.99896 1.00393 0.69171
 Cu150 Cu 0.99781 1.00174 0.80459
 C151 C 0.92073 1.07368 0.74617
 C152 C 1.07741 0.93278 0.74516
 C153 C 0.92884 0.92375 0.75088
 C154 C 1.07013 1.07976 0.75084
 O155 O 0.44643 0.55599 0.29403
 O156 O 0.55432 0.44129 0.29528
 O157 O 0.55796 0.55304 0.29688
 O158 O 0.44310 0.44468 0.29791
 O159 O 0.44320 0.44326 0.20301
 O160 O 0.55768 0.55259 0.20199
 O161 O 0.55456 0.44059 0.20035
 O162 O 0.44610 0.55474 0.19910
 Cu163 Cu 0.50053 0.49890 0.30562
 Cu164 Cu 0.50046 0.49771 0.19153
 C165 C 0.42786 0.57452 0.24633
 C166 C 0.57256 0.42150 0.24795
 C167 C 0.57707 0.57138 0.24939
 C168 C 0.42385 0.42553 0.25073
 O169 O 0.24957 0.10093 0.17051
 O170 O 0.31269 0.08446 0.25038
 O171 O 0.09999 0.16900 0.25365
 O172 O 0.07930 0.24321 0.31133
 O173 O 0.16769 0.25000 0.10222
 O174 O 0.24690 0.31379 0.08589
 O175 O 0.25094 0.32836 0.39930
 O176 O 0.18425 0.25268 0.41479
 O177 O 0.39703 0.25123 0.32901
 O178 O 0.41446 0.18674 0.24672
 O179 O 0.32690 0.39787 0.25204
 O180 O 0.24375 0.41493 0.18761
 O181 O 0.24968 0.39737 0.33027
 O182 O 0.18449 0.41526 0.24956
 O183 O 0.39613 0.32900 0.25118
 O184 O 0.41342 0.24710 0.18606
 O185 O 0.32861 0.25107 0.39860
 O186 O 0.25086 0.18621 0.41729
 O187 O 0.24844 0.17025 0.10160
 O188 O 0.31093 0.25029 0.08514
 O189 O 0.09905 0.24842 0.17169
 O190 O 0.08606 0.31577 0.25130
 O191 O 0.16938 0.10014 0.25065
 O192 O 0.24908 0.08419 0.31412
 Zr193 Zr 0.24665 0.14663 0.24842
 O194 O 0.30046 0.19585 0.30165
 Zr195 Zr 0.14540 0.24694 0.24930
 O196 O 0.19482 0.30048 0.30302
 Zr197 Zr 0.24558 0.24764 0.14788
 O198 O 0.29927 0.30132 0.19681
 Zr199 Zr 0.25073 0.25073 0.35315
 O200 O 0.19620 0.19641 0.30466
 Zr201 Zr 0.35059 0.25120 0.25146
 O202 O 0.30163 0.19691 0.19744
 Zr203 Zr 0.24927 0.35164 0.25248
 O204 O 0.19491 0.30271 0.19838
 O205 O 0.19291 0.19410 0.19559
 O206 O 0.30387 0.30489 0.30581
 C207 C 0.25007 0.11775 0.11805
 C208 C 0.11686 0.11650 0.25311
 C209 C 0.11530 0.25005 0.11910
 C210 C 0.25030 0.38087 0.38274
 C211 C 0.38092 0.25103 0.38165
 C212 C 0.37945 0.38144 0.25137
 H213 H 0.32455 0.16979 0.32481
 H214 H 0.32253 0.32510 0.17063
 H215 H 0.16843 0.16938 0.17123
 H216 H 0.16916 0.32380 0.32743
 H217 H 0.15539 0.22399 0.40260
 H218 H 0.09144 0.26683 0.34445
 H219 H 0.40489 0.27770 0.15794
 H220 H 0.34136 0.22371 0.09824
 H221 H 0.27793 0.15578 0.40548
 H222 H 0.22200 0.09720 0.34413
 H223 H 0.27455 0.40737 0.15947
 H224 H 0.22004 0.34374 0.09954
 H225 H 0.34285 0.09808 0.22384
 H226 H 0.40653 0.15824 0.27710
 H227 H 0.09764 0.34307 0.22094
 H228 H 0.15582 0.40592 0.27935
 O229 O 0.72950 0.88982 0.16522
 O230 O 0.69366 0.91894 0.25479
 O231 O 0.89385 0.83122 0.26790
 O232 O 0.92554 0.74914 0.30455
 O233 O 0.83441 0.73780 0.10176
 O234 O 0.74973 0.68415 0.08193
 O235 O 0.74946 0.67110 0.39756
 O236 O 0.81665 0.75034 0.41090
 O237 O 0.60326 0.74644 0.32601
 O238 O 0.59065 0.81409 0.23791
 O239 O 0.67394 0.59976 0.25129
 O240 O 0.75836 0.58321 0.18587
 O241 O 0.75175 0.60121 0.32931
 O242 O 0.81585 0.58202 0.25019
 O243 O 0.60432 0.66815 0.24758
 O244 O 0.58336 0.74248 0.18668
 O245 O 0.67132 0.74817 0.39600
 O246 O 0.74202 0.81187 0.41497
 O247 O 0.76311 0.82686 0.09938
 O248 O 0.69215 0.75068 0.08080
 O249 O 0.90179 0.75511 0.17039
 O250 O 0.91459 0.68354 0.25040
 O251 O 0.83064 0.89622 0.23277
 O252 O 0.75757 0.91639 0.30657
 Zr253 Zr 0.75276 0.85107 0.24364
 O254 O 0.69933 0.80242 0.29807
 Zr255 Zr 0.85475 0.75184 0.24796
 O256 O 0.80549 0.69832 0.30157
 Zr257 Zr 0.75615 0.74893 0.14513
 O258 O 0.70204 0.69583 0.19435
 Zr259 Zr 0.74885 0.74825 0.35055
 O260 O 0.80265 0.80261 0.30177
 Zr261 Zr 0.64981 0.74591 0.24830
 O262 O 0.69841 0.79935 0.19329
 Zr263 Zr 0.75161 0.64618 0.25109
 O264 O 0.80628 0.69476 0.19714
 O265 O 0.80839 0.80367 0.19214
 O266 O 0.69641 0.69316 0.30353
 C267 C 0.74571 0.87702 0.11425
 C268 C 0.88076 0.88198 0.25084
 C269 C 0.88635 0.74557 0.11819
 C270 C 0.75065 0.61834 0.38164
 C271 C 0.61911 0.74755 0.37881
 C272 C 0.62127 0.61580 0.24935
 H273 H 0.67528 0.82870 0.32113
 H274 H 0.67879 0.67177 0.16826
 H275 H 0.83324 0.82713 0.16702
 H276 H 0.83143 0.67577 0.32646
 H277 H 0.84170 0.78292 0.40021
 H278 H 0.90973 0.74191 0.34323
 H279 H 0.60130 0.73069 0.15011
 H280 H 0.66512 0.78173 0.09129
 H281 H 0.74222 0.84919 0.39499
 H282 H 0.79084 0.90728 0.33139
 H283 H 0.72473 0.58719 0.16027
 H284 H 0.77204 0.65109 0.09649
 H285 H 0.65588 0.90384 0.24280
 H286 H 0.58821 0.83502 0.27479
 H287 H 0.90565 0.65815 0.21750
 H288 H 0.84691 0.59476 0.27613
 O289 O 0.73986 0.10338 0.83580
 O290 O 0.68486 0.08352 0.75090
 O291 O 0.89034 0.16537 0.72951
 O292 O 0.92320 0.25056 0.69692
 O293 O 0.83292 0.26828 0.89423
 O294 O 0.74793 0.30978 0.92263
 O295 O 0.74778 0.32581 0.60282
 O296 O 0.81448 0.24628 0.58984
 O297 O 0.60092 0.25193 0.67452
 O298 O 0.58535 0.18632 0.75984
 O299 O 0.67217 0.39809 0.74841
 O300 O 0.76007 0.41142 0.81608
 O301 O 0.75041 0.39602 0.67072
 O302 O 0.81183 0.41703 0.74545
 O303 O 0.60230 0.33018 0.75270
 O304 O 0.58283 0.25231 0.81578
 O305 O 0.66898 0.24904 0.60465
 O306 O 0.73989 0.18539 0.58528
 O307 O 0.75733 0.17225 0.90296
 O308 O 0.68784 0.25088 0.91782
 O309 O 0.89776 0.23387 0.83047
 O310 O 0.91404 0.31048 0.75515
 O311 O 0.82789 0.10013 0.76471
 O312 O 0.75158 0.08041 0.69442
 Zr313 Zr 0.75013 0.14608 0.75713
 O314 O 0.69696 0.19514 0.70276
 Zr315 Zr 0.85220 0.24410 0.75280
 O316 O 0.80347 0.29827 0.69915
 Zr317 Zr 0.75340 0.24938 0.85521
 O318 O 0.69961 0.30272 0.80579
 Zr319 Zr 0.74666 0.24870 0.65002
 O320 O 0.80025 0.19362 0.69867
 Zr321 Zr 0.64747 0.25208 0.75218
 O322 O 0.69610 0.19842 0.80722
 Zr323 Zr 0.74966 0.35119 0.74879
 O324 O 0.80400 0.30239 0.80266
 O325 O 0.80505 0.19331 0.80898
 O326 O 0.69424 0.30425 0.69664
 C327 C 0.74787 0.12001 0.88766
 C328 C 0.87777 0.11463 0.74666
 C329 C 0.88358 0.25150 0.88074
 C330 C 0.74931 0.37865 0.61852
 C331 C 0.61679 0.25037 0.62180
 C332 C 0.61945 0.38241 0.75066
 H333 H 0.67287 0.16901 0.67959
 H334 H 0.67693 0.32741 0.83179
 H335 H 0.82865 0.16833 0.83392
 H336 H 0.82965 0.32078 0.67454
 H337 H 0.83974 0.21394 0.60092
 H338 H 0.90736 0.25619 0.65796
 H339 H 0.59756 0.27475 0.84865
 H340 H 0.66064 0.21988 0.90763
 H341 H 0.73682 0.14813 0.60515
 H342 H 0.78396 0.08895 0.66835
 H343 H 0.72337 0.41391 0.83720
 H344 H 0.75906 0.34715 0.90596
 H345 H 0.65261 0.09760 0.77463
 H346 H 0.58845 0.16125 0.72570
 H347 H 0.90555 0.33422 0.78937
 H348 H 0.84802 0.39886 0.73290
 O349 O 0.26915 0.89636 0.83231
 O350 O 0.31293 0.92233 0.74557
 O351 O 0.10605 0.83747 0.73487
 O352 O 0.07864 0.75659 0.69095
 O353 O 0.16667 0.73453 0.89107
 O354 O 0.25537 0.69502 0.91960
 O355 O 0.25234 0.67527 0.60082
 O356 O 0.18591 0.75428 0.58642
 O357 O 0.39908 0.74867 0.67190
 O358 O 0.41313 0.81679 0.75897
 O359 O 0.32698 0.60433 0.74761
 O360 O 0.23902 0.59220 0.81500
 O361 O 0.24876 0.60591 0.66942
 O362 O 0.18734 0.58578 0.74421
 O363 O 0.39731 0.67184 0.75107
 O364 O 0.41807 0.74672 0.81207
 O365 O 0.33110 0.75183 0.60186
 O366 O 0.25850 0.81572 0.58179
 O367 O 0.23603 0.83248 0.89769
 O368 O 0.30923 0.75881 0.91695
 O369 O 0.10172 0.76866 0.82753
 O370 O 0.08613 0.69226 0.75136
 O371 O 0.17387 0.90427 0.75656
 O372 O 0.25150 0.92069 0.68860
 Zr373 Zr 0.25102 0.85660 0.75278
 O374 O 0.30394 0.80663 0.69917
 Zr375 Zr 0.14758 0.75906 0.74989
 O376 O 0.19625 0.70426 0.69670
 Zr377 Zr 0.24574 0.75481 0.85219
 O378 O 0.29973 0.70073 0.80369
 Zr379 Zr 0.25340 0.75288 0.64713
 O380 O 0.20007 0.80853 0.69534
 Zr381 Zr 0.35248 0.74987 0.74953
 O382 O 0.30407 0.80422 0.80380
 Zr383 Zr 0.24959 0.65158 0.74714
 O384 O 0.19499 0.70096 0.80058
 O385 O 0.19497 0.81088 0.80470
 O386 O 0.30529 0.69743 0.69449
 C387 C 0.25297 0.88283 0.88317
 C388 C 0.12210 0.88912 0.74493
 C389 C 0.11600 0.75146 0.87785
 C390 C 0.25036 0.62268 0.61706
 C391 C 0.38328 0.75008 0.61911
 C392 C 0.37983 0.61975 0.74967
 H393 H 0.32862 0.83232 0.67624
 H394 H 0.32245 0.67647 0.83006
 H395 H 0.17032 0.83637 0.82806
 H396 H 0.17016 0.68142 0.67224
 H397 H 0.15989 0.78599 0.59760
 H398 H 0.09422 0.74233 0.65418
 H399 H 0.39943 0.73625 0.84865
 H400 H 0.33573 0.79019 0.90624
 H401 H 0.27173 0.85161 0.60004
 H402 H 0.22054 0.91085 0.66120
 H403 H 0.27562 0.59014 0.83642
 H404 H 0.24131 0.65789 0.90459
 H405 H 0.34905 0.90637 0.76111
 H406 H 0.41488 0.83806 0.72230
 H407 H 0.09400 0.66888 0.78592
 H408 H 0.15152 0.60353 0.73008
 O409 O 0.24931 0.40180 0.67231
 O410 O 0.18685 0.41908 0.75252
 O411 O 0.39772 0.32964 0.75294
 O412 O 0.41746 0.25507 0.81015
 O413 O 0.32657 0.25173 0.60188
 O414 O 0.24579 0.18959 0.58557
 O415 O 0.24719 0.17284 0.89864
 O416 O 0.31373 0.24825 0.91454
 O417 O 0.10027 0.25583 0.83066
 O418 O 0.08301 0.31898 0.74801
 O419 O 0.16654 0.10633 0.74984
 O420 O 0.24918 0.08777 0.68640
 O421 O 0.24201 0.10447 0.82899
 O422 O 0.30821 0.08577 0.74855
 O423 O 0.09853 0.17624 0.75476
 O424 O 0.08174 0.25777 0.68819
 O425 O 0.16933 0.24965 0.89949
 O426 O 0.24771 0.31480 0.91832
 O427 O 0.24703 0.33292 0.60284
 O428 O 0.18325 0.25428 0.58599
 O429 O 0.39582 0.25034 0.67092
 O430 O 0.40840 0.18283 0.75004
 O431 O 0.32968 0.39992 0.75245
 O432 O 0.25072 0.41752 0.81589
 Zr433 Zr 0.25145 0.35543 0.74970
 O434 O 0.19733 0.30711 0.80304
 Zr435 Zr 0.35055 0.25294 0.74877
 O436 O 0.30079 0.20016 0.80244
 Zr437 Zr 0.24925 0.25519 0.64821
 O438 O 0.19504 0.20239 0.69714
 Zr439 Zr 0.24663 0.25084 0.85346
 O440 O 0.30158 0.30430 0.80495
 Zr441 Zr 0.14551 0.25324 0.75277
 O442 O 0.19488 0.30678 0.69873
 Zr443 Zr 0.24477 0.15075 0.75177
 O444 O 0.29943 0.19875 0.69761
 O445 O 0.30361 0.30719 0.69596
 O446 O 0.19185 0.19823 0.80608
 C447 C 0.24729 0.38530 0.61978
 C448 C 0.38182 0.38240 0.75376
 C449 C 0.37904 0.24980 0.61850
 C450 C 0.24453 0.12054 0.88155
 C451 C 0.11698 0.25290 0.88301
 C452 C 0.11441 0.12360 0.75217
 H453 H 0.17407 0.33357 0.82659
 H454 H 0.17100 0.17926 0.67097
 H455 H 0.32838 0.33153 0.67161
 H456 H 0.32628 0.17613 0.82633
 H457 H 0.34280 0.27661 0.90216
 H458 H 0.40502 0.23194 0.84343
 H459 H 0.08852 0.22604 0.66080
 H460 H 0.15283 0.28020 0.60036
 H461 H 0.21963 0.34484 0.90795
 H462 H 0.27671 0.40310 0.84624
 H463 H 0.21914 0.09668 0.65778
 H464 H 0.27290 0.15939 0.59812
 H465 H 0.15663 0.40684 0.72529
 H466 H 0.09247 0.34802 0.77751
 H467 H 0.39549 0.15551 0.72016
 H468 H 0.33619 0.09330 0.77957
 O469 O 0.74913 0.60036 0.67269
 O470 O 0.81193 0.58355 0.75394
 O471 O 0.60162 0.67347 0.75214
 O472 O 0.58167 0.74935 0.80820
 O473 O 0.67356 0.74907 0.60066
 O474 O 0.75403 0.81151 0.58451
 O475 O 0.74365 0.83095 0.89806
 O476 O 0.69325 0.75031 0.91993
 O477 O 0.89764 0.73544 0.83068
 O478 O 0.92194 0.68893 0.74783
 O479 O 0.83283 0.89656 0.74598
 O480 O 0.74984 0.91526 0.68567
 O481 O 0.75817 0.89832 0.82895
 O482 O 0.69167 0.91755 0.74765
 O483 O 0.90039 0.82698 0.75770
 O484 O 0.91492 0.74377 0.68510
 O485 O 0.83316 0.77089 0.89369
 O486 O 0.75864 0.68623 0.91355
 O487 O 0.75329 0.66852 0.60280
 O488 O 0.81693 0.74768 0.58600
 O489 O 0.60408 0.75260 0.66921
 O490 O 0.59122 0.82024 0.74945
 O491 O 0.66951 0.60312 0.75351
 O492 O 0.74747 0.58595 0.81649
 Zr493 Zr 0.74764 0.64751 0.74996
 O494 O 0.80213 0.69590 0.80303
 Zr495 Zr 0.64898 0.75015 0.74753
 O496 O 0.69863 0.80306 0.80122
 Zr497 Zr 0.75060 0.74660 0.64774
 O498 O 0.80458 0.79979 0.69673
 Zr499 Zr 0.75389 0.75382 0.85270
 O500 O 0.69810 0.70015 0.80458
 Zr501 Zr 0.85429 0.74913 0.75251
 O502 O 0.80474 0.69506 0.69882
 Zr503 Zr 0.75479 0.85225 0.75080
 O504 O 0.70034 0.80384 0.69637
 O505 O 0.69582 0.69519 0.69548
 O506 O 0.80864 0.80565 0.80498
 C507 C 0.75212 0.61629 0.62002
 C508 C 0.61741 0.62069 0.75397
 C509 C 0.62103 0.75182 0.61685
 C510 C 0.75043 0.88293 0.88135
 C511 C 0.88352 0.75261 0.88092
 C512 C 0.88479 0.87951 0.75128
 H513 H 0.82432 0.66869 0.82688
 H514 H 0.82865 0.82259 0.67039
 H515 H 0.67102 0.67065 0.67127
 H516 H 0.67244 0.82698 0.82446
 H517 H 0.66111 0.72638 0.90586
 H518 H 0.59745 0.76521 0.84425
 H519 H 0.91455 0.78065 0.66412
 H520 H 0.84715 0.72147 0.60027
 H521 H 0.79945 0.67717 0.92080
 H522 H 0.72519 0.60294 0.84839
 H523 H 0.77737 0.90433 0.65530
 H524 H 0.72608 0.84134 0.59609
 H525 H 0.84034 0.59281 0.72382
 H526 H 0.90676 0.65247 0.76329
 H527 H 0.60399 0.84751 0.71955
 H528 H 0.66401 0.91048 0.77899
 O529 O 0.25069 0.60127 0.32657
 O530 O 0.18851 0.58452 0.24564
 O531 O 0.40041 0.67119 0.24706
 O532 O 0.42154 0.74550 0.19005
 O533 O 0.32892 0.75045 0.39734
 O534 O 0.24861 0.81395 0.41222
 O535 O 0.25371 0.82921 0.09923
 O536 O 0.31860 0.75279 0.08413
 O537 O 0.10439 0.74900 0.16586
 O538 O 0.08664 0.68483 0.24868
 O539 O 0.17112 0.89706 0.24671
 O540 O 0.25339 0.91514 0.31129
 O541 O 0.24863 0.89782 0.16866
 O542 O 0.31305 0.91646 0.25003
 O543 O 0.10273 0.82760 0.24200
 O544 O 0.08434 0.74697 0.30768
 O545 O 0.17396 0.75439 0.09767
 O546 O 0.25210 0.68703 0.08030
 O547 O 0.24864 0.67044 0.39577
 O548 O 0.18546 0.74977 0.41160
 O549 O 0.39875 0.75058 0.32905
 O550 O 0.41270 0.81788 0.24988
 O551 O 0.33161 0.60177 0.24688
 O552 O 0.25313 0.58472 0.18314
 Zr553 Zr 0.25389 0.64724 0.24891
 O554 O 0.20080 0.69595 0.19462
 Zr555 Zr 0.35409 0.74851 0.25065
 O556 O 0.30531 0.80165 0.19628
 Zr557 Zr 0.25197 0.74788 0.35007
 O558 O 0.19864 0.80097 0.30030
 Zr559 Zr 0.25107 0.75154 0.14464
 O560 O 0.30503 0.69763 0.19406
 Zr561 Zr 0.14916 0.75049 0.24422
 O562 O 0.19748 0.69675 0.29915
 Zr563 Zr 0.24930 0.85194 0.24610
 O564 O 0.30311 0.80356 0.30101
 O565 O 0.30612 0.69500 0.30307
 O566 O 0.19643 0.80491 0.19130
 C567 C 0.24851 0.61801 0.37905
 C568 C 0.38394 0.61865 0.24610
 C569 C 0.38157 0.75149 0.38132
 C570 C 0.25148 0.88152 0.11621
 C571 C 0.12136 0.75178 0.11361
 C572 C 0.11885 0.88008 0.24441
 H573 H 0.17744 0.66976 0.17085
 H574 H 0.17455 0.82443 0.32612
 H575 H 0.33044 0.67042 0.32771
 H576 H 0.33136 0.82528 0.17269
 H577 H 0.34742 0.72440 0.09718
 H578 H 0.40953 0.76849 0.15648
 H579 H 0.09204 0.77764 0.33600
 H580 H 0.15500 0.72397 0.39710
 H581 H 0.22204 0.65857 0.08927
 H582 H 0.27849 0.59932 0.15242
 H583 H 0.22289 0.90666 0.33948
 H584 H 0.27630 0.84364 0.39989
 H585 H 0.15827 0.59723 0.27260
 H586 H 0.09501 0.65670 0.21801
 H587 H 0.40000 0.84527 0.27978
 H588 H 0.34203 0.90781 0.22030
 O589 O 0.74935 0.39610 0.32847
 O590 O 0.81239 0.41077 0.24670
 O591 O 0.60008 0.32459 0.24952
 O592 O 0.57988 0.24829 0.19269
 O593 O 0.67140 0.24806 0.40071
 O594 O 0.75161 0.18514 0.41730
 O595 O 0.73358 0.16389 0.10642
 O596 O 0.68118 0.25143 0.08772
 O597 O 0.89490 0.24876 0.16946
 O598 O 0.91298 0.31170 0.25259
 O599 O 0.82950 0.09896 0.26077
 O600 O 0.74439 0.07737 0.31133
 O601 O 0.76983 0.10185 0.17144
 O602 O 0.68596 0.08183 0.24756
 O603 O 0.89664 0.16795 0.24501
 O604 O 0.91713 0.24864 0.31000
 O605 O 0.82566 0.23342 0.10229
 O606 O 0.76030 0.30013 0.07917
 O607 O 0.75189 0.32802 0.39852
 O608 O 0.81537 0.24885 0.41507
 O609 O 0.60178 0.24507 0.33216
 O610 O 0.58681 0.17906 0.25360
 O611 O 0.66857 0.39426 0.24982
 O612 O 0.74709 0.41166 0.18592
 Zr613 Zr 0.74626 0.34893 0.25143
 O614 O 0.79851 0.29915 0.19746
 Zr615 Zr 0.64665 0.24727 0.25412
 O616 O 0.69488 0.19264 0.20069
 Zr617 Zr 0.74849 0.24980 0.35378
 O618 O 0.80175 0.19601 0.30485
 Zr619 Zr 0.74837 0.24249 0.14821
 O620 O 0.69514 0.29787 0.19691
 Zr621 Zr 0.85085 0.24572 0.24791
 O622 O 0.80284 0.30029 0.30235
 Zr623 Zr 0.75231 0.14387 0.25029
 O624 O 0.69829 0.19293 0.30491
 O625 O 0.69420 0.30176 0.30608
 O626 O 0.80415 0.19063 0.19508
 C627 C 0.75174 0.38023 0.38115
 C628 C 0.61636 0.37724 0.24854
 C629 C 0.61883 0.24577 0.38448
 C630 C 0.75168 0.11405 0.12085
 C631 C 0.87802 0.24102 0.11767
 C632 C 0.88123 0.11576 0.25323
 H633 H 0.82123 0.32488 0.17260
 H634 H 0.82557 0.17325 0.33157
 H635 H 0.66975 0.32650 0.33045
 H636 H 0.66773 0.16823 0.17908
 H637 H 0.65776 0.28490 0.09958
 H638 H 0.59566 0.23178 0.15696
 H639 H 0.90877 0.21919 0.33933
 H640 H 0.84592 0.27404 0.39987
 H641 H 0.75833 0.33916 0.09555
 H642 H 0.71717 0.40059 0.15785
 H643 H 0.76534 0.09019 0.34597
 H644 H 0.72295 0.15583 0.40622
 H645 H 0.84132 0.40002 0.27590
 H646 H 0.90371 0.34015 0.22251
 H647 H 0.60247 0.14903 0.27922
 H648 H 0.67566 0.07501 0.20694
   
