data_POSCAR
  _audit_creation_date              2014-09-24
  _audit_creation_method            'ToBaCCo'
  _symmetry_space_group_name_H-M    'P1'
  _symmetry_Int_Tables_number       1
  _symmetry_cell_setting            triclinic
  loop_
  _symmetry_equiv_pos_as_xyz
 x,y,z
_cell_length_a 60.6438
_cell_length_b 34.3437
_cell_length_c 20.8794
_cell_angle_alpha 89.976500
_cell_angle_beta 89.871000
_cell_angle_gamma 90.188900
loop_
  _atom_site_label
  _atom_site_type_symbol
  _atom_site_fract_x
  _atom_site_fract_y
  _atom_site_fract_z
C1 C 0.74925 0.24888 0.47130
 C2 C 0.74900 0.24879 0.53664
 C3 C 0.73067 0.26664 0.57360
 C4 C 0.76707 0.23088 0.57434
 C5 C 0.76873 0.23517 0.43445
 C6 C 0.73005 0.26270 0.43364
 C7 C 0.72457 0.30559 0.56334
 C8 C 0.70687 0.32170 0.59703
 C9 C 0.69523 0.29917 0.64186
 C10 C 0.70159 0.26058 0.65334
 C11 C 0.71928 0.24448 0.61958
 C12 C 0.77817 0.25298 0.62084
 C13 C 0.79571 0.23689 0.65500
 C14 C 0.80220 0.19844 0.64341
 C15 C 0.79086 0.17593 0.59824
 C16 C 0.77329 0.19198 0.56409
 C17 C 0.76621 0.20585 0.38817
 C18 C 0.78455 0.19161 0.35510
 C19 C 0.80557 0.20677 0.36756
 C20 C 0.80812 0.23672 0.41245
 C21 C 0.78978 0.25102 0.44549
 C22 C 0.70893 0.24678 0.44354
 C23 C 0.69083 0.26122 0.40981
 C24 C 0.69369 0.29137 0.36539
 C25 C 0.71479 0.30661 0.35405
 C26 C 0.73290 0.29223 0.38780
 H27 H 0.73343 0.32337 0.52895
 H28 H 0.70225 0.35165 0.58774
 H29 H 0.69281 0.24275 0.68792
 H30 H 0.72383 0.21449 0.62841
 H31 H 0.77353 0.28294 0.62967
 H32 H 0.80436 0.25453 0.68991
 H33 H 0.76467 0.17424 0.52929
 H34 H 0.75010 0.19342 0.37873
 H35 H 0.78239 0.16847 0.32039
 H36 H 0.82429 0.24878 0.42228
 H37 H 0.79201 0.27416 0.48013
 H38 H 0.70646 0.22350 0.47784
 H39 H 0.67459 0.24912 0.41876
 H40 H 0.71719 0.32991 0.31970
 H41 H 0.74907 0.30472 0.37925
 H42 H 0.79569 0.14611 0.58908
 C43 C 0.25060 0.75099 0.53179
 C44 C 0.25048 0.75096 0.46645
 C45 C 0.26976 0.73720 0.42882
 C46 C 0.23107 0.76470 0.42954
 C47 C 0.23258 0.76931 0.56938
 C48 C 0.26875 0.73271 0.56873
 C49 C 0.29086 0.75306 0.43899
 C50 C 0.30901 0.73886 0.40502
 C51 C 0.30622 0.70901 0.36010
 C52 C 0.28515 0.69380 0.34856
 C53 C 0.26699 0.70794 0.38255
 C54 C 0.23371 0.79383 0.38289
 C55 C 0.21545 0.80789 0.34944
 C56 C 0.19441 0.79274 0.36187
 C57 C 0.19174 0.76304 0.40723
 C58 C 0.20999 0.74893 0.44067
 C59 C 0.22126 0.74755 0.61603
 C60 C 0.20374 0.76407 0.64996
 C61 C 0.19751 0.80260 0.63798
 C62 C 0.20908 0.82478 0.59268
 C63 C 0.22662 0.80830 0.55877
 C64 C 0.27471 0.69372 0.55804
 C65 C 0.29230 0.67725 0.59151
 C66 C 0.30396 0.69943 0.63647
 C67 C 0.29775 0.73798 0.64848
 C68 C 0.28017 0.75449 0.61499
 H69 H 0.29327 0.77615 0.47361
 H70 H 0.32523 0.75094 0.41413
 H71 H 0.28281 0.67073 0.31383
 H72 H 0.25084 0.69552 0.37378
 H73 H 0.24984 0.80619 0.37337
 H74 H 0.21771 0.83082 0.31436
 H75 H 0.20767 0.72594 0.47558
 H76 H 0.22570 0.71754 0.62515
 H77 H 0.19491 0.74669 0.68498
 H78 H 0.20444 0.85466 0.58322
 H79 H 0.23542 0.82579 0.52385
 H80 H 0.26584 0.67620 0.52345
 H81 H 0.29691 0.64735 0.58204
 H82 H 0.30663 0.75537 0.68324
 H83 H 0.27574 0.78451 0.62417
 H84 H 0.17554 0.75100 0.41704
 C85 C 0.24937 0.25103 -0.46942
 C86 C 0.24952 0.25107 -0.53476
 C87 C 0.26782 0.26918 -0.57182
 C88 C 0.23136 0.23301 -0.57221
 C89 C 0.22984 0.23750 -0.43235
 C90 C 0.26874 0.26447 -0.43192
 C91 C 0.27407 0.30807 -0.56100
 C92 C 0.29184 0.32436 -0.59446
 C93 C 0.30338 0.30210 -0.63958
 C94 C 0.29686 0.26363 -0.65173
 C95 C 0.27911 0.24732 -0.61822
 C96 C 0.22019 0.25499 -0.61857
 C97 C 0.20249 0.23879 -0.65216
 C98 C 0.19591 0.20032 -0.64014
 C99 C 0.20737 0.17792 -0.59515
 C100 C 0.22508 0.19410 -0.56161
 C101 C 0.23224 0.20833 -0.38577
 C102 C 0.21387 0.19451 -0.35208
 C103 C 0.19294 0.20994 -0.36423
 C104 C 0.19052 0.23971 -0.40957
 C105 C 0.20889 0.25358 -0.44321
 C106 C 0.28972 0.24835 -0.44233
 C107 C 0.30795 0.26217 -0.40830
 C108 C 0.30536 0.29190 -0.36306
 C109 C 0.28441 0.30738 -0.35133
 C110 C 0.26617 0.29362 -0.38539
 H111 H 0.26531 0.32564 -0.52628
 H112 H 0.29663 0.35421 -0.58474
 H113 H 0.30560 0.24608 -0.68658
 H114 H 0.27445 0.21738 -0.62750
 H115 H 0.22488 0.28495 -0.62765
 H116 H 0.19380 0.25645 -0.68690
 H117 H 0.23376 0.17645 -0.52691
 H118 H 0.24827 0.19575 -0.37645
 H119 H 0.21600 0.17152 -0.31706
 H120 H 0.17444 0.25205 -0.41931
 H121 H 0.20677 0.27662 -0.47806
 H122 H 0.29197 0.22533 -0.47714
 H123 H 0.32408 0.24988 -0.41756
 H124 H 0.28222 0.33035 -0.31636
 H125 H 0.25011 0.30624 -0.37642
 H126 H 0.20252 0.14807 -0.58553
 C127 C -0.24973 0.74863 -0.46993
 C128 C -0.24982 0.74881 -0.53527
 C129 C -0.23045 0.76255 -0.57275
 C130 C -0.26929 0.73529 -0.57232
 C131 C -0.26786 0.73030 -0.43249
 C132 C -0.23152 0.76678 -0.43283
 C133 C -0.23303 0.79191 -0.61890
 C134 C -0.21477 0.80606 -0.65273
 C135 C -0.19377 0.79074 -0.64114
 C136 C -0.19117 0.76074 -0.59629
 C137 C -0.20944 0.74657 -0.56252
 C138 C -0.29029 0.75115 -0.56112
 C139 C -0.30861 0.73724 -0.59466
 C140 C -0.30611 0.70765 -0.64025
 C141 C -0.28512 0.69244 -0.65277
 C142 C -0.26680 0.70631 -0.61918
 C143 C -0.27403 0.69138 -0.44333
 C144 C -0.29164 0.67487 -0.40948
 C145 C -0.30310 0.69697 -0.36394
 C146 C -0.29664 0.73546 -0.35177
 C147 C -0.27905 0.75198 -0.38567
 C148 C -0.22024 0.74489 -0.38656
 C149 C -0.20263 0.76132 -0.35283
 C150 C -0.19625 0.79989 -0.36461
 C151 C -0.20776 0.82216 -0.40961
 C152 C -0.22538 0.80578 -0.44332
 H153 H -0.24911 0.80442 -0.62771
 H154 H -0.21703 0.82922 -0.68736
 H155 H -0.17504 0.74850 -0.58701
 H156 H -0.20718 0.72339 -0.52799
 H157 H -0.29248 0.77405 -0.52606
 H158 H -0.32473 0.74941 -0.58465
 H159 H -0.25073 0.69389 -0.62876
 H160 H -0.26533 0.67395 -0.47838
 H161 H -0.29639 0.64500 -0.41922
 H162 H -0.30532 0.75288 -0.31660
 H163 H -0.27444 0.78195 -0.37638
 H164 H -0.22480 0.71487 -0.37752
 H165 H -0.19386 0.74385 -0.31803
 H166 H -0.20302 0.85208 -0.41891
 H167 H -0.23414 0.82338 -0.47792
 H168 H -0.28293 0.66958 -0.68799
 N169 N 0.02306 1.04160 0.11463
 N170 N 0.03980 1.04618 0.15426
 N171 N -0.02335 1.06864 0.07100
 N172 N -0.03981 1.09302 0.08070
 N173 N -0.02335 1.04112 0.11472
 N174 N -0.03980 1.04601 0.15542
 N175 N 0.02306 1.06912 0.07091
 N176 N 0.03980 1.09321 0.07955
 C177 C 0.05000 1.07844 0.13167
 C178 C -0.04987 1.07840 0.13336
 N179 N -0.02316 1.04331 -0.11213
 N180 N -0.04002 1.04801 -0.15121
 N181 N 0.02313 1.07058 -0.06709
 N182 N 0.03949 1.09554 -0.07559
 N183 N 0.02322 1.04394 -0.11220
 N184 N 0.03962 1.05000 -0.15268
 N185 N -0.02330 1.06994 -0.06699
 N186 N -0.04028 1.09353 -0.07409
 Mn187 Mn -0.00012 1.07004 0.00197
 C188 C -0.05044 1.07942 -0.12684
 C189 C 0.04958 1.08218 -0.12901
 N190 N -0.02320 0.95721 0.11244
 N191 N -0.03974 0.95134 0.15254
 N192 N 0.02329 0.93111 0.06732
 N193 N 0.03980 0.90667 0.07557
 N194 N 0.02320 0.95772 0.11249
 N195 N 0.03964 0.95214 0.15275
 N196 N -0.02311 0.93059 0.06728
 N197 N -0.03959 0.90584 0.07537
 Mn198 Mn -0.00008 0.99941 0.11432
 C199 C -0.04975 0.91928 0.12861
 C200 C 0.04979 0.92029 0.12891
 N201 N 0.02341 0.96011 -0.11433
 N202 N 0.04028 0.95602 -0.15380
 N203 N -0.02301 0.93201 -0.07069
 N204 N -0.03979 0.90798 -0.07934
 N205 N -0.02299 0.95953 -0.11440
 N206 N -0.03973 0.95501 -0.15403
 N207 N 0.02343 0.93257 -0.07065
 N208 N 0.04033 0.90895 -0.07916
 Mn209 Mn 0.00013 1.00172 -0.11400
 Mn210 Mn 0.00015 0.93110 -0.00172
 Cl211 Cl 0.00002 1.00057 0.00016
 C212 C 0.05058 0.92402 -0.13117
 C213 C -0.04997 0.92277 -0.13147
 N214 N 0.52374 0.56755 -0.07245
 N215 N 0.54067 0.59125 -0.08119
 N216 N 0.47720 0.54015 -0.11559
 N217 N 0.46041 0.54450 -0.15502
 N218 N 0.47730 0.56772 -0.07202
 N219 N 0.46055 0.59164 -0.08056
 N220 N 0.52360 0.54001 -0.11608
 N221 N 0.54043 0.54418 -0.15574
 C222 C 0.55082 0.57624 -0.13330
 C223 C 0.45026 0.57670 -0.13248
 N224 N 0.47693 0.42972 -0.06790
 N225 N 0.46037 0.40515 -0.07585
 N226 N 0.52337 0.45623 -0.11355
 N227 N 0.54014 0.45111 -0.15299
 N228 N 0.52336 0.42963 -0.06832
 N229 N 0.54015 0.40564 -0.07572
 N230 N 0.47699 0.45631 -0.11312
 N231 N 0.46047 0.45061 -0.15314
 Mn232 Mn 0.50028 0.49817 -0.11532
 C233 C 0.45031 0.41869 -0.12909
 C234 C 0.55037 0.41949 -0.12873
 N235 N 0.47740 0.56927 0.06595
 N236 N 0.46094 0.59386 0.07406
 N237 N 0.52373 0.54251 0.11077
 N238 N 0.54017 0.54835 0.15103
 N239 N 0.52379 0.56911 0.06554
 N240 N 0.54028 0.59380 0.07374
 N241 N 0.47734 0.54270 0.11121
 N242 N 0.46084 0.54845 0.15142
 Mn243 Mn 0.50056 0.56888 -0.00328
 C244 C 0.45083 0.58038 0.12745
 C245 C 0.55029 0.58033 0.12710
 N246 N 0.52335 0.43106 0.06967
 N247 N 0.53973 0.40651 0.07911
 N248 N 0.47706 0.45883 0.11369
 N249 N 0.46024 0.45464 0.15336
 N250 N 0.47694 0.43128 0.07007
 N251 N 0.46002 0.40754 0.07884
 N252 N 0.52347 0.45860 0.11331
 N253 N 0.53994 0.45357 0.15370
 Mn254 Mn 0.50014 0.42995 0.00090
 Mn255 Mn 0.50041 0.50066 0.11299
 Cl256 Cl 0.50035 0.49942 -0.00116
 C257 C 0.54988 0.42105 0.13154
 C258 C 0.44986 0.42255 0.13094
 C259 C 0.32116 0.31753 0.32939
 C260 C 0.33705 0.33103 0.30247
 C261 C 0.35619 0.34698 0.27100
 C262 C 0.37000 0.32277 0.23486
 C263 C 0.38888 0.33808 0.20550
 C264 C 0.39405 0.37766 0.21216
 C265 C 0.38018 0.40191 0.24802
 C266 C 0.36129 0.38660 0.27739
 C267 C 0.41369 0.39331 0.18298
 C268 C 0.43019 0.40655 0.15900
 H269 H 0.36623 0.29207 0.22972
 H270 H 0.39950 0.31906 0.17794
 H271 H 0.38403 0.43256 0.25354
 H272 H 0.35076 0.40557 0.30532
 C273 C -0.17587 0.80554 0.32766
 C274 C -0.15999 0.81900 0.30063
 C275 C -0.14101 0.83546 0.26910
 C276 C -0.11989 0.82145 0.28304
 C277 C -0.10139 0.83811 0.25362
 C278 C -0.10394 0.86885 0.21016
 C279 C -0.12507 0.88273 0.19596
 C280 C -0.14357 0.86607 0.22538
 C281 C -0.08486 0.88651 0.18093
 C282 C -0.06885 0.90142 0.15685
 H283 H -0.11772 0.79786 0.31689
 H284 H -0.08512 0.82720 0.26501
 H285 H -0.12722 0.90653 0.16250
 H286 H -0.15983 0.87718 0.21438
 C287 C 0.67594 0.69314 0.32865
 C288 C 0.66002 0.67994 0.30168
 C289 C 0.64099 0.66379 0.27021
 C290 C 0.64304 0.64688 0.20943
 C291 C 0.62461 0.63039 0.17957
 C292 C 0.60406 0.63074 0.21040
 C293 C 0.60200 0.64782 0.27103
 C294 C 0.62042 0.66431 0.30087
 C295 C 0.58516 0.61314 0.18035
 C296 C 0.56927 0.59824 0.15574
 H297 H 0.65888 0.64625 0.18535
 H298 H 0.62640 0.61721 0.13272
 H299 H 0.58620 0.64821 0.29534
 H300 H 0.61865 0.67723 0.34793
 C301 C 0.17809 1.18508 0.32908
 C302 C 0.16212 1.17178 0.30251
 C303 C 0.14286 1.15611 0.27164
 C304 C 0.14492 1.12644 0.22599
 C305 C 0.12610 1.11093 0.19673
 C306 C 0.10517 1.12504 0.21303
 C307 C 0.10313 1.15480 0.25852
 C308 C 0.12193 1.17029 0.28775
 C309 C 0.08577 1.10873 0.18377
 C310 C 0.06946 1.09498 0.15975
 H311 H 0.16102 1.11523 0.21323
 H312 H 0.12786 1.08789 0.16168
 H313 H 0.08703 1.16588 0.27154
 H314 H 0.12015 1.19319 0.32304
 C315 C 0.67828 0.31384 -0.32793
 C316 C 0.66251 0.32723 -0.30053
 C317 C 0.64352 0.34309 -0.26850
 C318 C 0.62895 0.31841 -0.23554
 C319 C 0.61020 0.33371 -0.20577
 C320 C 0.60594 0.37374 -0.20885
 C321 C 0.62058 0.39843 -0.24148
 C322 C 0.63933 0.38314 -0.27124
 C323 C 0.58638 0.38943 -0.17966
 C324 C 0.56994 0.40291 -0.15598
 H325 H 0.63202 0.28738 -0.23324
 H326 H 0.59897 0.31434 -0.18077
 H327 H 0.61742 0.42942 -0.24426
 H328 H 0.65046 0.40247 -0.29671
 C329 C 0.17890 0.81906 -0.32897
 C330 C 0.16313 0.83267 -0.30196
 C331 C 0.14409 0.84874 -0.27050
 C332 C 0.13171 0.82584 -0.22798
 C333 C 0.11287 0.84115 -0.19870
 C334 C 0.10635 0.87942 -0.21186
 C335 C 0.11880 0.90239 -0.25409
 C336 C 0.13764 0.88708 -0.28336
 C337 C 0.08672 0.89497 -0.18281
 C338 C 0.07023 0.90812 -0.15899
 H339 H 0.13653 0.79613 -0.21782
 H340 H 0.10334 0.82313 -0.16617
 H341 H 0.11389 0.93201 -0.26465
 H342 H 0.14707 0.90501 -0.31628
 C343 C 0.32255 0.68292 -0.33070
 C344 C 0.33830 0.66926 -0.30378
 C345 C 0.35728 0.65310 -0.27231
 C346 C 0.37041 0.67662 -0.23287
 C347 C 0.38915 0.66114 -0.20348
 C348 C 0.39483 0.62209 -0.21344
 C349 C 0.38164 0.59854 -0.25262
 C350 C 0.36290 0.61401 -0.28200
 C351 C 0.41434 0.60632 -0.18426
 C352 C 0.43073 0.59293 -0.16034
 H353 H 0.36624 0.70691 -0.22515
 H354 H 0.39925 0.67963 -0.17335
 H355 H 0.38589 0.56832 -0.26072
 H356 H 0.35289 0.59559 -0.31251
 C357 C -0.17918 1.18245 -0.32324
 C358 C -0.16338 1.16929 -0.29594
 C359 C -0.14432 1.15378 -0.26413
 C360 C -0.12973 1.17880 -0.23219
 C361 C -0.11084 1.16387 -0.20287
 C362 C -0.10647 1.12387 -0.20540
 C363 C -0.12114 1.09882 -0.23696
 C364 C -0.14002 1.11374 -0.26628
 C365 C -0.08675 1.10859 -0.17680
 C366 C -0.07018 1.09549 -0.15358
 H367 H -0.13288 1.20982 -0.23039
 H368 H -0.09959 1.18351 -0.17869
 H369 H -0.11789 1.06785 -0.23930
 H370 H -0.15116 1.09416 -0.29098
 C371 C 0.67925 0.68137 -0.33260
 C372 C 0.66345 0.66776 -0.30542
 C373 C 0.64439 0.65174 -0.27367
 C374 C 0.63093 0.67572 -0.23606
 C375 C 0.61209 0.66039 -0.20654
 C376 C 0.60662 0.62102 -0.21454
 C377 C 0.62015 0.59699 -0.25185
 C378 C 0.63900 0.61233 -0.28137
 C379 C 0.58699 0.60541 -0.18532
 C380 C 0.57049 0.59220 -0.16132
 H381 H 0.63493 0.70626 -0.22991
 H382 H 0.60172 0.67923 -0.17785
 H383 H 0.61607 0.56652 -0.25842
 H384 H 0.64927 0.59355 -0.31048
 C385 C 0.17494 1.19549 -0.33301
 C386 C 0.15900 1.18231 -0.30591
 C387 C 0.13995 1.16613 -0.27428
 C388 C 0.12059 1.15924 -0.30902
 C389 C 0.10221 1.14272 -0.27878
 C390 C 0.10310 1.13302 -0.21365
 C391 C 0.12243 1.14007 -0.17880
 C392 C 0.14082 1.15659 -0.20907
 C393 C 0.08429 1.11536 -0.18300
 C394 C 0.06847 1.10033 -0.15799
 H395 H 0.11976 1.16642 -0.35949
 H396 H 0.08737 1.13734 -0.30620
 H397 H 0.12331 1.13263 -0.12845
 H398 H 0.15573 1.16173 -0.18179
 C399 C 0.32424 0.30711 -0.32971
 C400 C 0.34008 0.32026 -0.30235
 C401 C 0.35901 0.33636 -0.27038
 C402 C 0.35665 0.36874 -0.23017
 C403 C 0.37514 0.38505 -0.20042
 C404 C 0.39606 0.36904 -0.21077
 C405 C 0.39841 0.33652 -0.25068
 C406 C 0.37992 0.32021 -0.28043
 C407 C 0.41515 0.38636 -0.18138
 C408 C 0.43119 0.40104 -0.15726
 H409 H 0.34056 0.38151 -0.22220
 H410 H 0.37314 0.41023 -0.16974
 H411 H 0.41452 0.32395 -0.25909
 H412 H 0.38194 0.29523 -0.31156
 C413 C -0.17765 0.81634 -0.33147
 C414 C -0.16190 0.82996 -0.30426
 C415 C -0.14293 0.84609 -0.27245
 C416 C -0.12933 0.82211 -0.23539
 C417 C -0.11060 0.83760 -0.20570
 C418 C -0.10539 0.87713 -0.21298
 C419 C -0.11905 0.90115 -0.24976
 C420 C -0.13778 0.88566 -0.27944
 C421 C -0.08588 0.89297 -0.18356
 C422 C -0.06950 0.90642 -0.15948
 H423 H -0.13314 0.79145 -0.22978
 H424 H -0.10014 0.81876 -0.17744
 H425 H -0.11516 0.93175 -0.25577
 H426 H -0.14815 0.90445 -0.30809
 C427 C 0.32502 0.69335 0.32694
 C428 C 0.34080 0.67985 0.29978
 C429 C 0.35966 0.66333 0.26808
 C430 C 0.35773 0.62772 0.23583
 C431 C 0.37618 0.61117 0.20634
 C432 C 0.39664 0.63016 0.20899
 C433 C 0.39855 0.66588 0.24094
 C434 C 0.38010 0.68243 0.27044
 C435 C 0.41572 0.61275 0.17977
 C436 C 0.43173 0.59803 0.15570
 H437 H 0.34202 0.61267 0.23384
 H438 H 0.37454 0.58351 0.18184
 H439 H 0.41430 0.68078 0.24336
 H440 H 0.38178 0.70994 0.29537
 C441 C -0.17545 1.19097 0.33540
 C442 C -0.15954 1.17732 0.30908
 C443 C -0.14052 1.16063 0.27832
 C444 C -0.12394 1.14347 0.31532
 C445 C -0.10555 1.12686 0.28559
 C446 C -0.10366 1.12733 0.21871
 C447 C -0.12022 1.14454 0.18167
 C448 C -0.13863 1.16116 0.21142
 C449 C -0.08474 1.11009 0.18823
 C450 C -0.06885 1.09562 0.16303
 H451 H -0.12525 1.14286 0.36708
 H452 H -0.09284 1.11363 0.31469
 H453 H -0.11893 1.14507 0.12991
 H454 H -0.15137 1.17431 0.18234
 C455 C 0.67494 0.30732 0.33258
 C456 C 0.65920 0.32105 0.30572
 C457 C 0.64038 0.33780 0.27431
 C458 C 0.64317 0.36911 0.23199
 C459 C 0.62483 0.38590 0.20247
 C460 C 0.60363 0.37145 0.21519
 C461 C 0.60086 0.34004 0.25733
 C462 C 0.61920 0.32326 0.28684
 C463 C 0.58472 0.38900 0.18545
 C464 C 0.56884 0.40367 0.16076
 H465 H 0.65947 0.38063 0.22207
 H466 H 0.62715 0.41019 0.17000
 H467 H 0.58454 0.32866 0.26753
 H468 H 0.61686 0.29911 0.31959
 C469 C 0.17553 0.80822 0.32905
 C470 C 0.15970 0.82157 0.30207
 C471 C 0.14080 0.83788 0.27046
 C472 C 0.14332 0.86996 0.22959
 C473 C 0.12489 0.88637 0.19999
 C474 C 0.10385 0.87077 0.21115
 C475 C 0.10134 0.83857 0.25178
 C476 C 0.11977 0.82216 0.28138
 C477 C 0.08482 0.88811 0.18167
 C478 C 0.06885 0.90275 0.15738
 H479 H 0.15950 0.88239 0.22091
 H480 H 0.12701 0.91130 0.16873
 H481 H 0.08514 0.82631 0.26082
 H482 H 0.11763 0.79741 0.31300
   
