data_POSCAR
  _audit_creation_date              2014-09-24
  _audit_creation_method            'ToBaCCo'
  _symmetry_space_group_name_H-M    'P1'
  _symmetry_Int_Tables_number       1
  _symmetry_cell_setting            triclinic
  loop_
  _symmetry_equiv_pos_as_xyz
 x,y,z
_cell_length_a 37.1117
_cell_length_b 38.2133
_cell_length_c 7.6827
_cell_angle_alpha 89.667900
_cell_angle_beta 89.695700
_cell_angle_gamma 90.140500
loop_
  _atom_site_label
  _atom_site_type_symbol
  _atom_site_fract_x
  _atom_site_fract_y
  _atom_site_fract_z
C1 C 0.16319 0.25131 0.00207
 C2 C 0.18185 0.21923 -0.00471
 C3 C 0.21845 0.21897 0.04516
 C4 C 0.23558 0.24935 0.10797
 C5 C 0.21543 0.28041 0.12028
 C6 C 0.17971 0.28177 0.06341
 C7 C 0.27439 0.24883 0.16014
 C8 C 0.29553 0.27939 0.14654
 C9 C 0.33096 0.28002 0.20746
 C10 C 0.34631 0.24926 0.27287
 C11 C 0.32660 0.21771 0.28242
 C12 C 0.29030 0.21816 0.22794
 H13 H 0.13480 0.25259 -0.02846
 H14 H 0.23414 0.19544 0.02804
 H15 H 0.22737 0.30386 0.17338
 H16 H 0.28443 0.30312 0.09159
 H17 H 0.37451 0.25001 0.30760
 H18 H 0.27378 0.19511 0.24707
 C19 C 0.85111 0.24614 0.32374
 C20 C 0.83263 0.27695 0.36591
 C21 C 0.79492 0.27597 0.38016
 C22 C 0.77522 0.24554 0.33933
 C23 C 0.79445 0.21510 0.29400
 C24 C 0.83233 0.21501 0.28971
 C25 C 0.73484 0.24628 0.33728
 C26 C 0.71423 0.21598 0.37333
 C27 C 0.67612 0.21643 0.36689
 C28 C 0.65910 0.24871 0.33219
 C29 C 0.67902 0.27926 0.29982
 C30 C 0.71666 0.27760 0.29766
 H31 H 0.88014 0.24670 0.30871
 H32 H 0.78103 0.29936 0.42169
 H33 H 0.78019 0.19144 0.25966
 H34 H 0.72809 0.19185 0.40165
 H35 H 0.63010 0.25092 0.34118
 H36 H 0.73160 0.30100 0.26338
 C37 C 0.65166 0.75131 0.77888
 C38 C 0.67076 0.71988 0.76211
 C39 C 0.70804 0.71969 0.79256
 C40 C 0.72606 0.75015 0.84814
 C41 C 0.70597 0.78114 0.86841
 C42 C 0.66908 0.78213 0.83017
 C43 C 0.76552 0.74961 0.88702
 C44 C 0.78684 0.77990 0.86285
 C45 C 0.82361 0.78056 0.90908
 C46 C 0.83920 0.74919 0.96974
 C47 C 0.81884 0.71847 0.98929
 C48 C 0.78197 0.71906 0.95137
 H49 H 0.62325 0.75194 0.74737
 H50 H 0.72279 0.69560 0.77438
 H51 H 0.71867 0.80461 0.91699
 H52 H 0.77424 0.80333 0.81356
 H53 H 0.86791 0.74780 0.99240
 H54 H 0.76617 0.69567 0.97506
 C55 C 0.34074 0.74612 0.65083
 C56 C 0.32270 0.77714 0.69268
 C57 C 0.28495 0.77686 0.70441
 C58 C 0.26498 0.74650 0.66409
 C59 C 0.28385 0.71586 0.61810
 C60 C 0.32167 0.71542 0.61352
 C61 C 0.22464 0.74719 0.66555
 C62 C 0.20448 0.71703 0.70884
 C63 C 0.16635 0.71727 0.70982
 C64 C 0.14888 0.74924 0.67276
 C65 C 0.16845 0.77975 0.63346
 C66 C 0.20611 0.77820 0.62503
 H67 H 0.36994 0.74586 0.64830
 H68 H 0.27128 0.80068 0.74129
 H69 H 0.26938 0.69252 0.58034
 H70 H 0.21876 0.69317 0.73778
 H71 H 0.11996 0.75137 0.68675
 H72 H 0.22083 0.80150 0.58677
 O73 O 1.04092 -0.03736 -0.08715
 O74 O 0.97692 0.02792 0.07876
 O75 O 0.97345 -0.03821 -0.00323
 O76 O 1.04486 0.02858 -0.00515
 O77 O 1.03115 0.04262 -0.27646
 O78 O 0.95934 -0.02429 -0.27418
 O79 O 0.96302 0.04203 -0.19207
 O80 O 1.02709 -0.02365 -0.35861
 Cu81 Cu 1.01048 -0.00619 0.02275
 Cu82 Cu 0.99368 0.01077 -0.30220
 C83 C 1.04455 -0.04193 -0.24954
 C84 C 0.95926 0.04622 -0.02932
 C85 C 0.95470 -0.04291 -0.13862
 C86 C 1.04999 0.04699 -0.14089
 O87 O 0.47315 0.47757 0.17638
 O88 O 0.54047 0.54301 0.31356
 O89 O 0.54278 0.47794 0.20673
 O90 O 0.47070 0.54235 0.28250
 O91 O 0.46562 0.52502 0.55666
 O92 O 0.53755 0.46063 0.48087
 O93 O 0.53528 0.52548 0.58734
 O94 O 0.46824 0.46055 0.45113
 Cu95 Cu 0.50741 0.51222 0.21766
 Cu96 Cu 0.50120 0.49103 0.54610
 C97 C 0.45957 0.45771 0.29260
 C98 C 0.54892 0.54561 0.47272
 C99 C 0.55188 0.45795 0.33135
 C100 C 0.45611 0.54471 0.43162
 O101 O -0.03019 0.54047 0.26267
 O102 O 0.04222 0.47468 0.24260
 O103 O 0.03725 0.54132 0.16868
 O104 O -0.02494 0.47369 0.33816
 O105 O -0.04024 0.46117 0.06782
 O106 O 0.02180 0.52864 -0.10128
 O107 O 0.02668 0.46207 -0.02740
 O108 O -0.04549 0.52760 -0.00725
 Cu109 Cu 0.00769 0.50894 0.28001
 Cu110 Cu -0.01096 0.49357 -0.04379
 C111 C -0.04986 0.54532 0.13015
 C112 C 0.04636 0.45701 0.10471
 C113 C 0.03990 0.54656 0.00597
 C114 C -0.04282 0.45568 0.23029
 O115 O 0.52824 0.97892 0.84005
 O116 O 0.45863 1.04245 0.71159
 O117 O 0.45842 0.97762 0.82312
 O118 O 0.52872 1.04371 0.72621
 O119 O 0.53187 1.02596 0.45316
 O120 O 0.46185 0.96051 0.54905
 O121 O 0.46192 1.02505 0.43799
 O122 O 0.53130 0.96147 0.56646
 Cu123 Cu 0.49317 1.01273 0.80225
 Cu124 Cu 0.49709 0.99134 0.47473
 C125 C 0.54113 0.95902 0.72377
 C126 C 0.44869 1.04472 0.55435
 C127 C 0.44865 0.95755 0.70086
 C128 C 0.54196 1.04616 0.57396
 C129 C 1.12208 0.12732 -0.11671
 C130 C 1.15312 0.12517 -0.01502
 C131 C 1.17393 0.15510 0.01534
 C132 C 1.16363 0.18802 -0.05325
 C133 C 1.13315 0.18913 -0.16299
 C134 C 1.11263 0.15916 -0.19353
 C135 C 1.09813 0.09783 -0.13096
 C136 C 1.07672 0.07413 -0.13817
 H137 H 1.16055 0.10063 0.04616
 H138 H 1.19649 0.15254 0.10309
 H139 H 1.12499 0.21305 -0.22739
 H140 H 1.08882 0.16104 -0.27408
 C141 C 0.61302 0.62670 0.62135
 C142 C 0.59887 0.64946 0.74597
 C143 C 0.61789 0.67950 0.79264
 C144 C 0.65138 0.68728 0.71495
 C145 C 0.66574 0.66400 0.59159
 C146 C 0.64657 0.63390 0.54469
 C147 C 0.59210 0.59689 0.56824
 C148 C 0.57313 0.57288 0.52458
 H149 H 0.57292 0.64416 0.80599
 H150 H 0.60641 0.69666 0.88984
 H151 H 0.69132 0.66948 0.52860
 H152 H 0.65766 0.61656 0.44715
 C153 C -0.10710 0.37313 0.36226
 C154 C -0.14190 0.37207 0.29359
 C155 C -0.16204 0.34118 0.30158
 C156 C -0.14763 0.31077 0.37843
 C157 C -0.11314 0.31249 0.45348
 C158 C -0.09298 0.34347 0.44491
 C159 C -0.08466 0.40326 0.32948
 C160 C -0.06569 0.42775 0.29026
 H161 H -0.15292 0.39471 0.22728
 H162 H -0.18821 0.34067 0.24004
 H163 H -0.10144 0.28968 0.51518
 H164 H -0.06593 0.34391 0.49723
 C165 C 0.38308 0.87279 0.73634
 C166 C 0.35521 0.86573 0.85534
 C167 C 0.33539 0.83454 0.84267
 C168 C 0.34344 0.81017 0.71125
 C169 C 0.37143 0.81773 0.59279
 C170 C 0.39104 0.84870 0.60555
 C171 C 0.40395 0.90452 0.74286
 C172 C 0.42343 0.92973 0.73234
 H173 H 0.34881 0.88424 0.95711
 H174 H 0.31407 0.82931 0.93608
 H175 H 0.37782 0.79989 0.48807
 H176 H 0.41240 0.85398 0.51216
 C177 C -0.12234 0.62499 0.10910
 C178 C -0.14976 0.62423 -0.01527
 C179 C -0.17016 0.65423 -0.04846
 C180 C -0.16313 0.68544 0.04156
 C181 C -0.13659 0.68549 0.17169
 C182 C -0.11628 0.65546 0.20485
 C183 C -0.09808 0.59588 0.12554
 C184 C -0.07659 0.57232 0.13184
 H185 H -0.15445 0.60088 -0.09134
 H186 H -0.19019 0.65351 -0.15037
 H187 H -0.13091 0.70904 0.24445
 H188 H -0.09504 0.65638 0.30092
 C189 C 0.38141 1.12520 0.43547
 C190 C 0.35147 1.12296 0.32643
 C191 C 0.33237 1.15322 0.28106
 C192 C 0.34332 1.18646 0.34212
 C193 C 0.37272 1.18774 0.45840
 C194 C 0.39147 1.15750 0.50384
 C195 C 0.40316 1.09501 0.47300
 C196 C 0.42316 1.07120 0.50771
 H197 H 0.34346 1.09799 0.27267
 H198 H 0.31056 1.15051 0.18923
 H199 H 0.38118 1.21198 0.51780
 H200 H 0.41428 1.15945 0.59087
 C201 C 1.10993 -0.12344 -0.37410
 C202 C 1.14362 -0.12534 -0.29384
 C203 C 1.16337 -0.15639 -0.29842
 C204 C 1.14959 -0.18611 -0.38280
 C205 C 1.11636 -0.18353 -0.46939
 C206 C 1.09663 -0.15238 -0.46462
 C207 C 1.08738 -0.09344 -0.34463
 C208 C 1.06806 -0.06925 -0.30777
 H209 H 1.15396 -0.10327 -0.22135
 H210 H 1.18856 -0.15767 -0.22819
 H211 H 1.10524 -0.20587 -0.53674
 H212 H 1.07045 -0.15129 -0.52614
 C213 C 0.62072 0.37605 0.27019
 C214 C 0.60882 0.34691 0.17677
 C215 C 0.62848 0.31576 0.18073
 C216 C 0.66030 0.31334 0.27874
 C217 C 0.67277 0.34317 0.36680
 C218 C 0.65303 0.37428 0.36290
 C219 C 0.59801 0.40639 0.28448
 C220 C 0.57769 0.43068 0.30266
 H221 H 0.58376 0.34793 0.10520
 H222 H 0.61846 0.29335 0.11006
 H223 H 0.69695 0.34199 0.44493
 H224 H 0.66231 0.39656 0.43704
 C225 C 0.88641 -0.12636 -0.12423
 C226 C 0.85702 -0.13085 -0.23483
 C227 C 0.83614 -0.16137 -0.22444
 C228 C 0.84447 -0.18822 -0.10338
 C229 C 0.87428 -0.18287 0.00757
 C230 C 0.89488 -0.15237 -0.00310
 C231 C 0.90871 -0.09559 -0.13530
 C232 C 0.92889 -0.07085 -0.13930
 H233 H 0.85045 -0.11095 -0.33046
 H234 H 0.81453 -0.16421 -0.31715
 H235 H 0.88117 -0.20150 0.10856
 H236 H 0.91745 -0.14902 0.08422
 C237 C 0.39294 0.37496 0.21765
 C238 C 0.39153 0.35287 0.36330
 C239 C 0.37122 0.32218 0.35939
 C240 C 0.35193 0.31308 0.20938
 C241 C 0.35298 0.33561 0.06382
 C242 C 0.37357 0.36640 0.06771
 C243 C 0.41511 0.40581 0.22548
 C244 C 0.43488 0.43042 0.24740
 H245 H 0.40633 0.35930 0.48015
 H246 H 0.37041 0.30561 0.47431
 H247 H 0.33845 0.32908 -0.05347
 H248 H 0.37458 0.38329 -0.04596
 C249 C 0.10428 0.62688 -0.15963
 C250 C 0.08993 0.65284 -0.26720
 C251 C 0.11043 0.68229 -0.31180
 C252 C 0.14598 0.68663 -0.24905
 C253 C 0.16022 0.65960 -0.14307
 C254 C 0.13951 0.63021 -0.09868
 C255 C 0.08222 0.59770 -0.10554
 C256 C 0.06320 0.57394 -0.05670
 H257 H 0.06269 0.65043 -0.31600
 H258 H 0.09842 0.70105 -0.39988
 H259 H 0.18665 0.66160 -0.08553
 H260 H 0.15077 0.61040 -0.01353
 C261 C 0.61178 1.12590 0.46342
 C262 C 0.59910 1.15278 0.35662
 C263 C 0.62041 1.18222 0.32317
 C264 C 0.65516 1.18566 0.39653
 C265 C 0.66789 1.15766 0.50077
 C266 C 0.64631 1.12823 0.53426
 C267 C 0.58858 1.09667 0.50376
 C268 C 0.56790 1.07311 0.53640
 H269 H 0.57253 1.15109 0.29938
 H270 H 0.60970 1.20171 0.23502
 H271 H 0.69371 1.15888 0.56490
 H272 H 0.65633 1.10760 0.61815
 C273 C 0.11736 0.37611 0.08323
 C274 C 0.13869 0.36652 0.22550
 C275 C 0.15960 0.33613 0.21851
 C276 C 0.15914 0.31494 0.06942
 C277 C 0.13810 0.32515 -0.07374
 C278 C 0.11738 0.35554 -0.06679
 C279 C 0.09381 0.40584 0.09340
 C280 C 0.07282 0.42980 0.09953
 H281 H 0.13865 0.38217 0.34262
 H282 H 0.17533 0.32869 0.33108
 H283 H 0.13761 0.30951 -0.19084
 H284 H 0.10093 0.36269 -0.17750
 C285 C 0.60836 0.87762 0.82545
 C286 C 0.64374 0.87726 0.76155
 C287 C 0.66394 0.84645 0.76826
 C288 C 0.64887 0.81555 0.83812
 C289 C 0.61366 0.81646 0.90656
 C290 C 0.59356 0.84730 0.90006
 C291 C 0.58602 0.90788 0.79945
 C292 C 0.56616 0.93205 0.76960
 H293 H 0.65531 0.90047 0.70162
 H294 H 0.69081 0.84642 0.71260
 H295 H 0.60151 0.79318 0.96277
 H296 H 0.56611 0.84723 0.94885
 C297 C 0.89354 0.12447 0.14113
 C298 C 0.86211 0.13317 0.05077
 C299 C 0.84169 0.16218 0.10104
 C300 C 0.85260 0.18296 0.24197
 C301 C 0.88388 0.17363 0.33376
 C302 C 0.90417 0.14458 0.28371
 C303 C 0.91586 0.09598 0.08314
 C304 C 0.93529 0.07284 0.03298
 H305 H 0.85374 0.11790 -0.06035
 H306 H 0.81800 0.16897 0.02648
 H307 H 0.89271 0.18895 0.44386
 H308 H 0.92845 0.13812 0.35460
 C309 C 0.38419 0.62372 0.50439
 C310 C 0.39260 0.65557 0.42317
 C311 C 0.37153 0.68509 0.45437
 C312 C 0.34171 0.68319 0.56782
 C313 C 0.33265 0.65081 0.64449
 C314 C 0.35390 0.62123 0.61338
 C315 C 0.40794 0.59438 0.48114
 C316 C 0.42928 0.57104 0.45982
 H317 H 0.41593 0.65778 0.33834
 H318 H 0.37883 0.70958 0.39165
 H319 H 0.30995 0.64870 0.73318
 H320 H 0.34720 0.59669 0.67721
   
