data_POSCAR
  _audit_creation_date              2014-09-24
  _audit_creation_method            'ToBaCCo'
  _symmetry_space_group_name_H-M    'P1'
  _symmetry_Int_Tables_number       1
  _symmetry_cell_setting            triclinic
  loop_
  _symmetry_equiv_pos_as_xyz
 x,y,z
_cell_length_a 24.3725
_cell_length_b 24.3942
_cell_length_c 33.8602
_cell_angle_alpha 89.890600
_cell_angle_beta 90.167000
_cell_angle_gamma 120.195600
loop_
  _atom_site_label
  _atom_site_type_symbol
  _atom_site_fract_x
  _atom_site_fract_y
  _atom_site_fract_z
C1 C -0.03446 0.48303 1.21448
 C2 C 0.03246 0.51677 1.21454
 C3 C 0.06536 0.53323 1.25055
 C4 C 0.03255 0.51655 1.28656
 C5 C -0.03451 0.48283 1.28653
 C6 C -0.06738 0.46640 1.25045
 H7 H -0.11895 0.44038 1.25036
 H8 H 0.11690 0.55915 1.25047
 C9 C 0.51683 0.48279 1.21453
 C10 C 0.48341 0.51595 1.21450
 C11 C 0.46705 0.53223 1.25043
 C12 C 0.48362 0.51588 1.28641
 C13 C 0.51700 0.48256 1.28647
 C14 C 0.53334 0.46628 1.25047
 H15 H 0.55916 0.44074 1.25034
 H16 H 0.44134 0.55786 1.25040
 C17 C 0.51646 1.03308 1.21518
 C18 C 0.48347 0.96634 1.21515
 C19 C 0.46696 0.93341 1.25109
 C20 C 0.48292 0.96621 1.28712
 C21 C 0.51612 1.03321 1.28714
 C22 C 0.53258 1.06600 1.25110
 H23 H 0.55802 1.11750 1.25093
 H24 H 0.44144 0.88191 1.25093
 C25 C 0.96724 0.48365 0.71458
 C26 C 1.03405 0.51690 0.71447
 C27 C 1.06736 0.53332 0.75033
 C28 C 1.03480 0.51705 0.78640
 C29 C 0.96786 0.48381 0.78648
 C30 C 0.93465 0.46735 0.75058
 H31 H 0.88314 0.44181 0.75066
 H32 H 1.11890 0.55898 0.75009
 C33 C 0.51693 0.48332 0.71390
 C34 C 0.48356 0.51657 0.71383
 C35 C 0.46745 0.53326 0.74974
 C36 C 0.48408 0.51710 0.78575
 C37 C 0.51736 0.48376 0.78582
 C38 C 0.53357 0.46717 0.74991
 H39 H 0.55918 0.44144 0.74999
 H40 H 0.44174 0.55889 0.74966
 C41 C 0.48243 -0.03454 0.78648
 C42 C 0.51639 0.03235 0.78652
 C43 C 0.53308 0.06535 0.75058
 C44 C 0.51651 0.03265 0.71458
 C45 C 0.48272 -0.03412 0.71451
 C46 C 0.46587 -0.06723 0.75042
 H47 H 0.43980 -0.11872 0.75021
 H48 H 0.55922 0.11682 0.75062
 O49 O 0.42631 0.66998 0.95469
 O50 O 0.42927 0.77691 0.96605
 C51 C 0.38929 0.78501 0.94657
 O52 O 0.33069 0.75728 0.95453
 O53 O 0.22356 0.65289 0.96601
 C54 C 0.21528 0.60478 0.94662
 O55 O 0.24284 0.57392 0.95468
 O56 O 0.34712 0.57142 0.96627
 C57 C 0.39534 0.61137 0.94685
 O58 O 0.42926 0.65338 1.03355
 O59 O 0.42670 0.75752 1.04494
 C60 C 0.39579 0.78499 1.05289
 O61 O 0.34760 0.77673 1.03341
 O62 O 0.24318 0.66965 1.04489
 C63 C 0.21544 0.61109 1.05291
 O64 O 0.22356 0.57120 1.03354
 O65 O 0.33064 0.57422 1.04508
 C66 C 0.38931 0.60518 1.05298
 Cr67 Cr 0.42435 0.71269 0.99981
 Cr68 Cr 0.28802 0.71238 0.99971
 Cr69 Cr 0.28780 0.57622 0.99989
 O70 O 0.33339 0.66710 0.99980
 O71 O 0.57504 0.33075 0.95508
 O72 O 0.57195 0.22384 0.96702
 C73 C 0.61196 0.21589 0.94767
 O74 O 0.67061 0.24390 0.95563
 O75 O 0.77770 0.34819 0.96765
 C76 C 0.78580 0.39611 0.94804
 O77 O 0.75800 0.42679 0.95571
 O78 O 0.65381 0.42938 0.96707
 C79 C 0.60586 0.38943 0.94738
 O80 O 0.57186 0.34765 1.03376
 O81 O 0.57441 0.24358 1.04572
 C82 C 0.60506 0.21578 1.05369
 O83 O 0.65314 0.22390 1.03433
 O84 O 0.75744 0.33094 1.04636
 C85 C 0.78540 0.38954 1.05420
 O86 O 0.77759 0.42949 1.03454
 O87 O 0.67054 0.42640 1.04587
 C88 C 0.61181 0.39558 1.05343
 Cr89 Cr 0.57681 0.28820 1.00041
 Cr90 Cr 0.71299 0.28848 1.00098
 Cr91 Cr 0.71324 0.42453 1.00080
 O92 O 0.66768 0.33374 1.00073
 O93 O 0.65283 0.42885 0.53292
 O94 O 0.75712 0.42637 0.54443
 C95 C 0.78472 0.39554 0.55247
 O96 O 0.77645 0.34744 0.53307
 O97 O 0.66936 0.24307 0.54469
 C98 C 0.61079 0.21532 0.55270
 O99 O 0.57074 0.22338 0.53327
 O100 O 0.57368 0.33030 0.54456
 C101 C 0.60470 0.38891 0.55241
 O102 O 0.66912 0.42592 0.45409
 O103 O 0.77624 0.42898 0.46556
 C104 C 0.78436 0.38908 0.44619
 O105 O 0.75663 0.33052 0.45422
 O106 O 0.65223 0.22340 0.46587
 C107 C 0.60389 0.21493 0.44648
 O108 O 0.57305 0.24250 0.45438
 O109 O 0.57054 0.34671 0.46568
 C110 C 0.61044 0.39490 0.44621
 Cr111 Cr 0.71207 0.42399 0.49925
 Cr112 Cr 0.71190 0.28787 0.49946
 Cr113 Cr 0.57554 0.28750 0.49947
 O114 O 0.66650 0.33312 0.49938
 O115 O 0.32929 0.57373 0.54474
 O116 O 0.22237 0.57082 0.53275
 C117 C 0.21459 0.61076 0.55228
 O118 O 0.24250 0.66937 0.54443
 O119 O 0.34684 0.77642 0.53280
 C120 C 0.39470 0.78437 0.55252
 O121 O 0.42538 0.75657 0.54483
 O122 O 0.42804 0.65256 0.53313
 C123 C 0.38799 0.60447 0.55259
 O124 O 0.34643 0.57109 0.46606
 O125 O 0.24226 0.57370 0.45403
 C126 C 0.21443 0.60436 0.44614
 O127 O 0.22258 0.65232 0.46565
 O128 O 0.32981 0.75659 0.45403
 C129 C 0.38851 0.78460 0.44640
 O130 O 0.42840 0.77664 0.46607
 O131 O 0.42542 0.66975 0.45441
 C132 C 0.39463 0.61110 0.44667
 Cr133 Cr 0.28683 0.57583 0.49939
 Cr134 Cr 0.28717 0.71193 0.49923
 Cr135 Cr 0.42332 0.71214 0.49960
 O136 O 0.33244 0.66662 0.49939
 C137 C 0.46593 0.53427 0.32255
 C138 C 0.45053 0.55055 0.35206
 C139 C 0.43177 0.57066 0.38582
 C140 C 0.41513 0.58869 0.41399
 C141 C 0.46538 0.93189 0.32137
 C142 C 0.44913 0.90035 0.35106
 C143 C 0.42909 0.86176 0.38508
 C144 C 0.41106 0.82734 0.41348
 C145 C 0.06695 0.53343 0.32086
 C146 C 0.09856 0.54882 0.35058
 C147 C 0.13723 0.56750 0.38466
 C148 C 0.17169 0.58401 0.41312
 C149 C 0.53426 0.46574 0.32083
 C150 C 0.55028 0.45033 0.35061
 C151 C 0.57008 0.43162 0.38473
 C152 C 0.58796 0.41511 0.41320
 C153 C 0.53279 0.06753 0.32142
 C154 C 0.54810 0.09909 0.35111
 C155 C 0.56678 0.13772 0.38514
 C156 C 0.58337 0.17217 0.41354
 C157 C 0.93116 0.46530 0.32081
 C158 C 0.89967 0.44914 0.35053
 C159 C 0.86118 0.42926 0.38464
 C160 C 0.82691 0.41142 0.41312
 C161 C 0.53510 0.46539 1.17828
 C162 C 0.55127 0.45029 1.14860
 C163 C 0.57127 0.43193 1.11461
 C164 C 0.58928 0.41566 1.08626
 C165 C 0.93150 0.46567 1.18009
 C166 C 0.90023 0.44959 1.15023
 C167 C 0.86197 0.42974 1.11597
 C168 C 0.82784 0.41189 1.08737
 C169 C 0.53414 0.06900 1.17892
 C170 C 0.54947 0.10040 1.14919
 C171 C 0.56810 0.13883 1.11510
 C172 C 0.58463 0.17315 1.08666
 C173 C 0.46527 0.53386 1.17821
 C174 C 0.44929 0.54941 1.14849
 C175 C 0.42954 0.56826 1.11441
 C176 C 0.41172 0.58487 1.08597
 C177 C 0.06871 0.53515 1.17831
 C178 C 0.10021 0.55122 1.14860
 C179 C 0.13867 0.57099 1.11448
 C180 C 0.17291 0.58876 1.08598
 C181 C 0.46596 0.93050 1.17881
 C182 C 0.45079 0.89934 1.14897
 C183 C 0.43235 0.86127 1.11469
 C184 C 0.41600 0.82730 1.08606
 C185 C 0.53446 0.46500 0.67764
 C186 C 0.54970 0.44891 0.64793
 C187 C 0.56822 0.42909 0.61385
 C188 C 0.58458 0.41126 0.58540
 C189 C 0.53494 0.06876 0.67831
 C190 C 0.55106 0.10021 0.64855
 C191 C 0.57085 0.13862 0.61438
 C192 C 0.58859 0.17283 0.58583
 C193 C 0.93102 0.46593 0.67832
 C194 C 0.89962 0.45065 0.64851
 C195 C 0.86133 0.43213 0.61425
 C196 C 0.82720 0.41576 0.58564
 C197 C 0.46500 0.53394 0.67755
 C198 C 0.44861 0.54910 0.64787
 C199 C 0.42843 0.56762 0.61387
 C200 C 0.41038 0.58409 0.58551
 C201 C 0.46501 0.93015 0.67817
 C202 C 0.44973 0.89897 0.64836
 C203 C 0.43123 0.86083 0.61415
 C204 C 0.41487 0.82676 0.58560
 C205 C 0.06960 0.53505 0.67811
 C206 C 0.10055 0.55100 0.64824
 C207 C 0.13843 0.57069 0.61397
 C208 C 0.17232 0.58845 0.58537
 C209 C 0.46639 0.53532 0.82198
 C210 C 0.45097 0.55137 0.85163
 C211 C 0.43221 0.57118 0.88561
 C212 C 0.41565 0.58901 0.91396
 C213 C 0.06907 0.53398 0.82071
 C214 C 0.10043 0.54940 0.85055
 C215 C 0.13868 0.56807 0.88483
 C216 C 0.17281 0.58453 0.91345
 C217 C 0.46505 0.93132 0.82082
 C218 C 0.44902 0.89997 0.85064
 C219 C 0.42929 0.86166 0.88486
 C220 C 0.41155 0.82749 0.91344
 C221 C 0.53515 0.46566 0.82213
 C222 C 0.55056 0.44963 0.85186
 C223 C 0.56922 0.42977 0.88594
 C224 C 0.58567 0.41186 0.91439
 C225 C 0.93196 0.46621 0.82275
 C226 C 0.90071 0.45103 0.85249
 C227 C 0.86249 0.43262 0.88661
 C228 C 0.82832 0.41629 0.91508
 C229 C 0.53501 0.06848 0.82274
 C230 C 0.55140 0.10006 0.85239
 C231 C 0.57155 0.13871 0.88638
 C232 C 0.58957 0.17317 0.91475
   
