data_POSCAR
  _audit_creation_date              2014-09-24
  _audit_creation_method            'ToBaCCo'
  _symmetry_space_group_name_H-M    'P1'
  _symmetry_Int_Tables_number       1
  _symmetry_cell_setting            triclinic
  loop_
  _symmetry_equiv_pos_as_xyz
 x,y,z
_cell_length_a 53.4880
_cell_length_b 53.4265
_cell_length_c 43.1425
_cell_angle_alpha 89.915400
_cell_angle_beta 90.069300
_cell_angle_gamma 89.249700
loop_
  _atom_site_label
  _atom_site_type_symbol
  _atom_site_fract_x
  _atom_site_fract_y
  _atom_site_fract_z
O1 O 0.01472 0.28950 -0.02204
 O2 O -0.03287 0.28422 0.03941
 O3 O 0.01565 0.28712 0.03827
 O4 O -0.03405 0.28713 -0.02087
 O5 O -0.03166 0.24594 -0.02320
 O6 O 0.01894 0.24601 0.03458
 O7 O -0.02966 0.24311 0.03703
 O8 O 0.01681 0.24834 -0.02527
 Cu9 Cu -0.00944 0.29113 0.00893
 Cu10 Cu -0.00618 0.24173 0.00553
 C11 C 0.02397 0.26976 -0.03411
 C12 C -0.03938 0.26271 0.04889
 C13 C 0.02597 0.26656 0.04627
 C14 C -0.04147 0.26653 -0.03204
 O15 O 0.47929 0.79653 0.52216
 O16 O 0.53066 0.79788 0.46551
 O17 O 0.48188 0.79655 0.46180
 O18 O 0.52808 0.79679 0.52560
 O19 O 0.52928 0.75552 0.52479
 O20 O 0.48272 0.75525 0.46226
 O21 O 0.53158 0.75661 0.46468
 O22 O 0.48079 0.75525 0.52218
 Cu23 Cu 0.50483 0.80109 0.49377
 Cu24 Cu 0.50624 0.75154 0.49335
 C25 C 0.47123 0.77568 0.53188
 C26 C 0.54006 0.77748 0.45558
 C27 C 0.47414 0.77575 0.45149
 C28 C 0.53670 0.77611 0.53594
 O29 O 1.03144 0.71907 0.02409
 O30 O 0.98252 0.71663 -0.03593
 O31 O 1.03131 0.71759 -0.03623
 O32 O 0.98266 0.71910 0.02440
 O33 O 0.98119 0.76032 0.02115
 O34 O 1.03053 0.75881 -0.03783
 O35 O 0.98201 0.75786 -0.03872
 O36 O 1.03005 0.76028 0.02252
 Cu37 Cu 1.00709 0.71397 -0.00568
 Cu38 Cu 1.00591 0.76343 -0.00837
 C39 C 1.03917 0.74008 0.03368
 C40 C 0.97387 0.73680 -0.04762
 C41 C 1.03935 0.73802 -0.04738
 C42 C 0.97335 0.74004 0.03274
 O43 O 0.51523 0.21374 0.53914
 O44 O 0.46959 0.21409 0.47525
 O45 O 0.51822 0.21454 0.47899
 O46 O 0.46648 0.21385 0.53558
 O47 O 0.46526 0.25516 0.53490
 O48 O 0.51759 0.25583 0.47992
 O49 O 0.46933 0.25538 0.47515
 O50 O 0.51406 0.25501 0.54002
 Cu51 Cu 0.49244 0.20990 0.50727
 Cu52 Cu 0.49152 0.25948 0.50768
 C53 C 0.52258 0.23432 0.55040
 C54 C 0.46172 0.23478 0.46416
 C55 C 0.52676 0.23538 0.46981
 C56 C 0.45678 0.23446 0.54447
 O57 O 0.70739 0.02830 -0.02566
 O58 O 0.70775 -0.02194 0.03296
 O59 O 0.70879 0.02702 0.03461
 O60 O 0.70683 -0.02058 -0.02728
 O61 O 0.74806 -0.02194 -0.02792
 O62 O 0.75001 0.02640 0.03236
 O63 O 0.74893 -0.02262 0.03235
 O64 O 0.74859 0.02663 -0.02745
 Cu65 Cu 0.70355 0.00330 0.00383
 Cu66 Cu 0.75302 0.00193 0.00233
 C67 C 0.72794 0.03610 -0.03656
 C68 C 0.72841 -0.03105 0.04261
 C69 C 0.72980 0.03522 0.04352
 C70 C 0.72719 -0.02949 -0.03806
 O71 O 0.20996 0.46770 0.52597
 O72 O 0.20757 0.51698 0.46630
 O73 O 0.20653 0.46802 0.46579
 O74 O 0.21175 0.51638 0.52641
 O75 O 0.25284 0.51446 0.52245
 O76 O 0.24763 0.46656 0.46192
 O77 O 0.24867 0.51536 0.46245
 O78 O 0.25106 0.46598 0.52205
 Cu79 Cu 0.20482 0.49244 0.49644
 Cu80 Cu 0.25415 0.49041 0.49174
 C81 C 0.23091 0.45843 0.53429
 C82 C 0.22772 0.52478 0.45435
 C83 C 0.22627 0.45889 0.45364
 C84 C 0.23326 0.52364 0.53484
 O85 O 0.29517 0.96564 -0.03811
 O86 O 0.29893 1.01605 0.01999
 O87 O 0.29900 0.96721 0.02196
 O88 O 0.29525 1.01437 -0.04035
 O89 O 0.25426 1.01582 -0.03538
 O90 O 0.25785 0.96754 0.02527
 O91 O 0.25786 1.01612 0.02445
 O92 O 0.25407 0.96699 -0.03486
 Cu93 Cu 0.30122 0.99077 -0.00951
 Cu94 Cu 0.25191 0.99165 -0.00479
 C95 C 0.27392 0.95767 -0.04653
 C96 C 0.27900 1.02466 0.03224
 C97 C 0.27902 0.95917 0.03412
 C98 C 0.27410 1.02343 -0.04835
 O99 O 0.78615 0.47558 0.47374
 O100 O 0.79121 0.52671 0.53055
 O101 O 0.78857 0.47811 0.53384
 O102 O 0.78829 0.52425 0.47017
 O103 O 0.74712 0.52636 0.47224
 O104 O 0.74750 0.48136 0.53682
 O105 O 0.75006 0.53006 0.53206
 O106 O 0.74503 0.47800 0.47673
 Cu107 Cu 0.79269 0.50093 0.50183
 Cu108 Cu 0.74332 0.50420 0.50480
 C109 C 0.76472 0.46795 0.46562
 C110 C 0.77148 0.53729 0.54078
 C111 C 0.76803 0.47180 0.54619
 C112 C 0.76761 0.53311 0.46020
 O113 O 0.24450 0.20216 0.23879
 O114 O 0.23382 0.26125 0.28098
 O115 O 0.21172 0.23843 0.23540
 O116 O 0.26634 0.22484 0.28479
 O117 O 0.29050 0.24485 0.25188
 O118 O 0.23606 0.25730 0.20162
 O119 O 0.25762 0.28089 0.24734
 O120 O 0.26914 0.22167 0.20598
 Cu121 Cu 0.23667 0.22970 0.26333
 Cu122 Cu 0.26575 0.25318 0.22340
 C123 C 0.25855 0.20183 0.21505
 C124 C 0.24401 0.28119 0.27145
 C125 C 0.21460 0.24984 0.20984
 C126 C 0.28772 0.23274 0.27698
 O127 O 0.76655 0.79070 0.24611
 O128 O 0.77804 0.73294 0.29040
 O129 O 0.80099 0.75586 0.24577
 O130 O 0.74262 0.76671 0.28974
 O131 O 0.72189 0.74517 0.25477
 O132 O 0.77969 0.73502 0.21063
 O133 O 0.75720 0.71139 0.25553
 O134 O 0.74524 0.76959 0.21129
 Cu135 Cu 0.77410 0.76374 0.27150
 Cu136 Cu 0.74890 0.73816 0.22957
 C137 C 0.75418 0.79009 0.22100
 C138 C 0.76957 0.71229 0.28069
 C139 C 0.80019 0.74373 0.22046
 C140 C 0.72231 0.75745 0.27991
 O141 O 0.78647 0.23935 0.25436
 O142 O 0.73176 0.22720 0.30383
 O143 O 0.75204 0.20524 0.25618
 O144 O 0.76612 0.26116 0.30254
 O145 O 0.74210 0.28409 0.27177
 O146 O 0.72928 0.22852 0.22430
 O147 O 0.70815 0.24979 0.27219
 O148 O 0.76298 0.26298 0.22378
 Cu149 Cu 0.76151 0.23094 0.28233
 Cu150 Cu 0.73326 0.25865 0.24490
 C151 C 0.78407 0.25325 0.23057
 C152 C 0.71056 0.23643 0.29643
 C153 C 0.73842 0.20737 0.23216
 C154 C 0.75629 0.28215 0.29532
 O155 O 0.27104 0.76476 0.21077
 O156 O 0.26132 0.70554 0.25223
 O157 O 0.23882 0.72906 0.20662
 O158 O 0.29319 0.74182 0.25663
 O159 O 0.26824 0.76057 0.29032
 O160 O 0.21426 0.74905 0.23962
 O161 O 0.23616 0.72488 0.28512
 O162 O 0.24673 0.78446 0.24431
 Cu163 Cu 0.26855 0.73329 0.22826
 Cu164 Cu 0.23887 0.75668 0.26818
 C165 C 0.26047 0.78472 0.22029
 C166 C 0.24722 0.70506 0.27589
 C167 C 0.21729 0.73726 0.21433
 C168 C 0.28992 0.75315 0.28222
 O169 O 0.75063 0.28118 0.80969
 O170 O 0.69322 0.27089 0.76471
 O171 O 0.71622 0.24718 0.80964
 O172 O 0.72785 0.30441 0.76421
 O173 O 0.74952 0.28210 0.73041
 O174 O 0.73778 0.22504 0.77556
 O175 O 0.71479 0.24866 0.73072
 O176 O 0.77223 0.25887 0.77581
 Cu177 Cu 0.71984 0.27813 0.79051
 Cu178 Cu 0.74575 0.25144 0.74975
 C179 C 0.77124 0.27169 0.80058
 C180 C 0.69420 0.25822 0.73985
 C181 C 0.72512 0.22631 0.80041
 C182 C 0.74051 0.30298 0.73934
 O183 O 0.29708 0.73257 0.73911
 O184 O 0.24072 0.72185 0.78574
 O185 O 0.26129 0.70014 0.73794
 O186 O 0.27604 0.75484 0.78637
 O187 O 0.25413 0.77906 0.75471
 O188 O 0.23937 0.72452 0.70649
 O189 O 0.21882 0.74620 0.75422
 O190 O 0.27528 0.75688 0.70744
 Cu191 Cu 0.27099 0.72493 0.76545
 Cu192 Cu 0.24475 0.75412 0.72754
 C193 C 0.29583 0.74639 0.71517
 C194 C 0.22014 0.73225 0.77807
 C195 C 0.24782 0.70300 0.71387
 C196 C 0.26741 0.77631 0.77893
 O197 O 0.24227 0.28286 0.74209
 O198 O 0.25322 0.22834 0.79272
 O199 O 0.27739 0.24881 0.74684
 O200 O 0.21837 0.26212 0.78807
 O201 O 0.19845 0.23742 0.75572
 O202 O 0.25687 0.22622 0.71267
 O203 O 0.23441 0.20417 0.75868
 O204 O 0.22110 0.25927 0.70968
 Cu205 Cu 0.24986 0.25796 0.77070
 Cu206 Cu 0.22567 0.22937 0.73089
 C207 C 0.22979 0.28042 0.71722
 C208 C 0.24568 0.20695 0.78436
 C209 C 0.27712 0.23558 0.72239
 C210 C 0.19839 0.25164 0.77930
 O211 O 0.74235 0.78373 0.69656
 O212 O 0.80060 0.77018 0.73926
 O213 O 0.77646 0.74897 0.69337
 O214 O 0.76591 0.80450 0.74234
 O215 O 0.74457 0.78159 0.77536
 O216 O 0.75632 0.72580 0.72731
 O217 O 0.77965 0.74762 0.77301
 O218 O 0.72149 0.76027 0.72945
 Cu219 Cu 0.77351 0.77907 0.71454
 Cu220 Cu 0.74845 0.75146 0.75460
 C221 C 0.72196 0.77421 0.70557
 C222 C 0.80004 0.75701 0.76380
 C223 C 0.76795 0.72793 0.70181
 C224 C 0.75339 0.80256 0.76723
 C225 C 0.30319 0.05572 0.06353
 C226 C 0.30407 0.07543 0.08480
 C227 C 0.28212 0.08462 0.09877
 C228 C 0.25914 0.07382 0.09075
 C229 C 0.25826 0.05418 0.06948
 C230 C 0.28024 0.04495 0.05553
 C231 C 0.28362 0.10638 0.11998
 C232 C 0.26626 0.11157 0.14156
 C233 C 0.26634 0.13436 0.16118
 C234 C 0.25191 0.13468 0.18833
 C235 C 0.24987 0.15637 0.20629
 C236 C 0.26212 0.17833 0.19733
 C237 C 0.27687 0.17794 0.17039
 C238 C 0.27891 0.15625 0.15244
 H239 H 0.32046 0.04912 0.05309
 H240 H 0.32197 0.08360 0.09030
 H241 H 0.24169 0.08089 0.10011
 H242 H 0.24024 0.04645 0.06364
 H243 H 0.29988 0.11810 0.11796
 H244 H 0.25135 0.09845 0.14551
 H245 H 0.24187 0.11816 0.19548
 H246 H 0.23830 0.15605 0.22686
 H247 H 0.28640 0.19459 0.16272
 H248 H 0.28963 0.15711 0.13124
 C249 C 0.79487 0.56112 0.58125
 C250 C 0.79659 0.58110 0.60204
 C251 C 0.77727 0.59901 0.60405
 C252 C 0.75579 0.59621 0.58564
 C253 C 0.75382 0.57596 0.56537
 C254 C 0.77342 0.55833 0.56278
 C255 C 0.77947 0.62003 0.62610
 C256 C 0.77111 0.64311 0.61923
 C257 C 0.77240 0.66429 0.64117
 C258 C 0.77520 0.68860 0.62947
 C259 C 0.77476 0.70921 0.64938
 C260 C 0.77085 0.70594 0.68132
 C261 C 0.76820 0.68158 0.69309
 C262 C 0.76914 0.66091 0.67323
 H263 H 0.81017 0.54769 0.57987
 H264 H 0.81319 0.58279 0.61625
 H265 H 0.74035 0.60945 0.58726
 H266 H 0.73707 0.57425 0.55144
 H267 H 0.78920 0.61663 0.64777
 H268 H 0.76377 0.64693 0.59625
 H269 H 0.77752 0.69165 0.60482
 H270 H 0.77662 0.72778 0.63962
 H271 H 0.76507 0.67852 0.71759
 H272 H 0.76638 0.64243 0.68285
 C273 C 0.70599 0.93881 0.07473
 C274 C 0.70619 0.91838 0.09503
 C275 C 0.72883 0.90807 0.10579
 C276 C 0.75140 0.91851 0.09562
 C277 C 0.75126 0.93883 0.07516
 C278 C 0.72855 0.94921 0.06425
 C279 C 0.72827 0.88571 0.12618
 C280 C 0.74662 0.87991 0.14626
 C281 C 0.74677 0.85710 0.16588
 C282 C 0.76104 0.85694 0.19317
 C283 C 0.76290 0.83539 0.21144
 C284 C 0.75076 0.81333 0.20261
 C285 C 0.73632 0.81349 0.17537
 C286 C 0.73433 0.83513 0.15716
 H287 H 0.68809 0.94613 0.06689
 H288 H 0.68856 0.91056 0.10233
 H289 H 0.76926 0.91061 0.10264
 H290 H 0.76904 0.94612 0.06758
 H291 H 0.71176 0.87423 0.12523
 H292 H 0.76191 0.89276 0.14935
 H293 H 0.77095 0.87353 0.20028
 H294 H 0.77429 0.83590 0.23220
 H295 H 0.72688 0.79675 0.16781
 H296 H 0.72373 0.83427 0.13583
 C297 C 0.25493 0.42942 0.56937
 C298 C 0.25583 0.41073 0.59204
 C299 C 0.23373 0.40067 0.60398
 C300 C 0.21060 0.41015 0.59332
 C301 C 0.20970 0.42893 0.57073
 C302 C 0.23186 0.43868 0.55838
 C303 C 0.23559 0.38079 0.62787
 C304 C 0.21781 0.36371 0.63247
 C305 C 0.22049 0.34302 0.65518
 C306 C 0.20800 0.32054 0.64963
 C307 C 0.21075 0.30030 0.66996
 C308 C 0.22581 0.30225 0.69654
 C309 C 0.23765 0.32506 0.70266
 C310 C 0.23502 0.34525 0.68223
 H311 H 0.27235 0.43663 0.56048
 H312 H 0.27387 0.40392 0.60007
 H313 H 0.19316 0.40344 0.60266
 H314 H 0.19162 0.43582 0.56295
 H315 H 0.25300 0.37925 0.64061
 H316 H 0.20148 0.36364 0.61762
 H317 H 0.19648 0.31845 0.62915
 H318 H 0.20124 0.28304 0.66469
 H319 H 0.24922 0.32724 0.72307
 H320 H 0.24423 0.36257 0.68781
 C321 C 0.93525 0.23684 0.08317
 C322 C 0.91699 0.23467 0.10612
 C323 C 0.90537 0.25601 0.11870
 C324 C 0.91295 0.27976 0.10851
 C325 C 0.93128 0.28199 0.08560
 C326 C 0.94256 0.26055 0.07239
 C327 C 0.88572 0.25269 0.14255
 C328 C 0.86743 0.26959 0.14777
 C329 C 0.84672 0.26545 0.16995
 C330 C 0.82391 0.27812 0.16509
 C331 C 0.80367 0.27431 0.18490
 C332 C 0.80587 0.25792 0.21030
 C333 C 0.82892 0.24575 0.21572
 C334 C 0.84916 0.24949 0.19581
 H335 H 0.94352 0.21985 0.07384
 H336 H 0.91167 0.21616 0.11377
 H337 H 0.90505 0.29669 0.11837
 H338 H 0.93652 0.30060 0.07825
 H339 H 0.88538 0.23488 0.15451
 H340 H 0.86638 0.28635 0.13368
 H341 H 0.82160 0.29071 0.14555
 H342 H 0.78622 0.28411 0.18015
 H343 H 0.83129 0.23317 0.23525
 H344 H 0.86669 0.24003 0.20094
 C345 C 0.43852 0.79741 0.56407
 C346 C 0.41835 0.79675 0.58463
 C347 C 0.40975 0.77387 0.59621
 C348 C 0.42154 0.75154 0.58642
 C349 C 0.44165 0.75219 0.56581
 C350 C 0.45036 0.77512 0.55437
 C351 C 0.38780 0.77389 0.61716
 C352 C 0.38336 0.75544 0.63746
 C353 C 0.36102 0.75471 0.65773
 C354 C 0.36193 0.73979 0.68450
 C355 C 0.34093 0.73748 0.70346
 C356 C 0.31841 0.74989 0.69588
 C357 C 0.31748 0.76494 0.66915
 C358 C 0.33852 0.76730 0.65021
 H359 H 0.44468 0.81538 0.55556
 H360 H 0.40944 0.81419 0.59155
 H361 H 0.41494 0.73347 0.59395
 H362 H 0.45019 0.73467 0.55858
 H363 H 0.37550 0.79013 0.61645
 H364 H 0.39702 0.74047 0.64024
 H365 H 0.37894 0.72974 0.69070
 H366 H 0.34227 0.72567 0.72382
 H367 H 0.30035 0.77459 0.66254
 H368 H 0.33678 0.77837 0.62930
 C369 C 0.06660 0.76401 0.06778
 C370 C 0.08552 0.76479 0.09013
 C371 C 0.09654 0.74264 0.10151
 C372 C 0.08773 0.71955 0.09071
 C373 C 0.06871 0.71871 0.06849
 C374 C 0.05796 0.74094 0.05650
 C375 C 0.11663 0.74437 0.12510
 C376 C 0.13446 0.72672 0.12900
 C377 C 0.15513 0.72912 0.15171
 C378 C 0.17802 0.71693 0.14576
 C379 C 0.19815 0.71929 0.16624
 C380 C 0.19566 0.73362 0.19338
 C381 C 0.17248 0.74517 0.19983
 C382 C 0.15242 0.74294 0.17925
 H383 H 0.05880 0.78156 0.05936
 H384 H 0.09180 0.78281 0.09830
 H385 H 0.09519 0.70206 0.09967
 H386 H 0.06250 0.70055 0.06071
 H387 H 0.11757 0.76156 0.13830
 H388 H 0.13503 0.71069 0.11369
 H389 H 0.18050 0.70593 0.12488
 H390 H 0.21571 0.71005 0.16066
 H391 H 0.16988 0.75620 0.22064
 H392 H 0.13481 0.75190 0.18515
 C393 C 0.55256 0.21153 0.58544
 C394 C 0.57162 0.21148 0.60762
 C395 C 0.57999 0.23399 0.62043
 C396 C 0.56887 0.25667 0.61056
 C397 C 0.54986 0.25672 0.58831
 C398 C 0.54163 0.23417 0.57532
 C399 C 0.60137 0.23319 0.64229
 C400 C 0.60600 0.25135 0.66286
 C401 C 0.62837 0.25137 0.68316
 C402 C 0.62769 0.26549 0.71054
 C403 C 0.64887 0.26723 0.72937
 C404 C 0.67133 0.25508 0.72099
 C405 C 0.67198 0.24079 0.69368
 C406 C 0.65078 0.23899 0.67491
 H407 H 0.54673 0.19383 0.57582
 H408 H 0.58001 0.19378 0.61461
 H409 H 0.57530 0.27448 0.61913
 H410 H 0.54195 0.27450 0.58084
 H411 H 0.61334 0.21671 0.64171
 H412 H 0.59270 0.26663 0.66560
 H413 H 0.61074 0.27539 0.71727
 H414 H 0.64777 0.27849 0.75019
 H415 H 0.68904 0.23136 0.68645
 H416 H 0.65233 0.22857 0.65351
 C417 C 0.75044 0.06435 0.92678
 C418 C 0.75066 0.08433 0.90587
 C419 C 0.72849 0.09730 0.89833
 C420 C 0.70585 0.08929 0.91137
 C421 C 0.70560 0.06919 0.93220
 C422 C 0.72794 0.05666 0.94036
 C423 C 0.72983 0.11873 0.87654
 C424 C 0.71312 0.13769 0.87607
 C425 C 0.71568 0.15988 0.85567
 C426 C 0.70480 0.18272 0.86488
 C427 C 0.70758 0.20427 0.84681
 C428 C 0.72112 0.20334 0.81893
 C429 C 0.73134 0.18028 0.80921
 C430 C 0.72859 0.15877 0.82729
 H431 H 0.76796 0.05502 0.93242
 H432 H 0.76831 0.08995 0.89593
 H433 H 0.68826 0.09828 0.90537
 H434 H 0.68793 0.06360 0.94209
 H435 H 0.74625 0.11968 0.86197
 H436 H 0.69801 0.13801 0.89273
 H437 H 0.69452 0.18402 0.88646
 H438 H 0.69935 0.22170 0.85488
 H439 H 0.74164 0.17885 0.78768
 H440 H 0.73647 0.14134 0.81881
 C441 C 0.20394 0.55674 0.42305
 C442 C 0.20325 0.57689 0.40235
 C443 C 0.22534 0.58590 0.38913
 C444 C 0.24826 0.57436 0.39718
 C445 C 0.24895 0.55423 0.41791
 C446 C 0.22682 0.54529 0.43122
 C447 C 0.22391 0.60822 0.36867
 C448 C 0.24152 0.61380 0.34774
 C449 C 0.24107 0.63693 0.32868
 C450 C 0.25547 0.63758 0.30154
 C451 C 0.25697 0.65950 0.28396
 C452 C 0.24422 0.68138 0.29330
 C453 C 0.22955 0.68069 0.32029
 C454 C 0.22805 0.65876 0.33787
 H455 H 0.18655 0.55038 0.43298
 H456 H 0.18539 0.58558 0.39678
 H457 H 0.26580 0.58122 0.38834
 H458 H 0.26691 0.54597 0.42393
 H459 H 0.20739 0.62002 0.37060
 H460 H 0.25679 0.60071 0.34375
 H461 H 0.26585 0.62112 0.29406
 H462 H 0.26850 0.65941 0.26334
 H463 H 0.21967 0.69729 0.32827
 H464 H 0.21735 0.65934 0.35911
 C465 C 0.24888 0.92980 0.92137
 C466 C 0.24726 0.91052 0.89967
 C467 C 0.26891 0.89910 0.88768
 C468 C 0.29239 0.90783 0.89722
 C469 C 0.29407 0.92726 0.91879
 C470 C 0.27232 0.93844 0.93136
 C471 C 0.26618 0.87866 0.86477
 C472 C 0.28344 0.86056 0.86043
 C473 C 0.27977 0.83952 0.83861
 C474 C 0.29160 0.81643 0.84468
 C475 C 0.28785 0.79593 0.82516
 C476 C 0.27242 0.79823 0.79888
 C477 C 0.26124 0.82159 0.79225
 C478 C 0.26489 0.84202 0.81184
 H479 H 0.23167 0.93792 0.93026
 H480 H 0.22895 0.90429 0.89248
 H481 H 0.30949 0.90001 0.88775
 H482 H 0.31247 0.93345 0.92562
 H483 H 0.24851 0.87769 0.85258
 H484 H 0.30004 0.86002 0.87481
 H485 H 0.30337 0.81409 0.86496
 H486 H 0.29686 0.77824 0.83082
 H487 H 0.24943 0.82407 0.77204
 H488 H 0.25618 0.85976 0.80580
 C489 C 0.73905 0.43923 0.43299
 C490 C 0.73703 0.41951 0.41194
 C491 C 0.75846 0.40708 0.40079
 C492 C 0.78211 0.41521 0.41059
 C493 C 0.78414 0.43500 0.43159
 C494 C 0.76263 0.44715 0.44314
 C495 C 0.75531 0.38624 0.37853
 C496 C 0.77229 0.36780 0.37459
 C497 C 0.76837 0.34639 0.35338
 C498 C 0.78069 0.32358 0.35960
 C499 C 0.77698 0.30277 0.34062
 C500 C 0.76104 0.30442 0.31475
 C501 C 0.74926 0.32747 0.30799
 C502 C 0.75292 0.34825 0.32703
 H503 H 0.72211 0.44827 0.44129
 H504 H 0.71860 0.41379 0.40455
 H505 H 0.79910 0.40666 0.40178
 H506 H 0.80260 0.44080 0.43874
 H507 H 0.73760 0.38533 0.36645
 H508 H 0.78895 0.36732 0.38886
 H509 H 0.79291 0.32173 0.37955
 H510 H 0.78645 0.28534 0.34638
 H511 H 0.73706 0.32944 0.28807
 H512 H 0.74379 0.36574 0.32082
 C513 C 0.05343 0.29482 0.93326
 C514 C 0.07272 0.29620 0.91146
 C515 C 0.08229 0.27443 0.89737
 C516 C 0.07225 0.25115 0.90573
 C517 C 0.05306 0.24977 0.92755
 C518 C 0.04350 0.27156 0.94170
 C519 C 0.10370 0.27642 0.87571
 C520 C 0.10884 0.25920 0.85393
 C521 C 0.13138 0.25956 0.83392
 C522 C 0.13151 0.24512 0.80676
 C523 C 0.15303 0.24313 0.78854
 C524 C 0.17502 0.25542 0.79721
 C525 C 0.17480 0.27026 0.82409
 C526 C 0.15326 0.27227 0.84232
 H527 H 0.04657 0.31194 0.94385
 H528 H 0.08030 0.31432 0.90569
 H529 H 0.07965 0.23385 0.89627
 H530 H 0.04598 0.23153 0.93370
 H531 H 0.11521 0.29284 0.87763
 H532 H 0.09586 0.24413 0.85016
 H533 H 0.11500 0.23499 0.79986
 H534 H 0.15256 0.23151 0.76801
 H535 H 0.19149 0.27983 0.83153
 H536 H 0.15423 0.28301 0.86349
 C537 C 0.57256 0.80087 0.42583
 C538 C 0.59346 0.80131 0.40643
 C539 C 0.60349 0.77903 0.39421
 C540 C 0.59231 0.75618 0.40208
 C541 C 0.57147 0.75572 0.42158
 C542 C 0.56141 0.77805 0.43376
 C543 C 0.62622 0.78019 0.37467
 C544 C 0.63199 0.76281 0.35338
 C545 C 0.65500 0.76325 0.33428
 C546 C 0.65531 0.75000 0.30625
 C547 C 0.67698 0.74867 0.28829
 C548 C 0.69899 0.76036 0.29813
 C549 C 0.69869 0.77382 0.32609
 C550 C 0.67694 0.77524 0.34404
 H551 H 0.56537 0.81840 0.43498
 H552 H 0.60186 0.81912 0.40097
 H553 H 0.59996 0.73854 0.39395
 H554 H 0.56347 0.73782 0.42746
 H555 H 0.63795 0.79642 0.37721
 H556 H 0.61894 0.74794 0.34880
 H557 H 0.63875 0.74046 0.29831
 H558 H 0.67656 0.73806 0.26693
 H559 H 0.71540 0.78288 0.33442
 H560 H 0.67768 0.78505 0.36592
 C561 C 0.94320 0.71291 0.92023
 C562 C 0.92374 0.71214 0.89858
 C563 C 0.91479 0.73418 0.88445
 C564 C 0.92559 0.75713 0.89266
 C565 C 0.94497 0.75791 0.91440
 C566 C 0.95394 0.73582 0.92852
 C567 C 0.89329 0.73272 0.86277
 C568 C 0.88855 0.74991 0.84076
 C569 C 0.86622 0.74956 0.82031
 C570 C 0.86668 0.76325 0.79252
 C571 C 0.84546 0.76501 0.77367
 C572 C 0.82315 0.75329 0.78234
 C573 C 0.82277 0.73925 0.80991
 C574 C 0.84402 0.73744 0.82875
 H575 H 0.94959 0.69556 0.93078
 H576 H 0.91560 0.69426 0.89291
 H577 H 0.91870 0.77462 0.88309
 H578 H 0.95270 0.77589 0.92044
 H579 H 0.88147 0.71651 0.86467
 H580 H 0.90177 0.76477 0.83697
 H581 H 0.88345 0.77291 0.78557
 H582 H 0.84638 0.77606 0.75264
 H583 H 0.80583 0.73015 0.81739
 H584 H 0.84260 0.72730 0.85037
 C585 C 0.43564 0.25769 0.42481
 C586 C 0.41794 0.25797 0.40098
 C587 C 0.40742 0.23562 0.39044
 C588 C 0.41557 0.21280 0.40356
 C589 C 0.43336 0.21251 0.42733
 C590 C 0.44342 0.23497 0.43841
 C591 C 0.38823 0.23694 0.36569
 C592 C 0.37048 0.21969 0.36205
 C593 C 0.35002 0.22232 0.33905
 C594 C 0.32703 0.21104 0.34527
 C595 C 0.30689 0.21410 0.32490
 C596 C 0.30944 0.22827 0.29764
 C597 C 0.33276 0.23878 0.29082
 C598 C 0.35286 0.23581 0.31127
 H599 H 0.44313 0.27531 0.43266
 H600 H 0.41216 0.27577 0.39107
 H601 H 0.40849 0.19512 0.39536
 H602 H 0.43915 0.19467 0.43712
 H603 H 0.38763 0.25375 0.35164
 H604 H 0.36953 0.20412 0.37808
 H605 H 0.32445 0.20033 0.36633
 H606 H 0.28923 0.20561 0.33072
 H607 H 0.33540 0.24960 0.26986
 H608 H 0.37057 0.24404 0.30517
 C609 C 0.70410 0.94051 0.92788
 C610 C 0.70397 0.92151 0.90559
 C611 C 0.72640 0.91286 0.89229
 C612 C 0.74907 0.92336 0.90206
 C613 C 0.74921 0.94224 0.92438
 C614 C 0.72675 0.95100 0.93761
 C615 C 0.72572 0.89199 0.86972
 C616 C 0.74348 0.88828 0.84821
 C617 C 0.74414 0.86654 0.82691
 C618 C 0.75813 0.86825 0.79952
 C619 C 0.76069 0.84766 0.77978
 C620 C 0.74948 0.82478 0.78720
 C621 C 0.73528 0.82310 0.81450
 C622 C 0.73266 0.84372 0.83419
 H623 H 0.68649 0.94675 0.93775
 H624 H 0.68630 0.91353 0.89872
 H625 H 0.76682 0.91662 0.89319
 H626 H 0.76700 0.94978 0.93153
 H627 H 0.70975 0.87978 0.87053
 H628 H 0.75806 0.90198 0.84551
 H629 H 0.76734 0.88553 0.79350
 H630 H 0.77182 0.84957 0.75899
 H631 H 0.72654 0.80569 0.82098
 H632 H 0.72234 0.84139 0.85552
 C633 C 0.20136 0.42851 0.42218
 C634 C 0.20006 0.40879 0.40096
 C635 C 0.22180 0.39922 0.38687
 C636 C 0.24498 0.40971 0.39461
 C637 C 0.24629 0.42934 0.41585
 C638 C 0.22454 0.43889 0.43002
 C639 C 0.21989 0.37736 0.36587
 C640 C 0.23700 0.37194 0.34408
 C641 C 0.23663 0.34902 0.32471
 C642 C 0.25070 0.34854 0.29727
 C643 C 0.25256 0.32673 0.27954
 C644 C 0.24052 0.30478 0.28900
 C645 C 0.22611 0.30533 0.31623
 C646 C 0.22423 0.32716 0.33396
 H647 H 0.18426 0.43535 0.43280
 H648 H 0.18201 0.40087 0.39565
 H649 H 0.26228 0.40234 0.38513
 H650 H 0.26447 0.43677 0.42155
 H651 H 0.20359 0.36574 0.36827
 H652 H 0.25194 0.38496 0.33977
 H653 H 0.26059 0.36503 0.28973
 H654 H 0.26385 0.32694 0.25873
 H655 H 0.21674 0.28870 0.32427
 H656 H 0.21379 0.32647 0.35538
 C657 C 0.29400 0.04942 0.91214
 C658 C 0.29245 0.06841 0.88984
 C659 C 0.26972 0.08096 0.88430
 C660 C 0.24826 0.07354 0.90040
 C661 C 0.24961 0.05419 0.92213
 C662 C 0.27259 0.04209 0.92871
 C663 C 0.26864 0.10167 0.86163
 C664 C 0.25555 0.12269 0.86730
 C665 C 0.25446 0.14395 0.84544
 C666 C 0.25352 0.16836 0.85725
 C667 C 0.25143 0.18887 0.83726
 C668 C 0.24949 0.18526 0.80511
 C669 C 0.25028 0.16078 0.79325
 C670 C 0.25299 0.14028 0.81323
 H671 H 0.31199 0.04047 0.91628
 H672 H 0.30916 0.07375 0.87744
 H673 H 0.23037 0.08261 0.89601
 H674 H 0.23266 0.04908 0.93418
 H675 H 0.28008 0.10028 0.84098
 H676 H 0.24636 0.12500 0.88952
 H677 H 0.25443 0.17156 0.88201
 H678 H 0.25063 0.20753 0.84702
 H679 H 0.24875 0.15752 0.76855
 H680 H 0.25318 0.12158 0.80359
 C681 C 0.74445 0.56044 0.42236
 C682 C 0.74401 0.57838 0.39877
 C683 C 0.76633 0.58809 0.38705
 C684 C 0.78925 0.57877 0.39865
 C685 C 0.78969 0.56073 0.42219
 C686 C 0.76729 0.55157 0.43454
 C687 C 0.76484 0.60787 0.36295
 C688 C 0.78263 0.62503 0.35888
 C689 C 0.77981 0.64656 0.33738
 C690 C 0.79264 0.66863 0.34407
 C691 C 0.78958 0.68982 0.32540
 C692 C 0.77383 0.68931 0.29930
 C693 C 0.76170 0.66692 0.29188
 C694 C 0.76465 0.64573 0.31071
 H695 H 0.72684 0.55364 0.43118
 H696 H 0.72612 0.58506 0.39007
 H697 H 0.80686 0.58519 0.38951
 H698 H 0.80760 0.55409 0.43085
 H699 H 0.74750 0.60959 0.35011
 H700 H 0.79891 0.62477 0.37382
 H701 H 0.80462 0.66968 0.36428
 H702 H 0.79936 0.70670 0.33165
 H703 H 0.74961 0.66588 0.27178
 H704 H 0.75510 0.62879 0.30424
 C705 C 0.06682 0.76036 0.91717
 C706 C 0.08563 0.76025 0.89478
 C707 C 0.09641 0.73768 0.88458
 C708 C 0.08748 0.71501 0.89665
 C709 C 0.06856 0.71506 0.91902
 C710 C 0.05807 0.73776 0.92978
 C711 C 0.11661 0.73871 0.86116
 C712 C 0.13412 0.72074 0.85772
 C713 C 0.15546 0.72312 0.83608
 C714 C 0.17788 0.71034 0.84286
 C715 C 0.19880 0.71304 0.82383
 C716 C 0.19764 0.72841 0.79737
 C717 C 0.17492 0.74051 0.78997
 C718 C 0.15402 0.73785 0.80904
 H719 H 0.05922 0.77826 0.92460
 H720 H 0.09202 0.77796 0.88567
 H721 H 0.09477 0.69719 0.88865
 H722 H 0.06221 0.69726 0.92787
 H723 H 0.11810 0.75588 0.84797
 H724 H 0.13413 0.70464 0.87297
 H725 H 0.17940 0.69867 0.86335
 H726 H 0.21597 0.70331 0.83008
 H727 H 0.17332 0.75225 0.76955
 H728 H 0.13680 0.74727 0.80242
 C729 C 0.55568 0.25897 0.43522
 C730 C 0.57520 0.25975 0.41382
 C731 C 0.58724 0.23766 0.40407
 C732 C 0.57899 0.21458 0.41576
 C733 C 0.55933 0.21379 0.43712
 C734 C 0.54753 0.23599 0.44716
 C735 C 0.60776 0.23959 0.38117
 C736 C 0.62599 0.22231 0.37788
 C737 C 0.64710 0.22543 0.35602
 C738 C 0.67016 0.21383 0.36277
 C739 C 0.69073 0.21716 0.34328
 C740 C 0.68856 0.23195 0.31642
 C741 C 0.66524 0.24288 0.30913
 C742 C 0.64471 0.23961 0.32864
 H743 H 0.54692 0.27642 0.44233
 H744 H 0.58104 0.27775 0.40500
 H745 H 0.58731 0.19710 0.40812
 H746 H 0.55336 0.19578 0.44571
 H747 H 0.60866 0.25680 0.36795
 H748 H 0.62660 0.20622 0.39315
 H749 H 0.67240 0.20259 0.38352
 H750 H 0.70839 0.20834 0.34945
 H751 H 0.66286 0.25415 0.28843
 H752 H 0.62701 0.24808 0.32205
 C753 C 0.93017 0.24383 0.93164
 C754 C 0.91063 0.24367 0.91014
 C755 C 0.89850 0.26603 0.90138
 C756 C 0.90687 0.28876 0.91388
 C757 C 0.92647 0.28893 0.93535
 C758 C 0.93820 0.26645 0.94465
 C759 C 0.87751 0.26483 0.87901
 C760 C 0.85918 0.28217 0.87740
 C761 C 0.83726 0.27989 0.85661
 C762 C 0.81479 0.29194 0.86490
 C763 C 0.79343 0.28953 0.84654
 C764 C 0.79416 0.27521 0.81925
 C765 C 0.81687 0.26380 0.81039
 C766 C 0.83822 0.26616 0.82881
 H767 H 0.93890 0.22620 0.93817
 H768 H 0.90471 0.22594 0.90065
 H769 H 0.89858 0.30647 0.90693
 H770 H 0.93239 0.30670 0.94470
 H771 H 0.87627 0.24808 0.86502
 H772 H 0.85909 0.29769 0.89349
 H773 H 0.81363 0.30284 0.88602
 H774 H 0.77627 0.29869 0.85393
 H775 H 0.81812 0.25286 0.78933
 H776 H 0.85542 0.25734 0.82105
 C777 C 0.44963 0.79616 0.40841
 C778 C 0.43055 0.79556 0.38617
 C779 C 0.41562 0.77430 0.38310
 C780 C 0.42073 0.75326 0.40174
 C781 C 0.44007 0.75367 0.42347
 C782 C 0.45453 0.77521 0.42732
 C783 C 0.39505 0.77416 0.36016
 C784 C 0.37313 0.76341 0.36638
 C785 C 0.35221 0.76255 0.34401
 C786 C 0.32763 0.76302 0.35529
 C787 C 0.30740 0.76073 0.33504
 C788 C 0.31138 0.75722 0.30315
 C789 C 0.33600 0.75672 0.29180
 C790 C 0.35626 0.75956 0.31202
 H791 H 0.46060 0.81295 0.41076
 H792 H 0.42707 0.81189 0.37182
 H793 H 0.40989 0.73639 0.39934
 H794 H 0.44341 0.73722 0.43768
 H795 H 0.39755 0.78418 0.33856
 H796 H 0.36992 0.75578 0.38930
 H797 H 0.32410 0.76508 0.37988
 H798 H 0.28864 0.76098 0.34448
 H799 H 0.33959 0.75398 0.26733
 H800 H 0.37504 0.75858 0.30276
 C801 C 0.30343 0.92921 0.06764
 C802 C 0.30448 0.91014 0.08984
 C803 C 0.28253 0.90131 0.10362
 C804 C 0.25941 0.91189 0.09461
 C805 C 0.25836 0.93092 0.07239
 C806 C 0.28033 0.93970 0.05853
 C807 C 0.28430 0.87997 0.12554
 C808 C 0.26664 0.87487 0.14660
 C809 C 0.26711 0.85218 0.16643
 C810 C 0.25255 0.85195 0.19347
 C811 C 0.25091 0.83027 0.21151
 C812 C 0.26366 0.80826 0.20269
 C813 C 0.27854 0.80858 0.17587
 C814 C 0.28019 0.83023 0.15786
 H815 H 0.32070 0.93550 0.05732
 H816 H 0.32250 0.90213 0.09612
 H817 H 0.24199 0.90507 0.10386
 H818 H 0.24024 0.93847 0.06573
 H819 H 0.30100 0.86835 0.12437
 H820 H 0.25119 0.88787 0.14983
 H821 H 0.24211 0.86852 0.20044
 H822 H 0.23922 0.83062 0.23198
 H823 H 0.28846 0.79188 0.16830
 H824 H 0.29098 0.82931 0.13672
 C825 C 0.79029 0.44089 0.58066
 C826 C 0.79001 0.42212 0.60327
 C827 C 0.76750 0.41506 0.61727
 C828 C 0.74515 0.42718 0.60809
 C829 C 0.74542 0.44590 0.58543
 C830 C 0.76796 0.45285 0.57130
 C831 C 0.76785 0.39395 0.63965
 C832 C 0.74994 0.39030 0.66088
 C833 C 0.74931 0.36814 0.68162
 C834 C 0.73537 0.36955 0.70912
 C835 C 0.73299 0.34860 0.72830
 C836 C 0.74433 0.32565 0.72020
 C837 C 0.75847 0.32427 0.69280
 C838 C 0.76089 0.34523 0.67367
 H839 H 0.80796 0.44573 0.57016
 H840 H 0.80744 0.41294 0.60969
 H841 H 0.72730 0.42178 0.61756
 H842 H 0.72787 0.45462 0.57859
 H843 H 0.78380 0.38130 0.63881
 H844 H 0.73527 0.40425 0.66378
 H845 H 0.72607 0.38690 0.71565
 H846 H 0.72188 0.35026 0.74917
 H847 H 0.76729 0.30683 0.68575
 H848 H 0.77113 0.34308 0.65223
 C849 C 0.75186 0.07135 0.06711
 C850 C 0.75246 0.09189 0.08702
 C851 C 0.73245 0.09694 0.10708
 C852 C 0.71159 0.08118 0.10674
 C853 C 0.71073 0.06090 0.08626
 C854 C 0.73088 0.05581 0.06627
 C855 C 0.73341 0.11945 0.12684
 C856 C 0.72394 0.12030 0.15553
 C857 C 0.72649 0.14274 0.17520
 C858 C 0.73205 0.13990 0.20679
 C859 C 0.73588 0.16092 0.22541
 C860 C 0.73351 0.18514 0.21289
 C861 C 0.72698 0.18795 0.18153
 C862 C 0.72369 0.16695 0.16279
 H863 H 0.76754 0.06803 0.05173
 H864 H 0.76863 0.10389 0.08677
 H865 H 0.69568 0.08496 0.12157
 H866 H 0.69430 0.04927 0.08597
 H867 H 0.74378 0.13529 0.11819
 H868 H 0.71596 0.10366 0.16567
 H869 H 0.73410 0.12140 0.21684
 H870 H 0.74070 0.15824 0.24959
 H871 H 0.72499 0.20640 0.17129
 H872 H 0.71888 0.16964 0.13861
 C873 C 0.25939 0.54972 0.57013
 C874 C 0.26182 0.56820 0.59275
 C875 C 0.24067 0.58059 0.60470
 C876 C 0.21684 0.57358 0.59417
 C877 C 0.21439 0.55498 0.57161
 C878 C 0.23565 0.54299 0.55917
 C879 C 0.24431 0.60038 0.62825
 C880 C 0.22804 0.61934 0.63279
 C881 C 0.23283 0.64015 0.65460
 C882 C 0.22164 0.66358 0.64879
 C883 C 0.22635 0.68393 0.66815
 C884 C 0.24215 0.68120 0.69403
 C885 C 0.25277 0.65755 0.70041
 C886 C 0.24814 0.63721 0.68096
 H887 H 0.27615 0.54074 0.56121
 H888 H 0.28036 0.57307 0.60065
 H889 H 0.20004 0.58215 0.60353
 H890 H 0.19583 0.55006 0.56385
 H891 H 0.26197 0.60025 0.64054
 H892 H 0.21152 0.62086 0.61836
 H893 H 0.20959 0.66629 0.62883
 H894 H 0.21773 0.70186 0.66269
 H895 H 0.26483 0.65476 0.72034
 H896 H 0.25641 0.61923 0.68681
 C897 C 0.93635 0.76166 0.05611
 C898 C 0.91605 0.76220 0.07638
 C899 C 0.91213 0.74239 0.09706
 C900 C 0.92877 0.72179 0.09696
 C901 C 0.94883 0.72100 0.07614
 C902 C 0.95278 0.74095 0.05553
 C903 C 0.88970 0.74313 0.11697
 C904 C 0.88921 0.73366 0.14571
 C905 C 0.86643 0.73527 0.16499
 C906 C 0.86843 0.74043 0.19676
 C907 C 0.84692 0.74316 0.21497
 C908 C 0.82310 0.74011 0.20180
 C909 C 0.82123 0.73405 0.17021
 C910 C 0.84265 0.73178 0.15195
 H911 H 0.93882 0.77721 0.04031
 H912 H 0.90332 0.77815 0.07591
 H913 H 0.92587 0.70601 0.11224
 H914 H 0.96120 0.70478 0.07610
 H915 H 0.87339 0.75309 0.10817
 H916 H 0.90617 0.72607 0.15602
 H917 H 0.88661 0.74297 0.20729
 H918 H 0.84890 0.74766 0.23931
 H919 H 0.80315 0.73152 0.15942
 H920 H 0.84061 0.72720 0.12765
 C921 C 0.41828 0.25497 0.56560
 C922 C 0.39699 0.25475 0.58427
 C923 C 0.39237 0.23441 0.60390
 C924 C 0.40927 0.21402 0.60426
 C925 C 0.43032 0.21398 0.58499
 C926 C 0.43503 0.23450 0.56553
 C927 C 0.36918 0.23451 0.62244
 C928 C 0.36787 0.22487 0.65105
 C929 C 0.34460 0.22643 0.66943
 C930 C 0.34583 0.23179 0.70120
 C931 C 0.32391 0.23466 0.71858
 C932 C 0.30041 0.23151 0.70460
 C933 C 0.29928 0.22516 0.67304
 C934 C 0.32114 0.22281 0.65557
 H935 H 0.42132 0.27093 0.55062
 H936 H 0.38411 0.27055 0.58347
 H937 H 0.40587 0.19786 0.61875
 H938 H 0.44291 0.19794 0.58530
 H939 H 0.35305 0.24436 0.61293
 H940 H 0.38460 0.21744 0.66209
 H941 H 0.36375 0.23445 0.71237
 H942 H 0.32532 0.23939 0.74292
 H943 H 0.28144 0.22259 0.66166
 H944 H 0.31970 0.21811 0.63123
 C945 C 0.04972 0.28680 0.08936
 C946 C 0.06949 0.28680 0.11060
 C947 C 0.08684 0.26691 0.11129
 C948 C 0.08362 0.24654 0.09115
 C949 C 0.06360 0.24631 0.07037
 C950 C 0.04660 0.26654 0.06905
 C951 C 0.10777 0.26739 0.13365
 C952 C 0.13055 0.25850 0.12647
 C953 C 0.15164 0.25814 0.14863
 C954 C 0.17608 0.26018 0.13728
 C955 C 0.19653 0.25836 0.15736
 C956 C 0.19291 0.25384 0.18912
 C957 C 0.16842 0.25189 0.20053
 C958 C 0.14795 0.25416 0.18051
 H959 H 0.03677 0.30255 0.08898
 H960 H 0.07151 0.30255 0.12616
 H961 H 0.09638 0.23065 0.09174
 H962 H 0.06162 0.23043 0.05502
 H963 H 0.10461 0.27634 0.15585
 H964 H 0.13422 0.25201 0.10310
 H965 H 0.17935 0.26304 0.11275
 H966 H 0.21520 0.25972 0.14787
 H967 H 0.16510 0.24833 0.22489
 H968 H 0.12933 0.25192 0.18985
 C969 C 0.56393 0.75298 0.57384
 C970 C 0.58274 0.75241 0.59629
 C971 C 0.59412 0.77456 0.60602
 C972 C 0.58556 0.79754 0.59367
 C973 C 0.56661 0.79813 0.57126
 C974 C 0.55582 0.77582 0.56081
 C975 C 0.61477 0.77275 0.62892
 C976 C 0.63293 0.78974 0.63122
 C977 C 0.65504 0.78635 0.65167
 C978 C 0.67737 0.79821 0.64362
 C979 C 0.69900 0.79454 0.66134
 C980 C 0.69871 0.77909 0.68773
 C981 C 0.67614 0.76790 0.69644
 C982 C 0.65450 0.77154 0.67867
 H983 H 0.55589 0.73546 0.56649
 H984 H 0.58880 0.73449 0.60563
 H985 H 0.59330 0.81508 0.60132
 H986 H 0.56061 0.81604 0.56187
 H987 H 0.61612 0.75567 0.64236
 H988 H 0.63289 0.80566 0.61568
 H989 H 0.67824 0.80991 0.62313
 H990 H 0.71603 0.80358 0.65409
 H991 H 0.67522 0.75612 0.71684
 H992 H 0.63744 0.76280 0.68627
   
