data_POSCAR
  _audit_creation_date              2014-09-24
  _audit_creation_method            'ToBaCCo'
  _symmetry_space_group_name_H-M    'P1'
  _symmetry_Int_Tables_number       1
  _symmetry_cell_setting            triclinic
  loop_
  _symmetry_equiv_pos_as_xyz
 x,y,z
_cell_length_a 38.5314
_cell_length_b 49.8831
_cell_length_c 35.2246
_cell_angle_alpha 90.103300
_cell_angle_beta 89.992300
_cell_angle_gamma 90.081000
loop_
  _atom_site_label
  _atom_site_type_symbol
  _atom_site_fract_x
  _atom_site_fract_y
  _atom_site_fract_z
O1 O 0.29190 0.22416 0.25685
 O2 O 0.24467 0.27696 0.20537
 O3 O 0.29182 0.27627 0.25828
 O4 O 0.24490 0.22473 0.20363
 O5 O 0.20370 0.22399 0.24732
 O6 O 0.25065 0.27558 0.30203
 O7 O 0.20349 0.27624 0.24909
 O8 O 0.25070 0.22345 0.30056
 Cu9 Cu 0.27245 0.25059 0.22659
 Cu10 Cu 0.22295 0.24973 0.27913
 C11 C 0.27934 0.21498 0.28748
 C12 C 0.21614 0.28555 0.21859
 C13 C 0.27921 0.28459 0.28939
 C14 C 0.21638 0.21565 0.21623
 O15 O 0.79189 0.27494 0.24236
 O16 O 0.74371 0.22341 0.29562
 O17 O 0.79205 0.22277 0.24406
 O18 O 0.74378 0.27569 0.29429
 O19 O 0.70355 0.27496 0.24952
 O20 O 0.75187 0.22199 0.19924
 O21 O 0.70352 0.22267 0.25082
 O22 O 0.75167 0.27416 0.19758
 Cu23 Cu 0.77189 0.24929 0.27363
 Cu24 Cu 0.72357 0.24838 0.21979
 C25 C 0.77993 0.28322 0.21095
 C26 C 0.71554 0.21427 0.28213
 C27 C 0.78012 0.21345 0.21318
 C28 C 0.71557 0.28431 0.28037
 O29 O 0.79366 0.72514 0.75695
 O30 O 0.74541 0.77667 0.70397
 O31 O 0.79394 0.77730 0.75531
 O32 O 0.74538 0.72438 0.70521
 O33 O 0.70531 0.72505 0.75015
 O34 O 0.75392 0.77803 0.80030
 O35 O 0.70538 0.77734 0.74895
 O36 O 0.75359 0.72585 0.80190
 Cu37 Cu 0.77361 0.75079 0.72579
 Cu38 Cu 0.72548 0.75163 0.77984
 C39 C 0.78177 0.71683 0.78839
 C40 C 0.71731 0.78577 0.71760
 C41 C 0.78214 0.78661 0.78625
 C42 C 0.71720 0.71573 0.71925
 O43 O 0.29286 0.77593 0.74376
 O44 O 0.24563 0.72308 0.79538
 O45 O 0.29268 0.72381 0.74236
 O46 O 0.24595 0.77531 0.79711
 O47 O 0.20467 0.77598 0.75352
 O48 O 0.25143 0.72445 0.69871
 O49 O 0.20437 0.72375 0.75175
 O50 O 0.25158 0.77658 0.70016
 Cu51 Cu 0.27342 0.74948 0.77408
 Cu52 Cu 0.22382 0.75028 0.72166
 C53 C 0.28025 0.78509 0.71316
 C54 C 0.21705 0.71446 0.78223
 C55 C 0.27998 0.71547 0.71128
 C56 C 0.21741 0.78433 0.78459
 C57 C 0.98537 -0.00042 -0.00006
 C58 C 1.02076 -0.00039 0.00018
 C59 C 1.04089 0.02123 0.01920
 C60 C 1.04109 -0.02195 -0.01861
 C61 C 0.96520 -0.02038 -0.02236
 C62 C 0.96496 0.01953 0.02194
 C63 C 1.03548 0.04831 0.00997
 C64 C 1.05396 0.06847 0.02883
 C65 C 1.07826 0.06174 0.05678
 C66 C 1.08432 0.03478 0.06547
 C67 C 1.06583 0.01461 0.04668
 C68 C 1.06635 -0.01526 -0.04574
 C69 C 1.08500 -0.03536 -0.06438
 C70 C 1.07879 -0.06235 -0.05587
 C71 C 1.05418 -0.06916 -0.02826
 C72 C 1.03554 -0.04905 -0.00955
 C73 C 0.93985 -0.03605 -0.00426
 C74 C 0.92099 -0.05513 -0.02477
 C75 C 0.92707 -0.05860 -0.06365
 C76 C 0.95189 -0.04272 -0.08204
 C77 C 0.97076 -0.02360 -0.06156
 C78 C 0.97007 0.02280 0.06120
 C79 C 0.95098 0.04191 0.08139
 C80 C 0.92641 0.05774 0.06262
 C81 C 0.92077 0.05423 0.02367
 C82 C 0.93985 0.03515 0.00346
 H83 H 1.01684 0.05380 -0.01166
 H84 H 1.04920 0.08926 0.02175
 H85 H 1.10313 0.02935 0.08698
 H86 H 1.07052 -0.00615 0.05402
 H87 H 1.07116 0.00552 -0.05295
 H88 H 1.10404 -0.02988 -0.08563
 H89 H 1.01664 -0.05460 0.01181
 H90 H 0.93504 -0.03375 0.02587
 H91 H 0.90178 -0.06726 -0.01028
 H92 H 0.95668 -0.04515 -0.11216
 H93 H 0.98971 -0.01134 -0.07619
 H94 H 0.98884 0.01058 0.07611
 H95 H 0.95542 0.04438 0.11156
 H96 H 0.90176 0.06632 0.00890
 H97 H 0.93539 0.03282 -0.02673
 H98 H 1.04929 -0.08997 -0.02133
 C99 C 0.48422 0.50007 0.50023
 C100 C 0.51961 0.50009 0.50014
 C101 C 0.53987 0.51976 0.52288
 C102 C 0.53974 0.48044 0.47730
 C103 C 0.46389 0.47852 0.48132
 C104 C 0.46398 0.52159 0.51922
 C105 C 0.56514 0.53572 0.50515
 C106 C 0.58366 0.55482 0.52605
 C107 C 0.57731 0.55799 0.56494
 C108 C 0.55269 0.54173 0.58297
 C109 C 0.53418 0.52260 0.56211
 C110 C 0.53390 0.47760 0.43810
 C111 C 0.55223 0.45844 0.41716
 C112 C 0.57681 0.44215 0.43510
 C113 C 0.58332 0.44533 0.47395
 C114 C 0.56499 0.46446 0.49492
 C115 C 0.46937 0.45141 0.49035
 C116 C 0.45023 0.43134 0.47211
 C117 C 0.42520 0.43818 0.44500
 C118 C 0.41922 0.46516 0.43637
 C119 C 0.43837 0.48524 0.45453
 C120 C 0.43850 0.51484 0.54607
 C121 C 0.41941 0.53488 0.56428
 C122 C 0.42540 0.56187 0.55563
 C123 C 0.45039 0.56875 0.52846
 C124 C 0.46949 0.54871 0.51019
 H125 H 0.57005 0.53372 0.47500
 H126 H 0.60271 0.56725 0.51183
 H127 H 0.54770 0.54393 0.61309
 H128 H 0.51528 0.51013 0.57646
 H129 H 0.51501 0.49008 0.42383
 H130 H 0.54710 0.45624 0.38708
 H131 H 0.57000 0.46645 0.52505
 H132 H 0.48846 0.44584 0.51147
 H133 H 0.45494 0.41052 0.47913
 H134 H 0.39986 0.47067 0.41550
 H135 H 0.43361 0.50602 0.44737
 H136 H 0.43373 0.49405 0.55324
 H137 H 0.40008 0.52934 0.58519
 H138 H 0.45511 0.58958 0.52143
 H139 H 0.48854 0.55431 0.48902
 H140 H 0.60235 0.43288 0.48809
 C141 C 0.01741 0.49982 0.00000
 C142 C -0.01799 0.49985 -0.00010
 C143 C -0.03835 0.47826 0.01858
 C144 C -0.03811 0.52146 -0.01892
 C145 C 0.03776 0.51960 -0.02234
 C146 C 0.03753 0.48003 0.02249
 C147 C -0.03283 0.45117 0.00935
 C148 C -0.05170 0.43104 0.02772
 C149 C -0.07649 0.43781 0.05517
 C150 C -0.08259 0.46478 0.06391
 C151 C -0.06372 0.48491 0.04561
 C152 C -0.06333 0.51486 -0.04615
 C153 C -0.08195 0.53503 -0.06458
 C154 C -0.07575 0.56199 -0.05576
 C155 C -0.05111 0.56871 -0.02811
 C156 C -0.03249 0.54855 -0.00961
 C157 C 0.06301 0.53541 -0.00423
 C158 C 0.08178 0.55450 -0.02475
 C159 C 0.07571 0.55782 -0.06364
 C160 C 0.05107 0.54175 -0.08205
 C161 C 0.03230 0.52263 -0.06156
 C162 C 0.03184 0.47703 0.06168
 C163 C 0.05046 0.45794 0.08232
 C164 C 0.07519 0.44189 0.06411
 C165 C 0.08148 0.44518 0.02525
 C166 C 0.06285 0.46423 0.00457
 H167 H -0.01385 0.44564 -0.01194
 H168 H -0.04690 0.41024 0.02061
 H169 H -0.10178 0.47024 0.08503
 H170 H -0.06850 0.50568 0.05294
 H171 H -0.06818 0.49410 -0.05354
 H172 H -0.10102 0.52961 -0.08586
 H173 H -0.01363 0.55403 0.01184
 H174 H 0.06774 0.53326 0.02593
 H175 H 0.10085 0.56678 -0.01025
 H176 H 0.04629 0.54407 -0.11217
 H177 H 0.01342 0.51027 -0.07620
 H178 H 0.01290 0.48938 0.07617
 H179 H 0.04552 0.45565 0.11242
 H180 H 0.10062 0.43291 0.01090
 H181 H 0.06776 0.46636 -0.02556
 H182 H -0.04624 0.58950 -0.02093
 C183 C 0.51835 1.00041 0.49990
 C184 C 0.48295 1.00033 0.49992
 C185 C 0.46273 0.97892 0.51916
 C186 C 0.46263 1.02166 0.48072
 C187 C 0.53854 1.02025 0.47750
 C188 C 0.53863 0.98067 0.52228
 C189 C 0.46808 0.95174 0.51031
 C190 C 0.44923 0.93181 0.52912
 C191 C 0.42463 0.93886 0.55664
 C192 C 0.41873 0.96591 0.56503
 C193 C 0.43757 0.98584 0.54629
 C194 C 0.43746 1.01463 0.45363
 C195 C 0.41851 1.03448 0.43495
 C196 C 0.42430 1.06155 0.44337
 C197 C 0.44891 1.06870 0.47084
 C198 C 0.46788 1.04885 0.48959
 C199 C 0.56356 1.03628 0.49560
 C200 C 0.58209 1.05550 0.47506
 C201 C 0.57601 1.05874 0.43616
 C202 C 0.55162 1.04244 0.41775
 C203 C 0.53309 1.02318 0.43826
 C204 C 0.53323 0.97771 0.56153
 C205 C 0.55183 0.95853 0.58201
 C206 C 0.57626 0.94232 0.56356
 C207 C 0.58230 0.94560 0.52465
 C208 C 0.56369 0.96474 0.50414
 H209 H 0.48689 0.94601 0.48894
 H210 H 0.45388 0.91094 0.52227
 H211 H 0.39969 0.97158 0.58620
 H212 H 0.43292 1.00668 0.55333
 H213 H 0.43289 0.99378 0.44658
 H214 H 0.39946 1.02873 0.41381
 H215 H 0.48669 1.05466 0.51093
 H216 H 0.56827 1.03421 0.52577
 H217 H 0.60096 1.06796 0.48957
 H218 H 0.54684 1.04469 0.38761
 H219 H 0.51438 1.01066 0.42363
 H220 H 0.51448 0.99015 0.57618
 H221 H 0.54708 0.95625 0.61215
 H222 H 0.60120 0.93322 0.51013
 H223 H 0.56837 0.96684 0.47397
 H224 H 0.45348 1.08959 0.47771
 C225 C 1.19913 0.19665 0.19605
 C226 C 1.18390 0.17974 0.17807
 C227 C 1.16579 0.15951 0.15661
 C228 C 1.17836 0.13318 0.15573
 C229 C 1.16072 0.11348 0.13500
 C230 C 1.13046 0.12003 0.11505
 C231 C 1.11792 0.14638 0.11586
 C232 C 1.13556 0.16608 0.13660
 C233 C 1.11211 0.09966 0.09413
 C234 C 1.09671 0.08245 0.07690
 H235 H 1.20171 0.12788 0.17110
 H236 H 1.17062 0.09316 0.13461
 H237 H 1.09451 0.15165 0.10058
 H238 H 1.12562 0.18639 0.13708
 C239 C 0.69853 0.69494 0.69981
 C240 C 0.68308 0.67740 0.68333
 C241 C 0.66485 0.65643 0.66348
 C242 C 0.68300 0.63904 0.63934
 C243 C 0.66530 0.61879 0.61977
 C244 C 0.62937 0.61584 0.62426
 C245 C 0.61122 0.63318 0.64848
 C246 C 0.62893 0.65343 0.66805
 C247 C 0.61109 0.59526 0.60365
 C248 C 0.59574 0.57817 0.58614
 H249 H 0.71077 0.64118 0.63558
 H250 H 0.67958 0.60552 0.60107
 H251 H 0.58343 0.63110 0.65211
 H252 H 0.61463 0.66677 0.68663
 C253 C -0.20131 0.30323 0.19015
 C254 C -0.18560 0.32008 0.17265
 C255 C -0.16690 0.34026 0.15181
 C256 C -0.17876 0.36679 0.15163
 C257 C -0.16051 0.38645 0.13156
 C258 C -0.13033 0.37965 0.11158
 C259 C -0.11850 0.35310 0.11169
 C260 C -0.13675 0.33344 0.13177
 C261 C -0.11136 0.39997 0.09134
 C262 C -0.09547 0.41714 0.07466
 H263 H -0.20204 0.37228 0.16704
 H264 H -0.16986 0.40692 0.13171
 H265 H -0.09516 0.34764 0.09638
 H266 H -0.12735 0.31298 0.13172
 C267 C 0.29891 0.80534 0.69270
 C268 C 0.31468 0.82222 0.67534
 C269 C 0.33359 0.84228 0.65451
 C270 C 0.32373 0.86926 0.65680
 C271 C 0.34216 0.88874 0.63659
 C272 C 0.37051 0.88133 0.61400
 C273 C 0.38035 0.85435 0.61167
 C274 C 0.36193 0.83486 0.63189
 C275 C 0.38960 0.90143 0.59346
 C276 C 0.40559 0.91840 0.57650
 H277 H 0.30186 0.87521 0.67421
 H278 H 0.33435 0.90955 0.63862
 H279 H 0.40226 0.84841 0.59432
 H280 H 0.36977 0.81406 0.62991
 C281 C -0.19948 0.69679 -0.19092
 C282 C -0.18381 0.67992 -0.17349
 C283 C -0.16521 0.65970 -0.15272
 C284 C -0.17702 0.63312 -0.15292
 C285 C -0.15892 0.61343 -0.13284
 C286 C -0.12895 0.62023 -0.11246
 C287 C -0.11716 0.64682 -0.11220
 C288 C -0.13526 0.66652 -0.13229
 C289 C -0.11018 0.59989 -0.09213
 C290 C -0.09448 0.58269 -0.07537
 H291 H -0.20015 0.62763 -0.16862
 H292 H -0.16824 0.59293 -0.13327
 H293 H -0.09399 0.65229 -0.09656
 H294 H -0.12591 0.68701 -0.13194
 C295 C 0.29801 1.19476 0.30789
 C296 C 0.31381 1.17789 0.32519
 C297 C 0.33278 1.15787 0.34594
 C298 C 0.32360 1.13078 0.34274
 C299 C 0.34211 1.11133 0.36285
 C300 C 0.36986 1.11890 0.38626
 C301 C 0.37901 1.14600 0.38950
 C302 C 0.36050 1.16545 0.36938
 C303 C 0.38905 1.09885 0.40669
 C304 C 0.40513 1.08193 0.42358
 H305 H 0.30221 1.12470 0.32470
 H306 H 0.33484 1.09043 0.36012
 H307 H 0.40044 1.15207 0.40748
 H308 H 0.36781 1.18635 0.37206
 C309 C 1.20018 -0.19672 -0.19516
 C310 C 1.18494 -0.17988 -0.17712
 C311 C 1.16680 -0.15975 -0.15559
 C312 C 1.13644 -0.16641 -0.13581
 C313 C 1.11873 -0.14680 -0.11506
 C314 C 1.13131 -0.12044 -0.11398
 C315 C 1.16171 -0.11379 -0.13369
 C316 C 1.17942 -0.13340 -0.15444
 C317 C 1.11286 -0.10014 -0.09309
 C318 C 1.09737 -0.08300 -0.07591
 H319 H 1.12645 -0.18672 -0.13651
 H320 H 1.09522 -0.15215 -0.09997
 H321 H 1.17164 -0.09346 -0.13310
 H322 H 1.20286 -0.12803 -0.16963
 C323 C 0.69699 0.30509 0.29986
 C324 C 0.68157 0.32261 0.31635
 C325 C 0.66336 0.34356 0.33618
 C326 C 0.62801 0.34066 0.34455
 C327 C 0.61042 0.36090 0.36420
 C328 C 0.62812 0.38413 0.37555
 C329 C 0.66345 0.38707 0.36708
 C330 C 0.68103 0.36682 0.34743
 C331 C 0.61013 0.40477 0.39625
 C332 C 0.59500 0.42192 0.41382
 H333 H 0.61409 0.32275 0.33601
 H334 H 0.58311 0.35841 0.37064
 H335 H 0.67740 0.40493 0.37577
 H336 H 0.70838 0.36927 0.34114
 C337 C 0.80007 -0.19388 -0.19536
 C338 C 0.81610 -0.17654 -0.17910
 C339 C 0.83531 -0.15589 -0.15973
 C340 C 0.81779 -0.13443 -0.14265
 C341 C 0.83647 -0.11444 -0.12364
 C342 C 0.87274 -0.11583 -0.12165
 C343 C 0.89026 -0.13725 -0.13881
 C344 C 0.87158 -0.15724 -0.15782
 C345 C 0.89192 -0.09549 -0.10159
 C346 C 0.90797 -0.07858 -0.08448
 H347 H 0.78974 -0.13319 -0.14396
 H348 H 0.82266 -0.09798 -0.11041
 H349 H 0.91830 -0.13854 -0.13738
 H350 H 0.88539 -0.17375 -0.17092
 C351 C 0.29768 0.30452 0.31073
 C352 C 0.31342 0.32124 0.32851
 C353 C 0.33239 0.34121 0.34953
 C354 C 0.36384 0.33453 0.36708
 C355 C 0.38256 0.35404 0.38702
 C356 C 0.36989 0.38030 0.38950
 C357 C 0.33837 0.38695 0.37208
 C358 C 0.31966 0.36744 0.35214
 C359 C 0.38941 0.40051 0.40943
 C360 C 0.40575 0.41759 0.42582
 H361 H 0.37394 0.31431 0.36520
 H362 H 0.40693 0.34870 0.40033
 H363 H 0.32837 0.40721 0.37377
 H364 H 0.29539 0.37283 0.33864
 C365 C 0.19873 0.69380 -0.19779
 C366 C 0.18331 0.67644 -0.18100
 C367 C 0.16488 0.65574 -0.16091
 C368 C 0.15206 0.63336 -0.18054
 C369 C 0.13407 0.61329 -0.16099
 C370 C 0.12883 0.61553 -0.12175
 C371 C 0.14168 0.63790 -0.10213
 C372 C 0.15967 0.65796 -0.12167
 C373 C 0.11018 0.59499 -0.10160
 C374 C 0.09450 0.57794 -0.08446
 H375 H 0.15595 0.63145 -0.21088
 H376 H 0.12422 0.59609 -0.17644
 H377 H 0.13776 0.63983 -0.07179
 H378 H 0.16946 0.67518 -0.10622
 C379 C 0.69802 1.19501 0.30144
 C380 C 0.68253 1.17778 0.31844
 C381 C 0.66410 1.15713 0.33862
 C382 C 0.65055 1.13505 0.31891
 C383 C 0.63271 1.11493 0.33853
 C384 C 0.62836 1.11682 0.37793
 C385 C 0.64190 1.13891 0.39764
 C386 C 0.65974 1.15902 0.37802
 C387 C 0.60996 1.09618 0.39816
 C388 C 0.59452 1.07902 0.41533
 H389 H 0.65378 1.13338 0.28845
 H390 H 0.62233 1.09795 0.32301
 H391 H 0.63867 1.14057 0.42810
 H392 H 0.67012 1.17600 0.39354
 C393 C 0.19783 0.30622 0.19868
 C394 C 0.18245 0.32360 0.18197
 C395 C 0.16408 0.34434 0.16200
 C396 C 0.17830 0.35553 0.12901
 C397 C 0.16037 0.37558 0.10947
 C398 C 0.12815 0.38453 0.12284
 C399 C 0.11396 0.37339 0.15587
 C400 C 0.13190 0.35333 0.17542
 C401 C 0.10953 0.40492 0.10244
 C402 C 0.09390 0.42187 0.08512
 H403 H 0.20317 0.34872 0.11838
 H404 H 0.17156 0.38403 0.08393
 H405 H 0.08904 0.38014 0.16643
 H406 H 0.12066 0.34482 0.20089
 C407 C 0.69878 0.80614 0.69732
 C408 C 0.68325 0.82339 0.68047
 C409 C 0.66477 0.84407 0.66050
 C410 C 0.62890 0.84180 0.65481
 C411 C 0.61093 0.86194 0.63545
 C412 C 0.62877 0.88442 0.62173
 C413 C 0.66464 0.88669 0.62744
 C414 C 0.68260 0.86656 0.64680
 C415 C 0.61033 0.90500 0.60151
 C416 C 0.59483 0.92211 0.58436
 H417 H 0.61485 0.82451 0.66530
 H418 H 0.58321 0.85996 0.63115
 H419 H 0.67869 0.90397 0.61691
 H420 H 0.71033 0.86852 0.65106
 C421 C 0.79896 0.19284 0.19366
 C422 C 0.81489 0.17553 0.17731
 C423 C 0.83397 0.15492 0.15778
 C424 C 0.83254 0.15315 0.11811
 C425 C 0.85124 0.13323 0.09908
 C426 C 0.87146 0.11499 0.11964
 C427 C 0.87286 0.11673 0.15932
 C428 C 0.85414 0.13666 0.17835
 C429 C 0.89086 0.09464 0.09996
 C430 C 0.90709 0.07772 0.08315
 H431 H 0.81703 0.16717 0.10193
 H432 H 0.84999 0.13207 0.06840
 H433 H 0.88842 0.10274 0.17548
 H434 H 0.85545 0.13786 0.20903
 C435 C 0.29836 0.69552 0.68994
 C436 C 0.31399 0.67877 0.67216
 C437 C 0.33282 0.65875 0.65117
 C438 C 0.36105 0.66621 0.62841
 C439 C 0.37970 0.64669 0.60848
 C440 C 0.37018 0.61964 0.61123
 C441 C 0.34188 0.61220 0.63387
 C442 C 0.32323 0.63172 0.65380
 C443 C 0.38967 0.59949 0.59125
 C444 C 0.40598 0.58244 0.57483
 H445 H 0.36871 0.68706 0.62621
 H446 H 0.40157 0.65265 0.59109
 H447 H 0.33433 0.59134 0.63623
 H448 H 0.30148 0.62573 0.67135
   
