data_POSCAR
  _audit_creation_date              2014-09-24
  _audit_creation_method            'ToBaCCo'
  _symmetry_space_group_name_H-M    'P1'
  _symmetry_Int_Tables_number       1
  _symmetry_cell_setting            triclinic
  loop_
  _symmetry_equiv_pos_as_xyz
 x,y,z
_cell_length_a 23.0216
_cell_length_b 23.0281
_cell_length_c 23.0693
_cell_angle_alpha 90.890800
_cell_angle_beta 86.721600
_cell_angle_gamma 83.134600
loop_
  _atom_site_label
  _atom_site_type_symbol
  _atom_site_fract_x
  _atom_site_fract_y
  _atom_site_fract_z
C1 C 0.61030 0.34439 0.03428
 C2 C 0.64999 0.38319 0.04227
 C3 C 0.62449 0.43742 0.02501
 N4 N 0.57010 0.43279 0.00759
 C5 C 0.56177 0.37579 0.01214
 C6 C 0.64966 0.49068 0.02838
 C7 C 0.61309 0.54449 0.03964
 C8 C 0.62756 0.58941 0.07477
 C9 C 0.58318 0.63434 0.07339
 C10 C 0.54213 0.61613 0.03766
 N11 N 0.55960 0.56025 0.01876
 C12 C 0.48965 0.65144 0.02485
 C13 C 0.43658 0.62606 0.02247
 C14 C 0.38110 0.65326 0.03996
 C15 C 0.34283 0.61281 0.03315
 C16 C 0.37581 0.56217 0.01131
 N17 N 0.43319 0.57003 0.00595
 C18 C 0.35319 0.51054 -0.00590
 C19 C 0.39028 0.45882 -0.02234
 C20 C 0.37415 0.41367 -0.05600
 C21 C 0.41905 0.36877 -0.05601
 C22 C 0.46144 0.38765 -0.02232
 N23 N 0.44419 0.44317 -0.00290
 C24 C 0.51179 0.35187 -0.00589
 H25 H 0.61635 0.29869 0.04527
 H26 H 0.69106 0.37261 0.06238
 H27 H 0.46436 0.46597 0.02810
 H28 H 0.66519 0.58920 0.10083
 H29 H 0.58040 0.67500 0.09811
 H30 H 0.36913 0.69627 0.05953
 H31 H 0.29633 0.61995 0.04470
 H32 H 0.41997 0.32667 -0.07776
 H33 H 0.53929 0.53683 -0.01159
 H34 H 0.33382 0.41282 -0.07774
 C35 C -0.02913 0.60653 0.64665
 C36 C -0.02870 0.64839 0.60523
 C37 C -0.00426 0.62056 0.55418
 N38 N 0.00819 0.56251 0.56297
 C39 C -0.00714 0.55378 0.61942
 C40 C 0.00899 0.64798 0.50102
 C41 C 0.02063 0.61402 0.44884
 C42 C 0.05310 0.62916 0.39992
 C43 C 0.04885 0.58752 0.35757
 C44 C 0.01463 0.54764 0.38187
 N45 N -0.00157 0.56343 0.43778
 C46 C -0.00405 0.50003 0.35177
 C47 C -0.02066 0.45109 0.38153
 C48 C -0.04972 0.40754 0.35845
 C49 C -0.05124 0.36546 0.39983
 C50 C -0.02315 0.38491 0.44669
 N51 N -0.00486 0.43737 0.43553
 C52 C -0.01028 0.35291 0.49692
 C53 C 0.00705 0.38006 0.54750
 C54 C 0.03297 0.35105 0.59337
 C55 C 0.03649 0.39238 0.63620
 C56 C 0.01385 0.44594 0.61492
 N57 N -0.00377 0.43794 0.56073
 C58 C 0.00325 0.49939 0.64701
 H59 H -0.04458 0.61491 0.69140
 H60 H -0.04577 0.69384 0.61258
 H61 H -0.02864 0.46907 0.53723
 H62 H 0.07783 0.66606 0.39509
 H63 H 0.06912 0.58657 0.31401
 H64 H -0.06793 0.40607 0.31633
 H65 H -0.07085 0.32528 0.39579
 H66 H 0.05311 0.38297 0.67828
 H67 H -0.03162 0.54442 0.46471
 H68 H 0.04724 0.30477 0.59639
 C69 C 0.36258 -0.04744 0.59452
 C70 C 0.40338 -0.04792 0.63564
 C71 C 0.44740 -0.01700 0.61313
 N72 N 0.43527 0.00126 0.55924
 C73 C 0.38328 -0.01689 0.54804
 C74 C 0.49671 -0.00303 0.64211
 C75 C 0.54539 0.01482 0.60952
 C76 C 0.58428 0.05072 0.63012
 C77 C 0.62704 0.05360 0.58668
 C78 C 0.61334 0.01934 0.54054
 N79 N 0.56249 -0.00280 0.55418
 C80 C 0.64896 0.00637 0.48862
 C81 C 0.62284 -0.00567 0.43612
 C82 C 0.65161 -0.02989 0.38527
 C83 C 0.61077 -0.02836 0.34424
 C84 C 0.55769 -0.00532 0.37159
 N85 N 0.56527 0.00865 0.42765
 C86 C 0.50415 0.00725 0.34451
 C87 C 0.45017 0.01986 0.37747
 C88 C 0.39761 0.04440 0.35651
 C89 C 0.35503 0.04213 0.40034
 C90 C 0.38223 0.01511 0.44655
 N91 N 0.44030 0.00257 0.43264
 C92 C 0.35310 -0.00280 0.49765
 H93 H 0.32277 -0.06812 0.59815
 H94 H 0.40107 -0.06978 0.67670
 H95 H 0.46995 -0.02342 0.45660
 H96 H 0.58178 0.07345 0.67175
 H97 H 0.66363 0.07884 0.58873
 H98 H 0.69702 -0.04783 0.37779
 H99 H 0.61999 -0.04304 0.29963
 H100 H 0.30904 0.05763 0.39769
 H101 H 0.54398 -0.03335 0.52943
 H102 H 0.38956 0.06134 0.31398
 O103 O 0.45119 0.00419 -0.08390
 O104 O 0.45409 0.01139 0.07567
 O105 O 0.45608 0.08671 -0.00580
 O106 O 0.44930 -0.07230 -0.00109
 O107 O 0.54602 -0.08788 -0.00898
 O108 O 0.55282 0.07122 -0.01327
 O109 O 0.55078 -0.00667 0.06837
 O110 O 0.54792 -0.01101 -0.09115
 Cu111 Cu 0.44294 0.00893 -0.00332
 Cu112 Cu 0.55909 -0.01008 -0.01219
 C113 C 0.49911 -0.00414 -0.11467
 C114 C 0.50292 0.00322 0.09902
 C115 C 0.50552 0.10603 -0.00983
 C116 C 0.49659 -0.10712 -0.00347
 O117 O -0.08667 0.54419 1.00545
 O118 O 0.07269 0.55068 0.99382
 O119 O -0.00912 0.54635 0.92008
 O120 O -0.00672 0.54812 1.07947
 O121 O 0.00664 0.45146 1.07808
 O122 O 0.01191 0.45010 0.91838
 O123 O 0.08809 0.45424 0.99688
 O124 O -0.07134 0.44762 1.00086
 Cu125 Cu -0.00879 0.55708 0.99976
 Cu126 Cu 0.01022 0.44109 0.99818
 C127 C -0.10615 0.49490 1.00485
 C128 C 0.10749 0.50353 0.99443
 C129 C 0.00157 0.49796 0.89223
 C130 C -0.00032 0.50002 1.10591
 O131 O 0.00714 -0.08264 0.44816
 O132 O 0.00059 0.07775 0.44714
 O133 O 0.08407 -0.00870 0.44945
 O134 O -0.07652 0.00355 0.44636
 O135 O -0.08382 0.00218 0.54224
 O136 O 0.07615 -0.00044 0.54523
 O137 O -0.01206 0.08105 0.54287
 O138 O 0.00422 -0.07972 0.54408
 Cu139 Cu 0.00458 -0.00279 0.43808
 Cu140 Cu -0.00461 0.00101 0.55330
 C141 C 0.00740 -0.10847 0.49636
 C142 C -0.00750 0.10669 0.49480
 C143 C 0.10735 -0.00562 0.49782
 C144 C -0.10742 0.00400 0.49379
 N145 N -0.25071 0.44073 1.01425
 C146 C -0.28811 0.49090 1.02340
 N147 N -0.26436 0.54227 1.02298
 N148 N -0.20670 0.54344 1.01671
 C149 C -0.16982 0.49312 1.00967
 N150 N -0.19287 0.44165 1.00807
 N151 N 0.25250 0.55564 0.97493
 C152 C 0.28858 0.50932 0.99325
 N153 N 0.26453 0.46105 1.01108
 N154 N 0.20699 0.45914 1.01078
 C155 C 0.17101 0.50567 0.99317
 N156 N 0.19476 0.55403 0.97529
 N157 N 0.01956 -0.25927 0.54806
 C158 C 0.01089 -0.29058 0.49950
 N159 N 0.00294 -0.26101 0.44939
 N160 N 0.00282 -0.20320 0.44809
 C161 C 0.01042 -0.17235 0.49703
 N162 N 0.01903 -0.20143 0.54702
 N163 N -0.03243 0.26103 0.54283
 C164 C -0.01209 0.28858 0.49555
 N165 N 0.00841 0.25589 0.44753
 N166 N 0.00885 0.19801 0.44690
 C167 C -0.01067 0.17056 0.49450
 N168 N -0.03143 0.20309 0.54244
 N169 N 0.54843 -0.01027 -0.26943
 C170 C 0.49703 -0.00451 -0.29634
 N171 N 0.44625 0.00061 -0.26244
 N172 N 0.44678 0.00036 -0.20471
 C173 C 0.49826 -0.00521 -0.17831
 N174 N 0.54908 -0.01064 -0.21175
 N175 N 0.52849 -0.04148 0.24839
 C176 C 0.50446 0.00662 0.27996
 N177 N 0.48027 0.05378 0.25133
 N178 N 0.47948 0.05266 0.19361
 C179 C 0.50398 0.00471 0.16230
 N180 N 0.52877 -0.04224 0.19061
 N181 N 0.54239 -0.26379 0.01553
 C182 C 0.49064 -0.28703 0.01821
 N183 N 0.44111 -0.25026 0.00989
 N184 N 0.44277 -0.19316 0.00251
 C185 C 0.49446 -0.17037 0.00174
 N186 N 0.54432 -0.20686 0.00783
 N187 N 0.46142 0.26414 0.01035
 C188 C 0.51090 0.28717 -0.00756
 N189 N 0.55868 0.25001 -0.02693
 N190 N 0.55721 0.19227 -0.02762
 C191 C 0.50760 0.16954 -0.00972
 N192 N 0.45971 0.20656 0.00904
 N193 N -0.25583 0.01471 0.44077
 C194 C -0.28943 0.00696 0.48981
 N195 N -0.26212 -0.00066 0.54042
 N196 N -0.20434 -0.00101 0.54185
 C197 C -0.17122 0.00607 0.49257
 N198 N -0.19800 0.01406 0.44199
 N199 N 0.25370 0.01201 0.54646
 C200 C 0.28885 -0.00579 0.49859
 N201 N 0.26387 -0.02491 0.45103
 N202 N 0.20608 -0.02527 0.45095
 C203 C 0.17110 -0.00720 0.49871
 N204 N 0.19595 0.01107 0.54662
 N205 N 0.01406 0.45023 1.25557
 C206 C -0.00304 0.50017 1.28727
 N207 N -0.01882 0.55029 1.25878
 N208 N -0.01767 0.55041 1.20097
 C209 C -0.00099 0.50031 1.16949
 N210 N 0.01482 0.45023 1.19782
 N211 N 0.04980 0.47305 0.73855
 C212 C 0.00270 0.49834 0.71140
 N213 N -0.04491 0.52300 0.74436
 N214 N -0.04513 0.52316 0.80209
 C215 C 0.00181 0.49750 0.82898
 N216 N 0.04918 0.47213 0.79631
   
