data_POSCAR
  _audit_creation_date              2014-09-24
  _audit_creation_method            'ToBaCCo'
  _symmetry_space_group_name_H-M    'P1'
  _symmetry_Int_Tables_number       1
  _symmetry_cell_setting            triclinic
  loop_
  _symmetry_equiv_pos_as_xyz
 x,y,z
_cell_length_a 28.3094
_cell_length_b 28.1148
_cell_length_c 28.3218
_cell_angle_alpha 90.107700
_cell_angle_beta 90.184600
_cell_angle_gamma 90.106500
loop_
  _atom_site_label
  _atom_site_type_symbol
  _atom_site_fract_x
  _atom_site_fract_y
  _atom_site_fract_z
C1 C 0.52271 1.00019 -0.50150
 C2 C 0.47466 1.00040 -0.50153
 C3 C 0.44647 1.00075 -0.54591
 C4 C 0.44672 1.00025 -0.45717
 C5 C 0.55088 1.00033 -0.45712
 C6 C 0.55069 0.99988 -0.54581
 C7 C 0.41280 1.03672 -0.55271
 C8 C 0.38192 1.03512 -0.59121
 C9 C 0.38404 0.99731 -0.62344
 C10 C 0.41826 0.96170 -0.61745
 C11 C 0.44931 0.96339 -0.57881
 C12 C 0.45025 1.03753 -0.42418
 C13 C 0.41960 1.03928 -0.38543
 C14 C 0.38516 1.00388 -0.37945
 C15 C 0.38226 0.96626 -0.41173
 C16 C 0.41271 0.96451 -0.45036
 C17 C 0.54769 0.96294 -0.42439
 C18 C 0.57868 0.96112 -0.38571
 C19 C 0.61310 0.99655 -0.37956
 C20 C 0.61564 1.03432 -0.41155
 C21 C 0.58486 1.03613 -0.45010
 C22 C 0.58433 0.96389 -0.55271
 C23 C 0.61515 0.96564 -0.59104
 C24 C 0.61300 1.00353 -0.62292
 C25 C 0.57888 1.03913 -0.61692
 C26 C 0.54784 1.03736 -0.57848
 H27 H 0.40981 1.06560 -0.52753
 H28 H 0.35570 1.06293 -0.59511
 H29 H 0.42030 0.93204 -0.64188
 H30 H 0.47441 0.93483 -0.57370
 H31 H 0.47561 1.06593 -0.42928
 H32 H 0.42201 1.06873 -0.36083
 H33 H 0.40915 0.93571 -0.47559
 H34 H 0.52235 0.93451 -0.42965
 H35 H 0.57654 0.93156 -0.36133
 H36 H 0.64217 1.06184 -0.40730
 H37 H 0.58815 1.06503 -0.47514
 H38 H 0.58736 0.93492 -0.52772
 H39 H 0.64144 0.93800 -0.59517
 H40 H 0.57705 1.06877 -0.64123
 H41 H 0.52279 1.06594 -0.57329
 H42 H 0.35572 0.93877 -0.40762
 C43 C -0.50060 1.47522 0.00044
 C44 C -0.50056 1.52344 0.00026
 C45 C -0.45625 1.55151 -0.00034
 C46 C -0.54481 1.55144 0.00069
 C47 C -0.54491 1.44714 0.00015
 C48 C -0.45632 1.44725 0.00088
 C49 C -0.44837 1.58551 0.03517
 C50 C -0.40945 1.61584 0.03287
 C51 C -0.37812 1.61270 -0.00507
 C52 C -0.38518 1.57828 -0.04024
 C53 C -0.42421 1.54776 -0.03794
 C54 C -0.57684 1.54805 0.03833
 C55 C -0.61572 1.57863 0.04052
 C56 C -0.62267 1.61273 0.00518
 C57 C -0.59138 1.61548 -0.03282
 C58 C -0.55259 1.58511 -0.03500
 C59 C -0.57732 1.45053 -0.03736
 C60 C -0.61633 1.41996 -0.03942
 C61 C -0.62305 1.38580 -0.00405
 C62 C -0.59132 1.38306 0.03384
 C63 C -0.55242 1.41345 0.03584
 C64 C -0.44885 1.41325 -0.03463
 C65 C -0.40989 1.38309 -0.03253
 C66 C -0.37810 1.38640 0.00523
 C67 C -0.38478 1.42080 0.04043
 C68 C -0.42384 1.45115 0.03831
 H69 H -0.47292 1.58910 0.06421
 H70 H -0.40438 1.64246 0.06014
 H71 H -0.36125 1.57582 -0.06991
 H72 H -0.43024 1.52231 -0.06608
 H73 H -0.57088 1.52287 0.06661
 H74 H -0.63962 1.57647 0.07024
 H75 H -0.52805 1.58842 -0.06408
 H76 H -0.57157 1.47574 -0.06564
 H77 H -0.64050 1.42225 -0.06908
 H78 H -0.59599 1.35670 0.06134
 H79 H -0.52757 1.41016 0.06482
 H80 H -0.47374 1.40955 -0.06355
 H81 H -0.40513 1.35647 -0.05981
 H82 H -0.36049 1.42339 0.06996
 H83 H -0.42955 1.47660 0.06647
 H84 H -0.59635 1.64187 -0.06022
 C85 C 0.00036 0.47516 0.50092
 C86 C 0.00046 0.52346 0.50094
 C87 C 0.00032 0.55168 0.54527
 C88 C 0.00068 0.55153 0.45663
 C89 C 0.00022 0.44697 0.45657
 C90 C 0.00042 0.44707 0.54523
 C91 C -0.03703 0.54827 0.57765
 C92 C -0.03899 0.57909 0.61651
 C93 C -0.00368 0.61356 0.62316
 C94 C 0.03406 0.61631 0.59146
 C95 C 0.03596 0.58567 0.55272
 C96 C -0.03487 0.58547 0.44918
 C97 C -0.03293 0.61587 0.41037
 C98 C 0.00471 0.61292 0.37863
 C99 C 0.03993 0.57858 0.38527
 C100 C 0.03798 0.54799 0.42419
 C101 C 0.03577 0.41301 0.44937
 C102 C 0.03396 0.38259 0.41044
 C103 C -0.00359 0.38551 0.37830
 C104 C -0.03884 0.41990 0.38475
 C105 C -0.03698 0.45051 0.42379
 C106 C 0.03766 0.45066 0.57797
 C107 C 0.03952 0.42004 0.61688
 C108 C 0.00421 0.38557 0.62322
 C109 C -0.03340 0.38262 0.59114
 C110 C -0.03520 0.41307 0.55235
 H111 H -0.06530 0.52287 0.57200
 H112 H -0.06855 0.57674 0.64062
 H113 H 0.06153 0.64285 0.59602
 H114 H 0.06483 0.58905 0.52793
 H115 H -0.06369 0.58897 0.47401
 H116 H -0.06026 0.64239 0.40569
 H117 H 0.06619 0.52264 0.42983
 H118 H 0.06452 0.40955 0.47445
 H119 H 0.06139 0.35610 0.40604
 H120 H -0.06826 0.42239 0.36030
 H121 H -0.06519 0.47588 0.42924
 H122 H 0.06593 0.47607 0.57258
 H123 H 0.06898 0.42254 0.64129
 H124 H -0.06087 0.35608 0.59546
 H125 H -0.06399 0.40955 0.52728
 H126 H 0.06938 0.57620 0.36105
 O127 O -0.06424 0.99827 -0.12176
 O128 O -0.06394 1.00208 0.12157
 O129 O -0.12112 0.93559 -0.00236
 O130 O -0.12100 1.06463 0.00196
 O131 O -0.06301 1.12218 0.00208
 O132 O -0.06322 0.87817 -0.00225
 O133 O -0.12119 1.00193 0.06347
 O134 O -0.12136 0.99831 -0.06389
 Zr135 Zr -0.08276 1.00015 -0.00013
 O136 O -0.04241 1.04314 0.04294
 O137 O -0.04261 0.95724 -0.04304
 C138 C -0.10793 0.99723 -0.10767
 C139 C -0.10767 1.00304 0.10730
 C140 C -0.10695 0.89168 -0.00356
 C141 C -0.10677 1.10857 0.00322
 H142 H -0.06259 0.93692 0.06276
 O143 O -0.04244 0.95737 0.04279
 H144 H -0.06265 1.06343 -0.06293
 O145 O -0.04247 1.04302 -0.04288
 O146 O 0.06481 0.99859 0.12181
 O147 O 0.06446 1.00201 -0.12151
 O148 O 0.00217 0.87823 0.06340
 O149 O -0.00142 1.12236 0.06367
 O150 O 0.00221 1.12226 -0.06333
 O151 O -0.00179 0.87812 -0.06358
 O152 O 0.12159 0.93582 0.00228
 O153 O 0.12170 1.06489 -0.00176
 O154 O 0.06357 0.87831 0.00207
 O155 O 0.06380 1.12231 -0.00174
 O156 O 0.00232 0.93565 0.12158
 O157 O -0.00185 0.93543 -0.12164
 O158 O 0.00210 1.06483 -0.12150
 O159 O -0.00143 1.06502 0.12170
 O160 O 0.12194 0.99865 0.06395
 O161 O 0.12177 1.00206 -0.06347
 Zr162 Zr 0.00039 1.00030 0.08353
 Zr163 Zr 0.00017 1.00017 -0.08347
 Zr164 Zr 0.00022 0.91715 -0.00005
 Zr165 Zr 0.00036 1.08334 0.00013
 Zr166 Zr 0.08336 1.00032 0.00018
 O167 O 0.04306 1.04316 -0.04278
 O168 O 0.04311 0.95741 0.04301
 C169 C 0.10851 0.99762 0.10773
 C170 C 0.10820 1.00306 -0.10729
 C171 C 0.00337 0.89171 0.10723
 C172 C -0.00251 1.10893 0.10746
 C173 C 0.00325 1.10877 -0.10715
 C174 C -0.00296 0.89152 -0.10738
 C175 C 0.10734 0.89189 0.00341
 C176 C 0.10753 1.10880 -0.00291
 H177 H 0.06306 0.93695 -0.06282
 O178 O 0.04294 0.95739 -0.04281
 H179 H 0.06333 1.06365 0.06313
 O180 O 0.04312 1.04317 0.04304
 C181 C 0.22996 0.99241 0.16497
 C182 C 0.21861 0.99255 0.21299
 C183 C 0.17115 0.99403 0.22676
 C184 C 0.13522 0.99553 0.19268
 C185 C 0.35275 0.99460 0.34248
 C186 C 0.19419 0.99392 0.13087
 C187 C 0.25573 0.99199 0.24800
 C188 C 0.28681 0.99207 0.27729
 C189 C 0.32281 0.99297 0.31203
 C190 C 0.14630 0.99566 0.14424
 H191 H 0.26653 0.99133 0.15385
 H192 H 0.16191 0.99421 0.26386
 H193 H 0.09884 0.99676 0.20432
 H194 H 0.20419 0.99384 0.09400
 C195 C -0.17026 1.00671 0.22598
 C196 C -0.21771 1.00833 0.21191
 C197 C -0.22907 1.00854 0.16382
 C198 C -0.19331 1.00696 0.12994
 C199 C -0.35244 1.00659 0.33989
 C200 C -0.13433 1.00514 0.19212
 C201 C -0.25487 1.00896 0.24664
 C202 C -0.28607 1.00894 0.27561
 C203 C -0.32228 1.00813 0.30989
 C204 C -0.14542 1.00508 0.14361
 H205 H -0.16102 1.00647 0.26313
 H206 H -0.26563 1.00973 0.15246
 H207 H -0.20332 1.00710 0.09301
 H208 H -0.09795 1.00380 0.20397
 C209 C -0.22941 0.99164 -0.16487
 C210 C -0.21807 0.99181 -0.21289
 C211 C -0.17062 0.99342 -0.22669
 C212 C -0.13467 0.99503 -0.19262
 C213 C -0.35249 0.99349 -0.34203
 C214 C -0.19362 0.99327 -0.13078
 C215 C -0.25522 0.99114 -0.24787
 C216 C -0.28635 0.99115 -0.27710
 C217 C -0.32245 0.99195 -0.31173
 C218 C -0.14573 0.99514 -0.14417
 H219 H -0.26597 0.99046 -0.15373
 H220 H -0.16140 0.99363 -0.26378
 H221 H -0.09830 0.99638 -0.20427
 H222 H -0.20360 0.99316 -0.09391
 C223 C 0.22942 1.00845 -0.16429
 C224 C 0.21782 1.00838 -0.21233
 C225 C 0.17030 1.00688 -0.22618
 C226 C 0.13453 1.00529 -0.19217
 C227 C 0.35113 1.00685 -0.34178
 C228 C 0.19380 1.00685 -0.13025
 C229 C 0.25476 1.00906 -0.24730
 C230 C 0.28564 1.00908 -0.27659
 C231 C 0.32140 1.00833 -0.31135
 C232 C 0.14584 1.00510 -0.14371
 H233 H 0.26604 1.00955 -0.15311
 H234 H 0.16088 1.00675 -0.26329
 H235 H 0.09810 1.00405 -0.20387
 H236 H 0.20397 1.00689 -0.09335
 C237 C 0.16413 1.23080 -0.00989
 C238 C 0.21212 1.21932 -0.00956
 C239 C 0.22617 1.17166 -0.00742
 C240 C 0.19225 1.13552 -0.00539
 C241 C 0.34123 1.35356 -0.00727
 C242 C 0.13018 1.19483 -0.00784
 C243 C 0.24688 1.25658 -0.01034
 C244 C 0.27605 1.28777 -0.01026
 C245 C 0.31071 1.32374 -0.00917
 C246 C 0.14381 1.14672 -0.00538
 H247 H 0.15293 1.26760 -0.01147
 H248 H 0.26332 1.16246 -0.00707
 H249 H 0.20399 1.09893 -0.00363
 H250 H 0.09326 1.20484 -0.00809
 C251 C 0.16358 0.76995 0.01085
 C252 C 0.21161 0.78145 0.01060
 C253 C 0.22581 0.82910 0.00836
 C254 C 0.19200 0.86523 0.00616
 C255 C 0.33982 0.64684 0.00869
 C256 C 0.12975 0.80590 0.00863
 C257 C 0.24621 0.74417 0.01152
 C258 C 0.27520 0.71292 0.01154
 C259 C 0.30958 0.67681 0.01054
 C260 C 0.14352 0.85401 0.00606
 H261 H 0.15226 0.73315 0.01250
 H262 H 0.26298 0.83831 0.00806
 H263 H 0.20384 0.90183 0.00432
 H264 H 0.09280 0.79587 0.00883
 C265 C -0.22559 0.82877 -0.00854
 C266 C -0.21153 0.78112 -0.01081
 C267 C -0.16354 0.76966 -0.01108
 C268 C -0.12959 0.80564 -0.00887
 C269 C -0.34040 0.64669 -0.00867
 C270 C -0.19167 0.86493 -0.00634
 C271 C -0.24626 0.74383 -0.01169
 C272 C -0.27539 0.71261 -0.01166
 C273 C -0.30998 0.67657 -0.01060
 C274 C -0.14323 0.85375 -0.00626
 H275 H -0.26274 0.83795 -0.00822
 H276 H -0.15232 0.73286 -0.01275
 H277 H -0.09267 0.79565 -0.00907
 H278 H -0.20342 0.90152 -0.00447
 C279 C -0.16324 1.23044 0.01048
 C280 C -0.21124 1.21881 0.01032
 C281 C -0.22533 1.17111 0.00818
 C282 C -0.19145 1.13506 0.00599
 C283 C -0.34029 1.35260 0.00863
 C284 C -0.12933 1.19456 0.00828
 C285 C -0.24597 1.25596 0.01128
 C286 C -0.27514 1.28705 0.01134
 C287 C -0.30979 1.32290 0.01041
 C288 C -0.14300 1.14640 0.00582
 H289 H -0.15201 1.26728 0.01205
 H290 H -0.26249 1.16179 0.00795
 H291 H -0.20322 1.09843 0.00424
 H292 H -0.09240 1.20468 0.00840
 C293 C -0.00882 1.23108 0.16430
 C294 C -0.00840 1.21959 0.21230
 C295 C -0.00637 1.17188 0.22621
 C296 C -0.00459 1.13575 0.19223
 C297 C -0.00653 1.35337 0.34236
 C298 C -0.00704 1.19510 0.13028
 C299 C -0.00912 1.25683 0.24723
 C300 C -0.00910 1.28789 0.27663
 C301 C -0.00820 1.32370 0.31161
 C302 C -0.00473 1.14694 0.14379
 H303 H -0.01033 1.26789 0.15315
 H304 H -0.00595 1.16260 0.26332
 H305 H -0.00293 1.09914 0.20393
 H306 H -0.00736 1.20513 0.09338
 C307 C 0.00974 1.23090 -0.16361
 C308 C 0.00917 1.21940 -0.21165
 C309 C 0.00701 1.17167 -0.22571
 C310 C 0.00524 1.13555 -0.19185
 C311 C 0.00718 1.35336 -0.34102
 C312 C 0.00796 1.19493 -0.12971
 C313 C 0.00986 1.25665 -0.24644
 C314 C 0.00981 1.28775 -0.27568
 C315 C 0.00887 1.32362 -0.31046
 C316 C 0.00551 1.14676 -0.14338
 H317 H 0.01135 1.26772 -0.15233
 H318 H 0.00648 1.16239 -0.26286
 H319 H 0.00346 1.09893 -0.20367
 H320 H 0.00840 1.20498 -0.09278
 C321 C -0.00964 0.76924 -0.16398
 C322 C -0.00899 0.78059 -0.21200
 C323 C -0.00675 0.82827 -0.22602
 C324 C -0.00496 0.86450 -0.19212
 C325 C -0.00676 0.64598 -0.34119
 C326 C -0.00783 0.80531 -0.13004
 C327 C -0.00965 0.74321 -0.24679
 C328 C -0.00955 0.71197 -0.27600
 C329 C -0.00854 0.67590 -0.31070
 C330 C -0.00529 0.85344 -0.14366
 H331 H -0.01130 0.73246 -0.15273
 H332 H -0.00616 0.83743 -0.26316
 H333 H -0.00311 0.90107 -0.20390
 H334 H -0.00832 0.79537 -0.09312
 C335 C 0.00999 0.76960 0.16367
 C336 C 0.00956 0.78108 0.21171
 C337 C 0.00745 0.82879 0.22578
 C338 C 0.00558 0.86492 0.19192
 C339 C 0.00789 0.64694 0.34086
 C340 C 0.00811 0.80557 0.12977
 C341 C 0.01035 0.74382 0.24647
 C342 C 0.01038 0.71269 0.27568
 C343 C 0.00953 0.67675 0.31038
 C344 C 0.00571 0.85373 0.14345
 H345 H 0.01157 0.73279 0.15238
 H346 H 0.00702 0.83806 0.26293
 H347 H 0.00384 0.90153 0.20375
 H348 H 0.00845 0.79553 0.09284
   
