data_POSCAR
  _audit_creation_date              2014-09-24
  _audit_creation_method            'ToBaCCo'
  _symmetry_space_group_name_H-M    'P1'
  _symmetry_Int_Tables_number       1
  _symmetry_cell_setting            triclinic
  loop_
  _symmetry_equiv_pos_as_xyz
 x,y,z
_cell_length_a 36.6428
_cell_length_b 36.7462
_cell_length_c 36.8826
_cell_angle_alpha 89.978500
_cell_angle_beta 89.997900
_cell_angle_gamma 90.003300
loop_
  _atom_site_label
  _atom_site_type_symbol
  _atom_site_fract_x
  _atom_site_fract_y
  _atom_site_fract_z
N1 N 0.30812 0.23545 0.20684
 N2 N 0.29361 0.26502 0.19291
 C3 C 0.31310 0.27506 0.16359
 C4 C 0.34131 0.25043 0.15885
 C5 C 0.33725 0.22567 0.18686
 H6 H 0.30700 0.29831 0.14668
 H7 H 0.35455 0.20258 0.19269
 Cu8 Cu 0.25062 0.28744 0.21449
 Cu9 Cu 0.28848 0.21183 0.24996
 Cu10 Cu 0.21131 0.25025 0.28821
 N11 N 0.20660 0.30812 0.23578
 N12 N 0.19157 0.29358 0.26472
 C13 C 0.16202 0.31321 0.27407
 C14 C 0.15814 0.34157 0.24963
 C15 C 0.18695 0.33743 0.22566
 H16 H 0.14448 0.30711 0.29682
 H17 H 0.19340 0.35481 0.20289
 N18 N 0.23516 0.20648 0.30801
 N19 N 0.26466 0.19193 0.29351
 C20 C 0.27452 0.16266 0.31321
 C21 C 0.25000 0.15847 0.34147
 C22 C 0.22541 0.18678 0.33725
 H23 H 0.29760 0.14539 0.30719
 H24 H 0.20240 0.19288 0.35452
 H25 H 0.23536 0.22923 0.24182
 H26 H 0.26485 0.25797 0.27182
 N27 N 0.69152 -0.23549 0.20611
 N28 N 0.70677 -0.26422 0.19129
 C29 C 0.68768 -0.27374 0.16157
 C30 C 0.65888 -0.24950 0.15724
 C31 C 0.66254 -0.22541 0.18608
 H32 H 0.69443 -0.29661 0.14447
 H33 H 0.64473 -0.20305 0.19303
 Cu34 Cu 0.74933 -0.28716 0.21313
 Cu35 Cu 0.70813 -0.21561 0.25232
 Cu36 Cu 0.79104 -0.24750 0.28406
 N37 N 0.79319 -0.30775 0.23464
 N38 N 0.80759 -0.29368 0.26408
 C39 C 0.83630 -0.31401 0.27439
 C40 C 0.84087 -0.34201 0.24951
 C41 C 0.81293 -0.33692 0.22455
 H42 H 0.85327 -0.30785 0.29754
 H43 H 0.80697 -0.35341 0.20107
 N44 N 0.76542 -0.20587 0.30602
 N45 N 0.73399 -0.19347 0.29372
 C46 C 0.72374 -0.16472 0.31395
 C47 C 0.74987 -0.15882 0.34049
 C48 C 0.77587 -0.18555 0.33458
 H49 H 0.69927 -0.14898 0.30935
 H50 H 0.80038 -0.19024 0.35020
 H51 H 0.76108 -0.22775 0.23992
 H52 H 0.73842 -0.25967 0.27233
 N53 N 0.69198 0.23586 0.79294
 N54 N 0.70677 0.26524 0.80697
 C55 C 0.68722 0.27550 0.83620
 C56 C 0.65881 0.25107 0.84089
 C57 C 0.66274 0.22631 0.81285
 H58 H 0.69352 0.29862 0.85321
 H59 H 0.64540 0.20325 0.80709
 Cu60 Cu 0.75048 0.28668 0.78590
 Cu61 Cu 0.71169 0.21206 0.74989
 Cu62 Cu 0.78847 0.25116 0.71090
 N63 N 0.79417 0.30777 0.76447
 N64 N 0.80773 0.29487 0.73412
 C65 C 0.83656 0.31526 0.72421
 C66 C 0.84197 0.34221 0.75008
 C67 C 0.81445 0.33634 0.77535
 H68 H 0.85280 0.31013 0.70032
 H69 H 0.80906 0.35207 0.79951
 N70 N 0.76499 0.20685 0.69159
 N71 N 0.73565 0.19213 0.70630
 C72 C 0.72590 0.16274 0.68675
 C73 C 0.75032 0.15859 0.65841
 C74 C 0.77477 0.18705 0.66242
 H75 H 0.70289 0.14540 0.69286
 H76 H 0.79767 0.19320 0.64501
 H77 H 0.76530 0.22868 0.75709
 H78 H 0.73550 0.25797 0.72822
 N79 N 0.30885 -0.23659 0.79295
 N80 N 0.29348 -0.26532 0.80772
 C81 C 0.31238 -0.27477 0.83762
 C82 C 0.34104 -0.25055 0.84191
 C83 C 0.33785 -0.22664 0.81303
 H84 H 0.30565 -0.29739 0.85513
 H85 H 0.35576 -0.20420 0.80656
 Cu86 Cu 0.24996 -0.28689 0.78628
 Cu87 Cu 0.29130 -0.21555 0.74759
 Cu88 Cu 0.21155 -0.25119 0.71158
 N89 N 0.20648 -0.30843 0.76484
 N90 N 0.19263 -0.29515 0.73476
 C91 C 0.16370 -0.31536 0.72489
 C92 C 0.15844 -0.34256 0.75054
 C93 C 0.18616 -0.33701 0.77567
 H94 H 0.14724 -0.30991 0.70122
 H95 H 0.19156 -0.35284 0.79976
 N96 N 0.23537 -0.20699 0.69234
 N97 N 0.26574 -0.19341 0.70602
 C98 C 0.27536 -0.16377 0.68675
 C99 C 0.24994 -0.15848 0.65947
 C100 C 0.22495 -0.18638 0.66396
 H101 H 0.29906 -0.14717 0.69228
 H102 H 0.20132 -0.19177 0.64727
 H103 H 0.23710 -0.22918 0.75671
 H104 H 0.26366 -0.26071 0.72709
 N105 N 0.69173 -0.23598 0.79288
 N106 N 0.70792 -0.26371 0.80863
 C107 C 0.68909 -0.27295 0.83861
 C108 C 0.65963 -0.24962 0.84193
 C109 C 0.66226 -0.22643 0.81245
 H110 H 0.69631 -0.29494 0.85672
 H111 H 0.64361 -0.20484 0.80520
 Cu112 Cu 0.75173 -0.28531 0.78809
 Cu113 Cu 0.70853 -0.21610 0.74682
 Cu114 Cu 0.79194 -0.24724 0.71558
 N115 N 0.79404 -0.30737 0.76516
 N116 N 0.80816 -0.29359 0.73545
 C117 C 0.83655 -0.31420 0.72491
 C118 C 0.84118 -0.34211 0.74990
 C119 C 0.81356 -0.33673 0.77511
 H120 H 0.85339 -0.30820 0.70163
 H121 H 0.80788 -0.35295 0.79887
 N122 N 0.76597 -0.20595 0.69343
 N123 N 0.73435 -0.19384 0.70554
 C124 C 0.72396 -0.16519 0.68525
 C125 C 0.75018 -0.15909 0.65886
 C126 C 0.77639 -0.18556 0.66493
 H127 H 0.69934 -0.14963 0.68973
 H128 H 0.80105 -0.19002 0.64948
 H129 H 0.73980 -0.26017 0.72815
 H130 H 0.76193 -0.22659 0.75915
 N131 N 0.30802 0.23511 0.79353
 N132 N 0.29283 0.26406 0.80798
 C133 C 0.31234 0.27430 0.83722
 C134 C 0.34122 0.25036 0.84137
 C135 C 0.33756 0.22584 0.81312
 H136 H 0.30583 0.29717 0.85445
 H137 H 0.35529 0.20316 0.80702
 Cu138 Cu 0.24940 0.28560 0.78655
 Cu139 Cu 0.28874 0.21163 0.75015
 Cu140 Cu 0.21133 0.25016 0.71179
 N141 N 0.20594 0.30713 0.76512
 N142 N 0.19140 0.29325 0.73564
 C143 C 0.16227 0.31335 0.72598
 C144 C 0.15823 0.34140 0.75074
 C145 C 0.18646 0.33654 0.77525
 H146 H 0.14502 0.30765 0.70292
 H147 H 0.19263 0.35350 0.79837
 N148 N 0.23552 0.20660 0.69184
 N149 N 0.26503 0.19202 0.70634
 C150 C 0.27479 0.16269 0.68673
 C151 C 0.25024 0.15852 0.65853
 C152 C 0.22571 0.18684 0.66268
 H153 H 0.29774 0.14527 0.69284
 H154 H 0.20260 0.19282 0.64550
 H155 H 0.26484 0.25779 0.72853
 H156 H 0.23547 0.22800 0.75729
 N157 N 0.30891 -0.23546 0.20718
 N158 N 0.29436 -0.26506 0.19335
 C159 C 0.31379 -0.27522 0.16405
 C160 C 0.34201 -0.25063 0.15921
 C161 C 0.33804 -0.22579 0.18716
 H162 H 0.30754 -0.29839 0.14712
 H163 H 0.35534 -0.20266 0.19287
 Cu164 Cu 0.25076 -0.28648 0.21446
 Cu165 Cu 0.28907 -0.21155 0.25009
 Cu166 Cu 0.21158 -0.24997 0.28831
 N167 N 0.20742 -0.30797 0.23600
 N168 N 0.19222 -0.29339 0.26482
 C169 C 0.16262 -0.31296 0.27401
 C170 C 0.15891 -0.34130 0.24960
 C171 C 0.18784 -0.33725 0.22579
 H172 H 0.14486 -0.30675 0.29658
 H173 H 0.19430 -0.35455 0.20297
 N174 N 0.23539 -0.20613 0.30795
 N175 N 0.26493 -0.19156 0.29350
 C176 C 0.27476 -0.16236 0.31328
 C177 C 0.25019 -0.15827 0.34149
 C178 C 0.22562 -0.18653 0.33721
 H179 H 0.29791 -0.14512 0.30741
 H180 H 0.20264 -0.19271 0.35451
 H181 H 0.26482 -0.25727 0.27203
 H182 H 0.23551 -0.22826 0.24234
 N183 N 0.69145 0.23502 0.20674
 N184 N 0.70652 0.26408 0.19234
 C185 C 0.68701 0.27430 0.16313
 C186 C 0.65824 0.25026 0.15892
 C187 C 0.66195 0.22568 0.18712
 H188 H 0.69357 0.29714 0.14586
 H189 H 0.64429 0.20292 0.19320
 Cu190 Cu 0.75044 0.28540 0.21284
 Cu191 Cu 0.71102 0.21144 0.24987
 Cu192 Cu 0.78819 0.24985 0.28816
 N193 N 0.79325 0.30706 0.23519
 N194 N 0.80784 0.29304 0.26460
 C195 C 0.83701 0.31302 0.27426
 C196 C 0.84103 0.34109 0.24955
 C197 C 0.81273 0.33643 0.22512
 H198 H 0.85429 0.30725 0.29731
 H199 H 0.80657 0.35341 0.20199
 N200 N 0.76429 0.20620 0.30796
 N201 N 0.73481 0.19162 0.29347
 C202 C 0.72503 0.16232 0.31314
 C203 C 0.74959 0.15818 0.34136
 C204 C 0.77412 0.18650 0.33716
 H205 H 0.70201 0.14497 0.30710
 H206 H 0.79717 0.19260 0.35437
 H207 H 0.73512 0.25792 0.27088
 H208 H 0.76458 0.22782 0.24231
 O209 O 0.22001 0.03531 0.46503
 O210 O 0.22016 -0.03564 0.53557
 O211 O 0.22003 0.03534 0.53541
 O212 O 0.22004 -0.03566 0.46513
 O213 O 0.28025 -0.03546 0.46495
 O214 O 0.28024 0.03519 0.53553
 O215 O 0.28037 -0.03549 0.53568
 O216 O 0.28023 0.03518 0.46484
 Cu217 Cu 0.21401 -0.00018 0.50029
 Cu218 Cu 0.28631 -0.00015 0.50025
 C219 C 0.25011 0.04737 0.45284
 C220 C 0.25027 -0.04767 0.54775
 C221 C 0.25014 0.04740 0.54752
 C222 C 0.25015 -0.04765 0.45295
 O223 O 0.77990 0.03509 0.53510
 O224 O 0.77983 -0.03592 0.46457
 O225 O 0.77985 0.03508 0.46472
 O226 O 0.77992 -0.03595 0.53513
 O227 O 0.71972 -0.03592 0.53531
 O228 O 0.71964 0.03489 0.46465
 O229 O 0.71963 -0.03584 0.46448
 O230 O 0.71969 0.03487 0.53540
 Cu231 Cu 0.78589 -0.00046 0.49989
 Cu232 Cu 0.71364 -0.00052 0.49998
 C233 C 0.74981 0.04715 0.54732
 C234 C 0.74973 -0.04797 0.45235
 C235 C 0.74973 0.04713 0.45262
 C236 C 0.74985 -0.04806 0.54733
 O237 O 0.46461 0.22128 0.03521
 O238 O 0.53550 0.22139 -0.03546
 O239 O 0.53538 0.22127 0.03518
 O240 O 0.46465 0.22147 -0.03540
 O241 O 0.46439 0.28152 -0.03523
 O242 O 0.53561 0.28132 0.03516
 O243 O 0.53570 0.28142 -0.03527
 O244 O 0.46440 0.28132 0.03519
 Cu245 Cu 0.50003 0.21534 -0.00014
 Cu246 Cu 0.50004 0.28743 -0.00004
 C247 C 0.45235 0.25125 0.04728
 C248 C 0.54779 0.25140 -0.04743
 C249 C 0.54761 0.25124 0.04726
 C250 C 0.45236 0.25148 -0.04737
 O251 O 0.53561 0.77922 0.03594
 O252 O 0.46509 0.77907 -0.03517
 O253 O 0.46485 0.77892 0.03543
 O254 O 0.53597 0.77933 -0.03491
 O255 O 0.53618 0.71928 -0.03507
 O256 O 0.46510 0.71888 0.03551
 O257 O 0.46489 0.71902 -0.03491
 O258 O 0.53646 0.71917 0.03534
 Cu259 Cu 0.50040 0.78514 0.00032
 Cu260 Cu 0.50069 0.71306 0.00021
 C261 C 0.54814 0.74924 0.04775
 C262 C 0.45278 0.74904 -0.04709
 C263 C 0.45280 0.74887 0.04752
 C264 C 0.54823 0.74939 -0.04706
 O265 O 0.03476 0.46546 0.21880
 O266 O -0.03672 0.53589 0.21879
 O267 O 0.03456 0.53612 0.21855
 O268 O -0.03638 0.46528 0.21883
 O269 O -0.03629 0.46542 0.27865
 O270 O 0.03453 0.53614 0.27838
 O271 O -0.03619 0.53632 0.27862
 O272 O 0.03446 0.46531 0.27863
 Cu273 Cu -0.00097 0.50071 0.21272
 Cu274 Cu -0.00089 0.50082 0.28457
 C275 C 0.04677 0.45326 0.24876
 C276 C -0.04860 0.54819 0.24873
 C277 C 0.04673 0.54819 0.24847
 C278 C -0.04842 0.45319 0.24879
 O279 O 0.03503 0.53591 0.78151
 O280 O -0.03649 0.46544 0.78130
 O281 O 0.03478 0.46528 0.78121
 O282 O -0.03627 0.53609 0.78103
 O283 O -0.03592 0.53622 0.72120
 O284 O 0.03485 0.46537 0.72139
 O285 O -0.03595 0.46522 0.72147
 O286 O 0.03479 0.53623 0.72168
 Cu287 Cu -0.00078 0.50069 0.78727
 Cu288 Cu -0.00058 0.50077 0.71544
 C289 C 0.04712 0.54812 0.75161
 C290 C -0.04833 0.45316 0.75133
 C291 C 0.04700 0.45323 0.75129
 C292 C -0.04819 0.54828 0.75106
 C293 C 0.37755 0.28268 0.11093
 C294 C 0.36970 0.25064 0.13024
 C295 C 0.38923 0.21880 0.12193
 C296 C 0.41587 0.21897 0.09483
 C297 C 0.42387 0.25107 0.07571
 C298 C 0.40445 0.28293 0.08407
 H299 H 0.36323 0.30774 0.11681
 H300 H 0.38368 0.19356 0.13602
 H301 H 0.43039 0.19398 0.08902
 H302 H 0.40986 0.30805 0.06968
 C303 C 0.62777 0.72029 0.10649
 C304 C 0.63151 0.75012 0.13028
 C305 C 0.60701 0.77948 0.12652
 C306 C 0.58021 0.77927 0.09955
 C307 C 0.57658 0.74941 0.07616
 C308 C 0.60040 0.71980 0.08008
 H309 H 0.64539 0.69677 0.10843
 H310 H 0.60871 0.80316 0.14383
 H311 H 0.56202 0.80238 0.09725
 H312 H 0.59816 0.69639 0.06239
 C313 C 0.62271 0.28314 -0.11092
 C314 C 0.63054 0.25119 -0.13036
 C315 C 0.61110 0.21929 -0.12206
 C316 C 0.58444 0.21933 -0.09498
 C317 C 0.57635 0.25135 -0.07580
 C318 C 0.59577 0.28327 -0.08407
 H319 H 0.63704 0.30823 -0.11671
 H320 H 0.61673 0.19409 -0.13616
 H321 H 0.56994 0.19430 -0.08925
 H322 H 0.59028 0.30834 -0.06965
 C323 C 0.38937 0.78109 -0.12173
 C324 C 0.36943 0.74935 -0.12946
 C325 C 0.37707 0.71751 -0.10975
 C326 C 0.40427 0.71732 -0.08315
 C327 C 0.42412 0.74910 -0.07538
 C328 C 0.41627 0.78101 -0.09487
 H329 H 0.38395 0.80617 -0.13614
 H330 H 0.36242 0.69253 -0.11516
 H331 H 0.40959 0.69234 -0.06850
 H332 H 0.43113 0.80591 -0.08956
 C333 C 0.12196 0.38977 0.21755
 C334 C 0.12963 0.37020 0.24940
 C335 C 0.10983 0.37828 0.28103
 C336 C 0.08309 0.40539 0.28084
 C337 C 0.07527 0.42477 0.24893
 C338 C 0.09494 0.41663 0.21727
 H339 H 0.13648 0.38404 0.19267
 H340 H 0.11520 0.36399 0.30612
 H341 H 0.06831 0.41101 0.30565
 H342 H 0.08961 0.43117 0.19229
 C343 C 0.12497 0.60882 0.78195
 C344 C 0.13103 0.63045 0.75093
 C345 C 0.10895 0.62439 0.72021
 C346 C 0.08202 0.59748 0.72040
 C347 C 0.07583 0.57640 0.75151
 C348 C 0.09745 0.58245 0.78235
 H349 H 0.14083 0.61257 0.80638
 H350 H 0.11275 0.63973 0.69548
 H351 H 0.06580 0.59340 0.69618
 H352 H 0.09335 0.56651 0.80672
 C353 C -0.12635 0.60883 0.21852
 C354 C -0.13191 0.63091 0.24929
 C355 C -0.10944 0.62527 0.27981
 C356 C -0.08271 0.59818 0.27971
 C357 C -0.07713 0.57657 0.24885
 C358 C -0.09905 0.58229 0.21820
 H359 H -0.14237 0.61239 0.19416
 H360 H -0.11279 0.64113 0.30427
 H361 H -0.06615 0.59437 0.30374
 H362 H -0.09535 0.56599 0.19401
 C363 C -0.10894 0.37598 0.71975
 C364 C -0.13087 0.36945 0.75050
 C365 C -0.12498 0.39096 0.78161
 C366 C -0.09798 0.41784 0.78202
 C367 C -0.07664 0.42449 0.75112
 C368 C -0.08250 0.40338 0.71996
 H369 H -0.11247 0.36058 0.69503
 H370 H -0.14058 0.38675 0.80613
 H371 H -0.09405 0.43367 0.80649
 H372 H -0.06637 0.40782 0.69574
 C373 C 0.28205 0.11051 0.37801
 C374 C 0.25004 0.13000 0.36998
 C375 C 0.21806 0.12204 0.38948
 C376 C 0.21805 0.09511 0.41627
 C377 C 0.25009 0.07579 0.42440
 C378 C 0.28212 0.08385 0.40506
 H379 H 0.30724 0.11611 0.36375
 H380 H 0.19284 0.13627 0.38381
 H381 H 0.19296 0.08960 0.43079
 H382 H 0.30723 0.06937 0.41067
 C383 C 0.78208 0.12206 0.61034
 C384 C 0.75017 0.13008 0.62993
 C385 C 0.71811 0.11061 0.62202
 C386 C 0.71793 0.08387 0.59505
 C387 C 0.74990 0.07570 0.57566
 C388 C 0.78198 0.09505 0.58364
 H389 H 0.80731 0.13630 0.61589
 H390 H 0.69297 0.11628 0.63633
 H391 H 0.69278 0.06941 0.58956
 H392 H 0.80702 0.08949 0.56908
 C393 C 0.28223 -0.11101 0.62244
 C394 C 0.25001 -0.12992 0.63103
 C395 C 0.21791 -0.12154 0.61189
 C396 C 0.21800 -0.09481 0.58493
 C397 C 0.25024 -0.07603 0.57627
 C398 C 0.28238 -0.08450 0.59524
 H399 H 0.30753 -0.11697 0.63635
 H400 H 0.19255 -0.13536 0.61792
 H401 H 0.19282 -0.08900 0.57069
 H402 H 0.30766 -0.07049 0.58920
 C403 C 0.78219 -0.12136 0.38760
 C404 C 0.74988 -0.13033 0.36906
 C405 C 0.71755 -0.11188 0.37818
 C406 C 0.71746 -0.08529 0.40530
 C407 C 0.74977 -0.07629 0.42375
 C408 C 0.78216 -0.09456 0.41452
 H409 H 0.80767 -0.13473 0.38113
 H410 H 0.69211 -0.11819 0.36469
 H411 H 0.69208 -0.07165 0.41170
 H412 H 0.80750 -0.08830 0.42826
 C413 C 0.62395 0.71831 -0.10969
 C414 C 0.63109 0.75009 -0.12967
 C415 C 0.61068 0.78159 -0.12231
 C416 C 0.58394 0.78142 -0.09531
 C417 C 0.57671 0.74961 -0.07543
 C418 C 0.59690 0.71801 -0.08299
 H419 H 0.63890 0.69347 -0.11497
 H420 H 0.61566 0.80656 -0.13707
 H421 H 0.56870 0.80613 -0.09021
 H422 H 0.59196 0.69310 -0.06810
 C423 C 0.37722 0.28272 -0.11068
 C424 C 0.36964 0.25071 -0.13010
 C425 C 0.38949 0.21901 -0.12204
 C426 C 0.41619 0.21927 -0.09502
 C427 C 0.42391 0.25132 -0.07575
 C428 C 0.40420 0.28307 -0.08390
 H429 H 0.36266 0.30767 -0.11645
 H430 H 0.38419 0.19381 -0.13626
 H431 H 0.43097 0.19438 -0.08938
 H432 H 0.40943 0.30816 -0.06940
 C433 C 0.38958 0.78108 0.12206
 C434 C 0.37022 0.74919 0.13046
 C435 C 0.37805 0.71717 0.11112
 C436 C 0.40494 0.71699 0.08424
 C437 C 0.42430 0.74891 0.07589
 C438 C 0.41621 0.78099 0.09496
 H439 H 0.38392 0.80632 0.13607
 H440 H 0.36374 0.69209 0.11697
 H441 H 0.41043 0.69189 0.06985
 H442 H 0.43065 0.80602 0.08913
 C443 C 0.62240 0.28256 0.11083
 C444 C 0.62991 0.25057 0.13034
 C445 C 0.61015 0.21884 0.12224
 C446 C 0.58360 0.21903 0.09509
 C447 C 0.57596 0.25105 0.07573
 C448 C 0.59557 0.28284 0.08392
 H449 H 0.63690 0.30755 0.11660
 H450 H 0.61546 0.19366 0.13652
 H451 H 0.56887 0.19413 0.08944
 H452 H 0.59036 0.30790 0.06936
 C453 C -0.12581 0.60904 0.78113
 C454 C -0.13156 0.63086 0.75019
 C455 C -0.10918 0.62510 0.71964
 C456 C -0.08235 0.59811 0.71987
 C457 C -0.07664 0.57671 0.75086
 C458 C -0.09843 0.58260 0.78156
 H459 H -0.14172 0.61273 0.80552
 H460 H -0.11265 0.64080 0.69508
 H461 H -0.06584 0.59420 0.69581
 H462 H -0.09461 0.56649 0.80586
 C463 C -0.11123 0.37817 0.28108
 C464 C -0.13065 0.36978 0.24933
 C465 C -0.12278 0.38906 0.21737
 C466 C -0.09597 0.41608 0.21715
 C467 C -0.07672 0.42458 0.24896
 C468 C -0.08467 0.40540 0.28094
 H469 H -0.11679 0.36403 0.30622
 H470 H -0.13696 0.38302 0.19235
 H471 H -0.09046 0.43045 0.19211
 H472 H -0.07016 0.41126 0.30584
 C473 C 0.12198 0.38961 0.78281
 C474 C 0.12991 0.37023 0.75092
 C475 C 0.11052 0.37864 0.71913
 C476 C 0.08377 0.40574 0.71923
 C477 C 0.07558 0.42482 0.75120
 C478 C 0.09496 0.41648 0.78300
 H479 H 0.13631 0.38379 0.80779
 H480 H 0.11626 0.36464 0.69398
 H481 H 0.06929 0.41154 0.69430
 H482 H 0.08938 0.43086 0.80802
 C483 C 0.11043 0.62236 0.28084
 C484 C 0.13031 0.63028 0.24924
 C485 C 0.12251 0.61091 0.21733
 C486 C 0.09517 0.58440 0.21696
 C487 C 0.07538 0.57646 0.24860
 C488 C 0.08336 0.59563 0.28056
 H489 H 0.11599 0.63648 0.30598
 H490 H 0.13717 0.61652 0.19249
 H491 H 0.08973 0.56994 0.19197
 H492 H 0.06852 0.59011 0.30536
 C493 C 0.78244 -0.12150 0.61188
 C494 C 0.75012 -0.13062 0.63031
 C495 C 0.71771 -0.11233 0.62114
 C496 C 0.71759 -0.08568 0.59409
 C497 C 0.74993 -0.07648 0.57579
 C498 C 0.78236 -0.09464 0.58502
 H499 H 0.80797 -0.13477 0.61837
 H500 H 0.69226 -0.11882 0.63451
 H501 H 0.69216 -0.07212 0.58766
 H502 H 0.80772 -0.08823 0.57136
 C503 C 0.28222 -0.11053 0.37816
 C504 C 0.25021 -0.12996 0.37006
 C505 C 0.21819 -0.12210 0.38952
 C506 C 0.21814 -0.09527 0.41635
 C507 C 0.25018 -0.07598 0.42453
 C508 C 0.28224 -0.08395 0.40524
 H509 H 0.30743 -0.11609 0.36393
 H510 H 0.19299 -0.13631 0.38378
 H511 H 0.19302 -0.08980 0.43083
 H512 H 0.30734 -0.06947 0.41088
 C513 C 0.78164 0.12183 0.38929
 C514 C 0.74962 0.12974 0.36985
 C515 C 0.71763 0.11026 0.37792
 C516 C 0.71762 0.08361 0.40496
 C517 C 0.74968 0.07558 0.42424
 C518 C 0.78171 0.09492 0.41608
 H519 H 0.80684 0.13608 0.38358
 H520 H 0.69242 0.11585 0.36370
 H521 H 0.69252 0.06911 0.41060
 H522 H 0.80683 0.08943 0.43055
 C523 C 0.28221 0.11056 0.62209
 C524 C 0.25021 0.13002 0.63013
 C525 C 0.21818 0.12207 0.61072
 C526 C 0.21813 0.09515 0.58398
 C527 C 0.25017 0.07583 0.57585
 C528 C 0.28224 0.08390 0.59510
 H529 H 0.30743 0.11617 0.63629
 H530 H 0.19298 0.13630 0.61642
 H531 H 0.19302 0.08964 0.56951
 H532 H 0.30734 0.06942 0.58946
   
