data_POSCAR
  _audit_creation_date              2014-09-24
  _audit_creation_method            'ToBaCCo'
  _symmetry_space_group_name_H-M    'P1'
  _symmetry_Int_Tables_number       1
  _symmetry_cell_setting            triclinic
  loop_
  _symmetry_equiv_pos_as_xyz
 x,y,z
_cell_length_a 32.9646
_cell_length_b 33.1945
_cell_length_c 21.0845
_cell_angle_alpha 90.132200
_cell_angle_beta 90.630900
_cell_angle_gamma 84.272300
loop_
  _atom_site_label
  _atom_site_type_symbol
  _atom_site_fract_x
  _atom_site_fract_y
  _atom_site_fract_z
C1 C -0.03885 0.26008 0.05371
 C2 C -0.03889 0.26371 -0.01425
 C3 C -0.00142 0.26882 -0.04456
 C4 C 0.03602 0.26725 -0.01121
 C5 C 0.03524 0.26398 0.05573
 C6 C -0.00139 0.26063 0.08663
 H7 H -0.00019 0.26031 0.13793
 H8 H -0.00131 0.27440 -0.09461
 C9 C 0.45524 0.76901 0.52093
 C10 C 0.45693 0.76942 0.45386
 C11 C 0.49470 0.77050 0.42404
 C12 C 0.53097 0.77294 0.45939
 C13 C 0.52849 0.77530 0.52648
 C14 C 0.49101 0.77322 0.55598
 H15 H 0.48997 0.77467 0.60731
 H16 H 0.49540 0.76810 0.37293
 C17 C 1.03215 0.73370 0.02155
 C18 C 1.03421 0.73017 -0.04565
 C19 C 0.99831 0.72850 -0.08177
 C20 C 0.95963 0.73078 -0.05375
 C21 C 0.95750 0.73274 0.01348
 C22 C 0.99340 0.73399 0.04982
 H23 H 0.98999 0.73695 0.10036
 H24 H 1.00126 0.72375 -0.13233
 C25 C 0.54115 0.21550 0.55255
 C26 C 0.54244 0.21212 0.48551
 C27 C 0.50638 0.20732 0.45155
 C28 C 0.46897 0.20606 0.48224
 C29 C 0.46774 0.20865 0.54936
 C30 C 0.50394 0.21309 0.58349
 H31 H 0.50326 0.21462 0.63483
 H32 H 0.50779 0.20320 0.40061
 C33 C 0.71584 -0.02892 0.04181
 C34 C 0.72267 -0.03129 -0.02507
 C35 C 0.72358 0.00457 -0.06008
 C36 C 0.71692 0.04287 -0.03160
 C37 C 0.70914 0.04550 0.03394
 C38 C 0.70778 0.00982 0.06916
 H39 H 0.70175 0.01254 0.11956
 H40 H 0.72838 0.00260 -0.11085
 C41 C 0.23764 0.46197 0.50447
 C42 C 0.24022 0.46302 0.43760
 C43 C 0.24047 0.50020 0.40656
 C44 C 0.23666 0.53715 0.43997
 C45 C 0.23360 0.53628 0.50693
 C46 C 0.23356 0.49875 0.53803
 H47 H 0.23159 0.49835 0.58914
 H48 H 0.24492 0.49973 0.35580
 C49 C 0.26431 1.03588 0.01657
 C50 C 0.25763 1.03874 -0.05064
 C51 C 0.24916 1.00362 -0.08425
 C52 C 0.24792 0.96627 -0.05436
 C53 C 0.25521 0.96294 0.01154
 C54 C 0.26451 0.99741 0.04547
 H55 H 0.27037 0.99375 0.09551
 H56 H 0.24537 1.00404 -0.13524
 C57 C 0.76364 0.53970 0.54181
 C58 C 0.76422 0.53722 0.47479
 C59 C 0.76565 0.49896 0.44552
 C60 C 0.76542 0.46316 0.48098
 C61 C 0.76533 0.46567 0.54806
 C62 C 0.76473 0.50380 0.57737
 H63 H 0.76623 0.50538 0.62865
 H64 H 0.76805 0.49698 0.39443
 O65 O 0.22136 0.27100 0.15927
 O66 O 0.32770 0.25649 0.21855
 O67 O 0.28326 0.21651 0.14032
 O68 O 0.26774 0.31265 0.22674
 O69 O 0.24577 0.28077 0.30957
 O70 O 0.26351 0.18366 0.22365
 O71 O 0.30650 0.22446 0.30164
 O72 O 0.20154 0.23695 0.24138
 Cu73 Cu 0.27720 0.26702 0.17756
 Cu74 Cu 0.25257 0.22806 0.27741
 C75 C 0.19334 0.25675 0.19084
 C76 C 0.33488 0.23871 0.27141
 C77 C 0.27582 0.18381 0.16667
 C78 C 0.25361 0.31328 0.28238
 O79 O 0.68138 0.73268 0.21535
 O80 O 0.78977 0.71078 0.17472
 O81 O 0.73967 0.67792 0.25010
 O82 O 0.73172 0.76261 0.13735
 O83 O 0.74809 0.80374 0.21396
 O84 O 0.75769 0.71812 0.32679
 O85 O 0.80724 0.75081 0.25219
 O86 O 0.69922 0.77202 0.29336
 Cu87 Cu 0.73382 0.71679 0.18693
 Cu88 Cu 0.75463 0.76543 0.27918
 C89 C 0.67201 0.75560 0.26234
 C90 C 0.81677 0.72761 0.20574
 C91 C 0.75000 0.68340 0.30747
 C92 C 0.73909 0.79745 0.15614
 O93 O 0.82061 0.23404 0.26858
 O94 O 0.73083 0.22032 0.36674
 O95 O 0.77218 0.17777 0.28165
 O96 O 0.78221 0.27517 0.35986
 O97 O 0.74125 0.30654 0.28815
 O98 O 0.73267 0.20854 0.20751
 O99 O 0.69111 0.25074 0.29262
 O100 O 0.78052 0.26627 0.19664
 Cu101 Cu 0.78053 0.22392 0.32657
 Cu102 Cu 0.73248 0.26126 0.23890
 C103 C 0.81574 0.25224 0.21558
 C104 C 0.69552 0.23280 0.34572
 C105 C 0.75085 0.17640 0.23147
 C106 C 0.76321 0.30736 0.33809
 O107 O 0.27669 0.77817 0.30896
 O108 O 0.18119 0.76218 0.22340
 O109 O 0.22314 0.72587 0.31608
 O110 O 0.23292 0.81629 0.21915
 O111 O 0.26916 0.77911 0.14899
 O112 O 0.25660 0.68805 0.24361
 O113 O 0.21666 0.72581 0.15139
 O114 O 0.31146 0.73953 0.23893
 Cu115 Cu 0.22505 0.77447 0.27401
 Cu116 Cu 0.26715 0.72940 0.18875
 C117 C 0.31035 0.76109 0.28875
 C118 C 0.18278 0.74138 0.17255
 C119 C 0.23767 0.69147 0.29589
 C120 C 0.25249 0.81318 0.16753
 O121 O 0.77276 0.28408 0.68779
 O122 O 0.75843 0.19206 0.77786
 O123 O 0.71698 0.23474 0.69043
 O124 O 0.81236 0.24441 0.77955
 O125 O 0.77778 0.28253 0.85044
 O126 O 0.68212 0.26960 0.76479
 O127 O 0.72508 0.22898 0.85142
 O128 O 0.73663 0.32117 0.75823
 Cu129 Cu 0.76864 0.23504 0.72682
 Cu130 Cu 0.72705 0.27934 0.81353
 C131 C 0.75659 0.31816 0.70681
 C132 C 0.73956 0.19475 0.83011
 C133 C 0.68333 0.25055 0.71256
 C134 C 0.81125 0.26534 0.83021
 O135 O 0.31233 0.72781 0.72505
 O136 O 0.22163 0.71395 0.82093
 O137 O 0.25799 0.67678 0.72425
 O138 O 0.27976 0.76179 0.82572
 O139 O 0.24111 0.80382 0.76401
 O140 O 0.22122 0.71814 0.65927
 O141 O 0.18440 0.75497 0.75603
 O142 O 0.27470 0.77054 0.66308
 Cu143 Cu 0.27153 0.71581 0.78040
 Cu144 Cu 0.22644 0.76600 0.70436
 C145 C 0.30882 0.75171 0.67776
 C146 C 0.18748 0.73248 0.80475
 C147 C 0.23692 0.68277 0.67382
 C148 C 0.26422 0.79724 0.81243
 O149 O 0.18559 0.25252 0.73867
 O150 O 0.29366 0.24092 0.69422
 O151 O 0.24633 0.19812 0.75955
 O152 O 0.23394 0.29832 0.68261
 O153 O 0.24781 0.32698 0.77392
 O154 O 0.26571 0.22677 0.84799
 O155 O 0.31040 0.27206 0.78188
 O156 O 0.20260 0.27857 0.83052
 Cu157 Cu 0.23846 0.24462 0.70963
 Cu158 Cu 0.25843 0.27898 0.81749
 C159 C 0.17576 0.26668 0.79284
 C160 C 0.32037 0.25489 0.72957
 C161 C 0.25785 0.19556 0.81733
 C162 C 0.23812 0.32978 0.71569
 O163 O 0.70520 0.78877 0.66845
 O164 O 0.80476 0.76336 0.74754
 O165 O 0.76178 0.72870 0.66266
 O166 O 0.74750 0.82347 0.75501
 O167 O 0.71728 0.79192 0.83051
 O168 O 0.73139 0.69720 0.73807
 O169 O 0.77453 0.73160 0.82281
 O170 O 0.67515 0.75729 0.74427
 Cu171 Cu 0.75784 0.77939 0.70100
 Cu172 Cu 0.72163 0.74143 0.79165
 C173 C 0.67331 0.77680 0.69247
 C174 C 0.80658 0.74294 0.79857
 C175 C 0.74870 0.69685 0.68446
 C176 C 0.72997 0.82389 0.80839
 C177 C 0.26657 0.07132 0.05424
 C178 C 0.27710 0.07221 0.11623
 C179 C 0.27500 0.11003 0.15388
 C180 C 0.28074 0.14617 0.12928
 H181 H 0.28606 0.04504 0.14279
 H182 H 0.26941 0.10749 0.20417
 H183 H 0.25695 0.10020 0.03274
 H184 H 0.28904 0.14863 0.08000
 C185 C 0.76239 0.57934 0.57531
 C186 C 0.74063 0.58704 0.62824
 C187 C 0.73810 0.62546 0.66460
 C188 C 0.75357 0.65942 0.64629
 H189 H 0.72311 0.56389 0.64682
 H190 H 0.72156 0.62555 0.70872
 H191 H 0.77947 0.60228 0.55565
 H192 H 0.76936 0.66074 0.60184
 C193 C 0.71716 0.93802 0.08458
 C194 C 0.73508 0.90050 0.07509
 C195 C 0.73438 0.86925 0.12453
 C196 C 0.73840 0.83008 0.10893
 H197 H 0.75185 0.89222 0.03268
 H198 H 0.72951 0.87828 0.17353
 H199 H 0.70439 0.94408 0.13131
 H200 H 0.74062 0.82149 0.05933
 C201 C 0.24352 0.42264 0.53878
 C202 C 0.22895 0.41623 0.59638
 C203 C 0.23500 0.37557 0.62458
 C204 C 0.23160 0.37017 0.68686
 H205 H 0.21203 0.44030 0.62258
 H206 H 0.24350 0.34978 0.59413
 H207 H 0.26049 0.39737 0.51521
 H208 H 0.22556 0.39617 0.71778
 C209 C 0.92500 0.25710 0.08920
 C210 C 0.92469 0.24083 0.14785
 C211 C 0.88796 0.23808 0.18691
 C212 C 0.85092 0.25713 0.17469
 H213 H 0.95237 0.22601 0.16853
 H214 H 0.89233 0.21937 0.22895
 H215 H 0.89603 0.26781 0.06863
 H216 H 0.84548 0.27638 0.13360
 C217 C 0.41705 0.76292 0.55502
 C218 C 0.41728 0.74265 0.61017
 C219 C 0.38054 0.73662 0.64714
 C220 C 0.34430 0.75814 0.63883
 H221 H 0.44577 0.72834 0.62915
 H222 H 0.38430 0.71420 0.68454
 H223 H 0.38835 0.77385 0.53331
 H224 H 0.34001 0.78147 0.60304
 C225 C 0.06802 0.73837 0.05800
 C226 C 0.06994 0.74339 0.12146
 C227 C 0.10812 0.74925 0.15647
 C228 C 0.14534 0.73503 0.13669
 H229 H 0.04310 0.74554 0.15038
 H230 H 0.10495 0.76461 0.20180
 H231 H 0.09618 0.73959 0.03291
 H232 H 0.14889 0.71750 0.09342
 C233 C 0.57773 0.22025 0.59268
 C234 C 0.60652 0.24410 0.57685
 C235 C 0.64435 0.24587 0.61402
 C236 C 0.64514 0.24714 0.67738
 H237 H 0.60389 0.26129 0.53326
 H238 H 0.67200 0.24898 0.58792
 H239 H 0.58046 0.20402 0.63731
 H240 H 0.61698 0.24837 0.70366
 C241 C 0.71793 0.08001 0.92961
 C242 C 0.74619 0.08364 0.88529
 C243 C 0.74950 0.12103 0.84839
 C244 C 0.73428 0.15812 0.86717
 H245 H 0.76821 0.05809 0.87502
 H246 H 0.76713 0.11773 0.80530
 H247 H 0.69535 0.10508 0.93906
 H248 H 0.71841 0.16236 0.91167
 C249 C 0.23957 0.57598 0.40562
 C250 C 0.22974 0.58124 0.34399
 C251 C 0.23596 0.61825 0.30835
 C252 C 0.23231 0.65534 0.33395
 H253 H 0.21836 0.55710 0.31671
 H254 H 0.24145 0.61473 0.25798
 H255 H 0.25143 0.60057 0.43136
 H256 H 0.22329 0.65965 0.38293
 C257 C 0.23706 0.93223 0.90567
 C258 C 0.26262 0.89897 0.89705
 C259 C 0.25207 0.86674 0.85365
 C260 C 0.27379 0.83062 0.85415
 H261 H 0.29169 0.89560 0.92204
 H262 H 0.22589 0.87230 0.82216
 H263 H 0.20901 0.93647 0.87810
 H264 H 0.29879 0.82480 0.88781
 C265 C 0.76563 0.42346 0.44759
 C266 C 0.74638 0.41921 0.39173
 C267 C 0.74474 0.38034 0.35728
 C268 C 0.76697 0.34556 0.37243
 H269 H 0.72912 0.44530 0.37050
 H270 H 0.72398 0.38085 0.31705
 H271 H 0.78069 0.39715 0.47075
 H272 H 0.78841 0.34418 0.41164
 C273 C 0.07398 0.26779 0.95760
 C274 C 0.08033 0.27174 0.89522
 C275 C 0.12258 0.27292 0.87323
 C276 C 0.13283 0.26834 0.81240
 H277 H 0.05593 0.27405 0.86045
 H278 H 0.14631 0.27617 0.90840
 H279 H 0.10143 0.26379 0.98618
 H280 H 0.10974 0.26336 0.77703
 C281 C 0.57158 0.76976 0.42813
 C282 C 0.57800 0.77410 0.36599
 C283 C 0.62013 0.77094 0.34269
 C284 C 0.62924 0.76207 0.28235
 H285 H 0.55318 0.78001 0.33234
 H286 H 0.64459 0.77386 0.37675
 H287 H 0.59828 0.76272 0.45790
 H288 H 0.60532 0.75635 0.24882
 C289 C 0.92362 0.73028 0.90879
 C290 C 0.92025 0.74020 0.84687
 C291 C 0.88086 0.74551 0.81149
 C292 C 0.84585 0.73261 0.83155
 H293 H 0.94604 0.74961 0.82166
 H294 H 0.88086 0.76210 0.76731
 H295 H 0.89625 0.72394 0.93240
 H296 H 0.84500 0.71465 0.87406
 C297 C 0.43147 0.20201 0.44378
 C298 C 0.42452 0.21949 0.38699
 C299 C 0.38496 0.21763 0.35463
 C300 C 0.37633 0.23593 0.29896
 H301 H 0.44684 0.23714 0.36606
 H302 H 0.36176 0.20248 0.37843
 H303 H 0.40784 0.18557 0.46337
 H304 H 0.39948 0.25095 0.27486
 C305 C 0.72745 0.93089 0.93723
 C306 C 0.69965 0.90403 0.93669
 C307 C 0.70399 0.86624 0.89873
 C308 C 0.72510 0.86210 0.84462
 H309 H 0.67381 0.90861 0.96810
 H310 H 0.68806 0.84139 0.91548
 H311 H 0.75363 0.92671 0.90655
 H312 H 0.73896 0.88752 0.82523
 C313 C 0.24499 0.42593 0.39815
 C314 C 0.22102 0.39585 0.40466
 C315 C 0.22713 0.35704 0.37001
 C316 C 0.24679 0.35249 0.31487
 H317 H 0.19731 0.39852 0.44002
 H318 H 0.21413 0.33146 0.39069
 H319 H 0.26866 0.42417 0.36288
 H320 H 0.25759 0.37826 0.29143
 C321 C 0.26181 0.07523 0.91602
 C322 C 0.24562 0.08434 0.85815
 C323 C 0.24845 0.12304 0.82437
 C324 C 0.26093 0.15651 0.85081
 H325 H 0.22730 0.06381 0.83386
 H326 H 0.23691 0.12444 0.77602
 H327 H 0.27918 0.09713 0.93856
 H328 H 0.27106 0.15677 0.89967
 C329 C 0.76365 0.57410 0.43466
 C330 C 0.74257 0.57787 0.37979
 C331 C 0.74159 0.61302 0.33663
 C332 C 0.75290 0.64943 0.35272
 H333 H 0.72529 0.55351 0.36422
 H334 H 0.72942 0.60862 0.28947
 H335 H 0.78108 0.59812 0.45045
 H336 H 0.76333 0.65528 0.40034
 C337 C 0.07356 0.72759 0.92002
 C338 C 0.07777 0.74956 0.86765
 C339 C 0.11547 0.74985 0.83047
 C340 C 0.15124 0.72836 0.84365
 H341 H 0.05199 0.76966 0.85083
 H342 H 0.11321 0.76992 0.78987
 H343 H 0.09891 0.70801 0.93898
 H344 H 0.15477 0.70826 0.88400
 C345 C 0.58119 0.21146 0.45028
 C346 C 0.58367 0.23314 0.39713
 C347 C 0.62150 0.23703 0.36168
 C348 C 0.65942 0.22632 0.38361
 H349 H 0.55633 0.24987 0.37815
 H350 H 0.61741 0.25116 0.31549
 H351 H 0.60799 0.19476 0.47066
 H352 H 0.66457 0.21307 0.43015
 C353 C 0.92498 0.26083 0.94874
 C354 C 0.92358 0.25575 0.88522
 C355 C 0.88534 0.25237 0.84901
 C356 C 0.84880 0.26971 0.86699
 H357 H 0.95093 0.25036 0.85764
 H358 H 0.88802 0.23613 0.80440
 H359 H 0.89632 0.26019 0.97214
 H360 H 0.84598 0.28792 0.90966
 C361 C 0.42081 0.76488 0.41314
 C362 C 0.38823 0.79252 0.41270
 C363 C 0.35062 0.78881 0.37497
 C364 C 0.34881 0.76537 0.32333
 H365 H 0.38806 0.81838 0.44420
 H366 H 0.32337 0.80694 0.39043
 H367 H 0.42223 0.73888 0.38200
 H368 H 0.37610 0.74866 0.30524
 C369 C 0.25240 0.92409 0.04584
 C370 C 0.23842 0.92281 0.10532
 C371 C 0.23597 0.88529 0.14218
 C372 C 0.25593 0.84923 0.12808
 H373 H 0.22651 0.95060 0.12840
 H374 H 0.21758 0.88830 0.18452
 H375 H 0.26064 0.89611 0.02113
 H376 H 0.27537 0.84557 0.08709
 C377 C 0.76673 0.42882 0.58820
 C378 C 0.74360 0.42702 0.63999
 C379 C 0.74253 0.39079 0.68082
 C380 C 0.76088 0.35394 0.66720
 H381 H 0.72345 0.45340 0.65328
 H382 H 0.72423 0.39477 0.72315
 H383 H 0.78708 0.40302 0.57417
 H384 H 0.77843 0.34871 0.62453
 C385 C 0.70519 0.08526 0.06696
 C386 C 0.72554 0.09104 0.12085
 C387 C 0.72537 0.13149 0.14979
 C388 C 0.74799 0.13670 0.20155
 H389 H 0.74433 0.06592 0.14231
 H390 H 0.70754 0.15709 0.12799
 H391 H 0.68791 0.11092 0.04458
 H392 H 0.76560 0.11076 0.22284
 C393 C 0.23103 0.57416 0.54522
 C394 C 0.25094 0.57582 0.60086
 C395 C 0.25157 0.61187 0.64190
 C396 C 0.23156 0.64846 0.63093
 H397 H 0.26960 0.54918 0.61756
 H398 H 0.27080 0.60751 0.68382
 H399 H 0.21393 0.60089 0.52593
 H400 H 0.21231 0.65406 0.58943
 C401 C 0.91743 0.73750 0.04580
 C402 C 0.91015 0.72036 0.10126
 C403 C 0.86809 0.72279 0.12425
 C404 C 0.85940 0.72167 0.18574
 H405 H 0.93433 0.70356 0.12825
 H406 H 0.84338 0.72777 0.08979
 H407 H 0.89226 0.75514 0.02220
 H408 H 0.88357 0.72050 0.22115
 C409 C 0.42887 0.20644 0.58375
 C410 C 0.41755 0.22985 0.63357
 C411 C 0.37605 0.22965 0.65902
 C412 C 0.36325 0.25207 0.70911
 H413 H 0.43767 0.25082 0.65282
 H414 H 0.35496 0.21169 0.63462
 H415 H 0.40764 0.18625 0.56580
 H416 H 0.38435 0.26938 0.73467
 C417 C 0.07244 0.26263 0.09593
 C418 C 0.09641 0.29298 0.09649
 C419 C 0.13792 0.28934 0.12424
 C420 C 0.15075 0.26235 0.16893
 H421 H 0.08746 0.31975 0.06836
 H422 H 0.15885 0.30950 0.10585
 H423 H 0.08040 0.23522 0.12275
 H424 H 0.12963 0.24396 0.19112
 C425 C 0.56456 0.77584 0.56877
 C426 C 0.59139 0.80347 0.56413
 C427 C 0.62933 0.80182 0.60260
 C428 C 0.63370 0.78382 0.65947
 H429 H 0.58730 0.82610 0.52706
 H430 H 0.65476 0.81533 0.58219
 H431 H 0.56822 0.75275 0.60507
 H432 H 0.60795 0.77210 0.68186
   
