data_POSCAR
  _audit_creation_date              2014-09-24
  _audit_creation_method            'ToBaCCo'
  _symmetry_space_group_name_H-M    'P1'
  _symmetry_Int_Tables_number       1
  _symmetry_cell_setting            triclinic
  loop_
  _symmetry_equiv_pos_as_xyz
 x,y,z
_cell_length_a 49.9450
_cell_length_b 49.9992
_cell_length_c 35.5922
_cell_angle_alpha 89.851900
_cell_angle_beta 90.082300
_cell_angle_gamma 89.837400
loop_
  _atom_site_label
  _atom_site_type_symbol
  _atom_site_fract_x
  _atom_site_fract_y
  _atom_site_fract_z
O1 O 0.02425 0.29117 -0.03237
 O2 O -0.02999 0.28848 0.03817
 O3 O 0.02287 0.28999 0.04062
 O4 O -0.02847 0.28959 -0.03438
 O5 O -0.02697 0.24546 -0.03490
 O6 O 0.02407 0.24584 0.03904
 O7 O -0.02740 0.24447 0.03810
 O8 O 0.02484 0.24704 -0.03398
 Cu9 Cu -0.00292 0.29429 0.00314
 Cu10 Cu -0.00120 0.24133 0.00188
 C11 C 0.03375 0.26943 -0.04519
 C12 C -0.03805 0.26589 0.05014
 C13 C 0.03225 0.26785 0.05246
 C14 C -0.03669 0.26732 -0.04704
 O15 O 0.47710 0.79188 0.53922
 O16 O 0.52956 0.79043 0.46622
 O17 O 0.47677 0.79211 0.46642
 O18 O 0.52983 0.78940 0.53916
 O19 O 0.52753 0.74531 0.53868
 O20 O 0.47581 0.74797 0.46571
 O21 O 0.52762 0.74632 0.46563
 O22 O 0.47584 0.74774 0.53862
 Cu23 Cu 0.50351 0.79543 0.50279
 Cu24 Cu 0.50157 0.74246 0.50208
 C25 C 0.46741 0.76998 0.55113
 C26 C 0.53763 0.76805 0.45367
 C27 C 0.46714 0.77035 0.45392
 C28 C 0.53770 0.76673 0.55122
 O29 O 1.02945 0.71252 0.03942
 O30 O 0.97760 0.71020 -0.03500
 O31 O 1.03044 0.71211 -0.03296
 O32 O 0.97653 0.71022 0.03822
 O33 O 0.97526 0.75437 0.03783
 O34 O 1.02774 0.75612 -0.03389
 O35 O 0.97627 0.75436 -0.03528
 O36 O 1.02679 0.75653 0.03926
 Cu37 Cu 1.00359 0.70678 0.00249
 Cu38 Cu 1.00130 0.75970 0.00196
 C39 C 1.03719 0.73507 0.05181
 C40 C 0.96822 0.73206 -0.04786
 C41 C 1.03844 0.73457 -0.04544
 C42 C 0.96680 0.73212 0.05016
 O43 O 0.52321 0.20899 0.53779
 O44 O 0.47038 0.21208 0.46495
 O45 O 0.52302 0.20919 0.46491
 O46 O 0.47045 0.21168 0.53791
 O47 O 0.47324 0.25575 0.53823
 O48 O 0.52470 0.25332 0.46504
 O49 O 0.47311 0.25615 0.46519
 O50 O 0.52490 0.25312 0.53796
 Cu51 Cu 0.49652 0.20600 0.50140
 Cu52 Cu 0.49918 0.25897 0.50165
 C53 C 0.53315 0.23067 0.55007
 C54 C 0.46277 0.23478 0.45274
 C55 C 0.53285 0.23096 0.45266
 C56 C 0.46287 0.23426 0.55039
 O57 O 0.71649 0.02043 -0.03900
 O58 O 0.71830 -0.03244 0.03413
 O59 O 0.71506 0.02045 0.03398
 O60 O 0.71870 -0.03216 -0.03857
 O61 O 0.76284 -0.03013 -0.03659
 O62 O 0.75920 0.02271 0.03449
 O63 O 0.76222 -0.02873 0.03656
 O64 O 0.76069 0.02142 -0.03837
 Cu65 Cu 0.71265 -0.00612 -0.00240
 Cu66 Cu 0.76561 -0.00349 -0.00083
 C67 C 0.73849 0.02978 -0.05120
 C68 C 0.74075 -0.03965 0.04783
 C69 C 0.73659 0.03073 0.04627
 C70 C 0.74149 -0.04022 -0.04972
 O71 O 0.21318 0.53075 0.46712
 O72 O 0.21362 0.47865 0.54129
 O73 O 0.21353 0.53134 0.53992
 O74 O 0.21242 0.47800 0.46837
 O75 O 0.25662 0.47780 0.46770
 O76 O 0.25772 0.53075 0.53892
 O77 O 0.25783 0.47905 0.54072
 O78 O 0.25738 0.52950 0.46603
 Cu79 Cu 0.20871 0.50470 0.50425
 Cu80 Cu 0.26177 0.50421 0.50326
 C81 C 0.23537 0.53904 0.45413
 C82 C 0.23596 0.47000 0.55356
 C83 C 0.23588 0.54028 0.55136
 C84 C 0.23441 0.46871 0.45603
 O85 O 0.28276 0.97801 -0.03547
 O86 O 0.28438 1.03121 0.03660
 O87 O 0.28504 0.97854 0.03716
 O88 O 0.28187 1.03118 -0.03612
 O89 O 0.23780 1.02971 -0.03394
 O90 O 0.24088 0.97846 0.03958
 O91 O 0.24023 1.03034 0.03911
 O92 O 0.23865 0.97856 -0.03345
 Cu93 Cu 0.28799 1.00480 0.00021
 Cu94 Cu 0.23503 1.00422 0.00322
 C95 C 0.26029 0.96911 -0.04670
 C96 C 0.26245 1.03991 0.04996
 C97 C 0.26333 0.96943 0.05063
 C98 C 0.25914 1.03950 -0.04750
 O99 O 0.78413 0.46898 0.46020
 O100 O 0.78646 0.52187 0.53250
 O101 O 0.78609 0.46913 0.53297
 O102 O 0.78424 0.52163 0.45959
 O103 O 0.74006 0.52144 0.46202
 O104 O 0.74194 0.46993 0.53538
 O105 O 0.74230 0.52175 0.53500
 O106 O 0.73995 0.46987 0.46249
 Cu107 Cu 0.78971 0.49539 0.49612
 Cu108 Cu 0.73667 0.49580 0.49904
 C109 C 0.76152 0.46040 0.44914
 C110 C 0.76468 0.53092 0.54589
 C111 C 0.76420 0.46043 0.54640
 C112 C 0.76170 0.53045 0.44836
 C113 C 0.23389 0.20641 0.20170
 C114 C 0.20877 0.21605 0.19067
 C115 C 0.19884 0.24058 0.20330
 C116 C 0.21445 0.25625 0.22797
 C117 C 0.23988 0.24667 0.23994
 C118 C 0.24967 0.22167 0.22676
 C119 C 0.27469 0.21244 0.23951
 C120 C 0.29014 0.22767 0.26391
 C121 C 0.28085 0.25238 0.27745
 C122 C 0.25547 0.26202 0.26537
 C123 C 0.20520 0.28100 0.24142
 C124 C 0.22071 0.29629 0.26571
 C125 C 0.24572 0.28705 0.27849
 C126 C 0.26152 0.30230 0.30356
 C127 C 0.28653 0.29253 0.31484
 C128 C 0.29639 0.26794 0.30236
 H129 H 0.28260 0.19327 0.23087
 H130 H 0.30950 0.21980 0.27202
 H131 H 0.18584 0.28886 0.23327
 H132 H 0.21283 0.31549 0.27427
 H133 H 0.19683 0.20439 0.17122
 H134 H 0.29843 0.30411 0.33444
 C135 C 0.73418 0.69680 0.29583
 C136 C 0.71003 0.70756 0.30865
 C137 C 0.70125 0.73302 0.29781
 C138 C 0.71702 0.74832 0.27272
 C139 C 0.74161 0.73767 0.25925
 C140 C 0.75029 0.71187 0.27095
 C141 C 0.77460 0.70172 0.25709
 C142 C 0.79050 0.71684 0.23306
 C143 C 0.78233 0.74236 0.22102
 C144 C 0.75755 0.75287 0.23401
 C145 C 0.70877 0.77377 0.26041
 C146 C 0.72461 0.78885 0.23626
 C147 C 0.74891 0.77872 0.22235
 C148 C 0.76517 0.79389 0.19771
 C149 C 0.78956 0.78322 0.18553
 C150 C 0.79846 0.75796 0.19689
 H151 H 0.78165 0.68196 0.26471
 H152 H 0.80931 0.70824 0.22399
 H153 H 0.68994 0.78236 0.26930
 H154 H 0.71757 0.80863 0.22882
 H155 H 0.69807 0.69608 0.32832
 H156 H 0.80198 0.79487 0.16662
 C157 C 0.79446 0.23347 0.19585
 C158 C 0.78439 0.20910 0.18286
 C159 C 0.75993 0.19886 0.19524
 C160 C 0.74454 0.21361 0.22133
 C161 C 0.75427 0.23851 0.23476
 C162 C 0.77936 0.24845 0.22214
 C163 C 0.78879 0.27279 0.23667
 C164 C 0.77346 0.28771 0.26165
 C165 C 0.74858 0.27836 0.27441
 C166 C 0.73898 0.25337 0.26117
 C167 C 0.71994 0.20397 0.23479
 C168 C 0.70478 0.21873 0.26015
 C169 C 0.71398 0.24335 0.27396
 C170 C 0.69869 0.25851 0.29976
 C171 C 0.70829 0.28326 0.31191
 C172 C 0.73281 0.29343 0.29970
 H173 H 0.80815 0.28065 0.22896
 H174 H 0.78143 0.30668 0.27090
 H175 H 0.71208 0.18489 0.22584
 H176 H 0.68567 0.21062 0.26865
 H177 H 0.79576 0.19788 0.16225
 H178 H 0.69653 0.29478 0.33178
 C179 C 0.29814 0.74213 0.30706
 C180 C 0.28842 0.71741 0.31930
 C181 C 0.26377 0.70745 0.30717
 C182 C 0.24804 0.72266 0.28184
 C183 C 0.25779 0.74758 0.26844
 C184 C 0.28288 0.75742 0.28118
 C185 C 0.29221 0.78198 0.26719
 C186 C 0.27712 0.79683 0.24168
 C187 C 0.25246 0.78734 0.22821
 C188 C 0.24257 0.76253 0.24185
 C189 C 0.22306 0.71349 0.26914
 C190 C 0.20784 0.72847 0.24393
 C191 C 0.21744 0.75271 0.22917
 C192 C 0.20248 0.76770 0.20255
 C193 C 0.21269 0.79202 0.18943
 C194 C 0.23719 0.80213 0.20185
 H195 H 0.31138 0.78998 0.27565
 H196 H 0.28510 0.81586 0.23260
 H197 H 0.21495 0.69461 0.27860
 H198 H 0.18842 0.72074 0.23622
 H199 H 0.30019 0.70573 0.33910
 H200 H 0.20144 0.80325 0.16856
 C201 C 0.70156 0.25831 0.69762
 C202 C 0.71121 0.28299 0.68509
 C203 C 0.73583 0.29311 0.69711
 C204 C 0.75141 0.27821 0.72302
 C205 C 0.74196 0.25308 0.73610
 C206 C 0.71699 0.24303 0.72328
 C207 C 0.70798 0.21823 0.73689
 C208 C 0.72345 0.20319 0.76172
 C209 C 0.74813 0.21277 0.77497
 C210 C 0.75743 0.23804 0.76225
 C211 C 0.77596 0.28790 0.73660
 C212 C 0.79127 0.27302 0.76180
 C213 C 0.78229 0.24819 0.77534
 C214 C 0.79768 0.23298 0.80115
 C215 C 0.78839 0.20794 0.81280
 C216 C 0.76402 0.19762 0.80018
 H217 H 0.68884 0.21012 0.72849
 H218 H 0.71578 0.18396 0.77047
 H219 H 0.78363 0.30716 0.72798
 H220 H 0.81033 0.28121 0.77038
 H221 H 0.69950 0.29437 0.66489
 H222 H 0.80020 0.19636 0.83265
 C223 C 0.20556 0.76615 0.80775
 C224 C 0.21522 0.79087 0.81994
 C225 C 0.23903 0.80180 0.80628
 C226 C 0.25456 0.78703 0.78033
 C227 C 0.24529 0.76169 0.76781
 C228 C 0.22061 0.75130 0.78130
 C229 C 0.21147 0.72668 0.76740
 C230 C 0.22657 0.71205 0.74184
 C231 C 0.25096 0.72190 0.72798
 C232 C 0.26047 0.74697 0.74109
 C233 C 0.27875 0.79704 0.76602
 C234 C 0.29404 0.78220 0.74088
 C235 C 0.28517 0.75729 0.72768
 C236 C 0.30042 0.74220 0.70175
 C237 C 0.29072 0.71757 0.68928
 C238 C 0.26630 0.70725 0.70167
 H239 H 0.19247 0.71840 0.77598
 H240 H 0.21883 0.69287 0.73313
 H241 H 0.28625 0.81644 0.77414
 H242 H 0.31290 0.79060 0.73185
 H243 H 0.20374 0.80208 0.84046
 H244 H 0.30226 0.70637 0.66880
 C245 C 0.23371 0.20521 0.80148
 C246 C 0.20968 0.21606 0.81474
 C247 C 0.20066 0.24138 0.80377
 C248 C 0.21628 0.25677 0.77868
 C249 C 0.24089 0.24626 0.76507
 C250 C 0.24965 0.22037 0.77642
 C251 C 0.27377 0.21026 0.76186
 C252 C 0.28956 0.22557 0.73791
 C253 C 0.28135 0.25119 0.72631
 C254 C 0.25665 0.26158 0.73974
 C255 C 0.20777 0.28214 0.76636
 C256 C 0.22339 0.29727 0.74201
 C257 C 0.24779 0.28736 0.72817
 C258 C 0.26385 0.30268 0.70353
 C259 C 0.28832 0.29232 0.69121
 C260 C 0.29730 0.26695 0.70207
 H261 H 0.28077 0.19038 0.76880
 H262 H 0.30830 0.21701 0.72855
 H263 H 0.18891 0.29060 0.77539
 H264 H 0.21611 0.31692 0.73426
 H265 H 0.19776 0.20457 0.83445
 H266 H 0.30051 0.30416 0.67224
 C267 C 0.73915 0.69754 0.69837
 C268 C 0.71426 0.70773 0.68724
 C269 C 0.70494 0.73259 0.69952
 C270 C 0.72101 0.74805 0.72394
 C271 C 0.74622 0.73791 0.73598
 C272 C 0.75532 0.71254 0.72325
 C273 C 0.78007 0.70272 0.73623
 C274 C 0.79600 0.71777 0.76026
 C275 C 0.78751 0.74295 0.77305
 C276 C 0.76233 0.75312 0.76094
 C277 C 0.71243 0.77313 0.73704
 C278 C 0.72846 0.78828 0.76083
 C279 C 0.75335 0.77859 0.77343
 C280 C 0.76978 0.79382 0.79767
 C281 C 0.79460 0.78357 0.80893
 C282 C 0.80368 0.75850 0.79720
 H283 H 0.78739 0.68321 0.72805
 H284 H 0.81511 0.70943 0.76867
 H285 H 0.69321 0.78137 0.72900
 H286 H 0.72110 0.80774 0.76914
 H287 H 0.70204 0.69626 0.66789
 H288 H 0.80701 0.79524 0.82778
 C289 C 0.25877 0.10769 0.12389
 C290 C 0.23880 0.08767 0.12525
 C291 C 0.24063 0.06519 0.10190
 C292 C 0.26240 0.06194 0.07751
 C293 C 0.28308 0.08083 0.07796
 C294 C 0.28130 0.10351 0.10076
 C295 C 0.25456 0.13272 0.14635
 C296 C 0.27143 0.15522 0.14353
 C297 C 0.26531 0.17886 0.16262
 C298 C 0.24262 0.18043 0.18564
 C299 C 0.22617 0.15794 0.18952
 C300 C 0.23163 0.13439 0.16962
 C301 C 0.21684 0.09040 0.14935
 C302 C 0.21355 0.11310 0.17148
 H303 H 0.20177 0.07487 0.15082
 H304 H 0.19602 0.11439 0.18932
 H305 H 0.22481 0.05038 0.10225
 H306 H 0.30019 0.07860 0.05954
 H307 H 0.27786 0.19626 0.15854
 H308 H 0.20834 0.15928 0.20680
 H309 H 0.29754 0.11765 0.09947
 H310 H 0.28884 0.15533 0.12563
 C311 C 0.76219 0.59853 0.62021
 C312 C 0.74180 0.57893 0.62133
 C313 C 0.74324 0.55650 0.59785
 C314 C 0.76500 0.55288 0.57355
 C315 C 0.78606 0.57134 0.57421
 C316 C 0.78469 0.59396 0.59716
 C317 C 0.75844 0.62356 0.64282
 C318 C 0.77581 0.64570 0.64026
 C319 C 0.77011 0.66940 0.65946
 C320 C 0.74737 0.67140 0.68230
 C321 C 0.73042 0.64926 0.68593
 C322 C 0.73547 0.62565 0.66594
 C323 C 0.71983 0.58205 0.64532
 C324 C 0.71693 0.60474 0.66755
 H325 H 0.70444 0.56683 0.64660
 H326 H 0.69938 0.60635 0.68529
 H327 H 0.72711 0.54201 0.59803
 H328 H 0.80317 0.56882 0.55587
 H329 H 0.78305 0.68654 0.65556
 H330 H 0.71256 0.65093 0.70309
 H331 H 0.80122 0.60778 0.59604
 H332 H 0.79328 0.64549 0.62251
 C333 C 0.74803 0.89558 0.12415
 C334 C 0.72388 0.89955 0.10403
 C335 C 0.72074 0.92220 0.08082
 C336 C 0.74230 0.93979 0.07475
 C337 C 0.76637 0.93530 0.09433
 C338 C 0.76909 0.91383 0.11903
 C339 C 0.75103 0.87088 0.14762
 C340 C 0.77321 0.86646 0.17131
 C341 C 0.77670 0.84191 0.18928
 C342 C 0.75824 0.82118 0.18416
 C343 C 0.73513 0.82596 0.16261
 C344 C 0.73112 0.85090 0.14504
 C345 C 0.70380 0.88002 0.10531
 C346 C 0.70767 0.85587 0.12446
 H347 H 0.68534 0.88287 0.08975
 H348 H 0.69210 0.84085 0.12308
 H349 H 0.70219 0.92496 0.06539
 H350 H 0.78342 0.94839 0.09050
 H351 H 0.79446 0.83871 0.20625
 H352 H 0.72075 0.81001 0.15857
 H353 H 0.78826 0.91126 0.13257
 H354 H 0.78824 0.88154 0.17594
 C355 C 0.24340 0.40433 0.63095
 C356 C 0.22098 0.40601 0.60661
 C357 C 0.21760 0.42845 0.58313
 C358 C 0.23698 0.44869 0.58226
 C359 C 0.25895 0.44713 0.60670
 C360 C 0.26203 0.42544 0.63100
 C361 C 0.24730 0.37933 0.65369
 C362 C 0.26877 0.37590 0.67902
 C363 C 0.27319 0.35131 0.69653
 C364 C 0.25623 0.32963 0.68963
 C365 C 0.23395 0.33314 0.66608
 C366 C 0.22926 0.35787 0.64831
 C367 C 0.20290 0.38469 0.60441
 C368 C 0.20715 0.36100 0.62442
 H369 H 0.18572 0.38594 0.58585
 H370 H 0.19310 0.34474 0.62070
 H371 H 0.20079 0.42937 0.56385
 H372 H 0.27412 0.46258 0.60650
 H373 H 0.29043 0.34892 0.71476
 H374 H 0.22089 0.31631 0.66055
 H375 H 0.27963 0.42521 0.64854
 H376 H 0.28271 0.39173 0.68515
 C377 C 0.89465 0.25900 0.12175
 C378 C 0.91265 0.23735 0.11745
 C379 C 0.93501 0.23991 0.09399
 C380 C 0.94075 0.26429 0.07595
 C381 C 0.92421 0.28649 0.08322
 C382 C 0.90125 0.28382 0.10541
 C383 C 0.86930 0.25433 0.14329
 C384 C 0.84778 0.27266 0.14340
 C385 C 0.82370 0.26632 0.16135
 C386 C 0.82087 0.24205 0.18077
 C387 C 0.84242 0.22401 0.18152
 C388 C 0.86610 0.22952 0.16198
 C389 C 0.90823 0.21323 0.13648
 C390 C 0.88582 0.20968 0.15914
 H391 H 0.92234 0.19683 0.13385
 H392 H 0.88328 0.19062 0.17327
 H393 H 0.94804 0.22276 0.08996
 H394 H 0.92826 0.30573 0.07038
 H395 H 0.80698 0.28009 0.15919
 H396 H 0.84011 0.20493 0.19571
 H397 H 0.88886 0.30131 0.10936
 H398 H 0.84876 0.29138 0.12831
 C399 C 0.39975 0.76679 0.62541
 C400 C 0.41948 0.74639 0.62625
 C401 C 0.44194 0.74804 0.60279
 C402 C 0.44550 0.77007 0.57890
 C403 C 0.42698 0.79116 0.57997
 C404 C 0.40429 0.78955 0.60283
 C405 C 0.37461 0.76275 0.64775
 C406 C 0.35225 0.77998 0.64511
 C407 C 0.32843 0.77394 0.66388
 C408 C 0.32658 0.75102 0.68642
 C409 C 0.34894 0.73424 0.69022
 C410 C 0.37263 0.73959 0.67057
 C411 C 0.41645 0.72422 0.64992
 C412 C 0.39372 0.72111 0.67207
 H413 H 0.43178 0.70884 0.65103
 H414 H 0.39218 0.70340 0.68956
 H415 H 0.45651 0.73191 0.60264
 H416 H 0.42948 0.80846 0.56194
 H417 H 0.31112 0.78673 0.65984
 H418 H 0.34734 0.71621 0.70708
 H419 H 0.39040 0.80610 0.60202
 H420 H 0.35238 0.79757 0.62752
 C421 C 0.10317 0.74192 0.12603
 C422 C 0.08523 0.76356 0.12095
 C423 C 0.06324 0.76099 0.09674
 C424 C 0.05784 0.73662 0.07859
 C425 C 0.07425 0.71442 0.08663
 C426 C 0.09684 0.71710 0.10964
 C427 C 0.12822 0.74664 0.14833
 C428 C 0.14973 0.72831 0.14932
 C429 C 0.17359 0.73470 0.16786
 C430 C 0.17621 0.75905 0.18700
 C431 C 0.15464 0.77708 0.18692
 C432 C 0.13118 0.77149 0.16681
 C433 C 0.08938 0.78771 0.13989
 C434 C 0.11149 0.79132 0.16318
 H435 H 0.07530 0.80410 0.13667
 H436 H 0.11383 0.81040 0.17716
 H437 H 0.05029 0.77814 0.09210
 H438 H 0.07044 0.69520 0.07374
 H439 H 0.19033 0.72093 0.16635
 H440 H 0.15678 0.79621 0.20090
 H441 H 0.10917 0.69962 0.11415
 H442 H 0.14895 0.70954 0.13447
 C443 C 0.60137 0.23341 0.62346
 C444 C 0.58146 0.25360 0.62496
 C445 C 0.55872 0.25194 0.60197
 C446 C 0.55512 0.23017 0.57779
 C447 C 0.57380 0.20921 0.57826
 C448 C 0.59674 0.21080 0.60074
 C449 C 0.62679 0.23757 0.64517
 C450 C 0.64924 0.22052 0.64197
 C451 C 0.67328 0.22667 0.66016
 C452 C 0.67529 0.24955 0.68261
 C453 C 0.65288 0.26615 0.68694
 C454 C 0.62893 0.26065 0.66796
 C455 C 0.58462 0.27565 0.64868
 C456 C 0.60769 0.27890 0.67015
 H457 H 0.56916 0.29086 0.65027
 H458 H 0.60933 0.29653 0.68765
 H459 H 0.54404 0.26797 0.60227
 H460 H 0.57127 0.19212 0.55997
 H461 H 0.69061 0.21398 0.65579
 H462 H 0.65459 0.28412 0.70379
 H463 H 0.61079 0.19440 0.59941
 H464 H 0.64898 0.20297 0.62442
 C465 C 0.74429 0.09567 0.87176
 C466 C 0.72238 0.09404 0.89689
 C467 C 0.71940 0.07147 0.92021
 C468 C 0.73875 0.05109 0.92012
 C469 C 0.76017 0.05258 0.89486
 C470 C 0.76280 0.07437 0.87070
 C471 C 0.74789 0.12082 0.84933
 C472 C 0.76892 0.12423 0.82340
 C473 C 0.77318 0.14892 0.80621
 C474 C 0.75647 0.17071 0.81402
 C475 C 0.73459 0.16726 0.83818
 C476 C 0.73009 0.14243 0.85569
 C477 C 0.70445 0.11553 0.90005
 C478 C 0.70842 0.13933 0.88026
 H479 H 0.68765 0.11431 0.91920
 H480 H 0.69455 0.15572 0.88474
 H481 H 0.70303 0.07059 0.94016
 H482 H 0.77529 0.03700 0.89433
 H483 H 0.79011 0.15130 0.78750
 H484 H 0.72173 0.18419 0.84437
 H485 H 0.78003 0.07454 0.85250
 H486 H 0.78266 0.10832 0.81653
 C487 C 0.24255 0.60552 0.37823
 C488 C 0.22070 0.60417 0.40351
 C489 C 0.21728 0.58146 0.42643
 C490 C 0.23610 0.56060 0.42579
 C491 C 0.25745 0.56181 0.40037
 C492 C 0.26053 0.58378 0.37661
 C493 C 0.24662 0.63076 0.35617
 C494 C 0.26760 0.63392 0.33010
 C495 C 0.27222 0.65860 0.31308
 C496 C 0.25594 0.68066 0.32120
 C497 C 0.23417 0.67752 0.34564
 C498 C 0.22929 0.65269 0.36295
 C499 C 0.20329 0.62603 0.40718
 C500 C 0.20768 0.64988 0.38769
 H501 H 0.18654 0.62503 0.42645
 H502 H 0.19417 0.66652 0.39252
 H503 H 0.20097 0.58080 0.44649
 H504 H 0.27218 0.54587 0.39941
 H505 H 0.28907 0.66074 0.29417
 H506 H 0.22165 0.69465 0.35208
 H507 H 0.27767 0.58370 0.35826
 H508 H 0.28101 0.61779 0.32297
 C509 C 0.25409 0.90392 0.87809
 C510 C 0.27854 0.90892 0.89687
 C511 C 0.28123 0.93178 0.91960
 C512 C 0.25897 0.94834 0.92685
 C513 C 0.23454 0.94263 0.90895
 C514 C 0.23224 0.92109 0.88449
 C515 C 0.25169 0.87919 0.85482
 C516 C 0.22937 0.87417 0.83178
 C517 C 0.22646 0.84954 0.81415
 C518 C 0.24561 0.82928 0.81905
 C519 C 0.26892 0.83473 0.83976
 C520 C 0.27238 0.85986 0.85685
 C521 C 0.29941 0.89013 0.89485
 C522 C 0.29605 0.86572 0.87633
 H523 H 0.31810 0.89372 0.90946
 H524 H 0.31224 0.85125 0.87724
 H525 H 0.30006 0.93541 0.93390
 H526 H 0.21696 0.95488 0.91380
 H527 H 0.20855 0.84583 0.79776
 H528 H 0.28387 0.81919 0.84356
 H529 H 0.21282 0.91754 0.87219
 H530 H 0.21380 0.88886 0.82745
 C531 C 0.75324 0.39438 0.37303
 C532 C 0.77573 0.39589 0.39721
 C533 C 0.77928 0.41836 0.42037
 C534 C 0.75996 0.43876 0.42118
 C535 C 0.73776 0.43724 0.39720
 C536 C 0.73453 0.41553 0.37315
 C537 C 0.74937 0.36952 0.35024
 C538 C 0.72811 0.36648 0.32455
 C539 C 0.72374 0.34206 0.30684
 C540 C 0.74054 0.32015 0.31395
 C541 C 0.76262 0.32327 0.33789
 C542 C 0.76731 0.34787 0.35575
 C543 C 0.79374 0.37440 0.39953
 C544 C 0.78939 0.35075 0.37972
 H545 H 0.81096 0.37550 0.41803
 H546 H 0.80337 0.33435 0.38354
 H547 H 0.79625 0.41922 0.43938
 H548 H 0.72261 0.45279 0.39743
 H549 H 0.70666 0.33996 0.28829
 H550 H 0.77556 0.30627 0.34355
 H551 H 0.71677 0.41533 0.35590
 H552 H 0.71433 0.38251 0.31821
 C553 C 0.10173 0.26658 0.88104
 C554 C 0.08148 0.24689 0.87887
 C555 C 0.05895 0.24849 0.90221
 C556 C 0.05585 0.26979 0.92736
 C557 C 0.07495 0.29027 0.92773
 C558 C 0.09771 0.28869 0.90496
 C559 C 0.12683 0.26249 0.85859
 C560 C 0.14959 0.27896 0.86218
 C561 C 0.17331 0.27280 0.84317
 C562 C 0.17468 0.25049 0.81950
 C563 C 0.15192 0.23453 0.81474
 C564 C 0.12831 0.24000 0.83454
 C565 C 0.08401 0.22541 0.85398
 C566 C 0.10676 0.22226 0.83187
 H567 H 0.06829 0.21058 0.85189
 H568 H 0.10792 0.20509 0.81341
 H569 H 0.04395 0.23285 0.90127
 H570 H 0.07282 0.30701 0.94678
 H571 H 0.19090 0.28496 0.84787
 H572 H 0.15312 0.21699 0.79693
 H573 H 0.11206 0.30471 0.90690
 H574 H 0.14983 0.29603 0.88065
 C575 C 0.60444 0.76150 0.37819
 C576 C 0.58373 0.74222 0.37766
 C577 C 0.56163 0.74492 0.40163
 C578 C 0.55941 0.76695 0.42572
 C579 C 0.57898 0.78697 0.42444
 C580 C 0.60131 0.78428 0.40109
 C581 C 0.62901 0.75636 0.35506
 C582 C 0.65217 0.77239 0.35720
 C583 C 0.67533 0.76541 0.33747
 C584 C 0.67576 0.74272 0.31445
 C585 C 0.65263 0.72709 0.31129
 C586 C 0.62955 0.73338 0.33188
 C587 C 0.58538 0.72012 0.35370
 C588 C 0.60762 0.71603 0.33085
 H589 H 0.56932 0.70559 0.35286
 H590 H 0.60805 0.69844 0.31311
 H591 H 0.54627 0.72963 0.40193
 H592 H 0.57754 0.80426 0.44261
 H593 H 0.69325 0.77728 0.34109
 H594 H 0.65309 0.70922 0.29406
 H595 H 0.61600 0.80004 0.40171
 H596 H 0.65315 0.78975 0.37505
 C597 C 0.90407 0.73714 0.87202
 C598 C 0.90476 0.71594 0.89851
 C599 C 0.92676 0.71315 0.92300
 C600 C 0.94742 0.73208 0.92273
 C601 C 0.94682 0.75284 0.89627
 C602 C 0.92564 0.75523 0.87095
 C603 C 0.87950 0.74064 0.84825
 C604 C 0.87712 0.76086 0.82079
 C605 C 0.85278 0.76546 0.80268
 C606 C 0.83034 0.74985 0.81107
 C607 C 0.83286 0.72850 0.83645
 C608 C 0.85733 0.72369 0.85494
 C609 C 0.88284 0.69865 0.90182
 C610 C 0.85949 0.70268 0.88091
 H611 H 0.88332 0.68240 0.92202
 H612 H 0.84270 0.68942 0.88563
 H613 H 0.92695 0.69732 0.94388
 H614 H 0.96262 0.76764 0.89563
 H615 H 0.85113 0.78195 0.78299
 H616 H 0.81545 0.71647 0.84305
 H617 H 0.92612 0.77197 0.85185
 H618 H 0.89355 0.77380 0.81350
 C619 C 0.39711 0.24467 0.37582
 C620 C 0.39807 0.22219 0.40011
 C621 C 0.42040 0.21807 0.42356
 C622 C 0.44126 0.23678 0.42444
 C623 C 0.44037 0.25886 0.40017
 C624 C 0.41877 0.26267 0.37590
 C625 C 0.37231 0.24930 0.35294
 C626 C 0.36963 0.27082 0.32754
 C627 C 0.34525 0.27592 0.30980
 C628 C 0.32305 0.25959 0.31656
 C629 C 0.32578 0.23728 0.34021
 C630 C 0.35030 0.23190 0.35819
 C631 C 0.37620 0.20477 0.40221
 C632 C 0.35269 0.20972 0.38210
 H633 H 0.37690 0.18754 0.42074
 H634 H 0.33599 0.19616 0.38573
 H635 H 0.42082 0.20117 0.44271
 H636 H 0.45631 0.27351 0.40036
 H637 H 0.34343 0.29318 0.29151
 H638 H 0.30853 0.22472 0.34562
 H639 H 0.41908 0.28031 0.35845
 H640 H 0.38590 0.28428 0.32149
 C641 C 0.75016 0.89408 0.87350
 C642 C 0.72756 0.89562 0.89739
 C643 C 0.72402 0.91790 0.92092
 C644 C 0.74345 0.93808 0.92242
 C645 C 0.76585 0.93645 0.89888
 C646 C 0.76908 0.91493 0.87447
 C647 C 0.75384 0.86950 0.85003
 C648 C 0.77507 0.86654 0.82432
 C649 C 0.77921 0.84231 0.80590
 C650 C 0.76224 0.82053 0.81235
 C651 C 0.74018 0.82364 0.83629
 C652 C 0.73569 0.84805 0.85480
 C653 C 0.70935 0.87438 0.89897
 C654 C 0.71358 0.85092 0.87864
 H655 H 0.69206 0.87550 0.91728
 H656 H 0.69944 0.83467 0.88189
 H657 H 0.70690 0.91882 0.93957
 H658 H 0.78109 0.95182 0.89963
 H659 H 0.79627 0.84025 0.78735
 H660 H 0.72712 0.80675 0.84149
 H661 H 0.78696 0.91462 0.85754
 H662 H 0.78896 0.88248 0.81850
 C663 C 0.23763 0.40100 0.38191
 C664 C 0.25793 0.42070 0.38095
 C665 C 0.25634 0.44309 0.40451
 C666 C 0.23445 0.44660 0.42861
 C667 C 0.21348 0.42803 0.42780
 C668 C 0.21505 0.40542 0.40485
 C669 C 0.24153 0.37604 0.35918
 C670 C 0.22433 0.35376 0.36169
 C671 C 0.23020 0.33013 0.34241
 C672 C 0.25292 0.32836 0.31950
 C673 C 0.26966 0.35066 0.31587
 C674 C 0.26449 0.37417 0.33600
 C675 C 0.27993 0.41777 0.35697
 C676 C 0.28292 0.39519 0.33454
 H677 H 0.29524 0.43307 0.35580
 H678 H 0.30047 0.39374 0.31678
 H679 H 0.27237 0.45768 0.40445
 H680 H 0.19628 0.43048 0.44598
 H681 H 0.21743 0.31287 0.34634
 H682 H 0.28753 0.34916 0.29869
 H683 H 0.19858 0.39153 0.40582
 H684 H 0.20689 0.35380 0.37951
 C685 C 0.25103 0.10386 0.87566
 C686 C 0.27572 0.09938 0.89418
 C687 C 0.27905 0.07681 0.91751
 C688 C 0.25721 0.05999 0.92553
 C689 C 0.23254 0.06514 0.90779
 C690 C 0.22960 0.08642 0.88281
 C691 C 0.24794 0.12835 0.85181
 C692 C 0.22528 0.13294 0.82913
 C693 C 0.22179 0.15738 0.81088
 C694 C 0.24069 0.17785 0.81480
 C695 C 0.26427 0.17282 0.83523
 C696 C 0.26831 0.14791 0.85292
 C697 C 0.29622 0.11840 0.89128
 C698 C 0.29226 0.14255 0.87212
 H699 H 0.31510 0.11520 0.90566
 H700 H 0.30820 0.15722 0.87232
 H701 H 0.29806 0.07360 0.93162
 H702 H 0.21525 0.05267 0.91319
 H703 H 0.20366 0.16074 0.79476
 H704 H 0.27901 0.18854 0.83837
 H705 H 0.21002 0.08953 0.87068
 H706 H 0.20989 0.11806 0.82554
 C707 C 0.75380 0.59579 0.37043
 C708 C 0.77660 0.59394 0.39403
 C709 C 0.77999 0.57166 0.41780
 C710 C 0.76025 0.55181 0.41976
 C711 C 0.73780 0.55362 0.39626
 C712 C 0.73469 0.57513 0.37164
 C713 C 0.75008 0.62053 0.34710
 C714 C 0.72840 0.62397 0.32214
 C715 C 0.72422 0.64839 0.30405
 C716 C 0.74162 0.66987 0.31003
 C717 C 0.76411 0.66629 0.33316
 C718 C 0.76859 0.64171 0.35144
 C719 C 0.79512 0.61492 0.39515
 C720 C 0.79099 0.63846 0.37476
 H721 H 0.81258 0.61354 0.41317
 H722 H 0.80538 0.65450 0.37767
 H723 H 0.79719 0.57056 0.43638
 H724 H 0.72234 0.53848 0.39732
 H725 H 0.70681 0.65085 0.28615
 H726 H 0.77750 0.68296 0.33800
 H727 H 0.71673 0.57559 0.35482
 H728 H 0.71414 0.60830 0.31672
 C729 C 0.10565 0.74081 0.88267
 C730 C 0.08749 0.76239 0.88633
 C731 C 0.06518 0.76006 0.90992
 C732 C 0.05963 0.73592 0.92870
 C733 C 0.07632 0.71372 0.92209
 C734 C 0.09926 0.71621 0.89981
 C735 C 0.13095 0.74533 0.86093
 C736 C 0.15264 0.72719 0.86138
 C737 C 0.17667 0.73346 0.84323
 C738 C 0.17926 0.75745 0.82306
 C739 C 0.15751 0.77523 0.82167
 C740 C 0.13390 0.76984 0.84141
 C741 C 0.09168 0.78622 0.86649
 C742 C 0.11402 0.78956 0.84363
 H743 H 0.07745 0.80255 0.86862
 H744 H 0.11638 0.80840 0.82887
 H745 H 0.05203 0.77717 0.91345
 H746 H 0.07240 0.69466 0.93552
 H747 H 0.19353 0.71990 0.84580
 H748 H 0.15962 0.79409 0.80683
 H749 H 0.11178 0.69876 0.89638
 H750 H 0.15183 0.70872 0.87708
 C751 C 0.59983 0.23375 0.37716
 C752 C 0.58004 0.25407 0.37641
 C753 C 0.55777 0.25249 0.40024
 C754 C 0.55450 0.23063 0.42450
 C755 C 0.57306 0.20958 0.42340
 C756 C 0.59556 0.21111 0.40011
 C757 C 0.62479 0.23777 0.35440
 C758 C 0.64717 0.22056 0.35671
 C759 C 0.67087 0.22664 0.33766
 C760 C 0.67258 0.24963 0.31521
 C761 C 0.65015 0.26633 0.31161
 C762 C 0.62657 0.26091 0.33150
 C763 C 0.58282 0.27617 0.35253
 C764 C 0.60542 0.27931 0.33013
 H765 H 0.56743 0.29149 0.35152
 H766 H 0.60680 0.29698 0.31254
 H767 H 0.54317 0.26858 0.40043
 H768 H 0.57078 0.19241 0.44172
 H769 H 0.68822 0.21386 0.34145
 H770 H 0.65161 0.28437 0.29474
 H771 H 0.60952 0.19462 0.40093
 H772 H 0.64717 0.20294 0.37425
 C773 C 0.89592 0.26105 0.87839
 C774 C 0.91639 0.24140 0.87808
 C775 C 0.93882 0.24413 0.90149
 C776 C 0.94155 0.26647 0.92489
 C777 C 0.92225 0.28684 0.92326
 C778 C 0.89963 0.28418 0.90038
 C779 C 0.87094 0.25586 0.85614
 C780 C 0.84802 0.27236 0.85821
 C781 C 0.82449 0.26542 0.83934
 C782 C 0.82344 0.24227 0.81728
 C783 C 0.84629 0.22611 0.81425
 C784 C 0.86976 0.23242 0.83396
 C785 C 0.91414 0.21887 0.85504
 C786 C 0.89149 0.21469 0.83300
 H787 H 0.93002 0.20406 0.85436
 H788 H 0.89057 0.19676 0.81599
 H789 H 0.95396 0.22854 0.90206
 H790 H 0.92407 0.30437 0.94089
 H791 H 0.80680 0.27775 0.84277
 H792 H 0.84535 0.20794 0.79773
 H793 H 0.88514 0.30021 0.90076
 H794 H 0.84752 0.29011 0.87534
 C795 C 0.39849 0.76710 0.38116
 C796 C 0.41840 0.74691 0.37974
 C797 C 0.44126 0.74873 0.40249
 C798 C 0.44499 0.77064 0.42639
 C799 C 0.42624 0.79156 0.42589
 C800 C 0.40319 0.78982 0.40364
 C801 C 0.37300 0.76284 0.35958
 C802 C 0.35060 0.77998 0.36255
 C803 C 0.32655 0.77381 0.34438
 C804 C 0.32444 0.75080 0.32220
 C805 C 0.34680 0.73407 0.31815
 C806 C 0.37078 0.73962 0.33708
 C807 C 0.41514 0.72470 0.35633
 C808 C 0.39200 0.72133 0.33505
 H809 H 0.43059 0.70947 0.35482
 H810 H 0.39029 0.70359 0.31777
 H811 H 0.45596 0.73271 0.40222
 H812 H 0.42883 0.80875 0.44397
 H813 H 0.30927 0.78662 0.34851
 H814 H 0.34506 0.71602 0.30149
 H815 H 0.38912 0.80620 0.40493
 H816 H 0.35092 0.79765 0.37984
 C817 C 0.26093 0.90158 0.12495
 C818 C 0.24057 0.92132 0.12614
 C819 C 0.24205 0.94389 0.10279
 C820 C 0.26381 0.94749 0.07848
 C821 C 0.28488 0.92891 0.07913
 C822 C 0.28347 0.90615 0.10198
 C823 C 0.25707 0.87638 0.14731
 C824 C 0.27442 0.85414 0.14473
 C825 C 0.26858 0.83029 0.16362
 C826 C 0.24568 0.82828 0.18613
 C827 C 0.22877 0.85051 0.18984
 C828 C 0.23399 0.87427 0.17020
 C829 C 0.21852 0.91818 0.14997
 C830 C 0.21549 0.89532 0.17192
 H831 H 0.20316 0.93350 0.15129
 H832 H 0.19787 0.89368 0.18950
 H833 H 0.22592 0.95847 0.10296
 H834 H 0.30197 0.93140 0.06076
 H835 H 0.28151 0.81309 0.15975
 H836 H 0.21080 0.84880 0.20674
 H837 H 0.29997 0.89222 0.10080
 H838 H 0.29201 0.85439 0.12719
 C839 C 0.76052 0.39241 0.62028
 C840 C 0.74031 0.41232 0.62123
 C841 C 0.74221 0.43495 0.59805
 C842 C 0.76422 0.43843 0.57415
 C843 C 0.78511 0.41965 0.57504
 C844 C 0.78330 0.39685 0.59775
 C845 C 0.75625 0.36721 0.64246
 C846 C 0.77347 0.34485 0.64008
 C847 C 0.76736 0.32107 0.65890
 C848 C 0.74432 0.31920 0.68116
 C849 C 0.72747 0.34150 0.68455
 C850 C 0.73297 0.36523 0.66498
 C851 C 0.71803 0.40930 0.64465
 C852 C 0.71462 0.38641 0.66645
 H853 H 0.70278 0.42474 0.64578
 H854 H 0.69684 0.38488 0.68374
 H855 H 0.72621 0.44967 0.59803
 H856 H 0.80239 0.42203 0.55700
 H857 H 0.78024 0.30380 0.65524
 H858 H 0.70939 0.33991 0.70126
 H859 H 0.79969 0.38279 0.59678
 H860 H 0.79118 0.34499 0.62279
 C861 C 0.73774 0.09883 0.11964
 C862 C 0.75845 0.07946 0.12117
 C863 C 0.75740 0.05683 0.09805
 C864 C 0.73571 0.05278 0.07373
 C865 C 0.71430 0.07096 0.07404
 C866 C 0.71529 0.09381 0.09662
 C867 C 0.74115 0.12414 0.14173
 C868 C 0.72348 0.14612 0.13869
 C869 C 0.72894 0.17012 0.15728
 C870 C 0.75175 0.17253 0.17996
 C871 C 0.76894 0.15054 0.18417
 C872 C 0.76413 0.12667 0.16480
 C873 C 0.78038 0.08300 0.14515
 C874 C 0.78296 0.10593 0.16691
 H875 H 0.79600 0.06794 0.14675
 H876 H 0.80052 0.10789 0.18462
 H877 H 0.77378 0.04254 0.09847
 H878 H 0.69727 0.06809 0.05564
 H879 H 0.71579 0.18713 0.15303
 H880 H 0.78684 0.15257 0.20121
 H881 H 0.69855 0.10744 0.09521
 H882 H 0.70595 0.14555 0.12098
 C883 C 0.24125 0.60844 0.62440
 C884 C 0.26172 0.58879 0.62423
 C885 C 0.25945 0.56624 0.60109
 C886 C 0.23675 0.56254 0.57851
 C887 C 0.21571 0.58109 0.58049
 C888 C 0.21791 0.60384 0.60304
 C889 C 0.24571 0.63350 0.64664
 C890 C 0.22821 0.65568 0.64511
 C891 C 0.23440 0.67934 0.66405
 C892 C 0.25778 0.68122 0.68566
 C893 C 0.27497 0.65908 0.68813
 C894 C 0.26941 0.63553 0.66833
 C895 C 0.28452 0.59191 0.64669
 C896 C 0.28809 0.61461 0.66872
 H897 H 0.30000 0.57667 0.64699
 H898 H 0.30622 0.61619 0.68532
 H899 H 0.27558 0.55169 0.60027
 H900 H 0.19790 0.57852 0.56349
 H901 H 0.22127 0.69650 0.66099
 H902 H 0.29334 0.66070 0.70426
 H903 H 0.20131 0.61768 0.60300
 H904 H 0.21020 0.65553 0.62837
 C905 C 0.90035 0.73721 0.12618
 C906 C 0.90165 0.71622 0.09959
 C907 C 0.92433 0.71343 0.07648
 C908 C 0.94510 0.73220 0.07815
 C909 C 0.94383 0.75285 0.10459
 C910 C 0.92195 0.75520 0.12860
 C911 C 0.87521 0.74060 0.14862
 C912 C 0.87230 0.76046 0.17635
 C913 C 0.84760 0.76490 0.19338
 C914 C 0.82529 0.74953 0.18361
 C915 C 0.82825 0.72856 0.15784
 C916 C 0.85312 0.72386 0.14050
 C917 C 0.87972 0.69912 0.09479
 C918 C 0.85583 0.70313 0.11436
 H919 H 0.88066 0.68303 0.07448
 H920 H 0.83910 0.69002 0.10854
 H921 H 0.92504 0.69772 0.05554
 H922 H 0.95969 0.76755 0.10625
 H923 H 0.84561 0.78107 0.21341
 H924 H 0.81095 0.71669 0.15021
 H925 H 0.92195 0.77185 0.14778
 H926 H 0.88864 0.77317 0.18474
 C927 C 0.39735 0.24347 0.62742
 C928 C 0.39778 0.22175 0.60196
 C929 C 0.42006 0.21777 0.57846
 C930 C 0.44137 0.23599 0.57864
 C931 C 0.44093 0.25739 0.60393
 C932 C 0.41940 0.26098 0.62828
 C933 C 0.37267 0.24794 0.65051
 C934 C 0.37061 0.26853 0.67732
 C935 C 0.34638 0.27364 0.69533
 C936 C 0.32369 0.25826 0.68742
 C937 C 0.32580 0.23678 0.66232
 C938 C 0.35019 0.23136 0.64412
 C939 C 0.37545 0.20499 0.59874
 C940 C 0.35202 0.20995 0.61893
 H941 H 0.37573 0.18836 0.57927
 H942 H 0.33496 0.19699 0.61442
 H943 H 0.42010 0.20144 0.55846
 H944 H 0.45720 0.27168 0.60448
 H945 H 0.34507 0.29024 0.71476
 H946 H 0.30820 0.22494 0.65603
 H947 H 0.42006 0.27812 0.64657
 H948 H 0.38727 0.28125 0.68432
 C949 C 0.09738 0.26137 0.13076
 C950 C 0.09591 0.28344 0.10579
 C951 C 0.07358 0.28659 0.08203
 C952 C 0.05333 0.26722 0.08144
 C953 C 0.05469 0.24558 0.10643
 C954 C 0.07622 0.24279 0.13107
 C955 C 0.12228 0.25764 0.15375
 C956 C 0.12543 0.23657 0.17977
 C957 C 0.15001 0.23208 0.19728
 C958 C 0.17193 0.24860 0.18970
 C959 C 0.16867 0.27062 0.16562
 C960 C 0.14395 0.27537 0.14783
 C961 C 0.11737 0.30135 0.10320
 C962 C 0.14102 0.29717 0.12335
 H963 H 0.11628 0.31827 0.08416
 H964 H 0.15744 0.31100 0.11923
 H965 H 0.07281 0.30312 0.06227
 H966 H 0.03922 0.23043 0.10639
 H967 H 0.15223 0.21507 0.21596
 H968 H 0.18569 0.28334 0.15961
 H969 H 0.07633 0.22540 0.14902
 H970 H 0.10941 0.22296 0.18641
 C971 C 0.60382 0.75672 0.62742
 C972 C 0.60292 0.77904 0.60283
 C973 C 0.58042 0.78328 0.57969
 C974 C 0.55933 0.76481 0.57938
 C975 C 0.56018 0.74290 0.60396
 C976 C 0.58194 0.73900 0.62794
 C977 C 0.62878 0.75195 0.64995
 C978 C 0.63141 0.73060 0.67565
 C979 C 0.65589 0.72532 0.69305
 C980 C 0.67826 0.74128 0.68567
 C981 C 0.67560 0.76344 0.66170
 C982 C 0.65098 0.76901 0.64406
 C983 C 0.62501 0.79616 0.60009
 C984 C 0.64864 0.79104 0.61985
 H985 H 0.62436 0.81325 0.58133
 H986 H 0.66548 0.80434 0.61573
 H987 H 0.58006 0.80003 0.56028
 H988 H 0.54408 0.72841 0.60419
 H989 H 0.65763 0.70817 0.71158
 H990 H 0.69296 0.77571 0.65577
 H991 H 0.58158 0.72148 0.64564
 H992 H 0.61502 0.71741 0.68218
   
