data_POSCAR
  _audit_creation_date              2014-09-24
  _audit_creation_method            'ToBaCCo'
  _symmetry_space_group_name_H-M    'P1'
  _symmetry_Int_Tables_number       1
  _symmetry_cell_setting            triclinic
  loop_
  _symmetry_equiv_pos_as_xyz
 x,y,z
_cell_length_a 48.0750
_cell_length_b 39.4099
_cell_length_c 26.6709
_cell_angle_alpha 90.153200
_cell_angle_beta 89.220700
_cell_angle_gamma 89.788800
loop_
  _atom_site_label
  _atom_site_type_symbol
  _atom_site_fract_x
  _atom_site_fract_y
  _atom_site_fract_z
C1 C 1.27087 0.20811 0.27739
 C2 C 1.24820 0.22576 0.25713
 C3 C 1.22521 0.20754 0.23975
 C4 C 1.22483 0.17196 0.24182
 C5 C 1.24741 0.15475 0.26323
 C6 C 1.27080 0.17235 0.28145
 C7 C 1.24864 0.26339 0.25425
 C8 C 1.27201 0.28019 0.23429
 C9 C 1.27290 0.31599 0.23098
 C10 C 1.24967 0.33449 0.24962
 C11 C 1.22637 0.31805 0.27071
 C12 C 1.22587 0.28247 0.27202
 H13 H 1.28780 0.22280 0.29249
 H14 H 1.20806 0.22107 0.22289
 H15 H 1.28880 0.26484 0.21898
 H16 H 1.20820 0.26954 0.28873
 H17 H 1.24695 0.12732 0.26374
 H18 H 1.24987 0.36194 0.24971
 C19 C 0.77105 -0.29338 0.26812
 C20 C 0.74855 -0.27517 0.24827
 C21 C 0.72529 -0.29282 0.23088
 C22 C 0.72449 -0.32838 0.23240
 C23 C 0.74690 -0.34620 0.25337
 C24 C 0.77056 -0.32917 0.27167
 C25 C 0.74953 -0.23757 0.24527
 C26 C 0.77307 -0.22139 0.22487
 C27 C 0.77423 -0.18584 0.22146
 C28 C 0.75164 -0.16648 0.23978
 C29 C 0.72803 -0.18217 0.26097
 C30 C 0.72704 -0.21781 0.26294
 H31 H 0.78820 -0.27908 0.28322
 H32 H 0.70829 -0.27887 0.21429
 H33 H 0.79022 -0.23660 0.21038
 H34 H 0.70917 -0.23023 0.27983
 H35 H 0.74607 -0.37361 0.25343
 H36 H 0.75251 -0.13905 0.23777
 C37 C 0.77045 0.21331 -0.22717
 C38 C 0.74820 0.23078 -0.24909
 C39 C 0.72584 0.21225 -0.26856
 C40 C 0.72583 0.17657 -0.26717
 C41 C 0.74820 0.15958 -0.24467
 C42 C 0.77054 0.17770 -0.22426
 C43 C 0.74846 0.26842 -0.25166
 C44 C 0.77216 0.28551 -0.26979
 C45 C 0.77285 0.32133 -0.27294
 C46 C 0.74910 0.33950 -0.25592
 C47 C 0.72551 0.32282 -0.23642
 C48 C 0.72522 0.28723 -0.23532
 H49 H 0.78736 0.22761 -0.21106
 H50 H 0.70891 0.22563 -0.28635
 H51 H 0.78943 0.27039 -0.28382
 H52 H 0.70732 0.27408 -0.21980
 H53 H 0.74826 0.13212 -0.24316
 H54 H 0.74913 0.36694 -0.25571
 C55 C 1.26965 -0.28712 -0.22341
 C56 C 1.24761 -0.26862 -0.24426
 C57 C 1.22464 -0.28598 -0.26336
 C58 C 1.22371 -0.32154 -0.26257
 C59 C 1.24563 -0.33969 -0.24058
 C60 C 1.26898 -0.32294 -0.22057
 C61 C 1.24891 -0.23104 -0.24699
 C62 C 1.27287 -0.21514 -0.26623
 C63 C 1.27433 -0.17963 -0.26963
 C64 C 1.25163 -0.16001 -0.25246
 C65 C 1.22758 -0.17540 -0.23251
 C66 C 1.22627 -0.21103 -0.23054
 H67 H 1.28659 -0.27304 -0.20715
 H68 H 1.20804 -0.27180 -0.28082
 H69 H 1.29007 -0.23055 -0.27998
 H70 H 1.20802 -0.22324 -0.21471
 H71 H 1.24475 -0.36711 -0.24118
 H72 H 1.25272 -0.13260 -0.25455
 C73 C 0.22111 0.28395 0.72611
 C74 C 0.23345 0.25408 0.74368
 C75 C 0.21689 0.22844 0.76496
 C76 C 0.18792 0.23280 0.77060
 C77 C 0.17600 0.26288 0.75173
 C78 C 0.19236 0.28850 0.73028
 C79 C 0.26394 0.25099 0.74479
 C80 C 0.27956 0.27607 0.76899
 C81 C 0.30837 0.27193 0.77563
 C82 C 0.32123 0.24290 0.75459
 C83 C 0.30586 0.21769 0.73032
 C84 C 0.27711 0.22184 0.72568
 H85 H 0.23395 0.30395 0.71044
 H86 H 0.22717 0.20654 0.78080
 H87 H 0.26862 0.29735 0.78591
 H88 H 0.26489 0.20227 0.70788
 H89 H 0.15366 0.26641 0.75226
 H90 H 0.34364 0.24020 0.75535
 C91 C 0.71763 0.77783 0.73762
 C92 C 0.73162 0.75148 0.76217
 C93 C 0.71701 0.72261 0.77805
 C94 C 0.68858 0.71897 0.76780
 C95 C 0.67519 0.74530 0.74181
 C96 C 0.68940 0.77460 0.72572
 C97 C 0.76221 0.75193 0.76430
 C98 C 0.77623 0.78033 0.78311
 C99 C 0.80528 0.78208 0.77945
 C100 C 0.82018 0.75511 0.75745
 C101 C 0.80640 0.72689 0.73768
 C102 C 0.77739 0.72521 0.74205
 H103 H 0.72951 0.79922 0.72371
 H104 H 0.72844 0.70221 0.79562
 H105 H 0.76451 0.80140 0.79900
 H106 H 0.76644 0.70409 0.72539
 H107 H 0.65291 0.74414 0.73693
 H108 H 0.84268 0.75638 0.75514
 C109 C 0.71978 0.28028 0.22885
 C110 C 0.73367 0.25297 0.25108
 C111 C 0.71854 0.22506 0.26898
 C112 C 0.68963 0.22391 0.26407
 C113 C 0.67597 0.25101 0.24083
 C114 C 0.69092 0.27900 0.22271
 C115 C 0.76417 0.25212 0.25261
 C116 C 0.77882 0.27772 0.27736
 C117 C 0.80774 0.27516 0.28217
 C118 C 0.82192 0.24762 0.26004
 C119 C 0.80745 0.22188 0.23523
 C120 C 0.77852 0.22436 0.23160
 H121 H 0.73153 0.30147 0.21388
 H122 H 0.72944 0.20387 0.28566
 H123 H 0.76758 0.29854 0.29501
 H124 H 0.76700 0.20435 0.21332
 H125 H 0.65358 0.25037 0.23663
 H126 H 0.84437 0.24617 0.26245
 C127 C 0.21669 0.77794 0.23068
 C128 C 0.23062 0.75157 0.25512
 C129 C 0.21590 0.72309 0.27210
 C130 C 0.18736 0.71966 0.26292
 C131 C 0.17394 0.74589 0.23680
 C132 C 0.18827 0.77492 0.21975
 C133 C 0.26117 0.75124 0.25703
 C134 C 0.27572 0.77703 0.28167
 C135 C 0.30477 0.77503 0.28535
 C136 C 0.31907 0.74793 0.26225
 C137 C 0.30473 0.72208 0.23748
 C138 C 0.27573 0.72396 0.23500
 H139 H 0.22865 0.79912 0.21627
 H140 H 0.22735 0.70270 0.28962
 H141 H 0.26440 0.79763 0.29969
 H142 H 0.26434 0.70393 0.21652
 H143 H 0.15161 0.74487 0.23252
 H144 H 0.34158 0.74701 0.26358
 O145 O 1.03820 0.05491 0.09961
 O146 O 1.06894 0.02896 0.04523
 C147 C 1.06331 0.04814 0.08368
 O148 O 0.96329 -0.06878 0.07636
 O149 O 0.93138 -0.03363 0.03992
 C150 C 0.93786 -0.05975 0.06691
 O151 O 1.04091 -0.06387 0.07529
 O152 O 1.07089 -0.02820 0.03317
 C153 C 1.06563 -0.05410 0.06167
 O154 O 0.96046 0.05530 0.09897
 O155 O 0.92990 0.02632 0.04933
 C156 C 0.93551 0.04758 0.08498
 Zr157 Zr 0.99941 0.03921 0.07018
 O158 O 0.99789 0.03394 0.14912
 O159 O 0.99897 0.09281 0.07396
 Zr160 Zr 1.00138 -0.04531 0.05553
 O161 O 1.00156 -0.04537 0.13473
 O162 O 1.00303 -0.09893 0.05423
 O163 O 1.02559 -0.00308 0.07120
 O164 O 0.97596 -0.00467 0.07309
 O165 O 0.95815 0.06845 -0.07453
 O166 O 0.92891 0.03142 -0.03401
 C167 C 0.93346 0.05750 -0.06255
 O168 O 1.03985 -0.04964 -0.10186
 O169 O 1.06992 -0.02066 -0.05148
 C170 C 1.06478 -0.04121 -0.08823
 O171 O 0.96209 -0.05436 -0.09589
 O172 O 0.93071 -0.02791 -0.04310
 C173 C 0.93697 -0.04837 -0.07973
 O174 O 1.03571 0.06954 -0.08098
 O175 O 1.06838 0.03691 -0.04111
 C176 C 1.06115 0.06200 -0.06975
 Zr177 Zr 0.99781 0.04919 -0.05499
 O178 O 0.99487 0.05734 -0.13313
 O179 O 0.99694 0.10173 -0.03892
 Zr180 Zr 1.00049 -0.03547 -0.07073
 O181 O 0.99716 -0.02722 -0.14888
 O182 O 1.00406 -0.08844 -0.08261
 Zr183 Zr 1.04142 0.00324 -0.00231
 Zr184 Zr 0.95811 0.00009 0.00189
 O185 O 0.97477 0.00653 -0.07080
 O186 O 1.02408 0.00868 -0.07403
 O187 O 0.97354 0.04972 0.00999
 O188 O 1.02500 -0.04592 -0.00992
 O189 O 1.02279 0.05119 0.00744
 O190 O 0.97650 -0.04819 -0.00771
 H191 H 0.96356 -0.00736 0.10280
 H192 H 1.03759 -0.06565 -0.01457
 H193 H 0.96203 0.00832 -0.09958
 H194 H 1.03461 0.07158 0.01087
 H195 H 1.00759 -0.10573 0.01940
 H196 H 0.99060 -0.09956 -0.05962
 H197 H 1.01420 -0.01538 -0.16036
 H198 H 1.00887 0.04250 -0.14968
 H199 H 0.99657 0.11340 -0.07178
 H200 H 0.99932 0.09872 0.11008
 H201 H 1.01190 0.01660 0.15805
 H202 H 1.00183 -0.06954 0.14479
 O203 O 1.03795 0.56752 0.58323
 O204 O 1.06866 0.53447 0.53815
 C205 C 1.06307 0.55832 0.57037
 O206 O 0.96233 0.44401 0.59887
 O207 O 0.93074 0.47317 0.55184
 C208 C 0.93701 0.45108 0.58584
 O209 O 1.04012 0.45178 0.60087
 O210 O 1.07020 0.47768 0.54543
 C211 C 1.06495 0.45896 0.58431
 O212 O 0.96031 0.57001 0.57802
 O213 O 0.92945 0.53305 0.54227
 C214 C 0.93532 0.56001 0.56804
 Zr215 Zr 0.99917 0.54887 0.55781
 O216 O 0.99681 0.55599 0.63641
 O217 O 0.99991 0.60162 0.54364
 Zr218 Zr 1.00064 0.46424 0.57210
 O219 O 0.99905 0.47444 0.64991
 O220 O 1.00502 0.41153 0.58504
 O221 O 1.02489 0.50774 0.57332
 O222 O 0.97541 0.50670 0.57532
 O223 O 0.95863 0.55663 0.40827
 O224 O 0.92899 0.52625 0.45895
 C225 C 0.93384 0.54813 0.42366
 O226 O 1.03923 0.43611 0.41946
 O227 O 1.06931 0.47126 0.46011
 C228 C 1.06415 0.44640 0.42979
 O229 O 0.96178 0.43082 0.43157
 O230 O 0.93009 0.46682 0.46912
 C231 C 0.93661 0.43986 0.44356
 O232 O 1.03635 0.55330 0.39896
 O233 O 1.06828 0.52850 0.45072
 C234 C 1.06169 0.54709 0.41256
 Zr235 Zr 0.99808 0.53936 0.43256
 O236 O 0.99455 0.53550 0.35377
 O237 O 0.99859 0.59297 0.43050
 Zr238 Zr 1.00006 0.45453 0.44584
 O239 O 0.99576 0.45155 0.36700
 O240 O 1.00438 0.40116 0.44888
 Zr241 Zr 1.04110 0.50247 0.49991
 Zr242 Zr 0.95776 0.50053 0.50420
 O243 O 0.97457 0.49554 0.43128
 O244 O 1.02395 0.49678 0.42805
 O245 O 0.97363 0.54993 0.49545
 O246 O 1.02450 0.45351 0.50892
 O247 O 1.02299 0.55077 0.49292
 O248 O 0.97593 0.45199 0.51127
 H249 H 0.96279 0.50867 0.60489
 H250 H 1.03716 0.43374 0.51168
 H251 H 0.96158 0.49296 0.40299
 H252 H 1.03530 0.57075 0.48935
 H253 H 0.99225 0.39977 0.56207
 H254 H 0.99388 0.39343 0.47881
 H255 H 1.01329 0.45970 0.35143
 H256 H 1.00769 0.51761 0.34245
 H257 H 0.99852 0.59925 0.39455
 H258 H 1.00010 0.61288 0.57691
 H259 H 1.00921 0.53884 0.65150
 H260 H 0.99980 0.45208 0.66672
 O261 O 0.54078 0.05776 0.58856
 O262 O 0.57128 0.02807 0.53814
 C263 C 0.56583 0.04977 0.57366
 O264 O 0.46502 -0.06622 0.58498
 O265 O 0.43322 -0.03323 0.54411
 C266 C 0.43961 -0.05762 0.57443
 O267 O 0.54278 -0.06226 0.58282
 O268 O 0.57273 -0.02963 0.53557
 C269 C 0.56746 -0.05367 0.56739
 O270 O 0.46297 0.05835 0.58904
 O271 O 0.43222 0.02619 0.54417
 C272 C 0.43796 0.04950 0.57679
 Zr273 Zr 0.50185 0.04053 0.56185
 O274 O 0.50064 0.04156 0.64119
 O275 O 0.50164 0.09403 0.55650
 Zr276 Zr 0.50335 -0.04464 0.56076
 O277 O 0.50385 -0.03898 0.63952
 O278 O 0.50414 -0.09808 0.56826
 O279 O 0.52778 -0.00164 0.56946
 O280 O 0.47826 -0.00281 0.57195
 O281 O 0.46022 0.06007 0.41485
 O282 O 0.43110 0.02569 0.46040
 C283 C 0.43557 0.05010 0.42887
 O284 O 0.54138 -0.06002 0.40407
 O285 O 0.57176 -0.02807 0.44973
 C286 C 0.56640 -0.05065 0.41579
 O287 O 0.46384 -0.06680 0.41627
 O288 O 0.43240 -0.03430 0.46082
 C289 C 0.43877 -0.05922 0.43099
 O290 O 0.53779 0.05746 0.40351
 O291 O 0.57015 0.02910 0.45033
 C292 C 0.56321 0.05021 0.41535
 Zr293 Zr 0.49984 0.04142 0.43598
 O294 O 0.49595 0.04491 0.35726
 O295 O 0.50026 0.09476 0.44437
 Zr296 Zr 0.50211 -0.04398 0.43365
 O297 O 0.49750 -0.04062 0.35494
 O298 O 0.50616 -0.09730 0.42756
 Zr299 Zr 0.54343 -0.00084 0.49523
 Zr300 Zr 0.46016 -0.00317 0.50055
 O301 O 0.47647 -0.00213 0.42703
 O302 O 0.52574 -0.00050 0.42327
 O303 O 0.47577 0.04672 0.50076
 O304 O 0.52680 -0.05014 0.49546
 O305 O 0.52521 0.04774 0.49725
 O306 O 0.47841 -0.05190 0.49866
 H307 H 0.46602 -0.00339 0.60214
 H308 H 0.53936 -0.07006 0.49349
 H309 H 0.46332 -0.00259 0.39873
 H310 H 0.53746 0.06791 0.49673
 H311 H 0.51204 -0.10750 0.53678
 H312 H 0.49624 -0.10714 0.45680
 H313 H 0.51508 -0.03158 0.34069
 H314 H 0.50733 0.02639 0.34249
 H315 H 0.50016 0.10416 0.40995
 H316 H 0.50204 0.10267 0.59141
 H317 H 0.51391 0.02412 0.65283
 H318 H 0.50364 -0.06228 0.65335
 O319 O 0.53619 0.55894 0.09000
 O320 O 0.56645 0.52917 0.03928
 C321 C 0.56117 0.55081 0.07487
 O322 O 0.46080 0.43439 0.08752
 O323 O 0.42871 0.46708 0.04686
 C324 C 0.43532 0.44275 0.07716
 O325 O 0.53853 0.43927 0.08538
 O326 O 0.56806 0.47166 0.03692
 C327 C 0.56308 0.44811 0.06958
 O328 O 0.45849 0.55951 0.09087
 O329 O 0.42744 0.52728 0.04677
 C330 C 0.43341 0.55070 0.07917
 Zr331 Zr 0.49720 0.54163 0.06350
 O332 O 0.49611 0.54315 0.14284
 O333 O 0.49695 0.59510 0.05751
 Zr334 Zr 0.49888 0.45646 0.06325
 O335 O 0.49935 0.46256 0.14193
 O336 O 0.49996 0.40306 0.07120
 O337 O 0.52320 0.49957 0.07132
 O338 O 0.47365 0.49826 0.07424
 O339 O 0.45527 0.56043 -0.08324
 O340 O 0.42604 0.52645 -0.03710
 C341 C 0.43061 0.55073 -0.06895
 O342 O 0.53652 0.44054 -0.09373
 O343 O 0.56682 0.47288 -0.04858
 C344 C 0.56151 0.45015 -0.08228
 O345 O 0.45912 0.43365 -0.08059
 O346 O 0.42750 0.46587 -0.03591
 C347 C 0.43404 0.44081 -0.06550
 O348 O 0.53291 0.55804 -0.09500
 O349 O 0.56532 0.52978 -0.04821
 C350 C 0.55838 0.55077 -0.08332
 Zr351 Zr 0.49490 0.54190 -0.06247
 O352 O 0.49077 0.54466 -0.14123
 O353 O 0.49527 0.59531 -0.05512
 Zr354 Zr 0.49728 0.45665 -0.06389
 O355 O 0.49241 0.45977 -0.14257
 O356 O 0.50136 0.40333 -0.06962
 Zr357 Zr 0.53860 0.50010 -0.00307
 Zr358 Zr 0.45532 0.49764 0.00303
 O359 O 0.47147 0.49834 -0.07064
 O360 O 0.52084 0.50006 -0.07494
 O361 O 0.47098 0.54751 0.00251
 O362 O 0.52213 0.45077 -0.00222
 O363 O 0.52035 0.54863 -0.00138
 O364 O 0.47378 0.44899 0.00141
 H365 H 0.46144 0.49772 0.10446
 H366 H 0.53480 0.43093 -0.00407
 H367 H 0.45821 0.49771 -0.09875
 H368 H 0.53259 0.56881 -0.00214
 H369 H 0.50830 0.39358 0.04012
 H370 H 0.49197 0.39362 -0.03974
 H371 H 0.50996 0.46871 -0.15706
 H372 H 0.50290 0.52681 -0.15589
 H373 H 0.49496 0.60441 -0.08970
 H374 H 0.49757 0.60393 0.09231
 H375 H 0.50930 0.52567 0.15465
 H376 H 0.49947 0.43934 0.15604
 C377 C 1.15751 0.11506 0.17634
 C378 C 1.15175 0.14398 0.20642
 C379 C 1.17369 0.16247 0.22768
 C380 C 1.20148 0.15248 0.21971
 C381 C 1.20705 0.12373 0.19004
 C382 C 1.18548 0.10527 0.16867
 C383 C 1.13356 0.09636 0.15359
 C384 C 1.13714 0.06774 0.12233
 C385 C 1.11429 0.05192 0.10067
 C386 C 1.08715 0.06391 0.10973
 C387 C 1.08327 0.09193 0.14181
 C388 C 1.10620 0.10832 0.16340
 C389 C 1.12417 0.15431 0.21500
 C390 C 1.10192 0.13686 0.19404
 H391 H 1.11970 0.17635 0.23815
 H392 H 1.08100 0.14605 0.20165
 H393 H 1.16911 0.18448 0.25090
 H394 H 1.22829 0.11572 0.18261
 H395 H 1.11798 0.03024 0.07639
 H396 H 1.06245 0.10160 0.14897
 H397 H 1.19124 0.08356 0.14613
 H398 H 1.15739 0.05731 0.11361
 C399 C 1.15698 0.62537 0.66404
 C400 C 1.15103 0.65315 0.69628
 C401 C 1.17279 0.67039 0.72013
 C402 C 1.20057 0.66009 0.71290
 C403 C 1.20632 0.63237 0.68132
 C404 C 1.18493 0.61523 0.65721
 C405 C 1.13321 0.60786 0.63887
 C406 C 1.13703 0.58065 0.60509
 C407 C 1.11429 0.56496 0.58296
 C408 C 1.08699 0.57582 0.59374
 C409 C 1.08295 0.60318 0.62703
 C410 C 1.10577 0.61928 0.64939
 C411 C 1.12342 0.66342 0.70471
 C412 C 1.10130 0.64676 0.68202
 H413 H 1.11881 0.68461 0.72948
 H414 H 1.08034 0.65562 0.69005
 H415 H 1.16810 0.69159 0.74486
 H416 H 1.22758 0.62419 0.67455
 H417 H 1.11821 0.54404 0.55738
 H418 H 1.06203 0.61203 0.63556
 H419 H 1.19080 0.59417 0.63344
 H420 H 1.15738 0.57103 0.59509
 C421 C 0.65951 0.11932 0.66465
 C422 C 0.65333 0.14789 0.69521
 C423 C 0.67496 0.16653 0.71715
 C424 C 0.70288 0.15692 0.70971
 C425 C 0.70889 0.12838 0.67987
 C426 C 0.68761 0.10986 0.65758
 C427 C 0.63582 0.10044 0.64125
 C428 C 0.63977 0.07237 0.60902
 C429 C 0.61708 0.05597 0.58764
 C430 C 0.58973 0.06686 0.59785
 C431 C 0.58557 0.09468 0.63025
 C432 C 0.60829 0.11159 0.65161
 C433 C 0.62561 0.15762 0.70385
 C434 C 0.60361 0.13979 0.68276
 H435 H 0.62082 0.17937 0.72741
 H436 H 0.58257 0.14839 0.69072
 H437 H 0.67004 0.18828 0.74067
 H438 H 0.73024 0.12059 0.67311
 H439 H 0.62106 0.03461 0.56287
 H440 H 0.56461 0.10360 0.63830
 H441 H 0.69365 0.08827 0.63499
 H442 H 0.66019 0.06278 0.59946
 C443 C 0.65645 0.61710 0.16520
 C444 C 0.65105 0.64552 0.19651
 C445 C 0.67323 0.66322 0.21835
 C446 C 0.70090 0.65285 0.20989
 C447 C 0.70610 0.62456 0.17911
 C448 C 0.68429 0.60693 0.15706
 C449 C 0.63225 0.59918 0.14200
 C450 C 0.63551 0.57122 0.10940
 C451 C 0.61243 0.55566 0.08821
 C452 C 0.58535 0.56732 0.09892
 C453 C 0.58183 0.59504 0.13170
 C454 C 0.60501 0.61110 0.15298
 C455 C 0.62359 0.65604 0.20586
 C456 C 0.60109 0.63916 0.18474
 H457 H 0.61940 0.67771 0.22994
 H458 H 0.58027 0.64836 0.19320
 H459 H 0.66896 0.68488 0.24244
 H460 H 0.72724 0.61630 0.17133
 H461 H 0.61593 0.53432 0.06320
 H462 H 0.56108 0.60448 0.14014
 H463 H 0.68978 0.58550 0.13372
 H464 H 0.65566 0.56101 0.09944
 C465 C 0.84613 -0.13625 0.15584
 C466 C 0.81888 -0.12549 0.14384
 C467 C 0.79564 -0.14176 0.16527
 C468 C 0.79895 -0.16892 0.19865
 C469 C 0.82595 -0.17978 0.21011
 C470 C 0.84923 -0.16370 0.18916
 C471 C 0.87038 -0.11770 0.13273
 C472 C 0.89834 -0.12599 0.14259
 C473 C 0.92013 -0.10747 0.12087
 C474 C 0.91472 -0.08012 0.08875
 C475 C 0.88691 -0.07194 0.07832
 C476 C 0.86487 -0.09039 0.09989
 C477 C 0.81492 -0.09850 0.11059
 C478 C 0.83740 -0.08138 0.08907
 H479 H 0.79408 -0.09036 0.10121
 H480 H 0.83317 -0.06057 0.06376
 H481 H 0.77488 -0.13348 0.15553
 H482 H 0.82910 -0.20050 0.23606
 H483 H 0.94131 -0.11446 0.12970
 H484 H 0.88229 -0.05092 0.05362
 H485 H 0.86941 -0.17308 0.19973
 H486 H 0.90387 -0.14653 0.16719
 C487 C 0.84457 0.37401 0.67093
 C488 C 0.81766 0.38807 0.66591
 C489 C 0.79423 0.37069 0.68457
 C490 C 0.79671 0.33866 0.70781
 C491 C 0.82364 0.32453 0.71129
 C492 C 0.84710 0.34191 0.69349
 C493 C 0.86908 0.39377 0.65109
 C494 C 0.89688 0.38292 0.65630
 C495 C 0.91887 0.40194 0.63623
 C496 C 0.91381 0.43220 0.61018
 C497 C 0.88621 0.44353 0.60566
 C498 C 0.86398 0.42480 0.62615
 C499 C 0.81415 0.41925 0.64161
 C500 C 0.83674 0.43703 0.62176
 H501 H 0.79352 0.42999 0.63745
 H502 H 0.83282 0.46086 0.60288
 H503 H 0.77391 0.38178 0.67861
 H504 H 0.82708 0.30054 0.72983
 H505 H 0.93991 0.39250 0.64028
 H506 H 0.88195 0.46702 0.58607
 H507 H 0.86703 0.32971 0.69786
 H508 H 0.90211 0.35980 0.67562
 C509 C 0.34702 -0.13082 0.66645
 C510 C 0.31992 -0.11971 0.65402
 C511 C 0.29647 -0.13572 0.67497
 C512 C 0.29936 -0.16297 0.70830
 C513 C 0.32620 -0.17417 0.72026
 C514 C 0.34972 -0.15834 0.69976
 C515 C 0.37152 -0.11271 0.64346
 C516 C 0.39938 -0.12132 0.65370
 C517 C 0.42141 -0.10350 0.63141
 C518 C 0.41632 -0.07663 0.59828
 C519 C 0.38861 -0.06798 0.58782
 C520 C 0.36636 -0.08562 0.61007
 C521 C 0.31633 -0.09272 0.62068
 C522 C 0.33902 -0.07612 0.59910
 H523 H 0.29560 -0.08426 0.61106
 H524 H 0.33508 -0.05538 0.57351
 H525 H 0.27583 -0.12722 0.66476
 H526 H 0.32903 -0.19497 0.74618
 H527 H 0.44251 -0.11084 0.64023
 H528 H 0.38423 -0.04733 0.56229
 H529 H 0.36977 -0.16801 0.71056
 H530 H 0.40464 -0.14165 0.67886
 C531 C 0.34380 0.36682 0.16796
 C532 C 0.31698 0.38150 0.16525
 C533 C 0.29382 0.36482 0.18636
 C534 C 0.29647 0.33289 0.20980
 C535 C 0.32330 0.31825 0.21126
 C536 C 0.34649 0.33491 0.19100
 C537 C 0.36804 0.38581 0.14556
 C538 C 0.39579 0.37426 0.14826
 C539 C 0.41755 0.39283 0.12646
 C540 C 0.41229 0.42334 0.10118
 C541 C 0.38473 0.43516 0.09868
 C542 C 0.36276 0.41690 0.12092
 C543 C 0.31328 0.41262 0.14086
 C544 C 0.33561 0.42977 0.11888
 H545 H 0.29273 0.42384 0.13842
 H546 H 0.33156 0.45367 0.10027
 H547 H 0.27351 0.37636 0.18217
 H548 H 0.32693 0.29438 0.23004
 H549 H 0.43855 0.38303 0.12906
 H550 H 0.38030 0.45882 0.07970
 H551 H 0.36635 0.32230 0.19389
 H552 H 0.40118 0.35106 0.16719
 C553 C 0.83790 0.12491 -0.15131
 C554 C 0.84347 0.15255 -0.18371
 C555 C 0.82150 0.16959 -0.20732
 C556 C 0.79379 0.15948 -0.19947
 C557 C 0.78836 0.13200 -0.16751
 C558 C 0.81002 0.11495 -0.14372
 C559 C 0.86201 0.10739 -0.12686
 C560 C 0.85875 0.07979 -0.09381
 C561 C 0.88187 0.06402 -0.07271
 C562 C 0.90895 0.07526 -0.08375
 C563 C 0.91238 0.10304 -0.11617
 C564 C 0.88925 0.11907 -0.13769
 C565 C 0.87093 0.16295 -0.19256
 C566 C 0.89329 0.14656 -0.17015
 H567 H 0.87522 0.18408 -0.21738
 H568 H 0.91413 0.15555 -0.17847
 H569 H 0.82602 0.19050 -0.23245
 H570 H 0.76718 0.12391 -0.16025
 H571 H 0.87844 0.04269 -0.04788
 H572 H 0.93312 0.11212 -0.12512
 H573 H 0.80443 0.09411 -0.11955
 H574 H 0.83856 0.06984 -0.08390
 C575 C 0.83809 0.61543 0.33581
 C576 C 0.84286 0.64690 0.31190
 C577 C 0.82058 0.66516 0.29126
 C578 C 0.79313 0.65245 0.29290
 C579 C 0.78884 0.62075 0.31623
 C580 C 0.81079 0.60269 0.33737
 C581 C 0.86240 0.59704 0.35817
 C582 C 0.85966 0.56635 0.38482
 C583 C 0.88286 0.55050 0.40553
 C584 C 0.90951 0.56456 0.39997
 C585 C 0.91250 0.59498 0.37314
 C586 C 0.88922 0.61143 0.35280
 C587 C 0.86993 0.65984 0.30819
 C588 C 0.89259 0.64240 0.32783
 H589 H 0.87369 0.68385 0.28960
 H590 H 0.91308 0.65352 0.32381
 H591 H 0.82514 0.68865 0.27191
 H592 H 0.76823 0.61014 0.32042
 H593 H 0.87987 0.52706 0.42599
 H594 H 0.93290 0.60635 0.36904
 H595 H 0.80584 0.57881 0.35490
 H596 H 0.83979 0.55428 0.39059
 C597 C 0.33880 0.11831 0.34621
 C598 C 0.34330 0.14970 0.32192
 C599 C 0.32084 0.16760 0.30121
 C600 C 0.29351 0.15453 0.30310
 C601 C 0.28948 0.12299 0.32700
 C602 C 0.31159 0.10532 0.34826
 C603 C 0.36331 0.10013 0.36813
 C604 C 0.36085 0.06940 0.39472
 C605 C 0.38428 0.05339 0.41419
 C606 C 0.41091 0.06738 0.40761
 C607 C 0.41358 0.09807 0.38135
 C608 C 0.39005 0.11460 0.36203
 C609 C 0.37028 0.16286 0.31775
 C610 C 0.39314 0.14561 0.33704
 H611 H 0.37383 0.18683 0.29893
 H612 H 0.41356 0.15683 0.33252
 H613 H 0.32517 0.19101 0.28147
 H614 H 0.26895 0.11217 0.33144
 H615 H 0.38148 0.02980 0.43434
 H616 H 0.43395 0.10939 0.37641
 H617 H 0.30682 0.08151 0.36615
 H618 H 0.34105 0.05732 0.40118
 C619 C 0.33542 0.62086 -0.15438
 C620 C 0.34059 0.65242 -0.17774
 C621 C 0.31864 0.67098 -0.19891
 C622 C 0.29115 0.65841 -0.19858
 C623 C 0.28645 0.62657 -0.17593
 C624 C 0.30807 0.60825 -0.15412
 C625 C 0.35943 0.60211 -0.13158
 C626 C 0.35631 0.57133 -0.10526
 C627 C 0.37935 0.55485 -0.08492
 C628 C 0.40618 0.56841 -0.09046
 C629 C 0.40945 0.59918 -0.11632
 C630 C 0.38638 0.61618 -0.13639
 C631 C 0.36776 0.66514 -0.18059
 C632 C 0.39015 0.64729 -0.16078
 H633 H 0.37182 0.68920 -0.19879
 H634 H 0.41075 0.65818 -0.16432
 H635 H 0.32352 0.69455 -0.21779
 H636 H 0.26576 0.61603 -0.17290
 H637 H 0.37611 0.53123 -0.06504
 H638 H 0.42997 0.61024 -0.12038
 H639 H 0.30286 0.58423 -0.13723
 H640 H 0.33628 0.55962 -0.09967
 C641 C 1.15998 -0.11325 -0.17445
 C642 C 1.15438 -0.14247 -0.20361
 C643 C 1.17641 -0.16261 -0.22246
 C644 C 1.20419 -0.15412 -0.21281
 C645 C 1.20962 -0.12512 -0.18396
 C646 C 1.18793 -0.10497 -0.16504
 C647 C 1.13585 -0.09277 -0.15426
 C648 C 1.13918 -0.06356 -0.12434
 C649 C 1.11609 -0.04633 -0.10449
 C650 C 1.08897 -0.05748 -0.11407
 C651 C 1.08540 -0.08588 -0.14528
 C652 C 1.10853 -0.10364 -0.16508
 C653 C 1.12684 -0.15151 -0.21356
 C654 C 1.10444 -0.13256 -0.19472
 H655 H 1.12250 -0.17381 -0.23598
 H656 H 1.08355 -0.14088 -0.20314
 H657 H 1.17193 -0.18477 -0.24509
 H658 H 1.23081 -0.11822 -0.17527
 H659 H 1.11958 -0.02443 -0.08079
 H660 H 1.06461 -0.09493 -0.15290
 H661 H 1.19355 -0.08319 -0.14289
 H662 H 1.15941 -0.05384 -0.11513
 C663 C 1.15904 0.37569 0.33911
 C664 C 1.15330 0.34755 0.30784
 C665 C 1.17526 0.32897 0.28547
 C666 C 1.20308 0.33810 0.29343
 C667 C 1.20864 0.36615 0.32415
 C668 C 1.18703 0.38472 0.34663
 C669 C 1.13501 0.39456 0.36286
 C670 C 1.13852 0.42238 0.39543
 C671 C 1.11555 0.43902 0.41675
 C672 C 1.08834 0.42852 0.40635
 C673 C 1.08461 0.40075 0.37398
 C674 C 1.10764 0.38373 0.35238
 C675 C 1.12572 0.33812 0.29906
 C676 C 1.10341 0.35587 0.32068
 H677 H 1.12128 0.31664 0.27504
 H678 H 1.08248 0.34751 0.31261
 H679 H 1.17069 0.30752 0.26146
 H680 H 1.22989 0.37344 0.33162
 H681 H 1.11923 0.46024 0.44165
 H682 H 1.06376 0.39219 0.36569
 H683 H 1.19275 0.40593 0.36985
 H684 H 1.15880 0.43169 0.40517
 C685 C 0.66092 -0.12180 0.32483
 C686 C 0.65507 -0.15077 0.29532
 C687 C 0.67695 -0.17024 0.27443
 C688 C 0.70482 -0.16129 0.28229
 C689 C 0.71050 -0.13243 0.31127
 C690 C 0.68896 -0.11296 0.33226
 C691 C 0.63696 -0.10208 0.34726
 C692 C 0.64056 -0.07326 0.37787
 C693 C 0.61765 -0.05639 0.39908
 C694 C 0.59044 -0.06757 0.39034
 C695 C 0.58660 -0.09587 0.35903
 C696 C 0.60955 -0.11321 0.33775
 C697 C 0.62745 -0.16022 0.28698
 C698 C 0.60522 -0.14185 0.30766
 H699 H 0.62293 -0.18232 0.26426
 H700 H 0.58426 -0.15039 0.30027
 H701 H 0.67227 -0.19227 0.25165
 H702 H 0.73178 -0.12518 0.31854
 H703 H 0.62138 -0.03460 0.42286
 H704 H 0.56575 -0.10492 0.35197
 H705 H 0.69477 -0.09125 0.35438
 H706 H 0.66086 -0.06346 0.38639
 C707 C 0.65709 0.38086 -0.17241
 C708 C 0.65182 0.35203 -0.20257
 C709 C 0.67410 0.33330 -0.22361
 C710 C 0.70179 0.34278 -0.21497
 C711 C 0.70686 0.37126 -0.18482
 C712 C 0.68494 0.39007 -0.16391
 C713 C 0.63278 0.40002 -0.15029
 C714 C 0.63588 0.42903 -0.11995
 C715 C 0.61273 0.44542 -0.09901
 C716 C 0.58570 0.43356 -0.10769
 C717 C 0.58231 0.40509 -0.13885
 C718 C 0.60557 0.38827 -0.16003
 C719 C 0.62437 0.34198 -0.21130
 C720 C 0.60178 0.35963 -0.19041
 H721 H 0.62027 0.31994 -0.23440
 H722 H 0.58098 0.35062 -0.19804
 H723 H 0.66989 0.31144 -0.24705
 H724 H 0.72796 0.37878 -0.17658
 H725 H 0.61613 0.46740 -0.07544
 H726 H 0.56159 0.39557 -0.14594
 H727 H 0.69034 0.41151 -0.14091
 H728 H 0.65599 0.43944 -0.11153
 C729 C 1.13652 0.16179 -0.15182
 C730 C 1.16112 0.15048 -0.17624
 C731 C 1.17839 0.17392 -0.20142
 C732 C 1.17125 0.20874 -0.20339
 C733 C 1.14696 0.21944 -0.17773
 C734 C 1.13002 0.19657 -0.15247
 C735 C 1.11799 0.13620 -0.12722
 C736 C 1.09275 0.14539 -0.10363
 C737 C 1.07515 0.12082 -0.08432
 C738 C 1.08215 0.08637 -0.08726
 C739 C 1.10784 0.07664 -0.10842
 C740 C 1.12570 0.10145 -0.12914
 C741 C 1.16801 0.11583 -0.17601
 C742 C 1.15071 0.09186 -0.15291
 H743 H 1.18692 0.10704 -0.19449
 H744 H 1.15680 0.06537 -0.15438
 H745 H 1.19660 0.16448 -0.22138
 H746 H 1.14123 0.24596 -0.17510
 H747 H 1.05561 0.12886 -0.06724
 H748 H 1.11331 0.04996 -0.11064
 H749 H 1.11195 0.20699 -0.13366
 H750 H 1.08572 0.17128 -0.10036
 C751 C 1.13968 0.63510 0.31263
 C752 C 1.16319 0.64555 0.33988
 C753 C 1.17968 0.67251 0.32225
 C754 C 1.17244 0.69049 0.27858
 C755 C 1.14939 0.67913 0.25126
 C756 C 1.13342 0.65191 0.26774
 C757 C 1.12139 0.60810 0.33440
 C758 C 1.09737 0.59645 0.31022
 C759 C 1.07887 0.57494 0.33484
 C760 C 1.08400 0.56401 0.38379
 C761 C 1.10909 0.57290 0.40659
 C762 C 1.12769 0.59514 0.38240
 C763 C 1.16933 0.63011 0.38574
 C764 C 1.15182 0.60564 0.40677
 H765 H 1.18742 0.63791 0.40660
 H766 H 1.15690 0.59541 0.44321
 H767 H 1.19689 0.68092 0.34488
 H768 H 1.14378 0.69075 0.21607
 H769 H 1.05992 0.56777 0.31606
 H770 H 1.11328 0.56439 0.44440
 H771 H 1.11593 0.64502 0.24508
 H772 H 1.09194 0.60439 0.27298
 C773 C 0.64083 0.13976 0.31711
 C774 C 0.66279 0.15251 0.34644
 C775 C 0.67913 0.17942 0.32846
 C776 C 0.67373 0.19409 0.28169
 C777 C 0.65266 0.18057 0.25199
 C778 C 0.63645 0.15374 0.26927
 C779 C 0.62239 0.11306 0.33922
 C780 C 0.59895 0.10049 0.31422
 C781 C 0.58053 0.07869 0.33847
 C782 C 0.58524 0.06834 0.38781
 C783 C 0.60948 0.07869 0.41200
 C784 C 0.62784 0.10144 0.38838
 C785 C 0.66781 0.13898 0.39401
 C786 C 0.65074 0.11390 0.41449
 H787 H 0.68482 0.14847 0.41624
 H788 H 0.65505 0.10486 0.45195
 H789 H 0.69540 0.18978 0.35167
 H790 H 0.64862 0.19091 0.21519
 H791 H 0.56205 0.07061 0.31899
 H792 H 0.61307 0.07087 0.45035
 H793 H 0.62042 0.14477 0.24477
 H794 H 0.59381 0.10801 0.27665
 C795 C 0.63890 0.63616 -0.18318
 C796 C 0.66270 0.64549 -0.15585
 C797 C 0.68006 0.67167 -0.17346
 C798 C 0.67351 0.68974 -0.21737
 C799 C 0.65068 0.67869 -0.24559
 C800 C 0.63381 0.65235 -0.22904
 C801 C 0.61932 0.61075 -0.16088
 C802 C 0.59420 0.60172 -0.18389
 C803 C 0.57508 0.58108 -0.15923
 C804 C 0.58055 0.56848 -0.11133
 C805 C 0.60626 0.57540 -0.08925
 C806 C 0.62549 0.59687 -0.11337
 C807 C 0.66835 0.62962 -0.11010
 C808 C 0.65016 0.60579 -0.08935
 H809 H 0.68673 0.63642 -0.08931
 H810 H 0.65506 0.59498 -0.05319
 H811 H 0.69735 0.67951 -0.15058
 H812 H 0.64585 0.69007 -0.28135
 H813 H 0.55556 0.57558 -0.17734
 H814 H 0.61059 0.56575 -0.05211
 H815 H 0.61662 0.64561 -0.25251
 H816 H 0.58839 0.61109 -0.22018
 C817 C 0.85491 -0.13437 -0.17100
 C818 C 0.83368 -0.14738 -0.13918
 C819 C 0.81643 -0.17363 -0.15623
 C820 C 0.82045 -0.18737 -0.20434
 C821 C 0.84039 -0.17310 -0.23660
 C822 C 0.85730 -0.14683 -0.22041
 C823 C 0.87479 -0.10911 -0.14998
 C824 C 0.89802 -0.09721 -0.17738
 C825 C 0.91760 -0.07653 -0.15472
 C826 C 0.91433 -0.06663 -0.10456
 C827 C 0.89055 -0.07674 -0.07754
 C828 C 0.87105 -0.09845 -0.09958
 C829 C 0.83049 -0.13495 -0.09016
 C830 C 0.84867 -0.11082 -0.07087
 H831 H 0.81406 -0.14457 -0.06594
 H832 H 0.84573 -0.10258 -0.03233
 H833 H 0.80085 -0.18449 -0.13132
 H834 H 0.84327 -0.18283 -0.27437
 H835 H 0.93571 -0.06874 -0.17635
 H836 H 0.88808 -0.06937 -0.03854
 H837 H 0.87243 -0.13728 -0.24693
 H838 H 0.90208 -0.10439 -0.21579
 C839 C 0.85704 0.34458 0.36735
 C840 C 0.83605 0.35732 0.33572
 C841 C 0.81926 0.33468 0.30883
 C842 C 0.82329 0.29952 0.31317
 C843 C 0.84293 0.28717 0.34690
 C844 C 0.85950 0.30928 0.37380
 C845 C 0.87637 0.36913 0.39138
 C846 C 0.89973 0.35842 0.41847
 C847 C 0.91862 0.38189 0.43639
 C848 C 0.91454 0.41660 0.42868
 C849 C 0.89082 0.42796 0.40372
 C850 C 0.87202 0.40433 0.38388
 C851 C 0.83242 0.39244 0.33046
 C852 C 0.84980 0.41546 0.35457
 H853 H 0.81611 0.40228 0.30683
 H854 H 0.84640 0.44236 0.34876
 H855 H 0.80381 0.34437 0.28325
 H856 H 0.84567 0.26011 0.35218
 H857 H 0.93686 0.37283 0.45578
 H858 H 0.88794 0.45490 0.39725
 H859 H 0.87424 0.29804 0.39895
 H860 H 0.90447 0.33205 0.42480
 C861 C 0.35661 -0.15474 0.36363
 C862 C 0.33446 -0.14223 0.33448
 C863 C 0.31661 -0.16509 0.31027
 C864 C 0.32063 -0.20024 0.31528
 C865 C 0.34112 -0.21224 0.34765
 C866 C 0.35881 -0.18990 0.37170
 C867 C 0.37723 -0.13015 0.38373
 C868 C 0.40210 -0.14087 0.40606
 C869 C 0.42164 -0.11735 0.42142
 C870 C 0.41682 -0.08259 0.41574
 C871 C 0.39193 -0.07127 0.39457
 C872 C 0.37243 -0.09497 0.37707
 C873 C 0.33071 -0.10712 0.32913
 C874 C 0.34897 -0.08397 0.35091
 H875 H 0.31350 -0.09739 0.30754
 H876 H 0.34526 -0.05709 0.34551
 H877 H 0.30042 -0.15564 0.28603
 H878 H 0.34383 -0.23923 0.35364
 H879 H 0.44078 -0.12640 0.43783
 H880 H 0.38846 -0.04429 0.38955
 H881 H 0.37420 -0.20078 0.39594
 H882 H 0.40737 -0.16728 0.41060
 C883 C 0.35780 0.34157 -0.14232
 C884 C 0.33363 0.35320 -0.16656
 C885 C 0.31678 0.33012 -0.19263
 C886 C 0.32407 0.29540 -0.19605
 C887 C 0.34769 0.28425 -0.17007
 C888 C 0.36413 0.30675 -0.14364
 C889 C 0.37627 0.36694 -0.11781
 C890 C 0.40132 0.35753 -0.09497
 C891 C 0.41922 0.38200 -0.07688
 C892 C 0.41262 0.41650 -0.08025
 C893 C 0.38700 0.42645 -0.10004
 C894 C 0.36891 0.40178 -0.11967
 C895 C 0.32691 0.38789 -0.16572
 C896 C 0.34414 0.41165 -0.14271
 H897 H 0.30829 0.39691 -0.18397
 H898 H 0.33831 0.43822 -0.14400
 H899 H 0.29898 0.33983 -0.21258
 H900 H 0.35332 0.25766 -0.16853
 H901 H 0.43871 0.37390 -0.06073
 H902 H 0.38186 0.45321 -0.10245
 H903 H 0.38178 0.29607 -0.12484
 H904 H 0.40803 0.33155 -0.09171
 C905 C 1.14296 -0.15255 0.13582
 C906 C 1.16452 -0.14161 0.16748
 C907 C 1.18062 -0.16568 0.19338
 C908 C 1.17427 -0.20059 0.19061
 C909 C 1.15291 -0.21088 0.15848
 C910 C 1.13770 -0.18746 0.13141
 C911 C 1.12529 -0.12651 0.11086
 C912 C 1.10395 -0.13543 0.07782
 C913 C 1.08557 -0.11104 0.06072
 C914 C 1.08830 -0.07710 0.07494
 C915 C 1.11086 -0.06709 0.10418
 C916 C 1.12940 -0.09181 0.12254
 C917 C 1.16885 -0.10677 0.17495
 C918 C 1.15141 -0.08241 0.15358
 H919 H 1.18532 -0.09822 0.19922
 H920 H 1.15493 -0.05588 0.16209
 H921 H 1.19660 -0.15689 0.21851
 H922 H 1.14813 -0.23747 0.15307
 H923 H 1.06857 -0.11889 0.03708
 H924 H 1.11309 -0.04064 0.11465
 H925 H 1.12144 -0.19745 0.10832
 H926 H 1.10056 -0.16111 0.06551
 C927 C 1.14692 0.37547 0.67967
 C928 C 1.16738 0.36035 0.64798
 C929 C 1.18349 0.33312 0.66555
 C930 C 1.17895 0.32031 0.71396
 C931 C 1.15984 0.33657 0.74608
 C932 C 1.14415 0.36393 0.72942
 C933 C 1.12783 0.40148 0.65793
 C934 C 1.10532 0.41560 0.68529
 C935 C 1.08572 0.43584 0.66163
 C936 C 1.08837 0.44319 0.61050
 C937 C 1.11185 0.43162 0.58365
 C938 C 1.13129 0.41024 0.60674
 C939 C 1.17070 0.37145 0.59840
 C940 C 1.15310 0.39598 0.57826
 H941 H 1.18657 0.36021 0.57428
 H942 H 1.15592 0.40288 0.53921
 H943 H 1.19837 0.32065 0.64071
 H944 H 1.15655 0.32748 0.78400
 H945 H 1.06787 0.44490 0.68307
 H946 H 1.11386 0.43709 0.54394
 H947 H 1.12948 0.37490 0.75575
 H948 H 1.10170 0.41027 0.72442
 C949 C 0.64436 -0.15249 0.64200
 C950 C 0.66576 -0.14169 0.67411
 C951 C 0.68174 -0.16586 0.70001
 C952 C 0.67550 -0.20078 0.69665
 C953 C 0.65439 -0.21094 0.66389
 C954 C 0.63927 -0.18740 0.63689
 C955 C 0.62672 -0.12633 0.61725
 C956 C 0.60540 -0.13510 0.58410
 C957 C 0.58711 -0.11062 0.56704
 C958 C 0.58988 -0.07673 0.58146
 C959 C 0.61235 -0.06685 0.61099
 C960 C 0.63082 -0.09167 0.62929
 C961 C 0.67009 -0.10688 0.68195
 C962 C 0.65275 -0.08242 0.66057
 H963 H 0.68648 -0.09844 0.70647
 H964 H 0.65629 -0.05592 0.66928
 H965 H 0.69755 -0.15715 0.72555
 H966 H 0.64975 -0.23751 0.65792
 H967 H 0.57015 -0.11836 0.54322
 H968 H 0.61461 -0.04043 0.62156
 H969 H 0.62323 -0.19731 0.61323
 H970 H 0.60196 -0.16074 0.57161
 C971 C 0.64381 0.35320 0.14251
 C972 C 0.66095 0.36358 0.18247
 C973 C 0.67746 0.33955 0.20735
 C974 C 0.67632 0.30520 0.19379
 C975 C 0.65989 0.29520 0.15354
 C976 C 0.64397 0.31881 0.12797
 C977 C 0.62498 0.37881 0.11932
 C978 C 0.60683 0.37048 0.08021
 C979 C 0.58749 0.39394 0.06353
 C980 C 0.58609 0.42637 0.08454
 C981 C 0.60504 0.43603 0.12121
 C982 C 0.62446 0.41226 0.13906
 C983 C 0.66060 0.39748 0.19853
 C984 C 0.64263 0.42127 0.17746
 H985 H 0.67384 0.40552 0.22888
 H986 H 0.64254 0.44693 0.19218
 H987 H 0.69015 0.34722 0.23869
 H988 H 0.65908 0.26878 0.14228
 H989 H 0.57301 0.38647 0.03474
 H990 H 0.60386 0.46134 0.13718
 H991 H 0.63145 0.30925 0.09791
 H992 H 0.60664 0.34583 0.06269
 C993 C 0.85392 0.13749 0.17384
 C994 C 0.86014 0.15071 0.22180
 C995 C 0.84424 0.17734 0.24210
 C996 C 0.82260 0.19201 0.21479
 C997 C 0.81610 0.17859 0.16766
 C998 C 0.83149 0.15161 0.14739
 C999 C 0.87255 0.11043 0.15230
 C1000 C 0.86822 0.09533 0.10504
 C1001 C 0.88795 0.07307 0.08433
 C1002 C 0.91234 0.06548 0.11025
 C1003 C 0.91583 0.07836 0.15873
 C1004 C 0.89619 0.10062 0.17992
 C1005 C 0.88282 0.13823 0.24853
 C1006 C 0.90066 0.11397 0.22779
 H1007 H 0.88744 0.14826 0.28536
 H1008 H 0.91854 0.10602 0.24917
 H1009 H 0.84907 0.18713 0.27900
 H1010 H 0.79959 0.18963 0.14574
 H1011 H 0.88479 0.06320 0.04690
 H1012 H 0.93444 0.07203 0.17932
 H1013 H 0.82596 0.14286 0.11052
 H1014 H 0.85020 0.10104 0.08292
 C1015 C 0.85444 0.65149 0.65674
 C1016 C 0.86004 0.68654 0.65098
 C1017 C 0.84376 0.71067 0.67643
 C1018 C 0.82229 0.70072 0.70920
 C1019 C 0.81642 0.66607 0.71456
 C1020 C 0.83226 0.64168 0.68862
 C1021 C 0.87324 0.62656 0.63032
 C1022 C 0.86937 0.59104 0.63219
 C1023 C 0.88889 0.56899 0.60994
 C1024 C 0.91264 0.58202 0.58610
 C1025 C 0.91587 0.61713 0.58174
 C1026 C 0.89638 0.63939 0.60312
 C1027 C 0.88237 0.69745 0.62108
 C1028 C 0.90037 0.67436 0.59815
 H1029 H 0.88652 0.72430 0.61656
 H1030 H 0.91790 0.68404 0.57663
 H1031 H 0.84805 0.73743 0.67109
 H1032 H 0.79996 0.65777 0.73974
 H1033 H 0.88602 0.54182 0.61312
 H1034 H 0.93399 0.62717 0.56221
 H1035 H 0.82722 0.61537 0.69487
 H1036 H 0.85172 0.57986 0.65120
 C1037 C 0.35327 0.13476 0.66745
 C1038 C 0.35859 0.14684 0.71641
 C1039 C 0.34178 0.17224 0.73769
 C1040 C 0.32034 0.18721 0.71022
 C1041 C 0.31442 0.17457 0.66237
 C1042 C 0.33059 0.14853 0.64124
 C1043 C 0.37314 0.10952 0.64469
 C1044 C 0.36973 0.09548 0.59645
 C1045 C 0.39031 0.07465 0.57515
 C1046 C 0.41472 0.06763 0.60133
 C1047 C 0.41761 0.07982 0.65029
 C1048 C 0.39699 0.10038 0.67226
 C1049 C 0.38151 0.13487 0.74299
 C1050 C 0.40052 0.11245 0.72113
 H1051 H 0.38544 0.14403 0.78058
 H1052 H 0.41854 0.10493 0.74249
 H1053 H 0.34613 0.18142 0.77514
 H1054 H 0.29803 0.18580 0.64038
 H1055 H 0.38765 0.06518 0.53734
 H1056 H 0.43624 0.07379 0.67102
 H1057 H 0.32564 0.14051 0.60372
 H1058 H 0.35164 0.10075 0.57426
 C1059 C 0.35204 0.63985 0.17148
 C1060 C 0.35862 0.65264 0.21955
 C1061 C 0.34245 0.67850 0.24134
 C1062 C 0.32015 0.69288 0.21548
 C1063 C 0.31328 0.67987 0.16825
 C1064 C 0.32895 0.65363 0.14648
 C1065 C 0.37087 0.61352 0.14844
 C1066 C 0.36626 0.59880 0.10095
 C1067 C 0.38594 0.57680 0.07928
 C1068 C 0.41057 0.56921 0.10443
 C1069 C 0.41451 0.58200 0.15283
 C1070 C 0.39492 0.60387 0.17501
 C1071 C 0.38185 0.64045 0.24500
 C1072 C 0.39978 0.61682 0.22298
 H1073 H 0.38676 0.65014 0.28189
 H1074 H 0.41801 0.60900 0.24352
 H1075 H 0.34759 0.68793 0.27830
 H1076 H 0.29624 0.69069 0.14741
 H1077 H 0.38250 0.56699 0.04189
 H1078 H 0.43332 0.57562 0.17280
 H1079 H 0.32309 0.64515 0.10965
 H1080 H 0.34798 0.60451 0.07952
   
