data_POSCAR
  _audit_creation_date              2014-09-24
  _audit_creation_method            'ToBaCCo'
  _symmetry_space_group_name_H-M    'P1'
  _symmetry_Int_Tables_number       1
  _symmetry_cell_setting            triclinic
  loop_
  _symmetry_equiv_pos_as_xyz
 x,y,z
_cell_length_a 32.8745
_cell_length_b 32.3971
_cell_length_c 32.2649
_cell_angle_alpha 90.140200
_cell_angle_beta 90.245600
_cell_angle_gamma 89.958100
loop_
  _atom_site_label
  _atom_site_type_symbol
  _atom_site_fract_x
  _atom_site_fract_y
  _atom_site_fract_z
O1 O 0.27950 1.06309 0.04699
 O2 O 0.31272 0.98113 -0.02337
 O3 O 0.28356 1.05505 -0.03254
 O4 O 0.30094 0.98717 0.05796
 O5 O 0.23768 0.96491 0.05270
 O6 O 0.22185 1.02867 -0.03969
 O7 O 0.25009 0.95697 -0.02842
 O8 O 0.21568 1.04356 0.03779
 Cu9 Cu 0.30065 1.02333 0.01294
 Cu10 Cu 0.22509 0.99559 0.00619
 C11 C 0.24185 1.06851 0.05279
 C12 C 0.28724 0.95628 -0.03928
 C13 C 0.24972 1.05273 -0.05177
 C14 C 0.27180 0.96506 0.07109
 O15 O 0.72640 0.54074 0.50499
 O16 O 0.72728 0.43406 0.46548
 O17 O 0.71538 0.46941 0.53920
 O18 O 0.73647 0.50818 0.43464
 O19 O 0.80250 0.50147 0.44618
 O20 O 0.78132 0.46248 0.55101
 O21 O 0.79287 0.42863 0.47983
 O22 O 0.79204 0.53520 0.51937
 Cu23 Cu 0.71953 0.48777 0.48488
 Cu24 Cu 0.79887 0.48154 0.50022
 C25 C 0.75932 0.55606 0.51867
 C26 C 0.76012 0.41332 0.46581
 C27 C 0.74472 0.45968 0.56295
 C28 C 0.77301 0.51231 0.42305
 O29 O 0.69883 0.94706 1.02207
 O30 O 0.72139 1.02056 0.93907
 O31 O 0.72929 0.94184 0.94625
 O32 O 0.69631 1.02848 1.01318
 O33 O 0.75842 1.03267 1.03909
 O34 O 0.79098 0.94570 0.97347
 O35 O 0.78478 1.02440 0.96198
 O36 O 0.76132 0.95179 1.04694
 Cu37 Cu 0.70498 0.98343 0.97835
 Cu38 Cu 0.78003 0.98965 1.00810
 C39 C 0.72585 0.93633 1.04817
 C40 C 0.75721 1.03446 0.93607
 C41 C 0.76595 0.92931 0.94837
 C42 C 0.72209 1.04587 1.03691
 O43 O 0.21216 0.48299 0.56615
 O44 O 0.19996 0.52177 0.45952
 O45 O 0.20624 0.44967 0.49257
 O46 O 0.20058 0.55578 0.53346
 O47 O 0.26754 0.56198 0.53046
 O48 O 0.27313 0.45525 0.49055
 O49 O 0.26623 0.53293 0.45731
 O50 O 0.27832 0.49510 0.56353
 Cu51 Cu 0.19798 0.50193 0.51342
 Cu52 Cu 0.27792 0.51007 0.50865
 C53 C 0.24713 0.48344 0.58319
 C54 C 0.23126 0.53445 0.44054
 C55 C 0.24084 0.43439 0.48481
 C56 C 0.23285 0.57651 0.53964
 O57 O 1.02428 0.24336 0.06861
 O58 O 0.95356 0.21100 -0.01355
 O59 O 1.03561 0.21691 -0.00702
 O60 O 0.94775 0.23343 0.06115
 O61 O 0.94187 0.29683 0.03645
 O62 O 1.03180 0.28097 -0.02996
 O63 O 0.95248 0.27434 -0.03876
 O64 O 1.02072 0.30736 0.04527
 Cu65 Cu 0.99152 0.21932 0.02863
 Cu66 Cu 0.98660 0.29630 0.00094
 C67 C 1.03422 0.28112 0.07101
 C68 C 0.93910 0.23766 -0.03844
 C69 C 1.04962 0.24622 -0.02876
 C70 C 0.92914 0.26767 0.05935
 O71 O 0.55503 0.78259 0.50109
 O72 O 0.47375 0.74432 0.43303
 O73 O 0.47585 0.78078 0.50413
 O74 O 0.55255 0.73998 0.43219
 O75 O 0.55288 0.68151 0.46726
 O76 O 0.47647 0.72240 0.53951
 O77 O 0.47215 0.68607 0.46849
 O78 O 0.55479 0.72436 0.53659
 Cu79 Cu 0.51456 0.76780 0.46423
 Cu80 Cu 0.51446 0.69734 0.50598
 C81 C 0.56844 0.76054 0.53055
 C82 C 0.45823 0.70925 0.43993
 C83 C 0.46286 0.75853 0.53368
 C84 C 0.56588 0.70362 0.43775
 O85 O 0.06803 0.74962 -0.04697
 O86 O -0.01740 0.71621 0.01937
 O87 O -0.00209 0.71623 -0.05906
 O88 O 0.05745 0.74490 0.03294
 O89 O 0.03175 0.80789 0.03113
 O90 O -0.03179 0.77743 -0.05895
 O91 O -0.04148 0.77992 0.02082
 O92 O 0.04003 0.81158 -0.04923
 Cu93 Cu 0.02925 0.72547 -0.01268
 Cu94 Cu -0.00276 0.80054 -0.01429
 C95 C 0.06780 0.78659 -0.06006
 C96 C -0.04412 0.74229 0.03083
 C97 C -0.02743 0.74149 -0.07444
 C98 C 0.05541 0.78131 0.04726
 O99 O 0.52753 0.19641 0.49534
 O100 O 0.45149 0.24016 0.56658
 O101 O 0.44799 0.20183 0.49601
 O102 O 0.53127 0.23763 0.56340
 O103 O 0.53366 0.29603 0.52825
 O104 O 0.45049 0.26032 0.46095
 O105 O 0.45236 0.29851 0.53130
 O106 O 0.52868 0.25477 0.45998
 Cu107 Cu 0.48927 0.21320 0.53390
 Cu108 Cu 0.49148 0.28367 0.49210
 C109 C 0.54141 0.21823 0.46600
 C110 C 0.43806 0.27633 0.56026
 C111 C 0.43499 0.22510 0.46721
 C112 C 0.54769 0.27228 0.55606
 O113 O 1.02116 0.04037 0.26442
 O114 O 0.95049 -0.04530 0.28566
 O115 O 1.03076 -0.03358 0.29174
 O116 O 0.94358 0.03076 0.25974
 O117 O 0.94832 0.00584 0.19614
 O118 O 1.03628 -0.05819 0.22811
 O119 O 0.95751 -0.06947 0.22205
 O120 O 1.02729 0.01674 0.20042
 Cu121 Cu 0.98564 -0.00024 0.28208
 Cu122 Cu 0.99304 -0.02857 0.20531
 C123 C 1.03638 0.04283 0.22845
 C124 C 0.94121 -0.07132 0.25754
 C125 C 1.04907 -0.05583 0.26526
 C126 C 0.93114 0.02926 0.22248
 O127 O 0.53689 0.54776 0.69049
 O128 O 0.45856 0.47625 0.72984
 O129 O 0.45893 0.55517 0.71001
 O130 O 0.52936 0.46861 0.70096
 O131 O 0.55380 0.48011 0.76395
 O132 O 0.47258 0.55763 0.77696
 O133 O 0.48648 0.48061 0.79232
 O134 O 0.55482 0.56131 0.75508
 Cu135 Cu 0.49376 0.51199 0.70118
 Cu136 Cu 0.51902 0.52400 0.77783
 C137 C 0.55943 0.56650 0.71650
 C138 C 0.46139 0.46415 0.76736
 C139 C 0.45123 0.56856 0.74592
 C140 C 0.55205 0.45836 0.73105
 O141 O 0.96520 1.06159 0.72686
 O142 O 1.06137 1.00757 0.71153
 O143 O 0.98359 0.98091 0.70927
 O144 O 1.03957 1.07567 0.73420
 O145 O 1.03797 1.05811 0.80054
 O146 O 0.97513 0.96789 0.77578
 O147 O 1.05703 0.98251 0.77503
 O148 O 0.96588 1.04426 0.79316
 Cu149 Cu 1.01078 1.03107 0.71317
 Cu150 Cu 1.00996 1.00939 0.79213
 C151 C 0.95152 1.06534 0.76343
 C152 C 1.07623 0.98706 0.74127
 C153 C 0.96924 0.95872 0.73809
 C154 C 1.04822 1.08283 0.77195
 O155 O 0.45007 0.50376 0.21035
 O156 O 0.52313 0.42627 0.24861
 O157 O 0.44547 0.43440 0.25122
 O158 O 0.53125 0.49544 0.21074
 O159 O 0.53418 0.53084 0.26927
 O160 O 0.44864 0.46965 0.30986
 O161 O 0.52781 0.46084 0.30759
 O162 O 0.45447 0.53853 0.26914
 Cu163 Cu 0.48681 0.46218 0.22388
 Cu164 Cu 0.49165 0.50348 0.29479
 C165 C 0.43894 0.53352 0.23338
 C166 C 0.53810 0.43063 0.28464
 C167 C 0.43266 0.44159 0.28761
 C168 C 0.54821 0.52244 0.23366
 O169 O 0.23684 0.16014 0.19007
 O170 O 0.27961 0.13508 0.24649
 O171 O 0.12615 0.18874 0.25368
 O172 O 0.10843 0.22783 0.30875
 O173 O 0.17655 0.28307 0.17109
 O174 O 0.23637 0.32108 0.16764
 O175 O 0.23402 0.27640 0.39127
 O176 O 0.18135 0.22413 0.38867
 O177 O 0.33256 0.23854 0.33383
 O178 O 0.34862 0.20644 0.27102
 O179 O 0.28160 0.35131 0.30642
 O180 O 0.22326 0.37352 0.25863
 O181 O 0.22461 0.33626 0.35612
 O182 O 0.18133 0.36316 0.30212
 O183 O 0.33253 0.30665 0.29043
 O184 O 0.34743 0.25988 0.23208
 O185 O 0.28261 0.21718 0.37730
 O186 O 0.22510 0.17322 0.37683
 O187 O 0.22839 0.21992 0.15434
 O188 O 0.27914 0.27574 0.16002
 O189 O 0.12580 0.26165 0.21363
 O190 O 0.11237 0.29080 0.28165
 O191 O 0.17740 0.14403 0.23813
 O192 O 0.22702 0.12294 0.28925
 Zr193 Zr 0.23037 0.17708 0.25261
 O194 O 0.26623 0.20242 0.30028
 Zr195 Zr 0.15634 0.24478 0.26866
 O196 O 0.18887 0.27297 0.31782
 Zr197 Zr 0.23042 0.26559 0.20136
 O198 O 0.26574 0.29501 0.24719
 Zr199 Zr 0.22879 0.23026 0.34505
 O200 O 0.19221 0.20057 0.29956
 Zr201 Zr 0.30200 0.25089 0.27752
 O202 O 0.26994 0.22191 0.22819
 Zr203 Zr 0.22766 0.31854 0.29374
 O204 O 0.19190 0.29361 0.24525
 O205 O 0.19259 0.21936 0.22293
 O206 O 0.26640 0.27726 0.32372
 C207 C 0.23245 0.18043 0.15624
 C208 C 0.13960 0.15351 0.24095
 C209 C 0.13889 0.27811 0.18002
 C210 C 0.23070 0.31597 0.38963
 C211 C 0.32002 0.22367 0.36847
 C212 C 0.31936 0.34221 0.30195
 H213 H 0.28344 0.18014 0.31180
 H214 H 0.28209 0.31693 0.23405
 H215 H 0.17562 0.20776 0.20037
 H216 H 0.16994 0.28440 0.33864
 H217 H 0.16002 0.20709 0.37527
 H218 H 0.11456 0.23970 0.33635
 H219 H 0.33985 0.28461 0.21589
 H220 H 0.29770 0.25180 0.16267
 H221 H 0.24307 0.15343 0.36239
 H222 H 0.20304 0.12570 0.30752
 H223 H 0.24933 0.37752 0.24398
 H224 H 0.22305 0.34277 0.18443
 H225 H 0.27005 0.11023 0.23123
 H226 H 0.33765 0.18479 0.25242
 H227 H 0.12128 0.31622 0.26735
 H228 H 0.15964 0.35035 0.31889
 O229 O 0.73841 0.83119 0.18833
 O230 O 0.69636 0.82694 0.25109
 O231 O 0.85332 0.78461 0.23341
 O232 O 0.87682 0.72669 0.26100
 O233 O 0.80007 0.73110 0.11768
 O234 O 0.74279 0.69251 0.10177
 O235 O 0.76780 0.64405 0.32335
 O236 O 0.81134 0.70115 0.33964
 O237 O 0.65490 0.69879 0.29336
 O238 O 0.63403 0.75015 0.24856
 O239 O 0.70600 0.60715 0.21481
 O240 O 0.76342 0.61010 0.16116
 O241 O 0.76913 0.60318 0.26608
 O242 O 0.80589 0.60163 0.20431
 O243 O 0.65398 0.65060 0.23045
 O244 O 0.63337 0.71399 0.19192
 O245 O 0.70881 0.68988 0.33668
 O246 O 0.75971 0.74228 0.35396
 O247 O 0.73780 0.78941 0.13162
 O248 O 0.69694 0.73070 0.11497
 O249 O 0.85300 0.73654 0.16278
 O250 O 0.87223 0.68271 0.21049
 O251 O 0.80017 0.82781 0.24595
 O252 O 0.74948 0.82652 0.29340
 Zr253 Zr 0.74861 0.79046 0.23853
 O254 O 0.71795 0.74563 0.27388
 Zr255 Zr 0.82577 0.72685 0.22081
 O256 O 0.79826 0.67902 0.25517
 Zr257 Zr 0.74781 0.72994 0.15531
 O258 O 0.71666 0.68284 0.18693
 Zr259 Zr 0.75973 0.70413 0.30038
 O260 O 0.79081 0.75197 0.26912
 Zr261 Zr 0.68189 0.70869 0.23511
 O262 O 0.70913 0.75640 0.20000
 Zr263 Zr 0.75887 0.64442 0.21689
 O264 O 0.79028 0.68907 0.18152
 O265 O 0.78560 0.76706 0.19162
 O266 O 0.72184 0.66751 0.26378
 C267 C 0.73342 0.82463 0.14931
 C268 C 0.83835 0.81968 0.24445
 C269 C 0.83826 0.73315 0.12605
 C270 C 0.77129 0.60881 0.30540
 C271 C 0.67051 0.69074 0.32902
 C272 C 0.66810 0.61486 0.22112
 H273 H 0.70099 0.75966 0.29487
 H274 H 0.69977 0.66729 0.16688
 H275 H 0.79999 0.78872 0.17578
 H276 H 0.81962 0.66161 0.26787
 H277 H 0.82830 0.72558 0.33330
 H278 H 0.87144 0.70633 0.28308
 H279 H 0.63787 0.69375 0.16942
 H280 H 0.67500 0.74558 0.12970
 H281 H 0.73470 0.75926 0.35370
 H282 H 0.76681 0.81168 0.31362
 H283 H 0.73677 0.61138 0.14685
 H284 H 0.75957 0.66769 0.10699
 H285 H 0.70269 0.85642 0.24580
 H286 H 0.64143 0.77684 0.23582
 H287 H 0.86308 0.66497 0.18722
 H288 H 0.83020 0.61074 0.21999
 O289 O 0.76126 0.14002 0.78832
 O290 O 0.72068 0.13649 0.72364
 O291 O 0.85804 0.21494 0.76695
 O292 O 0.86959 0.27746 0.73501
 O293 O 0.78738 0.23402 0.86898
 O294 O 0.72419 0.27113 0.88163
 O295 O 0.75349 0.33559 0.66566
 O296 O 0.80573 0.29071 0.64878
 O297 O 0.65133 0.25390 0.68334
 O298 O 0.63884 0.19714 0.72419
 O299 O 0.67445 0.35208 0.76676
 O300 O 0.71970 0.36238 0.82436
 O301 O 0.73214 0.37093 0.72251
 O302 O 0.77237 0.37463 0.79211
 O303 O 0.63684 0.29843 0.74231
 O304 O 0.62796 0.22889 0.78247
 O305 O 0.70343 0.28181 0.64683
 O306 O 0.76734 0.23772 0.63208
 O307 O 0.74059 0.17442 0.84619
 O308 O 0.68482 0.22262 0.86185
 O309 O 0.84070 0.25831 0.83138
 O310 O 0.85032 0.31895 0.78667
 O311 O 0.81982 0.16118 0.74283
 O312 O 0.77442 0.15638 0.68391
 Zr313 Zr 0.76050 0.18500 0.74126
 O314 O 0.72211 0.22261 0.70546
 Zr315 Zr 0.81735 0.26499 0.77090
 O316 O 0.78235 0.30605 0.73503
 Zr317 Zr 0.73760 0.23688 0.82754
 O318 O 0.69911 0.27782 0.79514
 Zr319 Zr 0.75506 0.27423 0.68531
 O320 O 0.79499 0.23446 0.71777
 Zr321 Zr 0.67595 0.24711 0.74284
 O322 O 0.71089 0.20455 0.77762
 Zr323 Zr 0.73327 0.32707 0.77095
 O324 O 0.77083 0.28919 0.80858
 O325 O 0.78520 0.21468 0.79242
 O326 O 0.70745 0.29772 0.72004
 C327 C 0.75286 0.14171 0.82718
 C328 C 0.85307 0.17686 0.75669
 C329 C 0.82517 0.24342 0.86464
 C330 C 0.74148 0.36861 0.68389
 C331 C 0.66595 0.27121 0.65093
 C332 C 0.64157 0.33666 0.75176
 H333 H 0.71047 0.20632 0.68233
 H334 H 0.67714 0.28776 0.81344
 H335 H 0.80258 0.19602 0.80887
 H336 H 0.79974 0.32889 0.72524
 H337 H 0.82849 0.27261 0.65746
 H338 H 0.86157 0.29779 0.71366
 H339 H 0.61998 0.25298 0.79950
 H340 H 0.66924 0.20239 0.84511
 H341 H 0.74243 0.22233 0.62444
 H342 H 0.79535 0.17358 0.67034
 H343 H 0.70342 0.34468 0.84287
 H344 H 0.74199 0.29576 0.88118
 H345 H 0.73552 0.10993 0.72621
 H346 H 0.65313 0.17180 0.73318
 H347 H 0.83618 0.33179 0.81046
 H348 H 0.79066 0.38210 0.76904
 O349 O 0.29033 0.87835 0.80500
 O350 O 0.33451 0.88581 0.74470
 O351 O 0.17404 0.85763 0.74261
 O352 O 0.14695 0.81032 0.69962
 O353 O 0.21153 0.78303 0.84706
 O354 O 0.25823 0.72425 0.85140
 O355 O 0.25056 0.73533 0.62591
 O356 O 0.21469 0.79886 0.62303
 O357 O 0.36616 0.76578 0.67458
 O358 O 0.38765 0.80467 0.73294
 O359 O 0.30069 0.66585 0.73246
 O360 O 0.23578 0.66417 0.77443
 O361 O 0.24815 0.68117 0.67040
 O362 O 0.20198 0.66891 0.72206
 O363 O 0.35793 0.70476 0.72816
 O364 O 0.38306 0.75409 0.77633
 O365 O 0.31616 0.78152 0.62839
 O366 O 0.27001 0.83524 0.62108
 O367 O 0.27904 0.82604 0.85034
 O368 O 0.31137 0.76047 0.85502
 O369 O 0.16386 0.80052 0.79903
 O370 O 0.14295 0.75655 0.74124
 O371 O 0.23138 0.89679 0.74764
 O372 O 0.28482 0.90072 0.70124
 Zr373 Zr 0.27854 0.85309 0.74571
 O374 O 0.30712 0.81463 0.70233
 Zr375 Zr 0.19413 0.79625 0.74222
 O376 O 0.21968 0.75514 0.69894
 Zr377 Zr 0.26529 0.77562 0.81174
 O378 O 0.29483 0.73439 0.77122
 Zr379 Zr 0.26354 0.78620 0.66398
 O380 O 0.23503 0.82848 0.70425
 Zr381 Zr 0.33616 0.76559 0.73260
 O382 O 0.31066 0.80637 0.77725
 Zr383 Zr 0.25245 0.70865 0.72972
 O384 O 0.22177 0.74668 0.77346
 O385 O 0.23558 0.82393 0.78231
 O386 O 0.29517 0.73746 0.69184
 C387 C 0.28926 0.86323 0.84178
 C388 C 0.19266 0.89245 0.74441
 C389 C 0.17534 0.79407 0.83645
 C390 C 0.24616 0.69682 0.63380
 C391 C 0.35338 0.77456 0.63784
 C392 C 0.33953 0.67009 0.73207
 H393 H 0.32684 0.83148 0.68668
 H394 H 0.30818 0.71336 0.78875
 H395 H 0.22298 0.84383 0.80174
 H396 H 0.19811 0.74334 0.68108
 H397 H 0.19907 0.82202 0.63524
 H398 H 0.15051 0.79255 0.67493
 H399 H 0.37168 0.73636 0.79830
 H400 H 0.33605 0.77564 0.84640
 H401 H 0.29200 0.85354 0.63116
 H402 H 0.26372 0.89617 0.67972
 H403 H 0.25845 0.66218 0.79460
 H404 H 0.23259 0.71040 0.84319
 H405 H 0.33050 0.91369 0.75690
 H406 H 0.38208 0.82687 0.75327
 H407 H 0.14776 0.73498 0.76240
 H408 H 0.17796 0.68666 0.71732
 O409 O 0.26121 0.39481 0.74231
 O410 O 0.22433 0.39658 0.80902
 O411 O 0.36228 0.31698 0.77258
 O412 O 0.37386 0.25191 0.79183
 O413 O 0.29057 0.29983 0.66066
 O414 O 0.22666 0.26275 0.64884
 O415 O 0.25605 0.19593 0.86225
 O416 O 0.30959 0.24075 0.87967
 O417 O 0.15434 0.27893 0.84631
 O418 O 0.14538 0.33944 0.80788
 O419 O 0.17598 0.18466 0.76052
 O420 O 0.22369 0.17589 0.70113
 O421 O 0.23563 0.16271 0.80362
 O422 O 0.27153 0.15781 0.73615
 O423 O 0.13871 0.23812 0.78583
 O424 O 0.13025 0.30741 0.74890
 O425 O 0.20679 0.25035 0.88224
 O426 O 0.27085 0.29295 0.89853
 O427 O 0.24099 0.35982 0.68466
 O428 O 0.18996 0.31255 0.66533
 O429 O 0.34454 0.27788 0.69906
 O430 O 0.35262 0.21507 0.74177
 O431 O 0.32308 0.37308 0.78745
 O432 O 0.28016 0.37794 0.84549
 Zr433 Zr 0.26402 0.34901 0.78881
 O434 O 0.22608 0.31094 0.82470
 Zr435 Zr 0.32072 0.26920 0.75905
 O436 O 0.28522 0.22770 0.79363
 Zr437 Zr 0.24116 0.29781 0.70226
 O438 O 0.20181 0.25788 0.73418
 Zr439 Zr 0.25827 0.25823 0.84407
 O440 O 0.29785 0.29869 0.81227
 Zr441 Zr 0.17921 0.28790 0.78716
 O442 O 0.21435 0.32977 0.75220
 Zr443 Zr 0.23568 0.20792 0.75713
 O444 O 0.27420 0.24549 0.72084
 O445 O 0.28941 0.32040 0.73732
 O446 O 0.21021 0.23615 0.80871
 C447 C 0.25074 0.39307 0.70389
 C448 C 0.35754 0.35532 0.78194
 C449 C 0.32840 0.29035 0.66492
 C450 C 0.24481 0.16344 0.84233
 C451 C 0.16917 0.26073 0.87830
 C452 C 0.14294 0.20036 0.77480
 H453 H 0.21482 0.32687 0.84818
 H454 H 0.17967 0.24869 0.71553
 H455 H 0.30706 0.33956 0.72173
 H456 H 0.30249 0.20450 0.80301
 H457 H 0.33191 0.25976 0.87205
 H458 H 0.36495 0.23576 0.81610
 H459 H 0.12412 0.28514 0.72880
 H460 H 0.17084 0.32743 0.68367
 H461 H 0.24644 0.30927 0.90575
 H462 H 0.29755 0.35825 0.86089
 H463 H 0.20081 0.18995 0.68703
 H464 H 0.24477 0.23832 0.64908
 H465 H 0.23816 0.42357 0.80553
 H466 H 0.15698 0.36392 0.79398
 H467 H 0.33823 0.20328 0.71747
 H468 H 0.29477 0.15478 0.75548
 O469 O 0.77106 0.65785 0.64648
 O470 O 0.81480 0.63245 0.70195
 O471 O 0.66755 0.69911 0.71934
 O472 O 0.65706 0.74567 0.77040
 O473 O 0.71582 0.77834 0.62170
 O474 O 0.77542 0.81801 0.61416
 O475 O 0.78523 0.78703 0.83924
 O476 O 0.73451 0.73396 0.84178
 O477 O 0.88311 0.73752 0.77420
 O478 O 0.89022 0.69957 0.71424
 O479 O 0.83885 0.85256 0.74078
 O480 O 0.77643 0.87597 0.70007
 O481 O 0.78338 0.84537 0.80040
 O482 O 0.74007 0.87271 0.74920
 O483 O 0.88355 0.80134 0.72509
 O484 O 0.88887 0.74902 0.67042
 O485 O 0.83683 0.73194 0.82602
 O486 O 0.78049 0.68493 0.83331
 O487 O 0.76612 0.71573 0.60707
 O488 O 0.81667 0.77047 0.60477
 O489 O 0.66802 0.76576 0.67078
 O490 O 0.66324 0.80410 0.73686
 O491 O 0.71325 0.64948 0.70106
 O492 O 0.76523 0.62802 0.74899
 Zr493 Zr 0.76973 0.67900 0.70819
 O494 O 0.81133 0.70465 0.75073
 Zr495 Zr 0.70254 0.75368 0.72492
 O496 O 0.74128 0.78250 0.76880
 Zr497 Zr 0.77128 0.76402 0.65057
 O498 O 0.81249 0.79320 0.69080
 Zr499 Zr 0.78018 0.73876 0.79605
 O500 O 0.73781 0.70907 0.75607
 Zr501 Zr 0.84783 0.74818 0.72087
 O502 O 0.80967 0.71892 0.67689
 Zr503 Zr 0.78107 0.82346 0.73874
 O504 O 0.73903 0.79821 0.69533
 O505 O 0.73277 0.72195 0.67852
 O506 O 0.81912 0.78115 0.76819
 C507 C 0.76797 0.67636 0.61142
 C508 C 0.67682 0.66219 0.70775
 C509 C 0.67884 0.77604 0.63393
 C510 C 0.78534 0.82642 0.83532
 C511 C 0.87346 0.73216 0.81230
 C512 C 0.87479 0.83919 0.73229
 H513 H 0.82834 0.68252 0.76280
 H514 H 0.82899 0.81241 0.67412
 H515 H 0.71390 0.70926 0.65822
 H516 H 0.72468 0.79666 0.79000
 H517 H 0.71312 0.71563 0.83030
 H518 H 0.66800 0.75657 0.79684
 H519 H 0.88325 0.77415 0.65401
 H520 H 0.83486 0.74623 0.60730
 H521 H 0.79529 0.66308 0.81819
 H522 H 0.74503 0.63529 0.77049
 H523 H 0.79943 0.87521 0.68040
 H524 H 0.76038 0.83981 0.62923
 H525 H 0.80228 0.60772 0.68890
 H526 H 0.87610 0.67753 0.69854
 H527 H 0.67135 0.82662 0.71792
 H528 H 0.71625 0.86117 0.76373
 O529 O 0.23417 0.62793 0.28328
 O530 O 0.18875 0.63614 0.22387
 O531 O 0.34703 0.67582 0.23768
 O532 O 0.36802 0.73468 0.20772
 O533 O 0.30266 0.71092 0.35565
 O534 O 0.25368 0.76153 0.37813
 O535 O 0.25509 0.82377 0.15996
 O536 O 0.29549 0.76807 0.13588
 O537 O 0.14501 0.77315 0.19878
 O538 O 0.12759 0.71498 0.23795
 O539 O 0.20493 0.85427 0.27558
 O540 O 0.26139 0.85246 0.32152
 O541 O 0.26395 0.85974 0.21986
 O542 O 0.30851 0.85114 0.28281
 O543 O 0.15085 0.81234 0.26310
 O544 O 0.13298 0.74562 0.29861
 O545 O 0.19315 0.77628 0.14855
 O546 O 0.24367 0.72732 0.12411
 O547 O 0.24042 0.66491 0.34296
 O548 O 0.20166 0.72362 0.36744
 O549 O 0.35247 0.71932 0.30778
 O550 O 0.36851 0.77697 0.26123
 O551 O 0.29265 0.63408 0.22479
 O552 O 0.23827 0.64179 0.17732
 Zr553 Zr 0.24160 0.67205 0.23556
 O554 O 0.20822 0.71979 0.20697
 Zr555 Zr 0.32103 0.73363 0.25231
 O556 O 0.29118 0.78362 0.22317
 Zr557 Zr 0.24900 0.72585 0.32335
 O558 O 0.21652 0.77595 0.29826
 Zr559 Zr 0.24815 0.76224 0.17966
 O560 O 0.28185 0.71227 0.20491
 Zr561 Zr 0.17707 0.75439 0.25170
 O562 O 0.20622 0.70336 0.28009
 Zr563 Zr 0.25642 0.81586 0.26734
 O564 O 0.28986 0.76838 0.29744
 O565 O 0.28238 0.69197 0.28067
 O566 O 0.21495 0.79677 0.22226
 C567 C 0.23474 0.63106 0.32307
 C568 C 0.33117 0.64100 0.22708
 C569 C 0.34011 0.71077 0.34457
 C570 C 0.26238 0.85724 0.18012
 C571 C 0.15631 0.77972 0.16142
 C572 C 0.16645 0.84753 0.27206
 H573 H 0.18883 0.70773 0.18680
 H574 H 0.20170 0.79034 0.32062
 H575 H 0.29722 0.66862 0.29345
 H576 H 0.31173 0.80142 0.20987
 H577 H 0.31377 0.74408 0.13990
 H578 H 0.36159 0.75700 0.18788
 H579 H 0.13904 0.76499 0.32156
 H580 H 0.17878 0.70873 0.35413
 H581 H 0.22049 0.70808 0.12670
 H582 H 0.25896 0.65458 0.15923
 H583 H 0.24519 0.83886 0.34330
 H584 H 0.27636 0.78115 0.37386
 H585 H 0.19604 0.60642 0.22522
 H586 H 0.13583 0.68702 0.24698
 H587 H 0.36307 0.79144 0.28769
 H588 H 0.32738 0.84972 0.25904
 O589 O 0.74265 0.31543 0.33594
 O590 O 0.78319 0.33750 0.27668
 O591 O 0.62909 0.28571 0.27924
 O592 O 0.60540 0.24148 0.23147
 O593 O 0.68682 0.19889 0.36602
 O594 O 0.74280 0.15297 0.36087
 O595 O 0.71514 0.19383 0.13908
 O596 O 0.67001 0.25105 0.14720
 O597 O 0.82762 0.23447 0.18701
 O598 O 0.84935 0.26555 0.24712
 O599 O 0.77931 0.12019 0.22143
 O600 O 0.72646 0.09897 0.27324
 O601 O 0.71964 0.13433 0.17595
 O602 O 0.67897 0.11011 0.23508
 O603 O 0.83121 0.16574 0.22970
 O604 O 0.85108 0.21345 0.28712
 O605 O 0.77338 0.25045 0.14611
 O606 O 0.71908 0.29618 0.14923
 O607 O 0.74736 0.25597 0.37289
 O608 O 0.78943 0.19572 0.36505
 O609 O 0.63264 0.21646 0.32564
 O610 O 0.61376 0.18148 0.26051
 O611 O 0.68119 0.33060 0.29064
 O612 O 0.72766 0.34961 0.23667
 Zr613 Zr 0.73294 0.29643 0.27450
 O614 O 0.76400 0.26956 0.22456
 Zr615 Zr 0.65804 0.22852 0.26711
 O616 O 0.68579 0.19888 0.21613
 Zr617 Zr 0.73786 0.20918 0.32810
 O618 O 0.76888 0.17852 0.27999
 Zr619 Zr 0.72246 0.24084 0.18399
 O620 O 0.69062 0.27182 0.23190
 Zr621 Zr 0.80192 0.22159 0.24522
 O622 O 0.77460 0.25193 0.29643
 Zr623 Zr 0.72682 0.15377 0.23759
 O624 O 0.69552 0.18013 0.28855
 O625 O 0.69834 0.25532 0.30877
 O626 O 0.76220 0.19415 0.20272
 C627 C 0.74801 0.29557 0.36988
 C628 C 0.64322 0.32151 0.28920
 C629 C 0.64848 0.20407 0.35991
 C630 C 0.71515 0.15423 0.14194
 C631 C 0.81177 0.24705 0.15279
 C632 C 0.81721 0.12971 0.22099
 H633 H 0.78004 0.29144 0.21093
 H634 H 0.78659 0.15699 0.29207
 H635 H 0.68426 0.26873 0.33228
 H636 H 0.66469 0.18708 0.19769
 H637 H 0.65191 0.26946 0.16333
 H638 H 0.61050 0.23144 0.20299
 H639 H 0.84735 0.18671 0.30132
 H640 H 0.81041 0.21638 0.35789
 H641 H 0.73692 0.31670 0.16288
 H642 H 0.70290 0.34622 0.21940
 H643 H 0.75233 0.09762 0.28895
 H644 H 0.72362 0.13352 0.34743
 H645 H 0.77495 0.36302 0.29153
 H646 H 0.83995 0.28802 0.26555
 H647 H 0.62376 0.15731 0.27629
 H648 H 0.65680 0.12199 0.21807
 N649 N 0.19960 0.16222 0.09109
 N650 N 0.19919 0.13112 0.06424
 C651 C 0.22897 0.10501 0.07612
 C652 C 0.24795 0.12118 0.11061
 N653 N 0.22887 0.15692 0.11889
 H654 H 0.27265 0.10790 0.12845
 N655 N 0.74346 0.66207 0.54168
 N656 N 0.73970 0.63014 0.51619
 C657 C 0.75922 0.59831 0.53435
 C658 C 0.77479 0.61137 0.57172
 N659 N 0.76429 0.65130 0.57516
 H660 H 0.79005 0.59308 0.59516
 N661 N 0.68224 0.85947 0.10867
 N662 N 0.67919 0.88900 0.08057
 C663 C 0.71625 0.90651 0.07755
 C664 C 0.74225 0.88689 0.10514
 N665 N 0.71961 0.85789 0.12396
 H666 H 0.77468 0.89129 0.10912
 N667 N 0.27844 0.46021 0.68595
 N668 N 0.27911 0.48493 0.65326
 C669 C 0.25183 0.46963 0.62593
 C670 C 0.23452 0.43498 0.64256
 N671 N 0.25195 0.43000 0.67995
 H672 H 0.21411 0.41341 0.62743
 N673 N 0.79491 0.08321 0.84576
 N674 N 0.79860 0.05550 0.87566
 C675 C 0.76684 0.06137 0.90124
 C676 C 0.74337 0.09333 0.88611
 N677 N 0.76193 0.10601 0.85139
 H678 H 0.71580 0.10621 0.89909
 N679 N 0.20355 0.56443 0.33806
 N680 N 0.20119 0.53813 0.36942
 C681 C 0.22667 0.55224 0.39913
 C682 C 0.24444 0.58799 0.38533
 N683 N 0.22925 0.59458 0.34719
 H684 H 0.26485 0.60832 0.40213
 N685 N 0.33668 0.90694 0.87932
 N686 N 0.33738 0.93163 0.91209
 C687 C 0.30005 0.92991 0.92929
 C688 C 0.27644 0.90296 0.90623
 N689 N 0.30047 0.88960 0.87537
 H690 H 0.24453 0.89563 0.90998
 N691 N 0.77862 0.30862 0.43769
 N692 N 0.78308 0.33989 0.46395
 C693 C 0.76066 0.37139 0.44882
 C694 C 0.74267 0.35877 0.41245
 N695 N 0.75463 0.31952 0.40653
 H696 H 0.72452 0.37701 0.39119
 N697 N 0.11278 0.32756 0.13030
 N698 N 0.08454 0.32978 0.10100
 C699 C 0.06342 0.29418 0.10262
 C700 C 0.07924 0.27013 0.13397
 N701 N 0.10987 0.29214 0.15039
 H702 H 0.07135 0.23871 0.14200
 N703 N 0.65046 0.81540 0.57701
 N704 N 0.62158 0.81196 0.54850
 C705 C 0.60066 0.77731 0.55726
 C706 C 0.61724 0.75980 0.59250
 N707 N 0.64807 0.78471 0.60387
 H708 H 0.60943 0.73070 0.60684
 N709 N 0.12762 0.83976 0.86945
 N710 N 0.09782 0.83872 0.89681
 C711 C 0.09753 0.80032 0.91280
 C712 C 0.12869 0.77781 0.89477
 N713 N 0.14662 0.80378 0.86798
 H714 H 0.13577 0.74539 0.89856
 N715 N 0.62791 0.16841 0.42283
 N716 N 0.59909 0.17071 0.45136
 C717 C 0.57406 0.20172 0.43996
 C718 C 0.58824 0.21830 0.40348
 N719 N 0.62178 0.19663 0.39388
 H720 H 0.57656 0.24469 0.38667
 N721 N 0.86438 0.69667 0.06631
 N722 N 0.89673 0.69639 0.04198
 C723 C 0.92001 0.72860 0.05370
 C724 C 0.90082 0.74895 0.08584
 N725 N 0.86615 0.72806 0.09260
 H726 H 0.91090 0.77614 0.10251
 N727 N 0.34851 0.32348 0.60045
 N728 N 0.37812 0.32171 0.57272
 C729 C 0.40391 0.29177 0.58522
 C730 C 0.38911 0.27514 0.62156
 N731 N 0.35452 0.29575 0.62991
 H732 H 0.40157 0.24987 0.63948
 N733 N 0.85123 0.19705 0.91720
 N734 N 0.88339 0.19310 0.94177
 C735 C 0.90595 0.22748 0.93681
 C736 C 0.88666 0.25267 0.90840
 N737 N 0.85247 0.23275 0.89737
 H738 H 0.89615 0.28265 0.89724
 N739 N 0.36354 0.67036 0.40349
 N740 N 0.39520 0.66816 0.42897
 C741 C 0.42225 0.69656 0.41604
 C742 C 0.40626 0.71620 0.38166
 N743 N 0.36967 0.69896 0.37495
 H744 H 0.41882 0.74205 0.36478
 N745 N 0.11560 0.10557 0.18895
 N746 N 0.08833 0.07590 0.18424
 C747 C 0.06619 0.07513 0.21927
 C748 C 0.08054 0.10562 0.24568
 N749 N 0.11130 0.12383 0.22541
 H750 H 0.07137 0.11210 0.27722
 N751 N 0.64022 0.61522 0.66258
 N752 N 0.60852 0.59004 0.66334
 C753 C 0.59237 0.59303 0.70157
 C754 C 0.61506 0.62108 0.72430
 N755 N 0.64453 0.63410 0.69874
 H756 H 0.61146 0.62997 0.75645
 N757 N 0.89060 0.13995 0.80814
 N758 N 0.91476 0.10754 0.81137
 C759 C 0.92304 0.09527 0.77238
 C760 C 0.90321 0.12105 0.74495
 N761 N 0.88392 0.14881 0.76871
 H762 H 0.90270 0.11982 0.71141
 N763 N 0.35090 0.57965 0.18839
 N764 N 0.37971 0.55101 0.18853
 C765 C 0.40597 0.56093 0.21921
 C766 C 0.39238 0.59686 0.23786
 N767 N 0.35801 0.60745 0.21764
 H768 H 0.40496 0.61251 0.26469
 N769 N 0.17914 0.96205 0.72057
 N770 N 0.14784 0.98765 0.71745
 C771 C 0.11658 0.96932 0.73707
 C772 C 0.12934 0.93209 0.75243
 N773 N 0.16849 0.92870 0.74147
 H774 H 0.11163 0.90906 0.76861
 N775 N 0.62149 0.37898 0.33205
 N776 N 0.59360 0.40851 0.33214
 C777 C 0.56912 0.40144 0.29927
 C778 C 0.58266 0.36632 0.27913
 N779 N 0.61530 0.35332 0.30067
 H780 H 0.57169 0.35325 0.25025
 N781 N 0.86121 0.86950 0.29531
 N782 N 0.88901 0.89865 0.30031
 C783 C 0.91157 0.89905 0.26553
 C784 C 0.89694 0.86864 0.23899
 N785 N 0.86545 0.85116 0.25888
 H786 H 0.90690 0.86123 0.20790
 N787 N 0.42202 0.37347 0.81390
 N788 N 0.44969 0.40307 0.81179
 C789 C 0.43735 0.42914 0.78168
 C790 C 0.40132 0.41480 0.76532
 N791 N 0.39297 0.38008 0.78626
 H792 H 0.38316 0.42793 0.74056
 N793 N 0.14833 0.21788 0.93612
 N794 N 0.11630 0.21187 0.96014
 C795 C 0.08828 0.24034 0.94931
 C796 C 0.10424 0.26423 0.91791
 N797 N 0.14178 0.24922 0.91070
 H798 H 0.09004 0.28985 0.90193
 N799 N 0.65061 0.65380 0.39118
 N800 N 0.62279 0.65602 0.42070
 C801 C 0.59777 0.68745 0.41055
 C802 C 0.61083 0.70425 0.37367
 N803 N 0.64375 0.68229 0.36266
 H804 H 0.59903 0.73108 0.35767
 N805 N 0.92912 0.69174 0.84029
 N806 N 0.95608 0.69324 0.87085
 C807 C 0.94965 0.72898 0.89141
 C808 C 0.91751 0.74934 0.87269
 N809 N 0.90569 0.72492 0.84107
 H810 H 0.90406 0.77870 0.88107
 N811 N 0.34418 0.18228 0.42607
 N812 N 0.37492 0.18109 0.45268
 C813 C 0.40026 0.21195 0.44209
 C814 C 0.38435 0.23204 0.40803
 N815 N 0.34938 0.21256 0.39913
 H816 H 0.39577 0.25937 0.39275
 N817 N 0.10026 0.82317 0.13876
 N818 N 0.07265 0.82464 0.10873
 C819 C 0.08062 0.79274 0.08309
 C820 C 0.11427 0.77190 0.09799
 N821 N 0.12563 0.79204 0.13256
 H822 H 0.12812 0.74406 0.08590
 N823 N 0.64397 0.30957 0.58990
 N824 N 0.61186 0.31211 0.56502
 C825 C 0.58495 0.28367 0.57825
 C826 C 0.60155 0.26342 0.61173
 N827 N 0.63835 0.28035 0.61790
 H828 H 0.58855 0.23829 0.62934
 N829 N 0.82933 0.29028 0.09425
 N830 N 0.86075 0.29817 0.06997
 C831 C 0.89091 0.27254 0.08186
 C832 C 0.87702 0.24849 0.11408
 N833 N 0.83847 0.26050 0.12073
 H834 H 0.89302 0.22428 0.13054
 N835 N 0.37861 0.81032 0.57784
 N836 N 0.40774 0.80766 0.54985
 C837 C 0.43042 0.77456 0.56004
 C838 C 0.41450 0.75698 0.59552
 N839 N 0.38216 0.78035 0.60542
 H840 H 0.42418 0.72917 0.61130
 N841 N 0.21733 0.09488 0.85220
 N842 N 0.21741 0.06495 0.88001
 C843 C 0.24236 0.07716 0.91093
 C844 C 0.25751 0.11569 0.90147
 N845 N 0.24102 0.12558 0.86455
 H846 H 0.27760 0.13492 0.91987
 N847 N 0.80566 0.54446 0.32316
 N848 N 0.80785 0.51826 0.35465
 C849 C 0.78083 0.53159 0.38302
 C850 C 0.76228 0.56672 0.36836
 N851 N 0.77856 0.57370 0.33100
 H852 H 0.73980 0.58581 0.38366
 N853 N 0.67491 0.13096 0.08305
 N854 N 0.67500 0.10062 0.05536
 C855 C 0.71040 0.08004 0.06035
 C856 C 0.73202 0.09871 0.09204
 N857 N 0.70891 0.13040 0.10514
 H858 H 0.76089 0.08935 0.10532
 N859 N 0.21859 0.68221 0.56527
 N860 N 0.21365 0.65070 0.53946
 C861 C 0.23027 0.61759 0.55817
 C862 C 0.24545 0.62952 0.59628
 N863 N 0.23747 0.67009 0.59951
 H864 H 0.26081 0.61071 0.61922
 N865 N 0.81360 0.84138 0.90330
 N866 N 0.80938 0.86830 0.93394
 C867 C 0.78001 0.89498 0.92228
 C868 C 0.76660 0.88392 0.88311
 N869 N 0.78849 0.85041 0.87247
 H870 H 0.74318 0.89842 0.86447
 N871 N 0.26340 0.33059 0.45593
 N872 N 0.26834 0.36245 0.48141
 C873 C 0.24324 0.39248 0.46779
 C874 C 0.22286 0.37820 0.43332
 N875 N 0.23618 0.33945 0.42689
 H876 H 0.20246 0.39528 0.41325
 N877 N 0.29723 0.92248 0.16953
 N878 N 0.30162 0.95116 0.14067
 C879 C 0.27734 0.94024 0.10872
 C880 C 0.25790 0.90382 0.11881
 N881 N 0.27119 0.89384 0.15701
 H882 H 0.23647 0.88630 0.10026
 N883 N 0.70654 0.43113 0.66188
 N884 N 0.70539 0.45552 0.62891
 C885 C 0.73645 0.44374 0.60439
 C886 C 0.75657 0.41160 0.62307
 N887 N 0.73707 0.40461 0.65885
 H888 H 0.78116 0.39320 0.61055
 N889 N 0.08432 0.17726 0.81337
 N890 N 0.05931 0.14529 0.81482
 C891 C 0.06925 0.12080 0.78263
 C892 C 0.10089 0.13841 0.76132
 N893 N 0.10933 0.17360 0.78151
 H894 H 0.11674 0.12649 0.73447
 N895 N 0.64399 0.55038 0.19060
 N896 N 0.61169 0.52592 0.19189
 C897 C 0.58582 0.54253 0.21969
 C898 C 0.60334 0.57797 0.23552
 N899 N 0.63957 0.58172 0.21660
 H900 H 0.59130 0.59860 0.25891
 N901 N 0.14398 0.91025 0.30722
 N902 N 0.11242 0.93578 0.30718
 C903 C 0.08655 0.92239 0.27747
 C904 C 0.10324 0.88775 0.25925
 N905 N 0.13899 0.88123 0.27872
 H906 H 0.09085 0.86930 0.23418
 N907 N 0.58212 0.35516 0.71206
 N908 N 0.55931 0.38775 0.70390
 C909 C 0.57275 0.41854 0.72854
 C910 C 0.60439 0.40377 0.75254
 N911 N 0.60915 0.36401 0.74123
 H912 H 0.62236 0.42022 0.77540
 N913 N 0.84009 0.07129 0.17949
 N914 N 0.87041 0.04428 0.17849
 C915 C 0.89571 0.05409 0.21003
 C916 C 0.88013 0.08821 0.23025
 N917 N 0.84554 0.09797 0.21015
 H918 H 0.89190 0.10347 0.25768
 N919 N 0.35381 0.60784 0.77040
 N920 N 0.38428 0.58202 0.77736
 C921 C 0.41468 0.59335 0.75197
 C922 C 0.40178 0.62656 0.72865
 N923 N 0.36359 0.63455 0.74113
 H924 H 0.41843 0.64330 0.70519
 N925 N 0.93347 0.86449 0.69593
 N926 N 0.95852 0.89637 0.69556
 C927 C 0.94737 0.92105 0.72715
 C928 C 0.91443 0.90352 0.74699
 N929 N 0.90686 0.86820 0.72638
 H930 H 0.89776 0.91513 0.77344
 N931 N 0.34402 0.40361 0.33775
 N932 N 0.37414 0.43065 0.33508
 C933 C 0.39814 0.41793 0.30374
 C934 C 0.38206 0.38202 0.28748
 N935 N 0.34843 0.37415 0.30963
 H936 H 0.39262 0.36446 0.26102
   
