data_POSCAR
  _audit_creation_date              2014-09-24
  _audit_creation_method            'ToBaCCo'
  _symmetry_space_group_name_H-M    'P1'
  _symmetry_Int_Tables_number       1
  _symmetry_cell_setting            triclinic
  loop_
  _symmetry_equiv_pos_as_xyz
 x,y,z
_cell_length_a 42.1059
_cell_length_b 41.8184
_cell_length_c 37.4636
_cell_angle_alpha 89.932800
_cell_angle_beta 89.970700
_cell_angle_gamma 90.058700
loop_
  _atom_site_label
  _atom_site_type_symbol
  _atom_site_fract_x
  _atom_site_fract_y
  _atom_site_fract_z
O1 O -0.04404 0.26397 0.05138
 O2 O 0.01283 0.27546 -0.02243
 O3 O -0.04864 0.27598 -0.01671
 O4 O 0.01787 0.26391 0.04546
 O5 O 0.01648 0.21195 0.03505
 O6 O -0.04993 0.22411 -0.02769
 O7 O 0.01158 0.22356 -0.03304
 O8 O -0.04498 0.21208 0.04044
 Cu9 Cu -0.01543 0.27504 0.01562
 Cu10 Cu -0.01686 0.21272 0.00260
 C11 C -0.05415 0.23602 0.05842
 C12 C 0.02186 0.25139 -0.04036
 C13 C -0.06046 0.25220 -0.03298
 C14 C 0.02858 0.23592 0.05076
 O15 O 0.49239 0.80051 0.51762
 O16 O 0.55150 0.79678 0.44579
 O17 O 0.48996 0.80196 0.44833
 O18 O 0.55362 0.79290 0.51545
 O19 O 0.54712 0.74049 0.51411
 O20 O 0.48546 0.74941 0.44559
 O21 O 0.54771 0.74409 0.44486
 O22 O 0.48605 0.74811 0.51522
 Cu23 Cu 0.52248 0.80329 0.48194
 Cu24 Cu 0.51601 0.74025 0.47954
 C25 C 0.47906 0.77515 0.52861
 C26 C 0.56001 0.76993 0.43340
 C27 C 0.47682 0.77710 0.43563
 C28 C 0.56086 0.76506 0.52647
 O29 O 1.04844 0.74964 0.02064
 O30 O 0.98365 0.74866 -0.04623
 O31 O 1.04525 0.73968 -0.04827
 O32 O 0.98716 0.75359 0.02284
 O33 O 0.99114 0.80581 0.01493
 O34 O 1.05169 0.79170 -0.05521
 O35 O 0.98981 0.80073 -0.05359
 O36 O 1.05283 0.80187 0.01351
 Cu37 Cu 1.01573 0.74266 -0.01224
 Cu38 Cu 1.02204 0.80520 -0.02101
 C39 C 1.06124 0.77624 0.02885
 C40 C 0.97537 0.77493 -0.06066
 C41 C 1.05878 0.76305 -0.06355
 C42 C 0.97901 0.78186 0.03090
 O43 O 0.46019 0.19575 0.46971
 O44 O 0.51302 0.19979 0.54761
 O45 O 0.45255 0.19157 0.53888
 O46 O 0.52059 0.20646 0.47890
 O47 O 0.51129 0.25838 0.48192
 O48 O 0.44464 0.24366 0.54290
 O49 O 0.50605 0.25209 0.55055
 O50 O 0.45099 0.24759 0.47415
 Cu51 Cu 0.48741 0.19316 0.50836
 Cu52 Cu 0.47736 0.25565 0.51287
 C53 C 0.44645 0.22089 0.45877
 C54 C 0.51884 0.22655 0.56205
 C55 C 0.43707 0.21520 0.55110
 C56 C 0.52735 0.23506 0.47012
 O57 O 0.71853 0.03284 -0.01991
 O58 O 0.71608 -0.03730 0.03989
 O59 O 0.71488 0.02394 0.04896
 O60 O 0.71791 -0.02890 -0.02892
 O61 O 0.77032 -0.02956 -0.02662
 O62 O 0.76733 0.02517 0.05096
 O63 O 0.76843 -0.03661 0.04295
 O64 O 0.77095 0.03264 -0.01733
 Cu65 Cu 0.71161 -0.00237 0.00961
 Cu66 Cu 0.77456 -0.00224 0.01260
 C67 C 0.74524 0.04479 -0.02851
 C68 C 0.74189 -0.04859 0.05207
 C69 C 0.74045 0.03366 0.06317
 C70 C 0.74439 -0.03842 -0.04096
 O71 O 0.20091 0.46201 0.54159
 O72 O 0.19086 0.52765 0.47639
 O73 O 0.19254 0.46585 0.47306
 O74 O 0.19577 0.52428 0.54605
 O75 O 0.24775 0.52835 0.53950
 O76 O 0.24465 0.46879 0.46684
 O77 O 0.24300 0.53080 0.47074
 O78 O 0.25297 0.46604 0.53592
 Cu79 Cu 0.18982 0.49468 0.51007
 Cu80 Cu 0.25232 0.49874 0.50278
 C81 C 0.22878 0.45275 0.54959
 C82 C 0.21537 0.54023 0.46232
 C83 C 0.21789 0.45744 0.45742
 C84 C 0.22213 0.53658 0.55493
 O85 O 0.30177 0.96650 -0.03632
 O86 O 0.31040 1.03000 0.03144
 O87 O 0.30970 0.96773 0.03288
 O88 O 0.30444 1.02868 -0.03774
 O89 O 0.25238 1.03051 -0.03102
 O90 O 0.25744 0.96778 0.03815
 O91 O 0.25831 1.03068 0.03824
 O92 O 0.24962 0.96899 -0.03066
 Cu93 Cu 0.31181 0.99804 -0.00300
 Cu94 Cu 0.24923 0.99966 0.00460
 C95 C 0.27410 0.95733 -0.04541
 C96 C 0.28568 1.04123 0.04625
 C97 C 0.28452 0.95708 0.04721
 C98 C 0.27758 1.03993 -0.04656
 O99 O 0.76229 0.52827 0.54026
 O100 O 0.74599 0.46511 0.47519
 O101 O 0.75708 0.52652 0.47072
 O102 O 0.74763 0.46805 0.54409
 O103 O 0.69657 0.47983 0.54693
 O104 O 0.70565 0.53674 0.47313
 O105 O 0.69469 0.47602 0.47720
 O106 O 0.71132 0.54064 0.54207
 Cu107 Cu 0.75840 0.49597 0.50727
 Cu108 Cu 0.69691 0.50939 0.51025
 C109 C 0.73980 0.54527 0.55219
 C110 C 0.71773 0.45959 0.46522
 C111 C 0.73273 0.54137 0.45933
 C112 C 0.72031 0.46401 0.55789
 C113 C 0.24670 0.23288 0.21663
 C114 C 0.22627 0.25962 0.21310
 C115 C 0.23003 0.28590 0.23584
 C116 C 0.25261 0.28573 0.26331
 C117 C 0.27213 0.25857 0.26819
 C118 C 0.26885 0.23247 0.24479
 H119 H 0.28277 0.21115 0.24927
 H120 H 0.21516 0.30678 0.23200
 C121 C 0.78986 0.77422 0.23507
 C122 C 0.81537 0.75214 0.23537
 C123 C 0.81471 0.72670 0.25979
 C124 C 0.78878 0.72169 0.28262
 C125 C 0.76300 0.74347 0.28214
 C126 C 0.76421 0.76964 0.25854
 H127 H 0.74586 0.78770 0.25964
 H128 H 0.83437 0.70995 0.26041
 C129 C 0.76734 0.24574 0.24708
 C130 C 0.75000 0.21663 0.24655
 C131 C 0.72749 0.21089 0.27363
 C132 C 0.72191 0.23324 0.30074
 C133 C 0.73910 0.26226 0.30091
 C134 C 0.76114 0.26839 0.27371
 H135 H 0.77476 0.29042 0.27425
 H136 H 0.71305 0.18948 0.27312
 C137 C 0.23216 0.74093 0.22052
 C138 C 0.25764 0.76284 0.21680
 C139 C 0.28281 0.76147 0.24142
 C140 C 0.28282 0.73955 0.26992
 C141 C 0.25681 0.71833 0.27423
 C142 C 0.23197 0.71935 0.24915
 H143 H 0.21158 0.70384 0.25196
 H144 H 0.30348 0.77642 0.23736
 C145 C 0.70858 0.25238 0.73117
 C146 C 0.73604 0.27200 0.73173
 C147 C 0.76047 0.26531 0.75601
 C148 C 0.75815 0.23998 0.78050
 C149 C 0.73058 0.22056 0.78039
 C150 C 0.70659 0.22666 0.75537
 H151 H 0.68650 0.21053 0.75446
 H152 H 0.78187 0.27974 0.75528
 C153 C 0.30186 0.74829 0.71858
 C154 C 0.27283 0.73138 0.71586
 C155 C 0.24793 0.73871 0.73963
 C156 C 0.25159 0.76184 0.76667
 C157 C 0.28101 0.77817 0.76945
 C158 C 0.30570 0.77090 0.74585
 H159 H 0.32830 0.78306 0.74889
 H160 H 0.22516 0.72718 0.73613
 C161 C 0.20777 0.24995 0.70729
 C162 C 0.23375 0.22838 0.70697
 C163 C 0.23428 0.20334 0.73220
 C164 C 0.21023 0.19979 0.75794
 C165 C 0.18423 0.22113 0.75761
 C166 C 0.18327 0.24570 0.73215
 H167 H 0.16313 0.26184 0.73167
 H168 H 0.25281 0.18552 0.73117
 C169 C 0.76618 0.75025 0.70329
 C170 C 0.74793 0.77864 0.70475
 C171 C 0.75511 0.80188 0.73038
 C172 C 0.77933 0.79731 0.75571
 C173 C 0.79789 0.76906 0.75408
 C174 C 0.79138 0.74632 0.72754
 H175 H 0.80643 0.72540 0.72575
 H176 H 0.74152 0.82389 0.73053
 C177 C 0.28901 0.06697 0.07272
 C178 C 0.26260 0.08255 0.08689
 C179 C 0.26527 0.10943 0.11200
 N180 N 0.23871 0.12524 0.12235
 N181 N 0.24057 0.14983 0.14480
 C182 C 0.26909 0.15952 0.15782
 N183 N 0.29567 0.14362 0.14761
 N184 N 0.29381 0.11905 0.12506
 C185 C 0.27145 0.18661 0.18277
 C186 C 0.24520 0.20557 0.19124
 H187 H 0.23900 0.07539 0.07861
 H188 H 0.29456 0.19214 0.19381
 H189 H 0.31270 0.07447 0.08028
 H190 H 0.22331 0.20081 0.17729
 C191 C 0.74746 0.57019 0.57834
 C192 C 0.72847 0.59697 0.58375
 C193 C 0.73789 0.62201 0.60923
 N194 N 0.72580 0.65197 0.60641
 N195 N 0.73466 0.67482 0.62912
 C196 C 0.75577 0.66844 0.65562
 N197 N 0.76753 0.63839 0.65868
 N198 N 0.75892 0.61566 0.63579
 C199 C 0.76512 0.69299 0.68163
 C200 C 0.76013 0.72553 0.67562
 H201 H 0.70739 0.60048 0.56767
 H202 H 0.77550 0.68491 0.70645
 H203 H 0.76996 0.56832 0.59221
 H204 H 0.74992 0.73287 0.65041
 C205 C 0.74071 0.92590 0.07600
 C206 C 0.76795 0.91341 0.09207
 C207 C 0.76656 0.88769 0.11883
 N208 N 0.79358 0.87791 0.13525
 N209 N 0.79276 0.85472 0.15964
 C210 C 0.76485 0.84047 0.16853
 N211 N 0.73784 0.85022 0.15209
 N212 N 0.73865 0.87345 0.12774
 C213 C 0.76360 0.81423 0.19465
 C214 C 0.79056 0.80330 0.21251
 H215 H 0.79107 0.92324 0.08561
 H216 H 0.74108 0.80217 0.19854
 H217 H 0.71766 0.91618 0.08300
 H218 H 0.81318 0.81489 0.20775
 C219 C 0.23362 0.42615 0.57471
 C220 C 0.20870 0.40702 0.58673
 C221 C 0.21397 0.37915 0.61002
 N222 N 0.18947 0.35921 0.61773
 N223 N 0.19391 0.33366 0.63840
 C224 C 0.22301 0.32711 0.65223
 N225 N 0.24750 0.34713 0.64465
 N226 N 0.24308 0.37263 0.62388
 C227 C 0.22818 0.29903 0.67526
 C228 C 0.20420 0.27677 0.68178
 H229 H 0.18470 0.41192 0.57786
 H230 H 0.25117 0.29610 0.68779
 H231 H 0.25773 0.42067 0.58271
 H232 H 0.18070 0.28109 0.67104
 C233 C 0.92330 0.23071 0.08771
 C234 C 0.90810 0.25571 0.10532
 C235 C 0.88476 0.24964 0.13374
 N236 N 0.86590 0.27366 0.14566
 N237 N 0.84415 0.26816 0.17080
 C238 C 0.84065 0.23848 0.18507
 N239 N 0.85973 0.21458 0.17342
 N240 N 0.88134 0.22003 0.14817
 C241 C 0.81626 0.23162 0.21206
 C242 C 0.79255 0.25345 0.22089
 H243 H 0.91246 0.28019 0.09718
 H244 H 0.81634 0.20821 0.22446
 H245 H 0.91776 0.20621 0.09482
 H246 H 0.79374 0.27760 0.21049
 C247 C 0.45534 0.77787 0.55722
 C248 C 0.43941 0.75164 0.57169
 C249 C 0.41566 0.75555 0.60027
 N250 N 0.39991 0.72974 0.61341
 N251 N 0.37813 0.73321 0.63898
 C252 C 0.37137 0.76263 0.65236
 N253 N 0.38719 0.78836 0.63930
 N254 N 0.40892 0.78489 0.61377
 C255 C 0.34689 0.76731 0.67989
 C256 C 0.32852 0.74233 0.69350
 H257 H 0.44427 0.72782 0.56177
 H258 H 0.34215 0.79158 0.68840
 H259 H 0.45033 0.80162 0.56726
 H260 H 0.33249 0.71828 0.68381
 C261 C 0.08456 0.77808 0.05508
 C262 C 0.09567 0.75160 0.07395
 C263 C 0.11956 0.75499 0.10238
 N264 N 0.13258 0.72862 0.11755
 N265 N 0.15442 0.73146 0.14307
 C266 C 0.16392 0.76077 0.15452
 N267 N 0.15073 0.78713 0.13955
 N268 N 0.12898 0.78429 0.11395
 C269 C 0.18868 0.76432 0.18192
 C270 C 0.20585 0.73818 0.19450
 H271 H 0.08694 0.72788 0.06770
 H272 H 0.19423 0.78810 0.19150
 H273 H 0.09420 0.80150 0.06116
 H274 H 0.19859 0.71431 0.18675
 C275 C 0.54065 0.22743 0.59253
 C276 C 0.55939 0.25401 0.60009
 C277 C 0.58301 0.25309 0.62894
 N278 N 0.60922 0.27197 0.62746
 N279 N 0.63132 0.27029 0.65287
 C280 C 0.62778 0.24991 0.68087
 N281 N 0.60131 0.23147 0.68264
 N282 N 0.57943 0.23288 0.65705
 C283 C 0.65194 0.24729 0.70898
 C284 C 0.68341 0.25673 0.70372
 H285 H 0.55852 0.27477 0.58280
 H286 H 0.64467 0.23667 0.73402
 H287 H 0.54407 0.20554 0.60755
 H288 H 0.68984 0.26739 0.67837
 C289 C 0.74696 0.07342 0.94892
 C290 C 0.72182 0.08342 0.92756
 C291 C 0.72446 0.11231 0.90540
 N292 N 0.70635 0.11557 0.87568
 N293 N 0.70923 0.14136 0.85499
 C294 C 0.73003 0.16500 0.86356
 N295 N 0.74772 0.16198 0.89361
 N296 N 0.74512 0.13604 0.91405
 C297 C 0.73402 0.19329 0.84072
 C298 C 0.72584 0.19290 0.80467
 H299 H 0.70055 0.06894 0.92563
 H300 H 0.74472 0.21436 0.85236
 H301 H 0.76921 0.08647 0.94822
 H302 H 0.71363 0.17214 0.79412
 C303 C 0.21168 0.56560 0.43544
 C304 C 0.23734 0.58468 0.42531
 C305 C 0.23569 0.60768 0.39571
 N306 N 0.25935 0.62938 0.39127
 N307 N 0.25906 0.64948 0.36367
 C308 C 0.23524 0.64842 0.33928
 N309 N 0.21163 0.62664 0.34365
 N310 N 0.21178 0.60669 0.37142
 C311 C 0.23525 0.66962 0.30790
 C312 C 0.25518 0.69633 0.30560
 H313 H 0.25969 0.58251 0.43942
 H314 H 0.21945 0.66336 0.28632
 H315 H 0.18862 0.56914 0.42328
 H316 H 0.27019 0.70141 0.32833
 C317 C 0.26990 0.93461 0.92790
 C318 C 0.29500 0.91885 0.91121
 C319 C 0.28918 0.89618 0.88196
 N320 N 0.31132 0.87389 0.87347
 N321 N 0.30592 0.85297 0.84736
 C322 C 0.27836 0.85384 0.82853
 N323 N 0.25646 0.87643 0.83667
 N324 N 0.26171 0.89713 0.86300
 C325 C 0.27170 0.83060 0.80014
 C326 C 0.28795 0.80174 0.79771
 H327 H 0.31915 0.92234 0.92038
 H328 H 0.25250 0.83560 0.78172
 H329 H 0.24578 0.92893 0.91998
 H330 H 0.30818 0.79735 0.81488
 C331 C 0.71182 0.43403 0.43918
 C332 C 0.73284 0.40847 0.43607
 C333 C 0.73026 0.38422 0.40793
 N334 N 0.74519 0.35573 0.41197
 N335 N 0.74476 0.33412 0.38590
 C336 C 0.72975 0.34041 0.35462
 N337 N 0.71493 0.36898 0.35048
 N338 N 0.71504 0.39047 0.37674
 C339 C 0.73070 0.31740 0.32504
 C340 C 0.73664 0.28507 0.33081
 H341 H 0.75203 0.40604 0.45514
 H342 H 0.72604 0.32588 0.29821
 H343 H 0.69072 0.43507 0.42270
 H344 H 0.73780 0.27587 0.35783
 C345 C 0.04331 0.25581 0.93174
 C346 C 0.05407 0.23038 0.91090
 C347 C 0.07727 0.23454 0.88197
 N348 N 0.08731 0.20865 0.86340
 N349 N 0.10873 0.21176 0.83748
 C350 C 0.12089 0.24091 0.82914
 N351 N 0.11074 0.26687 0.84760
 N352 N 0.08930 0.26375 0.87356
 C353 C 0.14524 0.24447 0.80127
 C354 C 0.15790 0.21809 0.78358
 H355 H 0.04557 0.20635 0.91608
 H356 H 0.15446 0.26816 0.79578
 H357 H 0.05185 0.27978 0.92632
 H358 H 0.14910 0.19450 0.79009
 C359 C 0.58437 0.76945 0.40534
 C360 C 0.60480 0.74367 0.40031
 C361 C 0.63079 0.74527 0.37404
 N362 N 0.65673 0.72627 0.37764
 N363 N 0.68076 0.72836 0.35455
 C364 C 0.67958 0.74934 0.32684
 N365 N 0.65345 0.76795 0.32297
 N366 N 0.62959 0.76610 0.34624
 C367 C 0.70575 0.75208 0.30098
 C368 C 0.73628 0.74067 0.30804
 H369 H 0.60318 0.72302 0.41770
 H370 H 0.70064 0.76379 0.27587
 H371 H 0.58810 0.79122 0.39021
 H372 H 0.74061 0.72902 0.33339
 C373 C 0.94789 0.77660 0.91539
 C374 C 0.93429 0.75005 0.89910
 C375 C 0.90522 0.75371 0.87779
 N376 N 0.90014 0.73524 0.84859
 N377 N 0.87437 0.73959 0.82849
 C378 C 0.85256 0.76222 0.83722
 N379 N 0.85732 0.78017 0.86684
 N380 N 0.88328 0.77615 0.88662
 C381 C 0.82453 0.76807 0.81484
 C382 C 0.82494 0.76217 0.77825
 H383 H 0.94576 0.72692 0.90068
 H384 H 0.80390 0.77872 0.82724
 H385 H 0.93784 0.80004 0.91037
 H386 H 0.84537 0.75012 0.76694
 C387 C 0.42516 0.21875 0.42781
 C388 C 0.40512 0.24381 0.41831
 C389 C 0.38347 0.24189 0.38763
 N390 N 0.36042 0.26420 0.38361
 N391 N 0.34058 0.26292 0.35600
 C392 C 0.34316 0.23939 0.33121
 N393 N 0.36640 0.21719 0.33504
 N394 N 0.38614 0.21835 0.36283
 C395 C 0.32153 0.23812 0.30037
 C396 C 0.29421 0.25696 0.29913
 H397 H 0.40451 0.26525 0.43451
 H398 H 0.32773 0.22264 0.27834
 H399 H 0.42463 0.19664 0.41280
 H400 H 0.28901 0.27180 0.32204
 C401 C 0.74401 0.93991 0.92820
 C402 C 0.77118 0.92668 0.91286
 C403 C 0.76869 0.90406 0.88277
 N404 N 0.79510 0.89075 0.86819
 N405 N 0.79268 0.86990 0.84136
 C406 C 0.76372 0.86166 0.82820
 N407 N 0.73743 0.87503 0.84273
 N408 N 0.73985 0.89581 0.86944
 C409 C 0.75990 0.83821 0.79931
 C410 C 0.78517 0.82276 0.78253
 H411 H 0.79443 0.93258 0.92334
 H412 H 0.73581 0.83191 0.79199
 H413 H 0.72092 0.93376 0.91747
 H414 H 0.80927 0.82791 0.79078
 C415 C 0.21552 0.43429 0.42808
 C416 C 0.24186 0.42325 0.40927
 C417 C 0.23868 0.39974 0.38025
 N418 N 0.26496 0.38767 0.36424
 N419 N 0.26234 0.36586 0.33849
 C420 C 0.23331 0.35540 0.32772
 N421 N 0.20704 0.36766 0.34354
 N422 N 0.20967 0.38941 0.36931
 C423 C 0.22996 0.33032 0.30046
 C424 C 0.25610 0.31428 0.28640
 H425 H 0.26540 0.43160 0.41630
 H426 H 0.20621 0.32274 0.29324
 H427 H 0.19207 0.42560 0.42119
 H428 H 0.27972 0.32106 0.29500
 C429 C 0.27617 0.06262 0.92619
 C430 C 0.24754 0.07506 0.91355
 C431 C 0.24620 0.09813 0.88388
 N432 N 0.21764 0.10757 0.87088
 N433 N 0.21597 0.12838 0.84401
 C434 C 0.24281 0.14057 0.82912
 N435 N 0.27138 0.13117 0.84215
 N436 N 0.27306 0.11028 0.86899
 C437 C 0.24131 0.16414 0.79992
 C438 C 0.21250 0.17391 0.78507
 H439 H 0.22526 0.06723 0.92515
 H440 H 0.26334 0.17488 0.79100
 H441 H 0.29826 0.07022 0.91395
 H442 H 0.19092 0.16331 0.79524
 C443 C 0.73504 0.56428 0.42974
 C444 C 0.76377 0.57554 0.41624
 C445 C 0.76447 0.59992 0.38785
 N446 N 0.79179 0.61578 0.38025
 N447 N 0.79219 0.63879 0.35558
 C448 C 0.76533 0.64659 0.33746
 N449 N 0.73816 0.63044 0.34473
 N450 N 0.73772 0.60759 0.36949
 C451 C 0.76481 0.67282 0.31131
 C452 C 0.79025 0.69378 0.30691
 H453 H 0.78596 0.56758 0.42783
 H454 H 0.74318 0.67664 0.29626
 H455 H 0.71297 0.57358 0.41912
 H456 H 0.81263 0.68865 0.31996
 C457 C 0.08182 0.75642 0.91075
 C458 C 0.10021 0.77987 0.89404
 C459 C 0.12596 0.77141 0.86905
 N460 N 0.14630 0.79428 0.85722
 N461 N 0.17012 0.78677 0.83533
 C462 C 0.17449 0.75611 0.82436
 N463 N 0.15399 0.73330 0.83595
 N464 N 0.13025 0.74078 0.85794
 C465 C 0.20083 0.74740 0.80027
 C466 C 0.22479 0.76914 0.79140
 H467 H 0.09669 0.80486 0.90054
 H468 H 0.20177 0.72311 0.79044
 H469 H 0.08633 0.73152 0.90458
 H470 H 0.22402 0.79217 0.80421
 C471 C 0.55389 0.24189 0.44587
 C472 C 0.57429 0.21826 0.43325
 C473 C 0.60044 0.22591 0.40860
 N474 N 0.62129 0.20287 0.39864
 N475 N 0.64496 0.20961 0.37621
 C476 C 0.64856 0.23963 0.36288
 N477 N 0.62768 0.26262 0.37281
 N478 N 0.60409 0.25591 0.39527
 C479 C 0.67427 0.24760 0.33788
 C480 C 0.69724 0.22549 0.32757
 H481 H 0.57118 0.19369 0.44174
 H482 H 0.67459 0.27145 0.32664
 H483 H 0.55753 0.26653 0.43792
 H484 H 0.69525 0.20094 0.33655
 C485 C 0.91354 0.25782 0.94162
 C486 C 0.89946 0.23325 0.92208
 C487 C 0.87419 0.23950 0.89585
 N488 N 0.86037 0.21485 0.87812
 N489 N 0.83751 0.22027 0.85427
 C490 C 0.82770 0.25057 0.84722
 N491 N 0.84156 0.27519 0.86488
 N492 N 0.86437 0.26977 0.88874
 C493 C 0.80223 0.25714 0.82138
 C494 C 0.78557 0.23291 0.80397
 H495 H 0.90723 0.20880 0.92595
 H496 H 0.79545 0.28184 0.81719
 H497 H 0.90559 0.28222 0.93789
 H498 H 0.79136 0.20818 0.80951
 C499 C 0.45102 0.78066 0.40944
 C500 C 0.43469 0.75425 0.39601
 C501 C 0.40749 0.75719 0.37159
 N502 N 0.39202 0.73048 0.36064
 N503 N 0.36700 0.73258 0.33903
 C504 C 0.35648 0.76150 0.32754
 N505 N 0.37201 0.78824 0.33840
 N506 N 0.39705 0.78614 0.36005
 C507 C 0.32864 0.76417 0.30394
 C508 C 0.31114 0.73742 0.29341
 H509 H 0.44157 0.73042 0.40432
 H510 H 0.32131 0.78780 0.29549
 H511 H 0.44419 0.80457 0.40137
 H512 H 0.31810 0.71410 0.30323
 C513 C 0.28727 0.93220 0.07476
 C514 C 0.26245 0.91135 0.08278
 C515 C 0.26580 0.88614 0.10998
 N516 N 0.24560 0.86083 0.11026
 N517 N 0.24832 0.83801 0.13495
 C518 C 0.27119 0.83982 0.16044
 N519 N 0.29119 0.86528 0.16034
 N520 N 0.28868 0.88792 0.13545
 C521 C 0.27357 0.81572 0.18895
 C522 C 0.25905 0.78576 0.18643
 H523 H 0.24053 0.91263 0.06771
 H524 H 0.28622 0.82241 0.21293
 H525 H 0.31009 0.92906 0.08764
 H526 H 0.24708 0.77967 0.16181
 C527 C 0.71558 0.44059 0.58668
 C528 C 0.73971 0.42025 0.59812
 C529 C 0.73425 0.39528 0.62515
 N530 N 0.75780 0.37439 0.63323
 N531 N 0.75300 0.35117 0.65700
 C532 C 0.72449 0.34800 0.67363
 N533 N 0.70099 0.36900 0.66570
 N534 N 0.70577 0.39220 0.64187
 C535 C 0.71864 0.32198 0.69928
 C536 C 0.74141 0.29866 0.70641
 H537 H 0.76306 0.42191 0.58610
 H538 H 0.69577 0.32092 0.71249
 H539 H 0.69210 0.43861 0.59830
 H540 H 0.76500 0.30127 0.69521
 C541 C 0.73831 0.05472 0.09435
 C542 C 0.76240 0.07597 0.10356
 C543 C 0.75877 0.09785 0.13396
 N544 N 0.77515 0.12579 0.13489
 N545 N 0.77131 0.14610 0.16195
 C546 C 0.75120 0.13901 0.18922
 N547 N 0.73524 0.11084 0.18855
 N548 N 0.73879 0.09072 0.16131
 C549 C 0.74675 0.16101 0.21936
 C550 C 0.75366 0.19357 0.21659
 H551 H 0.78327 0.07808 0.08679
 H552 H 0.73758 0.15107 0.24394
 H553 H 0.71618 0.05500 0.10912
 H554 H 0.76239 0.20248 0.19127
 C555 C 0.22256 0.56084 0.58328
 C556 C 0.24823 0.58144 0.58797
 C557 C 0.24798 0.60714 0.61474
 N558 N 0.27030 0.63051 0.61331
 N559 N 0.27040 0.65404 0.63724
 C560 C 0.24827 0.65501 0.66362
 N561 N 0.22607 0.63150 0.66521
 N562 N 0.22583 0.60807 0.64111
 C563 C 0.24882 0.68038 0.69085
 C564 C 0.26819 0.70729 0.68719
 H565 H 0.26856 0.57969 0.57035
 H566 H 0.23468 0.67701 0.71469
 H567 H 0.20139 0.56381 0.59939
 H568 H 0.28181 0.70984 0.66285
 C569 C 0.95467 0.78681 0.05848
 C570 C 0.94842 0.76332 0.08398
 C571 C 0.92143 0.76511 0.10873
 N572 N 0.92133 0.74694 0.13876
 N573 N 0.89630 0.74690 0.16052
 C574 C 0.87024 0.76468 0.15275
 N575 N 0.87024 0.78271 0.12259
 N576 N 0.89544 0.78305 0.10104
 C577 C 0.84195 0.76387 0.17576
 C578 C 0.84349 0.75438 0.21147
 H579 H 0.96383 0.74264 0.08578
 H580 H 0.81955 0.77080 0.16400
 H581 H 0.94139 0.80898 0.05862
 H582 H 0.86598 0.74586 0.22179
 C583 C 0.41027 0.20939 0.57538
 C584 C 0.38710 0.23257 0.58131
 C585 C 0.36125 0.22792 0.60715
 N586 N 0.33520 0.24698 0.60594
 N587 N 0.31199 0.24360 0.62984
 C588 C 0.31417 0.22124 0.65605
 N589 N 0.34032 0.20236 0.65740
 N590 N 0.36338 0.20552 0.63330
 C591 C 0.28942 0.21794 0.68347
 C592 C 0.25895 0.23057 0.67916
 H593 H 0.38764 0.25465 0.56617
 H594 H 0.29589 0.20549 0.70768
 H595 H 0.40838 0.18625 0.58822
 H596 H 0.25355 0.24282 0.65444
 C597 C 0.05528 0.23094 0.07543
 C598 C 0.07387 0.25633 0.08746
 C599 C 0.10064 0.25181 0.11213
 N600 N 0.12159 0.27599 0.11749
 N601 N 0.14584 0.27243 0.13997
 C602 C 0.14990 0.24460 0.15812
 N603 N 0.12883 0.22047 0.15293
 N604 N 0.10470 0.22396 0.13026
 C605 C 0.17625 0.24052 0.18348
 C606 C 0.20146 0.26208 0.18534
 H607 H 0.06923 0.28028 0.07774
 H608 H 0.17575 0.22008 0.20127
 H609 H 0.06099 0.20671 0.08339
 H610 H 0.20091 0.28357 0.16917
 C611 C 0.58520 0.76054 0.55408
 C612 C 0.60325 0.78559 0.56784
 C613 C 0.62741 0.78008 0.59555
 N614 N 0.64750 0.80396 0.60514
 N615 N 0.66978 0.79899 0.62980
 C616 C 0.67264 0.77000 0.64591
 N617 N 0.65239 0.74623 0.63652
 N618 N 0.63022 0.75116 0.61179
 C619 C 0.69763 0.76369 0.67237
 C620 C 0.72166 0.78566 0.67969
 H621 H 0.60007 0.80962 0.55761
 H622 H 0.69775 0.74063 0.68557
 H623 H 0.58915 0.73642 0.56367
 H624 H 0.72020 0.80955 0.66860
   
