data_POSCAR
  _audit_creation_date              2014-09-24
  _audit_creation_method            'ToBaCCo'
  _symmetry_space_group_name_H-M    'P1'
  _symmetry_Int_Tables_number       1
  _symmetry_cell_setting            triclinic
  loop_
  _symmetry_equiv_pos_as_xyz
 x,y,z
_cell_length_a 15.6167
_cell_length_b 15.7336
_cell_length_c 16.9818
_cell_angle_alpha 90.929400
_cell_angle_beta 90.216700
_cell_angle_gamma 92.351800
loop_
  _atom_site_label
  _atom_site_type_symbol
  _atom_site_fract_x
  _atom_site_fract_y
  _atom_site_fract_z
C1 C 1.24434 0.25741 0.25717
 C2 C 0.76236 -0.24764 0.25449
 C3 C 0.74372 0.24778 -0.24142
 C4 C 1.26261 -0.24775 -0.24798
 C5 C 0.26383 0.24964 0.74653
 C6 C 0.73702 0.75625 0.73715
 C7 C 0.76288 0.24774 0.24804
 C8 C 0.24371 0.74177 0.23435
 O9 O 1.12229 0.07607 0.10921
 O10 O 0.89425 -0.08207 0.11109
 O11 O 0.93800 0.17328 0.03690
 O12 O 1.08203 -0.17763 0.02407
 O13 O 0.87408 0.07400 0.10648
 O14 O 1.11060 -0.07798 0.10799
 O15 O 0.92725 -0.18323 0.03097
 O16 O 1.09535 0.17269 0.02703
 C17 C 1.11957 0.15249 0.09411
 C18 C 0.90023 -0.15895 0.09720
 C19 C 0.89338 0.15028 0.09485
 C20 C 1.10736 -0.15523 0.09132
 O21 O 1.17817 -0.08020 -0.03898
 O22 O 0.82313 0.05985 -0.04048
 O23 O 1.08187 0.11210 -0.12021
 O24 O 0.92198 -0.11972 -0.11826
 O25 O 0.82599 -0.09666 -0.03282
 O26 O 1.18310 0.07402 -0.04237
 O27 O 1.07681 -0.10944 -0.12106
 O28 O 0.92084 0.12616 -0.11126
 Co29 Co 1.13624 -0.00241 0.03030
 Co30 Co 0.86909 -0.01146 0.03217
 Co31 Co 1.00920 0.13103 -0.03876
 Co32 Co 1.00219 -0.13546 -0.04242
 O33 O 1.00395 -0.00430 -0.00513
 C34 C 1.15466 -0.10603 -0.10572
 C35 C 0.84401 0.10710 -0.09711
 C36 C 1.15939 0.10621 -0.10642
 C37 C 0.84521 -0.11913 -0.10077
 O38 O 1.15495 0.56409 0.59262
 O39 O 0.85667 0.48298 0.61876
 O40 O 0.97213 0.66600 0.58880
 O41 O 1.02962 0.37004 0.62145
 O42 O 0.84795 0.61666 0.55878
 O43 O 1.15273 0.41016 0.57666
 O44 O 0.88430 0.35736 0.58378
 O45 O 1.11209 0.66713 0.52765
 C46 C 1.14583 0.64148 0.58806
 C47 C 0.85378 0.40668 0.63335
 C48 C 0.89518 0.65938 0.60467
 C49 C 1.10833 0.37293 0.62884
 O50 O 1.13672 0.42977 0.41570
 O51 O 0.85141 0.53755 0.41409
 O52 O 1.04284 0.62940 0.38882
 O53 O 0.93085 0.34872 0.42792
 O54 O 0.82258 0.40848 0.47428
 O55 O 1.16179 0.57941 0.42812
 O56 O 1.07642 0.32718 0.47611
 O57 O 0.90436 0.66011 0.44022
 Co58 Co 1.13693 0.49691 0.50423
 Co59 Co 0.85943 0.51096 0.51584
 Co60 Co 1.00626 0.64127 0.48910
 Co61 Co 0.98149 0.36637 0.52471
 O62 O 0.99664 0.50390 0.50860
 C63 C 1.11835 0.35286 0.41885
 C64 C 0.86180 0.61166 0.39526
 C65 C 1.11801 0.61179 0.37446
 C66 C 0.85436 0.36547 0.42107
 O67 O 0.61041 0.07528 0.60800
 O68 O 0.38273 -0.08091 0.60396
 O69 O 0.43598 0.17514 0.53370
 O70 O 0.57822 -0.17535 0.52001
 O71 O 0.36326 0.07612 0.59709
 O72 O 0.59904 -0.07491 0.60379
 O73 O 0.42345 -0.18194 0.52645
 O74 O 0.59258 0.17340 0.52623
 C75 C 0.61312 0.15180 0.59401
 C76 C 0.39367 -0.15734 0.59164
 C77 C 0.38766 0.15188 0.58896
 C78 C 0.60020 -0.15135 0.58747
 O79 O 0.67318 -0.07684 0.45863
 O80 O 0.31921 0.06004 0.44924
 O81 O 0.57944 0.11137 0.37807
 O82 O 0.41867 -0.12239 0.37597
 O83 O 0.32023 -0.09774 0.45867
 O84 O 0.67876 0.07555 0.45832
 O85 O 0.57352 -0.10780 0.37503
 O86 O 0.41988 0.13121 0.38537
 Co87 Co 0.62855 -0.00061 0.52827
 Co88 Co 0.36166 -0.01060 0.52351
 Co89 Co 0.50695 0.13284 0.45844
 Co90 Co 0.49850 -0.13446 0.45292
 O91 O 0.49820 -0.00252 0.48939
 C92 C 0.65106 -0.10342 0.39162
 C93 C 0.34254 0.11090 0.39625
 C94 C 0.65669 0.10545 0.39321
 C95 C 0.34169 -0.12579 0.39291
 O96 O 0.65794 0.55799 0.09779
 O97 O 0.35705 0.49026 0.11288
 O98 O 0.47980 0.66749 0.08101
 O99 O 0.52811 0.36853 0.12312
 O100 O 0.35605 0.62327 0.04692
 O101 O 0.65267 0.40254 0.07992
 O102 O 0.38418 0.36271 0.08258
 O103 O 0.62111 0.66148 0.02896
 C104 C 0.65077 0.63597 0.09108
 C105 C 0.35353 0.41440 0.12998
 C106 C 0.40267 0.66330 0.09526
 C107 C 0.60660 0.36877 0.13182
 O108 O 0.64420 0.42217 -0.07923
 O109 O 0.36242 0.53697 -0.09400
 O110 O 0.56388 0.62215 -0.11392
 O111 O 0.43287 0.34784 -0.07254
 O112 O 0.32573 0.41159 -0.02915
 O113 O 0.67547 0.56876 -0.06284
 O114 O 0.57603 0.32164 -0.02227
 O115 O 0.42037 0.65850 -0.07204
 Co116 Co 0.64232 0.48930 0.00930
 Co117 Co 0.36525 0.51449 0.00908
 Co118 Co 0.51851 0.63795 -0.01629
 Co119 Co 0.48213 0.36529 0.02496
 O120 O 0.50259 0.50170 0.00685
 C121 C 0.62141 0.34609 -0.07790
 C122 C 0.37485 0.61015 -0.11504
 C123 C 0.64159 0.60693 -0.11801
 C124 C 0.35706 0.36639 -0.08090
 N125 N 1.18605 0.19769 0.21413
 N126 N 1.15995 0.21508 0.14523
 N127 N 1.22333 0.68293 0.70405
 N128 N 1.18085 0.70200 0.64349
 N129 N 0.68353 0.19038 0.71468
 N130 N 0.65608 0.21124 0.64695
 N131 N 0.72507 0.68144 0.20741
 N132 N 0.68372 0.69805 0.14581
 N133 N 0.81158 -0.19050 0.20344
 N134 N 0.86149 -0.21797 0.15037
 N135 N 0.79663 0.29323 0.70156
 N136 N 0.80439 0.37364 0.69679
 N137 N 0.30976 -0.18968 0.70056
 N138 N 0.35823 -0.21664 0.64611
 N139 N 0.29668 0.30312 0.20007
 N140 N 0.30343 0.38347 0.19384
 N141 N 0.80204 0.19901 -0.19441
 N142 N 0.77904 0.14470 -0.14311
 N143 N 0.81796 0.72058 0.31495
 N144 N 0.81471 0.64229 0.33141
 N145 N 0.30290 0.21041 0.30509
 N146 N 0.27933 0.14976 0.34968
 N147 N 0.32094 0.71965 -0.18968
 N148 N 0.32498 0.64061 -0.17773
 N149 N 1.19563 -0.20253 -0.20654
 N150 N 1.21596 -0.14475 -0.15570
 N151 N 1.19845 0.31735 0.30663
 N152 N 1.15458 0.29307 0.36561
 N153 N 0.69420 -0.20154 0.29316
 N154 N 0.71340 -0.14265 0.34325
 N155 N 0.69978 0.30850 -0.19085
 N156 N 0.65548 0.28528 -0.13171
 N157 N 1.19874 0.20302 -0.20679
 N158 N 1.22080 0.14799 -0.15669
 N159 N 1.19439 0.68235 0.27128
 N160 N 1.15083 0.62087 0.29603
 N161 N 0.69789 0.20079 0.29385
 N162 N 0.71933 0.14594 0.34396
 N163 N 0.67447 0.70831 -0.21550
 N164 N 0.69722 0.64682 -0.17397
 N165 N 0.80112 -0.20060 -0.21156
 N166 N 0.78070 -0.15559 -0.15227
 N167 N 0.82584 0.28836 0.30182
 N168 N 0.79960 0.33017 0.36080
 N169 N 0.30184 -0.21807 0.28653
 N170 N 0.27932 -0.16869 0.34238
 N171 N 0.32797 0.28876 -0.20002
 N172 N 0.30240 0.33162 -0.14143
 N173 N 1.19359 -0.19760 0.19970
 N174 N 1.14694 -0.21667 0.13957
 N175 N 1.22600 0.31447 0.69656
 N176 N 1.14549 0.32067 0.68773
 N177 N 0.69227 -0.18189 0.69184
 N178 N 0.64020 -0.20842 0.63829
 N179 N 0.72363 0.31096 0.19792
 N180 N 0.64282 0.31745 0.19145
 N181 N 0.80515 0.18801 0.19741
 N182 N 0.85967 0.21230 0.14628
 N183 N 0.77958 0.69973 0.68189
 N184 N 0.85905 0.70930 0.66587
 N185 N 0.30419 0.18941 0.69507
 N186 N 0.35693 0.21350 0.64241
 N187 N 0.28715 0.70026 0.17446
 N188 N 0.36730 0.70836 0.16076
   
