data_POSCAR
  _audit_creation_date              2014-09-24
  _audit_creation_method            'ToBaCCo'
  _symmetry_space_group_name_H-M    'P1'
  _symmetry_Int_Tables_number       1
  _symmetry_cell_setting            triclinic
  loop_
  _symmetry_equiv_pos_as_xyz
 x,y,z
_cell_length_a 30.0285
_cell_length_b 31.4806
_cell_length_c 35.2866
_cell_angle_alpha 90.013700
_cell_angle_beta 91.053800
_cell_angle_gamma 89.906700
loop_
  _atom_site_label
  _atom_site_type_symbol
  _atom_site_fract_x
  _atom_site_fract_y
  _atom_site_fract_z
Zr1 Zr 0.23504 0.23308 0.31147
 O2 O 0.25816 0.25291 0.36571
 O3 O 0.18454 0.19080 0.32629
 O4 O 0.18529 0.26566 0.33994
 O5 O 0.31887 0.15855 0.30064
 O6 O 0.16377 0.31937 0.30011
 O7 O 0.26646 0.18360 0.34108
 O8 O 0.15352 0.17418 0.26874
 O9 O 0.18611 0.24722 0.27048
 O10 O 0.24191 0.18694 0.26958
 O11 O 0.24781 0.29569 0.29436
 O12 O 0.30167 0.23759 0.29447
 Zr13 Zr 0.27283 0.26946 0.18947
 Zr14 Zr 0.20097 0.30836 0.25085
 Zr15 Zr 0.30672 0.19361 0.24994
 Zr16 Zr 0.19506 0.20249 0.22787
 O17 O 0.37594 0.19267 0.26222
 O18 O 0.12829 0.21879 0.21360
 O19 O 0.25984 0.20628 0.20631
 O20 O 0.20666 0.26377 0.20714
 O21 O 0.26604 0.31572 0.23137
 O22 O 0.32105 0.25486 0.23092
 C23 C 0.15492 0.17260 0.30529
 C24 C 0.29893 0.15891 0.33279
 C25 C 0.16228 0.29882 0.33161
 O26 O 0.13259 0.30925 0.23536
 O27 O 0.19104 0.34649 0.20180
 O28 O 0.24280 0.32115 0.16100
 C29 C 0.21096 0.34656 0.16972
 O30 O 0.32736 0.30563 0.33267
 Zr31 Zr 0.31246 0.29921 0.27383
 O32 O 0.32263 0.31401 0.17694
 O33 O 0.20932 0.37255 0.26713
 O34 O 0.30489 0.36449 0.28715
 O35 O 0.38079 0.28556 0.28427
 O36 O 0.34996 0.33390 0.23501
 C37 C 0.34899 0.33560 0.19870
 O38 O 0.24911 0.25281 0.13452
 O39 O 0.29802 0.12863 0.23645
 O40 O 0.31875 0.23358 0.15886
 O41 O 0.33960 0.17964 0.19874
 O42 O 0.19827 0.13596 0.21885
 O43 O 0.18546 0.18894 0.16928
 C44 C 0.34002 0.19908 0.16654
 H45 H 0.23682 0.15776 0.27900
 H46 H 0.18535 0.26951 0.18602
 H47 H 0.35179 0.25600 0.22131
 H48 H 0.24501 0.31589 0.31569
 H49 H 0.11117 0.19196 0.21170
 H50 H 0.12169 0.33845 0.24022
 H51 H 0.17999 0.38654 0.26327
 H52 H 0.33512 0.37674 0.29020
 H53 H 0.16721 0.12554 0.21657
 H54 H 0.32732 0.11475 0.24074
 H55 H 0.38619 0.16320 0.25770
 H56 H 0.39637 0.31296 0.28837
 H57 H 0.15860 0.17108 0.16569
 H58 H 0.26704 0.26869 0.11589
 H59 H 0.24035 0.23769 0.38482
 H60 H 0.34940 0.32864 0.33658
 Zr61 Zr 0.74862 0.74230 0.32259
 O62 O 0.70699 0.72156 0.36675
 O63 O 0.80138 0.77057 0.35382
 O64 O 0.77744 0.69338 0.35485
 O65 O 0.68599 0.83330 0.30703
 O66 O 0.80203 0.64537 0.31137
 O67 O 0.72079 0.79283 0.35244
 O68 O 0.84916 0.78957 0.30731
 O69 O 0.80411 0.72504 0.29098
 O70 O 0.76195 0.79468 0.28839
 O71 O 0.72947 0.68733 0.29254
 O72 O 0.68905 0.75389 0.29164
 Zr73 Zr 0.73996 0.73388 0.19171
 Zr74 Zr 0.78404 0.67222 0.25861
 Zr75 Zr 0.70439 0.80442 0.25526
 Zr76 Zr 0.81531 0.77676 0.25546
 O77 O 0.63523 0.81745 0.25478
 O78 O 0.87978 0.74949 0.25247
 O79 O 0.75892 0.78977 0.22096
 O80 O 0.79901 0.72318 0.22303
 O81 O 0.72625 0.68117 0.22533
 O82 O 0.68504 0.75118 0.22383
 C83 C 0.83847 0.78592 0.34235
 C84 C 0.69682 0.82455 0.34174
 C85 C 0.79554 0.65802 0.34552
 O86 O 0.85336 0.66019 0.25884
 O87 O 0.80122 0.64172 0.20726
 O88 O 0.76625 0.68215 0.16203
 C89 C 0.79023 0.65031 0.17259
 O90 O 0.64102 0.68643 0.31084
 Zr91 Zr 0.67311 0.69991 0.25901
 O92 O 0.68826 0.70328 0.16125
 O93 O 0.76025 0.60907 0.26066
 O94 O 0.66491 0.63308 0.26150
 O95 O 0.60777 0.72563 0.25794
 O96 O 0.64191 0.68116 0.20779
 C97 C 0.65273 0.68504 0.17291
 O98 O 0.78148 0.75389 0.14721
 O99 O 0.72857 0.86742 0.25339
 O100 O 0.71142 0.78250 0.15918
 O101 O 0.68658 0.83125 0.20193
 O102 O 0.82706 0.84315 0.25730
 O103 O 0.84281 0.79724 0.20349
 C104 C 0.69252 0.81767 0.16787
 H105 H 0.76972 0.82051 0.30308
 H106 H 0.82417 0.71668 0.20624
 H107 H 0.65810 0.75771 0.20832
 H108 H 0.72185 0.66370 0.30972
 H109 H 0.90163 0.77223 0.25834
 H110 H 0.85713 0.62896 0.26043
 H111 H 0.78679 0.59033 0.26060
 H112 H 0.63319 0.62689 0.25560
 H113 H 0.85929 0.84726 0.26262
 H114 H 0.70214 0.88624 0.25436
 H115 H 0.63194 0.84871 0.25291
 H116 H 0.58675 0.70189 0.25317
 H117 H 0.87287 0.80918 0.20832
 H118 H 0.76695 0.74525 0.12292
 H119 H 0.72155 0.72959 0.39120
 H120 H 0.61487 0.66802 0.30580
 Zr121 Zr 0.74931 0.25697 -0.31630
 O122 O 0.71910 0.29950 -0.35570
 O123 O 0.78349 0.21636 -0.35396
 O124 O 0.79384 0.29795 -0.34327
 O125 O 0.65510 0.19357 -0.30811
 O126 O 0.83846 0.32487 -0.29606
 O127 O 0.69759 0.23086 -0.34945
 O128 O 0.82158 0.17106 -0.31472
 O129 O 0.80948 0.24552 -0.28728
 O130 O 0.74179 0.19758 -0.29090
 O131 O 0.75621 0.30772 -0.27774
 O132 O 0.69225 0.26221 -0.28237
 Zr133 Zr 0.75357 0.24003 -0.18604
 Zr134 Zr 0.81495 0.29445 -0.24687
 Zr135 Zr 0.68737 0.20305 -0.25503
 Zr136 Zr 0.80042 0.18716 -0.26005
 O137 O 0.61860 0.21710 -0.25180
 O138 O 0.87107 0.18764 -0.25951
 O139 O 0.74560 0.18846 -0.22361
 O140 O 0.81005 0.23527 -0.22002
 O141 O 0.76088 0.30010 -0.21040
 O142 O 0.69403 0.25207 -0.21558
 C143 C 0.81051 0.18506 -0.34775
 C144 C 0.66410 0.20741 -0.34146
 C145 C 0.82450 0.32305 -0.33075
 O146 O 0.88340 0.27947 -0.25047
 O147 O 0.84481 0.30687 -0.19317
 O148 O 0.80260 0.26906 -0.15193
 C149 C 0.83524 0.29374 -0.15968
 O150 O 0.67336 0.34397 -0.28823
 Zr151 Zr 0.70214 0.31036 -0.24160
 O152 O 0.72127 0.27996 -0.14788
 O153 O 0.81952 0.36091 -0.23869
 O154 O 0.72290 0.37440 -0.23555
 O155 O 0.63180 0.31193 -0.23729
 O156 O 0.68725 0.32952 -0.18566
 C157 C 0.69708 0.31321 -0.15308
 O158 O 0.78481 0.19582 -0.14889
 O159 O 0.68379 0.13658 -0.26317
 O160 O 0.70658 0.20289 -0.15808
 O161 O 0.66228 0.17493 -0.20506
 O162 O 0.78273 0.12294 -0.27048
 O163 O 0.82175 0.14908 -0.21338
 C164 C 0.67348 0.18033 -0.16991
 H165 H 0.73668 0.17446 -0.30949
 H166 H 0.83713 0.22858 -0.20473
 H167 H 0.66758 0.25352 -0.19931
 H168 H 0.75750 0.33547 -0.29081
 H169 H 0.88119 0.15970 -0.26903
 H170 H 0.89973 0.30664 -0.24764
 H171 H 0.85165 0.36804 -0.23748
 H172 H 0.69714 0.39081 -0.22620
 H173 H 0.81012 0.10760 -0.27778
 H174 H 0.65171 0.12934 -0.26465
 H175 H 0.60254 0.18967 -0.25364
 H176 H 0.62356 0.34044 -0.22775
 H177 H 0.84357 0.12773 -0.22203
 H178 H 0.77685 0.20383 -0.12267
 H179 H 0.72781 0.29067 -0.38158
 H180 H 0.65852 0.36996 -0.27890
 Zr181 Zr 0.26404 0.75991 -0.31600
 O182 O 0.30302 0.72860 -0.35692
 O183 O 0.23371 0.80804 -0.34867
 O184 O 0.22423 0.72820 -0.35731
 O185 O 0.35387 0.81369 -0.27939
 O186 O 0.17542 0.68956 -0.32243
 O187 O 0.31751 0.79815 -0.33488
 O188 O 0.18598 0.84043 -0.30828
 O189 O 0.19957 0.76275 -0.29439
 O190 O 0.26383 0.81059 -0.27779
 O191 O 0.25345 0.70051 -0.29011
 O192 O 0.31480 0.74580 -0.27559
 Zr193 Zr 0.23731 0.74043 -0.18607
 Zr194 Zr 0.19038 0.70510 -0.26605
 Zr195 Zr 0.31123 0.79517 -0.23608
 Zr196 Zr 0.20053 0.81208 -0.25490
 O197 O 0.37856 0.78189 -0.22147
 O198 O 0.13057 0.81010 -0.26425
 O199 O 0.24826 0.80037 -0.21158
 O200 O 0.18742 0.75484 -0.22695
 O201 O 0.23766 0.68948 -0.22418
 O202 O 0.30142 0.73761 -0.20821
 C203 C 0.20317 0.83540 -0.34121
 C204 C 0.35033 0.81443 -0.31575
 C205 C 0.19226 0.70121 -0.35391
 O206 O 0.12253 0.71955 -0.27710
 O207 O 0.15166 0.67994 -0.22266
 O208 O 0.18530 0.70020 -0.16716
 C209 C 0.15460 0.68047 -0.18625
 O210 O 0.33838 0.66710 -0.29446
 Zr211 Zr 0.30106 0.68857 -0.24754
 O212 O 0.26450 0.68974 -0.15419
 O213 O 0.18807 0.63830 -0.27254
 O214 O 0.28324 0.62446 -0.25834
 O215 O 0.36997 0.68921 -0.23316
 O216 O 0.30832 0.65479 -0.19629
 C217 C 0.29102 0.65945 -0.16350
 O218 O 0.19722 0.77092 -0.14547
 O219 O 0.31461 0.86223 -0.23281
 O220 O 0.27596 0.77411 -0.14492
 O221 O 0.32386 0.81358 -0.18003
 O222 O 0.21759 0.87720 -0.24963
 O223 O 0.17034 0.83824 -0.20612
 C224 C 0.30739 0.80179 -0.14845
 H225 H 0.27090 0.83804 -0.28995
 H226 H 0.15784 0.75695 -0.21515
 H227 H 0.32470 0.73285 -0.18843
 H228 H 0.25503 0.67706 -0.30872
 H229 H 0.12041 0.83942 -0.26991
 H230 H 0.10729 0.69227 -0.28260
 H231 H 0.15657 0.63068 -0.27790
 H232 H 0.30807 0.60625 -0.24901
 H233 H 0.19180 0.89399 -0.25919
 H234 H 0.34637 0.86959 -0.22852
 H235 H 0.39351 0.80949 -0.21671
 H236 H 0.37903 0.65959 -0.22738
 H237 H 0.14980 0.86142 -0.21387
 H238 H 0.20243 0.75606 -0.12098
 H239 H 0.29805 0.74360 -0.38137
 H240 H 0.35529 0.64124 -0.28717
 Zr241 Zr 1.26020 1.26495 0.80996
 O242 O 1.21944 1.24215 0.85391
 O243 O 1.31160 1.29563 0.84045
 O244 O 1.29339 1.21977 0.84304
 O245 O 1.19445 1.35363 0.79434
 O246 O 1.31975 1.17117 0.80098
 O247 O 1.23075 1.31464 0.83981
 O248 O 1.36074 1.31241 0.79425
 O249 O 1.31601 1.24798 0.77876
 O250 O 1.27355 1.31711 0.77572
 O251 O 1.24196 1.20926 0.78072
 O252 O 1.20066 1.27537 0.77890
 Zr253 Zr 1.25260 1.25528 0.67921
 Zr254 Zr 1.29699 1.19433 0.74742
 Zr255 Zr 1.21605 1.32593 0.74280
 Zr256 Zr 1.32713 1.29910 0.74275
 O257 O 1.14679 1.33808 0.73875
 O258 O 1.39192 1.27249 0.73997
 O259 O 1.27074 1.31127 0.70861
 O260 O 1.31151 1.24486 0.71099
 O261 O 1.23941 1.20268 0.71331
 O262 O 1.19736 1.27267 0.71096
 C263 C 1.34898 1.31022 0.82902
 C264 C 1.20531 1.34532 0.82914
 C265 C 1.31452 1.18570 0.83485
 O266 O 1.36620 1.18225 0.74485
 O267 O 1.31199 1.16207 0.69655
 O268 O 1.27766 1.20216 0.65064
 C269 C 1.30076 1.16997 0.66181
 O270 O 1.15337 1.20606 0.79756
 Zr271 Zr 1.18568 1.22110 0.74618
 O272 O 1.19987 1.22702 0.64790
 O273 O 1.27381 1.13133 0.75334
 O274 O 1.17871 1.15412 0.74758
 O275 O 1.12011 1.24625 0.74561
 O276 O 1.15438 1.20330 0.69440
 C277 C 1.16438 1.20853 0.65937
 O278 O 1.29508 1.27258 0.63448
 O279 O 1.23853 1.38962 0.74387
 O280 O 1.22852 1.30640 0.64671
 O281 O 1.20393 1.35484 0.68986
 O282 O 1.33832 1.36558 0.74411
 O283 O 1.35400 1.31912 0.69041
 C284 C 1.21173 1.34249 0.65585
 H285 H 1.28061 1.34315 0.79036
 H286 H 1.33665 1.23801 0.69428
 H287 H 1.17093 1.27975 0.69500
 H288 H 1.23539 1.18591 0.79855
 H289 H 1.41350 1.29562 0.74529
 H290 H 1.37022 1.15117 0.74786
 H291 H 1.30049 1.11279 0.75299
 H292 H 1.14723 1.14752 0.74110
 H293 H 1.37056 1.36995 0.74918
 H294 H 1.21161 1.40786 0.74394
 H295 H 1.14323 1.36932 0.73723
 H296 H 1.09931 1.22247 0.74030
 H297 H 1.38393 1.33147 0.69498
 H298 H 1.28005 1.26427 0.61031
 H299 H 1.23328 1.25104 0.87841
 H300 H 1.12773 1.18714 0.79206
 Zr301 Zr 0.72612 0.72695 0.81024
 O302 O 0.75026 0.74435 0.86489
 O303 O 0.67497 0.68419 0.82335
 O304 O 0.67920 0.76173 0.84084
 O305 O 0.80803 0.65062 0.79758
 O306 O 0.65877 0.81642 0.80174
 O307 O 0.75703 0.67630 0.83894
 O308 O 0.64249 0.66971 0.76585
 O309 O 0.67693 0.74398 0.77034
 O310 O 0.73003 0.68159 0.76733
 O311 O 0.74218 0.78911 0.79354
 O312 O 0.79253 0.72927 0.79186
 Zr313 Zr 0.76263 0.76361 0.68788
 Zr314 Zr 0.69460 0.80485 0.75155
 Zr315 Zr 0.79456 0.68555 0.74698
 Zr316 Zr 0.68308 0.70008 0.72640
 O317 O 0.86425 0.68203 0.75650
 O318 O 0.61656 0.71981 0.71525
 O319 O 0.74733 0.70097 0.70429
 O320 O 0.69682 0.76122 0.70676
 O321 O 0.75937 0.80960 0.73039
 O322 O 0.81143 0.74609 0.72791
 C323 C 0.64551 0.66597 0.80200
 C324 C 0.78905 0.65125 0.83015
 C325 C 0.65758 0.79610 0.83346
 O326 O 0.62617 0.80940 0.73679
 O327 O 0.68656 0.84483 0.70348
 O328 O 0.73672 0.81839 0.66174
 C329 C 0.70661 0.84511 0.67145
 O330 O 0.82350 0.79725 0.82962
 Zr331 Zr 0.80635 0.79045 0.77121
 O332 O 0.81611 0.80277 0.67303
 O333 O 0.70618 0.86806 0.76944
 O334 O 0.80236 0.85616 0.78391
 O335 O 0.87389 0.77324 0.78101
 O336 O 0.84497 0.82233 0.73063
 C337 C 0.84435 0.82286 0.69412
 O338 O 0.73477 0.75061 0.63349
 O339 O 0.78271 0.62069 0.73474
 O340 O 0.80256 0.72397 0.65537
 O341 O 0.82314 0.66932 0.69456
 O342 O 0.68344 0.63409 0.71428
 O343 O 0.67138 0.68982 0.66752
 C344 C 0.82182 0.68828 0.66218
 H345 H 0.72439 0.65230 0.77622
 H346 H 0.67532 0.76863 0.68619
 H347 H 0.84177 0.74535 0.71742
 H348 H 0.74101 0.80904 0.81520
 H349 H 0.59824 0.69386 0.71201
 H350 H 0.61695 0.83895 0.74236
 H351 H 0.67767 0.88354 0.76579
 H352 H 0.83323 0.86720 0.78536
 H353 H 0.65203 0.62502 0.71079
 H354 H 0.81162 0.60581 0.73809
 H355 H 0.87302 0.65222 0.75155
 H356 H 0.89127 0.79985 0.78368
 H357 H 0.64274 0.67474 0.66371
 H358 H 0.75335 0.76527 0.61455
 H359 H 0.73239 0.72885 0.88381
 H360 H 0.84655 0.81951 0.83267
 Zr361 Zr 1.24613 0.75610 0.18528
 O362 O 1.21742 0.80160 0.14792
 O363 O 1.27797 0.71588 0.14706
 O364 O 1.29567 0.78897 0.15647
 O365 O 1.15181 0.69375 0.19443
 O366 O 1.34083 0.81700 0.20276
 O367 O 1.19403 0.73039 0.15236
 O368 O 1.31653 0.66974 0.18526
 O369 O 1.30643 0.74481 0.21395
 O370 O 1.23941 0.69670 0.21074
 O371 O 1.25417 0.80746 0.22270
 O372 O 1.18935 0.76098 0.21917
 Zr373 Zr 1.25243 0.74098 0.31543
 Zr374 Zr 1.31298 0.79422 0.25353
 Zr375 Zr 1.18575 0.70216 0.24705
 Zr376 Zr 1.29856 0.68668 0.24097
 O377 O 1.11751 0.71544 0.25516
 O378 O 1.36906 0.68826 0.23902
 O379 O 1.24473 0.68922 0.27786
 O380 O 1.30841 0.73533 0.28086
 O381 O 1.25897 0.80050 0.29010
 O382 O 1.19214 0.75140 0.28652
 C383 C 1.30495 0.68469 0.15256
 C384 C 1.16043 0.70724 0.16083
 C385 C 1.32981 0.81032 0.16780
 O386 O 1.38192 0.78013 0.25376
 O387 O 1.34248 0.80923 0.30685
 O388 O 1.30115 0.77144 0.34856
 C389 C 1.33335 0.79636 0.34050
 O390 O 1.17166 0.84281 0.21200
 Zr391 Zr 1.19974 0.80955 0.25911
 O392 O 1.21846 0.78151 0.35314
 O393 O 1.31622 0.86121 0.25695
 O394 O 1.21958 0.87381 0.26540
 O395 O 1.12931 0.81015 0.26268
 O396 O 1.18289 0.82884 0.31412
 C397 C 1.19341 0.81425 0.34707
 O398 O 1.28622 0.70082 0.35481
 O399 O 1.18008 0.63632 0.23566
 O400 O 1.21215 0.69698 0.34280
 O401 O 1.16839 0.66789 0.29609
 O402 O 1.28046 0.62220 0.23283
 O403 O 1.32226 0.64927 0.28726
 C404 C 1.18343 0.66998 0.33046
 H405 H 1.23377 0.67353 0.19231
 H406 H 1.33564 0.72906 0.29610
 H407 H 1.16635 0.75142 0.30361
 H408 H 1.25660 0.83454 0.20862
 H409 H 1.37904 0.66051 0.22893
 H410 H 1.39789 0.80765 0.25461
 H411 H 1.34825 0.86866 0.25825
 H412 H 1.19334 0.89009 0.27397
 H413 H 1.30722 0.60692 0.22398
 H414 H 1.14790 0.62938 0.23573
 H415 H 1.10172 0.68791 0.25323
 H416 H 1.12030 0.83888 0.27116
 H417 H 1.34456 0.62865 0.27812
 H418 H 1.27740 0.70925 0.38076
 H419 H 1.22492 0.79297 0.12175
 H420 H 1.15605 0.86851 0.22104
 Zr421 Zr 0.76274 1.25073 0.18392
 O422 O 0.79382 1.21335 0.14196
 O423 O 0.73711 1.30074 0.15009
 O424 O 0.71742 1.22077 0.14622
 O425 O 0.85672 1.30918 0.21145
 O426 O 0.66922 1.18558 0.18440
 O427 O 0.81974 1.27892 0.16120
 O428 O 0.69353 1.33747 0.19107
 O429 O 0.70013 1.25806 0.20820
 O430 O 0.76817 1.30424 0.21872
 O431 O 0.75108 1.19364 0.21318
 O432 O 0.81595 1.23788 0.22224
 Zr433 Zr 0.74514 1.24239 0.31411
 Zr434 Zr 0.68986 1.20240 0.23988
 Zr435 Zr 0.81826 1.29084 0.25858
 Zr436 Zr 0.70678 1.31014 0.24450
 O437 O 0.88569 1.27442 0.26913
 O438 O 0.63666 1.31083 0.23611
 O439 O 0.75721 1.30008 0.28559
 O440 O 0.69270 1.25551 0.27561
 O441 O 0.73999 1.18815 0.28018
 O442 O 0.80744 1.23534 0.28946
 C443 C 0.70992 1.33097 0.15820
 C444 C 0.85216 1.30036 0.17589
 C445 C 0.68426 1.19573 0.15168
 O446 O 0.62183 1.21875 0.23298
 O447 O 0.65378 1.18055 0.28727
 O448 O 0.69129 1.20993 0.33761
 C449 C 0.65898 1.18840 0.32296
 O450 O 0.83348 1.15756 0.20554
 Zr451 Zr 0.80157 1.18307 0.25379
 O452 O 0.77317 1.19408 0.34821
 O453 O 0.68507 1.13551 0.23599
 O454 O 0.77996 1.11919 0.24879
 O455 O 0.87138 1.17990 0.26371
 O456 O 0.81302 1.15393 0.30702
 C457 C 0.79896 1.16270 0.34035
 O458 O 0.71055 1.27866 0.35482
 O459 O 0.82468 1.35778 0.25925
 O460 O 0.78715 1.27490 0.35212
 O461 O 0.83375 1.31227 0.31411
 O462 O 0.72607 1.37486 0.24729
 O463 O 0.67979 1.33937 0.29331
 C464 C 0.81849 1.30178 0.34674
 H465 H 0.77605 1.33046 0.20491
 H466 H 0.66420 1.26011 0.28865
 H467 H 0.83186 1.23099 0.30829
 H468 H 0.75003 1.16917 0.19558
 H469 H 0.62786 1.34031 0.22953
 H470 H 0.60534 1.19182 0.22903
 H471 H 0.65301 1.12877 0.23268
 H472 H 0.80480 1.10081 0.25778
 H473 H 0.70015 1.39219 0.23883
 H474 H 0.85674 1.36403 0.26337
 H475 H 0.90187 1.30142 0.27354
 H476 H 0.87908 1.14987 0.26918
 H477 H 0.65851 1.36187 0.28539
 H478 H 0.71558 1.26519 0.38000
 H479 H 0.78904 1.22776 0.11718
 H480 H 0.84754 1.13006 0.21231
 N481 N 0.58261 1.04276 0.03231
 N482 N 0.61221 1.07371 0.03365
 N483 N 0.55583 0.95573 0.06615
 N484 N 0.57132 0.93047 0.09339
 N485 N 0.58138 0.95358 0.03638
 N486 N 0.61423 0.92662 0.04220
 N487 N 0.55661 1.04455 0.06182
 N488 N 0.56812 1.07647 0.08424
 C489 C 0.60266 1.09451 0.06609
 C490 C 0.60741 0.91217 0.07753
 N491 N 0.42598 0.95759 0.04947
 N492 N 0.39892 0.92578 0.05599
 N493 N 0.46108 1.04659 0.07015
 N494 N 0.45695 1.07858 0.09415
 N495 N 0.42821 1.04672 0.04510
 N496 N 0.40130 1.07909 0.05082
 N497 N 0.45949 0.95762 0.07390
 N498 N 0.45558 0.92601 0.09837
 Mn499 Mn 0.50829 1.00103 0.06851
 C500 C 0.41743 0.90667 0.08660
 C501 C 0.41957 1.09855 0.08145
 N502 N 0.56976 0.94803 -0.04428
 N503 N 0.59695 0.91587 -0.05018
 N504 N 0.53847 1.03640 -0.07352
 N505 N 0.54397 1.06631 -0.09949
 N506 N 0.57146 1.03717 -0.04858
 N507 N 0.59977 1.06757 -0.05633
 N508 N 0.53643 0.94750 -0.06892
 N509 N 0.54061 0.91548 -0.09286
 Mn510 Mn 0.57660 0.99539 -0.00610
 C511 C 0.57841 0.89600 -0.08054
 C512 C 0.58257 1.08529 -0.08810
 N513 N 0.41673 1.04146 -0.03575
 N514 N 0.38638 1.07117 -0.04085
 N515 N 0.44026 0.94959 -0.06033
 N516 N 0.42734 0.91770 -0.08236
 N517 N 0.41439 0.95245 -0.03081
 N518 N 0.38373 0.92253 -0.03163
 N519 N 0.44234 1.03858 -0.06541
 N520 N 0.42963 1.06605 -0.09184
 Mn521 Mn 0.42102 0.99969 0.00706
 Mn522 Mn 0.48929 0.99298 -0.06759
 Cl523 Cl 0.49883 0.99725 0.00044
 C524 C 0.39493 1.08631 -0.07574
 C525 C 0.39225 0.90096 -0.06373
 N526 N 0.96721 0.46380 0.57672
 N527 N 0.93716 0.45885 0.60344
 N528 N 1.05798 0.43455 0.54528
 N529 N 1.09438 0.41144 0.54735
 N530 N 1.06019 0.46666 0.56899
 N531 N 1.09810 0.46571 0.58859
 N532 N 0.96558 0.43172 0.55297
 N533 N 0.93471 0.40444 0.56236
 C534 C 0.91756 0.42135 0.59389
 C535 C 1.11894 0.43116 0.57435
 N536 N 1.04334 0.44435 0.43546
 N537 N 1.06344 0.42588 0.40670
 N538 N 0.95493 0.41894 0.47303
 N539 N 0.92746 0.38638 0.47074
 N540 N 0.95114 0.44287 0.44265
 N541 N 0.92140 0.42688 0.41866
 N542 N 1.04759 0.42085 0.46611
 N543 N 1.07081 0.38648 0.45916
 Mn544 Mn 1.00649 0.42638 0.50954
 C545 C 1.08111 0.39029 0.42246
 C546 C 0.90641 0.39216 0.43698
 N547 N 1.05626 0.55795 0.55813
 N548 N 1.08808 0.57347 0.58051
 N549 N 0.95955 0.57897 0.53491
 N550 N 0.92889 0.60823 0.53912
 N551 N 0.96347 0.55535 0.56543
 N552 N 0.93568 0.56851 0.59169
 N553 N 1.05215 0.58118 0.52736
 N554 N 1.08118 0.61248 0.52758
 Mn555 Mn 1.01181 0.51097 0.56804
 C556 C 1.10369 0.60704 0.56058
 C557 C 0.91407 0.60124 0.57432
 N558 N 0.94726 0.53349 0.43216
 N559 N 0.90944 0.53445 0.41245
 N560 N 1.04177 0.56807 0.44797
 N561 N 1.07426 0.59392 0.43924
 N562 N 1.04005 0.53561 0.42467
 N563 N 1.07127 0.53879 0.39887
 N564 N 0.94939 0.56555 0.45586
 N565 N 0.91310 0.58874 0.45368
 Mn566 Mn 0.99546 0.48916 0.43321
 Mn567 Mn 1.00072 0.57369 0.49140
 Cl568 Cl 1.00364 0.50000 0.50058
 C569 C 0.88865 0.56902 0.42667
 C570 C 1.09196 0.57555 0.40855
 N571 N 1.06283 0.56757 0.03425
 N572 N 1.08505 0.60337 0.03834
 N573 N 1.06294 0.47617 0.06903
 N574 N 1.08183 0.45232 0.09579
 N575 N 1.09053 0.48230 0.04103
 N576 N 1.12869 0.46269 0.04799
 N577 N 1.03651 0.56144 0.06318
 N578 N 1.04104 0.59265 0.08805
 C579 C 1.07075 0.61888 0.07166
 C580 C 1.12282 0.44398 0.08208
 N581 N 0.94011 0.43990 0.04817
 N582 N 0.91978 0.40452 0.05759
 N583 N 0.94328 0.53565 0.06827
 N584 N 0.92512 0.55972 0.09471
 N585 N 0.91324 0.52526 0.04233
 N586 N 0.87438 0.54227 0.05011
 N587 N 0.96998 0.45052 0.07412
 N588 N 0.96996 0.42288 0.10248
 Mn589 Mn 1.00330 0.50601 0.06906
 C590 C 0.93867 0.39418 0.09135
 C591 C 0.88222 0.56400 0.08249
 N592 N 1.08580 0.47405 -0.04067
 N593 N 1.12439 0.45660 -0.04870
 N594 N 1.02729 0.54812 -0.07172
 N595 N 1.02864 0.57065 -0.10301
 N596 N 1.05968 0.55925 -0.04819
 N597 N 1.08449 0.58932 -0.06376
 N598 N 1.05520 0.46321 -0.06599
 N599 N 1.07259 0.43839 -0.09221
 Mn600 Mn 1.07498 0.52099 -0.00326
 C601 C 1.11566 0.43414 -0.08059
 C602 C 1.06394 0.59652 -0.09780
 N603 N 0.90836 0.51732 -0.03916
 N604 N 0.87032 0.53704 -0.04635
 N605 N 0.96230 0.43739 -0.06115
 N606 N 0.95678 0.40655 -0.08628
 N607 N 0.93564 0.43192 -0.03248
 N608 N 0.91232 0.39683 -0.03673
 N609 N 0.93586 0.52265 -0.06723
 N610 N 0.91729 0.54619 -0.09430
 Mn611 Mn 0.92417 0.47863 0.00471
 Mn612 Mn 0.99519 0.49271 -0.06669
 Cl613 Cl 0.99946 0.49965 0.00097
 C614 C 0.87643 0.55510 -0.08070
 C615 C 0.92622 0.38108 -0.07003
 N616 N 0.56597 1.06745 0.53374
 N617 N 0.58868 1.10302 0.53719
 N618 N 0.56451 0.97751 0.56983
 N619 N 0.58283 0.95444 0.59733
 N620 N 0.59220 0.98205 0.54180
 N621 N 0.63012 0.96241 0.54942
 N622 N 0.53879 1.06281 0.56218
 N623 N 0.54322 1.09471 0.58632
 C624 C 0.57376 1.11989 0.56976
 C625 C 0.62374 0.94512 0.58399
 N626 N 0.44066 0.94171 0.55044
 N627 N 0.41745 0.90990 0.56491
 N628 N 0.44574 1.03806 0.56684
 N629 N 0.42899 1.06565 0.59110
 N630 N 0.41537 1.02699 0.54147
 N631 N 0.37756 1.04695 0.54736
 N632 N 0.47287 0.95293 0.57405
 N633 N 0.47320 0.92874 0.60439
 Mn634 Mn 0.50543 1.00796 0.56852
 C635 C 0.43889 0.90182 0.59840
 C636 C 0.38653 1.07110 0.57816
 N637 N 0.58732 0.97201 0.46065
 N638 N 0.62441 0.95059 0.45544
 N639 N 0.53241 1.04669 0.42726
 N640 N 0.53418 1.07275 0.39781
 N641 N 0.56213 1.05756 0.45322
 N642 N 0.58411 1.09158 0.44272
 N643 N 0.55692 0.96140 0.43512
 N644 N 0.57277 0.93277 0.41150
 Mn645 Mn 0.57717 1.01978 0.49734
 C646 C 0.61478 0.92622 0.42487
 C647 C 0.56634 1.10081 0.40833
 N648 N 0.41130 1.01730 0.46031
 N649 N 0.37426 1.03874 0.45360
 N650 N 0.46374 0.93729 0.43949
 N651 N 0.45717 0.90683 0.41419
 N652 N 0.43746 0.93194 0.46854
 N653 N 0.41327 0.89741 0.46412
 N654 N 0.43928 1.02267 0.43250
 N655 N 0.42190 1.04776 0.40605
 Mn656 Mn 0.42588 0.97928 0.50511
 Mn657 Mn 0.49800 0.99198 0.43318
 Cl658 Cl 0.50159 0.99973 0.50104
 C659 C 0.38135 1.05757 0.41978
 C660 C 0.42633 0.88180 0.43051
 N661 N 1.06792 1.06734 0.53156
 N662 N 1.09269 1.10167 0.53771
 N663 N 1.06659 0.97754 0.56801
 N664 N 1.08375 0.95059 0.59324
 N665 N 1.09341 0.98182 0.53928
 N666 N 1.12890 0.95754 0.54374
 N667 N 1.03905 1.06285 0.55887
 N668 N 1.04243 1.09431 0.58332
 C669 C 1.07551 1.11851 0.56977
 C670 C 1.12273 0.93843 0.57753
 N671 N 0.94145 0.94082 0.55274
 N672 N 0.91707 0.91164 0.56973
 N673 N 0.94720 1.03807 0.56638
 N674 N 0.93432 1.07148 0.58619
 N675 N 0.91552 1.02626 0.54248
 N676 N 0.88067 1.05174 0.54488
 N677 N 0.97441 0.95295 0.57536
 N678 N 0.97357 0.93203 0.60761
 Mn679 Mn 1.00685 1.00786 0.56738
 C680 C 0.93830 0.90592 0.60362
 C681 C 0.89272 1.07964 0.57239
 N682 N 1.08642 0.96940 0.45909
 N683 N 1.12175 0.94466 0.45622
 N684 N 1.02729 1.04242 0.42617
 N685 N 1.02778 1.06322 0.39385
 N686 N 1.06038 1.05468 0.44859
 N687 N 1.08460 1.08381 0.43126
 N688 N 1.05482 0.95743 0.43521
 N689 N 1.06823 0.92463 0.41488
 Mn690 Mn 1.07734 1.01866 0.49458
 C691 C 1.11005 0.91702 0.42845
 C692 C 1.06302 1.08937 0.39744
 N693 N 0.90838 1.01343 0.46224
 N694 N 0.87291 1.03774 0.45766
 N695 N 0.96298 0.93243 0.44280
 N696 N 0.95989 0.90083 0.41846
 N697 N 0.93392 0.92800 0.46996
 N698 N 0.90934 0.89353 0.46383
 N699 N 0.93548 1.01781 0.43374
 N700 N 0.91882 1.04520 0.40874
 Mn701 Mn 0.92449 0.97681 0.50693
 Mn702 Mn 0.99510 0.98748 0.43428
 Cl703 Cl 1.00096 0.99770 0.50079
 C704 C 0.87965 1.05715 0.42413
 C705 C 0.92680 0.87656 0.43191
 N706 N 0.53665 0.58719 0.01900
 N707 N 0.53638 0.61788 0.04431
 N708 N 0.56517 0.54360 -0.05491
 N709 N 0.59026 0.55018 -0.08471
 N710 N 0.52801 0.56537 -0.05802
 N711 N 0.52606 0.58644 -0.09018
 N712 N 0.57330 0.56448 0.02229
 N713 N 0.59919 0.57961 0.04989
 C714 C 0.57573 0.61329 0.06292
 C715 C 0.56483 0.57640 -0.10655
 N716 N 0.55833 0.42277 -0.02676
 N717 N 0.57311 0.38738 -0.04200
 N718 N 0.59280 0.47566 0.03974
 N719 N 0.63250 0.47029 0.05603
 N720 N 0.56578 0.44506 0.05006
 N721 N 0.58595 0.41942 0.07438
 N722 N 0.58287 0.45523 -0.03698
 N723 N 0.61475 0.44253 -0.05980
 Mn724 Mn 0.57898 0.51000 -0.00757
 C725 C 0.60738 0.40026 -0.06330
 C726 C 0.62711 0.43583 0.07841
 N727 N 0.43498 0.55195 -0.04951
 N728 N 0.41507 0.57667 -0.07479
 N729 N 0.41774 0.54144 0.03688
 N730 N 0.38560 0.55418 0.05941
 N731 N 0.44280 0.57378 0.02733
 N732 N 0.42813 0.60914 0.04266
 N733 N 0.40866 0.52054 -0.03993
 N734 N 0.36971 0.52412 -0.05781
 Mn735 Mn 0.48580 0.56975 -0.01536
 C736 C 0.37483 0.55855 -0.08025
 C737 C 0.39340 0.59633 0.06338
 N738 N 0.47239 0.43162 0.05867
 N739 N 0.47338 0.41053 0.09090
 N740 N 0.42804 0.43199 -0.02206
 N741 N 0.40230 0.41632 -0.04950
 N742 N 0.46464 0.40933 -0.01827
 N743 N 0.46509 0.37812 -0.04303
 N744 N 0.43529 0.45342 0.05494
 N745 N 0.40945 0.44701 0.08424
 Mn746 Mn 0.51512 0.42706 0.01606
 Mn747 Mn 0.42199 0.48660 0.00750
 Cl748 Cl 0.50049 0.49835 0.00018
 C749 C 0.43414 0.42076 0.10654
 C750 C 0.42591 0.38241 -0.06187
 N751 N 0.38349 1.16884 0.07695
 N752 N 0.36269 1.19546 0.09945
 C753 C 0.36548 1.18068 0.13528
 C754 C 0.39012 1.14329 0.13573
 C755 C 0.40062 1.13699 0.09801
 H756 H 0.39615 1.12200 0.15936
 H757 H 0.38444 1.17172 0.04748
 H758 H 0.34499 1.22212 0.08996
 N759 N 0.85969 0.65929 0.57083
 N760 N 0.83629 0.68284 0.59395
 C761 C 0.84250 0.66826 0.62952
 C762 C 0.87089 0.63343 0.62916
 C763 C 0.88119 0.62925 0.59120
 H764 H 0.88365 0.61522 0.65301
 H765 H 0.86160 0.66451 0.54166
 H766 H 0.81685 0.70877 0.58533
 N767 N 0.67025 0.86212 0.07678
 N768 N 0.69314 0.83798 0.10055
 C769 C 0.67669 0.84293 0.13551
 C770 C 0.64134 0.87143 0.13405
 C771 C 0.63841 0.88254 0.09601
 H772 H 0.62037 0.88170 0.15694
 H773 H 0.67620 0.86409 0.04775
 H774 H 0.71936 0.81817 0.09271
 N775 N 1.18751 0.38997 0.56673
 N776 N 1.21163 0.36465 0.58866
 C777 C 1.19995 0.37119 0.62483
 C778 C 1.16814 0.40290 0.62623
 C779 C 1.16050 0.41321 0.58866
 H780 H 1.14819 0.41175 0.65024
 H781 H 1.18660 0.38837 0.53715
 H782 H 1.23295 0.34110 0.57865
 N783 N 0.62236 1.15282 -0.08292
 N784 N 0.64782 1.17673 -0.10407
 C785 C 0.64572 1.16236 -0.14001
 C786 C 0.61664 1.12800 -0.14205
 C787 C 0.60300 1.12289 -0.10483
 H788 H 0.61001 1.10739 -0.16603
 H789 H 0.62023 1.15565 -0.05350
 H790 H 0.66748 1.20160 -0.09360
 N791 N 1.16711 0.60477 0.41132
 N792 N 1.19020 0.63206 0.39143
 C793 C 1.16886 0.63856 0.35804
 C794 C 1.13098 0.61361 0.35612
 C795 C 1.13108 0.59294 0.39077
 H796 H 1.10474 0.61423 0.33468
 H797 H 1.17428 0.59680 0.43953
 H798 H 1.21899 0.64728 0.40142
 N799 N 0.33261 0.84647 -0.05712
 N800 N 0.31003 0.81999 -0.07933
 C801 C 0.32657 0.82235 -0.11447
 C802 C 0.36158 0.85112 -0.11446
 C803 C 0.36409 0.86588 -0.07767
 H804 H 0.38066 0.86177 -0.13839
 H805 H 0.32562 0.85200 -0.02865
 H806 H 0.28279 0.80200 -0.07081
 N807 N 0.85517 0.33070 0.44012
 N808 N 0.83214 0.30670 0.41620
 C809 C 0.83819 0.32131 0.38076
 C810 C 0.86574 0.35646 0.38210
 C811 C 0.87566 0.36123 0.42030
 H812 H 0.87767 0.37518 0.35866
 H813 H 0.85703 0.32590 0.46940
 H814 H 0.81329 0.28039 0.42409
 N815 N 1.19758 0.41034 0.08609
 N816 N 1.22073 0.38527 0.10908
 C817 C 1.19647 0.37694 0.13995
 C818 C 1.15566 0.39787 0.13636
 C819 C 1.15777 0.41849 0.10148
 H820 H 1.12792 0.39682 0.15548
 H821 H 1.20872 0.42098 0.05988
 H822 H 1.25243 0.37351 0.10326
 N823 N 0.69847 0.91219 0.58992
 N824 N 0.72038 0.88640 0.61308
 C825 C 0.69454 0.87738 0.64284
 C826 C 0.65413 0.89863 0.63847
 C827 C 0.65803 0.92002 0.60421
 H828 H 0.62529 0.89674 0.65633
 H829 H 0.71073 0.92324 0.56423
 H830 H 0.75213 0.87431 0.60793
 N831 N 1.05839 0.62189 -0.16149
 N832 N 1.08444 0.64421 -0.18665
 C833 C 1.12092 0.65827 -0.16771
 C834 C 1.11889 0.64530 -0.12973
 C835 C 1.07944 0.62167 -0.12748
 H836 H 1.14390 0.64993 -0.10764
 H837 H 1.02895 0.60616 -0.16911
 H838 H 1.07641 0.64835 -0.21535
 N839 N 0.58933 1.17516 0.40270
 N840 N 0.61512 1.19778 0.38069
 C841 C 0.62476 1.17483 0.34970
 C842 C 0.60336 1.13575 0.35176
 C843 C 0.58154 1.13729 0.38626
 H844 H 0.60785 1.10846 0.33355
 H845 H 0.57990 1.18443 0.42984
 H846 H 0.62787 1.22763 0.38789
 N847 N 0.80655 0.59458 0.08589
 N848 N 0.78216 0.61651 0.10966
 C849 C 0.80577 0.62262 0.14199
 C850 C 0.84757 0.60398 0.13856
 C851 C 0.84661 0.58680 0.10222
 H852 H 0.87511 0.60445 0.15878
 H853 H 0.79611 0.58597 0.05855
 H854 H 0.75009 0.62776 0.10346
 N855 N 0.31476 1.10971 0.57716
 N856 N 0.29207 1.13538 0.59918
 C857 C 0.31494 1.14068 0.63200
 C858 C 0.35439 1.11763 0.63079
 C859 C 0.35292 1.09868 0.59525
 H860 H 0.38072 1.11591 0.65209
 H861 H 0.30452 1.10060 0.54990
 H862 H 0.26157 1.14928 0.59159
 N863 N 0.88316 0.31462 -0.06836
 N864 N 0.85832 0.29201 -0.09199
 C865 C 0.86308 0.30742 -0.12730
 C866 C 0.89314 0.34085 -0.12627
 C867 C 0.90455 0.34459 -0.08815
 H868 H 0.90156 0.36215 -0.14912
 H869 H 0.88343 0.31100 -0.03892
 H870 H 0.83683 0.26783 -0.08363
 N871 N 0.38174 0.81638 0.43179
 N872 N 0.35640 0.79442 0.40808
 C873 C 0.36118 0.81011 0.37286
 C874 C 0.39178 0.84307 0.37400
 C875 C 0.40351 0.84618 0.41214
 H876 H 0.40064 0.86430 0.35123
 H877 H 0.38226 0.81234 0.46118
 H878 H 0.33474 0.77034 0.41635
 N879 N 1.05807 1.11404 0.33093
 N880 N 1.08251 1.13476 0.30638
 C881 C 1.11976 1.14850 0.32421
 C882 C 1.11895 1.13605 0.36208
 C883 C 1.07918 1.11398 0.36498
 H884 H 1.14427 1.14101 0.38385
 H885 H 1.02783 1.09931 0.32408
 H886 H 1.07378 1.13907 0.27785
 N887 N 0.55185 0.60423 -0.17122
 N888 N 0.57297 0.62882 -0.19522
 C889 C 0.61342 0.63791 -0.18028
 C890 C 0.61894 0.61750 -0.14586
 C891 C 0.57912 0.59647 -0.14133
 H892 H 0.64688 0.61951 -0.12611
 H893 H 0.51897 0.59398 -0.17484
 H894 H 0.55923 0.64027 -0.22065
 N895 N 0.83118 1.13255 0.56397
 N896 N 0.81029 1.16123 0.58459
 C897 C 0.82903 1.16203 0.61957
 C898 C 0.86393 1.13290 0.62101
 C899 C 0.86403 1.11481 0.58519
 H900 H 0.88462 1.12437 0.64528
 H901 H 0.82246 1.12479 0.53602
 H902 H 0.78243 1.17847 0.57527
 N903 N 0.34659 0.66069 0.06097
 N904 N 0.32301 0.68394 0.08437
 C905 C 0.32403 0.66534 0.11874
 C906 C 0.34867 0.62806 0.11706
 C907 C 0.36230 0.62653 0.07984
 H908 H 0.35734 0.60653 0.13994
 H909 H 0.35246 0.66859 0.03275
 H910 H 0.30786 0.71277 0.07709
 N911 N 1.18696 0.89297 0.57271
 N912 N 1.20904 0.86303 0.59522
 C913 C 1.18859 0.86147 0.62887
 C914 C 1.15254 0.88968 0.62836
 C915 C 1.15269 0.90855 0.59257
 H916 H 1.12936 0.89561 0.65091
 H917 H 1.19551 0.90065 0.54498
 H918 H 1.23711 0.84593 0.58702
 N919 N 0.70439 0.40697 0.08272
 N920 N 0.72525 0.37662 0.10205
 C921 C 0.69772 0.36190 0.12873
 C922 C 0.65781 0.38370 0.12638
 C923 C 0.66331 0.41188 0.09684
 H924 H 0.62841 0.37888 0.14314
 H925 H 0.71748 0.42268 0.05937
 H926 H 0.75782 0.36657 0.09719
 N927 N 0.93907 0.81436 0.39105
 N928 N 0.91588 0.79104 0.36674
 C929 C 0.87229 0.79955 0.37064
 C930 C 0.86746 0.82967 0.39931
 C931 C 0.91103 0.83853 0.41122
 H932 H 0.83750 0.84678 0.40654
 H933 H 0.97382 0.81596 0.39180
 H934 H 0.92998 0.77157 0.34618
 N935 N 0.44542 0.33661 -0.11583
 N936 N 0.42531 0.31803 -0.14491
 C937 C 0.38128 0.32518 -0.14266
 C938 C 0.37272 0.34990 -0.11110
 C939 C 0.41455 0.35655 -0.09507
 H940 H 0.34100 0.36202 -0.10177
 H941 H 0.47984 0.33640 -0.11092
 H942 H 0.44158 0.30083 -0.16587
 N943 N 1.19054 0.40218 -0.08448
 N944 N 1.21406 0.37940 -0.10823
 C945 C 1.18973 0.37289 -0.14015
 C946 C 1.14835 0.39230 -0.13648
 C947 C 1.15036 0.41026 -0.10040
 H948 H 1.12055 0.39213 -0.15643
 H949 H 1.20171 0.41131 -0.05748
 H950 H 1.24619 0.36810 -0.10238
 N951 N 0.68386 0.88362 0.42710
 N952 N 0.70529 0.85683 0.40525
 C953 C 0.68269 0.85301 0.37209
 C954 C 0.64483 0.87822 0.37284
 C955 C 0.64690 0.89685 0.40847
 H956 H 0.61930 0.88192 0.35104
 H957 H 0.69419 0.89214 0.45449
 H958 H 0.73498 0.84152 0.41303
 N959 N 0.80206 0.58899 -0.08540
 N960 N 0.77922 0.61378 -0.10881
 C961 C 0.80375 0.62157 -0.13966
 C962 C 0.84440 0.60052 -0.13566
 C963 C 0.84188 0.58047 -0.10053
 H964 H 0.87224 0.60107 -0.15470
 H965 H 0.79066 0.57876 -0.05915
 H966 H 0.74747 0.62564 -0.10332
 N967 N 0.30936 1.09560 0.41661
 N968 N 0.28785 1.12202 0.39379
 C969 C 0.31259 1.12899 0.36291
 C970 C 0.35188 1.10578 0.36619
 C971 C 0.34838 1.08526 0.40093
 H972 H 0.37937 1.10490 0.34679
 H973 H 0.29759 1.08540 0.44275
 H974 H 0.25681 1.13530 0.39962
 N975 N 1.11082 0.68719 0.07008
 N976 N 1.13490 0.71051 0.09375
 C977 C 1.13112 0.69460 0.12900
 C978 C 1.10244 0.66008 0.12786
 C979 C 1.09091 0.65620 0.08976
 H980 H 1.09558 0.63795 0.15048
 H981 H 1.11031 0.69096 0.04066
 H982 H 1.15567 0.73526 0.08539
 N983 N 0.61566 1.18708 0.56745
 N984 N 0.64014 1.21009 0.59106
 C985 C 0.63526 1.19492 0.62644
 C986 C 0.60546 1.16134 0.62549
 C987 C 0.59442 1.15713 0.58737
 H988 H 0.59749 1.13987 0.64833
 H989 H 0.61580 1.19023 0.53798
 H990 H 0.66186 1.23404 0.58260
 N991 N 0.91805 0.31874 0.09461
 N992 N 0.89444 0.29408 0.11675
 C993 C 0.88596 0.31502 0.14911
 C994 C 0.90588 0.35490 0.14772
 C995 C 0.92555 0.35598 0.11228
 H996 H 0.90129 0.38115 0.16707
 H997 H 0.92604 0.31126 0.06670
 H998 H 0.88187 0.26444 0.10866
 N999 N 0.44798 0.87063 0.65978
 N1000 N 0.42267 0.84665 0.68431
 C1001 C 0.38500 0.83499 0.66574
 C1002 C 0.38573 0.85063 0.62860
 C1003 C 0.42532 0.87389 0.62664
 H1004 H 0.35931 0.84886 0.60738
 H1005 H 0.47779 0.88569 0.66746
 H1006 H 0.43139 0.84078 0.71263
 N1007 N 0.34172 1.14557 -0.07312
 N1008 N 0.32055 1.17142 -0.09658
 C1009 C 0.33276 1.16255 -0.13229
 C1010 C 0.36367 1.12970 -0.13161
 C1011 C 0.36823 1.12003 -0.09331
 H1012 H 0.37980 1.11471 -0.15531
 H1013 H 0.33784 1.14546 -0.04376
 H1014 H 0.29768 1.19442 -0.08808
 N1015 N 0.82037 0.61019 0.43439
 N1016 N 0.79668 0.63600 0.41264
 C1017 C 0.80871 0.62994 0.37649
 C1018 C 0.84024 0.59808 0.37483
 C1019 C 0.84735 0.58712 0.41231
 H1020 H 0.86008 0.58922 0.35075
 H1021 H 0.82095 0.61125 0.46399
 H1022 H 0.77509 0.65927 0.42278
 N1023 N 0.65770 1.15298 0.06002
 N1024 N 0.67875 1.18020 0.08251
 C1025 C 0.66354 1.17571 0.11799
 C1026 C 0.63085 1.14459 0.11795
 C1027 C 0.62852 1.13079 0.08067
 H1028 H 0.61368 1.13164 0.14205
 H1029 H 0.66431 1.14886 0.03129
 H1030 H 0.70447 1.20008 0.07388
 N1031 N 1.15624 0.66761 0.55361
 N1032 N 1.17949 0.69315 0.57620
 C1033 C 1.17396 0.68033 0.61218
 C1034 C 1.14688 0.64478 0.61253
 C1035 C 1.13630 0.63787 0.57494
 H1036 H 1.13497 0.62754 0.63687
 H1037 H 1.15338 0.67113 0.52423
 H1038 H 1.19764 0.71940 0.56711
 N1039 N 0.61422 0.82540 -0.07665
 N1040 N 0.63451 0.79875 -0.09948
 C1041 C 0.63169 0.81387 -0.13520
 C1042 C 0.60753 0.85155 -0.13521
 C1043 C 0.59738 0.85766 -0.09737
 H1044 H 0.60169 0.87319 -0.15861
 H1045 H 0.61338 0.82223 -0.04720
 H1046 H 0.65207 0.77188 -0.09025
 N1047 N 1.10603 0.31631 0.41757
 N1048 N 1.12613 0.29163 0.39314
 C1049 C 1.13379 0.31427 0.36158
 C1050 C 1.11741 0.35515 0.36571
 C1051 C 1.10063 0.35500 0.40194
 H1052 H 1.12004 0.38169 0.34639
 H1053 H 1.09706 0.30685 0.44476
 H1054 H 1.13579 0.26032 0.39872
 N1055 N 0.37892 0.83843 0.08031
 N1056 N 0.35465 0.81357 0.10163
 C1057 C 0.35793 0.82710 0.13778
 C1058 C 0.38652 0.86169 0.13980
 C1059 C 0.39855 0.86801 0.10244
 H1060 H 0.39317 0.88212 0.16391
 H1061 H 0.37975 0.83669 0.05076
 H1062 H 0.33442 0.78914 0.09113
 N1063 N 0.84279 0.39128 0.59038
 N1064 N 0.82000 0.36248 0.60883
 C1065 C 0.84127 0.35401 0.64189
 C1066 C 0.87908 0.37925 0.64496
 C1067 C 0.87876 0.40235 0.61140
 H1068 H 0.90496 0.37806 0.66668
 H1069 H 0.83530 0.40112 0.56271
 H1070 H 0.79094 0.34817 0.59832
 N1071 N 1.06378 1.18081 0.61048
 N1072 N 1.08715 1.20386 0.63486
 C1073 C 1.13062 1.19476 0.63117
 C1074 C 1.13526 1.16454 0.60260
 C1075 C 1.09164 1.15629 0.59048
 H1076 H 1.16505 1.14710 0.59547
 H1077 H 1.02901 1.17968 0.60954
 H1078 H 1.07321 1.22363 0.65528
 N1079 N 0.55619 0.65631 0.11866
 N1080 N 0.57631 0.67454 0.14790
 C1081 C 0.62053 0.66906 0.14479
 C1082 C 0.62918 0.64572 0.11237
 C1083 C 0.58718 0.63816 0.09680
 H1084 H 0.66109 0.63522 0.10206
 H1085 H 0.52169 0.65559 0.11431
 H1086 H 0.55993 0.69060 0.16950
 N1087 N 1.17270 0.86530 0.43595
 N1088 N 1.19413 0.83748 0.41484
 C1089 C 1.17544 0.83728 0.37985
 C1090 C 1.14003 0.86580 0.37886
 C1091 C 1.13953 0.88291 0.41500
 H1092 H 1.11899 0.87429 0.35480
 H1093 H 1.18112 0.87243 0.46409
 H1094 H 1.22209 0.82025 0.42393
 N1095 N 0.65293 0.33503 -0.06193
 N1096 N 0.67712 0.31239 -0.08534
 C1097 C 0.67796 0.33236 -0.11908
 C1098 C 0.65383 0.36996 -0.11688
 C1099 C 0.63850 0.37015 -0.08008
 H1100 H 0.64629 0.39242 -0.13932
 H1101 H 0.64572 0.32604 -0.03421
 H1102 H 0.69120 0.28291 -0.07862
 N1103 N 0.81549 1.10674 0.42789
 N1104 N 0.79446 1.13469 0.40612
 C1105 C 0.81361 1.13514 0.37192
 C1106 C 0.84876 1.10632 0.37198
 C1107 C 0.84875 1.08909 0.40815
 H1108 H 0.87118 1.09919 0.34917
 H1109 H 0.80734 1.10027 0.45596
 H1110 H 0.76736 1.15297 0.41465
 N1111 N 0.29605 0.58191 -0.08926
 N1112 N 0.27440 0.61072 -0.10980
 C1113 C 0.30275 0.62741 -0.13490
 C1114 C 0.34410 0.60865 -0.13017
 C1115 C 0.33853 0.58016 -0.10084
 H1116 H 0.37445 0.61604 -0.14488
 H1117 H 0.28243 0.56531 -0.06663
 H1118 H 0.24092 0.61876 -0.10656
 N1119 N 0.94156 0.88163 0.67018
 N1120 N 0.91643 0.86100 0.69425
 C1121 C 0.87973 0.84705 0.67569
 C1122 C 0.88159 0.85925 0.63785
 C1123 C 0.92141 0.88141 0.63576
 H1124 H 0.85691 0.85412 0.61559
 H1125 H 0.97155 0.89650 0.67760
 H1126 H 0.92437 0.85685 0.72296
 N1127 N 0.44407 0.39577 0.17258
 N1128 N 0.42128 0.37326 0.19708
 C1129 C 0.38142 0.36359 0.18121
 C1130 C 0.37809 0.38140 0.14549
 C1131 C 0.41852 0.40153 0.14131
 H1132 H 0.35118 0.37828 0.12484
 H1133 H 0.47678 0.40615 0.17698
 H1134 H 0.43362 0.36331 0.22349
   
