data_POSCAR
  _audit_creation_date              2014-09-24
  _audit_creation_method            'ToBaCCo'
  _symmetry_space_group_name_H-M    'P1'
  _symmetry_Int_Tables_number       1
  _symmetry_cell_setting            triclinic
  loop_
  _symmetry_equiv_pos_as_xyz
 x,y,z
_cell_length_a 33.1948
_cell_length_b 33.5158
_cell_length_c 33.4590
_cell_angle_alpha 90.927900
_cell_angle_beta 90.702600
_cell_angle_gamma 84.055600
loop_
  _atom_site_label
  _atom_site_type_symbol
  _atom_site_fract_x
  _atom_site_fract_y
  _atom_site_fract_z
C1 C 0.30196 0.23197 0.20997
 C2 C 0.26750 0.25964 0.20600
 C3 C 0.23619 0.26154 0.23396
 C4 C 0.23969 0.23527 0.26648
 C5 C 0.27389 0.20702 0.27089
 C6 C 0.30478 0.20561 0.24232
 H7 H 0.26508 0.27993 0.18102
 H8 H 0.21576 0.23686 0.28833
 H9 H 0.33117 0.18394 0.24522
 C10 C 0.70245 -0.24373 0.22522
 C11 C 0.73326 -0.27619 0.22631
 C12 C 0.76226 -0.28012 0.25771
 C13 C 0.75957 -0.25064 0.28847
 C14 C 0.72935 -0.21824 0.28805
 C15 C 0.70130 -0.21490 0.25642
 H16 H 0.73459 -0.29852 0.20262
 H17 H 0.78166 -0.25188 0.31256
 H18 H 0.67762 -0.19018 0.25723
 C19 C 0.73081 0.27869 0.76666
 C20 C 0.73263 0.24740 0.73822
 C21 C 0.76193 0.24442 0.70821
 C22 C 0.78942 0.27352 0.70655
 C23 C 0.78879 0.30503 0.73514
 C24 C 0.75893 0.30712 0.76504
 H25 H 0.71133 0.22509 0.73966
 H26 H 0.81235 0.27030 0.68372
 H27 H 0.75667 0.33140 0.78685
 C28 C 0.27263 -0.25890 0.76847
 C29 C 0.27174 -0.22851 0.74007
 C30 C 0.24197 -0.22529 0.70981
 C31 C 0.21288 -0.25300 0.70820
 C32 C 0.21260 -0.28357 0.73678
 C33 C 0.24313 -0.28601 0.76666
 H34 H 0.29419 -0.20726 0.74163
 H35 H 0.18965 -0.24951 0.68523
 H36 H 0.24500 -0.30970 0.78835
 C37 C 0.70328 -0.23031 0.79142
 C38 C 0.69953 -0.20075 0.76199
 C39 C 0.72702 -0.20198 0.73049
 C40 C 0.75817 -0.23352 0.72821
 C41 C 0.76296 -0.26368 0.75733
 C42 C 0.73517 -0.26136 0.78915
 H43 H 0.67513 -0.17670 0.76360
 H44 H 0.77950 -0.23349 0.70404
 H45 H 0.73722 -0.28430 0.81167
 C46 C 0.28353 0.22660 0.78996
 C47 C 0.28020 0.19813 0.75912
 C48 C 0.24648 0.20119 0.73299
 C49 C 0.21588 0.23305 0.73826
 C50 C 0.21860 0.26152 0.76916
 C51 C 0.25238 0.25790 0.79491
 H52 H 0.30408 0.17385 0.75520
 H53 H 0.19003 0.23595 0.71805
 H54 H 0.25468 0.27994 0.81865
 C55 C 0.26192 -0.26778 0.22378
 C56 C 0.25949 -0.23567 0.25186
 C57 C 0.23104 -0.23276 0.28284
 C58 C 0.20401 -0.26209 0.28557
 C59 C 0.20533 -0.29420 0.25805
 C60 C 0.23444 -0.29698 0.22765
 H61 H 0.28057 -0.21321 0.25079
 H62 H 0.18185 -0.25992 0.30919
 H63 H 0.23449 -0.32153 0.20631
 C64 C 0.74099 0.24229 0.21845
 C65 C 0.76628 0.27341 0.22120
 C66 C 0.79312 0.27604 0.25378
 C67 C 0.79442 0.24709 0.28376
 C68 C 0.76939 0.21583 0.28151
 C69 C 0.74277 0.21371 0.24881
 H70 H 0.76514 0.29558 0.19792
 H71 H 0.81510 0.24879 0.30887
 H72 H 0.72333 0.18969 0.24703
 O73 O 0.29331 0.03090 0.45470
 O74 O 0.30101 -0.04716 0.53218
 O75 O 0.29771 -0.04735 0.45466
 O76 O 0.30021 0.03063 0.53253
 O77 O 0.23362 0.03547 0.53655
 O78 O 0.23109 -0.04317 0.45787
 O79 O 0.23435 -0.04210 0.53545
 O80 O 0.22672 0.03506 0.45826
 Cu81 Cu 0.30468 -0.00857 0.49312
 Cu82 Cu 0.22478 -0.00302 0.49730
 C83 C 0.25852 0.04612 0.44306
 C84 C 0.26881 -0.05804 0.54697
 C85 C 0.26424 -0.05901 0.44313
 C86 C 0.26757 0.04614 0.54827
 O87 O 0.70843 0.04950 0.54084
 O88 O 0.71621 -0.03411 0.46771
 O89 O 0.71460 -0.02846 0.54559
 O90 O 0.70974 0.04377 0.46351
 O91 O 0.77633 0.04222 0.46521
 O92 O 0.78119 -0.02999 0.54694
 O93 O 0.78278 -0.03551 0.46910
 O94 O 0.77504 0.04774 0.54248
 Cu95 Cu 0.70555 0.00769 0.50428
 Cu96 Cu 0.78553 0.00584 0.50613
 C97 C 0.74045 0.06311 0.55399
 C98 C 0.75079 -0.04892 0.45563
 C99 C 0.74877 -0.04149 0.56041
 C100 C 0.74222 0.05555 0.45048
 O101 O 0.47769 0.29437 0.03063
 O102 O 0.55535 0.29018 -0.04765
 O103 O 0.47694 0.29180 -0.04710
 O104 O 0.55568 0.29606 0.03009
 O105 O 0.56306 0.22999 0.03273
 O106 O 0.48311 0.22572 -0.04485
 O107 O 0.56192 0.22411 -0.04504
 O108 O 0.48481 0.22828 0.03299
 Cu109 Cu 0.51575 0.29969 -0.00880
 Cu110 Cu 0.52396 0.22040 -0.00583
 C111 C 0.46802 0.26193 0.04524
 C112 C 0.57189 0.25629 -0.05975
 C113 C 0.46632 0.25832 -0.05918
 C114 C 0.57281 0.26393 0.04481
 O115 O 0.51928 0.70993 0.04265
 O116 O 0.44131 0.72098 -0.03677
 O117 O 0.51988 0.71236 -0.03473
 O118 O 0.44002 0.71859 0.04154
 O119 O 0.44040 0.78431 0.04448
 O120 O 0.52008 0.77813 -0.03149
 O121 O 0.44139 0.78675 -0.03351
 O122 O 0.51936 0.77570 0.04578
 Cu123 Cu 0.47987 0.70888 0.00297
 Cu124 Cu 0.48018 0.78781 0.00672
 C125 C 0.53307 0.74098 0.05745
 C126 C 0.42839 0.75568 -0.04912
 C127 C 0.53374 0.74423 -0.04605
 C128 C 0.42664 0.75256 0.05620
 O129 O 0.03821 0.45440 0.27285
 O130 O -0.04610 0.53316 0.26356
 O131 O -0.04006 0.45509 0.26437
 O132 O 0.03258 0.53214 0.26555
 O133 O 0.03560 0.52728 0.19983
 O134 O -0.03552 0.45100 0.19870
 O135 O -0.04311 0.52902 0.19781
 O136 O 0.04249 0.44925 0.20721
 Cu137 Cu -0.00422 0.49417 0.27310
 Cu138 Cu 0.00035 0.48874 0.19438
 C139 C 0.05478 0.43812 0.24189
 C140 C -0.05927 0.54464 0.22946
 C141 C -0.05008 0.43986 0.23103
 C142 C 0.04635 0.54293 0.23250
 O143 O 0.03682 0.54868 0.73521
 O144 O -0.03923 0.47592 0.73505
 O145 O -0.04194 0.55333 0.74053
 O146 O 0.03895 0.47064 0.72914
 O147 O 0.04402 0.46589 0.79471
 O148 O -0.03646 0.54965 0.80616
 O149 O -0.03421 0.47251 0.80075
 O150 O 0.04246 0.54406 0.80074
 Cu151 Cu -0.00175 0.51269 0.72840
 Cu152 Cu 0.00476 0.50773 0.80718
 C153 C 0.05268 0.55881 0.76810
 C154 C -0.04991 0.46199 0.76794
 C155 C -0.05350 0.56532 0.77514
 C156 C 0.05488 0.45360 0.75995
 C157 C 0.35340 0.19381 0.16561
 C158 C 0.33482 0.23071 0.18012
 C159 C 0.34721 0.26655 0.16540
 C160 C 0.37723 0.26558 0.13618
 C161 C 0.39546 0.22831 0.12161
 C162 C 0.38348 0.19261 0.13665
 C163 C 0.42519 0.22734 0.09209
 C164 C 0.43694 0.26318 0.07672
 C165 C 0.41869 0.30009 0.09159
 C166 C 0.38915 0.30128 0.12109
 H167 H 0.33357 0.29521 0.17679
 H168 H 0.39711 0.16376 0.12576
 H169 H 0.43898 0.19864 0.08096
 H170 H 0.37548 0.33012 0.13196
 H171 H 0.34410 0.16581 0.17610
 H172 H 0.42719 0.32813 0.08037
 C173 C 0.65471 0.79778 0.18218
 C174 C 0.67277 0.75971 0.19413
 C175 C 0.65959 0.72535 0.17499
 C176 C 0.62861 0.72897 0.14588
 C177 C 0.61085 0.76735 0.13485
 C178 C 0.62435 0.80150 0.15291
 C179 C 0.57970 0.77105 0.10604
 C180 C 0.56564 0.73678 0.08819
 C181 C 0.58338 0.69864 0.09950
 C182 C 0.61461 0.69477 0.12803
 H183 H 0.67156 0.69555 0.18406
 H184 H 0.61136 0.83121 0.14446
 H185 H 0.56634 0.80067 0.09769
 H186 H 0.62776 0.66503 0.13616
 H187 H 0.66480 0.82518 0.19439
 H188 H 0.57324 0.67172 0.08616
 C189 C 0.67886 0.31858 -0.19083
 C190 C 0.69980 0.28139 -0.20155
 C191 C 0.69110 0.24671 -0.18167
 C192 C 0.66187 0.24906 -0.15161
 C193 C 0.64106 0.28660 -0.14100
 C194 C 0.64979 0.32118 -0.16080
 C195 C 0.61184 0.28891 -0.11086
 C196 C 0.60297 0.25409 -0.09127
 C197 C 0.62389 0.21693 -0.10215
 C198 C 0.65311 0.21445 -0.13197
 H199 H 0.70744 0.21795 -0.18926
 H200 H 0.63403 0.35020 -0.15318
 H201 H 0.59589 0.31775 -0.10285
 H202 H 0.66879 0.18543 -0.13972
 H203 H 0.68463 0.34565 -0.20605
 H204 H 0.61774 0.18964 -0.08754
 C205 C 0.32344 0.69972 -0.18934
 C206 C 0.30409 0.73758 -0.19948
 C207 C 0.31395 0.77173 -0.17802
 C208 C 0.34220 0.76801 -0.14637
 C209 C 0.36096 0.72970 -0.13610
 C210 C 0.35157 0.69581 -0.15794
 C211 C 0.38876 0.72585 -0.10413
 C212 C 0.39839 0.75986 -0.08229
 C213 C 0.37973 0.79786 -0.09291
 C214 C 0.35181 0.80190 -0.12457
 H215 H 0.29895 0.80102 -0.18534
 H216 H 0.36587 0.66624 -0.15065
 H217 H 0.40309 0.69638 -0.09648
 H218 H 0.33775 0.83151 -0.13201
 H219 H 0.31682 0.67305 -0.20580
 H220 H 0.38662 0.82455 -0.07664
 C221 C 0.18271 0.29893 0.19122
 C222 C 0.20036 0.29162 0.22920
 C223 C 0.18469 0.31434 0.26220
 C224 C 0.15246 0.34450 0.25723
 C225 C 0.13542 0.35205 0.21879
 C226 C 0.15058 0.32883 0.18605
 C227 C 0.10366 0.38275 0.21374
 C228 C 0.08853 0.40593 0.24670
 C229 C 0.10560 0.39788 0.28481
 C230 C 0.13728 0.36757 0.29001
 H231 H 0.19830 0.30933 0.29155
 H232 H 0.13777 0.33397 0.15641
 H233 H 0.09068 0.38845 0.18424
 H234 H 0.14994 0.36223 0.31968
 H235 H 0.19384 0.28145 0.16539
 H236 H 0.09459 0.41522 0.31076
 C237 C 0.16320 0.67906 0.69959
 C238 C 0.18250 0.68905 0.73579
 C239 C 0.17094 0.67083 0.77116
 C240 C 0.14178 0.64339 0.77036
 C241 C 0.12328 0.63360 0.73383
 C242 C 0.13413 0.65169 0.69867
 C243 C 0.09423 0.60593 0.73310
 C244 C 0.08330 0.58801 0.76860
 C245 C 0.10182 0.59826 0.80483
 C246 C 0.13074 0.62567 0.80570
 H247 H 0.18321 0.67894 0.79993
 H248 H 0.12040 0.64438 0.67029
 H249 H 0.08013 0.59845 0.70494
 H250 H 0.14457 0.63292 0.83406
 H251 H 0.17157 0.69085 0.67133
 H252 H 0.09403 0.58502 0.83264
 C253 C -0.18992 0.67292 0.29528
 C254 C -0.20652 0.68738 0.25851
 C255 C -0.19067 0.66890 0.22285
 C256 C -0.15872 0.63788 0.22402
 C257 C -0.14254 0.62448 0.26120
 C258 C -0.15852 0.64196 0.29655
 C259 C -0.11039 0.59396 0.26256
 C260 C -0.09365 0.57653 0.22717
 C261 C -0.10993 0.58998 0.19020
 C262 C -0.14221 0.62036 0.18864
 H263 H -0.20144 0.67974 0.19394
 H264 H -0.14672 0.63165 0.32535
 H265 H -0.09823 0.58400 0.29136
 H266 H -0.15414 0.63026 0.15977
 H267 H -0.20197 0.68438 0.32358
 H268 H -0.09767 0.57708 0.16248
 C269 C -0.16468 0.34348 0.69804
 C270 C -0.18219 0.33332 0.73432
 C271 C -0.16950 0.35175 0.76997
 C272 C -0.14023 0.37902 0.76944
 C273 C -0.12335 0.38886 0.73283
 C274 C -0.13587 0.37101 0.69733
 C275 C -0.09406 0.41618 0.73237
 C276 C -0.08096 0.43339 0.76823
 C277 C -0.09776 0.42308 0.80454
 C278 C -0.12721 0.39626 0.80513
 H279 H -0.18070 0.34362 0.79866
 H280 H -0.12341 0.37838 0.66892
 H281 H -0.08119 0.42369 0.70418
 H282 H -0.13973 0.38896 0.83354
 H283 H -0.17420 0.33149 0.66966
 H284 H -0.08832 0.43596 0.83259
 C285 C 0.31503 0.16854 0.32398
 C286 C 0.27738 0.17873 0.30497
 C287 C 0.24333 0.16109 0.31818
 C288 C 0.24692 0.13341 0.34943
 C289 C 0.28506 0.12289 0.36774
 C290 C 0.31885 0.14084 0.35494
 C291 C 0.28879 0.09449 0.39839
 C292 C 0.25475 0.07665 0.41126
 C293 C 0.21687 0.08783 0.39314
 C294 C 0.21302 0.11578 0.36246
 H295 H 0.21420 0.16819 0.30360
 H296 H 0.34829 0.13341 0.36881
 H297 H 0.31814 0.08635 0.41219
 H298 H 0.18352 0.12352 0.34883
 H299 H 0.34163 0.18217 0.31505
 H300 H 0.19015 0.07456 0.40236
 C301 C 0.80258 0.19043 0.66883
 C302 C 0.76464 0.21015 0.67934
 C303 C 0.72933 0.19647 0.66273
 C304 C 0.73187 0.16352 0.63616
 C305 C 0.77020 0.14408 0.62575
 C306 C 0.80535 0.15778 0.64221
 C307 C 0.77278 0.11123 0.59908
 C308 C 0.73751 0.09736 0.58265
 C309 C 0.69952 0.11682 0.59337
 C310 C 0.69672 0.14965 0.61982
 H311 H 0.69991 0.21166 0.67024
 H312 H 0.83498 0.14310 0.63470
 H313 H 0.80230 0.09652 0.59115
 H314 H 0.66708 0.16417 0.62750
 H315 H 0.83020 0.19984 0.68173
 H316 H 0.67187 0.10683 0.58111
 C317 C 0.20335 -0.17150 0.66925
 C318 C 0.24063 -0.19244 0.68031
 C319 C 0.27643 -0.18182 0.66305
 C320 C 0.27493 -0.15101 0.63490
 C321 C 0.23719 -0.13053 0.62383
 C322 C 0.20164 -0.14091 0.64128
 C323 C 0.23553 -0.10011 0.59539
 C324 C 0.27113 -0.08966 0.57765
 C325 C 0.30857 -0.11001 0.58908
 C326 C 0.31045 -0.14043 0.61741
 H327 H 0.30534 -0.19792 0.67104
 H328 H 0.17247 -0.12536 0.63329
 H329 H 0.20641 -0.08468 0.58701
 H330 H 0.33968 -0.15577 0.62554
 H331 H 0.17543 -0.17852 0.68260
 H332 H 0.33645 -0.10262 0.57592
 C333 C 0.68923 -0.17370 0.33739
 C334 C 0.72690 -0.18768 0.32081
 C335 C 0.76204 -0.17198 0.33530
 C336 C 0.75954 -0.14237 0.36557
 C337 C 0.72143 -0.12823 0.38164
 C338 C 0.68651 -0.14424 0.36749
 C339 C 0.71882 -0.09807 0.41134
 C340 C 0.75382 -0.08172 0.42528
 C341 C 0.79162 -0.09636 0.40939
 C342 C 0.79445 -0.12637 0.37979
 H343 H 0.79119 -0.18219 0.32247
 H344 H 0.65708 -0.13390 0.37961
 H345 H 0.68946 -0.08717 0.42335
 H346 H 0.82392 -0.13689 0.36786
 H347 H 0.66182 -0.18578 0.32719
 H348 H 0.81907 -0.08432 0.41955
 C349 C 0.66031 0.80766 -0.15667
 C350 C 0.67330 0.77105 -0.17589
 C351 C 0.65661 0.73607 -0.16459
 C352 C 0.62685 0.73776 -0.13497
 C353 C 0.61371 0.77485 -0.11624
 C354 C 0.63083 0.80955 -0.12711
 C355 C 0.58347 0.77671 -0.08716
 C356 C 0.56602 0.74196 -0.07643
 C357 C 0.57957 0.70516 -0.09503
 C358 C 0.60967 0.70309 -0.12406
 H359 H 0.66602 0.70776 -0.17953
 H360 H 0.62125 0.83820 -0.11293
 H361 H 0.57346 0.80529 -0.07301
 H362 H 0.61938 0.67439 -0.13809
 H363 H 0.67308 0.83491 -0.16450
 H364 H 0.56671 0.67793 -0.08734
 C365 C 0.33641 0.18806 -0.16712
 C366 C 0.31978 0.22462 -0.18339
 C367 C 0.33722 0.25992 -0.17320
 C368 C 0.36986 0.25909 -0.14621
 C369 C 0.38594 0.22238 -0.12932
 C370 C 0.36923 0.18694 -0.14031
 C371 C 0.41799 0.22193 -0.10136
 C372 C 0.43386 0.25784 -0.08994
 C373 C 0.41783 0.29399 -0.10753
 C374 C 0.38626 0.29459 -0.13543
 H375 H 0.32519 0.28819 -0.18616
 H376 H 0.38114 0.15848 -0.12774
 H377 H 0.43004 0.19384 -0.08809
 H378 H 0.37433 0.32296 -0.14820
 H379 H 0.32339 0.16049 -0.17436
 H380 H 0.42952 0.32206 -0.09952
 C381 C 0.30596 0.69181 0.17576
 C382 C 0.29117 0.72937 0.19271
 C383 C 0.30659 0.76402 0.17786
 C384 C 0.33580 0.76121 0.14766
 C385 C 0.35024 0.72336 0.13149
 C386 C 0.33504 0.68892 0.14569
 C387 C 0.37972 0.72059 0.10148
 C388 C 0.39499 0.75532 0.08734
 C389 C 0.38007 0.79288 0.10351
 C390 C 0.35077 0.79581 0.13330
 H391 H 0.29499 0.79363 0.18842
 H392 H 0.34597 0.65955 0.13384
 H393 H 0.39083 0.69139 0.08931
 H394 H 0.33996 0.82516 0.14527
 H395 H 0.29667 0.66404 0.18669
 H396 H 0.39117 0.82016 0.09323
 C397 C 0.70627 0.20231 0.16672
 C398 C 0.71233 0.23971 0.18423
 C399 C 0.69013 0.27450 0.16953
 C400 C 0.66190 0.27196 0.13827
 C401 C 0.65561 0.23415 0.12135
 C402 C 0.67816 0.19954 0.13563
 C403 C 0.62668 0.23157 0.09066
 C404 C 0.60402 0.26639 0.07653
 C405 C 0.61097 0.30386 0.09331
 C406 C 0.63955 0.30661 0.12392
 H407 H 0.69409 0.30347 0.18303
 H408 H 0.67396 0.17032 0.12288
 H409 H 0.62177 0.20250 0.07793
 H410 H 0.64401 0.33585 0.13649
 H411 H 0.72344 0.17510 0.17700
 H412 H 0.59398 0.33118 0.08307
 C413 C -0.18932 0.69181 0.71683
 C414 C -0.20494 0.70490 0.75449
 C415 C -0.18711 0.68631 0.78901
 C416 C -0.15409 0.65662 0.78594
 C417 C -0.13891 0.64451 0.74794
 C418 C -0.15690 0.66206 0.71366
 C419 C -0.10594 0.61500 0.74473
 C420 C -0.08754 0.59732 0.77908
 C421 C -0.10264 0.60973 0.81686
 C422 C -0.13564 0.63909 0.82026
 H423 H -0.19726 0.69614 0.81853
 H424 H -0.14593 0.65273 0.68423
 H425 H -0.09469 0.60578 0.71536
 H426 H -0.14674 0.64804 0.84973
 H427 H -0.20291 0.70340 0.68927
 H428 H -0.08914 0.59654 0.84383
 C429 C -0.17269 0.32790 0.29291
 C430 C -0.17961 0.30849 0.25624
 C431 C -0.15965 0.31961 0.22200
 C432 C -0.13296 0.34939 0.22433
 C433 C -0.12593 0.36850 0.26138
 C434 C -0.14610 0.35762 0.29547
 C435 C -0.09881 0.39804 0.26367
 C436 C -0.07875 0.40880 0.22928
 C437 C -0.08624 0.38960 0.19262
 C438 C -0.11299 0.36018 0.19018
 H439 H -0.16423 0.30450 0.19366
 H440 H -0.14128 0.37202 0.32411
 H441 H -0.09342 0.41264 0.29210
 H442 H -0.11802 0.34584 0.16154
 H443 H -0.18808 0.32027 0.31965
 H444 H -0.07124 0.39717 0.16563
 C445 C 0.17278 0.30779 0.81222
 C446 C 0.18695 0.29584 0.77399
 C447 C 0.17177 0.31765 0.74056
 C448 C 0.14317 0.35122 0.74526
 C449 C 0.12933 0.36311 0.78387
 C450 C 0.14419 0.34108 0.81712
 C451 C 0.10086 0.39681 0.78859
 C452 C 0.08586 0.41880 0.75516
 C453 C 0.09993 0.40668 0.71692
 C454 C 0.12835 0.37326 0.71202
 H455 H 0.18289 0.30903 0.71100
 H456 H 0.13382 0.34965 0.84692
 H457 H 0.09020 0.40568 0.81824
 H458 H 0.13865 0.36460 0.68221
 H459 H 0.18375 0.29122 0.83837
 H460 H 0.08889 0.42300 0.69064
 C461 C 0.16555 0.66036 0.29766
 C462 C 0.17581 0.67542 0.26053
 C463 C 0.15765 0.66137 0.22559
 C464 C 0.13010 0.63248 0.22753
 C465 C 0.12000 0.61746 0.26495
 C466 C 0.13787 0.63170 0.29986
 C467 C 0.09237 0.58841 0.26672
 C468 C 0.07503 0.57398 0.23144
 C469 C 0.08544 0.58929 0.19447
 C470 C 0.11255 0.61829 0.19254
 H471 H 0.16465 0.67322 0.19682
 H472 H 0.13065 0.62051 0.32883
 H473 H 0.08472 0.57685 0.29541
 H474 H 0.11994 0.62950 0.16362
 H475 H 0.17938 0.67036 0.32501
 H476 H 0.07250 0.57892 0.16681
 C477 C 0.68584 -0.15654 0.68297
 C478 C 0.72364 -0.17029 0.69982
 C479 C 0.75859 -0.15443 0.68647
 C480 C 0.75608 -0.12609 0.65600
 C481 C 0.71803 -0.11286 0.63883
 C482 C 0.68304 -0.12803 0.65276
 C483 C 0.71569 -0.08498 0.60781
 C484 C 0.75098 -0.07032 0.59358
 C485 C 0.78859 -0.08355 0.61117
 C486 C 0.79111 -0.11111 0.64213
 H487 H 0.78782 -0.16424 0.69975
 H488 H 0.65361 -0.11823 0.63994
 H489 H 0.68648 -0.07502 0.59458
 H490 H 0.82051 -0.12093 0.65502
 H491 H 0.65853 -0.16854 0.69254
 H492 H 0.81622 -0.07268 0.60093
 C493 C 0.19295 -0.17972 0.32596
 C494 C 0.23004 -0.19928 0.31269
 C495 C 0.26634 -0.18671 0.32809
 C496 C 0.26570 -0.15502 0.35603
 C497 C 0.22829 -0.13563 0.36925
 C498 C 0.19207 -0.14824 0.35401
 C499 C 0.22778 -0.10410 0.39754
 C500 C 0.26427 -0.09163 0.41267
 C501 C 0.30125 -0.11108 0.39898
 C502 C 0.30196 -0.14248 0.37103
 H503 H 0.29516 -0.20193 0.31872
 H504 H 0.16308 -0.13368 0.36367
 H505 H 0.19904 -0.08940 0.40777
 H506 H 0.33091 -0.15700 0.36119
 H507 H 0.16455 -0.18845 0.31425
 H508 H 0.32983 -0.10224 0.41011
 C509 C 0.80859 0.16913 0.32906
 C510 C 0.77111 0.18530 0.31324
 C511 C 0.73527 0.17209 0.32776
 C512 C 0.73681 0.14312 0.35765
 C513 C 0.77467 0.12715 0.37339
 C514 C 0.81037 0.14032 0.35888
 C515 C 0.77623 0.09838 0.40345
 C516 C 0.74040 0.08529 0.41816
 C517 C 0.70291 0.10127 0.40216
 C518 C 0.70113 0.12994 0.37218
 H519 H 0.70615 0.18473 0.31616
 H520 H 0.83966 0.12830 0.37053
 H521 H 0.80537 0.08635 0.41549
 H522 H 0.67185 0.14186 0.36044
 H523 H 0.83663 0.17841 0.31799
 H524 H 0.67486 0.09176 0.41295
 C525 C 0.20649 0.15694 0.69007
 C526 C 0.24360 0.17180 0.69959
 C527 C 0.27783 0.15896 0.67662
 C528 C 0.27511 0.13171 0.64465
 C529 C 0.23765 0.11700 0.63531
 C530 C 0.20354 0.12981 0.65824
 C531 C 0.23504 0.08957 0.60338
 C532 C 0.26953 0.07639 0.58084
 C533 C 0.30654 0.09145 0.59040
 C534 C 0.30928 0.11890 0.62189
 H535 H 0.30648 0.17063 0.68323
 H536 H 0.17460 0.11878 0.65165
 H537 H 0.20635 0.07811 0.59649
 H538 H 0.33821 0.12991 0.62858
 H539 H 0.17977 0.16603 0.70754
 H540 H 0.33358 0.08191 0.57355
   
