data_POSCAR
  _audit_creation_date              2014-09-24
  _audit_creation_method            'ToBaCCo'
  _symmetry_space_group_name_H-M    'P1'
  _symmetry_Int_Tables_number       1
  _symmetry_cell_setting            triclinic
  loop_
  _symmetry_equiv_pos_as_xyz
 x,y,z
_cell_length_a 33.3081
_cell_length_b 33.3010
_cell_length_c 90.4428
_cell_angle_alpha 87.991900
_cell_angle_beta 91.040100
_cell_angle_gamma 119.884500
loop_
  _atom_site_label
  _atom_site_type_symbol
  _atom_site_fract_x
  _atom_site_fract_y
  _atom_site_fract_z
C1 C 0.01115 0.08104 0.51948
 H2 H 0.04483 0.08359 0.51941
 C3 C 0.00310 0.10918 0.52861
 H4 H 0.03061 0.13346 0.53564
 C5 C -0.06598 0.04606 0.51047
 H6 H -0.09267 0.02163 0.50332
 C7 C -0.07552 0.07360 0.51947
 H8 H -0.10966 0.07005 0.51932
 N9 N -0.02338 0.04973 0.51083
 C10 C 0.01055 -0.05968 0.50547
 H11 H 0.01233 -0.06017 0.49355
 C12 C 0.01628 -0.09180 0.51430
 H13 H 0.02271 -0.11700 0.50920
 C14 C -0.00152 -0.02733 0.52674
 H15 H -0.00949 -0.00294 0.53157
 C16 C 0.00400 -0.05874 0.53595
 H17 H 0.00073 -0.05805 0.54782
 Zn18 Zn -0.00870 0.01243 0.49931
 N19 N 0.00207 -0.02813 0.51180
 C20 C 0.08376 0.04932 0.48862
 N21 N 0.04477 0.05291 0.48816
 C22 C 0.04266 0.08647 0.47973
 C23 C 0.08017 0.11717 0.47093
 C24 C 0.12213 0.07939 0.47996
 C25 C -0.09885 -0.05801 0.49251
 C26 C -0.13528 -0.08788 0.48342
 C27 C -0.08709 -0.04892 0.46208
 C28 C -0.05165 -0.01989 0.47155
 N29 N -0.05813 -0.02471 0.48647
 H30 H 0.08511 0.02305 0.49561
 H31 H 0.01145 0.08888 0.47972
 H32 H 0.07787 0.14328 0.46407
 H33 H 0.15281 0.07595 0.48019
 H34 H -0.10274 -0.06169 0.50441
 H35 H -0.16741 -0.11450 0.48837
 H36 H -0.08124 -0.04490 0.45023
 H37 H -0.01874 0.00585 0.46695
 C38 C 0.01287 -0.09131 0.52968
 C39 C -0.04071 0.10518 0.52870
 C40 C -0.12927 -0.08335 0.46805
 C41 C 0.12012 0.11338 0.47096
 C42 C 1.09662 0.03484 0.14691
 H43 H 1.09879 0.06836 0.14689
 C44 C 1.12592 0.02782 0.13787
 H45 H 1.15071 0.05597 0.13081
 C46 C 1.06141 -0.04295 0.15607
 H47 H 1.03644 -0.07031 0.16324
 C48 C 1.09013 -0.05145 0.14717
 H49 H 1.08693 -0.08547 0.14742
 N50 N 1.06466 -0.00051 0.15559
 C51 C 0.95376 0.03167 0.16062
 H52 H 0.95193 0.03234 0.17253
 C53 C 0.92241 0.03787 0.15171
 H54 H 0.89645 0.04354 0.15674
 C55 C 0.98873 0.02193 0.13946
 H56 H 1.01383 0.01466 0.13470
 C57 C 0.95814 0.02797 0.13017
 H58 H 0.96015 0.02579 0.11831
 Zn59 Zn 1.02577 0.01269 0.16699
 N60 N 0.98625 0.02414 0.15439
 C61 C 1.06045 0.10390 0.17778
 N62 N 1.06465 0.06524 0.17818
 C63 C 1.09754 0.06268 0.18665
 C64 C 1.12679 0.09929 0.19559
 C65 C 1.08907 0.14138 0.18659
 C66 C 0.95513 -0.07836 0.17376
 C67 C 0.92466 -0.11575 0.18285
 C68 C 0.96127 -0.06941 0.20419
 C69 C 0.99096 -0.03294 0.19472
 N70 N 0.98760 -0.03805 0.17981
 H71 H 1.03476 0.10565 0.17077
 H72 H 1.10045 0.03175 0.18661
 H73 H 1.15229 0.09657 0.20250
 H74 H 1.08508 0.17174 0.18643
 H75 H 0.95260 -0.08120 0.16186
 H76 H 0.89867 -0.14760 0.17797
 H77 H 0.96397 -0.06488 0.21604
 H78 H 1.01604 -0.00037 0.19934
 C79 C 0.92463 0.03590 0.13634
 C80 C 1.12240 -0.01579 0.13791
 C81 C 0.92776 -0.11111 0.19820
 C82 C 1.12226 0.13881 0.19565
 C83 C 0.04261 0.95524 0.85317
 H84 H 0.01148 0.92166 0.85312
 C85 C 0.08012 0.96200 0.86200
 H86 H 0.07789 0.93358 0.86883
 C87 C 0.08349 1.03345 0.84437
 H88 H 0.08477 1.06108 0.83742
 C89 C 0.12185 1.04170 0.85308
 H90 H 0.15244 1.07579 0.85290
 N91 N 0.04462 0.99091 0.84477
 C92 C -0.09914 0.95826 0.84034
 H93 H -0.10305 0.95808 0.82844
 C94 C -0.13560 0.95167 0.84942
 H95 H -0.16778 0.94620 0.84449
 C96 C -0.05189 0.96725 0.86132
 H97 H -0.01895 0.97440 0.86593
 C98 C -0.08738 0.96081 0.87078
 H99 H -0.08162 0.96259 0.88263
 Zn100 Zn -0.00886 0.97803 0.83359
 N101 N -0.05837 0.96566 0.84640
 C102 C -0.06582 0.88727 0.82240
 N103 N -0.02334 0.92621 0.82203
 C104 C 0.01121 0.92955 0.81336
 C105 C 0.00328 0.89347 0.80420
 C106 C -0.07522 0.85028 0.81339
 C107 C 0.01021 1.06930 0.82748
 C108 C 0.01595 1.10716 0.81867
 C109 C 0.00376 1.06198 0.79700
 C110 C -0.00178 1.02503 0.80619
 N111 N 0.00180 1.02935 0.82113
 H112 H -0.09252 0.88491 0.82958
 H113 H 0.04479 0.96069 0.81342
 H114 H 0.03079 0.89679 0.79715
 H115 H -0.10927 0.81966 0.81355
 H116 H 0.01198 1.07152 0.83940
 H117 H 0.02235 1.13875 0.82379
 H118 H 0.00051 1.05808 0.78512
 H119 H -0.00972 0.99273 0.80134
 C120 C -0.12956 0.95311 0.86479
 C121 C 0.11994 1.00569 0.86204
 C122 C 0.01259 1.10335 0.80329
 C123 C -0.04040 0.85364 0.80413
 C124 C 0.40396 -0.00001 0.00011
 C125 C 0.42890 0.00977 -0.01305
 C126 C 0.47120 0.01031 -0.01313
 C127 C 0.48844 -0.00023 -0.00008
 C128 C 0.46243 -0.01067 0.01306
 C129 C 0.42078 -0.00991 0.01317
 C130 C 0.53326 -0.00030 -0.00018
 C131 C 0.56188 0.01202 0.01249
 C132 C 0.60355 0.01130 0.01244
 C133 C 0.61779 -0.00044 -0.00035
 C134 C 0.59023 -0.01210 -0.01305
 C135 C 0.54791 -0.01268 -0.01293
 H136 H 0.37143 0.00007 0.00018
 H137 H 0.49059 0.01931 -0.02336
 H138 H 0.47411 -0.01976 0.02322
 H139 H 0.55222 0.02256 0.02238
 H140 H 0.65033 -0.00049 -0.00041
 H141 H 0.52648 -0.02316 -0.02276
 C142 C -0.02443 0.59435 0.66654
 C143 C -0.03546 0.56665 0.67945
 C144 C -0.03640 0.52415 0.67937
 C145 C -0.02505 0.50943 0.66644
 C146 C -0.01342 0.53816 0.65355
 C147 C -0.01371 0.58006 0.65358
 C148 C -0.02512 0.46455 0.66641
 C149 C -0.03666 0.43844 0.65348
 C150 C -0.03585 0.39681 0.65341
 C151 C -0.02476 0.38012 0.66632
 C152 C -0.01384 0.40519 0.67927
 C153 C -0.01342 0.44744 0.67929
 H154 H -0.02408 0.62710 0.66658
 H155 H -0.04625 0.50267 0.68939
 H156 H -0.00363 0.52844 0.64351
 H157 H -0.04657 0.45010 0.64346
 H158 H -0.02451 0.34767 0.66627
 H159 H -0.00349 0.46696 0.68932
 C160 C 0.61636 0.61902 0.33387
 C161 C 0.60199 0.59319 0.32106
 C162 C 0.56043 0.55083 0.32102
 C163 C 0.53204 0.53441 0.33372
 C164 C 0.54683 0.56128 0.34650
 C165 C 0.58905 0.60300 0.34661
 C166 C 0.48731 0.48957 0.33362
 C167 C 0.47031 0.46169 0.34663
 C168 C 0.42812 0.41994 0.34653
 C169 C 0.40306 0.40491 0.33338
 C170 C 0.41963 0.43176 0.32035
 C171 C 0.46115 0.47415 0.32048
 H172 H 0.64882 0.65159 0.33393
 H173 H 0.55068 0.53075 0.31110
 H174 H 0.52559 0.55023 0.35637
 H175 H 0.48982 0.47196 0.35685
 H176 H 0.37064 0.37231 0.33328
 H177 H 0.47263 0.49500 0.31035
 C178 C -0.04981 0.13266 0.53857
 C179 C -0.05611 0.15575 0.54720
 C180 C -0.06200 0.18336 0.55791
 C181 C -0.04726 0.23009 0.55472
 C182 C -0.04921 0.25787 0.56561
 C183 C -0.06584 0.23924 0.57987
 C184 C -0.08170 0.19191 0.58283
 C185 C -0.07972 0.16423 0.57193
 C186 C -0.06416 0.26942 0.59186
 C187 C -0.10000 0.25325 0.60236
 C188 C -0.09640 0.28035 0.61433
 C189 C -0.05705 0.32395 0.61594
 C190 C -0.02180 0.34082 0.60535
 C191 C -0.02531 0.31382 0.59338
 C192 C -0.05123 0.35007 0.62893
 C193 C -0.04497 0.37159 0.64000
 H194 H -0.03339 0.24528 0.54391
 H195 H -0.03725 0.29403 0.56293
 H196 H -0.09404 0.17666 0.59374
 H197 H -0.09089 0.12818 0.57456
 H198 H -0.13057 0.21946 0.60140
 H199 H -0.12386 0.26690 0.62248
 H200 H 0.00898 0.37437 0.60655
 H201 H 0.00318 0.32701 0.58563
 C202 C 0.89573 0.85192 0.20789
 C203 C 0.86913 0.82219 0.21639
 C204 C 0.83766 0.78826 0.22696
 C205 C 0.79049 0.76166 0.22364
 C206 C 0.75944 0.73147 0.23438
 C207 C 0.77522 0.72761 0.24862
 C208 C 0.82289 0.75371 0.25172
 C209 C 0.85383 0.78384 0.24097
 C210 C 0.74202 0.69853 0.26044
 C211 C 0.75315 0.67287 0.27074
 C212 C 0.72338 0.64848 0.28254
 C213 C 0.68211 0.64932 0.28418
 C214 C 0.67021 0.67380 0.27380
 C215 C 0.69989 0.69819 0.26200
 C216 C 0.65335 0.62762 0.29697
 C217 C 0.62970 0.61104 0.30787
 H218 H 0.77758 0.76488 0.21283
 H219 H 0.72304 0.71146 0.23161
 H220 H 0.83607 0.75209 0.26262
 H221 H 0.89023 0.80453 0.24369
 H222 H 0.78506 0.67202 0.26974
 H223 H 0.73297 0.62971 0.29053
 H224 H 0.63851 0.67496 0.27502
 H225 H 0.69062 0.71813 0.25441
 C226 C 0.15797 0.01350 -0.12838
 C227 C 0.18873 0.01893 -0.12000
 C228 C 0.22403 0.02406 -0.10958
 C229 C 0.24784 0.06447 -0.10150
 C230 C 0.27934 0.06780 -0.09051
 C231 C 0.28735 0.03064 -0.08743
 C232 C 0.26407 -0.00937 -0.09588
 C233 C 0.23260 -0.01262 -0.10686
 C234 C 0.31773 0.03238 -0.07495
 C235 C 0.34684 0.01326 -0.07616
 C236 C 0.37254 0.01165 -0.06398
 C237 C 0.36958 0.02922 -0.05046
 C238 C 0.34164 0.04934 -0.04925
 C239 C 0.31593 0.05099 -0.06140
 C240 C 0.39258 0.02385 -0.03755
 C241 C 0.41010 0.01810 -0.02650
 H242 H 0.24140 0.09304 -0.10350
 H243 H 0.29712 0.09925 -0.08431
 H244 H 0.26891 -0.03884 -0.09365
 H245 H 0.21411 -0.04419 -0.11298
 H246 H 0.34937 -0.00085 -0.08648
 H247 H 0.39398 -0.00411 -0.06502
 H248 H 0.33880 0.06270 -0.03881
 H249 H 0.29336 0.06530 -0.06003
 C250 C 0.01671 0.87502 0.53909
 C251 C 0.01895 0.84703 0.54737
 C252 C 0.02045 0.81393 0.55770
 C253 C -0.01940 0.77100 0.56029
 C254 C -0.01936 0.74029 0.57122
 C255 C 0.02058 0.75219 0.57975
 C256 C 0.06084 0.79498 0.57681
 C257 C 0.06072 0.82565 0.56586
 C258 C 0.01931 0.72121 0.59218
 C259 C 0.04032 0.73983 0.60579
 C260 C 0.03616 0.71067 0.61787
 C261 C 0.01108 0.66254 0.61652
 C262 C -0.00902 0.64364 0.60293
 C263 C -0.00491 0.67276 0.59083
 C264 C 0.00358 0.63277 0.62933
 C265 C -0.00375 0.60841 0.64027
 H266 H -0.05087 0.76173 0.55412
 H267 H -0.05109 0.70796 0.57335
 H268 H 0.09227 0.80490 0.58306
 H269 H 0.09173 0.85885 0.56397
 H270 H 0.05859 0.77690 0.60727
 H271 H 0.05155 0.72566 0.62837
 H272 H -0.02859 0.60642 0.60177
 H273 H -0.02102 0.65740 0.58045
 C274 C 0.15073 0.17572 0.20539
 C275 C 0.17458 0.20542 0.21392
 C276 C 0.20300 0.23934 0.22453
 C277 C 0.18428 0.24011 0.23817
 C278 C 0.21259 0.27026 0.24902
 C279 C 0.26015 0.30002 0.24639
 C280 C 0.27842 0.29981 0.23250
 C281 C 0.25001 0.26960 0.22165
 C282 C 0.29084 0.32910 0.25839
 C283 C 0.33457 0.33310 0.26071
 C284 C 0.36197 0.35725 0.27271
 C285 C 0.34616 0.37784 0.28254
 C286 C 0.30326 0.37511 0.28013
 C287 C 0.27577 0.35095 0.26812
 C288 C 0.37259 0.39892 0.29562
 C289 C 0.39429 0.41484 0.30679
 H290 H 0.14801 0.21658 0.24056
 H291 H 0.19758 0.26906 0.25967
 H292 H 0.31476 0.32267 0.23008
 H293 H 0.26488 0.26922 0.21114
 H294 H 0.34688 0.31612 0.25356
 H295 H 0.39496 0.35883 0.27454
 H296 H 0.29064 0.39084 0.28770
 H297 H 0.24253 0.34895 0.26654
 C298 C 0.83640 -0.05114 -0.12607
 C299 C 0.80744 -0.05395 -0.11762
 C300 C 0.77449 -0.05605 -0.10711
 C301 C 0.77097 -0.07682 -0.09311
 C302 C 0.74191 -0.07561 -0.08240
 C303 C 0.71600 -0.05346 -0.08553
 C304 C 0.71892 -0.03363 -0.09976
 C305 C 0.74804 -0.03489 -0.11047
 C306 C 0.68817 -0.04888 -0.07374
 C307 C 0.68854 -0.00680 -0.07217
 C308 C 0.66546 -0.00110 -0.06038
 C309 C 0.64161 -0.03734 -0.05003
 C310 C 0.64003 -0.07973 -0.05168
 C311 C 0.66310 -0.08552 -0.06347
 C312 C 0.62145 -0.02986 -0.03721
 C313 C 0.60628 -0.02241 -0.02629
 H314 H 0.79156 -0.09298 -0.09036
 H315 H 0.74100 -0.09057 -0.07150
 H316 H 0.69902 -0.01680 -0.10256
 H317 H 0.75057 -0.01862 -0.12126
 H318 H 0.70804 0.02229 -0.07975
 H319 H 0.66720 0.03197 -0.05914
 H320 H 0.62175 -0.10799 -0.04371
 H321 H 0.66171 -0.11850 -0.06448
 C322 C 0.15105 -0.02387 0.12812
 C323 C 0.17505 -0.02943 0.11956
 C324 C 0.20364 -0.03461 0.10892
 C325 C 0.25070 -0.01773 0.11181
 C326 C 0.27923 -0.01928 0.10095
 C327 C 0.26101 -0.03768 0.08704
 C328 C 0.21342 -0.05558 0.08440
 C329 C 0.18498 -0.05398 0.09526
 C330 C 0.29178 -0.03594 0.07505
 C331 C 0.27690 -0.07279 0.06530
 C332 C 0.30447 -0.06939 0.05331
 C333 C 0.34727 -0.02923 0.05093
 C334 C 0.36289 0.00709 0.06077
 C335 C 0.33541 0.00378 0.07276
 C336 C 0.37378 -0.02388 0.03788
 C337 C 0.39549 -0.01817 0.02673
 H338 H 0.26552 -0.00256 0.12234
 H339 H 0.31561 -0.00572 0.10338
 H340 H 0.19845 -0.06931 0.07375
 H341 H 0.14867 -0.06682 0.09287
 H342 H 0.24374 -0.10403 0.06687
 H343 H 0.29199 -0.09769 0.04574
 H344 H 0.39581 0.03849 0.05896
 H345 H 0.34758 0.03302 0.07991
 C346 C 0.83804 0.88810 0.45927
 C347 C 0.80895 0.86196 0.45086
 C348 C 0.77577 0.83108 0.44041
 C349 C 0.77168 0.84824 0.42646
 C350 C 0.74232 0.81795 0.41580
 C351 C 0.71667 0.76997 0.41895
 C352 C 0.72019 0.75317 0.43314
 C353 C 0.74960 0.78356 0.44378
 C354 C 0.68848 0.73755 0.40722
 C355 C 0.68898 0.69594 0.40556
 C356 C 0.66553 0.66714 0.39382
 C357 C 0.64116 0.67940 0.38359
 C358 C 0.63945 0.72011 0.38534
 C359 C 0.66290 0.74900 0.39709
 C360 C 0.62068 0.65179 0.37079
 C361 C 0.60528 0.62923 0.35987
 H362 H 0.79205 0.88492 0.42369
 H363 H 0.74095 0.83192 0.40494
 H364 H 0.70051 0.71649 0.43595
 H365 H 0.75258 0.76989 0.45454
 H366 H 0.70888 0.68646 0.41303
 H367 H 0.66739 0.63589 0.39250
 H368 H 0.62077 0.72999 0.37747
 H369 H 0.66140 0.78050 0.39817
 C370 C 0.01647 0.14088 0.79389
 C371 C 0.01872 0.17112 0.78562
 C372 C 0.02018 0.20568 0.77528
 C373 C 0.06067 0.23461 0.76731
 C374 C 0.06081 0.26540 0.75636
 C375 C 0.02035 0.26753 0.75322
 C376 C -0.01983 0.23909 0.76156
 C377 C -0.01988 0.20836 0.77250
 C378 C 0.01915 0.29727 0.74078
 C379 C -0.00578 0.32090 0.74200
 C380 C -0.00986 0.34585 0.72987
 C381 C 0.01098 0.34761 0.71638
 C382 C 0.03679 0.32519 0.71516
 C383 C 0.04092 0.30024 0.72727
 C384 C 0.00350 0.36980 0.70354
 C385 C -0.00383 0.38680 0.69257
 H386 H 0.09186 0.23275 0.76936
 H387 H 0.09242 0.28722 0.75025
 H388 H -0.05172 0.23936 0.75927
 H389 H -0.05152 0.18585 0.77852
 H390 H -0.02248 0.31972 0.75230
 H391 H -0.03001 0.36301 0.73093
 H392 H 0.05277 0.32603 0.70474
 H393 H 0.05977 0.28191 0.72589
 C394 C 0.89180 0.04025 0.12684
 C395 C 0.86454 0.04292 0.11849
 C396 C 0.83234 0.04494 0.10808
 C397 C 0.84562 0.08480 0.09918
 C398 C 0.81579 0.08527 0.08818
 C399 C 0.77227 0.04576 0.08592
 C400 C 0.75881 0.00627 0.09518
 C401 C 0.78869 0.00589 0.10617
 C402 C 0.74211 0.04467 0.07345
 C403 C 0.69371 0.02218 0.07514
 C404 C 0.66525 0.01816 0.06305
 C405 C 0.68479 0.03662 0.04915
 C406 C 0.73293 0.05999 0.04745
 C407 C 0.76143 0.06407 0.05950
 C408 C 0.65556 0.02907 0.03643
 C409 C 0.63157 0.02159 0.02558
 H410 H 0.87939 0.11519 0.10055
 H411 H 0.82692 0.11636 0.08135
 H412 H 0.72587 -0.02492 0.09359
 H413 H 0.77820 -0.02528 0.11292
 H414 H 0.67784 0.00736 0.08577
 H415 H 0.62801 -0.00009 0.06449
 H416 H 0.74839 0.07409 0.03671
 H417 H 0.79847 0.08096 0.05778
 C418 C 0.15818 0.14362 0.46144
 C419 C 0.18895 0.16903 0.45311
 C420 C 0.22424 0.19939 0.44275
 C421 C 0.23227 0.24442 0.44003
 C422 C 0.26370 0.27283 0.42910
 C423 C 0.28750 0.25650 0.42070
 C424 C 0.28002 0.21155 0.42377
 C425 C 0.24854 0.18319 0.43471
 C426 C 0.31785 0.28533 0.40826
 C427 C 0.31650 0.26515 0.39472
 C428 C 0.34210 0.29269 0.38260
 C429 C 0.36947 0.34072 0.38385
 C430 C 0.37202 0.36103 0.39738
 C431 C 0.34643 0.33354 0.40952
 C432 C 0.39225 0.36924 0.37098
 C433 C 0.40959 0.39265 0.35995
 H434 H 0.21338 0.25719 0.44610
 H435 H 0.26811 0.30695 0.42686
 H436 H 0.29818 0.19818 0.41761
 H437 H 0.24252 0.14834 0.43671
 H438 H 0.29434 0.22830 0.39331
 H439 H 0.33958 0.27665 0.37215
 H440 H 0.39302 0.39819 0.39846
 H441 H 0.34861 0.35002 0.41985
 C442 C -0.04937 0.81715 0.79424
 C443 C -0.05556 0.78782 0.78560
 C444 C -0.06133 0.75439 0.77489
 C445 C -0.04630 0.72258 0.77808
 C446 C -0.04817 0.69289 0.76718
 C447 C -0.06501 0.69476 0.75294
 C448 C -0.08114 0.72606 0.74998
 C449 C -0.07924 0.75569 0.76088
 C450 C -0.06331 0.66625 0.74095
 C451 C -0.09931 0.64639 0.73050
 C452 C -0.09576 0.62282 0.71854
 C453 C -0.05628 0.61869 0.71690
 C454 C -0.02084 0.63728 0.72744
 C455 C -0.02431 0.66084 0.73939
 C456 C -0.05056 0.59826 0.70392
 C457 C -0.04441 0.58289 0.69286
 H458 H -0.03228 0.72135 0.78888
 H459 H -0.03600 0.66881 0.76985
 H460 H -0.09365 0.72887 0.73908
 H461 H -0.09063 0.78044 0.75826
 H462 H -0.12999 0.64951 0.73149
 H463 H -0.12335 0.60866 0.71042
 H464 H 0.01004 0.63462 0.72621
 H465 H 0.00430 0.67630 0.74711
   
