data_POSCAR
  _audit_creation_date              2014-09-24
  _audit_creation_method            'ToBaCCo'
  _symmetry_space_group_name_H-M    'P1'
  _symmetry_Int_Tables_number       1
  _symmetry_cell_setting            triclinic
  loop_
  _symmetry_equiv_pos_as_xyz
 x,y,z
_cell_length_a 39.5091
_cell_length_b 39.3087
_cell_length_c 39.1284
_cell_angle_alpha 89.931600
_cell_angle_beta 90.040100
_cell_angle_gamma 89.966300
loop_
  _atom_site_label
  _atom_site_type_symbol
  _atom_site_fract_x
  _atom_site_fract_y
  _atom_site_fract_z
C1 C 0.17268 0.16720 0.21318
 N2 N 0.15744 0.19403 0.19743
 C3 C 0.17119 0.20793 0.16874
 N4 N 0.20016 0.19452 0.15566
 C5 C 0.21564 0.16774 0.17105
 N6 N 0.20173 0.15451 0.19979
 C7 C -0.17252 0.83268 0.21013
 N8 N -0.15766 0.80411 0.19728
 C9 C -0.17156 0.78760 0.17016
 N10 N -0.20036 0.79999 0.15587
 C11 C -0.21544 0.82853 0.16802
 N12 N -0.20132 0.84466 0.19520
 C13 C -0.16979 0.17219 -0.21092
 N14 N -0.19768 0.15739 -0.19679
 C15 C -0.21308 0.17174 -0.16916
 N16 N -0.20011 0.20090 -0.15592
 C17 C -0.17225 0.21573 -0.16950
 N18 N -0.15726 0.20124 -0.19700
 C19 C 0.16592 0.83115 -0.21128
 N20 N 0.15476 0.80228 -0.19578
 C21 C 0.17110 0.78921 -0.16819
 N22 N 0.19908 0.80527 -0.15609
 C23 C 0.21068 0.83425 -0.17106
 N24 N 0.19386 0.84700 -0.19863
 C25 C 0.17111 1.16786 0.78646
 N26 N 0.15516 1.19446 0.80164
 C27 C 0.16883 1.21026 0.82939
 N28 N 0.19887 1.19879 0.84217
 C29 C 0.21507 1.17211 0.82728
 N30 N 0.20105 1.15703 0.79952
 C31 C 0.83262 0.83699 0.79168
 N32 N 0.84851 0.80923 0.80485
 C33 C 0.83646 0.79345 0.83326
 N34 N 0.80812 0.80570 0.84860
 C35 C 0.79192 0.83345 0.83582
 N36 N 0.80432 0.84887 0.80741
 C37 C 0.16858 0.82777 1.21302
 N38 N 0.15648 0.79874 1.19849
 C39 C 0.17260 0.78391 1.17175
 N40 N 0.20123 0.79850 1.15960
 C41 C 0.21377 0.82751 1.17338
 N42 N 0.19729 0.84222 1.20012
 C43 C 0.83011 1.17241 1.21101
 N44 N 0.80107 1.15902 1.19829
 C45 C 0.78600 1.17212 1.17012
 N46 N 0.80017 1.19945 1.15448
 C47 C 0.82921 1.21362 1.16677
 N48 N 0.84415 1.19977 1.19501
 N49 N 0.53603 1.03391 1.05975
 N50 N 0.56172 1.03729 1.08106
 N51 N 0.46526 1.05984 1.03593
 N52 N 0.43934 1.08070 1.04014
 N53 N 0.46491 1.03579 1.05925
 N54 N 0.43873 1.03941 1.07972
 N55 N 0.53644 1.05817 1.03666
 N56 N 0.56240 1.07870 1.04163
 C57 C 0.57797 1.06536 1.06942
 C58 C 0.42305 1.06754 1.06764
 N59 N 0.46645 1.03785 0.93786
 N60 N 0.44095 1.04252 0.91663
 N61 N 0.53750 1.05915 0.96328
 N62 N 0.56404 1.07924 0.96030
 N63 N 0.53761 1.03588 0.93923
 N64 N 0.56411 1.03976 0.91900
 N65 N 0.46622 1.06103 0.96199
 N66 N 0.44059 1.08224 0.95768
 Mn67 Mn 0.50127 1.06000 0.99945
 C68 C 0.42506 1.07033 0.92920
 C69 C 0.58039 1.06693 0.93254
 N70 N 0.46254 0.96290 1.05842
 N71 N 0.43673 0.95894 1.07951
 N72 N 0.53281 0.93724 1.03477
 N73 N 0.55836 0.91588 1.03807
 N74 N 0.53379 0.96051 1.05878
 N75 N 0.55996 0.95546 1.07922
 N76 N 0.46158 0.94005 1.03402
 N77 N 0.43513 0.91994 1.03779
 Mn78 Mn 0.49941 0.99829 1.05947
 C79 C 0.41981 0.93203 1.06627
 C80 C 0.57502 0.92744 1.06598
 N81 N 0.53542 0.96234 0.93827
 N82 N 0.56251 0.95808 0.91894
 N83 N 0.46244 0.94119 0.96030
 N84 N 0.43559 0.92176 0.95547
 N85 N 0.46417 0.96486 0.93668
 N86 N 0.43857 0.96221 0.91517
 N87 N 0.53365 0.93838 0.96159
 N88 N 0.55947 0.91732 0.95892
 Mn89 Mn 0.50102 1.00024 0.93757
 Mn90 Mn 0.49750 0.93882 0.99765
 Cl91 Cl 0.49980 0.99935 0.99853
 C92 C 0.57719 0.92977 0.93213
 C93 C 0.42095 0.93517 0.92715
 N94 N 0.03749 0.46152 0.06095
 N95 N 0.04031 0.43450 0.08094
 N96 N 0.06394 0.53229 0.03787
 N97 N 0.08522 0.55785 0.04152
 N98 N 0.04059 0.53312 0.06173
 N99 N 0.04547 0.55926 0.08235
 N100 N 0.06070 0.46090 0.03695
 N101 N 0.07973 0.43354 0.03977
 C102 C 0.06686 0.41733 0.06732
 C103 C 0.07349 0.57439 0.06942
 N104 N 0.04136 0.53449 -0.05962
 N105 N 0.04644 0.56104 -0.07970
 N106 N 0.06127 0.46149 -0.03645
 N107 N 0.08070 0.43447 -0.04074
 N108 N 0.03800 0.46297 -0.06036
 N109 N 0.04101 0.43714 -0.08161
 N110 N 0.06450 0.53314 -0.03559
 N111 N 0.08590 0.55872 -0.03859
 Mn112 Mn 0.06300 0.49694 0.00073
 C113 C 0.07441 0.57587 -0.06629
 C114 C 0.06777 0.41954 -0.06910
 N115 N -0.03245 0.53664 0.06139
 N116 N -0.03608 0.56273 0.08243
 N117 N -0.05862 0.46633 0.03646
 N118 N -0.07978 0.44053 0.03912
 N119 N -0.03554 0.46492 0.06059
 N120 N -0.04051 0.43814 0.08040
 N121 N -0.05535 0.53783 0.03709
 N122 N -0.07500 0.56463 0.04077
 Mn123 Mn 0.00253 0.49905 0.06169
 C124 C -0.06281 0.57997 0.06912
 C125 C -0.06830 0.42320 0.06671
 N126 N -0.03483 0.46629 -0.06070
 N127 N -0.03994 0.44020 -0.08135
 N128 N -0.05496 0.53876 -0.03643
 N129 N -0.07435 0.56585 -0.04051
 N130 N -0.03133 0.53782 -0.05996
 N131 N -0.03387 0.56425 -0.08058
 N132 N -0.05820 0.46730 -0.03691
 N133 N -0.07974 0.44200 -0.04060
 Mn134 Mn 0.00330 0.50038 -0.06059
 Mn135 Mn -0.05716 0.50259 0.00007
 Cl136 Cl 0.00291 0.49975 0.00049
 C137 C -0.06815 0.42534 -0.06845
 C138 C -0.06085 0.58151 -0.06819
 N139 N 1.03691 0.05856 0.53554
 N140 N 1.04185 0.07884 0.56197
 N141 N 1.05936 0.03399 0.46370
 N142 N 1.08005 0.03680 0.43743
 N143 N 1.03723 0.05893 0.46371
 N144 N 1.04238 0.07948 0.43751
 N145 N 1.05902 0.03360 0.53562
 N146 N 1.07949 0.03615 0.56213
 C147 C 1.06854 0.06452 0.57832
 C148 C 1.06921 0.06533 0.42137
 N149 N 1.03125 -0.06149 0.46305
 N150 N 1.03403 -0.08185 0.43641
 N151 N 1.05556 -0.03955 0.53533
 N152 N 1.07561 -0.04453 0.56188
 N153 N 1.03086 -0.06187 0.53513
 N154 N 1.03337 -0.08256 0.56161
 N155 N 1.05597 -0.03918 0.46336
 N156 N 1.07633 -0.04389 0.43703
 Mn157 Mn 1.05790 -0.00279 0.49950
 C158 C 1.06233 -0.07065 0.42044
 C159 C 1.06147 -0.07151 0.57804
 N160 N 0.96434 0.06268 0.46311
 N161 N 0.96167 0.08304 0.43629
 N162 N 0.93949 0.03982 0.53491
 N163 N 0.91929 0.04438 0.56139
 N164 N 0.96415 0.06219 0.53516
 N165 N 0.96150 0.08244 0.56188
 N166 N 0.94002 0.03996 0.46299
 N167 N 0.92034 0.04400 0.43611
 Mn168 Mn 1.00067 0.06105 0.49937
 C169 C 0.93400 0.07101 0.41973
 C170 C 0.93333 0.07111 0.57797
 N171 N 0.95807 -0.05817 0.53466
 N172 N 0.95333 -0.07819 0.56136
 N173 N 0.93635 -0.03297 0.46264
 N174 N 0.91611 -0.03531 0.43592
 N175 N 0.95847 -0.05789 0.46270
 N176 N 0.95378 -0.07796 0.43606
 N177 N 0.93597 -0.03323 0.53459
 N178 N 0.91568 -0.03551 0.56123
 Mn179 Mn 0.99466 -0.06030 0.49889
 Mn180 Mn 0.93756 0.00342 0.49879
 Cl181 Cl 0.99771 0.00034 0.49914
 C182 C 0.92670 -0.06375 0.57764
 C183 C 0.92720 -0.06355 0.41960
 C184 C 1.13073 0.12134 0.30073
 C185 C 1.16206 0.11017 0.28817
 C186 C 1.17579 0.12540 0.25926
 C187 C 1.15884 0.15229 0.24273
 C188 C 1.12790 0.16332 0.25667
 N189 N 1.11485 0.14776 0.28482
 C190 C 1.11489 0.10572 0.33127
 N191 N 1.09071 0.12345 0.34854
 C192 C 1.07548 0.11099 0.37709
 C193 C 1.08464 0.07896 0.38995
 C194 C 1.10896 0.05997 0.37228
 C195 C 1.12391 0.07306 0.34286
 H196 H 1.19994 0.11606 0.25012
 H197 H 1.11387 0.18404 0.24515
 H198 H 1.05658 0.12630 0.38990
 H199 H 1.11629 0.03488 0.38106
 H200 H 1.17640 0.09028 0.30061
 H201 H 1.14192 0.05735 0.32936
 C202 C 0.86835 -0.11796 0.29650
 C203 C 0.83838 -0.10572 0.28153
 C204 C 0.82515 -0.12182 0.25276
 C205 C 0.84127 -0.15052 0.23872
 C206 C 0.87116 -0.16202 0.25458
 N207 N 0.88361 -0.14576 0.28257
 C208 C 0.88337 -0.10246 0.32766
 N209 N 0.90747 -0.12021 0.34512
 C210 C 0.92208 -0.10823 0.37421
 C211 C 0.91233 -0.07663 0.38757
 C212 C 0.88801 -0.05759 0.36982
 C213 C 0.87367 -0.07021 0.33982
 H214 H 0.80193 -0.11189 0.24189
 H215 H 0.88466 -0.18398 0.24497
 H216 H 0.94096 -0.12360 0.38702
 H217 H 0.88018 -0.03283 0.37901
 H218 H 0.82456 -0.08445 0.29201
 H219 H 0.85555 -0.05447 0.32649
 C220 C 0.87822 0.13009 0.70051
 C221 C 0.88847 0.16191 0.71311
 C222 C 0.87294 0.17530 0.74204
 C223 C 0.84681 0.15748 0.75849
 C224 C 0.83690 0.12598 0.74487
 N225 N 0.85260 0.11331 0.71664
 C226 C 0.89372 0.11484 0.66955
 N227 N 0.87652 0.09015 0.65238
 C228 C 0.88875 0.07554 0.62339
 C229 C 0.91999 0.08589 0.60991
 C230 C 0.93847 0.11074 0.62748
 C231 C 0.92562 0.12506 0.65735
 H232 H 0.88121 0.19990 0.75122
 H233 H 0.81677 0.11141 0.75659
 H234 H 0.87386 0.05617 0.61073
 H235 H 0.96295 0.11902 0.61824
 H236 H 0.90773 0.17691 0.70060
 H237 H 0.94092 0.14357 0.67067
 C238 C 1.11636 -0.13021 0.70129
 C239 C 1.10470 -0.16033 0.71669
 C240 C 1.12087 -0.17288 0.74580
 C241 C 1.14901 -0.15590 0.75975
 C242 C 1.15991 -0.12590 0.74346
 N243 N 1.14362 -0.11414 0.71518
 C244 C 1.10080 -0.11566 0.66987
 N245 N 1.11764 -0.09048 0.65301
 C246 C 1.10556 -0.07590 0.62391
 C247 C 1.07472 -0.08672 0.60991
 C248 C 1.05665 -0.11228 0.62693
 C249 C 1.06941 -0.12667 0.65692
 H250 H 1.11141 -0.19621 0.75704
 H251 H 1.18143 -0.11173 0.75297
 H252 H 1.12021 -0.05608 0.61168
 H253 H 1.03252 -0.12105 0.61717
 H254 H 1.08379 -0.17471 0.70639
 H255 H 1.05441 -0.14581 0.66963
 C256 C 0.30338 1.12350 1.12928
 C257 C 0.29080 1.11191 1.16075
 C258 C 0.26185 1.12662 1.17449
 C259 C 0.24536 1.15345 1.15746
 C260 C 0.25944 1.16508 1.12652
 N261 N 0.28756 1.14996 1.11341
 C262 C 0.33366 1.10807 1.11319
 N263 N 0.35103 1.12602 1.08908
 C264 C 0.37933 1.11357 1.07369
 C265 C 0.39175 1.08135 1.08267
 C266 C 0.37388 1.06216 1.10682
 C267 C 0.34477 1.07520 1.12186
 H268 H 0.25261 1.11692 1.19867
 H269 H 0.24797 1.18584 1.11246
 H270 H 0.39232 1.12901 1.05492
 H271 H 0.38228 1.03690 1.11399
 H272 H 0.30320 1.09199 1.17513
 H273 H 0.33115 1.05930 1.13970
 C274 C 0.29859 0.88212 0.86701
 C275 C 0.28083 0.89683 0.83954
 C276 C 0.25177 0.88101 0.82692
 C277 C 0.23983 0.85062 0.84163
 C278 C 0.25808 0.83709 0.86943
 N279 N 0.28643 0.85288 0.88107
 C280 C 0.33000 0.89712 0.88162
 N281 N 0.34257 0.88372 0.91118
 C282 C 0.37136 0.89540 0.92619
 C283 C 0.38951 0.92223 0.91134
 C284 C 0.37720 0.93650 0.88092
 C285 C 0.34766 0.92401 0.86591
 H286 H 0.23865 0.89281 0.80567
 H287 H 0.25009 0.81386 0.88191
 H288 H 0.37998 0.88368 0.94968
 H289 H 0.39056 0.95717 0.86854
 H290 H 0.28870 0.92040 0.82782
 H291 H 0.33946 0.93523 0.84211
 C292 C 0.69615 0.86694 1.12131
 C293 C 0.71042 0.83630 1.10971
 C294 C 0.73967 0.82370 1.12512
 C295 C 0.75488 0.84111 1.15253
 C296 C 0.73942 0.87138 1.16375
 N297 N 0.71102 0.88327 1.14808
 C298 C 0.66511 0.88190 1.10590
 N299 N 0.64886 0.90736 1.12291
 C300 C 0.62028 0.92240 1.11070
 C301 C 0.60625 0.91179 1.07957
 C302 C 0.62266 0.88594 1.06135
 C303 C 0.65211 0.87112 1.07421
 H304 H 0.75015 0.80009 1.11556
 H305 H 0.74987 0.88580 1.18481
 H306 H 0.60847 0.94243 1.12544
 H307 H 0.61291 0.87736 1.03696
 H308 H 0.69919 0.82163 1.08934
 H309 H 0.66445 0.85188 1.05899
 C310 C 0.70093 1.12769 0.87688
 C311 C 0.71338 1.15899 0.88865
 C312 C 0.74180 1.17330 0.87343
 C313 C 0.75801 1.15705 0.84590
 C314 C 0.74426 1.12609 0.83430
 N315 N 0.71656 1.11244 0.84988
 C316 C 0.67072 1.11144 0.89250
 N317 N 0.65315 1.08769 0.87437
 C318 C 0.62465 1.07259 0.88676
 C319 C 0.61210 1.08156 0.91906
 C320 C 0.63019 1.10529 0.93848
 C321 C 0.65957 1.11998 0.92554
 H322 H 0.75076 1.19742 0.88327
 H323 H 0.75554 1.11256 0.81308
 H324 H 0.61153 1.05412 0.87112
 H325 H 0.62171 1.11242 0.96380
 H326 H 0.70118 1.17293 0.90898
 H327 H 0.67330 1.13753 0.94161
 C328 C 0.12566 0.29462 0.12091
 C329 C 0.15699 0.28238 0.10920
 C330 C 0.17150 0.25397 0.12459
 C331 C 0.15528 0.23773 0.15199
 C332 C 0.12418 0.25095 0.16327
 N333 N 0.11040 0.27868 0.14772
 C334 C 0.10950 0.32514 0.10571
 N335 N 0.08647 0.34305 0.12440
 C336 C 0.07173 0.37207 0.11251
 C337 C 0.08043 0.38480 0.08020
 C338 C 0.10328 0.36626 0.06017
 C339 C 0.11758 0.33637 0.07261
 H340 H 0.19573 0.24506 0.11525
 H341 H 0.11083 0.23936 0.18443
 H342 H 0.05393 0.38554 0.12858
 H343 H 0.11014 0.37486 0.03479
 H344 H 0.17081 0.29487 0.08893
 H345 H 0.13458 0.32236 0.05620
 C346 C -0.13116 0.30573 -0.12416
 C347 C -0.16330 0.29406 -0.11419
 C348 C -0.17663 0.26480 -0.12903
 C349 C -0.15840 0.24721 -0.15418
 C350 C -0.12676 0.26013 -0.16411
 N351 N -0.11412 0.28857 -0.14902
 C352 C -0.11539 0.33636 -0.10886
 N353 N -0.08940 0.35186 -0.12567
 C354 C -0.07371 0.38008 -0.11329
 C355 C -0.08418 0.39439 -0.08225
 C356 C -0.11049 0.37860 -0.06423
 C357 C -0.12596 0.34956 -0.07724
 H358 H -0.20136 0.25610 -0.12091
 H359 H -0.11188 0.24749 -0.18353
 H360 H -0.05332 0.39141 -0.12783
 H361 H -0.11896 0.38854 -0.03988
 H362 H -0.17846 0.30740 -0.09554
 H363 H -0.14552 0.33755 -0.06220
 C364 C 0.13398 0.69832 -0.12052
 C365 C 0.16509 0.71223 -0.10997
 C366 C 0.17711 0.74190 -0.12538
 C367 C 0.15856 0.75773 -0.15156
 C368 C 0.12784 0.74283 -0.16164
 N369 N 0.11656 0.71404 -0.14612
 C370 C 0.11957 0.66680 -0.10541
 N371 N 0.09327 0.65137 -0.12178
 C372 C 0.07843 0.62251 -0.10983
 C373 C 0.09008 0.60732 -0.07960
 C374 C 0.11687 0.62282 -0.06205
 C375 C 0.13156 0.65256 -0.07468
 H376 H 0.20110 0.75225 -0.11697
 H377 H 0.11266 0.75404 -0.18174
 H378 H 0.05768 0.61145 -0.12405
 H379 H 0.12633 0.61213 -0.03837
 H380 H 0.18049 0.70039 -0.09049
 H381 H 0.15163 0.66418 -0.06005
 C382 C -0.12545 0.69912 0.12649
 C383 C -0.15834 0.70867 0.11677
 C384 C -0.17321 0.73730 0.13124
 C385 C -0.15581 0.75647 0.15583
 C386 C -0.12339 0.74548 0.16580
 N387 N -0.10919 0.71751 0.15102
 C388 C -0.10845 0.66935 0.11074
 N389 N -0.08398 0.65226 0.12839
 C390 C -0.06838 0.62409 0.11554
 C391 C -0.07750 0.61154 0.08325
 C392 C -0.10186 0.62936 0.06433
 C393 C -0.11713 0.65827 0.07777
 H394 H -0.19849 0.74431 0.12314
 H395 H -0.10916 0.75933 0.18488
 H396 H -0.04942 0.61121 0.13077
 H397 H -0.10920 0.62096 0.03903
 H398 H -0.17281 0.69408 0.09848
 H399 H -0.13534 0.67180 0.06220
 C400 C 1.12937 0.11986 0.69985
 C401 C 1.16086 0.10919 0.71262
 C402 C 1.17448 0.12494 0.74137
 C403 C 1.15719 0.15176 0.75756
 C404 C 1.12590 0.16195 0.74368
 N405 N 1.11307 0.14602 0.71566
 C406 C 1.11380 0.10429 0.66908
 N407 N 1.08899 0.12164 0.65225
 C408 C 1.07390 0.10937 0.62353
 C409 C 1.08384 0.07789 0.60999
 C410 C 1.10885 0.05927 0.62719
 C411 C 1.12369 0.07217 0.65678
 H412 H 1.19883 0.11616 0.75059
 H413 H 1.11152 0.18252 0.75496
 H414 H 1.05447 0.12440 0.61115
 H415 H 1.11685 0.03461 0.61787
 H416 H 1.17546 0.08941 0.70039
 H417 H 1.14232 0.05676 0.66981
 C418 C 0.86972 -0.11605 0.70238
 C419 C 0.83997 -0.10380 0.71774
 C420 C 0.82789 -0.11913 0.74746
 C421 C 0.84497 -0.14703 0.76201
 C422 C 0.87452 -0.15863 0.74566
 N423 N 0.88586 -0.14311 0.71680
 C424 C 0.88384 -0.10128 0.67051
 N425 N 0.90816 -0.11902 0.65344
 C426 C 0.92234 -0.10756 0.62395
 C427 C 0.91197 -0.07648 0.60982
 C428 C 0.88729 -0.05751 0.62705
 C429 C 0.87333 -0.06963 0.65743
 H430 H 0.80486 -0.10924 0.75871
 H431 H 0.88871 -0.18002 0.75562
 H432 H 0.94149 -0.12286 0.61152
 H433 H 0.87893 -0.03315 0.61721
 H434 H 0.82554 -0.08308 0.70694
 H435 H 0.85495 -0.05392 0.67037
 C436 C 1.11861 -0.13009 0.29841
 C437 C 1.10661 -0.16031 0.28364
 C438 C 1.12292 -0.17388 0.25520
 C439 C 1.15167 -0.15791 0.24128
 C440 C 1.16300 -0.12777 0.25696
 N441 N 1.14649 -0.11494 0.28465
 C442 C 1.10268 -0.11477 0.32922
 N443 N 1.12011 -0.09067 0.34701
 C444 C 1.10767 -0.07595 0.37586
 C445 C 1.07592 -0.08559 0.38864
 C446 C 1.05722 -0.10988 0.37052
 C447 C 1.07029 -0.12429 0.34076
 H448 H 1.11309 -0.19729 0.24453
 H449 H 1.18500 -0.11439 0.24744
 H450 H 1.12279 -0.05708 0.38897
 H451 H 1.03237 -0.11762 0.37923
 H452 H 1.08534 -0.17410 0.29403
 H453 H 1.05476 -0.14234 0.32712
 C454 C 0.87485 0.12716 0.29772
 C455 C 0.84349 0.11552 0.28566
 C456 C 0.82895 0.13051 0.25703
 C457 C 0.84502 0.15773 0.24023
 C458 C 0.87602 0.16933 0.25370
 N459 N 0.88993 0.15393 0.28162
 C460 C 0.89127 0.11146 0.32803
 N461 N 0.91432 0.12966 0.34641
 C462 C 0.92910 0.11711 0.37529
 C463 C 0.92037 0.08467 0.38739
 C464 C 0.89754 0.06517 0.36832
 C465 C 0.88329 0.07821 0.33856
 H466 H 0.80480 0.12073 0.24837
 H467 H 0.88938 0.19035 0.24198
 H468 H 0.94693 0.13277 0.38917
 H469 H 0.89071 0.03970 0.37637
 H470 H 0.82970 0.09542 0.29835
 H471 H 0.86639 0.06211 0.32408
 C472 C 0.12104 0.29662 -0.12861
 C473 C 0.10512 0.27831 -0.15491
 C474 C 0.12085 0.24967 -0.16860
 C475 C 0.15233 0.23851 -0.15599
 C476 C 0.16683 0.25689 -0.12879
 N477 N 0.15115 0.28504 -0.11619
 C478 C 0.10621 0.32813 -0.11389
 N479 N 0.11855 0.34008 -0.08365
 C480 C 0.10674 0.36904 -0.06881
 C481 C 0.08096 0.38794 -0.08459
 C482 C 0.06796 0.37629 -0.11576
 C483 C 0.08058 0.34666 -0.13059
 H484 H 0.10813 0.23631 -0.18911
 H485 H 0.19086 0.24936 -0.11784
 H486 H 0.11749 0.37721 -0.04473
 H487 H 0.04826 0.39030 -0.12894
 H488 H 0.08066 0.28553 -0.16491
 H489 H 0.07061 0.33910 -0.15513
 C490 C -0.12924 0.30065 0.11940
 C491 C -0.15952 0.28655 0.10697
 C492 C -0.17298 0.25758 0.12240
 C493 C -0.15680 0.24246 0.15064
 C494 C -0.12662 0.25749 0.16241
 N495 N -0.11393 0.28567 0.14677
 C496 C -0.11383 0.33183 0.10446
 N497 N -0.08885 0.34800 0.12219
 C498 C -0.07374 0.37691 0.11063
 C499 C -0.08382 0.39145 0.07951
 C500 C -0.10910 0.37509 0.06054
 C501 C -0.12396 0.34527 0.07270
 H502 H -0.19640 0.24739 0.11230
 H503 H -0.11306 0.24705 0.18406
 H504 H -0.05414 0.38864 0.12594
 H505 H -0.11726 0.38521 0.03612
 H506 H -0.17339 0.29779 0.08603
 H507 H -0.14279 0.33306 0.05693
 C508 C -0.11448 0.70454 -0.12707
 C509 C -0.10389 0.71842 -0.15844
 C510 C -0.11966 0.74756 -0.17114
 C511 C -0.14624 0.76288 -0.15304
 C512 C -0.15626 0.74813 -0.12195
 N513 N -0.14040 0.71981 -0.11001
 C514 C -0.09925 0.67326 -0.11229
 N515 N -0.11583 0.65718 -0.08636
 C516 C -0.10397 0.62817 -0.07164
 C517 C -0.07372 0.61348 -0.08314
 C518 C -0.05589 0.62978 -0.10941
 C519 C -0.06836 0.65971 -0.12388
 H520 H -0.11128 0.75779 -0.19541
 H521 H -0.17667 0.75900 -0.10711
 H522 H -0.11837 0.61648 -0.05125
 H523 H -0.03218 0.61950 -0.11869
 H524 H -0.08420 0.70685 -0.17363
 H525 H -0.05355 0.67191 -0.14355
 C526 C 0.13390 0.69526 0.12557
 C527 C 0.16486 0.70887 0.11446
 C528 C 0.17756 0.73818 0.12973
 C529 C 0.15994 0.75406 0.15658
 C530 C 0.12941 0.73914 0.16749
 N531 N 0.11740 0.71068 0.15190
 C532 C 0.11885 0.66432 0.11003
 N533 N 0.09362 0.64784 0.12706
 C534 C 0.07860 0.61929 0.11461
 C535 C 0.08901 0.60559 0.08327
 C536 C 0.11458 0.62231 0.06504
 C537 C 0.12936 0.65172 0.07811
 H538 H 0.20141 0.74817 0.12049
 H539 H 0.11486 0.75012 0.18815
 H540 H 0.05877 0.60722 0.12935
 H541 H 0.12297 0.61284 0.04047
 H542 H 0.17969 0.69706 0.09456
 H543 H 0.14833 0.66439 0.06287
 C544 C 0.30654 1.12989 0.86779
 C545 C 0.29678 1.12270 0.83405
 C546 C 0.26728 1.13694 0.82091
 C547 C 0.24750 1.15888 0.84090
 C548 C 0.25883 1.16670 0.87400
 N549 N 0.28757 1.15207 0.88651
 C550 C 0.33685 1.11385 0.88338
 N551 N 0.35233 1.12917 0.91043
 C552 C 0.38033 1.11578 0.92571
 C553 C 0.39433 1.08521 0.91371
 C554 C 0.37843 1.06872 0.88636
 C555 C 0.34969 1.08273 0.87133
 H556 H 0.25998 1.13068 0.79498
 H557 H 0.24448 1.18370 0.89021
 H558 H 0.39173 1.12912 0.94697
 H559 H 0.38806 1.04479 0.87668
 H560 H 0.31172 1.10645 0.81767
 H561 H 0.33753 1.06885 0.85090
 C562 C 0.30203 0.87108 1.12740
 C563 C 0.29293 0.83734 1.12025
 C564 C 0.26449 0.82330 1.13566
 C565 C 0.24501 0.84243 1.15867
 C566 C 0.25561 0.87570 1.16624
 N567 N 0.28342 0.88905 1.15054
 C568 C 0.33159 0.88720 1.11055
 N569 N 0.34794 0.91336 1.12632
 C570 C 0.37578 0.92848 1.11252
 C571 C 0.38879 0.91717 1.08113
 C572 C 0.37183 0.89093 1.06406
 C573 C 0.34321 0.87608 1.07849
 H574 H 0.25782 0.79731 1.12946
 H575 H 0.24150 0.89127 1.18402
 H576 H 0.38797 0.94895 1.12631
 H577 H 0.38067 0.88183 1.03952
 H578 H 0.30770 0.82158 1.10321
 H579 H 0.33030 0.85635 1.06434
 C580 C 0.69680 1.12433 1.13059
 C581 C 0.70883 1.11560 1.16324
 C582 C 0.73773 1.13136 1.17603
 C583 C 0.75466 1.15622 1.15677
 C584 C 0.74137 1.16494 1.12464
 N585 N 0.71326 1.14896 1.11254
 C586 C 0.66644 1.10802 1.11540
 N587 N 0.65059 1.12369 1.08875
 C588 C 0.62256 1.11049 1.07354
 C589 C 0.60876 1.07971 1.08519
 C590 C 0.62488 1.06282 1.11221
 C591 C 0.65376 1.07670 1.12722
 H592 H 0.74669 1.12412 1.20117
 H593 H 0.75350 1.18407 1.10896
 H594 H 0.61099 1.12420 1.05256
 H595 H 0.61530 1.03876 1.12163
 H596 H 0.69606 1.09719 1.17918
 H597 H 0.66603 1.06256 1.14743
 C598 C 0.70125 0.87143 0.88204
 C599 C 0.71525 0.84053 0.89350
 C600 C 0.74500 0.82833 0.87871
 C601 C 0.76077 0.84649 0.85227
 C602 C 0.74589 0.87711 0.84141
 N603 N 0.71701 0.88856 0.85632
 C604 C 0.66946 0.88582 0.89619
 N605 N 0.65403 0.91171 0.87897
 C606 C 0.62477 0.92630 0.88992
 C607 C 0.60916 0.91471 0.91989
 C608 C 0.62470 0.88839 0.93831
 C609 C 0.65486 0.87403 0.92675
 H610 H 0.75535 0.80442 0.88769
 H611 H 0.75711 0.89200 0.82109
 H612 H 0.61367 0.94671 0.87508
 H613 H 0.61370 0.87903 0.96186
 H614 H 0.70339 0.82533 0.91312
 H615 H 0.66643 0.85433 0.94206
   
