data_POSCAR
  _audit_creation_date              2014-09-24
  _audit_creation_method            'ToBaCCo'
  _symmetry_space_group_name_H-M    'P1'
  _symmetry_Int_Tables_number       1
  _symmetry_cell_setting            triclinic
  loop_
  _symmetry_equiv_pos_as_xyz
 x,y,z
_cell_length_a 40.2240
_cell_length_b 39.3198
_cell_length_c 38.6837
_cell_angle_alpha 85.206500
_cell_angle_beta 95.710300
_cell_angle_gamma 94.354000
loop_
  _atom_site_label
  _atom_site_type_symbol
  _atom_site_fract_x
  _atom_site_fract_y
  _atom_site_fract_z
C1 C 0.29515 0.30754 0.24001
 H2 H 0.29868 0.30840 0.26803
 C3 C 0.31630 0.32791 0.21898
 H4 H 0.33610 0.34465 0.23075
 C5 C 0.26576 0.28390 0.19038
 H6 H 0.24660 0.26617 0.17935
 C7 C 0.28636 0.30379 0.16843
 H8 H 0.28274 0.30156 0.14056
 N9 N 0.27033 0.28627 0.22547
 C10 C 0.19838 0.26690 0.30351
 H11 H 0.19659 0.23922 0.30589
 C12 C 0.17909 0.28489 0.32286
 H13 H 0.16245 0.27109 0.34036
 C14 C 0.22187 0.31881 0.27744
 H15 H 0.23814 0.33194 0.25933
 C16 C 0.20301 0.33778 0.29630
 H17 H 0.20507 0.36547 0.29292
 Zn18 Zn 0.24428 0.25771 0.25590
 N19 N 0.21951 0.28401 0.28164
 C20 C 0.27569 0.23127 0.32123
 N21 N 0.27444 0.23158 0.28590
 C22 C 0.29539 0.21335 0.27033
 C23 C 0.31791 0.19278 0.29042
 C24 C 0.29792 0.21099 0.34234
 C25 C 0.18928 0.24256 0.20754
 C26 C 0.16674 0.22188 0.18720
 C27 C 0.19314 0.17223 0.21512
 C28 C 0.21518 0.19378 0.23487
 N29 N 0.21336 0.22832 0.23025
 H30 H 0.25940 0.24651 0.33312
 H31 H 0.29418 0.21446 0.24219
 H32 H 0.33405 0.17786 0.27778
 H33 H 0.29847 0.21041 0.37044
 H34 H 0.18805 0.27006 0.20479
 H35 H 0.14813 0.23342 0.16861
 H36 H 0.19518 0.14481 0.21849
 H37 H 0.23380 0.18282 0.25368
 C38 C 0.18152 0.32064 0.31927
 C39 C 0.31187 0.32593 0.18288
 C40 C 0.16895 0.18642 0.19084
 C41 C 0.31900 0.19138 0.32673
 C42 C 0.79595 0.81010 0.23797
 H43 H 0.79951 0.81112 0.26597
 C44 C 0.81691 0.83054 0.21680
 H45 H 0.83659 0.84747 0.22852
 C46 C 0.76668 0.78597 0.18855
 H47 H 0.74767 0.76801 0.17766
 C48 C 0.78709 0.80590 0.16644
 H49 H 0.78339 0.80342 0.13860
 N50 N 0.77129 0.78854 0.22361
 C51 C 0.69946 0.76864 0.30175
 H52 H 0.69780 0.74097 0.30405
 C53 C 0.68012 0.78645 0.32123
 H54 H 0.66356 0.77251 0.33872
 C55 C 0.72272 0.82073 0.27584
 H56 H 0.73894 0.83400 0.25776
 C57 C 0.70381 0.83953 0.29482
 H58 H 0.70577 0.86722 0.29157
 Zn59 Zn 0.74549 0.75984 0.25417
 N60 N 0.72052 0.78593 0.27992
 C61 C 0.77698 0.73357 0.31953
 N62 N 0.77587 0.73398 0.28419
 C63 C 0.79701 0.71594 0.26866
 C64 C 0.81955 0.69542 0.28880
 C65 C 0.79923 0.71335 0.34067
 C66 C 0.69055 0.74413 0.20590
 C67 C 0.66811 0.72322 0.18571
 C68 C 0.69494 0.67387 0.21375
 C69 C 0.71688 0.69565 0.23334
 N70 N 0.71477 0.73015 0.22862
 H71 H 0.76054 0.74866 0.33139
 H72 H 0.79588 0.71710 0.24053
 H73 H 0.83582 0.68061 0.27618
 H74 H 0.79964 0.71265 0.36877
 H75 H 0.68910 0.77160 0.20305
 H76 H 0.64936 0.73455 0.16713
 H77 H 0.69717 0.64648 0.21724
 H78 H 0.73563 0.68489 0.25215
 C79 C 0.68242 0.82221 0.31779
 C80 C 0.81247 0.82834 0.18070
 C81 C 0.67058 0.68779 0.18949
 C82 C 0.82047 0.69389 0.32510
 C83 C 0.79564 0.30817 0.74019
 H84 H 0.79926 0.30908 0.76819
 C85 C 0.81664 0.32858 0.71904
 H86 H 0.83644 0.34539 0.73072
 C87 C 0.76617 0.28434 0.69069
 H88 H 0.74706 0.26651 0.67975
 C89 C 0.78663 0.30427 0.66863
 H90 H 0.78296 0.30196 0.64078
 N91 N 0.77085 0.28677 0.72577
 C92 C 0.69930 0.26696 0.80421
 H93 H 0.69766 0.23928 0.80662
 C94 C 0.67997 0.28484 0.82362
 H95 H 0.66343 0.27097 0.84117
 C96 C 0.72245 0.31897 0.77801
 H97 H 0.73861 0.33217 0.75983
 C98 C 0.70354 0.33783 0.79692
 H99 H 0.70545 0.36552 0.79350
 Zn100 Zn 0.74508 0.25805 0.75633
 N101 N 0.72028 0.28417 0.78224
 C102 C 0.77686 0.23154 0.82148
 N103 N 0.77551 0.23206 0.78613
 C104 C 0.79652 0.21412 0.77033
 C105 C 0.81927 0.19363 0.79019
 C106 C 0.79931 0.21135 0.84241
 C107 C 0.69000 0.24255 0.70812
 C108 C 0.66755 0.22172 0.68784
 C109 C 0.69436 0.17228 0.71570
 C110 C 0.71630 0.19398 0.73539
 N111 N 0.71423 0.22849 0.73078
 H112 H 0.76049 0.24656 0.83353
 H113 H 0.79519 0.21539 0.74219
 H114 H 0.83542 0.17899 0.77720
 H115 H 0.79985 0.21070 0.87054
 H116 H 0.68856 0.27002 0.70537
 H117 H 0.64882 0.23312 0.66930
 H118 H 0.69660 0.14489 0.71907
 H119 H 0.73504 0.18316 0.75415
 C120 C 0.68219 0.32060 0.81997
 C121 C 0.81211 0.32652 0.68295
 C122 C 0.67003 0.18629 0.69147
 C123 C 0.82052 0.19200 0.82657
 C124 C 0.29507 0.80820 0.73993
 H125 H 0.29853 0.80917 0.76794
 C126 C 0.31631 0.82842 0.71889
 H127 H 0.33612 0.84518 0.73064
 C128 C 0.26578 0.78437 0.69035
 H129 H 0.24664 0.76661 0.67934
 C130 C 0.28648 0.80411 0.66839
 H131 H 0.28295 0.80174 0.64054
 N132 N 0.27027 0.78687 0.72543
 C133 C 0.19812 0.76756 0.80332
 H134 H 0.19630 0.73988 0.80568
 C135 C 0.17876 0.78556 0.82259
 H136 H 0.16202 0.77177 0.83999
 C137 C 0.22176 0.81946 0.77738
 H138 H 0.23812 0.83258 0.75935
 C139 C 0.20283 0.83844 0.79616
 H140 H 0.20493 0.86613 0.79280
 Zn141 Zn 0.24421 0.75835 0.75588
 N142 N 0.21936 0.78466 0.78155
 C143 C 0.27542 0.73178 0.82127
 N144 N 0.27435 0.73224 0.78593
 C145 C 0.29542 0.71412 0.77041
 C146 C 0.31789 0.69351 0.79054
 C147 C 0.29758 0.71146 0.84241
 C148 C 0.18929 0.74305 0.70743
 C149 C 0.16683 0.72229 0.68710
 C150 C 0.19329 0.67274 0.71519
 C151 C 0.21525 0.69437 0.73492
 N152 N 0.21336 0.72890 0.73022
 H153 H 0.25902 0.74693 0.83313
 H154 H 0.29434 0.71533 0.74228
 H155 H 0.33413 0.67867 0.77792
 H156 H 0.29798 0.71075 0.87051
 H157 H 0.18799 0.77054 0.70462
 H158 H 0.14821 0.73375 0.66845
 H159 H 0.19538 0.64532 0.71863
 H160 H 0.23386 0.68348 0.75380
 C161 C 0.18123 0.82132 0.81901
 C162 C 0.31200 0.82626 0.68281
 C163 C 0.16912 0.68683 0.69083
 C164 C 0.31879 0.69196 0.82684
 C165 C 0.02983 -0.03122 -0.03139
 C166 C 0.05092 -0.00865 -0.00581
 C167 C 0.03213 0.00946 0.01261
 C168 C -0.00584 0.00347 0.00396
 C169 C 0.00601 -0.05376 -0.00916
 C170 C -0.01259 -0.03550 0.00929
 C171 C 0.00744 -0.00676 -0.05430
 C172 C -0.01115 0.01135 -0.03567
 H173 H 0.07813 -0.00688 -0.00280
 H174 H -0.02106 0.01826 0.01906
 H175 H 0.00407 -0.08154 -0.00807
 H176 H 0.00651 -0.00388 -0.08255
 C177 C 0.03066 0.46792 0.46957
 C178 C 0.05172 0.49063 0.49505
 C179 C 0.03290 0.50870 0.51347
 C180 C -0.00507 0.50253 0.50494
 C181 C 0.00699 0.44533 0.49192
 C182 C -0.01165 0.46354 0.51037
 C183 C 0.00811 0.49223 0.44667
 C184 C -0.01051 0.51030 0.46531
 H185 H 0.07893 0.49256 0.49795
 H186 H -0.02032 0.51727 0.52005
 H187 H 0.00514 0.41755 0.49305
 H188 H 0.00712 0.49506 0.41840
 C189 C 0.53157 -0.03261 0.47017
 C190 C 0.55264 -0.00987 0.49561
 C191 C 0.53383 0.00805 0.51419
 C192 C 0.49586 0.00172 0.50583
 C193 C 0.50808 -0.05537 0.49259
 C194 C 0.48945 -0.03729 0.51120
 C195 C 0.50882 -0.00836 0.44743
 C196 C 0.49021 0.00955 0.46622
 H197 H 0.57986 -0.00783 0.49839
 H198 H 0.48062 0.01635 0.52106
 H199 H 0.50625 -0.08314 0.49356
 H200 H 0.50763 -0.00554 0.41916
 C201 C 0.53100 0.46751 -0.02969
 C202 C 0.55214 0.49037 -0.00442
 C203 C 0.53338 0.50842 0.01409
 C204 C 0.49540 0.50208 0.00584
 C205 C 0.50754 0.44489 -0.00712
 C206 C 0.48897 0.46309 0.01141
 C207 C 0.50823 0.49167 -0.05253
 C208 C 0.48968 0.50972 -0.03380
 H209 H 0.57935 0.49244 -0.00174
 H210 H 0.48021 0.51681 0.02102
 H211 H 0.50563 0.41711 -0.00607
 H212 H 0.50699 0.49435 -0.08080
 C213 C 0.08622 -0.08627 -0.08723
 C214 C 0.08305 -0.12248 -0.08384
 C215 C 0.10253 -0.14148 -0.10305
 C216 C 0.12504 -0.12415 -0.12553
 C217 C 0.12818 -0.08794 -0.12896
 C218 C 0.10871 -0.06894 -0.10975
 C219 C 0.11226 -0.03276 -0.11361
 C220 C 0.13442 -0.01584 -0.13581
 C221 C 0.15346 -0.03441 -0.15459
 C222 C 0.15048 -0.07005 -0.15130
 C223 C 0.09893 -0.17765 -0.09923
 C224 C 0.07672 -0.19457 -0.07708
 C225 C 0.05768 -0.17600 -0.05831
 C226 C 0.06070 -0.14036 -0.06154
 C227 C 0.14495 -0.14355 -0.14515
 C228 C 0.16148 -0.15960 -0.16147
 C229 C 0.06637 -0.06686 -0.06759
 C230 C 0.04989 -0.05076 -0.05126
 H231 H 0.09799 -0.01720 -0.09955
 H232 H 0.13682 0.01185 -0.13845
 H233 H 0.17063 -0.02113 -0.17180
 H234 H 0.16583 -0.08336 -0.16645
 H235 H 0.11320 -0.19322 -0.11328
 H236 H 0.07428 -0.22226 -0.07447
 H237 H 0.04046 -0.18927 -0.04113
 H238 H 0.04535 -0.12704 -0.04640
 C239 C 0.08707 0.41297 0.41367
 C240 C 0.10929 0.43031 0.39089
 C241 C 0.12868 0.41132 0.37158
 C242 C 0.12572 0.37511 0.37518
 C243 C 0.10350 0.35777 0.39798
 C244 C 0.08411 0.37676 0.41728
 C245 C 0.06205 0.35887 0.43990
 C246 C 0.05923 0.32323 0.44334
 C247 C 0.07819 0.30466 0.42447
 C248 C 0.10012 0.32159 0.40202
 C249 C 0.15072 0.42921 0.34895
 C250 C 0.15351 0.46485 0.34549
 C251 C 0.13456 0.48342 0.36436
 C252 C 0.11266 0.46648 0.38684
 C253 C 0.14547 0.35572 0.35540
 C254 C 0.16190 0.33970 0.33893
 C255 C 0.06724 0.43236 0.43335
 C256 C 0.05075 0.44843 0.44969
 H257 H 0.04678 0.37218 0.45513
 H258 H 0.04223 0.30996 0.46074
 H259 H 0.07590 0.27698 0.42723
 H260 H 0.11434 0.30603 0.38790
 H261 H 0.16600 0.41590 0.33372
 H262 H 0.17049 0.47812 0.32805
 H263 H 0.13682 0.51110 0.36157
 H264 H 0.09845 0.48205 0.40096
 C265 C 0.58798 -0.08682 0.41354
 C266 C 0.61066 -0.06917 0.39144
 C267 C 0.63005 -0.08784 0.37182
 C268 C 0.62662 -0.12405 0.37441
 C269 C 0.60396 -0.14170 0.39653
 C270 C 0.58457 -0.12303 0.41615
 C271 C 0.56206 -0.14123 0.43807
 C272 C 0.55880 -0.17687 0.44053
 C273 C 0.57776 -0.19512 0.42136
 C274 C 0.60012 -0.17788 0.39957
 C275 C 0.65255 -0.06962 0.34990
 C276 C 0.65581 -0.03399 0.34744
 C277 C 0.63685 -0.01574 0.36662
 C278 C 0.61450 -0.03299 0.38841
 C279 C 0.64639 -0.14311 0.35432
 C280 C 0.66281 -0.15893 0.33765
 C281 C 0.56814 -0.06775 0.43353
 C282 C 0.55165 -0.05190 0.45009
 H283 H 0.54676 -0.12817 0.45350
 H284 H 0.54146 -0.19039 0.45742
 H285 H 0.57513 -0.22280 0.42337
 H286 H 0.61432 -0.19321 0.38518
 H287 H 0.66785 -0.08268 0.33447
 H288 H 0.67314 -0.02047 0.33055
 H289 H 0.63947 0.01194 0.36462
 H290 H 0.60030 -0.01766 0.40281
 C291 C 0.58734 0.41265 -0.08577
 C292 C 0.58329 0.37646 -0.08344
 C293 C 0.60272 0.35752 -0.10274
 C294 C 0.62609 0.37488 -0.12426
 C295 C 0.63013 0.41107 -0.12658
 C296 C 0.61070 0.43001 -0.10728
 C297 C 0.61519 0.46616 -0.11001
 C298 C 0.63822 0.48312 -0.13122
 C299 C 0.65722 0.46460 -0.15010
 C300 C 0.65333 0.42899 -0.14791
 C301 C 0.59824 0.32137 -0.09999
 C302 C 0.57522 0.30442 -0.07878
 C303 C 0.55621 0.32294 -0.05991
 C304 C 0.56009 0.35855 -0.06211
 C305 C 0.64595 0.35555 -0.14398
 C306 C 0.66246 0.33957 -0.16039
 C307 C 0.56750 0.43199 -0.06605
 C308 C 0.55103 0.44803 -0.04966
 H309 H 0.60099 0.48168 -0.09583
 H310 H 0.64133 0.51078 -0.13301
 H311 H 0.67508 0.47790 -0.16653
 H312 H 0.66868 0.41572 -0.16310
 H313 H 0.61244 0.30585 -0.11417
 H314 H 0.57211 0.27676 -0.07697
 H315 H 0.53835 0.30964 -0.04347
 H316 H 0.54473 0.37182 -0.04693
 C317 C -0.07471 0.08075 -0.08428
 C318 C -0.08047 0.11080 -0.06862
 C319 C -0.10239 0.13458 -0.08641
 C320 C -0.11833 0.12820 -0.11977
 C321 C -0.11253 0.09816 -0.13544
 C322 C -0.09068 0.07437 -0.11763
 C323 C -0.08526 0.04453 -0.13384
 C324 C -0.10096 0.03840 -0.16670
 C325 C -0.12232 0.06167 -0.18412
 C326 C -0.12814 0.09123 -0.16881
 C327 C -0.10779 0.16441 -0.07026
 C328 C -0.09192 0.17062 -0.03746
 C329 C -0.07044 0.14740 -0.02009
 C330 C -0.06470 0.11777 -0.03536
 C331 C -0.14059 0.15242 -0.13825
 C332 C -0.15921 0.17179 -0.15465
 C333 C -0.05223 0.05647 -0.06634
 C334 C -0.03355 0.03601 -0.05205
 H335 H -0.06885 0.02566 -0.12136
 H336 H -0.09651 0.01547 -0.17871
 H337 H -0.13446 0.05680 -0.20965
 H338 H -0.14497 0.10854 -0.18344
 H339 H -0.12428 0.18321 -0.08278
 H340 H -0.09632 0.19358 -0.02548
 H341 H -0.05815 0.15236 0.00536
 H342 H -0.04780 0.10046 -0.02084
 C343 C -0.07430 0.57961 0.41694
 C344 C -0.09343 0.57140 0.38564
 C345 C -0.11508 0.59533 0.36775
 C346 C -0.11750 0.62735 0.38127
 C347 C -0.09852 0.63548 0.41268
 C348 C -0.07683 0.61153 0.43057
 C349 C -0.05802 0.62026 0.46187
 C350 C -0.06057 0.65175 0.47511
 C351 C -0.08179 0.67515 0.45763
 C352 C -0.10061 0.66725 0.42675
 C353 C -0.13389 0.58656 0.33644
 C354 C -0.13138 0.55506 0.32321
 C355 C -0.11020 0.53166 0.34071
 C356 C -0.09138 0.53959 0.37157
 C357 C -0.13929 0.65186 0.36251
 C358 C -0.15755 0.67148 0.34599
 C359 C -0.05175 0.55532 0.43476
 C360 C -0.03300 0.53489 0.44896
 H361 H -0.04120 0.60288 0.47640
 H362 H -0.04601 0.65802 0.49909
 H363 H -0.08369 0.69957 0.46804
 H364 H -0.11679 0.68625 0.41408
 H365 H -0.15073 0.60388 0.32185
 H366 H -0.14595 0.54878 0.29925
 H367 H -0.10832 0.50722 0.33033
 H368 H -0.07528 0.52052 0.38422
 C369 C 0.42530 0.07801 0.41836
 C370 C 0.40487 0.06893 0.38813
 C371 C 0.38289 0.09262 0.37033
 C372 C 0.38146 0.12525 0.38288
 C373 C 0.40167 0.13422 0.41330
 C374 C 0.42367 0.11052 0.43110
 C375 C 0.44371 0.12007 0.46139
 C376 C 0.44204 0.15213 0.47376
 C377 C 0.42052 0.17529 0.45636
 C378 C 0.40051 0.16658 0.42645
 C379 C 0.36278 0.08297 0.34009
 C380 C 0.36432 0.05086 0.32783
 C381 C 0.38580 0.02770 0.34523
 C382 C 0.40591 0.03650 0.37503
 C383 C 0.35948 0.14957 0.36411
 C384 C 0.34109 0.16907 0.34759
 C385 C 0.44826 0.05402 0.43598
 C386 C 0.46735 0.03385 0.45003
 H387 H 0.46080 0.10291 0.47583
 H388 H 0.45752 0.15903 0.49698
 H389 H 0.41931 0.20015 0.46609
 H390 H 0.38414 0.18543 0.41382
 H391 H 0.34565 0.10008 0.32562
 H392 H 0.34874 0.04391 0.30469
 H393 H 0.38691 0.00278 0.33560
 H394 H 0.42221 0.01759 0.38766
 C395 C 0.42479 0.57827 -0.08154
 C396 C 0.40301 0.56861 -0.11065
 C397 C 0.38106 0.59236 -0.12839
 C398 C 0.38101 0.62563 -0.11691
 C399 C 0.40255 0.63517 -0.08757
 C400 C 0.42452 0.61141 -0.06983
 C401 C 0.44590 0.62154 -0.04063
 C402 C 0.44557 0.65421 -0.02927
 C403 C 0.42409 0.67744 -0.04662
 C404 C 0.40277 0.66817 -0.07546
 C405 C 0.35960 0.58213 -0.15751
 C406 C 0.35979 0.54940 -0.16874
 C407 C 0.38124 0.52618 -0.15138
 C408 C 0.40266 0.53553 -0.12267
 C409 C 0.35912 0.65002 -0.13572
 C410 C 0.34080 0.66958 -0.15227
 C411 C 0.44776 0.55422 -0.06405
 C412 C 0.46684 0.53402 -0.05004
 H413 H 0.46303 0.60435 -0.02628
 H414 H 0.46206 0.66154 -0.00688
 H415 H 0.42393 0.70279 -0.03769
 H416 H 0.38648 0.68709 -0.08809
 H417 H 0.34243 0.59925 -0.17189
 H418 H 0.34320 0.54201 -0.19105
 H419 H 0.38129 0.50077 -0.16020
 H420 H 0.41887 0.51655 -0.11003
 C421 C -0.07989 -0.08362 0.07309
 C422 C -0.09152 -0.06665 0.09997
 C423 C -0.11421 -0.08433 0.12228
 C424 C -0.12515 -0.11886 0.11757
 C425 C -0.11374 -0.13574 0.09050
 C426 C -0.09104 -0.11808 0.06821
 C427 C -0.07991 -0.13553 0.04140
 C428 C -0.09091 -0.16944 0.03672
 C429 C -0.11313 -0.18670 0.05850
 C430 C -0.12449 -0.17018 0.08512
 C431 C -0.12542 -0.06686 0.14902
 C432 C -0.11455 -0.03289 0.15356
 C433 C -0.09237 -0.01560 0.13173
 C434 C -0.08090 -0.03216 0.10520
 C435 C -0.14787 -0.13721 0.14067
 C436 C -0.16658 -0.15308 0.15961
 C437 C -0.05623 -0.06588 0.05066
 C438 C -0.03642 -0.05172 0.03189
 H439 H -0.06263 -0.12320 0.02377
 H440 H -0.08215 -0.18239 0.01608
 H441 H -0.12162 -0.21304 0.05476
 H442 H -0.14178 -0.18471 0.10136
 H443 H -0.14269 -0.07924 0.16664
 H444 H -0.12338 -0.01990 0.17413
 H445 H -0.08401 0.01079 0.13536
 H446 H -0.06368 -0.01765 0.08887
 C447 C -0.07882 0.41532 0.57425
 C448 C -0.09216 0.43294 0.59960
 C449 C -0.11489 0.41530 0.62190
 C450 C -0.12414 0.38016 0.61870
 C451 C -0.11096 0.36259 0.59318
 C452 C -0.08822 0.38022 0.57091
 C453 C -0.07530 0.36208 0.54568
 C454 C -0.08458 0.32753 0.54254
 C455 C -0.10683 0.31030 0.56430
 C456 C -0.11995 0.32749 0.58937
 C457 C -0.12783 0.43343 0.64710
 C458 C -0.11859 0.46801 0.65018
 C459 C -0.09637 0.48525 0.62837
 C460 C -0.08323 0.46805 0.60331
 C461 C -0.14694 0.36189 0.64177
 C462 C -0.16571 0.34611 0.66069
 C463 C -0.05520 0.43308 0.55179
 C464 C -0.03544 0.44728 0.53299
 H465 H -0.05793 0.37435 0.52812
 H466 H -0.07445 0.31406 0.52311
 H467 H -0.11397 0.28346 0.56176
 H468 H -0.13719 0.31297 0.60566
 H469 H -0.14520 0.42112 0.66464
 H470 H -0.12872 0.48150 0.66959
 H471 H -0.08927 0.51211 0.63087
 H472 H -0.06604 0.48255 0.58694
 C473 C 0.42191 -0.08537 0.57475
 C474 C 0.41318 -0.06971 0.60393
 C475 C 0.39028 -0.08725 0.62611
 C476 C 0.37624 -0.12033 0.61894
 C477 C 0.38476 -0.13586 0.58957
 C478 C 0.40766 -0.11833 0.56742
 C479 C 0.41584 -0.13441 0.53826
 C480 C 0.40177 -0.16687 0.53118
 C481 C 0.37937 -0.18400 0.55283
 C482 C 0.37087 -0.16881 0.58173
 C483 C 0.38200 -0.07112 0.65517
 C484 C 0.39590 -0.03856 0.66210
 C485 C 0.41826 -0.02140 0.64041
 C486 C 0.42691 -0.03668 0.61162
 C487 C 0.35331 -0.13860 0.64187
 C488 C 0.33440 -0.15430 0.66068
 C489 C 0.44574 -0.06780 0.55242
 C490 C 0.46562 -0.05366 0.53372
 H491 H 0.43313 -0.12211 0.52063
 H492 H 0.40828 -0.17877 0.50875
 H493 H 0.36850 -0.20921 0.54721
 H494 H 0.35331 -0.18317 0.59777
 H495 H 0.36470 -0.08345 0.67279
 H496 H 0.38927 -0.02658 0.68443
 H497 H 0.42898 0.00389 0.64590
 H498 H 0.44440 -0.02232 0.59549
 C499 C 0.42117 0.41530 0.07484
 C500 C 0.41600 0.42860 0.10664
 C501 C 0.39314 0.41095 0.12879
 C502 C 0.37558 0.38012 0.11898
 C503 C 0.38049 0.36703 0.08699
 C504 C 0.40336 0.38467 0.06486
 C505 C 0.40793 0.37101 0.03307
 C506 C 0.39041 0.34081 0.02341
 C507 C 0.36804 0.32357 0.04504
 C508 C 0.36303 0.33641 0.07648
 C509 C 0.38847 0.42466 0.16050
 C510 C 0.40588 0.45497 0.17006
 C511 C 0.42821 0.47224 0.14839
 C512 C 0.43332 0.45932 0.11702
 C513 C 0.35285 0.36156 0.14192
 C514 C 0.33409 0.34562 0.16074
 C515 C 0.44510 0.43281 0.05257
 C516 C 0.46506 0.44686 0.03392
 H517 H 0.42504 0.38349 0.01535
 H518 H 0.39421 0.33074 -0.00099
 H519 H 0.35447 0.30012 0.03741
 H520 H 0.34534 0.32208 0.09239
 H521 H 0.37135 0.41216 0.17820
 H522 H 0.40200 0.46512 0.19440
 H523 H 0.44166 0.49577 0.15594
 H524 H 0.45094 0.47367 0.10102
 C525 C 0.07646 0.07528 0.08280
 C526 C 0.06685 0.10926 0.08198
 C527 C 0.08436 0.13241 0.10487
 C528 C 0.11130 0.12139 0.12848
 C529 C 0.12033 0.08714 0.12992
 C530 C 0.10286 0.06403 0.10700
 C531 C 0.11248 0.02998 0.10876
 C532 C 0.13858 0.01906 0.13252
 C533 C 0.15566 0.04165 0.15494
 C534 C 0.14677 0.07532 0.15376
 C535 C 0.07449 0.16632 0.10340
 C536 C 0.04800 0.17705 0.08003
 C537 C 0.03085 0.15440 0.05768
 C538 C 0.04007 0.12087 0.05851
 C539 C 0.13049 0.14533 0.15062
 C540 C 0.14746 0.16451 0.16898
 C541 C 0.05996 0.05215 0.05813
 C542 C 0.04696 0.03276 0.03747
 H543 H 0.09993 0.01142 0.09190
 H544 H 0.14558 -0.00707 0.13353
 H545 H 0.17592 0.03305 0.17335
 H546 H 0.16079 0.09190 0.17178
 H547 H 0.08705 0.18483 0.12032
 H548 H 0.04074 0.20307 0.07926
 H549 H 0.01027 0.16285 0.03959
 H550 H 0.02596 0.10417 0.04066
 C551 C 0.07694 0.57513 0.58319
 C552 C 0.06841 0.60958 0.58092
 C553 C 0.08582 0.63287 0.60372
 C554 C 0.11160 0.62153 0.62867
 C555 C 0.11954 0.58687 0.63151
 C556 C 0.10217 0.56360 0.60870
 C557 C 0.11069 0.52912 0.61188
 C558 C 0.13566 0.51794 0.63691
 C559 C 0.15266 0.54069 0.65922
 C560 C 0.14482 0.57478 0.65666
 C561 C 0.07704 0.66723 0.60081
 C562 C 0.05173 0.67827 0.57609
 C563 C 0.03468 0.65549 0.55382
 C564 C 0.04282 0.62150 0.55608
 C565 C 0.13077 0.64557 0.65072
 C566 C 0.14769 0.66482 0.66902
 C567 C 0.06058 0.55176 0.55868
 C568 C 0.04766 0.53219 0.53816
 H569 H 0.09815 0.51044 0.59517
 H570 H 0.14183 0.49148 0.63900
 H571 H 0.17204 0.53188 0.67862
 H572 H 0.15873 0.59146 0.67466
 H573 H 0.08957 0.68586 0.61760
 H574 H 0.04531 0.70465 0.57423
 H575 H 0.01503 0.66419 0.53469
 H576 H 0.02882 0.60472 0.53823
 C577 C 0.57779 0.07455 0.58389
 C578 C 0.57000 0.10925 0.58087
 C579 C 0.58741 0.13255 0.60366
 C580 C 0.61245 0.12097 0.62936
 C581 C 0.61962 0.08607 0.63296
 C582 C 0.60224 0.06279 0.61016
 C583 C 0.60998 0.02807 0.61411
 C584 C 0.63419 0.01666 0.63988
 C585 C 0.65120 0.03941 0.66218
 C586 C 0.64412 0.07374 0.65887
 C587 C 0.57939 0.16717 0.59999
 C588 C 0.55480 0.17845 0.57455
 C589 C 0.53775 0.15566 0.55228
 C590 C 0.54517 0.12143 0.55528
 C591 C 0.63167 0.14498 0.65141
 C592 C 0.64861 0.16424 0.66970
 C593 C 0.56149 0.05114 0.55939
 C594 C 0.54860 0.03155 0.53888
 H595 H 0.59739 0.00937 0.59744
 H596 H 0.63976 -0.00999 0.64256
 H597 H 0.66998 0.03043 0.68216
 H598 H 0.65800 0.09042 0.67688
 H599 H 0.59195 0.18582 0.61674
 H600 H 0.54895 0.20501 0.57211
 H601 H 0.51867 0.16455 0.53258
 H602 H 0.53120 0.10466 0.53740
 C603 C 0.57747 0.57557 0.08307
 C604 C 0.57114 0.61068 0.07853
 C605 C 0.58872 0.63412 0.10106
 C606 C 0.61247 0.62228 0.12802
 C607 C 0.61813 0.58702 0.13313
 C608 C 0.60058 0.56360 0.11059
 C609 C 0.60682 0.52851 0.11606
 C610 C 0.62974 0.51688 0.14305
 C611 C 0.64692 0.53978 0.16509
 C612 C 0.64130 0.57446 0.16031
 C613 C 0.58220 0.66912 0.09585
 C614 C 0.55890 0.68065 0.06916
 C615 C 0.54168 0.65773 0.04715
 C616 C 0.54763 0.62311 0.05166
 C617 C 0.63195 0.64633 0.14982
 C618 C 0.64905 0.66565 0.16791
 C619 C 0.56112 0.55193 0.05883
 C620 C 0.54820 0.53214 0.03853
 H621 H 0.59404 0.50970 0.09965
 H622 H 0.63418 0.48996 0.14687
 H623 H 0.66470 0.53062 0.18602
 H624 H 0.65525 0.59124 0.17817
 H625 H 0.59494 0.68790 0.11235
 H626 H 0.55419 0.70752 0.06555
 H627 H 0.52362 0.66682 0.02647
 H628 H 0.53357 0.60625 0.03393
   
