data_POSCAR
  _audit_creation_date              2014-09-24
  _audit_creation_method            'ToBaCCo'
  _symmetry_space_group_name_H-M    'P1'
  _symmetry_Int_Tables_number       1
  _symmetry_cell_setting            triclinic
  loop_
  _symmetry_equiv_pos_as_xyz
 x,y,z
_cell_length_a 29.4735
_cell_length_b 25.5222
_cell_length_c 21.7281
_cell_angle_alpha 89.875700
_cell_angle_beta 90.093600
_cell_angle_gamma 90.003300
loop_
  _atom_site_label
  _atom_site_type_symbol
  _atom_site_fract_x
  _atom_site_fract_y
  _atom_site_fract_z
Si1 Si 1.25218 0.25010 0.25264
 Si2 Si 0.74419 -0.25098 0.25220
 Si3 Si 0.74634 0.25140 -0.25488
 Si4 Si 1.25447 -0.24898 -0.24959
 Si5 Si 0.25329 0.24952 0.74792
 Si6 Si 0.74454 0.74917 0.74696
 Si7 Si 0.74720 0.25107 0.25503
 Si8 Si 0.25419 0.74925 0.24920
 O9 O 1.06235 0.09054 0.11367
 O10 O 1.11318 0.04363 0.05554
 C11 C 1.10322 0.07781 0.09772
 O12 O 0.93590 -0.09904 0.10528
 O13 O 0.88506 -0.04664 0.05358
 C14 C 0.89501 -0.08457 0.09128
 O15 O 1.06202 -0.09573 0.11100
 O16 O 1.11310 -0.04742 0.05477
 C17 C 1.10305 -0.08280 0.09577
 O18 O 0.93633 0.09535 0.10808
 O19 O 0.88515 0.04667 0.05227
 C20 C 0.89535 0.08281 0.09212
 Zr21 Zr 0.99929 0.06448 0.07896
 O22 O 0.99425 0.06165 0.17615
 O23 O 1.00443 0.14721 0.08070
 Zr24 Zr 0.99888 -0.06674 0.07868
 O25 O 0.99422 -0.05990 0.17567
 O26 O 1.00040 -0.14918 0.08767
 O27 O 1.04023 -0.00145 0.09096
 O28 O 0.95897 -0.00105 0.08967
 O29 O 0.93635 0.09634 -0.10579
 O30 O 0.88511 0.04681 -0.05117
 C31 C 0.89533 0.08347 -0.09050
 O32 O 1.06214 -0.09240 -0.11118
 O33 O 1.11325 -0.04530 -0.05338
 C34 C 1.10311 -0.07956 -0.09540
 O35 O 0.93566 -0.09622 -0.10699
 O36 O 0.88484 -0.04726 -0.05129
 C37 C 0.89476 -0.08342 -0.09115
 O38 O 1.06242 0.09178 -0.11047
 O39 O 1.11324 0.04416 -0.05266
 C40 C 1.10331 0.07880 -0.09461
 Zr41 Zr 0.99932 0.06539 -0.07619
 O42 O 0.99440 0.06407 -0.17344
 O43 O 1.00447 0.14815 -0.07644
 Zr44 Zr 0.99886 -0.06617 -0.07705
 O45 O 0.99406 -0.06351 -0.17429
 O46 O 1.00292 -0.14900 -0.07868
 Zr47 Zr 1.06760 -0.00129 0.00121
 Zr48 Zr 0.93060 -0.00058 0.00065
 O49 O 0.95920 -0.00016 -0.08800
 O50 O 1.04003 -0.00052 -0.08853
 O51 O 0.95872 0.07548 0.00127
 O52 O 1.03823 -0.07652 0.00075
 O53 O 1.03889 0.07432 0.00153
 O54 O 0.95842 -0.07684 0.00062
 H55 H 0.93820 -0.00109 0.12549
 H56 H 1.05818 -0.10774 0.00022
 H57 H 0.93862 0.00012 -0.12410
 H58 H 1.05899 0.10543 0.00170
 H59 H 1.00362 -0.16356 0.04577
 H60 H 0.97817 -0.16276 -0.05250
 H61 H 1.02112 -0.04488 -0.18995
 H62 H 1.02104 0.04485 -0.18935
 H63 H 0.97973 0.16197 -0.05042
 H64 H 0.98047 0.16136 0.05344
 H65 H 1.02093 0.04229 0.19192
 H66 H 1.02430 -0.04912 0.19150
 O67 O 1.06478 0.59586 0.60967
 O68 O 1.11563 0.54782 0.55288
 C69 C 1.10554 0.58310 0.59355
 O70 O 0.93954 0.40251 0.60153
 O71 O 0.88805 0.45450 0.55050
 C72 C 0.89856 0.41597 0.58697
 O73 O 1.06491 0.40834 0.60825
 O74 O 1.11570 0.45738 0.55233
 C75 C 1.10566 0.42137 0.59239
 O76 O 0.93922 0.60159 0.60286
 O77 O 0.88792 0.55001 0.55113
 C78 C 0.89830 0.58812 0.58806
 Zr79 Zr 1.00167 0.56755 0.57825
 O80 O 0.99683 0.55888 0.67503
 O81 O 1.00412 0.64965 0.59022
 Zr82 Zr 1.00185 0.43711 0.57725
 O83 O 0.99705 0.44446 0.67415
 O84 O 1.00449 0.35486 0.58793
 O85 O 1.04320 0.50232 0.58948
 O86 O 0.96125 0.50216 0.58907
 O87 O 0.93824 0.60093 0.39565
 O88 O 0.88752 0.55030 0.44970
 C89 C 0.89754 0.58794 0.41187
 O90 O 1.06404 0.41077 0.38801
 O91 O 1.11521 0.45841 0.44497
 C92 C 1.10487 0.42332 0.40411
 O93 O 0.93865 0.40609 0.39410
 O94 O 0.88770 0.45545 0.44903
 C95 C 0.89790 0.41840 0.41062
 O96 O 1.06393 0.59720 0.38931
 O97 O 1.11515 0.54879 0.44551
 C98 C 1.10486 0.58444 0.40502
 Zr99 Zr 1.00120 0.56903 0.42242
 O100 O 0.99582 0.56536 0.32528
 O101 O 1.00525 0.65180 0.41912
 Zr102 Zr 1.00135 0.43810 0.42137
 O103 O 0.99593 0.44347 0.32431
 O104 O 1.00572 0.35543 0.41631
 Zr105 Zr 1.06997 0.50305 0.49931
 Zr106 Zr 0.93318 0.50273 0.50002
 O107 O 0.96101 0.50355 0.41095
 O108 O 1.04241 0.50372 0.40963
 O109 O 0.96138 0.57876 0.50052
 O110 O 1.04079 0.42771 0.49900
 O111 O 1.04063 0.57831 0.50019
 O112 O 0.96162 0.42687 0.49934
 H113 H 0.93984 0.50187 0.62421
 H114 H 1.06039 0.39620 0.49841
 H115 H 0.93985 0.50372 0.37545
 H116 H 1.06021 0.60984 0.50007
 H117 H 1.00648 0.33991 0.54615
 H118 H 0.98455 0.34089 0.44723
 H119 H 1.02451 0.45873 0.30855
 H120 H 1.02432 0.55011 0.30930
 H121 H 0.98369 0.66565 0.44992
 H122 H 1.00636 0.66522 0.54870
 H123 H 1.02709 0.54858 0.69072
 H124 H 1.02732 0.45455 0.68996
 O125 O 0.41578 -0.07125 0.38883
 O126 O 0.45579 -0.13199 0.44538
 C127 C 0.42496 -0.11880 0.40508
 O128 O 0.58533 0.07059 0.39706
 O129 O 0.54186 0.13089 0.44882
 C130 C 0.57502 0.11798 0.41230
 O131 O 0.57910 -0.07244 0.38778
 O132 O 0.53737 -0.13244 0.44284
 C133 C 0.56856 -0.11976 0.40316
 O134 O 0.41224 0.07213 0.39764
 O135 O 0.45687 0.13167 0.44909
 C136 C 0.42336 0.11932 0.41278
 Zr137 Zr 0.44228 0.00030 0.42025
 O138 O 0.44988 0.00686 0.32358
 O139 O 0.37118 -0.00165 0.40777
 Zr140 Zr 0.55425 -0.00056 0.41995
 O141 O 0.54641 0.00654 0.32332
 O142 O 0.62524 -0.00435 0.40724
 O143 O 0.49790 -0.04840 0.40776
 O144 O 0.49855 0.04735 0.40944
 O145 O 0.41452 0.07080 0.60368
 O146 O 0.45720 0.13089 0.55010
 C147 C 0.42474 0.11812 0.58788
 O148 O 0.57938 -0.07424 0.60749
 O149 O 0.53919 -0.13343 0.54916
 C150 C 0.56972 -0.12131 0.59022
 O151 O 0.58418 0.06925 0.60313
 O152 O 0.54197 0.13010 0.54983
 C153 C 0.57450 0.11677 0.58740
 O154 O 0.41772 -0.07264 0.60863
 O155 O 0.45811 -0.13251 0.55179
 C156 C 0.42757 -0.11989 0.59236
 Zr157 Zr 0.44257 -0.00080 0.57618
 O158 O 0.44787 0.00448 0.67325
 O159 O 0.37098 -0.00491 0.58198
 Zr160 Zr 0.55490 -0.00189 0.57593
 O161 O 0.54961 0.00326 0.67300
 O162 O 0.62641 -0.00723 0.58224
 Zr163 Zr 0.49797 -0.08048 0.49758
 Zr164 Zr 0.49908 0.07880 0.49887
 O165 O 0.49910 0.04562 0.58751
 O166 O 0.49846 -0.04956 0.58768
 O167 O 0.43340 0.04590 0.49867
 O168 O 0.56310 -0.04636 0.49751
 O169 O 0.43330 -0.04527 0.49805
 O170 O 0.56429 0.04472 0.49837
 H171 H 0.49864 0.07264 0.37474
 H172 H 0.59071 -0.06847 0.49721
 H173 H 0.49936 0.06988 0.62308
 H174 H 0.40545 -0.06697 0.49858
 H175 H 0.63899 -0.00492 0.44870
 H176 H 0.63917 0.01454 0.54876
 H177 H 0.53907 -0.03108 0.68865
 H178 H 0.45945 -0.02944 0.68886
 H179 H 0.35853 0.01757 0.54888
 H180 H 0.35763 -0.00444 0.44918
 H181 H 0.45641 -0.02850 0.30721
 H182 H 0.53853 -0.02844 0.30688
 O183 O 0.56386 0.59115 0.11004
 O184 O 0.61379 0.54267 0.05233
 C185 C 0.60438 0.57791 0.09305
 O186 O 0.43683 0.39901 0.10240
 O187 O 0.38591 0.45203 0.05193
 C188 C 0.39604 0.41315 0.08770
 O189 O 0.56312 0.40505 0.10946
 O190 O 0.61342 0.45361 0.05224
 C191 C 0.60375 0.41813 0.09278
 O192 O 0.43753 0.59862 0.10357
 O193 O 0.38620 0.54678 0.05244
 C194 C 0.39658 0.58519 0.08873
 Zr195 Zr 0.49995 0.56384 0.07964
 O196 O 0.49510 0.55550 0.17644
 O197 O 0.50351 0.64583 0.09186
 Zr198 Zr 0.49950 0.43332 0.07905
 O199 O 0.49462 0.44070 0.17591
 O200 O 0.50238 0.35118 0.09064
 O201 O 0.54105 0.49832 0.09093
 O202 O 0.45927 0.49872 0.09076
 O203 O 0.43614 0.59737 -0.10218
 O204 O 0.38561 0.54661 -0.04816
 C205 C 0.39552 0.58437 -0.08557
 O206 O 0.56167 0.40632 -0.11028
 O207 O 0.61252 0.45373 -0.05274
 C208 C 0.60246 0.41893 -0.09380
 O209 O 0.43553 0.40215 -0.10326
 O210 O 0.38530 0.45270 -0.04871
 C211 C 0.39498 0.41526 -0.08657
 O212 O 0.56234 0.59211 -0.10933
 O213 O 0.61283 0.54353 -0.05232
 C214 C 0.60302 0.57893 -0.09294
 Zr215 Zr 0.49917 0.56485 -0.07664
 O216 O 0.49344 0.56051 -0.17370
 O217 O 0.50381 0.64749 -0.08181
 Zr218 Zr 0.49872 0.43383 -0.07721
 O219 O 0.49305 0.43910 -0.17424
 O220 O 0.50274 0.35118 -0.08278
 Zr221 Zr 0.56723 0.49860 0.00048
 Zr222 Zr 0.43122 0.49930 0.00166
 O223 O 0.45869 0.49958 -0.08768
 O224 O 0.53997 0.49920 -0.08931
 O225 O 0.45976 0.57516 0.00179
 O226 O 0.53802 0.42330 0.00054
 O227 O 0.53852 0.57420 0.00120
 O228 O 0.45922 0.42317 0.00111
 H229 H 0.43783 0.49866 0.12587
 H230 H 0.55748 0.39167 0.00007
 H231 H 0.43736 0.49986 -0.12300
 H232 H 0.55815 0.60570 0.00096
 H233 H 0.50177 0.33589 0.04894
 H234 H 0.48229 0.33671 -0.05095
 H235 H 0.52177 0.45390 -0.19014
 H236 H 0.52217 0.54590 -0.18975
 H237 H 0.48359 0.66191 -0.04975
 H238 H 0.50241 0.66153 0.05032
 H239 H 0.52541 0.54535 0.19210
 H240 H 0.52494 0.45065 0.19168
 C241 C 1.21895 0.19967 0.21349
 C242 C 1.19566 0.16809 0.18659
 C243 C 1.16645 0.13322 0.15475
 C244 C 1.13920 0.10602 0.12805
 C245 C 1.21940 0.70827 0.70428
 C246 C 1.19619 0.67776 0.67624
 C247 C 1.16777 0.64196 0.64563
 C248 C 1.14109 0.61311 0.62104
 C249 C 0.70144 0.22266 0.69857
 C250 C 0.67018 0.20441 0.66977
 C251 C 0.63366 0.18064 0.63808
 C252 C 0.60435 0.15533 0.61320
 C253 C 0.71807 0.70284 0.20092
 C254 C 0.69688 0.67132 0.17191
 C255 C 0.66835 0.63550 0.14214
 C256 C 0.64070 0.60723 0.11904
 C257 C 0.77721 -0.20261 0.20923
 C258 C 0.80101 -0.17266 0.18059
 C259 C 0.83103 -0.13951 0.14756
 C260 C 0.85882 -0.11316 0.12069
 C261 C 0.78284 0.29201 0.69778
 C262 C 0.80694 0.32118 0.66894
 C263 C 0.83618 0.35594 0.63768
 C264 C 0.86314 0.38466 0.61320
 C265 C 0.30065 -0.22300 0.70450
 C266 C 0.33263 -0.20631 0.67611
 C267 C 0.36966 -0.18381 0.64463
 C268 C 0.39888 -0.15882 0.61938
 C269 C 0.28084 0.29103 0.19777
 C270 C 0.30317 0.32010 0.16679
 C271 C 0.33240 0.35426 0.13559
 C272 C 0.36013 0.38236 0.11235
 C273 C 0.77931 0.20326 -0.21078
 C274 C 0.80271 0.17311 -0.18151
 C275 C 0.83213 0.13944 -0.14777
 C276 C 0.85943 0.11256 -0.12038
 C277 C 0.78041 0.70983 0.30125
 C278 C 0.80471 0.68123 0.33050
 C279 C 0.83436 0.64700 0.36168
 C280 C 0.86174 0.61869 0.38588
 C281 C 0.29699 0.22410 0.30114
 C282 C 0.32826 0.20708 0.33082
 C283 C 0.36477 0.18403 0.36301
 C284 C 0.39397 0.15860 0.38783
 C285 C 0.28150 0.70845 -0.19483
 C286 C 0.30313 0.67851 -0.16403
 C287 C 0.33192 0.64361 -0.13310
 C288 C 0.35952 0.61517 -0.11008
 C289 C 1.22077 -0.19905 -0.21057
 C290 C 1.19684 -0.16807 -0.18389
 C291 C 1.16684 -0.13401 -0.15237
 C292 C 1.13914 -0.10742 -0.12584
 C293 C 1.21703 0.29459 0.29628
 C294 C 1.19420 0.32624 0.32304
 C295 C 1.16638 0.36325 0.35260
 C296 C 1.14015 0.39288 0.37670
 C297 C 0.69721 -0.22378 0.29567
 C298 C 0.66471 -0.20660 0.32250
 C299 C 0.62711 -0.18377 0.35241
 C300 C 0.59749 -0.15870 0.37667
 C301 C 0.71756 0.29632 -0.20431
 C302 C 0.69525 0.32691 -0.17533
 C303 C 0.66607 0.36184 -0.14501
 C304 C 0.63841 0.38966 -0.12107
 C305 C 1.21967 0.19968 -0.21187
 C306 C 1.19615 0.16854 -0.18441
 C307 C 1.16671 0.13405 -0.15203
 C308 C 1.13937 0.10703 -0.12505
 C309 C 1.22033 0.70882 0.29301
 C310 C 1.19650 0.67872 0.32120
 C311 C 1.16739 0.64330 0.35208
 C312 C 1.14045 0.61464 0.37698
 C313 C 0.70224 0.22318 0.30192
 C314 C 0.67092 0.20544 0.33090
 C315 C 0.63431 0.18206 0.36262
 C316 C 0.60492 0.15679 0.38726
 C317 C 0.71737 0.70332 -0.20191
 C318 C 0.69566 0.67208 -0.17297
 C319 C 0.66680 0.63652 -0.14304
 C320 C 0.63914 0.60834 -0.11960
 C321 C 0.77734 -0.20213 -0.20981
 C322 C 0.80100 -0.17199 -0.18108
 C323 C 0.83089 -0.13859 -0.14789
 C324 C 0.85857 -0.11207 -0.12085
 C325 C 0.78335 0.29249 0.30158
 C326 C 0.80701 0.32241 0.32987
 C327 C 0.83573 0.35799 0.36052
 C328 C 0.86244 0.38716 0.38461
 C329 C 0.29682 -0.22357 0.29352
 C330 C 0.32836 -0.20549 0.32215
 C331 C 0.36540 -0.18212 0.35358
 C332 C 0.39507 -0.15721 0.37853
 C333 C 0.28126 0.29184 -0.19778
 C334 C 0.30294 0.32166 -0.16687
 C335 C 0.33149 0.35650 -0.13536
 C336 C 0.35890 0.38483 -0.11168
 C337 C 1.22159 -0.20432 0.21055
 C338 C 1.19732 -0.17348 0.18343
 C339 C 1.16699 -0.13910 0.15183
 C340 C 1.13920 -0.11188 0.12559
 C341 C 1.21822 0.29317 0.70229
 C342 C 1.19536 0.32439 0.67447
 C343 C 1.16746 0.36112 0.64399
 C344 C 1.14115 0.39070 0.61953
 C345 C 0.69819 -0.22396 0.70134
 C346 C 0.66601 -0.20725 0.67302
 C347 C 0.62860 -0.18503 0.64159
 C348 C 0.59894 -0.16031 0.61654
 C349 C 0.71875 0.29537 0.20332
 C350 C 0.69665 0.32584 0.17375
 C351 C 0.66762 0.36079 0.14313
 C352 C 0.63991 0.38871 0.11934
 C353 C 0.77998 0.20255 0.21189
 C354 C 0.80316 0.17227 0.18285
 C355 C 0.83232 0.13856 0.14919
 C356 C 0.85949 0.11174 0.12183
 C357 C 0.78132 0.70967 0.69912
 C358 C 0.80577 0.68115 0.67015
 C359 C 0.83545 0.64711 0.63888
 C360 C 0.86271 0.61891 0.61441
 C361 C 0.29861 0.22272 0.70076
 C362 C 0.32995 0.20540 0.67151
 C363 C 0.36641 0.18228 0.63926
 C364 C 0.39549 0.15706 0.61395
 C365 C 0.28163 0.70897 0.19861
 C366 C 0.30397 0.67936 0.16814
 C367 C 0.33320 0.64473 0.13717
 C368 C 0.36078 0.61633 0.11381
   
