data_POSCAR
  _audit_creation_date              2014-09-24
  _audit_creation_method            'ToBaCCo'
  _symmetry_space_group_name_H-M    'P1'
  _symmetry_Int_Tables_number       1
  _symmetry_cell_setting            triclinic
  loop_
  _symmetry_equiv_pos_as_xyz
 x,y,z
_cell_length_a 39.3525
_cell_length_b 41.6768
_cell_length_c 39.9731
_cell_angle_alpha 90.422300
_cell_angle_beta 90.589800
_cell_angle_gamma 90.112400
loop_
  _atom_site_label
  _atom_site_type_symbol
  _atom_site_fract_x
  _atom_site_fract_y
  _atom_site_fract_z
Si1 Si 0.25056 0.24905 0.25022
 Si2 Si 0.75149 0.75152 0.25043
 Si3 Si 0.75132 0.25415 0.75070
 Si4 Si 0.25214 0.75167 0.75012
 C5 C 0.04562 0.04715 0.01072
 H6 H 0.04629 0.04860 -0.01628
 C7 C 0.06551 0.06798 0.03024
 H8 H 0.08155 0.08533 0.01795
 C9 C 0.02346 0.02290 0.05930
 H10 H 0.00666 0.00566 0.07057
 C11 C 0.04291 0.04326 0.07977
 H12 H 0.04102 0.04111 0.10667
 N13 N 0.02547 0.02490 0.02543
 C14 C 0.01220 -0.05077 -0.04965
 H15 H -0.01524 -0.05229 -0.05077
 C16 C 0.03180 -0.07125 -0.06938
 H17 H 0.01914 -0.08842 -0.08572
 C18 C 0.06179 -0.02667 -0.02656
 H19 H 0.07344 -0.00964 -0.00948
 C20 C 0.08238 -0.04669 -0.04581
 H21 H 0.10971 -0.04447 -0.04347
 Zn22 Zn -0.00101 -0.00213 -0.00288
 N23 N 0.02737 -0.02876 -0.02911
 C24 C -0.02564 0.02329 -0.06444
 N25 N -0.02774 0.02483 -0.03052
 C26 C -0.04795 0.04678 -0.01522
 C27 C -0.06770 0.06787 -0.03415
 C28 C -0.04495 0.04392 -0.08436
 C29 C -0.01328 -0.05131 0.04262
 C30 C -0.03237 -0.07193 0.06243
 C31 C -0.08352 -0.04762 0.04045
 C32 C -0.06343 -0.02745 0.02107
 N33 N -0.02896 -0.02931 0.02286
 H34 H -0.00880 0.00627 -0.07618
 H35 H -0.04868 0.04787 0.01182
 H36 H -0.08370 0.08503 -0.02138
 H37 H -0.04291 0.04221 -0.11130
 H38 H 0.01418 -0.05262 0.04317
 H39 H -0.01928 -0.08901 0.07822
 H40 H -0.11090 -0.04553 0.03882
 H41 H -0.07548 -0.01037 0.00462
 C42 C 0.06743 -0.06929 -0.06771
 C43 C 0.06443 0.06611 0.06530
 C44 C -0.06801 -0.07012 0.06168
 C45 C -0.06641 0.06658 -0.06925
 C46 C 0.04888 0.54946 0.51293
 H47 H 0.04944 0.55070 0.48592
 C48 C 0.06897 0.57033 0.53220
 H49 H 0.08504 0.58751 0.51970
 C50 C 0.02681 0.52568 0.56180
 H51 H 0.00997 0.50860 0.57328
 C52 C 0.04645 0.54609 0.58203
 H53 H 0.04466 0.54416 0.60895
 N54 N 0.02867 0.52742 0.52790
 C55 C 0.01422 0.45116 0.45376
 H56 H -0.01323 0.44977 0.45314
 C57 C 0.03334 0.43039 0.43393
 H58 H 0.02029 0.41311 0.41802
 C59 C 0.06434 0.47531 0.47566
 H60 H 0.07636 0.49251 0.49230
 C61 C 0.08446 0.45499 0.45627
 H62 H 0.11185 0.45711 0.45806
 Zn63 Zn 0.00189 0.50033 0.49994
 N64 N 0.02987 0.47334 0.47375
 C65 C -0.02267 0.52519 0.43820
 N66 N -0.02484 0.52710 0.47209
 C67 C -0.04519 0.54914 0.48709
 C68 C -0.06505 0.56988 0.46784
 C69 C -0.04207 0.54546 0.41799
 C70 C -0.01039 0.45140 0.54573
 C71 C -0.02949 0.43057 0.56530
 C72 C -0.08063 0.45471 0.54308
 C73 C -0.06053 0.47509 0.52395
 N74 N -0.02606 0.47337 0.52592
 H75 H -0.00571 0.50813 0.42670
 H76 H -0.04598 0.55053 0.51411
 H77 H -0.08120 0.58710 0.48036
 H78 H -0.03999 0.54341 0.39107
 H79 H 0.01707 0.45018 0.54639
 H80 H -0.01641 0.41346 0.58106
 H81 H -0.10802 0.45664 0.54124
 H82 H -0.07257 0.49213 0.50744
 C83 C 0.06899 0.43222 0.43491
 C84 C 0.06802 0.56874 0.56728
 C85 C -0.06514 0.43215 0.56424
 C86 C -0.06373 0.56815 0.43276
 C87 C 0.54661 0.04834 0.51450
 H88 H 0.54718 0.04937 0.48747
 C89 C 0.56651 0.06951 0.53359
 H90 H 0.58245 0.08670 0.52094
 C91 C 0.52467 0.02480 0.56355
 H92 H 0.50796 0.00770 0.57516
 C93 C 0.54413 0.04553 0.58362
 H94 H 0.54234 0.04380 0.61055
 N95 N 0.52656 0.02629 0.52964
 C96 C 0.51300 -0.05045 0.45584
 H97 H 0.48556 -0.05207 0.45505
 C98 C 0.53244 -0.07101 0.43605
 H99 H 0.51964 -0.08835 0.42001
 C100 C 0.56277 -0.02590 0.47802
 H101 H 0.57454 -0.00860 0.49473
 C102 C 0.58320 -0.04598 0.45868
 H103 H 0.61055 -0.04359 0.46059
 Zn104 Zn 0.50005 -0.00112 0.50177
 N105 N 0.52833 -0.02814 0.47591
 C106 C 0.47536 0.02315 0.43977
 N107 N 0.47337 0.02540 0.47365
 C108 C 0.45305 0.04753 0.48853
 C109 C 0.43295 0.06797 0.46919
 C110 C 0.45571 0.04312 0.41945
 C111 C 0.48722 -0.04960 0.54809
 C112 C 0.46779 -0.07013 0.56768
 C113 C 0.41701 -0.04625 0.54436
 C114 C 0.43743 -0.02617 0.52524
 N115 N 0.47188 -0.02788 0.52775
 H116 H 0.49230 0.00602 0.42836
 H117 H 0.45240 0.04917 0.51555
 H118 H 0.41679 0.08523 0.48161
 H119 H 0.45760 0.04079 0.39254
 H120 H 0.51467 -0.05083 0.54918
 H121 H 0.48060 -0.08705 0.58388
 H122 H 0.38966 -0.04433 0.54207
 H123 H 0.42565 -0.00936 0.50830
 C124 C 0.56807 -0.06880 0.43715
 C125 C 0.56554 0.06820 0.56868
 C126 C 0.43214 -0.06853 0.56607
 C127 C 0.43401 0.06584 0.43412
 C128 C 0.54359 0.54934 0.01363
 H129 H 0.54416 0.55054 -0.01339
 C130 C 0.56371 0.57020 0.03287
 H131 H 0.57980 0.58736 0.02036
 C132 C 0.52153 0.52559 0.06252
 H133 H 0.50471 0.50852 0.07402
 C134 C 0.54120 0.54600 0.08273
 H135 H 0.53945 0.54407 0.10965
 N136 N 0.52341 0.52730 0.02862
 C137 C 0.50979 0.45077 -0.04542
 H138 H 0.48235 0.44929 -0.04641
 C139 C 0.52927 0.42996 -0.06487
 H140 H 0.51651 0.41259 -0.08091
 C141 C 0.55953 0.47508 -0.02287
 H142 H 0.57127 0.49234 -0.00610
 C143 C 0.57999 0.45474 -0.04187
 H144 H 0.60734 0.45693 -0.03966
 Zn145 Zn 0.49683 0.50003 0.00066
 N146 N 0.52509 0.47305 -0.02528
 C147 C 0.47184 0.52449 -0.06116
 N148 N 0.47001 0.52661 -0.02726
 C149 C 0.44973 0.54867 -0.01220
 C150 C 0.42956 0.56920 -0.03138
 C151 C 0.45212 0.54455 -0.08131
 C152 C 0.48449 0.45128 0.04665
 C153 C 0.46533 0.43059 0.06629
 C154 C 0.41424 0.45457 0.04373
 C155 C 0.43440 0.47481 0.02453
 N156 N 0.46887 0.47312 0.02664
 H157 H 0.48872 0.50739 -0.07271
 H158 H 0.44919 0.55021 0.01482
 H159 H 0.41347 0.58643 -0.01882
 H160 H 0.45390 0.54234 -0.10824
 H161 H 0.51195 0.45009 0.04741
 H162 H 0.47835 0.41358 0.08222
 H163 H 0.38686 0.45647 0.04178
 H164 H 0.42241 0.49174 0.00787
 C165 C 0.56491 0.43186 -0.06336
 C166 C 0.56281 0.56860 0.06795
 C167 C 0.42967 0.43216 0.06511
 C168 C 0.43050 0.56723 -0.06647
 N169 N 0.18502 -0.21880 -0.18381
 C170 C 0.18726 -0.18638 -0.18553
 N171 N 0.20954 -0.17302 -0.20704
 N172 N 0.22896 -0.19152 -0.22627
 C173 C 0.22672 -0.22396 -0.22463
 N174 N 0.20445 -0.23729 -0.20305
 C175 C 0.16632 -0.16643 -0.16487
 C176 C 0.14879 -0.14954 -0.14758
 C177 C 0.12803 -0.12927 -0.12705
 N178 N 0.14255 -0.10758 -0.10589
 N179 N 0.12330 -0.08860 -0.08700
 C180 C 0.08883 -0.09059 -0.08859
 N181 N 0.07444 -0.11242 -0.10987
 N182 N 0.09369 -0.13141 -0.12876
 N183 N 0.18280 0.31463 0.28229
 C184 C 0.18540 0.31304 0.31609
 N185 N 0.20758 0.29203 0.33003
 N186 N 0.22660 0.27320 0.31075
 C187 C 0.22401 0.27478 0.27694
 N188 N 0.20182 0.29580 0.26301
 C189 C 0.16510 0.33348 0.33684
 C190 C 0.14811 0.35073 0.35426
 C191 C 0.12795 0.37136 0.37496
 N192 N 0.14305 0.39317 0.39559
 N193 N 0.12433 0.41245 0.41467
 C194 C 0.08983 0.41062 0.41383
 N195 N 0.07487 0.38866 0.39309
 N196 N 0.09358 0.36938 0.37400
 N197 N 0.68412 -0.21759 0.31888
 C198 C 0.68628 -0.18517 0.31704
 N199 N 0.70811 -0.17183 0.29507
 N200 N 0.72720 -0.19035 0.27553
 C201 C 0.72505 -0.22277 0.27735
 N202 N 0.70322 -0.23610 0.29934
 C203 C 0.66574 -0.16523 0.33809
 C204 C 0.64850 -0.14842 0.35574
 C205 C 0.62801 -0.12833 0.37669
 N206 N 0.64275 -0.10653 0.39758
 N207 N 0.62372 -0.08771 0.41686
 C208 C 0.58925 -0.09000 0.41596
 N209 N 0.57464 -0.11195 0.39496
 N210 N 0.59367 -0.13077 0.37567
 N211 N 0.70600 0.32932 -0.20351
 C212 C 0.68441 0.31522 -0.18186
 N213 N 0.68304 0.28273 -0.18050
 N214 N 0.70267 0.26492 -0.20024
 C215 C 0.72428 0.27901 -0.22194
 N216 N 0.72561 0.31149 -0.22322
 C217 C 0.66332 0.33452 -0.16070
 C218 C 0.64579 0.35112 -0.14312
 C219 C 0.62514 0.37127 -0.12239
 N220 N 0.59079 0.36914 -0.12390
 N221 N 0.57166 0.38828 -0.10506
 C222 C 0.58617 0.41027 -0.08404
 N223 N 0.62065 0.41224 -0.08263
 N224 N 0.63978 0.39311 -0.10147
 N225 N -0.21742 0.18770 -0.18305
 C226 C -0.18305 0.18920 -0.18460
 N227 N -0.16842 0.21048 -0.20557
 N228 N -0.18759 0.22966 -0.22443
 C229 C -0.22198 0.22815 -0.22290
 N230 N -0.23658 0.20687 -0.20191
 C231 C -0.16246 0.16828 -0.16453
 C232 C -0.14531 0.15056 -0.14770
 C233 C -0.12505 0.12930 -0.12770
 N234 N -0.10445 0.10747 -0.14243
 N235 N -0.08581 0.08758 -0.12387
 C236 C -0.08710 0.08877 -0.08991
 N237 N -0.10782 0.11075 -0.07531
 N238 N -0.12646 0.13064 -0.09386
 N239 N -0.18031 0.68568 0.28142
 C240 C -0.18150 0.68788 0.31525
 N241 N -0.20277 0.70944 0.32954
 N242 N -0.22229 0.72820 0.31056
 C243 C -0.22114 0.72598 0.27671
 N244 N -0.19983 0.70444 0.26244
 C245 C -0.16078 0.66742 0.33570
 C246 C -0.14349 0.65011 0.35286
 C247 C -0.12302 0.62938 0.37324
 N248 N -0.12447 0.63123 0.40706
 N249 N -0.10561 0.61183 0.42596
 C250 C -0.08462 0.58985 0.41175
 N251 N -0.08330 0.58815 0.37780
 N252 N -0.10215 0.60755 0.35890
 N253 N 0.28111 0.18277 0.31712
 C254 C 0.31551 0.18429 0.31600
 N255 N 0.33040 0.20538 0.29502
 N256 N 0.31147 0.22438 0.27576
 C257 C 0.27707 0.22291 0.27685
 N258 N 0.26220 0.20179 0.29783
 C259 C 0.33591 0.16377 0.33666
 C260 C 0.35314 0.14653 0.35393
 C261 C 0.37374 0.12599 0.37438
 N262 N 0.39463 0.10413 0.36012
 N263 N 0.41378 0.08506 0.37909
 C264 C 0.41276 0.08714 0.41302
 N265 N 0.39174 0.10913 0.42716
 N266 N 0.37258 0.12821 0.40819
 N267 N 0.27917 0.68655 -0.18360
 C268 C 0.31360 0.68755 -0.18410
 N269 N 0.32922 0.70843 -0.20477
 N270 N 0.31096 0.72772 -0.22435
 C271 C 0.27651 0.72679 -0.22392
 N272 N 0.26093 0.70586 -0.20320
 C273 C 0.33333 0.66659 -0.16329
 C274 C 0.35017 0.64899 -0.14603
 C275 C 0.37047 0.62806 -0.12571
 N276 N 0.39118 0.60615 -0.14015
 N277 N 0.41021 0.58683 -0.12133
 C278 C 0.40926 0.58872 -0.08739
 N279 N 0.38841 0.61075 -0.07307
 N280 N 0.36937 0.63008 -0.09189
 N281 N -0.21847 -0.18487 0.18114
 C282 C -0.18407 -0.18621 0.18284
 N283 N -0.16906 -0.20636 0.20498
 N284 N -0.18790 -0.22463 0.22481
 C285 C -0.22231 -0.22328 0.22313
 N286 N -0.23730 -0.20314 0.20097
 C287 C -0.16382 -0.16643 0.16156
 C288 C -0.14689 -0.14971 0.14372
 C289 C -0.12680 -0.12967 0.12255
 N290 N -0.09244 -0.13176 0.12315
 N291 N -0.07379 -0.11294 0.10372
 C292 C -0.08880 -0.09135 0.08298
 N293 N -0.12329 -0.08943 0.08249
 N294 N -0.14195 -0.10824 0.10191
 N295 N -0.18081 0.28279 0.68184
 C296 C -0.18215 0.31527 0.68364
 N297 N -0.20345 0.32934 0.70574
 N298 N -0.22285 0.31150 0.72543
 C299 C -0.22158 0.27901 0.72368
 N300 N -0.20023 0.26494 0.70156
 C301 C -0.16144 0.33462 0.66236
 C302 C -0.14428 0.35125 0.64464
 C303 C -0.12410 0.37146 0.62375
 N304 N -0.13919 0.39298 0.60318
 N305 N -0.12047 0.41215 0.58419
 C306 C -0.08597 0.41053 0.58508
 N307 N -0.07101 0.38885 0.60575
 N308 N -0.08972 0.36967 0.62475
 N309 N 0.28020 -0.18580 0.68197
 C310 C 0.31461 -0.18615 0.68418
 N311 N 0.32990 -0.20573 0.70666
 N312 N 0.31135 -0.22438 0.72634
 C313 C 0.27693 -0.22408 0.72423
 N314 N 0.26167 -0.20448 0.70167
 C315 C 0.33464 -0.16590 0.66320
 C316 C 0.35168 -0.14888 0.64577
 C317 C 0.37215 -0.12859 0.62524
 N318 N 0.40651 -0.13039 0.62680
 N319 N 0.42555 -0.11138 0.60795
 C320 C 0.41094 -0.08987 0.58686
 N321 N 0.37646 -0.08822 0.58541
 N322 N 0.35740 -0.10723 0.60426
 N323 N 0.27932 0.31436 0.18206
 C324 C 0.31375 0.31338 0.18344
 N325 N 0.32920 0.29294 0.20496
 N326 N 0.31078 0.27404 0.22451
 C327 C 0.27635 0.27500 0.22318
 N328 N 0.26092 0.29545 0.20162
 C329 C 0.33362 0.33385 0.16255
 C330 C 0.35044 0.35105 0.14512
 C331 C 0.37060 0.37156 0.12454
 N332 N 0.40497 0.36982 0.12566
 N333 N 0.42372 0.38902 0.10673
 C334 C 0.40879 0.41064 0.08598
 N335 N 0.37429 0.41222 0.08497
 N336 N 0.35553 0.39303 0.10390
 N337 N 0.21810 0.18382 0.18209
 C338 C 0.18377 0.18529 0.18418
 N339 N 0.16954 0.20608 0.20619
 N340 N 0.18908 0.22483 0.22553
 C341 C 0.22342 0.22337 0.22345
 N342 N 0.23763 0.20257 0.20143
 C343 C 0.16278 0.16495 0.16348
 C344 C 0.14523 0.14775 0.14613
 C345 C 0.12445 0.12713 0.12552
 N346 N 0.10364 0.10522 0.13961
 N347 N 0.08453 0.08590 0.12048
 C348 C 0.08553 0.08778 0.08657
 N349 N 0.10645 0.10984 0.07261
 N350 N 0.12556 0.12916 0.09173
 N351 N 0.17295 0.71037 0.70622
 C352 C 0.18742 0.68891 0.68507
 N353 N 0.22178 0.68692 0.68391
 N354 N 0.24109 0.70580 0.70333
 C355 C 0.22665 0.72725 0.72454
 N356 N 0.19227 0.72924 0.72564
 C357 C 0.16662 0.66835 0.66441
 C358 C 0.14915 0.65097 0.64717
 C359 C 0.12837 0.63014 0.62679
 N360 N 0.12940 0.63187 0.59297
 N361 N 0.11020 0.61242 0.57407
 C362 C 0.08927 0.59052 0.58829
 N363 N 0.08837 0.58893 0.62223
 N364 N 0.10756 0.60838 0.64113
 N365 N 0.71905 0.18801 0.68339
 C366 C 0.68471 0.18980 0.68506
 N367 N 0.67042 0.21118 0.70641
 N368 N 0.68990 0.23018 0.72554
 C369 C 0.72426 0.22838 0.72390
 N370 N 0.73852 0.20700 0.70252
 C371 C 0.66376 0.16907 0.66473
 C372 C 0.64624 0.15152 0.64773
 C373 C 0.62548 0.13047 0.62758
 N374 N 0.60483 0.10872 0.64215
 N375 N 0.58574 0.08900 0.62345
 C376 C 0.58662 0.09030 0.58949
 N377 N 0.60739 0.11219 0.57505
 N378 N 0.62648 0.13192 0.59375
 N379 N 0.71830 0.68586 0.18305
 C380 C 0.68398 0.68758 0.18526
 N381 N 0.67001 0.70865 0.20714
 N382 N 0.68976 0.72742 0.22624
 C383 C 0.72409 0.72569 0.22406
 N384 N 0.73804 0.70463 0.20215
 C385 C 0.66274 0.66724 0.16481
 C386 C 0.64494 0.65006 0.14768
 C387 C 0.62382 0.62949 0.12736
 N388 N 0.60289 0.60787 0.14174
 N389 N 0.58346 0.58860 0.12288
 C390 C 0.58424 0.59025 0.08894
 N391 N 0.60528 0.61202 0.07468
 N392 N 0.62472 0.63129 0.09354
   
