data_POSCAR
  _audit_creation_date              2014-09-24
  _audit_creation_method            'ToBaCCo'
  _symmetry_space_group_name_H-M    'P1'
  _symmetry_Int_Tables_number       1
  _symmetry_cell_setting            triclinic
  loop_
  _symmetry_equiv_pos_as_xyz
 x,y,z
_cell_length_a 14.7116
_cell_length_b 14.7962
_cell_length_c 23.1236
_cell_angle_alpha 77.288100
_cell_angle_beta 102.238500
_cell_angle_gamma 77.259900
loop_
  _atom_site_label
  _atom_site_type_symbol
  _atom_site_fract_x
  _atom_site_fract_y
  _atom_site_fract_z
O1 O -0.10873 0.42822 1.02609
 O2 O -0.06198 0.62849 0.92171
 O3 O -0.06931 0.45151 0.92040
 O4 O -0.09725 0.59925 1.02819
 O5 O 0.05936 0.53977 1.07552
 O6 O 0.08783 0.39618 0.96639
 O7 O 0.09456 0.57203 0.96915
 O8 O 0.04851 0.36914 1.07158
 Cu9 Cu -0.10007 0.53278 0.96885
 Cu10 Cu 0.08852 0.46354 1.02494
 C11 C -0.03791 0.36475 1.06639
 C12 C 0.02371 0.63608 0.92905
 C13 C 0.01388 0.39701 0.92619
 C14 C -0.02346 0.59417 1.07015
 O15 O 0.43098 -0.09437 0.47358
 O16 O 0.63298 -0.04613 0.57462
 O17 O 0.46093 -0.05493 0.57828
 O18 O 0.60813 -0.08884 0.47096
 O19 O 0.55263 0.06672 0.42180
 O20 O 0.40274 0.10061 0.52889
 O21 O 0.57528 0.10972 0.52613
 O22 O 0.37468 0.06104 0.42402
 Cu23 Cu 0.53896 -0.08690 0.52891
 Cu24 Cu 0.47055 0.10015 0.46975
 C25 C 0.36719 -0.02441 0.43266
 C26 C 0.63798 0.03996 0.56774
 C27 C 0.40671 0.02824 0.57170
 C28 C 0.60752 -0.01672 0.42925
 C29 C -0.05554 -0.14736 0.21597
 C30 C -0.12909 -0.14633 0.25366
 C31 C -0.13466 -0.07593 0.28339
 C32 C -0.06522 -0.01335 0.27282
 C33 C -0.08475 -0.04500 0.17297
 C34 C -0.08917 0.02550 0.20234
 C35 C 0.04059 -0.15625 0.26149
 C36 C 0.03597 -0.08565 0.29101
 H37 H -0.17314 -0.19624 0.25587
 H38 H -0.07002 0.04358 0.29725
 H39 H -0.08735 -0.03076 0.12441
 H40 H 0.10739 -0.21018 0.26681
 C41 C 0.14392 0.06054 0.71648
 C42 C 0.15214 -0.03698 0.76039
 C43 C 0.08058 -0.03460 0.78959
 C44 C 0.00805 0.06577 0.77284
 C45 C 0.04157 0.09131 0.67311
 C46 C -0.02986 0.09328 0.70222
 C47 C 0.14208 0.13105 0.75582
 C48 C 0.07108 0.13379 0.78559
 H49 H 0.20698 -0.10280 0.76533
 H50 H -0.04988 0.06824 0.79683
 H51 H 0.02809 0.09619 0.62431
 H52 H 0.19030 0.17691 0.75833
 C53 C -0.01862 -0.33312 0.20561
 C54 C -0.10211 -0.33717 0.15326
 C55 C -0.03318 -0.34293 0.11182
 C56 C 0.05039 -0.34018 0.16356
 C57 C -0.06320 -0.23253 0.08666
 C58 C -0.13221 -0.22564 0.12846
 C59 C -0.04866 -0.22256 0.18018
 C60 C 0.02024 -0.22911 0.13859
 H61 H -0.00048 -0.37344 0.25499
 H62 H -0.15226 -0.38256 0.15871
 H63 H 0.12569 -0.38785 0.17765
 H64 H -0.08130 -0.19172 0.03736
 H65 H -0.20739 -0.17774 0.11453
 H66 H 0.07063 -0.18403 0.13287
 C67 C -0.13415 0.17295 0.10171
 C68 C -0.15256 0.27058 0.11740
 C69 C -0.05549 0.28002 0.10579
 C70 C -0.03709 0.18340 0.08985
 C71 C -0.00190 0.22899 0.17393
 C72 C -0.09911 0.21766 0.18627
 C73 C -0.08052 0.12125 0.16990
 C74 C 0.01635 0.13136 0.15820
 H75 H -0.18899 0.14948 0.07217
 H76 H -0.22186 0.32895 0.10016
 H77 H -0.01148 0.16996 0.04985
 H78 H 0.05271 0.25331 0.20301
 H79 H -0.12474 0.23050 0.22636
 H80 H 0.08573 0.07303 0.17546
 C81 C 0.22470 0.13873 0.62937
 C82 C 0.33667 0.10766 0.65444
 C83 C 0.34255 0.03963 0.61293
 C84 C 0.23181 0.07064 0.58746
 C85 C 0.33830 -0.04370 0.66449
 C86 C 0.33111 0.02433 0.70660
 C87 C 0.22022 0.05533 0.68088
 C88 C 0.22698 -0.01261 0.63917
 H89 H 0.17717 0.21385 0.61546
 H90 H 0.38279 0.15695 0.66012
 H91 H 0.19154 0.08939 0.53809
 H92 H 0.38549 -0.11899 0.67865
 H93 H 0.37092 0.00551 0.75605
 H94 H 0.18127 -0.06219 0.63313
 C95 C -0.13261 -0.01240 0.65662
 C96 C -0.23075 0.00250 0.67266
 C97 C -0.28206 0.05730 0.60474
 C98 C -0.18504 0.04218 0.58843
 C99 C -0.27519 0.15383 0.61714
 C100 C -0.22186 0.09916 0.68580
 C101 C -0.12490 0.08392 0.66916
 C102 C -0.17694 0.13871 0.60118
 H103 H -0.07291 -0.08063 0.67340
 H104 H -0.25409 -0.05373 0.70144
 H105 H -0.17056 0.01857 0.54806
 H106 H -0.33488 0.22202 0.60048
 H107 H -0.23575 0.12272 0.72626
 H108 H -0.15432 0.19515 0.57203
 C109 C 0.11266 -0.22808 0.82637
 C110 C 0.13873 -0.26071 0.89767
 C111 C 0.03979 -0.28120 0.89322
 C112 C 0.01349 -0.24963 0.82251
 C113 C -0.00657 -0.17785 0.89427
 C114 C 0.09242 -0.15606 0.89803
 C115 C 0.06637 -0.12442 0.82727
 C116 C -0.03251 -0.14510 0.82301
 H117 H 0.16173 -0.24946 0.79828
 H118 H 0.20935 -0.30888 0.92857
 H119 H -0.01913 -0.28869 0.79164
 H120 H -0.05594 -0.15792 0.92251
 H121 H 0.12481 -0.11661 0.92870
 H122 H -0.10315 -0.09661 0.79269
 C123 C -0.01485 0.20534 0.86547
 C124 C 0.06556 0.21952 0.91500
 C125 C 0.02535 0.32955 0.88702
 C126 C -0.05541 0.31631 0.83795
 C127 C 0.09237 0.32806 0.84430
 C128 C 0.13276 0.21732 0.87188
 C129 C 0.05224 0.20394 0.82270
 C130 C 0.01191 0.31395 0.79466
 H131 H -0.05885 0.15455 0.87462
 H132 H 0.08769 0.18119 0.96495
 H133 H -0.13300 0.35781 0.82413
 H134 H 0.13624 0.37924 0.83582
 H135 H 0.21034 0.17574 0.88573
 H136 H -0.01011 0.35201 0.74468
 C137 C -0.17361 -0.07553 0.39146
 C138 C -0.24713 0.02195 0.38371
 C139 C -0.32558 -0.03061 0.38944
 C140 C -0.25274 -0.12790 0.39774
 C141 C -0.35680 -0.01403 0.31933
 C142 C -0.27738 0.03820 0.31297
 C143 C -0.20474 -0.05925 0.32133
 C144 C -0.28340 -0.11164 0.32720
 H145 H -0.09759 -0.10093 0.42076
 H146 H -0.23292 0.07710 0.40738
 H147 H -0.24278 -0.19648 0.43288
 H148 H -0.43278 0.01146 0.28998
 H149 H -0.28659 0.10639 0.27769
 H150 H -0.29951 -0.16689 0.30419
 C151 C 0.22980 -0.11651 0.32922
 C152 C 0.25043 -0.01733 0.32445
 C153 C 0.28040 -0.04223 0.39512
 C154 C 0.26062 -0.14116 0.40044
 C155 C 0.17578 0.00360 0.39512
 C156 C 0.14478 0.02821 0.32394
 C157 C 0.12492 -0.07070 0.32909
 C158 C 0.15478 -0.09542 0.39980
 H159 H 0.25301 -0.16597 0.30202
 H160 H 0.29036 0.01499 0.29366
 H161 H 0.30903 -0.21094 0.43216
 H162 H 0.15438 0.05334 0.42259
 H163 H 0.09623 0.09821 0.29292
 H164 H 0.11449 -0.12750 0.43043
   
