data_POSCAR
  _audit_creation_date              2014-09-24
  _audit_creation_method            'ToBaCCo'
  _symmetry_space_group_name_H-M    'P1'
  _symmetry_Int_Tables_number       1
  _symmetry_cell_setting            triclinic
  loop_
  _symmetry_equiv_pos_as_xyz
 x,y,z
_cell_length_a 35.4250
_cell_length_b 36.8199
_cell_length_c 19.4283
_cell_angle_alpha 89.961100
_cell_angle_beta 90.090600
_cell_angle_gamma 116.464100
loop_
  _atom_site_label
  _atom_site_type_symbol
  _atom_site_fract_x
  _atom_site_fract_y
  _atom_site_fract_z
C1 C 0.43880 0.87803 0.46252
 C2 C 0.43795 0.87727 0.53301
 C3 C 0.46402 0.91645 0.55510
 N4 N 0.48109 0.94080 0.50017
 C5 C 0.46548 0.91752 0.44361
 C6 C 0.47570 0.92813 0.62438
 C7 C 0.50213 0.96888 0.64419
 C8 C 0.52098 0.98078 0.70840
 C9 C 0.54048 1.02234 0.70913
 C10 C 0.53231 1.03515 0.64615
 N11 N 0.50912 1.00239 0.60668
 C12 C 0.54462 1.07637 0.62850
 C13 C 0.54593 1.08943 0.55942
 C14 C 0.55132 1.12767 0.53954
 C15 C 0.55120 1.12808 0.46903
 C16 C 0.54500 1.08990 0.44791
 N17 N 0.54214 1.06641 0.50316
 C18 C 0.54381 1.07802 0.37850
 C19 C 0.53189 1.03763 0.35760
 C20 C 0.53721 1.02606 0.29181
 C21 C 0.51834 0.98433 0.29095
 C22 C 0.50181 0.97154 0.35612
 N23 N 0.51008 1.00423 0.39627
 C24 C 0.47731 0.93058 0.37523
 H25 H 0.42241 0.85218 0.42909
 H26 H 0.42113 0.85045 0.56406
 H27 H 0.49722 1.00392 0.44431
 H28 H 0.52030 0.96189 0.75141
 H29 H 0.55815 1.04101 0.75193
 H30 H 0.55447 1.15264 0.57225
 H31 H 0.55485 1.15351 0.43705
 H32 H 0.51631 0.96557 0.24688
 H33 H 0.49442 1.00294 0.56066
 H34 H 0.55246 1.04559 0.24851
 C35 C 0.13202 0.54469 0.53902
 C36 C 0.13242 0.54525 0.46848
 C37 C 0.09124 0.53360 0.44760
 N38 N 0.06576 0.52647 0.50289
 C39 C 0.09063 0.53316 0.55903
 C40 C 0.07821 0.53120 0.37841
 C41 C 0.03555 0.51423 0.35760
 C42 C 0.02218 0.51935 0.29284
 C43 C -0.02066 0.49588 0.29078
 C44 C -0.03239 0.47664 0.35417
 N45 N 0.00214 0.48821 0.39481
 C46 C -0.07414 0.44834 0.37178
 C47 C -0.08728 0.43769 0.44090
 C48 C -0.12556 0.40634 0.46093
 C49 C -0.12603 0.40634 0.53146
 C50 C -0.08787 0.43730 0.55233
 N51 N -0.06431 0.45662 0.49704
 C52 C -0.07615 0.44812 0.62150
 C53 C -0.03521 0.47604 0.64230
 C54 C -0.02536 0.49353 0.70709
 C55 C 0.01760 0.51612 0.70916
 C56 C 0.03303 0.51156 0.64573
 N57 N 0.00050 0.48718 0.60507
 C58 C 0.07645 0.52897 0.62814
 H59 H 0.15912 0.55150 0.57169
 H60 H 0.15982 0.55296 0.43624
 H61 H 0.00289 0.47502 0.55800
 H62 H 0.04136 0.53795 0.25119
 H63 H -0.04088 0.49328 0.24734
 H64 H -0.15043 0.38525 0.42827
 H65 H -0.15139 0.38563 0.56371
 H66 H 0.03547 0.53388 0.75261
 H67 H 0.00362 0.47550 0.44188
 H68 H -0.04692 0.49019 0.74876
 C69 C 0.55117 0.42175 0.53520
 C70 C 0.55088 0.42229 0.46472
 C71 C 0.53514 0.44916 0.44557
 N72 N 0.52595 0.46509 0.50202
 C73 C 0.53537 0.44820 0.55711
 C74 C 0.53320 0.46118 0.37715
 C75 C 0.51466 0.48666 0.35777
 C76 C 0.51769 0.50332 0.29275
 C77 C 0.49364 0.52408 0.29350
 C78 C 0.47672 0.51973 0.35906
 N79 N 0.48936 0.49657 0.39764
 C80 C 0.44786 0.53444 0.37995
 C81 C 0.43670 0.53605 0.44927
 C82 C 0.40484 0.54561 0.47020
 C83 C 0.40509 0.54539 0.54070
 C84 C 0.43762 0.53641 0.56078
 N85 N 0.45692 0.53073 0.50466
 C86 C 0.44926 0.53406 0.62995
 C87 C 0.47872 0.51921 0.64813
 C88 C 0.49905 0.52584 0.71127
 C89 C 0.52295 0.50512 0.71052
 C90 C 0.51768 0.48699 0.64620
 N91 N 0.49030 0.49555 0.60868
 C92 C 0.53495 0.46033 0.62622
 H93 H 0.56325 0.40489 0.56634
 H94 H 0.56217 0.40567 0.43145
 H95 H 0.47640 0.48219 0.56233
 H96 H 0.53491 0.50034 0.24890
 H97 H 0.48878 0.54010 0.25031
 H98 H 0.38344 0.55187 0.43810
 H99 H 0.38349 0.55095 0.57333
 H100 H 0.54140 0.50331 0.75354
 H101 H 0.47754 0.48451 0.44561
 H102 H 0.49669 0.54353 0.75404
 O103 O 0.39387 0.68488 -0.08061
 O104 O 0.39049 0.75316 -0.06041
 C105 C 0.36274 0.75819 -0.09500
 O106 O 0.32373 0.73918 -0.08198
 O107 O 0.25616 0.67237 -0.05992
 C108 C 0.25258 0.64088 -0.09186
 O109 O 0.27333 0.62153 -0.07642
 O110 O 0.34630 0.62174 -0.05620
 C111 C 0.37637 0.64708 -0.09253
 O112 O 0.39860 0.67531 0.05670
 O113 O 0.39076 0.74190 0.07631
 C114 C 0.36869 0.76051 0.08791
 O115 O 0.33513 0.75337 0.05461
 O116 O 0.26886 0.68468 0.07753
 C117 C 0.25270 0.64730 0.09279
 O118 O 0.26126 0.62193 0.06029
 O119 O 0.33545 0.62506 0.08069
 C120 C 0.37467 0.64453 0.09194
 Cr121 Cr 0.39110 0.71258 -0.00189
 Cr122 Cr 0.29723 0.71125 -0.00223
 Cr123 Cr 0.30510 0.62486 0.00202
 O124 O 0.33107 0.68289 -0.00052
 O125 O 0.59977 0.31714 -0.07888
 O126 O 0.61209 0.25307 -0.05828
 C127 C 0.64145 0.25207 -0.09450
 O128 O 0.68010 0.27448 -0.08242
 O129 O 0.74374 0.34453 -0.05893
 C130 C 0.74382 0.37445 -0.09161
 O131 O 0.71930 0.38991 -0.07679
 O132 O 0.64349 0.38199 -0.05707
 C133 C 0.61382 0.35472 -0.09156
 O134 O 0.59497 0.32645 0.05773
 O135 O 0.61164 0.26481 0.07824
 C136 C 0.63687 0.24956 0.08948
 O137 O 0.67040 0.25910 0.05466
 O138 O 0.73214 0.33114 0.07714
 C139 C 0.74390 0.36799 0.09309
 O140 O 0.73180 0.39121 0.06139
 O141 O 0.65516 0.38097 0.08005
 C142 C 0.61643 0.35874 0.09146
 Cr143 Cr 0.60696 0.29173 -0.00022
 Cr144 Cr 0.70503 0.30315 -0.00224
 Cr145 Cr 0.68673 0.38380 0.00181
 O146 O 0.66632 0.32633 0.00017
 C147 C 0.49034 0.88689 -0.29096
 C148 C 0.46167 0.89767 -0.32473
 C149 C 0.41859 0.87729 -0.30795
 C150 C 0.40447 0.84725 -0.25682
 C151 C 0.43372 0.83730 -0.22220
 C152 C 0.47652 0.85708 -0.23996
 C153 C 0.41979 0.80790 -0.17009
 C154 C 0.37690 0.78820 -0.15176
 C155 C 0.34798 0.79793 -0.18729
 C156 C 0.36165 0.82721 -0.23930
 H157 H 0.39627 0.88531 -0.33409
 H158 H 0.49930 0.84957 -0.21430
 H159 H 0.44249 0.80062 -0.14356
 H160 H 0.33877 0.83438 -0.26547
 H161 H 0.52350 0.90158 -0.30430
 H162 H 0.31477 0.78319 -0.17443
 C163 C 0.10459 0.51686 -0.26388
 C164 C 0.10646 0.54306 -0.31800
 C165 C 0.13771 0.58362 -0.31639
 C166 C 0.16612 0.59789 -0.26106
 C167 C 0.16463 0.57089 -0.20811
 C168 C 0.13383 0.53044 -0.21015
 C169 C 0.19356 0.58496 -0.15348
 C170 C 0.22265 0.62604 -0.14953
 C171 C 0.22317 0.65296 -0.20111
 C172 C 0.19555 0.63888 -0.25706
 H173 H 0.13881 0.60438 -0.35686
 H174 H 0.13201 0.50942 -0.16973
 H175 H 0.19283 0.56427 -0.11315
 H176 H 0.19692 0.66009 -0.29681
 H177 H 0.08089 0.48549 -0.26403
 H178 H 0.24556 0.68475 -0.19867
 C179 C 0.41250 0.52310 -0.25967
 C180 C 0.43192 0.54809 -0.31670
 C181 C 0.43541 0.58772 -0.31815
 C182 C 0.42066 0.60239 -0.26294
 C183 C 0.40087 0.57678 -0.20641
 C184 C 0.39672 0.53714 -0.20551
 C185 C 0.38608 0.59141 -0.15125
 C186 C 0.39182 0.63171 -0.15085
 C187 C 0.41209 0.65713 -0.20682
 C188 C 0.42605 0.64249 -0.26267
 H189 H 0.45118 0.60764 -0.36094
 H190 H 0.38174 0.51714 -0.16250
 H191 H 0.37081 0.57165 -0.10806
 H192 H 0.44132 0.66262 -0.30540
 H193 H 0.40917 0.49240 -0.25748
 H194 H 0.41663 0.68823 -0.20782
 C195 C 0.52888 0.09858 -0.26113
 C196 C 0.55605 0.10527 -0.31766
 C197 C 0.59496 0.14046 -0.31856
 C198 C 0.60669 0.16808 -0.26357
 C199 C 0.57878 0.16111 -0.20773
 C200 C 0.53995 0.12638 -0.20712
 C201 C 0.59026 0.18879 -0.15303
 C202 C 0.62976 0.22303 -0.15238
 C203 C 0.65764 0.22938 -0.20755
 C204 C 0.64607 0.20231 -0.26295
 H205 H 0.61665 0.14558 -0.36093
 H206 H 0.51823 0.12054 -0.16462
 H207 H 0.56865 0.18335 -0.11044
 H208 H 0.66797 0.20806 -0.30515
 H209 H 0.49860 0.07199 -0.25937
 H210 H 0.68818 0.25563 -0.20833
 C211 C 0.89369 0.39919 -0.28159
 C212 C 0.89169 0.42907 -0.32409
 C213 C 0.86036 0.44188 -0.31303
 C214 C 0.83139 0.42523 -0.25899
 C215 C 0.83361 0.39511 -0.21629
 C216 C 0.86473 0.38216 -0.22825
 C217 C 0.80492 0.37865 -0.16198
 C218 C 0.77409 0.39205 -0.14908
 C219 C 0.77224 0.42208 -0.19186
 C220 C 0.80055 0.43843 -0.24639
 H221 H 0.85912 0.46521 -0.34571
 H222 H 0.86693 0.35916 -0.19597
 H223 H 0.80686 0.35559 -0.12951
 H224 H 0.79840 0.46150 -0.27854
 H225 H 0.91790 0.38927 -0.28964
 H226 H 0.74874 0.43287 -0.18341
 C227 C 0.59240 0.47491 -0.29212
 C228 C 0.55473 0.44715 -0.32337
 C229 C 0.53717 0.40603 -0.30422
 C230 C 0.55640 0.39300 -0.25312
 C231 C 0.59374 0.42137 -0.22098
 C232 C 0.61165 0.46216 -0.24120
 C233 C 0.61246 0.40858 -0.16883
 C234 C 0.59445 0.36769 -0.14811
 C235 C 0.55765 0.33960 -0.18120
 C236 C 0.53876 0.35216 -0.23315
 H237 H 0.50821 0.38442 -0.32838
 H238 H 0.64045 0.48424 -0.21746
 H239 H 0.64100 0.43058 -0.14426
 H240 H 0.51022 0.32997 -0.25738
 H241 H 0.60689 0.50656 -0.30723
 H242 H 0.54312 0.30793 -0.16639
 C243 C 0.90541 0.41046 0.26361
 C244 C 0.89635 0.43060 0.31797
 C245 C 0.85812 0.43368 0.31683
 C246 C 0.82976 0.41743 0.26181
 C247 C 0.83875 0.39623 0.20866
 C248 C 0.87659 0.39286 0.21015
 C249 C 0.81004 0.37933 0.15432
 C250 C 0.77344 0.38494 0.15088
 C251 C 0.76527 0.40701 0.20268
 C252 C 0.79289 0.42262 0.25835
 H253 H 0.85124 0.45002 0.35747
 H254 H 0.88414 0.37701 0.16956
 H255 H 0.81662 0.36273 0.11378
 H256 H 0.78566 0.43908 0.29827
 H257 H 0.93456 0.40759 0.26340
 H258 H 0.73709 0.41154 0.20057
 C259 C 0.52404 0.12034 0.29984
 C260 C 0.55486 0.10953 0.32450
 C261 C 0.59601 0.12882 0.29833
 C262 C 0.60632 0.15876 0.24732
 C263 C 0.57518 0.16976 0.22298
 C264 C 0.53414 0.15036 0.24960
 C265 C 0.58548 0.19976 0.17217
 C266 C 0.62641 0.21864 0.14441
 C267 C 0.65705 0.20730 0.16879
 C268 C 0.64716 0.17778 0.21999
 H269 H 0.61971 0.12031 0.31751
 H270 H 0.50986 0.15834 0.23146
 H271 H 0.56143 0.20795 0.15358
 H272 H 0.67140 0.16971 0.23797
 H273 H 0.49222 0.10560 0.31990
 H274 H 0.68883 0.22141 0.14848
 C275 C 0.59669 0.47276 0.30761
 C276 C 0.55420 0.44820 0.32336
 C277 C 0.53237 0.41062 0.29051
 C278 C 0.55302 0.39745 0.24220
 C279 C 0.59592 0.42233 0.22655
 C280 C 0.61742 0.45998 0.25939
 C281 C 0.61659 0.40922 0.17826
 C282 C 0.59500 0.37158 0.14486
 C283 C 0.55240 0.34702 0.16120
 C284 C 0.53164 0.35981 0.20946
 H285 H 0.49959 0.39161 0.30329
 H286 H 0.65028 0.47942 0.24805
 H287 H 0.64939 0.42860 0.16622
 H288 H 0.49881 0.34033 0.22094
 H289 H 0.61380 0.50169 0.33317
 H290 H 0.53495 0.31792 0.13636
 C291 C 0.11744 0.51970 0.28109
 C292 C 0.11091 0.54697 0.32401
 C293 C 0.13429 0.58889 0.31362
 C294 C 0.16379 0.60352 0.25987
 C295 C 0.17020 0.57582 0.21678
 C296 C 0.14701 0.53400 0.22803
 C297 C 0.19939 0.59034 0.16276
 C298 C 0.22216 0.63226 0.15044
 C299 C 0.21547 0.65952 0.19360
 C300 C 0.18666 0.64529 0.24792
 H301 H 0.12895 0.60986 0.34664
 H302 H 0.15148 0.51236 0.19544
 H303 H 0.20403 0.56887 0.12993
 H304 H 0.18214 0.66695 0.28037
 H305 H 0.09941 0.48731 0.28864
 H306 H 0.23264 0.69195 0.18556
 C307 C 0.48895 0.87976 0.30478
 C308 C 0.46388 0.89920 0.32076
 C309 C 0.42503 0.88744 0.28759
 C310 C 0.41099 0.85604 0.23889
 C311 C 0.43630 0.83640 0.22296
 C312 C 0.47533 0.84862 0.25600
 C313 C 0.42216 0.80489 0.17435
 C314 C 0.38304 0.79275 0.14114
 C315 C 0.35814 0.81246 0.15777
 C316 C 0.37196 0.84376 0.20616
 H317 H 0.40564 0.90238 0.30058
 H318 H 0.49513 0.83392 0.24450
 H319 H 0.44180 0.79011 0.16207
 H320 H 0.35215 0.85842 0.21788
 H321 H 0.51887 0.88854 0.33060
 H322 H 0.32790 0.80381 0.13315
 C323 C 0.38820 0.52341 0.30054
 C324 C 0.42833 0.54920 0.32616
 C325 C 0.44969 0.58899 0.30117
 C326 C 0.43114 0.60295 0.25032
 C327 C 0.39052 0.57691 0.22497
 C328 C 0.36931 0.53720 0.25048
 C329 C 0.37194 0.59087 0.17417
 C330 C 0.39368 0.63035 0.14735
 C331 C 0.43411 0.65589 0.17281
 C332 C 0.45257 0.64240 0.22407
 H333 H 0.48074 0.60880 0.32110
 H334 H 0.33822 0.51680 0.23156
 H335 H 0.34089 0.57073 0.15468
 H336 H 0.48372 0.66274 0.24286
 H337 H 0.37149 0.49267 0.31969
 H338 H 0.45148 0.68646 0.15324
   
