data_POSCAR
  _audit_creation_date              2014-09-24
  _audit_creation_method            'ToBaCCo'
  _symmetry_space_group_name_H-M    'P1'
  _symmetry_Int_Tables_number       1
  _symmetry_cell_setting            triclinic
  loop_
  _symmetry_equiv_pos_as_xyz
 x,y,z
_cell_length_a 24.9223
_cell_length_b 26.0395
_cell_length_c 45.4286
_cell_angle_alpha 90.055100
_cell_angle_beta 89.918600
_cell_angle_gamma 118.749600
loop_
  _atom_site_label
  _atom_site_type_symbol
  _atom_site_fract_x
  _atom_site_fract_y
  _atom_site_fract_z
Zn1 Zn 0.95858 0.03835 1.01180
 Zn2 Zn 1.07978 0.04052 1.01281
 Zn3 Zn 0.96299 -0.07449 1.01322
 Zn4 Zn 1.00068 -0.00023 0.95953
 O5 O 1.00060 0.00100 0.99947
 O6 O 1.00415 0.10091 1.03399
 O7 O 1.09962 -0.00520 1.03474
 O8 O 0.89663 -0.09108 1.03529
 O9 O 1.09355 0.10234 1.03552
 O10 O 0.89374 -0.00753 1.03386
 O11 O 1.01313 -0.08933 1.03567
 O12 O 0.97036 -0.07205 0.94473
 O13 O 1.13534 0.06984 0.98344
 O14 O 0.93791 -0.12842 0.98424
 O15 O 1.07510 0.04077 0.94436
 O16 O 0.95726 0.03036 0.94353
 O17 O 0.92947 0.06350 0.98220
 C18 C 1.05915 0.12378 1.04281
 C19 C 1.06883 -0.05818 1.04306
 C20 C 0.87176 -0.06018 1.04246
 C21 C 0.94474 -0.12236 0.95652
 C22 C 1.12790 0.06832 0.95572
 C23 C 0.93053 0.05672 0.95459
 Zn24 Zn 0.03830 0.96198 0.51569
 Zn25 Zn -0.08038 0.96426 0.51166
 Zn26 Zn 0.03769 1.07665 0.51160
 Zn27 Zn 0.00216 0.99611 0.45976
 O28 O -0.00047 0.99983 0.49973
 O29 O -0.01126 0.90161 0.53871
 O30 O -0.09959 1.01252 0.53139
 O31 O 0.10294 1.09451 0.53480
 O32 O -0.09864 0.90395 0.53584
 O33 O 0.10193 1.00928 0.53809
 O34 O -0.01204 1.09538 0.53225
 O35 O 0.03954 1.06683 0.44296
 O36 O -0.13377 0.93492 0.48181
 O37 O 0.06511 1.12691 0.48114
 O38 O -0.07193 0.95756 0.44341
 O39 O 0.04158 0.95854 0.44723
 O40 O 0.06871 0.93258 0.48854
 C41 C -0.06722 0.88122 0.54569
 C42 C -0.06824 1.06571 0.53911
 C43 C 0.12551 1.06326 0.54455
 C44 C 0.06378 1.11826 0.45356
 C45 C -0.12537 0.93360 0.45432
 C46 C 0.06726 0.93354 0.46062
 O47 O 0.23377 0.56664 0.28286
 O48 O 0.22667 0.66165 0.27151
 C49 C 0.26158 0.70660 0.28658
 O50 O 0.31902 0.73451 0.28286
 O51 O 0.42522 0.73970 0.27675
 C52 C 0.43500 0.70418 0.29201
 O53 O 0.40987 0.64971 0.28672
 O54 O 0.31227 0.54938 0.27593
 C55 C 0.26338 0.53989 0.28920
 O56 O 0.23791 0.54736 0.22467
 O57 O 0.23615 0.64530 0.21364
 C58 C 0.26237 0.69997 0.20867
 O59 O 0.30739 0.73672 0.22386
 O60 O 0.41204 0.73700 0.21771
 C61 C 0.44286 0.71047 0.21371
 O62 O 0.43452 0.66612 0.22878
 O63 O 0.33496 0.56856 0.21792
 C64 C 0.27864 0.53969 0.21154
 Cr65 Cr 0.23703 0.60688 0.24825
 Cr66 Cr 0.36439 0.73377 0.25026
 Cr67 Cr 0.37106 0.61002 0.25228
 O68 O 0.32421 0.65026 0.25023
 O69 O 0.76562 0.45170 0.77667
 O70 O 0.76467 0.35211 0.78522
 C71 C 0.73860 0.29706 0.78857
 O72 O 0.69530 0.26198 0.77202
 O73 O 0.59297 0.26315 0.78251
 C74 C 0.56241 0.28913 0.78852
 O75 O 0.56844 0.33384 0.77436
 O76 O 0.66933 0.42997 0.78602
 C77 C 0.72606 0.45811 0.79158
 O78 O 0.76680 0.43587 0.71833
 O79 O 0.77229 0.33922 0.72651
 C80 C 0.73632 0.29683 0.71017
 O81 O 0.67880 0.26991 0.71399
 O82 O 0.57281 0.26476 0.72428
 C83 C 0.56280 0.30177 0.71044
 O84 O 0.59092 0.35605 0.71627
 O85 O 0.68995 0.45460 0.72779
 C86 C 0.73800 0.46404 0.71354
 Cr87 Cr 0.76415 0.39313 0.75163
 Cr88 Cr 0.63640 0.26800 0.74824
 Cr89 Cr 0.63139 0.39215 0.75105
 O90 O 0.67726 0.35118 0.75015
 C91 C 0.04394 0.19766 0.07175
 C92 C 0.06576 0.24653 0.09016
 C93 C 0.12692 0.27513 0.09911
 C94 C 0.16652 0.25434 0.08932
 C95 C 0.14469 0.20520 0.07094
 C96 C 0.08306 0.17623 0.06200
 N97 N 0.14696 0.32421 0.11857
 N98 N 0.20225 0.35399 0.12698
 C99 C 0.22090 0.40205 0.14707
 C100 C 0.28250 0.43382 0.15516
 C101 C 0.30164 0.47939 0.17565
 C102 C 0.25919 0.49380 0.18852
 C103 C 0.19745 0.46236 0.17993
 C104 C 0.17847 0.41698 0.15940
 H105 H -0.00377 0.17644 0.06533
 H106 H 0.03481 0.26208 0.09762
 H107 H 0.21404 0.27571 0.09603
 H108 H 0.17600 0.18985 0.06380
 H109 H 0.31564 0.42276 0.14582
 H110 H 0.34951 0.50263 0.18176
 H111 H 0.16357 0.47234 0.18933
 H112 H 0.13054 0.39311 0.15349
 C113 C 0.78685 0.94743 0.06819
 C114 C 0.73536 0.92427 0.08645
 C115 C 0.71246 0.86803 0.09822
 C116 C 0.74134 0.83460 0.09123
 C117 C 0.79280 0.85763 0.07289
 C118 C 0.81637 0.91448 0.06130
 N119 N 0.66080 0.84649 0.11761
 N120 N 0.63914 0.79657 0.12991
 C121 C 0.58831 0.77520 0.14980
 C122 C 0.56957 0.72130 0.16360
 C123 C 0.52187 0.70003 0.18407
 C124 C 0.49172 0.73237 0.19105
 C125 C 0.50986 0.78609 0.17669
 C126 C 0.55790 0.80745 0.15628
 H127 H 0.80367 0.99130 0.05960
 H128 H 0.71354 0.95045 0.09167
 H129 H 0.72445 0.79092 0.10007
 H130 H 0.81442 0.83112 0.06801
 H131 H 0.59259 0.69604 0.15876
 H132 H 0.50894 0.65836 0.19456
 H133 H 0.48762 0.81205 0.18156
 H134 H 0.57156 0.84928 0.14582
 C135 C 0.15816 0.95068 0.07244
 C136 C 0.18570 0.92632 0.09034
 C137 C 0.15440 0.86687 0.09775
 C138 C 0.09486 0.83169 0.08696
 C139 C 0.06709 0.85602 0.06918
 C140 C 0.09838 0.91587 0.06175
 N141 N 0.18350 0.84385 0.11680
 N142 N 0.15898 0.78980 0.12354
 C143 C 0.18765 0.76760 0.14338
 C144 C 0.15847 0.70762 0.14974
 C145 C 0.18351 0.68514 0.17031
 C146 C 0.23829 0.72254 0.18501
 C147 C 0.26824 0.78260 0.17799
 C148 C 0.24324 0.80492 0.15738
 H149 H 0.18355 0.99688 0.06718
 H150 H 0.23154 0.95393 0.09858
 H151 H 0.06962 0.78561 0.09247
 H152 H 0.02108 0.82794 0.06127
 H153 H 0.11562 0.67837 0.13910
 H154 H 0.15919 0.63873 0.17519
 H155 H 0.31055 0.81267 0.18880
 H156 H 0.26679 0.85146 0.15283
 C157 C 0.84357 0.81065 0.57604
 C158 C 0.81587 0.76244 0.59490
 C159 C 0.84713 0.73249 0.60352
 C160 C 0.90691 0.75148 0.59312
 C161 C 0.93484 0.79991 0.57439
 C162 C 0.90345 0.83002 0.56561
 N163 N 0.81759 0.68356 0.62307
 N164 N 0.84228 0.65255 0.63036
 C165 C 0.81380 0.60424 0.65032
 C166 C 0.84327 0.57143 0.65645
 C167 C 0.81809 0.52525 0.67657
 C168 C 0.76277 0.51115 0.69109
 C169 C 0.73274 0.54374 0.68457
 C170 C 0.75800 0.58989 0.66433
 H171 H 0.81815 0.83291 0.56976
 H172 H 0.76986 0.74832 0.60282
 H173 H 0.93213 0.72913 0.59955
 H174 H 0.98093 0.81363 0.56673
 H175 H 0.88627 0.58208 0.64579
 H176 H 0.84251 0.50116 0.68102
 H177 H 0.69009 0.53403 0.69532
 H178 H 0.73435 0.61470 0.65993
 C179 C 0.20372 0.05472 0.57568
 C180 C 0.25513 0.07913 0.59389
 C181 C 0.28436 0.13889 0.60057
 C182 C 0.26151 0.17439 0.58873
 C183 C 0.20983 0.14997 0.57050
 C184 C 0.18030 0.08978 0.56379
 N185 N 0.33628 0.16174 0.61979
 N186 N 0.36668 0.21574 0.62653
 C187 C 0.41765 0.23698 0.64637
 C188 C 0.44931 0.29672 0.65321
 C189 C 0.49746 0.31821 0.67351
 C190 C 0.51469 0.28006 0.68740
 C191 C 0.48353 0.22023 0.67998
 C192 C 0.43555 0.19889 0.65969
 H193 H 0.18220 0.00824 0.57101
 H194 H 0.27223 0.05132 0.60294
 H195 H 0.28332 0.22076 0.59366
 H196 H 0.19302 0.17819 0.56169
 H197 H 0.43605 0.32657 0.64310
 H198 H 0.52040 0.36451 0.67870
 H199 H 0.49560 0.18960 0.69018
 H200 H 0.41194 0.15250 0.65475
 C201 C 0.83904 0.06185 0.56283
 C202 C 0.81134 0.08649 0.58043
 C203 C 0.84596 0.14249 0.59236
 C204 C 0.90885 0.17437 0.58600
 C205 C 0.93665 0.14987 0.56827
 C206 C 0.90214 0.09306 0.55673
 N207 N 0.81654 0.16497 0.61157
 N208 N 0.84578 0.21428 0.62440
 C209 C 0.81658 0.23576 0.64434
 C210 C 0.85243 0.28838 0.65921
 C211 C 0.82617 0.30884 0.68018
 C212 C 0.76323 0.27695 0.68658
 C213 C 0.72697 0.22484 0.67100
 C214 C 0.75342 0.20430 0.65012
 H215 H 0.81106 0.01809 0.55423
 H216 H 0.76286 0.06150 0.58519
 H217 H 0.93660 0.21782 0.59496
 H218 H 0.98530 0.17507 0.56399
 H219 H 0.90112 0.31304 0.65493
 H220 H 0.85540 0.34927 0.69165
 H221 H 0.67840 0.19923 0.67538
 H222 H 0.72469 0.16351 0.63885
 C223 C 0.17190 0.11723 0.90792
 C224 C 0.22103 0.14656 0.88872
 C225 C 0.27978 0.15795 0.89679
 C226 C 0.28940 0.14087 0.92480
 C227 C 0.24026 0.11245 0.94439
 C228 C 0.18090 0.09977 0.93593
 N229 N 0.32822 0.18626 0.87588
 N230 N 0.37995 0.18818 0.87857
 C231 C 0.42688 0.21632 0.85685
 C232 C 0.47640 0.20510 0.85636
 C233 C 0.52071 0.22895 0.83422
 C234 C 0.51671 0.26543 0.81249
 C235 C 0.46796 0.27812 0.81359
 C236 C 0.42315 0.25342 0.83543
 H237 H 0.12679 0.10857 0.90090
 H238 H 0.21317 0.15968 0.86724
 H239 H 0.33467 0.14960 0.93152
 H240 H 0.24839 0.09949 0.96585
 H241 H 0.47985 0.17668 0.87276
 H242 H 0.55807 0.21879 0.83407
 H243 H 0.46366 0.30605 0.79717
 H244 H 0.38546 0.26305 0.83545
 C245 C 0.94961 0.83104 0.90940
 C246 C 0.92868 0.78290 0.89060
 C247 C 0.87998 0.72891 0.89895
 C248 C 0.85318 0.72293 0.92687
 C249 C 0.87501 0.77097 0.94605
 C250 C 0.92294 0.82567 0.93729
 N251 N 0.85874 0.68150 0.87841
 N252 N 0.80804 0.63461 0.88121
 C253 C 0.78875 0.58876 0.85975
 C254 C 0.72754 0.54474 0.85914
 C255 C 0.70690 0.50179 0.83713
 C256 C 0.74766 0.50174 0.81569
 C257 C 0.80948 0.54496 0.81696
 C258 C 0.82975 0.58825 0.83864
 H259 H 0.98692 0.87252 0.90215
 H260 H 0.94977 0.78789 0.86918
 H261 H 0.81564 0.68136 0.93380
 H262 H 0.85364 0.76573 0.96742
 H263 H 0.69549 0.54457 0.87531
 H264 H 0.65909 0.46883 0.83682
 H265 H 0.84204 0.54620 0.80078
 H266 H 0.87741 0.62156 0.83875
 C267 C 0.88341 0.05694 0.90623
 C268 C 0.85755 0.08032 0.88680
 C269 C 0.84985 0.12802 0.89516
 C270 C 0.86661 0.15127 0.92367
 C271 C 0.89145 0.12713 0.94341
 C272 C 0.90086 0.08025 0.93468
 N273 N 0.82568 0.15219 0.87407
 N274 N 0.82789 0.20167 0.87750
 C275 C 0.80352 0.22451 0.85573
 C276 C 0.81794 0.28346 0.85700
 C277 C 0.79697 0.30737 0.83519
 C278 C 0.76033 0.27219 0.81200
 C279 C 0.74486 0.21268 0.81120
 C280 C 0.76652 0.18914 0.83273
 H281 H 0.88977 0.02058 0.89898
 H282 H 0.84457 0.06198 0.86491
 H283 H 0.86064 0.18798 0.93062
 H284 H 0.90466 0.14597 0.96519
 H285 H 0.84634 0.31114 0.87464
 H286 H 0.80930 0.35327 0.83649
 H287 H 0.71677 0.18443 0.79363
 H288 H 0.75446 0.14333 0.83135
 C289 C 0.82842 0.87960 0.40773
 C290 C 0.77811 0.84847 0.38937
 C291 C 0.72046 0.84087 0.39716
 C292 C 0.71323 0.86399 0.42394
 C293 C 0.76333 0.89402 0.44270
 C294 C 0.82149 0.90246 0.43463
 N295 N 0.67034 0.80988 0.37743
 N296 N 0.62117 0.81327 0.37904
 C297 C 0.57178 0.78228 0.35892
 C298 C 0.53011 0.80289 0.35387
 C299 C 0.48477 0.77676 0.33242
 C300 C 0.47935 0.72837 0.31633
 C301 C 0.51925 0.70586 0.32243
 C302 C 0.56569 0.73308 0.34333
 H303 H 0.87259 0.88496 0.40110
 H304 H 0.78415 0.83077 0.36881
 H305 H 0.66891 0.85832 0.43045
 H306 H 0.75677 0.91114 0.46333
 H307 H 0.53425 0.84063 0.36582
 H308 H 0.45425 0.79464 0.32817
 H309 H 0.51605 0.66875 0.31022
 H310 H 0.59715 0.71614 0.34710
 C311 C 0.10912 0.16203 0.40480
 C312 C 0.13464 0.20937 0.38538
 C313 C 0.14137 0.26387 0.39370
 C314 C 0.12332 0.27102 0.42206
 C315 C 0.09885 0.22389 0.44178
 C316 C 0.09105 0.16878 0.43323
 N317 N 0.16699 0.31096 0.37293
 N318 N 0.16389 0.35805 0.37608
 C319 C 0.19062 0.40440 0.35489
 C320 C 0.17365 0.44844 0.35476
 C321 C 0.19724 0.49276 0.33347
 C322 C 0.23929 0.49428 0.31233
 C323 C 0.25735 0.45079 0.31303
 C324 C 0.23293 0.40605 0.33394
 H325 H 0.10404 0.12022 0.39766
 H326 H 0.14862 0.20345 0.36362
 H327 H 0.12852 0.31295 0.42899
 H328 H 0.08520 0.23027 0.46353
 H329 H 0.14119 0.44776 0.37084
 H330 H 0.18273 0.52585 0.33356
 H331 H 0.28949 0.45063 0.29700
 H332 H 0.24711 0.37274 0.33371
 C333 C 0.14094 0.89400 0.45504
 C334 C 0.16784 0.86778 0.43786
 C335 C 0.14845 0.85067 0.40885
 C336 C 0.10225 0.86071 0.39704
 C337 C 0.07626 0.88783 0.41393
 C338 C 0.09519 0.90466 0.44311
 N339 N 0.17680 0.82439 0.39148
 N340 N 0.15221 0.79726 0.36776
 C341 C 0.18011 0.77274 0.34894
 C342 C 0.14490 0.73457 0.32655
 C343 C 0.17108 0.71196 0.30675
 C344 C 0.23352 0.72816 0.30868
 C345 C 0.26885 0.76633 0.33133
 C346 C 0.24223 0.78815 0.35147
 H347 H 0.15654 0.90677 0.47743
 H348 H 0.20358 0.86050 0.44718
 H349 H 0.08679 0.84831 0.37460
 H350 H 0.04093 0.89525 0.40418
 H351 H 0.09706 0.72267 0.32432
 H352 H 0.14274 0.68295 0.28947
 H353 H 0.31703 0.77943 0.33340
 H354 H 0.27039 0.81797 0.36852
   
