data_POSCAR
  _audit_creation_date              2014-09-24
  _audit_creation_method            'ToBaCCo'
  _symmetry_space_group_name_H-M    'P1'
  _symmetry_Int_Tables_number       1
  _symmetry_cell_setting            triclinic
  loop_
  _symmetry_equiv_pos_as_xyz
 x,y,z
_cell_length_a 39.1341
_cell_length_b 38.8476
_cell_length_c 39.0834
_cell_angle_alpha 102.842500
_cell_angle_beta 89.286400
_cell_angle_gamma 104.233200
loop_
  _atom_site_label
  _atom_site_type_symbol
  _atom_site_fract_x
  _atom_site_fract_y
  _atom_site_fract_z
O1 O 0.55436 0.50686 0.02185
 O2 O 0.45904 0.50151 0.02500
 O3 O 0.49887 0.45726 0.02920
 O4 O 0.51547 0.55177 0.01950
 O5 O 0.50903 0.53241 -0.03811
 O6 O 0.49364 0.43740 -0.02840
 O7 O 0.45360 0.48102 -0.03245
 O8 O 0.54882 0.48753 -0.03579
 Cu9 Cu 0.50737 0.50633 0.02964
 Cu10 Cu 0.50069 0.48273 -0.03947
 C11 C 0.56781 0.49770 -0.00750
 C12 C 0.43989 0.49031 -0.00329
 C13 C 0.49407 0.43118 0.00217
 C14 C 0.51497 0.55834 -0.01085
 O15 O -0.02763 0.54221 0.49833
 O16 O -0.01876 0.44895 0.48995
 O17 O -0.02138 0.50298 0.54286
 O18 O -0.02310 0.48946 0.44644
 O19 O 0.03476 0.51069 0.44874
 O20 O 0.03673 0.52160 0.54446
 O21 O 0.03924 0.46869 0.49149
 O22 O 0.03024 0.56284 0.50181
 Cu23 Cu -0.02853 0.49381 0.49432
 Cu24 Cu 0.04107 0.51794 0.49685
 C25 C -0.00038 0.56857 0.50125
 C26 C 0.01163 0.44274 0.48902
 C27 C 0.00811 0.51439 0.56007
 C28 C 0.00553 0.49837 0.43120
 O29 O 0.50004 0.02690 0.56211
 O30 O 0.50206 0.03020 0.46837
 O31 O 0.45534 0.03289 0.51597
 O32 O 0.54734 0.02614 0.51502
 O33 O 0.52931 -0.03380 0.49921
 O34 O 0.43677 -0.02714 0.50252
 O35 O 0.48266 -0.02966 0.45370
 O36 O 0.48224 -0.03303 0.54700
 Cu37 Cu 0.50305 0.03501 0.51682
 Cu38 Cu 0.48102 -0.03692 0.49901
 C39 C 0.49085 -0.00374 0.57065
 C40 C 0.49220 0.00079 0.44499
 C41 C 0.43034 0.00413 0.50965
 C42 C 0.55416 -0.00490 0.50711
 C43 C 0.51193 -0.07244 -0.06864
 C44 C 0.50228 -0.04158 -0.07402
 C45 C 0.49529 -0.01606 -0.04498
 C46 C 0.50009 -0.01964 -0.01026
 C47 C 0.51028 -0.05084 -0.00570
 C48 C 0.51502 -0.07779 -0.03465
 C49 C 0.49455 0.00896 0.02085
 C50 C 0.48740 0.00082 0.05412
 C51 C 0.48301 0.02770 0.08333
 C52 C 0.48347 0.06261 0.07883
 C53 C 0.48993 0.07135 0.04608
 C54 C 0.49653 0.04492 0.01767
 H55 H 0.51568 -0.09302 -0.09112
 H56 H 0.48635 0.00661 -0.04997
 H57 H 0.51504 -0.05454 0.02025
 H58 H 0.48472 -0.02646 0.05777
 H59 H 0.48009 0.08352 0.10116
 H60 H 0.50300 0.05284 -0.00687
 C61 C -0.06249 0.48767 1.05297
 C62 C -0.07118 0.48408 1.01753
 C63 C -0.04421 0.48751 0.99360
 C64 C -0.00834 0.49614 1.00499
 C65 C -0.00038 0.50013 1.04103
 C66 C -0.02727 0.49543 1.06486
 C67 C 0.02059 0.50216 0.97975
 C68 C 0.05445 0.49790 0.98682
 C69 C 0.08216 0.50590 0.96437
 C70 C 0.07559 0.51637 0.93352
 C71 C 0.04181 0.51891 0.92504
 C72 C 0.01482 0.51279 0.94850
 H73 H -0.08323 0.48490 1.07155
 H74 H -0.05169 0.48311 0.96615
 H75 H 0.02665 0.50807 1.05123
 H76 H 0.05974 0.48864 1.00985
 H77 H 0.09646 0.52110 0.91535
 H78 H -0.01043 0.51697 0.94211
 C79 C -0.08142 -0.06921 0.50865
 C80 C -0.04846 -0.07676 0.50223
 C81 C -0.01967 -0.04902 0.49708
 C82 C -0.02259 -0.01287 0.50086
 C83 C -0.05615 -0.00597 0.50762
 C84 C -0.08573 -0.03413 0.51040
 C85 C 0.00924 0.01740 0.49851
 C86 C 0.00567 0.05047 0.49139
 C87 C 0.03531 0.07932 0.49083
 C88 C 0.06914 0.07471 0.49579
 C89 C 0.07347 0.04190 0.50192
 C90 C 0.04371 0.01384 0.50401
 H91 H -0.10395 -0.09106 0.51118
 H92 H 0.00503 -0.05608 0.49067
 H93 H -0.05975 0.02129 0.51147
 H94 H -0.01996 0.05420 0.48577
 H95 H 0.09215 0.09673 0.49503
 H96 H 0.04809 -0.01024 0.51084
 C97 C -0.32346 0.49293 0.99081
 C98 C -0.34542 0.47897 0.96015
 C99 C -0.38046 0.48146 0.96042
 C100 C -0.39436 0.49779 0.99140
 C101 C -0.37218 0.51257 1.02180
 C102 C -0.33711 0.51030 1.02147
 C103 C -0.28683 0.48845 0.99123
 C104 C -0.27296 0.48050 1.02072
 C105 C -0.23850 0.47664 1.02157
 C106 C -0.21702 0.48032 0.99284
 C107 C -0.23099 0.48783 0.96312
 C108 C -0.26551 0.49187 0.96233
 C109 C -0.17982 0.47781 0.99480
 C110 C -0.15276 0.50184 0.98149
 C111 C -0.11739 0.50239 0.98712
 C112 C -0.10842 0.47914 1.00638
 C113 C -0.13543 0.45385 1.01809
 C114 C -0.17075 0.45304 1.01219
 H115 H -0.33586 0.46511 0.93620
 H116 H -0.39693 0.46967 0.93659
 H117 H -0.38202 0.52557 1.04601
 H118 H -0.32070 0.52204 1.04533
 H119 H -0.28883 0.47708 1.04319
 H120 H -0.22846 0.47149 1.04513
 H121 H -0.21525 0.49054 0.94045
 H122 H -0.27531 0.49823 0.93931
 H123 H -0.15876 0.52151 0.96828
 H124 H -0.09700 0.52238 0.97812
 H125 H -0.12913 0.43534 1.03264
 H126 H -0.19096 0.43356 1.02200
 C127 C 0.33104 0.48772 0.99801
 C128 C 0.35221 0.50095 1.02917
 C129 C 0.38802 0.50115 1.02899
 C130 C 0.40358 0.48859 0.99747
 C131 C 0.38204 0.47497 0.96638
 C132 C 0.34623 0.47440 0.96672
 C133 C 0.29353 0.48909 0.99761
 C134 C 0.26751 0.45926 0.97892
 C135 C 0.23260 0.46158 0.97632
 C136 C 0.22310 0.49390 0.99203
 C137 C 0.24894 0.52342 1.01142
 C138 C 0.28378 0.52097 1.01434
 C139 C 0.18682 0.49745 0.98663
 C140 C 0.18157 0.52862 0.97708
 C141 C 0.14756 0.53136 0.97009
 C142 C 0.11806 0.50316 0.97286
 C143 C 0.12319 0.47227 0.98307
 C144 C 0.15730 0.46933 0.98966
 H145 H 0.34103 0.51115 1.05369
 H146 H 0.40356 0.51176 1.05351
 H147 H 0.39283 0.46496 0.94155
 H148 H 0.33058 0.46441 0.94225
 H149 H 0.27431 0.43429 0.96599
 H150 H 0.21325 0.43851 0.96103
 H151 H 0.24224 0.54855 1.02400
 H152 H 0.30336 0.54444 1.02869
 H153 H 0.20386 0.55052 0.97419
 H154 H 0.14426 0.55556 0.96250
 H155 H 0.10087 0.45007 0.98518
 H156 H 0.16065 0.44509 0.99714
 C157 C -0.01282 -0.32527 0.50516
 C158 C 0.02091 -0.33090 0.50931
 C159 C 0.02514 -0.36586 0.50818
 C160 C -0.00435 -0.39605 0.50331
 C161 C -0.03811 -0.39019 0.49972
 C162 C -0.04222 -0.35540 0.50032
 C163 C -0.01748 -0.28831 0.50541
 C164 C -0.04743 -0.27767 0.51976
 C165 C -0.05259 -0.24359 0.51886
 C166 C -0.02765 -0.21888 0.50412
 C167 C 0.00259 -0.22926 0.49024
 C168 C 0.00751 -0.26361 0.49068
 C169 C -0.03321 -0.18249 0.50331
 C170 C -0.02220 -0.16621 0.47491
 C171 C -0.02722 -0.13191 0.47443
 C172 C -0.04383 -0.11345 0.50202
 C173 C -0.05518 -0.12971 0.53018
 C174 C -0.04968 -0.16370 0.53098
 H175 H 0.04410 -0.30825 0.51370
 H176 H 0.05156 -0.36912 0.51125
 H177 H -0.06153 -0.41261 0.49569
 H178 H -0.06852 -0.35233 0.49629
 H179 H -0.06697 -0.29566 0.53187
 H180 H -0.07645 -0.23685 0.52936
 H181 H 0.02266 -0.21078 0.47918
 H182 H 0.03066 -0.27097 0.47898
 H183 H -0.01006 -0.18012 0.45283
 H184 H -0.01847 -0.11993 0.45232
 H185 H -0.06759 -0.11569 0.55200
 H186 H -0.05783 -0.17492 0.55363
 C187 C 0.01892 0.33245 0.48062
 C188 C 0.04773 0.36204 0.49433
 C189 C 0.04571 0.39788 0.49635
 C190 C 0.01465 0.40494 0.48527
 C191 C -0.01399 0.37551 0.47126
 C192 C -0.01178 0.33970 0.46865
 C193 C 0.02047 0.29430 0.47960
 C194 C -0.00979 0.26834 0.48543
 C195 C -0.00831 0.23274 0.48522
 C196 C 0.02359 0.22222 0.47976
 C197 C 0.05382 0.24810 0.47372
 C198 C 0.05222 0.28359 0.47342
 C199 C 0.02550 0.18477 0.48131
 C200 C 0.04810 0.16716 0.45976
 C201 C 0.05100 0.13269 0.46248
 C202 C 0.03095 0.11486 0.48637
 C203 C 0.00778 0.13192 0.50731
 C204 C 0.00527 0.16658 0.50501
 H205 H 0.07158 0.35763 0.50434
 H206 H 0.06811 0.42011 0.50747
 H207 H -0.03812 0.38016 0.46213
 H208 H -0.03417 0.31770 0.45715
 H209 H -0.03461 0.27561 0.49083
 H210 H -0.03228 0.21347 0.48937
 H211 H 0.07898 0.24121 0.46988
 H212 H 0.07594 0.30260 0.46829
 H213 H 0.06355 0.17994 0.44071
 H214 H 0.06884 0.11988 0.44586
 H215 H -0.00758 0.11889 0.52628
 H216 H -0.01186 0.17949 0.52255
 C217 C 0.49016 -0.00933 -0.32225
 C218 C 0.50216 0.02433 -0.33164
 C219 C 0.50198 0.02636 -0.36694
 C220 C 0.49032 -0.00540 -0.39374
 C221 C 0.47832 -0.03907 -0.38407
 C222 C 0.47805 -0.04093 -0.34879
 C223 C 0.49096 -0.01177 -0.28496
 C224 C 0.46177 -0.03267 -0.27122
 C225 C 0.46308 -0.03623 -0.23647
 C226 C 0.49379 -0.01938 -0.21495
 C227 C 0.52285 0.00181 -0.22859
 C228 C 0.52136 0.00579 -0.26319
 C229 C 0.49587 -0.02474 -0.17872
 C230 C 0.52549 -0.03383 -0.16681
 C231 C 0.52733 -0.03960 -0.13293
 C232 C 0.49980 -0.03592 -0.11009
 C233 C 0.47026 -0.02658 -0.12187
 C234 C 0.46819 -0.02131 -0.15598
 H235 H 0.51144 0.04913 -0.31160
 H236 H 0.51140 0.05281 -0.37316
 H237 H 0.46907 -0.06418 -0.40375
 H238 H 0.46900 -0.06727 -0.34226
 H239 H 0.43795 -0.04628 -0.28741
 H240 H 0.44041 -0.05288 -0.22665
 H241 H 0.54673 0.01529 -0.21245
 H242 H 0.54429 0.02184 -0.27322
 H243 H 0.54703 -0.03698 -0.18393
 H244 H 0.55048 -0.04653 -0.12437
 H245 H 0.44861 -0.02379 -0.10481
 H246 H 0.44514 -0.01418 -0.16451
 C247 C 0.48730 0.00456 0.33571
 C248 C 0.50320 0.03599 0.36135
 C249 C 0.50505 0.03474 0.39676
 C250 C 0.49125 0.00198 0.40737
 C251 C 0.47575 -0.02955 0.38172
 C252 C 0.47370 -0.02825 0.34636
 C253 C 0.48469 0.00605 0.29809
 C254 C 0.48896 -0.02315 0.27119
 C255 C 0.48664 -0.02162 0.23589
 C256 C 0.48014 0.00921 0.22658
 C257 C 0.47571 0.03833 0.25348
 C258 C 0.47785 0.03672 0.28875
 C259 C 0.47895 0.01153 0.18908
 C260 C 0.45532 0.02868 0.17691
 C261 C 0.45588 0.03301 0.14231
 C262 C 0.47988 0.02005 0.11899
 C263 C 0.50268 0.00184 0.13075
 C264 C 0.50231 -0.00228 0.16540
 H265 H 0.51451 0.06157 0.35403
 H266 H 0.51731 0.05947 0.41583
 H267 H 0.46466 -0.05519 0.38903
 H268 H 0.46082 -0.05285 0.32745
 H269 H 0.49462 -0.04704 0.27740
 H270 H 0.48982 -0.04471 0.21588
 H271 H 0.47117 0.06272 0.24735
 H272 H 0.47390 0.05949 0.30871
 H273 H 0.43648 0.03895 0.19419
 H274 H 0.43769 0.04675 0.13383
 H275 H 0.52182 -0.00797 0.11351
 H276 H 0.52122 -0.01515 0.17395
 C277 C 0.52803 -0.33021 -0.01829
 C278 C 0.51320 -0.35914 -0.04684
 C279 C 0.50984 -0.39535 -0.04487
 C280 C 0.52078 -0.40346 -0.01415
 C281 C 0.53622 -0.37462 0.01410
 C282 C 0.54004 -0.33847 0.01197
 C283 C 0.52977 -0.29173 -0.01948
 C284 C 0.52418 -0.26674 0.01083
 C285 C 0.52450 -0.23100 0.00962
 C286 C 0.52994 -0.21932 -0.02203
 C287 C 0.53602 -0.24412 -0.05225
 C288 C 0.53608 -0.27981 -0.05095
 C289 C 0.52788 -0.18194 -0.02377
 C290 C 0.54958 -0.16263 -0.04580
 C291 C 0.54607 -0.12841 -0.04880
 C292 C 0.52107 -0.11259 -0.02954
 C293 C 0.50005 -0.13138 -0.00684
 C294 C 0.50328 -0.16569 -0.00412
 H295 H 0.50318 -0.35392 -0.07037
 H296 H 0.49767 -0.41703 -0.06700
 H297 H 0.54528 -0.38001 0.03800
 H298 H 0.55235 -0.31697 0.03415
 H299 H 0.51873 -0.27497 0.03545
 H300 H 0.52028 -0.21256 0.03355
 H301 H 0.53991 -0.23627 -0.07719
 H302 H 0.54100 -0.29807 -0.07469
 H303 H 0.56925 -0.17396 -0.06082
 H304 H 0.56282 -0.11434 -0.06626
 H305 H 0.48015 -0.12010 0.00786
 H306 H 0.48562 -0.17997 0.01257
 C307 C 0.48621 0.32197 0.01433
 C308 C 0.47863 0.32824 -0.01852
 C309 C 0.48063 0.36361 -0.02245
 C310 C 0.48998 0.39347 0.00645
 C311 C 0.49688 0.38714 0.03941
 C312 C 0.49517 0.35188 0.04327
 C313 C 0.48558 0.28461 0.01838
 C314 C 0.47369 0.27342 0.04922
 C315 C 0.47436 0.23887 0.05362
 C316 C 0.48664 0.21442 0.02716
 C317 C 0.49808 0.22541 -0.00389
 C318 C 0.49768 0.26010 -0.00817
 C319 C 0.48762 0.17772 0.03202
 C320 C 0.51541 0.16204 0.01921
 C321 C 0.51624 0.12755 0.02377
 C322 C 0.48950 0.10813 0.04151
 C323 C 0.46186 0.12380 0.05451
 C324 C 0.46082 0.15810 0.04968
 H325 H 0.47106 0.30579 -0.04124
 H326 H 0.47501 0.36758 -0.04816
 H327 H 0.50443 0.40958 0.06216
 H328 H 0.50178 0.34822 0.06882
 H329 H 0.46375 0.29136 0.07003
 H330 H 0.46573 0.23154 0.07804
 H331 H 0.50722 0.20713 -0.02504
 H332 H 0.50744 0.26791 -0.03208
 H333 H 0.53682 0.17662 0.00608
 H334 H 0.53807 0.11625 0.01385
 H335 H 0.44066 0.10916 0.06786
 H336 H 0.43869 0.16899 0.05931
 C337 C -0.33754 -0.01134 0.51005
 C338 C -0.34670 0.02164 0.52401
 C339 C -0.38176 0.02371 0.52266
 C340 C -0.40865 -0.00721 0.50763
 C341 C -0.39963 -0.04023 0.49374
 C342 C -0.36446 -0.04224 0.49479
 C343 C -0.30011 -0.01342 0.51154
 C344 C -0.29159 -0.04473 0.51760
 C345 C -0.25644 -0.04667 0.51892
 C346 C -0.22887 -0.01724 0.51446
 C347 C -0.23739 0.01418 0.50867
 C348 C -0.27254 0.01601 0.50708
 C349 C -0.19150 -0.01967 0.51506
 C350 C -0.16754 -0.00443 0.49207
 C351 C -0.13290 -0.00812 0.49147
 C352 C -0.12146 -0.02739 0.51360
 C353 C -0.14508 -0.04202 0.53709
 C354 C -0.17966 -0.03806 0.53793
 H355 H -0.32683 0.04580 0.53653
 H356 H -0.38786 0.04951 0.53389
 H357 H -0.41973 -0.06449 0.48185
 H358 H -0.35832 -0.06793 0.48327
 H359 H -0.31207 -0.06771 0.52164
 H360 H -0.25094 -0.07151 0.52291
 H361 H -0.21686 0.03753 0.50554
 H362 H -0.27809 0.04038 0.50192
 H363 H -0.17584 0.00938 0.47369
 H364 H -0.11538 0.00298 0.47274
 H365 H -0.13680 -0.05666 0.55471
 H366 H -0.19714 -0.04947 0.55649
 C367 C 0.32303 0.01373 0.51229
 C368 C 0.35044 0.04124 0.50391
 C369 C 0.38528 0.03822 0.50344
 C370 C 0.39350 0.00724 0.51049
 C371 C 0.36629 -0.02054 0.51839
 C372 C 0.33150 -0.01716 0.51968
 C373 C 0.28587 0.01720 0.51301
 C374 C 0.25744 -0.01376 0.50321
 C375 C 0.22270 -0.01036 0.50324
 C376 C 0.21539 0.02416 0.51233
 C377 C 0.24382 0.05509 0.52229
 C378 C 0.27848 0.05163 0.52300
 C379 C 0.17846 0.02799 0.51065
 C380 C 0.16792 0.05650 0.53385
 C381 C 0.13379 0.06104 0.53108
 C382 C 0.10924 0.03670 0.50566
 C383 C 0.11922 0.00775 0.48305
 C384 C 0.15354 0.00365 0.48524
 H385 H 0.34503 0.06499 0.49716
 H386 H 0.40575 0.05986 0.49689
 H387 H 0.37203 -0.04457 0.52423
 H388 H 0.31139 -0.03860 0.52693
 H389 H 0.26191 -0.04072 0.49489
 H390 H 0.20159 -0.03493 0.49608
 H391 H 0.23951 0.08221 0.52897
 H392 H 0.29947 0.07610 0.53144
 H393 H 0.18595 0.07530 0.55429
 H394 H 0.12643 0.08340 0.54895
 H395 H 0.10067 -0.01111 0.46303
 H396 H 0.16068 -0.01812 0.46639
 C397 C 0.00160 0.49331 1.32024
 C398 C -0.02728 0.47441 1.33613
 C399 C -0.02581 0.47555 1.37205
 C400 C 0.00473 0.49522 1.39283
 C401 C 0.03403 0.51314 1.37682
 C402 C 0.03242 0.51235 1.34096
 C403 C -0.00092 0.49428 1.28257
 C404 C 0.02836 0.49391 1.26138
 C405 C 0.02599 0.49578 1.22620
 C406 C -0.00578 0.49787 1.21137
 C407 C -0.03510 0.49790 1.23251
 C408 C -0.03265 0.49634 1.26767
 C409 C -0.00872 0.49958 1.17394
 C410 C -0.02952 0.52074 1.16378
 C411 C -0.03474 0.52014 1.12839
 C412 C -0.01891 0.49876 1.10241
 C413 C 0.00314 0.47885 1.11246
 C414 C 0.00806 0.47909 1.14790
 H415 H -0.05115 0.45882 1.32082
 H416 H -0.04869 0.46118 1.38360
 H417 H 0.05788 0.52870 1.39220
 H418 H 0.05497 0.52761 1.32972
 H419 H 0.05309 0.49194 1.27191
 H420 H 0.04916 0.49600 1.21074
 H421 H -0.06017 0.49880 1.22182
 H422 H -0.05557 0.49727 1.28331
 H423 H -0.04207 0.53758 1.18318
 H424 H -0.05146 0.53613 1.12124
 H425 H 0.01541 0.46197 1.09278
 H426 H 0.02395 0.46221 1.15474
 C427 C 0.01299 0.52839 0.67239
 C428 C 0.04158 0.52144 0.65217
 C429 C 0.03997 0.51727 0.61580
 C430 C 0.00946 0.51911 0.59858
 C431 C -0.01936 0.52557 0.61846
 C432 C -0.01750 0.53053 0.65503
 C433 C 0.01493 0.53251 0.71121
 C434 C -0.01519 0.51985 0.72926
 C435 C -0.01275 0.52150 0.76527
 C436 C 0.02001 0.53516 0.78409
 C437 C 0.04992 0.54878 0.76620
 C438 C 0.04733 0.54785 0.73041
 C439 C 0.02346 0.53322 0.82153
 C440 C 0.04934 0.55927 0.84480
 C441 C 0.05493 0.55514 0.87877
 C442 C 0.03417 0.52544 0.89046
 C443 C 0.00734 0.50030 0.86799
 C444 C 0.00225 0.50392 0.83381
 H445 H 0.06512 0.51853 0.66428
 H446 H 0.06244 0.51189 0.60104
 H447 H -0.04310 0.52739 0.60578
 H448 H -0.03983 0.53641 0.66966
 H449 H -0.04058 0.50761 0.71547
 H450 H -0.03655 0.51151 0.77820
 H451 H 0.07571 0.55913 0.77948
 H452 H 0.07097 0.55878 0.71772
 H453 H 0.06564 0.58267 0.83670
 H454 H 0.07563 0.57496 0.89587
 H455 H -0.00868 0.47693 0.87642
 H456 H -0.01741 0.48285 0.81666
   
