data_POSCAR
  _audit_creation_date              2014-09-24
  _audit_creation_method            'ToBaCCo'
  _symmetry_space_group_name_H-M    'P1'
  _symmetry_Int_Tables_number       1
  _symmetry_cell_setting            triclinic
  loop_
  _symmetry_equiv_pos_as_xyz
 x,y,z
_cell_length_a 52.0420
_cell_length_b 52.2979
_cell_length_c 52.1527
_cell_angle_alpha 90.068000
_cell_angle_beta 89.945100
_cell_angle_gamma 89.999800
loop_
  _atom_site_label
  _atom_site_type_symbol
  _atom_site_fract_x
  _atom_site_fract_y
  _atom_site_fract_z
C1 C 0.28936 0.36502 0.02791
 C2 C 0.27809 0.37246 0.00490
 C3 C 0.28682 0.36382 -0.01910
 C4 C 0.30738 0.34570 -0.01970
 C5 C 0.31894 0.33764 0.00376
 C6 C 0.31000 0.34759 0.02758
 C7 C 0.32082 0.33871 0.05053
 C8 C 0.33969 0.32001 0.05039
 C9 C 0.34857 0.30942 0.02730
 C10 C 0.33842 0.31842 0.00362
 C11 C 0.31499 0.33341 -0.04248
 C12 C 0.33400 0.31472 -0.04262
 C13 C 0.34654 0.30715 -0.01998
 C14 C 0.36492 0.28686 -0.01968
 C15 C 0.37369 0.27799 0.00419
 C16 C 0.36617 0.28895 0.02735
 H17 H 0.31419 0.34546 0.06899
 H18 H 0.34659 0.31336 0.06876
 H19 H 0.30541 0.33674 -0.06047
 H20 H 0.33739 0.30532 -0.06070
 H21 H 0.26262 0.38633 0.00596
 H22 H 0.38769 0.26263 0.00502
 C23 C 0.70893 0.63421 -0.01988
 C24 C 0.71758 0.62368 0.00314
 C25 C 0.70780 0.63140 0.02685
 C26 C 0.68839 0.65031 0.02776
 C27 C 0.67934 0.66141 0.00454
 C28 C 0.68974 0.65336 -0.01935
 C29 C 0.68193 0.66583 -0.04181
 C30 C 0.66410 0.68562 -0.04107
 C31 C 0.65271 0.69358 -0.01786
 C32 C 0.66093 0.68157 0.00533
 C33 C 0.67884 0.65941 0.05124
 C34 C 0.66092 0.67908 0.05206
 C35 C 0.65185 0.69050 0.02945
 C36 C 0.63504 0.71160 0.03040
 C37 C 0.62744 0.72337 0.00767
 C38 C 0.63515 0.71458 -0.01664
 H39 H 0.69026 0.66110 -0.06021
 H40 H 0.66065 0.69523 -0.05897
 H41 H 0.68560 0.65194 0.06932
 H42 H 0.65486 0.68574 0.07075
 H43 H 0.73248 0.60916 0.00261
 H44 H 0.61404 0.73919 0.00921
 C45 C 0.70669 0.36972 0.97569
 C46 C 0.71644 0.37769 0.99931
 C47 C 0.70809 0.36707 1.02241
 C48 C 0.68915 0.34767 1.02208
 C49 C 0.67883 0.33933 0.99828
 C50 C 0.68763 0.35045 0.97496
 C51 C 0.67826 0.34101 0.95158
 C52 C 0.66077 0.32097 0.95093
 C53 C 0.65188 0.30956 0.97364
 C54 C 0.66079 0.31884 0.99768
 C55 C 0.68154 0.33527 1.04466
 C56 C 0.66400 0.31522 1.04411
 C57 C 0.65277 0.30688 1.02097
 C58 C 0.63562 0.28558 1.01996
 C59 C 0.62810 0.27642 0.99574
 C60 C 0.63546 0.28815 0.97290
 H61 H 0.68488 0.34850 0.93342
 H62 H 0.65492 0.31403 0.93229
 H63 H 0.68977 0.34029 1.06301
 H64 H 0.66063 0.30570 1.06209
 H65 H 0.73115 0.39240 0.99969
 H66 H 0.61496 0.26037 0.99439
 C67 C 0.29190 0.63261 0.97039
 C68 C 0.28082 0.62489 0.99342
 C69 C 0.28941 0.63368 1.01741
 C70 C 0.30956 0.65225 1.01795
 C71 C 0.32099 0.66050 0.99447
 C72 C 0.31225 0.65036 0.97068
 C73 C 0.32296 0.65936 0.94771
 C74 C 0.34146 0.67844 0.94780
 C75 C 0.35004 0.68929 0.97087
 C76 C 0.34005 0.68013 0.99457
 C77 C 0.31681 0.66480 1.04069
 C78 C 0.33540 0.68390 1.04079
 C79 C 0.34787 0.69163 1.01815
 C80 C 0.36589 0.71226 1.01782
 C81 C 0.37448 0.72127 0.99392
 C82 C 0.36718 0.71014 0.97078
 H83 H 0.31656 0.65235 0.92928
 H84 H 0.34830 0.68516 0.92943
 H85 H 0.30723 0.66137 1.05867
 H86 H 0.33846 0.69347 1.05883
 H87 H 0.26555 0.61080 0.99239
 H88 H 0.38817 0.73690 0.99304
 C89 C 0.02859 0.29182 0.36706
 C90 C 0.00543 0.28060 0.37425
 C91 C -0.01851 0.28943 0.36550
 C92 C -0.01886 0.31006 0.34757
 C93 C 0.00476 0.32160 0.33979
 C94 C 0.02849 0.31256 0.34986
 C95 C 0.05161 0.32340 0.34127
 C96 C 0.05172 0.34234 0.32270
 C97 C 0.02870 0.35124 0.31193
 C98 C 0.00486 0.34112 0.32068
 C99 C -0.04154 0.31774 0.33512
 C100 C -0.04144 0.33675 0.31652
 C101 C -0.01865 0.34925 0.30921
 C102 C -0.01810 0.36763 0.28897
 C103 C 0.00593 0.37641 0.28037
 C104 C 0.02901 0.36884 0.29151
 H105 H 0.07002 0.31675 0.34817
 H106 H 0.07019 0.34928 0.31627
 H107 H -0.05963 0.30821 0.33825
 H108 H -0.05946 0.34016 0.30696
 H109 H 0.00629 0.26501 0.38794
 H110 H 0.00694 0.39039 0.26504
 C111 C 0.02721 0.63018 0.70796
 C112 C 0.00403 0.62277 0.71902
 C113 C -0.01991 0.63156 0.71021
 C114 C -0.02026 0.64973 0.68977
 C115 C 0.00339 0.65775 0.67842
 C116 C 0.02712 0.64764 0.68742
 C117 C 0.05026 0.65642 0.67678
 C118 C 0.05039 0.67525 0.65811
 C119 C 0.02738 0.68608 0.64929
 C120 C 0.00352 0.67714 0.65918
 C121 C -0.04296 0.66217 0.68213
 C122 C -0.04283 0.68105 0.66337
 C123 C -0.02000 0.68867 0.65111
 C124 C -0.01939 0.70921 0.63306
 C125 C 0.00468 0.71797 0.62452
 C126 C 0.02772 0.70675 0.63201
 H127 H 0.06867 0.64949 0.68339
 H128 H 0.06888 0.68181 0.65132
 H129 H -0.06109 0.65879 0.69150
 H130 H -0.06088 0.69055 0.65998
 H131 H 0.00490 0.60891 0.73447
 H132 H 0.00577 0.73351 0.61079
 C133 C 0.97504 0.63358 0.28965
 C134 C 0.99878 0.62571 0.27997
 C135 C 1.02190 0.63604 0.28875
 C136 C 1.02145 0.65514 0.30798
 C137 C 0.99752 0.66338 0.31824
 C138 C 0.97420 0.65251 0.30903
 C139 C 0.95071 0.66185 0.31840
 C140 C 0.94998 0.68149 0.33634
 C141 C 0.97269 0.69262 0.34566
 C142 C 0.99683 0.68346 0.33672
 C143 C 1.04404 0.66734 0.31601
 C144 C 1.04339 0.68701 0.33395
 C145 C 1.02015 0.69514 0.34521
 C146 C 1.01906 0.71599 0.36290
 C147 C 0.99476 0.72507 0.37043
 C148 C 0.97189 0.71363 0.36258
 H149 H 0.93255 0.65461 0.31147
 H150 H 0.93128 0.68836 0.34224
 H151 H 1.06249 0.66248 0.30779
 H152 H 1.06141 0.69644 0.33763
 H153 H 0.99926 0.61116 0.26512
 H154 H 0.99334 0.74079 0.38395
 C155 C 1.01905 0.28968 0.63497
 C156 C 0.99584 0.28125 0.62454
 C157 C 0.97220 0.29105 0.63254
 C158 C 0.97156 0.31023 0.65168
 C159 C 0.99498 0.31909 0.66265
 C160 C 1.01879 0.30870 0.65428
 C161 C 1.04146 0.31637 0.66658
 C162 C 1.04101 0.33410 0.68646
 C163 C 1.01788 0.34547 0.69473
 C164 C 0.99447 0.33732 0.68298
 C165 C 0.94817 0.31972 0.66113
 C166 C 0.94761 0.33738 0.68105
 C167 C 0.97042 0.34634 0.69230
 C168 C 0.96980 0.36297 0.71358
 C169 C 0.99277 0.37052 0.72506
 C170 C 1.01699 0.36294 0.71581
 H171 H 1.05982 0.30804 0.66163
 H172 H 1.05906 0.33751 0.69593
 H173 H 0.92995 0.31308 0.65372
 H174 H 0.92897 0.34334 0.68801
 H175 H 0.99616 0.26651 0.60987
 H176 H 0.99150 0.38386 0.74096
 C177 C 0.28706 0.02759 0.36528
 C178 C 0.27590 0.00463 0.37289
 C179 C 0.28469 -0.01930 0.36427
 C180 C 0.30508 -0.01986 0.34590
 C181 C 0.31657 0.00354 0.33772
 C182 C 0.30765 0.02728 0.34773
 C183 C 0.31845 0.05018 0.33879
 C184 C 0.33730 0.05006 0.32000
 C185 C 0.34613 0.02703 0.30933
 C186 C 0.33595 0.00342 0.31834
 C187 C 0.31256 -0.04256 0.33348
 C188 C 0.33142 -0.04268 0.31456
 C189 C 0.34396 -0.02010 0.30693
 C190 C 0.36226 -0.01978 0.28648
 C191 C 0.37110 0.00404 0.27765
 C192 C 0.36371 0.02711 0.28879
 H193 H 0.31184 0.06858 0.34558
 H194 H 0.34420 0.06837 0.31333
 H195 H 0.30296 -0.06050 0.33688
 H196 H 0.33468 -0.06070 0.30506
 H197 H 0.26050 0.00567 0.38689
 H198 H 0.38507 0.00489 0.26222
 C199 C 0.63769 -0.01696 0.71479
 C200 C 0.63006 0.00728 0.72369
 C201 C 0.63745 0.02995 0.71174
 C202 C 0.65400 0.02901 0.69035
 C203 C 0.66303 0.00496 0.68133
 C204 C 0.65500 -0.01815 0.69354
 C205 C 0.66637 -0.04128 0.68548
 C206 C 0.68395 -0.04202 0.66540
 C207 C 0.69151 -0.01964 0.65271
 C208 C 0.68116 0.00418 0.66085
 C209 C 0.66289 0.05155 0.67871
 C210 C 0.68051 0.05073 0.65872
 C211 C 0.68998 0.02733 0.64951
 C212 C 0.70912 0.02643 0.63025
 C213 C 0.71889 0.00279 0.62246
 C214 C 0.71045 -0.02016 0.63323
 H215 H 0.66308 -0.05911 0.69525
 H216 H 0.69227 -0.06036 0.66062
 H217 H 0.65691 0.07019 0.68545
 H218 H 0.68713 0.06877 0.65107
 H219 H 0.61683 0.00879 0.73971
 H220 H 0.73361 0.00228 0.60771
 C221 C 0.29098 0.97143 0.63375
 C222 C 0.27918 0.99412 0.62616
 C223 C 0.28819 1.01835 0.63368
 C224 C 0.30939 1.01952 0.65105
 C225 C 0.32143 0.99638 0.65923
 C226 C 0.31233 0.97233 0.65030
 C227 C 0.32383 0.94976 0.65930
 C228 C 0.34371 0.95056 0.67703
 C229 C 0.35290 0.97396 0.68650
 C230 C 0.34177 0.99713 0.67749
 C231 C 0.31750 1.04266 0.66233
 C232 C 0.33744 1.04337 0.68004
 C233 C 0.34993 1.02094 0.68782
 C234 C 0.36919 1.02142 0.70695
 C235 C 0.37975 0.99844 0.71556
 C236 C 0.37191 0.97483 0.70583
 H237 H 0.31709 0.93113 0.65333
 H238 H 0.35128 0.93252 0.68373
 H239 H 0.30786 1.06054 0.65890
 H240 H 0.34227 1.06172 0.68830
 H241 H 0.26316 0.99261 0.61295
 H242 H 0.39429 0.99891 0.73046
 C243 C 0.71184 1.01899 0.36529
 C244 C 0.72069 0.99523 0.37426
 C245 C 0.70938 0.97213 0.36727
 C246 C 0.68856 0.97210 0.35002
 C247 C 0.67952 0.99565 0.33973
 C248 C 0.69114 1.01920 0.34731
 C249 C 0.68347 1.04167 0.33464
 C250 C 0.66438 1.04143 0.31600
 C251 C 0.65178 1.01871 0.30890
 C252 C 0.65991 0.99541 0.32060
 C253 C 0.67765 0.94904 0.34160
 C254 C 0.65860 0.94881 0.32306
 C255 C 0.64968 0.97162 0.31210
 C256 C 0.63196 0.97115 0.29171
 C257 C 0.62439 0.99399 0.28033
 C258 C 0.63328 1.01799 0.28866
 H259 H 0.69308 1.05967 0.33762
 H260 H 0.66100 1.05927 0.30628
 H261 H 0.68432 0.93076 0.34860
 H262 H 0.65157 0.93037 0.31680
 H263 H 0.73631 0.99450 0.38800
 H264 H 0.61032 0.99282 0.26504
 O265 O 0.82147 0.85508 0.52880
 O266 O 0.85441 0.81978 0.47799
 O267 O 0.81949 0.85428 0.47920
 O268 O 0.85657 0.82004 0.52758
 O269 O 0.82699 0.78983 0.52974
 O270 O 0.78917 0.82474 0.48052
 O271 O 0.82513 0.78924 0.47963
 O272 O 0.79100 0.82571 0.53043
 Cu273 Cu 0.84095 0.84024 0.50335
 Cu274 Cu 0.80503 0.80430 0.50532
 C275 C 0.80050 0.84682 0.53799
 C276 C 0.84557 0.79860 0.47012
 C277 C 0.79812 0.84551 0.47154
 C278 C 0.84847 0.79909 0.53674
 O279 O 0.17735 0.14298 0.52801
 O280 O 0.14431 0.18081 0.47940
 O281 O 0.17845 0.14554 0.47856
 O282 O 0.14281 0.17863 0.52907
 O283 O 0.17281 0.20843 0.53129
 O284 O 0.20958 0.17420 0.48083
 O285 O 0.17446 0.21050 0.48136
 O286 O 0.20814 0.17192 0.53075
 Cu287 Cu 0.15768 0.15912 0.50365
 Cu288 Cu 0.19436 0.19426 0.50637
 C289 C 0.19846 0.15061 0.53741
 C290 C 0.15361 0.20195 0.47198
 C291 C 0.20004 0.15401 0.47111
 C292 C 0.15138 0.19927 0.53854
 O293 O 0.14596 0.81893 0.52362
 O294 O 0.17833 0.85670 0.47448
 O295 O 0.14304 0.82190 0.47426
 O296 O 0.18065 0.85364 0.52394
 O297 O 0.21116 0.82446 0.52046
 O298 O 0.17250 0.79174 0.47030
 O299 O 0.20858 0.82733 0.47048
 O300 O 0.17534 0.78862 0.52015
 Cu301 Cu 0.15905 0.84074 0.49933
 Cu302 Cu 0.19498 0.80500 0.49496
 C303 C 0.15491 0.79740 0.53027
 C304 C 0.19897 0.84879 0.46424
 C305 C 0.15097 0.80137 0.46401
 C306 C 0.20222 0.84467 0.53072
 O307 O 0.82193 0.14391 0.47010
 O308 O 0.85496 0.18036 0.51987
 O309 O 0.82037 0.14537 0.51957
 O310 O 0.85686 0.17907 0.47035
 O311 O 0.82715 0.20914 0.46803
 O312 O 0.78964 0.17446 0.51779
 O313 O 0.82532 0.21055 0.51808
 O314 O 0.79136 0.17311 0.46779
 Cu315 Cu 0.84151 0.15928 0.49508
 Cu316 Cu 0.80528 0.19486 0.49270
 C317 C 0.80096 0.15189 0.46069
 C318 C 0.84603 0.20162 0.52744
 C319 C 0.79882 0.15389 0.52701
 C320 C 0.84863 0.19988 0.46099
 O321 O 0.47952 0.85735 0.82087
 O322 O 0.52805 0.82447 0.85903
 O323 O 0.52898 0.85960 0.82403
 O324 O 0.47852 0.82242 0.85534
 O325 O 0.48197 0.79219 0.82591
 O326 O 0.53274 0.83034 0.79368
 O327 O 0.53193 0.79446 0.82944
 O328 O 0.48282 0.82817 0.79036
 Cu329 Cu 0.50353 0.84388 0.84280
 Cu330 Cu 0.50776 0.80824 0.80679
 C331 C 0.47294 0.84863 0.79916
 C332 C 0.53804 0.80380 0.85112
 C333 C 0.53917 0.85171 0.80339
 C334 C 0.47166 0.80102 0.84619
 O335 O 0.52708 0.17644 0.14318
 O336 O 0.47705 0.14398 0.17980
 O337 O 0.47749 0.17860 0.14514
 O338 O 0.52665 0.14159 0.17840
 O339 O 0.52956 0.17105 0.20864
 O340 O 0.47982 0.20898 0.17453
 O341 O 0.47943 0.17326 0.21029
 O342 O 0.52989 0.20670 0.17262
 Cu343 Cu 0.50194 0.15720 0.15868
 Cu344 Cu 0.50498 0.19305 0.19459
 C345 C 0.53678 0.19718 0.15125
 C346 C 0.46967 0.15288 0.20119
 C347 C 0.47024 0.20002 0.15397
 C348 C 0.53628 0.14962 0.19924
 O349 O 0.52266 0.14670 0.81862
 O350 O 0.47283 0.17951 0.85527
 O351 O 0.47286 0.14509 0.81961
 O352 O 0.52249 0.18081 0.85383
 O353 O 0.52083 0.21166 0.82496
 O354 O 0.47116 0.17488 0.78967
 O355 O 0.47066 0.21014 0.82623
 O356 O 0.52127 0.17655 0.78870
 Cu357 Cu 0.49775 0.16002 0.83973
 Cu358 Cu 0.49573 0.19641 0.80437
 C359 C 0.53058 0.15589 0.79757
 C360 C 0.46344 0.20044 0.84740
 C361 C 0.46378 0.15355 0.79872
 C362 C 0.53015 0.20223 0.84540
 O363 O 0.52029 0.85361 0.18198
 O364 O 0.47158 0.82063 0.14411
 O365 O 0.47073 0.85563 0.17926
 O366 O 0.52115 0.81901 0.14733
 O367 O 0.51822 0.78862 0.17659
 O368 O 0.46732 0.82628 0.20949
 O369 O 0.46812 0.79044 0.17350
 O370 O 0.51741 0.82434 0.21237
 Cu371 Cu 0.49610 0.84016 0.16022
 Cu372 Cu 0.49238 0.80436 0.19604
 C373 C 0.52725 0.84477 0.20350
 C374 C 0.46177 0.79987 0.15194
 C375 C 0.46066 0.84761 0.19989
 C376 C 0.52836 0.79770 0.15634
 O377 O 0.85511 0.52733 0.82106
 O378 O 0.81796 0.47957 0.85594
 O379 O 0.85273 0.47789 0.82107
 O380 O 0.81995 0.52899 0.85607
 O381 O 0.78946 0.53035 0.82666
 O382 O 0.82340 0.47935 0.79050
 O383 O 0.78759 0.48057 0.82638
 O384 O 0.82553 0.52929 0.79078
 Cu385 Cu 0.83940 0.50340 0.84147
 Cu386 Cu 0.80345 0.50508 0.80549
 C387 C 0.84702 0.53633 0.80000
 C388 C 0.79653 0.47190 0.84734
 C389 C 0.84386 0.46993 0.79988
 C390 C 0.79899 0.53811 0.84771
 O391 O 0.14565 0.52929 0.17881
 O392 O 0.18118 0.47875 0.14580
 O393 O 0.14682 0.47978 0.18100
 O394 O 0.18030 0.52809 0.14325
 O395 O 0.21099 0.53078 0.17234
 O396 O 0.17681 0.48160 0.21091
 O397 O 0.21219 0.48092 0.17463
 O398 O 0.17552 0.53142 0.20880
 Cu399 Cu 0.16047 0.50387 0.15932
 Cu400 Cu 0.19699 0.50646 0.19469
 C401 C 0.15418 0.53875 0.19951
 C402 C 0.20269 0.47125 0.15436
 C403 C 0.15593 0.47235 0.20226
 C404 C 0.20137 0.53749 0.15097
 O405 O 0.82006 0.52127 0.14509
 O406 O 0.85689 0.47256 0.17896
 O407 O 0.82121 0.47177 0.14459
 O408 O 0.85548 0.52191 0.17943
 O409 O 0.82653 0.52083 0.21042
 O410 O 0.79118 0.47066 0.17453
 O411 O 0.82775 0.47096 0.20974
 O412 O 0.79008 0.52047 0.17510
 Cu413 Cu 0.84131 0.49693 0.15900
 Cu414 Cu 0.80586 0.49560 0.19557
 C415 C 0.79885 0.52915 0.15406
 C416 C 0.84898 0.46362 0.20012
 C417 C 0.80029 0.46286 0.15329
 C418 C 0.84714 0.52979 0.20088
 O419 O 0.14258 0.47183 0.82257
 O420 O 0.18055 0.52123 0.85428
 O421 O 0.14551 0.52107 0.81982
 O422 O 0.17825 0.47188 0.85713
 O423 O 0.20825 0.46811 0.82737
 O424 O 0.17463 0.51779 0.78912
 O425 O 0.21079 0.51796 0.82469
 O426 O 0.17177 0.46807 0.79202
 Cu427 Cu 0.15882 0.49673 0.84144
 Cu428 Cu 0.19440 0.49260 0.80522
 C429 C 0.15029 0.46177 0.80181
 C430 C 0.20204 0.52807 0.84511
 C431 C 0.15426 0.52780 0.79816
 C432 C 0.19886 0.46179 0.84897
 C433 C 0.25478 0.40131 0.09060
 N434 N 0.28075 0.40189 0.08786
 N435 N 0.29210 0.38933 0.06864
 C436 C 0.27787 0.37564 0.05161
 N437 N 0.25199 0.37485 0.05465
 N438 N 0.24070 0.38738 0.07376
 C439 C 0.24151 0.41765 0.10932
 N440 N 0.21571 0.42070 0.10747
 N441 N 0.20344 0.43731 0.12240
 C442 C 0.21643 0.45141 0.13994
 N443 N 0.24223 0.44809 0.14223
 N444 N 0.25460 0.43155 0.12707
 C445 C 0.74462 0.59555 0.08847
 N446 N 0.75819 0.60810 0.07020
 N447 N 0.74626 0.62023 0.05126
 C448 C 0.72024 0.62040 0.04983
 N449 N 0.70654 0.60798 0.06821
 N450 N 0.71852 0.59581 0.08726
 C451 C 0.75845 0.58006 0.10747
 N452 N 0.74600 0.56740 0.12657
 N453 N 0.75889 0.55177 0.14221
 C454 C 0.78458 0.54818 0.13912
 N455 N 0.79692 0.56106 0.12022
 N456 N 0.78414 0.57674 0.10479
 C457 C 0.74285 0.40572 0.91371
 N458 N 0.75662 0.39332 0.93192
 N459 N 0.74490 0.38115 0.95098
 C460 C 0.71890 0.38077 0.95260
 N461 N 0.70498 0.39302 0.93428
 N462 N 0.71677 0.40524 0.91511
 C463 C 0.75647 0.42123 0.89457
 N464 N 0.74386 0.43384 0.87557
 N465 N 0.75660 0.44944 0.85976
 C466 C 0.78232 0.45304 0.86257
 N467 N 0.79482 0.44021 0.88137
 N468 N 0.78219 0.42456 0.89697
 C469 C 0.25651 0.59709 0.90779
 N470 N 0.28245 0.59581 0.91053
 N471 N 0.29411 0.60813 0.92972
 C472 C 0.28022 0.62225 0.94670
 N473 N 0.25439 0.62375 0.94365
 N474 N 0.24279 0.61147 0.92457
 C475 C 0.24276 0.58102 0.88918
 N476 N 0.21685 0.57897 0.89100
 N477 N 0.20403 0.56260 0.87631
 C478 C 0.21653 0.54773 0.85903
 N479 N 0.24245 0.55005 0.85674
 N480 N 0.25538 0.56636 0.87167
 C481 C 0.09088 0.25615 0.40285
 N482 N 0.08834 0.28199 0.40408
 N483 N 0.06926 0.29372 0.39168
 C484 C 0.05220 0.28001 0.37750
 N485 N 0.05505 0.25428 0.37604
 N486 N 0.07402 0.24260 0.38842
 C487 C 0.10932 0.24238 0.41904
 N488 N 0.10695 0.21670 0.42165
 N489 N 0.12161 0.20394 0.43809
 C490 C 0.13942 0.21630 0.45244
 N491 N 0.14225 0.24197 0.44956
 N492 N 0.12733 0.25484 0.43322
 C493 C 0.09089 0.74250 0.59769
 N494 N 0.07389 0.75595 0.61208
 N495 N 0.05458 0.74424 0.62392
 C496 C 0.05151 0.71857 0.62195
 N497 N 0.06869 0.70495 0.60779
 N498 N 0.08810 0.71671 0.59591
 C499 C 0.10984 0.75636 0.58213
 N500 N 0.12755 0.74395 0.56750
 N501 N 0.14281 0.75698 0.55158
 C502 C 0.14066 0.78281 0.54962
 N503 N 0.12320 0.79512 0.56447
 N504 N 0.10818 0.78217 0.58047
 C505 C 0.90871 0.74754 0.39871
 N506 N 0.91151 0.72171 0.39907
 N507 N 0.93082 0.71057 0.38641
 C508 C 0.94787 0.72488 0.37282
 N509 N 0.94473 0.75061 0.37219
 N510 N 0.92552 0.76170 0.38482
 C511 C 0.89008 0.76057 0.41539
 N512 N 0.89207 0.78619 0.41884
 N513 N 0.87733 0.79820 0.43584
 C514 C 0.85983 0.78512 0.44994
 N515 N 0.85738 0.75951 0.44620
 N516 N 0.87237 0.74740 0.42929
 C517 C 0.91044 0.25503 0.59591
 N518 N 0.92841 0.24136 0.60878
 N519 N 0.94732 0.25305 0.62126
 C520 C 0.94902 0.27892 0.62149
 N521 N 0.93091 0.29274 0.60882
 N522 N 0.91189 0.28099 0.59629
 C523 C 0.89165 0.24143 0.57988
 N524 N 0.87302 0.25399 0.56663
 N525 N 0.85768 0.24131 0.55050
 C526 C 0.86061 0.21571 0.54696
 N527 N 0.87902 0.20326 0.56042
 N528 N 0.89415 0.21583 0.57661
 C529 C 0.40001 0.08948 0.25399
 N530 N 0.38597 0.07263 0.24004
 N531 N 0.37349 0.05358 0.25140
 C532 C 0.37446 0.05062 0.27721
 N533 N 0.38828 0.06763 0.29131
 N534 N 0.40078 0.08679 0.27989
 C535 C 0.41624 0.10818 0.24061
 N536 N 0.43041 0.12583 0.25352
 N537 N 0.44687 0.14094 0.24099
 C538 C 0.44983 0.13868 0.21519
 N539 N 0.43545 0.12125 0.20238
 N540 N 0.41892 0.10638 0.21481
 C541 C 0.60155 0.09307 0.74562
 N542 N 0.61585 0.07663 0.75976
 N543 N 0.62838 0.05744 0.74864
 C544 C 0.62721 0.05392 0.72290
 N545 N 0.61320 0.07058 0.70861
 N546 N 0.60065 0.08989 0.71977
 C547 C 0.58500 0.11166 0.75880
 N548 N 0.57080 0.12915 0.74572
 N549 N 0.55400 0.14409 0.75804
 C550 C 0.55067 0.14179 0.78379
 N551 N 0.56507 0.12452 0.79677
 N552 N 0.58195 0.10984 0.78455
 C553 C 0.40708 0.91334 0.74326
 N554 N 0.40766 0.91471 0.71723
 N555 N 0.39569 0.93371 0.70501
 C556 C 0.38267 0.95189 0.71842
 N557 N 0.38198 0.95030 0.74436
 N558 N 0.39389 0.93140 0.75651
 C559 C 0.42236 0.89445 0.75743
 N560 N 0.42448 0.89676 0.78323
 N561 N 0.44004 0.88154 0.79640
 C562 C 0.45401 0.86323 0.78436
 N563 N 0.45161 0.86048 0.75855
 N564 N 0.43609 0.87591 0.74527
 C565 C 0.59619 0.90834 0.25713
 N566 N 0.59491 0.91141 0.28298
 N567 N 0.60730 0.93068 0.29438
 C568 C 0.62148 0.94741 0.28032
 N569 N 0.62297 0.94405 0.25458
 N570 N 0.61062 0.92489 0.24323
 C571 C 0.58007 0.88960 0.24363
 N572 N 0.57792 0.89115 0.21778
 N573 N 0.56155 0.87627 0.20516
 C574 C 0.54680 0.85906 0.21783
 N575 N 0.54922 0.85704 0.24370
 N576 N 0.56551 0.87217 0.25642
 C577 C 0.39892 0.25061 0.91834
 N578 N 0.39045 0.27508 0.91594
 N579 N 0.37873 0.28676 0.93554
 C580 C 0.37511 0.27449 0.95830
 N581 N 0.38368 0.25003 0.96035
 N582 N 0.39516 0.23834 0.94086
 C583 C 0.41356 0.23754 0.89807
 N584 N 0.42107 0.21304 0.90200
 N585 N 0.43627 0.20122 0.88531
 C586 C 0.44460 0.21336 0.86393
 N587 N 0.43681 0.23782 0.85962
 N588 N 0.42152 0.24973 0.87645
 C589 C 0.60057 0.75224 0.92264
 N590 N 0.60883 0.72778 0.91964
 N591 N 0.62057 0.71564 0.93888
 C592 C 0.62455 0.72743 0.96184
 N593 N 0.61609 0.75189 0.96454
 N594 N 0.60451 0.76402 0.94542
 C595 C 0.58615 0.76575 0.90258
 N596 N 0.57799 0.78994 0.90717
 N597 N 0.56330 0.80211 0.89031
 C598 C 0.55620 0.79063 0.86811
 N599 N 0.56462 0.76649 0.86322
 N600 N 0.57936 0.75424 0.88020
 C601 C 0.39915 0.74900 0.07988
 N602 N 0.39078 0.72451 0.08234
 N603 N 0.37936 0.71266 0.06268
 C604 C 0.37590 0.72478 0.03983
 N605 N 0.38439 0.74927 0.03772
 N606 N 0.39561 0.76112 0.05724
 C607 C 0.41340 0.76226 0.10027
 N608 N 0.42123 0.78664 0.09617
 N609 N 0.43596 0.79863 0.11313
 C610 C 0.44347 0.78679 0.13497
 N611 N 0.43537 0.76246 0.13942
 N612 N 0.42057 0.75037 0.12232
 C613 C 0.60109 0.24818 0.08087
 N614 N 0.60879 0.27286 0.08357
 N615 N 0.62060 0.28491 0.06429
 C616 C 0.62517 0.27281 0.04160
 N617 N 0.61732 0.24813 0.03922
 N618 N 0.60569 0.23608 0.05838
 C619 C 0.58638 0.23480 0.10083
 N620 N 0.57877 0.21039 0.09649
 N621 N 0.56364 0.19836 0.11308
 C622 C 0.55552 0.21019 0.13475
 N623 N 0.56342 0.23455 0.13943
 N624 N 0.57860 0.24667 0.12272
 C625 C 0.25041 0.07907 0.59940
 N626 N 0.27510 0.08188 0.60734
 N627 N 0.28728 0.06263 0.61897
 C628 C 0.27531 0.03984 0.62313
 N629 N 0.25064 0.03731 0.61496
 N630 N 0.23845 0.05645 0.60350
 C631 C 0.23681 0.09917 0.58518
 N632 N 0.21229 0.09491 0.57757
 N633 N 0.20002 0.11179 0.56302
 C634 C 0.21174 0.13368 0.55551
 N635 N 0.23622 0.13825 0.56338
 N636 N 0.24857 0.12126 0.57799
 C637 C 0.74938 0.08093 0.39761
 N638 N 0.76146 0.05831 0.39394
 N639 N 0.74935 0.03882 0.38300
 C640 C 0.72464 0.04097 0.37489
 N641 N 0.71256 0.06383 0.37841
 N642 N 0.72466 0.08343 0.38960
 C643 C 0.76288 0.10122 0.41175
 N644 N 0.75088 0.12297 0.41962
 N645 N 0.76314 0.13980 0.43454
 C646 C 0.78777 0.13540 0.44207
 N647 N 0.79973 0.11389 0.43382
 N648 N 0.78756 0.09718 0.41897
 C649 C 0.74809 0.91611 0.60222
 N650 N 0.72203 0.91634 0.60400
 N651 N 0.70988 0.93610 0.61480
 C652 C 0.72340 0.95625 0.62428
 N653 N 0.74941 0.95581 0.62267
 N654 N 0.76150 0.93613 0.61192
 C655 C 0.76178 0.89616 0.58779
 N656 N 0.78722 0.89906 0.58297
 N657 N 0.79959 0.88273 0.56779
 C658 C 0.78707 0.86272 0.55695
 N659 N 0.76168 0.85943 0.56212
 N660 N 0.74921 0.87593 0.57724
 C661 C 0.24845 0.91942 0.39914
 N662 N 0.27286 0.91676 0.39023
 N663 N 0.28451 0.93614 0.37822
 C664 C 0.27227 0.95890 0.37471
 N665 N 0.24785 0.96118 0.38368
 N666 N 0.23619 0.94194 0.39548
 C667 C 0.23550 0.89943 0.41414
 N668 N 0.21131 0.90383 0.42272
 N669 N 0.19966 0.88723 0.43809
 C670 C 0.21168 0.86549 0.44550
 N671 N 0.23582 0.86076 0.43667
 N672 N 0.24757 0.87748 0.42124
 C673 C 0.07839 0.39803 0.75213
 N674 N 0.05587 0.39394 0.76447
 N675 N 0.03655 0.38216 0.75277
 C676 C 0.03877 0.37365 0.72823
 N677 N 0.06148 0.37776 0.71588
 N678 N 0.08092 0.38970 0.72757
 C679 C 0.09862 0.41273 0.76514
 N680 N 0.12068 0.41976 0.75304
 N681 N 0.13775 0.43480 0.76485
 C682 C 0.13329 0.44328 0.78911
 N683 N 0.11142 0.43593 0.80118
 N684 N 0.09448 0.42095 0.78946
 C685 C 0.08561 0.60420 0.25147
 N686 N 0.06582 0.61434 0.23800
 N687 N 0.04621 0.62543 0.24999
 C688 C 0.04560 0.62693 0.27595
 N689 N 0.06554 0.61702 0.28952
 N690 N 0.08525 0.60590 0.27748
 C691 C 0.10536 0.58934 0.23789
 N692 N 0.12559 0.57870 0.25044
 N693 N 0.14190 0.56328 0.23809
 C694 C 0.13839 0.55785 0.21284
 N695 N 0.11836 0.56875 0.20033
 N696 N 0.10224 0.58425 0.21258
 C697 C 0.92013 0.40089 0.25180
 N698 N 0.91744 0.39260 0.27634
 N699 N 0.93701 0.38118 0.28834
 C700 C 0.96000 0.37768 0.27632
 N701 N 0.96236 0.38614 0.25180
 N702 N 0.94291 0.39731 0.23980
 C703 C 0.89983 0.41506 0.23835
 N704 N 0.90392 0.42218 0.21371
 N705 N 0.88717 0.43695 0.20152
 C706 C 0.86556 0.44522 0.21344
 N707 N 0.86110 0.43782 0.23804
 N708 N 0.87799 0.42296 0.25032
 C709 C 0.91814 0.59870 0.74761
 N710 N 0.91552 0.60678 0.72298
 N711 N 0.93513 0.61811 0.71091
 C712 C 0.95809 0.62172 0.72293
 N713 N 0.96035 0.61353 0.74754
 N714 N 0.94087 0.60244 0.75961
 C715 C 0.89786 0.58456 0.76118
 N716 N 0.90206 0.57748 0.78581
 N717 N 0.88534 0.56278 0.79815
 C718 C 0.86364 0.55454 0.78642
 N719 N 0.85908 0.56189 0.76183
 N720 N 0.87594 0.57667 0.74939
 C721 C 0.74660 0.60305 0.91636
 N722 N 0.72053 0.60463 0.91666
 N723 N 0.70837 0.61552 0.93640
 C724 C 0.72187 0.62531 0.95645
 N725 N 0.74789 0.62393 0.95591
 N726 N 0.76001 0.61307 0.93626
 C727 C 0.76032 0.58843 0.89653
 N728 N 0.78575 0.58365 0.89951
 N729 N 0.79811 0.56829 0.88335
 C730 C 0.78559 0.55721 0.86343
 N731 N 0.76022 0.56234 0.86006
 N732 N 0.74776 0.57764 0.87640
 C733 C 0.24964 0.39770 0.91954
 N734 N 0.23760 0.39398 0.94224
 N735 N 0.24957 0.38251 0.96151
 C736 C 0.27411 0.37394 0.95907
 N737 N 0.28614 0.37752 0.93614
 N738 N 0.27417 0.38920 0.91674
 C739 C 0.23633 0.41235 0.89952
 N740 N 0.24816 0.41957 0.87742
 N741 N 0.23609 0.43474 0.86069
 C742 C 0.21185 0.44319 0.86558
 N743 N 0.20005 0.43564 0.88747
 N744 N 0.21202 0.42053 0.90406
 C745 C 0.25257 0.59993 0.07913
 N746 N 0.27701 0.60870 0.08182
 N747 N 0.28889 0.62025 0.06226
 C748 C 0.27686 0.62343 0.03928
 N749 N 0.25245 0.61449 0.03693
 N750 N 0.24056 0.60317 0.05637
 C751 C 0.23925 0.58570 0.09947
 N752 N 0.21475 0.57794 0.09533
 N753 N 0.20268 0.56325 0.11225
 C754 C 0.21457 0.55570 0.13407
 N755 N 0.23902 0.56372 0.13855
 N756 N 0.25118 0.57850 0.12151
 C757 C 0.74654 0.39817 0.08561
 N758 N 0.75968 0.38791 0.06563
 N759 N 0.74730 0.37708 0.04616
 C760 C 0.72127 0.37596 0.04590
 N761 N 0.70802 0.38597 0.06602
 N762 N 0.72045 0.39685 0.08558
 C763 C 0.76057 0.41276 0.10518
 N764 N 0.74833 0.42377 0.12542
 N765 N 0.76111 0.43903 0.14152
 C766 C 0.78650 0.44390 0.13779
 N767 N 0.79869 0.43262 0.11777
 N768 N 0.78601 0.41730 0.10185
 C769 C 0.91913 0.74683 0.59971
 N770 N 0.91630 0.72229 0.60780
 N771 N 0.93575 0.71015 0.61929
 C772 C 0.95875 0.72202 0.62307
 N773 N 0.96121 0.74656 0.61487
 N774 N 0.94189 0.75869 0.60361
 C775 C 0.89902 0.76042 0.58537
 N776 N 0.90345 0.78489 0.57805
 N777 N 0.88684 0.79721 0.56322
 C778 C 0.86504 0.78561 0.55508
 N779 N 0.86026 0.76118 0.56267
 N780 N 0.87700 0.74877 0.57757
 C781 C 0.91951 0.25184 0.39802
 N782 N 0.91691 0.27648 0.39016
 N783 N 0.93653 0.28861 0.37892
 C784 C 0.95949 0.27664 0.37519
 N785 N 0.96174 0.25200 0.38316
 N786 N 0.94224 0.23988 0.39416
 C787 C 0.89924 0.23828 0.41218
 N788 N 0.90345 0.21372 0.41929
 N789 N 0.88676 0.20146 0.43412
 C790 C 0.86510 0.21322 0.44245
 N791 N 0.86052 0.23773 0.43504
 N792 N 0.87734 0.25008 0.42014
 C793 C 0.08251 0.25182 0.60330
 N794 N 0.08248 0.27775 0.60508
 N795 N 0.06282 0.28997 0.61610
 C796 C 0.04260 0.27665 0.62582
 N797 N 0.04287 0.25076 0.62422
 N798 N 0.06243 0.23860 0.61324
 C799 C 0.10229 0.23806 0.58863
 N800 N 0.09899 0.21285 0.58354
 N801 N 0.11519 0.20045 0.56822
 C802 C 0.13549 0.21272 0.55751
 N803 N 0.13917 0.23788 0.56294
 N804 N 0.12279 0.25037 0.57819
 C805 C 0.07999 0.75211 0.39892
 N806 N 0.05751 0.76439 0.39467
 N807 N 0.03834 0.75277 0.38257
 C808 C 0.04071 0.72836 0.37390
 N809 N 0.06338 0.71607 0.37816
 N810 N 0.08267 0.72769 0.39042
 C811 C 0.10000 0.76502 0.41401
 N812 N 0.12203 0.75299 0.42115
 N813 N 0.13887 0.76469 0.43652
 C814 C 0.13418 0.78876 0.44525
 N815 N 0.11235 0.80075 0.43781
 N816 N 0.09563 0.78914 0.42249
 C817 C 0.60310 0.92248 0.75258
 N818 N 0.60726 0.94511 0.76449
 N819 N 0.61889 0.96418 0.75233
 C820 C 0.62716 0.96157 0.72772
 N821 N 0.62298 0.93875 0.71582
 N822 N 0.61120 0.91957 0.72797
 C823 C 0.58848 0.90253 0.76602
 N824 N 0.58139 0.88041 0.75426
 N825 N 0.56632 0.86360 0.76635
 C826 C 0.55787 0.86840 0.79056
 N827 N 0.56528 0.89032 0.80231
 N828 N 0.58030 0.90701 0.79030
 C829 C 0.39603 0.91845 0.24987
 N830 N 0.39242 0.94099 0.23768
 N831 N 0.38100 0.96041 0.24947
 C832 C 0.37235 0.95828 0.27397
 N833 N 0.37584 0.93552 0.28617
 N834 N 0.38748 0.91597 0.27438
 C835 C 0.41067 0.89825 0.23676
 N836 N 0.41817 0.87648 0.24886
 N837 N 0.43346 0.85967 0.23698
 C838 C 0.44173 0.86414 0.21264
 N839 N 0.43387 0.88569 0.20057
 N840 N 0.41865 0.90236 0.21236
 C841 C 0.59963 0.07904 0.25095
 N842 N 0.60303 0.05619 0.23924
 N843 N 0.61438 0.03699 0.25139
 C844 C 0.62316 0.03966 0.27578
 N845 N 0.61985 0.06273 0.28750
 N846 N 0.60828 0.08205 0.27535
 C847 C 0.58522 0.09907 0.23741
 N848 N 0.57790 0.12119 0.24906
 N849 N 0.56291 0.13792 0.23677
 C850 C 0.55476 0.13303 0.21248
 N851 N 0.56242 0.11113 0.20087
 N852 N 0.57734 0.09452 0.21306
 C853 C 0.39994 0.08485 0.74515
 N854 N 0.38980 0.06492 0.75831
 N855 N 0.37909 0.04536 0.74602
 C856 C 0.37798 0.04496 0.72004
 N857 N 0.38788 0.06504 0.70676
 N858 N 0.39863 0.08469 0.71912
 C859 C 0.41436 0.10460 0.75911
 N860 N 0.42507 0.12492 0.74687
 N861 N 0.44012 0.14126 0.75961
 C862 C 0.44507 0.13768 0.78494
 N863 N 0.43410 0.11757 0.79712
 N864 N 0.41898 0.10141 0.78449
 C865 C 0.59934 0.74544 0.09377
 N866 N 0.59822 0.71968 0.09049
 N867 N 0.61071 0.70852 0.07110
 C868 C 0.62486 0.72273 0.05445
 N869 N 0.62625 0.74838 0.05806
 N870 N 0.61379 0.75948 0.07735
 C871 C 0.58285 0.75865 0.11244
 N872 N 0.58038 0.78441 0.11096
 N873 N 0.56350 0.79671 0.12559
 C874 C 0.54854 0.78380 0.14247
 N875 N 0.55130 0.75803 0.14445
 N876 N 0.56810 0.74563 0.12956
 C877 C 0.40182 0.25358 0.08985
 N878 N 0.38784 0.23988 0.07275
 N879 N 0.37557 0.25142 0.05366
 C880 C 0.37669 0.27718 0.05091
 N881 N 0.39046 0.29104 0.06818
 N882 N 0.40276 0.27944 0.08738
 C883 C 0.41778 0.24000 0.10865
 N884 N 0.43178 0.25266 0.12665
 N885 N 0.44793 0.23995 0.14191
 C886 C 0.45076 0.21421 0.13949
 N887 N 0.43656 0.20167 0.12170
 N888 N 0.42033 0.21428 0.10667
 C889 C 0.59992 0.25389 0.90970
 N890 N 0.61391 0.23986 0.92650
 N891 N 0.62629 0.25106 0.94576
 C892 C 0.62527 0.27678 0.94897
 N893 N 0.61154 0.29095 0.93197
 N894 N 0.59915 0.27970 0.91260
 C895 C 0.58363 0.24072 0.89089
 N896 N 0.56984 0.25379 0.87306
 N897 N 0.55332 0.24154 0.85780
 C898 C 0.54986 0.21588 0.86008
 N899 N 0.56384 0.20291 0.87772
 N900 N 0.58045 0.21506 0.89274
 C901 C 0.40249 0.74625 0.90849
 N902 N 0.38795 0.75963 0.92541
 N903 N 0.37574 0.74782 0.94440
 C904 C 0.37748 0.72210 0.94721
 N905 N 0.39178 0.70856 0.93010
 N906 N 0.40402 0.72043 0.91101
 C907 C 0.41852 0.76018 0.88999
 N908 N 0.43319 0.74780 0.87231
 N909 N 0.44952 0.76081 0.85747
 C910 C 0.45187 0.78658 0.86001
 N911 N 0.43698 0.79886 0.87745
 N912 N 0.42057 0.78595 0.89206
 C913 C 0.74474 0.90995 0.40337
 N914 N 0.75859 0.92690 0.38937
 N915 N 0.74705 0.94589 0.37698
 C916 C 0.72116 0.94869 0.37800
 N917 N 0.70717 0.93158 0.39180
 N918 N 0.71876 0.91247 0.40421
 C919 C 0.75830 0.89122 0.41937
 N920 N 0.74552 0.87303 0.43296
 N921 N 0.75819 0.85770 0.44906
 C922 C 0.78398 0.86025 0.45224
 N923 N 0.79665 0.87825 0.43847
 N924 N 0.78409 0.89335 0.42230
 C925 C 0.25616 0.90792 0.59954
 N926 N 0.28202 0.91111 0.59784
 N927 N 0.29350 0.93059 0.60979
 C928 C 0.27952 0.94744 0.62396
 N929 N 0.25377 0.94395 0.62589
 N930 N 0.24235 0.92456 0.61398
 C931 C 0.24256 0.88904 0.58369
 N932 N 0.21661 0.89040 0.58189
 N933 N 0.20391 0.87557 0.56554
 C934 C 0.21658 0.85862 0.55046
 N935 N 0.24255 0.85677 0.55256
 N936 N 0.25535 0.87184 0.56884
 C937 C 0.25232 0.09015 0.40139
 N938 N 0.23828 0.07326 0.38749
 N939 N 0.24963 0.05417 0.37503
 C940 C 0.27551 0.05121 0.37585
 N941 N 0.28969 0.06829 0.38951
 N942 N 0.27829 0.08749 0.40201
 C943 C 0.23900 0.10889 0.41765
 N944 N 0.25205 0.12664 0.43155
 N945 N 0.23964 0.14183 0.44804
 C946 C 0.21383 0.13956 0.45131
 N947 N 0.20087 0.12201 0.43720
 N948 N 0.21319 0.10706 0.42064
 C949 C 0.74525 0.08806 0.59382
 N950 N 0.71917 0.08660 0.59423
 N951 N 0.70741 0.06753 0.60656
 C952 C 0.72133 0.04937 0.61899
 N953 N 0.74733 0.05103 0.61866
 N954 N 0.75903 0.07000 0.60638
 C955 C 0.75886 0.10715 0.57823
 N956 N 0.78462 0.10496 0.57512
 N957 N 0.79724 0.12045 0.55935
 C958 C 0.78466 0.13893 0.54617
 N959 N 0.75888 0.14154 0.54955
 N960 N 0.74617 0.12583 0.56527
 C961 C 0.91324 0.59720 0.25344
 N962 N 0.93161 0.60944 0.23969
 N963 N 0.95060 0.62178 0.25141
 C964 C 0.95198 0.62247 0.27737
 N965 N 0.93349 0.61036 0.29123
 N966 N 0.91440 0.59799 0.27946
 C967 C 0.89416 0.58146 0.23995
 N968 N 0.87509 0.56902 0.25269
 N969 N 0.85935 0.55314 0.24020
 C970 C 0.86230 0.54907 0.21462
 N971 N 0.88117 0.56172 0.20196
 N972 N 0.89671 0.57766 0.21435
 C973 C 0.90692 0.39897 0.74822
 N974 N 0.90954 0.39942 0.72229
 N975 N 0.92876 0.38683 0.71093
 C976 C 0.94589 0.37322 0.72509
 N977 N 0.94292 0.37251 0.75093
 N978 N 0.92382 0.38508 0.76224
 C979 C 0.88835 0.41554 0.76146
 N980 N 0.89055 0.41904 0.78713
 N981 N 0.87582 0.43591 0.79929
 C982 C 0.85812 0.44983 0.78632
 N983 N 0.85548 0.44605 0.76067
 N984 N 0.87045 0.42927 0.74841
 C985 C 0.09001 0.59527 0.74373
 N986 N 0.08743 0.59391 0.71783
 N987 N 0.06812 0.60595 0.70609
 C988 C 0.05085 0.61986 0.71984
 N989 N 0.05370 0.62139 0.74564
 N990 N 0.07291 0.60939 0.75733
 C991 C 0.10893 0.57962 0.75751
 N992 N 0.10717 0.57763 0.78336
 N993 N 0.12225 0.56164 0.79619
 C994 C 0.13987 0.54712 0.78373
 N995 N 0.14209 0.54939 0.75786
 N996 N 0.12678 0.56532 0.74493
 C997 C 0.09187 0.40416 0.25619
 N998 N 0.08923 0.40525 0.28210
 N999 N 0.06993 0.39302 0.29371
 C1000 C 0.05275 0.37917 0.27981
 N1001 N 0.05570 0.37788 0.25400
 N1002 N 0.07488 0.39007 0.24245
 C1003 C 0.11067 0.42009 0.24253
 N1004 N 0.10862 0.42263 0.21675
 N1005 N 0.12362 0.43882 0.20406
 C1006 C 0.14146 0.45299 0.21658
 N1007 N 0.14396 0.45018 0.24237
 N1008 N 0.12871 0.43407 0.25516
   
