data_POSCAR
  _audit_creation_date              2014-09-24
  _audit_creation_method            'ToBaCCo'
  _symmetry_space_group_name_H-M    'P1'
  _symmetry_Int_Tables_number       1
  _symmetry_cell_setting            triclinic
  loop_
  _symmetry_equiv_pos_as_xyz
 x,y,z
_cell_length_a 39.4623
_cell_length_b 34.2775
_cell_length_c 20.1726
_cell_angle_alpha 89.564600
_cell_angle_beta 91.088700
_cell_angle_gamma 90.717200
loop_
  _atom_site_label
  _atom_site_type_symbol
  _atom_site_fract_x
  _atom_site_fract_y
  _atom_site_fract_z
C1 C 0.82662 0.21361 0.44174
 C2 C 0.83855 0.19929 0.50321
 C3 C 0.82576 0.21162 0.56417
 C4 C 0.79897 0.23919 0.56332
 C5 C 0.78668 0.25458 0.50190
 C6 C 0.80104 0.24247 0.44127
 C7 C 0.78999 0.26047 0.38184
 C8 C 0.76419 0.28750 0.38104
 C9 C 0.74851 0.29853 0.43969
 C10 C 0.75985 0.28229 0.50095
 C11 C 0.78455 0.25277 0.62212
 C12 C 0.75742 0.27816 0.62091
 C13 C 0.74413 0.29325 0.56097
 C14 C 0.71523 0.31802 0.55866
 C15 C 0.70529 0.33410 0.49701
 C16 C 0.72149 0.32507 0.43825
 H17 H 0.80139 0.25470 0.33477
 H18 H 0.75651 0.29931 0.33330
 H19 H 0.79375 0.24437 0.67072
 H20 H 0.74763 0.28572 0.66852
 H21 H 0.85555 0.17489 0.50334
 H22 H 0.68554 0.35572 0.49430
 C23 C 0.22800 0.82140 0.54643
 C24 C 0.20899 0.82680 0.48796
 C25 C 0.21795 0.80967 0.42814
 C26 C 0.24816 0.78783 0.42583
 C27 C 0.26752 0.78137 0.48502
 C28 C 0.25734 0.79823 0.54540
 C29 C 0.27656 0.79113 0.60338
 C30 C 0.30487 0.76753 0.60263
 C31 C 0.31511 0.74935 0.54398
 C32 C 0.29691 0.75765 0.48401
 C33 C 0.25934 0.77186 0.36635
 C34 C 0.28893 0.75022 0.36477
 C35 C 0.30784 0.74216 0.42312
 C36 C 0.33747 0.71933 0.42212
 C37 C 0.35438 0.71031 0.48195
 C38 C 0.34341 0.72394 0.54347
 H39 H 0.26982 0.80344 0.65046
 H40 H 0.31890 0.76466 0.64885
 H41 H 0.24547 0.77614 0.32016
 H42 H 0.29658 0.73972 0.31701
 H43 H 0.18713 0.84563 0.48859
 H44 H 0.37459 0.68943 0.48010
 C45 C 0.28758 0.30843 -0.55547
 C46 C 0.29482 0.32866 -0.49629
 C47 C 0.27974 0.31832 -0.43648
 C48 C 0.25527 0.28786 -0.43519
 C49 C 0.24896 0.26527 -0.49275
 C50 C 0.26533 0.27533 -0.55289
 C51 C 0.25971 0.25119 -0.60817
 C52 C 0.23806 0.21905 -0.60546
 C53 C 0.22108 0.20872 -0.54697
 C54 C 0.22601 0.23275 -0.49019
 C55 C 0.23606 0.28040 -0.37855
 C56 C 0.21245 0.25009 -0.37691
 C57 C 0.20752 0.22504 -0.43133
 C58 C 0.18365 0.19367 -0.42996
 C59 C 0.18144 0.16882 -0.48476
 C60 C 0.19874 0.17581 -0.54395
 H61 H 0.27251 0.25596 -0.65439
 H62 H 0.23475 0.20313 -0.65102
 H63 H 0.23835 0.29868 -0.33520
 H64 H 0.19820 0.24705 -0.33204
 H65 H 0.31151 0.35396 -0.49628
 H66 H 0.16769 0.14164 -0.47861
 C67 C -0.34427 0.72431 -0.44707
 C68 C -0.35760 0.71432 -0.50981
 C69 C -0.34099 0.72354 -0.56911
 C70 C -0.30941 0.74422 -0.56513
 C71 C -0.29576 0.75571 -0.50234
 C72 C -0.31339 0.74608 -0.44344
 C73 C -0.29999 0.75944 -0.38235
 C74 C -0.26933 0.77945 -0.37840
 C75 C -0.25102 0.78854 -0.43548
 C76 C -0.26434 0.77699 -0.49829
 C77 C -0.29132 0.75464 -0.62219
 C78 C -0.26039 0.77432 -0.61810
 C79 C -0.24636 0.78662 -0.55687
 C80 C -0.21476 0.80750 -0.55222
 C81 C -0.20211 0.81763 -0.48877
 C82 C -0.21966 0.80874 -0.43098
 H83 H -0.31313 0.75536 -0.33631
 H84 H -0.26024 0.78764 -0.32950
 H85 H -0.30065 0.74818 -0.67155
 H86 H -0.24789 0.77912 -0.66452
 H87 H -0.37908 0.69463 -0.51213
 H88 H -0.17950 0.83553 -0.48338
 O89 O -0.02291 0.97439 0.14472
 O90 O 0.04184 0.93464 -0.08098
 O91 O -0.06363 0.95087 -0.05355
 O92 O 0.05213 0.93062 0.03704
 O93 O -0.01751 0.92258 -0.07968
 O94 O 0.03698 0.95776 0.12883
 O95 O 0.08848 0.96307 -0.05061
 O96 O -0.05936 0.94994 0.07185
 C97 C -0.04758 0.95187 0.13004
 C98 C 0.07271 0.94099 -0.09304
 C99 C -0.04887 0.92238 -0.07804
 C100 C 0.04899 0.92883 0.09856
 O101 O 0.04624 1.03441 0.08358
 O102 O -0.02983 0.99501 -0.12770
 O103 O -0.05879 1.02521 0.07295
 O104 O 0.05866 1.02738 -0.03562
 O105 O 0.03086 1.00963 -0.12270
 O106 O -0.00949 1.04767 0.09851
 O107 O 0.08312 0.99355 0.06639
 O108 O -0.05641 1.02720 -0.05205
 Co109 Co 0.01218 1.00192 0.10591
 Co110 Co 0.00617 0.96722 -0.09359
 Co111 Co -0.05362 0.98801 0.00928
 Co112 Co 0.05342 0.97892 -0.00101
 O113 O 0.00226 0.98525 0.00806
 C114 C 0.07569 1.02424 0.09389
 C115 C -0.04787 1.02323 -0.11099
 C116 C -0.04050 1.05121 0.09827
 C117 C 0.04997 1.03389 -0.09391
 O118 O 0.46678 0.42635 0.07230
 O119 O 0.52661 0.43061 -0.11199
 O120 O 0.42257 0.46133 -0.05881
 O121 O 0.56541 0.47200 0.05814
 O122 O 0.46300 0.42317 -0.08853
 O123 O 0.52756 0.42859 0.07887
 O124 O 0.56488 0.46874 -0.06495
 O125 O 0.42582 0.46558 0.06102
 C126 C 0.43626 0.43257 0.07789
 C127 C 0.55696 0.43967 -0.10033
 C128 C 0.43234 0.42850 -0.07859
 C129 C 0.55782 0.43796 0.07605
 O130 O 0.52579 0.50181 0.12900
 O131 O 0.45472 0.49390 -0.13982
 O132 O 0.45264 0.53883 0.05079
 O133 O 0.54386 0.54049 -0.07559
 O134 O 0.51651 0.50342 -0.14824
 O135 O 0.46501 0.49873 0.12880
 O136 O 0.53856 0.54326 0.05151
 O137 O 0.44639 0.53702 -0.06765
 Co138 Co 0.49592 0.46542 0.09339
 Co139 Co 0.49031 0.46453 -0.11097
 Co140 Co 0.44154 0.49915 -0.00403
 Co141 Co 0.54744 0.50424 -0.00691
 O142 O 0.49419 0.48368 -0.00741
 C143 C 0.53453 0.53575 0.11143
 C144 C 0.44860 0.52841 -0.12678
 C145 C 0.45690 0.53238 0.11080
 C146 C 0.53350 0.53380 -0.13373
 C147 C 0.30110 0.32239 0.38403
 C148 C 0.33092 0.34475 0.37974
 C149 C 0.34379 0.36014 0.31617
 C150 C 0.37889 0.36312 0.30774
 C151 C 0.39205 0.37925 0.24976
 C152 C 0.37030 0.39341 0.19926
 C153 C 0.33513 0.39087 0.20793
 C154 C 0.32192 0.37396 0.26558
 C155 C 0.38412 0.41405 0.14074
 C156 C 0.41542 0.40443 0.11491
 H157 H 0.34736 0.34796 0.42296
 H158 H 0.39622 0.35317 0.34641
 H159 H 0.41929 0.38197 0.24577
 H160 H 0.31792 0.40228 0.17029
 H161 H 0.29472 0.37292 0.27148
 H162 H 0.37073 0.43918 0.12129
 H163 H 0.28862 0.31491 0.33768
 H164 H 0.42742 0.37764 0.13100
 C165 C -0.19712 0.82052 0.39077
 C166 C -0.16293 0.83243 0.39110
 C167 C -0.14580 0.85044 0.33330
 C168 C -0.11023 0.85270 0.33407
 C169 C -0.09296 0.87108 0.28242
 C170 C -0.11099 0.88784 0.22886
 C171 C -0.14647 0.88501 0.22731
 C172 C -0.16379 0.86694 0.27924
 C173 C -0.09368 0.90855 0.17424
 C174 C -0.06272 0.92815 0.18305
 H175 H -0.14710 0.82668 0.43433
 H176 H -0.09570 0.84030 0.37499
 H177 H -0.06554 0.87183 0.28442
 H178 H -0.16091 0.89776 0.18658
 H179 H -0.19116 0.86700 0.27720
 H180 H -0.10710 0.91129 0.12710
 H181 H -0.21021 0.82147 0.34366
 H182 H -0.05029 0.92849 0.23133
 C183 C 0.64544 0.70876 0.37013
 C184 C 0.61116 0.69833 0.36026
 C185 C 0.59785 0.67520 0.30338
 C186 C 0.56716 0.65462 0.31096
 C187 C 0.55438 0.63050 0.26065
 C188 C 0.57201 0.62661 0.20124
 C189 C 0.60179 0.64867 0.19215
 C190 C 0.61475 0.67262 0.24277
 C191 C 0.56019 0.59957 0.14853
 C192 C 0.54256 0.56500 0.16247
 H193 H 0.59294 0.70579 0.39739
 H194 H 0.55331 0.65655 0.35667
 H195 H 0.53073 0.61500 0.26846
 H196 H 0.61549 0.64667 0.14630
 H197 H 0.63781 0.68901 0.23385
 H198 H 0.56842 0.60506 0.09833
 H199 H 0.66227 0.70370 0.32986
 H200 H 0.53669 0.55747 0.21321
 C201 C 0.19382 1.14953 0.40240
 C202 C 0.16504 1.12534 0.39568
 C203 C 0.15771 1.09899 0.33933
 C204 C 0.12423 1.08550 0.33121
 C205 C 0.11481 1.06282 0.27704
 C206 C 0.13868 1.05296 0.22953
 C207 C 0.17269 1.06412 0.23925
 C208 C 0.18223 1.08720 0.29386
 C209 C 0.12692 1.03323 0.16855
 C210 C 0.09829 1.04763 0.13606
 H211 H 0.14434 1.12886 0.42937
 H212 H 0.10493 1.09342 0.36599
 H213 H 0.08853 1.05368 0.27133
 H214 H 0.19149 1.05627 0.20345
 H215 H 0.20853 1.09588 0.29967
 H216 H 0.13858 1.00644 0.15312
 H217 H 0.21178 1.14881 0.36304
 H218 H 0.08862 1.07559 0.15126
 C219 C 0.69629 0.32716 -0.38434
 C220 C 0.66208 0.33780 -0.38785
 C221 C 0.64172 0.34798 -0.32971
 C222 C 0.65605 0.36502 -0.27228
 C223 C 0.63525 0.37724 -0.22095
 C224 C 0.59979 0.37258 -0.22632
 C225 C 0.58583 0.35437 -0.28278
 C226 C 0.60648 0.34258 -0.33405
 C227 C 0.57608 0.38765 -0.17669
 C228 C 0.58399 0.41741 -0.13178
 H229 H 0.64832 0.33531 -0.43460
 H230 H 0.68311 0.37012 -0.26778
 H231 H 0.64704 0.39055 -0.17778
 H232 H 0.55865 0.35032 -0.28828
 H233 H 0.59480 0.32958 -0.37776
 H234 H 0.54980 0.37837 -0.18172
 H235 H 0.70705 0.32361 -0.33530
 H236 H 0.60978 0.42798 -0.12566
 C237 C 0.21677 0.84098 -0.39261
 C238 C 0.18255 0.84180 -0.37665
 C239 C 0.16874 0.86386 -0.32086
 C240 C 0.13409 0.87233 -0.32284
 C241 C 0.11941 0.89256 -0.27135
 C242 C 0.13900 0.90420 -0.21583
 C243 C 0.17383 0.89641 -0.21418
 C244 C 0.18862 0.87619 -0.26606
 C245 C 0.12360 0.92462 -0.15976
 C246 C 0.08963 0.91905 -0.14442
 H247 H 0.16452 0.82665 -0.40881
 H248 H 0.11830 0.86353 -0.36479
 H249 H 0.09278 0.89938 -0.27580
 H250 H 0.18945 0.90531 -0.17209
 H251 H 0.21532 0.86970 -0.26218
 H252 H 0.13942 0.94348 -0.12899
 H253 H 0.23553 0.85566 -0.36173
 H254 H 0.07422 0.89815 -0.17179
 C255 C 0.35824 0.70932 -0.39680
 C256 C 0.39016 0.69178 -0.39176
 C257 C 0.40225 0.66964 -0.33251
 C258 C 0.42792 0.64219 -0.34062
 C259 C 0.43844 0.61840 -0.28778
 C260 C 0.42346 0.62160 -0.22539
 C261 C 0.39931 0.65063 -0.21603
 C262 C 0.38870 0.67440 -0.26900
 C263 C 0.43211 0.59475 -0.16991
 C264 C 0.44191 0.55641 -0.18074
 H265 H 0.40683 0.69253 -0.43368
 H266 H 0.43935 0.63842 -0.38854
 H267 H 0.45820 0.59749 -0.29610
 H268 H 0.38796 0.65423 -0.16802
 H269 H 0.36996 0.69628 -0.25958
 H270 H 0.42800 0.60426 -0.11961
 H271 H 0.34337 0.70980 -0.35264
 H272 H 0.44374 0.54573 -0.23087
 C273 C -0.16195 1.19400 -0.37622
 C274 C -0.13039 1.17578 -0.37000
 C275 C -0.11881 1.15315 -0.31095
 C276 C -0.08480 1.14165 -0.30748
 C277 C -0.07296 1.11819 -0.25537
 C278 C -0.09500 1.10559 -0.20547
 C279 C -0.12871 1.11797 -0.20747
 C280 C -0.14071 1.14113 -0.26006
 C281 C -0.08345 1.07913 -0.15172
 C282 C -0.05960 1.05038 -0.16280
 H283 H -0.11230 1.17930 -0.40933
 H284 H -0.06731 1.15051 -0.34570
 H285 H -0.04654 1.11003 -0.25423
 H286 H -0.14608 1.10863 -0.16938
 H287 H -0.16724 1.14847 -0.26099
 H288 H -0.09566 1.08040 -0.10414
 H289 H -0.17704 1.19471 -0.33257
 H290 H -0.04966 1.04676 -0.21202
 C291 C 0.64026 0.70904 -0.38938
 C292 C 0.60636 0.69642 -0.38633
 C293 C 0.59274 0.67356 -0.32997
 C294 C 0.56446 0.64913 -0.34139
 C295 C 0.55235 0.62470 -0.29117
 C296 C 0.56840 0.62426 -0.22830
 C297 C 0.59537 0.65036 -0.21574
 C298 C 0.60746 0.67481 -0.26592
 C299 C 0.55806 0.59699 -0.17499
 C300 C 0.54101 0.56178 -0.18709
 H301 H 0.58918 0.70160 -0.42780
 H302 H 0.55219 0.64823 -0.38987
 H303 H 0.53054 0.60628 -0.30205
 H304 H 0.60763 0.65125 -0.16725
 H305 H 0.62826 0.69450 -0.25400
 H306 H 0.56636 0.60355 -0.12473
 H307 H 0.65587 0.70490 -0.34561
 H308 H 0.53362 0.55366 -0.23705
 C309 C 0.16282 1.18515 -0.37499
 C310 C 0.13116 1.16644 -0.38301
 C311 C 0.11106 1.14894 -0.32897
 C312 C 0.12550 1.13901 -0.26698
 C313 C 0.10693 1.11693 -0.22129
 C314 C 0.07357 1.10442 -0.23678
 C315 C 0.05888 1.11568 -0.29763
 C316 C 0.07739 1.13769 -0.34315
 C317 C 0.05480 1.07632 -0.19459
 C318 C 0.06335 1.06845 -0.12856
 H319 H 0.12032 1.16396 -0.43261
 H320 H 0.15163 1.14631 -0.25492
 H321 H 0.11955 1.10806 -0.17570
 H322 H 0.03334 1.10631 -0.31097
 H323 H 0.06572 1.14475 -0.39072
 H324 H 0.03433 1.05961 -0.21770
 H325 H 0.17034 1.19408 -0.32569
 H326 H 0.08178 1.08652 -0.10242
 C327 C 0.29041 0.34070 -0.37693
 C328 C 0.30186 0.32211 -0.31903
 C329 C 0.31754 0.34338 -0.26249
 C330 C 0.34031 0.32373 -0.22012
 C331 C 0.35787 0.34375 -0.16976
 C332 C 0.35279 0.38389 -0.16074
 C333 C 0.32824 0.40284 -0.20004
 C334 C 0.31079 0.38287 -0.25054
 C335 C 0.37408 0.40744 -0.11453
 C336 C 0.40785 0.39844 -0.10042
 H337 H 0.30206 0.29049 -0.31768
 H338 H 0.34536 0.29307 -0.22736
 H339 H 0.37570 0.32784 -0.13881
 H340 H 0.32347 0.43361 -0.19338
 H341 H 0.29237 0.39858 -0.28043
 H342 H 0.36505 0.43602 -0.10126
 H343 H 0.29432 0.37184 -0.38276
 H344 H 0.41806 0.37105 -0.11671
 C345 C -0.20566 0.82360 -0.36692
 C346 C -0.17142 0.81992 -0.34942
 C347 C -0.15561 0.83718 -0.28895
 C348 C -0.12423 0.82307 -0.26613
 C349 C -0.10721 0.84042 -0.21225
 C350 C -0.12108 0.87283 -0.18047
 C351 C -0.15295 0.88617 -0.20218
 C352 C -0.16999 0.86874 -0.25589
 C353 C -0.10263 0.89516 -0.12786
 C354 C -0.06805 0.89146 -0.11308
 H355 H -0.15549 0.80307 -0.38139
 H356 H -0.11261 0.79874 -0.29061
 H357 H -0.08312 0.82848 -0.19672
 H358 H -0.16426 0.91111 -0.17891
 H359 H -0.19374 0.88114 -0.27265
 H360 H -0.11598 0.91894 -0.10529
 H361 H -0.22274 0.83726 -0.33315
 H362 H -0.05351 0.86858 -0.13499
 C363 C 0.34973 0.70141 0.36025
 C364 C 0.38426 0.69707 0.34844
 C365 C 0.39719 0.67337 0.29375
 C366 C 0.42837 0.65462 0.30264
 C367 C 0.44046 0.62994 0.25387
 C368 C 0.42169 0.62399 0.19483
 C369 C 0.39143 0.64438 0.18438
 C370 C 0.37911 0.66869 0.23355
 C371 C 0.43276 0.59637 0.14396
 C372 C 0.44991 0.56220 0.16038
 H373 H 0.40258 0.70866 0.38407
 H374 H 0.44300 0.65829 0.34820
 H375 H 0.46443 0.61560 0.26249
 H376 H 0.37685 0.64071 0.13876
 H377 H 0.35555 0.68377 0.22420
 H378 H 0.42408 0.60090 0.09322
 H379 H 0.33127 0.68909 0.32584
 H380 H 0.45615 0.55557 0.21169
 C381 C -0.16178 1.19667 0.38238
 C382 C -0.13082 1.17741 0.37741
 C383 C -0.12045 1.15602 0.31768
 C384 C -0.14409 1.13956 0.27247
 C385 C -0.13312 1.11706 0.21947
 C386 C -0.09845 1.11079 0.21030
 C387 C -0.07491 1.12737 0.25559
 C388 C -0.08585 1.14964 0.30854
 C389 C -0.08764 1.08417 0.15720
 C390 C -0.05472 1.08448 0.13324
 H391 H -0.11220 1.17991 0.41732
 H392 H -0.17105 1.14278 0.27906
 H393 H -0.15180 1.10399 0.18614
 H394 H -0.04806 1.12206 0.25215
 H395 H -0.06716 1.16141 0.34324
 H396 H -0.10549 1.06210 0.13965
 H397 H -0.17711 1.19865 0.33770
 H398 H -0.03725 1.10764 0.14748
 C399 C 0.70949 0.34408 0.37599
 C400 C 0.67505 0.34492 0.35951
 C401 C 0.66083 0.36376 0.29914
 C402 C 0.62784 0.35336 0.27879
 C403 C 0.61228 0.37196 0.22483
 C404 C 0.62946 0.40157 0.18967
 C405 C 0.66257 0.41194 0.20983
 C406 C 0.67824 0.39316 0.26393
 C407 C 0.61212 0.42462 0.13695
 C408 C 0.58293 0.41112 0.10414
 H409 H 0.65757 0.32970 0.39183
 H410 H 0.61372 0.33121 0.30562
 H411 H 0.58628 0.36404 0.21300
 H412 H 0.67608 0.43517 0.18447
 H413 H 0.70338 0.40273 0.27918
 H414 H 0.62054 0.45446 0.12878
 H415 H 0.72796 0.35588 0.34214
 H416 H 0.57522 0.38086 0.10903
 C417 C 0.19534 0.81635 0.36937
 C418 C 0.16007 0.81469 0.37584
 C419 C 0.13536 0.83170 0.32791
 C420 C 0.14284 0.83908 0.26106
 C421 C 0.11931 0.85801 0.21945
 C422 C 0.08794 0.86998 0.24403
 C423 C 0.08026 0.86162 0.31018
 C424 C 0.10351 0.84231 0.35139
 C425 C 0.06449 0.89476 0.20457
 C426 C 0.06343 0.89559 0.13547
 H427 H 0.15019 0.80434 0.42267
 H428 H 0.16687 0.83077 0.24089
 H429 H 0.12638 0.86468 0.16902
 H430 H 0.05642 0.87077 0.33043
 H431 H 0.09704 0.83692 0.40264
 H432 H 0.04880 0.91484 0.23125
 H433 H 0.20649 0.82567 0.32328
 H434 H 0.07680 0.87382 0.10789
   
