data_POSCAR
  _audit_creation_date              2014-09-24
  _audit_creation_method            'ToBaCCo'
  _symmetry_space_group_name_H-M    'P1'
  _symmetry_Int_Tables_number       1
  _symmetry_cell_setting            triclinic
  loop_
  _symmetry_equiv_pos_as_xyz
 x,y,z
_cell_length_a 39.2138
_cell_length_b 11.2220
_cell_length_c 13.3063
_cell_angle_alpha 90.450800
_cell_angle_beta 89.913100
_cell_angle_gamma 89.399700
loop_
  _atom_site_label
  _atom_site_type_symbol
  _atom_site_fract_x
  _atom_site_fract_y
  _atom_site_fract_z
C1 C 0.81377 0.17663 0.40877
 C2 C 0.83085 0.16691 0.50098
 C3 C 0.81351 0.17362 0.59322
 C4 C 0.77723 0.16902 0.59307
 C5 C 0.75926 0.16852 0.50035
 C6 C 0.77750 0.17225 0.40798
 C7 C 0.75900 0.16281 0.31780
 C8 C 0.72362 0.16438 0.31721
 C9 C 0.70494 0.16486 0.40713
 C10 C 0.72285 0.16349 0.49993
 C11 C 0.75843 0.15731 0.68236
 C12 C 0.72307 0.15942 0.68235
 C13 C 0.70445 0.15965 0.59223
 C14 C 0.66812 0.16395 0.59093
 C15 C 0.65142 0.17519 0.49851
 C16 C 0.66886 0.16947 0.40721
 H17 H 0.77148 0.15144 0.24600
 H18 H 0.71128 0.16568 0.24479
 H19 H 0.77061 0.14428 0.75409
 H20 H 0.71093 0.16340 0.75493
 H21 H 0.85850 0.17023 0.50120
 H22 H 0.62374 0.17896 0.49685
 C23 C 0.19057 0.81158 0.58690
 C24 C 0.17382 0.81161 0.49444
 C25 C 0.19151 0.82065 0.40369
 C26 C 0.22730 0.83757 0.40526
 C27 C 0.24481 0.84002 0.49878
 C28 C 0.22636 0.82733 0.58989
 C29 C 0.24421 0.83094 0.68112
 C30 C 0.27951 0.83797 0.68321
 C31 C 0.29863 0.85252 0.59469
 C32 C 0.28094 0.85306 0.50108
 C33 C 0.24600 0.85358 0.31646
 C34 C 0.28132 0.86196 0.31824
 C35 C 0.29937 0.86131 0.40940
 C36 C 0.33540 0.86336 0.41152
 C37 C 0.35234 0.85625 0.50336
 C38 C 0.33496 0.85644 0.59542
 H39 H 0.23127 0.82680 0.75262
 H40 H 0.29129 0.82692 0.75559
 H41 H 0.23366 0.85950 0.24416
 H42 H 0.29419 0.86680 0.24666
 H43 H 0.14651 0.79708 0.49288
 H44 H 0.38003 0.85789 0.50283
 C45 C 0.16837 0.32911 -0.40739
 C46 C 0.15117 0.31837 -0.49923
 C47 C 0.16727 0.33768 -0.59169
 C48 C 0.20336 0.35022 -0.59380
 C49 C 0.22207 0.34713 -0.50222
 C50 C 0.20454 0.33928 -0.40862
 C51 C 0.22398 0.33149 -0.32017
 C52 C 0.25926 0.33819 -0.32218
 C53 C 0.27721 0.34074 -0.41334
 C54 C 0.25854 0.34661 -0.50449
 C55 C 0.22168 0.35619 -0.68458
 C56 C 0.25696 0.36300 -0.68596
 C57 C 0.27622 0.34977 -0.59790
 C58 C 0.31259 0.34475 -0.59966
 C59 C 0.33018 0.34698 -0.50796
 C60 C 0.31333 0.33804 -0.41585
 H61 H 0.21262 0.31486 -0.24795
 H62 H 0.27218 0.33978 -0.25061
 H63 H 0.20946 0.35144 -0.75685
 H64 H 0.26873 0.37918 -0.75781
 H65 H 0.12365 0.30860 -0.49826
 H66 H 0.35784 0.34233 -0.50806
 C67 C -0.30991 0.67837 -0.41147
 C68 C -0.32718 0.67136 -0.50356
 C69 C -0.31004 0.67860 -0.59595
 C70 C -0.27376 0.67175 -0.59675
 C71 C -0.25558 0.66833 -0.50450
 C72 C -0.27362 0.67145 -0.41163
 C73 C -0.25490 0.65891 -0.32218
 C74 C -0.21952 0.65795 -0.32239
 C75 C -0.20106 0.65924 -0.41272
 C76 C -0.21917 0.66104 -0.50509
 C77 C -0.25516 0.66066 -0.68678
 C78 C -0.21980 0.66087 -0.68755
 C79 C -0.20096 0.65811 -0.59790
 C80 C -0.16461 0.66021 -0.59732
 C81 C -0.14774 0.66840 -0.50492
 C82 C -0.16500 0.66165 -0.41350
 H83 H -0.26722 0.64697 -0.25045
 H84 H -0.20699 0.65670 -0.25024
 H85 H -0.26750 0.64970 -0.75857
 H86 H -0.20785 0.66578 -0.76025
 H87 H -0.35483 0.67650 -0.50320
 H88 H -0.12006 0.67047 -0.50363
 N89 N 0.02871 1.22217 -0.10823
 N90 N 0.05413 1.29842 -0.11378
 N91 N -0.03902 1.10599 -0.17888
 N92 N -0.06653 1.10004 -0.23555
 N93 N -0.04288 1.18731 -0.10814
 N94 N -0.07338 1.23795 -0.11421
 N95 N 0.03160 1.14060 -0.17914
 N96 N 0.05856 1.16004 -0.23564
 C97 C 0.07220 1.25889 -0.19451
 C98 C -0.08761 1.18315 -0.19468
 N99 N -0.02510 0.77085 -0.11002
 N100 N -0.05036 0.69402 -0.11630
 N101 N 0.04272 0.88703 -0.17965
 N102 N 0.07034 0.89204 -0.23613
 N103 N 0.04623 0.80518 -0.11034
 N104 N 0.07643 0.75261 -0.11757
 N105 N -0.02814 0.85256 -0.17966
 N106 N -0.05529 0.83325 -0.23543
 Mn107 Mn 0.00180 0.99649 -0.18043
 C108 C -0.06872 0.73400 -0.19553
 C109 C 0.09100 0.80740 -0.19674
 N110 N -0.04284 1.18789 0.10825
 N111 N -0.07311 1.24004 0.11600
 N112 N 0.03161 1.14177 0.17787
 N113 N 0.05803 1.16410 0.23590
 N114 N 0.02848 1.22318 0.10804
 N115 N 0.05301 1.30257 0.11612
 N116 N -0.03906 1.10660 0.17799
 N117 N -0.06643 1.10202 0.23551
 Mn118 Mn -0.00722 1.20696 -0.00006
 C119 C -0.08732 1.18604 0.19627
 C120 C 0.07098 1.26474 0.19686
 N121 N 0.04654 0.80631 0.10543
 N122 N 0.07742 0.75820 0.10910
 N123 N -0.02798 0.85253 0.17685
 N124 N -0.05484 0.83179 0.23356
 N125 N -0.02494 0.77105 0.10595
 N126 N -0.04998 0.69344 0.11182
 N127 N 0.04286 0.88809 0.17594
 N128 N 0.07095 0.89703 0.22979
 Mn129 Mn 0.01074 0.78659 -0.00221
 Mn130 Mn 0.00185 0.99716 0.17832
 Cl131 Cl 0.00178 0.99690 -0.00105
 C132 C 0.09214 0.81511 0.18765
 C133 C -0.06813 0.73208 0.19254
 N134 N 0.46071 0.40839 0.17500
 N135 N 0.43287 0.41715 0.23052
 N136 N 0.52863 0.28723 0.10514
 N137 N 0.55408 0.20931 0.11056
 N138 N 0.53158 0.36925 0.17546
 N139 N 0.55881 0.34896 0.23092
 N140 N 0.45709 0.32708 0.10441
 N141 N 0.42648 0.27935 0.10936
 C142 C 0.41188 0.33575 0.18903
 C143 C 0.57243 0.24879 0.19007
 N144 N 0.53183 0.36637 -0.18122
 N145 N 0.55857 0.34265 -0.23836
 N146 N 0.45749 0.32557 -0.11156
 N147 N 0.42741 0.27452 -0.11935
 N148 N 0.46104 0.40720 -0.18091
 N149 N 0.43355 0.41371 -0.23780
 N150 N 0.52875 0.28572 -0.11088
 N151 N 0.55361 0.20559 -0.11767
 Mn152 Mn 0.49292 0.30466 -0.00317
 C153 C 0.57172 0.24200 -0.19824
 C154 C 0.41293 0.33014 -0.19872
 N155 N 0.54241 0.62194 0.17622
 N156 N 0.56983 0.61468 0.23320
 N157 N 0.47497 0.74271 0.10597
 N158 N 0.45001 0.82259 0.11295
 N159 N 0.47168 0.66123 0.17553
 N160 N 0.44473 0.68370 0.23200
 N161 N 0.54636 0.70235 0.10608
 N162 N 0.57679 0.75112 0.11293
 Mn163 Mn 0.50158 0.51518 0.17666
 C164 C 0.59091 0.69609 0.19318
 C165 C 0.43161 0.78462 0.19253
 N166 N 0.47229 0.66010 -0.18098
 N167 N 0.44523 0.68144 -0.23686
 N168 N 0.54668 0.70107 -0.11030
 N169 N 0.57703 0.75051 -0.11727
 N170 N 0.54294 0.61954 -0.18070
 N171 N 0.57039 0.61218 -0.23794
 N172 N 0.47515 0.74136 -0.11000
 N173 N 0.44964 0.81909 -0.11474
 Mn174 Mn 0.50203 0.51328 -0.18210
 Mn175 Mn 0.51089 0.72368 -0.00208
 Cl176 Cl 0.50187 0.51424 -0.00271
 C177 C 0.43154 0.78106 -0.19517
 C178 C 0.59131 0.69469 -0.19783
 C179 C 0.33269 0.32770 0.31273
 C180 C 0.32375 0.26275 0.22779
 C181 C 0.35231 0.25749 0.16914
 C182 C 0.37667 0.31821 0.22244
 O183 O 0.36511 0.35980 0.30921
 H184 H 0.30033 0.21560 0.21316
 H185 H 0.35529 0.21186 0.09765
 C186 C -0.14358 0.65517 0.31652
 C187 C -0.14813 0.58476 0.23169
 C188 C -0.11987 0.60159 0.17348
 C189 C -0.10020 0.68059 0.22701
 O190 O -0.11414 0.71161 0.31365
 H191 H -0.16856 0.52360 0.21589
 H192 H -0.11430 0.56139 0.10100
 C193 C 0.66964 0.70144 0.31833
 C194 C 0.67854 0.77115 0.23693
 C195 C 0.65012 0.77830 0.17825
 C196 C 0.62582 0.71439 0.22840
 O197 O 0.63730 0.66893 0.31323
 H198 H 0.70200 0.81879 0.22455
 H199 H 0.64721 0.82663 0.10866
 C200 C 0.14573 1.34489 0.32346
 C201 C 0.14890 1.42205 0.24332
 C202 C 0.12081 1.40441 0.18476
 C203 C 0.10248 1.31848 0.23360
 O204 O 0.11711 1.28376 0.31779
 H205 H 0.16833 1.48768 0.23110
 H206 H 0.11444 1.44887 0.11527
 C207 C 0.64695 0.15891 -0.32346
 C208 C 0.65126 0.08654 -0.24048
 C209 C 0.62300 0.10536 -0.18197
 C210 C 0.60360 0.18727 -0.23366
 O211 O 0.61766 0.21824 -0.31941
 H212 H 0.67157 0.02320 -0.22614
 H213 H 0.61730 0.06466 -0.11050
 C214 C 0.16921 0.78842 -0.32357
 C215 C 0.17638 0.70531 -0.25036
 C216 C 0.14810 0.70302 -0.19054
 C217 C 0.12561 0.78279 -0.23316
 O218 O 0.13817 0.83416 -0.31381
 H219 H 0.19900 0.64998 -0.24358
 H220 H 0.14402 0.64788 -0.12534
 C221 C 0.35554 0.85803 -0.31753
 C222 C 0.34904 0.91822 -0.22807
 C223 C 0.37738 0.90110 -0.17005
 C224 C 0.39895 0.83181 -0.22806
 O225 O 0.38610 0.80697 -0.31713
 H226 H 0.32715 0.97275 -0.20831
 H227 H 0.38162 0.93391 -0.09443
 C228 C -0.16635 1.19371 -0.32008
 C229 C -0.17549 1.26234 -0.23694
 C230 C -0.14710 1.26753 -0.17798
 C231 C -0.12259 1.20341 -0.22953
 O232 O -0.13392 1.15974 -0.31552
 H233 H -0.19905 1.31091 -0.22355
 H234 H -0.14435 1.31483 -0.10730
 C235 C 0.66990 0.70106 -0.32493
 C236 C 0.67886 0.77124 -0.24305
 C237 C 0.65048 0.77854 -0.18374
 C238 C 0.62617 0.71383 -0.23381
 O239 O 0.63759 0.66812 -0.31938
 H240 H 0.70237 0.81873 -0.23064
 H241 H 0.64765 0.82714 -0.11358
 C242 C 0.14778 1.33201 -0.31985
 C243 C 0.15324 1.39870 -0.23329
 C244 C 0.12510 1.38290 -0.17442
 C245 C 0.10456 1.30806 -0.22903
 O246 O 0.11790 1.27833 -0.31689
 H247 H 0.17421 1.45693 -0.21631
 H248 H 0.12021 1.42099 -0.10075
 C249 C 0.33499 0.31327 -0.32677
 C250 C 0.32890 0.22551 -0.25691
 C251 C 0.35702 0.22260 -0.19686
 C252 C 0.37855 0.30627 -0.23619
 O253 O 0.36547 0.36088 -0.31507
 H254 H 0.30711 0.16743 -0.25269
 H255 H 0.36172 0.16425 -0.13392
 C256 C -0.14343 0.65648 -0.32232
 C257 C -0.14546 0.57176 -0.24796
 C258 C -0.11762 0.58926 -0.18819
 C259 C -0.10062 0.68257 -0.23154
 O260 O -0.11600 0.72276 -0.31279
 H261 H -0.16441 0.50346 -0.24030
 H262 H -0.11032 0.53908 -0.12235
 C263 C 0.35728 0.86904 0.32098
 C264 C 0.35516 0.95397 0.24676
 C265 C 0.38298 0.93443 0.18654
 C266 C 0.39998 0.83967 0.22952
 O267 O 0.38466 0.80063 0.31097
 H268 H 0.33605 1.02309 0.23918
 H269 H 0.39016 0.98377 0.12035
 C270 C -0.16587 1.19901 0.32319
 C271 C -0.17461 1.27130 0.24297
 C272 C -0.14621 1.27630 0.18389
 C273 C -0.12209 1.20845 0.23263
 O274 O -0.13365 1.16285 0.31711
 H275 H -0.19802 1.32124 0.23153
 H276 H -0.14322 1.32530 0.11475
 C277 C 0.64744 0.16719 0.31549
 C278 C 0.64991 0.08423 0.23859
 C279 C 0.62202 0.10349 0.17923
 C280 C 0.60453 0.19607 0.22515
 O281 O 0.61968 0.23417 0.30767
 H282 H 0.66919 0.01579 0.22888
 H283 H 0.61502 0.05498 0.11186
 C284 C 0.17106 0.80417 0.31093
 C285 C 0.17959 0.72960 0.23143
 C286 C 0.15122 0.72553 0.17210
 C287 C 0.12741 0.79626 0.22067
 O288 O 0.13924 0.84362 0.30457
 H289 H 0.20296 0.67882 0.22085
 H290 H 0.14790 0.67400 0.10377
   
