data_POSCAR
  _audit_creation_date              2014-09-24
  _audit_creation_method            'ToBaCCo'
  _symmetry_space_group_name_H-M    'P1'
  _symmetry_Int_Tables_number       1
  _symmetry_cell_setting            triclinic
  loop_
  _symmetry_equiv_pos_as_xyz
 x,y,z
_cell_length_a 58.3158
_cell_length_b 49.2129
_cell_length_c 16.6524
_cell_angle_alpha 89.857500
_cell_angle_beta 90.089900
_cell_angle_gamma 89.970800
loop_
  _atom_site_label
  _atom_site_type_symbol
  _atom_site_fract_x
  _atom_site_fract_y
  _atom_site_fract_z
O1 O 0.23412 0.28048 0.13878
 O2 O 0.27749 0.22663 0.16351
 O3 O 0.23374 0.22772 0.12893
 O4 O 0.27788 0.27925 0.17177
 O5 O 0.26963 0.27675 0.30080
 O6 O 0.22534 0.22557 0.25775
 O7 O 0.26904 0.22383 0.29233
 O8 O 0.22597 0.27792 0.26789
 Cu9 Cu 0.25663 0.25375 0.13781
 Cu10 Cu 0.24675 0.25072 0.29265
 C11 C 0.22248 0.28826 0.19899
 C12 C 0.28079 0.21614 0.23236
 C13 C 0.22169 0.21808 0.18584
 C14 C 0.28139 0.28672 0.24371
 O15 O 0.77805 0.27197 0.32000
 O16 O 0.73404 0.22058 0.36704
 O17 O 0.77734 0.21930 0.32629
 O18 O 0.73491 0.27329 0.36296
 O19 O 0.72470 0.27210 0.23542
 O20 O 0.76712 0.21815 0.19877
 O21 O 0.72392 0.21974 0.23953
 O22 O 0.76772 0.27100 0.19257
 Cu23 Cu 0.75712 0.24640 0.35684
 Cu24 Cu 0.74491 0.24513 0.20376
 C25 C 0.78053 0.28012 0.24804
 C26 C 0.72112 0.21167 0.31141
 C27 C 0.77965 0.20966 0.25609
 C28 C 0.72227 0.28163 0.30574
 O29 O 0.76653 0.78156 0.81487
 O30 O 0.72410 0.72738 0.78086
 O31 O 0.76712 0.72878 0.82437
 O32 O 0.72331 0.77971 0.77405
 O33 O 0.73340 0.77796 0.64655
 O34 O 0.77743 0.72681 0.69729
 O35 O 0.73436 0.72532 0.65357
 O36 O 0.77673 0.77950 0.68756
 Cu37 Cu 0.74432 0.75456 0.81133
 Cu38 Cu 0.75654 0.75221 0.65852
 C39 C 0.77903 0.78966 0.75714
 C40 C 0.72170 0.71739 0.71104
 C41 C 0.77995 0.71914 0.76978
 C42 C 0.72054 0.78722 0.70168
 O43 O 0.27586 0.77390 0.81741
 O44 O 0.23280 0.72011 0.85031
 O45 O 0.27646 0.72113 0.81517
 O46 O 0.23240 0.77293 0.85522
 O47 O 0.22318 0.77350 0.72686
 O48 O 0.26756 0.72208 0.68642
 O49 O 0.22403 0.72108 0.72143
 O50 O 0.26656 0.77505 0.68901
 Cu51 Cu 0.25528 0.74691 0.84742
 Cu52 Cu 0.24451 0.74804 0.69301
 C53 C 0.27861 0.78361 0.74729
 C54 C 0.22087 0.71160 0.79152
 C55 C 0.27967 0.71286 0.74388
 C56 C 0.21997 0.78186 0.79817
 C57 C 1.00159 0.06881 0.07061
 C58 C 1.02191 0.05730 0.04126
 C59 C 1.02131 0.03084 0.00987
 C60 C 1.00104 0.01518 0.01170
 C61 C 0.98096 0.02725 0.04262
 C62 C 0.98092 0.05429 0.06942
 C63 C 1.00091 -0.01347 -0.01917
 C64 C 0.98054 -0.02560 -0.04775
 C65 C 0.98028 -0.05268 -0.07413
 C66 C 1.00093 -0.06720 -0.07737
 C67 C 1.02152 -0.05564 -0.05043
 C68 C 1.02120 -0.02912 -0.01941
 H69 H 1.00185 0.08908 0.09575
 H70 H 1.03670 0.02280 -0.01729
 H71 H 0.96512 0.01593 0.04516
 H72 H 0.96467 -0.01430 -0.04871
 H73 H 1.00097 -0.08753 -0.10215
 H74 H 1.03685 -0.02105 0.00595
 C75 C 0.50115 0.56804 0.57540
 C76 C 0.52174 0.55610 0.55028
 C77 C 0.52133 0.52957 0.51959
 C78 C 0.50094 0.51411 0.51846
 C79 C 0.48053 0.52662 0.54527
 C80 C 0.48038 0.55380 0.57098
 C81 C 0.50108 0.48525 0.48883
 C82 C 0.48091 0.47274 0.45970
 C83 C 0.48099 0.44557 0.43393
 C84 C 0.50181 0.43133 0.43185
 C85 C 0.52216 0.44325 0.45939
 C86 C 0.52148 0.46978 0.49002
 H87 H 0.50130 0.58841 0.59984
 H88 H 0.53705 0.52137 0.49540
 H89 H 0.46456 0.51558 0.54556
 H90 H 0.46494 0.48379 0.45764
 H91 H 0.50219 0.41097 0.40737
 H92 H 0.53699 0.47797 0.51598
 C93 C -0.00227 0.43143 0.07695
 C94 C -0.02303 0.44321 0.05259
 C95 C -0.02291 0.46971 0.02104
 C96 C -0.00256 0.48530 0.01824
 C97 C 0.01797 0.47293 0.04502
 C98 C 0.01839 0.44579 0.07122
 C99 C -0.00276 0.51406 -0.01320
 C100 C 0.01757 0.52675 -0.04019
 C101 C 0.01764 0.55392 -0.06631
 C102 C -0.00319 0.56801 -0.07145
 C103 C -0.02376 0.55585 -0.04706
 C104 C -0.02328 0.52933 -0.01576
 H105 H -0.00216 0.41105 0.10171
 H106 H -0.03881 0.47769 -0.00255
 H107 H 0.03394 0.48395 0.04474
 H108 H 0.03365 0.51594 -0.04018
 H109 H -0.00340 0.58843 -0.09587
 H110 H -0.03906 0.52109 0.00783
 C111 C 0.49725 0.93188 0.57017
 C112 C 0.47649 0.94629 0.56870
 C113 C 0.47654 0.97370 0.54462
 C114 C 0.49681 0.98628 0.51701
 C115 C 0.51713 0.97071 0.51505
 C116 C 0.51768 0.94389 0.54376
 C117 C 0.49698 1.01530 0.48912
 C118 C 0.51734 1.03070 0.49288
 C119 C 0.51841 1.05716 0.46164
 C120 C 0.49839 1.06904 0.43081
 C121 C 0.47747 1.05494 0.43099
 C122 C 0.47706 1.02783 0.45801
 H123 H 0.49750 0.91128 0.59321
 H124 H 0.46063 0.98493 0.54663
 H125 H 0.53265 0.97914 0.48983
 H126 H 0.53253 1.02234 0.52089
 H127 H 0.49916 1.08922 0.40496
 H128 H 0.46113 1.01671 0.45491
 C129 C 1.16609 0.16561 0.13459
 C130 C 1.17050 0.17394 0.21364
 C131 C 1.18925 0.19057 0.23092
 C132 C 1.20391 0.19964 0.16920
 C133 C 1.19973 0.19065 0.09018
 C134 C 1.18110 0.17370 0.07324
 C135 C 1.14536 0.14942 0.11600
 C136 C 1.14667 0.12631 0.06684
 C137 C 1.12698 0.11108 0.05009
 C138 C 1.10560 0.11900 0.08111
 C139 C 1.10431 0.14226 0.12957
 C140 C 1.12400 0.15722 0.14721
 C141 C 1.08467 0.10291 0.06457
 C142 C 1.06418 0.11598 0.04270
 C143 C 1.04401 0.10109 0.03249
 C144 C 1.04380 0.07281 0.04495
 C145 C 1.06450 0.05967 0.06473
 C146 C 1.08475 0.07456 0.07403
 H147 H 1.15931 0.16769 0.26213
 H148 H 1.19186 0.19684 0.29257
 H149 H 1.21062 0.19702 0.04098
 H150 H 1.17800 0.16760 0.01173
 H151 H 1.16297 0.11985 0.04233
 H152 H 1.12838 0.09327 0.01234
 H153 H 1.08808 0.14864 0.15485
 H154 H 1.12251 0.17510 0.18463
 H155 H 1.06377 0.13779 0.03384
 H156 H 1.02853 0.11180 0.01537
 H157 H 1.06492 0.03798 0.07578
 H158 H 1.10029 0.06404 0.09156
 C159 C 0.66591 0.66273 0.66221
 C160 C 0.66836 0.67458 0.73839
 C161 C 0.68695 0.69154 0.75515
 C162 C 0.70341 0.69719 0.69586
 C163 C 0.70133 0.68466 0.62039
 C164 C 0.68281 0.66751 0.60385
 C165 C 0.64524 0.64649 0.64267
 C166 C 0.64702 0.62201 0.59983
 C167 C 0.62736 0.60701 0.58095
 C168 C 0.60556 0.61640 0.60369
 C169 C 0.60382 0.64092 0.64622
 C170 C 0.62344 0.65575 0.66571
 C171 C 0.58462 0.60061 0.58441
 C172 C 0.56483 0.61385 0.55628
 C173 C 0.54463 0.59931 0.54290
 C174 C 0.54371 0.57120 0.55793
 C175 C 0.56373 0.55785 0.58402
 C176 C 0.58399 0.57239 0.59687
 H177 H 0.65574 0.67093 0.78483
 H178 H 0.68806 0.70083 0.81392
 H179 H 0.71373 0.68858 0.57346
 H180 H 0.68126 0.65877 0.54447
 H181 H 0.66363 0.61435 0.58167
 H182 H 0.62917 0.58823 0.54778
 H183 H 0.58726 0.64849 0.66530
 H184 H 0.62153 0.67471 0.69792
 H185 H 0.56496 0.63553 0.54484
 H186 H 0.52967 0.61011 0.52117
 H187 H 0.56353 0.53629 0.59715
 H188 H 0.59894 0.56172 0.61926
 C189 C -0.16427 0.33426 0.18668
 C190 C -0.18166 0.32862 0.13074
 C191 C -0.19985 0.31145 0.15114
 C192 C -0.20112 0.29978 0.22817
 C193 C -0.18408 0.30611 0.28486
 C194 C -0.16580 0.32307 0.26420
 C195 C -0.14413 0.35086 0.16338
 C196 C -0.12193 0.34231 0.18430
 C197 C -0.10282 0.35750 0.16127
 C198 C -0.10550 0.38170 0.11730
 C199 C -0.12771 0.39039 0.09676
 C200 C -0.14685 0.37501 0.11915
 C201 C -0.08509 0.39786 0.09422
 C202 C -0.08472 0.42615 0.10518
 C203 C -0.06478 0.44101 0.08945
 C204 C -0.04485 0.42790 0.06193
 C205 C -0.04559 0.39975 0.04790
 C206 C -0.06544 0.38489 0.06418
 H207 H -0.18082 0.33682 0.07041
 H208 H -0.21274 0.30700 0.10617
 H209 H -0.18457 0.29746 0.34469
 H210 H -0.15275 0.32734 0.30875
 H211 H -0.11932 0.32362 0.21759
 H212 H -0.08592 0.35049 0.17870
 H213 H -0.13023 0.40891 0.06261
 H214 H -0.16379 0.38212 0.10259
 H215 H -0.09957 0.43662 0.12885
 H216 H -0.06470 0.46260 0.10174
 H217 H -0.03071 0.38912 0.02504
 H218 H -0.06541 0.36318 0.05377
 C219 C 0.33215 0.84169 0.69994
 C220 C 0.33061 0.82884 0.77529
 C221 C 0.31285 0.81056 0.79158
 C222 C 0.29632 0.80459 0.73271
 C223 C 0.29746 0.81802 0.65828
 C224 C 0.31510 0.83643 0.64223
 C225 C 0.35209 0.85928 0.67999
 C226 C 0.36211 0.85800 0.60338
 C227 C 0.38160 0.87327 0.58534
 C228 C 0.39172 0.89008 0.64356
 C229 C 0.38144 0.89189 0.71967
 C230 C 0.36184 0.87664 0.73770
 C231 C 0.41337 0.90476 0.62541
 C232 C 0.41710 0.93143 0.65271
 C233 C 0.43757 0.94503 0.63477
 C234 C 0.45475 0.93217 0.58941
 C235 C 0.45097 0.90551 0.56242
 C236 C 0.43062 0.89197 0.58040
 H237 H 0.34359 0.83216 0.82077
 H238 H 0.31247 0.80048 0.84945
 H239 H 0.28485 0.81408 0.61193
 H240 H 0.31549 0.84638 0.58419
 H241 H 0.35527 0.84462 0.55776
 H242 H 0.38887 0.87174 0.52572
 H243 H 0.38889 0.90452 0.76600
 H244 H 0.35438 0.87834 0.79698
 H245 H 0.40408 0.94190 0.68708
 H246 H 0.44004 0.96548 0.65696
 H247 H 0.46370 0.89516 0.52639
 H248 H 0.42848 0.87131 0.55951
 C249 C -0.16651 0.66478 -0.16728
 C250 C -0.18188 0.67426 -0.10884
 C251 C -0.19976 0.69182 -0.12978
 C252 C -0.20278 0.70036 -0.20995
 C253 C -0.18768 0.69028 -0.26875
 C254 C -0.16976 0.67278 -0.24759
 C255 C -0.14674 0.64732 -0.14421
 C256 C -0.13968 0.62581 -0.19376
 C257 C -0.12050 0.61016 -0.17355
 C258 C -0.10793 0.61564 -0.10329
 C259 C -0.11524 0.63684 -0.05304
 C260 C -0.13439 0.65251 -0.07330
 C261 C -0.08684 0.59993 -0.08407
 C262 C -0.06733 0.61314 -0.05346
 C263 C -0.04707 0.59873 -0.03944
 C264 C -0.04580 0.57077 -0.05589
 C265 C -0.06546 0.55741 -0.08461
 C266 C -0.08575 0.57183 -0.09854
 H267 H -0.18008 0.66811 -0.04668
 H268 H -0.21106 0.69889 -0.08267
 H269 H -0.18936 0.69631 -0.33109
 H270 H -0.15806 0.66609 -0.29394
 H271 H -0.14897 0.62109 -0.24830
 H272 H -0.11518 0.59418 -0.21401
 H273 H -0.10610 0.64139 0.00195
 H274 H -0.13921 0.66911 -0.03424
 H275 H -0.06751 0.63481 -0.04237
 H276 H -0.03231 0.60954 -0.01631
 H277 H -0.06497 0.53593 -0.09847
 H278 H -0.10056 0.56099 -0.12111
 C279 C 0.33564 1.15894 0.26882
 C280 C 0.31869 1.16239 0.32776
 C281 C 0.30058 1.18055 0.31530
 C282 C 0.29891 1.19538 0.24325
 C283 C 0.31542 1.19113 0.18314
 C284 C 0.33367 1.17322 0.19601
 C285 C 0.35607 1.14189 0.28538
 C286 C 0.37809 1.15199 0.26892
 C287 C 0.39753 1.13698 0.28973
 C288 C 0.39537 1.11142 0.32660
 C289 C 0.37337 1.10088 0.34084
 C290 C 0.35387 1.11609 0.32099
 C291 C 0.41610 1.09655 0.35347
 C292 C 0.41906 1.06885 0.33622
 C293 C 0.43896 1.05521 0.36088
 C294 C 0.45613 1.06898 0.40421
 C295 C 0.45280 1.09659 0.42260
 C296 C 0.43313 1.11023 0.39703
 H297 H 0.31992 1.15180 0.38469
 H298 H 0.28809 1.18332 0.36265
 H299 H 0.31462 1.20224 0.12698
 H300 H 0.34642 1.17074 0.14938
 H301 H 0.38028 1.17191 0.24223
 H302 H 0.41432 1.14546 0.27767
 H303 H 0.37129 1.08127 0.36960
 H304 H 0.33707 1.10781 0.33391
 H305 H 0.40617 1.05792 0.30233
 H306 H 0.44105 1.03406 0.34480
 H307 H 0.46531 1.10768 0.45766
 H308 H 0.43105 1.13147 0.41235
 C309 C 1.16479 -0.16492 -0.15184
 C310 C 1.18020 -0.17240 -0.09086
 C311 C 1.19867 -0.18961 -0.10747
 C312 C 1.20229 -0.19951 -0.18583
 C313 C 1.18721 -0.19111 -0.24731
 C314 C 1.16861 -0.17419 -0.23031
 C315 C 1.14425 -0.14840 -0.13322
 C316 C 1.12265 -0.15631 -0.16229
 C317 C 1.10312 -0.14115 -0.14398
 C318 C 1.10481 -0.11759 -0.09695
 C319 C 1.12642 -0.10952 -0.06826
 C320 C 1.14596 -0.12493 -0.08569
 C321 C 1.08401 -0.10141 -0.07913
 C322 C 1.08399 -0.07309 -0.08951
 C323 C 1.06385 -0.05814 -0.07850
 C324 C 1.04335 -0.07119 -0.05610
 C325 C 1.04368 -0.09943 -0.04281
 C326 C 1.06374 -0.11438 -0.05468
 H327 H 1.17754 -0.16560 -0.02976
 H328 H 1.20988 -0.19544 -0.05847
 H329 H 1.18939 -0.19810 -0.30846
 H330 H 1.15711 -0.16843 -0.27856
 H331 H 1.12084 -0.17447 -0.19838
 H332 H 1.08669 -0.14766 -0.16748
 H333 H 1.12814 -0.09148 -0.03162
 H334 H 1.16244 -0.11837 -0.06285
 H335 H 1.09937 -0.06266 -0.10897
 H336 H 1.06415 -0.03650 -0.09022
 H337 H 1.02837 -0.11004 -0.02368
 H338 H 1.06342 -0.13615 -0.04502
 C339 C 0.66650 0.33619 0.35583
 C340 C 0.68324 0.33092 0.41458
 C341 C 0.70176 0.31378 0.39775
 C342 C 0.70398 0.30178 0.32161
 C343 C 0.68768 0.30792 0.26202
 C344 C 0.66910 0.32486 0.27905
 C345 C 0.64582 0.35240 0.37538
 C346 C 0.62406 0.34335 0.35097
 C347 C 0.60444 0.35823 0.36989
 C348 C 0.60612 0.38260 0.41322
 C349 C 0.62788 0.39175 0.43751
 C350 C 0.64754 0.37668 0.41921
 C351 C 0.58518 0.39852 0.43140
 C352 C 0.58471 0.42676 0.41918
 C353 C 0.56441 0.44140 0.43025
 C354 C 0.54419 0.42811 0.45427
 C355 C 0.54494 0.40000 0.46935
 C356 C 0.56518 0.38536 0.45775
 H357 H 0.68157 0.33927 0.47439
 H358 H 0.71405 0.30947 0.44491
 H359 H 0.68890 0.29905 0.20273
 H360 H 0.65661 0.32889 0.23233
 H361 H 0.62220 0.32454 0.31795
 H362 H 0.58792 0.35086 0.34963
 H363 H 0.62964 0.41040 0.47131
 H364 H 0.66412 0.38416 0.43845
 H365 H 0.59983 0.43737 0.39815
 H366 H 0.56435 0.46296 0.41719
 H367 H 0.52981 0.38925 0.48956
 H368 H 0.56518 0.36368 0.46897
 C369 C 0.83328 -0.15313 -0.19665
 C370 C 0.83111 -0.16543 -0.27239
 C371 C 0.81309 -0.18337 -0.28815
 C372 C 0.79689 -0.18953 -0.22842
 C373 C 0.79863 -0.17660 -0.15353
 C374 C 0.81658 -0.15855 -0.13791
 C375 C 0.85358 -0.13602 -0.17763
 C376 C 0.86430 -0.13813 -0.10222
 C377 C 0.88427 -0.12354 -0.08566
 C378 C 0.89413 -0.10658 -0.14420
 C379 C 0.88312 -0.10389 -0.21895
 C380 C 0.86306 -0.11846 -0.23549
 C381 C 0.91623 -0.09261 -0.12789
 C382 C 0.92014 -0.06584 -0.15432
 C383 C 0.94098 -0.05284 -0.13781
 C384 C 0.95833 -0.06638 -0.09474
 C385 C 0.95443 -0.09320 -0.06899
 C386 C 0.93370 -0.10615 -0.08554
 H387 H 0.84381 -0.16200 -0.31865
 H388 H 0.81227 -0.19303 -0.34643
 H389 H 0.78632 -0.18074 -0.10644
 H390 H 0.81751 -0.14903 -0.07944
 H391 H 0.85765 -0.15168 -0.05657
 H392 H 0.89210 -0.12572 -0.02700
 H393 H 0.89035 -0.09112 -0.26548
 H394 H 0.85507 -0.11612 -0.29383
 H395 H 0.90698 -0.05481 -0.18670
 H396 H 0.94354 -0.03226 -0.15907
 H397 H 0.96730 -0.10409 -0.03476
 H398 H 0.93141 -0.12692 -0.06547
 C399 C 0.33606 0.34257 0.29810
 C400 C 0.33379 0.33156 0.22063
 C401 C 0.31572 0.31395 0.20242
 C402 C 0.29961 0.30677 0.26142
 C403 C 0.30155 0.31823 0.33831
 C404 C 0.31950 0.33601 0.35633
 C405 C 0.35619 0.35972 0.31911
 C406 C 0.36683 0.35698 0.39450
 C407 C 0.38644 0.37193 0.41318
 C408 C 0.39610 0.38986 0.35675
 C409 C 0.38521 0.39308 0.28193
 C410 C 0.36547 0.37820 0.26336
 C411 C 0.41783 0.40436 0.37530
 C412 C 0.42136 0.43138 0.35049
 C413 C 0.44188 0.44481 0.36870
 C414 C 0.45929 0.43150 0.41212
 C415 C 0.45572 0.40447 0.43657
 C416 C 0.43534 0.39106 0.41810
 H417 H 0.34639 0.33585 0.17464
 H418 H 0.31474 0.30539 0.14267
 H419 H 0.28929 0.31329 0.38487
 H420 H 0.32046 0.34452 0.41612
 H421 H 0.36035 0.34272 0.43857
 H422 H 0.39415 0.36930 0.47189
 H423 H 0.39228 0.40658 0.23691
 H424 H 0.35753 0.38108 0.20514
 H425 H 0.40814 0.44227 0.31792
 H426 H 0.44416 0.46554 0.34833
 H427 H 0.46862 0.39372 0.47111
 H428 H 0.43338 0.37012 0.43697
 C429 C 0.16565 0.65522 -0.16726
 C430 C 0.16903 0.66685 -0.24351
 C431 C 0.18735 0.68451 -0.25735
 C432 C 0.20267 0.69111 -0.19516
 C433 C 0.19970 0.67895 -0.11947
 C434 C 0.18143 0.66114 -0.10574
 C435 C 0.14509 0.63820 -0.15114
 C436 C 0.13320 0.64070 -0.07818
 C437 C 0.11300 0.62617 -0.06482
 C438 C 0.10406 0.60890 -0.12427
 C439 C 0.11623 0.60586 -0.19651
 C440 C 0.13652 0.62032 -0.20974
 C441 C 0.08182 0.59477 -0.11152
 C442 C 0.07842 0.56798 -0.13823
 C443 C 0.05750 0.55477 -0.12498
 C444 C 0.03956 0.56807 -0.08464
 C445 C 0.04293 0.59494 -0.05882
 C446 C 0.06374 0.60814 -0.07233
 H447 H 0.15704 0.66308 -0.29193
 H448 H 0.18910 0.69360 -0.31631
 H449 H 0.21130 0.68349 -0.07046
 H450 H 0.17956 0.65217 -0.04670
 H451 H 0.13913 0.65449 -0.03207
 H452 H 0.10428 0.62861 -0.00793
 H453 H 0.10975 0.59286 -0.24372
 H454 H 0.14542 0.61765 -0.26619
 H455 H 0.09204 0.55705 -0.16819
 H456 H 0.05538 0.53418 -0.14642
 H457 H 0.02959 0.60567 -0.02667
 H458 H 0.06562 0.62893 -0.05225
 C459 C 0.66478 1.16092 0.36733
 C460 C 0.68061 1.16808 0.42723
 C461 C 0.69957 1.18433 0.40866
 C462 C 0.70321 1.19355 0.32947
 C463 C 0.68776 1.18529 0.26913
 C464 C 0.66873 1.16934 0.28800
 C465 C 0.64367 1.14567 0.38764
 C466 C 0.62238 1.15445 0.35778
 C467 C 0.60237 1.14021 0.37613
 C468 C 0.60325 1.11673 0.42410
 C469 C 0.62454 1.10793 0.45418
 C470 C 0.64457 1.12241 0.43663
 C471 C 0.58201 1.10119 0.44043
 C472 C 0.58156 1.07286 0.43080
 C473 C 0.56103 1.05850 0.43946
 C474 C 0.54056 1.07214 0.45870
 C475 C 0.54126 1.10038 0.47126
 C476 C 0.56173 1.11475 0.46180
 H477 H 0.67789 1.16188 0.48893
 H478 H 0.71108 1.19008 0.45682
 H479 H 0.68995 1.19172 0.20735
 H480 H 0.65693 1.16374 0.24054
 H481 H 0.62120 1.17249 0.32058
 H482 H 0.58623 1.14727 0.35151
 H483 H 0.62563 1.08994 0.49158
 H484 H 0.66080 1.11521 0.46015
 H485 H 0.59691 1.06197 0.41352
 H486 H 0.56106 1.03684 0.42827
 H487 H 0.52593 1.11143 0.48782
 H488 H 0.56171 1.13654 0.47072
 C489 C 0.16717 0.34511 0.16480
 C490 C 0.17066 0.33253 0.23971
 C491 C 0.18902 0.31470 0.25146
 C492 C 0.20426 0.30892 0.18845
 C493 C 0.20119 0.32210 0.11426
 C494 C 0.18290 0.34006 0.10265
 C495 C 0.14649 0.36214 0.15031
 C496 C 0.13455 0.36026 0.07716
 C497 C 0.11427 0.37478 0.06499
 C498 C 0.10531 0.39143 0.12582
 C499 C 0.11751 0.39387 0.19829
 C500 C 0.13788 0.37939 0.21041
 C501 C 0.08295 0.40542 0.11416
 C502 C 0.07942 0.43206 0.14190
 C503 C 0.05839 0.44516 0.12924
 C504 C 0.04047 0.43185 0.08870
 C505 C 0.04398 0.40511 0.06192
 C506 C 0.06490 0.39205 0.07470
 H507 H 0.15871 0.33567 0.28852
 H508 H 0.19086 0.30483 0.30930
 H509 H 0.21274 0.31825 0.06471
 H510 H 0.18094 0.34979 0.04466
 H511 H 0.14051 0.34694 0.02994
 H512 H 0.10550 0.37280 0.00795
 H513 H 0.11100 0.40641 0.24649
 H514 H 0.14681 0.38154 0.26708
 H515 H 0.09303 0.44296 0.17216
 H516 H 0.05616 0.46567 0.15129
 H517 H 0.03065 0.39440 0.02957
 H518 H 0.06690 0.37137 0.05381
 C519 C 0.66310 0.83818 0.64107
 C520 C 0.66596 0.82829 0.71959
 C521 C 0.68502 0.81252 0.73969
 C522 C 0.70158 0.80606 0.68151
 C523 C 0.69902 0.81652 0.60333
 C524 C 0.68001 0.83257 0.58342
 C525 C 0.64212 0.85351 0.61931
 C526 C 0.64342 0.87767 0.57448
 C527 C 0.62352 0.89242 0.55656
 C528 C 0.60197 0.88302 0.58214
 C529 C 0.60068 0.85859 0.62565
 C530 C 0.62055 0.84406 0.64429
 C531 C 0.58087 0.89895 0.56614
 C532 C 0.56070 0.88592 0.54082
 C533 C 0.54036 0.90060 0.53138
 C534 C 0.53968 0.92861 0.54776
 C535 C 0.56004 0.94174 0.57120
 C536 C 0.58043 0.92708 0.57996
 H537 H 0.65333 0.83263 0.76542
 H538 H 0.68647 0.80481 0.80047
 H539 H 0.71149 0.81191 0.55721
 H540 H 0.67814 0.83989 0.52237
 H541 H 0.65986 0.88542 0.55477
 H542 H 0.62495 0.91113 0.52257
 H543 H 0.58433 0.85103 0.64681
 H544 H 0.61905 0.82533 0.67818
 H545 H 0.56066 0.86432 0.52864
 H546 H 0.52512 0.88997 0.51160
 H547 H 0.56006 0.96319 0.58540
 H548 H 0.59567 0.93757 0.60042
 C549 C 0.83416 0.15321 0.20581
 C550 C 0.83220 0.16518 0.28207
 C551 C 0.81408 0.18282 0.29923
 C552 C 0.79757 0.18902 0.24039
 C553 C 0.79909 0.17639 0.16501
 C554 C 0.81713 0.15862 0.14802
 C555 C 0.85456 0.13649 0.18520
 C556 C 0.86486 0.13903 0.10932
 C557 C 0.88486 0.12475 0.09114
 C558 C 0.89519 0.10767 0.14851
 C559 C 0.88462 0.10457 0.22379
 C560 C 0.86453 0.11883 0.24195
 C561 C 0.91726 0.09389 0.13028
 C562 C 0.92146 0.06705 0.15558
 C563 C 0.94220 0.05419 0.13692
 C564 C 0.95916 0.06792 0.09271
 C565 C 0.95499 0.09482 0.06822
 C566 C 0.93436 0.10766 0.08697
 H567 H 0.84515 0.16174 0.32764
 H568 H 0.81343 0.19228 0.35784
 H569 H 0.78654 0.18057 0.11860
 H570 H 0.81789 0.14934 0.08920
 H571 H 0.85784 0.15268 0.06451
 H572 H 0.89235 0.12724 0.03211
 H573 H 0.89221 0.09169 0.26945
 H574 H 0.85687 0.11616 0.30062
 H575 H 0.90858 0.05585 0.18865
 H576 H 0.94497 0.03354 0.15731
 H577 H 0.96754 0.10587 0.03316
 H578 H 0.93185 0.12848 0.06774
 C579 C 0.33457 0.65688 0.69348
 C580 C 0.33207 0.66814 0.77050
 C581 C 0.31394 0.68581 0.78735
 C582 C 0.29796 0.69277 0.72744
 C583 C 0.30014 0.68106 0.65096
 C584 C 0.31818 0.66325 0.63427
 C585 C 0.35477 0.63964 0.67404
 C586 C 0.36575 0.64222 0.59933
 C587 C 0.38548 0.62725 0.58233
 C588 C 0.39489 0.60946 0.63977
 C589 C 0.38365 0.60638 0.71386
 C590 C 0.36380 0.62129 0.73077
 C591 C 0.41674 0.59496 0.62313
 C592 C 0.42017 0.56798 0.64858
 C593 C 0.44083 0.55456 0.63238
 C594 C 0.45849 0.56785 0.59044
 C595 C 0.45503 0.59483 0.56529
 C596 C 0.43449 0.60823 0.58168
 H597 H 0.34454 0.66401 0.81719
 H598 H 0.31278 0.69455 0.84682
 H599 H 0.28801 0.68584 0.60369
 H600 H 0.31935 0.65455 0.57476
 H601 H 0.35945 0.65637 0.55455
 H602 H 0.39348 0.62977 0.52415
 H603 H 0.39052 0.59299 0.75963
 H604 H 0.35560 0.61854 0.78849
 H605 H 0.40678 0.55711 0.68013
 H606 H 0.44303 0.53386 0.65321
 H607 H 0.46813 0.60555 0.53185
 H608 H 0.43260 0.62913 0.56237
   
