data_POSCAR
  _audit_creation_date              2014-09-24
  _audit_creation_method            'ToBaCCo'
  _symmetry_space_group_name_H-M    'P1'
  _symmetry_Int_Tables_number       1
  _symmetry_cell_setting            triclinic
  loop_
  _symmetry_equiv_pos_as_xyz
 x,y,z
_cell_length_a 53.4430
_cell_length_b 53.6778
_cell_length_c 53.4827
_cell_angle_alpha 89.986200
_cell_angle_beta 89.962500
_cell_angle_gamma 89.973000
loop_
  _atom_site_label
  _atom_site_type_symbol
  _atom_site_fract_x
  _atom_site_fract_y
  _atom_site_fract_z
N1 N 0.15163 0.16884 0.22110
 N2 N 0.16890 0.15138 0.22061
 C3 C 0.16515 0.13569 0.23994
 C4 C 0.14443 0.14383 0.25317
 C5 C 0.13632 0.16490 0.24070
 H6 H 0.17661 0.11962 0.24417
 H7 H 0.12049 0.17650 0.24554
 Cu8 Cu 0.19467 0.15137 0.19483
 Cu9 Cu 0.15019 0.19548 0.19635
 Cu10 Cu 0.19614 0.19547 0.15041
 N11 N 0.22047 0.15136 0.16906
 N12 N 0.22095 0.16883 0.15180
 C13 C 0.24057 0.16487 0.13650
 C14 C 0.25307 0.14379 0.14460
 C15 C 0.23982 0.13567 0.16530
 H16 H 0.24542 0.17647 0.12068
 H17 H 0.24405 0.11960 0.17675
 N18 N 0.16940 0.22080 0.15218
 N19 N 0.15192 0.22079 0.16966
 C20 C 0.13643 0.24023 0.16577
 C21 C 0.14455 0.25301 0.14489
 C22 C 0.16546 0.24025 0.13673
 H23 H 0.12037 0.24478 0.17719
 H24 H 0.17686 0.24483 0.12067
 H25 H 0.16762 0.17619 0.16788
 H26 H 0.18796 0.19583 0.18820
 N27 N -0.15218 0.83076 0.22067
 N28 N -0.16973 0.84794 0.22049
 C29 C -0.16600 0.86355 0.23988
 C30 C -0.14504 0.85567 0.25278
 C31 C -0.13674 0.83483 0.24011
 H32 H -0.17757 0.87947 0.24433
 H33 H -0.12064 0.82351 0.24472
 Cu34 Cu -0.19559 0.84814 0.19485
 Cu35 Cu -0.15058 0.80437 0.19575
 Cu36 Cu -0.19646 0.80437 0.14992
 N37 N -0.22127 0.84796 0.16902
 N38 N -0.22145 0.83078 0.15149
 C39 C -0.24093 0.83487 0.13606
 C40 C -0.25363 0.85574 0.14436
 C41 C -0.24067 0.86360 0.16532
 H42 H -0.24550 0.82352 0.11999
 H43 H -0.24508 0.87950 0.17692
 N44 N -0.16960 0.77922 0.15149
 N45 N -0.15213 0.77923 0.16895
 C46 C -0.13661 0.75983 0.16504
 C47 C -0.14470 0.74706 0.14416
 C48 C -0.16563 0.75980 0.13602
 H49 H -0.12058 0.75525 0.17649
 H50 H -0.17706 0.75518 0.12002
 H51 H -0.16823 0.82395 0.16757
 H52 H -0.18838 0.80383 0.18772
 N53 N -0.15175 0.16911 -0.22038
 N54 N -0.16907 0.15171 -0.21997
 C55 C -0.16532 0.13607 -0.23933
 C56 C -0.14457 0.14416 -0.25247
 C57 C -0.13642 0.16514 -0.23995
 H58 H -0.17681 0.12007 -0.24368
 H59 H -0.12057 0.17670 -0.24482
 Cu60 Cu -0.19493 0.15179 -0.19430
 Cu61 Cu -0.15039 0.19577 -0.19569
 Cu62 Cu -0.19672 0.19610 -0.15014
 N63 N -0.22085 0.15187 -0.16867
 N64 N -0.22151 0.16946 -0.15156
 C65 C -0.24118 0.16553 -0.13632
 C66 C -0.25351 0.14432 -0.14430
 C67 C -0.24012 0.13610 -0.16488
 H68 H -0.24614 0.17720 -0.12060
 H69 H -0.24418 0.11991 -0.17620
 N70 N -0.16994 0.22137 -0.15184
 N71 N -0.15226 0.22117 -0.16911
 C72 C -0.13672 0.24052 -0.16515
 C73 C -0.14500 0.25345 -0.14443
 C74 C -0.16607 0.24086 -0.13644
 H75 H -0.12051 0.24493 -0.17642
 H76 H -0.17761 0.24557 -0.12052
 H77 H -0.16809 0.17668 -0.16724
 H78 H -0.18821 0.19625 -0.18787
 N79 N 0.15199 0.83096 -0.22052
 N80 N 0.16927 0.84839 -0.22006
 C81 C 0.16555 0.86405 -0.23941
 C82 C 0.14486 0.85594 -0.25260
 C83 C 0.13671 0.83492 -0.24012
 H84 H 0.17699 0.88010 -0.24371
 H85 H 0.12087 0.82337 -0.24499
 Cu86 Cu 0.19503 0.84840 -0.19430
 Cu87 Cu 0.15052 0.80435 -0.19575
 Cu88 Cu 0.19644 0.80435 -0.14984
 N89 N 0.22079 0.84841 -0.16854
 N90 N 0.22126 0.83097 -0.15126
 C91 C 0.24087 0.83493 -0.13597
 C92 C 0.25337 0.85600 -0.14411
 C93 C 0.24013 0.86410 -0.16482
 H94 H 0.24570 0.82336 -0.12014
 H95 H 0.24437 0.88015 -0.17630
 N96 N 0.16969 0.77904 -0.15157
 N97 N 0.15223 0.77906 -0.16904
 C98 C 0.13673 0.75965 -0.16513
 C99 C 0.14483 0.74686 -0.14425
 C100 C 0.16573 0.75961 -0.13610
 H101 H 0.12068 0.75511 -0.17655
 H102 H 0.17712 0.75502 -0.12005
 H103 H 0.16793 0.82364 -0.16731
 H104 H 0.18828 0.80396 -0.18762
 N105 N 0.16891 1.15200 0.77914
 N106 N 0.15141 1.16923 0.77955
 C107 C 0.13572 1.16549 0.76018
 C108 C 0.14391 1.14484 0.74708
 C109 C 0.16498 1.13674 0.75959
 H110 H 0.11962 1.17690 0.75584
 H111 H 0.17660 1.12095 0.75477
 Cu112 Cu 0.15141 1.19493 0.80521
 Cu113 Cu 0.19556 1.15051 0.80389
 Cu114 Cu 0.19558 1.19625 0.84974
 N115 N 0.15141 1.22052 0.83098
 N116 N 0.16891 1.22094 0.84825
 C117 C 0.16496 1.24045 0.86354
 C118 C 0.14388 1.25292 0.85541
 C119 C 0.13571 1.23983 0.83471
 H120 H 0.17657 1.24527 0.87937
 H121 H 0.11960 1.24415 0.82327
 N122 N 0.22090 1.16962 0.84802
 N123 N 0.22088 1.15222 0.83056
 C124 C 0.24033 1.13674 0.83449
 C125 C 0.25312 1.14482 0.85537
 C126 C 0.24037 1.16566 0.86350
 H127 H 0.24489 1.12073 0.82310
 H128 H 0.24496 1.17700 0.87956
 H129 H 0.17612 1.16798 0.83229
 H130 H 0.19600 1.18816 0.81198
 N131 N 0.83135 0.84790 0.77932
 N132 N 0.84885 0.83068 0.77973
 C133 C 0.86457 0.83443 0.76038
 C134 C 0.85641 0.85508 0.74726
 C135 C 0.83531 0.86317 0.75977
 H136 H 0.88069 0.82304 0.75606
 H137 H 0.82371 0.87897 0.75494
 Cu138 Cu 0.84901 0.80492 0.80535
 Cu139 Cu 0.80470 0.84934 0.80407
 Cu140 Cu 0.80465 0.80363 0.84990
 N141 N 0.84878 0.77936 0.83116
 N142 N 0.83127 0.77895 0.84844
 C143 C 0.83520 0.75943 0.86373
 C144 C 0.85629 0.74696 0.85559
 C145 C 0.86448 0.76006 0.83490
 H146 H 0.82359 0.75459 0.87956
 H147 H 0.88059 0.75576 0.82346
 N148 N 0.77933 0.83024 0.84821
 N149 N 0.77935 0.84764 0.83075
 C150 C 0.75989 0.86310 0.83469
 C151 C 0.74709 0.85502 0.85558
 C152 C 0.75985 0.83418 0.86370
 H153 H 0.75533 0.87911 0.82330
 H154 H 0.75525 0.82283 0.87976
 H155 H 0.82419 0.83189 0.83244
 H156 H 0.80437 0.81169 0.81213
 N157 N 0.16913 0.84744 1.22070
 N158 N 0.15180 0.83005 1.22050
 C159 C 0.13607 0.83385 1.23982
 C160 C 0.14406 0.85469 1.25272
 C161 C 0.16506 0.86285 1.24011
 H162 H 0.12004 0.82238 1.24425
 H163 H 0.17651 0.87881 1.24474
 Cu164 Cu 0.15181 0.80413 1.19507
 Cu165 Cu 0.19563 0.84897 1.19582
 Cu166 Cu 0.19551 0.80343 1.14986
 N167 N 0.15174 0.77884 1.16902
 N168 N 0.16898 0.77867 1.15145
 C169 C 0.16489 0.75931 1.13602
 C170 C 0.14398 0.74670 1.14436
 C171 C 0.13606 0.75954 1.16532
 H172 H 0.17630 0.75469 1.11996
 H173 H 0.12013 0.75507 1.17697
 N174 N 0.22077 0.83007 1.15148
 N175 N 0.22083 0.84738 1.16902
 C176 C 0.24027 0.86284 1.16507
 C177 C 0.25296 0.85486 1.14408
 C178 C 0.24018 0.83408 1.13591
 H179 H 0.24489 0.87879 1.17652
 H180 H 0.24472 0.82279 1.11978
 H181 H 0.17589 0.83138 1.16773
 H182 H 0.19628 0.81129 1.18768
 N183 N 0.83095 1.15226 1.22057
 N184 N 0.84809 1.16983 1.22050
 C185 C 0.86379 1.16608 1.23985
 C186 C 0.85599 1.14508 1.25261
 C187 C 0.83513 1.13677 1.23989
 H188 H 0.87967 1.17771 1.24441
 H189 H 0.82382 1.12068 1.24443
 Cu190 Cu 0.84793 1.19591 1.19523
 Cu191 Cu 0.80442 1.15075 1.19573
 Cu192 Cu 0.80415 1.19665 1.15012
 N193 N 0.84788 1.22127 1.16924
 N194 N 0.83061 1.22146 1.15173
 C195 C 0.83471 1.24081 1.13627
 C196 C 0.85565 1.25339 1.14454
 C197 C 0.86358 1.24055 1.16548
 H198 H 0.82333 1.24542 1.12021
 H199 H 0.87956 1.24498 1.17705
 N200 N 0.77900 1.16990 1.15168
 N201 N 0.77914 1.15239 1.16903
 C202 C 0.75975 1.13687 1.16505
 C203 C 0.74688 1.14503 1.14424
 C204 C 0.75951 1.16597 1.13621
 H205 H 0.75526 1.12080 1.17638
 H206 H 0.75482 1.17742 1.12025
 H207 H 0.82404 1.16870 1.16768
 H208 H 0.80353 1.18846 1.18785
 N209 N 0.52619 1.02687 1.04434
 N210 N 0.54520 1.03002 1.05976
 N211 N 0.47348 1.04412 1.02697
 N212 N 0.45444 1.05950 1.03017
 N213 N 0.47351 1.02681 1.04433
 N214 N 0.45450 1.02993 1.05980
 N215 N 0.52616 1.04417 1.02697
 N216 N 0.54515 1.05957 1.03007
 C217 C 0.55680 1.05049 1.05060
 C218 C 0.44281 1.05040 1.05073
 N219 N 0.47373 1.02684 0.95573
 N220 N 0.45475 1.02996 0.94027
 N221 N 0.52636 1.04416 0.97311
 N222 N 0.54538 1.05954 0.96996
 N223 N 0.52640 1.02684 0.95577
 N224 N 0.54543 1.02996 0.94033
 N225 N 0.47369 1.04412 0.97310
 N226 N 0.45468 1.05950 0.96996
 Mn227 Mn 0.49992 1.04444 1.00004
 C228 C 0.44309 1.05041 0.94941
 C229 C 0.55707 1.05044 0.94943
 N230 N 0.47367 0.97315 1.04430
 N231 N 0.45464 0.96999 1.05972
 N232 N 0.52637 0.95590 1.02698
 N233 N 0.54540 0.94052 1.03016
 N234 N 0.52633 0.97321 1.04434
 N235 N 0.54533 0.97008 1.05980
 N236 N 0.47372 0.95588 1.02693
 N237 N 0.45474 0.94047 1.03003
 Mn238 Mn 0.49993 1.00001 1.04463
 C239 C 0.44307 0.94952 1.05055
 C240 C 0.55702 0.94962 1.05070
 N241 N 0.52635 0.97318 0.95577
 N242 N 0.54538 0.97003 0.94035
 N243 N 0.47365 0.95587 0.97307
 N244 N 0.45464 0.94048 0.96989
 N245 N 0.47367 0.97318 0.95571
 N246 N 0.45469 0.97004 0.94024
 N247 N 0.52632 0.95589 0.97314
 N248 N 0.54532 0.94048 0.97004
 Mn249 Mn 0.50004 1.00001 0.95544
 Mn250 Mn 0.50001 0.95559 1.00003
 Cl251 Cl 0.49997 1.00001 1.00004
 C252 C 0.55699 0.94956 0.94951
 C253 C 0.44301 0.94957 0.94932
 N254 N -0.02689 0.47374 -0.04419
 N255 N -0.03000 0.45478 -0.05959
 N256 N -0.04423 0.52621 -0.02685
 N257 N -0.05961 0.54520 -0.02998
 N258 N -0.02682 0.52617 -0.04419
 N259 N -0.02988 0.54513 -0.05961
 N260 N -0.04428 0.47377 -0.02683
 N261 N -0.05971 0.45482 -0.02994
 C262 C -0.05056 0.44319 -0.05046
 C263 C -0.05040 0.55678 -0.05049
 N264 N -0.02692 0.52622 0.04436
 N265 N -0.03005 0.54516 0.05979
 N266 N -0.04432 0.47381 0.02702
 N267 N -0.05974 0.45486 0.03015
 N268 N -0.02695 0.47380 0.04437
 N269 N -0.03006 0.45486 0.05979
 N270 N -0.04428 0.52624 0.02700
 N271 N -0.05971 0.54520 0.03013
 Mn272 Mn -0.04458 0.50000 0.00008
 C273 C -0.05059 0.55679 0.05066
 C274 C -0.05058 0.44326 0.05067
 N275 N 0.02705 0.52615 -0.04418
 N276 N 0.03014 0.54516 -0.05955
 N277 N 0.04437 0.47366 -0.02683
 N278 N 0.05976 0.45466 -0.02997
 N279 N 0.02699 0.47371 -0.04418
 N280 N 0.03007 0.45477 -0.05961
 N281 N 0.04443 0.52612 -0.02683
 N282 N 0.05981 0.54512 -0.02990
 Mn283 Mn 0.00009 0.49994 -0.04449
 C284 C 0.05065 0.55678 -0.05039
 C285 C 0.05057 0.44310 -0.05050
 N286 N 0.02692 0.47366 0.04440
 N287 N 0.03001 0.45471 0.05983
 N288 N 0.04437 0.52608 0.02704
 N289 N 0.05975 0.54506 0.03014
 N290 N 0.02696 0.52608 0.04437
 N291 N 0.03000 0.54505 0.05976
 N292 N 0.04432 0.47362 0.02704
 N293 N 0.05973 0.45464 0.03020
 Mn294 Mn 0.00001 0.49994 0.04467
 Mn295 Mn 0.04468 0.49987 0.00010
 Cl296 Cl 0.00005 0.49994 0.00009
 C297 C 0.05054 0.44306 0.05073
 C298 C 0.05053 0.55667 0.05064
 N299 N 0.95578 -0.02665 0.47355
 N300 N 0.94031 -0.02976 0.45457
 N301 N 0.97323 -0.04393 0.52614
 N302 N 0.97013 -0.05934 0.54511
 N303 N 0.95583 -0.02664 0.52619
 N304 N 0.94041 -0.02982 0.54522
 N305 N 0.97314 -0.04397 0.47354
 N306 N 0.96997 -0.05935 0.45454
 C307 C 0.94941 -0.05024 0.44293
 C308 C 0.94960 -0.05029 0.55680
 N309 N 1.04449 -0.02670 0.52606
 N310 N 1.05996 -0.02982 0.54504
 N311 N 1.02701 -0.04403 0.47352
 N312 N 1.03004 -0.05945 0.45454
 N313 N 1.04442 -0.02678 0.47343
 N314 N 1.05980 -0.02998 0.45437
 N315 N 1.02710 -0.04398 0.52612
 N316 N 1.03026 -0.05934 0.54515
 Mn317 Mn 1.00012 -0.04427 0.49983
 C318 C 1.05084 -0.05026 0.55673
 C319 C 1.05056 -0.05044 0.44281
 N320 N 0.95586 0.02702 0.52613
 N321 N 0.94041 0.03017 0.54514
 N322 N 0.97323 0.04427 0.47349
 N323 N 0.97013 0.05967 0.45451
 N324 N 0.95582 0.02702 0.47350
 N325 N 0.94038 0.03020 0.45451
 N326 N 0.97324 0.04431 0.52610
 N327 N 0.97010 0.05970 0.54510
 Mn328 Mn 0.95552 0.00019 0.49984
 C329 C 0.94954 0.05062 0.55676
 C330 C 0.94957 0.05065 0.44288
 N331 N 1.04447 0.02689 0.47333
 N332 N 1.05993 0.02999 0.45432
 N333 N 1.02713 0.04426 0.52595
 N334 N 1.03023 0.05966 0.54492
 N335 N 1.04452 0.02696 0.52597
 N336 N 1.05995 0.03012 0.54498
 N337 N 1.02711 0.04421 0.47333
 N338 N 1.03028 0.05958 0.45432
 Mn339 Mn 1.04478 0.00009 0.49970
 Mn340 Mn 1.00018 0.04456 0.49972
 Cl341 Cl 1.00015 0.00014 0.49977
 C342 C 1.05083 0.05045 0.44267
 C343 C 1.05077 0.05059 0.55657
 N344 N 1.10340 0.13335 0.30586
 C345 C 1.11347 0.11251 0.31605
 N346 N 1.13392 0.10214 0.30522
 N347 N 1.14399 0.11229 0.28481
 C348 C 1.13395 0.13317 0.27453
 N349 N 1.11346 0.14351 0.28546
 C350 C 1.10258 0.10158 0.33802
 C351 C 1.09339 0.09246 0.35647
 C352 C 1.08244 0.08166 0.37847
 N353 N 1.09265 0.06106 0.38903
 N354 N 1.08254 0.05109 0.40950
 C355 C 1.06188 0.06139 0.42008
 N356 N 1.05167 0.08199 0.40946
 N357 N 1.06179 0.09196 0.38899
 N358 N 0.86602 -0.10217 0.30599
 C359 C 0.88680 -0.11225 0.31645
 N360 N 0.89711 -0.13285 0.30600
 N361 N 0.88695 -0.14306 0.28569
 C362 C 0.86614 -0.13302 0.27517
 N363 N 0.85586 -0.11238 0.28568
 C364 C 0.89773 -0.10131 0.33836
 C365 C 0.90693 -0.09219 0.35679
 C366 C 0.91788 -0.08139 0.37876
 N367 N 0.93852 -0.09170 0.38926
 N368 N 0.94861 -0.08175 0.40973
 C369 C 0.93837 -0.06116 0.42037
 N370 N 0.91772 -0.05086 0.40980
 N371 N 0.90764 -0.06081 0.38933
 N372 N 0.89703 0.13328 0.69371
 C373 C 0.88691 0.11254 0.68339
 N374 N 0.86641 0.10218 0.69413
 N375 N 0.85635 0.11225 0.71458
 C376 C 0.86646 0.13302 0.72496
 N377 N 0.88698 0.14335 0.71415
 C378 C 0.89779 0.10168 0.66140
 C379 C 0.90699 0.09261 0.64293
 C380 C 0.91793 0.08183 0.62093
 N381 N 0.90771 0.06126 0.61036
 N382 N 0.91783 0.05129 0.58990
 C383 C 0.93849 0.06157 0.57933
 N384 N 0.94871 0.08215 0.58995
 N385 N 0.93859 0.09212 0.61042
 N386 N 1.10331 -0.13306 0.69358
 C387 C 1.11339 -0.11224 0.68336
 N388 N 1.13384 -0.10187 0.69415
 N389 N 1.14389 -0.11200 0.71457
 C390 C 1.13382 -0.13284 0.72487
 N391 N 1.11336 -0.14319 0.71399
 C392 C 1.10253 -0.10133 0.66138
 C393 C 1.09336 -0.09222 0.64292
 C394 C 1.08242 -0.08144 0.62092
 N395 N 1.09268 -0.06089 0.61030
 N396 N 1.08258 -0.05093 0.58983
 C397 C 1.06189 -0.06119 0.57930
 N398 N 1.05164 -0.08174 0.58998
 N399 N 1.06174 -0.09170 0.61045
 N400 N 0.30519 1.10206 1.13407
 C401 C 0.31603 1.11243 1.11364
 N402 N 0.30583 1.13327 1.10358
 N403 N 0.28541 1.14344 1.11364
 C404 C 0.27446 1.13312 1.13411
 N405 N 0.28476 1.11222 1.14414
 C406 C 0.33804 1.10148 1.10274
 C407 C 0.35652 1.09236 1.09351
 C408 C 0.37855 1.08157 1.08250
 N409 N 0.38903 1.09189 1.06184
 N410 N 0.40951 1.08193 1.05168
 C411 C 0.42020 1.06133 1.06184
 N412 N 0.40966 1.05103 1.08251
 N413 N 0.38918 1.06098 1.09267
 N414 N 0.30611 0.86659 0.89682
 C415 C 0.31630 0.88741 0.88671
 N416 N 0.30545 0.89773 0.86627
 N417 N 0.28503 0.88755 0.85625
 C418 C 0.27475 0.86669 0.86633
 N419 N 0.28570 0.85641 0.88682
 C420 C 0.33830 0.89838 0.89756
 C421 C 0.35678 0.90752 0.90673
 C422 C 0.37880 0.91833 0.91768
 N423 N 0.38940 0.93891 0.90746
 N424 N 0.40987 0.94889 0.91758
 C425 C 0.42043 0.93861 0.93824
 N426 N 0.40977 0.91802 0.94845
 N427 N 0.38930 0.90805 0.93833
 N428 N 0.69413 0.86679 1.10293
 C429 C 0.68370 0.88739 1.11326
 N430 N 0.69423 0.89743 1.13400
 N431 N 0.71458 0.88717 1.14411
 C432 C 0.72509 0.86651 1.13382
 N433 N 0.71446 0.85653 1.11303
 C434 C 0.66174 0.89840 1.10238
 C435 C 0.64329 0.90757 1.09320
 C436 C 0.62128 0.91839 1.08226
 N437 N 0.61067 0.93896 1.09250
 N438 N 0.59018 0.94894 1.08241
 C439 C 0.57962 0.93867 1.06176
 N440 N 0.59028 0.91809 1.05153
 N441 N 0.61077 0.90812 1.06162
 N442 N 0.69475 1.10226 0.86643
 C443 C 0.68373 1.11271 0.88673
 N444 N 0.69370 1.13374 0.89662
 N445 N 0.71405 1.14398 0.88654
 C446 C 0.72517 1.13357 0.86620
 N447 N 0.71511 1.11251 0.85634
 C448 C 0.66178 1.10169 0.89764
 C449 C 0.64334 1.09252 0.90685
 C450 C 0.62134 1.08167 0.91783
 N451 N 0.61079 1.09197 0.93846
 N452 N 0.59031 1.08199 0.94857
 C453 C 0.57969 1.06138 0.93838
 N454 N 0.59030 1.05110 0.91774
 N455 N 0.61078 1.06108 0.90763
 N456 N 0.10231 0.30614 0.13374
 C457 C 0.11251 0.31660 0.11303
 N458 N 0.13324 0.30617 0.10279
 N459 N 0.14344 0.28590 0.11294
 C460 C 0.13328 0.27537 0.13368
 N461 N 0.11252 0.28586 0.14389
 C462 C 0.10158 0.33850 0.10213
 C463 C 0.09245 0.35692 0.09298
 C464 C 0.08166 0.37889 0.08211
 N465 N 0.09204 0.38939 0.06150
 N466 N 0.08210 0.40986 0.05147
 C467 C 0.06145 0.42050 0.06172
 N468 N 0.05108 0.40995 0.08235
 N469 N 0.06102 0.38948 0.09237
 N470 N -0.10245 0.30620 -0.13300
 C471 C -0.11286 0.31690 -0.11252
 N472 N -0.13383 0.30675 -0.10251
 N473 N -0.14408 0.28652 -0.11268
 C474 C -0.13370 0.27577 -0.13320
 N475 N -0.11270 0.28597 -0.14317
 C476 C -0.10187 0.33875 -0.10162
 C477 C -0.09270 0.35714 -0.09250
 C478 C -0.08184 0.37909 -0.08167
 N479 N -0.09216 0.38963 -0.06106
 N480 N -0.08216 0.41008 -0.05108
 C481 C -0.06152 0.42065 -0.06139
 N482 N -0.05120 0.41004 -0.08201
 N483 N -0.06120 0.38960 -0.09199
 N484 N 0.13342 0.69374 -0.10212
 C485 C 0.11270 0.68335 -0.11235
 N486 N 0.10253 0.69383 -0.13306
 N487 N 0.11276 0.71408 -0.14322
 C488 C 0.13353 0.72453 -0.13302
 N489 N 0.14366 0.71399 -0.11228
 C490 C 0.10173 0.66147 -0.10146
 C491 C 0.09258 0.64305 -0.09233
 C492 C 0.08175 0.62106 -0.08151
 N493 N 0.06115 0.61052 -0.09183
 N494 N 0.05121 0.59002 -0.08188
 C495 C 0.06155 0.57939 -0.06129
 N496 N 0.08216 0.59000 -0.05098
 N497 N 0.09210 0.61050 -0.06093
 N498 N -0.10258 0.69382 0.13322
 C499 C -0.11279 0.68330 0.11257
 N500 N -0.13348 0.69373 0.10228
 N501 N -0.14366 0.71406 0.11235
 C502 C -0.13348 0.72464 0.13304
 N503 N -0.11275 0.71415 0.14329
 C504 C -0.10186 0.66137 0.10175
 C505 C -0.09272 0.64292 0.09267
 C506 C -0.08188 0.62093 0.08188
 N507 N -0.09218 0.61040 0.06127
 N508 N -0.08218 0.58993 0.05130
 C509 C -0.06156 0.57933 0.06161
 N510 N -0.05126 0.58992 0.08223
 N511 N -0.06126 0.61039 0.09220
 N512 N 1.10182 0.13368 0.69375
 C513 C 1.11234 0.11329 0.68308
 N514 N 1.13321 0.10331 0.69341
 N515 N 1.14326 0.11340 0.71381
 C516 C 1.13278 0.13380 0.72457
 N517 N 1.11187 0.14378 0.71417
 C518 C 1.10153 0.10237 0.66113
 C519 C 1.09251 0.09315 0.64269
 C520 C 1.08180 0.08218 0.62071
 N521 N 1.09223 0.06162 0.61030
 N522 N 1.08232 0.05149 0.58983
 C523 C 1.06166 0.06163 0.57912
 N524 N 1.05124 0.08220 0.58960
 N525 N 1.06115 0.09232 0.61006
 N526 N 0.86720 -0.10336 0.69361
 C527 C 0.88810 -0.11331 0.68329
 N528 N 0.89862 -0.13370 0.69397
 N529 N 0.88853 -0.14382 0.71438
 C530 C 0.86759 -0.13387 0.72477
 N531 N 0.85712 -0.11347 0.71401
 C532 C 0.89893 -0.10237 0.66135
 C533 C 0.90795 -0.09310 0.64291
 C534 C 0.91863 -0.08206 0.62094
 N535 N 0.93929 -0.09214 0.61023
 N536 N 0.94917 -0.08196 0.58977
 C537 C 0.93872 -0.06137 0.57935
 N538 N 0.91805 -0.05130 0.59012
 N539 N 0.90817 -0.06148 0.61059
 N540 N 1.13283 -0.10335 0.30594
 C541 C 1.11209 -0.11348 0.31640
 N542 N 1.10183 -0.13409 0.30595
 N543 N 1.11201 -0.14428 0.28563
 C544 C 1.13280 -0.13417 0.27511
 N545 N 1.14301 -0.11353 0.28563
 C546 C 1.10118 -0.10250 0.33828
 C547 C 1.09212 -0.09321 0.35668
 C548 C 1.08141 -0.08217 0.37862
 N549 N 1.06077 -0.09225 0.38935
 N550 N 1.05091 -0.08208 0.40983
 C551 C 1.06138 -0.06151 0.42024
 N552 N 1.08203 -0.05144 0.40946
 N553 N 1.09188 -0.06161 0.38897
 N554 N 0.89804 0.13410 0.30601
 C555 C 0.88792 0.11336 0.31637
 N556 N 0.86734 0.10306 0.30579
 N557 N 0.85719 0.11319 0.28544
 C558 C 0.86727 0.13395 0.27501
 N559 N 0.88788 0.14424 0.28566
 C560 C 0.89880 0.10245 0.33830
 C561 C 0.90784 0.09323 0.35674
 C562 C 0.91856 0.08226 0.37871
 N563 N 0.90811 0.06172 0.38915
 N564 N 0.91801 0.05159 0.40964
 C565 C 0.93868 0.06169 0.42033
 N566 N 0.94912 0.08223 0.40982
 N567 N 0.93922 0.09236 0.38935
 N568 N 0.10170 0.30607 -0.13351
 C569 C 0.11218 0.31677 -0.11308
 N570 N 0.13306 0.30650 -0.10304
 N571 N 0.14315 0.28615 -0.11311
 C572 C 0.13270 0.27538 -0.13356
 N573 N 0.11180 0.28571 -0.14359
 C574 C 0.10133 0.33867 -0.10219
 C575 C 0.09228 0.35709 -0.09299
 C576 C 0.08156 0.37903 -0.08204
 N577 N 0.09197 0.38943 -0.06142
 N578 N 0.08207 0.40988 -0.05132
 C579 C 0.06144 0.42057 -0.06152
 N580 N 0.05104 0.41010 -0.08214
 N581 N 0.06094 0.38966 -0.09224
 N582 N -0.13303 0.30657 0.10262
 C583 C -0.11233 0.31695 0.11287
 N584 N -0.10211 0.30645 0.13355
 N585 N -0.11231 0.28615 0.14366
 C586 C -0.13305 0.27572 0.13342
 N587 N -0.14323 0.28629 0.11272
 C588 C -0.10143 0.33882 0.10202
 C589 C -0.09235 0.35723 0.09287
 C590 C -0.08162 0.37917 0.08200
 N591 N -0.06101 0.38974 0.09227
 N592 N -0.05109 0.41020 0.08224
 C593 C -0.06147 0.42075 0.06163
 N594 N -0.08209 0.41011 0.05137
 N595 N -0.09201 0.38965 0.06141
 N596 N -0.13291 0.69337 -0.10287
 C597 C -0.11202 0.68312 -0.11292
 N598 N -0.10152 0.69383 -0.13335
 N599 N -0.11161 0.71420 -0.14343
 C600 C -0.13254 0.72451 -0.13339
 N601 N -0.14300 0.71373 -0.11293
 C602 C -0.10117 0.66122 -0.10204
 C603 C -0.09212 0.64281 -0.09286
 C604 C -0.08140 0.62087 -0.08194
 N605 N -0.06075 0.61027 -0.09216
 N606 N -0.05084 0.58982 -0.08209
 C607 C -0.06126 0.57931 -0.06148
 N608 N -0.08192 0.58997 -0.05126
 N609 N -0.09183 0.61042 -0.06134
 N610 N 0.13270 0.69347 0.10252
 C611 C 0.11211 0.68299 0.11292
 N612 N 0.10196 0.69344 0.13367
 N613 N 0.11212 0.71376 0.14372
 C614 C 0.13276 0.72430 0.13334
 N615 N 0.14286 0.71379 0.11257
 C616 C 0.10121 0.66112 0.10208
 C617 C 0.09214 0.64272 0.09292
 C618 C 0.08141 0.62080 0.08201
 N619 N 0.06079 0.61020 0.09225
 N620 N 0.05091 0.58973 0.08220
 C621 C 0.06135 0.57921 0.06160
 N622 N 0.08199 0.58987 0.05137
 N623 N 0.09186 0.61034 0.06143
 N624 N 0.30629 1.13338 0.89753
 C625 C 0.31667 1.11271 0.88730
 N626 N 0.30618 1.10258 0.86659
 N627 N 0.28590 1.11283 0.85641
 C628 C 0.27545 1.13354 0.86660
 N629 N 0.28600 1.14363 0.88735
 C630 C 0.33853 1.10173 0.89820
 C631 C 0.35695 1.09255 0.90732
 C632 C 0.37890 1.08169 0.91815
 N633 N 0.38944 1.06115 0.90782
 N634 N 0.40994 1.05113 0.91781
 C635 C 0.42054 1.06135 0.93846
 N636 N 0.40993 1.08190 0.94878
 N637 N 0.38944 1.09192 0.93878
 N638 N 0.30612 0.86639 1.10187
 C639 C 0.31659 0.88693 1.11224
 N640 N 0.30616 0.89693 1.13305
 N641 N 0.28585 0.88670 1.14320
 C642 C 0.27531 0.86613 1.13286
 N643 N 0.28580 0.85615 1.11201
 C644 C 0.33848 0.89789 1.10140
 C645 C 0.35691 0.90711 1.09234
 C646 C 0.37888 0.91803 1.08160
 N647 N 0.38930 0.93859 1.09200
 N648 N 0.40980 0.94868 1.08207
 C649 C 0.42052 0.93852 1.06144
 N650 N 0.41003 0.91795 1.05106
 N651 N 0.38954 0.90787 1.06098
 N652 N 0.69351 1.13377 1.10228
 C653 C 0.68325 1.11299 1.11241
 N654 N 0.69389 1.10275 1.13299
 N655 N 0.71419 1.11297 1.14314
 C656 C 0.72452 1.13378 1.13304
 N657 N 0.71382 1.14399 1.11242
 C658 C 0.66137 1.10203 1.10155
 C659 C 0.64295 1.09282 1.09246
 C660 C 0.62099 1.08191 1.08169
 N661 N 0.61053 1.06135 1.09207
 N662 N 0.59003 1.05129 1.08213
 C663 C 0.57936 1.06148 1.06150
 N664 N 0.58988 1.08204 1.05113
 N665 N 0.61037 1.09210 1.06107
 N666 N 0.69389 0.86641 0.89778
 C667 C 0.68349 0.88707 0.88756
 N668 N 0.69398 0.89720 0.86684
 N669 N 0.71427 0.88697 0.85664
 C670 C 0.72474 0.86628 0.86682
 N671 N 0.71419 0.85618 0.88758
 C672 C 0.66161 0.89803 0.89847
 C673 C 0.64319 0.90723 0.90759
 C674 C 0.62122 0.91814 0.91838
 N675 N 0.61075 0.93870 0.90802
 N676 N 0.59025 0.94877 0.91797
 C677 C 0.57956 0.93857 0.93860
 N678 N 0.59009 0.91800 0.94896
 N679 N 0.61059 0.90794 0.93900
   
