data_POSCAR
  _audit_creation_date              2014-09-24
  _audit_creation_method            'ToBaCCo'
  _symmetry_space_group_name_H-M    'P1'
  _symmetry_Int_Tables_number       1
  _symmetry_cell_setting            triclinic
  loop_
  _symmetry_equiv_pos_as_xyz
 x,y,z
_cell_length_a 44.7039
_cell_length_b 43.4114
_cell_length_c 43.3587
_cell_angle_alpha 90.055800
_cell_angle_beta 89.820600
_cell_angle_gamma 90.005200
loop_
  _atom_site_label
  _atom_site_type_symbol
  _atom_site_fract_x
  _atom_site_fract_y
  _atom_site_fract_z
N1 N 0.63598 0.64058 0.63817
 N2 N 0.90174 0.40148 0.09160
 N3 N 0.40241 0.09337 -0.09589
 N4 N 0.09305 0.90224 0.40503
 N5 N 0.08788 0.17030 0.10090
 N6 N 0.07357 0.15918 0.12500
 C7 C 0.05002 0.17749 0.13147
 C8 C 0.04971 0.20108 0.11023
 C9 C 0.07392 0.19599 0.09118
 H10 H 0.03446 0.17416 0.15031
 H11 H 0.08098 0.21007 0.07193
 Cu12 Cu 0.08735 0.12225 0.14601
 Cu13 Cu 0.12384 0.15111 0.08435
 Cu14 Cu 0.15011 0.08633 0.12219
 N15 N 0.10314 0.08648 0.16752
 N16 N 0.12762 0.07249 0.15809
 C17 C 0.13375 0.04897 0.17729
 C18 C 0.11195 0.04835 0.19981
 C19 C 0.09289 0.07235 0.19312
 H20 H 0.15279 0.03372 0.17528
 H21 H 0.07332 0.07917 0.20616
 N22 N 0.16982 0.10377 0.08546
 N23 N 0.15982 0.12849 0.07105
 C24 C 0.17833 0.13503 0.04734
 C25 C 0.20083 0.11339 0.04698
 C26 C 0.19494 0.09393 0.07130
 H27 H 0.17589 0.15426 0.03171
 H28 H 0.20820 0.07434 0.07832
 H29 H 0.11467 0.10699 0.09956
 H30 H 0.13733 0.13200 0.12566
 N31 N 0.40788 0.82620 0.60251
 N32 N 0.42097 0.83825 0.62685
 C33 C 0.44503 0.82114 0.63416
 C34 C 0.44704 0.79731 0.61329
 C35 C 0.42324 0.80102 0.59348
 H36 H 0.45992 0.82549 0.65328
 H37 H 0.41747 0.78647 0.57413
 Cu38 Cu 0.40500 0.87484 0.64679
 Cu39 Cu 0.37172 0.84393 0.58476
 Cu40 Cu 0.34321 0.90947 0.62042
 N41 N 0.38904 0.91148 0.66667
 N42 N 0.36476 0.92500 0.65623
 C43 C 0.35814 0.94928 0.67440
 C44 C 0.37944 0.95086 0.69727
 C45 C 0.39867 0.92666 0.69186
 H46 H 0.33909 0.96434 0.67148
 H47 H 0.41791 0.92041 0.70553
 N48 N 0.32466 0.89032 0.58394
 N49 N 0.33542 0.86538 0.57035
 C50 C 0.31757 0.85787 0.54648
 C51 C 0.29472 0.87910 0.54519
 C52 C 0.29973 0.89930 0.56909
 H53 H 0.32075 0.83835 0.53131
 H54 H 0.28603 0.91890 0.57526
 H55 H 0.37950 0.88855 0.59913
 H56 H 0.35605 0.86390 0.62481
 N57 N 0.90936 0.67114 0.39122
 N58 N 0.92355 0.65846 0.36782
 C59 C 0.94770 0.67575 0.36080
 C60 C 0.94846 0.70032 0.38096
 C61 C 0.92394 0.69683 0.39992
 H62 H 0.96340 0.67102 0.34237
 H63 H 0.91714 0.71195 0.41850
 Cu64 Cu 0.90881 0.62091 0.34853
 Cu65 Cu 0.87291 0.65373 0.40846
 Cu66 Cu 0.84491 0.58794 0.37372
 N67 N 0.89208 0.58457 0.32869
 N68 N 0.86714 0.57180 0.33858
 C69 C 0.86038 0.54763 0.32038
 C70 C 0.88228 0.54528 0.29807
 C71 C 0.90201 0.56895 0.30382
 H72 H 0.84084 0.53315 0.32290
 H73 H 0.92180 0.57458 0.29057
 N74 N 0.82563 0.60771 0.40956
 N75 N 0.83633 0.63285 0.42270
 C76 C 0.81843 0.64081 0.44644
 C77 C 0.79554 0.61970 0.44820
 C78 C 0.80060 0.59899 0.42466
 H79 H 0.82176 0.66042 0.46143
 H80 H 0.78711 0.57909 0.41907
 H81 H 0.88076 0.60860 0.39532
 H82 H 0.85890 0.63297 0.36795
 N83 N 0.58757 0.32379 -0.10662
 N84 N 0.57465 0.33515 -0.13136
 C85 C 0.55064 0.31774 -0.13840
 C86 C 0.54862 0.29448 -0.11689
 C87 C 0.57226 0.29883 -0.09709
 H88 H 0.53592 0.32145 -0.15779
 H89 H 0.57806 0.28472 -0.07746
 Cu90 Cu 0.59087 0.37122 -0.15215
 Cu91 Cu 0.62360 0.34160 -0.08891
 Cu92 Cu 0.65223 0.40653 -0.12478
 N93 N 0.60690 0.40812 -0.17166
 N94 N 0.63091 0.42175 -0.16070
 C95 C 0.63753 0.44632 -0.17832
 C96 C 0.61658 0.44811 -0.20143
 C97 C 0.59741 0.42365 -0.19673
 H98 H 0.65627 0.46165 -0.17474
 H99 H 0.57821 0.41761 -0.21060
 N100 N 0.67070 0.38775 -0.08820
 N101 N 0.65986 0.36297 -0.07449
 C102 C 0.67772 0.35553 -0.05062
 C103 C 0.70066 0.37668 -0.04945
 C104 C 0.69569 0.39674 -0.07344
 H105 H 0.67451 0.33606 -0.03542
 H106 H 0.70948 0.41621 -0.07978
 H107 H 0.61555 0.38578 -0.10425
 H108 H 0.63961 0.36086 -0.12919
 C109 C -0.00847 0.27373 0.10569
 C110 C -0.00464 0.29922 0.12571
 C111 C -0.02384 0.32519 0.12324
 C112 C -0.04677 0.32550 0.10080
 C113 C -0.05097 0.29980 0.08116
 C114 C -0.03174 0.27384 0.08360
 C115 C -0.03628 0.24847 0.06362
 C116 C -0.05918 0.24874 0.04188
 C117 C -0.07800 0.27411 0.03953
 C118 C -0.07403 0.29942 0.05888
 C119 C -0.01949 0.35047 0.14340
 C120 C 0.00316 0.35008 0.16540
 C121 C 0.02192 0.32468 0.16783
 C122 C 0.01818 0.29948 0.14827
 C123 C -0.06563 0.35251 0.09754
 C124 C -0.08096 0.37519 0.09478
 C125 C 0.01187 0.24771 0.10745
 C126 C 0.02902 0.22632 0.10877
 H127 H -0.02226 0.22819 0.06461
 H128 H -0.06235 0.22913 0.02679
 H129 H -0.09577 0.27418 0.02264
 H130 H -0.08924 0.31860 0.05622
 H131 H -0.03353 0.37073 0.14241
 H132 H 0.00614 0.36960 0.18064
 H133 H 0.03948 0.32449 0.18496
 H134 H 0.03332 0.28024 0.15109
 C135 C 0.51209 0.73108 0.61556
 C136 C 0.53449 0.72960 0.59244
 C137 C 0.55918 0.70929 0.59600
 C138 C 0.56131 0.69061 0.62264
 C139 C 0.53825 0.69110 0.64509
 C140 C 0.51354 0.71137 0.64152
 C141 C 0.49086 0.71160 0.66438
 C142 C 0.49253 0.69233 0.69001
 C143 C 0.51673 0.67255 0.69352
 C144 C 0.53940 0.67187 0.67140
 C145 C 0.58144 0.70838 0.57273
 C146 C 0.57936 0.72698 0.54666
 C147 C 0.55522 0.74684 0.54317
 C148 C 0.53299 0.74826 0.56574
 C149 C 0.58781 0.67201 0.62768
 C150 C 0.61012 0.65716 0.63238
 C151 C 0.48849 0.75398 0.61359
 C152 C 0.46933 0.77350 0.61292
 H153 H 0.47156 0.72653 0.66263
 H154 H 0.47496 0.69276 0.70723
 H155 H 0.51794 0.65765 0.71348
 H156 H 0.55775 0.65607 0.67510
 H157 H 0.60056 0.69320 0.57436
 H158 H 0.59655 0.72593 0.52905
 H159 H 0.55369 0.76121 0.52284
 H160 H 0.51458 0.76399 0.56197
 C161 C 1.00791 0.77191 0.38541
 C162 C 1.00691 0.79579 0.36321
 C163 C 1.02557 0.82208 0.36657
 C164 C 1.04509 0.82436 0.39212
 C165 C 1.04674 0.80008 0.41382
 C166 C 1.02811 0.77376 0.41045
 C167 C 1.03004 0.74987 0.43254
 C168 C 1.04983 0.75191 0.45724
 C169 C 1.06803 0.77766 0.46054
 C170 C 1.06657 0.80155 0.43917
 C171 C 1.02409 0.84574 0.34417
 C172 C 1.00471 0.84350 0.31917
 C173 C 0.98642 0.81781 0.31590
 C174 C 0.98741 0.79416 0.33760
 C175 C 1.06274 0.85205 0.39660
 C176 C 1.07700 0.87531 0.40049
 C177 C 0.98737 0.74607 0.38319
 C178 C 0.96986 0.72498 0.38187
 H179 H 1.01638 0.72935 0.43092
 H180 H 1.05104 0.73340 0.47390
 H181 H 1.08334 0.77915 0.47977
 H182 H 1.08117 0.82110 0.44270
 H183 H 1.03793 0.86612 0.34569
 H184 H 1.00388 0.86179 0.30224
 H185 H 0.97141 0.81617 0.29643
 H186 H 0.97282 0.77460 0.33402
 C187 C 0.48886 0.22321 -0.11274
 C188 C 0.46777 0.22172 -0.08834
 C189 C 0.44886 0.19556 -0.08537
 C190 C 0.45113 0.17108 -0.10685
 C191 C 0.47159 0.17298 -0.13177
 C192 C 0.49052 0.19912 -0.13472
 C193 C 0.51094 0.20040 -0.15972
 C194 C 0.51256 0.17656 -0.18121
 C195 C 0.49403 0.15101 -0.17834
 C196 C 0.47375 0.14911 -0.15394
 C197 C 0.42811 0.19448 -0.06067
 C198 C 0.42604 0.21859 -0.03955
 C199 C 0.44451 0.24419 -0.04246
 C200 C 0.46520 0.24585 -0.06652
 C201 C 0.43309 0.14356 -0.10286
 C202 C 0.41862 0.12034 -0.09959
 C203 C 0.50953 0.24894 -0.11462
 C204 C 0.52714 0.26993 -0.11584
 H205 H 0.52577 0.21984 -0.16297
 H206 H 0.52828 0.17794 -0.20020
 H207 H 0.49536 0.13257 -0.19511
 H208 H 0.45977 0.12881 -0.15272
 H209 H 0.41326 0.17506 -0.05747
 H210 H 0.41002 0.21741 -0.02081
 H211 H 0.44281 0.26288 -0.02600
 H212 H 0.47905 0.26626 -0.06786
 C213 C 0.10655 -0.00950 0.27414
 C214 C 0.13052 -0.01093 0.29537
 C215 C 0.12818 -0.02992 0.32196
 C216 C 0.10186 -0.04730 0.32720
 C217 C 0.07812 -0.04634 0.30568
 C218 C 0.08047 -0.02739 0.27906
 C219 C 0.05641 -0.02675 0.25793
 C220 C 0.03079 -0.04438 0.26292
 C221 C 0.02850 -0.06291 0.28894
 C222 C 0.05181 -0.06394 0.31017
 C223 C 0.15241 -0.03098 0.34286
 C224 C 0.17823 -0.01375 0.33767
 C225 C 0.18051 0.00487 0.31171
 C226 C 0.15700 0.00636 0.29073
 C227 C 0.09895 -0.06566 0.35501
 C228 C 0.09631 -0.08067 0.37825
 C229 C 0.10852 0.01072 0.24753
 C230 C 0.11010 0.02777 0.22565
 H231 H 0.05715 -0.01272 0.23733
 H232 H 0.01261 -0.04365 0.24650
 H233 H 0.00855 -0.07655 0.29273
 H234 H 0.04898 -0.07866 0.33008
 H235 H 0.15170 -0.04517 0.36334
 H236 H 0.19657 -0.01487 0.35388
 H237 H 0.20062 0.01822 0.30778
 H238 H 0.15985 0.02113 0.27085
 C239 C 0.61737 0.51421 -0.26859
 C240 C 0.64283 0.51648 -0.28797
 C241 C 0.64564 0.54163 -0.30873
 C242 C 0.62295 0.56434 -0.31002
 C243 C 0.59692 0.56138 -0.29158
 C244 C 0.59413 0.53626 -0.27076
 C245 C 0.56807 0.53397 -0.25230
 C246 C 0.54534 0.55584 -0.25442
 C247 C 0.54804 0.58038 -0.27481
 C248 C 0.57350 0.58326 -0.29321
 C249 C 0.67144 0.54361 -0.32764
 C250 C 0.69381 0.52131 -0.32615
 C251 C 0.69106 0.49670 -0.30585
 C252 C 0.66594 0.49421 -0.28691
 C253 C 0.62706 0.59139 -0.32924
 C254 C 0.63104 0.61416 -0.34463
 C255 C 0.61592 0.49018 -0.24535
 C256 C 0.61566 0.47070 -0.22555
 H257 H 0.56493 0.51523 -0.23617
 H258 H 0.52552 0.55371 -0.24018
 H259 H 0.53031 0.59728 -0.27640
 H260 H 0.57457 0.60268 -0.30878
 H261 H 0.67457 0.56231 -0.34378
 H262 H 0.71337 0.52316 -0.34080
 H263 H 0.70850 0.47944 -0.30477
 H264 H 0.66480 0.47461 -0.27154
 C265 C 0.38472 1.01012 0.77052
 C266 C 0.41135 1.02706 0.77550
 C267 C 0.41440 1.04541 0.80248
 C268 C 0.39081 1.04672 0.82429
 C269 C 0.36383 1.03055 0.81885
 C270 C 0.36079 1.01215 0.79191
 C271 C 0.33370 0.99597 0.78711
 C272 C 0.31027 0.99796 0.80830
 C273 C 0.31323 1.01600 0.83461
 C274 C 0.33965 1.03216 0.83994
 C275 C 0.44130 1.06197 0.80709
 C276 C 0.46452 1.06048 0.78564
 C277 C 0.46155 1.04255 0.75926
 C278 C 0.43533 1.02596 0.75413
 C279 C 0.39469 1.06385 0.85277
 C280 C 0.39819 1.07770 0.87660
 C281 C 0.38238 0.98973 0.74406
 C282 C 0.38080 0.97227 0.72248
 H283 H 0.33031 0.98172 0.76693
 H284 H 0.28970 0.98546 0.80425
 H285 H 0.29496 1.01751 0.85098
 H286 H 0.34087 1.04599 0.86066
 H287 H 0.44465 1.07624 0.82724
 H288 H 0.48494 1.07330 0.78953
 H289 H 0.47966 1.04148 0.74266
 H290 H 0.43405 1.01239 0.73323
 C291 C 0.88668 0.48530 0.22531
 C292 C 0.86158 0.48131 0.20585
 C293 C 0.86400 0.46267 0.17898
 C294 C 0.89151 0.44819 0.17170
 C295 C 0.91629 0.45129 0.19174
 C296 C 0.91387 0.46990 0.21862
 C297 C 0.93900 0.47281 0.23821
 C298 C 0.96574 0.45769 0.23147
 C299 C 0.96811 0.43948 0.20518
 C300 C 0.94376 0.43627 0.18545
 C301 C 0.83865 0.45909 0.15983
 C302 C 0.81166 0.47351 0.16701
 C303 C 0.80930 0.49178 0.19325
 C304 C 0.83390 0.49573 0.21252
 C305 C 0.89468 0.43100 0.14313
 C306 C 0.89776 0.41714 0.11920
 C307 C 0.88485 0.50603 0.25155
 C308 C 0.88356 0.52372 0.27297
 H309 H 0.93822 0.48666 0.25896
 H310 H 0.98470 0.46012 0.24674
 H311 H 0.98892 0.42778 0.20003
 H312 H 0.94668 0.42185 0.16531
 H313 H 0.83940 0.44502 0.13926
 H314 H 0.79247 0.47044 0.15216
 H315 H 0.78828 0.50292 0.19873
 H316 H 0.83095 0.51008 0.23273
 C317 C 0.27341 0.10922 -0.01066
 C318 C 0.29577 0.13228 -0.00904
 C319 C 0.32202 0.12974 -0.02744
 C320 C 0.32576 0.10416 -0.04736
 C321 C 0.30307 0.08151 -0.04958
 C322 C 0.27680 0.08407 -0.03121
 C323 C 0.25445 0.06111 -0.03379
 C324 C 0.25796 0.03634 -0.05394
 C325 C 0.28369 0.03380 -0.07185
 C326 C 0.30607 0.05603 -0.06976
 C327 C 0.34414 0.15298 -0.02532
 C328 C 0.34040 0.17806 -0.00561
 C329 C 0.31472 0.18057 0.01237
 C330 C 0.29259 0.15801 0.01078
 C331 C 0.35318 0.10075 -0.06504
 C332 C 0.37607 0.09750 -0.07948
 C333 C 0.24738 0.11091 0.00939
 C334 C 0.22601 0.11210 0.02638
 H335 H 0.23403 0.06210 -0.02036
 H336 H 0.24064 0.01900 -0.05565
 H337 H 0.28634 0.01449 -0.08743
 H338 H 0.32567 0.05304 -0.08413
 H339 H 0.36446 0.15205 -0.03889
 H340 H 0.35751 0.19565 -0.00429
 H341 H 0.31191 0.20012 0.02763
 H342 H 0.27298 0.16101 0.02516
 C343 C 0.72921 0.62149 0.51342
 C344 C 0.70963 0.64711 0.51469
 C345 C 0.68893 0.65001 0.53948
 C346 C 0.68792 0.62725 0.56282
 C347 C 0.70662 0.60100 0.56087
 C348 C 0.72735 0.59812 0.53611
 C349 C 0.74604 0.57183 0.53483
 C350 C 0.74423 0.54899 0.55733
 C351 C 0.72393 0.55179 0.58152
 C352 C 0.70531 0.57746 0.58340
 C353 C 0.66979 0.67597 0.54042
 C354 C 0.67100 0.69840 0.51748
 C355 C 0.69124 0.69557 0.49324
 C356 C 0.71041 0.67029 0.49176
 C357 C 0.66868 0.63154 0.58952
 C358 C 0.65326 0.63556 0.61204
 C359 C 0.75216 0.61997 0.48969
 C360 C 0.77172 0.61943 0.47048
 H361 H 0.76211 0.56858 0.51639
 H362 H 0.75864 0.52900 0.55596
 H363 H 0.72258 0.53396 0.59891
 H364 H 0.68981 0.57858 0.60258
 H365 H 0.65368 0.67917 0.55881
 H366 H 0.65616 0.71808 0.51853
 H367 H 0.69210 0.71305 0.47547
 H368 H 0.72572 0.66906 0.47242
 C369 C 0.77251 0.38042 0.00868
 C370 C 0.77372 0.40334 0.03190
 C371 C 0.79998 0.40677 0.04999
 C372 C 0.82483 0.38720 0.04482
 C373 C 0.82331 0.36371 0.02220
 C374 C 0.79707 0.36032 0.00407
 C375 C 0.79616 0.33683 -0.01858
 C376 C 0.82047 0.31724 -0.02317
 C377 C 0.84612 0.32057 -0.00545
 C378 C 0.84766 0.34351 0.01699
 C379 C 0.80079 0.43007 0.07283
 C380 C 0.77634 0.44938 0.07773
 C381 C 0.75064 0.44599 0.06009
 C382 C 0.74923 0.42329 0.03739
 C383 C 0.85227 0.39190 0.06205
 C384 C 0.87521 0.39622 0.07597
 C385 C 0.74657 0.37842 -0.01131
 C386 C 0.72540 0.37731 -0.02844
 H387 H 0.77667 0.33332 -0.03290
 H388 H 0.81939 0.29939 -0.04059
 H389 H 0.86495 0.30531 -0.00913
 H390 H 0.86808 0.34520 0.03019
 H391 H 0.82029 0.43360 0.08710
 H392 H 0.77735 0.46709 0.09528
 H393 H 0.73170 0.46104 0.06399
 H394 H 0.72874 0.42154 0.02428
 C395 C 0.22329 0.88298 0.48656
 C396 C 0.21973 0.90898 0.46722
 C397 C 0.19340 0.91218 0.44921
 C398 C 0.17083 0.88934 0.45061
 C399 C 0.17485 0.86283 0.46915
 C400 C 0.20116 0.85966 0.48720
 C401 C 0.20458 0.83308 0.50574
 C402 C 0.18266 0.81026 0.50639
 C403 C 0.15694 0.81336 0.48873
 C404 C 0.15295 0.83930 0.47030
 C405 C 0.19021 0.93851 0.43027
 C406 C 0.21244 0.96098 0.42907
 C407 C 0.23820 0.95783 0.44664
 C408 C 0.24191 0.93219 0.46556
 C409 C 0.14309 0.89360 0.43380
 C410 C 0.11987 0.89750 0.42027
 C411 C 0.24907 0.88092 0.50675
 C412 C 0.27011 0.87978 0.52403
 H413 H 0.22425 0.82960 0.51981
 H414 H 0.18566 0.79006 0.52067
 H415 H 0.13999 0.79556 0.48930
 H416 H 0.13262 0.84065 0.45691
 H417 H 0.17057 0.94198 0.41620
 H418 H 0.20965 0.98096 0.41443
 H419 H 0.25542 0.97535 0.44563
 H420 H 0.26237 0.93073 0.47876
   
