data_POSCAR
  _audit_creation_date              2014-09-24
  _audit_creation_method            'ToBaCCo'
  _symmetry_space_group_name_H-M    'P1'
  _symmetry_Int_Tables_number       1
  _symmetry_cell_setting            triclinic
  loop_
  _symmetry_equiv_pos_as_xyz
 x,y,z
_cell_length_a 20.5920
_cell_length_b 20.5823
_cell_length_c 20.5427
_cell_angle_alpha 89.935800
_cell_angle_beta 90.205400
_cell_angle_gamma 90.000600
loop_
  _atom_site_label
  _atom_site_type_symbol
  _atom_site_fract_x
  _atom_site_fract_y
  _atom_site_fract_z
O1 O -0.16665 0.09292 -0.00227
 O2 O 0.16730 0.08528 -0.00666
 O3 O 0.00007 0.16842 0.08313
 O4 O 0.00343 0.16861 -0.09297
 O5 O 0.00162 0.08923 -0.17203
 O6 O -0.00229 0.08945 0.16296
 O7 O 0.08999 0.16639 -0.00714
 O8 O -0.08560 0.17034 -0.00238
 Zr9 Zr 0.00091 0.11556 -0.00477
 O10 O 0.05839 0.05895 -0.06366
 O11 O -0.05908 0.06152 0.05439
 C12 C -0.14599 0.15255 -0.00120
 C13 C 0.14959 0.14574 -0.00801
 C14 C -0.00189 0.14949 0.14334
 C15 C 0.00367 0.14942 -0.15326
 H16 H 0.08661 0.08584 0.08207
 O17 O 0.05823 0.05863 0.05436
 H18 H -0.08653 0.08959 -0.09114
 O19 O -0.05931 0.06127 -0.06332
 O20 O 0.16315 -0.09025 -0.00181
 O21 O -0.17087 -0.08296 -0.00662
 O22 O 0.08625 -0.00251 0.16307
 O23 O 0.08561 0.00177 -0.17168
 O24 O -0.09024 0.00109 -0.17197
 O25 O -0.08935 0.00555 0.16318
 O26 O -0.00300 -0.16584 0.08402
 O27 O -0.00799 -0.16582 -0.09216
 O28 O -0.00072 -0.08686 0.16351
 O29 O -0.00689 -0.08640 -0.17155
 O30 O 0.16537 -0.00458 0.08381
 O31 O -0.16844 0.00763 0.08337
 O32 O -0.16898 0.00278 -0.09248
 O33 O 0.16521 -0.00023 -0.09236
 O34 O 0.08217 -0.16773 -0.00174
 O35 O -0.09357 -0.16396 -0.00644
 Zr36 Zr 0.11237 -0.00126 -0.00433
 Zr37 Zr -0.11593 0.00378 -0.00447
 Zr38 Zr -0.00165 0.00127 0.11026
 Zr39 Zr -0.00218 0.00138 -0.11887
 Zr40 Zr -0.00449 -0.11298 -0.00416
 O41 O -0.06221 -0.05633 -0.06341
 O42 O 0.05583 -0.05891 0.05483
 C43 C 0.14258 -0.14987 -0.00060
 C44 C -0.15332 -0.14356 -0.00758
 C45 C 0.14616 -0.00492 0.14396
 C46 C 0.14574 0.00154 -0.15256
 C47 C -0.15031 0.00134 -0.15273
 C48 C -0.14933 0.00829 0.14358
 C49 C -0.00094 -0.14708 0.14431
 C50 C -0.00904 -0.14640 -0.15234
 H51 H -0.08996 -0.08328 0.08242
 O52 O -0.06173 -0.05617 0.05460
 H53 H 0.08229 -0.08699 -0.09079
 O54 O 0.05526 -0.05867 -0.06304
 O55 O 0.32998 0.58577 -0.00122
 O56 O 0.66407 0.59397 -0.00571
 O57 O 0.49325 0.66879 0.08476
 O58 O 0.49740 0.66919 -0.09145
 O59 O 0.49827 0.58992 -0.17080
 O60 O 0.49571 0.58970 0.16432
 O61 O 0.58296 0.67128 -0.00557
 O62 O 0.40728 0.66694 -0.00113
 Zr63 Zr 0.49637 0.61622 -0.00337
 O64 O 0.55623 0.56233 -0.06254
 O65 O 0.43882 0.55944 0.05557
 C66 C 0.34771 0.64622 -0.00004
 C67 C 0.64345 0.65363 -0.00675
 C68 C 0.49330 0.64989 0.14508
 C69 C 0.49849 0.64988 -0.15160
 H70 H 0.58370 0.59016 0.08323
 O71 O 0.55645 0.56190 0.05545
 H72 H 0.41027 0.58650 -0.09005
 O73 O 0.43875 0.55940 -0.06228
 O74 O 0.66798 0.41808 -0.00119
 O75 O 0.33397 0.41015 -0.00615
 O76 O 0.58727 0.50092 0.16391
 O77 O 0.58604 0.50654 -0.17086
 O78 O 0.41025 0.49800 -0.17125
 O79 O 0.41123 0.50201 0.16401
 O80 O 0.50565 0.33491 0.08400
 O81 O 0.50002 0.33484 -0.09196
 O82 O 0.50325 0.41366 0.16385
 O83 O 0.49801 0.41439 -0.17113
 O84 O 0.66638 0.50332 0.08475
 O85 O 0.33216 0.49992 0.08416
 O86 O 0.33164 0.49598 -0.09166
 O87 O 0.66578 0.50821 -0.09164
 O88 O 0.59056 0.33704 -0.00162
 O89 O 0.41504 0.33280 -0.00612
 Zr90 Zr 0.61324 0.50475 -0.00348
 Zr91 Zr 0.38482 0.49924 -0.00367
 Zr92 Zr 0.49917 0.50181 0.11112
 Zr93 Zr 0.49839 0.50211 -0.11804
 Zr94 Zr 0.50157 0.38780 -0.00385
 O95 O 0.44108 0.44168 -0.06283
 O96 O 0.55927 0.44445 0.05541
 C97 C 0.65015 0.35765 -0.00028
 C98 C 0.35459 0.35052 -0.00731
 C99 C 0.64735 0.50126 0.14501
 C100 C 0.64614 0.50884 -0.15182
 C101 C 0.35019 0.49550 -0.15198
 C102 C 0.35117 0.50150 0.14438
 C103 C 0.50600 0.35375 0.14420
 C104 C 0.49818 0.35427 -0.15212
 H105 H 0.41483 0.41337 0.08279
 O106 O 0.44186 0.44182 0.05513
 H107 H 0.58695 0.41777 -0.09026
 O108 O 0.55877 0.44486 -0.06243
 O109 O -0.16633 0.59343 0.49814
 O110 O 0.16776 0.58521 0.49427
 O111 O 0.00051 0.66848 0.58382
 O112 O 0.00402 0.66906 0.40762
 O113 O 0.00229 0.58965 0.32847
 O114 O -0.00200 0.58935 0.66352
 O115 O 0.09048 0.66640 0.49356
 O116 O -0.08540 0.67081 0.49818
 Zr117 Zr 0.00127 0.61585 0.49585
 O118 O 0.05884 0.55911 0.43716
 O119 O -0.05869 0.56177 0.55500
 C120 C -0.14595 0.65321 0.49922
 C121 C 0.15005 0.64564 0.49280
 C122 C -0.00152 0.64940 0.64397
 C123 C 0.00438 0.64974 0.34739
 H124 H 0.08693 0.58580 0.58282
 O125 O 0.05856 0.55869 0.55501
 H126 H -0.08604 0.59013 0.40932
 O127 O -0.05885 0.56175 0.43709
 O128 O 0.16370 0.40964 0.49869
 O129 O -0.17030 0.41766 0.49337
 O130 O 0.08655 0.49738 0.66399
 O131 O 0.08622 0.50248 0.32903
 O132 O -0.08983 0.50157 0.32836
 O133 O -0.08919 0.50541 0.66364
 O134 O -0.00277 0.33414 0.58385
 O135 O -0.00731 0.33456 0.40779
 O136 O -0.00057 0.41287 0.66371
 O137 O -0.00612 0.41414 0.32859
 O138 O 0.16588 0.49551 0.58495
 O139 O -0.16813 0.50776 0.58368
 O140 O -0.16859 0.50341 0.40794
 O141 O 0.16574 0.50017 0.40847
 O142 O 0.08260 0.33233 0.49832
 O143 O -0.09294 0.33657 0.49330
 Zr144 Zr 0.11290 0.49877 0.49650
 Zr145 Zr -0.11546 0.50428 0.49590
 Zr146 Zr -0.00131 0.50125 0.61081
 Zr147 Zr -0.00167 0.50181 0.38155
 Zr148 Zr -0.00394 0.38731 0.49595
 O149 O -0.06172 0.44413 0.43689
 O150 O 0.05626 0.44106 0.55539
 C151 C 0.14305 0.35001 0.49957
 C152 C -0.15252 0.35721 0.49212
 C153 C 0.14658 0.49509 0.64513
 C154 C 0.14631 0.50221 0.34826
 C155 C -0.14983 0.50189 0.34777
 C156 C -0.14916 0.50820 0.64393
 C157 C -0.00081 0.35283 0.64412
 C158 C -0.00822 0.35407 0.34763
 H159 H -0.08958 0.41692 0.58250
 O160 O -0.06128 0.44407 0.55479
 H161 H 0.08290 0.41341 0.40958
 O162 O 0.05584 0.44168 0.43734
 O163 O 0.33031 0.08444 0.49770
 O164 O 0.66425 0.09254 0.49377
 O165 O 0.49313 0.16781 0.58347
 O166 O 0.49775 0.16773 0.40759
 O167 O 0.49912 0.08831 0.32844
 O168 O 0.49547 0.08898 0.66340
 O169 O 0.58305 0.16980 0.49343
 O170 O 0.40750 0.16566 0.49758
 Zr171 Zr 0.49659 0.11485 0.49569
 O172 O 0.55676 0.06083 0.43695
 O173 O 0.43903 0.05838 0.55488
 C174 C 0.34793 0.14495 0.49868
 C175 C 0.64348 0.15211 0.49241
 C176 C 0.49288 0.14896 0.64374
 C177 C 0.49915 0.14837 0.34748
 H178 H 0.58378 0.08917 0.58256
 O179 O 0.55668 0.06076 0.55478
 H180 H 0.41073 0.08484 0.40898
 O181 O 0.43920 0.05786 0.43689
 O182 O 0.66880 -0.08321 0.49870
 O183 O 0.33475 -0.09116 0.49353
 O184 O 0.58716 0.00040 0.66363
 O185 O 0.58676 0.00482 0.32883
 O186 O 0.41121 -0.00412 0.32839
 O187 O 0.41129 0.00101 0.66343
 O188 O 0.50652 -0.16602 0.58420
 O189 O 0.50066 -0.16681 0.40786
 O190 O 0.50361 -0.08682 0.66362
 O191 O 0.49877 -0.08733 0.32859
 O192 O 0.66655 0.00226 0.58462
 O193 O 0.33241 -0.00130 0.58345
 O194 O 0.33247 -0.00623 0.40798
 O195 O 0.66636 0.00680 0.40817
 O196 O 0.59160 -0.16444 0.49832
 O197 O 0.41579 -0.16858 0.49379
 Zr198 Zr 0.61369 0.00335 0.49623
 Zr199 Zr 0.38539 -0.00210 0.49582
 Zr200 Zr 0.49933 0.00092 0.61057
 Zr201 Zr 0.49915 0.00049 0.38151
 Zr202 Zr 0.50237 -0.11368 0.49600
 O203 O 0.44192 -0.05978 0.43697
 O204 O 0.55968 -0.05668 0.55525
 C205 C 0.65121 -0.14374 0.49963
 C206 C 0.35537 -0.15076 0.49250
 C207 C 0.64717 0.00053 0.64473
 C208 C 0.64679 0.00727 0.34797
 C209 C 0.35133 -0.00698 0.34786
 C210 C 0.35125 0.00040 0.64371
 C211 C 0.50670 -0.14678 0.64429
 C212 C 0.49879 -0.14745 0.34764
 H213 H 0.41536 -0.08779 0.58247
 O214 O 0.44240 -0.05944 0.55471
 H215 H 0.58772 -0.08384 0.40956
 O216 O 0.55949 -0.05671 0.43729
 C217 C 0.20232 0.19413 -0.00959
 C218 C 0.19102 0.25836 -0.01028
 C219 C 0.24198 0.30922 -0.01009
 C220 C 0.30617 0.29781 -0.00911
 H221 H 0.14135 0.27568 -0.01039
 H222 H 0.22474 0.35895 -0.01015
 H223 H 0.25126 0.17532 -0.00958
 H224 H 0.32490 0.24883 -0.00912
 C225 C 0.20280 -0.30619 0.49116
 C226 C 0.19161 -0.24200 0.48989
 C227 C 0.24274 -0.19144 0.48995
 C228 C 0.30685 -0.20324 0.49078
 H229 H 0.14200 -0.22451 0.48945
 H230 H 0.22572 -0.14165 0.48987
 H231 H 0.25166 -0.32516 0.49159
 H232 H 0.32544 -0.25228 0.49069
 C233 C 0.79657 0.81044 -0.00904
 C234 C 0.80738 0.74593 -0.00951
 C235 C 0.75616 0.69517 -0.00945
 C236 C 0.69193 0.70650 -0.00836
 H237 H 0.85685 0.72799 -0.00943
 H238 H 0.77331 0.64542 -0.00970
 H239 H 0.74749 0.82897 -0.00939
 H240 H 0.67326 0.75551 -0.00811
 C241 C 0.79494 0.30874 0.49033
 C242 C 0.80656 0.24458 0.48958
 C243 C 0.75587 0.19356 0.48967
 C244 C 0.69171 0.20486 0.49060
 H245 H 0.85629 0.22744 0.48956
 H246 H 0.77325 0.14388 0.48961
 H247 H 0.74596 0.32742 0.49025
 H248 H 0.67283 0.25378 0.49055
 C249 C 0.80576 0.20524 0.00042
 C250 C 0.74160 0.19393 0.00124
 C251 C 0.69096 0.24498 0.00124
 C252 C 0.70264 0.30914 0.00136
 H253 H 0.72422 0.14426 0.00121
 H254 H 0.64121 0.22787 0.00060
 H255 H 0.82463 0.25416 0.00034
 H256 H 0.75162 0.32779 0.00217
 C257 C 0.80805 -0.29671 0.50071
 C258 C 0.74360 -0.30762 0.50124
 C259 C 0.69282 -0.25645 0.50126
 C260 C 0.70409 -0.19218 0.50123
 H261 H 0.72571 -0.35713 0.50103
 H262 H 0.64311 -0.27368 0.50074
 H263 H 0.82654 -0.24759 0.50097
 H264 H 0.75305 -0.17344 0.50184
 C265 C 0.19143 0.29724 0.50104
 C266 C 0.25564 0.30854 0.50110
 C267 C 0.30652 0.25759 0.50096
 C268 C 0.29518 0.19335 0.50016
 H269 H 0.27294 0.35824 0.50074
 H270 H 0.35621 0.27487 0.50093
 H271 H 0.17266 0.24827 0.50150
 H272 H 0.24623 0.17458 0.50014
 C273 C 0.19109 0.79763 0.00113
 C274 C 0.25522 0.80934 0.00186
 C275 C 0.30627 0.75869 0.00190
 C276 C 0.29501 0.69448 0.00161
 H277 H 0.27230 0.85912 0.00176
 H278 H 0.35590 0.77611 0.00156
 H279 H 0.17247 0.74861 0.00122
 H280 H 0.24612 0.67557 0.00204
 C281 C -0.00270 0.20149 0.19251
 C282 C -0.00834 0.18983 0.25654
 C283 C -0.00817 0.24079 0.30753
 C284 C -0.01073 0.30489 0.29565
 H285 H -0.01198 0.14011 0.27347
 H286 H -0.00590 0.22384 0.35742
 H287 H 0.00209 0.25048 0.17432
 H288 H -0.01430 0.32316 0.24649
 C289 C 0.49713 0.30500 0.79588
 C290 C 0.49482 0.24089 0.80789
 C291 C 0.49485 0.18970 0.75707
 C292 C 0.49054 0.20105 0.69284
 H293 H 0.49403 0.22407 0.85786
 H294 H 0.49869 0.14007 0.77426
 H295 H 0.49888 0.32321 0.74662
 H296 H 0.48572 0.24993 0.67433
 C297 C -0.01179 0.80436 0.79591
 C298 C -0.00859 0.74034 0.80798
 C299 C -0.00880 0.68943 0.75707
 C300 C -0.00227 0.70122 0.69318
 H301 H -0.00584 0.72348 0.85788
 H302 H -0.01307 0.63972 0.77389
 H303 H -0.01610 0.82249 0.74675
 H304 H 0.00339 0.75018 0.67515
 C305 C 0.49177 -0.30080 0.19189
 C306 C 0.49366 -0.31210 0.25642
 C307 C 0.49429 -0.26083 0.30732
 C308 C 0.49739 -0.19671 0.29552
 H309 H 0.49511 -0.36171 0.27408
 H310 H 0.49297 -0.27768 0.35726
 H311 H 0.48957 -0.25160 0.17370
 H312 H 0.49921 -0.17839 0.24631
 C313 C 0.00046 0.80343 0.19116
 C314 C 0.00299 0.81460 0.25569
 C315 C 0.00361 0.76327 0.30671
 C316 C 0.00604 0.69907 0.29514
 H317 H 0.00377 0.86420 0.27330
 H318 H 0.00169 0.78012 0.35659
 H319 H -0.00087 0.75422 0.17304
 H320 H 0.00849 0.68077 0.24600
 C321 C 0.49897 -0.30089 0.79662
 C322 C 0.50371 -0.23705 0.80869
 C323 C 0.50338 -0.18627 0.75766
 C324 C 0.50964 -0.19824 0.69380
 H325 H 0.50641 -0.22026 0.85858
 H326 H 0.49798 -0.13664 0.77425
 H327 H 0.49456 -0.31885 0.74744
 H328 H 0.51674 -0.24706 0.67603
 C329 C 0.50869 0.30174 0.19330
 C330 C 0.50297 0.31301 0.25733
 C331 C 0.50321 0.26171 0.30798
 C332 C 0.49985 0.19776 0.29566
 H333 H 0.49798 0.36252 0.27441
 H334 H 0.50483 0.27829 0.35798
 H335 H 0.51501 0.25301 0.17500
 H336 H 0.49683 0.17986 0.24637
 C337 C 0.00507 0.19623 0.79726
 C338 C 0.00544 0.26064 0.80869
 C339 C 0.00495 0.31175 0.75751
 C340 C 0.00037 0.30047 0.69327
 H341 H 0.00589 0.27807 0.85844
 H342 H 0.00776 0.36146 0.77454
 H343 H 0.00527 0.17821 0.74791
 H344 H -0.00288 0.25150 0.67480
 C345 C 0.19552 -0.00674 0.19582
 C346 C 0.25948 -0.00919 0.18370
 C347 C 0.31076 -0.00832 0.23450
 C348 C 0.29936 -0.01040 0.29872
 H349 H 0.27608 -0.01037 0.13374
 H350 H 0.36036 -0.00539 0.21737
 H351 H 0.17745 -0.00465 0.24501
 H352 H 0.25055 -0.01428 0.31728
 C353 C 0.30062 0.49303 0.80127
 C354 C 0.31156 0.49308 0.73670
 C355 C 0.26009 0.49248 0.68576
 C356 C 0.19593 0.49317 0.69742
 H357 H 0.36106 0.49426 0.71902
 H358 H 0.27682 0.49250 0.63584
 H359 H 0.25154 0.49147 0.81952
 H360 H 0.17768 0.49341 0.74660
 C361 C 0.80034 0.00088 0.80048
 C362 C 0.81167 -0.00005 0.73604
 C363 C 0.76045 0.00041 0.68509
 C364 C 0.69639 -0.00064 0.69686
 H365 H 0.86123 -0.00058 0.71851
 H366 H 0.77723 0.00173 0.63519
 H367 H 0.75121 0.00177 0.81863
 H368 H 0.67805 -0.00242 0.74596
 C369 C -0.30579 0.49998 0.19439
 C370 C -0.24149 0.50073 0.18295
 C371 C -0.19049 0.50012 0.23422
 C372 C -0.20200 0.50153 0.29848
 H373 H -0.22412 0.50184 0.13324
 H374 H -0.14074 0.49908 0.21728
 H375 H -0.32376 0.49833 0.24367
 H376 H -0.25097 0.50304 0.31694
 C377 C 0.19501 0.00268 0.79554
 C378 C 0.25916 0.00157 0.80767
 C379 C 0.31042 0.00216 0.75700
 C380 C 0.29907 0.00067 0.69263
 H381 H 0.27598 0.00027 0.85767
 H382 H 0.36011 0.00323 0.77443
 H383 H 0.17670 0.00457 0.74629
 H384 H 0.25010 -0.00097 0.67381
 C385 C 0.29917 0.50169 0.19341
 C386 C 0.31075 0.50312 0.25774
 C387 C 0.25966 0.50234 0.30851
 C388 C 0.19553 0.50364 0.29642
 H389 H 0.36049 0.50423 0.27503
 H390 H 0.27655 0.50071 0.35848
 H391 H 0.25017 0.49995 0.17470
 H392 H 0.17716 0.50592 0.24721
 C393 C 0.79891 0.01135 0.19271
 C394 C 0.81077 0.01032 0.25700
 C395 C 0.75991 0.01096 0.30795
 C396 C 0.69579 0.00938 0.29602
 H397 H 0.86054 0.00830 0.27412
 H398 H 0.77696 0.01142 0.35788
 H399 H 0.74991 0.01400 0.17410
 H400 H 0.67726 0.00834 0.24683
 C401 C -0.30480 0.51097 0.79617
 C402 C -0.24063 0.51145 0.80813
 C403 C -0.18957 0.51081 0.75729
 C404 C -0.20115 0.51106 0.69294
 H405 H -0.22364 0.51118 0.85809
 H406 H -0.13984 0.50934 0.77458
 H407 H -0.32328 0.51096 0.74695
 H408 H -0.25014 0.51287 0.67420
   
