data_POSCAR
  _audit_creation_date              2014-09-24
  _audit_creation_method            'ToBaCCo'
  _symmetry_space_group_name_H-M    'P1'
  _symmetry_Int_Tables_number       1
  _symmetry_cell_setting            triclinic
  loop_
  _symmetry_equiv_pos_as_xyz
 x,y,z
_cell_length_a 27.7809
_cell_length_b 28.5944
_cell_length_c 28.5423
_cell_angle_alpha 92.383600
_cell_angle_beta 93.721900
_cell_angle_gamma 91.382400
loop_
  _atom_site_label
  _atom_site_type_symbol
  _atom_site_fract_x
  _atom_site_fract_y
  _atom_site_fract_z
N1 N 0.20941 1.29907 0.19399
 N2 N 0.17641 1.29599 0.22471
 C3 C 0.13844 1.32155 0.21101
 C4 C 0.14735 1.34092 0.16847
 C5 C 0.19370 1.32704 0.15978
 H6 H 0.10687 1.32570 0.23090
 H7 H 0.21326 1.33395 0.12913
 Cu8 Cu 0.18348 1.25487 0.27704
 Cu9 Cu 0.26760 1.26215 0.19851
 Cu10 Cu 0.24942 1.16053 0.25743
 N11 N 0.17782 1.19998 0.31417
 N12 N 0.20354 1.16288 0.30623
 C13 C 0.18802 1.12787 0.33194
 C14 C 0.14914 1.14321 0.35615
 C15 C 0.14494 1.18986 0.34506
 H16 H 0.20128 1.09264 0.32996
 H17 H 0.11928 1.21454 0.35757
 N18 N 0.30163 1.16854 0.21454
 N19 N 0.30926 1.20770 0.19288
 C20 C 0.34433 1.20103 0.16302
 C21 C 0.35959 1.15551 0.16619
 C22 C 0.33169 1.13599 0.19908
 H23 H 0.35511 1.22610 0.13807
 H24 H 0.33148 1.09984 0.20880
 H25 H 0.22113 1.21140 0.21502
 H26 H 0.26592 1.23046 0.26393
 N27 N 0.80806 0.72421 0.13572
 N28 N 0.83974 0.72430 0.17208
 C29 C 0.87048 0.68927 0.16584
 C30 C 0.85672 0.66563 0.12382
 C31 C 0.81701 0.68853 0.10548
 H32 H 0.90124 0.68210 0.18939
 H33 H 0.79735 0.68096 0.07196
 Cu34 Cu 0.83920 0.77204 0.22241
 Cu35 Cu 0.75966 0.77245 0.12933
 Cu36 Cu 0.78547 0.87208 0.20173
 N37 N 0.83480 0.81944 0.27275
 N38 N 0.81415 0.85921 0.26391
 C39 C 0.82161 0.88883 0.30161
 C40 C 0.84807 0.86646 0.33680
 C41 C 0.85579 0.82225 0.31667
 H42 H 0.81255 0.92536 0.30125
 H43 H 0.87697 0.79483 0.33191
 N44 N 0.74011 0.87104 0.14571
 N45 N 0.72912 0.83308 0.11884
 C46 C 0.69611 0.84385 0.08451
 C47 C 0.68637 0.89096 0.08985
 C48 C 0.71430 0.90677 0.12945
 H49 H 0.68038 0.81934 0.05759
 H50 H 0.71472 0.94153 0.14597
 H51 H 0.81081 0.81906 0.15738
 H52 H 0.76222 0.80475 0.19699
 N53 N 0.80091 1.28746 -0.17941
 N54 N 0.83837 1.28185 -0.20467
 C55 C 0.87232 1.31486 -0.19111
 C56 C 0.85525 1.34296 -0.15538
 C57 C 0.80987 1.32405 -0.14865
 H58 H 0.90765 1.31700 -0.20483
 H59 H 0.78622 1.33432 -0.12161
 Cu60 Cu 0.84123 1.22925 -0.24957
 Cu61 Cu 0.74455 1.24529 -0.18723
 Cu62 Cu 0.76860 1.13595 -0.23587
 N63 N 0.85171 1.16891 -0.28026
 N64 N 0.82180 1.13303 -0.27716
 C65 C 0.83763 1.09608 -0.30207
 C66 C 0.88102 1.10899 -0.32004
 C67 C 0.88823 1.15580 -0.30607
 H68 H 0.82032 1.06169 -0.30470
 H69 H 0.91735 1.17896 -0.31484
 N70 N 0.71057 1.14838 -0.20140
 N71 N 0.70107 1.19036 -0.18387
 C72 C 0.66072 1.18749 -0.16041
 C73 C 0.64367 1.14155 -0.16350
 C74 C 0.67644 1.11766 -0.18941
 H75 H 0.64604 1.21627 -0.14064
 H76 H 0.67665 1.08028 -0.19685
 H77 H 0.79243 1.19337 -0.19248
 H78 H 0.75623 1.20421 -0.24809
 N79 N 0.16856 0.71564 -0.13934
 N80 N 0.13113 0.71712 -0.16989
 C81 C 0.09895 0.68308 -0.16124
 C82 C 0.11773 0.65879 -0.12371
 C83 C 0.16177 0.68043 -0.11045
 H84 H 0.06457 0.67646 -0.18069
 H85 H 0.18650 0.67182 -0.08142
 Cu86 Cu 0.12802 0.76373 -0.21779
 Cu87 Cu 0.22132 0.76188 -0.13773
 Cu88 Cu 0.23637 0.80297 -0.24803
 N89 N 0.13483 0.79942 -0.27362
 N90 N 0.17752 0.81106 -0.28751
 C91 C 0.17196 0.83248 -0.32854
 C92 C 0.12295 0.83529 -0.34068
 C93 C 0.10056 0.81458 -0.30440
 H94 H 0.20128 0.84815 -0.34614
 H95 H 0.06217 0.81023 -0.30108
 N96 N 0.28579 0.81193 -0.19504
 N97 N 0.27907 0.79761 -0.15251
 C98 C 0.31244 0.81838 -0.12173
 C99 C 0.34124 0.84769 -0.14586
 C100 C 0.32397 0.84212 -0.19240
 H101 H 0.31241 0.81647 -0.08397
 H102 H 0.33453 0.86295 -0.22101
 H103 H 0.19873 0.80993 -0.18873
 H104 H 0.21406 0.74870 -0.20732
 C105 C 0.46338 1.05003 0.02578
 C106 C 0.50570 1.02221 0.04608
 C107 C 0.52940 0.99771 0.01353
 C108 C 0.50899 1.00243 -0.03714
 C109 C 0.48437 1.08004 -0.01199
 C110 C 0.50905 1.05556 -0.04430
 C111 C 0.43161 1.01330 -0.00386
 C112 C 0.45535 0.98867 -0.03653
 H113 H 0.51642 1.02246 0.08328
 H114 H 0.52878 0.98197 -0.06328
 H115 H 0.48106 1.11769 -0.01231
 H116 H 0.39283 1.01000 -0.00368
 C117 C 0.03247 0.46203 1.04900
 C118 C 0.06061 0.49351 1.01671
 C119 C 0.03215 0.51798 0.98626
 C120 C -0.02203 0.51058 0.99171
 C121 C 0.00022 0.49653 1.07376
 C122 C -0.02849 0.52132 1.04420
 C123 C -0.00152 0.43253 1.01417
 C124 C -0.03048 0.45739 0.98463
 H125 H 0.09922 0.49835 1.01782
 H126 H -0.04479 0.53149 0.96747
 H127 H 0.00069 0.50144 1.11164
 H128 H -0.00118 0.39462 1.01206
 C129 C 1.03989 0.02521 0.47472
 C130 C 1.01427 0.04988 0.51436
 C131 C 0.98657 0.02096 0.53890
 C132 C 0.98622 -0.03058 0.52129
 C133 C 1.06806 -0.01315 0.50082
 C134 C 1.03981 -0.04297 0.52418
 C135 C 1.00032 -0.00223 0.44454
 C136 C 0.97211 -0.03042 0.46868
 H137 H 1.01945 0.08690 0.52353
 H138 H 0.96275 -0.05414 0.54044
 H139 H 1.10680 -0.01392 0.50623
 H140 H 0.99567 -0.00016 0.40669
 C141 C 0.06543 0.36453 1.13688
 C142 C 0.11686 0.36839 1.13966
 C143 C 0.13875 0.40183 1.11291
 C144 C 0.11183 0.43214 1.08575
 C145 C 0.06106 0.43086 1.08333
 C146 C 0.03753 0.39743 1.11087
 C147 C 0.04080 0.32645 1.15581
 C148 C -0.00931 0.32417 1.15517
 C149 C -0.03626 0.35874 1.13430
 C150 C -0.01342 0.39451 1.11187
 H151 H 0.05945 0.29676 1.16935
 H152 H -0.02733 0.29507 1.17046
 H153 H -0.07525 0.35699 1.13408
 H154 H -0.03676 0.41904 1.09493
 H155 H 0.17768 0.40604 1.11403
 H156 H 0.13237 0.45672 1.06715
 C157 C -0.13383 0.58016 1.10082
 C158 C -0.11736 0.62741 1.10128
 C159 C -0.07362 0.63860 1.08222
 C160 C -0.04602 0.60377 1.06272
 C161 C -0.06122 0.55677 1.06206
 C162 C -0.10521 0.54441 1.08153
 C163 C -0.17758 0.56754 1.12008
 C164 C -0.19280 0.52071 1.12025
 C165 C -0.16475 0.48573 1.10159
 C166 C -0.12128 0.49727 1.08254
 H167 H -0.20024 0.59366 1.13519
 H168 H -0.22647 0.51150 1.13505
 H169 H -0.17674 0.44944 1.10186
 H170 H -0.10075 0.46909 1.06813
 H171 H -0.06043 0.67462 1.08302
 H172 H -0.01168 0.61346 1.04954
 C173 C -0.13768 0.41731 0.89806
 C174 C -0.11652 0.37841 0.87547
 C175 C -0.06744 0.37052 0.88547
 C176 C -0.04035 0.39791 0.91927
 C177 C -0.06128 0.43372 0.94547
 C178 C -0.11043 0.44418 0.93445
 C179 C -0.18517 0.43052 0.88497
 C180 C -0.20666 0.46685 0.90929
 C181 C -0.18129 0.49091 0.94676
 C182 C -0.13371 0.47987 0.95918
 H183 H -0.20582 0.41366 0.85532
 H184 H -0.24323 0.47631 0.89907
 H185 H -0.19834 0.51869 0.96599
 H186 H -0.11578 0.49966 0.98823
 H187 H -0.05004 0.34156 0.86843
 H188 H -0.00265 0.38998 0.92602
 C189 C 0.11288 0.57418 0.89865
 C190 C 0.09455 0.61995 0.89958
 C191 C 0.05373 0.62949 0.92412
 C192 C 0.03291 0.59539 0.95036
 C193 C 0.05199 0.55054 0.95259
 C194 C 0.09066 0.53880 0.92436
 C195 C 0.15207 0.56252 0.87171
 C196 C 0.16835 0.51681 0.86927
 C197 C 0.14558 0.48185 0.89292
 C198 C 0.10689 0.49247 0.91990
 H199 H 0.16990 0.58836 0.85172
 H200 H 0.19827 0.50830 0.84827
 H201 H 0.15770 0.44622 0.89003
 H202 H 0.08927 0.46383 0.93619
 H203 H 0.03894 0.66422 0.92439
 H204 H 0.00253 0.60477 0.97028
 C205 C 1.06928 0.12200 0.38707
 C206 C 1.11976 0.11571 0.38363
 C207 C 1.14173 0.07971 0.40826
 C208 C 1.11638 0.05218 0.43762
 C209 C 1.06735 0.05904 0.44450
 C210 C 1.04337 0.09485 0.41882
 C211 C 1.04273 0.15116 0.35648
 C212 C 0.99376 0.15797 0.36054
 C213 C 0.96942 0.13458 0.39375
 C214 C 0.99343 0.10289 0.42195
 H215 H 1.05839 0.16723 0.32738
 H216 H 0.97438 0.18083 0.33709
 H217 H 0.93121 0.13974 0.39656
 H218 H 0.97138 0.08437 0.44507
 H219 H 1.17979 0.07323 0.40596
 H220 H 1.13645 0.02500 0.45418
 C221 C 1.11839 -0.13962 0.57645
 C222 C 1.10083 -0.14013 0.62228
 C223 C 1.06047 -0.11357 0.63179
 C224 C 1.04125 -0.08294 0.59946
 C225 C 1.05981 -0.07931 0.55526
 C226 C 1.09700 -0.10967 0.54247
 C227 C 1.15387 -0.17094 0.56222
 C228 C 1.16895 -0.17176 0.51659
 C229 C 1.14801 -0.14275 0.48363
 C230 C 1.11191 -0.11256 0.49603
 H231 H 1.16900 -0.19651 0.58533
 H232 H 1.19613 -0.19599 0.50640
 H233 H 1.15901 -0.14442 0.44791
 H234 H 1.09491 -0.09279 0.46838
 H235 H 1.04577 -0.11352 0.66605
 H236 H 1.01264 -0.06054 0.61004
 C237 C 0.85520 -0.06998 0.39999
 C238 C 0.87086 -0.11256 0.37869
 C239 C 0.91429 -0.13127 0.39705
 C240 C 0.94519 -0.10536 0.42918
 C241 C 0.93364 -0.06024 0.44430
 C242 C 0.88785 -0.04271 0.43128
 C243 C 0.80749 -0.05454 0.39248
 C244 C 0.79395 -0.01140 0.41135
 C245 C 0.82724 0.01683 0.43877
 C246 C 0.87375 0.00133 0.44901
 H247 H 0.77984 -0.07622 0.37330
 H248 H 0.75736 0.00006 0.40487
 H249 H 0.81663 0.05039 0.45309
 H250 H 0.89819 0.02364 0.47157
 H251 H 0.92721 -0.16422 0.38358
 H252 H 0.98002 -0.11928 0.43967
 C253 C 0.96144 0.08684 0.65374
 C254 C 0.91017 0.08150 0.65167
 C255 C 0.88753 0.04904 0.61845
 C256 C 0.91330 0.02798 0.58335
 C257 C 0.96265 0.03765 0.58113
 C258 C 0.98777 0.06454 0.61826
 C259 C 0.98756 0.11070 0.69215
 C260 C 1.03777 0.11451 0.69426
 C261 C 1.06325 0.09341 0.65920
 C262 C 1.03875 0.06807 0.62192
 H263 H 0.96991 0.12488 0.72199
 H264 H 1.05706 0.13296 0.72391
 H265 H 1.10230 0.09566 0.66152
 H266 H 1.06030 0.05009 0.59699
 H267 H 0.84882 0.04286 0.61690
 H268 H 0.89397 0.00591 0.55629
 C269 C 0.43641 1.14458 0.12310
 C270 C 0.38937 1.12966 0.13316
 C271 C 0.36963 1.08822 0.11171
 C272 C 0.39400 1.06293 0.07867
 C273 C 0.43931 1.07817 0.06472
 C274 C 0.46222 1.11813 0.08967
 C275 C 0.45914 1.18417 0.14708
 C276 C 0.50626 1.19753 0.13884
 C277 C 0.53196 1.17133 0.10739
 C278 C 0.51060 1.13191 0.08342
 H279 H 0.44119 1.20463 0.17311
 H280 H 0.52324 1.22788 0.15762
 H281 H 0.56895 1.18131 0.10190
 H282 H 0.53319 1.11220 0.06097
 H283 H 0.33430 1.07543 0.12008
 H284 H 0.37663 1.03066 0.06508
 C285 C 0.57162 1.08573 -0.15623
 C286 C 0.60472 1.12111 -0.13690
 C287 C 0.60191 1.13683 -0.09007
 C288 C 0.56934 1.11643 -0.06161
 C289 C 0.53858 1.07908 -0.07862
 C290 C 0.53842 1.06444 -0.12681
 C291 C 0.56954 1.07213 -0.20449
 C292 C 0.53645 1.03778 -0.22315
 C293 C 0.50425 1.01699 -0.19449
 C294 C 0.50483 1.03042 -0.14698
 H295 H 0.59243 1.08861 -0.22854
 H296 H 0.53530 1.02777 -0.26021
 H297 H 0.47812 0.99085 -0.20930
 H298 H 0.47801 1.01473 -0.12667
 H299 H 0.62644 1.16412 -0.07466
 H300 H 0.56959 1.12891 -0.02524
 C301 C 0.36058 0.93398 -0.12668
 C302 C 0.37263 0.88609 -0.12387
 C303 C 0.41348 0.87399 -0.09607
 C304 C 0.44171 0.90810 -0.07012
 C305 C 0.42963 0.95524 -0.07098
 C306 C 0.39010 0.96885 -0.10090
 C307 C 0.31896 0.94811 -0.15302
 C308 C 0.30848 0.99535 -0.15620
 C309 C 0.33875 1.02945 -0.13298
 C310 C 0.37907 1.01652 -0.10543
 H311 H 0.29372 0.92321 -0.17107
 H312 H 0.27669 1.00554 -0.17686
 H313 H 0.33071 1.06610 -0.13596
 H314 H 0.40169 1.04423 -0.08813
 H315 H 0.42279 0.83757 -0.09336
 H316 H 0.47191 0.89738 -0.04749
 C317 C 0.65808 0.96513 0.05165
 C318 C 0.64977 0.91782 0.06296
 C319 C 0.60395 0.89692 0.05241
 C320 C 0.56576 0.92291 0.03436
 C321 C 0.57225 0.97054 0.02668
 C322 C 0.61867 0.99198 0.03462
 C323 C 0.70471 0.98631 0.05634
 C324 C 0.71183 1.03333 0.04679
 C325 C 0.67288 1.06005 0.03223
 C326 C 0.62671 1.03969 0.02614
 H327 H 0.73619 0.96665 0.06645
 H328 H 0.74776 1.04909 0.05068
 H329 H 0.67851 1.09662 0.02518
 H330 H 0.59748 1.06148 0.01465
 H331 H 0.59698 0.86078 0.06041
 H332 H 0.53034 0.90624 0.02832
   
