data_POSCAR
  _audit_creation_date              2014-09-24
  _audit_creation_method            'ToBaCCo'
  _symmetry_space_group_name_H-M    'P1'
  _symmetry_Int_Tables_number       1
  _symmetry_cell_setting            triclinic
  loop_
  _symmetry_equiv_pos_as_xyz
 x,y,z
_cell_length_a 31.9852
_cell_length_b 32.0781
_cell_length_c 32.1310
_cell_angle_alpha 80.967200
_cell_angle_beta 103.976200
_cell_angle_gamma 103.892900
loop_
  _atom_site_label
  _atom_site_type_symbol
  _atom_site_fract_x
  _atom_site_fract_y
  _atom_site_fract_z
C1 C 0.60687 0.60728 -0.00100
 C2 C 0.61438 0.56545 0.00328
 C3 C 0.57947 0.52968 0.00538
 C4 C 0.53604 0.53512 0.00104
 C5 C 0.52899 0.57763 -0.00437
 C6 C 0.56426 0.61337 -0.00427
 C7 C 0.49847 0.49680 0.00222
 C8 C 0.46000 0.49983 0.01485
 C9 C 0.42458 0.46434 0.01491
 C10 C 0.42771 0.42478 0.00436
 C11 C 0.46578 0.42076 -0.00721
 C12 C 0.50052 0.45665 -0.00926
 H13 H 0.63407 0.63498 -0.00173
 H14 H 0.58666 0.49773 0.01072
 H15 H 0.49613 0.58342 -0.00892
 H16 H 0.45715 0.52948 0.02490
 H17 H 0.40048 0.39714 0.00512
 H18 H 0.52874 0.45285 -0.02011
 C19 C 0.00572 0.57264 0.42764
 C20 C -0.00717 0.57793 0.46467
 C21 C -0.01042 0.54402 0.49777
 C22 C 0.00118 0.50486 0.49512
 C23 C 0.01511 0.50052 0.45775
 C24 C 0.01633 0.53385 0.42390
 C25 C -0.00125 0.46889 0.53099
 C26 C -0.00753 0.42559 0.52288
 C27 C -0.00850 0.39211 0.55651
 C28 C -0.00538 0.40101 0.59848
 C29 C -0.00025 0.44355 0.60705
 C30 C 0.00280 0.47734 0.57380
 H31 H 0.00753 0.59877 0.40172
 H32 H -0.02219 0.54847 0.52531
 H33 H 0.02531 0.47152 0.45470
 H34 H -0.01185 0.41738 0.49049
 H35 H -0.00676 0.37494 0.62441
 H36 H 0.00874 0.51007 0.58184
 C37 C 0.57189 -0.00422 0.57578
 C38 C 0.53330 0.00613 0.58004
 C39 C 0.49821 0.00744 0.54438
 C40 C 0.50050 -0.00362 0.50419
 C41 C 0.53945 -0.01520 0.50094
 C42 C 0.57522 -0.01437 0.53620
 C43 C 0.46281 -0.00281 0.46596
 C44 C 0.46985 0.00296 0.42350
 C45 C 0.43456 0.00275 0.38785
 C46 C 0.39193 -0.00101 0.39388
 C47 C 0.38441 -0.00567 0.43560
 C48 C 0.41932 -0.00765 0.47135
 H49 H 0.59935 -0.00425 0.60332
 H50 H 0.46958 0.01743 0.54840
 H51 H 0.54242 -0.02497 0.47123
 H52 H 0.50265 0.00794 0.41755
 H53 H 0.36474 -0.00029 0.36622
 H54 H 0.41200 -0.01318 0.50316
 O55 O 0.47006 0.00834 -0.07977
 O56 O 0.45753 -0.00338 0.03251
 O57 O 0.45872 0.05903 -0.02969
 O58 O 0.47074 -0.05408 -0.01771
 O59 O 0.54282 -0.03269 0.00409
 O60 O 0.53090 0.08013 -0.00808
 O61 O 0.52962 0.01799 0.05431
 O62 O 0.54224 0.02951 -0.05824
 Cu63 Cu 0.45698 0.00019 -0.02567
 Cu64 Cu 0.54368 0.02572 0.00036
 C65 C 0.50821 0.02083 -0.08797
 C66 C 0.49130 0.00601 0.06227
 C67 C 0.49285 0.08865 -0.02092
 C68 C 0.50898 -0.06234 -0.00549
 O69 O -0.02839 0.54530 1.00396
 O70 O 0.08569 0.53233 1.01886
 O71 O 0.02017 0.53380 0.95313
 O72 O 0.03735 0.54220 1.06950
 O73 O 0.01503 0.47137 1.08090
 O74 O -0.00229 0.46304 0.96488
 O75 O 0.06349 0.46149 1.03040
 O76 O -0.05086 0.47454 1.01565
 Cu77 Cu 0.03077 0.54557 1.01007
 Cu78 Cu 0.00392 0.46048 1.02397
 C79 C -0.05878 0.51224 1.00791
 C80 C 0.09387 0.49478 1.02711
 C81 C 0.00673 0.49681 0.93951
 C82 C 0.02913 0.50814 1.09481
 O83 O -0.03913 -0.06815 0.45495
 O84 O -0.02467 0.04775 0.46407
 O85 O 0.02524 -0.00183 0.45254
 O86 O -0.08910 -0.01886 0.46501
 O87 O -0.06688 -0.03054 0.53577
 O88 O 0.04761 -0.01379 0.52323
 O89 O -0.00221 0.03579 0.53475
 O90 O -0.01694 -0.07979 0.52572
 Cu91 Cu -0.03406 -0.00895 0.45197
 Cu92 Cu -0.00726 -0.02314 0.53702
 C93 C -0.03009 -0.09342 0.48883
 C94 C -0.01174 0.06115 0.50111
 C95 C 0.05557 -0.00583 0.48563
 C96 C -0.09724 -0.02727 0.50249
 C97 C -0.18213 0.53102 1.00307
 C98 C -0.18694 0.57333 1.00533
 C99 C -0.22887 0.58075 1.00593
 C100 C -0.26578 0.54583 1.00430
 C101 C -0.26104 0.50356 1.00180
 C102 C -0.21911 0.49613 1.00118
 C103 C -0.21522 0.45361 0.99870
 C104 C -0.25171 0.41938 0.99686
 C105 C -0.29268 0.42662 0.99748
 C106 C -0.29749 0.46815 0.99991
 C107 C -0.23283 0.62331 1.00818
 C108 C -0.19642 0.65759 1.00978
 C109 C -0.15543 0.65035 1.00923
 C110 C -0.15055 0.60878 1.00706
 C111 C -0.30869 0.55340 1.00468
 C112 C -0.34461 0.55933 1.00444
 C113 C -0.13896 0.52342 1.00361
 C114 C -0.10264 0.51786 1.00493
 H115 H -0.18404 0.44638 0.99810
 H116 H -0.24816 0.38705 0.99495
 H117 H -0.32090 0.39993 0.99609
 H118 H -0.33004 0.47215 1.00030
 H119 H -0.26403 0.63056 1.00870
 H120 H -0.20004 0.68994 1.01145
 H121 H -0.12724 0.67708 1.01049
 H122 H -0.11799 0.60481 1.00668
 C123 C 0.22023 0.48181 1.03758
 C124 C 0.22829 0.44127 1.03357
 C125 C 0.27144 0.43767 1.03251
 C126 C 0.30625 0.47465 1.03541
 C127 C 0.29857 0.51480 1.04120
 C128 C 0.25540 0.51841 1.04226
 C129 C 0.24842 0.55898 1.04767
 C130 C 0.28315 0.59491 1.05213
 C131 C 0.32537 0.59134 1.05119
 C132 C 0.33317 0.55185 1.04569
 C133 C 0.27865 0.39686 1.02816
 C134 C 0.24422 0.36063 1.02504
 C135 C 0.20202 0.36417 1.02604
 C136 C 0.19394 0.40395 1.03019
 C137 C 0.34921 0.47172 1.03008
 C138 C 0.38408 0.46872 1.02405
 C139 C 0.17552 0.48618 1.03511
 C140 C 0.13824 0.48993 1.03198
 H141 H 0.21618 0.56332 1.04871
 H142 H 0.27726 0.62567 1.05639
 H143 H 0.35223 0.61931 1.05483
 H144 H 0.36658 0.55062 1.04525
 H145 H 0.31093 0.39245 1.02734
 H146 H 0.25035 0.32964 1.02186
 H147 H 0.17539 0.33593 1.02362
 H148 H 0.16057 0.40506 1.03090
 C149 C -0.02947 -0.21881 0.48048
 C150 C 0.01209 -0.22793 0.48199
 C151 C 0.01534 -0.27081 0.47953
 C152 C -0.02296 -0.30428 0.47559
 C153 C -0.06445 -0.29520 0.47430
 C154 C -0.06772 -0.25228 0.47677
 C155 C -0.10952 -0.24391 0.47543
 C156 C -0.14705 -0.27704 0.47173
 C157 C -0.14385 -0.31902 0.46928
 C158 C -0.10310 -0.32819 0.47054
 C159 C 0.05724 -0.27916 0.48103
 C160 C 0.09483 -0.24612 0.48501
 C161 C 0.09166 -0.20419 0.48755
 C162 C 0.05087 -0.19498 0.48598
 C163 C -0.01940 -0.34777 0.47222
 C164 C -0.01463 -0.38314 0.46896
 C165 C -0.03240 -0.17491 0.48294
 C166 C -0.03267 -0.13791 0.48536
 H167 H -0.11360 -0.21176 0.47723
 H168 H -0.17878 -0.27009 0.47076
 H169 H -0.17311 -0.34463 0.46641
 H170 H -0.10221 -0.36133 0.46857
 H171 H 0.06147 -0.31126 0.47925
 H172 H 0.12658 -0.25312 0.48619
 H173 H 0.12098 -0.17866 0.49080
 H174 H 0.05018 -0.16181 0.48801
 C175 C -0.01041 0.18554 0.51659
 C176 C -0.04909 0.19418 0.52444
 C177 C -0.04967 0.23644 0.53218
 C178 C -0.01160 0.26981 0.53199
 C179 C 0.02689 0.26128 0.52363
 C180 C 0.02749 0.21900 0.51595
 C181 C 0.06638 0.21119 0.50788
 C182 C 0.10364 0.24423 0.50735
 C183 C 0.10306 0.28559 0.51480
 C184 C 0.06523 0.29421 0.52286
 C185 C -0.08862 0.24428 0.54009
 C186 C -0.12600 0.21130 0.54028
 C187 C -0.12547 0.16998 0.53265
 C188 C -0.08755 0.16131 0.52486
 C189 C -0.01177 0.31282 0.54073
 C190 C -0.01097 0.34878 0.54801
 C191 C -0.00951 0.14202 0.51009
 C192 C -0.00970 0.10540 0.50546
 H193 H 0.06839 0.17955 0.50183
 H194 H 0.13311 0.23770 0.50111
 H195 H 0.13208 0.31116 0.51432
 H196 H 0.06640 0.32692 0.52841
 H197 H -0.09063 0.27591 0.54615
 H198 H -0.15553 0.21786 0.54635
 H199 H -0.15463 0.14451 0.53272
 H200 H -0.08880 0.12865 0.51910
 C201 C 0.52104 0.02584 -0.21224
 C202 C 0.49678 0.04953 -0.24663
 C203 C 0.49936 0.04764 -0.28983
 C204 C 0.52626 0.02217 -0.29830
 C205 C 0.55123 -0.00082 -0.26384
 C206 C 0.54860 0.00101 -0.22069
 C207 C 0.57362 -0.02248 -0.18678
 C208 C 0.60047 -0.04708 -0.19529
 C209 C 0.60306 -0.04887 -0.23749
 C210 C 0.57883 -0.02607 -0.27150
 C211 C 0.47458 0.07130 -0.32371
 C212 C 0.44802 0.09620 -0.31516
 C213 C 0.44554 0.09810 -0.27291
 C214 C 0.46956 0.07508 -0.23891
 C215 C 0.52764 0.01852 -0.34236
 C216 C 0.52961 0.01385 -0.37826
 C217 C 0.51666 0.02566 -0.16831
 C218 C 0.51294 0.02416 -0.13164
 H219 H 0.57280 -0.02206 -0.15339
 H220 H 0.61937 -0.06484 -0.16897
 H221 H 0.62396 -0.06803 -0.24395
 H222 H 0.58204 -0.02846 -0.30375
 H223 H 0.47552 0.07085 -0.35709
 H224 H 0.42928 0.11412 -0.34146
 H225 H 0.42490 0.11752 -0.26644
 H226 H 0.46662 0.07760 -0.20658
 C227 C 0.47280 0.00516 0.18405
 C228 C 0.44552 0.03170 0.18989
 C229 C 0.43781 0.03219 0.23156
 C230 C 0.45746 0.00618 0.26716
 C231 C 0.48499 -0.02012 0.26137
 C232 C 0.49266 -0.02064 0.21969
 C233 C 0.52020 -0.04725 0.21468
 C234 C 0.53965 -0.07263 0.24986
 C235 C 0.53220 -0.07211 0.29062
 C236 C 0.50521 -0.04623 0.29650
 C237 C 0.41035 0.05889 0.23658
 C238 C 0.39107 0.08442 0.20143
 C239 C 0.39861 0.08397 0.16069
 C240 C 0.42548 0.05798 0.15480
 C241 C 0.44901 0.00603 0.30963
 C242 C 0.44221 0.00512 0.34511
 C243 C 0.48020 0.00441 0.14132
 C244 C 0.48571 0.00451 0.10548
 H245 H 0.52700 -0.04872 0.18361
 H246 H 0.56063 -0.09280 0.24545
 H247 H 0.54740 -0.09187 0.31784
 H248 H 0.50044 -0.04692 0.32883
 H249 H 0.40352 0.06035 0.26764
 H250 H 0.37017 0.10467 0.20584
 H251 H 0.38356 0.10387 0.13349
 H252 H 0.43033 0.05876 0.12248
 C253 C 0.52755 -0.18444 -0.00474
 C254 C 0.56860 -0.18888 -0.01092
 C255 C 0.57612 -0.23060 -0.01199
 C256 C 0.54253 -0.26768 -0.00696
 C257 C 0.50133 -0.26323 -0.00123
 C258 C 0.49384 -0.22150 -0.00006
 C259 C 0.45241 -0.21791 0.00572
 C260 C 0.41926 -0.25447 0.01012
 C261 C 0.42654 -0.29523 0.00890
 C262 C 0.46705 -0.29976 0.00336
 C263 C 0.61742 -0.23419 -0.01815
 C264 C 0.65033 -0.19760 -0.02325
 C265 C 0.64298 -0.15682 -0.02229
 C266 C 0.60267 -0.15232 -0.01617
 C267 C 0.55057 -0.31042 -0.00695
 C268 C 0.55713 -0.34607 -0.00619
 C269 C 0.51995 -0.14168 -0.00389
 C270 C 0.51442 -0.10574 -0.00397
 H271 H 0.44519 -0.18689 0.00685
 H272 H 0.38773 -0.25114 0.01444
 H273 H 0.40065 -0.32350 0.01220
 H274 H 0.47111 -0.33215 0.00260
 H275 H 0.62468 -0.26521 -0.01920
 H276 H 0.68170 -0.20093 -0.02800
 H277 H 0.66864 -0.12850 -0.02630
 H278 H 0.59857 -0.11990 -0.01566
 C279 C 0.48064 0.21387 -0.02872
 C280 C 0.44072 0.22247 -0.02399
 C281 C 0.43752 0.26563 -0.02253
 C282 C 0.47425 0.29995 -0.02580
 C283 C 0.51373 0.29151 -0.03182
 C284 C 0.51694 0.24833 -0.03329
 C285 C 0.55687 0.24065 -0.03898
 C286 C 0.59259 0.27466 -0.04315
 C287 C 0.58944 0.31686 -0.04172
 C288 C 0.55055 0.32538 -0.03608
 C289 C 0.39738 0.27337 -0.01738
 C290 C 0.36146 0.23945 -0.01381
 C291 C 0.36459 0.19725 -0.01525
 C292 C 0.40368 0.18866 -0.02027
 C293 C 0.47193 0.34354 -0.02095
 C294 C 0.46949 0.37915 -0.01551
 C295 C 0.48483 0.16952 -0.02715
 C296 C 0.48836 0.13259 -0.02482
 H297 H 0.56086 0.20838 -0.04038
 H298 H 0.62287 0.26822 -0.04753
 H299 H 0.61725 0.34315 -0.04505
 H300 H 0.54963 0.35875 -0.03524
 H301 H 0.39329 0.30564 -0.01617
 H302 H 0.33102 0.24596 -0.00992
 H303 H 0.33658 0.17102 -0.01248
 H304 H 0.40447 0.15531 -0.02130
 C305 C -0.22162 -0.03215 0.51710
 C306 C -0.22676 -0.00063 0.54071
 C307 C -0.26948 0.00120 0.54482
 C308 C -0.30681 -0.02847 0.52523
 C309 C -0.30165 -0.06022 0.50197
 C310 C -0.25888 -0.06208 0.49790
 C311 C -0.25450 -0.09393 0.47429
 C312 C -0.29137 -0.12311 0.45523
 C313 C -0.33320 -0.12128 0.45922
 C314 C -0.33848 -0.09025 0.48230
 C315 C -0.27383 0.03313 0.56841
 C316 C -0.23702 0.06243 0.58734
 C317 C -0.19522 0.06065 0.58331
 C318 C -0.18994 0.02960 0.56028
 C319 C -0.35040 -0.02546 0.52844
 C320 C -0.38584 -0.02121 0.53170
 C321 C -0.17805 -0.03269 0.51172
 C322 C -0.14135 -0.03129 0.50745
 H323 H -0.22262 -0.09660 0.47032
 H324 H -0.28745 -0.14727 0.43725
 H325 H -0.36172 -0.14401 0.44434
 H326 H -0.37165 -0.09007 0.48454
 H327 H -0.30564 0.03584 0.57251
 H328 H -0.24097 0.08664 0.60523
 H329 H -0.16671 0.08347 0.59808
 H330 H -0.15673 0.02958 0.55807
 C331 C 0.17849 -0.00412 0.46836
 C332 C 0.18397 -0.03972 0.45063
 C333 C 0.22600 -0.04082 0.44390
 C334 C 0.26227 -0.00633 0.45489
 C335 C 0.25682 0.02918 0.47278
 C336 C 0.21480 0.03027 0.47954
 C337 C 0.21014 0.06607 0.49746
 C338 C 0.24600 0.09986 0.50839
 C339 C 0.28709 0.09883 0.50177
 C340 C 0.29263 0.06398 0.48419
 C341 C 0.23069 -0.07672 0.42617
 C342 C 0.19484 -0.11055 0.41529
 C343 C 0.15373 -0.10945 0.42178
 C344 C 0.14816 -0.07459 0.43931
 C345 C 0.30516 -0.00716 0.44770
 C346 C 0.34107 -0.00708 0.44197
 C347 C 0.13546 -0.00306 0.47504
 C348 C 0.09929 -0.00335 0.48018
 H349 H 0.17883 0.06831 0.50323
 H350 H 0.24186 0.12700 0.52207
 H351 H 0.31483 0.12517 0.51031
 H352 H 0.32525 0.06465 0.47970
 H353 H 0.26203 -0.07904 0.42053
 H354 H 0.19901 -0.13775 0.40173
 H355 H 0.12597 -0.13578 0.41320
 H356 H 0.11554 -0.07530 0.44383
 C357 C 0.04196 0.51579 1.22325
 C358 C 0.05424 0.55647 1.23962
 C359 C 0.05306 0.55920 1.28303
 C360 C 0.03958 0.52123 1.30975
 C361 C 0.02928 0.48038 1.29398
 C362 C 0.03047 0.47765 1.25057
 C363 C 0.01950 0.43649 1.23534
 C364 C 0.00777 0.39910 1.26226
 C365 C 0.00661 0.40179 1.30471
 C366 C 0.01716 0.44189 1.32056
 C367 C 0.06493 0.60028 1.29855
 C368 C 0.07769 0.63759 1.27196
 C369 C 0.07884 0.63492 1.22950
 C370 C 0.06725 0.59491 1.21333
 C371 C 0.03320 0.52458 1.35220
 C372 C 0.02614 0.52836 1.38645
 C373 C 0.03888 0.51337 1.17784
 C374 C 0.03505 0.51120 1.13996
 H375 H 0.02003 0.43276 1.20259
 H376 H -0.00045 0.36787 1.25010
 H377 H -0.00251 0.37265 1.32550
 H378 H 0.01591 0.44238 1.35384
 H379 H 0.06467 0.60399 1.33138
 H380 H 0.08674 0.66874 1.28437
 H381 H 0.08877 0.66399 1.20897
 H382 H 0.06875 0.59445 1.18013
 C383 C 0.00110 0.48068 0.81432
 C384 C -0.00215 0.51460 0.78049
 C385 C -0.00172 0.50763 0.73796
 C386 C 0.00192 0.46675 0.72951
 C387 C 0.00517 0.43284 0.76335
 C388 C 0.00474 0.43981 0.80585
 C389 C 0.00808 0.40538 0.83913
 C390 C 0.01178 0.36527 0.83069
 C391 C 0.01222 0.35847 0.78915
 C392 C 0.00895 0.39174 0.75575
 C393 C -0.00490 0.54206 0.70470
 C394 C -0.00840 0.58223 0.71320
 C395 C -0.00883 0.58903 0.75476
 C396 C -0.00575 0.55572 0.78815
 C397 C 0.00182 0.45931 0.68601
 C398 C 0.00128 0.45244 0.65001
 C399 C 0.00177 0.48785 0.85807
 C400 C 0.00331 0.49265 0.89494
 H401 H 0.00786 0.40902 0.87198
 H402 H 0.01432 0.33932 0.85653
 H403 H 0.01512 0.32726 0.78276
 H404 H 0.00948 0.38486 0.72399
 H405 H -0.00466 0.53833 0.67187
 H406 H -0.01078 0.60823 0.68739
 H407 H -0.01155 0.62030 0.76118
 H408 H -0.00624 0.56253 0.81994
   
