data_POSCAR
  _audit_creation_date              2014-09-24
  _audit_creation_method            'ToBaCCo'
  _symmetry_space_group_name_H-M    'P1'
  _symmetry_Int_Tables_number       1
  _symmetry_cell_setting            triclinic
  loop_
  _symmetry_equiv_pos_as_xyz
 x,y,z
_cell_length_a 35.2515
_cell_length_b 35.2514
_cell_length_c 35.2517
_cell_angle_alpha 96.241600
_cell_angle_beta 83.758400
_cell_angle_gamma 96.251600
loop_
  _atom_site_label
  _atom_site_type_symbol
  _atom_site_fract_x
  _atom_site_fract_y
  _atom_site_fract_z
O1 O 0.54651 0.50806 0.03434
 O2 O 0.44233 0.50228 0.02825
 O3 O 0.49091 0.45318 0.03496
 O4 O 0.49793 0.55715 0.02763
 O5 O 0.50754 0.54672 -0.03546
 O6 O 0.50052 0.44276 -0.02813
 O7 O 0.45193 0.49186 -0.03480
 O8 O 0.55612 0.49763 -0.02875
 Cu9 Cu 0.49346 0.50620 0.03763
 Cu10 Cu 0.50498 0.49370 -0.03812
 C11 C 0.56901 0.50364 0.00386
 C12 C 0.42937 0.49631 -0.00435
 C13 C 0.49473 0.43030 0.00469
 C14 C 0.50372 0.56960 -0.00518
 O15 O -0.03439 0.54795 0.50807
 O16 O -0.02832 0.44378 0.50230
 O17 O -0.02769 0.49936 0.55717
 O18 O -0.03501 0.49236 0.45320
 O19 O 0.02808 0.50199 0.44279
 O20 O 0.03540 0.50899 0.54675
 O21 O 0.03476 0.45340 0.49188
 O22 O 0.02867 0.55757 0.49765
 Cu23 Cu -0.03769 0.49491 0.50623
 Cu24 Cu 0.03806 0.50645 0.49373
 C25 C -0.00393 0.57053 0.50363
 C26 C 0.00429 0.43089 0.49631
 C27 C 0.00512 0.50516 0.56962
 C28 C -0.00474 0.49618 0.43033
 O29 O 0.50253 0.02832 0.55749
 O30 O 0.50830 0.03439 0.45331
 O31 O 0.45343 0.03502 0.50890
 O32 O 0.55740 0.02768 0.50190
 O33 O 0.54696 -0.03541 0.49229
 O34 O 0.44300 -0.02807 0.49930
 O35 O 0.49786 -0.02869 0.44371
 O36 O 0.49210 -0.03474 0.54789
 Cu37 Cu 0.50646 0.03769 0.50636
 Cu38 Cu 0.49394 -0.03806 0.49484
 C39 C 0.49654 -0.00428 0.57046
 C40 C 0.50386 0.00392 0.43081
 C41 C 0.43055 0.00474 0.50509
 C42 C 0.56985 -0.00513 0.49611
 C43 C 0.50146 -0.03620 -0.08431
 C44 C 0.50045 -0.07414 -0.07573
 C45 C 0.49912 -0.08337 -0.03798
 C46 C 0.49768 -0.05377 -0.00740
 C47 C 0.49975 -0.01500 -0.01557
 C48 C 0.50217 -0.00612 -0.05416
 C49 C 0.50642 0.03258 -0.06152
 C50 C 0.50607 0.06186 -0.03171
 C51 C 0.50145 0.05374 0.00679
 C52 C 0.49940 0.01497 0.01495
 C53 C 0.49306 -0.06189 0.03109
 C54 C 0.49275 -0.03261 0.06090
 C55 C 0.49701 0.00609 0.05354
 C56 C 0.49777 0.03617 0.08369
 C57 C 0.49872 0.07411 0.07512
 C58 C 0.50000 0.08334 0.03737
 H59 H 0.51080 0.04083 -0.09043
 H60 H 0.51022 0.09099 -0.03938
 H61 H 0.48889 -0.09101 0.03877
 H62 H 0.48837 -0.04086 0.08982
 H63 H 0.50072 -0.09701 -0.09896
 H64 H 0.49847 0.09697 0.09835
 C65 C 0.03791 0.49974 0.91654
 C66 C 0.07566 0.50103 0.92577
 C67 C 0.08424 0.50198 0.96370
 C68 C 0.05409 0.50273 0.99378
 C69 C 0.01550 0.50033 0.98491
 C70 C 0.00734 0.49828 0.94614
 C71 C -0.03116 0.49366 0.93803
 C72 C -0.06097 0.49332 0.96731
 C73 C -0.05360 0.49759 1.00601
 C74 C -0.01501 0.50000 1.01489
 C75 C 0.06146 0.50699 1.03248
 C76 C 0.03166 0.50668 1.06177
 C77 C -0.00685 0.50207 1.05366
 C78 C -0.03742 0.50065 1.08326
 C79 C -0.07517 0.49933 1.07403
 C80 C -0.08375 0.49832 1.03609
 H81 H -0.03884 0.48950 0.90890
 H82 H -0.08988 0.48894 0.95906
 H83 H 0.09038 0.51136 1.04073
 H84 H 0.03934 0.51085 1.09089
 H85 H 0.09889 0.50129 0.90290
 H86 H -0.09840 0.49908 1.09690
 C87 C -0.03599 -0.08429 0.49856
 C88 C -0.07393 -0.07571 0.49955
 C89 C -0.08315 -0.03796 0.50087
 C90 C -0.05355 -0.00738 0.50231
 C91 C -0.01478 -0.01554 0.50024
 C92 C -0.00591 -0.05413 0.49783
 C93 C 0.03279 -0.06149 0.49358
 C94 C 0.06208 -0.03168 0.49391
 C95 C 0.05397 0.00682 0.49853
 C96 C 0.01520 0.01498 0.50058
 C97 C -0.06166 0.03112 0.50693
 C98 C -0.03237 0.06093 0.50724
 C99 C 0.00633 0.05357 0.50298
 C100 C 0.03641 0.08372 0.50223
 C101 C 0.07434 0.07515 0.50126
 C102 C 0.08357 0.03740 0.49997
 H103 H 0.04104 -0.09040 0.48919
 H104 H 0.09120 -0.03936 0.48975
 H105 H -0.09078 0.03880 0.51109
 H106 H -0.04062 0.08984 0.51162
 H107 H -0.09680 -0.09894 0.49929
 H108 H 0.09722 0.09838 0.50152
 N109 N -0.33780 0.51085 1.04353
 C110 C -0.31335 0.50527 1.01143
 N111 N -0.32751 0.49961 0.97677
 N112 N -0.36499 0.49946 0.97431
 C113 C -0.38956 0.50495 1.00643
 N114 N -0.37527 0.51070 1.04108
 C115 C -0.27315 0.50440 1.01425
 C116 C -0.23952 0.50329 1.01711
 C117 C -0.19967 0.50157 1.02114
 N118 N -0.17228 0.52477 1.00252
 N119 N -0.13535 0.52341 1.00678
 C120 C -0.12454 0.49860 1.02957
 N121 N -0.15214 0.47573 1.04847
 N122 N -0.18904 0.47709 1.04422
 N123 N 0.33825 0.48920 0.95615
 C124 C 0.31382 0.49472 0.98827
 N125 N 0.32797 0.50030 1.02291
 N126 N 0.36546 0.50047 1.02536
 C127 C 0.39009 0.49511 0.99322
 N128 N 0.37573 0.48937 0.95858
 C129 C 0.27361 0.49561 0.98546
 C130 C 0.23998 0.49676 0.98262
 C131 C 0.20014 0.49854 0.97861
 N132 N 0.17272 0.47540 0.99724
 N133 N 0.13580 0.47682 0.99300
 C134 C 0.12503 0.50165 0.97021
 N135 N 0.15266 0.52447 0.95129
 N136 N 0.18955 0.52305 0.95553
 N137 N 0.02331 -0.32805 0.49976
 C138 C -0.01134 -0.31391 0.50537
 N139 N -0.04345 -0.33836 0.51086
 N140 N -0.04102 -0.37585 0.51063
 C141 C -0.00637 -0.39019 0.50487
 N142 N 0.02576 -0.36554 0.49953
 C143 C -0.01416 -0.27369 0.50455
 C144 C -0.01701 -0.24006 0.50347
 C145 C -0.02105 -0.20021 0.50178
 N146 N -0.04412 -0.18957 0.47729
 N147 N -0.04837 -0.15267 0.47594
 C148 C -0.02947 -0.12508 0.49883
 N149 N -0.00669 -0.13590 0.52364
 N150 N -0.00243 -0.17283 0.52498
 N151 N 0.04394 0.33771 0.48923
 C152 C 0.01183 0.31327 0.49484
 N153 N -0.02282 0.32742 0.50045
 N154 N -0.02527 0.36490 0.50055
 C155 C 0.00685 0.38947 0.49504
 N156 N 0.04150 0.37518 0.48933
 C157 C 0.01465 0.27307 0.49578
 C158 C 0.01749 0.23945 0.49696
 C159 C 0.02151 0.19962 0.49876
 N160 N 0.00286 0.17219 0.47562
 N161 N 0.00711 0.13527 0.47706
 C162 C 0.02990 0.12450 0.50189
 N163 N 0.04882 0.15214 0.52470
 N164 N 0.04459 0.18903 0.52327
 N165 N 0.50039 0.02300 -0.32813
 C166 C 0.49476 -0.01164 -0.31397
 N167 N 0.48928 -0.04376 -0.33841
 N168 N 0.48952 -0.04134 -0.37589
 C169 C 0.49530 -0.00671 -0.39026
 N170 N 0.50064 0.02543 -0.36563
 C171 C 0.49556 -0.01444 -0.27375
 C172 C 0.49663 -0.01727 -0.24011
 C173 C 0.49831 -0.02128 -0.20025
 N174 N 0.52279 -0.04434 -0.18958
 N175 N 0.52412 -0.04858 -0.15267
 C176 C 0.50122 -0.02968 -0.12510
 N177 N 0.47641 -0.00692 -0.13596
 N178 N 0.47509 -0.00267 -0.17289
 N179 N 0.51092 0.04359 0.33764
 C180 C 0.50528 0.01150 0.31321
 N181 N 0.49966 -0.02316 0.32735
 N182 N 0.49958 -0.02563 0.36482
 C183 C 0.50512 0.00649 0.38939
 N184 N 0.51084 0.04114 0.37510
 C185 C 0.50432 0.01433 0.27301
 C186 C 0.50312 0.01719 0.23940
 C187 C 0.50130 0.02122 0.19957
 N188 N 0.52443 0.00260 0.17213
 N189 N 0.52298 0.00686 0.13521
 C190 C 0.49814 0.02965 0.12447
 N191 N 0.47533 0.04856 0.15212
 N192 N 0.47679 0.04431 0.18900
 N193 N 0.51135 -0.33778 -0.04593
 C194 C 0.50638 -0.31296 -0.01403
 N195 N 0.50104 -0.32667 0.02083
 N196 N 0.50059 -0.36410 0.02369
 C197 C 0.50545 -0.38906 -0.00822
 N198 N 0.51090 -0.37521 -0.04308
 C199 C 0.50573 -0.27283 -0.01724
 C200 C 0.50473 -0.23924 -0.02027
 C201 C 0.50309 -0.19941 -0.02430
 N202 N 0.52606 -0.17208 -0.00535
 N203 N 0.52455 -0.13512 -0.00932
 C204 C 0.49980 -0.12424 -0.03211
 N205 N 0.47718 -0.15178 -0.05139
 N206 N 0.47870 -0.18871 -0.04743
 N207 N 0.49753 0.32658 -0.02135
 C208 C 0.49223 0.31287 0.01351
 N209 N 0.48722 0.33768 0.04542
 N210 N 0.48762 0.37511 0.04258
 C211 C 0.49303 0.38896 0.00772
 N212 N 0.49792 0.36401 -0.02420
 C213 C 0.49296 0.27275 0.01671
 C214 C 0.49403 0.23917 0.01972
 C215 C 0.49577 0.19935 0.02373
 N216 N 0.52019 0.18871 0.04687
 N217 N 0.52179 0.15178 0.05081
 C218 C 0.49924 0.12420 0.03151
 N219 N 0.47447 0.13503 0.00871
 N220 N 0.47287 0.17197 0.00476
 N221 N -0.33755 -0.04590 0.48852
 C222 C -0.31272 -0.01400 0.49351
 N223 N -0.32642 0.02087 0.49884
 N224 N -0.36385 0.02374 0.49927
 C225 C -0.38881 -0.00818 0.49440
 N226 N -0.37498 -0.04304 0.48896
 C227 C -0.27260 -0.01721 0.49418
 C228 C -0.23901 -0.02024 0.49519
 C229 C -0.19919 -0.02428 0.49684
 N230 N -0.17184 -0.00533 0.47389
 N231 N -0.13489 -0.00929 0.47542
 C232 C -0.12402 -0.03209 0.50018
 N233 N -0.15157 -0.05137 0.52277
 N234 N -0.18850 -0.04741 0.52124
 N235 N 0.33794 0.04547 0.51262
 C236 C 0.31312 0.01356 0.50763
 N237 N 0.32683 -0.02130 0.50232
 N238 N 0.36426 -0.02415 0.50191
 C239 C 0.38921 0.00777 0.50679
 N240 N 0.37536 0.04263 0.51221
 C241 C 0.27300 0.01676 0.50691
 C242 C 0.23941 0.01976 0.50586
 C243 C 0.19959 0.02377 0.50414
 N244 N 0.17223 0.00480 0.52706
 N245 N 0.13528 0.00874 0.52548
 C246 C 0.12443 0.03154 0.50071
 N247 N 0.15200 0.05084 0.47815
 N248 N 0.18893 0.04690 0.47973
 N249 N -0.04546 0.48853 1.33769
 C250 C -0.01355 0.49350 1.31288
 N251 N 0.02131 0.49885 1.32660
 N252 N 0.02416 0.49931 1.36403
 C253 C -0.00776 0.49445 1.38898
 N254 N -0.04262 0.48899 1.37513
 C255 C -0.01674 0.49413 1.27274
 C256 C -0.01975 0.49511 1.23915
 C257 C -0.02376 0.49674 1.19932
 N258 N -0.00483 0.47375 1.17200
 N259 N -0.00878 0.47525 1.13504
 C260 C -0.03156 0.50000 1.12413
 N261 N -0.05083 0.52263 1.15165
 N262 N -0.04688 0.52113 1.18859
 N263 N -0.02089 0.50230 0.67334
 C264 C 0.01397 0.50761 0.68704
 N265 N 0.04588 0.51264 0.66223
 N266 N 0.04302 0.51227 0.62481
 C267 C 0.00816 0.50684 0.61096
 N268 N -0.02375 0.50193 0.63591
 C269 C 0.01719 0.50686 0.72716
 C270 C 0.02021 0.50577 0.76074
 C271 C 0.02424 0.50402 0.80054
 N272 N 0.04738 0.47960 0.81118
 N273 N 0.05134 0.47798 0.84810
 C274 C 0.03205 0.50052 0.87569
 N275 N 0.00924 0.52530 0.86488
 N276 N 0.00528 0.52691 0.82793
   
