data_POSCAR
  _audit_creation_date              2014-09-24
  _audit_creation_method            'ToBaCCo'
  _symmetry_space_group_name_H-M    'P1'
  _symmetry_Int_Tables_number       1
  _symmetry_cell_setting            triclinic
  loop_
  _symmetry_equiv_pos_as_xyz
 x,y,z
_cell_length_a 17.4996
_cell_length_b 16.0880
_cell_length_c 13.4487
_cell_angle_alpha 119.993200
_cell_angle_beta 98.042000
_cell_angle_gamma 107.039800
loop_
  _atom_site_label
  _atom_site_type_symbol
  _atom_site_fract_x
  _atom_site_fract_y
  _atom_site_fract_z
O1 O 0.04078 0.65642 1.09406
 O2 O 0.09097 0.44468 0.89371
 O3 O -0.01006 0.53454 0.85529
 O4 O 0.09403 0.53634 1.11854
 O5 O -0.03176 0.42217 1.08312
 O6 O -0.12788 0.40712 0.81599
 O7 O -0.02622 0.32409 0.86622
 O8 O -0.08567 0.54440 1.05810
 Cu9 Cu 0.06529 0.55265 0.98870
 Cu10 Cu -0.07887 0.41430 0.94947
 C11 C -0.02846 0.63894 1.11404
 C12 C 0.04640 0.34998 0.85410
 C13 C -0.08889 0.47200 0.79371
 C14 C 0.04610 0.48103 1.14726
 O15 O 0.52426 -0.17228 0.35361
 O16 O 0.43280 0.01807 0.41077
 O17 O 0.56561 0.00995 0.34867
 O18 O 0.39675 -0.13250 0.41266
 O19 O 0.48131 -0.03821 0.60581
 O20 O 0.65186 0.10235 0.53969
 O21 O 0.52130 0.12622 0.60282
 O22 O 0.61364 -0.06633 0.54389
 Cu23 Cu 0.47800 -0.08023 0.35994
 Cu24 Cu 0.57658 0.04027 0.59198
 C25 C 0.58289 -0.15355 0.43926
 C26 C 0.45793 0.10127 0.51802
 C27 C 0.63584 0.08279 0.43345
 C28 C 0.40870 -0.10385 0.52237
 C29 C -0.04109 0.24811 0.49736
 C30 C 0.04150 0.26487 0.49394
 C31 C 0.08129 0.33562 0.46523
 C32 C 0.03663 0.38154 0.42997
 C33 C -0.04901 0.35540 0.42254
 C34 C -0.08869 0.28680 0.45382
 C35 C 0.07776 0.19176 0.49288
 C36 C 0.02313 0.08390 0.43443
 C37 C 0.05615 0.00936 0.41118
 C38 C 0.14459 0.04298 0.44722
 C39 C 0.20008 0.15001 0.50845
 C40 C 0.16649 0.22442 0.53248
 H41 H -0.07168 0.19507 0.52131
 H42 H 0.14361 0.34624 0.45735
 H43 H -0.04509 0.05586 0.39735
 H44 H 0.20931 0.30685 0.57816
 H45 H -0.08542 0.38535 0.38810
 H46 H 0.17048 -0.01487 0.42746
 C47 C -0.08581 -0.30921 0.60629
 C48 C -0.07856 -0.23109 0.58433
 C49 C -0.15263 -0.22921 0.53216
 C50 C -0.23294 -0.30545 0.49920
 C51 C -0.23977 -0.38491 0.51864
 C52 C -0.16594 -0.38598 0.57497
 C53 C 0.00618 -0.15121 0.61595
 C54 C 0.07315 -0.18096 0.59423
 C55 C 0.15269 -0.10671 0.62012
 C56 C 0.16467 -0.00203 0.66721
 C57 C 0.09857 0.02977 0.69106
 C58 C 0.01973 -0.04557 0.66529
 H59 H -0.02881 -0.30874 0.65051
 H60 H -0.14809 -0.16968 0.51420
 H61 H 0.06235 -0.26282 0.55308
 H62 H -0.03118 -0.02173 0.68447
 H63 H -0.30253 -0.44206 0.49475
 H64 H 0.22599 0.05397 0.68497
 C65 C -0.03730 -0.26720 0.20492
 C66 C -0.10873 -0.26065 0.23409
 C67 C -0.08418 -0.15440 0.31875
 C68 C 0.00047 -0.10545 0.33500
 O69 O 0.02825 -0.17397 0.26638
 H70 H -0.17103 -0.32454 0.19663
 H71 H -0.12333 -0.11734 0.36230
 C72 C 0.07775 0.48186 0.25447
 C73 C 0.16159 0.52320 0.32432
 C74 C 0.15864 0.49506 0.40500
 C75 C 0.07302 0.43953 0.37824
 O76 O 0.02444 0.43195 0.28731
 H77 H 0.21773 0.56508 0.31469
 H78 H 0.21242 0.51095 0.47294
 C79 C 0.33486 -0.13539 0.55543
 C80 C 0.30666 -0.21971 0.56458
 C81 C 0.23342 -0.22156 0.59015
 C82 C 0.22313 -0.13772 0.59489
 O83 O 0.28483 -0.08565 0.57379
 H84 H 0.33523 -0.27385 0.55242
 H85 H 0.19289 -0.27694 0.60432
 C86 C -0.38622 -0.22918 0.41924
 C87 C -0.42226 -0.33257 0.31703
 C88 C -0.37206 -0.37779 0.33638
 C89 C -0.30859 -0.29809 0.44764
 O90 O -0.31703 -0.20811 0.49811
 H91 H -0.47834 -0.37039 0.23817
 H92 H -0.37872 -0.45764 0.27483
 C93 C -0.13520 -0.52167 0.70630
 C94 C -0.22141 -0.58304 0.64183
 C95 C -0.24432 -0.54429 0.57872
 C96 C -0.17070 -0.46078 0.61024
 O97 O -0.10424 -0.44752 0.68720
 H98 H -0.26332 -0.64654 0.64358
 H99 H -0.30785 -0.57236 0.51990
 C100 C 0.08534 0.27476 0.80443
 C101 C 0.17009 0.30842 0.81564
 C102 C 0.18676 0.22226 0.77650
 C103 C 0.11059 0.14055 0.74163
 O104 O 0.04883 0.17284 0.76021
 H105 H 0.21550 0.38784 0.85242
 H106 H 0.24796 0.22095 0.77516
 C107 C -0.30050 0.14629 0.40954
 C108 C -0.31846 0.16562 0.32210
 C109 C -0.24130 0.22748 0.33175
 C110 C -0.18201 0.24039 0.42386
 O111 O -0.21817 0.19128 0.47117
 H112 H -0.38025 0.13739 0.25858
 H113 H -0.22970 0.25525 0.27443
 C114 C 0.40543 0.16021 0.54525
 C115 C 0.42929 0.26194 0.64509
 C116 C 0.35559 0.27576 0.64203
 C117 C 0.29259 0.18039 0.54196
 O118 O 0.32305 0.11107 0.48346
 H119 H 0.49183 0.31734 0.71413
 H120 H 0.34799 0.34440 0.70872
   
