data_POSCAR
  _audit_creation_date              2014-09-24
  _audit_creation_method            'ToBaCCo'
  _symmetry_space_group_name_H-M    'P1'
  _symmetry_Int_Tables_number       1
  _symmetry_cell_setting            triclinic
  loop_
  _symmetry_equiv_pos_as_xyz
 x,y,z
_cell_length_a 34.5700
_cell_length_b 34.6132
_cell_length_c 34.6280
_cell_angle_alpha 89.941900
_cell_angle_beta 90.017500
_cell_angle_gamma 89.989700
loop_
  _atom_site_label
  _atom_site_type_symbol
  _atom_site_fract_x
  _atom_site_fract_y
  _atom_site_fract_z
C1 C 0.27840 0.25008 0.22120
 C2 C 0.24980 0.27877 0.22126
 C3 C 0.22120 0.27887 0.24994
 C4 C 0.22123 0.25023 0.27857
 C5 C 0.24982 0.22152 0.27855
 C6 C 0.27839 0.22146 0.24985
 H7 H 0.24979 0.30093 0.19909
 H8 H 0.19911 0.25029 0.30077
 H9 H 0.30052 0.19924 0.24982
 C10 C 0.72105 -0.25043 0.22089
 C11 C 0.74982 -0.27901 0.22085
 C12 C 0.77854 -0.27907 0.24946
 C13 C 0.77846 -0.25049 0.27813
 C14 C 0.74974 -0.22192 0.27822
 C15 C 0.72106 -0.22189 0.24961
 H16 H 0.74984 -0.30113 0.19863
 H17 H 0.80063 -0.25043 0.30032
 H18 H 0.69886 -0.19972 0.24976
 C19 C 0.72254 0.25076 0.77793
 C20 C 0.75107 0.27951 0.77783
 C21 C 0.77976 0.27963 0.74920
 C22 C 0.77983 0.25089 0.72066
 C23 C 0.75130 0.22213 0.72076
 C24 C 0.72268 0.22209 0.74940
 H25 H 0.75089 0.30168 0.79996
 H26 H 0.80197 0.25085 0.69845
 H27 H 0.70060 0.19983 0.74948
 C28 C 0.27787 -0.25109 0.77944
 C29 C 0.24913 -0.27964 0.77944
 C30 C 0.22048 -0.27964 0.75074
 C31 C 0.22067 -0.25101 0.72205
 C32 C 0.24940 -0.22246 0.72204
 C33 C 0.27798 -0.22252 0.75074
 H34 H 0.24911 -0.30173 0.80169
 H35 H 0.19856 -0.25089 0.69979
 H36 H 0.30022 -0.20042 0.75074
 C37 C 0.72162 -0.25079 0.77915
 C38 C 0.75026 -0.27942 0.77912
 C39 C 0.77892 -0.27941 0.75049
 C40 C 0.77887 -0.25071 0.72189
 C41 C 0.75022 -0.22209 0.72194
 C42 C 0.72161 -0.22214 0.75056
 H43 H 0.75019 -0.30158 0.80132
 H44 H 0.80100 -0.25060 0.69968
 H45 H 0.69943 -0.19997 0.75059
 C46 C 0.27822 0.25014 0.77802
 C47 C 0.24962 0.27881 0.77795
 C48 C 0.22088 0.27876 0.74942
 C49 C 0.22077 0.25004 0.72095
 C50 C 0.24937 0.22137 0.72101
 C51 C 0.27809 0.22143 0.74955
 H52 H 0.24971 0.30104 0.80000
 H53 H 0.19852 0.25000 0.69885
 H54 H 0.30024 0.19923 0.74960
 C55 C 0.27984 -0.24987 0.22082
 C56 C 0.25101 -0.27836 0.22071
 C57 C 0.22227 -0.27826 0.24921
 C58 C 0.22233 -0.24971 0.27783
 C59 C 0.25110 -0.22123 0.27798
 C60 C 0.27985 -0.22130 0.24949
 H61 H 0.25089 -0.30053 0.19857
 H62 H 0.20007 -0.24964 0.29990
 H63 H 0.30211 -0.19919 0.24968
 C64 C 0.72157 0.24979 0.22141
 C65 C 0.75007 0.27855 0.22152
 C66 C 0.77868 0.27863 0.25017
 C67 C 0.77879 0.24993 0.27872
 C68 C 0.75030 0.22116 0.27862
 C69 C 0.72169 0.22110 0.24996
 H70 H 0.74998 0.30077 0.19941
 H71 H 0.80094 0.24999 0.30091
 H72 H 0.69962 0.19883 0.24988
 O73 O 0.21804 0.03702 0.46248
 O74 O 0.21800 -0.03835 0.53764
 O75 O 0.21788 0.03688 0.53765
 O76 O 0.21830 -0.03818 0.46243
 O77 O 0.28210 -0.03802 0.46265
 O78 O 0.28168 0.03701 0.53785
 O79 O 0.28180 -0.03822 0.53786
 O80 O 0.28183 0.03718 0.46268
 Cu81 Cu 0.21166 -0.00068 0.50004
 Cu82 Cu 0.28825 -0.00051 0.50029
 C83 C 0.24994 0.05003 0.44970
 C84 C 0.24988 -0.05120 0.55064
 C85 C 0.24972 0.04983 0.55062
 C86 C 0.25028 -0.05094 0.44963
 O87 O 0.78258 0.03703 0.53762
 O88 O 0.78220 -0.03832 0.46257
 O89 O 0.78238 0.03689 0.46245
 O90 O 0.78231 -0.03821 0.53778
 O91 O 0.71851 -0.03801 0.53788
 O92 O 0.71858 0.03708 0.46257
 O93 O 0.71840 -0.03813 0.46267
 O94 O 0.71879 0.03723 0.53773
 Cu95 Cu 0.78876 -0.00068 0.50010
 Cu96 Cu 0.71218 -0.00045 0.50023
 C97 C 0.75075 0.05007 0.55052
 C98 C 0.75024 -0.05112 0.44973
 C99 C 0.75048 0.04986 0.44961
 C100 C 0.75039 -0.05098 0.55074
 O101 O 0.46256 0.21820 0.03691
 O102 O 0.53799 0.21835 -0.03822
 O103 O 0.53786 0.21816 0.03697
 O104 O 0.46267 0.21827 -0.03828
 O105 O 0.46264 0.28199 -0.03824
 O106 O 0.53784 0.28188 0.03702
 O107 O 0.53796 0.28206 -0.03817
 O108 O 0.46254 0.28192 0.03694
 Cu109 Cu 0.50027 0.21186 -0.00066
 Cu110 Cu 0.50024 0.28835 -0.00061
 C111 C 0.44963 0.25004 0.04981
 C112 C 0.55091 0.25024 -0.05107
 C113 C 0.55072 0.24999 0.04990
 C114 C 0.44976 0.25015 -0.05115
 O115 O 0.53794 0.78134 0.03847
 O116 O 0.46243 0.78117 -0.03664
 O117 O 0.46262 0.78140 0.03854
 O118 O 0.53774 0.78123 -0.03673
 O119 O 0.53776 0.71751 -0.03653
 O120 O 0.46261 0.71769 0.03875
 O121 O 0.46244 0.71745 -0.03643
 O122 O 0.53794 0.71762 0.03866
 Cu123 Cu 0.50018 0.78767 0.00089
 Cu124 Cu 0.50019 0.71118 0.00114
 C125 C 0.55088 0.74950 0.05144
 C126 C 0.44949 0.74928 -0.04941
 C127 C 0.44973 0.74958 0.05155
 C128 C 0.55063 0.74934 -0.04954
 O129 O 0.03717 0.46343 0.21791
 O130 O -0.03820 0.53868 0.21777
 O131 O 0.03714 0.53864 0.21770
 O132 O -0.03811 0.46346 0.21798
 O133 O -0.03804 0.46356 0.28167
 O134 O 0.03722 0.53874 0.28139
 O135 O -0.03812 0.53879 0.28146
 O136 O 0.03725 0.46353 0.28160
 Cu137 Cu -0.00051 0.50105 0.21146
 Cu138 Cu -0.00042 0.50118 0.28791
 C139 C 0.05012 0.45057 0.24978
 C140 C -0.05109 0.55162 0.24959
 C141 C 0.05011 0.55155 0.24950
 C142 C -0.05095 0.45060 0.24987
 O143 O 0.03706 0.53817 0.78189
 O144 O -0.03828 0.46291 0.78152
 O145 O 0.03701 0.46296 0.78158
 O146 O -0.03828 0.53814 0.78183
 O147 O -0.03825 0.53846 0.71814
 O148 O 0.03704 0.46328 0.71789
 O149 O -0.03825 0.46322 0.71783
 O150 O 0.03709 0.53849 0.71820
 Cu151 Cu -0.00063 0.50053 0.78809
 Cu152 Cu -0.00059 0.50091 0.71164
 C153 C 0.05001 0.55121 0.75011
 C154 C -0.05115 0.45014 0.74962
 C155 C 0.04992 0.45022 0.74970
 C156 C -0.05118 0.55118 0.75002
 C157 C 0.36178 0.24998 0.13761
 C158 C 0.37619 0.21501 0.12333
 C159 C 0.40476 0.21498 0.09475
 C160 C 0.30778 0.25001 0.19173
 C161 C 0.40463 0.28502 0.09461
 C162 C 0.37606 0.28496 0.12319
 C163 C 0.33239 0.24998 0.16706
 C164 C 0.41932 0.25001 0.08006
 H165 H 0.36534 0.18776 0.13430
 H166 H 0.41543 0.18755 0.08419
 H167 H 0.41520 0.31247 0.08394
 H168 H 0.36511 0.31220 0.13403
 C169 C 0.63894 0.74960 0.13911
 C170 C 0.62462 0.71461 0.12480
 C171 C 0.59597 0.71454 0.09628
 C172 C 0.69314 0.74961 0.19309
 C173 C 0.59584 0.78457 0.09624
 C174 C 0.62449 0.78456 0.12477
 C175 C 0.66843 0.74962 0.16848
 C176 C 0.58124 0.74954 0.08166
 H177 H 0.63560 0.68738 0.13569
 H178 H 0.58537 0.68708 0.08569
 H179 H 0.58514 0.81201 0.08564
 H180 H 0.63536 0.81182 0.13565
 C181 C 0.63894 0.25049 -0.13869
 C182 C 0.62452 0.21547 -0.12449
 C183 C 0.59588 0.21534 -0.09598
 C184 C 0.69309 0.25067 -0.19267
 C185 C 0.59596 0.28538 -0.09575
 C186 C 0.62461 0.28542 -0.12426
 C187 C 0.66842 0.25058 -0.16805
 C188 C 0.58126 0.25032 -0.08127
 H189 H 0.63541 0.18826 -0.13546
 H190 H 0.58520 0.18787 -0.08548
 H191 H 0.58535 0.31279 -0.08506
 H192 H 0.63557 0.31270 -0.13504
 C193 C 0.36140 0.74903 -0.13705
 C194 C 0.37573 0.71410 -0.12253
 C195 C 0.40438 0.71414 -0.09401
 C196 C 0.30728 0.74891 -0.19110
 C197 C 0.40450 0.78417 -0.09440
 C198 C 0.37585 0.78405 -0.12293
 C199 C 0.33194 0.74895 -0.16645
 C200 C 0.41911 0.74920 -0.07961
 H201 H 0.36476 0.68682 -0.13325
 H202 H 0.41499 0.68672 -0.08326
 H203 H 0.41519 0.81165 -0.08397
 H204 H 0.36497 0.81126 -0.13397
 C205 C 0.13786 0.36258 0.24992
 C206 C 0.12357 0.37699 0.21494
 C207 C 0.09503 0.40563 0.21485
 C208 C 0.19183 0.30837 0.24996
 C209 C 0.09497 0.40558 0.28486
 C210 C 0.12351 0.37694 0.28486
 C211 C 0.16723 0.33308 0.24996
 C212 C 0.08039 0.42026 0.24983
 H213 H 0.13448 0.36608 0.18772
 H214 H 0.08445 0.41628 0.18740
 H215 H 0.08433 0.41621 0.31227
 H216 H 0.13437 0.36599 0.31211
 C217 C 0.13820 0.63874 0.75053
 C218 C 0.12384 0.62421 0.78542
 C219 C 0.09513 0.59575 0.78533
 C220 C 0.19252 0.69260 0.75072
 C221 C 0.09501 0.59624 0.71532
 C222 C 0.12372 0.62471 0.71550
 C223 C 0.16776 0.66804 0.75065
 C224 C 0.08038 0.58142 0.75026
 H225 H 0.13484 0.63487 0.81270
 H226 H 0.08451 0.58497 0.81271
 H227 H 0.08431 0.58586 0.68784
 H228 H 0.13463 0.63576 0.68832
 C229 C -0.13923 0.63923 0.24945
 C230 C -0.12470 0.62506 0.28443
 C231 C -0.09601 0.59657 0.28452
 C232 C -0.19351 0.69314 0.24942
 C233 C -0.09626 0.59631 0.21452
 C234 C -0.12495 0.62480 0.21452
 C235 C -0.16877 0.66857 0.24942
 C236 C -0.08146 0.58185 0.24954
 H237 H -0.13554 0.63604 0.31165
 H238 H -0.08526 0.58608 0.31197
 H239 H -0.08570 0.58561 0.18710
 H240 H -0.13599 0.63556 0.18727
 C241 C -0.13868 0.36195 0.74925
 C242 C -0.12449 0.37630 0.78426
 C243 C -0.09604 0.40502 0.78442
 C244 C -0.19250 0.30760 0.74913
 C245 C -0.09585 0.40517 0.71442
 C246 C -0.12430 0.37645 0.71435
 C247 C -0.16796 0.33237 0.74915
 C248 C -0.08137 0.41978 0.74948
 H249 H -0.13542 0.36529 0.81145
 H250 H -0.08553 0.41562 0.81190
 H251 H -0.08519 0.41589 0.68703
 H252 H -0.13508 0.36555 0.68707
 C253 C 0.24988 0.13799 0.36200
 C254 C 0.21487 0.12359 0.37631
 C255 C 0.21485 0.09497 0.40484
 C256 C 0.24983 0.19209 0.30797
 C257 C 0.28498 0.09503 0.40488
 C258 C 0.28491 0.12365 0.37634
 C259 C 0.24985 0.16744 0.33261
 C260 C 0.24993 0.08035 0.41947
 H261 H 0.18759 0.13449 0.36541
 H262 H 0.18738 0.08432 0.41543
 H263 H 0.31246 0.08441 0.41550
 H264 H 0.31218 0.13458 0.36547
 C265 C 0.75120 0.13831 0.63776
 C266 C 0.78614 0.12385 0.62339
 C267 C 0.78604 0.09512 0.59502
 C268 C 0.75137 0.19263 0.69147
 C269 C 0.71592 0.09520 0.59529
 C270 C 0.71611 0.12392 0.62366
 C271 C 0.75133 0.16788 0.66698
 C272 C 0.75091 0.08046 0.58063
 H273 H 0.81348 0.13478 0.63410
 H274 H 0.81347 0.08442 0.58436
 H275 H 0.68839 0.08455 0.58485
 H276 H 0.68888 0.13490 0.63459
 C277 C 0.24972 -0.13905 0.63846
 C278 C 0.28477 -0.12458 0.62432
 C279 C 0.28487 -0.09601 0.59574
 C280 C 0.24954 -0.19307 0.69258
 C281 C 0.21475 -0.09626 0.59532
 C282 C 0.21473 -0.12483 0.62390
 C283 C 0.24964 -0.16845 0.66791
 C284 C 0.24984 -0.08150 0.58090
 H285 H 0.31202 -0.13538 0.63540
 H286 H 0.31237 -0.08529 0.58528
 H287 H 0.18729 -0.08574 0.58453
 H288 H 0.18743 -0.13583 0.63463
 C289 C 0.74987 -0.13873 0.36185
 C290 C 0.71491 -0.12426 0.37619
 C291 C 0.71498 -0.09578 0.40481
 C292 C 0.74973 -0.19259 0.30768
 C293 C 0.78510 -0.09611 0.40486
 C294 C 0.78494 -0.12460 0.37625
 C295 C 0.74977 -0.16804 0.33237
 C296 C 0.75010 -0.08136 0.41947
 H297 H 0.68759 -0.13500 0.36525
 H298 H 0.68755 -0.08505 0.41541
 H299 H 0.81263 -0.08565 0.41551
 H300 H 0.81218 -0.13559 0.36536
 C301 C 0.63826 0.74923 -0.13740
 C302 C 0.62406 0.71426 -0.12288
 C303 C 0.59552 0.71425 -0.09428
 C304 C 0.69223 0.74920 -0.19145
 C305 C 0.59533 0.78430 -0.09462
 C306 C 0.62386 0.78422 -0.12322
 C307 C 0.66763 0.74920 -0.16681
 C308 C 0.58084 0.74930 -0.07982
 H309 H 0.63503 0.68701 -0.13367
 H310 H 0.58499 0.68682 -0.08351
 H311 H 0.58465 0.81176 -0.08412
 H312 H 0.63467 0.81145 -0.13428
 C313 C 0.36187 0.25020 -0.13880
 C314 C 0.37634 0.21522 -0.12458
 C315 C 0.40496 0.21516 -0.09606
 C316 C 0.30771 0.25019 -0.19268
 C317 C 0.40475 0.28521 -0.09589
 C318 C 0.37612 0.28518 -0.12441
 C319 C 0.33241 0.25021 -0.16812
 C320 C 0.41948 0.25017 -0.08138
 H321 H 0.36549 0.18798 -0.13554
 H322 H 0.41568 0.18770 -0.08552
 H323 H 0.41530 0.31265 -0.08521
 H324 H 0.36510 0.31243 -0.13523
 C325 C 0.36193 0.74986 0.13924
 C326 C 0.37618 0.71483 0.12498
 C327 C 0.40478 0.71470 0.09645
 C328 C 0.30777 0.75005 0.19310
 C329 C 0.40497 0.78474 0.09635
 C330 C 0.37638 0.78479 0.12489
 C331 C 0.33247 0.74996 0.16855
 C332 C 0.41949 0.74967 0.08180
 H333 H 0.36517 0.68763 0.13590
 H334 H 0.41532 0.68722 0.08587
 H335 H 0.41567 0.81216 0.08571
 H336 H 0.36553 0.81207 0.13575
 C337 C 0.63830 0.24981 0.13786
 C338 C 0.62394 0.21486 0.12354
 C339 C 0.59544 0.21488 0.09489
 C340 C 0.69221 0.24975 0.19199
 C341 C 0.59557 0.28493 0.09481
 C342 C 0.62408 0.28483 0.12345
 C343 C 0.66762 0.24976 0.16732
 C344 C 0.58093 0.24993 0.08021
 H345 H 0.63477 0.18760 0.13450
 H346 H 0.58478 0.18745 0.08428
 H347 H 0.58503 0.31240 0.08413
 H348 H 0.63502 0.31205 0.13435
 C349 C -0.13911 0.63881 0.75030
 C350 C -0.12485 0.62425 0.78522
 C351 C -0.09622 0.59573 0.78518
 C352 C -0.19323 0.69278 0.75045
 C353 C -0.09603 0.59624 0.71516
 C354 C -0.12465 0.62477 0.71529
 C355 C -0.16856 0.66817 0.75039
 C356 C -0.08148 0.58140 0.75012
 H357 H -0.13586 0.63494 0.81249
 H358 H -0.08566 0.58492 0.81258
 H359 H -0.08531 0.58584 0.68769
 H360 H -0.13551 0.63586 0.68810
 C361 C -0.13836 0.36249 0.25016
 C362 C -0.12399 0.37686 0.28508
 C363 C -0.09556 0.40557 0.28504
 C364 C -0.19207 0.30817 0.25024
 C365 C -0.09579 0.40562 0.21502
 C366 C -0.12422 0.37692 0.21515
 C367 C -0.16758 0.33293 0.25024
 C368 C -0.08113 0.42027 0.24998
 H369 H -0.13476 0.36587 0.31235
 H370 H -0.08489 0.41622 0.31244
 H371 H -0.08530 0.41631 0.18755
 H372 H -0.13516 0.36598 0.18795
 C373 C 0.13759 0.36233 0.74945
 C374 C 0.12323 0.37677 0.71453
 C375 C 0.09470 0.40540 0.71456
 C376 C 0.19152 0.30820 0.74938
 C377 C 0.09481 0.40522 0.78458
 C378 C 0.12334 0.37660 0.78446
 C379 C 0.16693 0.33287 0.74939
 C380 C 0.08016 0.41994 0.74961
 H381 H 0.13408 0.36591 0.68727
 H382 H 0.08405 0.41611 0.68715
 H383 H 0.08424 0.41579 0.81204
 H384 H 0.13427 0.36560 0.81166
 C385 C 0.13833 0.63886 0.24921
 C386 C 0.12386 0.62475 0.28422
 C387 C 0.09512 0.59635 0.28435
 C388 C 0.19271 0.69252 0.24913
 C389 C 0.09520 0.59610 0.21434
 C390 C 0.12395 0.62450 0.21429
 C391 C 0.16792 0.66805 0.24913
 C392 C 0.08047 0.58169 0.24939
 H393 H 0.13481 0.63569 0.31141
 H394 H 0.08441 0.58589 0.31182
 H395 H 0.08455 0.58543 0.18694
 H396 H 0.13496 0.63523 0.18702
 C397 C 0.75026 -0.13863 0.63859
 C398 C 0.78531 -0.12451 0.62413
 C399 C 0.78540 -0.09597 0.59554
 C400 C 0.75020 -0.19266 0.69259
 C401 C 0.71526 -0.09558 0.59578
 C402 C 0.71526 -0.12412 0.62438
 C403 C 0.75022 -0.16802 0.66798
 C404 C 0.75035 -0.08118 0.58103
 H405 H 0.81257 -0.13556 0.63494
 H406 H 0.81289 -0.08551 0.58481
 H407 H 0.68780 -0.08482 0.58525
 H408 H 0.68797 -0.13487 0.63539
 C409 C 0.25083 -0.13820 0.36158
 C410 C 0.21571 -0.12414 0.37592
 C411 C 0.21549 -0.09575 0.40459
 C412 C 0.25109 -0.19194 0.30741
 C413 C 0.28563 -0.09541 0.40470
 C414 C 0.28576 -0.12380 0.37602
 C415 C 0.25100 -0.16743 0.33209
 C416 C 0.25047 -0.08105 0.41931
 H417 H 0.18851 -0.13512 0.36493
 H418 H 0.18794 -0.08532 0.41521
 H419 H 0.31304 -0.08472 0.41540
 H420 H 0.31311 -0.13451 0.36511
 C421 C 0.75047 0.13762 0.36187
 C422 C 0.71545 0.12329 0.37618
 C423 C 0.71542 0.09471 0.40473
 C424 C 0.75040 0.19171 0.30795
 C425 C 0.78555 0.09469 0.40473
 C426 C 0.78550 0.12327 0.37618
 C427 C 0.75045 0.16705 0.33253
 C428 C 0.75049 0.08009 0.41934
 H429 H 0.68817 0.13421 0.36529
 H430 H 0.68794 0.08410 0.41535
 H431 H 0.81304 0.08406 0.41535
 H432 H 0.81277 0.13418 0.36528
 C433 C 0.24936 0.13771 0.63805
 C434 C 0.28444 0.12332 0.62396
 C435 C 0.28459 0.09469 0.59552
 C436 C 0.24928 0.19190 0.69177
 C437 C 0.21445 0.09474 0.59519
 C438 C 0.21439 0.12337 0.62363
 C439 C 0.24928 0.16719 0.66728
 C440 C 0.24958 0.08008 0.58080
 H441 H 0.31167 0.13423 0.63495
 H442 H 0.31211 0.08403 0.58507
 H443 H 0.18702 0.08412 0.58448
 H444 H 0.18707 0.13433 0.63436
   
