data_POSCAR
  _audit_creation_date              2014-09-24
  _audit_creation_method            'ToBaCCo'
  _symmetry_space_group_name_H-M    'P1'
  _symmetry_Int_Tables_number       1
  _symmetry_cell_setting            triclinic
  loop_
  _symmetry_equiv_pos_as_xyz
 x,y,z
_cell_length_a 44.1299
_cell_length_b 46.1918
_cell_length_c 44.4227
_cell_angle_alpha 85.248700
_cell_angle_beta 93.776400
_cell_angle_gamma 91.098300
loop_
  _atom_site_label
  _atom_site_type_symbol
  _atom_site_fract_x
  _atom_site_fract_y
  _atom_site_fract_z
C1 C 0.20707 0.21983 0.25643
 C2 C 0.23087 0.20004 0.26179
 C3 C 0.25131 0.19618 0.23965
 C4 C 0.24842 0.21324 0.21189
 C5 C 0.22489 0.23352 0.20614
 C6 C 0.20408 0.23627 0.22830
 H7 H 0.23314 0.18699 0.28325
 H8 H 0.26424 0.21052 0.19483
 H9 H 0.18551 0.25117 0.22318
 C10 C 0.66297 0.73004 0.72555
 C11 C 0.67686 0.70265 0.72923
 C12 C 0.69536 0.69403 0.70702
 C13 C 0.69950 0.71276 0.68108
 C14 C 0.68592 0.74021 0.67721
 C15 C 0.66812 0.74871 0.69980
 H16 H 0.67342 0.68820 0.74916
 H17 H 0.71429 0.70604 0.66458
 H18 H 0.65768 0.76991 0.69706
 C19 C 0.28727 0.76855 0.72269
 C20 C 0.27212 0.79504 0.72329
 C21 C 0.24639 0.80180 0.70348
 C22 C 0.23600 0.78126 0.68337
 C23 C 0.25086 0.75485 0.68236
 C24 C 0.27625 0.74849 0.70245
 H25 H 0.27983 0.80952 0.74007
 H26 H 0.21626 0.78596 0.66798
 H27 H 0.28743 0.72781 0.70276
 C28 C 0.82169 0.27735 0.24093
 C29 C 0.81246 0.26207 0.21569
 C30 C 0.78445 0.26763 0.19935
 C31 C 0.76523 0.28848 0.20878
 C32 C 0.77400 0.30420 0.23375
 C33 C 0.80197 0.29839 0.24972
 H34 H 0.82694 0.24527 0.20923
 H35 H 0.74331 0.29208 0.19676
 H36 H 0.80775 0.31069 0.26894
 C37 C 0.83196 0.69470 0.25824
 C38 C 0.83173 0.71598 0.27916
 C39 C 0.81082 0.71435 0.30162
 C40 C 0.79053 0.69057 0.30385
 C41 C 0.79055 0.66887 0.28355
 C42 C 0.81151 0.67104 0.26082
 H43 H 0.84808 0.73374 0.27848
 H44 H 0.77500 0.68851 0.32182
 H45 H 0.81249 0.65416 0.24543
 C46 C 0.31488 0.23284 -0.23110
 C47 C 0.31263 0.25066 -0.20718
 C48 C 0.28999 0.24606 -0.18655
 C49 C 0.26956 0.22261 -0.18940
 C50 C 0.27148 0.20405 -0.21265
 C51 C 0.29383 0.20957 -0.23377
 H52 H 0.32858 0.26861 -0.20461
 H53 H 0.25263 0.21810 -0.17303
 H54 H 0.29429 0.19593 -0.25224
 C55 C 0.67887 0.27033 -0.23398
 C56 C 0.69194 0.25288 -0.20914
 C57 C 0.71776 0.26242 -0.19220
 C58 C 0.73090 0.28947 -0.20049
 C59 C 0.71815 0.30745 -0.22488
 C60 C 0.69258 0.29765 -0.24170
 H61 H 0.68219 0.23162 -0.20325
 H62 H 0.75125 0.29636 -0.18790
 H63 H 0.68399 0.31177 -0.26078
 C64 C 0.19642 0.79649 0.28189
 C65 C 0.21649 0.82043 0.28138
 C66 C 0.24224 0.82104 0.30196
 C67 C 0.24713 0.79716 0.32334
 C68 C 0.22670 0.77356 0.32501
 C69 C 0.20141 0.77322 0.30405
 H70 H 0.21208 0.83789 0.26403
 H71 H 0.26680 0.79709 0.33935
 H72 H 0.18582 0.75489 0.30491
 C73 C 0.43539 0.43333 0.45214
 C74 C 0.41211 0.45317 0.45418
 C75 C 0.41205 0.48039 0.43755
 C76 C 0.43521 0.48725 0.41794
 C77 C 0.45877 0.46777 0.41538
 C78 C 0.45867 0.44067 0.43251
 H79 H 0.39378 0.44699 0.46853
 H80 H 0.43499 0.50806 0.40470
 H81 H 0.47581 0.42494 0.42962
 C82 C -0.02344 -0.04629 0.96996
 C83 C -0.00113 -0.03904 0.94927
 C84 C -0.00153 -0.01184 0.93237
 C85 C -0.02401 0.00814 0.93686
 C86 C -0.04663 0.00138 0.95724
 C87 C -0.04616 -0.02622 0.97347
 H88 H 0.01626 -0.05450 0.94623
 H89 H -0.02404 0.02914 0.92395
 H90 H -0.06325 -0.03269 0.98908
 C91 C 1.05173 0.57660 0.97537
 C92 C 1.07286 0.55412 0.97627
 C93 C 1.07034 0.53333 0.95474
 C94 C 1.04667 0.53546 0.93208
 C95 C 1.02511 0.55757 0.93105
 C96 C 1.02821 0.57835 0.95230
 H97 H 1.09146 0.55323 0.99345
 H98 H 1.04538 0.51990 0.91510
 H99 H 1.01226 0.59601 0.95045
 C100 C 0.56647 0.07200 0.47725
 C101 C 0.59021 0.05207 0.48151
 C102 C 0.59391 0.03111 0.46079
 C103 C 0.57305 0.03063 0.43522
 C104 C 0.54929 0.05071 0.43055
 C105 C 0.54649 0.07150 0.45137
 H106 H 0.60581 0.05285 0.50136
 H107 H 0.57535 0.01545 0.41839
 H108 H 0.52874 0.08746 0.44709
 C109 C -0.03736 0.05525 0.51333
 C110 C -0.06061 0.03622 0.50426
 C111 C -0.06329 0.00795 0.51826
 C112 C -0.04226 -0.00083 0.54254
 C113 C -0.01934 0.01833 0.55267
 C114 C -0.01675 0.04622 0.53755
 H115 H -0.07658 0.04352 0.48568
 H116 H -0.04360 -0.02221 0.55425
 H117 H 0.00111 0.06095 0.54460
 C118 C 0.44455 0.57451 0.02529
 C119 C 0.46861 0.57234 0.04778
 C120 C 0.47007 0.54891 0.06997
 C121 C 0.44765 0.52690 0.06896
 C122 C 0.42408 0.52820 0.04619
 C123 C 0.42253 0.55222 0.02455
 H124 H 0.48659 0.58859 0.04801
 H125 H 0.44897 0.50804 0.08512
 H126 H 0.40394 0.55399 0.00736
 C127 C 0.53212 -0.05656 0.01763
 C128 C 0.55939 -0.04127 0.01150
 C129 C 0.56895 -0.01761 0.02777
 C130 C 0.55073 -0.00856 0.04984
 C131 C 0.52392 -0.02356 0.05672
 C132 C 0.51474 -0.04749 0.04055
 H133 H 0.57384 -0.04756 -0.00545
 H134 H 0.55717 0.01040 0.06170
 H135 H 0.49352 -0.05863 0.04517
 C136 C 1.00078 0.42755 0.54922
 C137 C 0.97942 0.43070 0.57061
 C138 C 0.98060 0.45465 0.58804
 C139 C 1.00401 0.47550 0.58431
 C140 C 1.02585 0.47295 0.56296
 C141 C 1.02355 0.44895 0.54509
 H142 H 0.96164 0.41438 0.57366
 H143 H 1.00572 0.49347 0.59855
 H144 H 1.03868 0.44692 0.52738
 C145 C 0.43116 0.00915 0.20238
 H146 H 0.43798 0.02851 0.21336
 C147 C 0.44710 0.00085 0.17842
 H148 H 0.46640 0.01393 0.17153
 C149 C 0.39869 -0.03212 0.19960
 H150 H 0.38026 -0.04530 0.20828
 C151 C 0.41400 -0.04124 0.17565
 H152 H 0.40689 -0.06120 0.16589
 N153 N 0.40722 -0.00712 0.21220
 C154 C 0.35119 0.05066 0.25703
 H155 H 0.34933 0.03789 0.27839
 C156 C 0.33512 0.07643 0.25105
 H157 H 0.32070 0.08291 0.26799
 C158 C 0.37064 0.05602 0.20840
 H159 H 0.38389 0.04763 0.19156
 C160 C 0.35486 0.08192 0.20142
 H161 H 0.35637 0.09343 0.17930
 Zn162 Zn 0.38713 0.00452 0.24544
 N163 N 0.36865 0.04107 0.23591
 C164 C 0.42112 0.03077 0.29278
 N165 N 0.41629 0.00597 0.27857
 C166 C 0.43300 -0.01814 0.28693
 C167 C 0.45531 -0.01803 0.31073
 C168 C 0.44312 0.03182 0.31676
 C169 C 0.33199 -0.02329 0.23343
 C170 C 0.30823 -0.04323 0.23760
 C171 C 0.33285 -0.06027 0.28584
 C172 C 0.35618 -0.03989 0.28076
 N173 N 0.35562 -0.02239 0.25457
 H174 H 0.40799 0.04987 0.28554
 H175 H 0.42898 -0.03748 0.27499
 H176 H 0.46833 -0.03748 0.31710
 H177 H 0.44572 0.05170 0.32791
 H178 H 0.33194 -0.00879 0.21302
 H179 H 0.28989 -0.04401 0.22022
 H180 H 0.33377 -0.07384 0.30689
 H181 H 0.37475 -0.03826 0.29765
 C182 C 0.33693 0.09252 0.22290
 C183 C 0.43831 -0.02458 0.16453
 C184 C 0.30874 -0.06247 0.26372
 C185 C 0.46079 0.00718 0.32594
 C186 C 0.09726 -0.00732 0.70469
 H187 H 0.09667 -0.02813 0.71777
 C188 C 0.07593 -0.00128 0.68034
 H189 H 0.05891 -0.01759 0.67518
 C190 C 0.11939 0.03959 0.69680
 H191 H 0.13597 0.05570 0.70353
 C192 C 0.09844 0.04659 0.67251
 H193 H 0.09936 0.06799 0.66059
 N194 N 0.11866 0.01290 0.71219
 C195 C 0.19391 -0.03428 0.76127
 H196 H 0.19720 -0.02137 0.78050
 C197 C 0.21236 -0.05810 0.75912
 H198 H 0.22990 -0.06345 0.77683
 C199 C 0.16691 -0.04292 0.71493
 H200 H 0.14946 -0.03669 0.69754
 C201 C 0.18485 -0.06700 0.71188
 H202 H 0.18097 -0.07873 0.69188
 Zn203 Zn 0.14665 0.00429 0.74594
 N204 N 0.17129 -0.02753 0.73970
 C205 C 0.12629 -0.03209 0.79527
 N206 N 0.12400 -0.00517 0.78043
 C207 C 0.10425 0.01453 0.78868
 C208 C 0.08627 0.00765 0.81314
 C209 C 0.10871 -0.03990 0.81972
 C210 C 0.19308 0.04273 0.72951
 C211 C 0.21352 0.06603 0.73139
 C212 C 0.19285 0.07633 0.77831
 C213 C 0.17292 0.05260 0.77565
 N214 N 0.17311 0.03662 0.75128
 H215 H 0.14131 -0.04786 0.78788
 H216 H 0.10217 0.03548 0.77597
 H217 H 0.07029 0.02352 0.81870
 H218 H 0.11074 -0.06151 0.83110
 H219 H 0.19303 0.02943 0.71057
 H220 H 0.22918 0.07059 0.71377
 H221 H 0.19253 0.08848 0.79808
 H222 H 0.15744 0.04698 0.79312
 C223 C 0.20757 -0.07519 0.73456
 C224 C 0.07651 0.02602 0.66378
 C225 C 0.21333 0.08344 0.75576
 C226 C 0.08853 -0.01994 0.82913
 C227 C 0.57462 0.47819 0.22875
 H228 H 0.57529 0.45875 0.24413
 C229 C 0.54945 0.48351 0.20856
 H230 H 0.53076 0.46796 0.20835
 C231 C 0.59814 0.52223 0.21067
 H232 H 0.61689 0.53753 0.21201
 C233 C 0.57341 0.52837 0.18999
 H234 H 0.57352 0.54855 0.17580
 N235 N 0.59848 0.49724 0.22917
 C236 C 0.67535 0.44452 0.26484
 H237 H 0.68294 0.45559 0.28456
 C238 C 0.69132 0.42067 0.25711
 H239 H 0.71137 0.41394 0.27103
 C240 C 0.64102 0.44144 0.22189
 H241 H 0.62186 0.44997 0.20778
 C242 C 0.65631 0.41758 0.21332
 H243 H 0.64848 0.40776 0.19284
 Zn244 Zn 0.63109 0.48790 0.25778
 N245 N 0.65058 0.45427 0.24739
 C246 C 0.61541 0.45478 0.31168
 N247 N 0.61371 0.48119 0.29567
 C248 C 0.59597 0.50247 0.30410
 C249 C 0.57818 0.49730 0.32890
 C250 C 0.59809 0.44873 0.33674
 C251 C 0.67563 0.52346 0.23200
 C252 C 0.69735 0.54574 0.22964
 C253 C 0.68754 0.55739 0.28007
 C254 C 0.66598 0.53477 0.28147
 N255 N 0.66024 0.51857 0.25748
 H256 H 0.62912 0.43793 0.30429
 H257 H 0.59474 0.52315 0.29075
 H258 H 0.56411 0.51456 0.33495
 H259 H 0.59899 0.42733 0.34872
 H260 H 0.67082 0.51007 0.21335
 H261 H 0.70914 0.54938 0.20900
 H262 H 0.69101 0.57017 0.29932
 H263 H 0.65373 0.53032 0.30166
 C264 C 0.68168 0.40675 0.23104
 C265 C 0.54879 0.50861 0.18853
 C266 C 0.70362 0.56315 0.25377
 C267 C 0.57841 0.46977 0.34501
 C268 C 0.87997 0.53310 0.71934
 H269 H 0.88160 0.55172 0.73265
 C270 C 0.89754 0.53221 0.69444
 H271 H 0.91248 0.55037 0.68852
 C272 C 0.85951 0.48626 0.71181
 H273 H 0.84527 0.46809 0.71907
 C274 C 0.87675 0.48443 0.68677
 H275 H 0.87457 0.46512 0.67457
 N276 N 0.86156 0.51029 0.72763
 C277 C 0.80068 0.54760 0.78773
 H278 H 0.80464 0.53325 0.80807
 C279 C 0.78032 0.57047 0.78730
 H280 H 0.76872 0.57374 0.80747
 C281 C 0.81095 0.56070 0.73668
 H282 H 0.82276 0.55674 0.71692
 C283 C 0.79076 0.58374 0.73523
 H284 H 0.78818 0.59766 0.71445
 Zn285 Zn 0.84274 0.51180 0.76457
 N286 N 0.81573 0.54334 0.76274
 C287 C 0.87738 0.53797 0.81239
 N288 N 0.87485 0.51562 0.79424
 C289 C 0.89616 0.49460 0.79597
 C290 C 0.92079 0.49496 0.81719
 C291 C 0.90185 0.53929 0.83392
 C292 C 0.79755 0.46889 0.75483
 C293 C 0.78147 0.44297 0.76119
 C294 C 0.81196 0.43537 0.80827
 C295 C 0.82751 0.46127 0.80095
 N296 N 0.82058 0.47713 0.77429
 H297 H 0.86043 0.55471 0.81031
 H298 H 0.89373 0.47727 0.78098
 H299 H 0.93732 0.47779 0.81848
 H300 H 0.90296 0.55683 0.84865
 H301 H 0.79191 0.48234 0.73418
 H302 H 0.76322 0.43695 0.74536
 H303 H 0.81806 0.42287 0.82945
 H304 H 0.84507 0.46865 0.81672
 C305 C 0.77493 0.58875 0.76076
 C306 C 0.89665 0.50739 0.67824
 C307 C 0.78905 0.42559 0.78807
 C308 C 0.92396 0.51749 0.83645
 C309 C 0.21217 0.41469 0.02289
 H310 H 0.23067 0.41314 0.04016
 C311 C 0.18968 0.43529 0.02394
 H312 H 0.19084 0.44943 0.04227
 C313 C 0.18891 0.39870 -0.02254
 H314 H 0.18904 0.38469 -0.04085
 C315 C 0.16600 0.41922 -0.02250
 H316 H 0.14822 0.42013 -0.04049
 N317 N 0.21145 0.39693 -0.00009
 C318 C 0.27174 0.32721 0.03728
 H319 H 0.28810 0.32781 0.02012
 C320 C 0.27509 0.30742 0.06277
 H321 H 0.29416 0.29282 0.06516
 C322 C 0.22704 0.34560 0.05498
 H323 H 0.20822 0.36037 0.05181
 C324 C 0.22950 0.32618 0.08080
 H325 H 0.21281 0.32710 0.09742
 Zn326 Zn 0.24545 0.37277 -0.00073
 N327 N 0.24825 0.34607 0.03407
 C328 C 0.30181 0.39681 0.02140
 N329 N 0.27942 0.39829 -0.00119
 C330 C 0.27917 0.41983 -0.02401
 C331 C 0.30210 0.44102 -0.02476
 C332 C 0.32516 0.41766 0.02160
 C333 C 0.22057 0.33132 -0.03874
 C334 C 0.21966 0.31356 -0.06281
 C335 C 0.26566 0.33711 -0.07945
 C336 C 0.26574 0.35433 -0.05508
 N337 N 0.24343 0.35118 -0.03530
 H338 H 0.30134 0.37986 0.03962
 H339 H 0.26080 0.42073 -0.04142
 H340 H 0.30139 0.45817 -0.04296
 H341 H 0.34287 0.41581 0.03964
 H342 H 0.20330 0.32900 -0.02248
 H343 H 0.20146 0.29766 -0.06506
 H344 H 0.28346 0.34058 -0.09500
 H345 H 0.28399 0.36985 -0.05177
 C346 C 0.25380 0.30666 0.08494
 C347 C 0.16657 0.43820 0.00078
 C348 C 0.24267 0.31595 -0.08326
 C349 C 0.32515 0.44045 -0.00149
 C350 C 0.72487 0.07793 0.01195
 H351 H 0.73720 0.07567 -0.00797
 C352 C 0.70119 0.05865 0.01890
 H353 H 0.69603 0.04131 0.00439
 C354 C 0.71783 0.10299 0.05533
 H355 H 0.72453 0.12015 0.06958
 C356 C 0.69389 0.08420 0.06313
 H357 H 0.68216 0.08724 0.08327
 N358 N 0.73224 0.09996 0.02968
 C359 C 0.76807 0.16672 -0.03400
 H360 H 0.79087 0.17012 -0.02432
 C361 C 0.75788 0.18276 -0.06074
 H362 H 0.77318 0.19858 -0.07106
 C363 C 0.72032 0.14272 -0.03109
 H364 H 0.70543 0.12758 -0.01927
 C365 C 0.70925 0.15821 -0.05767
 H366 H 0.68603 0.15446 -0.06612
 Zn367 Zn 0.76346 0.12555 0.01642
 N368 N 0.74941 0.14688 -0.01999
 C369 C 0.80941 0.10204 -0.01676
 N370 N 0.79663 0.10187 0.01030
 C371 C 0.80575 0.08293 0.03407
 C372 C 0.82876 0.06326 0.03130
 C373 C 0.83267 0.08276 -0.02050
 C374 C 0.75399 0.17106 0.05321
 C375 C 0.76146 0.19028 0.07537
 C376 C 0.81212 0.17086 0.08075
 C377 C 0.80366 0.15198 0.05863
 N378 N 0.77483 0.15200 0.04576
 H379 H 0.80123 0.11667 -0.03564
 H380 H 0.79478 0.08292 0.05515
 H381 H 0.83555 0.04820 0.05044
 H382 H 0.84192 0.08283 -0.04245
 H383 H 0.73143 0.17114 0.04207
 H384 H 0.74446 0.20526 0.08071
 H385 H 0.83510 0.17027 0.09098
 H386 H 0.82020 0.13730 0.05184
 C387 C 0.72806 0.17835 -0.07307
 C388 C 0.68482 0.06213 0.04443
 C389 C 0.79083 0.18997 0.08981
 C390 C 0.84263 0.06304 0.00384
 C391 C 0.18340 0.56034 0.49142
 H392 H 0.19661 0.56118 0.47168
 C393 C 0.15949 0.54037 0.49434
 H394 H 0.15431 0.52591 0.47665
 C395 C 0.17472 0.57777 0.53875
 H396 H 0.18118 0.59199 0.55627
 C397 C 0.15048 0.55812 0.54258
 H398 H 0.13880 0.55747 0.56326
 N399 N 0.19043 0.57864 0.51334
 C400 C 0.23731 0.65199 0.46811
 H401 H 0.25822 0.65224 0.48226
 C402 C 0.23243 0.67309 0.44400
 H403 H 0.24970 0.68968 0.44028
 C404 C 0.18896 0.63072 0.45734
 H405 H 0.17186 0.61447 0.46290
 C406 C 0.18312 0.65141 0.43300
 H407 H 0.16160 0.65072 0.41984
 Zn408 Zn 0.22431 0.60365 0.50742
 N409 N 0.21590 0.63114 0.47406
 C410 C 0.27288 0.58479 0.47478
 N411 N 0.25725 0.58006 0.50015
 C412 C 0.26418 0.55763 0.52108
 C413 C 0.28813 0.53929 0.51728
 C414 C 0.29709 0.56698 0.47008
 C415 C 0.21406 0.64415 0.54936
 C416 C 0.22135 0.66150 0.57321
 C417 C 0.27003 0.63811 0.58101
 C418 C 0.26184 0.62131 0.55701
 N419 N 0.23421 0.62451 0.54177
 H420 H 0.26669 0.60239 0.45812
 H421 H 0.25112 0.55413 0.54086
 H422 H 0.29340 0.52166 0.53435
 H423 H 0.30924 0.57172 0.44990
 H424 H 0.19249 0.64670 0.53644
 H425 H 0.20497 0.67723 0.57812
 H426 H 0.29228 0.63540 0.59264
 H427 H 0.27793 0.60619 0.55021
 C428 C 0.20512 0.67272 0.42578
 C429 C 0.14255 0.53913 0.52004
 C430 C 0.24983 0.65863 0.58941
 C431 C 0.30502 0.54378 0.49158
 C432 C 0.72139 0.90498 0.48333
 H433 H 0.73417 0.90294 0.50502
 C434 C 0.69919 0.92624 0.47751
 H435 H 0.69512 0.94002 0.49527
 C436 C 0.71125 0.88857 0.43453
 H437 H 0.71612 0.87402 0.41772
 C438 C 0.68893 0.90953 0.42771
 H439 H 0.67668 0.91069 0.40571
 N440 N 0.72655 0.88631 0.46219
 C441 C 0.75998 0.80647 0.51076
 H442 H 0.77956 0.80313 0.49810
 C443 C 0.75223 0.78595 0.53389
 H444 H 0.76601 0.76681 0.53910
 C445 C 0.71798 0.83536 0.51906
 H446 H 0.70430 0.85430 0.51279
 C447 C 0.70956 0.81551 0.54258
 H448 H 0.68933 0.81945 0.55403
 Zn449 Zn 0.75573 0.85689 0.47216
 N450 N 0.74315 0.83078 0.50409
 C451 C 0.80637 0.86797 0.51227
 N452 N 0.79308 0.87481 0.48413
 C453 C 0.80527 0.89557 0.46484
 C454 C 0.83180 0.91051 0.47368
 C455 C 0.83294 0.88226 0.52198
 C456 C 0.73496 0.81800 0.43104
 C457 C 0.73617 0.79925 0.40817
 C458 C 0.78814 0.81467 0.40177
 C459 C 0.78592 0.83320 0.42487
 N460 N 0.75958 0.83450 0.43893
 H461 H 0.79613 0.85181 0.52754
 H462 H 0.79415 0.90072 0.44265
 H463 H 0.84120 0.92665 0.45773
 H464 H 0.84301 0.87673 0.54458
 H465 H 0.71444 0.81919 0.44291
 H466 H 0.71634 0.78613 0.40243
 H467 H 0.80930 0.81433 0.39090
 H468 H 0.80536 0.84620 0.43180
 C469 C 0.72709 0.79060 0.55046
 C470 C 0.68240 0.92860 0.44934
 C471 C 0.76305 0.79707 0.39340
 C472 C 0.84571 0.90417 0.50287
 C473 C 0.04234 0.21659 0.43841
 H474 H 0.06226 0.23047 0.44055
 C475 C 0.04097 0.19011 0.45590
 H476 H 0.06002 0.18364 0.47149
 C477 C -0.00675 0.20831 0.41559
 H478 H -0.02545 0.21554 0.40007
 C479 C -0.00906 0.18165 0.43257
 H480 H -0.02932 0.16857 0.42894
 N481 N 0.01879 0.22503 0.41853
 C482 C 0.05884 0.28505 0.35056
 H483 H 0.04516 0.30408 0.35162
 C484 C 0.08118 0.28524 0.32968
 H485 H 0.08474 0.30464 0.31482
 C486 C 0.07013 0.23638 0.36804
 H487 H 0.06522 0.21710 0.38244
 C488 C 0.09259 0.23557 0.34744
 H489 H 0.10435 0.21541 0.34646
 Zn490 Zn 0.02218 0.26142 0.39594
 N491 N 0.05398 0.26095 0.36943
 C492 C 0.05372 0.30835 0.42291
 N493 N 0.02946 0.28977 0.42404
 C494 C 0.00923 0.29065 0.44572
 C495 C 0.01207 0.31174 0.46651
 C496 C 0.05747 0.32979 0.44331
 C497 C -0.02282 0.25242 0.34965
 C498 C -0.04967 0.25774 0.33168
 C499 C -0.05751 0.29970 0.35910
 C500 C -0.03061 0.29355 0.37651
 N501 N -0.01413 0.26994 0.37190
 H502 H 0.07004 0.30680 0.40605
 H503 H -0.00945 0.27515 0.44653
 H504 H -0.00433 0.31180 0.48355
 H505 H 0.07658 0.34479 0.44180
 H506 H -0.00902 0.23404 0.34613
 H507 H -0.05617 0.24296 0.31472
 H508 H -0.07045 0.31847 0.36338
 H509 H -0.02300 0.30775 0.39366
 C510 C 0.09856 0.26038 0.32800
 C511 C 0.01499 0.17230 0.45328
 C512 C -0.06754 0.28167 0.33645
 C513 C 0.03611 0.33213 0.46499
 C514 C -0.00574 0.72175 0.06741
 H515 H -0.02324 0.73802 0.06470
 C516 C -0.00675 0.69903 0.04857
 H517 H -0.02517 0.69792 0.03132
 C518 C 0.03949 0.70354 0.09327
 H519 H 0.05756 0.70548 0.11063
 C520 C 0.03944 0.68045 0.07479
 H521 H 0.05726 0.66459 0.07879
 N522 N 0.01687 0.72337 0.08952
 C523 C -0.02404 0.77265 0.15543
 H524 H -0.00791 0.79050 0.15682
 C525 C -0.04866 0.77081 0.17371
 H526 H -0.05148 0.78748 0.18903
 C527 C -0.03946 0.72885 0.13433
 H528 H -0.03553 0.71225 0.11936
 C529 C -0.06432 0.72607 0.15235
 H530 H -0.07963 0.70769 0.15017
 Zn531 Zn 0.01550 0.75483 0.11406
 N532 N -0.01996 0.75193 0.13611
 C533 C -0.00727 0.80870 0.08630
 N534 N 0.01592 0.78954 0.08795
 C535 C 0.03976 0.79409 0.07014
 C536 C 0.04123 0.81899 0.05012
 C537 C -0.00675 0.83386 0.06655
 C538 C 0.05133 0.73090 0.16387
 C539 C 0.07456 0.72982 0.18684
 C540 C 0.09226 0.77693 0.16693
 C541 C 0.06879 0.77704 0.14423
 N542 N 0.04896 0.75419 0.14306
 H543 H -0.02627 0.80453 0.10024
 H544 H 0.05773 0.77833 0.07160
 H545 H 0.06050 0.82233 0.03629
 H546 H -0.02513 0.84902 0.06642
 H547 H 0.03496 0.71323 0.16271
 H548 H 0.07611 0.71111 0.20324
 H549 H 0.10801 0.79515 0.16699
 H550 H 0.06624 0.79558 0.12785
 C551 C -0.06896 0.74711 0.17265
 C552 C 0.01600 0.67802 0.05205
 C553 C 0.09513 0.75319 0.18886
 C554 C 0.01770 0.83919 0.04793
 C555 C 0.47254 0.20148 0.56351
 H556 H 0.45191 0.21392 0.55973
 C557 C 0.47699 0.17829 0.54621
 H558 H 0.45956 0.17289 0.52917
 C559 C 0.52053 0.19400 0.58990
 H560 H 0.53761 0.20047 0.60666
 C561 C 0.52599 0.17062 0.57298
 H562 H 0.54703 0.15902 0.57767
 N563 N 0.49408 0.20880 0.58495
 C564 C 0.44254 0.25672 0.64492
 H565 H 0.45465 0.27733 0.64411
 C566 C 0.41784 0.25219 0.66303
 H567 H 0.41092 0.26984 0.67544
 C568 C 0.43704 0.20904 0.62922
 H569 H 0.44486 0.19202 0.61652
 C570 C 0.41227 0.20360 0.64696
 H571 H 0.40110 0.18249 0.64740
 Zn572 Zn 0.48607 0.24204 0.60518
 N573 N 0.45152 0.23534 0.62832
 C574 C 0.45543 0.29042 0.57219
 N575 N 0.47995 0.27280 0.57453
 C576 C 0.50249 0.27694 0.55511
 C577 C 0.50164 0.30026 0.53307
 C578 C 0.45362 0.31409 0.55036
 C579 C 0.52973 0.23289 0.65498
 C580 C 0.55440 0.24038 0.67445
 C581 C 0.55678 0.28722 0.64615
 C582 C 0.53226 0.27886 0.62734
 N583 N 0.51953 0.25192 0.63165
 H584 H 0.43761 0.28661 0.58765
 H585 H 0.52167 0.26250 0.55740
 H586 H 0.52023 0.30358 0.51834
 H587 H 0.43449 0.32841 0.54989
 H588 H 0.51877 0.21183 0.65838
 H589 H 0.56201 0.22476 0.69269
 H590 H 0.56661 0.30875 0.64208
 H591 H 0.52333 0.29416 0.60945
 C592 C 0.40248 0.22515 0.66440
 C593 C 0.50409 0.16272 0.55052
 C594 C 0.56841 0.26792 0.66992
 C595 C 0.47718 0.31939 0.53058
 C596 C 0.50286 0.73331 0.93215
 H597 H 0.52358 0.74614 0.93105
 C598 C 0.49936 0.71257 0.95634
 H599 H 0.51752 0.70948 0.97388
 C600 C 0.45405 0.72175 0.91046
 H601 H 0.43633 0.72567 0.89273
 C602 C 0.44973 0.70048 0.93413
 H603 H 0.42849 0.68840 0.93441
 N604 N 0.48058 0.73721 0.90963
 C605 C 0.52813 0.76765 0.83020
 H606 H 0.51781 0.78859 0.82429
 C607 C 0.55024 0.75790 0.81249
 H608 H 0.55635 0.77144 0.79272
 C609 C 0.53119 0.72410 0.86235
 H610 H 0.52339 0.71077 0.88151
 C611 C 0.55323 0.71343 0.84518
 H612 H 0.56241 0.69203 0.85145
 Zn613 Zn 0.48894 0.76514 0.87764
 N614 N 0.51939 0.75094 0.85484
 C615 C 0.53062 0.81089 0.89115
 N616 N 0.50255 0.79929 0.89558
 C617 C 0.48384 0.81087 0.91440
 C618 C 0.49291 0.83535 0.92932
 C619 C 0.54065 0.83533 0.90568
 C620 C 0.44223 0.75094 0.83500
 C621 C 0.41702 0.75577 0.81455
 C622 C 0.41698 0.80565 0.82709
 C623 C 0.44214 0.79986 0.84726
 N624 N 0.45402 0.77276 0.85113
 H625 H 0.54548 0.80104 0.87668
 H626 H 0.46176 0.80101 0.91778
 H627 H 0.47714 0.84429 0.94354
 H628 H 0.56311 0.84423 0.90193
 H629 H 0.45262 0.72978 0.83788
 H630 H 0.40856 0.73808 0.80176
 H631 H 0.40784 0.82738 0.82437
 H632 H 0.45231 0.81719 0.85952
 C633 C 0.56334 0.73051 0.82016
 C634 C 0.47286 0.69544 0.95721
 C635 C 0.40388 0.78347 0.81058
 C636 C 0.52188 0.84777 0.92526
 C637 C 0.18533 0.22148 0.28038
 C638 C 0.16465 0.24226 0.28079
 C639 C 0.14342 0.24122 0.30512
 C640 C 0.12146 0.26085 0.30492
 H641 H 0.16300 0.26004 0.26338
 H642 H 0.14598 0.22407 0.32317
 H643 H 0.18653 0.20456 0.29887
 H644 H 0.12028 0.27832 0.28701
 C645 C 0.64317 0.74043 0.74794
 C646 C 0.62658 0.72295 0.76612
 C647 C 0.60495 0.73550 0.78516
 C648 C 0.58646 0.71866 0.80197
 H649 H 0.62757 0.69958 0.76581
 H650 H 0.60407 0.75891 0.78511
 H651 H 0.64039 0.76373 0.74782
 H652 H 0.58870 0.69526 0.80289
 C653 C 0.31391 0.76055 0.74371
 C654 C 0.33272 0.78006 0.75601
 C655 C 0.35880 0.77084 0.77684
 C656 C 0.37740 0.79060 0.78902
 H657 H 0.32935 0.80308 0.75041
 H658 H 0.36216 0.74786 0.78252
 H659 H 0.31879 0.73764 0.74848
 H660 H 0.37250 0.81342 0.78350
 C661 C -0.14991 0.27069 0.25636
 C662 C -0.13789 0.28374 0.28039
 C663 C -0.10819 0.27514 0.29527
 C664 C -0.09682 0.28860 0.31920
 H665 H -0.14945 0.30096 0.28973
 H666 H -0.09600 0.25796 0.28647
 H667 H -0.13669 0.25375 0.24815
 H668 H -0.10985 0.30602 0.32672
 C669 C -0.14575 0.69587 0.23450
 C670 C -0.13247 0.72059 0.22373
 C671 C -0.10900 0.72063 0.20159
 C672 C -0.09440 0.74534 0.19298
 H673 H -0.13867 0.74120 0.23135
 H674 H -0.10281 0.70018 0.19359
 H675 H -0.14028 0.67569 0.22539
 H676 H -0.10026 0.76514 0.20266
 C677 C 0.33828 0.23927 0.74900
 C678 C 0.34406 0.22455 0.72522
 C679 C 0.36982 0.23327 0.70667
 C680 C 0.37626 0.21844 0.68328
 H681 H 0.33047 0.20598 0.71916
 H682 H 0.38399 0.25146 0.71294
 H683 H 0.35312 0.25767 0.75343
 H684 H 0.36227 0.19962 0.67840
 C685 C 0.65292 0.25957 0.74986
 C686 C 0.63684 0.27464 0.72729
 C687 C 0.61032 0.26181 0.71099
 C688 C 0.59479 0.27800 0.68899
 H689 H 0.64258 0.29689 0.72037
 H690 H 0.60415 0.23937 0.71675
 H691 H 0.64514 0.23764 0.75636
 H692 H 0.60230 0.30030 0.68410
 C693 C 0.17044 0.79692 0.25891
 C694 C 0.15693 0.77302 0.24894
 C695 C 0.13266 0.77545 0.22446
 C696 C 0.11939 0.75182 0.21365
 H697 H 0.16442 0.75164 0.25783
 H698 H 0.12551 0.79692 0.21547
 H699 H 0.16329 0.81794 0.24841
 H700 H 0.12584 0.73057 0.22406
 C701 C 0.27508 0.17395 0.24663
 C702 C 0.28777 0.15982 0.22566
 C703 C 0.30828 0.13542 0.23490
 C704 C 0.31890 0.11910 0.21451
 H705 H 0.28160 0.16478 0.20182
 H706 H 0.31403 0.13045 0.25880
 H707 H 0.28064 0.16729 0.27031
 H708 H 0.31399 0.12530 0.19063
 C709 C 0.71070 0.66564 0.70956
 C710 C 0.72096 0.65178 0.73577
 C711 C 0.73962 0.62568 0.73551
 C712 C 0.75380 0.61336 0.76078
 H713 H 0.71747 0.66064 0.75708
 H714 H 0.74228 0.61692 0.71399
 H715 H 0.71614 0.65700 0.68861
 H716 H 0.74976 0.62156 0.78232
 C717 C 0.73145 0.33632 0.76615
 C718 C 0.74605 0.35283 0.78595
 C719 C 0.75901 0.38139 0.77610
 C720 C 0.77365 0.39753 0.79622
 H721 H 0.74822 0.34547 0.80978
 H722 H 0.75741 0.38855 0.75223
 H723 H 0.72803 0.34477 0.74268
 H724 H 0.77589 0.38903 0.81975
 C725 C 0.26374 -0.15591 0.30181
 C726 C 0.26138 -0.13091 0.28421
 C727 C 0.28608 -0.10899 0.28469
 C728 C 0.28386 -0.08432 0.26670
 H729 H 0.24162 -0.12611 0.26911
 H730 H 0.30658 -0.11386 0.29877
 H731 H 0.28383 -0.15858 0.31720
 H732 H 0.26345 -0.08075 0.25197
 C733 C 0.23017 -0.17208 0.70307
 C734 C 0.23823 -0.14946 0.71912
 C735 C 0.21891 -0.12360 0.71747
 C736 C 0.22678 -0.10105 0.73354
 H737 H 0.25892 -0.14938 0.73350
 H738 H 0.19766 -0.12367 0.70386
 H739 H 0.20958 -0.16996 0.68832
 H740 H 0.24761 -0.10225 0.74796
 C741 C 0.75447 0.32647 0.24449
 C742 C 0.73397 0.34187 0.22666
 C743 C 0.71724 0.36521 0.23870
 C744 C 0.69817 0.38208 0.22069
 H745 H 0.73045 0.33832 0.20289
 H746 H 0.72082 0.36852 0.26251
 H747 H 0.75848 0.33166 0.26781
 H748 H 0.69414 0.37742 0.19722
 C749 C 0.76912 0.64391 0.28783
 C750 C 0.75958 0.62693 0.26601
 C751 C 0.73734 0.60320 0.27207
 C752 C 0.72642 0.58712 0.24996
 H753 H 0.76731 0.63092 0.24340
 H754 H 0.73015 0.59914 0.29484
 H755 H 0.75974 0.64009 0.30980
 H756 H 0.73482 0.59167 0.22763
 C757 C 0.24935 0.17945 0.78581
 C758 C 0.25400 0.15535 0.77204
 C759 C 0.23129 0.13146 0.77217
 C760 C 0.23540 0.10800 0.75720
 H761 H 0.27486 0.15268 0.76112
 H762 H 0.21087 0.13352 0.78400
 H763 H 0.22875 0.18078 0.79764
 H764 H 0.25535 0.10725 0.74428
 C765 C 0.22047 0.25164 0.17705
 C766 C 0.24251 0.25846 0.15828
 C767 C 0.23632 0.27793 0.13064
 C768 C 0.25838 0.28613 0.11234
 H769 H 0.26539 0.25076 0.16366
 H770 H 0.21337 0.28547 0.12544
 H771 H 0.19821 0.26095 0.17151
 H772 H 0.28084 0.27717 0.11746
 C773 C 0.69056 0.76105 0.65059
 C774 C 0.70082 0.75363 0.62466
 C775 C 0.70588 0.77576 0.59966
 C776 C 0.71966 0.76893 0.57535
 H777 H 0.70569 0.73127 0.62151
 H778 H 0.69950 0.79797 0.60187
 H779 H 0.68496 0.78359 0.65236
 H780 H 0.72754 0.74692 0.57452
 C781 C 0.81159 0.73717 0.32322
 C782 C 0.78693 0.74513 0.33624
 C783 C 0.78874 0.76761 0.35798
 C784 C 0.76360 0.77600 0.36995
 H785 H 0.76505 0.73521 0.33068
 H786 H 0.81080 0.77644 0.36461
 H787 H 0.83295 0.74852 0.32768
 H788 H 0.74212 0.76598 0.36298
 C789 C 0.28945 0.26552 -0.16165
 C790 C 0.26478 0.27021 -0.14680
 C791 C 0.26644 0.29026 -0.12256
 C792 C 0.24190 0.29624 -0.10810
 H793 H 0.24324 0.25990 -0.15280
 H794 H 0.28834 0.29967 -0.11625
 H795 H 0.31022 0.27736 -0.15597
 H796 H 0.22054 0.28545 -0.11395
 C797 C 0.73203 0.24460 -0.16600
 C798 C 0.71634 0.22633 -0.14777
 C799 C 0.73142 0.21069 -0.12077
 C800 C 0.71513 0.19457 -0.10109
 H801 H 0.69201 0.22375 -0.15195
 H802 H 0.75582 0.21258 -0.11727
 H803 H 0.75603 0.24813 -0.16033
 H804 H 0.69078 0.19282 -0.10598
 C805 C 0.23308 0.74953 0.34864
 C806 C 0.21155 0.73246 0.36091
 C807 C 0.21967 0.71035 0.38581
 C808 C 0.19829 0.69462 0.39999
 H809 H 0.18785 0.73552 0.35363
 H810 H 0.24347 0.70707 0.39243
 H811 H 0.25641 0.74693 0.35763
 H812 H 0.17470 0.69753 0.39200
 C813 C 0.23878 0.73440 0.66029
 C814 C 0.25562 0.71435 0.64943
 C815 C 0.24269 0.69591 0.62611
 C816 C 0.26016 0.67711 0.61406
 H817 H 0.27943 0.71220 0.65668
 H818 H 0.21895 0.69820 0.61884
 H819 H 0.21542 0.73702 0.65139
 H820 H 0.28372 0.67529 0.62259
 C821 C 0.77394 0.25113 0.17323
 C822 C 0.79285 0.23895 0.15575
 C823 C 0.78121 0.22189 0.13073
 C824 C 0.80043 0.20915 0.11400
 H825 H 0.81718 0.24153 0.15971
 H826 H 0.75691 0.21891 0.12698
 H827 H 0.74967 0.24952 0.16781
 H828 H 0.82463 0.21169 0.11932
 C829 C 0.43373 0.40501 0.47040
 C830 C 0.45763 0.38810 0.47855
 C831 C 0.45424 0.36158 0.49903
 C832 C 0.47826 0.34525 0.50846
 H833 H 0.48000 0.39435 0.47149
 H834 H 0.43194 0.35575 0.50652
 H835 H 0.41198 0.39858 0.47908
 H836 H 0.50004 0.35115 0.49954
 C837 C -0.02468 0.92516 -0.01214
 C838 C -0.00052 0.90860 -0.00379
 C839 C -0.00399 0.88171 0.01617
 C840 C 0.01998 0.86574 0.02682
 H841 H 0.02189 0.91537 -0.01037
 H842 H -0.02661 0.87511 0.02218
 H843 H -0.04646 0.91828 -0.00381
 H844 H 0.04224 0.87211 0.01939
 C845 C 0.05541 0.59850 -0.00195
 C846 C 0.03235 0.61428 0.00561
 C847 C 0.03692 0.63695 0.02698
 C848 C 0.01375 0.65382 0.03204
 H849 H 0.00957 0.61063 -0.00402
 H850 H 0.05937 0.64036 0.03751
 H851 H 0.07774 0.60146 0.00915
 H852 H -0.00802 0.65044 0.01992
 C853 C 0.56367 0.09367 0.49970
 C854 C 0.53707 0.10502 0.50504
 C855 C 0.53514 0.12734 0.52666
 C856 C 0.50826 0.13869 0.53108
 H857 H 0.51629 0.09784 0.49338
 H858 H 0.55587 0.13513 0.53782
 H859 H 0.58401 0.09988 0.51279
 H860 H 0.48823 0.13093 0.51852
 C861 C -0.03611 0.08466 0.49737
 C862 C -0.01059 0.10050 0.49470
 C863 C -0.01129 0.12893 0.47703
 C864 C 0.01427 0.14403 0.47176
 H865 H 0.01097 0.09217 0.50442
 H866 H -0.03313 0.13736 0.46837
 H867 H -0.05700 0.09301 0.48590
 H868 H 0.03568 0.13549 0.48179
 C869 C 0.44240 0.59905 1.00155
 C870 C 0.45539 0.62509 1.00492
 C871 C 0.45419 0.64814 0.97994
 C872 C 0.47034 0.67271 0.98243
 H873 H 0.46742 0.62957 1.02609
 H874 H 0.44150 0.64420 0.95893
 H875 H 0.42934 0.59561 0.98056
 H876 H 0.48425 0.67531 1.00312
 C877 C 0.52136 0.91943 1.00206
 C878 C 0.53429 0.90902 0.97871
 C879 C 0.52108 0.88354 0.96441
 C880 C 0.53337 0.87360 0.94055
 H881 H 0.55439 0.91895 0.96952
 H882 H 0.50159 0.87275 0.97405
 H883 H 0.50076 0.90858 1.00940
 H884 H 0.55353 0.88450 0.93222
 C885 C -0.00213 0.40221 0.53074
 C886 C 0.02122 0.39110 0.51796
 C887 C 0.01662 0.36637 0.49918
 C888 C 0.03972 0.35585 0.48552
 H889 H 0.04393 0.40001 0.52138
 H890 H -0.00613 0.35759 0.49570
 H891 H -0.02431 0.39184 0.52818
 H892 H 0.06195 0.36609 0.48819
 C893 C 0.38760 0.50167 0.43934
 C894 C 0.37120 0.50248 0.46355
 C895 C 0.34672 0.52362 0.46417
 C896 C 0.33052 0.52388 0.48861
 H897 H 0.37595 0.48768 0.48342
 H898 H 0.34194 0.53841 0.44436
 H899 H 0.38352 0.51774 0.42036
 H900 H 0.33601 0.50818 0.50763
 C901 C 0.93118 0.02247 -0.03989
 C902 C 0.90911 0.01990 -0.02040
 C903 C 0.88678 0.04310 -0.01949
 C904 C 0.86606 0.04099 0.00128
 H905 H 0.90707 0.00102 -0.00463
 H906 H 0.88772 0.06199 -0.03555
 H907 H 0.93213 0.04251 -0.05443
 H908 H 0.86671 0.02238 0.01788
 C909 C 0.59756 -0.00206 0.02050
 C910 C 0.61448 0.01223 0.04073
 C911 C 0.64192 0.02860 0.03209
 C912 C 0.65833 0.04346 0.05222
 H913 H 0.60815 0.01201 0.06389
 H914 H 0.64771 0.02940 0.00874
 H915 H 0.60525 -0.00290 -0.00210
 H916 H 0.65099 0.04325 0.07507
 C917 C 0.04898 0.49450 0.56051
 C918 C 0.07216 0.49422 0.54240
 C919 C 0.09549 0.51751 0.54156
 C920 C 0.11795 0.51694 0.52277
 H921 H 0.07483 0.47679 0.52811
 H922 H 0.09388 0.53513 0.55595
 H923 H 0.04823 0.51252 0.57464
 H924 H 0.11799 0.49947 0.50789
 C925 C 0.09239 0.50960 -0.04560
 C926 C 0.10778 0.49775 -0.02084
 C927 C 0.12869 0.47360 -0.02295
 C928 C 0.14391 0.46132 0.00172
 H929 H 0.10459 0.50537 0.00113
 H930 H 0.13223 0.46652 -0.04506
 H931 H 0.09493 0.50051 -0.06703
 H932 H 0.14098 0.46978 0.02339
 C933 C 0.61835 1.01171 0.46678
 C934 C 0.62506 0.99043 0.44958
 C935 C 0.65099 0.97120 0.45855
 C936 C 0.65744 0.94964 0.44170
 H937 H 0.61170 0.98649 0.42905
 H938 H 0.66461 0.97496 0.47900
 H939 H 0.63293 1.01409 0.48711
 H940 H 0.64353 0.94718 0.42098
 C941 C 0.91285 0.99015 0.50720
 C942 C 0.90690 0.96259 0.51734
 C943 C 0.88053 0.94696 0.50391
 C944 C 0.87317 0.91991 0.51430
 H945 H 0.92075 0.95134 0.53541
 H946 H 0.86637 0.95832 0.48608
 H947 H 0.89783 0.99961 0.48880
 H948 H 0.88679 0.90950 0.53322
 C949 C 0.40129 0.50426 0.04619
 C950 C 0.38576 0.49651 0.02119
 C951 C 0.36389 0.47207 0.02284
 C952 C 0.34845 0.46395 -0.00205
 H953 H 0.38952 0.50773 -0.00066
 H954 H 0.35988 0.46128 0.04482
 H955 H 0.39819 0.49165 0.06750
 H956 H 0.35183 0.47607 -0.02357
 C957 C 0.48201 0.47624 0.39345
 C958 C 0.50953 0.46438 0.39391
 C959 C 0.53067 0.47420 0.37064
 C960 C 0.55784 0.46199 0.36965
 H961 H 0.51667 0.44764 0.41128
 H962 H 0.52316 0.49085 0.35331
 H963 H 0.47631 0.49373 0.37630
 H964 H 0.56425 0.44420 0.38617
 C965 C 0.02106 -0.00306 0.90993
 C966 C 0.03579 -0.02173 0.89485
 C967 C 0.05570 -0.01093 0.87082
 C968 C 0.06929 -0.02932 0.85445
 H969 H 0.03214 -0.04491 0.89903
 H970 H 0.05902 0.01228 0.86657
 H971 H 0.02418 0.02003 0.90406
 H972 H 0.06655 -0.05248 0.86011
 C973 C 0.00182 0.00832 0.57875
 C974 C 0.01703 0.02647 0.59654
 C975 C 0.03804 0.01569 0.62205
 C976 C 0.05423 0.03449 0.63824
 H977 H 0.01383 0.04968 0.59272
 H978 H 0.04074 -0.00750 0.62687
 H979 H 0.00429 -0.01489 0.58402
 H980 H 0.05185 0.05755 0.63176
 C981 C 0.49613 0.54735 0.09283
 C982 C 0.49538 0.53221 0.11978
 C983 C 0.52243 0.53021 0.14102
 C984 C 0.52197 0.51341 0.16700
 H985 H 0.47478 0.52104 0.12642
 H986 H 0.54303 0.54150 0.13460
 H987 H 0.51662 0.55948 0.08741
 H988 H 0.50136 0.50127 0.17198
 C989 C 0.50582 -0.01292 0.08034
 C990 C 0.48744 -0.02989 0.09712
 C991 C 0.47159 -0.01799 0.12140
 C992 C 0.45444 -0.03508 0.13939
 H993 H 0.48490 -0.05280 0.09386
 H994 H 0.47397 0.00500 0.12428
 H995 H 0.50909 0.00958 0.08529
 H996 H 0.45148 -0.05777 0.13508
 C997 C 0.95779 0.45638 0.61084
 C998 C 0.94884 0.48135 0.62043
 C999 C 0.92643 0.48131 0.64361
 C1000 C 0.91719 0.50617 0.65327
 H1001 H 0.95781 0.50193 0.61114
 H1002 H 0.91851 0.46060 0.65358
 H1003 H 0.94724 0.43622 0.61939
 H1004 H 0.92663 0.52651 0.64378
 C1005 C 0.99938 0.55990 0.90784
 C1006 C 0.98731 0.53693 0.89475
 C1007 C 0.96113 0.53993 0.87250
 C1008 C 0.94996 0.51669 0.85928
 H1009 H 0.99621 0.51543 0.90097
 H1010 H 0.95153 0.56120 0.86666
 H1011 H 0.98907 0.58098 0.90245
 H1012 H 0.96109 0.49600 0.86474
 C1013 C 0.52752 0.05144 0.40364
 C1014 C 0.51879 0.02789 0.38950
 C1015 C 0.49579 0.03021 0.36383
 C1016 C 0.48451 0.00653 0.35136
 H1017 H 0.52765 0.00673 0.39749
 H1018 H 0.48826 0.05164 0.35533
 H1019 H 0.51690 0.07202 0.39623
 H1020 H 0.49334 -0.01450 0.36003
   
