data_POSCAR
  _audit_creation_date              2014-09-24
  _audit_creation_method            'ToBaCCo'
  _symmetry_space_group_name_H-M    'P1'
  _symmetry_Int_Tables_number       1
  _symmetry_cell_setting            triclinic
  loop_
  _symmetry_equiv_pos_as_xyz
 x,y,z
_cell_length_a 26.2170
_cell_length_b 25.8629
_cell_length_c 25.8380
_cell_angle_alpha 88.711900
_cell_angle_beta 97.078600
_cell_angle_gamma 93.899100
loop_
  _atom_site_label
  _atom_site_type_symbol
  _atom_site_fract_x
  _atom_site_fract_y
  _atom_site_fract_z
C1 C 0.57414 0.58341 -0.00401
 C2 C 0.58577 0.53100 0.00297
 C3 C 0.54426 0.49349 0.00506
 C4 C 0.49267 0.50663 -0.00480
 C5 C 0.48291 0.55927 -0.01438
 C6 C 0.52310 0.59883 -0.01111
 C7 C 0.44891 0.46550 -0.00484
 C8 C 0.40004 0.47858 0.00611
 C9 C 0.35789 0.44174 0.00346
 C10 C 0.36608 0.38969 -0.00511
 C11 C 0.41470 0.37463 -0.01440
 C12 C 0.45532 0.41306 -0.01564
 H13 H 0.60554 0.61288 -0.00340
 H14 H 0.55138 0.45374 0.01408
 H15 H 0.44372 0.56879 -0.02498
 H16 H 0.39470 0.51743 0.01787
 H17 H 0.33427 0.36095 -0.00418
 H18 H 0.49168 0.40160 -0.02574
 C19 C -0.02284 0.60677 0.41223
 C20 C -0.01001 0.62131 0.46483
 C21 C -0.00959 0.58172 0.50329
 C22 C -0.02496 0.53016 0.49012
 C23 C -0.04082 0.51782 0.43789
 C24 C -0.03722 0.55507 0.39797
 C25 C -0.02189 0.48826 0.53042
 C26 C -0.00795 0.43899 0.51810
 C27 C -0.00708 0.39834 0.55482
 C28 C -0.01496 0.40865 0.60617
 C29 C -0.02608 0.45846 0.62008
 C30 C -0.03201 0.49725 0.58133
 H31 H -0.02156 0.63602 0.38168
 H32 H 0.00323 0.58979 0.54362
 H33 H -0.05293 0.47808 0.42896
 H34 H 0.00292 0.43228 0.47988
 H35 H -0.01220 0.37791 0.63537
 H36 H -0.04474 0.53445 0.59068
 C37 C 0.63871 0.00202 0.58952
 C38 C 0.58942 0.00193 0.60546
 C39 C 0.54651 -0.00046 0.56699
 C40 C 0.55228 0.00323 0.51307
 C41 C 0.60275 0.00813 0.49900
 C42 C 0.64662 0.00552 0.53651
 C43 C 0.50605 0.00271 0.47161
 C44 C 0.50942 -0.00945 0.41874
 C45 C 0.46595 -0.00958 0.38067
 C46 C 0.41809 -0.00002 0.39631
 C47 C 0.41316 0.01020 0.44841
 C48 C 0.45750 0.01417 0.48485
 H49 H 0.67140 -0.00063 0.61910
 H50 H 0.50884 -0.00480 0.57992
 H51 H 0.60733 0.01431 0.45865
 H52 H 0.54525 -0.01987 0.40653
 H53 H 0.38424 -0.00029 0.36775
 H54 H 0.45371 0.02727 0.52340
 O55 O 0.47842 -0.01260 -0.08710
 O56 O 0.47635 -0.01370 0.05662
 O57 O 0.46605 0.05757 -0.01801
 O58 O 0.48456 -0.08302 -0.01361
 O59 O 0.56878 -0.06596 -0.00257
 O60 O 0.55021 0.07460 -0.00503
 O61 O 0.56052 0.00349 0.06779
 O62 O 0.56237 0.00610 -0.07484
 Cu63 Cu 0.46795 -0.01434 -0.01660
 Cu64 Cu 0.56873 0.00623 -0.00252
 C65 C 0.52113 -0.00349 -0.10534
 C66 C 0.51825 -0.00539 0.08670
 C67 C 0.50483 0.09009 -0.01194
 C68 C 0.52988 -0.09848 -0.00791
 O69 O -0.08402 0.54762 0.99675
 O70 O 0.05242 0.51673 1.00899
 O71 O -0.02290 0.51672 0.93375
 O72 O -0.00838 0.55174 1.07074
 O73 O -0.03247 0.47121 1.09156
 O74 O -0.04459 0.43528 0.95348
 O75 O 0.02992 0.43607 1.03058
 O76 O -0.10634 0.46623 1.01602
 Cu77 Cu -0.01329 0.54127 1.00038
 Cu78 Cu -0.04028 0.44389 1.02508
 C79 C -0.11839 0.51219 1.00468
 C80 C 0.06438 0.47096 1.02177
 C81 C -0.03607 0.47052 0.92002
 C82 C -0.01933 0.51780 1.10441
 O83 O 0.01334 -0.04509 0.44283
 O84 O 0.02165 0.09239 0.47721
 O85 O 0.08361 0.03096 0.44211
 O86 O -0.04965 0.01799 0.47286
 O87 O -0.02193 -0.00052 0.55496
 O88 O 0.11180 0.00998 0.52343
 O89 O 0.05090 0.07252 0.55858
 O90 O 0.04013 -0.06487 0.52484
 Cu91 Cu 0.01463 0.02609 0.45046
 Cu92 Cu 0.04820 0.00211 0.54863
 C93 C 0.02479 -0.07851 0.47838
 C94 C 0.03721 0.10582 0.52378
 C95 C 0.12042 0.02256 0.47732
 C96 C -0.05860 0.00715 0.51915
 C97 C -0.27444 0.54619 0.99955
 C98 C -0.25942 0.49576 1.00962
 N99 N -0.29535 0.45744 1.01833
 C100 C -0.34589 0.46698 1.01714
 C101 C -0.36189 0.51792 1.00674
 N102 N -0.32473 0.55588 0.99847
 N103 N -0.23861 0.58470 0.99062
 C104 C -0.18818 0.57492 0.99145
 C105 C -0.17281 0.52426 1.00177
 N106 N -0.20910 0.48588 1.01065
 H107 H -0.37210 0.43461 1.02469
 H108 H -0.16043 0.60643 0.98443
 C109 C 0.21950 0.43325 1.02576
 C110 C 0.20474 0.48313 1.01120
 N111 N 0.24015 0.51905 0.99588
 C112 C 0.28973 0.50742 0.99423
 C113 C 0.30497 0.45724 1.00854
 N114 N 0.26896 0.42145 1.02392
 N115 N 0.18384 0.39702 1.04020
 C116 C 0.13390 0.40830 1.04034
 C117 C 0.11873 0.45813 1.02510
 N118 N 0.15487 0.49441 1.01111
 H119 H 0.31624 0.53672 0.98014
 H120 H 0.10628 0.37845 1.05164
 C121 C 0.00503 -0.23808 0.44616
 C122 C 0.01949 -0.22074 0.49704
 N123 N 0.02541 -0.25564 0.53683
 C124 C 0.01705 -0.30735 0.52829
 C125 C 0.00172 -0.32557 0.47697
 N126 N -0.00335 -0.28953 0.43754
 N127 N -0.00156 -0.20322 0.40625
 C128 C 0.00533 -0.15147 0.41516
 C129 C 0.01938 -0.13390 0.46637
 N130 N 0.02635 -0.16919 0.50607
 H131 H 0.02251 -0.33275 0.56181
 H132 H -0.00055 -0.12447 0.38270
 C133 C 0.02958 0.26193 0.56348
 C134 C 0.01282 0.24460 0.51277
 N135 N -0.00906 0.27763 0.47654
 C136 C -0.01511 0.32742 0.48866
 C137 C 0.00148 0.34516 0.53956
 N138 N 0.02339 0.31162 0.57575
 N139 N 0.05054 0.22841 0.59995
 C140 C 0.05496 0.17808 0.58808
 C141 C 0.03738 0.16051 0.53745
 N142 N 0.01699 0.19448 0.50101
 H143 H -0.03413 0.35221 0.45914
 H144 H 0.07122 0.15198 0.61805
 C145 C 0.53271 -0.01002 -0.26767
 C146 C 0.57311 0.01199 -0.23272
 N147 N 0.61693 0.03133 -0.25082
 C148 C 0.62280 0.02904 -0.30219
 C149 C 0.58325 0.00535 -0.33775
 N150 N 0.53865 -0.01299 -0.31925
 N151 N 0.48838 -0.02823 -0.24927
 C152 C 0.48287 -0.02573 -0.19755
 C153 C 0.52382 -0.00456 -0.16227
 N154 N 0.56792 0.01387 -0.18115
 H155 H 0.65784 0.04656 -0.31486
 H156 H 0.44729 -0.04094 -0.18403
 C157 C 0.51601 -0.00276 0.25089
 C158 C 0.47373 -0.02437 0.21795
 N159 N 0.43142 -0.04396 0.23889
 C160 C 0.42885 -0.04187 0.29106
 C161 C 0.47022 -0.01817 0.32433
 N162 N 0.51326 0.00013 0.30309
 N163 N 0.55859 0.01625 0.22990
 C164 C 0.56066 0.01501 0.17751
 C165 C 0.51786 -0.00549 0.14410
 N166 N 0.47540 -0.02493 0.16550
 H167 H 0.39457 -0.05834 0.30620
 H168 H 0.59507 0.03077 0.16204
 C169 C 0.55009 -0.25970 -0.00922
 C170 C 0.50078 -0.24135 -0.01407
 N171 N 0.45913 -0.27576 -0.01894
 C172 C 0.46435 -0.32781 -0.01897
 C173 C 0.51414 -0.34717 -0.01385
 N174 N 0.55544 -0.31154 -0.00923
 N175 N 0.59197 -0.22548 -0.00391
 C176 C 0.58668 -0.17352 -0.00320
 C177 C 0.53715 -0.15473 -0.00801
 N178 N 0.49530 -0.18944 -0.01343
 H179 H 0.42951 -0.35271 -0.02227
 H180 H 0.62082 -0.14725 0.00102
 C181 C 0.48103 0.25072 -0.00961
 C182 C 0.44044 0.21457 -0.02652
 N183 N 0.39286 0.23124 -0.04166
 C184 C 0.38367 0.28228 -0.03975
 C185 C 0.42383 0.31881 -0.02106
 N186 N 0.47182 0.30170 -0.00706
 N187 N 0.52881 0.23410 0.00490
 C188 C 0.53776 0.18291 0.00363
 C189 C 0.49693 0.14629 -0.01231
 N190 N 0.44914 0.16333 -0.02720
 H191 H 0.34536 0.29389 -0.05301
 H192 H 0.57621 0.17090 0.01578
 C193 C -0.21265 0.00192 0.55243
 C194 C -0.20103 0.00817 0.50122
 N195 N -0.23970 0.01319 0.46188
 C196 C -0.28971 0.01236 0.47124
 C197 C -0.30216 0.00655 0.52306
 N198 N -0.26235 0.00143 0.56191
 N199 N -0.17410 -0.00346 0.59197
 C200 C -0.12416 -0.00263 0.58248
 C201 C -0.11221 0.00419 0.53107
 N202 N -0.15121 0.00938 0.49163
 H203 H -0.31826 0.01659 0.43800
 H204 H -0.09419 -0.00674 0.61478
 C205 C 0.27309 0.02991 0.43985
 C206 C 0.26218 0.01584 0.49025
 N207 N 0.30081 0.00219 0.52676
 C208 C 0.34993 0.00161 0.51512
 C209 C 0.36116 0.01518 0.46435
 N210 N 0.32201 0.02907 0.42809
 N211 N 0.23433 0.04264 0.40300
 C212 C 0.18494 0.04150 0.41417
 C213 C 0.17369 0.02667 0.46449
 N214 N 0.21287 0.01445 0.50142
 H215 H 0.37925 -0.01127 0.54482
 H216 H 0.15477 0.05152 0.38388
 C217 C -0.02256 0.56210 1.25953
 C218 C -0.04229 0.51291 1.24248
 N219 N -0.06359 0.47946 1.27604
 C220 C -0.06480 0.49230 1.32652
 C221 C -0.04304 0.54118 1.34484
 N222 N -0.02347 0.57489 1.30983
 N223 N -0.00148 0.59585 1.22595
 C224 C 0.00073 0.58245 1.17580
 C225 C -0.01875 0.53292 1.15868
 N226 N -0.03998 0.49938 1.19256
 H227 H -0.08332 0.46443 1.35098
 H228 H 0.01748 0.61020 1.14969
 C229 C -0.04335 0.43948 0.75992
 C230 C -0.03018 0.48942 0.77931
 N231 N -0.01730 0.52850 0.74668
 C232 C -0.01681 0.52001 0.69518
 C233 C -0.02986 0.46992 0.67522
 N234 N -0.04275 0.43083 0.70844
 N235 N -0.05523 0.40025 0.79312
 C236 C -0.05413 0.40879 0.84506
 C237 C -0.04032 0.45881 0.86446
 N238 N -0.02894 0.49782 0.83085
 H239 H -0.00458 0.55182 0.67078
 H240 H -0.06337 0.37688 0.87083
   
