data_POSCAR
  _audit_creation_date              2014-09-24
  _audit_creation_method            'ToBaCCo'
  _symmetry_space_group_name_H-M    'P1'
  _symmetry_Int_Tables_number       1
  _symmetry_cell_setting            triclinic
  loop_
  _symmetry_equiv_pos_as_xyz
 x,y,z
_cell_length_a 23.5967
_cell_length_b 23.4725
_cell_length_c 30.5197
_cell_angle_alpha 90.140100
_cell_angle_beta 89.983900
_cell_angle_gamma 124.738600
loop_
  _atom_site_label
  _atom_site_type_symbol
  _atom_site_fract_x
  _atom_site_fract_y
  _atom_site_fract_z
C1 C 0.03748 0.51428 1.29000
 C2 C -0.02786 0.50482 1.29000
 C3 C -0.05799 0.50287 1.24966
 C4 C -0.02790 0.50483 1.20924
 C5 C 0.03732 0.51446 1.20973
 C6 C 0.06770 0.51696 1.24977
 H7 H 0.11915 0.52836 1.24945
 H8 H -0.10924 0.49189 1.24985
 C9 C 0.47517 0.50856 1.28746
 C10 C 0.51681 0.48246 1.28673
 C11 C 0.53298 0.46585 1.24653
 C12 C 0.51207 0.47793 1.20688
 C13 C 0.47584 0.50906 1.20714
 C14 C 0.45587 0.52194 1.24710
 H15 H 0.42758 0.54560 1.24653
 H16 H 0.56201 0.44297 1.24609
 C17 C 0.50829 0.97081 1.28875
 C18 C 0.51903 1.03747 1.28911
 C19 C 0.52516 1.06992 1.24887
 C20 C 0.52205 1.03919 1.20896
 C21 C 0.51008 0.97320 1.20846
 C22 C 0.50549 0.94073 1.24800
 H23 H 0.49367 0.88885 1.24664
 H24 H 0.53810 1.12222 1.24850
 C25 C 1.04211 0.52308 0.78971
 C26 C 0.97374 0.50395 0.78939
 C27 C 0.94123 0.49624 0.74938
 C28 C 0.97530 0.50627 0.70937
 C29 C 1.04465 0.52566 0.70950
 C30 C 1.07650 0.53315 0.75018
 H31 H 1.13034 0.55209 0.75152
 H32 H 0.88768 0.47879 0.74944
 C33 C 0.47613 0.50769 0.78881
 C34 C 0.51565 0.47967 0.78855
 C35 C 0.53319 0.46454 0.74838
 C36 C 0.51398 0.47877 0.70864
 C37 C 0.47771 0.51006 0.70896
 C38 C 0.45794 0.52295 0.74898
 H39 H 0.42884 0.54572 0.74917
 H40 H 0.56190 0.44133 0.74803
 C41 C 0.50397 -0.03084 0.78587
 C42 C 0.51844 0.03694 0.78553
 C43 C 0.52215 0.06779 0.74538
 C44 C 0.51461 0.03492 0.70550
 C45 C 0.50192 -0.03180 0.70498
 C46 C 0.49874 -0.06269 0.74528
 H47 H 0.48424 -0.11542 0.74483
 H48 H 0.53583 0.12044 0.74497
 O49 O 0.44100 0.64670 0.96034
 O50 O 0.44944 0.76109 0.94572
 C51 C 0.42232 0.79381 0.93863
 O52 O 0.37416 0.78648 0.96221
 O53 O 0.25450 0.66991 0.94931
 C54 C 0.21690 0.60533 0.94182
 O55 O 0.22137 0.56180 0.96354
 O56 O 0.33041 0.56299 0.94789
 C57 C 0.39386 0.59371 0.93921
 O58 O 0.44347 0.66969 1.04715
 O59 O 0.45867 0.78666 1.03320
 C60 C 0.41947 0.79600 1.05604
 O61 O 0.35545 0.76407 1.04893
 O62 O 0.23332 0.65121 1.03618
 C63 C 0.22047 0.59969 1.05877
 O64 O 0.24691 0.56664 1.05051
 O65 O 0.35277 0.56163 1.03451
 C66 C 0.40708 0.60555 1.05583
 Cr67 Cr 0.44457 0.71428 0.99659
 Cr68 Cr 0.30591 0.71603 0.99911
 Cr69 Cr 0.28994 0.56693 0.99910
 O70 O 0.34680 0.66571 0.99820
 O71 O 0.56474 0.35104 0.96076
 O72 O 0.56918 0.24380 0.94633
 C73 C 0.60194 0.21696 0.93843
 O74 O 0.65193 0.22860 0.96208
 O75 O 0.76537 0.35077 0.94940
 C76 C 0.79724 0.41490 0.94151
 O77 O 0.78809 0.45517 0.96354
 O78 O 0.67266 0.44119 0.94847
 C79 C 0.60895 0.40534 0.93950
 O80 O 0.56498 0.33008 1.04779
 O81 O 0.56272 0.21932 1.03376
 C82 C 0.60556 0.21495 1.05628
 O83 O 0.66984 0.25211 1.04911
 O84 O 0.78670 0.37154 1.03631
 C85 C 0.79478 0.42133 1.05888
 O86 O 0.76238 0.44844 1.05087
 O87 O 0.64949 0.44074 1.03521
 C88 C 0.59650 0.39411 1.05635
 Cr89 Cr 0.56901 0.28803 0.99719
 Cr90 Cr 0.71655 0.30232 0.99925
 Cr91 Cr 0.71635 0.44273 0.99955
 O92 O 0.66728 0.34438 0.99873
 O93 O 0.65220 0.44413 0.53622
 O94 O 0.76386 0.44807 0.54993
 C95 C 0.79438 0.41872 0.55704
 O96 O 0.78472 0.36904 0.53366
 O97 O 0.66656 0.25113 0.54661
 C98 C 0.60250 0.21642 0.55451
 O99 O 0.56037 0.22218 0.53234
 O100 O 0.56577 0.33376 0.54735
 C101 C 0.59862 0.39750 0.55689
 O102 O 0.67355 0.44569 0.44904
 O103 O 0.78713 0.45568 0.46228
 C104 C 0.79445 0.41485 0.43943
 O105 O 0.76200 0.35049 0.44688
 O106 O 0.64708 0.22925 0.45991
 C107 C 0.59638 0.21793 0.43734
 O108 O 0.56608 0.24725 0.44517
 O109 O 0.56525 0.35579 0.46064
 C110 C 0.61006 0.40971 0.43947
 Cr111 Cr 0.71734 0.44476 0.49940
 Cr112 Cr 0.71333 0.30170 0.49677
 Cr113 Cr 0.56805 0.29176 0.49639
 O114 O 0.66623 0.34614 0.49759
 O115 O 0.34821 0.55619 0.53542
 O116 O 0.24311 0.56284 0.54922
 C117 C 0.21704 0.59649 0.55663
 O118 O 0.22988 0.64725 0.53321
 O119 O 0.35245 0.76090 0.54599
 C120 C 0.41602 0.79131 0.55446
 O121 O 0.45539 0.78039 0.53316
 O122 O 0.44047 0.66352 0.54715
 C123 C 0.40303 0.59959 0.55640
 O124 O 0.32845 0.55681 0.44816
 O125 O 0.21992 0.55631 0.46166
 C126 C 0.21621 0.59930 0.43884
 O127 O 0.25245 0.66388 0.44628
 O128 O 0.37205 0.78051 0.45924
 C129 C 0.42162 0.78843 0.43705
 O130 O 0.44870 0.75605 0.44542
 O131 O 0.43908 0.64121 0.46011
 C132 C 0.39182 0.58846 0.43888
 Cr133 Cr 0.28702 0.56173 0.49862
 Cr134 Cr 0.30330 0.71115 0.49622
 Cr135 Cr 0.44219 0.70854 0.49644
 O136 O 0.34425 0.66050 0.49715
 C137 C 0.49596 0.55280 0.36343
 C138 C 0.45275 0.52195 0.32673
 C139 C 0.38502 0.50510 0.33046
 C140 C 0.36413 0.52351 0.36794
 C141 C 0.41109 0.56177 0.40213
 C142 C 0.47594 0.57298 0.39983
 C143 C 0.54605 0.63809 0.40577
 C144 C 0.56818 0.61629 0.36605
 H145 H 0.34804 0.47806 0.30420
 H146 H 0.31244 0.51134 0.36889
 H147 H 0.57076 0.63788 0.43671
 H148 H 0.54720 0.68554 0.40010
 H149 H 0.60601 0.60416 0.37439
 H150 H 0.58226 0.65105 0.33736
 C151 C 0.45240 0.93011 0.36078
 C152 C 0.49329 0.93063 0.32719
 C153 C 0.51695 0.88757 0.33318
 C154 C 0.49627 0.84328 0.36979
 C155 C 0.44974 0.83922 0.40081
 C156 C 0.43132 0.88597 0.39634
 C157 C 0.36208 0.87416 0.39736
 C158 C 0.38532 0.92275 0.35839
 H159 H 0.55114 0.88766 0.30946
 H160 H 0.51414 0.80997 0.37259
 H161 H 0.35440 0.89551 0.42757
 H162 H 0.31947 0.81974 0.38936
 H163 H 0.39098 0.97200 0.36629
 H164 H 0.35627 0.89661 0.32779
 C165 C 0.07842 0.57219 0.36151
 C166 C 0.07667 0.52909 0.32875
 C167 C 0.11674 0.50252 0.33604
 C168 C 0.15973 0.52263 0.37319
 C169 C 0.16617 0.57223 0.40274
 C170 C 0.12231 0.59365 0.39717
 C171 C 0.13689 0.66440 0.39693
 C172 C 0.08846 0.64084 0.35783
 H173 H 0.11521 0.46651 0.31299
 H174 H 0.19093 0.50263 0.37736
 H175 H 0.19140 0.70557 0.38866
 H176 H 0.11672 0.67450 0.42670
 H177 H 0.11484 0.66834 0.32695
 H178 H 0.04042 0.63732 0.36517
 C179 C 0.49613 0.41871 0.35740
 C180 C 0.54111 0.46742 0.32669
 C181 C 0.61229 0.49977 0.33461
 C182 C 0.63524 0.48267 0.37205
 C183 C 0.58744 0.43162 0.40207
 C184 C 0.51805 0.40166 0.39297
 C185 C 0.44671 0.34621 0.40705
 C186 C 0.42192 0.36557 0.36664
 H187 H 0.65001 0.53802 0.31184
 H188 H 0.69012 0.50814 0.37674
 H189 H 0.43288 0.35868 0.43875
 H190 H 0.43623 0.29373 0.40480
 H191 H 0.39359 0.38903 0.37505
 H192 H 0.39735 0.32428 0.34118
 C193 C 0.57070 0.07670 0.36238
 C194 C 0.53082 0.07580 0.32796
 C195 C 0.50532 0.11734 0.33321
 C196 C 0.52404 0.16143 0.36975
 C197 C 0.57039 0.16680 0.40140
 C198 C 0.59000 0.12087 0.39793
 C199 C 0.65961 0.13369 0.40034
 C200 C 0.63828 0.08500 0.36139
 H201 H 0.47160 0.11655 0.30878
 H202 H 0.50507 0.19388 0.37188
 H203 H 0.66662 0.11278 0.43094
 H204 H 0.70201 0.18825 0.39270
 H205 H 0.63292 0.03605 0.36966
 H206 H 0.66827 0.11123 0.33116
 C207 C 0.93210 0.44567 0.36084
 C208 C 0.93297 0.48901 0.32883
 C209 C 0.89234 0.51473 0.33711
 C210 C 0.84983 0.49366 0.37456
 C211 C 0.84455 0.44403 0.40340
 C212 C 0.88885 0.42338 0.39673
 C213 C 0.87514 0.35297 0.39550
 C214 C 0.92293 0.37752 0.35611
 H215 H 0.89308 0.55078 0.31463
 H216 H 0.81803 0.51285 0.37945
 H217 H 0.82067 0.31144 0.38729
 H218 H 0.89611 0.34286 0.42480
 H219 H 0.89621 0.35026 0.32516
 H220 H 0.97140 0.38156 0.36282
 C221 C 0.57763 0.50569 1.13662
 C222 C 0.52786 0.45682 1.16567
 C223 C 0.49252 0.38629 1.15441
 C224 C 0.51267 0.36570 1.11758
 C225 C 0.56928 0.41537 1.09169
 C226 C 0.59818 0.48547 1.10064
 C227 C 0.67180 0.54506 1.10605
 C228 C 0.64904 0.56720 1.14539
 H229 H 0.45142 0.34709 1.17515
 H230 H 0.48630 0.31085 1.11092
 H231 H 0.69014 0.58201 1.07825
 H232 H 0.70593 0.52831 1.11488
 H233 H 0.65397 0.61669 1.14015
 H234 H 0.66998 0.56338 1.17705
 C235 C 0.93805 0.45564 1.13478
 C236 C 0.93489 0.49282 1.16975
 C237 C 0.89047 0.51479 1.16414
 C238 C 0.84718 0.49449 1.12710
 C239 C 0.84555 0.45006 1.09514
 C240 C 0.89439 0.43448 1.09885
 C241 C 0.88564 0.36644 1.09591
 C242 C 0.93343 0.38938 1.13519
 H243 H 0.88822 0.54695 1.18859
 H244 H 0.81239 0.51053 1.12485
 H245 H 0.90834 0.36167 1.06537
 H246 H 0.83200 0.32175 1.10302
 H247 H 0.98328 0.39722 1.12702
 H248 H 0.90766 0.35803 1.16509
 C249 C 0.49647 0.09554 1.14915
 C250 C 0.53996 0.07969 1.16804
 C251 C 0.59999 0.09881 1.14493
 C252 C 0.62001 0.14057 1.10737
 C253 C 0.57974 0.16320 1.09168
 C254 C 0.51571 0.13590 1.11161
 C255 C 0.48320 0.17123 1.12723
 C256 C 0.46205 0.12697 1.16833
 H257 H 0.63315 0.08427 1.15718
 H258 H 0.66843 0.15749 1.09180
 H259 H 0.43867 0.15849 1.10650
 H260 H 0.52167 0.22747 1.13356
 H261 H 0.40534 0.08868 1.17117
 H262 H 0.48795 0.15800 1.19836
 C263 C 0.42005 0.48767 1.13336
 C264 C 0.46315 0.53352 1.16631
 C265 C 0.49690 0.60496 1.15886
 C266 C 0.48094 0.62868 1.12176
 C267 C 0.43016 0.58122 1.09167
 C268 C 0.40354 0.51090 1.09702
 C269 C 0.33104 0.44794 1.09629
 C270 C 0.34929 0.42266 1.13620
 H271 H 0.53347 0.64223 1.18263
 H272 H 0.50547 0.68389 1.11813
 H273 H 0.32012 0.41564 1.06661
 H274 H 0.29268 0.45991 1.10330
 H275 H 0.34892 0.37588 1.12947
 H276 H 0.32168 0.42019 1.16645
 C277 C 0.11584 0.50445 1.15924
 C278 C 0.08078 0.53427 1.16990
 C279 C 0.09274 0.58825 1.14196
 C280 C 0.13746 0.60923 1.10535
 C281 C 0.17201 0.57720 1.09579
 C282 C 0.15845 0.52435 1.12407
 C283 C 0.17740 0.47516 1.13405
 C284 C 0.12874 0.45226 1.17374
 H285 H 0.06849 0.61497 1.14876
 H286 H 0.14547 0.65098 1.08504
 H287 H 0.23258 0.50254 1.14337
 H288 H 0.15894 0.43440 1.10849
 H289 H 0.15610 0.46589 1.20571
 H290 H 0.08189 0.39835 1.17103
 C291 C 0.44203 0.92544 1.13974
 C292 C 0.49447 0.93476 1.16674
 C293 C 0.53043 0.90640 1.15275
 C294 C 0.50870 0.86391 1.11497
 C295 C 0.44965 0.84785 1.09153
 C296 C 0.41973 0.88268 1.10345
 C297 C 0.34620 0.85689 1.11113
 C298 C 0.37105 0.90437 1.15096
 H299 H 0.57324 0.91480 1.17186
 H300 H 0.53506 0.84003 1.10597
 H301 H 0.31304 0.80093 1.11977
 H302 H 0.32572 0.87290 1.08467
 H303 H 0.35240 0.87600 1.18257
 H304 H 0.36519 0.94787 1.14732
 C305 C 0.57311 0.50610 0.63568
 C306 C 0.52962 0.45767 0.66733
 C307 C 0.50043 0.38724 0.65868
 C308 C 0.52085 0.36737 0.62170
 C309 C 0.57175 0.41776 0.59295
 C310 C 0.59399 0.48670 0.59945
 C311 C 0.66491 0.55204 0.60086
 C312 C 0.64189 0.57318 0.64060
 H313 H 0.46412 0.34790 0.68151
 H314 H 0.49960 0.31293 0.61713
 H315 H 0.67585 0.58520 0.57175
 H316 H 0.70504 0.54279 0.60856
 H317 H 0.63957 0.61843 0.63432
 H318 H 0.66855 0.57601 0.67141
 C319 C 0.58706 0.09244 0.63903
 C320 C 0.53182 0.07672 0.66532
 C321 C 0.49615 0.10634 0.65282
 C322 C 0.51710 0.14991 0.61544
 C323 C 0.57564 0.16667 0.59080
 C324 C 0.60830 0.13563 0.60416
 C325 C 0.67076 0.13573 0.59691
 C326 C 0.64677 0.08691 0.63670
 H327 H 0.45271 0.09622 0.67198
 H328 H 0.48932 0.17246 0.60699
 H329 H 0.71927 0.18752 0.60299
 H330 H 0.66847 0.11066 0.56539
 H331 H 0.68139 0.11084 0.66559
 H332 H 0.63094 0.03368 0.62819
 C333 C 0.89484 0.51302 0.65918
 C334 C 0.93359 0.48689 0.66880
 C335 C 0.92745 0.43748 0.63881
 C336 C 0.88327 0.41604 0.60178
 C337 C 0.84376 0.44324 0.59379
 C338 C 0.85281 0.49275 0.62363
 C339 C 0.82631 0.53481 0.63627
 C340 C 0.87433 0.55820 0.67640
 H341 H 0.95542 0.41427 0.64449
 H342 H 0.87924 0.37735 0.58005
 H343 H 0.77066 0.50183 0.64492
 H344 H 0.84157 0.57711 0.61255
 H345 H 0.84599 0.53918 0.70795
 H346 H 0.91771 0.61399 0.67581
 C347 C 0.50142 0.59944 0.65409
 C348 C 0.46108 0.53057 0.66792
 C349 C 0.40698 0.48152 0.64038
 C350 C 0.38893 0.50328 0.60302
 C351 C 0.42520 0.57446 0.59247
 C352 C 0.48403 0.62082 0.61734
 C353 C 0.50683 0.68840 0.63810
 C354 C 0.52619 0.66492 0.67837
 H355 H 0.37682 0.42705 0.64887
 H356 H 0.34492 0.46480 0.58365
 H357 H 0.46327 0.69334 0.64393
 H358 H 0.55220 0.73306 0.62118
 H359 H 0.49417 0.65689 0.70750
 H360 H 0.58269 0.69584 0.68445
 C361 C 0.44882 0.93271 0.63194
 C362 C 0.48845 0.93070 0.66545
 C363 C 0.51263 0.88839 0.65810
 C364 C 0.49310 0.84650 0.62023
 C365 C 0.44590 0.84287 0.59012
 C366 C 0.42721 0.88916 0.59580
 C367 C 0.35796 0.87710 0.59513
 C368 C 0.38132 0.92471 0.63472
 H369 H 0.54618 0.88716 0.68170
 H370 H 0.51121 0.81364 0.61605
 H371 H 0.31533 0.82259 0.60268
 H372 H 0.35021 0.89912 0.56537
 H373 H 0.35234 0.89783 0.66512
 H374 H 0.38619 0.97368 0.62758
 C375 C 0.13197 0.52454 0.66592
 C376 C 0.08407 0.54131 0.67084
 C377 C 0.08084 0.57837 0.63518
 C378 C 0.12353 0.59612 0.59770
 C379 C 0.16990 0.57627 0.59413
 C380 C 0.17081 0.53936 0.62928
 C381 C 0.20411 0.50547 0.64548
 C382 C 0.15967 0.48761 0.68683
 H383 H 0.04800 0.59676 0.63685
 H384 H 0.12041 0.62566 0.57179
 H385 H 0.26027 0.54337 0.65144
 H386 H 0.18980 0.45937 0.62555
 H387 H 0.19097 0.51433 0.71659
 H388 H 0.11947 0.43121 0.69062
 C389 C 0.50222 0.56787 0.86138
 C390 C 0.45418 0.52255 0.83006
 C391 C 0.38389 0.49170 0.83894
 C392 C 0.36376 0.51242 0.87572
 C393 C 0.41373 0.56535 0.90384
 C394 C 0.48259 0.58886 0.89733
 C395 C 0.54695 0.66059 0.89561
 C396 C 0.56831 0.63734 0.85609
 H397 H 0.34483 0.45388 0.81647
 H398 H 0.30945 0.48970 0.88061
 H399 H 0.58034 0.67271 0.92473
 H400 H 0.53676 0.70009 0.88760
 H401 H 0.61385 0.63591 0.86251
 H402 H 0.57032 0.66324 0.82509
 C403 C 0.09651 0.49622 0.84945
 C404 C 0.08053 0.54003 0.83121
 C405 C 0.09932 0.60003 0.85475
 C406 C 0.14147 0.62004 0.89211
 C407 C 0.16461 0.57970 0.90696
 C408 C 0.13728 0.51544 0.88669
 C409 C 0.17261 0.48342 0.87011
 C410 C 0.12764 0.46209 0.82937
 H411 H 0.08465 0.63333 0.84282
 H412 H 0.15849 0.66858 0.90807
 H413 H 0.16088 0.43868 0.89041
 H414 H 0.22828 0.52258 0.86346
 H415 H 0.08973 0.40506 0.82635
 H416 H 0.15761 0.48841 0.79920
 C417 C 0.50388 0.88157 0.83102
 C418 C 0.48821 0.93034 0.82495
 C419 C 0.45013 0.93411 0.85967
 C420 C 0.42964 0.89077 0.89702
 C421 C 0.44720 0.84260 0.90153
 C422 C 0.48602 0.84169 0.86762
 C423 C 0.51866 0.80657 0.85255
 C424 C 0.53985 0.85193 0.81132
 H425 H 0.43234 0.96741 0.85721
 H426 H 0.39907 0.89435 0.92190
 H427 H 0.48002 0.75044 0.84606
 H428 H 0.56301 0.81946 0.87353
 H429 H 0.51436 0.82090 0.78122
 H430 H 0.59642 0.89110 0.80862
 C431 C 0.49428 0.42381 0.86251
 C432 C 0.54000 0.46658 0.82950
 C433 C 0.61081 0.49765 0.83660
 C434 C 0.63353 0.47973 0.87335
 C435 C 0.58574 0.42949 0.90350
 C436 C 0.51648 0.40557 0.89853
 C437 C 0.45203 0.33389 0.89929
 C438 C 0.42782 0.35407 0.85975
 H439 H 0.64829 0.53364 0.81284
 H440 H 0.68814 0.50240 0.87671
 H441 H 0.42086 0.32424 0.92919
 H442 H 0.46156 0.29370 0.89186
 H443 H 0.38286 0.35617 0.86694
 H444 H 0.42341 0.32563 0.82932
 C445 C 0.92562 0.43545 0.85809
 C446 C 0.93455 0.48751 0.83067
 C447 C 0.90636 0.52387 0.84422
 C448 C 0.86435 0.50286 0.88195
 C449 C 0.84857 0.44409 0.90591
 C450 C 0.88315 0.41373 0.89437
 C451 C 0.85741 0.33967 0.88717
 C452 C 0.90449 0.36384 0.84740
 H453 H 0.91471 0.56660 0.82483
 H454 H 0.84072 0.52962 0.89057
 H455 H 0.80170 0.30624 0.87851
 H456 H 0.87340 0.31958 0.91391
 H457 H 0.87614 0.34448 0.81578
 H458 H 0.94777 0.35801 0.85134
 C459 C 0.51704 0.12454 0.83184
 C460 C 0.54010 0.08193 0.82514
 C461 C 0.59119 0.09048 0.85400
 C462 C 0.61195 0.13465 0.89084
 C463 C 0.58205 0.17127 0.89964
 C464 C 0.53700 0.16750 0.86809
 C465 C 0.46734 0.15401 0.87263
 C466 C 0.44560 0.10710 0.83265
 H467 H 0.61427 0.06231 0.84845
 H468 H 0.65001 0.13865 0.91289
 H469 H 0.46850 0.20123 0.86637
 H470 H 0.44062 0.12568 0.90323
 H471 H 0.43460 0.12764 0.80351
 H472 H 0.40594 0.05159 0.83995
   
