data_POSCAR
  _audit_creation_date              2014-09-24
  _audit_creation_method            'ToBaCCo'
  _symmetry_space_group_name_H-M    'P1'
  _symmetry_Int_Tables_number       1
  _symmetry_cell_setting            triclinic
  loop_
  _symmetry_equiv_pos_as_xyz
 x,y,z
_cell_length_a 39.3853
_cell_length_b 39.4256
_cell_length_c 52.2954
_cell_angle_alpha 90.272100
_cell_angle_beta 89.343400
_cell_angle_gamma 89.771000
loop_
  _atom_site_label
  _atom_site_type_symbol
  _atom_site_fract_x
  _atom_site_fract_y
  _atom_site_fract_z
C1 C 0.00174 0.50145 0.98643
 C2 C 0.00210 0.50194 1.01246
 C3 C 0.00081 0.53423 1.02715
 C4 C 0.00390 0.47020 1.02755
 C5 C -0.00034 0.46914 0.97190
 C6 C 0.00314 0.53314 0.97124
 C7 C 0.02664 0.54194 1.04428
 C8 C 0.02627 0.57254 1.05781
 C9 C -0.00038 0.59655 1.05493
 C10 C -0.02677 0.58772 1.03788
 C11 C -0.02609 0.55713 1.02427
 C12 C 0.03071 0.44707 1.02386
 C13 C 0.03203 0.41720 1.03810
 C14 C 0.00664 0.40998 1.05640
 C15 C -0.01996 0.43346 1.06021
 C16 C -0.02119 0.46334 1.04601
 C17 C -0.02782 0.44705 0.97554
 C18 C -0.02931 0.41648 0.96196
 C19 C -0.00328 0.40749 0.94457
 C20 C 0.02399 0.42986 0.94077
 C21 C 0.02530 0.46054 0.95418
 C22 C -0.02232 0.54002 0.95345
 C23 C -0.02187 0.57017 0.93955
 C24 C 0.00425 0.59391 0.94301
 C25 C 0.03019 0.58657 0.96042
 C26 C 0.02969 0.55641 0.97435
 H27 H 0.04736 0.52423 1.04708
 H28 H 0.04639 0.57603 1.07142
 H29 H -0.04737 0.60485 1.03360
 H30 H -0.04646 0.55145 1.01120
 H31 H 0.05068 0.45226 1.01003
 H32 H 0.05318 0.39997 1.03503
 H33 H -0.04204 0.48094 1.04915
 H34 H -0.04804 0.45350 0.98893
 H35 H -0.05052 0.39963 0.96532
 H36 H 0.04414 0.42373 0.92724
 H37 H 0.04657 0.47740 0.95103
 H38 H -0.04285 0.52224 0.95063
 H39 H -0.04187 0.57484 0.92596
 H40 H 0.05054 0.60444 0.96360
 H41 H 0.04988 0.55129 0.98769
 H42 H -0.04014 0.42849 1.07389
 C43 C 0.49921 -0.00475 0.48624
 C44 C 0.49895 -0.00477 0.51230
 C45 C 0.46677 -0.00653 0.52732
 C46 C 0.53083 -0.00283 0.52711
 C47 C 0.53139 -0.00647 0.47119
 C48 C 0.46730 -0.00284 0.47146
 C49 C 0.45961 0.01817 0.54601
 C50 C 0.42943 0.01694 0.56023
 C51 C 0.40589 -0.00921 0.55618
 C52 C 0.41332 -0.03419 0.53763
 C53 C 0.44357 -0.03295 0.52343
 C54 C 0.55367 0.02402 0.52354
 C55 C 0.58353 0.02558 0.53768
 C56 C 0.59099 0.00042 0.55579
 C57 C 0.56785 -0.02625 0.55944
 C58 C 0.53800 -0.02774 0.54534
 C59 C 0.55487 -0.03285 0.47489
 C60 C 0.58508 -0.03408 0.46063
 C61 C 0.59222 -0.00915 0.44220
 C62 C 0.56842 0.01697 0.43835
 C63 C 0.53826 0.01819 0.45263
 C64 C 0.46028 -0.02781 0.45312
 C65 C 0.43034 -0.02641 0.43912
 C66 C 0.40695 0.00024 0.44299
 C67 C 0.41428 0.02547 0.46120
 C68 C 0.44423 0.02399 0.47524
 H69 H 0.47724 0.03871 0.54933
 H70 H 0.42427 0.03678 0.57414
 H71 H 0.39597 -0.05496 0.53437
 H72 H 0.44896 -0.05267 0.50946
 H73 H 0.54825 0.04385 0.50991
 H74 H 0.60052 0.04676 0.53473
 H75 H 0.52064 -0.04861 0.54839
 H76 H 0.54970 -0.05254 0.48875
 H77 H 0.60264 -0.05482 0.46373
 H78 H 0.57334 0.03677 0.42454
 H79 H 0.52043 0.03869 0.44945
 H80 H 0.47782 -0.04868 0.44991
 H81 H 0.42527 -0.04648 0.42550
 H82 H 0.39710 0.04663 0.46432
 H83 H 0.44953 0.04387 0.48898
 H84 H 0.57303 -0.04627 0.57297
 C85 C 0.07209 0.00678 0.25752
 H86 H 0.07315 0.00908 0.23692
 C87 C 0.10199 0.00743 0.27156
 H88 H 0.12599 0.01059 0.26157
 C89 C 0.03921 0.00092 0.29546
 H90 H 0.01469 -0.00129 0.30472
 C91 C 0.06853 0.00132 0.31026
 H92 H 0.06619 -0.00128 0.33080
 N93 N 0.04155 0.00314 0.26955
 C94 C -0.02387 -0.04228 0.21213
 H95 H -0.04423 -0.02381 0.21148
 C96 C -0.02508 -0.07132 0.19676
 H97 H -0.04626 -0.07469 0.18399
 C98 C 0.02853 -0.06002 0.22952
 H99 H 0.04906 -0.05589 0.24266
 C100 C 0.02825 -0.08946 0.21460
 H101 H 0.04868 -0.10768 0.21654
 Zn102 Zn 0.00264 0.00250 0.24863
 N103 N 0.00289 -0.03695 0.22783
 C104 C 0.00306 0.04065 0.20239
 N105 N 0.00395 0.04218 0.22836
 C106 C 0.00686 0.07233 0.24085
 C107 C 0.00813 0.10264 0.22720
 C108 C 0.00412 0.07037 0.18797
 C109 C -0.04355 -0.02605 0.28351
 C110 C -0.07338 -0.02840 0.29808
 C111 C -0.09090 0.02597 0.28155
 C112 C -0.06070 0.02733 0.26738
 N113 N -0.03763 0.00166 0.26874
 H114 H 0.00149 0.01645 0.19274
 H115 H 0.00815 0.07276 0.26150
 H116 H 0.01073 0.12632 0.23754
 H117 H 0.00259 0.06863 0.16735
 H118 H -0.02508 -0.04643 0.28383
 H119 H -0.07779 -0.05079 0.30953
 H120 H -0.10878 0.04683 0.28042
 H121 H -0.05594 0.04879 0.25513
 C122 C 0.00128 -0.09538 0.19783
 C123 C 0.10050 0.00442 0.29831
 C124 C -0.09757 -0.00218 0.29716
 C125 C 0.00654 0.10196 0.20037
 C126 C -0.01005 0.07003 0.75954
 H127 H -0.01243 0.07109 0.73896
 C128 C -0.01126 0.09989 0.77399
 H129 H -0.01424 0.12397 0.76439
 C130 C -0.00305 0.03725 0.79699
 H131 H -0.00039 0.01280 0.80595
 C132 C -0.00381 0.06651 0.81216
 H133 H -0.00167 0.06425 0.83271
 N134 N -0.00567 0.03956 0.77114
 C135 C 0.04167 -0.02744 0.71440
 H136 H 0.02357 -0.04801 0.71397
 C137 C 0.07144 -0.02947 0.69969
 H138 H 0.07616 -0.05178 0.68801
 C139 C 0.05802 0.02602 0.73098
 H140 H 0.05296 0.04740 0.74344
 C141 C 0.08814 0.02499 0.71667
 H142 H 0.10566 0.04601 0.71793
 Zn143 Zn -0.00454 0.00045 0.74997
 N144 N 0.03541 0.00011 0.72949
 C145 C -0.04167 -0.00042 0.70346
 N146 N -0.04377 0.00165 0.72940
 C147 C -0.07420 0.00553 0.74161
 C148 C -0.10422 0.00661 0.72772
 C149 C -0.07109 0.00041 0.68880
 C150 C 0.02362 -0.04573 0.78448
 C151 C 0.02541 -0.07503 0.79931
 C152 C -0.02955 -0.09144 0.78350
 C153 C -0.03029 -0.06182 0.76899
 N154 N -0.00412 -0.03947 0.76996
 H155 H -0.01724 -0.00284 0.69404
 H156 H -0.07509 0.00771 0.76224
 H157 H -0.12814 0.00995 0.73785
 H158 H -0.06892 -0.00208 0.66823
 H159 H 0.04433 -0.02778 0.78459
 H160 H 0.04742 -0.07922 0.81111
 H161 H -0.05050 -0.10905 0.78226
 H162 H -0.05170 -0.05693 0.75681
 C163 C 0.09520 -0.00305 0.70079
 C164 C -0.00788 0.09834 0.80065
 C165 C -0.00150 -0.09831 0.79901
 C166 C -0.10297 0.00378 0.70093
 C167 C -0.00070 -0.31031 0.09547
 C168 C -0.03084 -0.32343 0.08554
 C169 C -0.03082 -0.35409 0.07198
 C170 C -0.00054 -0.37314 0.06803
 C171 C 0.02967 -0.35933 0.07824
 C172 C 0.02953 -0.32856 0.09157
 C173 C -0.00069 -0.27787 0.10996
 N174 N 0.02898 -0.26311 0.11676
 N175 N 0.02909 -0.23416 0.12998
 C176 C -0.00049 -0.21875 0.13703
 N177 N -0.03019 -0.23348 0.13021
 N178 N -0.03029 -0.26240 0.11692
 C179 C -0.00026 -0.18680 0.15210
 C180 C -0.03049 -0.17342 0.16264
 C181 C -0.03005 -0.14372 0.17735
 C182 C 0.00060 -0.12660 0.18177
 C183 C 0.03075 -0.13978 0.17095
 C184 C 0.03034 -0.16955 0.15637
 H185 H -0.05469 -0.31010 0.08835
 H186 H -0.05530 -0.36323 0.06598
 H187 H 0.05424 -0.37096 0.07505
 H188 H 0.05335 -0.31903 0.09877
 H189 H -0.05449 -0.18613 0.15983
 H190 H -0.05366 -0.13454 0.18569
 H191 H 0.05470 -0.12692 0.17359
 H192 H 0.05407 -0.17897 0.14839
 C193 C 0.00902 0.31737 0.10003
 C194 C 0.01886 0.31742 0.07409
 C195 C 0.01820 0.34744 0.05997
 C196 C 0.00783 0.37813 0.07147
 C197 C -0.00171 0.37812 0.09746
 C198 C -0.00120 0.34810 0.11154
 C199 C 0.00914 0.28547 0.11494
 N200 N -0.00413 0.28464 0.13902
 N201 N -0.00433 0.25596 0.15237
 C202 C 0.00880 0.22688 0.14226
 N203 N 0.02215 0.22772 0.11820
 N204 N 0.02228 0.25640 0.10482
 C205 C 0.00838 0.19494 0.15712
 C206 C 0.02534 0.16582 0.14792
 C207 C 0.02486 0.13573 0.16196
 C208 C 0.00728 0.13399 0.18547
 C209 C -0.00971 0.16310 0.19463
 C210 C -0.00909 0.19322 0.18067
 H211 H 0.02673 0.29419 0.06458
 H212 H 0.02525 0.34648 0.03991
 H213 H -0.00928 0.40141 0.10701
 H214 H -0.00872 0.34906 0.13151
 H215 H 0.03920 0.16628 0.12993
 H216 H 0.03864 0.11393 0.15453
 H217 H -0.02395 0.16251 0.21245
 H218 H -0.02260 0.21509 0.18827
 C219 C 0.31239 -0.01104 0.59993
 C220 C 0.34320 -0.00253 0.61162
 C221 C 0.37349 -0.00220 0.59747
 C222 C 0.37374 -0.01034 0.57128
 C223 C 0.34302 -0.01916 0.55961
 C224 C 0.31269 -0.01951 0.57377
 C225 C 0.28018 -0.01070 0.61491
 N226 N 0.25042 -0.01986 0.60401
 N227 N 0.22148 -0.01914 0.61745
 C228 C 0.22105 -0.00919 0.64237
 N229 N 0.25082 -0.00010 0.65326
 N230 N 0.27974 -0.00085 0.63984
 C231 C 0.18883 -0.00797 0.65732
 C232 C 0.18841 0.00405 0.68268
 C233 C 0.15807 0.00560 0.69673
 C234 C 0.12741 -0.00490 0.68581
 C235 C 0.12779 -0.01712 0.66052
 C236 C 0.15815 -0.01858 0.64641
 H237 H 0.34399 0.00395 0.63174
 H238 H 0.39682 0.00418 0.60711
 H239 H 0.34232 -0.02516 0.53940
 H240 H 0.28944 -0.02612 0.56413
 H241 H 0.21154 0.01235 0.69174
 H242 H 0.15868 0.01467 0.71630
 H243 H 0.10450 -0.02508 0.65151
 H244 H 0.15751 -0.02795 0.62693
 C245 C -0.31687 0.00386 0.59958
 C246 C -0.34765 -0.00628 0.61100
 C247 C -0.37751 -0.00713 0.59685
 C248 C -0.37731 0.00198 0.57090
 C249 C -0.34658 0.01230 0.55949
 C250 C -0.31671 0.01329 0.57367
 C251 C -0.28514 0.00432 0.61458
 N252 N -0.25594 0.01705 0.60450
 N253 N -0.22744 0.01723 0.61799
 C254 C -0.22691 0.00459 0.64211
 N255 N -0.25611 -0.00813 0.65217
 N256 N -0.28460 -0.00824 0.63871
 C257 C -0.19518 0.00452 0.65711
 C258 C -0.19391 -0.01195 0.68087
 C259 C -0.16403 -0.01221 0.69500
 C260 C -0.13471 0.00413 0.68581
 C261 C -0.13598 0.02066 0.66208
 C262 C -0.16584 0.02080 0.64787
 H263 H -0.34878 -0.01348 0.63094
 H264 H -0.40085 -0.01464 0.60633
 H265 H -0.34547 0.01905 0.53945
 H266 H -0.29343 0.02110 0.56423
 H267 H -0.21594 -0.02493 0.68851
 H268 H -0.16378 -0.02566 0.71300
 H269 H -0.11400 0.03390 0.65461
 H270 H -0.16596 0.03387 0.62971
 C271 C 0.00373 -0.31218 0.90107
 C272 C -0.02645 -0.32519 0.91169
 C273 C -0.02622 -0.35560 0.92530
 C274 C 0.00419 -0.37370 0.92865
 C275 C 0.03442 -0.36064 0.91819
 C276 C 0.03419 -0.33025 0.90451
 C277 C 0.00331 -0.28008 0.88638
 N278 N 0.03210 -0.26794 0.87524
 N279 N 0.03157 -0.23927 0.86187
 C280 C 0.00224 -0.22148 0.85907
 N281 N -0.02652 -0.23360 0.87026
 N282 N -0.02600 -0.26227 0.88361
 C283 C 0.00149 -0.18973 0.84398
 C284 C -0.02883 -0.17109 0.84168
 C285 C -0.02972 -0.14141 0.82721
 C286 C -0.00034 -0.12963 0.81467
 C287 C 0.03004 -0.14812 0.81708
 C288 C 0.03095 -0.17782 0.83157
 H289 H -0.05036 -0.31194 0.90950
 H290 H -0.04983 -0.36476 0.93345
 H291 H 0.05818 -0.37420 0.92024
 H292 H 0.05789 -0.32100 0.89657
 H293 H -0.05197 -0.17939 0.85106
 H294 H -0.05339 -0.12748 0.82605
 H295 H 0.05301 -0.13995 0.80740
 H296 H 0.05472 -0.19156 0.83287
 C297 C -0.00637 0.31297 0.90302
 C298 C 0.02372 0.32371 0.91473
 C299 C 0.02469 0.35439 0.92819
 C300 C -0.00447 0.37484 0.93044
 C301 C -0.03466 0.36400 0.91900
 C302 C -0.03556 0.33347 0.90531
 C303 C -0.00717 0.28074 0.88834
 N304 N -0.03383 0.27320 0.87310
 N305 N -0.03430 0.24444 0.85964
 C306 C -0.00818 0.22192 0.86092
 N307 N 0.01841 0.22940 0.87624
 N308 N 0.01894 0.25822 0.88962
 C309 C -0.00849 0.19007 0.84576
 C310 C 0.01543 0.16429 0.85034
 C311 C 0.01539 0.13441 0.83587
 C312 C -0.00834 0.12976 0.81633
 C313 C -0.03227 0.15547 0.81173
 C314 C -0.03246 0.18523 0.82637
 H315 H 0.04667 0.30857 0.91334
 H316 H 0.04819 0.36200 0.93706
 H317 H -0.05743 0.37943 0.92029
 H318 H -0.05916 0.32592 0.89657
 H319 H 0.03421 0.16716 0.86515
 H320 H 0.03432 0.11513 0.83966
 H321 H -0.05106 0.15240 0.79694
 H322 H -0.05121 0.20457 0.82231
 C323 C -0.31446 -0.01100 0.39821
 C324 C -0.34539 -0.00255 0.38665
 C325 C -0.37563 -0.00222 0.40087
 C326 C -0.37570 -0.01029 0.42701
 C327 C -0.34484 -0.01904 0.43856
 C328 C -0.31456 -0.01940 0.42432
 C329 C -0.28230 -0.01063 0.38316
 N330 N -0.25241 -0.01970 0.39395
 N331 N -0.22352 -0.01893 0.38046
 C332 C -0.22328 -0.00902 0.35561
 N333 N -0.25318 -0.00002 0.34482
 N334 N -0.28205 -0.00083 0.35830
 C335 C -0.19111 -0.00770 0.34061
 C336 C -0.19088 0.00431 0.31534
 C337 C -0.16058 0.00603 0.30128
 C338 C -0.12976 -0.00430 0.31211
 C339 C -0.12995 -0.01654 0.33730
 C340 C -0.16027 -0.01816 0.35142
 H341 H -0.34633 0.00388 0.36656
 H342 H -0.39905 0.00411 0.39132
 H343 H -0.34400 -0.02500 0.45873
 H344 H -0.29121 -0.02595 0.43387
 H345 H -0.21414 0.01250 0.30636
 H346 H -0.16132 0.01511 0.28178
 H347 H -0.10655 -0.02437 0.34625
 H348 H -0.15948 -0.02752 0.37084
 C349 C 0.31448 0.00339 0.39957
 C350 C 0.34529 -0.00676 0.38799
 C351 C 0.37524 -0.00754 0.40202
 C352 C 0.37514 0.00168 0.42801
 C353 C 0.34438 0.01199 0.43959
 C354 C 0.31440 0.01290 0.42552
 C355 C 0.28267 0.00381 0.38467
 N356 N 0.25343 0.01663 0.39490
 N357 N 0.22487 0.01683 0.38149
 C358 C 0.22431 0.00415 0.35729
 N359 N 0.25354 -0.00867 0.34708
 N360 N 0.28210 -0.00880 0.36047
 C361 C 0.19255 0.00420 0.34232
 C362 C 0.19133 -0.01224 0.31844
 C363 C 0.16148 -0.01224 0.30427
 C364 C 0.13214 0.00433 0.31355
 C365 C 0.13333 0.02075 0.33745
 C366 C 0.16317 0.02064 0.35169
 H367 H 0.34636 -0.01403 0.36800
 H368 H 0.39860 -0.01505 0.39240
 H369 H 0.34334 0.01881 0.45967
 H370 H 0.29112 0.02072 0.43509
 H371 H 0.21339 -0.02535 0.31070
 H372 H 0.16129 -0.02564 0.28615
 H373 H 0.11133 0.03415 0.34499
 H374 H 0.16325 0.03368 0.36996
   
