data_POSCAR
  _audit_creation_date              2014-09-24
  _audit_creation_method            'ToBaCCo'
  _symmetry_space_group_name_H-M    'P1'
  _symmetry_Int_Tables_number       1
  _symmetry_cell_setting            triclinic
  loop_
  _symmetry_equiv_pos_as_xyz
 x,y,z
_cell_length_a 17.7320
_cell_length_b 17.7120
_cell_length_c 17.7318
_cell_angle_alpha 90.188000
_cell_angle_beta 90.241300
_cell_angle_gamma 90.097200
loop_
  _atom_site_label
  _atom_site_type_symbol
  _atom_site_fract_x
  _atom_site_fract_y
  _atom_site_fract_z
O1 O 0.43101 1.05683 -0.56770
 O2 O 0.56687 1.04665 -0.41069
 O3 O 0.57733 1.05158 -0.55718
 O4 O 0.42056 1.04682 -0.42243
 O5 O 0.42318 0.92209 -0.42396
 O6 O 0.57003 0.92770 -0.57117
 O7 O 0.57181 0.92328 -0.42556
 O8 O 0.42437 0.93239 -0.57140
 Cu9 Cu 0.49909 1.06294 -0.48861
 Cu10 Cu 0.49676 0.91370 -0.49809
 C11 C 0.40441 0.99654 -0.59621
 C12 C 0.59554 0.98324 -0.39379
 C13 C 0.59967 0.99071 -0.58791
 C14 C 0.39547 0.98368 -0.39996
 O15 O -0.58149 1.42232 0.06148
 O16 O -0.42801 1.56073 0.06968
 O17 O -0.57338 1.56771 0.07303
 O18 O -0.43356 1.41502 0.06466
 O19 O -0.43347 1.42257 -0.05946
 O20 O -0.57683 1.57302 -0.05045
 O21 O -0.43030 1.56883 -0.05457
 O22 O -0.58055 1.42445 -0.06265
 Cu23 Cu -0.50429 1.49023 0.07958
 Cu24 Cu -0.50582 1.49756 -0.06931
 C25 C -0.60840 1.40036 -0.00139
 C26 C -0.40264 1.58820 0.00881
 C27 C -0.59824 1.59819 0.01338
 C28 C -0.40759 1.39458 0.00123
 O29 O -0.06896 0.42105 0.43079
 O30 O -0.07269 0.56335 0.58229
 O31 O -0.06989 0.56841 0.43425
 O32 O -0.06928 0.41801 0.57607
 O33 O 0.05496 0.41685 0.57501
 O34 O 0.05375 0.57653 0.44170
 O35 O 0.05107 0.56362 0.58773
 O36 O 0.05506 0.42968 0.42936
 Cu37 Cu -0.08273 0.49316 0.50530
 Cu38 Cu 0.06622 0.49724 0.50845
 C39 C -0.00564 0.39974 0.40543
 C40 C -0.01200 0.58584 0.61328
 C41 C -0.00857 0.59975 0.41498
 C42 C -0.00728 0.38968 0.59792
 O43 O -0.10804 0.98136 -0.18635
 O44 O -0.10026 1.00130 0.20068
 O45 O -0.19594 0.88919 0.01265
 O46 O -0.19898 1.09327 0.00488
 O47 O -0.10774 1.18623 0.00130
 O48 O -0.10237 0.79874 0.01273
 O49 O -0.19455 1.00090 0.11122
 O50 O -0.19897 0.98365 -0.09364
 Zr51 Zr -0.13585 0.99210 0.00776
 O52 O -0.07095 1.06384 0.07302
 O53 O -0.07175 0.92147 -0.05903
 C54 C -0.17742 0.97924 -0.16349
 C55 C -0.17058 1.00423 0.18058
 C56 C -0.17250 0.81979 0.01461
 C57 C -0.17729 1.16322 0.00151
 H58 H -0.09981 0.89669 0.11065
 O59 O -0.06850 0.92749 0.07665
 H60 H -0.10610 1.08798 -0.09678
 O61 O -0.07296 1.05790 -0.06356
 O62 O 0.10365 0.99889 0.19711
 O63 O 0.09512 0.98937 -0.19010
 O64 O 0.00424 0.80330 0.11431
 O65 O -0.00716 1.19099 0.10239
 O66 O -0.00329 1.18381 -0.10306
 O67 O -0.00549 0.79487 -0.08827
 O68 O 0.19309 0.89495 0.00851
 O69 O 0.18964 1.10025 -0.00320
 O70 O 0.10237 0.80117 0.01276
 O71 O 0.09552 1.19023 -0.00263
 O72 O 0.00264 0.89893 0.20294
 O73 O -0.00600 0.88307 -0.18385
 O74 O -0.00728 1.08789 -0.19153
 O75 O -0.00075 1.10128 0.19625
 O76 O 0.19380 0.99905 0.10364
 O77 O 0.18943 0.99666 -0.10059
 Zr78 Zr 0.00022 0.99817 0.13760
 Zr79 Zr -0.00521 0.98816 -0.12667
 Zr80 Zr -0.00063 0.86102 0.01040
 Zr81 Zr -0.00487 1.12651 0.00131
 Zr82 Zr 0.13038 0.99620 0.00281
 O83 O 0.06327 1.06091 -0.06644
 O84 O 0.06879 0.92879 0.07497
 C85 C 0.17289 1.00049 0.17366
 C86 C 0.16533 0.99464 -0.16988
 C87 C 0.00313 0.82844 0.18304
 C88 C -0.00352 1.17028 0.17261
 C89 C -0.00571 1.15854 -0.17184
 C90 C -0.00765 0.81435 -0.15856
 C91 C 0.17162 0.82496 0.01251
 C92 C 0.16567 1.16962 -0.00313
 H93 H 0.09739 0.89105 -0.09276
 O94 O 0.06535 0.92393 -0.06115
 H95 H 0.09786 1.09882 0.10056
 O96 O 0.06565 1.06512 0.06976
 C97 C 0.35489 1.05050 0.28025
 C98 C 0.34797 1.00065 0.34243
 C99 C 0.28401 0.95458 0.34820
 C100 C 0.22737 0.95669 0.29382
 C101 C 0.23281 1.00482 0.23169
 C102 C 0.29552 1.05450 0.22591
 C103 C 0.41965 1.09598 0.27011
 C104 C 0.42323 1.14812 0.21148
 C105 C 0.36276 1.15611 0.16198
 C106 C 0.29947 1.10996 0.16896
 H107 H 0.46838 1.09152 0.30658
 H108 H 0.47290 1.18308 0.20489
 H109 H 0.36504 1.19799 0.11770
 H110 H 0.25328 1.11951 0.13046
 H111 H 0.27760 0.91667 0.39560
 H112 H 0.17943 0.91913 0.29958
 C113 C -0.26725 1.02420 0.37415
 C114 C -0.33897 0.99380 0.35624
 C115 C -0.35415 0.96981 0.28259
 C116 C -0.29966 0.97579 0.22654
 C117 C -0.22838 1.00752 0.24166
 C118 C -0.21305 1.03526 0.31593
 C119 C -0.24771 1.04250 0.44932
 C120 C -0.17784 1.07436 0.46634
 C121 C -0.12833 1.09300 0.40881
 C122 C -0.14607 1.07489 0.33428
 H123 H -0.28552 1.03108 0.49561
 H124 H -0.16255 1.08570 0.52429
 H125 H -0.07574 1.12140 0.42198
 H126 H -0.10738 1.09405 0.29190
 H127 H -0.40884 0.94625 0.26829
 H128 H -0.31325 0.95401 0.17097
 C129 C -0.28595 0.92676 -0.34408
 C130 C -0.34638 0.97964 -0.33963
 C131 C -0.34845 1.03029 -0.27846
 C132 C -0.29526 1.02685 -0.22058
 C133 C -0.23663 0.97419 -0.22256
 C134 C -0.23212 0.92297 -0.28417
 C135 C -0.27397 0.88130 -0.40895
 C136 C -0.21481 0.82983 -0.41183
 C137 C -0.16587 0.82266 -0.35123
 C138 C -0.17453 0.86830 -0.28790
 H139 H -0.30771 0.88642 -0.45941
 H140 H -0.20650 0.79547 -0.46144
 H141 H -0.12018 0.78244 -0.35406
 H142 H -0.13572 0.86024 -0.24201
 H143 H -0.39299 1.07191 -0.27409
 H144 H -0.29877 1.06728 -0.17471
 C145 C 0.26451 1.02164 -0.36028
 C146 C 0.33283 0.98307 -0.34553
 C147 C 0.34426 0.94940 -0.27521
 C148 C 0.28988 0.95493 -0.21893
 C149 C 0.22280 0.99538 -0.23071
 C150 C 0.21075 1.03118 -0.30154
 C151 C 0.24794 1.05000 -0.43283
 C152 C 0.18169 1.08998 -0.44619
 C153 C 0.13281 1.10587 -0.38720
 C154 C 0.14754 1.07768 -0.31537
 H155 H 0.28512 1.04020 -0.48007
 H156 H 0.16860 1.10926 -0.50238
 H157 H 0.08300 1.13978 -0.39717
 H158 H 0.10960 1.09391 -0.27110
 H159 H 0.39630 0.91963 -0.26335
 H160 H 0.30022 0.92685 -0.16569
 C161 C 0.27527 1.34739 0.05477
 C162 C 0.33129 1.34861 -0.00257
 C163 C 0.32798 1.29422 -0.06046
 C164 C 0.27519 1.23574 -0.05874
 C165 C 0.22262 1.23077 -0.00037
 C166 C 0.22243 1.28673 0.05721
 C167 C 0.26705 1.40771 0.10686
 C168 C 0.21304 1.40509 0.16340
 C169 C 0.16570 1.34308 0.16923
 C170 C 0.17040 1.28413 0.11722
 H171 H 0.29971 1.45904 0.10307
 H172 H 0.20758 1.45172 0.20264
 H173 H 0.12409 1.34191 0.21337
 H174 H 0.13278 1.23693 0.12428
 H175 H 0.36891 1.29461 -0.10568
 H176 H 0.27514 1.19410 -0.10365
 C177 C 0.33266 0.70068 0.08449
 C178 C 0.34903 0.65843 0.01712
 C179 C 0.30830 0.67599 -0.04906
 C180 C 0.25084 0.72935 -0.04909
 C181 C 0.23137 0.76751 0.01682
 C182 C 0.27131 0.75310 0.08436
 C183 C 0.37697 0.69579 0.15115
 C184 C 0.35650 0.73393 0.21681
 C185 C 0.29310 0.77969 0.21764
 C186 C 0.25156 0.79061 0.15188
 H187 H 0.42945 0.66552 0.15396
 H188 H 0.39052 0.72836 0.26733
 H189 H 0.27708 0.80803 0.26918
 H190 H 0.20384 0.82857 0.15442
 H191 H 0.31924 0.64673 -0.10164
 H192 H 0.22089 0.74074 -0.10124
 C193 C -0.27624 0.63473 0.05834
 C194 C -0.34106 0.64433 0.01210
 C195 C -0.34969 0.71092 -0.02926
 C196 C -0.29537 0.76763 -0.02608
 C197 C -0.23070 0.75984 0.01889
 C198 C -0.22222 0.69419 0.06412
 C199 C -0.26327 0.56703 0.09840
 C200 C -0.20194 0.56034 0.14736
 C201 C -0.15256 0.62058 0.15749
 C202 C -0.16243 0.68685 0.11649
 H203 H -0.29965 0.51841 0.09200
 H204 H -0.19318 0.50842 0.17821
 H205 H -0.10611 0.61586 0.19703
 H206 H -0.12379 0.73250 0.12771
 H207 H -0.39909 0.71920 -0.06444
 H208 H -0.30316 0.81741 -0.06061
 C209 C -0.28552 1.34206 -0.05306
 C210 C -0.34675 1.33740 -0.00173
 C211 C -0.35097 1.27590 0.04773
 C212 C -0.29657 1.21926 0.04687
 C213 C -0.23647 1.22181 -0.00397
 C214 C -0.23219 1.28202 -0.05651
 C215 C -0.27470 1.40558 -0.10001
 C216 C -0.21704 1.40678 -0.15318
 C217 C -0.16912 1.34538 -0.16082
 C218 C -0.17655 1.28346 -0.11327
 H219 H -0.30929 1.45548 -0.09564
 H220 H -0.20977 1.45529 -0.18916
 H221 H -0.12549 1.34615 -0.20329
 H222 H -0.13915 1.23646 -0.12228
 H223 H -0.39705 1.27151 0.08744
 H224 H -0.30085 1.17353 0.08710
 C225 C 0.05470 1.28289 0.34783
 C226 C -0.00251 1.33907 0.34783
 C227 C -0.05729 1.33861 0.29050
 C228 C -0.05586 1.28466 0.23314
 C229 C 0.00041 1.22949 0.23130
 C230 C 0.05748 1.22934 0.28777
 C231 C 0.10938 1.27826 0.40600
 C232 C 0.16949 1.22816 0.40088
 C233 C 0.17479 1.17919 0.33991
 C234 C 0.11930 1.17917 0.28410
 H235 H 0.10673 1.31236 0.45639
 H236 H 0.21218 1.22726 0.44469
 H237 H 0.22189 1.14074 0.33634
 H238 H 0.12676 1.14132 0.23701
 H239 H -0.10134 1.38092 0.28967
 H240 H -0.09968 1.28535 0.19037
 C241 C -0.06590 1.27016 -0.34665
 C242 C -0.00763 1.32562 -0.34809
 C243 C 0.04984 1.32280 -0.29354
 C244 C 0.04936 1.26843 -0.23697
 C245 C -0.00860 1.21498 -0.23290
 C246 C -0.06761 1.21617 -0.28711
 C247 C -0.12246 1.26640 -0.40307
 C248 C -0.18279 1.21645 -0.39684
 C249 C -0.18676 1.16711 -0.33629
 C250 C -0.12963 1.16623 -0.28219
 H251 H -0.12064 1.30061 -0.45324
 H252 H -0.22634 1.21539 -0.43982
 H253 H -0.23376 1.12849 -0.33205
 H254 H -0.13539 1.12707 -0.23603
 H255 H 0.09481 1.36429 -0.29353
 H256 H 0.09469 1.26813 -0.19578
 C257 C -0.07711 0.64646 -0.27654
 C258 C -0.01364 0.63700 -0.32540
 C259 C 0.05034 0.68294 -0.31359
 C260 C 0.05065 0.74033 -0.26000
 C261 C -0.01190 0.75280 -0.21438
 C262 C -0.07610 0.70558 -0.22146
 C263 C -0.14046 0.59745 -0.27825
 C264 C -0.20318 0.61099 -0.23321
 C265 C -0.20327 0.67091 -0.18277
 C266 C -0.14014 0.71713 -0.17576
 H267 H -0.14258 0.54692 -0.31214
 H268 H -0.25196 0.57435 -0.23704
 H269 H -0.25234 0.68091 -0.14845
 H270 H -0.14260 0.76285 -0.13537
 H271 H 0.09997 0.67708 -0.34858
 H272 H 0.10038 0.77559 -0.25414
 C273 C -0.07022 0.71322 0.34934
 C274 C -0.00877 0.66221 0.35909
 C275 C 0.05427 0.66857 0.31171
 C276 C 0.05719 0.72255 0.25499
 C277 C -0.00271 0.77223 0.24370
 C278 C -0.06765 0.76718 0.28982
 C279 C -0.13399 0.71299 0.39717
 C280 C -0.19583 0.75926 0.38245
 C281 C -0.19453 0.80905 0.32226
 C282 C -0.13099 0.81376 0.27680
 H283 H -0.13726 0.67851 0.44698
 H284 H -0.24524 0.75650 0.41794
 H285 H -0.24284 0.84454 0.31109
 H286 H -0.13274 0.85318 0.23067
 H287 H 0.10155 0.63035 0.31764
 H288 H 0.10671 0.72553 0.21951
   
