data_POSCAR
  _audit_creation_date              2014-09-24
  _audit_creation_method            'ToBaCCo'
  _symmetry_space_group_name_H-M    'P1'
  _symmetry_Int_Tables_number       1
  _symmetry_cell_setting            triclinic
  loop_
  _symmetry_equiv_pos_as_xyz
 x,y,z
_cell_length_a 14.9415
_cell_length_b 15.0260
_cell_length_c 15.7355
_cell_angle_alpha 90.010400
_cell_angle_beta 90.298900
_cell_angle_gamma 120.159600
loop_
  _atom_site_label
  _atom_site_type_symbol
  _atom_site_fract_x
  _atom_site_fract_y
  _atom_site_fract_z
O1 O 0.32736 0.51585 0.34671
 O2 O 0.15264 0.51090 0.31967
 C3 C 0.13950 0.57514 0.36242
 O4 O 0.18587 0.67063 0.34630
 O5 O 0.35581 0.84463 0.32015
 C6 C 0.43395 0.85842 0.36320
 O7 O 0.48336 0.81217 0.34752
 O8 O 0.48801 0.64326 0.32107
 C9 C 0.42349 0.56531 0.36323
 O10 O 0.35523 0.51123 0.17767
 O11 O 0.18523 0.51557 0.15051
 C12 C 0.13832 0.56434 0.13402
 O13 O 0.15231 0.64203 0.17705
 O14 O 0.32724 0.81141 0.15098
 C15 C 0.42339 0.85806 0.13547
 O16 O 0.48794 0.84469 0.17838
 O17 O 0.48324 0.67106 0.15192
 C18 C 0.43360 0.57548 0.13559
 Cr19 Cr 0.25794 0.51905 0.24865
 Cr20 Cr 0.25813 0.73934 0.24862
 Cr21 Cr 0.47995 0.73996 0.24969
 O22 O 0.33204 0.66611 0.24900
 O23 O 0.51149 0.35639 0.67847
 O24 O 0.51626 0.18752 0.65214
 C25 C 0.56579 0.14140 0.63639
 O26 O 0.64401 0.15530 0.67937
 O27 O 0.81399 0.32933 0.65348
 C28 C 0.86021 0.42480 0.63725
 O29 O 0.84687 0.48900 0.67985
 O30 O 0.67209 0.48387 0.65283
 C31 C 0.57597 0.43435 0.63630
 O32 O 0.51628 0.32873 0.84763
 O33 O 0.51164 0.15511 0.82128
 C34 C 0.57615 0.14165 0.86413
 O35 O 0.67229 0.18823 0.84859
 O36 O 0.84718 0.35766 0.82282
 C37 C 0.86094 0.43545 0.86539
 O38 O 0.81445 0.48453 0.84898
 O39 O 0.64428 0.48858 0.82188
 C40 C 0.56590 0.42432 0.86395
 Cr41 Cr 0.51962 0.25978 0.74991
 Cr42 Cr 0.74154 0.26048 0.75106
 Cr43 Cr 0.74158 0.48083 0.75089
 O44 O 0.66758 0.33370 0.75065
 N45 N 0.41745 -0.01688 0.45269
 C46 C 0.46869 -0.06770 0.43397
 N47 N 0.55165 -0.04975 0.48231
 N48 N 0.58231 0.01672 0.54689
 C49 C 0.53108 0.06753 0.56561
 N50 N 0.44811 0.04958 0.51727
 N51 N 1.04948 0.60115 0.48166
 C52 C 1.06641 0.53613 0.43351
 N53 N 1.01569 0.43434 0.45297
 N54 N 0.95026 0.39879 0.51804
 C55 C 0.93333 0.46380 0.56618
 N56 N 0.98405 0.56559 0.54672
 N57 N 0.56554 0.58202 0.45359
 C58 C 0.46299 0.53083 0.43398
 N59 N 0.39779 0.44808 0.48139
 N60 N 0.43390 0.41760 0.54593
 C61 C 0.53645 0.46879 0.56553
 N62 N 0.60165 0.55153 0.51813
 N63 N 0.39780 -0.05036 1.01701
 C64 C 0.46295 -0.06799 1.06512
 N65 N 0.56553 -0.01662 1.04667
 N66 N 0.60173 0.05003 0.98257
 C67 C 0.53658 0.06766 0.93446
 N68 N 0.43400 0.01630 0.95291
 N69 N 1.05294 0.45019 1.02095
 C70 C 1.07078 0.53272 1.06909
 N71 N 1.01920 0.58323 1.04944
 N72 N 0.95261 0.55254 0.98450
 C73 C 0.93505 0.47019 0.93653
 N74 N 0.98633 0.41953 0.95602
 N75 N 0.55160 0.60125 1.01791
 C76 C 0.46838 0.53632 1.06519
 N77 N 0.41707 0.43435 1.04581
 N78 N 0.44787 0.39855 0.98162
 C79 C 0.53109 0.46348 0.93434
 N80 N 0.58240 0.56545 0.95371
   
