data_POSCAR
  _audit_creation_date              2014-09-24
  _audit_creation_method            'ToBaCCo'
  _symmetry_space_group_name_H-M    'P1'
  _symmetry_Int_Tables_number       1
  _symmetry_cell_setting            triclinic
  loop_
  _symmetry_equiv_pos_as_xyz
 x,y,z
_cell_length_a 30.9749
_cell_length_b 30.9707
_cell_length_c 30.9901
_cell_angle_alpha 90.933100
_cell_angle_beta 92.156700
_cell_angle_gamma 88.820200
loop_
  _atom_site_label
  _atom_site_type_symbol
  _atom_site_fract_x
  _atom_site_fract_y
  _atom_site_fract_z
C1 C 0.02260 0.44216 0.19119
 H2 H 0.04900 0.46426 0.18903
 C3 C 0.02471 0.40167 0.17046
 H4 H 0.05346 0.39364 0.15307
 C5 C -0.04444 0.42543 0.22016
 H6 H -0.07111 0.43416 0.24013
 C7 C -0.04374 0.38487 0.20013
 H8 H -0.07144 0.36478 0.20379
 N9 N -0.01145 0.45308 0.21580
 C10 C -0.02022 0.59218 0.23934
 H11 H -0.02601 0.59065 0.27348
 C12 C -0.01910 0.63209 0.21950
 H13 H -0.02486 0.66115 0.23851
 C14 C -0.00563 0.55578 0.17344
 H15 H 0.00001 0.52589 0.15586
 C16 C -0.00420 0.59528 0.15216
 H17 H 0.00281 0.59550 0.11821
 Zn18 Zn -0.01074 0.50455 0.24996
 N19 N -0.01272 0.55514 0.21647
 C20 C 0.06949 0.53670 0.27929
 N21 N 0.04142 0.50407 0.28420
 C22 C 0.05239 0.46956 0.30925
 C23 C 0.09334 0.46672 0.32995
 C24 C 0.11047 0.53518 0.29929
 C25 C -0.09811 0.51484 0.26040
 C26 C -0.13757 0.51460 0.28040
 C27 C -0.09943 0.49910 0.34802
 C28 C -0.06042 0.49965 0.32658
 N29 N -0.06066 0.50667 0.28335
 H30 H 0.06088 0.56348 0.25867
 H31 H 0.02991 0.44355 0.31192
 H32 H 0.10208 0.43846 0.34870
 H33 H 0.13226 0.56146 0.29462
 H34 H -0.09727 0.52067 0.22612
 H35 H -0.16696 0.52100 0.26135
 H36 H -0.09896 0.49224 0.38218
 H37 H -0.03021 0.49356 0.34423
 C38 C -0.01019 0.63413 0.17555
 C39 C -0.00836 0.37148 0.17544
 C40 C -0.13873 0.50593 0.32462
 C41 C 0.12325 0.49951 0.32433
 C42 C 0.04228 0.55739 0.80985
 H43 H 0.06874 0.53429 0.81390
 C44 C 0.04443 0.59794 0.83047
 H45 H 0.07263 0.60582 0.85054
 C46 C -0.02553 0.57633 0.77677
 H47 H -0.05230 0.56861 0.75494
 C48 C -0.02469 0.61694 0.79658
 H49 H -0.05148 0.63933 0.79060
 N50 N 0.00771 0.54750 0.78338
 C51 C 0.00299 0.40845 0.76003
 H52 H -0.00200 0.41000 0.72534
 C53 C 0.00337 0.36870 0.78022
 H54 H -0.00183 0.33974 0.76083
 C55 C 0.01463 0.44490 0.82721
 H56 H 0.01875 0.47482 0.84521
 C57 C 0.01510 0.40554 0.84891
 H58 H 0.02010 0.40533 0.88367
 Zn59 Zn 0.00731 0.49575 0.74978
 N60 N 0.00911 0.44543 0.78346
 C61 C 0.08627 0.46311 0.71977
 N62 N 0.05616 0.49541 0.71466
 C63 C 0.06266 0.52897 0.68802
 C64 C 0.10082 0.53089 0.66534
 C65 C 0.12454 0.46361 0.69762
 C66 C -0.08016 0.48710 0.74174
 C67 C -0.12166 0.48691 0.72311
 C68 C -0.09126 0.49875 0.65380
 C69 C -0.05006 0.49867 0.67408
 N70 N -0.04552 0.49371 0.71744
 H71 H 0.08149 0.43747 0.74212
 H72 H 0.03866 0.55474 0.68520
 H73 H 0.10568 0.55793 0.64447
 H74 H 0.14845 0.43811 0.70317
 H75 H -0.07544 0.48231 0.77612
 H76 H -0.14733 0.47960 0.74428
 H77 H -0.09298 0.50529 0.61966
 H78 H -0.02192 0.50362 0.65530
 C79 C 0.00981 0.36676 0.82518
 C80 C 0.01090 0.62856 0.82322
 C81 C -0.12870 0.49372 0.67828
 C82 C 0.13243 0.49793 0.67022
 C83 C 0.19013 0.03886 0.44666
 H84 H 0.18724 0.06570 0.46921
 C85 C 0.16936 0.04086 0.40577
 H86 H 0.15032 0.06933 0.39709
 C87 C 0.22074 -0.02972 0.42937
 H88 H 0.24170 -0.05673 0.43785
 C89 C 0.20069 -0.02905 0.38846
 H90 H 0.20562 -0.05619 0.36659
 N91 N 0.21556 0.00404 0.45746
 C92 C 0.24069 0.00027 0.59668
 H93 H 0.27530 -0.00475 0.59568
 C94 C 0.22076 0.00098 0.63615
 H95 H 0.24026 -0.00404 0.66543
 C96 C 0.17340 0.01176 0.55918
 H97 H 0.15525 0.01577 0.52899
 C98 C 0.15197 0.01259 0.59821
 H99 H 0.11728 0.01772 0.59786
 Zn100 Zn 0.25001 0.00439 0.50932
 N101 N 0.21707 0.00617 0.55933
 C102 C 0.28173 0.08364 0.54137
 N103 N 0.28525 0.05365 0.50906
 C104 C 0.31043 0.06047 0.47488
 C105 C 0.33322 0.09884 0.47229
 C106 C 0.30404 0.12215 0.54020
 C107 C 0.25881 -0.08312 0.51928
 C108 C 0.27796 -0.12411 0.51900
 C109 C 0.34635 -0.09170 0.50532
 C110 C 0.32576 -0.05103 0.50588
 N111 N 0.28254 -0.04774 0.51193
 H112 H 0.26053 0.07853 0.56756
 H113 H 0.31197 0.03654 0.44914
 H114 H 0.35290 0.10395 0.44476
 H115 H 0.29977 0.14598 0.56572
 H116 H 0.22456 -0.07943 0.52434
 H117 H 0.25831 -0.15184 0.52462
 H118 H 0.38049 -0.09412 0.49914
 H119 H 0.34403 -0.02239 0.50050
 C120 C 0.17589 0.00755 0.63736
 C121 C 0.17534 0.00689 0.37581
 C122 C 0.32210 -0.12892 0.51115
 C123 C 0.32992 0.13037 0.50520
 C124 C 0.81020 0.02645 0.55251
 H125 H 0.81277 0.05278 0.53030
 C126 C 0.83126 0.02854 0.59328
 H127 H 0.85018 0.05655 0.60212
 C128 C 0.77999 -0.04063 0.56921
 H129 H 0.75908 -0.06705 0.56050
 C130 C 0.80039 -0.03987 0.61003
 H131 H 0.79575 -0.06640 0.63161
 N132 N 0.78476 -0.00760 0.54148
 C133 C 0.75822 -0.01455 0.40227
 H134 H 0.72384 -0.01950 0.40375
 C135 C 0.77741 -0.01426 0.36241
 H136 H 0.75702 -0.02086 0.33411
 C137 C 0.82543 -0.00264 0.43879
 H138 H 0.84382 0.00228 0.46874
 C139 C 0.84620 -0.00212 0.39939
 H140 H 0.88037 0.00436 0.40034
 Zn141 Zn 0.74963 -0.00640 0.48993
 N142 N 0.78206 -0.00805 0.43935
 C143 C 0.72099 0.07441 0.45855
 N144 N 0.71627 0.04575 0.49077
 C145 C 0.69190 0.05599 0.52526
 C146 C 0.67161 0.09670 0.52845
 C147 C 0.70137 0.11523 0.46043
 C148 C 0.73723 -0.09366 0.47912
 C149 C 0.71623 -0.13298 0.47827
 C150 C 0.64965 -0.09478 0.49381
 C151 C 0.67203 -0.05591 0.49417
 N152 N 0.71520 -0.05624 0.48748
 H153 H 0.74113 0.06636 0.43182
 H154 H 0.68942 0.03306 0.55097
 H155 H 0.65337 0.10480 0.55669
 H156 H 0.70580 0.13747 0.43444
 H157 H 0.77156 -0.09293 0.47397
 H158 H 0.73481 -0.16243 0.47277
 H159 H 0.61537 -0.09420 0.49947
 H160 H 0.65509 -0.02573 0.50036
 C161 C 0.82213 -0.00718 0.35992
 C162 C 0.82569 -0.00457 0.62296
 C163 C 0.67193 -0.13402 0.48598
 C164 C 0.67691 0.12719 0.49604
 C165 C 0.55486 0.18840 0.96436
 H166 H 0.53120 0.18498 0.93801
 C167 C 0.59521 0.16734 0.96223
 H168 H 0.60234 0.14756 0.93416
 C169 C 0.57554 0.22068 1.03163
 H170 H 0.56861 0.24248 1.05808
 C171 C 0.61599 0.20036 1.03083
 H172 H 0.63906 0.20590 1.05737
 N173 N 0.54600 0.21481 0.99855
 C174 C 0.40764 0.24204 1.00217
 H175 H 0.41006 0.27668 1.00619
 C176 C 0.36741 0.22300 1.00236
 H177 H 0.33981 0.24394 1.00812
 C178 C 0.44240 0.17394 0.99309
 H179 H 0.47187 0.15513 0.98947
 C180 C 0.40258 0.15330 0.99321
 H181 H 0.40253 0.11867 0.98830
 Zn182 Zn 0.49508 0.24983 0.99769
 N183 N 0.44399 0.21762 0.99704
 C184 C 0.46274 0.27832 0.91689
 N185 N 0.49508 0.28370 0.94732
 C186 C 0.52928 0.30909 0.93994
 C187 C 0.53207 0.32983 0.90036
 C188 C 0.46422 0.29836 0.87710
 C189 C 0.48832 0.25994 1.08495
 C190 C 0.48901 0.27972 1.12554
 C191 C 0.50095 0.34806 1.09176
 C192 C 0.50008 0.32678 1.05149
 N193 N 0.49456 0.28334 1.04908
 H194 H 0.43633 0.25727 0.92267
 H195 H 0.55509 0.31204 0.96425
 H196 H 0.56010 0.34889 0.89449
 H197 H 0.43820 0.29337 0.85334
 H198 H 0.48353 0.22550 1.08193
 H199 H 0.48407 0.26034 1.15363
 H200 H 0.50641 0.38247 1.09351
 H201 H 0.50445 0.34478 1.02245
 C202 C 0.36383 0.17782 0.99743
 C203 C 0.62667 0.17404 0.99542
 C204 C 0.49603 0.32421 1.12946
 C205 C 0.49956 0.32388 0.86806
 C206 C 0.43156 0.78833 0.96269
 H207 H 0.44297 0.77139 0.93446
 C208 C 0.39151 0.80984 0.96038
 H209 H 0.37387 0.80965 0.92961
 C210 C 0.44266 0.81061 1.03544
 H211 H 0.46225 0.81028 1.06495
 C212 C 0.40283 0.83267 1.03463
 H213 H 0.39291 0.84778 1.06442
 N214 N 0.45562 0.78779 1.00026
 C215 C 0.59327 0.75927 1.01957
 H216 H 0.59116 0.72564 1.02803
 C217 C 0.63344 0.77862 1.01928
 H218 H 0.66211 0.75982 1.02838
 C219 C 0.55808 0.82430 0.99726
 H220 H 0.52854 0.84156 0.98804
 C221 C 0.59779 0.84503 0.99651
 H222 H 0.59855 0.87834 0.98655
 Zn223 Zn 0.50515 0.75044 1.00499
 N224 N 0.55675 0.78198 1.00806
 C225 C 0.54006 0.71615 0.92873
 N226 N 0.50624 0.71339 0.95527
 C227 C 0.47195 0.68809 0.94443
 C228 C 0.47035 0.66530 0.90505
 C229 C 0.53990 0.69380 0.88933
 C230 C 0.51389 0.74134 1.09383
 C231 C 0.51219 0.72196 1.13396
 C232 C 0.48949 0.65609 1.09790
 C233 C 0.49162 0.67686 1.05825
 N234 N 0.50298 0.71903 1.05700
 H235 H 0.56663 0.73705 0.93711
 H236 H 0.44494 0.68708 0.96550
 H237 H 0.44247 0.64598 0.89658
 H238 H 0.56648 0.69784 0.86814
 H239 H 0.52423 0.77437 1.09203
 H240 H 0.52127 0.74040 1.16275
 H241 H 0.47947 0.62283 1.09840
 H242 H 0.48380 0.65932 1.02869
 C243 C 0.63621 0.82186 1.00694
 C244 C 0.37545 0.83149 0.99710
 C245 C 0.49940 0.67891 1.13648
 C246 C 0.50443 0.66850 0.87667
 B247 B 0.99987 1.04457 0.02727
 B248 B 0.99953 1.04410 -0.02706
 B249 B 1.04405 1.02749 0.00135
 B250 B 1.02810 1.00069 0.04462
 B251 B 0.97366 1.00065 0.04290
 B252 B 0.95599 1.02749 -0.00146
 B253 B 1.00140 0.95605 -0.02780
 B254 B 1.00171 0.95648 0.02661
 B255 B 0.95713 0.97305 -0.00188
 B256 B 0.97312 0.99995 -0.04516
 B257 B 1.02752 0.99998 -0.04335
 B258 B 1.04524 0.97312 0.00094
 B259 B 0.54220 0.49933 0.47496
 B260 B 0.54344 0.49971 0.52934
 B261 B 0.52491 0.54348 0.50228
 B262 B 0.49710 0.52621 0.45771
 B263 B 0.49849 0.47181 0.45727
 B264 B 0.52710 0.45540 0.50154
 B265 B 0.45539 0.49931 0.52806
 B266 B 0.45413 0.49890 0.47364
 B267 B 0.47269 0.45516 0.50071
 B268 B 0.50048 0.47242 0.54529
 B269 B 0.49914 0.52684 0.54578
 B270 B 0.47051 0.54319 0.50148
 C271 C 1.02110 1.27718 0.10360
 C272 C 0.99826 1.24403 0.12190
 C273 C 0.97364 1.25287 0.15787
 C274 C 0.97154 1.29461 0.17545
 C275 C 0.99407 1.32892 0.15737
 C276 C 1.01922 1.31911 0.12114
 C277 C 0.99941 1.20100 0.10358
 C278 C 0.99971 1.16499 0.08819
 C279 C 0.99964 1.12314 0.06947
 C280 C 0.99955 1.08800 0.05222
 H281 H 1.04007 1.27073 0.07546
 H282 H 0.95613 1.22735 0.17257
 H283 H 0.95340 1.29904 0.20436
 H284 H 1.03623 1.34385 0.10488
 C285 C 1.01708 0.75140 0.15935
 C286 C 0.99861 0.75898 0.11826
 C287 C 0.97827 0.72536 0.09513
 C288 C 0.97591 0.68443 0.11333
 C289 C 0.99373 0.67678 0.15499
 C290 C 1.01474 0.71063 0.17758
 C291 C 1.00005 0.80145 0.10028
 C292 C 1.00110 0.83711 0.08541
 C293 C 1.00200 0.87861 0.06744
 C294 C 1.00230 0.91348 0.05084
 H295 H 1.03310 0.77710 0.17744
 H296 H 0.96385 0.73091 0.06326
 H297 H 0.95930 0.65912 0.09530
 H298 H 1.02947 0.70555 0.20938
 C299 C 0.98668 1.27742 -0.09704
 C300 C 1.00687 1.24189 -0.11698
 C301 C 1.02966 1.24762 -0.15448
 C302 C 1.03152 1.28848 -0.17256
 C303 C 1.01050 1.32425 -0.15342
 C304 C 0.98855 1.31845 -0.11510
 C305 C 1.00395 1.19940 -0.09945
 C306 C 1.00187 1.16367 -0.08498
 C307 C 1.00005 1.12207 -0.06747
 C308 C 0.99921 1.08712 -0.05115
 H309 H 0.96903 1.27331 -0.06791
 H310 H 1.04565 1.22041 -0.16999
 H311 H 1.04924 1.29209 -0.20171
 H312 H 0.97178 1.34531 -0.09987
 C313 C 1.02704 0.72208 -0.09732
 C314 C 1.01282 0.75712 -0.12253
 C315 C 0.99958 0.75026 -0.16567
 C316 C 0.99978 0.70854 -0.18339
 C317 C 1.01314 0.67295 -0.15816
 C318 C 1.02734 0.68020 -0.11506
 C319 C 1.01064 0.80001 -0.10407
 C320 C 1.00822 0.83592 -0.08866
 C321 C 1.00521 0.87765 -0.06998
 C322 C 1.00298 0.91271 -0.05276
 H323 H 1.03731 0.72706 -0.06384
 H324 H 0.98870 0.77713 -0.18552
 H325 H 0.98942 0.70409 -0.21690
 H326 H 1.03755 0.65341 -0.09483
 C327 C 1.09702 1.02447 0.28012
 C328 C 1.12195 1.00964 0.24590
 C329 C 1.16450 0.99529 0.25402
 C330 C 1.18193 0.99510 0.29620
 C331 C 1.15698 1.00917 0.33097
 C332 C 1.11447 1.02438 0.32247
 C333 C 1.10376 1.00803 0.20252
 C334 C 1.08856 1.00610 0.16620
 C335 C 1.07008 1.00363 0.12399
 C336 C 1.05297 1.00183 0.08850
 H337 H 1.06398 1.03560 0.27415
 H338 H 1.18413 0.98391 0.22778
 H339 H 1.21503 0.98395 0.30163
 H340 H 1.09446 1.03517 0.34861
 C341 C 1.09772 0.98605 -0.27442
 C342 C 1.11828 1.00646 -0.23884
 C343 C 1.15645 1.02875 -0.24416
 C344 C 1.17454 1.02994 -0.28468
 C345 C 1.15472 1.00873 -0.32049
 C346 C 1.11579 0.98723 -0.31509
 C347 C 1.10065 1.00423 -0.19670
 C348 C 1.08603 1.00257 -0.16132
 C349 C 1.06829 1.00101 -0.12020
 C350 C 1.05178 1.00015 -0.08571
 H351 H 1.06808 0.96877 -0.27061
 H352 H 1.17244 1.04490 -0.21690
 H353 H 1.20418 1.04733 -0.28800
 H354 H 1.10003 0.97033 -0.34198
 C355 C 0.90491 0.98746 0.27417
 C356 C 0.87960 0.99810 0.23742
 C357 C 0.83571 1.00767 0.24124
 C358 C 0.81696 1.00625 0.28143
 C359 C 0.84170 0.99499 0.31914
 C360 C 0.88632 0.98603 0.31460
 C361 C 0.89838 0.99903 0.19565
 C362 C 0.91383 0.99974 0.16054
 C363 C 0.93233 1.00040 0.11965
 C364 C 0.94925 1.00074 0.08529
 H365 H 0.93901 0.97980 0.27152
 H366 H 0.81588 1.01649 0.21307
 H367 H 0.78323 1.01565 0.28262
 H368 H 0.90696 0.97605 0.34167
 C369 C 0.90387 1.01453 -0.28134
 C370 C 0.87941 1.00119 -0.24702
 C371 C 0.83735 0.98685 -0.25514
 C372 C 0.81989 0.98539 -0.29734
 C373 C 0.84431 0.99819 -0.33219
 C374 C 0.88640 1.01316 -0.32369
 C375 C 0.89754 1.00142 -0.20352
 C376 C 0.91274 1.00112 -0.16711
 C377 C 0.93122 1.00049 -0.12478
 C378 C 0.94830 1.00002 -0.08920
 H379 H 0.93653 1.02563 -0.27542
 H380 H 0.81806 0.97660 -0.22885
 H381 H 0.78711 0.97448 -0.30268
 H382 H 0.90607 1.02297 -0.34984
 C383 C 1.24400 1.16341 -0.01377
 C384 C 1.24016 1.12079 -0.00090
 C385 C 1.27722 1.09635 0.01029
 C386 C 1.31808 1.11470 0.00918
 C387 C 1.32266 1.15820 -0.00290
 C388 C 1.28461 1.18192 -0.01488
 C389 C 1.19804 1.10234 0.00067
 C390 C 1.16262 1.08716 0.00167
 C391 C 1.12137 1.06890 0.00234
 C392 C 1.08672 1.05204 0.00236
 H393 H 1.21552 1.18242 -0.02316
 H394 H 1.27454 1.06321 0.02038
 H395 H 1.34555 1.09502 0.01979
 H396 H 1.28572 1.21453 -0.02665
 C397 C 0.72027 1.09533 -0.02245
 C398 C 0.75555 1.12052 -0.00913
 C399 C 0.74874 1.16329 0.00442
 C400 C 0.70687 1.18071 0.00529
 C401 C 0.67108 1.15554 -0.00731
 C402 C 0.67822 1.11277 -0.02168
 C403 C 0.79871 1.10239 -0.00825
 C404 C 0.83489 1.08729 -0.00684
 C405 C 0.87696 1.06899 -0.00479
 C406 C 0.91231 1.05208 -0.00308
 H407 H 0.72521 1.06211 -0.03293
 H408 H 0.77580 1.18311 0.01464
 H409 H 0.70248 1.21400 0.01573
 H410 H 0.65130 1.09259 -0.03133
 C411 C 1.25778 0.85104 -0.03128
 C412 C 1.24700 0.88322 -0.00130
 C413 C 1.27885 0.89936 0.02734
 C414 C 1.32124 0.88297 0.02649
 C415 C 1.33286 0.84987 -0.00320
 C416 C 1.30009 0.83458 -0.03237
 C417 C 1.20326 0.89981 -0.00005
 C418 C 1.16680 0.91410 0.00081
 C419 C 1.12450 0.93189 0.00149
 C420 C 1.08904 0.94859 0.00164
 H421 H 1.23330 0.83819 -0.05356
 H422 H 1.27097 0.92476 0.05036
 H423 H 1.34484 0.89751 0.04849
 H424 H 1.30603 0.80832 -0.05489
 C425 C 0.75478 0.83625 -0.01467
 C426 C 0.76125 0.87867 -0.00013
 C427 C 0.72665 0.90298 0.01609
 C428 C 0.68580 0.88477 0.01809
 C429 C 0.67913 0.84193 0.00400
 C430 C 0.71405 0.81800 -0.01269
 C431 C 0.80349 0.89700 -0.00146
 C432 C 0.83887 0.91240 -0.00234
 C433 C 0.87999 0.93109 -0.00294
 C434 C 0.91450 0.94829 -0.00294
 H435 H 0.78125 0.81721 -0.02746
 H436 H 0.73133 0.93587 0.02748
 H437 H 0.65968 0.90388 0.03140
 H438 H 0.70980 0.78522 -0.02452
 C439 C 0.74368 0.48212 0.34211
 C440 C 0.73768 0.50093 0.38281
 C441 C 0.77244 0.52037 0.40526
 C442 C 0.81296 0.52149 0.38678
 C443 C 0.81906 0.50330 0.34551
 C444 C 0.78404 0.48322 0.32361
 C445 C 0.69567 0.50056 0.40112
 C446 C 0.66039 0.50020 0.41621
 C447 C 0.61931 0.49977 0.43432
 C448 C 0.58479 0.49947 0.45093
 H449 H 0.71709 0.46677 0.32456
 H450 H 0.76813 0.53501 0.43684
 H451 H 0.83919 0.53743 0.40427
 H452 H 0.78789 0.46824 0.29214
 C453 C 0.21886 0.48034 0.40270
 C454 C 0.25319 0.49367 0.37824
 C455 C 0.24515 0.50760 0.33597
 C456 C 0.20299 0.50885 0.31837
 C457 C 0.16811 0.49626 0.34286
 C458 C 0.17655 0.48150 0.38508
 C459 C 0.29655 0.49417 0.39668
 C460 C 0.33282 0.49521 0.41216
 C461 C 0.37496 0.49677 0.43099
 C462 C 0.41036 0.49800 0.44840
 H463 H 0.22474 0.46956 0.43552
 H464 H 0.27144 0.51783 0.31670
 H465 H 0.19766 0.51960 0.28549
 H466 H 0.15036 0.47186 0.40477
 C467 C 0.75178 0.50459 0.66713
 C468 C 0.74490 0.49808 0.62289
 C469 C 0.78010 0.49078 0.59672
 C470 C 0.82219 0.48962 0.61479
 C471 C 0.83023 0.49547 0.65992
 C472 C 0.79359 0.50344 0.68544
 C473 C 0.70155 0.49879 0.60460
 C474 C 0.66515 0.49930 0.58953
 C475 C 0.62280 0.49974 0.57130
 C476 C 0.58723 0.49992 0.55433
 H477 H 0.72470 0.51096 0.68763
 H478 H 0.77501 0.48545 0.56227
 H479 H 0.84767 0.48184 0.59296
 H480 H 0.79638 0.51109 0.71953
 C481 C 0.23821 0.53960 0.63088
 C482 C 0.25739 0.50156 0.61489
 C483 C 0.23478 0.46293 0.61486
 C484 C 0.19359 0.46205 0.63166
 C485 C 0.17441 0.49986 0.64879
 C486 C 0.19692 0.53880 0.64768
 C487 C 0.30043 0.50181 0.59892
 C488 C 0.33633 0.50138 0.58520
 C489 C 0.37792 0.50048 0.56811
 C490 C 0.41270 0.49973 0.55197
 H491 H 0.25541 0.56971 0.63098
 H492 H 0.24918 0.43336 0.60229
 H493 H 0.17684 0.43170 0.63157
 H494 H 0.18321 0.56831 0.66107
 C495 C 0.47922 0.66340 0.25523
 C496 C 0.49426 0.62098 0.26136
 C497 C 0.50995 0.59695 0.22641
 C498 C 0.51107 0.61545 0.18557
 C499 C 0.49661 0.65833 0.17925
 C500 C 0.48033 0.68195 0.21450
 C501 C 0.49418 0.60242 0.30366
 C502 C 0.49437 0.58684 0.33907
 C503 C 0.49491 0.56798 0.38024
 C504 C 0.49566 0.55076 0.41484
 H505 H 0.46684 0.68224 0.28199
 H506 H 0.52172 0.56407 0.23082
 H507 H 0.52416 0.59659 0.15922
 H508 H 0.46831 0.71478 0.21054
 C509 C 0.53834 0.61274 0.77301
 C510 C 0.49998 0.61498 0.74775
 C511 C 0.46251 0.63281 0.76531
 C512 C 0.46360 0.64913 0.80770
 C513 C 0.50227 0.64787 0.83304
 C514 C 0.53952 0.62906 0.81535
 C515 C 0.49928 0.59913 0.70379
 C516 C 0.49910 0.58537 0.66717
 C517 C 0.49917 0.56805 0.62477
 C518 C 0.49926 0.55154 0.58932
 H519 H 0.56746 0.59873 0.75985
 H520 H 0.43262 0.63464 0.74607
 H521 H 0.43455 0.66391 0.82018
 H522 H 0.56963 0.62717 0.83420
 C523 C 0.52080 0.34161 0.24898
 C524 C 0.49942 0.38097 0.25679
 C525 C 0.47829 0.40287 0.22262
 C526 C 0.47790 0.38500 0.18084
 C527 C 0.49852 0.34494 0.17292
 C528 C 0.52043 0.32372 0.20736
 C529 C 0.49886 0.39845 0.30002
 C530 C 0.49853 0.41295 0.33629
 C531 C 0.49833 0.43061 0.37845
 C532 C 0.49830 0.44719 0.41382
 H533 H 0.53749 0.32456 0.27514
 H534 H 0.46169 0.43344 0.22837
 H535 H 0.46054 0.40188 0.15501
 H536 H 0.53723 0.29319 0.20211
 C537 C 0.51869 0.40263 0.77832
 C538 C 0.50621 0.37810 0.74174
 C539 C 0.49269 0.33570 0.74642
 C540 C 0.49108 0.31802 0.78746
 C541 C 0.50289 0.34256 0.82452
 C542 C 0.51717 0.38494 0.81951
 C543 C 0.50610 0.39659 0.69944
 C544 C 0.50528 0.41207 0.66399
 C545 C 0.50378 0.43079 0.62278
 C546 C 0.50230 0.44791 0.58814
 H547 H 0.52912 0.43556 0.77504
 H548 H 0.48308 0.31639 0.71834
 H549 H 0.48071 0.28503 0.79019
 H550 H 0.52619 0.40467 0.84744
 C551 C 0.60259 0.77457 0.52219
 C552 C 0.61367 0.74165 0.49288
 C553 C 0.64202 0.75003 0.46010
 C554 C 0.66000 0.79082 0.45715
 C555 C 0.64991 0.82388 0.48703
 C556 C 0.62054 0.81549 0.51927
 C557 C 0.59640 0.69910 0.49652
 C558 C 0.58204 0.66339 0.49904
 C559 C 0.56461 0.62178 0.50126
 C560 C 0.54848 0.58678 0.50235
 H561 H 0.58058 0.76845 0.54765
 H562 H 0.65059 0.72489 0.43706
 H563 H 0.68202 0.79646 0.43160
 H564 H 0.61249 0.84012 0.54300
 C565 C 0.59919 0.22135 0.51631
 C566 C 0.62341 0.25630 0.50343
 C567 C 0.66531 0.24913 0.48926
 C568 C 0.68277 0.20723 0.48742
 C569 C 0.65853 0.17176 0.49964
 C570 C 0.61666 0.17931 0.51455
 C571 C 0.60505 0.29941 0.50369
 C572 C 0.58949 0.33543 0.50334
 C573 C 0.57043 0.37722 0.50257
 C574 C 0.55276 0.41224 0.50193
 H575 H 0.56665 0.22654 0.52725
 H576 H 0.68440 0.27590 0.47935
 H577 H 0.71539 0.20259 0.47656
 H578 H 0.59712 0.15267 0.52389
 C579 C 0.40061 0.77627 0.52570
 C580 C 0.37747 0.74303 0.50494
 C581 C 0.33698 0.75189 0.48529
 C582 C 0.31936 0.79368 0.48684
 C583 C 0.34199 0.82724 0.50820
 C584 C 0.38302 0.81822 0.52727
 C585 C 0.39500 0.69974 0.50395
 C586 C 0.40977 0.66349 0.50312
 C587 C 0.42795 0.62147 0.50224
 C588 C 0.44510 0.58628 0.50169
 H589 H 0.43205 0.76969 0.54098
 H590 H 0.31895 0.72645 0.46891
 H591 H 0.28804 0.79980 0.47118
 H592 H 0.40101 0.84332 0.54418
 C593 C 0.38744 0.23327 0.53819
 C594 C 0.38580 0.25579 0.49939
 C595 C 0.36793 0.23643 0.46188
 C596 C 0.35089 0.19501 0.46338
 C597 C 0.35144 0.17256 0.50252
 C598 C 0.37040 0.19195 0.53978
 C599 C 0.40196 0.29897 0.49847
 C600 C 0.41582 0.33503 0.49846
 C601 C 0.43300 0.37685 0.49904
 C602 C 0.44909 0.41191 0.49978
 H603 H 0.40145 0.24785 0.56735
 H604 H 0.36655 0.25359 0.43166
 H605 H 0.33606 0.18114 0.43430
 H606 H 0.37177 0.17525 0.57024
   
