data_POSCAR
  _audit_creation_date              2014-09-24
  _audit_creation_method            'ToBaCCo'
  _symmetry_space_group_name_H-M    'P1'
  _symmetry_Int_Tables_number       1
  _symmetry_cell_setting            triclinic
  loop_
  _symmetry_equiv_pos_as_xyz
 x,y,z
_cell_length_a 43.5349
_cell_length_b 33.8500
_cell_length_c 35.1920
_cell_angle_alpha 89.832100
_cell_angle_beta 90.085900
_cell_angle_gamma 91.371100
loop_
  _atom_site_label
  _atom_site_type_symbol
  _atom_site_fract_x
  _atom_site_fract_y
  _atom_site_fract_z
C1 C 0.26328 0.25686 0.25278
 C2 C 0.27127 0.22164 0.23748
 C3 C 0.25430 0.20495 0.20448
 C4 C 0.29650 0.19761 0.25271
 C5 C 0.28143 0.27615 0.28353
 C6 C 0.23646 0.27826 0.23762
 C7 C 0.23459 0.17222 0.20929
 C8 C 0.21569 0.15916 0.17953
 C9 C 0.21626 0.17811 0.14337
 C10 C 0.23821 0.20962 0.13875
 C11 C 0.25650 0.22301 0.16889
 C12 C 0.29634 0.18436 0.29055
 C13 C 0.31836 0.15780 0.30311
 C14 C 0.34075 0.14399 0.27794
 C15 C 0.34150 0.15868 0.24055
 C16 C 0.31949 0.18499 0.22802
 C17 C 0.31315 0.28345 0.27950
 C18 C 0.32999 0.30161 0.30875
 C19 C 0.31538 0.31287 0.34249
 C20 C 0.28353 0.30611 0.34613
 C21 C 0.26670 0.28813 0.31682
 C22 C 0.24089 0.31503 0.21971
 C23 C 0.21693 0.33186 0.19918
 C24 C 0.18838 0.31191 0.19611
 C25 C 0.18342 0.27644 0.21616
 C26 C 0.20713 0.26007 0.23726
 H27 H 0.23268 0.15797 0.23682
 H28 H 0.19963 0.13563 0.18670
 H29 H 0.24238 0.22415 0.11190
 H30 H 0.27226 0.24787 0.16456
 H31 H 0.27850 0.19336 0.30987
 H32 H 0.31701 0.14674 0.33197
 H33 H 0.32004 0.19500 0.19876
 H34 H 0.32485 0.27512 0.25371
 H35 H 0.35451 0.30627 0.30522
 H36 H 0.27160 0.31501 0.37157
 H37 H 0.24220 0.28312 0.32028
 H38 H 0.26333 0.32956 0.21982
 H39 H 0.22121 0.35926 0.18390
 H40 H 0.16143 0.26085 0.21455
 H41 H 0.20312 0.23209 0.25162
 H42 H 0.35882 0.14925 0.22071
 C43 C 0.75944 0.23435 0.27243
 C44 C 0.75217 0.27321 0.27438
 C45 C 0.76630 0.30168 0.24718
 C46 C 0.73045 0.28824 0.30300
 C47 C 0.74109 0.20253 0.29179
 C48 C 0.78641 0.22212 0.24989
 C49 C 0.79104 0.32626 0.25831
 C50 C 0.80936 0.34527 0.23083
 C51 C 0.80274 0.34057 0.19188
 C52 C 0.77606 0.31895 0.18135
 C53 C 0.75823 0.29935 0.20871
 C54 C 0.73439 0.27937 0.34166
 C55 C 0.71347 0.29254 0.36858
 C56 C 0.68809 0.31477 0.35740
 C57 C 0.68453 0.32413 0.31865
 C58 C 0.70566 0.31126 0.29177
 C59 C 0.70882 0.20147 0.28969
 C60 C 0.69189 0.16989 0.30544
 C61 C 0.70691 0.13830 0.32278
 C62 C 0.73911 0.13939 0.32505
 C63 C 0.75602 0.17124 0.30982
 C64 C 0.78276 0.19645 0.21893
 C65 C 0.80838 0.18482 0.19815
 C66 C 0.83805 0.19849 0.20826
 C67 C 0.84147 0.22442 0.23919
 C68 C 0.81595 0.23581 0.25997
 H69 H 0.79761 0.32813 0.28796
 H70 H 0.82975 0.36147 0.24005
 H71 H 0.76964 0.31575 0.15177
 H72 H 0.73907 0.28058 0.19975
 H73 H 0.75371 0.26223 0.35097
 H74 H 0.71737 0.28557 0.39821
 H75 H 0.70222 0.31838 0.26207
 H76 H 0.69671 0.22446 0.27489
 H77 H 0.66710 0.16941 0.30280
 H78 H 0.75120 0.11546 0.33845
 H79 H 0.78085 0.17121 0.31168
 H80 H 0.76010 0.18543 0.21095
 H81 H 0.80506 0.16436 0.17484
 H82 H 0.86396 0.23576 0.24747
 H83 H 0.81923 0.25513 0.28417
 H84 H 0.66507 0.34072 0.30892
 C85 C 0.74281 0.78028 0.78051
 C86 C 0.75060 0.74140 0.78292
 C87 C 0.73378 0.71153 0.75946
 C88 C 0.77661 0.72725 0.80629
 C89 C 0.75606 0.81199 0.80555
 C90 C 0.72155 0.79272 0.74979
 C91 C 0.70206 0.70528 0.76446
 C92 C 0.68480 0.68469 0.73717
 C93 C 0.69901 0.67008 0.70445
 C94 C 0.73111 0.67395 0.70091
 C95 C 0.74842 0.69424 0.72843
 C96 C 0.77259 0.69348 0.82918
 C97 C 0.79651 0.68050 0.85221
 C98 C 0.82480 0.70125 0.85293
 C99 C 0.82919 0.73432 0.82924
 C100 C 0.80549 0.74677 0.80556
 C101 C 0.76268 0.84954 0.79016
 C102 C 0.77596 0.87937 0.81239
 C103 C 0.78406 0.87231 0.85058
 C104 C 0.77685 0.83484 0.86623
 C105 C 0.76207 0.80559 0.84436
 C106 C 0.72990 0.78750 0.71167
 C107 C 0.70866 0.79351 0.68271
 C108 C 0.67894 0.80589 0.69125
 C109 C 0.67120 0.81376 0.72920
 C110 C 0.69241 0.80708 0.75837
 H111 H 0.69044 0.71852 0.78828
 H112 H 0.66010 0.68233 0.74052
 H113 H 0.74263 0.66250 0.67616
 H114 H 0.77287 0.69892 0.72412
 H115 H 0.75068 0.67764 0.82985
 H116 H 0.79267 0.65491 0.87028
 H117 H 0.80950 0.77207 0.78717
 H118 H 0.75830 0.85570 0.76046
 H119 H 0.78169 0.90718 0.79856
 H120 H 0.78164 0.82844 0.89579
 H121 H 0.75580 0.77773 0.85773
 H122 H 0.75254 0.77723 0.70452
 H123 H 0.71529 0.78791 0.65359
 H124 H 0.64840 0.82343 0.73634
 H125 H 0.68572 0.81150 0.78765
 H126 H 0.85101 0.75038 0.82898
 C127 C 0.23454 0.74812 0.73849
 C128 C 0.22827 0.78603 0.72865
 C129 C 0.24740 0.80707 0.69996
 C130 C 0.20140 0.80635 0.74452
 C131 C 0.21987 0.72905 0.77192
 C132 C 0.25660 0.72499 0.71607
 C133 C 0.27880 0.81385 0.70700
 C134 C 0.29846 0.82542 0.67753
 C135 C 0.28702 0.83017 0.64051
 C136 C 0.25526 0.82571 0.63402
 C137 C 0.23550 0.81461 0.66369
 C138 C 0.20500 0.84245 0.76347
 C139 C 0.17973 0.86005 0.78056
 C140 C 0.15010 0.84190 0.77896
 C141 C 0.14676 0.80658 0.75780
 C142 C 0.17201 0.78915 0.74097
 C143 C 0.20015 0.69623 0.76748
 C144 C 0.18446 0.68017 0.79876
 C145 C 0.18858 0.69606 0.83573
 C146 C 0.20979 0.72820 0.83966
 C147 C 0.22487 0.74462 0.80819
 C148 C 0.25138 0.71885 0.67717
 C149 C 0.27417 0.70305 0.65440
 C150 C 0.30244 0.69243 0.67022
 C151 C 0.30688 0.69615 0.70966
 C152 C 0.28408 0.71238 0.73246
 H153 H 0.28831 0.80793 0.73485
 H154 H 0.32286 0.82838 0.68322
 H155 H 0.24590 0.82955 0.60575
 H156 H 0.21134 0.80923 0.65779
 H157 H 0.22758 0.85627 0.76627
 H158 H 0.18416 0.88664 0.79677
 H159 H 0.16862 0.76194 0.72522
 H160 H 0.19593 0.68403 0.73948
 H161 H 0.16806 0.65654 0.79293
 H162 H 0.21569 0.74064 0.86700
 H163 H 0.24056 0.76961 0.81213
 H164 H 0.23006 0.72780 0.66419
 H165 H 0.26990 0.69975 0.62423
 H166 H 0.32848 0.68818 0.72254
 H167 H 0.28846 0.71690 0.76245
 H168 H 0.12457 0.79239 0.75322
 O169 O 1.01548 -0.02002 -0.02959
 O170 O 0.98416 0.04355 0.04297
 O171 O 0.96154 -0.00058 -0.00975
 O172 O 1.03991 0.03785 0.01466
 O173 O 1.03364 0.08684 -0.02579
 O174 O 0.95768 0.04861 -0.05069
 O175 O 0.97951 0.09234 0.00157
 O176 O 1.01427 0.02839 -0.07172
 Cu177 Cu 1.00163 0.01106 0.00846
 Cu178 Cu 0.99639 0.06774 -0.04147
 C179 C 1.02004 -0.00724 -0.06296
 C180 C 0.97622 0.07837 0.03506
 C181 C 0.94617 0.01827 -0.03448
 C182 C 1.04966 0.06985 -0.00087
 O183 O 0.47077 0.52466 0.56712
 O184 O 0.52658 0.45194 0.53380
 O185 O 0.53046 0.51892 0.57014
 O186 O 0.46707 0.45700 0.53234
 O187 O 0.47091 0.48761 0.47706
 O188 O 0.53426 0.55015 0.51518
 O189 O 0.53038 0.48372 0.47912
 O190 O 0.47455 0.55557 0.51202
 Cu191 Cu 0.49836 0.48507 0.55640
 Cu192 Cu 0.50279 0.52250 0.49040
 C193 C 0.46303 0.55251 0.54505
 C194 C 0.53805 0.45551 0.50071
 C195 C 0.54339 0.54491 0.54911
 C196 C 0.45825 0.46144 0.49822
 O197 O -0.01726 0.56293 0.03245
 O198 O 0.03642 0.49035 0.07105
 O199 O 0.04172 0.55714 0.03377
 O200 O -0.02345 0.49615 0.06942
 O201 O -0.02477 0.46365 0.01518
 O202 O 0.04000 0.52463 -0.02046
 O203 O 0.03434 0.45780 0.01683
 O204 O -0.01949 0.52998 -0.02157
 Cu205 Cu 0.00957 0.52976 0.05722
 Cu206 Cu 0.00746 0.49076 -0.00793
 C207 C -0.02740 0.55896 -0.00123
 C208 C 0.04436 0.46147 0.05058
 C209 C 0.05163 0.55177 0.00028
 C210 C -0.03524 0.46940 0.04830
 O211 O 0.48156 0.98207 0.44088
 O212 O 0.53001 0.92681 0.50805
 O213 O 0.54030 0.97761 0.45297
 O214 O 0.47099 0.93245 0.49625
 O215 O 0.47206 0.88400 0.45451
 O216 O 0.54316 0.92711 0.41371
 O217 O 0.53051 0.87700 0.46782
 O218 O 0.48482 0.93316 0.39992
 Cu219 Cu 0.50558 0.95966 0.47872
 Cu220 Cu 0.50786 0.90035 0.42998
 C221 C 0.47511 0.96698 0.40871
 C222 C 0.53836 0.89223 0.49938
 C223 C 0.55361 0.96004 0.42599
 C224 C 0.45938 0.90085 0.48242
 C225 C 1.15660 0.12279 0.08792
 C226 C 1.15354 0.14754 0.05740
 C227 C 1.17063 0.18227 0.05339
 C228 C 1.19176 0.19217 0.08209
 C229 C 1.19617 0.16724 0.11468
 C230 C 1.17791 0.13144 0.11653
 O231 O 1.13670 0.09238 0.08748
 C232 C 1.12064 0.09831 0.05594
 C233 C 1.13024 0.13159 0.03641
 C234 C 1.11593 0.14455 0.00355
 C235 C 1.09024 0.12276 -0.00934
 C236 C 1.07916 0.08884 0.01080
 C237 C 1.09506 0.07605 0.04360
 H238 H 1.16711 0.20188 0.02951
 H239 H 1.20296 0.22071 0.07890
 H240 H 1.17985 0.10981 0.13887
 H241 H 1.12380 0.17103 -0.01114
 H242 H 1.07848 0.13311 -0.03447
 H243 H 1.08698 0.05076 0.05997
 C244 C 0.63653 0.61539 0.64988
 C245 C 0.64226 0.62891 0.61362
 C246 C 0.66667 0.65463 0.60500
 C247 C 0.68579 0.66709 0.63504
 C248 C 0.68007 0.65402 0.67282
 C249 C 0.65508 0.62764 0.68018
 O250 O 0.61222 0.59109 0.65203
 C251 C 0.60234 0.58930 0.61638
 C252 C 0.61981 0.61202 0.59175
 C253 C 0.61323 0.61474 0.55315
 C254 C 0.58772 0.59293 0.53937
 C255 C 0.56954 0.56885 0.56415
 C256 C 0.57706 0.56723 0.60328
 H257 H 0.67069 0.66500 0.57628
 H258 H 0.70449 0.68784 0.62907
 H259 H 0.65015 0.61712 0.70867
 H260 H 0.62724 0.63293 0.53432
 H261 H 0.58239 0.59449 0.50935
 H262 H 0.56367 0.54932 0.62303
 C263 C -0.13558 0.40055 0.13975
 C264 C -0.13180 0.37747 0.10811
 C265 C -0.14873 0.34283 0.10183
 C266 C -0.17040 0.33136 0.12936
 C267 C -0.17512 0.35470 0.16232
 C268 C -0.15733 0.38998 0.16735
 O269 O -0.11640 0.43166 0.14074
 C270 C -0.10021 0.42805 0.10901
 C271 C -0.10885 0.39544 0.08801
 C272 C -0.09482 0.38568 0.05400
 C273 C -0.07082 0.41054 0.04104
 C274 C -0.06114 0.44427 0.06226
 C275 C -0.07620 0.45309 0.09679
 H276 H -0.14497 0.32485 0.07696
 H277 H -0.18286 0.30364 0.12535
 H278 H -0.16016 0.40856 0.19201
 H279 H -0.10202 0.35976 0.03807
 H280 H -0.05957 0.40317 0.01467
 H281 H -0.06942 0.47852 0.11369
 C282 C 0.35461 0.86672 0.58209
 C283 C 0.35174 0.84277 0.55071
 C284 C 0.32766 0.81542 0.54627
 C285 C 0.30582 0.81243 0.57553
 C286 C 0.30859 0.83638 0.60847
 C287 C 0.33331 0.86407 0.61157
 O288 O 0.37929 0.89044 0.58102
 C289 C 0.39237 0.88119 0.54831
 C290 C 0.37653 0.85208 0.52872
 C291 C 0.38665 0.83733 0.49421
 C292 C 0.41414 0.85336 0.47924
 C293 C 0.43075 0.88372 0.49876
 C294 C 0.41955 0.89774 0.53385
 H295 H 0.32596 0.79670 0.52143
 H296 H 0.28732 0.79061 0.57311
 H297 H 0.33605 0.88265 0.63640
 H298 H 0.37390 0.81423 0.47940
 H299 H 0.42231 0.84232 0.45234
 H300 H 0.43172 0.92065 0.54963
 C301 C -0.11859 0.63852 -0.09444
 C302 C -0.10606 0.66582 -0.06961
 C303 C -0.11455 0.70519 -0.06933
 C304 C -0.13698 0.71679 -0.09555
 C305 C -0.15064 0.68895 -0.12089
 C306 C -0.14124 0.64927 -0.12028
 O307 O -0.10701 0.60283 -0.09055
 C308 C -0.08685 0.60761 -0.06253
 C309 C -0.08554 0.64550 -0.04849
 C310 C -0.06636 0.65671 -0.01856
 C311 C -0.04767 0.62772 -0.00261
 C312 C -0.04816 0.58863 -0.01715
 C313 C -0.06812 0.57855 -0.04756
 H314 H -0.10430 0.72619 -0.04964
 H315 H -0.14418 0.74720 -0.09569
 H316 H -0.15118 0.62752 -0.13948
 H317 H -0.06583 0.68666 -0.00784
 H318 H -0.03241 0.63591 0.02054
 H319 H -0.06916 0.54893 -0.05911
 C320 C 0.39482 1.08155 0.33596
 C321 C 0.40057 1.05201 0.31039
 C322 C 0.38785 1.05086 0.27420
 C323 C 0.36835 1.08144 0.26387
 C324 C 0.36199 1.11248 0.28959
 C325 C 0.37547 1.11236 0.32628
 O326 O 0.40900 1.07669 0.36905
 C327 C 0.42396 1.04332 0.36419
 C328 C 0.41952 1.02711 0.32877
 C329 C 0.43263 0.99198 0.31767
 C330 C 0.45104 0.97261 0.34421
 C331 C 0.45604 0.98855 0.38109
 C332 C 0.44230 1.02462 0.39106
 H333 H 0.39255 1.02708 0.25471
 H334 H 0.35776 1.08048 0.23602
 H335 H 0.37119 1.13558 0.34654
 H336 H 0.42870 0.97979 0.28963
 H337 H 0.46131 0.94512 0.33596
 H338 H 0.44550 1.03752 0.41895
 C339 C 1.09915 -0.08812 -0.16975
 C340 C 1.07577 -0.11361 -0.15896
 C341 C 1.07516 -0.15338 -0.16820
 C342 C 1.09968 -0.16768 -0.18940
 C343 C 1.12471 -0.14237 -0.20109
 C344 C 1.12391 -0.10163 -0.19091
 O345 O 1.09595 -0.05174 -0.15638
 C346 C 1.07006 -0.05455 -0.13647
 C347 C 1.05690 -0.09191 -0.13715
 C348 C 1.03098 -0.10247 -0.11614
 C349 C 1.01842 -0.07355 -0.09285
 C350 C 1.03160 -0.03487 -0.09138
 C351 C 1.05745 -0.02493 -0.11408
 H352 H 1.05677 -0.17302 -0.15857
 H353 H 1.09957 -0.19914 -0.19454
 H354 H 1.14163 -0.08052 -0.19940
 H355 H 1.02139 -0.13226 -0.11667
 H356 H 0.99878 -0.08142 -0.07529
 H357 H 1.06842 0.00407 -0.11255
 C358 C 0.63026 0.37655 0.40939
 C359 C 0.62295 0.35225 0.43959
 C360 C 0.63589 0.31544 0.44457
 C361 C 0.65724 0.30326 0.41734
 C362 C 0.66540 0.32797 0.38600
 C363 C 0.65157 0.36524 0.38224
 O364 O 0.61514 0.41009 0.40950
 C365 C 0.59790 0.40693 0.44044
 C366 C 0.60184 0.37220 0.46001
 C367 C 0.58600 0.36310 0.49336
 C368 C 0.56519 0.39088 0.50694
 C369 C 0.56048 0.42673 0.48693
 C370 C 0.57725 0.43472 0.45321
 H371 H 0.62961 0.29663 0.46838
 H372 H 0.66702 0.27434 0.42046
 H373 H 0.65740 0.38515 0.35909
 H374 H 0.58949 0.33560 0.50835
 H375 H 0.55254 0.38424 0.53274
 H376 H 0.57436 0.46179 0.43728
 C377 C 0.84118 -0.07836 -0.08520
 C378 C 0.83555 -0.03944 -0.09311
 C379 C 0.81237 -0.02779 -0.11748
 C380 C 0.79460 -0.05745 -0.13519
 C381 C 0.79993 -0.09822 -0.12816
 C382 C 0.82310 -0.10848 -0.10155
 O383 O 0.86655 -0.08308 -0.06473
 C384 C 0.87712 -0.04629 -0.05970
 C385 C 0.85877 -0.01855 -0.07633
 C386 C 0.86664 0.02140 -0.07762
 C387 C 0.89491 0.03325 -0.06187
 C388 C 0.91479 0.00524 -0.04544
 C389 C 0.90536 -0.03505 -0.04346
 H390 H 0.80875 0.00309 -0.12372
 H391 H 0.77654 -0.04838 -0.15426
 H392 H 0.82893 -0.13893 -0.09634
 H393 H 0.85206 0.04253 -0.09149
 H394 H 0.90175 0.06418 -0.06359
 H395 H 0.92039 -0.05721 -0.03205
 C396 C 0.37282 0.37665 0.39683
 C397 C 0.36692 0.36440 0.43345
 C398 C 0.34458 0.33581 0.44228
 C399 C 0.32762 0.31916 0.41212
 C400 C 0.33331 0.33115 0.37401
 C401 C 0.35633 0.36038 0.36641
 O402 O 0.39509 0.40403 0.39456
 C403 C 0.40349 0.40911 0.43053
 C404 C 0.38701 0.38551 0.45544
 C405 C 0.39239 0.38559 0.49438
 C406 C 0.41580 0.41092 0.50821
 C407 C 0.43319 0.43564 0.48313
 C408 C 0.42672 0.43473 0.44368
 H409 H 0.34044 0.32653 0.47132
 H410 H 0.31039 0.29648 0.41840
 H411 H 0.36109 0.37041 0.33773
 H412 H 0.37918 0.36665 0.51341
 H413 H 0.42036 0.41120 0.53846
 H414 H 0.43965 0.45295 0.42372
 C415 C 0.13967 0.62970 -0.10233
 C416 C 0.13694 0.65281 -0.07064
 C417 C 0.15072 0.69001 -0.06776
 C418 C 0.16794 0.70411 -0.09885
 C419 C 0.17163 0.68091 -0.13244
 C420 C 0.15710 0.64267 -0.13335
 O421 O 0.12356 0.59598 -0.10014
 C422 C 0.11030 0.59797 -0.06629
 C423 C 0.11790 0.63206 -0.04695
 C424 C 0.10594 0.64066 -0.01139
 C425 C 0.08494 0.61326 0.00463
 C426 C 0.07609 0.57828 -0.01519
 C427 C 0.08937 0.57044 -0.05103
 H428 H 0.14764 0.70810 -0.04280
 H429 H 0.17692 0.73401 -0.09670
 H430 H 0.15937 0.62265 -0.15693
 H431 H 0.11215 0.66779 0.00322
 H432 H 0.07493 0.61992 0.03195
 H433 H 0.08302 0.54425 -0.06707
 C434 C 0.64560 1.07468 0.37026
 C435 C 0.65452 1.03763 0.35951
 C436 C 0.68061 1.03145 0.33778
 C437 C 0.69811 1.06483 0.32651
 C438 C 0.68909 1.10341 0.33670
 C439 C 0.66246 1.10827 0.35903
 O440 O 0.61999 1.07416 0.39067
 C441 C 0.61248 1.03598 0.39268
 C442 C 0.63274 1.01237 0.37391
 C443 C 0.62856 0.97159 0.37127
 C444 C 0.60240 0.95451 0.38862
 C445 C 0.58132 0.97823 0.40848
 C446 C 0.58664 1.01957 0.41066
 H447 H 0.68713 1.00203 0.32955
 H448 H 0.71826 1.06074 0.30908
 H449 H 0.65506 1.13733 0.36729
 H450 H 0.64467 0.95364 0.35604
 H451 H 0.59862 0.92284 0.38671
 H452 H 0.57077 1.03853 0.42513
 C453 C 0.13322 0.37785 0.14442
 C454 C 0.12200 0.35214 0.11724
 C455 C 0.13101 0.31308 0.11485
 C456 C 0.15254 0.30003 0.14151
 C457 C 0.16478 0.32612 0.16950
 C458 C 0.15501 0.36565 0.17086
 O459 O 0.12129 0.41352 0.14204
 C460 C 0.10225 0.41029 0.11264
 C461 C 0.10200 0.37342 0.09630
 C462 C 0.08409 0.36375 0.06479
 C463 C 0.06554 0.39325 0.04958
 C464 C 0.06494 0.43138 0.06628
 C465 C 0.08364 0.43990 0.09832
 H466 H 0.12183 0.29339 0.09325
 H467 H 0.16015 0.26983 0.13998
 H468 H 0.16397 0.38609 0.19198
 H469 H 0.08439 0.33457 0.05235
 H470 H 0.05129 0.38617 0.02518
 H471 H 0.08382 0.46873 0.11159
 C472 C 0.61876 0.84529 0.62458
 C473 C 0.61538 0.81390 0.60005
 C474 C 0.63130 0.77905 0.60433
 C475 C 0.65180 0.77661 0.63495
 C476 C 0.65591 0.80865 0.66053
 C477 C 0.63879 0.84330 0.65554
 O478 O 0.60243 0.87626 0.61440
 C479 C 0.58850 0.86415 0.58275
 C480 C 0.59563 0.82618 0.57285
 C481 C 0.58445 0.80800 0.54015
 C482 C 0.56524 0.82990 0.51651
 C483 C 0.55763 0.86932 0.52577
 C484 C 0.56934 0.88650 0.55967
 H485 H 0.62840 0.75485 0.58451
 H486 H 0.66463 0.74987 0.63871
 H487 H 0.64181 0.86834 0.67437
 H488 H 0.59058 0.77817 0.53284
 H489 H 0.55657 0.81616 0.49077
 H490 H 0.56425 0.91656 0.56746
 C491 C 0.89146 0.16383 0.13087
 C492 C 0.91664 0.15412 0.15228
 C493 C 0.91785 0.15878 0.19145
 C494 C 0.89202 0.17404 0.20941
 C495 C 0.86556 0.18416 0.18816
 C496 C 0.86545 0.17910 0.14817
 O497 O 0.89446 0.15497 0.09430
 C498 C 0.92206 0.13913 0.09271
 C499 C 0.93651 0.13793 0.12750
 C500 C 0.96451 0.11996 0.13314
 C501 C 0.97792 0.10175 0.10179
 C502 C 0.96344 0.10228 0.06569
 C503 C 0.93541 0.12194 0.06083
 H504 H 0.93775 0.15023 0.20772
 H505 H 0.89234 0.17685 0.24004
 H506 H 0.84564 0.18637 0.13113
 H507 H 0.97512 0.11880 0.16094
 H508 H 0.99926 0.08643 0.10573
 H509 H 0.92351 0.12164 0.03378
 C510 C 0.36797 0.63430 0.62995
 C511 C 0.37344 0.65473 0.59669
 C512 C 0.35699 0.68772 0.58615
 C513 C 0.33381 0.70000 0.61079
 C514 C 0.32752 0.67930 0.64519
 C515 C 0.34514 0.64615 0.65500
 O516 O 0.38573 0.60322 0.63414
 C517 C 0.40274 0.60406 0.60284
 C518 C 0.39613 0.63501 0.57903
 C519 C 0.41075 0.64102 0.54435
 C520 C 0.43300 0.61390 0.53364
 C521 C 0.44020 0.58149 0.55755
 C522 C 0.42486 0.57678 0.59282
 H523 H 0.36169 0.70329 0.55981
 H524 H 0.32084 0.72577 0.60317
 H525 H 0.34070 0.62958 0.68085
 H526 H 0.40505 0.66553 0.52603
 H527 H 0.44444 0.61808 0.50658
 H528 H 0.42961 0.55231 0.61165
   
