data_POSCAR
  _audit_creation_date              2014-09-24
  _audit_creation_method            'ToBaCCo'
  _symmetry_space_group_name_H-M    'P1'
  _symmetry_Int_Tables_number       1
  _symmetry_cell_setting            triclinic
  loop_
  _symmetry_equiv_pos_as_xyz
 x,y,z
_cell_length_a 48.0582
_cell_length_b 49.3951
_cell_length_c 46.2216
_cell_angle_alpha 91.668500
_cell_angle_beta 89.855400
_cell_angle_gamma 92.795800
loop_
  _atom_site_label
  _atom_site_type_symbol
  _atom_site_fract_x
  _atom_site_fract_y
  _atom_site_fract_z
C1 C 0.20649 0.52321 1.03621
 H2 H 0.20634 0.53918 1.02069
 C3 C 0.18720 0.52262 1.05885
 H4 H 0.17224 0.53829 1.06086
 C5 C 0.22549 0.48269 1.05187
 H6 H 0.23995 0.46682 1.04868
 C7 C 0.20656 0.48133 1.07482
 H8 H 0.20676 0.46452 1.08938
 N9 N 0.22516 0.50347 1.03318
 C10 C 0.29194 0.53850 0.97980
 H11 H 0.29244 0.52317 0.96263
 C12 C 0.31077 0.56093 0.97961
 H13 H 0.32586 0.56293 0.96226
 C14 C 0.27204 0.55442 1.02373
 H15 H 0.25722 0.55161 1.04111
 C16 C 0.29053 0.57717 1.02438
 H17 H 0.28978 0.59189 1.04217
 Zn18 Zn 0.24859 0.50442 1.00024
 N19 N 0.27292 0.53577 1.00150
 C20 C 0.22652 0.52524 0.94876
 N21 N 0.22488 0.50459 0.96766
 C22 C 0.20483 0.48425 0.96501
 C23 C 0.18548 0.48404 0.94251
 C24 C 0.20757 0.52580 0.92595
 C25 C 0.28982 0.47144 1.02002
 C26 C 0.30689 0.44936 1.02000
 C27 C 0.28501 0.43267 0.97552
 C28 C 0.26831 0.45507 0.97637
 N29 N 0.27078 0.47374 0.99859
 H30 H 0.24210 0.54158 0.95164
 H31 H 0.20368 0.46837 0.98067
 H32 H 0.16944 0.46790 0.94070
 H33 H 0.20880 0.54244 0.91116
 H34 H 0.29162 0.48679 1.03719
 H35 H 0.32191 0.44764 1.03721
 H36 H 0.28290 0.41787 0.95781
 H37 H 0.25354 0.45754 0.95920
 C38 C 0.31002 0.58046 1.00209
 C39 C 0.18715 0.50140 1.07825
 C40 C 0.30439 0.42976 0.99759
 C41 C 0.18682 0.50507 0.92289
 C42 C 0.79426 0.51737 -0.03211
 H43 H 0.79530 0.53238 -0.01457
 C44 C 0.81346 0.51901 -0.05474
 H45 H 0.82930 0.53538 -0.05475
 C46 C 0.77275 0.47730 -0.05320
 H47 H 0.75720 0.46081 -0.05222
 C48 C 0.79161 0.47817 -0.07628
 H49 H 0.79037 0.46250 -0.09318
 N50 N 0.77431 0.49687 -0.03183
 C51 C 0.70973 0.52894 0.02418
 H52 H 0.70809 0.51355 0.04036
 C53 C 0.69254 0.55095 0.02578
 H54 H 0.67762 0.55260 0.04327
 C55 C 0.73073 0.54538 -0.01879
 H56 H 0.74524 0.54293 -0.03643
 C57 C 0.71394 0.56769 -0.01800
 H58 H 0.71576 0.58243 -0.03489
 Zn59 Zn 0.75059 0.49590 0.00086
 N60 N 0.72853 0.52668 0.00227
 C61 C 0.77401 0.51523 0.05479
 N62 N 0.77411 0.49554 0.03355
 C63 C 0.79255 0.47551 0.03391
 C64 C 0.81170 0.47453 0.05643
 C65 C 0.79287 0.51500 0.07776
 C66 C 0.70733 0.46201 -0.02253
 C67 C 0.68835 0.43967 -0.02419
 C68 C 0.70828 0.42315 0.01948
 C69 C 0.72690 0.44578 0.02033
 N70 N 0.72623 0.46455 -0.00063
 H71 H 0.75969 0.53135 0.05375
 H72 H 0.79249 0.46042 0.01646
 H73 H 0.82638 0.45857 0.05647
 H74 H 0.79283 0.53079 0.09452
 H75 H 0.70695 0.47746 -0.03863
 H76 H 0.67329 0.43786 -0.04163
 H77 H 0.70883 0.40839 0.03633
 H78 H 0.74156 0.44846 0.03795
 C79 C 0.69471 0.57051 0.00450
 C80 C 0.81214 0.49922 -0.07699
 C81 C 0.68885 0.42008 -0.00298
 C82 C 0.81190 0.49448 0.07851
 C83 C -0.02867 0.28234 0.48559
 H84 H -0.04468 0.28340 0.50202
 C85 C -0.02873 0.29970 0.46230
 H86 H -0.04491 0.31413 0.46075
 C87 C 0.01243 0.26277 0.46799
 H88 H 0.02875 0.24879 0.47060
 C89 C 0.01317 0.27978 0.44435
 H90 H 0.02994 0.27861 0.42871
 N91 N -0.00841 0.26423 0.48791
 C92 C -0.04510 0.20198 0.54332
 H93 H -0.02980 0.20218 0.56046
 C94 C -0.06809 0.18355 0.54370
 H95 H -0.07056 0.16949 0.56118
 C96 C -0.06018 0.21939 0.49902
 H97 H -0.05675 0.23294 0.48132
 C98 C -0.08344 0.20130 0.49857
 H99 H -0.09791 0.20112 0.48062
 Zn100 Zn -0.00921 0.24281 0.52119
 N101 N -0.04165 0.21950 0.52127
 C102 C -0.02945 0.26697 0.57353
 N103 N -0.00867 0.26722 0.55344
 C104 C 0.01257 0.28645 0.55449
 C105 C 0.01359 0.30643 0.57644
 C106 C -0.02925 0.28667 0.59588
 C107 C 0.02416 0.20178 0.50022
 C108 C 0.04700 0.18535 0.49910
 C109 C 0.06476 0.20819 0.54269
 C110 C 0.04159 0.22421 0.54299
 N111 N 0.02209 0.22102 0.52169
 H112 H -0.04651 0.25194 0.57190
 H113 H 0.02851 0.28646 0.53791
 H114 H 0.03040 0.32188 0.57687
 H115 H -0.04605 0.28666 0.61155
 H116 H 0.00815 0.19942 0.48380
 H117 H 0.04864 0.17026 0.48178
 H118 H 0.08030 0.21096 0.55959
 H119 H 0.03926 0.23914 0.56025
 C120 C -0.08738 0.18319 0.52106
 C121 C -0.00759 0.29843 0.44152
 C122 C 0.06755 0.18872 0.52044
 C123 C -0.00758 0.30663 0.59722
 C124 C 0.98911 0.71562 0.51151
 H125 H 0.97356 0.71336 0.49462
 C126 C 0.98808 0.69816 0.53471
 H127 H 0.97165 0.68239 0.53579
 C128 C 1.02990 0.73856 0.53049
 H129 H 1.04644 0.75399 0.52851
 C130 C 1.02964 0.72149 0.55408
 H131 H 1.04584 0.72397 0.57033
 N132 N 1.00964 0.73549 0.50995
 C133 C 0.97433 0.79545 0.45514
 H134 H 0.98987 0.79692 0.43821
 C135 C 0.95124 0.81156 0.45460
 H136 H 0.94890 0.82548 0.43719
 C137 C 0.95862 0.77602 0.49896
 H138 H 0.96180 0.76258 0.51652
 C139 C 0.93526 0.79175 0.49925
 H140 H 0.92044 0.79017 0.51689
 Zn141 Zn 1.00968 0.75736 0.47705
 N142 N 0.97747 0.77796 0.47698
 C143 C 0.98934 0.73211 0.42452
 N144 N 1.01025 0.73347 0.44440
 C145 C 1.03125 0.71597 0.44303
 C146 C 1.03174 0.69603 0.42106
 C147 C 0.98902 0.71242 0.40217
 C148 C 1.04283 0.80100 0.49920
 C149 C 1.06553 0.81969 0.50091
 C150 C 1.08421 0.79912 0.45740
 C151 C 1.06114 0.78077 0.45651
 N152 N 1.04120 0.78184 0.47744
 H153 H 0.97246 0.74570 0.42641
 H154 H 1.04727 0.71715 0.45948
 H155 H 1.04824 0.68185 0.42047
 H156 H 0.97201 0.71104 0.38678
 H157 H 1.02648 0.80162 0.51531
 H158 H 1.06672 0.83482 0.51837
 H159 H 1.10003 0.79816 0.44072
 H160 H 1.05917 0.76580 0.43904
 C161 C 0.93154 0.80964 0.47687
 C162 C 1.00851 0.70115 0.55618
 C163 C 1.08645 0.81867 0.47988
 C164 C 1.01031 0.69411 0.40060
 C165 C 0.46623 -0.01185 0.28725
 H166 H 0.48156 -0.02716 0.28753
 C167 C 0.44463 -0.01223 0.30753
 H168 H 0.44320 -0.02795 0.32339
 C169 C 0.44986 0.02794 0.26691
 H170 H 0.45231 0.04390 0.25149
 C171 C 0.42794 0.02830 0.28682
 H172 H 0.41342 0.04439 0.28648
 N173 N 0.46840 0.00798 0.26742
 C174 C 0.51925 -0.02504 0.19770
 H175 H 0.53543 -0.00908 0.19659
 C176 C 0.51965 -0.04745 0.17861
 H177 H 0.53625 -0.04878 0.16279
 C178 C 0.47771 -0.04263 0.21949
 H179 H 0.46121 -0.04050 0.23517
 C180 C 0.47730 -0.06540 0.20079
 H181 H 0.46059 -0.08084 0.20235
 Zn182 Zn 0.49975 0.00819 0.24249
 N183 N 0.49867 -0.02317 0.21784
 C184 C 0.54981 -0.01120 0.26513
 N185 N 0.53165 0.00911 0.26657
 C186 C 0.53452 0.02956 0.28689
 C187 C 0.55639 0.03015 0.30679
 C188 C 0.57197 -0.01137 0.28461
 C189 C 0.47929 0.03978 0.19897
 C190 C 0.47872 0.06127 0.18004
 C191 C 0.52164 0.07994 0.20128
 C192 C 0.52141 0.05808 0.21985
 N193 N 0.50029 0.03868 0.21852
 H194 H 0.54680 -0.02765 0.24938
 H195 H 0.51947 0.04514 0.28792
 H196 H 0.55832 0.04630 0.32312
 H197 H 0.58611 -0.02780 0.28358
 H198 H 0.46300 0.02387 0.19808
 H199 H 0.46189 0.06200 0.16457
 H200 H 0.53850 0.09530 0.20243
 H201 H 0.53823 0.05654 0.23508
 C202 C 0.49852 -0.06787 0.18021
 C203 C 0.42538 0.00809 0.30737
 C204 C 0.50007 0.08153 0.18122
 C205 C 0.57519 0.00940 0.30572
 C206 C 0.53390 -0.02936 0.71259
 H207 H 0.51744 -0.04511 0.71191
 C208 C 0.55570 -0.03009 0.69263
 H209 H 0.55615 -0.04651 0.67661
 C210 C 0.55301 0.01175 0.73373
 H211 H 0.55156 0.02829 0.74937
 C212 C 0.57522 0.01180 0.71411
 H213 H 0.59098 0.02825 0.71489
 N214 N 0.53298 -0.00874 0.73269
 C215 C 0.47912 -0.04177 0.80073
 H216 H 0.46322 -0.02700 0.80163
 C217 C 0.47812 -0.06320 0.81987
 H218 H 0.46134 -0.06503 0.83549
 C219 C 0.52089 -0.05708 0.77986
 H220 H 0.53784 -0.05435 0.76469
 C221 C 0.52066 -0.07878 0.79860
 H222 H 0.53729 -0.09282 0.79757
 Zn223 Zn 0.50126 -0.00871 0.75707
 N224 N 0.50021 -0.03919 0.78113
 C225 C 0.44932 -0.02947 0.73307
 N226 N 0.46989 -0.00954 0.73229
 C227 C 0.46963 0.01026 0.71245
 C228 C 0.44784 0.01084 0.69264
 C229 C 0.42709 -0.02964 0.71356
 C230 C 0.52274 0.02646 0.80134
 C231 C 0.52354 0.04895 0.82046
 C232 C 0.48122 0.06333 0.79877
 C233 C 0.48120 0.04061 0.78007
 N234 N 0.50190 0.02283 0.78151
 H235 H 0.45023 -0.04536 0.74855
 H236 H 0.48648 0.02560 0.71204
 H237 H 0.44781 0.02673 0.67696
 H238 H 0.41077 -0.04553 0.71425
 H239 H 0.53867 0.01178 0.80236
 H240 H 0.54016 0.05168 0.83621
 H241 H 0.46462 0.07732 0.79753
 H242 H 0.46443 0.03706 0.76473
 C243 C 0.49912 -0.08184 0.81881
 C244 C 0.57650 -0.00928 0.69333
 C245 C 0.50256 0.06754 0.81914
 C246 C 0.42638 -0.00927 0.69319
 C247 C 0.23127 0.04266 0.50642
 C248 C 0.25014 0.03918 0.53262
 C249 C 0.26612 0.01715 0.52992
 C250 C 0.26184 0.00061 0.50143
 C251 C 0.25096 0.04356 0.48026
 C252 C 0.26693 0.02151 0.47774
 C253 C 0.21435 0.01572 0.50287
 C254 C 0.23033 -0.00622 0.50025
 H255 H 0.25121 0.05312 0.55125
 H256 H 0.27484 -0.01735 0.49931
 H257 H 0.25233 0.06016 0.46533
 H258 H 0.19172 0.01412 0.50237
 C259 C 0.76969 -0.04238 0.49307
 C260 C 0.75039 -0.04340 0.51953
 C261 C 0.73442 -0.02137 0.52243
 C262 C 0.73913 -0.00038 0.49877
 C263 C 0.75044 -0.03880 0.46721
 C264 C 0.73446 -0.01682 0.47027
 C265 C 0.78663 -0.01542 0.49651
 C266 C 0.77065 0.00649 0.49951
 H267 H 0.74928 -0.06005 0.53442
 H268 H 0.72613 0.01756 0.50117
 H269 H 0.74913 -0.05267 0.44852
 H270 H 0.80927 -0.01383 0.49686
 C271 C 0.45961 0.27481 0.99728
 C272 C 0.46145 0.25475 0.97144
 C273 C 0.48460 0.23981 0.97198
 C274 C 0.50380 0.24627 0.99810
 C275 C 0.46139 0.25741 1.02412
 C276 C 0.48453 0.24245 1.02445
 C277 C 0.48698 0.29194 0.99686
 C278 C 0.51004 0.27705 0.99728
 H279 H 0.44534 0.25174 0.95504
 H280 H 0.52271 0.23419 0.99846
 H281 H 0.44517 0.25594 1.04050
 H282 H 0.48805 0.31395 0.99623
 C283 C 0.53908 0.72525 0.00367
 C284 C 0.53760 0.74285 -0.02305
 C285 C 0.51459 0.75801 -0.02338
 C286 C 0.49517 0.75417 0.00283
 C287 C 0.53728 0.74516 0.02963
 C288 C 0.51428 0.76031 0.02909
 C289 C 0.51157 0.70833 0.00382
 C290 C 0.48865 0.72342 0.00339
 H291 H 0.55386 0.74424 -0.03938
 H292 H 0.47637 0.76641 0.00249
 H293 H 0.55336 0.74799 0.04608
 H294 H 0.51031 0.68631 0.00421
 C295 C 0.99880 0.45396 0.27921
 C296 C 0.97329 0.45453 0.25941
 C297 C 0.97415 0.47612 0.24165
 C298 C 1.00027 0.49513 0.24517
 C299 C 1.02399 0.45483 0.25877
 C300 C 1.02467 0.47642 0.24101
 C301 C 1.00016 0.48150 0.29543
 C302 C 1.00092 0.50298 0.27756
 H303 H 0.95624 0.43925 0.25934
 H304 H 1.00089 0.51271 0.23066
 H305 H 1.03976 0.43979 0.25835
 H306 H 1.00049 0.48380 0.31888
 C307 C 0.00139 0.54548 0.72056
 C308 C -0.02408 0.54456 0.74062
 C309 C -0.02498 0.52296 0.75837
 C310 C -0.00050 0.50429 0.75457
 C311 C 0.02662 0.54494 0.74073
 C312 C 0.02554 0.52335 0.75849
 C313 C 0.00028 0.51795 0.70432
 C314 C -0.00072 0.49646 0.72218
 H315 H -0.03986 0.55960 0.74083
 H316 H -0.00129 0.48671 0.76908
 H317 H 0.04360 0.56030 0.74112
 H318 H 0.00012 0.51565 0.68087
 C319 C 0.09133 0.17213 0.51952
 C320 C 0.11109 0.15800 0.51852
 C321 C 0.13431 0.14071 0.51707
 C322 C 0.14333 0.12833 0.54203
 C323 C 0.16477 0.11020 0.54027
 C324 C 0.17730 0.10441 0.51354
 C325 C 0.16864 0.11718 0.48867
 C326 C 0.14719 0.13531 0.49044
 C327 C 0.19748 0.08389 0.51125
 C328 C 0.21338 0.06581 0.50916
 H329 H 0.13344 0.13228 0.56272
 H330 H 0.17115 0.10026 0.55959
 H331 H 0.17802 0.11268 0.46785
 H332 H 0.14031 0.14470 0.47098
 C333 C 0.67675 0.59301 0.00524
 C334 C 0.66146 0.61166 0.00557
 C335 C 0.64277 0.63358 0.00566
 C336 C 0.63007 0.64197 0.03150
 C337 C 0.61069 0.66220 0.03129
 C338 C 0.60396 0.67414 0.00525
 C339 C 0.61701 0.66607 -0.02051
 C340 C 0.63639 0.64585 -0.02030
 C341 C 0.58229 0.69323 0.00468
 C342 C 0.56330 0.70830 0.00419
 H343 H 0.63477 0.63256 0.05168
 H344 H 0.60057 0.66813 0.05130
 H345 H 0.61180 0.67502 -0.04080
 H346 H 0.64601 0.63945 -0.04042
 C347 C 0.90802 -0.17341 0.47736
 C348 C 0.88851 -0.15897 0.47826
 C349 C 0.86560 -0.14131 0.47987
 C350 C 0.85075 -0.13834 0.50581
 C351 C 0.82963 -0.11989 0.50800
 C352 C 0.82326 -0.10435 0.48424
 C353 C 0.83776 -0.10768 0.45814
 C354 C 0.85888 -0.12613 0.45595
 C355 C 0.80330 -0.08368 0.48722
 C356 C 0.78753 -0.06553 0.48983
 H357 H 0.85586 -0.14990 0.52447
 H358 H 0.81870 -0.11732 0.52835
 H359 H 0.83314 -0.09561 0.43970
 H360 H 0.87031 -0.12818 0.43583
 C361 C 0.32201 0.40701 0.99706
 C362 C 0.33709 0.38819 0.99675
 C363 C 0.35561 0.36613 0.99653
 C364 C 0.36359 0.35507 1.02264
 C365 C 0.38295 0.33481 1.02260
 C366 C 0.39437 0.32551 0.99644
 C367 C 0.38600 0.33622 0.97029
 C368 C 0.36664 0.35648 0.97033
 C369 C 0.41614 0.30651 0.99662
 C370 C 0.43524 0.29156 0.99687
 H371 H 0.35528 0.36246 1.04304
 H372 H 0.38944 0.32684 1.04297
 H373 H 0.39487 0.32933 0.94996
 H374 H 0.36070 0.36496 0.95003
 C375 C 0.88968 0.16336 0.52007
 C376 C 0.87095 0.14624 0.51872
 C377 C 0.84936 0.12506 0.51655
 C378 C 0.84248 0.10949 0.54063
 C379 C 0.82360 0.08712 0.53775
 C380 C 0.81152 0.08025 0.51080
 C381 C 0.81778 0.09630 0.48693
 C382 C 0.83665 0.11867 0.48980
 C383 C 0.79519 0.05522 0.50699
 C384 C 0.78307 0.03343 0.50363
 H385 H 0.85233 0.11414 0.56136
 H386 H 0.81916 0.07467 0.55628
 H387 H 0.80881 0.09099 0.46592
 H388 H 0.84197 0.13047 0.47100
 C389 C 0.32983 0.60329 0.00264
 C390 C 0.34696 0.62197 0.00295
 C391 C 0.36819 0.64356 0.00318
 C392 C 0.37885 0.65333 -0.02298
 C393 C 0.40138 0.67237 -0.02286
 C394 C 0.41331 0.68176 0.00341
 C395 C 0.40214 0.67257 0.02959
 C396 C 0.37962 0.65352 0.02948
 C397 C 0.43876 0.69839 0.00341
 C398 C 0.46100 0.71076 0.00339
 H399 H 0.37030 0.64564 -0.04344
 H400 H 0.41005 0.67909 -0.04324
 H401 H 0.41141 0.67944 0.05002
 H402 H 0.37166 0.64599 0.04983
 C403 C 0.10975 -0.16192 0.48118
 C404 C 0.12878 -0.14513 0.48264
 C405 C 0.15073 -0.12430 0.48481
 C406 C 0.15905 -0.10998 0.46028
 C407 C 0.17823 -0.08783 0.46295
 C408 C 0.18917 -0.07994 0.49015
 C409 C 0.18148 -0.09478 0.51453
 C410 C 0.16231 -0.11693 0.51186
 C411 C 0.20568 -0.05498 0.49354
 C412 C 0.21789 -0.03320 0.49654
 H413 H 0.15008 -0.11539 0.43930
 H414 H 0.18377 -0.07630 0.44402
 H415 H 0.18955 -0.08866 0.53572
 H416 H 0.15587 -0.12775 0.53099
 C417 C 0.66878 0.39747 0.99637
 C418 C 0.65150 0.37892 0.99605
 C419 C 0.63016 0.35742 0.99590
 C420 C 0.62052 0.34679 1.02207
 C421 C 0.59802 0.32772 1.02218
 C422 C 0.58510 0.31917 0.99612
 C423 C 0.59524 0.32926 0.96989
 C424 C 0.61773 0.34832 0.96978
 C425 C 0.55975 0.30242 0.99653
 C426 C 0.53759 0.28991 0.99688
 H427 H 0.62987 0.35379 1.04241
 H428 H 0.59015 0.32031 1.04261
 H429 H 0.58521 0.32303 0.94964
 H430 H 0.62491 0.35652 0.94944
 C431 C 0.49992 0.10366 1.16162
 C432 C 0.49945 0.12199 1.14496
 C433 C 0.49846 0.14361 1.12480
 C434 C 0.48494 0.16731 1.13239
 C435 C 0.48304 0.18786 1.11239
 C436 C 0.49465 0.18483 1.08471
 C437 C 0.50840 0.16125 1.07722
 C438 C 0.51030 0.14069 1.09722
 C439 C 0.49164 0.20545 1.06371
 C440 C 0.48866 0.22247 1.04594
 H441 H 0.47563 0.16975 1.15362
 H442 H 0.47227 0.20596 1.11838
 H443 H 0.51737 0.15863 1.05585
 H444 H 0.52073 0.12243 1.09108
 C445 C 0.00808 0.68291 0.57986
 C446 C 0.00750 0.66722 0.59935
 C447 C 0.00661 0.64797 0.62210
 C448 C -0.01908 0.63873 0.63344
 C449 C -0.02009 0.61893 0.65448
 C450 C 0.00459 0.60832 0.66425
 C451 C 0.03030 0.61783 0.65320
 C452 C 0.03131 0.63763 0.63215
 C453 C 0.00345 0.58686 0.68462
 C454 C 0.00250 0.56843 0.70114
 H455 H -0.03831 0.64652 0.62572
 H456 H -0.04008 0.61162 0.66280
 H457 H 0.04950 0.60966 0.66052
 H458 H 0.05127 0.64457 0.62344
 C459 C 0.49911 0.89641 -0.16110
 C460 C 0.49956 0.87830 -0.14417
 C461 C 0.50063 0.85681 -0.12385
 C462 C 0.51312 0.83263 -0.13176
 C463 C 0.51511 0.81215 -0.11169
 C464 C 0.50462 0.81574 -0.08360
 C465 C 0.49190 0.83982 -0.07576
 C466 C 0.48991 0.86031 -0.09583
 C467 C 0.50765 0.79511 -0.06260
 C468 C 0.51060 0.77806 -0.04485
 H469 H 0.52156 0.82973 -0.15333
 H470 H 0.52506 0.79366 -0.11797
 H471 H 0.48380 0.84286 -0.05407
 H472 H 0.48029 0.87894 -0.08944
 C473 C 0.99322 0.31587 0.41924
 C474 C 0.99392 0.33169 0.39987
 C475 C 0.99473 0.35109 0.37726
 C476 C 0.96989 0.36088 0.36684
 C477 C 0.97071 0.38080 0.34593
 C478 C 0.99637 0.39099 0.33537
 C479 C 1.02119 0.38095 0.34551
 C480 C 1.02037 0.36103 0.36642
 C481 C 0.99725 0.41253 0.31509
 C482 C 0.99796 0.43100 0.29861
 H483 H 0.94996 0.35340 0.37517
 H484 H 0.95141 0.38852 0.33832
 H485 H 1.04114 0.38879 0.33757
 H486 H 1.03969 0.35366 0.37442
 C487 C 0.49868 0.91006 0.16183
 C488 C 0.49915 0.89062 0.14545
 C489 C 0.50016 0.86755 0.12576
 C490 C 0.49257 0.86987 0.09672
 C491 C 0.49449 0.84774 0.07735
 C492 C 0.50401 0.82318 0.08694
 C493 C 0.51137 0.82078 0.11603
 C494 C 0.50944 0.84291 0.13540
 C495 C 0.50707 0.80077 0.06674
 C496 C 0.51009 0.78220 0.04969
 H497 H 0.48543 0.88884 0.08901
 H498 H 0.48884 0.84986 0.05488
 H499 H 0.51885 0.80192 0.12366
 H500 H 0.51544 0.84090 0.15779
 C501 C -0.00771 0.32827 0.61870
 C502 C -0.00750 0.34719 0.63576
 C503 C -0.00689 0.37067 0.65491
 C504 C 0.01861 0.38165 0.66561
 C505 C 0.01961 0.40611 0.68165
 C506 C -0.00487 0.41968 0.68705
 C507 C -0.03047 0.40834 0.67701
 C508 C -0.03148 0.38388 0.66096
 C509 C -0.00347 0.44621 0.70077
 C510 C -0.00222 0.46890 0.71112
 H511 H 0.03777 0.37172 0.66084
 H512 H 0.03954 0.41482 0.68912
 H513 H -0.04950 0.41879 0.68087
 H514 H -0.05127 0.37568 0.65258
 C515 C 0.50247 0.09057 0.83897
 C516 C 0.50185 0.10986 0.85554
 C517 C 0.50050 0.13285 0.87530
 C518 C 0.50759 0.13044 0.90447
 C519 C 0.50524 0.15250 0.92388
 C520 C 0.49580 0.17706 0.91420
 C521 C 0.48895 0.17953 0.88498
 C522 C 0.49130 0.15749 0.86558
 C523 C 0.49234 0.19941 0.93438
 C524 C 0.48902 0.21794 0.95141
 H525 H 0.51465 0.11147 0.91226
 H526 H 0.51051 0.15032 0.94644
 H527 H 0.48154 0.19839 0.87727
 H528 H 0.48568 0.15955 0.84309
 C529 C 1.00923 0.67215 0.37946
 C530 C 1.00829 0.65298 0.36270
 C531 C 1.00714 0.62924 0.34391
 C532 C 0.98131 0.61714 0.33556
 C533 C 0.98010 0.59251 0.31981
 C534 C 1.00471 0.57990 0.31236
 C535 C 1.03055 0.59234 0.32007
 C536 C 1.03177 0.61697 0.33582
 C537 C 1.00338 0.55328 0.29883
 C538 C 1.00226 0.53056 0.28858
 H539 H 0.96214 0.62635 0.34191
 H540 H 0.96000 0.58296 0.31414
 H541 H 1.04970 0.58265 0.31461
 H542 H 1.05183 0.62604 0.34237
 C543 C 1.16763 0.49968 0.09959
 C544 C 1.15007 0.49785 0.11820
 C545 C 1.12885 0.49526 0.14007
 C546 C 1.10391 0.50850 0.13724
 C547 C 1.08287 0.50522 0.15799
 C548 C 1.08670 0.48868 0.18163
 C549 C 1.11171 0.47561 0.18456
 C550 C 1.13275 0.47888 0.16382
 C551 C 1.06480 0.48470 0.20257
 C552 C 1.04648 0.48107 0.22008
 H553 H 1.10065 0.52114 0.11890
 H554 H 1.06358 0.51539 0.15549
 H555 H 1.11486 0.46273 0.20274
 H556 H 1.15191 0.46848 0.16616
 C557 C 0.59856 -0.00932 0.67220
 C558 C 0.61664 -0.00970 0.65407
 C559 C 0.63780 -0.01056 0.63200
 C560 C 0.63582 0.00516 0.60740
 C561 C 0.65577 0.00352 0.58540
 C562 C 0.67777 -0.01386 0.58789
 C563 C 0.67987 -0.02942 0.61260
 C564 C 0.65993 -0.02778 0.63460
 C565 C 0.69782 -0.01619 0.56488
 C566 C 0.71452 -0.01841 0.54555
 H567 H 0.61874 0.01846 0.60512
 H568 H 0.65390 0.01560 0.56637
 H569 H 0.69677 -0.04296 0.61473
 H570 H 0.66161 -0.04010 0.65347
 C571 C -0.16775 0.50037 0.89994
 C572 C -0.15048 0.50181 0.88103
 C573 C -0.12946 0.50407 0.85891
 C574 C -0.13333 0.52054 0.83522
 C575 C -0.11233 0.52375 0.81443
 C576 C -0.08739 0.51052 0.81726
 C577 C -0.08363 0.49384 0.84079
 C578 C -0.10463 0.49063 0.86159
 C579 C -0.06544 0.51459 0.79641
 C580 C -0.04700 0.51828 0.77905
 H581 H -0.15240 0.53112 0.83302
 H582 H -0.11542 0.53674 0.79634
 H583 H -0.06440 0.48357 0.84321
 H584 H -0.10139 0.47794 0.87989
 C585 C 0.40370 0.00875 0.32889
 C586 C 0.38581 0.00949 0.34720
 C587 C 0.36474 0.01063 0.36933
 C588 C 0.34180 0.02668 0.36583
 C589 C 0.32172 0.02837 0.38770
 C590 C 0.32449 0.01401 0.41316
 C591 C 0.34734 -0.00217 0.41659
 C592 C 0.36742 -0.00385 0.39472
 C593 C 0.30417 0.01630 0.43592
 C594 C 0.28720 0.01851 0.45499
 H595 H 0.33955 0.03802 0.34633
 H596 H 0.30417 0.04098 0.38484
 H597 H 0.34971 -0.01331 0.43620
 H598 H 0.38510 -0.01628 0.39769
 C599 C 0.16633 0.50593 0.90036
 C600 C 0.14890 0.50693 0.88177
 C601 C 0.12788 0.50849 0.85987
 C602 C 0.13374 0.52278 0.83466
 C603 C 0.11302 0.52508 0.81382
 C604 C 0.08635 0.51311 0.81812
 C605 C 0.08055 0.49864 0.84322
 C606 C 0.10128 0.49633 0.86407
 C607 C 0.06483 0.51625 0.79709
 C608 C 0.04687 0.51927 0.77950
 H609 H 0.15422 0.53232 0.83125
 H610 H 0.11770 0.53637 0.79451
 H611 H 0.05997 0.48936 0.84678
 H612 H 0.09651 0.48530 0.88353
 C613 C 0.59694 0.00868 0.32700
 C614 C 0.61491 0.00754 0.34503
 C615 C 0.63610 0.00552 0.36672
 C616 C 0.62954 0.00927 0.39608
 C617 C 0.64975 0.00596 0.41725
 C618 C 0.67662 -0.00110 0.40915
 C619 C 0.68328 -0.00452 0.37977
 C620 C 0.66306 -0.00122 0.35861
 C621 C 0.69704 -0.00589 0.43092
 C622 C 0.71409 -0.01053 0.44897
 H623 H 0.60872 0.01437 0.40261
 H624 H 0.64435 0.00855 0.43990
 H625 H 0.70396 -0.01009 0.37327
 H626 H 0.66834 -0.00428 0.33598
 C627 C 0.83210 0.49411 0.10137
 C628 C 0.84943 0.49335 0.12010
 C629 C 0.87049 0.49193 0.14198
 C630 C 0.86508 0.47684 0.16675
 C631 C 0.88600 0.47439 0.18735
 C632 C 0.91240 0.48701 0.18325
 C633 C 0.91773 0.50233 0.15864
 C634 C 0.89681 0.50478 0.13804
 C635 C 0.93420 0.48360 0.20390
 C636 C 0.95244 0.48038 0.22112
 H637 H 0.84484 0.46672 0.16994
 H638 H 0.88169 0.46243 0.20627
 H639 H 0.93810 0.51211 0.15524
 H640 H 0.90124 0.51640 0.11890
 C641 C 0.40397 -0.00893 0.67261
 C642 C 0.38559 -0.00792 0.65501
 C643 C 0.36408 -0.00591 0.63367
 C644 C 0.36938 -0.01261 0.60457
 C645 C 0.34909 -0.00910 0.58354
 C646 C 0.32341 0.00114 0.59151
 C647 C 0.31796 0.00750 0.62066
 C648 C 0.33825 0.00399 0.64169
 C649 C 0.30309 0.00613 0.56971
 C650 C 0.28620 0.01087 0.55152
 H651 H 0.38933 -0.02015 0.59811
 H652 H 0.35357 -0.01399 0.56106
 H653 H 0.29821 0.01554 0.62705
 H654 H 0.33397 0.00938 0.66410
   
