data_POSCAR
  _audit_creation_date              2014-09-24
  _audit_creation_method            'ToBaCCo'
  _symmetry_space_group_name_H-M    'P1'
  _symmetry_Int_Tables_number       1
  _symmetry_cell_setting            triclinic
  loop_
  _symmetry_equiv_pos_as_xyz
 x,y,z
_cell_length_a 39.8838
_cell_length_b 38.9115
_cell_length_c 45.4656
_cell_angle_alpha 89.577600
_cell_angle_beta 89.548300
_cell_angle_gamma 89.321000
loop_
  _atom_site_label
  _atom_site_type_symbol
  _atom_site_fract_x
  _atom_site_fract_y
  _atom_site_fract_z
Si1 Si 1.26399 0.26107 0.25272
 Si2 Si 0.73268 -0.26293 0.24497
 Si3 Si 0.76506 0.23588 -0.25161
 Si4 Si 1.22859 -0.23544 -0.25476
 Si5 Si 0.23576 0.23893 0.74773
 Si6 Si 0.76972 0.76473 0.75354
 Si7 Si 0.73314 0.26956 0.24926
 Si8 Si 0.26653 0.73508 0.25416
 O9 O 1.05970 0.02107 0.05918
 O10 O 0.94685 -0.01903 0.05846
 O11 O 0.98105 0.05873 0.05713
 O12 O 1.02621 -0.05628 0.05816
 O13 O 0.93672 0.03835 0.03957
 O14 O 1.07108 -0.03600 0.04084
 O15 O 0.97047 -0.06540 0.04371
 O16 O 1.03724 0.06758 0.04349
 C17 C 1.05327 0.05190 0.06307
 C18 C 0.95337 -0.04986 0.06273
 C19 C 0.95051 0.05514 0.05919
 C20 C 1.05660 -0.05232 0.06078
 O21 O 1.06321 -0.01198 -0.01475
 O22 O 0.94599 0.01493 -0.01575
 O23 O 1.01988 0.06012 -0.01489
 O24 O 0.98967 -0.05853 -0.01442
 O25 O 0.94295 -0.04279 0.00311
 O26 O 1.06616 0.04550 0.00356
 O27 O 1.04644 -0.06078 0.00014
 O28 O 0.96292 0.06345 -0.00107
 Co29 Co 1.05900 0.00427 0.02220
 Co30 Co 0.94918 -0.00175 0.02141
 Co31 Co 1.00070 0.05669 0.02120
 Co32 Co 1.00783 -0.05450 0.02189
 O33 O 1.00415 0.00117 0.02175
 C34 C 1.05970 -0.04290 -0.01962
 C35 C 0.94957 0.04596 -0.02062
 C36 C 1.05056 0.05833 -0.01747
 C37 C 0.95909 -0.05586 -0.01755
 O38 O 1.04251 0.53087 0.54024
 O39 O 0.95291 0.47151 0.53980
 O40 O 0.97494 0.57421 0.51239
 O41 O 1.03202 0.43003 0.51176
 O42 O 0.94296 0.53552 0.53351
 O43 O 1.03798 0.47112 0.54128
 O44 O 0.97146 0.42957 0.51292
 O45 O 1.03668 0.57040 0.50864
 C46 C 1.04261 0.56179 0.53453
 C47 C 0.95922 0.44033 0.53697
 C48 C 0.95316 0.56570 0.53126
 C49 C 1.03805 0.43991 0.53720
 O50 O 1.06916 0.46678 0.48713
 O51 O 0.92980 0.52654 0.47794
 O52 O 1.03187 0.54511 0.45449
 O53 O 0.97204 0.45425 0.45572
 O54 O 0.93192 0.46332 0.48524
 O55 O 1.07061 0.52854 0.48457
 O56 O 1.03037 0.45839 0.45654
 O57 O 0.96947 0.55710 0.45711
 Co58 Co 1.05050 0.49939 0.51193
 Co59 Co 0.94544 0.49915 0.50811
 Co60 Co 1.00317 0.55566 0.48440
 Co61 Co 1.00133 0.44788 0.48545
 O62 O 0.99953 0.50110 0.49741
 C63 C 1.06063 0.45917 0.46160
 C64 C 0.93968 0.54740 0.45842
 C65 C 1.06192 0.53858 0.45923
 C66 C 0.94165 0.45480 0.46026
 O67 O 0.56125 0.01372 0.53819
 O68 O 0.44667 -0.02189 0.53694
 O69 O 0.48404 0.05410 0.53794
 O70 O 0.52453 -0.06198 0.53774
 O71 O 0.43926 0.03552 0.51963
 O72 O 0.56973 -0.04308 0.51996
 O73 O 0.46818 -0.06912 0.52239
 O74 O 0.54087 0.06151 0.52361
 C75 C 0.55644 0.04459 0.54272
 C76 C 0.45190 -0.05279 0.54141
 C77 C 0.45355 0.04982 0.54041
 C78 C 0.55479 -0.05714 0.54085
 O79 O 0.56303 -0.01900 0.46417
 O80 O 0.44794 0.01366 0.46341
 O81 O 0.52205 0.05581 0.46560
 O82 O 0.48873 -0.06253 0.46488
 O83 O 0.44205 -0.04457 0.48113
 O84 O 0.56824 0.03851 0.48273
 O85 O 0.54493 -0.06705 0.47976
 O86 O 0.46554 0.06101 0.48006
 Co87 Co 0.55966 -0.00254 0.50122
 Co88 Co 0.44998 -0.00424 0.50030
 Co89 Co 0.50335 0.05226 0.50175
 Co90 Co 0.50644 -0.05939 0.50125
 O91 O 0.50484 -0.00349 0.50117
 C92 C 0.55839 -0.04989 0.45963
 C93 C 0.45214 0.04484 0.45970
 C94 C 0.55261 0.05322 0.46260
 C95 C 0.45827 -0.05952 0.46142
 O96 O 0.55776 0.54536 -0.00374
 O97 O 0.43328 0.45769 -0.00329
 O98 O 0.45481 0.56397 0.00146
 O99 O 0.53634 0.43914 0.00064
 O100 O 0.43698 0.51523 0.01613
 O101 O 0.55328 0.48770 0.01547
 O102 O 0.47961 0.44153 0.01406
 O103 O 0.51143 0.56042 0.01454
 C104 C 0.54204 0.55854 0.01706
 C105 C 0.44900 0.44372 0.01710
 C106 C 0.44105 0.54614 0.02107
 C107 C 0.54936 0.45672 0.02038
 O108 O 0.56268 0.46385 -0.03954
 O109 O 0.42880 0.53996 -0.03879
 O110 O 0.52955 0.56781 -0.04424
 O111 O 0.46193 0.43619 -0.04443
 O112 O 0.43852 0.48324 -0.05813
 O113 O 0.55232 0.52089 -0.05866
 O114 O 0.51845 0.44502 -0.05814
 O115 O 0.47311 0.56002 -0.05731
 Co116 Co 0.55037 0.50415 -0.02163
 Co117 Co 0.44047 0.49931 -0.02107
 Co118 Co 0.49259 0.55734 -0.02143
 Co119 Co 0.49875 0.44617 -0.02200
 O120 O 0.49550 0.50174 -0.02161
 C121 C 0.54903 0.44860 -0.06009
 C122 C 0.44270 0.55555 -0.05940
 C123 C 0.54698 0.55188 -0.06286
 C124 C 0.44473 0.45256 -0.06287
 C125 C 1.18503 0.19506 0.20321
 C126 C 1.17980 0.23061 0.20685
 C127 C 1.20300 0.25026 0.22215
 C128 C 1.23171 0.23471 0.23417
 C129 C 1.23696 0.19928 0.23056
 C130 C 1.21380 0.17963 0.21540
 C131 C 1.16158 0.17429 0.18561
 C132 C 1.15321 0.14072 0.19442
 C133 C 1.13300 0.12036 0.17676
 C134 C 1.12070 0.13311 0.14987
 C135 C 1.12854 0.16694 0.14139
 C136 C 1.14868 0.18728 0.15906
 C137 C 1.10099 0.11097 0.13004
 C138 C 1.07424 0.12495 0.11375
 C139 C 1.05795 0.10524 0.09282
 C140 C 1.06790 0.07102 0.08775
 C141 C 1.09347 0.05640 0.10503
 C142 C 1.10992 0.07622 0.12592
 H143 H 1.15780 0.24322 0.19781
 H144 H 1.19862 0.27760 0.22428
 H145 H 1.25938 0.18671 0.23874
 H146 H 1.21898 0.15249 0.21240
 H147 H 1.16240 0.13016 0.21498
 H148 H 1.12703 0.09461 0.18412
 H149 H 1.12002 0.17736 0.12057
 H150 H 1.15511 0.21280 0.15141
 H151 H 1.06625 0.15138 0.11685
 H152 H 1.03802 0.11708 0.08009
 H153 H 1.10167 0.03009 0.10158
 H154 H 1.13058 0.06473 0.13793
 C155 C 1.15242 0.71039 0.68395
 C156 C 1.15592 0.74624 0.68319
 C157 C 1.17804 0.76227 0.70225
 C158 C 1.19766 0.74265 0.72172
 C159 C 1.19357 0.70697 0.72313
 C160 C 1.17101 0.69096 0.70443
 C161 C 1.13058 0.69303 0.66267
 C162 C 1.10826 0.66761 0.67218
 C163 C 1.08985 0.64908 0.65181
 C164 C 1.09383 0.65513 0.62141
 C165 C 1.11526 0.68157 0.61203
 C166 C 1.13330 0.70045 0.63248
 C167 C 1.07800 0.63209 0.59967
 C168 C 1.06690 0.64453 0.57220
 C169 C 1.05474 0.62192 0.55104
 C170 C 1.05326 0.58652 0.55705
 C171 C 1.06337 0.57431 0.58479
 C172 C 1.07574 0.59672 0.60572
 H173 H 1.14159 0.76177 0.66781
 H174 H 1.18048 0.78995 0.70127
 H175 H 1.20788 0.69139 0.73843
 H176 H 1.16878 0.66326 0.70537
 H177 H 1.10539 0.66181 0.69540
 H178 H 1.07295 0.62953 0.65987
 H179 H 1.11932 0.68666 0.58885
 H180 H 1.15055 0.71981 0.62462
 H181 H 1.06785 0.67168 0.56696
 H182 H 1.04689 0.63205 0.52991
 H183 H 1.06261 0.54715 0.59012
 H184 H 1.08466 0.58602 0.62630
 C185 C 0.69214 0.16933 0.69300
 C186 C 0.69108 0.20542 0.69148
 C187 C 0.71292 0.22490 0.70823
 C188 C 0.73636 0.20876 0.72668
 C189 C 0.73712 0.17281 0.72880
 C190 C 0.71530 0.15322 0.71196
 C191 C 0.66979 0.14877 0.67419
 C192 C 0.68218 0.11952 0.65958
 C193 C 0.66183 0.10152 0.64027
 C194 C 0.62859 0.11231 0.63517
 C195 C 0.61593 0.14103 0.65040
 C196 C 0.63630 0.15906 0.66967
 C197 C 0.60783 0.09459 0.61305
 C198 C 0.58738 0.11366 0.59369
 C199 C 0.56985 0.09731 0.57137
 C200 C 0.57245 0.06155 0.56790
 C201 C 0.59196 0.04231 0.58786
 C202 C 0.60947 0.05866 0.61018
 H203 H 0.67383 0.21861 0.67686
 H204 H 0.71176 0.25267 0.70652
 H205 H 0.75451 0.15977 0.74332
 H206 H 0.71638 0.12548 0.71391
 H207 H 0.70799 0.11123 0.66229
 H208 H 0.67252 0.07983 0.62856
 H209 H 0.59027 0.14965 0.64733
 H210 H 0.62587 0.18116 0.68100
 H211 H 0.58584 0.14140 0.59510
 H212 H 0.55497 0.11279 0.55636
 H213 H 0.59426 0.01466 0.58588
 H214 H 0.62454 0.04320 0.62505
 C215 C 0.66577 0.67619 0.17986
 C216 C 0.66866 0.71210 0.17761
 C217 C 0.68832 0.73006 0.19744
 C218 C 0.70582 0.71247 0.21961
 C219 C 0.70229 0.67682 0.22253
 C220 C 0.68252 0.65880 0.20278
 C221 C 0.64608 0.65693 0.15796
 C222 C 0.65794 0.62523 0.14719
 C223 C 0.64032 0.60789 0.12551
 C224 C 0.61048 0.62188 0.11403
 C225 C 0.59827 0.65324 0.12521
 C226 C 0.61585 0.67055 0.14694
 C227 C 0.59278 0.60446 0.08978
 C228 C 0.55755 0.60388 0.08902
 C229 C 0.54103 0.58869 0.06553
 C230 C 0.55939 0.57377 0.04233
 C231 C 0.59456 0.57379 0.04331
 C232 C 0.61108 0.58903 0.06674
 H233 H 0.65636 0.72627 0.16009
 H234 H 0.69036 0.75769 0.19514
 H235 H 0.71465 0.66276 0.24001
 H236 H 0.68020 0.63127 0.20552
 H237 H 0.68130 0.61419 0.15499
 H238 H 0.65016 0.58356 0.11765
 H239 H 0.57554 0.66488 0.11664
 H240 H 0.60580 0.69468 0.15505
 H241 H 0.54274 0.61507 0.10665
 H242 H 0.51388 0.58874 0.06549
 H243 H 0.60937 0.56242 0.02576
 H244 H 0.63822 0.58944 0.06644
 C245 C 0.81531 -0.20073 0.19496
 C246 C 0.81309 -0.20023 0.22584
 C247 C 0.78908 -0.21989 0.24064
 C248 C 0.76667 -0.24006 0.22486
 C249 C 0.76965 -0.24175 0.19419
 C250 C 0.79364 -0.22214 0.17935
 C251 C 0.83933 -0.17831 0.17895
 C252 C 0.85636 -0.19035 0.15384
 C253 C 0.87732 -0.16865 0.13768
 C254 C 0.88189 -0.13438 0.14626
 C255 C 0.86542 -0.12252 0.17175
 C256 C 0.84440 -0.14426 0.18793
 C257 C 0.90259 -0.11095 0.12782
 C258 C 0.89208 -0.07685 0.12233
 C259 C 0.90956 -0.05617 0.10224
 C260 C 0.93770 -0.06931 0.08713
 C261 C 0.94920 -0.10270 0.09377
 C262 C 0.93193 -0.12324 0.11396
 H263 H 0.82982 -0.18453 0.23852
 H264 H 0.78744 -0.21866 0.26440
 H265 H 0.75318 -0.25766 0.18152
 H266 H 0.79455 -0.22300 0.15556
 H267 H 0.85331 -0.21654 0.14654
 H268 H 0.88923 -0.17852 0.11794
 H269 H 0.86864 -0.09637 0.17909
 H270 H 0.83138 -0.13410 0.20702
 H271 H 0.86946 -0.06667 0.13249
 H272 H 0.90013 -0.03051 0.09751
 H273 H 0.97112 -0.11333 0.08276
 H274 H 0.94117 -0.14906 0.11823
 C275 C 0.84259 0.29094 0.68631
 C276 C 0.84576 0.29208 0.71716
 C277 C 0.82225 0.27607 0.73555
 C278 C 0.79542 0.25812 0.72357
 C279 C 0.79249 0.25625 0.69294
 C280 C 0.81553 0.27279 0.67453
 C281 C 0.86642 0.30962 0.66649
 C282 C 0.87399 0.29740 0.63808
 C283 C 0.89334 0.31685 0.61841
 C284 C 0.90610 0.34883 0.62677
 C285 C 0.90037 0.35993 0.65580
 C286 C 0.88054 0.34084 0.67524
 C287 C 0.92258 0.37192 0.60477
 C288 C 0.91672 0.40756 0.60604
 C289 C 0.92968 0.42947 0.58456
 C290 C 0.94853 0.41649 0.56077
 C291 C 0.95519 0.38099 0.55961
 C292 C 0.94244 0.35891 0.58147
 H293 H 0.86652 0.30514 0.72718
 H294 H 0.82520 0.27742 0.75917
 H295 H 0.77232 0.24229 0.68300
 H296 H 0.81165 0.27180 0.65103
 H297 H 0.86443 0.27304 0.63071
 H298 H 0.89706 0.30742 0.59628
 H299 H 0.91049 0.38397 0.66336
 H300 H 0.87528 0.35138 0.69676
 H301 H 0.90098 0.41863 0.62308
 H302 H 0.92390 0.45666 0.58618
 H303 H 0.96981 0.37026 0.54165
 H304 H 0.94788 0.33166 0.57997
 C305 C 0.30890 -0.17864 0.68807
 C306 C 0.30954 -0.17685 0.71894
 C307 C 0.28519 -0.19353 0.73592
 C308 C 0.25971 -0.21199 0.72233
 C309 C 0.25917 -0.21409 0.69160
 C310 C 0.28336 -0.19737 0.67463
 C311 C 0.33452 -0.16100 0.66975
 C312 C 0.34721 -0.17662 0.64414
 C313 C 0.36937 -0.15914 0.62563
 C314 C 0.37961 -0.12569 0.63237
 C315 C 0.36788 -0.11053 0.65854
 C316 C 0.34554 -0.12798 0.67702
 C317 C 0.40071 -0.10612 0.61119
 C318 C 0.39407 -0.07109 0.60574
 C319 C 0.41155 -0.05345 0.58373
 C320 C 0.43584 -0.07053 0.56652
 C321 C 0.44345 -0.10515 0.57266
 C322 C 0.42614 -0.12274 0.59484
 H323 H 0.32916 -0.16304 0.72997
 H324 H 0.28636 -0.19221 0.75967
 H325 H 0.24040 -0.22887 0.68050
 H326 H 0.28189 -0.19893 0.65091
 H327 H 0.33968 -0.20227 0.63819
 H328 H 0.37758 -0.17146 0.60551
 H329 H 0.37564 -0.08497 0.66456
 H330 H 0.33610 -0.11519 0.69652
 H331 H 0.37440 -0.05760 0.61765
 H332 H 0.40520 -0.02673 0.57952
 H333 H 0.46238 -0.11881 0.55998
 H334 H 0.43233 -0.14951 0.59890
 C335 C 0.32474 0.32128 0.18090
 C336 C 0.30410 0.29379 0.17309
 C337 C 0.28609 0.27574 0.19453
 C338 C 0.28852 0.28462 0.22422
 C339 C 0.30941 0.31161 0.23229
 C340 C 0.32731 0.32988 0.21082
 C341 C 0.34322 0.34093 0.15783
 C342 C 0.37591 0.35265 0.16276
 C343 C 0.39332 0.37060 0.14077
 C344 C 0.37849 0.37717 0.11330
 C345 C 0.34574 0.36558 0.10848
 C346 C 0.32831 0.34785 0.13047
 C347 C 0.39710 0.39552 0.08952
 C348 C 0.38022 0.41845 0.07051
 C349 C 0.39719 0.43427 0.04718
 C350 C 0.43151 0.42780 0.04244
 C351 C 0.44870 0.40569 0.06186
 C352 C 0.43164 0.38960 0.08507
 H353 H 0.30207 0.28596 0.15039
 H354 H 0.27045 0.25473 0.18778
 H355 H 0.31159 0.31878 0.25516
 H356 H 0.34267 0.35112 0.21760
 H357 H 0.38828 0.34750 0.18347
 H358 H 0.41834 0.37948 0.14537
 H359 H 0.33368 0.36972 0.08748
 H360 H 0.30300 0.33969 0.12604
 H361 H 0.35383 0.42422 0.07367
 H362 H 0.38341 0.45157 0.03281
 H363 H 0.47519 0.40028 0.05874
 H364 H 0.44536 0.37184 0.09906
 C365 C 0.82927 0.17260 -0.18375
 C366 C 0.80539 0.19701 -0.17415
 C367 C 0.78622 0.21574 -0.19433
 C368 C 0.79000 0.21013 -0.22459
 C369 C 0.81374 0.18585 -0.23439
 C370 C 0.83317 0.16715 -0.21417
 C371 C 0.85004 0.15335 -0.16194
 C372 C 0.85803 0.11836 -0.16584
 C373 C 0.87631 0.10014 -0.14451
 C374 C 0.88697 0.11648 -0.11876
 C375 C 0.87937 0.15159 -0.11516
 C376 C 0.86135 0.16978 -0.13650
 C377 C 0.90503 0.09708 -0.09523
 C378 C 0.93009 0.11306 -0.07876
 C379 C 0.94490 0.09614 -0.05490
 C380 C 0.93537 0.06265 -0.04713
 C381 C 0.91147 0.04596 -0.06430
 C382 C 0.89631 0.06307 -0.08800
 H383 H 0.80131 0.20156 -0.15092
 H384 H 0.76866 0.23472 -0.18604
 H385 H 0.81741 0.18155 -0.25771
 H386 H 0.85166 0.14893 -0.22235
 H387 H 0.84952 0.10484 -0.18507
 H388 H 0.88205 0.07325 -0.14819
 H389 H 0.88668 0.16497 -0.09548
 H390 H 0.85620 0.19683 -0.13298
 H391 H 0.93810 0.13885 -0.08414
 H392 H 0.96368 0.10941 -0.04235
 H393 H 0.90370 0.02010 -0.05882
 H394 H 0.87691 0.05006 -0.09998
 C395 C 0.78728 0.66747 0.31442
 C396 C 0.76610 0.69452 0.32352
 C397 C 0.74938 0.71499 0.30286
 C398 C 0.75346 0.70876 0.27271
 C399 C 0.77465 0.68185 0.26349
 C400 C 0.79117 0.66110 0.28419
 C401 C 0.80688 0.64753 0.33637
 C402 C 0.80964 0.61152 0.33483
 C403 C 0.82946 0.59323 0.35504
 C404 C 0.84723 0.61079 0.37670
 C405 C 0.84395 0.64667 0.37849
 C406 C 0.82389 0.66483 0.35864
 C407 C 0.87092 0.59248 0.39635
 C408 C 0.90366 0.60468 0.39892
 C409 C 0.92598 0.58928 0.41848
 C410 C 0.91604 0.56143 0.43628
 C411 C 0.88341 0.54862 0.43330
 C412 C 0.86107 0.56387 0.41324
 H413 H 0.76268 0.70000 0.34668
 H414 H 0.73388 0.73605 0.31063
 H415 H 0.77856 0.67705 0.24028
 H416 H 0.80780 0.64078 0.27658
 H417 H 0.79658 0.59760 0.31795
 H418 H 0.83178 0.56557 0.35321
 H419 H 0.85732 0.66073 0.39511
 H420 H 0.82246 0.69257 0.36018
 H421 H 0.91193 0.62643 0.38585
 H422 H 0.95089 0.59985 0.42013
 H423 H 0.87507 0.52719 0.44668
 H424 H 0.83587 0.55407 0.41156
 C425 C 0.33267 0.18470 0.30569
 C426 C 0.34676 0.20679 0.28440
 C427 C 0.32649 0.22990 0.26863
 C428 C 0.29182 0.23125 0.27384
 C429 C 0.27762 0.20879 0.29453
 C430 C 0.29779 0.18600 0.31049
 C431 C 0.35412 0.16122 0.32364
 C432 C 0.34237 0.12884 0.33267
 C433 C 0.36090 0.10837 0.35215
 C434 C 0.39185 0.11958 0.36283
 C435 C 0.40446 0.15108 0.35250
 C436 C 0.38575 0.17174 0.33330
 C437 C 0.40956 0.09984 0.38630
 C438 C 0.42548 0.11735 0.40913
 C439 C 0.43995 0.09931 0.43248
 C440 C 0.43855 0.06330 0.43383
 C441 C 0.42339 0.04556 0.41076
 C442 C 0.40911 0.06367 0.38716
 H443 H 0.37342 0.20608 0.27976
 H444 H 0.33799 0.24651 0.25237
 H445 H 0.25079 0.20896 0.29844
 H446 H 0.28606 0.16985 0.32700
 H447 H 0.31846 0.11954 0.32514
 H448 H 0.35026 0.08439 0.35974
 H449 H 0.42853 0.16020 0.35978
 H450 H 0.39556 0.19656 0.32696
 H451 H 0.42580 0.14516 0.40956
 H452 H 0.45151 0.11372 0.44991
 H453 H 0.42224 0.01776 0.41111
 H454 H 0.39752 0.04934 0.36972
 C455 C 0.29488 0.68946 -0.19847
 C456 C 0.27482 0.71477 -0.18480
 C457 C 0.25449 0.73675 -0.20149
 C458 C 0.25367 0.73380 -0.23216
 C459 C 0.27374 0.70880 -0.24598
 C460 C 0.29410 0.68670 -0.22929
 C461 C 0.31680 0.66655 -0.18050
 C462 C 0.34950 0.65802 -0.18993
 C463 C 0.37055 0.63781 -0.17219
 C464 C 0.35932 0.62565 -0.14467
 C465 C 0.32643 0.63378 -0.13552
 C466 C 0.30543 0.65387 -0.15323
 C467 C 0.38188 0.60547 -0.12500
 C468 C 0.36909 0.57844 -0.10774
 C469 C 0.38924 0.56167 -0.08705
 C470 C 0.42274 0.57130 -0.08329
 C471 C 0.43613 0.59714 -0.10146
 C472 C 0.41584 0.61417 -0.12206
 H473 H 0.27541 0.71813 -0.16119
 H474 H 0.24004 0.75642 -0.19029
 H475 H 0.27377 0.70650 -0.26970
 H476 H 0.30908 0.66736 -0.24047
 H477 H 0.35911 0.66764 -0.21071
 H478 H 0.39563 0.63174 -0.17999
 H479 H 0.31709 0.62528 -0.11430
 H480 H 0.28025 0.65959 -0.14550
 H481 H 0.34330 0.57053 -0.10994
 H482 H 0.37840 0.54148 -0.07364
 H483 H 0.46190 0.60504 -0.09902
 H484 H 0.42641 0.63503 -0.13484
 C485 C 1.16695 -0.16450 -0.19135
 C486 C 1.19092 -0.15010 -0.21053
 C487 C 1.20906 -0.17092 -0.23010
 C488 C 1.20366 -0.20642 -0.23060
 C489 C 1.17910 -0.22069 -0.21221
 C490 C 1.16100 -0.19999 -0.19268
 C491 C 1.14918 -0.14307 -0.16913
 C492 C 1.11526 -0.14883 -0.16231
 C493 C 1.09939 -0.13084 -0.13955
 C494 C 1.11705 -0.10662 -0.12317
 C495 C 1.15061 -0.09996 -0.13065
 C496 C 1.16652 -0.11802 -0.15337
 C497 C 1.10110 -0.08968 -0.09741
 C498 C 1.10628 -0.05467 -0.09184
 C499 C 1.09248 -0.03929 -0.06675
 C500 C 1.07347 -0.05872 -0.04663
 C501 C 1.06787 -0.09356 -0.05243
 C502 C 1.08150 -0.10887 -0.07756
 H503 H 1.19566 -0.12277 -0.21036
 H504 H 1.22739 -0.15923 -0.24454
 H505 H 1.17448 -0.24807 -0.21247
 H506 H 1.14304 -0.21198 -0.17799
 H507 H 1.10105 -0.16750 -0.17442
 H508 H 1.07333 -0.13606 -0.13461
 H509 H 1.16497 -0.08174 -0.11819
 H510 H 1.19279 -0.11332 -0.15782
 H511 H 1.12096 -0.03918 -0.10693
 H512 H 1.09699 -0.01229 -0.06295
 H513 H 1.05316 -0.10911 -0.03740
 H514 H 1.07740 -0.13598 -0.08109
 C515 C 1.21223 0.34197 0.31505
 C516 C 1.21329 0.34721 0.28436
 C517 C 1.22870 0.32298 0.26590
 C518 C 1.24374 0.29325 0.27768
 C519 C 1.24379 0.28853 0.30827
 C520 C 1.22789 0.31232 0.32669
 C521 C 1.19361 0.36622 0.33479
 C522 C 1.20386 0.37129 0.36401
 C523 C 1.18409 0.39057 0.38354
 C524 C 1.15380 0.40581 0.37426
 C525 C 1.14476 0.40270 0.34454
 C526 C 1.16417 0.38291 0.32518
 C527 C 1.13032 0.42219 0.39586
 C528 C 1.09555 0.41825 0.39270
 C529 C 1.07322 0.43117 0.41369
 C530 C 1.08494 0.44793 0.43878
 C531 C 1.11958 0.45258 0.44192
 C532 C 1.14208 0.43998 0.42058
 H533 H 1.20228 0.37005 0.27451
 H534 H 1.22906 0.32764 0.24239
 H535 H 1.25567 0.26635 0.31823
 H536 H 1.22723 0.30689 0.35006
 H537 H 1.22685 0.35971 0.37208
 H538 H 1.19191 0.39224 0.40622
 H539 H 1.12209 0.41481 0.33633
 H540 H 1.15521 0.37962 0.30299
 H541 H 1.08542 0.40406 0.37448
 H542 H 1.04667 0.42702 0.41065
 H543 H 1.12925 0.46575 0.46092
 H544 H 1.16864 0.44398 0.42355
 C545 C 0.66455 -0.18480 0.29596
 C546 C 0.65821 -0.22027 0.29723
 C547 C 0.67789 -0.24332 0.28098
 C548 C 0.70444 -0.23139 0.26352
 C549 C 0.70971 -0.19594 0.26092
 C550 C 0.69001 -0.17284 0.27709
 C551 C 0.64623 -0.16078 0.31573
 C552 C 0.66356 -0.13474 0.33029
 C553 C 0.64728 -0.11430 0.35121
 C554 C 0.61332 -0.11948 0.35809
 C555 C 0.59562 -0.14458 0.34270
 C556 C 0.61190 -0.16502 0.32173
 C557 C 0.59725 -0.10063 0.38278
 C558 C 0.57698 -0.11828 0.40312
 C559 C 0.56406 -0.10156 0.42782
 C560 C 0.57103 -0.06679 0.43272
 C561 C 0.59047 -0.04877 0.41198
 C562 C 0.60357 -0.06559 0.38727
 H563 H 0.63895 -0.23035 0.31170
 H564 H 0.67319 -0.27061 0.28292
 H565 H 0.72927 -0.18593 0.24682
 H566 H 0.69497 -0.14561 0.27513
 H567 H 0.69013 -0.13116 0.32649
 H568 H 0.66169 -0.09550 0.36299
 H569 H 0.56928 -0.14877 0.34723
 H570 H 0.59776 -0.18448 0.31051
 H571 H 0.57202 -0.14538 0.40048
 H572 H 0.54897 -0.11606 0.44333
 H573 H 0.59601 -0.02186 0.41509
 H574 H 0.61884 -0.05128 0.37178
 C575 C 0.69278 0.31175 -0.20165
 C576 C 0.71777 0.32467 -0.22070
 C577 C 0.73966 0.30230 -0.23567
 C578 C 0.73686 0.26668 -0.23194
 C579 C 0.71159 0.25368 -0.21359
 C580 C 0.69004 0.27589 -0.19836
 C581 C 0.67020 0.33527 -0.18461
 C582 C 0.63690 0.32606 -0.17821
 C583 C 0.61660 0.34658 -0.16009
 C584 C 0.62886 0.37718 -0.14816
 C585 C 0.66167 0.38717 -0.15563
 C586 C 0.68212 0.36641 -0.17345
 C587 C 0.60822 0.39748 -0.12678
 C588 C 0.62352 0.41366 -0.10288
 C589 C 0.60427 0.43097 -0.08177
 C590 C 0.56915 0.43218 -0.08372
 C591 C 0.55372 0.41663 -0.10779
 C592 C 0.57305 0.39963 -0.12918
 H593 H 0.72029 0.35206 -0.22423
 H594 H 0.75861 0.31288 -0.25016
 H595 H 0.70887 0.22619 -0.21065
 H596 H 0.67165 0.26487 -0.18355
 H597 H 0.62652 0.30269 -0.18691
 H598 H 0.59165 0.33778 -0.15469
 H599 H 0.67181 0.41088 -0.14740
 H600 H 0.70765 0.37431 -0.17768
 H601 H 0.65039 0.41209 -0.09987
 H602 H 0.61691 0.44263 -0.06343
 H603 H 0.52669 0.41738 -0.10998
 H604 H 0.56038 0.38806 -0.14753
 C605 C 1.17268 0.17404 -0.18547
 C606 C 1.19746 0.15797 -0.20300
 C607 C 1.21636 0.17707 -0.22316
 C608 C 1.21048 0.21244 -0.22646
 C609 C 1.18541 0.22846 -0.20958
 C610 C 1.16685 0.20955 -0.18911
 C611 C 1.15378 0.15424 -0.16280
 C612 C 1.12012 0.16247 -0.15627
 C613 C 1.10308 0.14543 -0.13364
 C614 C 1.11909 0.11935 -0.11720
 C615 C 1.15239 0.11033 -0.12438
 C616 C 1.16958 0.12771 -0.14673
 C617 C 1.10155 0.10253 -0.09203
 C618 C 1.11929 0.09318 -0.06650
 C619 C 1.10277 0.07839 -0.04247
 C620 C 1.06806 0.07312 -0.04320
 C621 C 1.05024 0.08218 -0.06866
 C622 C 1.06684 0.09653 -0.09290
 H623 H 1.20230 0.13062 -0.20115
 H624 H 1.23572 0.16415 -0.23581
 H625 H 1.18066 0.25583 -0.21178
 H626 H 1.14851 0.22300 -0.17566
 H627 H 1.10692 0.18230 -0.16853
 H628 H 1.07759 0.15337 -0.12857
 H629 H 1.16534 0.08995 -0.11259
 H630 H 1.19557 0.12088 -0.15086
 H631 H 1.14587 0.09800 -0.06476
 H632 H 1.11709 0.07170 -0.02307
 H633 H 1.02348 0.07802 -0.06989
 H634 H 1.05247 0.10277 -0.11236
 C635 C 1.20570 0.66162 0.31281
 C636 C 1.22877 0.64824 0.29227
 C637 C 1.24687 0.67023 0.27370
 C638 C 1.24270 0.70606 0.27580
 C639 C 1.21923 0.71935 0.29602
 C640 C 1.20094 0.69739 0.31432
 C641 C 1.18632 0.63854 0.33253
 C642 C 1.15188 0.64443 0.33697
 C643 C 1.13359 0.62367 0.35622
 C644 C 1.14929 0.59656 0.37165
 C645 C 1.18374 0.59048 0.36718
 C646 C 1.20206 0.61115 0.34760
 C647 C 1.12946 0.57576 0.39290
 C648 C 1.14144 0.56859 0.42136
 C649 C 1.12020 0.55421 0.44278
 C650 C 1.08672 0.54697 0.43600
 C651 C 1.07576 0.55160 0.40694
 C652 C 1.09688 0.56578 0.38565
 H653 H 1.23248 0.62073 0.29033
 H654 H 1.26406 0.65891 0.25797
 H655 H 1.21535 0.74684 0.29807
 H656 H 1.18347 0.70845 0.33007
 H657 H 1.13905 0.66516 0.32549
 H658 H 1.10718 0.62932 0.35953
 H659 H 1.19643 0.56974 0.37874
 H660 H 1.22866 0.60622 0.34472
 H661 H 1.16649 0.57598 0.42753
 H662 H 1.12932 0.55074 0.46499
 H663 H 1.05027 0.54562 0.40091
 H664 H 1.08726 0.57020 0.36371
 C665 C 0.67063 0.19393 0.30744
 C666 C 0.69576 0.18124 0.28839
 C667 C 0.71429 0.20363 0.27070
 C668 C 0.70762 0.23904 0.27129
 C669 C 0.68201 0.25180 0.28953
 C670 C 0.66382 0.22952 0.30763
 C671 C 0.65253 0.17039 0.32782
 C672 C 0.61869 0.17647 0.33521
 C673 C 0.60236 0.15555 0.35574
 C674 C 0.61931 0.12772 0.36910
 C675 C 0.65283 0.12102 0.36103
 C676 C 0.66930 0.14223 0.34084
 C677 C 0.60251 0.10667 0.39219
 C678 C 0.62063 0.09429 0.41658
 C679 C 0.60458 0.07605 0.43907
 C680 C 0.56998 0.07027 0.43789
 C681 C 0.55188 0.08202 0.41336
 C682 C 0.56801 0.09981 0.39065
 H683 H 0.70130 0.15398 0.28724
 H684 H 0.73409 0.19311 0.25700
 H685 H 0.67667 0.27913 0.29035
 H686 H 0.64511 0.24034 0.32235
 H687 H 0.60481 0.19755 0.32527
 H688 H 0.57668 0.16179 0.36166
 H689 H 0.66651 0.09948 0.37047
 H690 H 0.69547 0.13698 0.33602
 H691 H 0.64707 0.09957 0.41881
 H692 H 0.61909 0.06737 0.45780
 H693 H 0.52518 0.07758 0.41181
 H694 H 0.55340 0.10829 0.37193
 C695 C 0.69787 0.69273 -0.19331
 C696 C 0.69190 0.72833 -0.19531
 C697 C 0.71368 0.74934 -0.21119
 C698 C 0.74173 0.73525 -0.22560
 C699 C 0.74806 0.69980 -0.22360
 C700 C 0.72618 0.67863 -0.20768
 C701 C 0.67477 0.67074 -0.17589
 C702 C 0.66493 0.63846 -0.18625
 C703 C 0.64237 0.61841 -0.17001
 C704 C 0.62923 0.63026 -0.14309
 C705 C 0.63946 0.66234 -0.13263
 C706 C 0.66192 0.68231 -0.14882
 C707 C 0.60558 0.60916 -0.12539
 C708 C 0.57870 0.62490 -0.11024
 C709 C 0.55864 0.60589 -0.09097
 C710 C 0.56492 0.57067 -0.08646
 C711 C 0.59057 0.55446 -0.10282
 C712 C 0.61074 0.57354 -0.12207
 H713 H 0.67015 0.73994 -0.18479
 H714 H 0.70851 0.77671 -0.21229
 H715 H 0.77003 0.68850 -0.23395
 H716 H 0.73171 0.65137 -0.20614
 H717 H 0.67416 0.62902 -0.20718
 H718 H 0.63481 0.59389 -0.17872
 H719 H 0.63050 0.67183 -0.11163
 H720 H 0.66955 0.70673 -0.13995
 H721 H 0.57360 0.65214 -0.11285
 H722 H 0.53883 0.61901 -0.07891
 H723 H 0.59601 0.52733 -0.09981
 H724 H 0.63131 0.56069 -0.13332
 C725 C 0.83163 -0.17312 -0.17818
 C726 C 0.81320 -0.20206 -0.16942
 C727 C 0.79470 -0.22035 -0.18984
 C728 C 0.79423 -0.21016 -0.21946
 C729 C 0.81283 -0.18152 -0.22842
 C730 C 0.83138 -0.16310 -0.20796
 C731 C 0.85078 -0.15354 -0.15611
 C732 C 0.88293 -0.14100 -0.16266
 C733 C 0.90116 -0.12356 -0.14135
 C734 C 0.88755 -0.11820 -0.11310
 C735 C 0.85529 -0.13052 -0.10673
 C736 C 0.83712 -0.14786 -0.12797
 C737 C 0.90681 -0.10033 -0.09005
 C738 C 0.89031 -0.07781 -0.07055
 C739 C 0.90755 -0.06306 -0.04736
 C740 C 0.94177 -0.07023 -0.04320
 C741 C 0.95872 -0.09165 -0.06328
 C742 C 0.94136 -0.10666 -0.08646
 H743 H 0.81342 -0.21089 -0.14678
 H744 H 0.78108 -0.24267 -0.18233
 H745 H 0.81292 -0.17333 -0.25124
 H746 H 0.84509 -0.14076 -0.21536
 H747 H 0.89424 -0.14523 -0.18407
 H748 H 0.92583 -0.11413 -0.14701
 H749 H 0.84423 -0.12728 -0.08509
 H750 H 0.81225 -0.15678 -0.12233
 H751 H 0.86392 -0.07175 -0.07311
 H752 H 0.89395 -0.04619 -0.03251
 H753 H 0.98515 -0.09749 -0.06064
 H754 H 0.95474 -0.12406 -0.10099
 C755 C 0.79400 0.33880 0.31323
 C756 C 0.77545 0.31084 0.32410
 C757 C 0.75731 0.29022 0.30508
 C758 C 0.75757 0.29684 0.27475
 C759 C 0.77689 0.32390 0.26365
 C760 C 0.79446 0.34505 0.28268
 C761 C 0.81354 0.36055 0.33360
 C762 C 0.84433 0.37458 0.32465
 C763 C 0.86358 0.39330 0.34425
 C764 C 0.85300 0.39786 0.37356
 C765 C 0.82175 0.38475 0.38230
 C766 C 0.80215 0.36661 0.36251
 C767 C 0.87544 0.41424 0.39526
 C768 C 0.86245 0.43384 0.41878
 C769 C 0.88385 0.44727 0.43999
 C770 C 0.91862 0.44185 0.43777
 C771 C 0.93162 0.42298 0.41400
 C772 C 0.91032 0.40908 0.39321
 H773 H 0.77534 0.30440 0.34729
 H774 H 0.74352 0.26887 0.31424
 H775 H 0.77804 0.32895 0.24020
 H776 H 0.80814 0.36643 0.27339
 H777 H 0.85421 0.37029 0.30274
 H778 H 0.88710 0.40372 0.33646
 H779 H 0.81282 0.38749 0.40471
 H780 H 0.77820 0.35699 0.37004
 H781 H 0.83578 0.43879 0.42084
 H782 H 0.87325 0.46186 0.45806
 H783 H 0.95832 0.41812 0.41184
 H784 H 0.92130 0.39345 0.37598
 C785 C 0.33428 -0.20104 0.31354
 C786 C 0.31539 -0.22817 0.32536
 C787 C 0.29554 -0.24826 0.30730
 C788 C 0.29394 -0.24162 0.27694
 C789 C 0.31443 -0.21598 0.26477
 C790 C 0.33419 -0.19566 0.28291
 C791 C 0.35301 -0.17800 0.33337
 C792 C 0.38491 -0.16568 0.32561
 C793 C 0.40240 -0.14441 0.34476
 C794 C 0.38832 -0.13495 0.37204
 C795 C 0.35631 -0.14706 0.37959
 C796 C 0.33887 -0.16817 0.36049
 C797 C 0.40704 -0.11335 0.39307
 C798 C 0.39001 -0.08883 0.41039
 C799 C 0.40687 -0.07076 0.43208
 C800 C 0.44121 -0.07659 0.43684
 C801 C 0.45864 -0.09997 0.41872
 C802 C 0.44171 -0.11825 0.39712
 H803 H 0.31580 -0.23380 0.34871
 H804 H 0.28139 -0.26873 0.31747
 H805 H 0.31429 -0.21082 0.24131
 H806 H 0.34852 -0.17504 0.27307
 H807 H 0.39659 -0.17292 0.30495
 H808 H 0.42688 -0.13528 0.33815
 H809 H 0.34489 -0.14075 0.40057
 H810 H 0.31412 -0.17669 0.36696
 H811 H 0.36349 -0.08383 0.40739
 H812 H 0.39289 -0.05255 0.44543
 H813 H 0.48515 -0.10494 0.42185
 H814 H 0.45554 -0.13711 0.38436
 C815 C 0.30337 0.31308 -0.19844
 C816 C 0.30198 0.31566 -0.22927
 C817 C 0.28100 0.29424 -0.24524
 C818 C 0.26109 0.26984 -0.23071
 C819 C 0.26196 0.26765 -0.19995
 C820 C 0.28269 0.28917 -0.18398
 C821 C 0.32686 0.33441 -0.18134
 C822 C 0.34368 0.32026 -0.15696
 C823 C 0.36505 0.34027 -0.14024
 C824 C 0.37049 0.37493 -0.14758
 C825 C 0.35418 0.38898 -0.17230
 C826 C 0.33259 0.36895 -0.18898
 C827 C 0.39197 0.39642 -0.12863
 C828 C 0.38278 0.43060 -0.12225
 C829 C 0.40093 0.44951 -0.10189
 C830 C 0.42841 0.43451 -0.08728
 C831 C 0.43858 0.40099 -0.09465
 C832 C 0.42067 0.38222 -0.11521
 H833 H 0.31784 0.33350 -0.24114
 H834 H 0.28097 0.29606 -0.26902
 H835 H 0.24719 0.24893 -0.18810
 H836 H 0.28266 0.28692 -0.16023
 H837 H 0.34035 0.29360 -0.15075
 H838 H 0.37674 0.32870 -0.12111
 H839 H 0.35805 0.41549 -0.17873
 H840 H 0.31988 0.38069 -0.20753
 H841 H 0.36068 0.44226 -0.13197
 H842 H 0.39251 0.47533 -0.09663
 H843 H 0.45996 0.38897 -0.08402
 H844 H 0.42895 0.35629 -0.12017
 C845 C 1.19159 -0.19378 0.20592
 C846 C 1.21407 -0.18017 0.22636
 C847 C 1.23636 -0.20162 0.24167
 C848 C 1.23679 -0.23724 0.23685
 C849 C 1.21275 -0.25114 0.21808
 C850 C 1.19077 -0.22967 0.20244
 C851 C 1.17015 -0.17062 0.18748
 C852 C 1.13790 -0.18053 0.17882
 C853 C 1.11887 -0.15974 0.15986
 C854 C 1.13142 -0.12830 0.14927
 C855 C 1.16322 -0.11792 0.15868
 C856 C 1.18238 -0.13886 0.17735
 C857 C 1.11209 -0.10715 0.12761
 C858 C 1.12879 -0.08947 0.10480
 C859 C 1.11077 -0.07090 0.08364
 C860 C 1.07558 -0.06986 0.08450
 C861 C 1.05878 -0.08697 0.10750
 C862 C 1.07683 -0.10528 0.12888
 H863 H 1.21459 -0.15281 0.23047
 H864 H 1.25315 -0.18997 0.25711
 H865 H 1.21179 -0.27863 0.21457
 H866 H 1.17394 -0.24121 0.18690
 H867 H 1.12738 -0.20451 0.18651
 H868 H 1.09466 -0.16881 0.15291
 H869 H 1.17351 -0.09364 0.15143
 H870 H 1.20723 -0.13047 0.18317
 H871 H 1.15582 -0.09076 0.10273
 H872 H 1.12442 -0.05810 0.06611
 H873 H 1.03165 -0.08644 0.10884
 H874 H 1.06312 -0.11801 0.14639
 C875 C 1.15845 0.29530 0.68653
 C876 C 1.15971 0.25933 0.68816
 C877 C 1.18242 0.24275 0.70687
 C878 C 1.20501 0.26176 0.72355
 C879 C 1.20317 0.29777 0.72250
 C880 C 1.18004 0.31442 0.70417
 C881 C 1.13512 0.31291 0.66611
 C882 C 1.11460 0.34005 0.67593
 C883 C 1.09420 0.35814 0.65620
 C884 C 1.09442 0.34994 0.62608
 C885 C 1.11422 0.32193 0.61653
 C886 C 1.13418 0.30347 0.63640
 C887 C 1.07645 0.37224 0.60444
 C888 C 1.06252 0.35861 0.57870
 C889 C 1.04901 0.38040 0.55705
 C890 C 1.04891 0.41617 0.56088
 C891 C 1.06138 0.42961 0.58715
 C892 C 1.07516 0.40800 0.60852
 H893 H 1.14280 0.24408 0.67523
 H894 H 1.18183 0.21510 0.70848
 H895 H 1.21935 0.31322 0.73583
 H896 H 1.17941 0.34224 0.70336
 H897 H 1.11454 0.34740 0.69886
 H898 H 1.07866 0.37896 0.66450
 H899 H 1.11547 0.31515 0.59350
 H900 H 1.14996 0.28269 0.62833
 H901 H 1.06253 0.33115 0.57507
 H902 H 1.03927 0.36935 0.53711
 H903 H 1.06171 0.45709 0.59077
 H904 H 1.08614 0.41960 0.62769
 C905 C 0.69436 -0.16832 0.69836
 C906 C 0.69807 -0.20381 0.69368
 C907 C 0.72067 -0.22329 0.71023
 C908 C 0.74057 -0.20779 0.73150
 C909 C 0.73676 -0.17244 0.73660
 C910 C 0.71392 -0.15281 0.72009
 C911 C 0.67072 -0.14781 0.67998
 C912 C 0.67950 -0.11506 0.66946
 C913 C 0.65887 -0.09752 0.64951
 C914 C 0.62913 -0.11242 0.63948
 C915 C 0.61959 -0.14442 0.65112
 C916 C 0.64005 -0.16181 0.67122
 C917 C 0.60949 -0.09604 0.61538
 C918 C 0.57430 -0.09826 0.61468
 C919 C 0.55633 -0.08536 0.59061
 C920 C 0.57321 -0.06987 0.56686
 C921 C 0.60822 -0.06676 0.56794
 C922 C 0.62614 -0.07980 0.59183
 H923 H 0.68380 -0.21657 0.67689
 H924 H 0.72227 -0.25059 0.70638
 H925 H 0.75091 -0.15997 0.75355
 H926 H 0.71126 -0.12563 0.72458
 H927 H 0.70296 -0.10357 0.67568
 H928 H 0.66663 -0.07259 0.64142
 H929 H 0.59701 -0.15680 0.64378
 H930 H 0.63218 -0.18667 0.67941
 H931 H 0.56064 -0.11015 0.63266
 H932 H 0.52930 -0.08776 0.59048
 H933 H 0.62191 -0.05482 0.55000
 H934 H 0.65322 -0.07815 0.59133
 C935 C 0.66137 0.33519 0.18954
 C936 C 0.65973 0.29914 0.18994
 C937 C 0.68034 0.27981 0.20863
 C938 C 0.70335 0.29605 0.22690
 C939 C 0.70344 0.33207 0.22793
 C940 C 0.68286 0.35146 0.20927
 C941 C 0.64204 0.35559 0.16768
 C942 C 0.65717 0.38320 0.15280
 C943 C 0.64010 0.40094 0.13061
 C944 C 0.60749 0.39149 0.12279
 C945 C 0.59200 0.36445 0.13818
 C946 C 0.60911 0.34667 0.16039
 C947 C 0.59054 0.40870 0.09767
 C948 C 0.57273 0.38931 0.07718
 C949 C 0.55890 0.40503 0.05231
 C950 C 0.56263 0.44045 0.04738
 C951 C 0.57960 0.46005 0.06826
 C952 C 0.59345 0.44432 0.09314
 H953 H 0.64325 0.28580 0.17517
 H954 H 0.67825 0.25217 0.20861
 H955 H 0.71942 0.34554 0.24286
 H956 H 0.68392 0.37923 0.21012
 H957 H 0.68271 0.39032 0.15757
 H958 H 0.65292 0.42127 0.11885
 H959 H 0.56670 0.35693 0.13292
 H960 H 0.59663 0.32583 0.17178
 H961 H 0.57038 0.36177 0.07989
 H962 H 0.54575 0.38932 0.03667
 H963 H 0.58257 0.48749 0.06519
 H964 H 0.60661 0.46000 0.10877
 C965 C 0.80641 0.20535 0.18937
 C966 C 0.81916 0.22805 0.21031
 C967 C 0.79742 0.24774 0.22786
 C968 C 0.76256 0.24521 0.22470
 C969 C 0.74987 0.22270 0.20372
 C970 C 0.77150 0.20299 0.18626
 C971 C 0.82917 0.18358 0.17118
 C972 C 0.82177 0.17750 0.14153
 C973 C 0.84204 0.15564 0.12471
 C974 C 0.87030 0.13943 0.13709
 C975 C 0.87822 0.14605 0.16655
 C976 C 0.85780 0.16786 0.18346
 C977 C 0.89123 0.11572 0.11912
 C978 C 0.92641 0.11723 0.11976
 C979 C 0.94588 0.09664 0.10100
 C980 C 0.93049 0.07411 0.08136
 C981 C 0.89540 0.07157 0.08166
 C982 C 0.87599 0.09219 0.10030
 H983 H 0.84595 0.23064 0.21311
 H984 H 0.80805 0.26445 0.24412
 H985 H 0.72324 0.21928 0.20137
 H986 H 0.76082 0.18517 0.17085
 H987 H 0.80030 0.18977 0.13125
 H988 H 0.83575 0.15161 0.10187
 H989 H 0.89974 0.13372 0.17669
 H990 H 0.86395 0.17169 0.20635
 H991 H 0.93880 0.13522 0.13399
 H992 H 0.97290 0.09910 0.10126
 H993 H 0.88284 0.05425 0.06693
 H994 H 0.84895 0.09001 0.09976
 C995 C 0.83823 0.71105 0.68302
 C996 C 0.85153 0.73631 0.70137
 C997 C 0.83165 0.75137 0.72340
 C998 C 0.79816 0.74151 0.72740
 C999 C 0.78537 0.71533 0.70990
 C1000 C 0.80516 0.70022 0.68801
 C1001 C 0.85825 0.69611 0.65847
 C1002 C 0.84275 0.68923 0.63153
 C1003 C 0.86016 0.67196 0.60933
 C1004 C 0.89357 0.66139 0.61341
 C1005 C 0.90988 0.67007 0.63953
 C1006 C 0.89232 0.68726 0.66195
 C1007 C 0.90958 0.63793 0.59190
 C1008 C 0.94176 0.64390 0.58022
 C1009 C 0.95608 0.62091 0.55989
 C1010 C 0.93868 0.59131 0.55169
 C1011 C 0.90665 0.58549 0.56364
 C1012 C 0.89223 0.60859 0.58333
 H1013 H 0.87694 0.74515 0.69812
 H1014 H 0.84240 0.77123 0.73669
 H1015 H 0.76000 0.70648 0.71299
 H1016 H 0.79447 0.68005 0.67489
 H1017 H 0.81685 0.69658 0.62783
 H1018 H 0.84721 0.66590 0.58919
 H1019 H 0.93559 0.66194 0.64320
 H1020 H 0.90493 0.69219 0.68247
 H1021 H 0.95557 0.66642 0.58660
 H1022 H 0.98081 0.62591 0.55101
 H1023 H 0.89253 0.56302 0.55764
 H1024 H 0.86758 0.60321 0.59229
 C1025 C 0.30781 0.17147 0.68927
 C1026 C 0.32088 0.19646 0.70798
 C1027 C 0.29953 0.21610 0.72587
 C1028 C 0.26470 0.21138 0.72520
 C1029 C 0.25180 0.18556 0.70734
 C1030 C 0.27308 0.16587 0.68950
 C1031 C 0.33008 0.15192 0.66898
 C1032 C 0.31980 0.14556 0.64008
 C1033 C 0.34060 0.12749 0.62070
 C1034 C 0.37222 0.11532 0.62972
 C1035 C 0.38269 0.12182 0.65856
 C1036 C 0.36179 0.13992 0.67803
 C1037 C 0.39408 0.09631 0.60875
 C1038 C 0.42858 0.10308 0.60666
 C1039 C 0.44837 0.08719 0.58500
 C1040 C 0.43392 0.06437 0.56508
 C1041 C 0.39977 0.05657 0.56800
 C1042 C 0.38010 0.07231 0.58961
 H1043 H 0.34753 0.20140 0.70830
 H1044 H 0.31054 0.23499 0.73999
 H1045 H 0.22537 0.18010 0.70731
 H1046 H 0.26234 0.14612 0.67596
 H1047 H 0.29584 0.15511 0.63225
 H1048 H 0.33214 0.12356 0.59841
 H1049 H 0.40681 0.11249 0.66617
 H1050 H 0.37025 0.14415 0.70027
 H1051 H 0.44000 0.12158 0.62104
 H1052 H 0.47468 0.09356 0.58327
 H1053 H 0.38806 0.03868 0.55323
 H1054 H 0.35376 0.06600 0.59112
 C1055 C 0.32964 0.67459 0.18673
 C1056 C 0.33680 0.67219 0.21687
 C1057 C 0.31803 0.69135 0.23727
 C1058 C 0.29189 0.71325 0.22785
 C1059 C 0.28631 0.71717 0.19753
 C1060 C 0.30464 0.69767 0.17725
 C1061 C 0.34753 0.65274 0.16504
 C1062 C 0.32925 0.63418 0.14434
 C1063 C 0.34579 0.61465 0.12292
 C1064 C 0.38096 0.61371 0.12149
 C1065 C 0.39931 0.63193 0.14242
 C1066 C 0.38271 0.65101 0.16423
 C1067 C 0.39819 0.59520 0.09723
 C1068 C 0.42293 0.61170 0.08035
 C1069 C 0.43707 0.59554 0.05578
 C1070 C 0.42715 0.56235 0.04789
 C1071 C 0.40327 0.54533 0.06540
 C1072 C 0.38868 0.56175 0.08969
 H1073 H 0.35617 0.65473 0.22467
 H1074 H 0.32344 0.68836 0.26047
 H1075 H 0.26771 0.73494 0.18909
 H1076 H 0.29930 0.70063 0.15404
 H1077 H 0.30209 0.63493 0.14468
 H1078 H 0.33109 0.60110 0.10689
 H1079 H 0.42646 0.63149 0.14180
 H1080 H 0.39730 0.66520 0.17993
 H1081 H 0.43049 0.63757 0.08557
 H1082 H 0.45556 0.60918 0.04277
 H1083 H 0.39523 0.51969 0.05989
 H1084 H 0.36979 0.54844 0.10250
   
