data_POSCAR
  _audit_creation_date              2014-09-24
  _audit_creation_method            'ToBaCCo'
  _symmetry_space_group_name_H-M    'P1'
  _symmetry_Int_Tables_number       1
  _symmetry_cell_setting            triclinic
  loop_
  _symmetry_equiv_pos_as_xyz
 x,y,z
_cell_length_a 34.8610
_cell_length_b 35.8019
_cell_length_c 19.3199
_cell_angle_alpha 89.967900
_cell_angle_beta 89.980900
_cell_angle_gamma 117.304400
loop_
  _atom_site_label
  _atom_site_type_symbol
  _atom_site_fract_x
  _atom_site_fract_y
  _atom_site_fract_z
C1 C 0.44814 0.91240 0.56388
 C2 C 0.43524 0.89163 0.50001
 C3 C 0.45082 0.91247 0.43725
 C4 C 0.47927 0.95602 0.43703
 C5 C 0.49066 0.97852 0.50035
 C6 C 0.47535 0.95671 0.56400
 C7 C 0.48633 0.98017 0.62561
 C8 C 0.51418 1.02296 0.62552
 C9 C 0.52949 1.04550 0.56335
 C10 C 0.51785 1.02288 0.49995
 C11 C 0.49782 0.97731 0.37531
 C12 C 0.52523 1.02022 0.37511
 C13 C 0.53413 1.04419 0.43620
 C14 C 0.56159 1.08833 0.43577
 C15 C 0.57483 1.10934 0.49940
 C16 C 0.55822 1.08940 0.56295
 H17 H 0.47355 0.96589 0.67516
 H18 H 0.52392 1.03778 0.67550
 H19 H 0.49205 0.96085 0.32645
 H20 H 0.54017 1.03414 0.32635
 H21 H 0.41471 0.85792 0.49873
 H22 H 0.59482 1.14315 0.49923
 C23 C -0.09061 0.44534 0.43733
 C24 C -0.11220 0.43037 0.50003
 C25 C -0.09139 0.44398 0.56418
 C26 C -0.04614 0.47166 0.56476
 C27 C -0.02365 0.48653 0.50114
 C28 C -0.04604 0.47361 0.43735
 C29 C -0.02311 0.48853 0.37512
 C30 C 0.02086 0.51590 0.37530
 C31 C 0.04398 0.52862 0.43765
 C32 C 0.02156 0.51393 0.50118
 C33 C -0.02211 0.48270 0.62667
 C34 C 0.02181 0.51029 0.62679
 C35 C 0.04433 0.52633 0.56470
 C36 C 0.08907 0.55435 0.56436
 C37 C 0.11051 0.56904 0.50140
 C38 C 0.08892 0.55592 0.43821
 H39 H -0.03885 0.47899 0.32538
 H40 H 0.03651 0.52698 0.32580
 H41 H -0.03665 0.46957 0.67599
 H42 H 0.03799 0.51852 0.67635
 H43 H -0.14673 0.40993 0.49839
 H44 H 0.14497 0.58987 0.50155
 C45 C 0.53291 0.44133 0.43857
 C46 C 0.54062 0.42676 0.50148
 C47 C 0.53420 0.44183 0.56533
 C48 C 0.51622 0.47051 0.56560
 C49 C 0.50675 0.48442 0.50190
 C50 C 0.51562 0.47014 0.43827
 C51 C 0.50632 0.48445 0.37586
 C52 C 0.48936 0.51278 0.37566
 C53 C 0.47970 0.52699 0.43785
 C54 C 0.48812 0.51254 0.50168
 C55 C 0.50537 0.48407 0.62753
 C56 C 0.48869 0.51261 0.62734
 C57 C 0.47828 0.52635 0.56518
 C58 C 0.46043 0.55513 0.56448
 C59 C 0.45444 0.57035 0.50046
 C60 C 0.46251 0.55588 0.43775
 H61 H 0.51195 0.47382 0.32627
 H62 H 0.48403 0.52351 0.32594
 H63 H 0.50918 0.47259 0.67743
 H64 H 0.48457 0.52396 0.67714
 H65 H 0.55514 0.40567 0.50017
 H66 H 0.44004 0.59154 0.49883
 O67 O 0.39890 0.66551 -0.05922
 O68 O 0.39391 0.73491 -0.08056
 C69 C 0.37187 0.75389 -0.09395
 O70 O 0.33877 0.74886 -0.05964
 O71 O 0.26935 0.67811 -0.07863
 C72 C 0.25144 0.63909 -0.09113
 O73 O 0.25850 0.61272 -0.05649
 O74 O 0.33258 0.61354 -0.07797
 C75 C 0.37232 0.63347 -0.09246
 O76 O 0.39754 0.67781 0.07869
 O77 O 0.39606 0.74893 0.05719
 C78 C 0.36832 0.75507 0.09136
 O79 O 0.32829 0.73675 0.07855
 O80 O 0.25680 0.66787 0.05959
 C81 C 0.25257 0.63604 0.09422
 O82 O 0.27308 0.61547 0.08125
 O83 O 0.34548 0.61261 0.05989
 C84 C 0.37814 0.63904 0.09295
 Cr85 Cr 0.39420 0.70564 -0.00092
 Cr86 Cr 0.29957 0.70671 -0.00002
 Cr87 Cr 0.30354 0.61592 0.00164
 O88 O 0.33245 0.67609 0.00027
 O89 O 0.59826 0.33319 -0.05760
 O90 O 0.60497 0.26472 -0.07919
 C91 C 0.62787 0.24678 -0.09363
 O92 O 0.66145 0.25257 -0.06004
 O93 O 0.72955 0.32413 -0.08008
 C94 C 0.74658 0.36308 -0.09288
 O95 O 0.73899 0.38904 -0.05807
 O96 O 0.66383 0.38616 -0.07779
 C97 C 0.62406 0.36541 -0.09144
 O98 O 0.60107 0.32143 0.08029
 O99 O 0.60430 0.25113 0.05876
 C100 C 0.63289 0.24588 0.09204
 O101 O 0.67275 0.26494 0.07804
 O102 O 0.74296 0.33476 0.05792
 C103 C 0.74659 0.36633 0.09263
 O104 O 0.72531 0.38620 0.08004
 O105 O 0.65181 0.38711 0.06032
 C106 C 0.61972 0.36027 0.09408
 Cr107 Cr 0.60455 0.29381 0.00057
 Cr108 Cr 0.70035 0.29524 -0.00098
 Cr109 Cr 0.69390 0.38479 0.00111
 O110 O 0.66625 0.32460 0.00029
 C111 C 0.40927 0.83436 -0.25827
 C112 C 0.45210 0.86533 -0.26498
 C113 C 0.46493 0.89153 -0.32312
 C114 C 0.43494 0.88756 -0.37523
 C115 C 0.39204 0.85567 -0.36813
 C116 C 0.37931 0.82959 -0.30993
 C117 C 0.39626 0.80658 -0.19949
 C118 C 0.38517 0.78278 -0.15092
 H119 H 0.47574 0.86879 -0.22583
 H120 H 0.49870 0.91395 -0.32839
 H121 H 0.36800 0.85142 -0.40704
 H122 H 0.34612 0.80551 -0.30546
 C123 C 0.16833 0.59647 -0.25436
 C124 C 0.14961 0.55399 -0.27322
 C125 C 0.12318 0.54004 -0.33173
 C126 C 0.11505 0.56846 -0.37156
 C127 C 0.13386 0.61099 -0.35244
 C128 C 0.16029 0.62490 -0.29396
 C129 C 0.19693 0.61119 -0.19583
 C130 C 0.22149 0.62380 -0.14757
 H131 H 0.15587 0.53179 -0.24322
 H132 H 0.10942 0.50725 -0.34646
 H133 H 0.12827 0.63335 -0.38311
 H134 H 0.17483 0.65788 -0.28008
 C135 C 0.41663 0.59402 -0.25812
 C136 C 0.40564 0.55155 -0.26720
 C137 C 0.42021 0.53858 -0.32543
 C138 C 0.44665 0.56805 -0.37515
 C139 C 0.45650 0.61062 -0.36603
 C140 C 0.44193 0.62347 -0.30776
 C141 C 0.40120 0.60742 -0.19878
 C142 C 0.38816 0.61910 -0.14976
 H143 H 0.38537 0.52836 -0.22970
 H144 H 0.40978 0.50530 -0.33250
 H145 H 0.47645 0.63424 -0.40319
 H146 H 0.45035 0.65641 -0.30151
 C147 C 0.59282 0.16790 -0.25989
 C148 C 0.54954 0.13940 -0.27162
 C149 C 0.53796 0.11331 -0.32983
 C150 C 0.56964 0.11481 -0.37680
 C151 C 0.61298 0.14459 -0.36521
 C152 C 0.62444 0.17058 -0.30697
 C153 C 0.60479 0.19512 -0.20043
 C154 C 0.61518 0.21839 -0.15123
 H155 H 0.52468 0.13765 -0.23617
 H156 H 0.50406 0.09269 -0.33901
 H157 H 0.63824 0.14705 -0.40040
 H158 H 0.65801 0.19281 -0.29872
 C159 C 0.82846 0.40449 -0.25795
 C160 C 0.85946 0.44651 -0.26464
 C161 C 0.88627 0.45962 -0.32290
 C162 C 0.88290 0.43072 -0.37515
 C163 C 0.85087 0.38862 -0.36809
 C164 C 0.82420 0.37564 -0.30981
 C165 C 0.80033 0.39087 -0.19869
 C166 C 0.77613 0.37863 -0.14988
 H167 H 0.86254 0.46927 -0.22529
 H168 H 0.90872 0.49268 -0.32805
 H169 H 0.84709 0.36538 -0.40696
 H170 H 0.80015 0.34305 -0.30531
 C171 C 0.57796 0.40341 -0.25666
 C172 C 0.55294 0.37387 -0.30628
 C173 C 0.53833 0.38654 -0.36472
 C174 C 0.54787 0.42902 -0.37404
 C175 C 0.57398 0.45859 -0.32427
 C176 C 0.58860 0.44580 -0.26589
 C177 C 0.59374 0.39030 -0.19739
 C178 C 0.60730 0.37905 -0.14849
 H179 H 0.54483 0.34100 -0.29994
 H180 H 0.51863 0.36285 -0.40192
 H181 H 0.58420 0.49183 -0.33147
 H182 H 0.60868 0.46908 -0.22843
 C183 C 0.82991 0.40566 0.25590
 C184 C 0.83634 0.37629 0.29567
 C185 C 0.86289 0.38935 0.35412
 C186 C 0.88345 0.43195 0.37302
 C187 C 0.87692 0.46128 0.33295
 C188 C 0.85038 0.44820 0.27450
 C189 C 0.80117 0.39195 0.19744
 C190 C 0.77654 0.38034 0.14917
 H191 H 0.82044 0.34328 0.28198
 H192 H 0.86720 0.36628 0.38496
 H193 H 0.89197 0.49415 0.34753
 H194 H 0.84538 0.47113 0.24438
 C195 C 0.59717 0.16543 0.25648
 C196 C 0.55507 0.13308 0.26353
 C197 C 0.54344 0.10715 0.32200
 C198 C 0.57393 0.11283 0.37431
 C199 C 0.61616 0.14594 0.36659
 C200 C 0.62767 0.17174 0.30804
 C201 C 0.60894 0.19300 0.19740
 C202 C 0.61944 0.21677 0.14877
 H203 H 0.53100 0.12832 0.22440
 H204 H 0.51009 0.08365 0.32743
 H205 H 0.64066 0.15144 0.40531
 H206 H 0.66035 0.19683 0.30322
 C207 C 0.57454 0.40059 0.25764
 C208 C 0.59396 0.44325 0.27537
 C209 C 0.57986 0.45663 0.33362
 C210 C 0.54596 0.42748 0.37440
 C211 C 0.52658 0.38475 0.35640
 C212 C 0.54072 0.37139 0.29813
 C213 C 0.59017 0.38662 0.19920
 C214 C 0.60357 0.37475 0.15086
 H215 H 0.62034 0.46606 0.24470
 H216 H 0.59567 0.48961 0.34751
 H217 H 0.50076 0.36180 0.38778
 H218 H 0.52564 0.33827 0.28510
 C219 C 0.16910 0.59702 0.25748
 C220 C 0.14638 0.55410 0.27296
 C221 C 0.11962 0.54064 0.33116
 C222 C 0.11508 0.57000 0.37414
 C223 C 0.13786 0.61299 0.35834
 C224 C 0.16466 0.62643 0.30012
 C225 C 0.19801 0.61091 0.19919
 C226 C 0.22270 0.62243 0.15094
 H227 H 0.14982 0.53111 0.24059
 H228 H 0.10286 0.50742 0.34330
 H229 H 0.13511 0.63607 0.39141
 H230 H 0.18228 0.65973 0.28883
 C231 C 0.41061 0.83545 0.25537
 C232 C 0.43643 0.82929 0.30498
 C233 C 0.44993 0.85481 0.36369
 C234 C 0.43791 0.88689 0.37323
 C235 C 0.41210 0.89307 0.32331
 C236 C 0.39857 0.86748 0.26448
 C237 C 0.39570 0.80804 0.19629
 C238 C 0.38322 0.78425 0.14782
 H239 H 0.44578 0.80452 0.29858
 H240 H 0.46962 0.84948 0.40193
 H241 H 0.40217 0.91740 0.33033
 H242 H 0.37842 0.87236 0.22656
 C243 C 0.42243 0.59761 0.25624
 C244 C 0.45606 0.62654 0.29723
 C245 C 0.46973 0.61285 0.35565
 C246 C 0.45005 0.57004 0.37332
 C247 C 0.41637 0.54115 0.33200
 C248 C 0.40274 0.55486 0.27359
 C249 C 0.40717 0.61194 0.19781
 C250 C 0.39404 0.62415 0.14954
 H251 H 0.47133 0.65972 0.28451
 H252 H 0.49538 0.63560 0.38745
 H253 H 0.40033 0.50811 0.34562
 H254 H 0.37649 0.53225 0.24254
   
