data_POSCAR
  _audit_creation_date              2014-09-24
  _audit_creation_method            'ToBaCCo'
  _symmetry_space_group_name_H-M    'P1'
  _symmetry_Int_Tables_number       1
  _symmetry_cell_setting            triclinic
  loop_
  _symmetry_equiv_pos_as_xyz
 x,y,z
_cell_length_a 45.6016
_cell_length_b 45.0193
_cell_length_c 44.5175
_cell_angle_alpha 89.655800
_cell_angle_beta 89.990100
_cell_angle_gamma 89.658500
loop_
  _atom_site_label
  _atom_site_type_symbol
  _atom_site_fract_x
  _atom_site_fract_y
  _atom_site_fract_z
C1 C 0.20234 0.52121 1.03456
 H2 H 0.20142 0.53796 1.01704
 C3 C 0.18242 0.52219 1.05835
 H4 H 0.16612 0.53979 1.05916
 C5 C 0.22425 0.47741 1.05446
 H6 H 0.24023 0.45972 1.05258
 C7 C 0.20471 0.47754 1.07867
 H8 H 0.20588 0.46001 1.09543
 N9 N 0.22285 0.49919 1.03314
 C10 C 0.29253 0.53584 0.97727
 H11 H 0.29398 0.51899 0.96010
 C12 C 0.31172 0.55989 0.97678
 H13 H 0.32801 0.56165 0.95915
 C14 C 0.27011 0.55376 1.02177
 H15 H 0.25429 0.55101 1.03960
 C16 C 0.28890 0.57815 1.02211
 H17 H 0.28733 0.59422 1.04007
 Zn18 Zn 0.24802 0.49920 0.99929
 N19 N 0.27212 0.53331 0.99943
 C20 C 0.22496 0.52127 0.94393
 N21 N 0.22384 0.49896 0.96470
 C22 C 0.20406 0.47659 0.96233
 C23 C 0.18450 0.47593 0.93821
 C24 C 0.20576 0.52145 0.91946
 C25 C 0.29307 0.46370 1.02273
 C26 C 0.31327 0.44029 1.02380
 C27 C 0.29252 0.42128 0.97787
 C28 C 0.27266 0.44506 0.97765
 N29 N 0.27321 0.46560 0.99998
 H30 H 0.24030 0.53924 0.94657
 H31 H 0.20330 0.45944 0.97943
 H32 H 0.16865 0.45818 0.93667
 H33 H 0.20654 0.53944 0.90321
 H34 H 0.29336 0.48061 1.03989
 H35 H 0.32915 0.43909 1.04187
 H36 H 0.29215 0.40518 0.95989
 H37 H 0.25723 0.44732 0.95938
 C38 C 0.30990 0.58121 0.99943
 C39 C 0.18360 0.50015 1.08061
 C40 C 0.31304 0.41893 1.00113
 C41 C 0.18531 0.49862 0.91664
 C42 C 0.79195 0.52601 -0.03854
 H43 H 0.79278 0.54300 -0.02149
 C44 C 0.81152 0.52679 -0.06266
 H45 H 0.82747 0.54447 -0.06426
 C46 C 0.77076 0.48165 -0.05686
 H47 H 0.75528 0.46378 -0.05421
 C48 C 0.78995 0.48160 -0.08133
 H49 H 0.78903 0.46380 -0.09757
 N50 N 0.77200 0.50376 -0.03616
 C51 C 0.70255 0.53909 0.02090
 H52 H 0.70196 0.52202 0.03810
 C53 C 0.68257 0.56267 0.02174
 H54 H 0.66654 0.56384 0.03966
 C55 C 0.72355 0.55797 -0.02402
 H56 H 0.73915 0.55575 -0.04214
 C57 C 0.70392 0.58193 -0.02405
 H58 H 0.70459 0.59820 -0.04206
 Zn59 Zn 0.74753 0.50350 -0.00181
 N60 N 0.72261 0.53724 -0.00165
 C61 C 0.77088 0.52529 0.05314
 N62 N 0.77231 0.50332 0.03229
 C63 C 0.79260 0.48112 0.03440
 C64 C 0.81224 0.48018 0.05844
 C65 C 0.79015 0.52519 0.07755
 C66 C 0.70287 0.46759 -0.02404
 C67 C 0.68340 0.44378 -0.02470
 C68 C 0.70560 0.42473 0.02085
 C69 C 0.72468 0.44891 0.02066
 N70 N 0.72311 0.46962 -0.00171
 H71 H 0.75512 0.54314 0.05071
 H72 H 0.79357 0.46422 0.01724
 H73 H 0.82839 0.46247 0.05988
 H74 H 0.78901 0.54282 0.09397
 H75 H 0.70177 0.48464 -0.04124
 H76 H 0.66728 0.44240 -0.04250
 H77 H 0.70684 0.40843 0.03880
 H78 H 0.74040 0.45127 0.03862
 C79 C 0.68322 0.58424 -0.00098
 C80 C 0.81053 0.50435 -0.08421
 C81 C 0.68477 0.42218 -0.00204
 C82 C 0.81100 0.50242 0.08020
 C83 C -0.02500 0.29261 0.46133
 H84 H -0.04210 0.29300 0.47818
 C85 C -0.02616 0.31234 0.43703
 H86 H -0.04425 0.32796 0.43515
 C87 C 0.01988 0.27231 0.44365
 H88 H 0.03806 0.25711 0.44661
 C89 C 0.01960 0.29168 0.41901
 H90 H 0.03748 0.29111 0.40298
 N91 N -0.00234 0.27299 0.46409
 C92 C -0.03567 0.20143 0.52086
 H93 H -0.01916 0.20111 0.53831
 C94 C -0.05835 0.18072 0.52142
 H95 H -0.05940 0.16443 0.53940
 C96 C -0.05413 0.22254 0.47567
 H97 H -0.05211 0.23847 0.45757
 C98 C -0.07716 0.20220 0.47537
 H99 H -0.09295 0.20272 0.45719
 Zn100 Zn -0.00178 0.24813 0.49854
 N101 N -0.03409 0.22192 0.49834
 C102 C -0.02472 0.27074 0.55353
 N103 N -0.00310 0.27312 0.53255
 C104 C 0.01788 0.29438 0.53461
 C105 C 0.01800 0.31397 0.55879
 C106 C -0.02540 0.28992 0.57809
 C107 C 0.03608 0.20409 0.47703
 C108 C 0.06054 0.18529 0.47680
 C109 C 0.07734 0.20843 0.52248
 C110 C 0.05257 0.22682 0.52185
 N111 N 0.03266 0.22448 0.49921
 H112 H -0.04159 0.25419 0.55115
 H113 H 0.03452 0.29606 0.51737
 H114 H 0.03480 0.33082 0.56024
 H115 H -0.04269 0.28797 0.59467
 H116 H 0.01966 0.20237 0.45960
 H117 H 0.06303 0.16902 0.45914
 H118 H 0.09300 0.21026 0.54066
 H119 H 0.04913 0.24260 0.53969
 C120 C -0.07926 0.18111 0.49845
 C121 C -0.00362 0.31190 0.41569
 C122 C 0.08133 0.18749 0.49975
 C123 C -0.00381 0.31168 0.58074
 C124 C 0.98589 0.70574 0.53292
 H125 H 0.96914 0.70511 0.51573
 C126 C 0.98498 0.68574 0.55699
 H127 H 0.96747 0.66964 0.55840
 C128 C 1.02963 0.72698 0.55174
 H129 H 1.04728 0.74270 0.54934
 C130 C 1.02956 0.70734 0.57618
 H131 H 1.04703 0.70814 0.59263
 N132 N 1.00785 0.72598 0.53084
 C133 C 0.97219 0.79729 0.47466
 H134 H 0.98879 0.79833 0.45733
 C135 C 0.94862 0.81725 0.47417
 H136 H 0.94698 0.83369 0.45637
 C137 C 0.95435 0.77510 0.51949
 H138 H 0.95692 0.75905 0.53743
 C139 C 0.93044 0.79466 0.51984
 H140 H 0.91456 0.79342 0.53790
 Zn141 Zn 1.00790 0.75135 0.49673
 N142 N 0.97451 0.77660 0.49697
 C143 C 0.98597 0.72851 0.44158
 N144 N 1.00785 0.72678 0.46234
 C145 C 1.02970 0.70619 0.46004
 C146 C 1.03028 0.68647 0.43596
 C147 C 0.98573 0.70917 0.41713
 C148 C 1.04350 0.79611 0.51949
 C149 C 1.06705 0.81575 0.52045
 C150 C 1.08567 0.79402 0.47468
 C151 C 1.06176 0.77474 0.47458
 N152 N 1.04137 0.77601 0.49691
 H153 H 0.96842 0.74449 0.44416
 H154 H 1.04653 0.70497 0.47714
 H155 H 1.04763 0.67000 0.43445
 H156 H 0.96810 0.71046 0.40086
 H157 H 1.02673 0.79696 0.53666
 H158 H 1.06847 0.83180 0.53842
 H159 H 1.10168 0.79307 0.45673
 H160 H 1.05933 0.75913 0.45644
 C161 C 0.92757 0.81592 0.49698
 C162 C 1.00702 0.68655 0.57880
 C163 C 1.08829 0.81472 0.49782
 C164 C 1.00806 0.68793 0.41436
 C165 C 0.46289 -0.02180 0.29832
 H166 H 0.47973 -0.03878 0.29970
 C167 C 0.43915 -0.02243 0.31809
 H168 H 0.43766 -0.03994 0.33481
 C169 C 0.44453 0.02218 0.27527
 H170 H 0.44695 0.03979 0.25890
 C171 C 0.42042 0.02238 0.29466
 H172 H 0.40426 0.04005 0.29305
 N173 N 0.46502 0.00013 0.27727
 C174 C 0.51963 -0.03789 0.20676
 H175 H 0.53674 -0.02140 0.20530
 C176 C 0.51993 -0.06222 0.18744
 H177 H 0.53738 -0.06449 0.17106
 C178 C 0.47560 -0.05471 0.22939
 H179 H 0.45806 -0.05144 0.24535
 C180 C 0.47505 -0.07936 0.21051
 H181 H 0.45719 -0.09506 0.21221
 Zn182 Zn 0.49841 -0.00060 0.25203
 N183 N 0.49782 -0.03472 0.22738
 C184 C 0.55179 -0.02373 0.27610
 N185 N 0.53185 -0.00113 0.27728
 C186 C 0.53441 0.02108 0.29769
 C187 C 0.55799 0.02139 0.31770
 C188 C 0.57571 -0.02428 0.29572
 C189 C 0.47697 0.03558 0.20562
 C190 C 0.47646 0.05943 0.18542
 C191 C 0.52115 0.07752 0.20782
 C192 C 0.52083 0.05332 0.22762
 N193 N 0.49881 0.03308 0.22633
 H194 H 0.54902 -0.04158 0.26028
 H195 H 0.51797 0.03849 0.29849
 H196 H 0.55981 0.03911 0.33393
 H197 H 0.59141 -0.04240 0.29475
 H198 H 0.46001 0.01890 0.20476
 H199 H 0.45903 0.06121 0.16896
 H200 H 0.53881 0.09347 0.20888
 H201 H 0.53837 0.05060 0.24371
 C202 C 0.49743 -0.08316 0.18935
 C203 C 0.41772 -0.00016 0.31622
 C204 C 0.49875 0.08059 0.18655
 C205 C 0.57881 -0.00152 0.31670
 C206 C 0.53771 -0.02315 0.70421
 H207 H 0.52084 -0.03993 0.70376
 C208 C 0.56080 -0.02426 0.68363
 H209 H 0.56181 -0.04199 0.66731
 C210 C 0.55670 0.02090 0.72553
 H211 H 0.55476 0.03876 0.74151
 C212 C 0.58017 0.02063 0.70533
 H213 H 0.59634 0.03814 0.70599
 N214 N 0.53619 -0.00093 0.72476
 C215 C 0.48248 -0.03598 0.79766
 H216 H 0.46608 -0.01858 0.79907
 C217 C 0.48168 -0.05997 0.81764
 H218 H 0.46461 -0.06110 0.83453
 C219 C 0.52517 -0.05550 0.77434
 H220 H 0.54235 -0.05343 0.75778
 C221 C 0.52519 -0.07988 0.79393
 H222 H 0.54227 -0.09662 0.79228
 Zn223 Zn 0.50342 -0.00052 0.75089
 N224 N 0.50384 -0.03431 0.77638
 C225 C 0.44888 -0.02210 0.72910
 N226 N 0.46933 -0.00030 0.72664
 C227 C 0.46657 0.02186 0.70589
 C228 C 0.44219 0.02301 0.68695
 C229 C 0.42415 -0.02178 0.71057
 C230 C 0.52637 0.03576 0.79593
 C231 C 0.52733 0.05967 0.81576
 C232 C 0.48209 0.07818 0.79424
 C233 C 0.48196 0.05393 0.77480
 N234 N 0.50402 0.03343 0.77584
 H235 H 0.45179 -0.03993 0.74517
 H236 H 0.48339 0.03862 0.70410
 H237 H 0.44016 0.04073 0.67050
 H238 H 0.40800 -0.03923 0.71259
 H239 H 0.54333 0.01887 0.79664
 H240 H 0.54513 0.06128 0.83176
 H241 H 0.46436 0.09429 0.79341
 H242 H 0.46399 0.05134 0.75927
 C243 C 0.50321 -0.08212 0.81573
 C244 C 0.58221 -0.00217 0.68421
 C245 C 0.50496 0.08104 0.81491
 C246 C 0.42078 0.00102 0.68937
 Si247 Si 0.25104 0.00385 0.50502
 Si248 Si 0.75277 -0.00378 0.49868
 Si249 Si 0.50198 0.25317 0.99982
 Si250 Si 0.49386 0.74846 0.00479
 Si251 Si 0.99771 0.49889 0.24746
 Si252 Si -0.00217 0.49848 0.74916
 C253 C 0.20961 0.08297 0.48102
 C254 C 0.19013 0.08732 0.50494
 C255 C 0.19058 0.06781 0.52953
 C256 C 0.20975 0.04352 0.52977
 C257 C 0.10605 0.16750 0.50058
 C258 C 0.22884 0.05863 0.48127
 C259 C 0.16841 0.11058 0.50357
 C260 C 0.14938 0.12924 0.50252
 C261 C 0.12631 0.15022 0.50141
 C262 C 0.22844 0.03834 0.50531
 H263 H 0.20949 0.09799 0.46192
 H264 H 0.17562 0.07095 0.54816
 H265 H 0.20934 0.02821 0.54863
 H266 H 0.24344 0.05547 0.46243
 C267 C 0.57934 0.71664 0.00123
 C268 C 0.57566 0.68580 0.00004
 C269 C 0.54742 0.67387 -0.00022
 C270 C 0.52294 0.69256 0.00106
 C271 C 0.66184 0.60786 -0.00118
 C272 C 0.55478 0.73541 0.00248
 C273 C 0.60059 0.66608 -0.00064
 C274 C 0.62066 0.64855 -0.00100
 C275 C 0.64325 0.62701 -0.00120
 C276 C 0.52643 0.72344 0.00289
 H277 H 0.60111 0.72614 0.00128
 H278 H 0.54431 0.65005 -0.00136
 H279 H 0.50142 0.68268 0.00051
 H280 H 0.55788 0.75922 0.00335
 C281 C 0.81897 -0.06211 0.52305
 C282 C 0.81949 -0.08266 0.49957
 C283 C 0.79902 -0.08022 0.47622
 C284 C 0.77835 -0.05713 0.47616
 C285 C 0.90358 -0.16315 0.49737
 C286 C 0.79835 -0.03904 0.52299
 C287 C 0.84179 -0.10542 0.49890
 C288 C 0.86092 -0.12402 0.49837
 C289 C 0.88376 -0.14532 0.49779
 C290 C 0.77795 -0.03638 0.49955
 H291 H 0.83481 -0.06365 0.54114
 H292 H 0.79936 -0.09586 0.45781
 H293 H 0.76323 -0.05522 0.45753
 H294 H 0.79859 -0.02298 0.54101
 C295 C 0.44900 0.32857 0.99976
 C296 C 0.42059 0.31707 1.00055
 C297 C 0.41650 0.28626 1.00124
 C298 C 0.44079 0.26709 1.00102
 C299 C 0.33466 0.39549 1.00109
 C300 C 0.47323 0.30947 0.99954
 C301 C 0.39590 0.33715 1.00077
 C302 C 0.37594 0.35484 1.00090
 C303 C 0.35334 0.37642 1.00102
 C304 C 0.46936 0.27855 0.99998
 H305 H 0.45245 0.35237 0.99936
 H306 H 0.39460 0.27709 1.00202
 H307 H 0.43729 0.24333 1.00184
 H308 H 0.49487 0.31909 0.99914
 C309 C 0.79699 0.07348 0.52061
 C310 C 0.81714 0.07628 0.49703
 C311 C 0.81716 0.05560 0.47368
 C312 C 0.79732 0.03207 0.47404
 C313 C 0.89771 0.15941 0.49816
 C314 C 0.77711 0.04994 0.52097
 C315 C 0.83852 0.09967 0.49731
 C316 C 0.85684 0.11886 0.49758
 C317 C 0.87870 0.14091 0.49790
 C318 C 0.77717 0.02911 0.49765
 H319 H 0.79694 0.08922 0.53892
 H320 H 0.83278 0.05742 0.45542
 H321 H 0.79792 0.01596 0.45607
 H322 H 0.76220 0.04781 0.53973
 C323 C 0.41591 0.70785 -0.01983
 C324 C 0.41117 0.68807 0.00407
 C325 C 0.43017 0.68799 0.02876
 C326 C 0.45429 0.70696 0.02915
 C327 C 0.33029 0.60547 0.00002
 C328 C 0.44007 0.72687 -0.01943
 C329 C 0.38787 0.66670 0.00269
 C330 C 0.36909 0.64801 0.00169
 C331 C 0.34786 0.62535 0.00070
 C332 C 0.45979 0.72598 0.00476
 H333 H 0.40129 0.70815 -0.03901
 H334 H 0.42672 0.67281 0.04738
 H335 H 0.46915 0.70617 0.04812
 H336 H 0.44351 0.74172 -0.03824
 C337 C 0.22002 -0.08256 0.50112
 C338 C 0.18956 -0.07855 0.49968
 C339 C 0.17769 -0.04984 0.49932
 C340 C 0.19606 -0.02522 0.50077
 C341 C 0.11195 -0.16427 0.49779
 C342 C 0.23847 -0.05784 0.50254
 C343 C 0.17009 -0.10357 0.49882
 C344 C 0.15265 -0.12358 0.49830
 C345 C 0.13112 -0.14595 0.49793
 C346 C 0.22655 -0.02902 0.50288
 H347 H 0.22946 -0.10469 0.50123
 H348 H 0.15418 -0.04646 0.49797
 H349 H 0.18621 -0.00335 0.50012
 H350 H 0.26199 -0.06118 0.50358
 C351 C 0.57606 0.29997 1.02480
 C352 C 0.58343 0.31518 0.99833
 C353 C 0.56723 0.31044 0.97210
 C354 C 0.54342 0.29106 0.97246
 C355 C 0.66421 0.39806 0.99820
 C356 C 0.55223 0.28055 1.02517
 C357 C 0.60651 0.33685 0.99843
 C358 C 0.62524 0.35563 0.99843
 C359 C 0.64652 0.37826 0.99834
 C360 C 0.53562 0.27624 0.99906
 H361 H 0.58833 0.30361 1.04527
 H362 H 0.57262 0.32220 0.95154
 H363 H 0.53067 0.28815 0.95218
 H364 H 0.54637 0.26961 1.04601
 C365 C 0.47973 0.20991 1.07950
 C366 C 0.50190 0.18842 1.08233
 C367 C 0.52473 0.18755 1.06136
 C368 C 0.52501 0.20754 1.03725
 C369 C 0.49911 0.10482 1.16531
 C370 C 0.48003 0.22997 1.05536
 C371 C 0.50085 0.16655 1.10603
 C372 C 0.50015 0.14759 1.12525
 C373 C 0.49952 0.12475 1.14711
 C374 C 0.50236 0.22850 1.03367
 H375 H 0.46204 0.21092 1.09572
 H376 H 0.54212 0.17116 1.06342
 H377 H 0.54288 0.20639 1.02139
 H378 H 0.46268 0.24633 1.05368
 C379 C 0.00425 0.55113 0.67268
 C380 C 0.00447 0.57999 0.68413
 C381 C 0.00331 0.58438 0.71524
 C382 C 0.00156 0.55992 0.73475
 C383 C 0.00696 0.66536 0.60314
 C384 C 0.00247 0.52677 0.69210
 C385 C 0.00556 0.60478 0.66359
 C386 C 0.00622 0.62466 0.64534
 C387 C 0.00673 0.64699 0.62296
 C388 C 0.00062 0.53098 0.72325
 H389 H 0.00537 0.54745 0.64867
 H390 H 0.00362 0.60662 0.72438
 H391 H 0.00067 0.56357 0.75876
 H392 H 0.00263 0.50477 0.68255
 C393 C 0.49864 0.78212 -0.08207
 C394 C 0.49988 0.81286 -0.07757
 C395 C 0.49966 0.82414 -0.04837
 C396 C 0.49790 0.80492 -0.02376
 C397 C 0.50312 0.89351 -0.16322
 C398 C 0.49691 0.76280 -0.05735
 C399 C 0.50118 0.83321 -0.10257
 C400 C 0.50204 0.85136 -0.12256
 C401 C 0.50277 0.87369 -0.14491
 C402 C 0.49607 0.77413 -0.02806
 H403 H 0.49896 0.77313 -0.10458
 H404 H 0.50083 0.84787 -0.04462
 H405 H 0.49815 0.81433 -0.00151
 H406 H 0.49606 0.73907 -0.06108
 C407 C 0.97186 0.43497 0.30867
 C408 C 0.99521 0.41466 0.30885
 C409 C 1.01879 0.41863 0.28908
 C410 C 1.01938 0.44329 0.26979
 C411 C 0.99618 0.33173 0.39247
 C412 C 0.97245 0.45958 0.28945
 C413 C 0.99558 0.39079 0.33048
 C414 C 0.99581 0.37153 0.34940
 C415 C 0.99602 0.34976 0.37233
 C416 C 0.99652 0.46427 0.27042
 H417 H 0.95350 0.43213 0.32385
 H418 H 1.03694 0.40300 0.28897
 H419 H 1.03790 0.44608 0.25492
 H420 H 0.95450 0.47543 0.29003
 C421 C 0.46893 0.80838 0.06990
 C422 C 0.49297 0.80883 0.08943
 C423 C 0.51653 0.78926 0.08491
 C424 C 0.51650 0.77003 0.06032
 C425 C 0.49681 0.89346 0.17009
 C426 C 0.46891 0.78921 0.04535
 C427 C 0.49416 0.83072 0.11280
 C428 C 0.49511 0.84989 0.13154
 C429 C 0.49610 0.87312 0.15264
 C430 C 0.49304 0.77054 0.03995
 H431 H 0.45058 0.82341 0.07317
 H432 H 0.53521 0.78936 0.09994
 H433 H 0.53510 0.75545 0.05698
 H434 H 0.45051 0.78972 0.02996
 C435 C -0.02875 0.43461 0.68904
 C436 C -0.00547 0.41422 0.68891
 C437 C 0.01823 0.41805 0.70851
 C438 C 0.01903 0.44267 0.72753
 C439 C -0.00440 0.33222 0.60538
 C440 C -0.02795 0.45919 0.70800
 C441 C -0.00522 0.39052 0.66738
 C442 C -0.00501 0.37145 0.64849
 C443 C -0.00473 0.34996 0.62555
 C444 C -0.00373 0.46377 0.72680
 H445 H -0.04719 0.43189 0.67398
 H446 H 0.03633 0.40236 0.70864
 H447 H 0.03766 0.44539 0.74223
 H448 H -0.04583 0.47513 0.70733
 C449 C 0.52944 0.19386 0.93469
 C450 C 0.50422 0.18924 0.91750
 C451 C 0.47858 0.20527 0.92385
 C452 C 0.47793 0.22522 0.94783
 C453 C 0.50497 0.10526 0.83587
 C454 C 0.52879 0.21376 0.95865
 C455 C 0.50440 0.16718 0.89423
 C456 C 0.50461 0.14812 0.87533
 C457 C 0.50484 0.12522 0.85381
 C458 C 0.50284 0.22903 0.96590
 H459 H 0.54950 0.18180 0.92984
 H460 H 0.45897 0.20202 0.91056
 H461 H 0.45783 0.23714 0.95230
 H462 H 0.54860 0.21709 0.97152
 C463 C 1.00281 0.58507 0.27967
 C464 C 1.00409 0.58091 0.31086
 C465 C 1.00399 0.55214 0.32288
 C466 C 1.00225 0.52763 0.30395
 C467 C 1.00749 0.66673 0.39028
 C468 C 1.00110 0.56045 0.26065
 C469 C 1.00529 0.60586 0.33090
 C470 C 1.00612 0.62586 0.34876
 C471 C 1.00692 0.64831 0.37075
 C472 C 1.00032 0.53159 0.27272
 H473 H 1.00304 0.60724 0.27009
 H474 H 1.00522 0.54864 0.34695
 H475 H 1.00253 0.50570 0.31393
 H476 H 1.00015 0.56392 0.23657
 C477 C 1.08283 0.49979 0.21441
 C478 C 1.07870 0.50091 0.18323
 C479 C 1.05028 0.50202 0.17146
 C480 C 1.02607 0.50163 0.19063
 C481 C 1.16360 0.50020 0.10336
 C482 C 1.05853 0.49943 0.23366
 C483 C 1.10332 0.50079 0.16299
 C484 C 1.12309 0.50060 0.14500
 C485 C 1.14531 0.50036 0.12293
 C486 C 1.02999 0.49985 0.22185
 H487 H 1.10474 0.49911 0.22379
 H488 H 1.04682 0.50315 0.14739
 H489 H 1.00442 0.50280 0.18084
 H490 H 1.06198 0.49856 0.25772
 C491 C 0.70808 -0.02565 0.57699
 C492 C 0.68758 -0.00248 0.57935
 C493 C 0.68746 0.02051 0.55805
 C494 C 0.70754 0.02021 0.53435
 C495 C 0.60572 -0.00246 0.66263
 C496 C 0.72821 -0.02595 0.55327
 C497 C 0.66595 -0.00272 0.60291
 C498 C 0.64735 -0.00276 0.62216
 C499 C 0.62509 -0.00265 0.64419
 C500 C 0.72804 -0.00298 0.53183
 H501 H 0.70821 -0.04368 0.59322
 H502 H 0.67160 0.03846 0.55953
 H503 H 0.70686 0.03792 0.51778
 H504 H 0.74343 -0.04436 0.55147
 C505 C -0.08046 0.52397 0.78973
 C506 C -0.08571 0.50031 0.80956
 C507 C -0.06682 0.47570 0.80983
 C508 C -0.04238 0.47507 0.79095
 C509 C -0.16857 0.50400 0.89157
 C510 C -0.05596 0.52333 0.77079
 C511 C -0.10952 0.50175 0.83073
 C512 C -0.12877 0.50269 0.84927
 C513 C -0.15055 0.50351 0.87177
 C514 C -0.03642 0.49916 0.77183
 H515 H -0.09499 0.54309 0.78927
 H516 H -0.07067 0.45725 0.82505
 H517 H -0.02766 0.45610 0.79184
 H518 H -0.05218 0.54190 0.75583
 C519 C 0.28389 0.00125 0.41810
 C520 C 0.31430 0.00041 0.42261
 C521 C 0.32558 -0.00005 0.45181
 C522 C 0.30668 0.00075 0.47643
 C523 C 0.39369 0.00004 0.33716
 C524 C 0.26491 0.00201 0.44283
 C525 C 0.33429 0.00019 0.39761
 C526 C 0.35216 0.00012 0.37767
 C527 C 0.37416 0.00010 0.35539
 C528 C 0.27622 0.00229 0.47215
 H529 H 0.27491 0.00142 0.39558
 H530 H 0.34904 -0.00097 0.45557
 H531 H 0.31610 0.00007 0.49869
 H532 H 0.24144 0.00266 0.43910
 C533 C 0.05072 0.50182 0.82487
 C534 C 0.07909 0.50044 0.81299
 C535 C 0.08308 0.49904 0.78182
 C536 C 0.05871 0.49867 0.76269
 C537 C 0.16423 0.49913 0.89257
 C538 C 0.02643 0.50142 0.80581
 C539 C 0.10379 0.50026 0.83313
 C540 C 0.12362 0.49998 0.85104
 C541 C 0.14591 0.49955 0.87304
 C542 C 0.03022 0.49937 0.77461
 H543 H 0.04735 0.50315 0.84892
 H544 H 0.10495 0.49813 0.77236
 H545 H 0.06206 0.49760 0.73863
 H546 H 0.00482 0.50281 0.81567
 C547 C 0.70674 0.01864 0.42126
 C548 C 0.68661 -0.00460 0.41889
 C549 C 0.68732 -0.02799 0.43975
 C550 C 0.70779 -0.02794 0.46309
 C551 C 0.60279 -0.00209 0.33772
 C552 C 0.72726 0.01868 0.44462
 C553 C 0.66441 -0.00390 0.39590
 C554 C 0.64536 -0.00330 0.37714
 C555 C 0.62258 -0.00263 0.35567
 C556 C 0.72785 -0.00461 0.46569
 H557 H 0.70624 0.03697 0.40538
 H558 H 0.67173 -0.04599 0.43827
 H559 H 0.70769 -0.04589 0.47941
 H560 H 0.74210 0.03722 0.44648
 C561 C 0.93315 0.47513 0.18739
 C562 C 0.91416 0.49966 0.18708
 C563 C 0.91927 0.52354 0.20638
 C564 C 0.94375 0.52321 0.22536
 C565 C 0.83174 0.50231 0.10456
 C566 C 0.95757 0.47481 0.20630
 C567 C 0.89043 0.50081 0.16578
 C568 C 0.87129 0.50151 0.14713
 C569 C 0.84964 0.50205 0.12448
 C570 C 0.96340 0.49912 0.22488
 H571 H 0.92942 0.45652 0.17257
 H572 H 0.90466 0.54260 0.20638
 H573 H 0.94745 0.54196 0.23989
 H574 H 0.97238 0.45591 0.20583
 C575 C 0.30995 0.02906 0.57020
 C576 C 0.31117 0.00449 0.58958
 C577 C 0.29247 -0.01963 0.58492
 C578 C 0.27333 -0.01959 0.56034
 C579 C 0.39589 0.00145 0.66951
 C580 C 0.29089 0.02908 0.54568
 C581 C 0.33300 0.00338 0.61288
 C582 C 0.35218 0.00262 0.63149
 C583 C 0.37546 0.00192 0.65235
 C584 C 0.27306 0.00444 0.54013
 H585 H 0.32431 0.04783 0.57358
 H586 H 0.29320 -0.03873 0.59982
 H587 H 0.25942 -0.03861 0.55686
 H588 H 0.29080 0.04791 0.53041
   
