data_POSCAR
  _audit_creation_date              2014-09-24
  _audit_creation_method            'ToBaCCo'
  _symmetry_space_group_name_H-M    'P1'
  _symmetry_Int_Tables_number       1
  _symmetry_cell_setting            triclinic
  loop_
  _symmetry_equiv_pos_as_xyz
 x,y,z
_cell_length_a 32.3303
_cell_length_b 32.3811
_cell_length_c 32.4111
_cell_angle_alpha 90.034100
_cell_angle_beta 89.737800
_cell_angle_gamma 90.042400
loop_
  _atom_site_label
  _atom_site_type_symbol
  _atom_site_fract_x
  _atom_site_fract_y
  _atom_site_fract_z
C1 C 0.25049 1.11741 -0.03004
 C2 C 0.25742 1.11829 0.01137
 C3 C 0.25582 1.07764 0.02520
 N4 N 0.24746 1.05218 -0.00689
 C5 C 0.24373 1.07651 -0.04064
 C6 C 0.26111 1.06489 0.06684
 C7 C 0.26197 1.02253 0.07863
 C8 C 0.28175 1.00768 0.11359
 C9 C 0.27416 0.96612 0.11556
 C10 C 0.25098 0.95616 0.08115
 N11 N 0.24396 0.99059 0.05839
 C12 C 0.23597 0.91607 0.07272
 C13 C 0.22495 0.90342 0.03235
 C14 C 0.20767 0.86564 0.02233
 C15 C 0.20642 0.86378 -0.01990
 C16 C 0.22218 0.90099 -0.03465
 N17 N 0.23299 0.92531 -0.00246
 C18 C 0.22660 0.91180 -0.07706
 C19 C 0.22365 0.95368 -0.09013
 C20 C 0.20373 0.96618 -0.12585
 C21 C 0.20460 1.00852 -0.12651
 C22 C 0.22478 1.02121 -0.09105
 N23 N 0.23585 0.98749 -0.06866
 C24 C 0.23184 1.06323 -0.08051
 H25 H 0.24996 1.14434 -0.04977
 H26 H 0.26259 1.14637 0.02857
 H27 H 0.25343 0.98714 -0.04186
 H28 H 0.30020 1.02494 0.13540
 H29 H 0.28519 0.94540 0.13929
 H30 H 0.19696 0.84173 0.04309
 H31 H 0.19358 0.83830 -0.03720
 H32 H 0.19058 1.02770 -0.14991
 H33 H 0.22438 0.99268 0.03304
 H34 H 0.18820 0.94687 -0.14822
 C35 C 0.70589 0.48907 0.61479
 C36 C 0.70476 0.53148 0.61567
 C37 C 0.72841 0.54503 0.58257
 N38 N 0.74387 0.51243 0.56153
 C39 C 0.73051 0.47818 0.58138
 C40 C 0.73731 0.58671 0.57312
 C41 C 0.74934 0.59946 0.53287
 C42 C 0.76312 0.63878 0.52281
 C43 C 0.76734 0.64010 0.48062
 C44 C 0.75683 0.60129 0.46574
 N45 N 0.74573 0.57676 0.49786
 C46 C 0.75536 0.59032 0.42330
 C47 C 0.75718 0.54872 0.40951
 C48 C 0.75898 0.53623 0.36853
 C49 C 0.76240 0.49419 0.36855
 C50 C 0.76397 0.48206 0.40947
 N51 N 0.76111 0.51544 0.43445
 C52 C 0.77032 0.44102 0.42283
 C53 C 0.77146 0.42967 0.46508
 C54 C 0.78889 0.39356 0.48002
 C55 C 0.78113 0.39252 0.52174
 C56 C 0.75941 0.42820 0.53134
 N57 N 0.75386 0.45084 0.49666
 C58 C 0.74284 0.43763 0.57076
 H59 H 0.69013 0.46873 0.63617
 H60 H 0.68797 0.55016 0.63779
 H61 H 0.73488 0.47662 0.49400
 H62 H 0.76904 0.66431 0.54351
 H63 H 0.77713 0.66689 0.46325
 H64 H 0.75945 0.55496 0.34098
 H65 H 0.76452 0.47508 0.34123
 H66 H 0.79043 0.36816 0.54257
 H67 H 0.73189 0.54787 0.49561
 H68 H 0.80542 0.37021 0.46267
 C69 C 0.76452 1.02646 1.12720
 C70 C 0.76687 0.98430 1.12473
 C71 C 0.76309 0.97375 1.08343
 N72 N 0.75996 1.00869 1.06062
 C73 C 0.76167 1.04127 1.08710
 C74 C 0.76241 0.93245 1.06771
 C75 C 0.76664 0.92229 1.02520
 C76 C 0.76089 0.88284 1.00914
 C77 C 0.76746 0.88515 0.96763
 C78 C 0.77567 0.92618 0.95853
 N79 N 0.77633 0.94844 0.99406
 C80 C 0.78354 0.94143 0.91818
 C81 C 0.79009 0.98347 0.90970
 C82 C 0.80725 0.99912 0.87373
 C83 C 0.80429 1.04134 0.87651
 C84 C 0.78422 1.04980 0.91351
 N85 N 0.77599 1.01441 0.93379
 C86 C 0.76993 1.08884 0.92661
 C87 C 0.75449 1.09601 0.96675
 C88 C 0.73071 1.12979 0.97796
 C89 C 0.72606 1.12822 1.02000
 C90 C 0.74720 1.09339 1.03353
 N91 N 0.76398 1.07366 1.00062
 C92 C 0.75572 1.08344 1.07522
 H93 H 0.76288 1.04323 1.15594
 H94 H 0.77064 0.96395 1.15088
 H95 H 0.78580 1.05005 1.00182
 H96 H 0.75239 0.85483 1.02527
 H97 H 0.76643 0.85901 0.94691
 H98 H 0.82045 0.98200 0.84817
 H99 H 0.81501 1.06308 0.85348
 H100 H 0.70915 1.15066 1.03809
 H101 H 0.78538 0.97898 0.99731
 H102 H 0.71853 1.15360 0.95798
 C103 C 0.23816 0.35855 0.48527
 C104 C 0.24478 0.36221 0.52680
 C105 C 0.25361 0.40348 0.53431
 N106 N 0.25250 0.42511 0.49866
 C107 C 0.24279 0.39773 0.46866
 C108 C 0.26527 0.41980 0.57305
 C109 C 0.26811 0.46276 0.58085
 C110 C 0.28848 0.48070 0.61392
 C111 C 0.28192 0.52269 0.61126
 C112 C 0.25784 0.52920 0.57656
 N113 N 0.24957 0.49255 0.55829
 C114 C 0.24249 0.56792 0.56334
 C115 C 0.22779 0.57463 0.52322
 C116 C 0.20652 0.60950 0.51052
 C117 C 0.20183 0.60590 0.46873
 C118 C 0.22072 0.56916 0.45744
 N119 N 0.23633 0.54994 0.49080
 C120 C 0.22714 0.55590 0.41655
 C121 C 0.23556 0.51444 0.40616
 C122 C 0.24465 0.50050 0.36673
 C123 C 0.24769 0.45837 0.36904
 C124 C 0.24191 0.44759 0.41019
 N125 N 0.23357 0.48199 0.43233
 C126 C 0.24170 0.40683 0.42605
 H127 H 0.23130 0.33007 0.46921
 H128 H 0.24346 0.33712 0.54882
 H129 H 0.22293 0.48273 0.46260
 H130 H 0.30633 0.46526 0.63749
 H131 H 0.29367 0.54573 0.63238
 H132 H 0.19598 0.63509 0.52931
 H133 H 0.18688 0.62810 0.44880
 H134 H 0.25287 0.43856 0.34274
 H135 H 0.22877 0.48779 0.53434
 H136 H 0.24784 0.51847 0.33877
 C137 C 1.12743 0.29274 -0.01354
 C138 C 1.12646 0.28778 0.02852
 C139 C 1.09286 0.26257 0.03723
 N140 N 1.07251 0.25334 0.00205
 C141 C 1.09351 0.27164 -0.02906
 C142 C 1.08130 0.24674 0.07639
 C143 C 1.04046 0.23268 0.08308
 C144 C 1.02796 0.20567 0.11401
 C145 C 0.98555 0.20354 0.11220
 C146 C 0.97345 0.22957 0.08053
 N147 N 1.00707 0.24643 0.06234
 C148 C 0.93250 0.24145 0.07197
 C149 C 0.92112 0.25693 0.03294
 C150 C 0.88496 0.27813 0.02461
 C151 C 0.88538 0.28640 -0.01690
 C152 C 0.92128 0.26896 -0.03289
 N153 N 0.94332 0.25140 -0.00213
 C154 C 0.93342 0.26904 -0.07514
 C155 C 0.97552 0.26329 -0.08715
 C156 C 0.98906 0.25713 -0.12737
 C157 C 1.03134 0.25653 -0.12655
 C158 C 1.04339 0.26013 -0.08553
 N159 N 1.00890 0.26526 -0.06196
 C160 C 1.08502 0.26429 -0.07115
 H161 H 1.15014 0.31062 -0.03043
 H162 H 1.14783 0.30170 0.05002
 H163 H 1.00838 0.27378 -0.03108
 H164 H 1.04729 0.18949 0.13586
 H165 H 0.96585 0.18567 0.13256
 H166 H 0.86125 0.28760 0.04631
 H167 H 0.86227 0.30415 -0.03313
 H168 H 1.05014 0.25634 -0.15414
 H169 H 1.00682 0.27037 0.04083
 H170 H 0.97084 0.25441 -0.15513
 C171 C 0.47100 0.76275 0.63136
 C172 C 0.51181 0.77377 0.63343
 C173 C 0.52803 0.76910 0.59403
 N174 N 0.49846 0.75517 0.56806
 C175 C 0.46350 0.75132 0.59081
 C176 C 0.57033 0.77372 0.58373
 C177 C 0.58564 0.77290 0.54263
 C178 C 0.62714 0.77109 0.53134
 C179 C 0.62868 0.77049 0.48909
 C180 C 0.58827 0.77360 0.47541
 N181 N 0.56233 0.77567 0.50822
 C182 C 0.57669 0.77650 0.43356
 C183 C 0.53514 0.77882 0.42064
 C184 C 0.52240 0.79355 0.38263
 C185 C 0.48065 0.78687 0.38064
 C186 C 0.46931 0.76834 0.41756
 N187 N 0.50263 0.76360 0.44205
 C188 C 0.42973 0.75242 0.42642
 C189 C 0.41848 0.73820 0.46638
 C190 C 0.38610 0.71148 0.47504
 C191 C 0.38547 0.70596 0.51725
 C192 C 0.41717 0.72988 0.53343
 N193 N 0.43719 0.74928 0.50210
 C194 C 0.42565 0.73511 0.57622
 H195 H 0.44948 0.76298 0.65703
 H196 H 0.52771 0.78352 0.66107
 H197 H 0.45963 0.77212 0.50516
 H198 H 0.65407 0.77079 0.55093
 H199 H 0.65669 0.76891 0.47078
 H200 H 0.54132 0.80737 0.35869
 H201 H 0.46101 0.79426 0.35472
 H202 H 0.36408 0.68642 0.53403
 H203 H 0.53095 0.78222 0.50734
 H204 H 0.36542 0.69698 0.45321
 C205 C 0.13137 0.75559 0.02655
 C206 C 0.13196 0.75964 -0.01525
 C207 C 0.09137 0.76627 -0.02745
 N208 N 0.06599 0.76563 0.00589
 C209 C 0.09033 0.75825 0.03892
 C210 C 0.07842 0.77366 -0.06850
 C211 C 0.03599 0.77975 -0.07832
 C212 C 0.02181 0.80258 -0.11162
 C213 C -0.02044 0.79854 -0.11225
 C214 C -0.03126 0.77403 -0.07882
 N215 N 0.00325 0.76333 -0.05775
 C216 C -0.07186 0.75987 -0.07003
 C217 C -0.08289 0.74786 -0.02928
 C218 C -0.11489 0.72141 -0.01839
 C219 C -0.11601 0.72019 0.02392
 C220 C -0.08437 0.74551 0.03767
 N221 N -0.06366 0.76183 0.00509
 C222 C -0.07459 0.75312 0.07966
 C223 C -0.03306 0.76111 0.09180
 C224 C -0.02088 0.77318 0.13107
 C225 C 0.02148 0.77304 0.13144
 C226 C 0.03455 0.76225 0.09209
 N227 N 0.00111 0.75493 0.06808
 C228 C 0.07648 0.75685 0.08037
 H229 H 0.15873 0.75224 0.04521
 H230 H 0.15976 0.75812 -0.03381
 H231 H 0.00168 0.74206 0.03868
 H232 H 0.04007 0.82038 -0.13333
 H233 H -0.04090 0.81236 -0.13465
 H234 H -0.13468 0.70380 -0.03869
 H235 H -0.13680 0.70156 0.04243
 H236 H 0.04024 0.77984 0.15810
 H237 H 0.00453 0.74210 -0.03364
 H238 H -0.04010 0.78077 0.15736
 C239 C 0.49532 0.21359 0.38360
 C240 C 0.53765 0.21329 0.38756
 C241 C 0.54678 0.23737 0.42171
 N242 N 0.51151 0.25175 0.43905
 C243 C 0.48003 0.23727 0.41587
 C244 C 0.58685 0.24875 0.43498
 C245 C 0.59343 0.26761 0.47354
 C246 C 0.62823 0.29029 0.48400
 C247 C 0.62435 0.29991 0.52512
 C248 C 0.58765 0.28221 0.53869
 N249 N 0.56854 0.26330 0.50685
 C250 C 0.57433 0.28043 0.58020
 C251 C 0.53209 0.27615 0.59077
 C252 C 0.51659 0.27285 0.63057
 C253 C 0.47435 0.27207 0.62731
 C254 C 0.46527 0.27389 0.58552
 N255 N 0.50066 0.27716 0.56337
 C256 C 0.42504 0.27570 0.56840
 C257 C 0.41833 0.27808 0.52551
 C258 C 0.38300 0.29357 0.50705
 C259 C 0.38701 0.28634 0.46539
 C260 C 0.42408 0.26543 0.45968
 N261 N 0.44332 0.26129 0.49645
 C262 C 0.43806 0.24771 0.42211
 H263 H 0.47784 0.19805 0.35979
 H264 H 0.55912 0.19737 0.36740
 H265 H 0.46927 0.24316 0.50219
 H266 H 0.65391 0.29875 0.46418
 H267 H 0.64645 0.31729 0.54315
 H268 H 0.53358 0.27177 0.65921
 H269 H 0.45313 0.27132 0.65316
 H270 H 0.36472 0.29506 0.44219
 H271 H 0.54294 0.24383 0.50897
 H272 H 0.35696 0.30847 0.52192
 C273 C 1.12932 -0.03468 0.25839
 C274 C 1.12860 0.00728 0.26190
 C275 C 1.09046 0.02017 0.24718
 N276 N 1.06751 -0.01264 0.23540
 C277 C 1.09154 -0.04617 0.24180
 C278 C 1.07861 0.06171 0.24155
 C279 C 1.03630 0.07232 0.23727
 C280 C 1.02068 0.10673 0.21715
 C281 C 0.97825 0.10529 0.22149
 C282 C 0.96912 0.06992 0.24391
 N283 N 1.00461 0.04978 0.25284
 C284 C 0.92929 0.05759 0.25763
 C285 C 0.92089 0.01642 0.26842
 C286 C 0.88662 0.00301 0.29042
 C287 C 0.88799 -0.03936 0.28999
 C288 C 0.92246 -0.05021 0.26678
 N289 N 0.94289 -0.01604 0.25424
 C290 C 0.93238 -0.09030 0.25277
 C291 C 0.97175 -0.09923 0.23635
 C292 C 0.98098 -0.13200 0.21042
 C293 C 1.02296 -0.13047 0.20325
 C294 C 1.03823 -0.09759 0.22605
 N295 N 1.00663 -0.07816 0.24534
 C296 C 1.08038 -0.08679 0.23084
 H297 H 1.15466 -0.05440 0.26759
 H298 H 1.15337 0.02608 0.27415
 H299 H 1.00932 -0.05446 0.26700
 H300 H 1.03781 0.12995 0.20021
 H301 H 0.95666 0.12750 0.20904
 H302 H 0.86296 0.02180 0.30487
 H303 H 0.86554 -0.05974 0.30421
 H304 H 1.04024 -0.15106 0.18339
 H305 H 1.00742 0.02393 0.27183
 H306 H 0.95961 -0.15422 0.19758
 C307 C 0.46655 0.63232 0.74098
 C308 C 0.50891 0.63441 0.74082
 C309 C 0.52312 0.59420 0.73725
 N310 N 0.49082 0.56778 0.73436
 C311 C 0.45618 0.59092 0.73691
 C312 C 0.56506 0.58246 0.73331
 C313 C 0.57754 0.54089 0.73024
 C314 C 0.61595 0.52772 0.71618
 C315 C 0.61776 0.48597 0.72312
 C316 C 0.58061 0.47487 0.74165
 N317 N 0.55612 0.50842 0.74549
 C318 C 0.57195 0.43564 0.75837
 C319 C 0.53148 0.42314 0.76943
 C320 C 0.52155 0.38922 0.79354
 C321 C 0.47907 0.38728 0.79509
 C322 C 0.46451 0.41987 0.77153
 N323 N 0.49662 0.44181 0.75607
 C324 C 0.42256 0.42809 0.76236
 C325 C 0.40974 0.46653 0.74583
 C326 C 0.37227 0.47347 0.72630
 C327 C 0.37027 0.51507 0.71790
 C328 C 0.40639 0.53259 0.73282
 N329 N 0.43047 0.50271 0.74945
 C330 C 0.41549 0.57545 0.73276
 H331 H 0.44591 0.65852 0.74334
 H332 H 0.52688 0.66255 0.74223
 H333 H 0.45722 0.50739 0.76658
 H334 H 0.64063 0.54621 0.70319
 H335 H 0.64400 0.46629 0.71637
 H336 H 0.54264 0.36832 0.80876
 H337 H 0.46111 0.36464 0.81195
 H338 H 0.34500 0.53056 0.70256
 H339 H 0.52911 0.51006 0.76298
 H340 H 0.34873 0.45092 0.71880
 C341 C 1.02876 1.12210 0.77856
 C342 C 0.98676 1.12632 0.78409
 C343 C 0.96865 1.09280 0.76482
 N344 N 0.99794 1.06850 0.74741
 C345 C 1.03480 1.08673 0.75496
 C346 C 0.92577 1.08501 0.76222
 C347 C 0.91033 1.04463 0.75625
 C348 C 0.86999 1.03480 0.74540
 C349 C 0.86640 0.99254 0.74793
 C350 C 0.90464 0.97775 0.76021
 N351 N 0.93127 1.00965 0.76495
 C352 C 0.91378 0.93619 0.76946
 C353 C 0.95495 0.92277 0.77333
 C354 C 0.96784 0.88727 0.79330
 C355 C 1.00905 0.88280 0.78428
 C356 C 1.01986 0.91616 0.75959
 N357 N 0.98687 0.94073 0.75331
 C358 C 1.05852 0.92255 0.74053
 C359 C 1.06988 0.96283 0.72720
 C360 C 1.09894 0.97252 0.69702
 C361 C 1.10380 1.01472 0.69764
 C362 C 1.07643 1.02980 0.72702
 N363 N 1.05530 0.99816 0.74430
 C364 C 1.07303 1.07155 0.73920
 H365 H 1.05198 1.14240 0.79138
 H366 H 0.97146 1.15052 0.80140
 H367 H 1.03542 1.00040 0.76966
 H368 H 0.84543 1.05587 0.73709
 H369 H 0.83865 0.97490 0.74184
 H370 H 0.94932 0.86649 0.81186
 H371 H 1.02872 0.85796 0.79483
 H372 H 1.12468 1.03239 0.67830
 H373 H 0.96061 1.00809 0.77802
 H374 H 1.11513 0.95151 0.67662
 C375 C 0.37620 0.46223 0.25364
 C376 C 0.37532 0.50456 0.25414
 C377 C 0.41497 0.51754 0.26393
 N378 N 0.44003 0.48459 0.26935
 C379 C 0.41635 0.45073 0.26314
 C380 C 0.42688 0.55889 0.27098
 C381 C 0.46900 0.57016 0.27477
 C382 C 0.48368 0.60501 0.29476
 C383 C 0.52591 0.60564 0.28890
 C384 C 0.53583 0.57132 0.26516
 N385 N 0.50101 0.54953 0.25729
 C386 C 0.57559 0.56181 0.24907
 C387 C 0.58618 0.52119 0.23700
 C388 C 0.62113 0.51022 0.21463
 C389 C 0.62144 0.46780 0.21263
 C390 C 0.58702 0.45425 0.23441
 N391 N 0.56537 0.48697 0.24897
 C392 C 0.57738 0.41261 0.24380
 C393 C 0.53862 0.40132 0.26028
 C394 C 0.53042 0.36498 0.28143
 C395 C 0.48860 0.36442 0.28922
 C396 C 0.47246 0.40009 0.27196
 N397 N 0.50325 0.42277 0.25504
 C398 C 0.43006 0.40973 0.26888
 H399 H 0.35014 0.44234 0.24704
 H400 H 0.34846 0.52348 0.24807
 H401 H 0.49963 0.44877 0.23646
 H402 H 0.46589 0.62752 0.31200
 H403 H 0.54681 0.62879 0.30089
 H404 H 0.64405 0.53061 0.20118
 H405 H 0.64460 0.44917 0.19723
 H406 H 0.47200 0.34026 0.30536
 H407 H 0.49859 0.52446 0.23724
 H408 H 0.55227 0.34129 0.29026
 O409 O 0.24562 0.12107 0.20250
 O410 O 0.27951 0.10652 0.26426
 O411 O 0.14166 0.19570 0.24439
 O412 O 0.13122 0.25497 0.27437
 O413 O 0.21529 0.23115 0.13674
 O414 O 0.27959 0.26501 0.12885
 O415 O 0.25618 0.29572 0.35320
 O416 O 0.20106 0.25189 0.36373
 O417 O 0.35725 0.22423 0.31891
 O418 O 0.36952 0.16988 0.26839
 O419 O 0.33049 0.32815 0.25185
 O420 O 0.28169 0.34738 0.19954
 O421 O 0.27386 0.33973 0.30131
 O422 O 0.23090 0.35456 0.23633
 O423 O 0.37208 0.27197 0.25831
 O424 O 0.37789 0.20511 0.21795
 O425 O 0.30280 0.23325 0.36269
 O426 O 0.23569 0.19443 0.36969
 O427 O 0.26212 0.16475 0.14999
 O428 O 0.31777 0.21428 0.13950
 O429 O 0.16075 0.24412 0.17940
 O430 O 0.15501 0.30077 0.23319
 O431 O 0.18166 0.13835 0.25126
 O432 O 0.23186 0.12099 0.30565
 Zr433 Zr 0.24321 0.15980 0.25436
 O434 O 0.28395 0.19114 0.29406
 Zr435 Zr 0.18542 0.24322 0.23958
 O436 O 0.22204 0.27752 0.28084
 Zr437 Zr 0.26514 0.22373 0.17733
 O438 O 0.30493 0.25941 0.21418
 Zr439 Zr 0.25107 0.23850 0.32366
 O440 O 0.20919 0.20488 0.28661
 Zr441 Zr 0.33044 0.22161 0.26003
 O442 O 0.29337 0.18479 0.22075
 Zr443 Zr 0.27089 0.30398 0.24717
 O444 O 0.23212 0.27253 0.20512
 O445 O 0.21647 0.19604 0.20893
 O446 O 0.29906 0.26779 0.29200
 C447 C 0.25413 0.12864 0.16458
 C448 C 0.14639 0.15660 0.24796
 C449 C 0.17697 0.23908 0.14339
 C450 C 0.26641 0.33137 0.33932
 C451 C 0.34160 0.22884 0.35512
 C452 C 0.36598 0.31112 0.25591
 H453 H 0.29588 0.17144 0.31398
 H454 H 0.32637 0.27206 0.19639
 H455 H 0.19812 0.17977 0.19073
 H456 H 0.20486 0.29847 0.29502
 H457 H 0.17655 0.23763 0.35231
 H458 H 0.14024 0.26595 0.30133
 H459 H 0.38024 0.22746 0.19728
 H460 H 0.33356 0.19130 0.15194
 H461 H 0.25738 0.17292 0.37006
 H462 H 0.20998 0.13447 0.32233
 H463 H 0.30133 0.33469 0.17980
 H464 H 0.26480 0.29106 0.13509
 H465 H 0.30681 0.11229 0.25154
 H466 H 0.35635 0.15156 0.28901
 H467 H 0.16659 0.31431 0.20831
 H468 H 0.21278 0.35791 0.26078
 O469 O 0.72906 0.86972 0.19235
 O470 O 0.69078 0.87876 0.25191
 O471 O 0.84078 0.81291 0.24073
 O472 O 0.85734 0.75639 0.27561
 O473 O 0.78538 0.76300 0.12984
 O474 O 0.72649 0.72291 0.11654
 O475 O 0.73321 0.69631 0.34390
 O476 O 0.78002 0.74664 0.35781
 O477 O 0.62684 0.75264 0.29895
 O478 O 0.61339 0.80553 0.24447
 O479 O 0.67317 0.65241 0.23671
 O480 O 0.72971 0.63992 0.18938
 O481 O 0.72751 0.64961 0.29175
 O482 O 0.77706 0.64027 0.23007
 O483 O 0.62426 0.70272 0.23863
 O484 O 0.61165 0.76513 0.19761
 O485 O 0.67747 0.75342 0.34754
 O486 O 0.73829 0.79942 0.35931
 O487 O 0.73171 0.82473 0.13836
 O488 O 0.68120 0.76887 0.12417
 O489 O 0.83682 0.75799 0.17719
 O490 O 0.84659 0.70644 0.23308
 O491 O 0.79194 0.86354 0.24292
 O492 O 0.73746 0.87120 0.29576
 Zr493 Zr 0.73533 0.83170 0.24379
 O494 O 0.69625 0.79492 0.28023
 Zr495 Zr 0.80628 0.75795 0.23511
 O496 O 0.77109 0.71858 0.27354
 Zr497 Zr 0.73116 0.76530 0.16588
 O498 O 0.69350 0.72419 0.19984
 Zr499 Zr 0.73293 0.75315 0.31324
 O500 O 0.77276 0.79246 0.27936
 Zr501 Zr 0.65839 0.75804 0.24257
 O502 O 0.69321 0.79966 0.20598
 Zr503 Zr 0.72960 0.68485 0.23681
 O504 O 0.76753 0.72170 0.19770
 O505 O 0.77173 0.79978 0.20124
 O506 O 0.69251 0.71702 0.27839
 C507 C 0.73004 0.86145 0.15382
 C508 C 0.82959 0.85101 0.24253
 C509 C 0.82363 0.75965 0.13976
 C510 C 0.73004 0.65934 0.33016
 C511 C 0.63939 0.75277 0.33638
 C512 C 0.63539 0.66468 0.23747
 H513 H 0.67974 0.81298 0.29854
 H514 H 0.67588 0.70845 0.18056
 H515 H 0.78935 0.81796 0.18402
 H516 H 0.78972 0.70046 0.28947
 H517 H 0.80352 0.76387 0.34837
 H518 H 0.84806 0.74200 0.30091
 H519 H 0.61785 0.74583 0.17475
 H520 H 0.66242 0.79063 0.13472
 H521 H 0.71466 0.81860 0.35674
 H522 H 0.76102 0.86204 0.31288
 H523 H 0.71031 0.64940 0.16787
 H524 H 0.74226 0.69814 0.12498
 H525 H 0.66544 0.86904 0.23788
 H526 H 0.61800 0.82208 0.26970
 H527 H 0.83764 0.68894 0.20970
 H528 H 0.79387 0.64051 0.25550
 O529 O 0.76057 0.15162 0.79388
 O530 O 0.72876 0.14168 0.72921
 O531 O 0.86894 0.22369 0.75597
 O532 O 0.88010 0.28454 0.72536
 O533 O 0.79820 0.25750 0.86482
 O534 O 0.73429 0.29366 0.87419
 O535 O 0.75381 0.33448 0.65284
 O536 O 0.81199 0.29159 0.64142
 O537 O 0.65513 0.26138 0.68308
 O538 O 0.64471 0.20226 0.73296
 O539 O 0.68087 0.36055 0.75652
 O540 O 0.73317 0.37568 0.81112
 O541 O 0.74362 0.37702 0.70780
 O542 O 0.77922 0.38886 0.77248
 O543 O 0.63998 0.30471 0.74450
 O544 O 0.63210 0.23952 0.78146
 O545 O 0.70967 0.27071 0.63948
 O546 O 0.77513 0.23597 0.62888
 O547 O 0.75083 0.19372 0.84937
 O548 O 0.69558 0.24239 0.86262
 O549 O 0.85269 0.27143 0.82239
 O550 O 0.86105 0.32858 0.77272
 O551 O 0.82680 0.16789 0.74801
 O552 O 0.77942 0.15561 0.69167
 Zr553 Zr 0.76690 0.19254 0.74409
 O554 O 0.72750 0.22675 0.70579
 Zr555 Zr 0.82722 0.27352 0.76245
 O556 O 0.79050 0.31139 0.72423
 Zr557 Zr 0.74761 0.25349 0.82444
 O558 O 0.70762 0.29076 0.78954
 Zr559 Zr 0.76083 0.27562 0.67906
 O560 O 0.80183 0.23842 0.71378
 Zr561 Zr 0.68175 0.25551 0.74174
 O562 O 0.71803 0.21694 0.77964
 Zr563 Zr 0.74175 0.33697 0.75912
 O564 O 0.78133 0.30270 0.79842
 O565 O 0.79502 0.22593 0.79101
 O566 O 0.71310 0.30361 0.71231
 C567 C 0.75531 0.15802 0.83257
 C568 C 0.86264 0.18467 0.75183
 C569 C 0.83670 0.26482 0.85828
 C570 C 0.74807 0.37030 0.66895
 C571 C 0.67091 0.26636 0.64703
 C572 C 0.64543 0.34335 0.75062
 H573 H 0.71535 0.20822 0.68486
 H574 H 0.68623 0.30245 0.80801
 H575 H 0.81286 0.20842 0.80851
 H576 H 0.80795 0.33293 0.71132
 H577 H 0.83546 0.27427 0.65055
 H578 H 0.87142 0.30230 0.70216
 H579 H 0.63289 0.25838 0.80546
 H580 H 0.67880 0.22106 0.84858
 H581 H 0.75821 0.21068 0.63169
 H582 H 0.80112 0.17009 0.67558
 H583 H 0.70989 0.36440 0.82749
 H584 H 0.75087 0.31895 0.86953
 H585 H 0.70203 0.14646 0.74341
 H586 H 0.65277 0.18937 0.70644
 H587 H 0.84746 0.34316 0.79597
 H588 H 0.80427 0.38699 0.75495
 O589 O 0.24622 0.85625 0.78634
 O590 O 0.29472 0.85572 0.72728
 O591 O 0.13447 0.81602 0.73270
 O592 O 0.11469 0.76185 0.69138
 O593 O 0.17500 0.75986 0.84315
 O594 O 0.23028 0.70906 0.85883
 O595 O 0.23141 0.67655 0.63897
 O596 O 0.18247 0.73424 0.62304
 O597 O 0.33775 0.73090 0.67730
 O598 O 0.35466 0.78025 0.73771
 O599 O 0.27814 0.63370 0.74817
 O600 O 0.21695 0.63545 0.79723
 O601 O 0.22242 0.63337 0.69359
 O602 O 0.17572 0.63140 0.75098
 O603 O 0.33253 0.67673 0.73656
 O604 O 0.35588 0.73012 0.77717
 O605 O 0.28679 0.73229 0.62921
 O606 O 0.23659 0.77583 0.61215
 O607 O 0.23793 0.81158 0.83985
 O608 O 0.27778 0.75306 0.85771
 O609 O 0.12593 0.76151 0.79297
 O610 O 0.11017 0.71341 0.74151
 O611 O 0.19039 0.85870 0.72951
 O612 O 0.24751 0.86043 0.68315
 Zr613 Zr 0.24100 0.81880 0.73302
 O614 O 0.27356 0.77598 0.69654
 Zr615 Zr 0.15980 0.75607 0.73819
 O616 O 0.18998 0.70923 0.70439
 Zr617 Zr 0.23212 0.75369 0.81124
 O618 O 0.26692 0.70875 0.77922
 Zr619 Zr 0.23285 0.73675 0.66441
 O620 O 0.20007 0.78430 0.69552
 Zr621 Zr 0.30650 0.73605 0.73510
 O622 O 0.27669 0.78149 0.77224
 Zr623 Zr 0.22607 0.67274 0.74433
 O624 O 0.19087 0.71569 0.77878
 O625 O 0.19857 0.79275 0.77358
 O626 O 0.26769 0.69765 0.70148
 C627 C 0.24309 0.84805 0.82510
 C628 C 0.15137 0.85206 0.73031
 C629 C 0.13714 0.76185 0.83078
 C630 C 0.22685 0.64039 0.65506
 C631 C 0.32484 0.73115 0.63964
 C632 C 0.31688 0.64080 0.74293
 H633 H 0.29183 0.79178 0.67779
 H634 H 0.28273 0.69200 0.79918
 H635 H 0.18284 0.81338 0.78977
 H636 H 0.16968 0.69248 0.68894
 H637 H 0.16613 0.75977 0.62735
 H638 H 0.11775 0.73808 0.67242
 H639 H 0.34334 0.72904 0.80501
 H640 H 0.30161 0.76892 0.84675
 H641 H 0.24936 0.80194 0.62143
 H642 H 0.22581 0.85323 0.66292
 H643 H 0.24195 0.63765 0.81458
 H644 H 0.20583 0.69143 0.85362
 H645 H 0.31311 0.84825 0.75045
 H646 H 0.35371 0.79652 0.71190
 H647 H 0.11813 0.69205 0.76181
 H648 H 0.15480 0.63875 0.73006
 O649 O 0.26160 0.35926 0.70963
 O650 O 0.22043 0.36542 0.77083
 O651 O 0.36589 0.28887 0.75505
 O652 O 0.37178 0.22979 0.79306
 O653 O 0.31246 0.25556 0.64226
 O654 O 0.25122 0.21890 0.62297
 O655 O 0.24125 0.16996 0.84281
 O656 O 0.29638 0.21712 0.86291
 O657 O 0.14479 0.24281 0.80244
 O658 O 0.13988 0.30363 0.75452
 O659 O 0.18220 0.14652 0.73397
 O660 O 0.24045 0.13556 0.68212
 O661 O 0.24078 0.12936 0.78555
 O662 O 0.28288 0.12178 0.72439
 O663 O 0.13956 0.20223 0.73693
 O664 O 0.13569 0.26929 0.70306
 O665 O 0.19257 0.23278 0.85277
 O666 O 0.25045 0.26651 0.87491
 O667 O 0.26112 0.31836 0.65246
 O668 O 0.21013 0.26879 0.63038
 O669 O 0.35951 0.23788 0.69123
 O670 O 0.36426 0.18455 0.74208
 O671 O 0.32189 0.34310 0.76340
 O672 O 0.26726 0.35310 0.81301
 Zr673 Zr 0.26247 0.31684 0.75894
 O674 O 0.21911 0.28010 0.79076
 Zr675 Zr 0.32623 0.23758 0.74705
 O676 O 0.28549 0.19717 0.77827
 Zr677 Zr 0.25616 0.25772 0.67516
 O678 O 0.21228 0.21857 0.70321
 Zr679 Zr 0.24895 0.23067 0.82024
 O680 O 0.29335 0.27065 0.79272
 Zr681 Zr 0.17938 0.25181 0.74823
 O682 O 0.21972 0.29235 0.71658
 Zr683 Zr 0.24260 0.17189 0.73644
 O684 O 0.28676 0.20845 0.70436
 O685 O 0.29754 0.28525 0.71531
 O686 O 0.20698 0.20311 0.78009
 C687 C 0.26153 0.35383 0.67037
 C688 C 0.35840 0.32753 0.76070
 C689 C 0.34918 0.24611 0.65397
 C690 C 0.24005 0.13453 0.82479
 C691 C 0.15527 0.23690 0.84006
 C692 C 0.14609 0.16337 0.73390
 H693 H 0.20375 0.29745 0.81070
 H694 H 0.19378 0.20717 0.68184
 H695 H 0.31709 0.30332 0.70018
 H696 H 0.30180 0.17564 0.79242
 H697 H 0.31792 0.23865 0.85953
 H698 H 0.36112 0.20923 0.81302
 H699 H 0.14026 0.25167 0.67852
 H700 H 0.19092 0.28937 0.64243
 H701 H 0.24406 0.29528 0.86711
 H702 H 0.28739 0.33909 0.83120
 H703 H 0.21667 0.14490 0.66547
 H704 H 0.26606 0.19310 0.62989
 H705 H 0.19672 0.36106 0.75211
 H706 H 0.14434 0.31585 0.78212
 H707 H 0.35337 0.16789 0.71893
 H708 H 0.30501 0.12258 0.74536
 O709 O 0.74067 0.64088 0.71312
 O710 O 0.77781 0.63073 0.77675
 O711 O 0.63188 0.70678 0.76081
 O712 O 0.61836 0.76585 0.79189
 O713 O 0.69668 0.74590 0.65011
 O714 O 0.75852 0.78735 0.63999
 O715 O 0.73923 0.81992 0.86133
 O716 O 0.68603 0.76710 0.87249
 O717 O 0.84521 0.75176 0.82794
 O718 O 0.85889 0.69735 0.77646
 O719 O 0.81059 0.85364 0.75837
 O720 O 0.75793 0.86680 0.70554
 O721 O 0.75363 0.86387 0.80842
 O722 O 0.70982 0.87429 0.74546
 O723 O 0.85535 0.79990 0.76495
 O724 O 0.86601 0.73410 0.72744
 O725 O 0.79144 0.76145 0.87231
 O726 O 0.73543 0.72164 0.88645
 O727 O 0.74754 0.68592 0.65967
 O728 O 0.80032 0.73715 0.64789
 O729 O 0.64323 0.75715 0.69477
 O730 O 0.63398 0.81180 0.74727
 O731 O 0.67616 0.65211 0.76356
 O732 O 0.72735 0.63827 0.81613
 Zr733 Zr 0.73547 0.67917 0.76589
 O734 O 0.77372 0.71462 0.80483
 Zr735 Zr 0.67084 0.75814 0.75349
 O736 O 0.70622 0.79681 0.79181
 Zr737 Zr 0.74910 0.74419 0.68806
 O738 O 0.78805 0.78238 0.72325
 Zr739 Zr 0.73897 0.76088 0.83435
 O740 O 0.69954 0.72211 0.79950
 Zr741 Zr 0.81728 0.74727 0.76924
 O742 O 0.78212 0.70784 0.73054
 Zr743 Zr 0.75225 0.82568 0.75600
 O744 O 0.71361 0.79062 0.71668
 O745 O 0.70413 0.71317 0.72183
 O746 O 0.78408 0.79252 0.80089
 C747 C 0.74450 0.64924 0.67446
 C748 C 0.63973 0.66803 0.76290
 C749 C 0.65828 0.75161 0.65842
 C750 C 0.74689 0.85592 0.84660
 C751 C 0.83015 0.75747 0.86436
 C752 C 0.84707 0.83851 0.76143
 H753 H 0.78721 0.69644 0.82523
 H754 H 0.80820 0.79579 0.70455
 H755 H 0.68637 0.69538 0.70450
 H756 H 0.68785 0.81682 0.80584
 H757 H 0.66690 0.74430 0.86529
 H758 H 0.62802 0.77894 0.81767
 H759 H 0.86379 0.75369 0.70415
 H760 H 0.81850 0.71609 0.66048
 H761 H 0.73829 0.69307 0.87623
 H762 H 0.70447 0.64947 0.83317
 H763 H 0.78018 0.85630 0.68732
 H764 H 0.73928 0.81055 0.64528
 H765 H 0.80271 0.63703 0.76000
 H766 H 0.84865 0.67995 0.79940
 H767 H 0.64577 0.82800 0.72413
 H768 H 0.68937 0.87425 0.76825
 O769 O 0.25537 0.63673 0.31616
 O770 O 0.22375 0.61245 0.25632
 O771 O 0.36550 0.69484 0.25723
 O772 O 0.37995 0.75145 0.22245
 O773 O 0.29664 0.75471 0.36184
 O774 O 0.23487 0.79300 0.36329
 O775 O 0.25613 0.78252 0.13713
 O776 O 0.30756 0.73403 0.13384
 O777 O 0.15110 0.72440 0.18563
 O778 O 0.14062 0.67562 0.24552
 O779 O 0.18225 0.83359 0.23285
 O780 O 0.23405 0.86098 0.27970
 O781 O 0.24262 0.83610 0.18050
 O782 O 0.28365 0.86023 0.24222
 O783 O 0.13909 0.77837 0.23798
 O784 O 0.13103 0.72160 0.28686
 O785 O 0.20453 0.72298 0.13968
 O786 O 0.26994 0.67859 0.13878
 O787 O 0.24823 0.69026 0.36127
 O788 O 0.19373 0.74223 0.36237
 O789 O 0.35170 0.75266 0.31797
 O790 O 0.35923 0.80205 0.25621
 O791 O 0.32256 0.63967 0.26511
 O792 O 0.27209 0.61659 0.21507
 Zr793 Zr 0.26283 0.66474 0.25824
 O794 O 0.22342 0.69065 0.21375
 Zr795 Zr 0.32543 0.74606 0.25825
 O796 O 0.28965 0.77487 0.21199
 Zr797 Zr 0.24631 0.74267 0.32328
 O798 O 0.20743 0.77271 0.28118
 Zr799 Zr 0.25786 0.73095 0.17634
 O800 O 0.29849 0.70198 0.21843
 Zr801 Zr 0.17950 0.72830 0.24324
 O802 O 0.21526 0.69784 0.28806
 Zr803 Zr 0.24234 0.80951 0.24027
 O804 O 0.28091 0.78398 0.28677
 O805 O 0.29253 0.70659 0.29663
 O806 O 0.21179 0.76723 0.20306
 C807 C 0.25026 0.65170 0.35253
 C808 C 0.35872 0.65598 0.26162
 C809 C 0.33551 0.75602 0.35434
 C810 C 0.24908 0.82086 0.14428
 C811 C 0.16581 0.72280 0.14894
 C812 C 0.14603 0.81703 0.23383
 H813 H 0.21013 0.66853 0.19753
 H814 H 0.18690 0.78905 0.29689
 H815 H 0.31015 0.69216 0.31694
 H816 H 0.30781 0.79207 0.19439
 H817 H 0.33173 0.72159 0.14774
 H818 H 0.37105 0.75486 0.19352
 H819 H 0.13233 0.74544 0.30590
 H820 H 0.17753 0.71728 0.35525
 H821 H 0.24581 0.65985 0.14019
 H822 H 0.29288 0.62669 0.19495
 H823 H 0.21382 0.85296 0.30123
 H824 H 0.25075 0.81667 0.35211
 H825 H 0.19648 0.62170 0.26678
 H826 H 0.14693 0.65798 0.22137
 H827 H 0.34882 0.81958 0.27904
 H828 H 0.30525 0.85564 0.22101
 O829 O 0.76718 0.35479 0.32048
 O830 O 0.81891 0.36560 0.26421
 O831 O 0.66432 0.31109 0.24690
 O832 O 0.65503 0.25758 0.20102
 O833 O 0.69697 0.24813 0.35860
 O834 O 0.75439 0.20030 0.37563
 O835 O 0.77668 0.19073 0.15451
 O836 O 0.73160 0.25035 0.13991
 O837 O 0.87973 0.24839 0.21272
 O838 O 0.88338 0.29819 0.27544
 O839 O 0.82630 0.14388 0.26444
 O840 O 0.75924 0.13351 0.30801
 O841 O 0.77699 0.14205 0.20508
 O842 O 0.72553 0.12781 0.25509
 O843 O 0.87524 0.19390 0.27078
 O844 O 0.88589 0.24866 0.31404
 O845 O 0.83478 0.24461 0.15915
 O846 O 0.78834 0.29094 0.13935
 O847 O 0.75509 0.30448 0.36808
 O848 O 0.79722 0.24796 0.38509
 O849 O 0.65434 0.25357 0.30317
 O850 O 0.64926 0.20651 0.24744
 O851 O 0.71475 0.35886 0.25810
 O852 O 0.77486 0.37173 0.21908
 Zr853 Zr 0.76872 0.32367 0.26284
 O854 O 0.80921 0.28782 0.22656
 Zr855 Zr 0.69469 0.25335 0.25266
 O856 O 0.73331 0.21255 0.21937
 Zr857 Zr 0.75764 0.24998 0.33340
 O858 O 0.80109 0.21259 0.30235
 Zr859 Zr 0.77672 0.24773 0.18692
 O860 O 0.73626 0.28920 0.21777
 Zr861 Zr 0.84169 0.24862 0.26617
 O862 O 0.80295 0.28636 0.30314
 Zr863 Zr 0.76940 0.17610 0.25946
 O864 O 0.72518 0.21167 0.29259
 O865 O 0.72504 0.28989 0.29560
 O866 O 0.81195 0.20951 0.22459
 C867 C 0.76077 0.34223 0.35773
 C868 C 0.67717 0.34862 0.25113
 C869 C 0.66087 0.25063 0.34196
 C870 C 0.77804 0.15298 0.16715
 C871 C 0.87138 0.24621 0.17397
 C872 C 0.86401 0.15612 0.26869
 H873 H 0.82777 0.30629 0.21072
 H874 H 0.81622 0.19577 0.32276
 H875 H 0.70598 0.30778 0.31153
 H876 H 0.71639 0.19544 0.20063
 H877 H 0.71463 0.27530 0.14512
 H878 H 0.66438 0.23710 0.18033
 H879 H 0.87216 0.23672 0.33860
 H880 H 0.82104 0.26605 0.37847
 H881 H 0.78430 0.31851 0.15174
 H882 H 0.75669 0.36458 0.19563
 H883 H 0.78355 0.13443 0.32641
 H884 H 0.73263 0.18135 0.36552
 H885 H 0.83545 0.35890 0.28894
 H886 H 0.88545 0.31389 0.24934
 H887 H 0.65675 0.18466 0.26740
 H888 H 0.70306 0.13767 0.23702
 C889 C 0.26696 0.09608 0.09703
 C890 C 0.25275 0.09341 0.13593
 H891 H 0.28003 0.12536 0.08790
 H892 H 0.23708 0.06584 0.14665
 C893 C 0.73316 0.61930 0.60558
 C894 C 0.74516 0.61445 0.64495
 H895 H 0.72213 0.64937 0.59594
 H896 H 0.75615 0.58479 0.65569
 C897 C 0.75817 0.89851 0.09484
 C898 C 0.73139 0.89721 0.12629
 H899 H 0.77508 0.87041 0.08794
 H900 H 0.71213 0.92355 0.13376
 C901 C 0.27613 0.38932 0.60549
 C902 C 0.26071 0.39069 0.64384
 H903 H 0.29258 0.36178 0.59576
 H904 H 0.24430 0.41777 0.65471
 C905 C 0.76995 0.12432 0.89789
 C906 C 0.75549 0.12183 0.85946
 H907 H 0.77993 0.15397 0.90986
 H908 H 0.74493 0.09262 0.84706
 C909 C 0.22732 0.58689 0.38296
 C910 C 0.24731 0.62281 0.38682
 H911 H 0.21331 0.57896 0.35369
 H912 H 0.26147 0.63152 0.41578
 C913 C 0.22945 0.87920 0.89349
 C914 C 0.24311 0.88321 0.85427
 H915 H 0.22310 0.84806 0.90355
 H916 H 0.25366 0.91268 0.84257
 C917 C 0.77732 0.40898 0.39043
 C918 C 0.75760 0.37271 0.39122
 H919 H 0.79662 0.41646 0.36406
 H920 H 0.73828 0.36483 0.41748
 C921 C 0.10888 0.24506 0.11013
 C922 C 0.15010 0.24148 0.10689
 H923 H 0.09555 0.24383 0.14086
 H924 H 0.16471 0.23752 0.07706
 C925 C 0.59988 0.77718 0.61842
 C926 C 0.62956 0.74918 0.62398
 H927 H 0.59567 0.80168 0.64085
 H928 H 0.63375 0.72427 0.60201
 C929 C 0.10941 0.77590 0.90038
 C930 C 0.10340 0.76416 0.86126
 H931 H 0.14070 0.78397 0.90870
 H932 H 0.07327 0.75379 0.85111
 C933 C 0.62375 0.24243 0.40814
 C934 C 0.62379 0.25251 0.36825
 H935 H 0.65239 0.23285 0.42252
 H936 H 0.59561 0.26373 0.35418
 C937 C 0.89447 0.75131 0.11110
 C938 C 0.85398 0.75886 0.10535
 H939 H 0.90410 0.74599 0.14254
 H940 H 0.84251 0.76671 0.07504
 C941 C 0.38825 0.27544 0.59601
 C942 C 0.38243 0.24500 0.62327
 H943 H 0.36564 0.30000 0.59358
 H944 H 0.40520 0.22060 0.62589
 C945 C 0.90402 0.27510 0.89285
 C946 C 0.86425 0.26305 0.89451
 H947 H 0.91486 0.28714 0.86363
 H948 H 0.85190 0.24827 0.92184
 C949 C 0.40155 0.74674 0.39065
 C950 C 0.36256 0.76026 0.39065
 H951 H 0.41448 0.73388 0.36252
 H952 H 0.34951 0.77320 0.41867
 C953 C 0.11105 0.09081 0.23833
 C954 C 0.10871 0.13096 0.24784
 H955 H 0.14142 0.07912 0.23022
 H956 H 0.07989 0.14503 0.25742
 C957 C 0.59794 0.61430 0.73184
 C958 C 0.60446 0.63990 0.76342
 H959 H 0.61948 0.61423 0.70611
 H960 H 0.58350 0.64057 0.78958
 C961 C 0.89476 0.11852 0.76761
 C962 C 0.89861 0.15673 0.75213
 H963 H 0.86552 0.11002 0.78180
 H964 H 0.92734 0.16695 0.73822
 C965 C 0.39325 0.58995 0.27661
 C966 C 0.39505 0.62842 0.26148
 H967 H 0.36461 0.57960 0.29072
 H968 H 0.42320 0.63953 0.24703
 C969 C 0.08416 0.88759 0.73472
 C970 C 0.12535 0.88918 0.73127
 H971 H 0.07005 0.85727 0.73639
 H972 H 0.14156 0.91829 0.73370
 C973 C 0.60834 0.37901 0.23821
 C974 C 0.64742 0.38295 0.25067
 H975 H 0.59749 0.34915 0.22766
 H976 H 0.65788 0.41226 0.26294
 C977 C 0.90076 0.87630 0.25286
 C978 C 0.86139 0.88330 0.24254
 H979 H 0.91071 0.84511 0.25973
 H980 H 0.85167 0.91410 0.23392
 C981 C 0.38975 0.39643 0.76976
 C982 C 0.39404 0.35615 0.76078
 H983 H 0.35959 0.40768 0.77919
 H984 H 0.42349 0.34443 0.74991
 C985 C 0.11940 0.26154 0.90172
 C986 C 0.12164 0.23490 0.87019
 H987 H 0.14709 0.27912 0.90826
 H988 H 0.09760 0.21233 0.86474
 C989 C 0.60999 0.77619 0.40185
 C990 C 0.60739 0.75238 0.36827
 H991 H 0.63755 0.79459 0.40684
 H992 H 0.57984 0.73419 0.36264
 C993 C 0.89984 0.75764 0.89649
 C994 C 0.85844 0.75985 0.90008
 H995 H 0.91252 0.75649 0.86549
 H996 H 0.84428 0.76559 0.92983
 C997 C 0.40931 0.24253 0.38660
 C998 C 0.36989 0.23012 0.39058
 H999 H 0.42141 0.24901 0.35603
 H1000 H 0.35735 0.22299 0.42079
 C1001 C 0.10751 0.75335 0.11388
 C1002 C 0.13580 0.72316 0.11542
 H1003 H 0.10683 0.77612 0.13840
 H1004 H 0.13808 0.70017 0.09124
 C1005 C 0.60519 0.28365 0.61408
 C1006 C 0.64273 0.26623 0.61180
 H1007 H 0.59613 0.29870 0.64257
 H1008 H 0.65307 0.25102 0.58386
 C1009 C 0.89982 0.23759 0.10413
 C1010 C 0.90591 0.24631 0.14422
 H1011 H 0.86898 0.22984 0.09366
 H1012 H 0.93624 0.25519 0.15515
 C1013 C 0.39440 0.72322 0.60825
 C1014 C 0.35466 0.73379 0.60522
 H1015 H 0.40516 0.70994 0.63695
 H1016 H 0.34364 0.74772 0.57694
 C1017 C 0.22359 0.09659 0.88862
 C1018 C 0.24019 0.09700 0.85072
 H1019 H 0.20707 0.12381 0.89902
 H1020 H 0.25640 0.07005 0.83921
 C1021 C 0.75522 0.62448 0.39232
 C1022 C 0.72881 0.62574 0.36054
 H1023 H 0.77694 0.64965 0.39603
 H1024 H 0.70670 0.60105 0.35588
 C1025 C 0.75618 0.11671 0.10407
 C1026 C 0.78109 0.11908 0.13692
 H1027 H 0.73811 0.14406 0.09794
 H1028 H 0.80368 0.09532 0.14308
 C1029 C 0.24408 0.60434 0.59086
 C1030 C 0.22717 0.60382 0.62837
 H1031 H 0.25637 0.63297 0.57851
 H1032 H 0.21443 0.57527 0.64044
 C1033 C 0.78158 0.91247 0.88264
 C1034 C 0.74744 0.89010 0.87594
 H1035 H 0.80826 0.90913 0.86255
 H1036 H 0.72105 0.89323 0.89644
 C1037 C 0.24029 0.37152 0.39708
 C1038 C 0.26974 0.36518 0.36883
 H1039 H 0.21488 0.34982 0.39989
 H1040 H 0.29540 0.38651 0.36573
 C1041 C 0.23333 0.88686 0.10852
 C1042 C 0.24926 0.84863 0.10794
 H1043 H 0.22081 0.89877 0.13724
 H1044 H 0.26314 0.83703 0.07974
 C1045 C 0.73901 0.40295 0.60092
 C1046 C 0.74760 0.40643 0.64124
 H1047 H 0.73170 0.37266 0.58867
 H1048 H 0.75568 0.43614 0.65425
 C1049 C 0.10906 0.09638 0.73588
 C1050 C 0.10870 0.13749 0.73138
 H1051 H 0.13887 0.08103 0.73560
 H1052 H 0.07979 0.15357 0.72665
 C1053 C 0.60884 0.59385 0.24762
 C1054 C 0.60217 0.63337 0.23718
 H1055 H 0.64010 0.58407 0.25458
 H1056 H 0.57126 0.64349 0.22937
 C1057 C 0.11281 0.88448 0.22525
 C1058 C 0.10948 0.84389 0.23218
 H1059 H 0.14350 0.89647 0.21902
 H1060 H 0.08028 0.83022 0.24120
 C1061 C 0.60769 0.40768 0.76452
 C1062 C 0.60805 0.36913 0.75004
 H1063 H 0.63581 0.42076 0.77715
 H1064 H 0.58028 0.35626 0.73649
 C1065 C 0.89395 0.08698 0.25769
 C1066 C 0.89766 0.12574 0.27112
 H1067 H 0.86408 0.07593 0.24734
 H1068 H 0.92732 0.13644 0.28235
 C1069 C 0.38216 0.60636 0.72573
 C1070 C 0.34550 0.60548 0.74516
 H1071 H 0.38964 0.63290 0.70673
 H1072 H 0.33694 0.57931 0.76417
 C1073 C 0.87912 0.90616 0.77323
 C1074 C 0.88203 0.86713 0.75970
 H1075 H 0.84987 0.91704 0.78557
 H1076 H 0.91061 0.85562 0.74654
 C1077 C 0.39809 0.37695 0.27301
 C1078 C 0.40185 0.33886 0.25711
 H1079 H 0.36882 0.38562 0.28697
 H1080 H 0.43046 0.32865 0.24297
   
