data_POSCAR
  _audit_creation_date              2014-09-24
  _audit_creation_method            'ToBaCCo'
  _symmetry_space_group_name_H-M    'P1'
  _symmetry_Int_Tables_number       1
  _symmetry_cell_setting            triclinic
  loop_
  _symmetry_equiv_pos_as_xyz
 x,y,z
_cell_length_a 52.8586
_cell_length_b 52.9501
_cell_length_c 20.9624
_cell_angle_alpha 89.893700
_cell_angle_beta 90.012600
_cell_angle_gamma 120.084300
loop_
  _atom_site_label
  _atom_site_type_symbol
  _atom_site_fract_x
  _atom_site_fract_y
  _atom_site_fract_z
C1 C 0.19042 0.51689 0.50419
 C2 C 0.20666 0.52537 0.44705
 C3 C 0.23562 0.53075 0.44894
 C4 C 0.24781 0.52649 0.50519
 C5 C 0.23085 0.51845 0.56151
 C6 C 0.20221 0.51375 0.56181
 C7 C 0.27750 0.52901 0.50418
 C8 C 0.29363 0.53302 0.56106
 C9 C 0.31983 0.53229 0.56029
 C10 C 0.33168 0.53071 0.50181
 C11 C 0.31663 0.52734 0.44490
 C12 C 0.28926 0.52548 0.44639
 H13 H 0.16816 0.51248 0.50418
 H14 H 0.24901 0.53924 0.40678
 H15 H 0.23888 0.51371 0.60459
 H16 H 0.28564 0.53558 0.60659
 H17 H 0.35218 0.53066 0.50084
 H18 H 0.27726 0.52083 0.40213
 C19 C 0.50751 -0.31002 0.51173
 C20 C 0.50543 -0.29926 0.45194
 C21 C 0.49711 -0.27792 0.44947
 C22 C 0.49030 -0.26768 0.50567
 C23 C 0.48994 -0.28126 0.56428
 C24 C 0.49989 -0.30140 0.56848
 C25 C 0.48572 -0.24171 0.50396
 C26 C 0.48875 -0.22543 0.55991
 C27 C 0.48643 -0.20017 0.55828
 C28 C 0.48194 -0.19028 0.49975
 C29 C 0.47982 -0.20528 0.44339
 C30 C 0.48072 -0.23127 0.44584
 H31 H 0.51240 -0.32757 0.51340
 H32 H 0.49801 -0.26826 0.40363
 H33 H 0.48336 -0.27518 0.60749
 H34 H 0.49447 -0.23107 0.60500
 H35 H 0.48114 -0.17023 0.49761
 H36 H 0.47788 -0.24267 0.40148
 C37 C 1.32379 0.80763 0.49269
 C38 C 1.31227 0.79318 0.43446
 C39 C 1.28585 0.76624 0.43635
 C40 C 1.26947 0.75523 0.49327
 C41 C 1.28152 0.77094 0.55019
 C42 C 1.30875 0.79666 0.55023
 C43 C 1.23939 0.72846 0.49208
 C44 C 1.22563 0.71259 0.54839
 C45 C 1.19633 0.68934 0.54793
 C46 C 1.18211 0.68026 0.48856
 C47 C 1.19560 0.69474 0.43200
 C48 C 1.22356 0.71927 0.43437
 H49 H 1.34385 0.82846 0.49386
 H50 H 1.27852 0.75358 0.39313
 H51 H 1.26961 0.76426 0.59465
 H52 H 1.23716 0.71911 0.59309
 H53 H 1.16079 0.66081 0.48536
 H54 H 1.23227 0.73127 0.39054
 C55 C 0.80342 0.47052 0.50694
 C56 C 0.79335 0.47472 0.44834
 C57 C 0.76769 0.47645 0.44663
 C58 C 0.75136 0.47322 0.50276
 C59 C 0.76200 0.46853 0.56088
 C60 C 0.78829 0.46816 0.56328
 C61 C 0.72460 0.47656 0.50126
 C62 C 0.71384 0.48278 0.55752
 C63 C 0.68993 0.48766 0.55628
 C64 C 0.67767 0.48758 0.49671
 C65 C 0.68795 0.48178 0.44035
 C66 C 0.71039 0.47507 0.44310
 H67 H 0.82373 0.47017 0.50914
 H68 H 0.76170 0.48173 0.40142
 H69 H 0.75048 0.46545 0.60529
 H70 H 0.72502 0.48580 0.60225
 H71 H 0.65897 0.49068 0.49352
 H72 H 0.71694 0.46952 0.39900
 C73 C 0.50767 0.32220 0.49495
 C74 C 0.51073 0.31017 0.43834
 C75 C 0.51572 0.28670 0.44118
 C76 C 0.51432 0.27277 0.49979
 C77 C 0.51128 0.28549 0.55661
 C78 C 0.50929 0.31120 0.55524
 C79 C 0.51477 0.24452 0.50046
 C80 C 0.52203 0.23405 0.55588
 C81 C 0.52163 0.20710 0.55586
 C82 C 0.51513 0.19151 0.49803
 C83 C 0.50788 0.20134 0.44301
 C84 C 0.50698 0.22718 0.44492
 H85 H 0.50307 0.33986 0.49087
 H86 H 0.51963 0.27895 0.39674
 H87 H 0.51095 0.27565 0.60174
 H88 H 0.52902 0.24720 0.59850
 H89 H 0.51409 0.17063 0.49556
 H90 H 0.49920 0.23290 0.40275
 C91 C 0.66681 0.19431 0.50974
 C92 C 0.67826 0.20882 0.45215
 C93 C 0.70492 0.23524 0.45197
 C94 C 0.72164 0.24651 0.50851
 C95 C 0.70951 0.23093 0.56596
 C96 C 0.68227 0.20517 0.56662
 C97 C 0.75238 0.27247 0.50641
 C98 C 0.76787 0.28653 0.56305
 C99 C 0.79799 0.30761 0.56161
 C100 C 0.81149 0.31698 0.50174
 C101 C 0.79660 0.30451 0.44531
 C102 C 0.76751 0.28209 0.44765
 H103 H 0.64645 0.17362 0.50990
 H104 H 0.71231 0.24618 0.40666
 H105 H 0.72148 0.23729 0.61024
 H106 H 0.75718 0.28011 0.60870
 H107 H 0.83379 0.33490 0.49816
 H108 H 0.75770 0.27185 0.40295
 O109 O 0.96221 0.43471 0.12537
 O110 O 0.92805 0.43714 0.06217
 C111 C 0.93540 0.42618 0.10923
 O112 O 1.03950 0.56454 0.10304
 O113 O 1.07271 0.55722 0.04765
 C114 C 1.06606 0.57168 0.08769
 O115 O 0.95829 0.51876 0.11386
 O116 O 0.92620 0.47796 0.05790
 C117 C 0.93210 0.49769 0.10117
 O118 O 1.04375 0.47637 0.11774
 O119 O 1.07474 0.51475 0.05399
 C120 C 1.06972 0.49650 0.10027
 Zr121 Zr 1.00201 0.46610 0.08348
 O122 O 1.00385 0.46493 0.18409
 O123 O 1.00098 0.42559 0.08011
 Zr124 Zr 0.99908 0.52847 0.07527
 O125 O 1.00282 0.53371 0.17555
 O126 O 0.99376 0.56541 0.06663
 O127 O 0.97478 0.48378 0.09338
 O128 O 1.02585 0.51110 0.09045
 O129 O 1.04193 0.46939 -0.10571
 O130 O 1.07392 0.51178 -0.05418
 C131 C 1.06814 0.49037 -0.09277
 O132 O 0.95631 0.51384 -0.12067
 O133 O 0.92528 0.47558 -0.05644
 C134 C 0.93038 0.49369 -0.10312
 O135 O 1.03784 0.55909 -0.11967
 O136 O 1.07183 0.55454 -0.06042
 C137 C 1.06464 0.56695 -0.10470
 O138 O 0.96041 0.42810 -0.10918
 O139 O 0.92713 0.43440 -0.05144
 C140 C 0.93382 0.42086 -0.09393
 Zr141 Zr 1.00076 0.46237 -0.07586
 O142 O 1.00330 0.46144 -0.17656
 O143 O 0.99926 0.42172 -0.06941
 Zr144 Zr 0.99784 0.52457 -0.08443
 O145 O 1.00000 0.52425 -0.18525
 O146 O 0.99300 0.56192 -0.08716
 Zr147 Zr 0.95598 0.47196 0.00163
 Zr148 Zr 1.04373 0.51879 -0.00207
 O149 O 1.02457 0.50669 -0.09313
 O150 O 0.97313 0.47925 -0.09177
 O151 O 1.02802 0.47352 0.00347
 O152 O 0.97250 0.51725 -0.00395
 O153 O 0.97579 0.44603 0.00558
 O154 O 1.02458 0.54542 -0.00636
 H155 H 1.03896 0.51911 0.12784
 H156 H 0.95844 0.52444 -0.00490
 H157 H 1.03728 0.51260 -0.13140
 H158 H 0.96304 0.42455 0.00816
 H159 H 1.01107 0.58081 0.04399
 H160 H 1.01022 0.57803 -0.06585
 H161 H 0.98464 0.50478 -0.19988
 H162 H 0.98683 0.46309 -0.19416
 H163 H 1.01604 0.42463 -0.04308
 H164 H 1.02070 0.42946 0.06793
 H165 H 1.00655 0.48370 0.19975
 H166 H 0.98886 0.51466 0.19491
 O167 O 0.43817 0.47957 0.12177
 O168 O 0.44740 0.52087 0.06684
 C169 C 0.43355 0.50101 0.10991
 O170 O 0.56732 0.52141 0.11293
 O171 O 0.55738 0.48205 0.05031
 C172 C 0.57229 0.50094 0.09425
 O173 O 0.52681 0.56162 0.13115
 O174 O 0.49036 0.56114 0.07081
 C175 C 0.50861 0.57060 0.11833
 O176 O 0.47340 0.43357 0.10810
 O177 O 0.51273 0.44041 0.04845
 C178 C 0.49256 0.42637 0.09091
 Zr179 Zr 0.46873 0.46955 0.08071
 O180 O 0.46850 0.46437 0.18092
 O181 O 0.42618 0.43269 0.07399
 Zr182 Zr 0.53502 0.53144 0.08423
 O183 O 0.54050 0.53145 0.18407
 O184 O 0.57434 0.57220 0.07922
 O185 O 0.49026 0.51424 0.09830
 O186 O 0.51323 0.48654 0.09183
 O187 O 0.47394 0.43935 -0.11778
 O188 O 0.51235 0.44250 -0.06031
 C189 C 0.49251 0.43086 -0.10426
 O190 O 0.52865 0.56954 -0.10649
 O191 O 0.49060 0.56406 -0.04410
 C192 C 0.50986 0.57711 -0.08879
 O193 O 0.56737 0.52690 -0.11057
 O194 O 0.55724 0.48458 -0.05901
 C195 C 0.57223 0.50557 -0.09930
 O196 O 0.43986 0.48627 -0.11469
 O197 O 0.44748 0.52374 -0.04801
 C198 C 0.43443 0.50641 -0.09579
 Zr199 Zr 0.46872 0.47324 -0.07826
 O200 O 0.46497 0.47040 -0.17866
 O201 O 0.42619 0.43631 -0.07124
 Zr202 Zr 0.53489 0.53520 -0.07464
 O203 O 0.53738 0.53726 -0.17548
 O204 O 0.57471 0.57538 -0.06795
 Zr205 Zr 0.48211 0.52642 0.00801
 Zr206 Zr 0.52161 0.47851 -0.00197
 O207 O 0.51317 0.49081 -0.09151
 O208 O 0.49019 0.51862 -0.08647
 O209 O 0.47562 0.45219 -0.00213
 O210 O 0.52800 0.55190 0.00829
 O211 O 0.45240 0.48124 0.00370
 O212 O 0.55199 0.52365 0.00207
 H213 H 0.51906 0.47885 0.12866
 H214 H 0.53686 0.57337 0.01131
 H215 H 0.51900 0.48486 -0.13110
 H216 H 0.43122 0.47461 0.00394
 H217 H 0.58990 0.56863 0.06335
 H218 H 0.58937 0.57140 -0.04823
 H219 H 0.51866 0.53477 -0.19150
 H220 H 0.48240 0.48780 -0.19580
 H221 H 0.42826 0.41914 -0.06149
 H222 H 0.42779 0.41716 0.05143
 H223 H 0.47347 0.48330 0.20047
 H224 H 0.52111 0.51757 0.20194
 O225 O 0.56408 0.04221 -0.10265
 O226 O 0.55459 0.07366 -0.04630
 C227 C 0.56935 0.06819 -0.08802
 O228 O 0.43456 -0.04080 -0.12019
 O229 O 0.44036 -0.07351 -0.05909
 C230 C 0.42775 -0.06721 -0.10456
 O231 O 0.47919 0.04077 -0.12578
 O232 O 0.51300 0.07300 -0.05502
 C233 C 0.49755 0.06707 -0.10667
 O234 O 0.52613 -0.03903 -0.10267
 O235 O 0.48414 -0.07246 -0.05170
 C236 C 0.50558 -0.06563 -0.09107
 Zr237 Zr 0.53114 0.00097 -0.06996
 O238 O 0.53603 0.00010 -0.17003
 O239 O 0.57127 0.00250 -0.05284
 Zr240 Zr 0.46662 -0.00008 -0.08294
 O241 O 0.46445 -0.00165 -0.18360
 O242 O 0.42829 0.00320 -0.08225
 O243 O 0.51193 0.02626 -0.08792
 O244 O 0.48709 -0.02451 -0.08991
 O245 O 0.51836 -0.04193 0.12027
 O246 O 0.48014 -0.07401 0.05722
 C247 C 0.49897 -0.06816 0.10264
 O248 O 0.46769 0.03771 0.11416
 O249 O 0.50805 0.07148 0.05895
 C250 C 0.48754 0.06438 0.10106
 O251 O 0.42640 -0.04356 0.10525
 O252 O 0.43665 -0.07462 0.04979
 C253 C 0.42124 -0.06953 0.09041
 O254 O 0.55559 0.03971 0.13066
 O255 O 0.54997 0.07220 0.06820
 C256 C 0.56164 0.06598 0.11567
 Zr257 Zr 0.52527 -0.00084 0.08895
 O258 O 0.52095 -0.00519 0.18937
 O259 O 0.56703 0.00290 0.09393
 Zr260 Zr 0.46063 -0.00209 0.07583
 O261 O 0.45291 -0.00592 0.17531
 O262 O 0.42219 0.00022 0.06115
 Zr263 Zr 0.51719 0.04331 0.00515
 Zr264 Zr 0.47468 -0.04418 0.00066
 O265 O 0.48036 -0.02670 0.09320
 O266 O 0.50500 0.02420 0.09656
 O267 O 0.52025 -0.02626 0.00902
 O268 O 0.47163 0.02477 -0.00332
 O269 O 0.54531 0.02603 0.01160
 O270 O 0.44580 -0.02766 -0.00589
 H271 H 0.48231 -0.03668 -0.12876
 H272 H 0.46384 0.03831 -0.00611
 H273 H 0.47298 -0.03984 0.13072
 H274 H 0.56662 0.03973 0.01529
 H275 H 0.41169 -0.01620 -0.07074
 H276 H 0.40726 -0.01855 0.04243
 H277 H 0.47213 0.00558 0.19628
 H278 H 0.51656 0.00981 0.20503
 H279 H 0.56648 -0.01268 0.06692
 H280 H 0.57978 0.00324 -0.09539
 H281 H 0.53081 0.01401 -0.18895
 H282 H 0.48334 0.00100 -0.19867
 C283 C 1.16025 0.52051 0.27927
 C284 C 1.18522 0.51792 0.27434
 C285 C 1.20178 0.52116 0.32914
 C286 C 1.19334 0.52684 0.38906
 C287 C 1.16940 0.53174 0.38954
 N288 N 1.15344 0.52784 0.33606
 C289 C 1.13897 0.51185 0.22714
 N290 N 1.14425 0.52944 0.17548
 C291 C 1.12308 0.52390 0.13148
 C292 C 1.09463 0.49995 0.13947
 C293 C 1.08947 0.48102 0.19112
 C294 C 1.11147 0.48703 0.23506
 H295 H 1.21964 0.51683 0.32480
 H296 H 1.16295 0.53844 0.43228
 H297 H 1.12807 0.53899 0.09224
 H298 H 1.06803 0.46224 0.19940
 H299 H 1.19081 0.51175 0.22957
 H300 H 1.10681 0.47298 0.27628
 C301 C 0.51435 0.65594 0.29658
 C302 C 0.53463 0.66512 0.34670
 C303 C 0.53254 0.68114 0.39657
 C304 C 0.51103 0.68933 0.39617
 C305 C 0.49368 0.68307 0.34085
 N306 N 0.49513 0.66597 0.29396
 C307 C 0.51226 0.63376 0.25035
 N308 N 0.50119 0.63192 0.19057
 C309 C 0.49905 0.61165 0.14729
 C310 C 0.50862 0.59203 0.16351
 C311 C 0.51899 0.59305 0.22550
 C312 C 0.52059 0.61349 0.26882
 H313 H 0.54775 0.68696 0.43591
 H314 H 0.47707 0.68925 0.33753
 H315 H 0.49050 0.61125 0.10014
 H316 H 0.52573 0.57778 0.24100
 H317 H 0.55148 0.65924 0.34875
 H318 H 0.52789 0.61292 0.31672
 C319 C 0.35129 -0.16008 0.26539
 C320 C 0.32187 -0.18177 0.26438
 C321 C 0.30922 -0.19855 0.31915
 C322 C 0.32582 -0.19345 0.37555
 C323 C 0.35590 -0.17250 0.37210
 N324 N 0.36750 -0.15638 0.31843
 C325 C 0.36430 -0.13890 0.21326
 N326 N 0.37828 -0.14377 0.16452
 C327 C 0.39440 -0.12269 0.12081
 C328 C 0.39817 -0.09453 0.12679
 C329 C 0.38257 -0.08979 0.17500
 C330 C 0.36567 -0.11192 0.21828
 H331 H 0.28595 -0.21377 0.31816
 H332 H 0.37040 -0.16864 0.41189
 H333 H 0.40560 -0.12749 0.08374
 H334 H 0.38461 -0.06856 0.18145
 H335 H 0.30853 -0.18474 0.22273
 H336 H 0.35488 -0.10762 0.25721
 C337 C 0.84538 0.48572 0.28279
 C338 C 0.81485 0.46760 0.27922
 C339 C 0.79765 0.46442 0.33277
 C340 C 0.81080 0.47907 0.38969
 C341 C 0.84122 0.49757 0.39053
 N342 N 0.85741 0.50034 0.33801
 C343 C 0.86541 0.48932 0.22961
 N344 N 0.89295 0.51277 0.23113
 C345 C 0.91388 0.51663 0.18846
 C346 C 0.90796 0.49567 0.14106
 C347 C 0.87943 0.47170 0.13705
 C348 C 0.85810 0.46840 0.18122
 H349 H 0.77420 0.45006 0.33022
 H350 H 0.85216 0.50975 0.43301
 H351 H 0.93544 0.53560 0.19336
 H352 H 0.87387 0.45500 0.10131
 H353 H 0.80427 0.45608 0.23590
 H354 H 0.83670 0.44907 0.17895
 C355 C 0.50108 0.34755 0.26524
 C356 C 0.52452 0.34215 0.27099
 C357 C 0.52737 0.32909 0.32667
 C358 C 0.50706 0.32154 0.37639
 C359 C 0.48334 0.32604 0.36746
 N360 N 0.48115 0.33889 0.31339
 C361 C 0.49790 0.36425 0.21180
 N362 N 0.47446 0.36837 0.21325
 C363 C 0.47115 0.38624 0.17191
 C364 C 0.49273 0.40214 0.12610
 C365 C 0.51626 0.39700 0.12089
 C366 C 0.51901 0.37818 0.16364
 H367 H 0.54591 0.32582 0.33179
 H368 H 0.46681 0.31987 0.40405
 H369 H 0.45236 0.38908 0.17724
 H370 H 0.53327 0.40853 0.08578
 H371 H 0.54088 0.34831 0.23422
 H372 H 0.53808 0.37579 0.15999
 C373 C 0.63525 0.15670 0.28988
 C374 C 0.66544 0.16820 0.29725
 C375 C 0.67991 0.18698 0.34804
 C376 C 0.66426 0.19391 0.39182
 C377 C 0.63431 0.18283 0.38138
 N378 N 0.62071 0.16475 0.33125
 C379 C 0.61855 0.13455 0.24089
 N380 N 0.59664 0.13558 0.20910
 C381 C 0.57918 0.11461 0.16674
 C382 C 0.58253 0.09025 0.15640
 C383 C 0.60498 0.08877 0.18867
 C384 C 0.62328 0.11106 0.23033
 H385 H 0.70299 0.19488 0.35508
 H386 H 0.62159 0.18775 0.41429
 H387 H 0.56198 0.11640 0.14309
 H388 H 0.60819 0.07028 0.18208
 H389 H 0.67755 0.16228 0.26483
 H390 H 0.64015 0.10936 0.25599
 C391 C 0.52221 0.15987 -0.28267
 C392 C 0.51567 0.18226 -0.27440
 C393 C 0.51748 0.19962 -0.32682
 C394 C 0.52565 0.19456 -0.38759
 C395 C 0.53502 0.17387 -0.39097
 N396 N 0.53232 0.15693 -0.34002
 C397 C 0.51527 0.13706 -0.23424
 N398 N 0.50469 0.10924 -0.25504
 C399 C 0.49795 0.08667 -0.21479
 C400 C 0.50248 0.09150 -0.14899
 C401 C 0.51358 0.12008 -0.12612
 C402 C 0.51963 0.14293 -0.16863
 H403 H 0.50996 0.21506 -0.32042
 H404 H 0.54393 0.17048 -0.43438
 H405 H 0.48991 0.06512 -0.23463
 H406 H 0.51763 0.12472 -0.07566
 H407 H 0.50731 0.18498 -0.22935
 H408 H 0.52834 0.16491 -0.15075
 C409 C 0.65028 0.49832 -0.27853
 C410 C 0.66467 0.48219 -0.27438
 C411 C 0.67888 0.47958 -0.32821
 C412 C 0.67828 0.49244 -0.38687
 C413 C 0.66449 0.50937 -0.38746
 N414 N 0.65120 0.51179 -0.33440
 C415 C 0.63337 0.50086 -0.22520
 N416 N 0.62940 0.52432 -0.22457
 C417 C 0.61148 0.52699 -0.18228
 C418 C 0.59524 0.50465 -0.13804
 C419 C 0.59960 0.48057 -0.13635
 C420 C 0.61872 0.47862 -0.17973
 H421 H 0.68880 0.46604 -0.32438
 H422 H 0.66462 0.52126 -0.42956
 H423 H 0.60908 0.54609 -0.18527
 H424 H 0.58742 0.46273 -0.10335
 H425 H 0.66487 0.47159 -0.23035
 H426 H 0.62071 0.45926 -0.17971
 C427 C 0.85046 0.34251 -0.27343
 C428 C 0.86258 0.33930 -0.33007
 C429 C 0.84509 0.32737 -0.38338
 C430 C 0.81511 0.31858 -0.38209
 C431 C 0.80356 0.32136 -0.32343
 N432 N 0.82138 0.33360 -0.27186
 C433 C 0.86954 0.35784 -0.21812
 N434 N 0.86279 0.37411 -0.17887
 C435 C 0.88191 0.39243 -0.13422
 C436 C 0.91013 0.39623 -0.12969
 C437 C 0.91647 0.37786 -0.16594
 C438 C 0.89616 0.35841 -0.20928
 H439 H 0.85531 0.32451 -0.42533
 H440 H 0.78086 0.31543 -0.31916
 H441 H 0.87567 0.40515 -0.10495
 H442 H 0.93758 0.37924 -0.16256
 H443 H 0.88566 0.34675 -0.33443
 H444 H 0.90187 0.34482 -0.23722
 C445 C 0.49717 -0.14968 -0.27400
 C446 C 0.47972 -0.18024 -0.27109
 C447 C 0.47648 -0.19683 -0.32555
 C448 C 0.49042 -0.18308 -0.38276
 C449 C 0.50819 -0.15260 -0.38310
 N450 N 0.51105 -0.13697 -0.32962
 C451 C 0.50051 -0.13044 -0.21959
 N452 N 0.52385 -0.10283 -0.21951
 C453 C 0.52704 -0.08253 -0.17586
 C454 C 0.50537 -0.08921 -0.12955
 C455 C 0.48163 -0.11791 -0.12703
 C456 C 0.47911 -0.13857 -0.17185
 H457 H 0.46267 -0.22034 -0.32333
 H458 H 0.51984 -0.14119 -0.42581
 H459 H 0.54581 -0.06078 -0.17963
 H460 H 0.46428 -0.12404 -0.09246
 H461 H 0.46879 -0.19130 -0.22753
 H462 H 0.45983 -0.16003 -0.17097
 C463 C 0.36094 0.52301 -0.27234
 C464 C 0.35352 0.54513 -0.27378
 C465 C 0.33950 0.54812 -0.32780
 C466 C 0.33323 0.52936 -0.38007
 C467 C 0.34021 0.50715 -0.37563
 N468 N 0.35367 0.50468 -0.32304
 C469 C 0.37716 0.51877 -0.21954
 N470 N 0.37908 0.49410 -0.22084
 C471 C 0.39579 0.48911 -0.17952
 C472 C 0.41271 0.51003 -0.13351
 C473 C 0.41014 0.53512 -0.12888
 C474 C 0.39252 0.53970 -0.17201
 H475 H 0.33417 0.56537 -0.32938
 H476 H 0.33509 0.49177 -0.41423
 H477 H 0.39657 0.46916 -0.18440
 H478 H 0.42251 0.55164 -0.09358
 H479 H 0.35838 0.55995 -0.23427
 H480 H 0.39203 0.55983 -0.16934
 C481 C 1.14853 0.64602 -0.28562
 C482 C 1.17910 0.65884 -0.28521
 C483 C 1.19522 0.67369 -0.33955
 C484 C 1.18099 0.67547 -0.39502
 C485 C 1.15034 0.66295 -0.39182
 N486 N 1.13538 0.64895 -0.33849
 C487 C 1.12944 0.62878 -0.23180
 N488 N 1.10162 0.62396 -0.23087
 C489 C 1.08127 0.60583 -0.18823
 C490 C 1.08814 0.59041 -0.14357
 C491 C 1.11702 0.59581 -0.14179
 C492 C 1.13774 0.61495 -0.18583
 H493 H 1.21861 0.68245 -0.33853
 H494 H 1.13803 0.66491 -0.43081
 H495 H 1.05943 0.60266 -0.19114
 H496 H 1.12327 0.58431 -0.10831
 H497 H 1.19056 0.65752 -0.24374
 H498 H 1.15939 0.61759 -0.18558
 C499 C 0.83786 0.47738 -0.27014
 C500 C 0.82861 0.49753 -0.28233
 C501 C 0.81058 0.49330 -0.33459
 C502 C 0.80226 0.46936 -0.37501
 C503 C 0.81099 0.44907 -0.35973
 N504 N 0.82842 0.45354 -0.30827
 C505 C 0.86012 0.48321 -0.22134
 N506 N 0.85692 0.46139 -0.18180
 C507 C 0.87831 0.46494 -0.14047
 C508 C 0.90531 0.49106 -0.14004
 C509 C 0.90868 0.51402 -0.17943
 C510 C 0.88604 0.51028 -0.21955
 H511 H 0.80447 0.50954 -0.34554
 H512 H 0.80489 0.43036 -0.39005
 H513 H 0.87459 0.44704 -0.10979
 H514 H 0.92904 0.53465 -0.18031
 H515 H 0.83595 0.51673 -0.25284
 H516 H 0.88929 0.52785 -0.25122
 C517 C 0.50256 0.35482 -0.28207
 C518 C 0.49630 0.32595 -0.27538
 C519 C 0.49901 0.31137 -0.32845
 C520 C 0.50824 0.32565 -0.38822
 C521 C 0.51615 0.35542 -0.39023
 N522 N 0.51257 0.36864 -0.33870
 C523 C 0.49702 0.37055 -0.23142
 N524 N 0.48355 0.38573 -0.24791
 C525 C 0.48033 0.40355 -0.20657
 C526 C 0.49222 0.40798 -0.14503
 C527 C 0.50585 0.39216 -0.12639
 C528 C 0.50796 0.37305 -0.16939
 H529 H 0.49221 0.28857 -0.32261
 H530 H 0.52566 0.36873 -0.43220
 H531 H 0.46982 0.41539 -0.22319
 H532 H 0.51537 0.39504 -0.07933
 H533 H 0.48811 0.31443 -0.23064
 H534 H 0.51925 0.36157 -0.15554
 C535 C 0.64645 0.15260 -0.26721
 C536 C 0.65265 0.14105 -0.32134
 C537 C 0.66490 0.15852 -0.37488
 C538 C 0.67118 0.18752 -0.37474
 C539 C 0.66538 0.19861 -0.31943
 N540 N 0.65284 0.18094 -0.26791
 C541 C 0.63059 0.13357 -0.21250
 N542 N 0.61040 0.13762 -0.18080
 C543 C 0.59209 0.11823 -0.13649
 C544 C 0.59298 0.09264 -0.12380
 C545 C 0.61486 0.08909 -0.15293
 C546 C 0.63384 0.10959 -0.19675
 H547 H 0.66908 0.14929 -0.41691
 H548 H 0.66986 0.22092 -0.31808
 H549 H 0.57561 0.12183 -0.11462
 H550 H 0.61661 0.06989 -0.14360
 H551 H 0.64699 0.11840 -0.32356
 H552 H 0.65019 0.10611 -0.21963
 C553 C 1.15113 0.49488 -0.27152
 C554 C 1.13779 0.48157 -0.32920
 C555 C 1.15471 0.48718 -0.38376
 C556 C 1.18525 0.50579 -0.38157
 C557 C 1.19791 0.51739 -0.32161
 N558 N 1.18070 0.51239 -0.26928
 C559 C 1.13288 0.49205 -0.21567
 N560 N 1.13833 0.51629 -0.18216
 C561 C 1.11915 0.51584 -0.13810
 C562 C 1.09234 0.49013 -0.12770
 C563 C 1.08742 0.46454 -0.15852
 C564 C 1.10762 0.46541 -0.20226
 H565 H 1.14370 0.47645 -0.42748
 H566 H 1.22121 0.53209 -0.31704
 H567 H 1.12394 0.53596 -0.11472
 H568 H 1.06730 0.44408 -0.15110
 H569 H 1.11428 0.46784 -0.33280
 H570 H 1.10290 0.44570 -0.22755
 C571 C 0.50591 0.65903 -0.26104
 C572 C 0.48523 0.66827 -0.26478
 C573 C 0.48372 0.68240 -0.32010
 C574 C 0.50243 0.68694 -0.37232
 C575 C 0.52380 0.67871 -0.36431
 N576 N 0.52478 0.66518 -0.31036
 C577 C 0.50757 0.64138 -0.20794
 N578 N 0.53085 0.63704 -0.20735
 C579 C 0.53287 0.61818 -0.16681
 C580 C 0.51010 0.60148 -0.12406
 C581 C 0.48654 0.60667 -0.12097
 C582 C 0.48506 0.62647 -0.16307
 H583 H 0.46671 0.68803 -0.32293
 H584 H 0.54014 0.68325 -0.40047
 H585 H 0.55177 0.61540 -0.17020
 H586 H 0.46869 0.59454 -0.08807
 H587 H 0.47007 0.66436 -0.22634
 H588 H 0.46589 0.62880 -0.16206
 C589 C 0.35007 -0.15313 -0.28312
 C590 C 0.33875 -0.18349 -0.28165
 C591 C 0.32426 -0.20022 -0.33532
 C592 C 0.32122 -0.18673 -0.39014
 C593 C 0.33183 -0.15661 -0.38865
 N594 N 0.34581 -0.14086 -0.33614
 C595 C 0.36737 -0.13344 -0.23041
 N596 N 0.37072 -0.10624 -0.22937
 C597 C 0.38858 -0.08545 -0.18742
 C598 C 0.40517 -0.09119 -0.14361
 C599 C 0.40148 -0.11936 -0.14224
 C600 C 0.38265 -0.14055 -0.18561
 H601 H 0.31622 -0.22348 -0.33478
 H602 H 0.32943 -0.14550 -0.42960
 H603 H 0.39048 -0.06415 -0.18996
 H604 H 0.41402 -0.12466 -0.10958
 H605 H 0.34108 -0.19426 -0.24005
 H606 H 0.38129 -0.16161 -0.18571
 C607 C 0.48671 -0.15733 0.27500
 C608 C 0.50697 -0.16660 0.28593
 C609 C 0.50361 -0.18391 0.33910
 C610 C 0.48035 -0.19162 0.38155
 C611 C 0.45992 -0.18291 0.36756
 N612 N 0.46355 -0.16617 0.31527
 C613 C 0.49122 -0.13623 0.22407
 N614 N 0.46768 -0.13861 0.19230
 C615 C 0.47011 -0.11809 0.14977
 C616 C 0.49720 -0.09276 0.13958
 C617 C 0.52182 -0.09008 0.17109
 C618 C 0.51899 -0.11194 0.21276
 H619 H 0.51992 -0.19007 0.34885
 H620 H 0.44167 -0.18860 0.39930
 H621 H 0.45062 -0.12082 0.12671
 H622 H 0.54308 -0.07077 0.16474
 H623 H 0.52552 -0.16000 0.25453
 H624 H 0.53801 -0.10909 0.23849
 C625 C 0.35703 0.51465 0.28200
 C626 C 0.32799 0.49368 0.29680
 C627 C 0.31407 0.49844 0.34820
 C628 C 0.32914 0.52385 0.38483
 C629 C 0.35765 0.54475 0.36689
 N630 N 0.37071 0.53970 0.31667
 C631 C 0.37393 0.50973 0.23241
 N632 N 0.39577 0.53320 0.20159
 C633 C 0.41410 0.53068 0.15999
 C634 C 0.41165 0.50339 0.14920
 C635 C 0.38916 0.47885 0.18004
 C636 C 0.37011 0.48189 0.22124
 H637 H 0.29205 0.48182 0.36099
 H638 H 0.36979 0.56471 0.39393
 H639 H 0.43133 0.55018 0.13760
 H640 H 0.38662 0.45744 0.17313
 H641 H 0.31633 0.47371 0.26962
 H642 H 0.35353 0.46286 0.24628
 C643 C 1.14953 0.65555 0.25965
 C644 C 1.17978 0.66618 0.26254
 C645 C 1.19516 0.68012 0.31792
 C646 C 1.18049 0.68347 0.37016
 C647 C 1.15063 0.67394 0.36396
 N648 N 1.13614 0.66029 0.30990
 C649 C 1.13101 0.63762 0.20613
 N650 N 1.10389 0.63432 0.20010
 C651 C 1.08369 0.61506 0.15886
 C652 C 1.08990 0.59677 0.12179
 C653 C 1.11817 0.60068 0.12476
 C654 C 1.13879 0.62105 0.16690
 H655 H 1.21824 0.68726 0.32084
 H656 H 1.13866 0.67666 0.40266
 H657 H 1.06230 0.61308 0.15758
 H658 H 1.12383 0.58690 0.09734
 H659 H 1.19145 0.66348 0.22322
 H660 H 1.15979 0.62233 0.17117
 C661 C 0.49293 0.14995 0.27570
 C662 C 0.51025 0.18050 0.27136
 C663 C 0.51425 0.19750 0.32546
 C664 C 0.50104 0.18415 0.38348
 C665 C 0.48266 0.15381 0.38480
 N666 N 0.47932 0.13775 0.33188
 C667 C 0.49003 0.12997 0.22331
 N668 N 0.46910 0.10140 0.22926
 C669 C 0.46689 0.08054 0.18856
 C670 C 0.48713 0.08777 0.13875
 C671 C 0.50814 0.11728 0.12964
 C672 C 0.50977 0.13845 0.17191
 H673 H 0.52850 0.22093 0.32263
 H674 H 0.47153 0.14277 0.42826
 H675 H 0.45005 0.05816 0.19717
 H676 H 0.52399 0.12387 0.09140
 H677 H 0.52097 0.19126 0.22745
 H678 H 0.52716 0.16074 0.16571
 C679 C 0.64889 0.48872 0.26750
 C680 C 0.65300 0.46462 0.27593
 C681 C 0.66650 0.46250 0.33160
 C682 C 0.67574 0.48421 0.37854
 C683 C 0.67237 0.50841 0.36688
 N684 N 0.65913 0.50991 0.31285
 C685 C 0.63233 0.49166 0.21371
 N686 N 0.63311 0.51762 0.20722
 C687 C 0.61573 0.52161 0.16584
 C688 C 0.59527 0.49832 0.12865
 C689 C 0.59507 0.47173 0.13160
 C690 C 0.61347 0.46823 0.17425
 H691 H 0.66894 0.44358 0.33884
 H692 H 0.67982 0.52595 0.40126
 H693 H 0.61699 0.54266 0.16438
 H694 H 0.57961 0.45322 0.10368
 H695 H 0.64575 0.44747 0.24081
 H696 H 0.61159 0.44701 0.17822
 C697 C 0.84813 0.34345 0.27953
 C698 C 0.82014 0.34032 0.28335
 C699 C 0.80228 0.32594 0.33583
 C700 C 0.81241 0.31491 0.38416
 C701 C 0.83972 0.31702 0.37670
 N702 N 0.85673 0.33125 0.32573
 C703 C 0.86953 0.36201 0.23023
 N704 N 0.86314 0.37795 0.18892
 C705 C 0.88333 0.39762 0.14769
 C706 C 0.91209 0.40270 0.14794
 C707 C 0.91878 0.38581 0.18860
 C708 C 0.89762 0.36543 0.22936
 H709 H 0.78130 0.32476 0.34037
 H710 H 0.84807 0.30844 0.41280
 H711 H 0.87720 0.40999 0.11661
 H712 H 0.94055 0.38867 0.18981
 H713 H 0.81260 0.34982 0.24763
 H714 H 0.90357 0.35316 0.26128
   
