data_POSCAR
  _audit_creation_date              2014-09-24
  _audit_creation_method            'ToBaCCo'
  _symmetry_space_group_name_H-M    'P1'
  _symmetry_Int_Tables_number       1
  _symmetry_cell_setting            triclinic
  loop_
  _symmetry_equiv_pos_as_xyz
 x,y,z
_cell_length_a 23.2137
_cell_length_b 23.1288
_cell_length_c 23.1574
_cell_angle_alpha 106.896200
_cell_angle_beta 91.795500
_cell_angle_gamma 79.059900
loop_
  _atom_site_label
  _atom_site_type_symbol
  _atom_site_fract_x
  _atom_site_fract_y
  _atom_site_fract_z
C1 C 0.55309 0.50604 0.01354
 C2 C 0.51282 0.55513 0.00011
 C3 C 0.45385 0.54816 -0.01025
 C4 C 0.43134 0.49827 -0.00211
 C5 C 0.47283 0.44745 0.00549
 C6 C 0.53176 0.45292 0.01419
 H7 H 0.56229 0.41232 0.01738
 H8 H 0.42426 0.58391 -0.02335
 C9 C 0.01213 0.44786 0.50167
 C10 C 0.02927 0.49081 0.55317
 C11 C 0.03954 0.54698 0.54807
 C12 C 0.03554 0.56189 0.49300
 C13 C 0.02149 0.51707 0.44065
 C14 C 0.00991 0.46140 0.44615
 H15 H 0.00096 0.42694 0.40566
 H16 H 0.04634 0.58125 0.58950
 C17 C 0.48124 0.01044 0.44831
 C18 C 0.44146 0.00005 0.48745
 C19 C 0.46150 -0.00733 0.54316
 C20 C 0.51864 -0.00088 0.56391
 C21 C 0.55878 0.01059 0.52453
 C22 C 0.53794 0.01746 0.46835
 H23 H 0.56808 0.02364 0.43677
 H24 H 0.42973 -0.01348 0.57314
 O25 O 0.45253 -0.00742 -0.08081
 O26 O 0.44205 0.01795 0.08345
 O27 O 0.43977 0.08924 0.01255
 O28 O 0.45268 -0.07714 -0.01190
 O29 O 0.54907 -0.08827 -0.00519
 O30 O 0.53616 0.07922 0.01948
 O31 O 0.53841 0.00956 0.08816
 O32 O 0.54884 -0.01573 -0.07599
 Cu33 Cu 0.43708 0.00682 0.00054
 Cu34 Cu 0.55296 -0.00538 0.00674
 C35 C 0.50226 -0.01538 -0.10622
 C36 C 0.48864 0.01844 0.11370
 C37 C 0.48576 0.11249 0.02014
 C38 C 0.50268 -0.11105 -0.01270
 O39 O -0.08773 0.54722 0.99581
 O40 O 0.07241 0.52281 1.00200
 O41 O -0.00221 0.51980 0.91675
 O42 O -0.01053 0.53912 1.08016
 O43 O -0.01097 0.43971 1.06035
 O44 O -0.00824 0.42178 0.89790
 O45 O 0.07714 0.42260 0.98055
 O46 O -0.08471 0.44780 0.98105
 Cu47 Cu -0.00748 0.54236 1.00061
 Cu48 Cu -0.00372 0.42282 0.97795
 C49 C -0.11354 0.50197 0.98801
 C50 C 0.10224 0.46888 0.99184
 C51 C -0.00501 0.46777 0.87969
 C52 C -0.01242 0.49233 1.09782
 O53 O -0.00137 -0.07967 0.43511
 O54 O -0.00767 0.08671 0.46727
 O55 O 0.07665 -0.00829 0.44707
 O56 O -0.08498 0.01727 0.45855
 O57 O -0.08020 0.02514 0.55589
 O58 O 0.08131 -0.00130 0.54431
 O59 O 0.00006 0.09609 0.56480
 O60 O 0.00522 -0.06983 0.53280
 Cu61 Cu -0.00503 0.00299 0.44220
 Cu62 Cu 0.00132 0.01405 0.55955
 C63 C 0.00351 -0.10303 0.47872
 C64 C -0.00331 0.11931 0.52110
 C65 C 0.10640 -0.00934 0.49391
 C66 C -0.11002 0.02495 0.50893
 C67 C -0.29800 0.52712 0.98772
 C68 C -0.26462 0.48979 1.01949
 N69 N -0.29187 0.46186 1.05146
 C70 C -0.35112 0.46835 1.05220
 C71 C -0.38544 0.50353 1.01813
 N72 N -0.35727 0.53229 0.98696
 N73 N -0.27048 0.55724 0.95791
 C74 C -0.21097 0.55120 0.95821
 C75 C -0.17761 0.51204 0.98833
 N76 N -0.20539 0.48238 1.01836
 H77 H -0.37095 0.44690 1.08018
 H78 H -0.18985 0.57543 0.93403
 C79 C 0.28653 0.45336 0.99343
 C80 C 0.24876 0.51035 1.00403
 N81 N 0.27114 0.56216 1.01464
 C82 C 0.32989 0.55978 1.01364
 C83 C 0.36923 0.50225 1.00064
 N84 N 0.34547 0.45084 0.99250
 N85 N 0.26359 0.40144 0.98313
 C86 C 0.20435 0.40429 0.98267
 C87 C 0.16650 0.46173 0.99295
 N88 N 0.19006 0.51324 1.00364
 H89 H 0.34467 0.60316 1.02559
 H90 H 0.18712 0.36234 0.97409
 C91 C 0.01127 -0.29180 0.45566
 C92 C 0.04156 -0.25651 0.50170
 N93 N 0.07286 -0.28273 0.54082
 C94 C 0.07396 -0.34243 0.53736
 C95 C 0.04087 -0.37791 0.49335
 N96 N 0.01102 -0.35118 0.45302
 N97 N -0.01870 -0.26552 0.41545
 C98 C -0.02032 -0.20516 0.41998
 C99 C 0.00805 -0.16931 0.46781
 N100 N 0.03862 -0.19622 0.50719
 H101 H 0.10137 -0.36172 0.56834
 H102 H -0.04509 -0.18491 0.38798
 C103 C 0.01818 0.30020 0.53899
 C104 C -0.02268 0.27351 0.49917
 N105 N -0.05357 0.30510 0.46373
 C106 C -0.04472 0.36190 0.46541
 C107 C -0.00165 0.38792 0.50303
 N108 N 0.02855 0.35611 0.53920
 N109 N 0.04762 0.26920 0.57589
 C110 C 0.03878 0.21212 0.57384
 C111 C 0.00010 0.18414 0.53171
 N112 N -0.02991 0.21581 0.49556
 H113 H -0.07091 0.38622 0.43724
 H114 H 0.06375 0.18768 0.60266
 C115 C 0.50203 -0.03272 -0.29247
 C116 C 0.53752 0.00375 -0.25420
 N117 N 0.56754 0.03773 -0.27682
 C118 C 0.56388 0.03668 -0.33603
 C119 C 0.52905 -0.00101 -0.37527
 N120 N 0.49887 -0.03415 -0.35126
 N121 N 0.46910 -0.06405 -0.26987
 C122 C 0.46961 -0.06014 -0.21024
 C123 C 0.50513 -0.02379 -0.17148
 N124 N 0.53869 0.00719 -0.19447
 H125 H 0.58571 0.06719 -0.35117
 H126 H 0.44231 -0.08492 -0.19313
 C127 C 0.48919 0.04326 0.30121
 C128 C 0.45827 0.00101 0.26333
 N129 N 0.43328 -0.03605 0.28677
 C130 C 0.43803 -0.03299 0.34631
 C131 C 0.46852 0.00984 0.38469
 N132 N 0.49332 0.04676 0.36057
 N133 N 0.51736 0.07775 0.27752
 C134 C 0.51657 0.07147 0.21735
 C135 C 0.48566 0.02931 0.17921
 N136 N 0.45676 -0.00477 0.20318
 H137 H 0.41985 -0.06504 0.36290
 H138 H 0.54014 0.09880 0.19931
 C139 C 0.49982 -0.29791 -0.03373
 C140 C 0.53801 -0.26795 0.00715
 N141 N 0.56922 -0.29782 0.04407
 C142 C 0.56399 -0.35619 0.04198
 C143 C 0.52591 -0.38701 0.00043
 N144 N 0.49480 -0.35585 -0.03586
 N145 N 0.46597 -0.26764 -0.06854
 C146 C 0.46789 -0.20816 -0.06379
 C147 C 0.50561 -0.17740 -0.02257
 N148 N 0.54034 -0.20829 0.01182
 H149 H 0.58683 -0.37656 0.07481
 H150 H 0.43963 -0.18475 -0.09141
 C151 C 0.47837 0.30155 0.04386
 C152 C 0.45579 0.26502 -0.00802
 N153 N 0.43629 0.28967 -0.05321
 C154 C 0.43851 0.34915 -0.04899
 C155 C 0.45972 0.38647 0.00357
 N156 N 0.47976 0.36109 0.04839
 N157 N 0.50176 0.27593 0.08721
 C158 C 0.50390 0.21525 0.08094
 C159 C 0.48093 0.17869 0.02938
 N160 N 0.45705 0.20456 -0.01388
 H161 H 0.42528 0.36679 -0.08683
 H162 H 0.52341 0.19562 0.11574
 C163 C -0.29422 0.04134 0.50947
 C164 C -0.25986 0.00566 0.54200
 N165 N -0.28598 -0.02778 0.56921
 C166 C -0.34494 -0.02681 0.56574
 C167 C -0.38027 0.01035 0.53427
 N168 N -0.35280 0.04280 0.50663
 N169 N -0.26835 0.07205 0.47908
 C170 C -0.20925 0.06836 0.47934
 C171 C -0.17438 0.03294 0.51207
 N172 N -0.20064 0.00249 0.54303
 H173 H -0.36311 -0.05698 0.58498
 H174 H -0.18960 0.09267 0.45407
 C175 C 0.29106 -0.03248 0.49345
 C176 C 0.25758 0.00894 0.46596
 N177 N 0.28471 0.04564 0.44413
 C178 C 0.34377 0.04292 0.44865
 C179 C 0.37779 0.00072 0.47540
 N180 N 0.34993 -0.03572 0.49722
 N181 N 0.26389 -0.06658 0.51868
 C182 C 0.20454 -0.06077 0.51818
 C183 C 0.17077 -0.01958 0.49053
 N184 N 0.19819 0.01418 0.46464
 H185 H 0.36347 0.07472 0.43319
 H186 H 0.18380 -0.08781 0.53941
 C187 C -0.02133 0.50263 1.28191
 C188 C 0.02316 0.52454 1.25974
 N189 N 0.06611 0.54455 1.29709
 C190 C 0.06649 0.54381 1.35567
 C191 C 0.02104 0.52342 1.37853
 N192 N -0.02144 0.50284 1.34047
 N193 N -0.06239 0.47919 1.24399
 C194 C -0.06084 0.47631 1.18462
 C195 C -0.01678 0.49871 1.16236
 N196 N 0.02421 0.52262 1.20055
 H197 H 0.10229 0.55813 1.38384
 H198 H -0.09361 0.45669 1.15500
 C199 C -0.00674 0.45894 0.69549
 C200 C 0.03882 0.47945 0.73245
 N201 N 0.08217 0.49834 0.70914
 C202 C 0.08150 0.49898 0.65074
 C203 C 0.03443 0.48159 0.61413
 N204 N -0.00858 0.46158 0.63756
 N205 N -0.04911 0.43828 0.71874
 C206 C -0.04835 0.43812 0.77752
 C207 C -0.00427 0.46140 0.81504
 N208 N 0.03842 0.48126 0.79143
 H209 H 0.11668 0.51450 0.63342
 H210 H -0.08289 0.42217 0.79538
   
