data_POSCAR
  _audit_creation_date              2014-09-24
  _audit_creation_method            'ToBaCCo'
  _symmetry_space_group_name_H-M    'P1'
  _symmetry_Int_Tables_number       1
  _symmetry_cell_setting            triclinic
  loop_
  _symmetry_equiv_pos_as_xyz
 x,y,z
_cell_length_a 40.9419
_cell_length_b 44.1145
_cell_length_c 29.8537
_cell_angle_alpha 89.852600
_cell_angle_beta 90.005200
_cell_angle_gamma 90.041500
loop_
  _atom_site_label
  _atom_site_type_symbol
  _atom_site_fract_x
  _atom_site_fract_y
  _atom_site_fract_z
C1 C 1.27823 0.21742 0.26771
 C2 C 1.25112 0.23344 0.25121
 C3 C 1.22404 0.21739 0.23480
 C4 C 1.22415 0.18570 0.23470
 C5 C 1.25112 0.16984 0.25136
 C6 C 1.27814 0.18570 0.26798
 C7 C 1.25111 0.26687 0.25102
 C8 C 1.27819 0.28292 0.23444
 C9 C 1.27803 0.31464 0.23392
 C10 C 1.25097 0.33047 0.25038
 C11 C 1.22402 0.31458 0.26713
 C12 C 1.22399 0.28289 0.26727
 H13 H 1.29906 0.22967 0.28098
 H14 H 1.20318 0.22953 0.22141
 H15 H 1.29904 0.27070 0.22123
 H16 H 1.20313 0.27072 0.28068
 H17 H 1.25104 0.14524 0.25135
 H18 H 1.25082 0.35507 0.25016
 C19 C 0.77728 -0.28328 0.26683
 C20 C 0.75010 -0.26723 0.25070
 C21 C 0.72296 -0.28324 0.23439
 C22 C 0.72309 -0.31492 0.23404
 C23 C 0.75016 -0.33083 0.25031
 C24 C 0.77724 -0.31500 0.26680
 C25 C 0.75007 -0.23381 0.25079
 C26 C 0.77722 -0.21770 0.23460
 C27 C 0.77709 -0.18602 0.23446
 C28 C 0.75001 -0.17023 0.25081
 C29 C 0.72296 -0.18616 0.26715
 C30 C 0.72289 -0.21785 0.26700
 H31 H 0.79816 -0.27108 0.28005
 H32 H 0.70203 -0.27107 0.22126
 H33 H 0.79815 -0.22979 0.22140
 H34 H 0.70197 -0.23005 0.28014
 H35 H 0.75011 -0.35543 0.25009
 H36 H 0.74998 -0.14564 0.25081
 C37 C 0.77765 0.21806 -0.23436
 C38 C 0.75051 0.23403 -0.25078
 C39 C 0.72341 0.21794 -0.26704
 C40 C 0.72356 0.18626 -0.26703
 C41 C 0.75060 0.17046 -0.25045
 C42 C 0.77759 0.18638 -0.23403
 C43 C 0.75046 0.26744 -0.25095
 C44 C 0.77755 0.28351 -0.26738
 C45 C 0.77740 0.31522 -0.26771
 C46 C 0.75033 0.33102 -0.25125
 C47 C 0.72336 0.31509 -0.23468
 C48 C 0.72331 0.28341 -0.23469
 H49 H 0.79852 0.23026 -0.22115
 H50 H 0.70250 0.23004 -0.28037
 H51 H 0.79843 0.27132 -0.28057
 H52 H 0.70245 0.27122 -0.22136
 H53 H 0.75063 0.14587 -0.25032
 H54 H 0.75020 0.35563 -0.25131
 C55 C 1.27723 -0.28339 -0.23273
 C56 C 1.25006 -0.26729 -0.24873
 C57 C 1.22283 -0.28322 -0.26487
 C58 C 1.22287 -0.31489 -0.26515
 C59 C 1.24993 -0.33086 -0.24905
 C60 C 1.27709 -0.31509 -0.23276
 C61 C 1.25013 -0.23389 -0.24865
 C62 C 1.27736 -0.21786 -0.26470
 C63 C 1.27731 -0.18619 -0.26483
 C64 C 1.25023 -0.17033 -0.24868
 C65 C 1.22310 -0.18621 -0.23252
 C66 C 1.22295 -0.21788 -0.23261
 H67 H 1.29819 -0.27124 -0.21961
 H68 H 1.20191 -0.27101 -0.27792
 H69 H 1.29830 -0.23000 -0.27780
 H70 H 1.20196 -0.23002 -0.21956
 H71 H 1.24980 -0.35547 -0.24925
 H72 H 1.25026 -0.14574 -0.24871
 C73 C 0.21477 0.27460 0.73293
 C74 C 0.23217 0.25006 0.75133
 C75 C 0.21484 0.22543 0.76965
 C76 C 0.18054 0.22543 0.77002
 C77 C 0.16346 0.24989 0.75114
 C78 C 0.18051 0.27441 0.73237
 C79 C 0.26841 0.25015 0.75132
 C80 C 0.28575 0.27477 0.76948
 C81 C 0.32005 0.27476 0.76984
 C82 C 0.33712 0.25031 0.75110
 C83 C 0.32006 0.22581 0.73249
 C84 C 0.28580 0.22563 0.73306
 H85 H 0.22790 0.29356 0.71836
 H86 H 0.22811 0.20655 0.78422
 H87 H 0.27249 0.29364 0.78395
 H88 H 0.27266 0.20668 0.71861
 H89 H 0.13696 0.24990 0.75099
 H90 H 0.36362 0.25030 0.75094
 C91 C 0.71375 0.77473 0.73201
 C92 C 0.73107 0.75011 0.75032
 C93 C 0.71367 0.72549 0.76855
 C94 C 0.67937 0.72557 0.76893
 C95 C 0.66235 0.75010 0.75014
 C96 C 0.67946 0.77463 0.73143
 C97 C 0.76732 0.75010 0.75033
 C98 C 0.78473 0.77464 0.76861
 C99 C 0.81901 0.77454 0.76899
 C100 C 0.83602 0.75011 0.75017
 C101 C 0.81892 0.72568 0.73143
 C102 C 0.78466 0.72557 0.73197
 H103 H 0.72703 0.79365 0.71754
 H104 H 0.72688 0.70656 0.78305
 H105 H 0.77160 0.79354 0.78318
 H106 H 0.77147 0.70668 0.71743
 H107 H 0.63583 0.75010 0.75005
 H108 H 0.86251 0.75012 0.75009
 C109 C 0.71491 0.27461 0.23095
 C110 C 0.73227 0.25002 0.24923
 C111 C 0.71492 0.22540 0.26752
 C112 C 0.68067 0.22549 0.26798
 C113 C 0.66360 0.24997 0.24926
 C114 C 0.68065 0.27447 0.23053
 C115 C 0.76847 0.25006 0.24926
 C116 C 0.78581 0.27467 0.26741
 C117 C 0.82006 0.27459 0.26792
 C118 C 0.83715 0.25012 0.24940
 C119 C 0.82011 0.22562 0.23080
 C120 C 0.78586 0.22548 0.23118
 H121 H 0.72806 0.29357 0.21641
 H122 H 0.72808 0.20647 0.28207
 H123 H 0.77263 0.29360 0.28181
 H124 H 0.77272 0.20652 0.21675
 H125 H 0.63711 0.24995 0.24929
 H126 H 0.86364 0.25015 0.24945
 C127 C 0.21387 0.77462 0.23124
 C128 C 0.23117 0.75005 0.24970
 C129 C 0.21379 0.72553 0.26818
 C130 C 0.17950 0.72566 0.26869
 C131 C 0.16247 0.75013 0.24976
 C132 C 0.17958 0.77457 0.23079
 C133 C 0.26739 0.75002 0.24971
 C134 C 0.28478 0.77447 0.26823
 C135 C 0.31905 0.77432 0.26874
 C136 C 0.33607 0.74995 0.24981
 C137 C 0.31898 0.72561 0.23083
 C138 C 0.28471 0.72553 0.23124
 H139 H 0.22716 0.79348 0.21660
 H140 H 0.22701 0.70664 0.28281
 H141 H 0.27165 0.79333 0.28290
 H142 H 0.27152 0.70670 0.21655
 H143 H 0.13595 0.75017 0.24979
 H144 H 0.36256 0.74992 0.24986
 N145 N 1.05857 0.03165 0.04820
 N146 N 1.08115 0.05216 0.05666
 N147 N 1.03600 -0.03216 0.07955
 N148 N 1.04156 -0.05400 0.10897
 N149 N 1.05855 -0.03208 0.04825
 N150 N 1.08007 -0.05385 0.05550
 N151 N 1.03611 0.03161 0.07962
 N152 N 1.04286 0.05211 0.11043
 C153 C 1.07070 0.06496 0.09510
 C154 C 1.06899 -0.06738 0.09327
 N155 N 0.94299 -0.03182 0.04836
 N156 N 0.92044 -0.05238 0.05690
 N157 N 0.96561 0.03185 0.07975
 N158 N 0.96009 0.05355 0.10923
 N159 N 0.94297 0.03187 0.04855
 N160 N 0.92145 0.05358 0.05592
 N161 N 0.96551 -0.03190 0.07970
 N162 N 0.95885 -0.05253 0.11051
 Mn163 Mn 1.00081 -0.00015 0.08015
 C164 C 0.93099 -0.06533 0.09527
 C165 C 0.93261 0.06696 0.09365
 N166 N 1.05827 -0.03160 -0.04823
 N167 N 1.08057 -0.05236 -0.05657
 N168 N 1.03586 0.03223 -0.07950
 N169 N 1.04145 0.05405 -0.10896
 N170 N 1.05849 0.03211 -0.04830
 N171 N 1.08009 0.05383 -0.05566
 N172 N 1.03573 -0.03153 -0.07954
 N173 N 1.04212 -0.05225 -0.11014
 Mn174 Mn 1.05878 0.00002 -0.00003
 C175 C 1.06984 -0.06525 -0.09480
 C176 C 1.06898 0.06738 -0.09338
 N177 N 0.94290 0.03189 -0.04790
 N178 N 0.92044 0.05253 -0.05623
 N179 N 0.96527 -0.03178 -0.07946
 N180 N 0.95958 -0.05343 -0.10900
 N181 N 0.94274 -0.03184 -0.04813
 N182 N 0.92112 -0.05351 -0.05547
 N183 N 0.96536 0.03200 -0.07931
 N184 N 0.95875 0.05272 -0.10998
 Mn185 Mn 0.94260 0.00002 0.00022
 Mn186 Mn 1.00056 0.00023 -0.07995
 Cl187 Cl 1.00069 0.00003 0.00010
 C188 C 0.93097 0.06555 -0.09456
 C189 C 0.93210 -0.06685 -0.09332
 N190 N 1.05751 0.53208 0.54811
 N191 N 1.07989 0.55274 0.55669
 N192 N 1.03499 0.46820 0.57923
 N193 N 1.04055 0.44641 0.60873
 N194 N 1.05769 0.46836 0.54812
 N195 N 1.07929 0.44670 0.55558
 N196 N 1.03492 0.53195 0.57935
 N197 N 1.04136 0.55254 0.61014
 C198 C 1.06916 0.56553 0.59498
 C199 C 1.06812 0.43314 0.59327
 N200 N 0.94209 0.46849 0.54733
 N201 N 0.91954 0.44790 0.55563
 N202 N 0.96447 0.53215 0.57904
 N203 N 0.95877 0.55378 0.60857
 N204 N 0.94198 0.53222 0.54764
 N205 N 0.92037 0.55388 0.55494
 N206 N 0.96450 0.46838 0.57881
 N207 N 0.95775 0.44770 0.60951
 Mn208 Mn 0.99972 0.50016 0.57959
 C209 C 0.92996 0.43490 0.59403
 C210 C 0.93133 0.56720 0.59285
 N211 N 1.05792 0.46887 0.45163
 N212 N 1.08047 0.44835 0.44328
 N213 N 1.03543 0.53267 0.42024
 N214 N 1.04107 0.55449 0.39083
 N215 N 1.05793 0.53260 0.45162
 N216 N 1.07950 0.55436 0.44442
 N217 N 1.03552 0.46890 0.42012
 N218 N 1.04229 0.44838 0.38935
 Mn219 Mn 1.05807 0.50048 0.49987
 C220 C 1.07008 0.43553 0.40481
 C221 C 1.06849 0.56788 0.40661
 N222 N 0.94237 0.53225 0.45115
 N223 N 0.91982 0.55275 0.44254
 N224 N 0.96501 0.46861 0.41976
 N225 N 0.95955 0.44690 0.39026
 N226 N 0.94232 0.46855 0.45088
 N227 N 0.92081 0.44681 0.44343
 N228 N 0.96493 0.53236 0.41986
 N229 N 0.95828 0.55296 0.38901
 Mn230 Mn 0.94189 0.50038 0.49924
 Mn231 Mn 1.00022 0.50063 0.41950
 Cl232 Cl 0.99998 0.50041 0.49955
 C233 C 0.93039 0.56570 0.40419
 C234 C 0.93204 0.43345 0.40574
 N235 N 0.55802 0.03145 0.54832
 N236 N 0.58056 0.05206 0.55647
 N237 N 0.53542 -0.03221 0.58018
 N238 N 0.54103 -0.05395 0.60975
 N239 N 0.55791 -0.03228 0.54879
 N240 N 0.57943 -0.05404 0.55614
 N241 N 0.53560 0.03156 0.57979
 N242 N 0.54232 0.05225 0.61032
 C243 C 0.57012 0.06505 0.59477
 C244 C 0.56842 -0.06742 0.59406
 N245 N 0.44238 -0.03179 0.54922
 N246 N 0.41999 -0.05249 0.55774
 N247 N 0.46511 0.03194 0.58019
 N248 N 0.45963 0.05368 0.60963
 N249 N 0.44242 0.03192 0.54907
 N250 N 0.42090 0.05364 0.55647
 N251 N 0.46497 -0.03181 0.58046
 N252 N 0.45854 -0.05254 0.61120
 Mn253 Mn 0.50028 -0.00013 0.58064
 C254 C 0.43072 -0.06545 0.59601
 C255 C 0.43212 0.06708 0.59413
 N256 N 0.55751 -0.03209 0.45230
 N257 N 0.57993 -0.05271 0.44382
 N258 N 0.53511 0.03169 0.42074
 N259 N 0.54066 0.05344 0.39117
 N260 N 0.55780 0.03161 0.45187
 N261 N 0.57940 0.05329 0.44435
 N262 N 0.53495 -0.03206 0.42102
 N263 N 0.54145 -0.05268 0.39030
 Mn264 Mn 0.55811 -0.00033 0.50031
 C265 C 0.56927 -0.06558 0.40554
 C266 C 0.56822 0.06676 0.40661
 N267 N 0.44220 0.03164 0.45258
 N268 N 0.41973 0.05227 0.44418
 N269 N 0.46446 -0.03215 0.42136
 N270 N 0.45874 -0.05388 0.39199
 N271 N 0.44196 -0.03209 0.45273
 N272 N 0.42031 -0.05377 0.44557
 N273 N 0.46460 0.03162 0.42109
 N274 N 0.45792 0.05225 0.39028
 Mn275 Mn 0.44193 -0.00008 0.50091
 Mn276 Mn 0.49978 -0.00022 0.42056
 Cl277 Cl 0.50002 -0.00019 0.50060
 C278 C 0.43017 0.06515 0.40570
 C279 C 0.43128 -0.06723 0.40779
 N280 N 0.55707 0.53206 0.04718
 N281 N 0.57959 0.55261 0.05573
 N282 N 0.53476 0.46822 0.07871
 N283 N 0.54039 0.44646 0.10822
 N284 N 0.55738 0.46836 0.04749
 N285 N 0.57900 0.44671 0.05487
 N286 N 0.53457 0.53197 0.07854
 N287 N 0.54123 0.55247 0.10939
 C288 C 0.56905 0.56538 0.09413
 C289 C 0.56791 0.43319 0.09263
 N290 N 0.44179 0.46812 0.04726
 N291 N 0.41929 0.44753 0.05583
 N292 N 0.46409 0.53194 0.07847
 N293 N 0.45844 0.55368 0.10785
 N294 N 0.44151 0.53185 0.04719
 N295 N 0.41989 0.55351 0.05442
 N296 N 0.46426 0.46817 0.07866
 N297 N 0.45760 0.44760 0.10957
 Mn298 Mn 0.49942 0.50007 0.07908
 C299 C 0.42980 0.43469 0.09430
 C300 C 0.43094 0.56699 0.09215
 N301 N 0.55738 0.46860 -0.04897
 N302 N 0.57996 0.44810 -0.05731
 N303 N 0.53470 0.53226 -0.08062
 N304 N 0.54027 0.55402 -0.11020
 N305 N 0.55725 0.53233 -0.04931
 N306 N 0.57876 0.55411 -0.05670
 N307 N 0.53491 0.46849 -0.08036
 N308 N 0.54163 0.44790 -0.11103
 Mn309 Mn 0.55757 0.50034 -0.00090
 C310 C 0.56948 0.43516 -0.09563
 C311 C 0.56769 0.56751 -0.09457
 N312 N 0.44171 0.53162 -0.04929
 N313 N 0.41925 0.55224 -0.05771
 N314 N 0.46440 0.46796 -0.08047
 N315 N 0.45888 0.44621 -0.10989
 N316 N 0.44180 0.46791 -0.04923
 N317 N 0.42029 0.44614 -0.05653
 N318 N 0.46422 0.53172 -0.08063
 N319 N 0.45765 0.55243 -0.11134
 Mn320 Mn 0.44140 0.49988 -0.00102
 Mn321 Mn 0.49955 0.50011 -0.08101
 Cl322 Cl 0.49948 0.50010 -0.00096
 C323 C 0.42985 0.56524 -0.09603
 C324 C 0.43142 0.43273 -0.09425
 C325 C 1.19700 0.16938 0.21621
 C326 C 1.17485 0.15528 0.19992
 C327 C 1.14987 0.13810 0.17985
 C328 C 1.12958 0.12268 0.16177
 C329 C 1.10730 0.10364 0.13953
 C330 C 1.08971 0.08647 0.11966
 C331 C 1.19555 0.66897 0.71665
 C332 C 1.17322 0.65510 0.70050
 C333 C 1.14807 0.63822 0.68045
 C334 C 1.12769 0.62300 0.66226
 C335 C 1.10543 0.60414 0.63981
 C336 C 1.08794 0.58704 0.61972
 C337 C 0.69639 0.16989 0.71470
 C338 C 0.67421 0.15578 0.69859
 C339 C 0.64920 0.13858 0.67870
 C340 C 0.62890 0.12310 0.66077
 C341 C 0.60665 0.10398 0.63872
 C342 C 0.58908 0.08671 0.61903
 C343 C 0.69586 0.66884 0.21568
 C344 C 0.67359 0.65489 0.19945
 C345 C 0.64847 0.63792 0.17938
 C346 C 0.62806 0.62267 0.16124
 C347 C 0.60568 0.60383 0.13888
 C348 C 0.58805 0.58679 0.11886
 C349 C 0.80432 -0.16965 0.21622
 C350 C 0.82657 -0.15556 0.20010
 C351 C 0.85167 -0.13844 0.18015
 C352 C 0.87205 -0.12305 0.16211
 C353 C 0.89440 -0.10405 0.13985
 C354 C 0.91201 -0.08688 0.11992
 C355 C 0.80312 0.33070 0.71483
 C356 C 0.82538 0.34473 0.69863
 C357 C 0.85049 0.36181 0.67863
 C358 C 0.87089 0.37716 0.66058
 C359 C 0.89327 0.39615 0.63837
 C360 C 0.91092 0.41333 0.61852
 C361 C 0.30462 -0.16992 0.71708
 C362 C 0.32692 -0.15591 0.70101
 C363 C 0.35202 -0.13884 0.68107
 C364 C 0.37235 -0.12346 0.66298
 C365 C 0.39455 -0.10439 0.64064
 C366 C 0.41198 -0.08713 0.62065
 C367 C 0.30368 0.33012 0.21621
 C368 C 0.32584 0.34421 0.19980
 C369 C 0.35080 0.36139 0.17958
 C370 C 0.37107 0.37683 0.16138
 C371 C 0.39331 0.39590 0.13899
 C372 C 0.41086 0.41312 0.11900
 C373 C 0.80480 0.17014 -0.21558
 C374 C 0.82701 0.15611 -0.19931
 C375 C 0.85202 0.13899 -0.17924
 C376 C 0.87232 0.12357 -0.16114
 C377 C 0.89456 0.10448 -0.13889
 C378 C 0.91208 0.08722 -0.11903
 C379 C 0.80308 0.66954 0.28394
 C380 C 0.82545 0.65553 0.29986
 C381 C 0.85070 0.63850 0.31958
 C382 C 0.87121 0.62320 0.33746
 C383 C 0.89369 0.60428 0.35959
 C384 C 0.91138 0.58718 0.37948
 C385 C 0.30386 0.17023 0.28546
 C386 C 0.32608 0.15611 0.30162
 C387 C 0.35110 0.13886 0.32150
 C388 C 0.37141 0.12333 0.33941
 C389 C 0.39369 0.10414 0.36147
 C390 C 0.41125 0.08683 0.38122
 C391 C 0.30293 0.66942 -0.21579
 C392 C 0.32532 0.65541 -0.19998
 C393 C 0.35055 0.63837 -0.18034
 C394 C 0.37101 0.62303 -0.16250
 C395 C 0.39339 0.60404 -0.14040
 C396 C 0.41097 0.58684 -0.12056
 C397 C 1.19581 -0.16994 -0.21457
 C398 C 1.17351 -0.15592 -0.19868
 C399 C 1.14841 -0.13883 -0.17897
 C400 C 1.12809 -0.12340 -0.16110
 C401 C 1.10591 -0.10429 -0.13902
 C402 C 1.08851 -0.08698 -0.11923
 C403 C 1.19678 0.33089 0.28532
 C404 C 1.17454 0.34499 0.30132
 C405 C 1.14946 0.36220 0.32103
 C406 C 1.12909 0.37766 0.33881
 C407 C 1.10673 0.39675 0.36074
 C408 C 1.08910 0.41397 0.38041
 C409 C 0.69568 -0.16993 0.28531
 C410 C 0.67340 -0.15591 0.30133
 C411 C 0.64829 -0.13881 0.32114
 C412 C 0.62793 -0.12342 0.33905
 C413 C 0.60563 -0.10439 0.36116
 C414 C 0.58810 -0.08718 0.38098
 C415 C 0.69613 0.33132 -0.21636
 C416 C 0.67389 0.34529 -0.20019
 C417 C 0.64881 0.36231 -0.18021
 C418 C 0.62845 0.37762 -0.16216
 C419 C 0.60611 0.39655 -0.13995
 C420 C 0.58850 0.41367 -0.12011
 C421 C 1.16381 0.20192 -0.21075
 C422 C 1.14896 0.18129 -0.19343
 C423 C 1.13156 0.15724 -0.17278
 C424 C 1.11681 0.13676 -0.15493
 C425 C 1.09975 0.11272 -0.13373
 C426 C 1.08549 0.09212 -0.11544
 C427 C 1.16276 0.70226 0.28817
 C428 C 1.14797 0.68170 0.30575
 C429 C 1.13071 0.65771 0.32671
 C430 C 1.11610 0.63725 0.34480
 C431 C 1.09918 0.61323 0.36622
 C432 C 1.08500 0.59263 0.38460
 C433 C 0.66299 0.20072 0.28835
 C434 C 0.64813 0.18017 0.30577
 C435 C 0.63073 0.15622 0.32656
 C436 C 0.61599 0.13584 0.34457
 C437 C 0.59895 0.11191 0.36595
 C438 C 0.58471 0.09140 0.38439
 C439 C 0.66259 0.70206 -0.21191
 C440 C 0.64769 0.68143 -0.19463
 C441 C 0.63025 0.65738 -0.17404
 C442 C 0.61549 0.63690 -0.15620
 C443 C 0.59842 0.61285 -0.13501
 C444 C 0.58417 0.59225 -0.11669
 C445 C 0.83677 -0.20071 -0.21072
 C446 C 0.85169 -0.18019 -0.19340
 C447 C 0.86919 -0.15625 -0.17275
 C448 C 0.88401 -0.13588 -0.15490
 C449 C 0.90117 -0.11196 -0.13370
 C450 C 0.91550 -0.09147 -0.11540
 C451 C 0.83771 0.29937 0.28814
 C452 C 0.85254 0.31993 0.30544
 C453 C 0.86987 0.34389 0.32610
 C454 C 0.88455 0.36430 0.34399
 C455 C 0.90151 0.38825 0.36526
 C456 C 0.91567 0.40879 0.38362
 C457 C 0.33674 -0.20104 0.28935
 C458 C 0.35155 -0.18057 0.30697
 C459 C 0.36884 -0.15667 0.32795
 C460 C 0.38349 -0.13630 0.34605
 C461 C 0.40046 -0.11238 0.36747
 C462 C 0.41469 -0.09187 0.38583
 C463 C 0.33678 0.29825 -0.21107
 C464 C 0.35164 0.31887 -0.19386
 C465 C 0.36903 0.34291 -0.17334
 C466 C 0.38374 0.36338 -0.15558
 C467 C 0.40077 0.38741 -0.13447
 C468 C 0.41499 0.40800 -0.11625
 C469 C 1.16292 -0.20199 0.21138
 C470 C 1.14818 -0.18138 0.19387
 C471 C 1.13097 -0.15734 0.17300
 C472 C 1.11641 -0.13685 0.15497
 C473 C 1.09954 -0.11278 0.13362
 C474 C 1.08541 -0.09216 0.11527
 C475 C 1.16280 0.29914 0.71186
 C476 C 1.14795 0.31967 0.69433
 C477 C 1.13058 0.34361 0.67343
 C478 C 1.11587 0.36400 0.65536
 C479 C 1.09885 0.38794 0.63392
 C480 C 1.08462 0.40847 0.61547
 C481 C 0.66277 -0.20188 0.71211
 C482 C 0.64798 -0.18127 0.69468
 C483 C 0.63068 -0.15723 0.67389
 C484 C 0.61603 -0.13676 0.65591
 C485 C 0.59907 -0.11273 0.63457
 C486 C 0.58488 -0.09215 0.61618
 C487 C 0.66295 0.29924 0.21023
 C488 C 0.64806 0.31978 0.19290
 C489 C 0.63062 0.34372 0.17222
 C490 C 0.61584 0.36411 0.15432
 C491 C 0.59874 0.38804 0.13307
 C492 C 0.58445 0.40855 0.11473
 C493 C 0.83783 0.20087 0.21069
 C494 C 0.85272 0.18033 0.19349
 C495 C 0.87015 0.15640 0.17295
 C496 C 0.88490 0.13602 0.15515
 C497 C 0.90195 0.11210 0.13399
 C498 C 0.91618 0.09159 0.11571
 C499 C 0.83658 0.70096 0.71097
 C500 C 0.85141 0.68046 0.69350
 C501 C 0.86876 0.65655 0.67266
 C502 C 0.88346 0.63619 0.65466
 C503 C 0.90050 0.61228 0.63331
 C504 C 0.91477 0.59180 0.61494
 C505 C 0.33775 0.20109 0.71212
 C506 C 0.35258 0.18057 0.69470
 C507 C 0.36991 0.15663 0.67392
 C508 C 0.38457 0.13623 0.65594
 C509 C 0.40153 0.11228 0.63462
 C510 C 0.41570 0.09175 0.61624
 C511 C 0.33662 0.70092 0.21030
 C512 C 0.35139 0.68042 0.19276
 C513 C 0.36865 0.65650 0.17187
 C514 C 0.38327 0.63611 0.15383
 C515 C 0.40022 0.61217 0.13247
 C516 C 0.41442 0.59165 0.11413
   
