data_POSCAR
  _audit_creation_date              2014-09-24
  _audit_creation_method            'ToBaCCo'
  _symmetry_space_group_name_H-M    'P1'
  _symmetry_Int_Tables_number       1
  _symmetry_cell_setting            triclinic
  loop_
  _symmetry_equiv_pos_as_xyz
 x,y,z
_cell_length_a 51.2920
_cell_length_b 51.5199
_cell_length_c 51.6536
_cell_angle_alpha 90.038500
_cell_angle_beta 89.933600
_cell_angle_gamma 89.948300
loop_
  _atom_site_label
  _atom_site_type_symbol
  _atom_site_fract_x
  _atom_site_fract_y
  _atom_site_fract_z
N1 N 0.29142 0.23886 0.21882
 N2 N 0.28044 0.25936 0.20835
 C3 C 0.29431 0.26652 0.18739
 C4 C 0.31514 0.24956 0.18448
 C5 C 0.31259 0.23225 0.20487
 H6 H 0.28949 0.28276 0.17506
 H7 H 0.32527 0.21614 0.20943
 Cu8 Cu 0.24908 0.27470 0.22315
 Cu9 Cu 0.27754 0.22227 0.24976
 Cu10 Cu 0.22240 0.24984 0.27726
 N11 N 0.21847 0.29029 0.23919
 N12 N 0.20813 0.28046 0.26029
 C13 C 0.18732 0.29481 0.26722
 C14 C 0.18437 0.31483 0.24954
 C15 C 0.20458 0.31129 0.23202
 H16 H 0.17538 0.29100 0.28405
 H17 H 0.20877 0.32299 0.21518
 N18 N 0.23967 0.21882 0.29157
 N19 N 0.26063 0.20830 0.28108
 C20 C 0.26767 0.18744 0.29515
 C21 C 0.25033 0.18463 0.31555
 C22 C 0.23285 0.20494 0.31260
 H23 H 0.28432 0.17531 0.29093
 H24 H 0.21621 0.20918 0.32472
 H25 H 0.23925 0.23369 0.24465
 H26 H 0.26030 0.25534 0.26473
 N27 N 0.70742 -0.23985 0.21884
 N28 N 0.71755 -0.26119 0.20920
 C29 C 0.70379 -0.26833 0.18819
 C30 C 0.68379 -0.25050 0.18434
 C31 C 0.68687 -0.23268 0.20434
 H32 H 0.70810 -0.28530 0.17667
 H33 H 0.67503 -0.21580 0.20835
 Cu34 Cu 0.74802 -0.27728 0.22489
 Cu35 Cu 0.72104 -0.22331 0.24995
 Cu36 Cu 0.77028 -0.25618 0.28225
 N37 N 0.77847 -0.29286 0.24115
 N38 N 0.78710 -0.28445 0.26356
 C39 C 0.80799 -0.29855 0.27060
 C40 C 0.81296 -0.31697 0.25152
 C41 C 0.79368 -0.31261 0.23310
 H42 H 0.81861 -0.29547 0.28839
 H43 H 0.79075 -0.32300 0.21518
 N44 N 0.75570 -0.22294 0.29446
 N45 N 0.73732 -0.21019 0.28194
 C46 C 0.73187 -0.18815 0.29489
 C47 C 0.74764 -0.18684 0.31663
 C48 C 0.76253 -0.20928 0.31562
 H49 H 0.71752 -0.17404 0.28885
 H50 H 0.77724 -0.21533 0.32931
 H51 H 0.75886 -0.23806 0.24860
 H52 H 0.73325 -0.25761 0.26540
 N53 N 0.70885 0.23998 0.77957
 N54 N 0.71922 0.26105 0.78949
 C55 C 0.70538 0.26818 0.81051
 C56 C 0.68517 0.25064 0.81397
 C57 C 0.68806 0.23301 0.79388
 H58 H 0.70960 0.28498 0.82229
 H59 H 0.67611 0.21619 0.79000
 Cu60 Cu 0.74982 0.27714 0.77398
 Cu61 Cu 0.72306 0.22309 0.74890
 Cu62 Cu 0.77826 0.25058 0.72155
 N63 N 0.78116 0.29199 0.75871
 N64 N 0.79216 0.28152 0.73824
 C65 C 0.81334 0.29547 0.73172
 C66 C 0.81593 0.31596 0.74906
 C67 C 0.79500 0.31297 0.76594
 H68 H 0.82582 0.29086 0.71550
 H69 H 0.79010 0.32506 0.78232
 N70 N 0.76132 0.21928 0.70746
 N71 N 0.74029 0.20884 0.71785
 C72 C 0.73340 0.18787 0.70386
 C73 C 0.75093 0.18488 0.68364
 C74 C 0.76836 0.20520 0.68661
 H75 H 0.71692 0.17558 0.70822
 H76 H 0.78484 0.20959 0.67434
 H77 H 0.76099 0.23549 0.75444
 H78 H 0.73998 0.25578 0.73296
 N79 N 0.29160 -0.23952 0.78065
 N80 N 0.28093 -0.26033 0.79082
 C81 C 0.29481 -0.26751 0.81175
 C82 C 0.31531 -0.25027 0.81492
 C83 C 0.31257 -0.23275 0.79474
 H84 H 0.29019 -0.28395 0.82388
 H85 H 0.32499 -0.21639 0.79042
 Cu86 Cu 0.24991 -0.27588 0.77566
 Cu87 Cu 0.27758 -0.22272 0.74988
 Cu88 Cu 0.22237 -0.25018 0.72252
 N89 N 0.21889 -0.29110 0.76016
 N90 N 0.20824 -0.28094 0.73939
 C91 C 0.18724 -0.29503 0.73269
 C92 C 0.18438 -0.31531 0.75021
 C93 C 0.20499 -0.31204 0.76739
 H94 H 0.17506 -0.29067 0.71621
 H95 H 0.20964 -0.32394 0.78396
 N96 N 0.23954 -0.21905 0.70830
 N97 N 0.26051 -0.20858 0.71873
 C98 C 0.26749 -0.18767 0.70472
 C99 C 0.25010 -0.18476 0.68442
 C100 C 0.23265 -0.20507 0.68736
 H101 H 0.28415 -0.17558 0.70889
 H102 H 0.21600 -0.20927 0.67528
 H103 H 0.23945 -0.23453 0.75520
 H104 H 0.26048 -0.25552 0.73436
 N105 N 0.70968 -0.23858 0.78085
 N106 N 0.72070 -0.25904 0.79136
 C107 C 0.70678 -0.26626 0.81226
 C108 C 0.68589 -0.24939 0.81508
 C109 C 0.68843 -0.23206 0.79471
 H110 H 0.71162 -0.28247 0.82461
 H111 H 0.67569 -0.21601 0.79011
 Cu112 Cu 0.75214 -0.27431 0.77673
 Cu113 Cu 0.72358 -0.22196 0.74998
 Cu114 Cu 0.77874 -0.24950 0.72255
 N115 N 0.78269 -0.28989 0.76062
 N116 N 0.79297 -0.28012 0.73949
 C117 C 0.81371 -0.29451 0.73248
 C118 C 0.81675 -0.31458 0.75019
 C119 C 0.79654 -0.31089 0.76779
 H120 H 0.82557 -0.29049 0.71567
 H121 H 0.79210 -0.32256 0.78458
 N122 N 0.76150 -0.21849 0.70827
 N123 N 0.74054 -0.20797 0.71874
 C124 C 0.73352 -0.18711 0.70469
 C125 C 0.75089 -0.18430 0.68433
 C126 C 0.76836 -0.20460 0.68727
 H127 H 0.71685 -0.17498 0.70888
 H128 H 0.78502 -0.20883 0.67517
 H129 H 0.74086 -0.25508 0.73512
 H130 H 0.76188 -0.23333 0.75514
 N131 N 0.29143 0.23836 0.78166
 N132 N 0.28040 0.25882 0.79220
 C133 C 0.29430 0.26604 0.81309
 C134 C 0.31518 0.24916 0.81586
 C135 C 0.31265 0.23183 0.79548
 H136 H 0.28945 0.28227 0.82546
 H137 H 0.32540 0.21578 0.79084
 Cu138 Cu 0.24898 0.27408 0.77761
 Cu139 Cu 0.27757 0.22173 0.75078
 Cu140 Cu 0.22241 0.24922 0.72346
 N141 N 0.21844 0.28964 0.76157
 N142 N 0.20814 0.27981 0.74046
 C143 C 0.18738 0.29417 0.73353
 C144 C 0.18443 0.31419 0.75122
 C145 C 0.20457 0.31066 0.76875
 H146 H 0.17550 0.29038 0.71669
 H147 H 0.20874 0.32238 0.78559
 N148 N 0.23969 0.21823 0.70912
 N149 N 0.26065 0.20773 0.71954
 C150 C 0.26770 0.18687 0.70544
 C151 C 0.25035 0.18406 0.68509
 C152 C 0.23286 0.20434 0.68810
 H153 H 0.28438 0.17476 0.70958
 H154 H 0.21621 0.20856 0.67603
 H155 H 0.26029 0.25482 0.73597
 H156 H 0.23927 0.23308 0.75602
 N157 N 0.29146 -0.23838 0.21847
 N158 N 0.28038 -0.25878 0.20793
 C159 C 0.29425 -0.26602 0.18698
 C160 C 0.31517 -0.24922 0.18418
 C161 C 0.31269 -0.23192 0.20460
 H162 H 0.28936 -0.28220 0.17459
 H163 H 0.32547 -0.21592 0.20923
 Cu164 Cu 0.24892 -0.27393 0.22256
 Cu165 Cu 0.27763 -0.22174 0.24941
 Cu166 Cu 0.22238 -0.24903 0.27678
 N167 N 0.21833 -0.28938 0.23862
 N168 N 0.20805 -0.27953 0.25976
 C169 C 0.18723 -0.29380 0.26671
 C170 C 0.18423 -0.31379 0.24899
 C171 C 0.20440 -0.31032 0.23144
 H172 H 0.17535 -0.28998 0.28357
 H173 H 0.20854 -0.32204 0.21457
 N174 N 0.23973 -0.21813 0.29114
 N175 N 0.26073 -0.20771 0.28070
 C176 C 0.26781 -0.18690 0.29480
 C177 C 0.25045 -0.18402 0.31517
 C178 C 0.23291 -0.20423 0.31217
 H179 H 0.28451 -0.17484 0.29064
 H180 H 0.21623 -0.20839 0.32425
 H181 H 0.26025 -0.25477 0.26420
 H182 H 0.23930 -0.23292 0.24421
 N183 N 0.70811 0.23968 0.21985
 N184 N 0.71831 0.26094 0.21016
 C185 C 0.70453 0.26809 0.18917
 C186 C 0.68453 0.25038 0.18549
 C187 C 0.68748 0.23261 0.20541
 H188 H 0.70864 0.28504 0.17757
 H189 H 0.67567 0.21565 0.20909
 Cu190 Cu 0.74862 0.27723 0.22587
 Cu191 Cu 0.72229 0.22270 0.25039
 Cu192 Cu 0.77706 0.25048 0.27813
 N193 N 0.77981 0.29210 0.24129
 N194 N 0.79078 0.28158 0.26172
 C195 C 0.81188 0.29559 0.26834
 C196 C 0.81436 0.31606 0.25111
 C197 C 0.79360 0.31315 0.23419
 H198 H 0.82457 0.29099 0.28437
 H199 H 0.78878 0.32553 0.21801
 N200 N 0.76031 0.21900 0.29192
 N201 N 0.73946 0.20842 0.28136
 C202 C 0.73269 0.18730 0.29516
 C203 C 0.75011 0.18438 0.31543
 C204 C 0.76735 0.20488 0.31270
 H205 H 0.71636 0.17488 0.29065
 H206 H 0.78370 0.20938 0.32507
 H207 H 0.73879 0.25544 0.26665
 H208 H 0.76010 0.23553 0.24501
 O209 O 0.22910 0.02541 0.47494
 O210 O 0.22902 -0.02525 0.52526
 O211 O 0.22908 0.02530 0.52537
 O212 O 0.22910 -0.02514 0.47484
 O213 O 0.27222 -0.02520 0.47483
 O214 O 0.27219 0.02524 0.52536
 O215 O 0.27214 -0.02532 0.52526
 O216 O 0.27221 0.02535 0.47493
 Cu217 Cu 0.22472 0.00008 0.50010
 Cu218 Cu 0.27654 0.00001 0.50010
 C219 C 0.25067 0.03393 0.46643
 C220 C 0.25056 -0.03384 0.53376
 C221 C 0.25063 0.03378 0.53389
 C222 C 0.25066 -0.03369 0.46631
 O223 O 0.77246 0.02495 0.52455
 O224 O 0.77220 -0.02582 0.47426
 O225 O 0.77228 0.02474 0.47412
 O226 O 0.77232 -0.02560 0.52469
 O227 O 0.72920 -0.02546 0.52486
 O228 O 0.72917 0.02487 0.47431
 O229 O 0.72909 -0.02568 0.47444
 O230 O 0.72934 0.02509 0.52473
 Cu231 Cu 0.77667 -0.00045 0.49939
 Cu232 Cu 0.72485 -0.00028 0.49960
 C233 C 0.75095 0.03359 0.53313
 C234 C 0.75060 -0.03433 0.46587
 C235 C 0.75072 0.03331 0.46568
 C236 C 0.75076 -0.03403 0.53331
 O237 O 0.47536 0.22960 0.02502
 O238 O 0.52617 0.22965 -0.02546
 O239 O 0.52613 0.22963 0.02497
 O240 O 0.47540 0.22960 -0.02539
 O241 O 0.47531 0.27252 -0.02536
 O242 O 0.52605 0.27256 0.02502
 O243 O 0.52609 0.27258 -0.02543
 O244 O 0.47527 0.27253 0.02506
 Cu245 Cu 0.50078 0.22529 -0.00022
 Cu246 Cu 0.50068 0.27688 -0.00018
 C247 C 0.46673 0.25105 0.03356
 C248 C 0.53470 0.25112 -0.03398
 C249 C 0.53464 0.25110 0.03351
 C250 C 0.46679 0.25105 -0.03387
 O251 O 0.52583 0.77029 0.02479
 O252 O 0.47505 0.77019 -0.02561
 O253 O 0.47506 0.77025 0.02481
 O254 O 0.52582 0.77026 -0.02563
 O255 O 0.52592 0.72733 -0.02564
 O256 O 0.47514 0.72732 0.02482
 O257 O 0.47513 0.72726 -0.02561
 O258 O 0.52592 0.72736 0.02480
 Cu259 Cu 0.50043 0.77457 -0.00041
 Cu260 Cu 0.50054 0.72299 -0.00041
 C261 C 0.53444 0.74884 0.03332
 C262 C 0.46652 0.74871 -0.03412
 C263 C 0.46653 0.74879 0.03333
 C264 C 0.53444 0.74880 -0.03415
 O265 O 0.02495 0.47546 0.22753
 O266 O -0.02588 0.52607 0.22778
 O267 O 0.02491 0.52603 0.22746
 O268 O -0.02583 0.47551 0.22779
 O269 O -0.02563 0.47558 0.27061
 O270 O 0.02510 0.52609 0.27028
 O271 O -0.02568 0.52613 0.27059
 O272 O 0.02514 0.47553 0.27034
 Cu273 Cu -0.00048 0.50076 0.22332
 Cu274 Cu -0.00024 0.50084 0.27477
 C275 C 0.03362 0.46695 0.24890
 C276 C -0.03436 0.53463 0.24923
 C277 C 0.03356 0.53458 0.24881
 C278 C -0.03429 0.46703 0.24926
 O279 O 0.02547 0.52560 0.77279
 O280 O -0.02532 0.47503 0.77259
 O281 O 0.02546 0.47503 0.77285
 O282 O -0.02531 0.52560 0.77257
 O283 O -0.02507 0.52554 0.72975
 O284 O 0.02570 0.47497 0.73003
 O285 O -0.02507 0.47498 0.72978
 O286 O 0.02571 0.52552 0.72997
 Cu287 Cu 0.00004 0.50032 0.77702
 Cu288 Cu 0.00034 0.50025 0.72557
 C289 C 0.03415 0.53410 0.75141
 C290 C -0.03376 0.46646 0.75115
 C291 C 0.03414 0.46646 0.75148
 C292 C -0.03375 0.53411 0.75112
 C293 C 0.37212 0.22909 0.14201
 C294 C 0.37442 0.25040 0.12541
 C295 C 0.35737 0.27144 0.12807
 C296 C 0.33811 0.27121 0.14725
 C297 C 0.33560 0.24986 0.16409
 C298 C 0.35288 0.22880 0.16122
 C299 C 0.39424 0.25065 0.10564
 C300 C 0.41085 0.25081 0.08910
 C301 C 0.43031 0.25094 0.06974
 C302 C 0.44694 0.25101 0.05322
 H303 H 0.38519 0.21266 0.14010
 H304 H 0.35899 0.28807 0.11534
 H305 H 0.32537 0.28786 0.14891
 H306 H 0.35152 0.21194 0.17360
 C307 C 0.62646 0.76897 0.14411
 C308 C 0.62617 0.74926 0.12552
 C309 C 0.64500 0.72966 0.12636
 C310 C 0.66405 0.72971 0.14571
 C311 C 0.66462 0.74945 0.16470
 C312 C 0.64545 0.76912 0.16351
 C313 C 0.60653 0.74913 0.10562
 C314 C 0.59005 0.74904 0.08900
 C315 C 0.57071 0.74895 0.06956
 C316 C 0.55416 0.74889 0.05300
 H317 H 0.61195 0.78427 0.14365
 H318 H 0.64497 0.71428 0.11204
 H319 H 0.67817 0.71414 0.14557
 H320 H 0.64487 0.78475 0.17745
 C321 C 0.62411 0.23428 -0.14762
 C322 C 0.62649 0.25092 -0.12635
 C323 C 0.64802 0.26747 -0.12454
 C324 C 0.66709 0.26741 -0.14391
 C325 C 0.66492 0.25074 -0.16542
 C326 C 0.64316 0.23416 -0.16701
 C327 C 0.60683 0.25102 -0.10642
 C328 C 0.59034 0.25108 -0.08976
 C329 C 0.57099 0.25112 -0.07029
 C330 C 0.55444 0.25114 -0.05369
 H331 H 0.60750 0.22140 -0.14925
 H332 H 0.65008 0.28042 -0.10813
 H333 H 0.68357 0.28031 -0.14183
 H334 H 0.64063 0.22119 -0.18328
 C335 C 0.37172 0.77058 -0.14222
 C336 C 0.37435 0.74909 -0.12589
 C337 C 0.35770 0.72781 -0.12886
 C338 C 0.33850 0.72799 -0.14807
 C339 C 0.33568 0.74950 -0.16463
 C340 C 0.35256 0.77081 -0.16145
 C341 C 0.39412 0.74889 -0.10613
 C342 C 0.41070 0.74878 -0.08959
 C343 C 0.43013 0.74871 -0.07025
 C344 C 0.44674 0.74869 -0.05375
 H345 H 0.38448 0.78720 -0.14007
 H346 H 0.35958 0.71104 -0.11635
 H347 H 0.32608 0.71115 -0.14997
 H348 H 0.35093 0.78781 -0.17361
 C349 C 0.14709 0.37629 0.23255
 C350 C 0.12555 0.37451 0.24909
 C351 C 0.12321 0.35327 0.26578
 C352 C 0.14231 0.33388 0.26596
 C353 C 0.16408 0.33544 0.24939
 C354 C 0.16621 0.35692 0.23267
 C355 C 0.10586 0.39444 0.24895
 C356 C 0.08933 0.41111 0.24887
 C357 C 0.06995 0.43059 0.24882
 C358 C 0.05338 0.44721 0.24883
 H359 H 0.14912 0.39268 0.21957
 H360 H 0.10660 0.35166 0.27865
 H361 H 0.13981 0.31763 0.27895
 H362 H 0.18270 0.35898 0.21978
 C363 C 0.14558 0.62655 0.76997
 C364 C 0.12619 0.62627 0.75099
 C365 C 0.12606 0.64534 0.73177
 C366 C 0.14522 0.66462 0.73147
 C367 C 0.16498 0.66522 0.75049
 C368 C 0.16479 0.64579 0.76977
 C369 C 0.10644 0.60642 0.75122
 C370 C 0.08989 0.58981 0.75135
 C371 C 0.07049 0.57038 0.75144
 C372 C 0.05391 0.55381 0.75146
 H373 H 0.14587 0.61186 0.78498
 H374 H 0.11112 0.64531 0.71695
 H375 H 0.14430 0.67894 0.71622
 H376 H 0.17937 0.64520 0.78484
 C377 C -0.12936 0.64320 0.27108
 C378 C -0.12738 0.62600 0.25024
 C379 C -0.14506 0.62776 0.22976
 C380 C -0.16472 0.64659 0.23010
 C381 C -0.16708 0.66410 0.25104
 C382 C -0.14897 0.66207 0.27152
 C383 C -0.10728 0.60646 0.24993
 C384 C -0.09050 0.59005 0.24971
 C385 C -0.07090 0.57079 0.24949
 C386 C -0.05420 0.55430 0.24935
 H387 H -0.11575 0.64201 0.28707
 H388 H -0.14371 0.61453 0.21350
 H389 H -0.17795 0.64717 0.21385
 H390 H -0.14975 0.67490 0.28806
 C391 C -0.14551 0.37425 0.76881
 C392 C -0.12577 0.37426 0.75014
 C393 C -0.12532 0.35496 0.73113
 C394 C -0.14451 0.33570 0.73074
 C395 C -0.16462 0.33538 0.74944
 C396 C -0.16475 0.35504 0.76851
 C397 C -0.10601 0.39410 0.75046
 C398 C -0.08945 0.41070 0.75069
 C399 C -0.07006 0.43014 0.75091
 C400 C -0.05350 0.44673 0.75105
 H401 H -0.14605 0.38913 0.78364
 H402 H -0.11011 0.35478 0.71656
 H403 H -0.14335 0.32120 0.71566
 H404 H -0.17960 0.35585 0.78334
 C405 C 0.26670 0.12326 0.35299
 C406 C 0.25056 0.12578 0.37470
 C407 C 0.23436 0.14751 0.37712
 C408 C 0.23427 0.16664 0.35793
 C409 C 0.25042 0.16433 0.33598
 C410 C 0.26666 0.14237 0.33377
 C411 C 0.25061 0.10607 0.39446
 C412 C 0.25064 0.08955 0.41098
 C413 C 0.25067 0.07019 0.43032
 C414 C 0.25068 0.05364 0.44681
 H415 H 0.27930 0.10650 0.35089
 H416 H 0.22181 0.14968 0.39387
 H417 H 0.22166 0.18328 0.36048
 H418 H 0.27921 0.13973 0.31715
 C419 C 0.77268 0.14203 0.62769
 C420 C 0.75108 0.12574 0.62470
 C421 C 0.72944 0.12874 0.64094
 C422 C 0.72937 0.14794 0.66009
 C423 C 0.75099 0.16446 0.66329
 C424 C 0.77266 0.16125 0.64682
 C425 C 0.75112 0.10595 0.60499
 C426 C 0.75112 0.08937 0.58850
 C427 C 0.75109 0.06994 0.56920
 C428 C 0.75104 0.05335 0.55273
 H429 H 0.78957 0.13985 0.61526
 H430 H 0.71259 0.11627 0.63877
 H431 H 0.71225 0.14987 0.67218
 H432 H 0.78973 0.17338 0.64875
 C433 C 0.26636 -0.12330 0.64710
 C434 C 0.25028 -0.12579 0.62540
 C435 C 0.23413 -0.14751 0.62294
 C436 C 0.23404 -0.16668 0.64210
 C437 C 0.25015 -0.16440 0.66404
 C438 C 0.26632 -0.14244 0.66629
 C439 C 0.25034 -0.10605 0.60567
 C440 C 0.25040 -0.08951 0.58916
 C441 C 0.25047 -0.07012 0.56985
 C442 C 0.25052 -0.05356 0.55337
 H443 H 0.27891 -0.10653 0.64924
 H444 H 0.22162 -0.14966 0.60619
 H445 H 0.22148 -0.18332 0.63951
 H446 H 0.27884 -0.13982 0.68292
 C447 C 0.76884 -0.14590 0.37412
 C448 C 0.74935 -0.12690 0.37474
 C449 C 0.72936 -0.12740 0.35635
 C450 C 0.72882 -0.14682 0.33743
 C451 C 0.74830 -0.16609 0.33663
 C452 C 0.76834 -0.16536 0.35522
 C453 C 0.74979 -0.10697 0.39429
 C454 C 0.75007 -0.09029 0.41068
 C455 C 0.75032 -0.07078 0.42989
 C456 C 0.75048 -0.05413 0.44631
 H457 H 0.78444 -0.14569 0.38824
 H458 H 0.71413 -0.11281 0.35667
 H459 H 0.71296 -0.14677 0.32365
 H460 H 0.78379 -0.17965 0.35519
 C461 C 0.64346 0.72845 -0.12884
 C462 C 0.62656 0.74958 -0.12601
 C463 C 0.62898 0.77103 -0.14242
 C464 C 0.64824 0.77138 -0.16159
 C465 C 0.66539 0.75024 -0.16461
 C466 C 0.66274 0.72875 -0.14798
 C467 C 0.60676 0.74929 -0.10626
 C468 C 0.59018 0.74909 -0.08972
 C469 C 0.57077 0.74892 -0.07035
 C470 C 0.55418 0.74884 -0.05382
 H471 H 0.64172 0.71172 -0.11626
 H472 H 0.61601 0.78752 -0.14036
 H473 H 0.64973 0.78834 -0.17381
 H474 H 0.67538 0.71203 -0.14979
 C475 C 0.35763 0.27135 -0.12814
 C476 C 0.37454 0.25023 -0.12539
 C477 C 0.37210 0.22877 -0.14180
 C478 C 0.35283 0.22841 -0.16091
 C479 C 0.33568 0.24955 -0.16387
 C480 C 0.33833 0.27104 -0.14722
 C481 C 0.39436 0.25054 -0.10571
 C482 C 0.41097 0.25074 -0.08924
 C483 C 0.43042 0.25092 -0.06995
 C484 C 0.44703 0.25101 -0.05348
 H485 H 0.35937 0.28809 -0.11555
 H486 H 0.38508 0.21228 -0.13980
 H487 H 0.35133 0.21144 -0.17315
 H488 H 0.32569 0.28775 -0.14898
 C489 C 0.37205 0.77107 0.14166
 C490 C 0.37442 0.74964 0.12520
 C491 C 0.35749 0.72857 0.12798
 C492 C 0.33823 0.72890 0.14714
 C493 C 0.33564 0.75037 0.16384
 C494 C 0.35282 0.77146 0.16085
 C495 C 0.39421 0.74931 0.10543
 C496 C 0.41078 0.74909 0.08889
 C497 C 0.43019 0.74890 0.06952
 C498 C 0.44678 0.74881 0.05299
 H499 H 0.38504 0.78753 0.13964
 H500 H 0.35919 0.71185 0.11535
 H501 H 0.32557 0.71222 0.14891
 H502 H 0.35136 0.78841 0.17313
 C503 C 0.64771 0.26720 0.12397
 C504 C 0.62615 0.25070 0.12577
 C505 C 0.62364 0.23408 0.14701
 C506 C 0.64261 0.23393 0.16642
 C507 C 0.66440 0.25047 0.16485
 C508 C 0.66671 0.26711 0.14335
 C509 C 0.60657 0.25086 0.10585
 C510 C 0.59013 0.25096 0.08920
 C511 C 0.57085 0.25106 0.06975
 C512 C 0.55433 0.25110 0.05318
 H513 H 0.64986 0.28012 0.10757
 H514 H 0.60699 0.22125 0.14862
 H515 H 0.63999 0.22100 0.18270
 H516 H 0.68324 0.27996 0.14130
 C517 C -0.12563 0.64531 0.73101
 C518 C -0.12551 0.62655 0.75052
 C519 C -0.14450 0.62724 0.76991
 C520 C -0.16359 0.64663 0.76985
 C521 C -0.16402 0.66577 0.75029
 C522 C -0.14466 0.66474 0.73084
 C523 C -0.10585 0.60661 0.75067
 C524 C -0.08936 0.58994 0.75078
 C525 C -0.07002 0.57046 0.75091
 C526 C -0.05347 0.55384 0.75101
 H527 H -0.11098 0.64494 0.71588
 H528 H -0.14457 0.61278 0.78514
 H529 H -0.17786 0.64638 0.78524
 H530 H -0.14396 0.67882 0.71537
 C531 C -0.14331 0.37236 0.22914
 C532 C -0.12650 0.37520 0.25026
 C533 C -0.12899 0.35877 0.27165
 C534 C -0.14820 0.33955 0.27196
 C535 C -0.16524 0.33649 0.25082
 C536 C -0.16255 0.35316 0.22940
 C537 C -0.10670 0.39496 0.24997
 C538 C -0.09010 0.41149 0.24976
 C539 C -0.07066 0.43084 0.24955
 C540 C -0.05406 0.44737 0.24940
 H541 H -0.14151 0.38497 0.21245
 H542 H -0.11611 0.36084 0.28813
 H543 H -0.14975 0.32729 0.28888
 H544 H -0.17509 0.35134 0.21269
 C545 C 0.14744 0.37589 0.76790
 C546 C 0.12582 0.37396 0.75155
 C547 C 0.12331 0.35254 0.73510
 C548 C 0.14234 0.33311 0.73497
 C549 C 0.16420 0.33483 0.75134
 C550 C 0.16650 0.35648 0.76783
 C551 C 0.10620 0.39393 0.75163
 C552 C 0.08973 0.41062 0.75166
 C553 C 0.07040 0.43011 0.75163
 C554 C 0.05386 0.44673 0.75158
 H555 H 0.14959 0.39243 0.78070
 H556 H 0.10661 0.35083 0.72238
 H557 H 0.13972 0.31670 0.72217
 H558 H 0.18308 0.35865 0.78056
 C559 C 0.14705 0.62473 0.23227
 C560 C 0.12543 0.62674 0.24867
 C561 C 0.12298 0.64815 0.26516
 C562 C 0.14208 0.66748 0.26528
 C563 C 0.16394 0.66568 0.24887
 C564 C 0.16618 0.64404 0.23234
 C565 C 0.10575 0.60687 0.24859
 C566 C 0.08923 0.59025 0.24858
 C567 C 0.06986 0.57083 0.24862
 C568 C 0.05330 0.55427 0.24869
 H569 H 0.14916 0.60820 0.21945
 H570 H 0.10628 0.64992 0.27790
 H571 H 0.13950 0.68388 0.27811
 H572 H 0.18276 0.64181 0.21958
 C573 C 0.73491 -0.12277 0.64710
 C574 C 0.75076 -0.12552 0.62523
 C575 C 0.76665 -0.14745 0.62261
 C576 C 0.76670 -0.16657 0.64180
 C577 C 0.75083 -0.16402 0.66392
 C578 C 0.73491 -0.14186 0.66632
 C579 C 0.75075 -0.10585 0.60547
 C580 C 0.75075 -0.08938 0.58893
 C581 C 0.75076 -0.07009 0.56955
 C582 C 0.75077 -0.05363 0.55300
 H583 H 0.72256 -0.10583 0.64934
 H584 H 0.77897 -0.14979 0.60572
 H585 H 0.77904 -0.18338 0.63910
 H586 H 0.72259 -0.13906 0.68309
 C587 C 0.23472 -0.14712 0.37692
 C588 C 0.25067 -0.12526 0.37436
 C589 C 0.26656 -0.12258 0.35251
 C590 C 0.26653 -0.14167 0.33327
 C591 C 0.25055 -0.16375 0.33561
 C592 C 0.23464 -0.16623 0.35770
 C593 C 0.25070 -0.10559 0.39413
 C594 C 0.25070 -0.08911 0.41070
 C595 C 0.25069 -0.06981 0.43008
 C596 C 0.25067 -0.05332 0.44663
 H597 H 0.22237 -0.14941 0.39379
 H598 H 0.27895 -0.10570 0.35031
 H599 H 0.27888 -0.13891 0.31651
 H600 H 0.22225 -0.18299 0.36036
 C601 C 0.77177 0.14177 0.37144
 C602 C 0.75044 0.12508 0.37405
 C603 C 0.72903 0.12769 0.35752
 C604 C 0.72890 0.14693 0.33845
 C605 C 0.75024 0.16388 0.33564
 C606 C 0.77170 0.16103 0.35239
 C607 C 0.75052 0.10531 0.39370
 C608 C 0.75059 0.08877 0.41019
 C609 C 0.75065 0.06943 0.42950
 C610 C 0.75069 0.05293 0.44602
 H611 H 0.78847 0.13989 0.38412
 H612 H 0.71239 0.11488 0.35940
 H613 H 0.71196 0.14856 0.32612
 H614 H 0.78856 0.17350 0.35078
 C615 C 0.26644 0.12258 0.64771
 C616 C 0.25057 0.12532 0.62588
 C617 C 0.23465 0.14721 0.62335
 C618 C 0.23456 0.16632 0.64258
 C619 C 0.25045 0.16379 0.66465
 C620 C 0.26641 0.14167 0.66696
 C621 C 0.25060 0.10565 0.60610
 C622 C 0.25061 0.08918 0.58952
 C623 C 0.25062 0.06989 0.57013
 C624 C 0.25062 0.05341 0.55358
 H625 H 0.27882 0.10567 0.64988
 H626 H 0.22231 0.14954 0.60650
 H627 H 0.22218 0.18311 0.63994
 H628 H 0.27874 0.13887 0.68370
   
