data_POSCAR
  _audit_creation_date              2014-09-24
  _audit_creation_method            'ToBaCCo'
  _symmetry_space_group_name_H-M    'P1'
  _symmetry_Int_Tables_number       1
  _symmetry_cell_setting            triclinic
  loop_
  _symmetry_equiv_pos_as_xyz
 x,y,z
_cell_length_a 36.6003
_cell_length_b 37.1709
_cell_length_c 14.2490
_cell_angle_alpha 89.575700
_cell_angle_beta 90.253500
_cell_angle_gamma 119.593400
loop_
  _atom_site_label
  _atom_site_type_symbol
  _atom_site_fract_x
  _atom_site_fract_y
  _atom_site_fract_z
O1 O 0.26441 0.45981 0.60191
 O2 O 0.19309 0.46423 0.42359
 O3 O 0.26370 0.46218 0.41892
 O4 O 0.19414 0.46232 0.60647
 O5 O 0.23084 0.53063 0.60914
 O6 O 0.29933 0.53045 0.42206
 O7 O 0.22905 0.53246 0.42648
 O8 O 0.29937 0.52817 0.60514
 Cu9 Cu 0.22521 0.45523 0.51205
 Cu10 Cu 0.26827 0.53725 0.51527
 C11 C 0.29371 0.49351 0.63471
 C12 C 0.19870 0.49914 0.39531
 C13 C 0.29358 0.49642 0.38920
 C14 C 0.20116 0.49674 0.64025
 O15 O 0.57556 -0.25032 0.38195
 O16 O 0.57265 -0.18169 0.56473
 O17 O 0.56736 -0.25453 0.56381
 O18 O 0.57695 -0.17865 0.38092
 O19 O 0.50778 -0.21192 0.36758
 O20 O 0.49829 -0.28435 0.55384
 O21 O 0.50357 -0.21270 0.55204
 O22 O 0.50635 -0.28212 0.37505
 Cu23 Cu 0.58014 -0.21291 0.47377
 Cu24 Cu 0.49715 -0.25048 0.46056
 C25 C 0.54109 -0.27888 0.34938
 C26 C 0.53755 -0.18605 0.59051
 C27 C 0.53098 -0.28249 0.58983
 C28 C 0.54357 -0.18319 0.34222
 O29 O 1.24924 0.81135 0.37119
 O30 O 1.18336 0.75098 0.57331
 O31 O 1.25000 0.82620 0.54831
 O32 O 1.18145 0.73917 0.39362
 O33 O 1.22183 0.71138 0.41935
 O34 O 1.29034 0.79820 0.57102
 O35 O 1.22549 0.72509 0.59585
 O36 O 1.28896 0.78273 0.39461
 Cu37 Cu 1.21184 0.78477 0.46984
 Cu38 Cu 1.26075 0.75172 0.49753
 C39 C 1.28073 0.80741 0.34953
 C40 C 1.19276 0.72673 0.61740
 C41 C 1.28246 0.82747 0.58394
 C42 C 1.18972 0.71011 0.38177
 O43 O 0.73283 0.54369 0.60790
 O44 O 0.80281 0.53134 0.44118
 O45 O 0.72704 0.52335 0.43051
 O46 O 0.80485 0.54555 0.61993
 O47 O 0.77289 0.47865 0.65267
 O48 O 0.69789 0.45656 0.46227
 O49 O 0.77239 0.46465 0.47476
 O50 O 0.70156 0.47680 0.63942
 Cu51 Cu 0.76983 0.54267 0.52099
 Cu52 Cu 0.73298 0.46257 0.56042
 C53 C 0.70547 0.51235 0.65293
 C54 C 0.80015 0.49619 0.43092
 C55 C 0.69933 0.48598 0.41426
 C56 C 0.80179 0.51529 0.66836
 O57 O 0.42647 0.23857 0.40331
 O58 O 0.43153 0.17402 0.59907
 O59 O 0.41763 0.23730 0.58839
 O60 O 0.43195 0.17129 0.41877
 O61 O 0.50079 0.20948 0.43516
 O62 O 0.48590 0.28092 0.58568
 O63 O 0.49894 0.21938 0.61528
 O64 O 0.49580 0.27519 0.40622
 Cu65 Cu 0.41982 0.20153 0.50210
 Cu66 Cu 0.50213 0.25039 0.51170
 C67 C 0.46103 0.26695 0.36935
 C68 C 0.46663 0.18625 0.64058
 C69 C 0.44924 0.27069 0.61477
 C70 C 0.46884 0.17855 0.40009
 O71 O 0.74901 0.18211 0.41800
 O72 O 0.82222 0.26596 0.57588
 O73 O 0.75373 0.19293 0.59856
 O74 O 0.81610 0.25302 0.39466
 O75 O 0.77452 0.28008 0.37877
 O76 O 0.71695 0.22532 0.59030
 O77 O 0.78463 0.29712 0.55811
 O78 O 0.70852 0.21072 0.41383
 Cu79 Cu 0.78946 0.22072 0.49888
 Cu80 Cu 0.74259 0.25670 0.48487
 C81 C 0.71586 0.18197 0.39041
 C82 C 0.81635 0.29637 0.59217
 C83 C 0.72403 0.19825 0.62772
 C84 C 0.80491 0.27578 0.35043
 O85 O 0.96398 0.53995 -0.11007
 O86 O 1.03838 0.55148 0.17083
 O87 O 0.90947 0.46138 0.10019
 O88 O 1.09806 0.57249 -0.08413
 O89 O 0.95949 0.50727 0.19181
 O90 O 1.04042 0.57065 -0.13312
 O91 O 1.05121 0.57871 0.03260
 O92 O 0.91166 0.47994 -0.06650
 C93 C 0.92562 0.51707 -0.09324
 C94 C 1.05251 0.58301 0.11913
 C95 C 0.92122 0.48609 0.16915
 C96 C 1.07992 0.58572 -0.14338
 O97 O 1.02657 0.49455 -0.18724
 O98 O 0.96634 0.44156 0.18275
 O99 O 0.94310 0.42584 -0.10279
 O100 O 1.08732 0.53563 0.07977
 O101 O 1.04165 0.48092 0.14942
 O102 O 0.95008 0.47257 -0.19454
 O103 O 1.06281 0.49506 -0.06735
 O104 O 0.93585 0.40808 0.05692
 Co105 Co 0.99555 0.51696 -0.14022
 Co106 Co 1.00134 0.49594 0.15808
 Co107 Co 0.93050 0.44824 -0.00416
 Co108 Co 1.05417 0.53482 -0.01765
 O109 O 0.99311 0.49608 0.00658
 C110 C 1.05183 0.48499 -0.15023
 C111 C 0.94504 0.40830 0.14079
 C112 C 0.93839 0.43553 -0.18224
 C113 C 1.07915 0.50617 0.13403
 O114 O 0.52140 0.47134 -0.18541
 O115 O 0.42868 0.47530 0.13172
 O116 O 0.47568 0.40834 0.07233
 O117 O 0.42712 0.48790 -0.07459
 O118 O 0.46749 0.44142 0.18574
 O119 O 0.46560 0.49066 -0.19052
 O120 O 0.43729 0.53010 0.06494
 O121 O 0.48748 0.42218 -0.09087
 C122 C 0.49945 0.43384 -0.17150
 C123 C 0.41557 0.49990 0.11683
 C124 C 0.46212 0.40856 0.15163
 C125 C 0.42976 0.47892 -0.15707
 O126 O 0.52506 0.56748 -0.13365
 O127 O 0.53677 0.51046 0.19974
 O128 O 0.56918 0.48264 -0.05375
 O129 O 0.51792 0.57618 0.02805
 O130 O 0.49893 0.54896 0.16437
 O131 O 0.57354 0.54013 -0.10570
 O132 O 0.46621 0.56565 -0.09939
 O133 O 0.55246 0.46945 0.11750
 Co134 Co 0.51856 0.51505 -0.13819
 Co135 Co 0.48415 0.49448 0.15510
 Co136 Co 0.51953 0.45017 0.00997
 Co137 Co 0.47333 0.53027 -0.02427
 O138 O 0.49848 0.49459 0.00798
 C139 C 0.49906 0.57970 -0.15394
 C140 C 0.55953 0.49441 0.18487
 C141 C 0.59039 0.51836 -0.08942
 C142 C 0.51719 0.58064 0.11395
 O143 O 0.56714 0.03651 -0.15782
 O144 O 0.51250 -0.02793 0.18270
 O145 O 0.57631 0.07486 0.04670
 O146 O 0.48867 -0.10021 -0.05920
 O147 O 0.54363 0.04627 0.17247
 O148 O 0.53226 -0.04209 -0.13629
 O149 O 0.53368 -0.05008 0.06528
 O150 O 0.55782 0.08676 -0.11044
 C151 C 0.57910 0.07450 -0.15495
 C152 C 0.53483 -0.04253 0.15104
 C153 C 0.57718 0.07060 0.13257
 C154 C 0.51328 -0.08180 -0.13078
 O155 O 0.45808 -0.04751 -0.18294
 O156 O 0.47293 0.04275 0.11070
 O157 O 0.48057 0.05819 -0.07170
 O158 O 0.45319 -0.08456 0.10500
 O159 O 0.43802 -0.03579 0.12120
 O160 O 0.49175 0.02989 -0.19559
 O161 O 0.43515 -0.07849 -0.05069
 O162 O 0.52521 0.10243 0.05467
 Co163 Co 0.51172 -0.00520 -0.15487
 Co164 Co 0.49225 0.00548 0.13481
 Co165 Co 0.52589 0.06169 -0.00765
 Co166 Co 0.48636 -0.05992 0.00275
 O167 O 0.50417 0.00036 -0.00742
 C168 C 0.42904 -0.07530 -0.13509
 C169 C 0.49398 0.08270 0.11331
 C170 C 0.47577 0.04998 -0.15818
 C171 C 0.42835 -0.07290 0.13417
 C172 C 1.17124 0.50169 0.33078
 C173 C 1.13687 0.46827 0.29809
 C174 C 1.10496 0.47081 0.23888
 C175 C 1.11302 0.50294 0.18249
 H176 H 1.12941 0.43767 0.32217
 H177 H 1.07329 0.44483 0.24291
 H178 H 1.17738 0.53233 0.31065
 H179 H 1.14484 0.52807 0.17326
 C180 C 0.54117 0.69189 0.28821
 C181 C 0.50498 0.65918 0.26080
 C182 C 0.50154 0.62212 0.21673
 C183 C 0.52834 0.62106 0.15449
 H184 H 0.47530 0.65612 0.28315
 H185 H 0.47292 0.59367 0.23356
 H186 H 0.57086 0.69401 0.26962
 H187 H 0.55484 0.64918 0.12797
 C188 C 0.30953 -0.16653 0.27503
 C189 C 0.34190 -0.17146 0.24874
 C190 C 0.37703 -0.14211 0.18949
 C191 C 0.38891 -0.10189 0.18124
 H192 H 0.34404 -0.19788 0.27436
 H193 H 0.39648 -0.15357 0.15963
 H194 H 0.30548 -0.14170 0.24627
 H195 H 0.37087 -0.08938 0.21332
 C196 C 0.82965 0.49143 0.36868
 C197 C 0.86614 0.52382 0.34072
 C198 C 0.89811 0.51983 0.28527
 C199 C 0.88874 0.48962 0.22298
 H200 H 0.87470 0.55449 0.36531
 H201 H 0.93049 0.54393 0.29378
 H202 H 0.82233 0.46029 0.35098
 H203 H 0.85621 0.46713 0.20914
 C204 C 0.46246 0.29073 0.28518
 C205 C 0.43809 0.30777 0.27289
 C206 C 0.44899 0.33945 0.19863
 C207 C 0.44084 0.37050 0.20907
 H208 H 0.41402 0.30238 0.32398
 H209 H 0.46905 0.34064 0.14148
 H210 H 0.48889 0.29964 0.23836
 H211 H 0.42338 0.37080 0.27005
 C212 C 0.68518 0.14798 0.33135
 C213 C 0.64460 0.13751 0.33396
 C214 C 0.61125 0.10414 0.27861
 C215 C 0.61516 0.09699 0.18807
 H216 H 0.63437 0.15277 0.38335
 H217 H 0.58038 0.08900 0.31065
 H218 H 0.69548 0.13058 0.28901
 H219 H 0.64499 0.11470 0.15242
 C220 C 0.47122 0.16361 -0.28643
 C221 C 0.44411 0.12374 -0.26859
 C222 C 0.45566 0.10189 -0.19814
 C223 C 0.45413 0.06608 -0.21809
 H224 H 0.41660 0.10643 -0.31224
 H225 H 0.47161 0.11843 -0.13501
 H226 H 0.50059 0.17839 -0.24760
 H227 H 0.44208 0.05164 -0.28549
 C228 C 0.67899 0.51611 -0.28215
 C229 C 0.67949 0.55190 -0.26455
 C230 C 0.64772 0.55361 -0.20343
 C231 C 0.63222 0.52979 -0.12671
 H232 H 0.70025 0.57961 -0.30382
 H233 H 0.63436 0.57234 -0.22751
 H234 H 0.65607 0.48807 -0.24689
 H235 H 0.64624 0.51164 -0.10253
 C236 C 0.84442 0.32957 -0.35213
 C237 C 0.87762 0.33084 -0.30840
 C238 C 0.90492 0.36437 -0.24317
 C239 C 0.91502 0.40411 -0.25464
 H240 H 0.88291 0.30468 -0.31291
 H241 H 0.91754 0.35570 -0.18374
 H242 H 0.83789 0.35472 -0.34194
 H243 H 0.90494 0.41368 -0.31695
 C244 C 0.53633 -0.16006 -0.33353
 C245 C 0.50060 -0.17046 -0.28737
 C246 C 0.49685 -0.14610 -0.21053
 C247 C 0.52243 -0.10540 -0.19988
 H248 H 0.47243 -0.19913 -0.30436
 H249 H 0.46944 -0.16202 -0.16595
 H250 H 0.56553 -0.13321 -0.31308
 H251 H 0.54809 -0.08825 -0.24823
 C252 C 0.32109 0.49350 -0.28988
 C253 C 0.33163 0.46406 -0.27863
 C254 C 0.36187 0.46926 -0.20441
 C255 C 0.39244 0.46006 -0.21797
 H256 H 0.32089 0.43868 -0.32770
 H257 H 0.36313 0.48708 -0.14325
 H258 H 0.33533 0.52047 -0.24491
 H259 H 0.39374 0.44577 -0.28296
 C260 C 1.16599 0.70018 -0.31288
 C261 C 1.17529 0.67406 -0.26660
 C262 C 1.14718 0.64099 -0.20164
 C263 C 1.10512 0.62237 -0.20293
 H264 H 1.20566 0.67623 -0.27660
 H265 H 1.16245 0.62892 -0.15623
 H266 H 1.13671 0.69979 -0.29931
 H267 H 1.08897 0.63276 -0.25022
 C268 C 0.83227 0.52108 -0.25810
 C269 C 0.86807 0.55663 -0.24372
 C270 C 0.90239 0.55760 -0.18661
 C271 C 0.89511 0.53032 -0.11726
 H272 H 0.87504 0.58364 -0.28584
 H273 H 0.93414 0.57731 -0.21164
 H274 H 0.82665 0.49316 -0.22165
 H275 H 0.86355 0.51134 -0.09051
 C276 C 0.44346 0.29751 -0.31877
 C277 C 0.47201 0.33748 -0.31191
 C278 C 0.46950 0.36417 -0.23969
 C279 C 0.49406 0.40504 -0.24690
 H280 H 0.49856 0.35083 -0.35965
 H281 H 0.44934 0.35051 -0.17915
 H282 H 0.41568 0.28429 -0.27486
 H283 H 0.51294 0.41809 -0.30952
 C284 C 0.69596 0.17097 -0.29809
 C285 C 0.66403 0.17536 -0.26606
 C286 C 0.63010 0.14493 -0.20560
 C287 C 0.61731 0.10433 -0.20530
 H288 H 0.66162 0.20223 -0.28663
 H289 H 0.61220 0.15614 -0.16749
 H290 H 0.70006 0.14546 -0.27434
 H291 H 0.63351 0.09227 -0.24677
 C292 C 1.17571 0.49849 -0.28242
 C293 C 1.13555 0.47002 -0.26812
 C294 C 1.11157 0.47738 -0.19543
 C295 C 1.07110 0.46609 -0.20753
 H296 H 1.11975 0.44384 -0.31485
 H297 H 1.12883 0.49765 -0.13769
 H298 H 1.18981 0.52618 -0.23975
 H299 H 1.05469 0.44915 -0.26982
 C300 C 0.52703 0.68844 -0.34212
 C301 C 0.48922 0.65897 -0.31115
 C302 C 0.48223 0.62673 -0.24102
 C303 C 0.50975 0.61392 -0.22072
 H304 H 0.46100 0.65856 -0.33617
 H305 H 0.45144 0.61114 -0.20868
 H306 H 0.55545 0.69029 -0.31412
 H307 H 0.53987 0.62736 -0.25567
 C308 C 0.31259 -0.13585 -0.36301
 C309 C 0.33885 -0.13833 -0.30149
 C310 C 0.37400 -0.10168 -0.25823
 C311 C 0.38887 -0.10609 -0.17602
 H312 H 0.33509 -0.16842 -0.28378
 H313 H 0.38900 -0.07235 -0.29549
 H314 H 0.31424 -0.10639 -0.37704
 H315 H 0.37174 -0.13517 -0.13815
 C316 C 0.54536 -0.15622 0.26472
 C317 C 0.56541 -0.11501 0.27083
 C318 C 0.55848 -0.09107 0.19696
 C319 C 0.55535 -0.05762 0.21725
 H320 H 0.58248 -0.09983 0.33409
 H321 H 0.54933 -0.10475 0.12782
 H322 H 0.52481 -0.17105 0.20536
 H323 H 0.56099 -0.04595 0.28840
 C324 C 0.32287 0.49757 0.31720
 C325 C 0.32257 0.46343 0.28642
 C326 C 0.35561 0.46481 0.22462
 C327 C 0.37813 0.49586 0.16446
 H328 H 0.29992 0.43351 0.31476
 H329 H 0.36211 0.43945 0.23120
 H330 H 0.34712 0.52781 0.29410
 H331 H 0.37062 0.52032 0.15349
 C332 C 1.16117 0.67301 0.32878
 C333 C 1.12904 0.66954 0.27706
 C334 C 1.09972 0.62905 0.23684
 C335 C 1.07635 0.62435 0.16072
 H336 H 1.12430 0.69579 0.26548
 H337 H 1.09930 0.60205 0.26776
 H338 H 1.16617 0.64665 0.33535
 H339 H 1.07889 0.65107 0.12374
 C340 C 0.47544 0.15156 0.33631
 C341 C 0.44392 0.11593 0.30361
 C342 C 0.45145 0.09001 0.23730
 C343 C 0.48164 0.10687 0.17242
 H344 H 0.41217 0.10446 0.32884
 H345 H 0.43164 0.05674 0.24186
 H346 H 0.50759 0.16133 0.31675
 H347 H 0.49980 0.14020 0.16476
 C348 C 0.66786 0.47572 0.33989
 C349 C 0.65461 0.50176 0.31305
 C350 C 0.61918 0.48829 0.24723
 C351 C 0.59651 0.50744 0.24548
 H352 H 0.66788 0.53206 0.34497
 H353 H 0.61031 0.46139 0.20374
 H354 H 0.65241 0.44446 0.31265
 H355 H 0.60459 0.53307 0.29265
 C356 C 0.82726 0.29820 0.26581
 C357 C 0.86686 0.30784 0.24887
 C358 C 0.89019 0.33836 0.17556
 C359 C 0.92841 0.36963 0.19418
 H360 H 0.88353 0.29839 0.29728
 H361 H 0.87311 0.33994 0.11466
 H362 H 0.81224 0.31094 0.22137
 H363 H 0.94365 0.36993 0.25987
   
