data_POSCAR
  _audit_creation_date              2014-09-24
  _audit_creation_method            'ToBaCCo'
  _symmetry_space_group_name_H-M    'P1'
  _symmetry_Int_Tables_number       1
  _symmetry_cell_setting            triclinic
  loop_
  _symmetry_equiv_pos_as_xyz
 x,y,z
_cell_length_a 41.7327
_cell_length_b 41.7326
_cell_length_c 42.1101
_cell_angle_alpha 89.962900
_cell_angle_beta 89.963300
_cell_angle_gamma 90.085900
loop_
  _atom_site_label
  _atom_site_type_symbol
  _atom_site_fract_x
  _atom_site_fract_y
  _atom_site_fract_z
O1 O 0.03051 0.27559 -0.03033
 O2 O -0.03184 0.27558 0.03160
 O3 O 0.03053 0.27557 0.03149
 O4 O -0.03185 0.27558 -0.03024
 O5 O -0.03195 0.22259 -0.03023
 O6 O 0.03046 0.22257 0.03153
 O7 O -0.03193 0.22259 0.03164
 O8 O 0.03044 0.22259 -0.03032
 Cu9 Cu -0.00066 0.28093 0.00063
 Cu10 Cu -0.00076 0.21723 0.00066
 C11 C 0.04099 0.24910 -0.04079
 C12 C -0.04240 0.24909 0.04209
 C13 C 0.04102 0.24907 0.04193
 C14 C -0.04241 0.24909 -0.04068
 O15 O 0.53137 0.77601 0.46919
 O16 O 0.46899 0.77610 0.53107
 O17 O 0.53139 0.77592 0.53106
 O18 O 0.46898 0.77615 0.46921
 O19 O 0.46875 0.72316 0.46918
 O20 O 0.53119 0.72293 0.53105
 O21 O 0.46876 0.72311 0.53107
 O22 O 0.53117 0.72301 0.46915
 Cu23 Cu 0.50021 0.78138 0.50013
 Cu24 Cu 0.49995 0.71771 0.50011
 C25 C 0.54179 0.74950 0.45870
 C26 C 0.45836 0.74963 0.54153
 C27 C 0.54182 0.74939 0.54151
 C28 C 0.45834 0.74969 0.45874
 O29 O 0.96892 0.72422 -0.03208
 O30 O 1.03126 0.72438 0.02984
 O31 O 0.96887 0.72428 0.02979
 O32 O 1.03132 0.72437 -0.03204
 O33 O 1.03131 0.77736 -0.03211
 O34 O 0.96883 0.77727 0.02973
 O35 O 1.03125 0.77737 0.02979
 O36 O 0.96888 0.77721 -0.03216
 Cu37 Cu 1.00010 0.71897 -0.00112
 Cu38 Cu 1.00006 0.78265 -0.00120
 C39 C 0.95837 0.75068 -0.04259
 C40 C 1.04176 0.75090 0.04029
 C41 C 0.95833 0.75075 0.04022
 C42 C 1.04185 0.75088 -0.04253
 O43 O 0.53104 0.22386 0.53091
 O44 O 0.46874 0.22392 0.46909
 O45 O 0.53110 0.22390 0.46908
 O46 O 0.46868 0.22391 0.53094
 O47 O 0.46878 0.27690 0.53094
 O48 O 0.53122 0.27690 0.46907
 O49 O 0.46884 0.27692 0.46907
 O50 O 0.53117 0.27685 0.53092
 Cu51 Cu 0.49988 0.21855 0.50001
 Cu52 Cu 0.50001 0.28225 0.50000
 C53 C 0.54161 0.25034 0.54136
 C54 C 0.45830 0.25043 0.45863
 C55 C 0.54169 0.25040 0.45862
 C56 C 0.45821 0.25040 0.54140
 O57 O 0.72417 0.03030 -0.03051
 O58 O 0.72421 -0.03202 0.03143
 O59 O 0.72420 0.03035 0.03132
 O60 O 0.72423 -0.03207 -0.03040
 O61 O 0.77723 -0.03197 -0.03044
 O62 O 0.77720 0.03046 0.03129
 O63 O 0.77720 -0.03193 0.03141
 O64 O 0.77717 0.03042 -0.03056
 Cu65 Cu 0.71886 -0.00087 0.00047
 Cu66 Cu 0.78256 -0.00074 0.00042
 C67 C 0.75065 0.04087 -0.04101
 C68 C 0.75071 -0.04249 0.04190
 C69 C 0.75069 0.04093 0.04172
 C70 C 0.75073 -0.04253 -0.04085
 O71 O 0.22379 0.46886 0.53100
 O72 O 0.22376 0.53124 0.46911
 O73 O 0.22383 0.46884 0.46913
 O74 O 0.22373 0.53126 0.53098
 O75 O 0.27672 0.53140 0.53099
 O76 O 0.27683 0.46896 0.46913
 O77 O 0.27675 0.53139 0.46909
 O78 O 0.27678 0.46898 0.53101
 Cu79 Cu 0.21844 0.50004 0.50005
 Cu80 Cu 0.28211 0.50020 0.50005
 C81 C 0.25028 0.45840 0.54146
 C82 C 0.25025 0.54183 0.45864
 C83 C 0.25034 0.45837 0.45868
 C84 C 0.25020 0.54186 0.54144
 O85 O 0.27594 1.03259 0.03098
 O86 O 0.27579 0.97023 -0.03093
 O87 O 0.27588 1.03264 -0.03090
 O88 O 0.27586 0.97019 0.03092
 O89 O 0.22287 0.97018 0.03102
 O90 O 0.22290 1.03265 -0.03083
 O91 O 0.22280 0.97022 -0.03086
 O92 O 0.22296 1.03260 0.03107
 Cu93 Cu 0.28121 1.00142 0.00001
 Cu94 Cu 0.21754 1.00142 0.00011
 C95 C 0.24948 1.04311 0.04151
 C96 C 0.24928 0.95970 -0.04135
 C97 C 0.24940 1.04317 -0.04133
 C98 C 0.24936 0.95965 0.04142
 O99 O 0.77637 0.53101 0.53070
 O100 O 0.77631 0.46872 0.46887
 O101 O 0.77634 0.53108 0.46886
 O102 O 0.77630 0.46865 0.53071
 O103 O 0.72330 0.46860 0.53076
 O104 O 0.72334 0.53105 0.46890
 O105 O 0.72332 0.46866 0.46890
 O106 O 0.72337 0.53099 0.53075
 Cu107 Cu 0.78168 0.49987 0.49978
 Cu108 Cu 0.71798 0.49982 0.49983
 C109 C 0.74989 0.54150 0.54117
 C110 C 0.74981 0.45819 0.45844
 C111 C 0.74985 0.54160 0.45843
 C112 C 0.74980 0.45810 0.54119
 C113 C 0.25029 0.22604 0.22608
 C114 C 0.22637 0.24982 0.22622
 C115 C 0.22638 0.27338 0.24990
 C116 C 0.25002 0.27345 0.27349
 C117 C 0.27393 0.24965 0.27337
 C118 C 0.27393 0.22610 0.24967
 H119 H 0.29235 0.20779 0.24960
 H120 H 0.20795 0.29169 0.24998
 C121 C 0.74998 0.77395 0.22585
 C122 C 0.77383 0.75010 0.22581
 C123 C 0.77382 0.72648 0.24947
 C124 C 0.75025 0.72644 0.27317
 C125 C 0.72640 0.75029 0.27320
 C126 C 0.72640 0.77391 0.24955
 H127 H 0.70804 0.79227 0.24958
 H128 H 0.79219 0.70812 0.24944
 C129 C 0.77418 0.24991 0.22618
 C130 C 0.75027 0.22605 0.22624
 C131 C 0.72664 0.22610 0.24987
 C132 C 0.72663 0.24973 0.27346
 C133 C 0.75055 0.27359 0.27341
 C134 C 0.77418 0.27354 0.24978
 H135 H 0.79259 0.29192 0.24975
 H136 H 0.70823 0.20772 0.24990
 C137 C 0.22604 0.75041 0.22611
 C138 C 0.24990 0.77432 0.22620
 C139 C 0.27348 0.77429 0.24987
 C140 C 0.27349 0.75063 0.27348
 C141 C 0.24962 0.72671 0.27341
 C142 C 0.22604 0.72674 0.24973
 H143 H 0.20768 0.70832 0.24968
 H144 H 0.29185 0.79271 0.24992
 C145 C 0.72615 0.24936 0.72645
 C146 C 0.75000 0.27328 0.72647
 C147 C 0.77356 0.27328 0.75014
 C148 C 0.77353 0.24965 0.77378
 C149 C 0.74969 0.22572 0.77374
 C150 C 0.72612 0.22572 0.75008
 H151 H 0.70775 0.20731 0.75005
 H152 H 0.79193 0.29170 0.75018
 C153 C 0.27329 0.75072 0.72657
 C154 C 0.24938 0.72684 0.72656
 C155 C 0.22573 0.72691 0.75019
 C156 C 0.22569 0.75056 0.77379
 C157 C 0.24959 0.77444 0.77379
 C158 C 0.27325 0.77437 0.75017
 H159 H 0.29166 0.79275 0.75015
 H160 H 0.20732 0.70853 0.75020
 C161 C 0.24966 0.27362 0.72679
 C162 C 0.27357 0.24982 0.72686
 C163 C 0.27357 0.22627 0.75058
 C164 C 0.24994 0.22623 0.77422
 C165 C 0.22602 0.25001 0.77414
 C166 C 0.22602 0.27356 0.75043
 H167 H 0.20761 0.29188 0.75037
 H168 H 0.29199 0.20795 0.75064
 C169 C 0.75083 0.72582 0.72648
 C170 C 0.72688 0.74956 0.72657
 C171 C 0.72687 0.77309 0.75027
 C172 C 0.75054 0.77315 0.77385
 C173 C 0.77451 0.74942 0.77376
 C174 C 0.77451 0.72588 0.75006
 H175 H 0.79295 0.70759 0.74996
 H176 H 0.70843 0.79138 0.75037
 C177 C 0.24957 0.06597 0.06444
 C178 C 0.24973 0.08620 0.08488
 C179 C 0.25002 0.11029 0.10936
 C180 C 0.23420 0.13950 0.10464
 C181 C 0.23454 0.16289 0.12843
 C182 C 0.25068 0.15716 0.15704
 C183 C 0.26649 0.12795 0.16177
 C184 C 0.26616 0.10457 0.13797
 C185 C 0.25092 0.18121 0.18153
 C186 C 0.25086 0.20149 0.20192
 H187 H 0.22164 0.14419 0.08262
 H188 H 0.22226 0.18540 0.12452
 H189 H 0.27903 0.12326 0.18380
 H190 H 0.27847 0.08207 0.14188
 C191 C 0.74996 0.56567 0.56533
 C192 C 0.75014 0.58593 0.58570
 C193 C 0.75046 0.61005 0.61007
 C194 C 0.72267 0.62761 0.61672
 C195 C 0.72300 0.65098 0.64049
 C196 C 0.75113 0.65689 0.65768
 C197 C 0.77892 0.63936 0.65102
 C198 C 0.77859 0.61597 0.62726
 C199 C 0.75144 0.68096 0.68207
 C200 C 0.75140 0.70127 0.70239
 H201 H 0.70080 0.62322 0.60357
 H202 H 0.70137 0.66440 0.64549
 H203 H 0.80079 0.64376 0.66418
 H204 H 0.80021 0.60252 0.62230
 C205 C 0.75068 0.93461 0.06479
 C206 C 0.75054 0.91430 0.08517
 C207 C 0.75026 0.89012 0.10954
 C208 C 0.72219 0.88421 0.12688
 C209 C 0.72190 0.86076 0.15062
 C210 C 0.74967 0.84313 0.15713
 C211 C 0.77774 0.84903 0.13979
 C212 C 0.77804 0.87247 0.11604
 C213 C 0.74939 0.81897 0.18149
 C214 C 0.74943 0.79859 0.20179
 H215 H 0.70059 0.89772 0.12205
 H216 H 0.70006 0.85638 0.16387
 H217 H 0.79936 0.83555 0.14466
 H218 H 0.79987 0.87684 0.10279
 C219 C 0.25025 0.43417 0.56564
 C220 C 0.25012 0.41386 0.58600
 C221 C 0.24985 0.38967 0.61037
 C222 C 0.27765 0.37208 0.61691
 C223 C 0.27738 0.34865 0.64066
 C224 C 0.24930 0.34270 0.65796
 C225 C 0.22149 0.36026 0.65141
 C226 C 0.22177 0.38371 0.62767
 C227 C 0.24905 0.31855 0.68235
 C228 C 0.24910 0.29821 0.70268
 H229 H 0.29950 0.37650 0.60368
 H230 H 0.29902 0.33522 0.64556
 H231 H 0.19965 0.35584 0.66464
 H232 H 0.20014 0.39717 0.62281
 C233 C 0.93472 0.24913 0.06500
 C234 C 0.91444 0.24925 0.08541
 C235 C 0.89031 0.24951 0.10983
 C236 C 0.89601 0.26560 0.13847
 C237 C 0.87256 0.26593 0.16221
 C238 C 0.84329 0.25020 0.15738
 C239 C 0.83757 0.23410 0.12874
 C240 C 0.86104 0.23375 0.10501
 C241 C 0.81916 0.25047 0.18178
 C242 C 0.79881 0.25043 0.20210
 H243 H 0.91856 0.27786 0.14244
 H244 H 0.87722 0.27843 0.18427
 H245 H 0.81501 0.22188 0.12476
 H246 H 0.85637 0.22125 0.08295
 C247 C 0.43413 0.74971 0.56569
 C248 C 0.41381 0.74989 0.58605
 C249 C 0.38960 0.75022 0.61041
 C250 C 0.37194 0.72243 0.61705
 C251 C 0.34847 0.72277 0.64077
 C252 C 0.34257 0.75090 0.65794
 C253 C 0.36022 0.77869 0.65129
 C254 C 0.38369 0.77835 0.62758
 C255 C 0.31838 0.75123 0.68228
 C256 C 0.29797 0.75123 0.70254
 H257 H 0.37631 0.70055 0.60392
 H258 H 0.33498 0.70114 0.64575
 H259 H 0.35583 0.80058 0.66442
 H260 H 0.39722 0.79997 0.62264
 C261 C 0.06592 0.75091 0.06453
 C262 C 0.08615 0.75082 0.08497
 C263 C 0.11023 0.75060 0.10945
 C264 C 0.10445 0.73453 0.13813
 C265 C 0.12784 0.73423 0.16192
 C266 C 0.15711 0.75000 0.15713
 C267 C 0.16289 0.76608 0.12846
 C268 C 0.13950 0.76639 0.10468
 C269 C 0.18117 0.74977 0.18161
 C270 C 0.20147 0.74984 0.20198
 H271 H 0.08191 0.72224 0.14208
 H272 H 0.12311 0.72174 0.18399
 H273 H 0.18545 0.77833 0.12450
 H274 H 0.14423 0.77889 0.08261
 C275 C 0.56578 0.25026 0.56551
 C276 C 0.58605 0.25010 0.58588
 C277 C 0.61017 0.24979 0.61025
 C278 C 0.60442 0.23371 0.63891
 C279 C 0.62787 0.23334 0.66261
 C280 C 0.65715 0.24903 0.65771
 C281 C 0.66291 0.26511 0.62905
 C282 C 0.63946 0.26550 0.60536
 C283 C 0.68125 0.24876 0.68209
 C284 C 0.70157 0.24880 0.70239
 H285 H 0.58185 0.22149 0.64293
 H286 H 0.62318 0.22086 0.68470
 H287 H 0.68550 0.27730 0.62503
 H288 H 0.64414 0.27800 0.58327
 C289 C 0.75059 0.06506 0.93479
 C290 C 0.75043 0.08534 0.91440
 C291 C 0.75013 0.10950 0.89000
 C292 C 0.73421 0.10372 0.86127
 C293 C 0.73383 0.12720 0.83756
 C294 C 0.74936 0.15656 0.84249
 C295 C 0.76528 0.16235 0.87121
 C296 C 0.76567 0.13886 0.89492
 C297 C 0.74907 0.18070 0.81810
 C298 C 0.74911 0.20107 0.79780
 H299 H 0.72211 0.08110 0.85722
 H300 H 0.72147 0.12247 0.81543
 H301 H 0.77734 0.18499 0.87527
 H302 H 0.77804 0.14359 0.91704
 C303 C 0.25020 0.56604 0.43445
 C304 C 0.25006 0.58634 0.41407
 C305 C 0.24979 0.61052 0.38969
 C306 C 0.22171 0.61640 0.37243
 C307 C 0.22143 0.63984 0.34868
 C308 C 0.24923 0.65748 0.34209
 C309 C 0.27732 0.65161 0.35935
 C310 C 0.27760 0.62818 0.38311
 C311 C 0.24897 0.68165 0.31773
 C312 C 0.24903 0.70204 0.29744
 H313 H 0.20008 0.60287 0.37733
 H314 H 0.19959 0.64420 0.33549
 H315 H 0.29896 0.66511 0.35442
 H316 H 0.29944 0.62383 0.39630
 C317 C 0.24925 0.93546 0.93449
 C318 C 0.24933 0.91512 0.91416
 C319 C 0.24954 0.89088 0.88983
 C320 C 0.22174 0.87315 0.88344
 C321 C 0.22196 0.84965 0.85975
 C322 C 0.24999 0.84377 0.84238
 C323 C 0.27779 0.86147 0.84878
 C324 C 0.27756 0.88498 0.87245
 C325 C 0.25020 0.81953 0.81807
 C326 C 0.25014 0.79912 0.79782
 H327 H 0.19993 0.87750 0.89672
 H328 H 0.20032 0.83612 0.85498
 H329 H 0.29959 0.85711 0.83550
 H330 H 0.29919 0.89854 0.87719
 C331 C 0.74984 0.43402 0.43428
 C332 C 0.74998 0.41375 0.41392
 C333 C 0.75027 0.38961 0.38957
 C334 C 0.77838 0.38374 0.37232
 C335 C 0.77868 0.36033 0.34859
 C336 C 0.75087 0.34271 0.34202
 C337 C 0.72276 0.34857 0.35926
 C338 C 0.72246 0.37198 0.38300
 C339 C 0.75116 0.31858 0.31768
 C340 C 0.75112 0.29822 0.29742
 H341 H 0.80000 0.39725 0.37722
 H342 H 0.80054 0.35596 0.33540
 H343 H 0.70113 0.33508 0.35433
 H344 H 0.70060 0.37633 0.39619
 C345 C 0.06520 0.24914 0.93503
 C346 C 0.08551 0.24928 0.91466
 C347 C 0.10969 0.24955 0.89029
 C348 C 0.10401 0.26550 0.86155
 C349 C 0.12752 0.26585 0.83786
 C350 C 0.15680 0.25027 0.84283
 C351 C 0.16249 0.23432 0.87157
 C352 C 0.13897 0.23395 0.89525
 C353 C 0.18098 0.25055 0.81847
 C354 C 0.20136 0.25053 0.79819
 H355 H 0.08146 0.27764 0.85747
 H356 H 0.12288 0.27824 0.81572
 H357 H 0.18506 0.22222 0.87566
 H358 H 0.14362 0.22156 0.91738
 C359 C 0.56598 0.74951 0.43450
 C360 C 0.58625 0.74963 0.41409
 C361 C 0.61038 0.74990 0.38966
 C362 C 0.60467 0.76592 0.36097
 C363 C 0.62811 0.76626 0.33722
 C364 C 0.65737 0.75059 0.34209
 C365 C 0.66309 0.73456 0.37077
 C366 C 0.63963 0.73421 0.39451
 C367 C 0.68148 0.75085 0.31766
 C368 C 0.70181 0.75082 0.29732
 H369 H 0.58213 0.77812 0.35697
 H370 H 0.62345 0.77870 0.31512
 H371 H 0.68564 0.72239 0.37478
 H372 H 0.64430 0.72175 0.41661
 C373 C 0.93546 0.75058 0.93453
 C374 C 0.91515 0.75040 0.91417
 C375 C 0.89095 0.75008 0.88980
 C376 C 0.89669 0.73424 0.86102
 C377 C 0.87317 0.73384 0.83736
 C378 C 0.84380 0.74927 0.84238
 C379 C 0.83806 0.76511 0.87116
 C380 C 0.86158 0.76552 0.89481
 C381 C 0.81961 0.74894 0.81804
 C382 C 0.79921 0.74893 0.79777
 H383 H 0.91930 0.72222 0.85689
 H384 H 0.87787 0.72154 0.81520
 H385 H 0.81543 0.77709 0.87530
 H386 H 0.85687 0.77783 0.91697
 C387 C 0.43415 0.25041 0.43444
 C388 C 0.41392 0.25028 0.41405
 C389 C 0.38984 0.25002 0.38963
 C390 C 0.39576 0.23434 0.36081
 C391 C 0.37235 0.23400 0.33707
 C392 C 0.34294 0.24932 0.34209
 C393 C 0.33702 0.26501 0.37090
 C394 C 0.36044 0.26537 0.39463
 C395 C 0.31887 0.24905 0.31769
 C396 C 0.29854 0.24910 0.29739
 H397 H 0.41842 0.22240 0.35671
 H398 H 0.37716 0.22182 0.31487
 H399 H 0.31434 0.27692 0.37501
 H400 H 0.35562 0.27756 0.41683
 C401 C 0.75072 0.93327 0.93502
 C402 C 0.75062 0.91299 0.91467
 C403 C 0.75041 0.88885 0.89032
 C404 C 0.77827 0.87138 0.88373
 C405 C 0.77807 0.84801 0.85995
 C406 C 0.75000 0.84203 0.84270
 C407 C 0.72213 0.85947 0.84930
 C408 C 0.72234 0.88285 0.87307
 C409 C 0.74981 0.81796 0.81830
 C410 C 0.74992 0.79767 0.79796
 H411 H 0.80011 0.87584 0.89692
 H412 H 0.79975 0.83466 0.85500
 H413 H 0.70031 0.85501 0.83610
 H414 H 0.70068 0.89624 0.87797
 C415 C 0.25035 0.43412 0.43453
 C416 C 0.25026 0.41379 0.41419
 C417 C 0.25004 0.38957 0.38984
 C418 C 0.22208 0.38378 0.37234
 C419 C 0.22185 0.36031 0.34862
 C420 C 0.24959 0.34255 0.34230
 C421 C 0.27756 0.34833 0.35980
 C422 C 0.27778 0.37178 0.38353
 C423 C 0.24938 0.31839 0.31792
 C424 C 0.24946 0.29804 0.29760
 H425 H 0.20050 0.39738 0.37701
 H426 H 0.20010 0.35604 0.33524
 H427 H 0.29915 0.33476 0.35509
 H428 H 0.29954 0.37606 0.39690
 C429 C 0.24945 0.06607 0.93578
 C430 C 0.24957 0.08635 0.91538
 C431 C 0.24984 0.11048 0.89095
 C432 C 0.27795 0.11652 0.87374
 C433 C 0.27822 0.13989 0.84992
 C434 C 0.25036 0.15730 0.84321
 C435 C 0.22224 0.15129 0.86043
 C436 C 0.22198 0.12793 0.88426
 C437 C 0.25060 0.18137 0.81875
 C438 C 0.25053 0.20167 0.79837
 H439 H 0.29962 0.10316 0.87872
 H440 H 0.30009 0.14436 0.83675
 H441 H 0.20056 0.16461 0.85541
 H442 H 0.20011 0.12345 0.89742
 C443 C 0.74989 0.56583 0.43427
 C444 C 0.75001 0.58615 0.41391
 C445 C 0.75024 0.61034 0.38954
 C446 C 0.77829 0.61631 0.37220
 C447 C 0.77853 0.63975 0.34845
 C448 C 0.75070 0.65731 0.34194
 C449 C 0.72265 0.65135 0.35928
 C450 C 0.72242 0.62792 0.38304
 C451 C 0.75092 0.68146 0.31756
 C452 C 0.75084 0.70182 0.29725
 H453 H 0.79993 0.60285 0.37703
 H454 H 0.80034 0.64418 0.33519
 H455 H 0.70100 0.66478 0.35442
 H456 H 0.70060 0.62349 0.39630
 C457 C 0.06479 0.75088 0.93462
 C458 C 0.08511 0.75081 0.91426
 C459 C 0.10931 0.75063 0.88990
 C460 C 0.10372 0.73456 0.86122
 C461 C 0.12723 0.73431 0.83755
 C462 C 0.15645 0.75011 0.84246
 C463 C 0.16205 0.76619 0.87113
 C464 C 0.13853 0.76646 0.89481
 C465 C 0.18063 0.74992 0.81812
 C466 C 0.20103 0.75000 0.79784
 H467 H 0.08121 0.72224 0.85719
 H468 H 0.12266 0.72182 0.81546
 H469 H 0.18457 0.77847 0.87518
 H470 H 0.14311 0.77896 0.91689
 C471 C 0.56591 0.25036 0.43446
 C472 C 0.58622 0.25024 0.41408
 C473 C 0.61039 0.25000 0.38970
 C474 C 0.60468 0.23404 0.36099
 C475 C 0.62817 0.23374 0.33729
 C476 C 0.65747 0.24938 0.34222
 C477 C 0.66319 0.26535 0.37092
 C478 C 0.63969 0.26567 0.39462
 C479 C 0.68163 0.24915 0.31784
 C480 C 0.70200 0.24920 0.29754
 H481 H 0.58211 0.22185 0.35694
 H482 H 0.62351 0.22133 0.31517
 H483 H 0.68578 0.27751 0.37498
 H484 H 0.64436 0.27808 0.41673
 C485 C 0.93343 0.24914 0.93516
 C486 C 0.91318 0.24927 0.91477
 C487 C 0.88910 0.24954 0.89037
 C488 C 0.88314 0.27768 0.87321
 C489 C 0.85981 0.27795 0.84940
 C490 C 0.84238 0.25007 0.84265
 C491 C 0.84832 0.22193 0.85981
 C492 C 0.87164 0.22166 0.88363
 C493 C 0.81834 0.25032 0.81822
 C494 C 0.79807 0.25025 0.79788
 H495 H 0.89652 0.29936 0.87824
 H496 H 0.85537 0.29984 0.83628
 H497 H 0.83498 0.20023 0.85474
 H498 H 0.87607 0.19977 0.89675
 C499 C 0.43411 0.74981 0.43456
 C500 C 0.41381 0.74999 0.41419
 C501 C 0.38964 0.75028 0.38981
 C502 C 0.39533 0.76636 0.36112
 C503 C 0.37185 0.76670 0.33742
 C504 C 0.34258 0.75097 0.34230
 C505 C 0.33688 0.73489 0.37099
 C506 C 0.36036 0.73454 0.39468
 C507 C 0.31844 0.75122 0.31791
 C508 C 0.29809 0.75117 0.29759
 H509 H 0.41788 0.77861 0.35709
 H510 H 0.37652 0.77919 0.31533
 H511 H 0.31432 0.72267 0.37502
 H512 H 0.35569 0.72203 0.41677
 C513 C 0.24939 0.93539 0.06555
 C514 C 0.24951 0.91504 0.08588
 C515 C 0.24976 0.89080 0.11019
 C516 C 0.27780 0.88495 0.12754
 C517 C 0.27807 0.86143 0.15121
 C518 C 0.25029 0.84368 0.15764
 C519 C 0.22225 0.84952 0.14030
 C520 C 0.22199 0.87302 0.11662
 C521 C 0.25054 0.81945 0.18195
 C522 C 0.25047 0.79902 0.20219
 H523 H 0.29941 0.89855 0.12276
 H524 H 0.29987 0.85710 0.16447
 H525 H 0.20064 0.83594 0.14511
 H526 H 0.20018 0.87735 0.10335
 C527 C 0.74981 0.43387 0.56535
 C528 C 0.74991 0.41356 0.58572
 C529 C 0.75011 0.38938 0.61010
 C530 C 0.72224 0.37181 0.61670
 C531 C 0.72245 0.34839 0.64046
 C532 C 0.75052 0.34242 0.65771
 C533 C 0.77839 0.35997 0.65110
 C534 C 0.77818 0.38340 0.62734
 C535 C 0.75071 0.31827 0.68209
 C536 C 0.75061 0.29791 0.70240
 H537 H 0.70041 0.37624 0.60351
 H538 H 0.70076 0.33497 0.64541
 H539 H 0.80022 0.35553 0.66428
 H540 H 0.79985 0.39685 0.62243
 C541 C 0.75065 0.06518 0.06581
 C542 C 0.75054 0.08552 0.08610
 C543 C 0.75030 0.10975 0.11036
 C544 C 0.77815 0.12736 0.11684
 C545 C 0.77791 0.15085 0.14050
 C546 C 0.74982 0.15681 0.15775
 C547 C 0.72198 0.13922 0.15126
 C548 C 0.72222 0.11572 0.12761
 C549 C 0.74961 0.18100 0.18202
 C550 C 0.74969 0.20140 0.20225
 H551 H 0.79999 0.12292 0.10364
 H552 H 0.79957 0.16431 0.14537
 H553 H 0.70014 0.14367 0.16446
 H554 H 0.70057 0.10223 0.12278
 C555 C 0.25012 0.56608 0.56561
 C556 C 0.24998 0.58638 0.58598
 C557 C 0.24970 0.61056 0.61037
 C558 C 0.26549 0.63982 0.60549
 C559 C 0.26515 0.66331 0.62918
 C560 C 0.24903 0.65765 0.65785
 C561 C 0.23326 0.62839 0.66273
 C562 C 0.23359 0.60491 0.63904
 C563 C 0.24878 0.68181 0.68222
 C564 C 0.24883 0.70218 0.70251
 H565 H 0.27803 0.64446 0.58342
 H566 H 0.27741 0.68585 0.62514
 H567 H 0.22074 0.62376 0.68481
 H568 H 0.22130 0.58238 0.64307
 C569 C 0.93413 0.75069 0.06441
 C570 C 0.91386 0.75055 0.08481
 C571 C 0.88974 0.75030 0.10925
 C572 C 0.89545 0.73427 0.13794
 C573 C 0.87202 0.73397 0.16171
 C574 C 0.84279 0.74969 0.15687
 C575 C 0.83707 0.76571 0.12818
 C576 C 0.86050 0.76603 0.10442
 C577 C 0.81871 0.74947 0.18132
 C578 C 0.79840 0.74954 0.20168
 H579 H 0.91797 0.72203 0.14192
 H580 H 0.87669 0.72153 0.18381
 H581 H 0.81453 0.77792 0.12419
 H582 H 0.85583 0.77849 0.08233
 C583 C 0.43401 0.25037 0.56560
 C584 C 0.41374 0.25025 0.58600
 C585 C 0.38961 0.25002 0.61043
 C586 C 0.39533 0.23405 0.63915
 C587 C 0.37188 0.23375 0.66290
 C588 C 0.34263 0.24942 0.65802
 C589 C 0.33691 0.26540 0.62930
 C590 C 0.36036 0.26571 0.60556
 C591 C 0.31853 0.24920 0.68245
 C592 C 0.29819 0.24927 0.70278
 H593 H 0.41786 0.22184 0.64317
 H594 H 0.37655 0.22134 0.68502
 H595 H 0.31436 0.27757 0.62528
 H596 H 0.35569 0.27813 0.58344
 C597 C 0.06528 0.24911 0.06600
 C598 C 0.08563 0.24924 0.08628
 C599 C 0.10988 0.24951 0.11052
 C600 C 0.12762 0.22176 0.11688
 C601 C 0.15114 0.22205 0.14050
 C602 C 0.15702 0.25009 0.15783
 C603 C 0.13931 0.27785 0.15147
 C604 C 0.11578 0.27755 0.12785
 C605 C 0.18126 0.25037 0.18207
 C606 C 0.20169 0.25034 0.20226
 H607 H 0.12324 0.19996 0.10361
 H608 H 0.16470 0.20046 0.14527
 H609 H 0.14370 0.29965 0.16473
 H610 H 0.10220 0.29914 0.12312
 C611 C 0.56605 0.74934 0.56568
 C612 C 0.58635 0.74938 0.58605
 C613 C 0.61054 0.74953 0.61043
 C614 C 0.63979 0.73386 0.60545
 C615 C 0.66329 0.73410 0.62912
 C616 C 0.65764 0.74999 0.65789
 C617 C 0.62839 0.76564 0.66288
 C618 C 0.60489 0.76541 0.63920
 C619 C 0.68182 0.75018 0.68225
 C620 C 0.70221 0.75010 0.70252
 H621 H 0.64442 0.72150 0.58330
 H622 H 0.68584 0.72194 0.62500
 H623 H 0.62376 0.77799 0.68503
 H624 H 0.58237 0.77760 0.64331
   
