data_POSCAR
  _audit_creation_date              2014-09-24
  _audit_creation_method            'ToBaCCo'
  _symmetry_space_group_name_H-M    'P1'
  _symmetry_Int_Tables_number       1
  _symmetry_cell_setting            triclinic
  loop_
  _symmetry_equiv_pos_as_xyz
 x,y,z
_cell_length_a 32.1071
_cell_length_b 31.7086
_cell_length_c 31.9335
_cell_angle_alpha 90.285300
_cell_angle_beta 89.743200
_cell_angle_gamma 89.733700
loop_
  _atom_site_label
  _atom_site_type_symbol
  _atom_site_fract_x
  _atom_site_fract_y
  _atom_site_fract_z
C1 C 0.16528 1.21868 0.22512
 C2 C 0.14791 1.25649 0.21061
 C3 C 0.16608 1.27858 0.17694
 C4 C 0.20237 1.26167 0.15803
 C5 C 0.22041 1.22418 0.17262
 C6 C 0.20163 1.20242 0.20611
 C7 C 0.14603 1.19627 0.25758
 C8 C 0.16184 1.15694 0.27070
 C9 C 0.19912 1.14182 0.25245
 C10 C 0.21871 1.16392 0.21999
 C11 C 0.25457 1.14760 0.20050
 C12 C 0.27366 1.16932 0.16739
 C13 C 0.25630 1.20744 0.15343
 H14 H 0.12024 1.26893 0.22595
 H15 H 0.21561 1.27656 0.13057
 H16 H 0.11736 1.20851 0.27110
 H17 H 0.21308 1.11281 0.26368
 H18 H 0.26727 1.11755 0.21046
 H19 H 0.27068 1.22385 0.12745
 C20 C 0.83854 0.79528 0.20170
 C21 C 0.85893 0.76399 0.17808
 C22 C 0.83844 0.74323 0.14504
 C23 C 0.79678 0.75395 0.13623
 C24 C 0.77649 0.78624 0.15868
 C25 C 0.79708 0.80631 0.19219
 C26 C 0.85932 0.81636 0.23408
 C27 C 0.83921 0.84836 0.25740
 C28 C 0.79725 0.85797 0.24879
 C29 C 0.77656 0.83813 0.21554
 C30 C 0.73644 0.85109 0.20393
 C31 C 0.71683 0.83315 0.16889
 C32 C 0.73670 0.80013 0.14695
 H33 H 0.89066 0.75522 0.18585
 H34 H 0.78085 0.73854 0.11051
 H35 H 0.89118 0.80770 0.24141
 H36 H 0.78151 0.88273 0.26638
 H37 H 0.72117 0.87658 0.22088
 H38 H 0.72199 0.78668 0.11949
 C39 C 0.84076 1.20745 -0.21039
 C40 C 0.85942 1.24187 -0.19031
 C41 C 0.84097 1.25996 -0.15458
 C42 C 0.80300 1.24436 -0.13944
 C43 C 0.78381 1.21004 -0.15933
 C44 C 0.80276 1.19149 -0.19499
 C45 C 0.86025 1.18787 -0.24472
 C46 C 0.84314 1.15152 -0.26338
 C47 C 0.80412 1.13710 -0.24900
 C48 C 0.78422 1.15641 -0.21466
 C49 C 0.74688 1.14014 -0.19864
 C50 C 0.72809 1.15816 -0.16294
 C51 C 0.74679 1.19302 -0.14337
 H52 H 0.88893 1.25394 -0.20161
 H53 H 0.78908 1.25832 -0.11161
 H54 H 0.88904 1.20087 -0.25685
 H55 H 0.79031 1.10926 -0.26296
 H56 H 0.73276 1.11286 -0.21335
 H57 H 0.73289 1.20626 -0.11519
 C58 C 0.15995 0.77810 -0.21411
 C59 C 0.14182 0.74399 -0.19319
 C60 C 0.15971 0.72777 -0.15632
 C61 C 0.19809 0.74421 -0.14270
 C62 C 0.21664 0.77826 -0.16335
 C63 C 0.19734 0.79558 -0.19900
 C64 C 0.14026 0.79627 -0.24877
 C65 C 0.15723 0.83195 -0.26806
 C66 C 0.19474 0.84892 -0.25349
 C67 C 0.21484 0.83111 -0.21887
 C68 C 0.25122 0.84917 -0.20275
 C69 C 0.27035 0.83200 -0.16728
 C70 C 0.25333 0.79635 -0.14796
 H71 H 0.11232 0.73177 -0.20423
 H72 H 0.21339 0.73066 -0.11567
 H73 H 0.11103 0.78361 -0.26005
 H74 H 0.20745 0.87675 -0.26835
 H75 H 0.26431 0.87705 -0.21718
 H76 H 0.26797 0.78372 -0.12014
 C77 C 0.55788 1.05747 -0.01356
 H78 H 0.55470 1.06150 0.01997
 C79 C 0.58755 1.08069 -0.03555
 H80 H 0.60723 1.10281 -0.01903
 C81 C 0.53707 1.02276 -0.07597
 H82 H 0.51809 0.99942 -0.09143
 C83 C 0.56667 1.04504 -0.09910
 H84 H 0.57003 1.03921 -0.13240
 N85 N 0.53305 1.02953 -0.03400
 C86 C 0.43343 1.01412 0.05785
 H87 H 0.43421 0.98017 0.06096
 C88 C 0.40535 1.03797 0.08167
 H89 H 0.38446 1.02244 0.10335
 C90 C 0.45903 1.07586 0.02511
 H91 H 0.47940 1.09036 0.00240
 C92 C 0.43106 1.10089 0.04804
 H93 H 0.43027 1.13469 0.04335
 Zn94 Zn 0.49543 0.99767 -0.00118
 N95 N 0.45991 1.03331 0.03066
 C96 C 0.52958 0.97104 0.07639
 N97 N 0.52805 0.96343 0.03443
 C98 C 0.55236 0.93318 0.01621
 C99 C 0.57916 0.90872 0.04048
 C100 C 0.55635 0.94764 0.10175
 C101 C 0.43773 0.98498 -0.06489
 C102 C 0.40957 0.96296 -0.08983
 C103 C 0.42752 0.89920 -0.05278
 C104 C 0.45579 0.92235 -0.02887
 N105 N 0.46050 0.96443 -0.03547
 H106 H 0.51111 0.99615 0.09008
 H107 H 0.55130 0.92851 -0.01735
 H108 H 0.59884 0.88512 0.02564
 H109 H 0.55813 0.95453 0.13495
 H110 H 0.44128 1.01866 -0.06870
 H111 H 0.39159 0.97974 -0.11309
 H112 H 0.42316 0.86598 -0.04649
 H113 H 0.47294 0.90691 -0.00424
 C114 C 0.40412 1.08179 0.07679
 C115 C 0.59206 1.07441 -0.07876
 C116 C 0.40430 0.91951 -0.08394
 C117 C 0.58139 0.91613 0.08368
 C118 C -0.01558 0.55958 1.06403
 H119 H 0.01654 0.55378 1.07240
 C120 C -0.03716 0.59327 1.08227
 H121 H -0.02196 0.61247 1.10576
 C122 C -0.07393 0.54263 1.02205
 H123 H -0.08759 0.52352 0.99762
 C124 C -0.09618 0.57695 1.03852
 H125 H -0.12718 0.58372 1.02706
 N126 N -0.03416 0.53505 1.03456
 C127 C 0.06078 0.43662 1.02197
 H128 H 0.06462 0.43693 0.98830
 C129 C 0.08497 0.40950 1.04618
 H130 H 0.10760 0.38890 1.03119
 C131 C 0.02544 0.46184 1.08253
 H132 H 0.00135 0.48131 1.09643
 C133 C 0.04873 0.43489 1.10790
 H134 H 0.04297 0.43420 1.14133
 Zn135 Zn -0.00028 0.49659 1.00442
 N136 N 0.03222 0.46261 1.04043
 C137 C 0.07570 0.53302 0.97551
 N138 N 0.03377 0.53040 0.96995
 C139 C 0.01352 0.55630 0.94291
 C140 C 0.03533 0.58696 0.92078
 C141 C 0.09878 0.56323 0.95386
 C142 C -0.05956 0.43417 0.99422
 C143 C -0.08181 0.40261 0.97370
 C144 C -0.05022 0.42420 0.90841
 C145 C -0.02839 0.45534 0.93021
 N146 N -0.03322 0.45944 0.97241
 H147 H 0.09106 0.51315 0.99811
 H148 H -0.01994 0.55414 0.93979
 H149 H 0.01868 0.60831 0.90036
 H150 H 0.13192 0.56602 0.95933
 H151 H -0.06230 0.43783 1.02782
 H152 H -0.10185 0.38184 0.99146
 H153 H -0.04545 0.42026 0.87502
 H154 H -0.00660 0.47514 0.91366
 C155 C 0.07908 0.40868 1.08964
 C156 C -0.07728 0.60343 1.06816
 C157 C -0.07668 0.39714 0.93047
 C158 C 0.07824 0.59122 0.92701
 C159 C 1.05619 -0.01823 0.56192
 H160 H 1.05814 0.01576 0.56005
 C161 C 1.07767 -0.03967 0.59317
 H162 H 1.09646 -0.02224 0.61534
 C163 C 1.02738 -0.08227 0.53683
 H164 H 1.00647 -0.09853 0.51593
 C165 C 1.04852 -0.10503 0.56761
 H166 H 1.04434 -0.13881 0.56990
 N167 N 1.03155 -0.03962 0.53464
 C168 C 1.01334 0.05473 0.43785
 H169 H 0.97978 0.05763 0.43942
 C170 C 1.03559 0.07694 0.40763
 H171 H 1.01919 0.09721 0.38596
 C172 C 1.07549 0.02288 0.46261
 H173 H 1.09066 0.00073 0.48321
 C174 C 1.09898 0.04445 0.43268
 H175 H 1.13230 0.03929 0.43060
 Zn176 Zn 0.99927 -0.00571 0.49854
 N177 N 1.03341 0.02814 0.46434
 C178 C 0.97077 0.06993 0.53805
 N179 N 0.96515 0.02760 0.53389
 C180 C 0.93813 0.00636 0.55891
 C181 C 0.91618 0.02754 0.59044
 C182 C 0.94946 0.09236 0.56933
 C183 C 0.98602 -0.06817 0.43786
 C184 C 0.96492 -0.08804 0.40522
 C185 C 0.90470 -0.04461 0.42067
 C186 C 0.92653 -0.02645 0.45387
 N187 N 0.96665 -0.03801 0.46139
 H188 H 0.99319 0.08595 0.51853
 H189 H 0.93491 -0.02741 0.55532
 H190 H 0.89583 0.01010 0.61115
 H191 H 0.95514 0.12575 0.57355
 H192 H 1.01836 -0.07579 0.44357
 H193 H 0.98076 -0.11193 0.38665
 H194 H 0.87338 -0.03389 0.41390
 H195 H 0.91219 -0.00146 0.47212
 C196 C 1.07872 0.07117 0.40440
 C197 C 1.07338 -0.08342 0.59648
 C198 C 0.92439 -0.07494 0.39518
 C199 C 0.92260 0.07077 0.59642
 C200 C 0.08131 0.34537 1.13398
 C201 C 0.10233 0.31404 1.15578
 C202 C 0.14603 0.31467 1.16001
 C203 C 0.16801 0.35051 1.14456
 C204 C 0.14642 0.38192 1.12147
 C205 C 0.10293 0.37858 1.11549
 C206 C 0.16893 0.41660 1.10622
 N207 N 0.21001 0.42037 1.11493
 N208 N 0.22993 0.39207 1.13817
 C209 C 0.21033 0.35769 1.15367
 H210 H 0.04792 0.34271 1.12999
 H211 H 0.08418 0.28759 1.16682
 H212 H 0.15410 0.44122 1.08824
 H213 H 0.22781 0.33703 1.17393
 C214 C -0.13967 0.63776 1.09961
 C215 C -0.16054 0.67200 1.11751
 C216 C -0.14098 0.71133 1.12183
 C217 C -0.10086 0.71700 1.10352
 C218 C -0.08023 0.68234 1.08395
 C219 C -0.09908 0.64188 1.08395
 C220 C -0.04203 0.68982 1.06343
 N221 N -0.02543 0.72902 1.06332
 N222 N -0.04469 0.76149 1.08163
 C223 C -0.08189 0.75697 1.10127
 H224 H -0.15496 0.60738 1.09916
 H225 H -0.19130 0.66686 1.13059
 H226 H -0.02568 0.66530 1.04639
 H227 H -0.09674 0.78501 1.11370
 C228 C -0.13279 0.36835 0.88592
 C229 C -0.15300 0.33510 0.86589
 C230 C -0.13725 0.29391 0.86826
 C231 C -0.10069 0.28593 0.89169
 C232 C -0.08017 0.31973 0.91202
 C233 C -0.09653 0.36116 0.90905
 C234 C -0.04366 0.31089 0.93461
 N235 N -0.02927 0.27070 0.93703
 N236 N -0.04887 0.23885 0.91841
 C237 C -0.08407 0.24504 0.89591
 H238 H -0.14560 0.39992 0.88354
 H239 H -0.18093 0.34155 0.84808
 H240 H -0.02640 0.33549 0.95031
 H241 H -0.09879 0.21792 0.88174
 C242 C 0.10428 0.62735 0.86391
 C243 C 0.12317 0.66098 0.84361
 C244 C 0.13941 0.69538 0.86619
 C245 C 0.13417 0.69622 0.91068
 C246 C 0.11532 0.66147 0.93125
 C247 C 0.10068 0.62675 0.90750
 C248 C 0.10977 0.66353 0.97500
 N249 N 0.12135 0.69845 0.99649
 N250 N 0.13748 0.73170 0.97718
 C251 C 0.14373 0.73206 0.93519
 H252 H 0.09248 0.60133 0.84537
 H253 H 0.12635 0.65924 0.80985
 H254 H 0.09557 0.63816 0.99233
 H255 H 0.15476 0.76099 0.92150
 C256 C 1.10705 0.13484 0.37088
 C257 C 1.12625 0.15578 0.33791
 C258 C 1.14097 0.13382 0.30230
 C259 C 1.13402 0.08937 0.29978
 C260 C 1.11515 0.06808 0.33401
 C261 C 1.10180 0.09118 0.36971
 C262 C 1.10837 0.02436 0.33060
 N263 N 1.11850 0.00363 0.29477
 N264 N 1.13435 0.02373 0.26194
 C265 C 1.14189 0.06575 0.26296
 H266 H 1.09627 0.15291 0.39774
 H267 H 1.13086 0.18947 0.34111
 H268 H 1.09444 0.00652 0.35574
 H269 H 1.15263 0.08025 0.23442
 C270 C 1.12828 -0.13055 0.62418
 C271 C 1.14886 -0.15052 0.65699
 C272 C 1.13416 -0.14662 0.69819
 C273 C 1.09804 -0.12212 0.70658
 C274 C 1.07712 -0.10185 0.67324
 C275 C 1.09273 -0.10591 0.63184
 C276 C 1.04102 -0.07819 0.68250
 N277 N 1.02747 -0.07463 0.72265
 N278 N 1.04750 -0.09312 0.75407
 C279 C 1.08231 -0.11666 0.74747
 H280 H 1.14051 -0.13378 0.59264
 H281 H 1.17649 -0.16913 0.65025
 H282 H 1.02337 -0.06263 0.65825
 H283 H 1.09737 -0.13073 0.77424
 C284 C 0.86306 -0.10900 0.36275
 C285 C 0.84197 -0.12685 0.32912
 C286 C 0.86058 -0.12978 0.28930
 C287 C 0.90017 -0.11063 0.28280
 C288 C 0.92110 -0.09131 0.31698
 C289 C 0.90297 -0.09211 0.35765
 C290 C 0.95870 -0.07003 0.30885
 N291 N 0.97444 -0.06883 0.26945
 N292 N 0.95483 -0.08672 0.23741
 C293 C 0.91817 -0.10707 0.24258
 H294 H 0.84835 -0.10917 0.39336
 H295 H 0.81165 -0.14060 0.33492
 H296 H 0.97526 -0.05324 0.33303
 H297 H 0.90297 -0.11897 0.21488
 C298 C 0.86087 0.09895 0.63376
 C299 C 0.84141 0.11751 0.66831
 C300 C 0.86433 0.13019 0.70368
 C301 C 0.90800 0.12119 0.70453
 C302 C 0.92777 0.10298 0.66881
 C303 C 0.90389 0.09226 0.63317
 C304 C 0.97076 0.09419 0.67062
 N305 N 0.99218 0.10183 0.70628
 N306 N 0.97345 0.11706 0.74041
 C307 C 0.93222 0.12641 0.74098
 H308 H 0.84220 0.09006 0.60697
 H309 H 0.80823 0.12355 0.66647
 H310 H 0.98748 0.08057 0.64436
 H311 H 0.91875 0.13649 0.77041
 C312 C 0.33774 1.12114 0.08029
 C313 C 0.30633 1.14231 0.10218
 C314 C 0.30999 1.15039 0.14523
 C315 C 0.34705 1.13836 0.16617
 C316 C 0.37876 1.11626 0.14393
 C317 C 0.37359 1.10720 0.10083
 C318 C 0.41493 1.10428 0.16559
 N319 N 0.41913 1.11440 0.20665
 N320 N 0.38970 1.13576 0.22739
 C321 C 0.35394 1.14821 0.20857
 H322 H 0.33350 1.11446 0.04727
 H323 H 0.27832 1.15132 0.08561
 H324 H 0.44003 1.08736 0.15016
 H325 H 0.33157 1.16616 0.22681
 C326 C 0.66136 1.07522 -0.11229
 C327 C 0.69401 1.09541 -0.13268
 C328 C 0.69092 1.13803 -0.14389
 C329 C 0.65337 1.16033 -0.13531
 C330 C 0.62034 1.13984 -0.11396
 C331 C 0.62472 1.09708 -0.10217
 C332 C 0.58365 1.16278 -0.10559
 N333 N 0.58021 1.20336 -0.11836
 N334 N 0.61089 1.22241 -0.13902
 C335 C 0.64722 1.20228 -0.14809
 H336 H 0.66502 1.04245 -0.10353
 H337 H 0.72239 1.07781 -0.13894
 H338 H 0.55757 1.14873 -0.08935
 H339 H 0.67063 1.21913 -0.16565
 C340 C 0.33100 0.91187 -0.10589
 C341 C 0.29875 0.89084 -0.12591
 C342 C 0.30633 0.85349 -0.14819
 C343 C 0.34746 0.83753 -0.15130
 C344 C 0.38056 0.85930 -0.13144
 C345 C 0.37197 0.89641 -0.10780
 C346 C 0.42128 0.84357 -0.13685
 N347 N 0.42795 0.80793 -0.15961
 N348 N 0.39678 0.78715 -0.17760
 C349 C 0.35679 0.80076 -0.17432
 H350 H 0.32377 0.94015 -0.08805
 H351 H 0.26738 0.90340 -0.12338
 H352 H 0.44794 0.85950 -0.12376
 H353 H 0.33275 0.78296 -0.19001
 C354 C 0.64747 0.91643 0.12244
 C355 C 0.67997 0.89643 0.14316
 C356 C 0.67863 0.85306 0.15161
 C357 C 0.64259 0.82991 0.14040
 C358 C 0.60976 0.85024 0.11858
 C359 C 0.61275 0.89369 0.10905
 C360 C 0.57468 0.82641 0.10743
 N361 N 0.57254 0.78511 0.11802
 N362 N 0.60300 0.76618 0.13910
 C363 C 0.63783 0.78716 0.15079
 H364 H 0.65012 0.94972 0.11542
 H365 H 0.70718 0.91477 0.15126
 H366 H 0.54879 0.84034 0.09082
 H367 H 0.66112 0.77037 0.16858
   
