data_POSCAR
  _audit_creation_date              2014-09-24
  _audit_creation_method            'ToBaCCo'
  _symmetry_space_group_name_H-M    'P1'
  _symmetry_Int_Tables_number       1
  _symmetry_cell_setting            triclinic
  loop_
  _symmetry_equiv_pos_as_xyz
 x,y,z
_cell_length_a 26.0879
_cell_length_b 25.6453
_cell_length_c 46.8228
_cell_angle_alpha 88.151300
_cell_angle_beta 92.959700
_cell_angle_gamma 90.555900
loop_
  _atom_site_label
  _atom_site_type_symbol
  _atom_site_fract_x
  _atom_site_fract_y
  _atom_site_fract_z
C1 C 0.00564 0.38711 1.02367
 C2 C 0.00436 0.36549 0.99646
 C3 C 0.00720 0.39631 0.97155
 C4 C 0.01149 0.45096 0.97324
 C5 C 0.01242 0.47431 1.00032
 C6 C 0.01024 0.44237 1.02570
 C7 C 0.01775 0.46625 1.05222
 C8 C 0.02318 0.52001 1.05393
 C9 C 0.02165 0.55278 1.02922
 C10 C 0.01795 0.52955 1.00205
 C11 C 0.01643 0.48259 0.94855
 C12 C 0.02271 0.53619 0.95027
 C13 C 0.02198 0.56103 0.97665
 C14 C 0.02957 0.61588 0.97854
 C15 C 0.03478 0.63745 1.00572
 C16 C 0.02879 0.60762 1.03100
 H17 H 0.02169 0.44368 1.07207
 H18 H 0.03082 0.53535 1.07499
 H19 H 0.01679 0.46600 0.92759
 H20 H 0.02987 0.55753 0.93060
 H21 H 0.00022 0.32360 0.99442
 H22 H 0.03830 0.67952 1.00707
 C23 C 0.38786 0.01659 0.52692
 C24 C 0.35857 0.02056 0.50109
 C25 C 0.38066 0.01498 0.47483
 C26 C 0.43413 0.00713 0.47405
 C27 C 0.46471 0.00408 0.50001
 C28 C 0.44141 0.00817 0.52656
 C29 C 0.47219 0.00353 0.55199
 C30 C 0.52459 -0.00552 0.55144
 C31 C 0.54928 -0.00727 0.52543
 C32 C 0.51858 -0.00375 0.49942
 C33 C 0.45774 0.00241 0.44798
 C34 C 0.51025 -0.00587 0.44738
 C35 C 0.54136 -0.00894 0.47279
 C36 C 0.59452 -0.01830 0.47228
 C37 C 0.62408 -0.02263 0.49794
 C38 C 0.60311 -0.01585 0.52462
 H39 H 0.45608 0.00631 0.57270
 H40 H 0.54514 -0.01213 0.57184
 H41 H 0.43577 0.00500 0.42775
 H42 H 0.52614 -0.01033 0.42671
 H43 H 0.31740 0.02593 0.50148
 H44 H 0.66514 -0.02785 0.49677
 C45 C 0.06222 0.02926 0.27325
 H46 H 0.05801 0.05696 0.25544
 C47 C 0.10402 0.03365 0.29297
 H48 H 0.13177 0.06485 0.29019
 C49 C 0.03182 -0.04550 0.29849
 H50 H 0.00319 -0.07602 0.30052
 C51 C 0.07327 -0.04294 0.31845
 H52 H 0.07619 -0.07144 0.33602
 N53 N 0.02710 -0.00980 0.27643
 C54 C -0.06533 -0.09597 0.21340
 H55 H -0.10076 -0.07424 0.21201
 C56 C -0.05953 -0.13794 0.19560
 H57 H -0.09082 -0.14860 0.18076
 C58 C 0.02013 -0.10552 0.23247
 H59 H 0.05166 -0.09182 0.24618
 C60 C 0.02777 -0.14721 0.21476
 H61 H 0.06493 -0.16579 0.21533
 Zn62 Zn -0.03088 -0.01676 0.25086
 N63 N -0.02559 -0.08019 0.23116
 C64 C -0.02736 0.02810 0.19531
 N65 N -0.03271 0.03983 0.22314
 C66 C -0.03615 0.09041 0.23089
 C67 C -0.03352 0.13122 0.21040
 C68 C -0.02489 0.06747 0.17423
 C69 C -0.12176 -0.05987 0.27434
 C70 C -0.16239 -0.06135 0.29268
 C71 C -0.13632 0.02368 0.30895
 C72 C -0.09615 0.02347 0.29039
 N73 N -0.08976 -0.01764 0.27331
 H74 H -0.02358 -0.01181 0.18927
 H75 H -0.03899 0.09950 0.25306
 H76 H -0.03469 0.17117 0.21712
 H77 H -0.02069 0.05686 0.15228
 H78 H -0.11513 -0.09327 0.26167
 H79 H -0.18729 -0.09535 0.29324
 H80 H -0.13979 0.05625 0.32286
 H81 H -0.06886 0.05531 0.29055
 C82 C -0.01207 -0.16319 0.19567
 C83 C 0.10990 -0.00286 0.31587
 C84 C -0.16992 -0.01926 0.31039
 C85 C -0.02708 0.11990 0.18167
 C86 C -0.02173 0.11424 0.76548
 H87 H -0.04996 0.11175 0.74787
 C88 C -0.02275 0.15622 0.78377
 H89 H -0.05201 0.18570 0.78016
 C90 C 0.05093 0.07933 0.79165
 H91 H 0.07918 0.04881 0.79474
 C92 C 0.05161 0.12074 0.81024
 H93 H 0.08024 0.12151 0.82781
 N94 N 0.01426 0.07641 0.77005
 C95 C 0.08804 -0.02792 0.71391
 H96 H 0.06464 -0.06266 0.71640
 C97 C 0.12890 -0.02783 0.69583
 H98 H 0.13627 -0.06271 0.68433
 C99 C 0.10413 0.06069 0.72444
 H100 H 0.09364 0.09539 0.73519
 C101 C 0.14561 0.06240 0.70670
 H102 H 0.16729 0.09836 0.70441
 Zn103 Zn 0.01512 0.01596 0.74801
 N104 N 0.07574 0.01624 0.72726
 C105 C -0.03481 0.00688 0.69342
 N106 N -0.04315 0.01345 0.72153
 C107 C -0.09177 0.01816 0.73045
 C108 C -0.13410 0.01456 0.71097
 C109 C -0.07585 0.00247 0.67339
 C110 C 0.06223 -0.06420 0.78220
 C111 C 0.06537 -0.10461 0.80290
 C112 C -0.02656 -0.10084 0.80615
 C113 C -0.02792 -0.06037 0.78545
 N114 N 0.01608 -0.04283 0.77388
 H115 H 0.00369 0.00486 0.68627
 H116 H -0.09785 0.02528 0.75263
 H117 H -0.17252 0.01773 0.71843
 H118 H -0.06824 -0.00308 0.65117
 H119 H 0.09699 -0.04896 0.77336
 H120 H 0.10250 -0.12090 0.80929
 H121 H -0.06187 -0.11335 0.81556
 H122 H -0.06410 -0.04249 0.77914
 C123 C 0.15777 0.01805 0.69159
 C124 C 0.01400 0.15949 0.80666
 C125 C 0.02061 -0.12314 0.81534
 C126 C -0.12624 0.00573 0.68212
 C127 C 0.01769 -0.30386 0.10489
 C128 C 0.05885 -0.29493 0.08717
 C129 C 0.06305 -0.32538 0.06312
 C130 C 0.02706 -0.36546 0.05688
 C131 C -0.01354 -0.37440 0.07534
 C132 C -0.01861 -0.34343 0.09920
 C133 C 0.01149 -0.26988 0.12928
 C134 C -0.03120 -0.27693 0.14614
 C135 C -0.03829 -0.24271 0.16840
 C136 C -0.00269 -0.20218 0.17393
 C137 C 0.04054 -0.19657 0.15727
 C138 C 0.04752 -0.22993 0.13471
 C139 C -0.06013 -0.35015 0.11698
 C140 C -0.06642 -0.31734 0.13999
 C141 C 0.09446 -0.25498 0.09351
 C142 C 0.08902 -0.22317 0.11696
 H143 H -0.08845 -0.38050 0.11281
 H144 H -0.09941 -0.32334 0.15288
 H145 H 0.12653 -0.24789 0.08005
 H146 H 0.11705 -0.19246 0.12094
 H147 H 0.09461 -0.31813 0.04928
 H148 H -0.04276 -0.40349 0.07027
 H149 H -0.07157 -0.24717 0.18122
 H150 H 0.06758 -0.16489 0.16114
 C151 C -0.00479 0.27819 0.09284
 C152 C -0.03572 0.32277 0.09191
 C153 C -0.03161 0.35969 0.06927
 C154 C 0.00320 0.35219 0.04764
 C155 C 0.03357 0.30678 0.04907
 C156 C 0.03003 0.27004 0.07162
 C157 C -0.00960 0.23870 0.11619
 C158 C 0.02111 0.19401 0.11685
 C159 C 0.01579 0.15610 0.13867
 C160 C -0.02047 0.16203 0.15960
 C161 C -0.05053 0.20752 0.15889
 C162 C -0.04528 0.24600 0.13713
 C163 C 0.06044 0.22505 0.07318
 C164 C 0.05615 0.18772 0.09547
 C165 C -0.07069 0.32900 0.11339
 C166 C -0.07540 0.29127 0.13560
 H167 H 0.08759 0.21849 0.05694
 H168 H 0.08009 0.15339 0.09581
 H169 H -0.09485 0.36317 0.11295
 H170 H -0.10308 0.29747 0.15160
 H171 H -0.05679 0.39317 0.06791
 H172 H 0.06079 0.30047 0.03280
 H173 H 0.03991 0.12186 0.13934
 H174 H -0.07872 0.21234 0.17478
 C175 C 0.29960 0.02149 0.60123
 C176 C 0.32771 -0.02354 0.59639
 C177 C 0.35780 -0.02450 0.57244
 C178 C 0.36020 0.01936 0.55369
 C179 C 0.33233 0.06438 0.55902
 C180 C 0.30178 0.06562 0.58275
 C181 C 0.26585 0.02180 0.62554
 C182 C 0.23625 0.06607 0.62972
 C183 C 0.20228 0.06522 0.65197
 C184 C 0.19766 0.02047 0.67000
 C185 C 0.22881 -0.02306 0.66594
 C186 C 0.26262 -0.02277 0.64359
 C187 C 0.27241 0.10960 0.58799
 C188 C 0.24012 0.10978 0.61105
 C189 C 0.32418 -0.06706 0.61521
 C190 C 0.29230 -0.06663 0.63847
 H191 H 0.27382 0.14388 0.57390
 H192 H 0.21753 0.14421 0.61408
 H193 H 0.34579 -0.10196 0.61176
 H194 H 0.29021 -0.10123 0.65227
 H195 H 0.37847 -0.05955 0.56796
 H196 H 0.33369 0.09786 0.54433
 H197 H 0.17798 0.09862 0.65448
 H198 H 0.22614 -0.05745 0.67988
 C199 C -0.28826 -0.01167 0.59475
 C200 C -0.32703 0.02599 0.59219
 C201 C -0.36381 0.02399 0.56926
 C202 C -0.36254 -0.01585 0.54912
 C203 C -0.32310 -0.05332 0.55231
 C204 C -0.28606 -0.05143 0.57498
 C205 C -0.24827 -0.00856 0.61809
 C206 C -0.20861 -0.04532 0.62002
 C207 C -0.16958 -0.04102 0.64149
 C208 C -0.16990 -0.00034 0.66096
 C209 C -0.21060 0.03551 0.65922
 C210 C -0.24974 0.03183 0.63760
 C211 C -0.24634 -0.08810 0.57796
 C212 C -0.20822 -0.08506 0.60009
 C213 C -0.32752 0.06558 0.61225
 C214 C -0.28963 0.06836 0.63462
 H215 H -0.24435 -0.11905 0.56285
 H216 H -0.17787 -0.11373 0.60143
 H217 H -0.35724 0.09489 0.61054
 H218 H -0.29123 0.09974 0.64949
 H219 H -0.39199 0.05476 0.56643
 H220 H -0.32146 -0.08437 0.53720
 H221 H -0.13861 -0.06903 0.64295
 H222 H -0.21078 0.06715 0.67402
 C223 C 0.02789 -0.27655 0.90812
 C224 C 0.06629 -0.27271 0.93007
 C225 C 0.06688 -0.30885 0.95317
 C226 C 0.02988 -0.34939 0.95436
 C227 C -0.00882 -0.35199 0.93216
 C228 C -0.00980 -0.31591 0.90897
 C229 C 0.02663 -0.23805 0.88400
 C230 C -0.01238 -0.24121 0.86230
 C231 C -0.01387 -0.20395 0.83966
 C232 C 0.02331 -0.16377 0.83867
 C233 C 0.06236 -0.16151 0.86055
 C234 C 0.06411 -0.19844 0.88330
 C235 C -0.04809 -0.31800 0.88679
 C236 C -0.04934 -0.28130 0.86384
 C237 C 0.10326 -0.23264 0.92856
 C238 C 0.10222 -0.19616 0.90556
 H239 H -0.07744 -0.34815 0.88720
 H240 H -0.07964 -0.28420 0.84723
 H241 H 0.13315 -0.22934 0.94537
 H242 H 0.13133 -0.16575 0.90527
 H243 H 0.09688 -0.30609 0.96999
 H244 H -0.03915 -0.38107 0.93339
 H245 H -0.04379 -0.20626 0.82280
 H246 H 0.09063 -0.13026 0.86025
 C247 C 0.00799 0.30756 0.89606
 C248 C -0.03880 0.31666 0.90855
 C249 C -0.03911 0.34755 0.93271
 C250 C 0.00687 0.36914 0.94418
 C251 C 0.05327 0.36071 0.93115
 C252 C 0.05411 0.32964 0.90708
 C253 C 0.00902 0.27257 0.87172
 C254 C 0.05611 0.26161 0.86006
 C255 C 0.05729 0.22601 0.83800
 C256 C 0.01185 0.20131 0.82770
 C257 C -0.03526 0.21396 0.83906
 C258 C -0.03683 0.24925 0.86126
 C259 C 0.10026 0.31887 0.89433
 C260 C 0.10125 0.28537 0.87123
 C261 C -0.08402 0.29348 0.89712
 C262 C -0.08307 0.26041 0.87383
 H263 H 0.13604 0.33574 0.90259
 H264 H 0.13778 0.27737 0.86234
 H265 H -0.12035 0.30033 0.90652
 H266 H -0.11870 0.24272 0.86594
 H267 H -0.07467 0.35380 0.94307
 H268 H 0.08867 0.37698 0.94034
 H269 H 0.09359 0.21678 0.82917
 H270 H -0.07027 0.19461 0.83150
 C271 C -0.31594 -0.02277 0.39855
 C272 C -0.32106 -0.06807 0.41589
 C273 C -0.35229 -0.06701 0.43934
 C274 C -0.37816 -0.02113 0.44542
 C275 C -0.37340 0.02368 0.42759
 C276 C -0.34218 0.02311 0.40410
 C277 C -0.28089 -0.02278 0.37482
 C278 C -0.27424 0.02309 0.35818
 C279 C -0.23903 0.02358 0.33651
 C280 C -0.21039 -0.02127 0.33156
 C281 C -0.21846 -0.06727 0.34807
 C282 C -0.25346 -0.06816 0.36983
 C283 C -0.33542 0.06788 0.38656
 C284 C -0.30202 0.06787 0.36398
 C285 C -0.29371 -0.11300 0.40989
 C286 C -0.26052 -0.11306 0.38723
 H287 H -0.35552 0.10347 0.39059
 H288 H -0.29734 0.10345 0.35124
 H289 H -0.29743 -0.14821 0.42307
 H290 H -0.23961 -0.14833 0.38357
 H291 H -0.35556 -0.10126 0.45334
 H292 H -0.39266 0.05925 0.43265
 H293 H -0.23342 0.05898 0.32373
 H294 H -0.19609 -0.10174 0.34472
 C295 C 0.27245 0.00984 0.40334
 C296 C 0.29883 -0.03567 0.41255
 C297 C 0.33571 -0.03322 0.43533
 C298 C 0.34574 0.01414 0.44895
 C299 C 0.31935 0.05949 0.43941
 C300 C 0.28269 0.05761 0.41645
 C301 C 0.23230 0.00708 0.38006
 C302 C 0.20539 0.05240 0.37110
 C303 C 0.16627 0.04924 0.34950
 C304 C 0.15349 0.00103 0.33728
 C305 C 0.18123 -0.04389 0.34634
 C306 C 0.22077 -0.04107 0.36769
 C307 C 0.25534 0.10221 0.40670
 C308 C 0.21745 0.09968 0.38435
 C309 C 0.28692 -0.08290 0.39924
 C310 C 0.24847 -0.08558 0.37722
 H311 H 0.26297 0.13929 0.41659
 H312 H 0.19697 0.13490 0.37764
 H313 H 0.30704 -0.11824 0.40616
 H314 H 0.24003 -0.12290 0.36777
 H315 H 0.35565 -0.06822 0.44306
 H316 H 0.32689 0.09577 0.45018
 H317 H 0.14468 0.08382 0.34281
 H318 H 0.17187 -0.08098 0.33680
   
