data_POSCAR
  _audit_creation_date              2014-09-24
  _audit_creation_method            'ToBaCCo'
  _symmetry_space_group_name_H-M    'P1'
  _symmetry_Int_Tables_number       1
  _symmetry_cell_setting            triclinic
  loop_
  _symmetry_equiv_pos_as_xyz
 x,y,z
_cell_length_a 22.5400
_cell_length_b 22.4758
_cell_length_c 22.9893
_cell_angle_alpha 90.042400
_cell_angle_beta 88.962800
_cell_angle_gamma 88.826100
loop_
  _atom_site_label
  _atom_site_type_symbol
  _atom_site_fract_x
  _atom_site_fract_y
  _atom_site_fract_z
C1 C 0.24152 0.30391 1.32264
 N2 N 0.28990 0.28119 1.35029
 C3 C 0.34474 0.28513 1.32479
 N4 N 0.35102 0.31495 1.27373
 C5 C 0.30319 0.33846 1.24672
 N6 N 0.24844 0.33177 1.27065
 C7 C 1.24630 0.68807 0.83829
 N8 N 1.20627 0.73388 0.84198
 C9 C 1.16006 0.73730 0.80509
 N10 N 1.15347 0.69387 0.76456
 C11 C 1.19330 0.64774 0.76072
 N12 N 1.23968 0.64514 0.79756
 C13 C 0.73336 -0.19282 0.15107
 N14 N 0.69479 -0.23813 0.14835
 C15 C 0.65131 -0.24375 0.18943
 N16 N 0.64664 -0.20377 0.23378
 C17 C 0.68579 -0.15882 0.23713
 N18 N 0.72870 -0.15333 0.19552
 C19 C -0.23118 1.18842 -0.33881
 N20 N -0.19138 1.23240 -0.34538
 C21 C -0.15078 1.24258 -0.30401
 N22 N -0.14930 1.20757 -0.25585
 C23 C -0.18843 1.16273 -0.24933
 N24 N -0.22948 1.15339 -0.29085
 C25 C 0.72823 0.67670 0.63229
 N26 N 0.68424 0.71780 0.62277
 C27 C 0.63945 0.72616 0.66253
 N28 N 0.63837 0.69233 0.71152
 C29 C 0.68193 0.65122 0.72145
 N30 N 0.72719 0.64388 0.68198
 C31 C 0.78566 0.32942 0.14731
 N32 N 0.79673 0.37327 0.18624
 C33 C 0.84133 0.36620 0.22511
 N34 N 0.87542 0.31548 0.22417
 C35 C 0.86603 0.27269 0.18366
 N36 N 0.82104 0.27990 0.14589
 C37 C 0.27993 0.16357 0.87183
 N38 N 0.31611 0.21131 0.87502
 C39 C 0.35683 0.22149 0.83201
 N40 N 0.36121 0.18391 0.78595
 C41 C 0.32549 0.13634 0.78245
 N42 N 0.28472 0.12631 0.82529
 C43 C 0.25023 0.84050 0.31673
 N44 N 0.24315 0.79309 0.35263
 C45 C 0.19938 0.75366 0.34306
 N46 N 0.16307 0.76156 0.29718
 C47 C 0.17061 0.80820 0.26044
 N48 N 0.21381 0.84775 0.27064
 Zn49 Zn -0.00986 1.06865 -0.01368
 Zn50 Zn -0.04672 0.94796 -0.04571
 Zn51 Zn 0.07396 0.96292 -0.00409
 Zn52 Zn -0.03291 0.97744 0.07410
 O53 O -0.00232 0.99031 0.00245
 O54 O -0.06218 1.08338 -0.07113
 O55 O -0.00519 0.91023 -0.10132
 O56 O 0.12402 1.02331 -0.01728
 O57 O -0.09996 0.99355 -0.08144
 O58 O 0.06090 1.09937 -0.03198
 O59 O 0.08507 0.91297 -0.06522
 O60 O 0.01231 0.92619 0.11252
 O61 O -0.08588 0.89131 -0.00807
 O62 O 0.09568 0.92000 0.05943
 O63 O -0.10407 0.94329 0.07183
 O64 O -0.04109 1.04337 0.11784
 O65 O -0.03575 1.11141 0.04831
 C66 C -0.09992 1.04876 -0.09293
 C67 C 0.04929 0.89533 -0.10339
 C68 C 0.11343 1.07764 -0.03000
 C69 C 0.06415 0.90494 0.10337
 C70 C -0.11455 0.89931 0.03922
 C71 C -0.04442 1.09712 0.10118
 Zn72 Zn 0.50505 -0.06302 0.47164
 Zn73 Zn 0.52214 0.02001 0.57260
 Zn74 Zn 0.55041 0.05853 0.45247
 Zn75 Zn 0.42990 0.04418 0.48891
 O76 O 0.50316 0.01372 0.49690
 O77 O 0.52249 -0.11413 0.52970
 O78 O 0.58427 0.06822 0.58441
 O79 O 0.59544 0.01588 0.40347
 O80 O 0.53906 -0.05192 0.60287
 O81 O 0.56226 -0.07533 0.41717
 O82 O 0.60043 0.09950 0.49423
 O83 O 0.42940 0.12115 0.46658
 O84 O 0.46090 0.04905 0.61567
 O85 O 0.51000 0.11203 0.41098
 O86 O 0.38663 0.03859 0.55476
 O87 O 0.39288 0.00610 0.43315
 O88 O 0.43662 -0.08326 0.43628
 C89 C 0.53709 -0.10431 0.58203
 C90 C 0.61213 0.10026 0.54790
 C91 C 0.59730 -0.03936 0.39239
 C92 C 0.46256 0.13999 0.42561
 C93 C 0.40572 0.04921 0.60528
 C94 C 0.39647 -0.04794 0.41733
 Zn95 Zn 0.97776 0.42399 0.48580
 Zn96 Zn 1.09084 0.48187 0.50710
 Zn97 Zn 0.99004 0.54873 0.45425
 Zn98 Zn 0.99108 0.51428 0.57641
 O99 O 1.01211 0.49207 0.50470
 O100 O 1.03045 0.37447 0.45067
 O101 O 1.12599 0.54337 0.47320
 O102 O 0.95943 0.51546 0.39026
 O103 O 1.11662 0.41607 0.46914
 O104 O 0.92122 0.43555 0.43228
 O105 O 1.05205 0.59494 0.43303
 O106 O 0.92806 0.56429 0.57715
 O107 O 1.11748 0.48190 0.58031
 O108 O 0.93098 0.59516 0.48539
 O109 O 1.05173 0.54927 0.61167
 O110 O 0.97182 0.45070 0.61883
 O111 O 0.94864 0.38659 0.54930
 C112 C 1.08659 0.37607 0.44487
 C113 C 1.10687 0.58811 0.44486
 C114 C 0.92544 0.47083 0.38912
 C115 C 0.90714 0.59575 0.53612
 C116 C 1.10252 0.52399 0.61494
 C117 C 0.95221 0.40075 0.60283
 Zn118 Zn 0.49617 0.42191 1.01487
 Zn119 Zn 0.45535 0.54506 1.04182
 Zn120 Zn 0.58257 0.52125 1.01173
 Zn121 Zn 0.49036 0.51360 0.92018
 O122 O 0.50635 0.50031 0.99690
 O123 O 0.44033 0.41043 1.07027
 O124 O 0.49178 0.58951 1.09361
 O125 O 0.62640 0.46060 1.03944
 O126 O 0.40377 0.50187 1.08212
 O127 O 0.56336 0.38613 1.03878
 O128 O 0.58605 0.57837 1.06600
 O129 O 0.55305 0.54135 0.88011
 O130 O 0.41144 0.59561 1.00086
 O131 O 0.62167 0.54699 0.94767
 O132 O 0.43212 0.56820 0.91011
 O133 O 0.46765 0.44734 0.88376
 O134 O 0.47094 0.38011 0.95427
 C135 C 0.40234 0.44659 1.09242
 C136 C 0.54602 0.60170 1.09876
 C137 C 0.61453 0.40640 1.04815
 C138 C 0.60524 0.55354 0.89541
 C139 C 0.40385 0.60077 0.94667
 C140 C 0.46013 0.39471 0.90221
 C141 C 1.18552 0.30411 0.34880
 C142 C 1.13412 0.29679 0.31817
 C143 C 1.08924 0.31472 0.35483
 C144 C 1.11662 0.33446 0.40421
 O145 O 1.17512 0.32746 0.40097
 H146 H 1.13019 0.28327 0.27321
 H147 H 1.04284 0.31974 0.34407
 C148 C 0.29125 0.68258 0.87863
 C149 C 0.29804 0.72008 0.92558
 C150 C 0.34258 0.69484 0.95700
 C151 C 0.36011 0.64456 0.92634
 O152 O 0.32926 0.63700 0.87873
 H153 H 0.27205 0.75960 0.93685
 H154 H 0.35945 0.71041 0.99796
 C155 C -0.22509 0.81591 0.10688
 C156 C -0.21735 0.78032 0.05821
 C157 C -0.17440 0.80710 0.02563
 C158 C -0.15956 0.85683 0.05696
 O159 O -0.19000 0.86220 0.10622
 H160 H -0.24058 0.74019 0.04750
 H161 H -0.15621 0.79235 -0.01595
 C162 C 0.72609 0.17771 0.61514
 C163 C 0.72548 0.20877 0.56345
 C164 C 0.68209 0.18391 0.53190
 C165 C 0.65913 0.13975 0.56678
 O166 O 0.68568 0.13575 0.61754
 H167 H 0.75402 0.24458 0.55000
 H168 H 0.66897 0.19615 0.48838
 C169 C 0.39419 0.25636 0.34831
 C170 C 0.45108 0.26175 0.32576
 C171 C 0.48463 0.22105 0.35465
 C172 C 0.44601 0.19363 0.39275
 O173 O 0.39101 0.21529 0.38957
 H174 H 0.46589 0.29018 0.29061
 H175 H 0.53118 0.21051 0.34691
 C176 C 0.88906 0.28835 0.68780
 C177 C 0.92790 0.30852 0.72880
 C178 C 0.95634 0.35471 0.70263
 C179 C 0.93349 0.35821 0.64744
 O180 O 0.89267 0.31821 0.63836
 H181 H 0.93401 0.29227 0.77265
 H182 H 0.99021 0.38201 0.72115
 C183 C 0.11798 0.78306 -0.18797
 C184 C 0.06796 0.79059 -0.22116
 C185 C 0.03666 0.83643 -0.19549
 C186 C 0.07011 0.85358 -0.14887
 O187 O 0.11956 0.82151 -0.14441
 H188 H 0.05473 0.76438 -0.25807
 H189 H -0.00656 0.85358 -0.20771
 C190 C 0.60952 0.71245 1.18261
 C191 C 0.55897 0.70585 1.21666
 C192 C 0.52815 0.66209 1.19014
 C193 C 0.56277 0.64502 1.14265
 O194 O 0.61207 0.67526 1.13811
 H195 H 0.54514 0.73137 1.25467
 H196 H 0.48521 0.64539 1.20313
 C197 C 0.31167 0.37609 1.19537
 C198 C 0.26983 0.41645 1.17547
 C199 C 0.29845 0.44829 1.13353
 C200 C 0.35519 0.42426 1.13055
 O201 O 0.36349 0.38052 1.16800
 H202 H 0.22482 0.42364 1.19155
 H203 H 0.28051 0.48509 1.10861
 C204 C 0.67870 -0.11318 0.28232
 C205 C 0.71379 -0.06380 0.28610
 C206 C 0.68850 -0.02992 0.32925
 C207 C 0.64022 -0.06147 0.34869
 O208 O 0.63411 -0.11208 0.32042
 H209 H 0.75196 -0.05287 0.25924
 H210 H 0.70268 0.01319 0.34397
 C211 C -0.18287 1.12115 -0.20045
 C212 C -0.22052 1.07451 -0.19046
 C213 C -0.19534 1.04240 -0.14690
 C214 C -0.14438 1.07201 -0.13335
 O215 O -0.13667 1.11996 -0.16566
 H216 H -0.26016 1.06381 -0.21386
 H217 H -0.21109 1.00118 -0.12851
 C218 C 1.18447 0.59907 0.71926
 C219 C 1.22452 0.55279 0.70916
 C220 C 1.19878 0.51767 0.66879
 C221 C 1.14480 0.54494 0.65777
 O222 O 1.13600 0.59439 0.68820
 H223 H 1.26740 0.54570 0.72872
 H224 H 1.21717 0.47725 0.64950
 C225 C 0.77675 0.66767 0.58901
 C226 C 0.78014 0.69631 0.53601
 C227 C 0.83017 0.67373 0.50910
 C228 C 0.85382 0.63323 0.54779
 O229 O 0.82147 0.62941 0.59631
 H230 H 0.74935 0.72909 0.51874
 H231 H 0.84708 0.68495 0.46622
 C232 C 0.73727 0.33356 1.11031
 C233 C 0.71788 0.28683 1.07691
 C234 C 0.66814 0.30773 1.05043
 C235 C 0.66155 0.36593 1.06850
 O236 O 0.70326 0.38193 1.10495
 H237 H 0.73694 0.24234 1.07332
 H238 H 0.64051 0.28384 1.02071
 C239 C 0.23601 1.15413 -0.08584
 C240 C 0.22124 1.19310 -0.04112
 C241 C 0.17310 1.16912 -0.01376
 C242 C 0.16311 1.11681 -0.04293
 O243 O 0.20094 1.10757 -0.08675
 H244 H 0.24166 1.23495 -0.03101
 H245 H 0.14796 1.18765 0.02274
 C246 C 0.29177 -0.11638 0.32914
 C247 C 0.29684 -0.06375 0.29865
 C248 C 0.33734 -0.03189 0.32784
 C249 C 0.35488 -0.06768 0.37330
 O250 O 0.32747 -0.11920 0.37439
 H251 H 0.27231 -0.04935 0.26095
 H252 H 0.35201 0.01254 0.31769
 C253 C 0.59669 -0.22873 0.65474
 C254 C 0.55436 -0.21209 0.69622
 C255 C 0.52596 -0.16335 0.67389
 C256 C 0.55198 -0.15467 0.62001
 O257 O 0.59504 -0.19405 0.60813
 H258 H 0.54665 -0.23167 0.73863
 H259 H 0.49090 -0.13684 0.69454
 C260 C 1.19014 0.70360 0.38298
 C261 C 1.23172 0.68332 0.42185
 C262 C 1.20596 0.63676 0.44960
 C263 C 1.15026 0.63254 0.42611
 O264 O 1.14046 0.67305 0.38549
 H265 H 1.27567 0.70021 0.42875
 H266 H 1.22518 0.60946 0.48345
 C267 C -0.09747 1.22209 0.17883
 C268 C -0.05557 1.20367 0.21845
 C269 C -0.03128 1.15219 0.19571
 C270 C -0.05920 1.14422 0.14348
 O271 O -0.09934 1.18627 0.13326
 H272 H -0.04443 1.22481 0.25902
 H273 H 0.00376 1.12484 0.21400
 C274 C 0.39369 0.27468 0.83306
 C275 C 0.41795 0.30063 0.78395
 C276 C 0.44590 0.34987 0.80329
 C277 C 0.43750 0.34955 0.86279
 O278 O 0.40561 0.30417 0.88108
 H279 H 0.41451 0.28604 0.73928
 H280 H 0.46983 0.38193 0.77733
 C281 C 0.68021 0.61613 0.77548
 C282 C 0.72945 0.59291 0.80286
 C283 C 0.70807 0.56720 0.85263
 C284 C 0.64735 0.57574 0.85123
 O285 O 0.63032 0.60559 0.80461
 H286 H 0.77540 0.59557 0.78882
 H287 H 0.73350 0.54428 0.88556
 C288 C 0.33000 0.09814 0.73091
 C289 C 0.28487 0.06445 0.70933
 C290 C 0.30687 0.04142 0.65808
 C291 C 0.36390 0.06217 0.65322
 O292 O 0.37791 0.09662 0.69711
 H293 H 0.24079 0.05901 0.72774
 H294 H 0.28429 0.01295 0.62803
 C295 C 0.12997 0.81784 0.21199
 C296 C 0.08201 0.78253 0.20149
 C297 C 0.05268 0.80985 0.15746
 C298 C 0.08536 0.85922 0.14375
 O299 O 0.13229 0.86457 0.17689
 H300 H 0.06873 0.74300 0.22478
 H301 H 0.01131 0.79655 0.13865
 C302 C 0.85444 0.41411 0.26651
 C303 C 0.83999 0.47338 0.25803
 C304 C 0.86474 0.50284 0.30322
 C305 C 0.89131 0.45923 0.33653
 O306 O 0.88545 0.40534 0.31427
 H307 H 0.81610 0.49291 0.22212
 H308 H 0.86380 0.55036 0.31094
   
