data_POSCAR
  _audit_creation_date              2014-09-24
  _audit_creation_method            'ToBaCCo'
  _symmetry_space_group_name_H-M    'P1'
  _symmetry_Int_Tables_number       1
  _symmetry_cell_setting            triclinic
  loop_
  _symmetry_equiv_pos_as_xyz
 x,y,z
_cell_length_a 29.1578
_cell_length_b 29.1398
_cell_length_c 29.1162
_cell_angle_alpha 89.741500
_cell_angle_beta 90.156700
_cell_angle_gamma 90.253900
loop_
  _atom_site_label
  _atom_site_type_symbol
  _atom_site_fract_x
  _atom_site_fract_y
  _atom_site_fract_z
C1 C 0.17921 0.53285 1.05843
 H2 H 0.17823 0.55901 1.03196
 C3 C 0.14812 0.53424 1.09471
 H4 H 0.12295 0.56145 1.09569
 C5 C 0.21160 0.46430 1.08777
 H6 H 0.23534 0.43625 1.08428
 C7 C 0.18126 0.46448 1.12489
 H8 H 0.18230 0.43642 1.14929
 N9 N 0.21027 0.49836 1.05562
 C10 C 0.31911 0.55408 0.96926
 H11 H 0.32086 0.52708 0.94395
 C12 C 0.34971 0.59091 0.96718
 H13 H 0.37545 0.59202 0.94044
 C14 C 0.28469 0.58458 1.03613
 H15 H 0.25993 0.58150 1.06348
 C16 C 0.31458 0.62228 1.03514
 H17 H 0.31274 0.64787 1.06189
 Zn18 Zn 0.24934 0.49866 1.00352
 N19 N 0.28749 0.55146 1.00340
 C20 C 0.21152 0.53545 0.92111
 N21 N 0.21179 0.49883 0.95033
 C22 C 0.18382 0.46205 0.94334
 C23 C 0.15434 0.46096 0.90554
 C24 C 0.18183 0.53615 0.88335
 C25 C 0.31597 0.43964 1.04034
 C26 C 0.34627 0.40271 1.04124
 C27 C 0.31978 0.38114 0.96567
 C28 C 0.28937 0.41803 0.96651
 N29 N 0.28795 0.44640 1.00353
 H30 H 0.23335 0.56474 0.92771
 H31 H 0.18427 0.43366 0.96741
 H32 H 0.13180 0.43173 0.90070
 H33 H 0.18108 0.56603 0.86118
 H34 H 0.31505 0.46330 1.06885
 H35 H 0.36877 0.39800 1.07053
 H36 H 0.32123 0.35964 0.93553
 H37 H 0.26806 0.42471 0.93689
 C38 C 0.34769 0.62539 1.00047
 C39 C 0.14885 0.49978 1.12864
 C40 C 0.34887 0.37350 1.00324
 C41 C 0.15254 0.49872 0.87562
 C42 C 0.81700 0.53872 -0.05959
 H43 H 0.81632 0.56703 -0.03569
 C44 C 0.84724 0.53974 -0.09663
 H45 H 0.86992 0.56894 -0.10120
 C46 C 0.78989 0.46524 -0.08165
 H47 H 0.76838 0.43570 -0.07510
 C48 C 0.82027 0.46449 -0.11865
 H49 H 0.82153 0.43452 -0.14038
 N50 N 0.78875 0.50204 -0.05300
 C51 C 0.68033 0.55654 0.03421
 H52 H 0.67913 0.52977 0.06004
 C53 C 0.64941 0.59288 0.03599
 H54 H 0.62406 0.59387 0.06309
 C55 C 0.71321 0.58674 -0.03395
 H56 H 0.73708 0.58361 -0.06198
 C57 C 0.68307 0.62392 -0.03325
 H58 H 0.68413 0.64905 -0.06070
 Zn59 Zn 0.75027 0.50191 -0.00055
 N60 N 0.71153 0.55411 -0.00032
 C61 C 0.78592 0.53392 0.08535
 N62 N 0.78850 0.50131 0.05211
 C63 C 0.81991 0.46704 0.05453
 C64 C 0.85055 0.46474 0.09129
 C65 C 0.81586 0.53272 0.12296
 C66 C 0.68424 0.44240 -0.03721
 C67 C 0.65435 0.40492 -0.03827
 C68 C 0.68181 0.38228 0.03681
 C69 C 0.71190 0.41974 0.03608
 N70 N 0.71237 0.44902 -0.00049
 H71 H 0.76131 0.56136 0.08243
 H72 H 0.82147 0.44183 0.02743
 H73 H 0.87615 0.43793 0.09225
 H74 H 0.81422 0.55941 0.14862
 H75 H 0.68486 0.46655 -0.06553
 H76 H 0.63168 0.40036 -0.06744
 H77 H 0.68090 0.36005 0.06665
 H78 H 0.73385 0.42607 0.06533
 C79 C 0.65063 0.62699 0.00195
 C80 C 0.84958 0.50196 -0.12613
 C81 C 0.65234 0.37496 -0.00054
 C82 C 0.84879 0.49795 0.12586
 C83 C -0.03300 0.32055 0.44356
 H84 H -0.05870 0.32213 0.47024
 C85 C -0.03460 0.35122 0.40672
 H86 H -0.06146 0.37678 0.40555
 C87 C 0.03443 0.28665 0.41405
 H88 H 0.06186 0.26211 0.41758
 C89 C 0.03404 0.31664 0.37637
 H90 H 0.06151 0.31479 0.35158
 N91 N 0.00119 0.28917 0.44669
 C92 C -0.05876 0.18520 0.53640
 H93 H -0.03473 0.18585 0.56478
 C94 C -0.09623 0.15528 0.53750
 H95 H -0.10090 0.13268 0.56676
 C96 C -0.08107 0.21267 0.46295
 H97 H -0.07460 0.23455 0.43361
 C98 C -0.11850 0.18252 0.46225
 H99 H -0.14058 0.18152 0.43234
 Zn100 Zn 0.00114 0.25103 0.49959
 N101 N -0.05195 0.21325 0.49959
 C102 C -0.03514 0.29065 0.58099
 N103 N 0.00143 0.28960 0.55202
 C104 C 0.03825 0.31767 0.55850
 C105 C 0.03970 0.34754 0.59582
 C106 C -0.03545 0.32066 0.61829
 C107 C 0.05567 0.18079 0.46518
 C108 C 0.09201 0.14987 0.46350
 C109 C 0.12280 0.18358 0.53271
 C110 C 0.08562 0.21370 0.53332
 N111 N 0.05313 0.21202 0.49964
 H112 H -0.06477 0.26927 0.57458
 H113 H 0.06641 0.31704 0.53439
 H114 H 0.06902 0.37003 0.60032
 H115 H -0.06523 0.32180 0.64032
 H116 H 0.02901 0.17961 0.43929
 H117 H 0.09311 0.12451 0.43645
 H118 H 0.14784 0.18466 0.56019
 H119 H 0.08241 0.23758 0.56131
 C120 C -0.12600 0.15311 0.49970
 C121 C -0.00071 0.34970 0.37253
 C122 C 0.12602 0.15115 0.49756
 C123 C 0.00221 0.34971 0.62573
 C124 C 0.96192 0.68432 0.55885
 H125 H 0.93346 0.68477 0.53494
 C126 C 0.96116 0.65458 0.59650
 H127 H 0.93206 0.63188 0.60146
 C128 C 1.03533 0.71211 0.58064
 H129 H 1.06454 0.73402 0.57387
 C130 C 1.03637 0.68217 0.61824
 H131 H 1.06638 0.68133 0.64015
 N132 N 0.99857 0.71243 0.55170
 C133 C 0.93974 0.81641 0.46105
 H134 H 0.96374 0.81556 0.43281
 C135 C 0.90283 0.84670 0.45975
 H136 H 0.89846 0.86923 0.43039
 C137 C 0.91730 0.78970 0.53468
 H138 H 0.92364 0.76834 0.56437
 C139 C 0.88042 0.82013 0.53513
 H140 H 0.85857 0.82155 0.56505
 Zn141 Zn 0.99840 0.74987 0.49843
 N142 N 0.94608 0.78834 0.49795
 C143 C 0.96546 0.71230 0.41370
 N144 N 0.99878 0.71071 0.44656
 C145 C 1.03324 0.67952 0.44444
 C146 C 1.03535 0.64856 0.40812
 C147 C 0.96648 0.68211 0.37654
 C148 C 1.05342 0.81981 0.53262
 C149 C 1.09025 0.85037 0.53467
 C150 C 1.12186 0.81501 0.46692
 C151 C 1.08418 0.78517 0.46596
 N152 N 1.05096 0.78810 0.49860
 H153 H 0.93748 0.73619 0.41658
 H154 H 1.05884 0.67842 0.47139
 H155 H 1.06242 0.62324 0.40734
 H156 H 0.93930 0.68313 0.35119
 H157 H 1.02633 0.82162 0.55785
 H158 H 1.09128 0.87621 0.56129
 H159 H 1.14752 0.81309 0.44023
 H160 H 1.08120 0.76033 0.43870
 C161 C 0.87321 0.84927 0.49746
 C162 C 0.99912 0.65268 0.62607
 C163 C 1.12482 0.84820 0.50146
 C164 C 1.00168 0.64973 0.37374
 C165 C 0.43925 -0.04005 0.31552
 H166 H 0.46290 -0.06854 0.31472
 C167 C 0.40224 -0.04091 0.34580
 H168 H 0.39745 -0.07016 0.36841
 C169 C 0.41779 0.03371 0.28868
 H170 H 0.42456 0.06331 0.26730
 C171 C 0.38082 0.03459 0.31905
 H172 H 0.35934 0.06473 0.32040
 N173 N 0.44612 -0.00329 0.28740
 C174 C 0.53304 -0.05798 0.17881
 H175 H 0.55907 -0.03142 0.17778
 C176 C 0.53470 -0.09427 0.14780
 H177 H 0.56196 -0.09514 0.12261
 C178 C 0.46456 -0.08757 0.21125
 H179 H 0.43645 -0.08417 0.23498
 C180 C 0.46501 -0.12468 0.18098
 H181 H 0.43705 -0.14917 0.18206
 Zn182 Zn 0.49847 -0.00327 0.24884
 N183 N 0.49846 -0.05531 0.20986
 C184 C 0.58432 -0.03552 0.28424
 N185 N 0.55107 -0.00297 0.28703
 C186 C 0.55358 0.03127 0.31850
 C187 C 0.59049 0.03368 0.34891
 C188 C 0.62208 -0.03421 0.31395
 C189 C 0.46209 0.05689 0.18315
 C190 C 0.46112 0.09472 0.15366
 C191 C 0.53627 0.11670 0.18119
 C192 C 0.53544 0.07891 0.21090
 N193 N 0.49877 0.04981 0.21117
 H194 H 0.58132 -0.06295 0.25958
 H195 H 0.52648 0.05644 0.32021
 H196 H 0.59155 0.06049 0.37454
 H197 H 0.64777 -0.06083 0.31214
 H198 H 0.43368 0.03288 0.18359
 H199 H 0.43195 0.09968 0.13110
 H200 H 0.56617 0.13879 0.18045
 H201 H 0.56468 0.07221 0.23273
 C202 C 0.50041 -0.12831 0.14860
 C203 C 0.37306 -0.00292 0.34826
 C204 C 0.49892 0.12454 0.15190
 C205 C 0.62510 0.00059 0.34687
 C206 C 0.55533 -0.03288 0.67944
 H207 H 0.52858 -0.05869 0.67824
 C208 C 0.59172 -0.03462 0.64850
 H209 H 0.59276 -0.06166 0.62312
 C210 C 0.58548 0.03513 0.71239
 H211 H 0.58234 0.06310 0.73630
 C212 C 0.62271 0.03446 0.68224
 H213 H 0.64786 0.06186 0.68333
 N214 N 0.55288 0.00153 0.71071
 C215 C 0.46647 -0.05390 0.81969
 H216 H 0.44115 -0.02695 0.82147
 C217 C 0.46453 -0.09075 0.85036
 H218 H 0.43788 -0.09191 0.87618
 C219 C 0.53328 -0.08426 0.78516
 H220 H 0.56058 -0.08112 0.76035
 C221 C 0.53244 -0.12195 0.81510
 H222 H 0.55923 -0.14744 0.81324
 Zn223 Zn 0.50084 0.00159 0.74977
 N224 N 0.50053 -0.05121 0.78799
 C225 C 0.41846 -0.03481 0.71174
 N226 N 0.44780 0.00168 0.71206
 C227 C 0.44117 0.03839 0.68388
 C228 C 0.40366 0.03953 0.65406
 C229 C 0.38098 -0.03546 0.68172
 C230 C 0.53795 0.06039 0.81642
 C231 C 0.53929 0.09753 0.84648
 C232 C 0.46415 0.11988 0.81970
 C233 C 0.46458 0.08279 0.78948
 N234 N 0.50118 0.05394 0.78832
 H235 H 0.42479 -0.06406 0.73374
 H236 H 0.46535 0.06665 0.68436
 H237 H 0.39912 0.06869 0.63132
 H238 H 0.35873 -0.06525 0.68092
 H239 H 0.56611 0.03636 0.81571
 H240 H 0.56856 0.10199 0.86903
 H241 H 0.43432 0.14177 0.82098
 H242 H 0.43498 0.07637 0.76807
 C243 C 0.49789 -0.12512 0.84832
 C244 C 0.62585 -0.00066 0.64978
 C245 C 0.50172 0.12724 0.84883
 C246 C 0.37366 0.00187 0.65215
 C247 C 0.24950 -0.00035 0.50008
 C248 C 0.74977 0.00093 0.49828
 C249 C 0.50068 0.25030 1.00097
 C250 C 0.49904 0.75031 0.00019
 C251 C 1.00047 0.49830 0.25014
 C252 C 0.00144 0.50059 0.75037
 C253 C 0.19088 0.06044 0.54105
 C254 C 0.20470 0.11047 0.52967
 C255 C 0.16212 0.11459 0.49862
 C256 C 0.14812 0.06505 0.50995
 C257 C 0.18982 0.09831 0.45700
 C258 C 0.23282 0.09331 0.48802
 C259 C 0.21861 0.04332 0.49937
 C260 C 0.17584 0.04838 0.46824
 H261 H 0.19070 0.04652 0.57652
 H262 H 0.21697 0.13611 0.55501
 H263 H 0.11304 0.05324 0.51906
 H264 H 0.18937 0.11418 0.42228
 H265 H 0.26744 0.10598 0.47853
 H266 H 0.16199 0.02475 0.44196
 C267 C 0.54801 0.67671 0.03188
 C268 C 0.56444 0.64893 -0.00987
 C269 C 0.61401 0.66304 0.00100
 C270 C 0.59796 0.69080 0.04265
 C271 C 0.60962 0.70559 -0.03017
 C272 C 0.55956 0.69165 -0.04108
 C273 C 0.54269 0.71943 0.00064
 C274 C 0.59268 0.73377 0.01153
 H275 H 0.52460 0.66292 0.05844
 H276 H 0.55265 0.61379 -0.01876
 H277 H 0.61405 0.69045 0.07725
 H278 H 0.63505 0.71787 -0.05576
 H279 H 0.54534 0.69145 -0.07641
 H280 H 0.60522 0.76849 0.02083
 C281 C 0.80892 -0.05907 0.45700
 C282 C 0.85147 -0.06384 0.48833
 C283 C 0.83763 -0.11365 0.49886
 C284 C 0.79527 -0.10929 0.46765
 C285 C 0.80960 -0.09800 0.54058
 C286 C 0.82340 -0.04787 0.53004
 C287 C 0.78084 -0.04261 0.49871
 C288 C 0.76678 -0.09279 0.50935
 H289 H 0.80915 -0.04484 0.42165
 H290 H 0.88651 -0.05154 0.47969
 H291 H 0.78378 -0.13492 0.44195
 H292 H 0.80936 -0.11364 0.57539
 H293 H 0.83711 -0.02463 0.55673
 H294 H 0.73217 -0.10572 0.51851
 C295 C 0.45152 0.32391 0.96973
 C296 C 0.40139 0.31006 0.95954
 C297 C 0.38594 0.33792 1.00143
 C298 C 0.43575 0.35181 1.01163
 C299 C 0.39054 0.29542 1.03251
 C300 C 0.40686 0.26710 0.99063
 C301 C 0.45704 0.28121 1.00094
 C302 C 0.44076 0.30912 1.04283
 H303 H 0.47454 0.33778 0.94288
 H304 H 0.38556 0.30992 0.92484
 H305 H 0.44802 0.38686 1.02026
 H306 H 0.36510 0.28377 1.05838
 H307 H 0.39387 0.23251 0.98149
 H308 H 0.45508 0.30928 1.07810
 C309 C 0.76696 0.09491 0.48739
 C310 C 0.79573 0.11145 0.52916
 C311 C 0.83798 0.11608 0.49801
 C312 C 0.80969 0.10041 0.45622
 C313 C 0.85161 0.06628 0.50843
 C314 C 0.80918 0.06126 0.53971
 C315 C 0.78084 0.04477 0.49794
 C316 C 0.82329 0.05031 0.46664
 H317 H 0.73231 0.10760 0.47826
 H318 H 0.78446 0.13696 0.55492
 H319 H 0.80942 0.11620 0.42147
 H320 H 0.88661 0.05406 0.51706
 H321 H 0.80949 0.04698 0.57503
 H322 H 0.83675 0.02715 0.43993
 C323 C 0.40529 0.73289 -0.01062
 C324 C 0.39999 0.68968 -0.04107
 C325 C 0.38408 0.66200 0.00105
 C326 C 0.38848 0.70478 0.03156
 C327 C 0.43371 0.64848 0.01200
 C328 C 0.44998 0.67616 -0.03023
 C329 C 0.45533 0.71912 0.00033
 C330 C 0.43859 0.69144 0.04254
 H331 H 0.39265 0.76743 -0.02033
 H332 H 0.38381 0.68895 -0.07561
 H333 H 0.36308 0.71689 0.05704
 H334 H 0.44559 0.61353 0.02141
 H335 H 0.47339 0.66243 -0.05661
 H336 H 0.45292 0.69166 0.07782
 C337 C 0.23213 -0.09405 0.51194
 C338 C 0.18897 -0.09912 0.54256
 C339 C 0.16132 -0.11538 0.50066
 C340 C 0.20402 -0.11120 0.47001
 C341 C 0.14774 -0.06583 0.48927
 C342 C 0.17543 -0.04919 0.53126
 C343 C 0.21833 -0.04406 0.50052
 C344 C 0.19063 -0.06117 0.45857
 H345 H 0.26659 -0.10673 0.52174
 H346 H 0.18827 -0.11505 0.57725
 H347 H 0.21616 -0.13679 0.44475
 H348 H 0.11279 -0.05405 0.47984
 H349 H 0.16171 -0.02559 0.55745
 H350 H 0.19062 -0.04724 0.42311
 C351 C 0.59458 0.26766 1.01138
 C352 C 0.61080 0.29690 0.96973
 C353 C 0.61544 0.33887 1.00119
 C354 C 0.60010 0.31012 1.04286
 C355 C 0.56559 0.35247 0.99123
 C356 C 0.56056 0.31032 0.95964
 C357 C 0.54437 0.28151 1.00128
 C358 C 0.54993 0.32367 1.03289
 H359 H 0.60755 0.23301 1.02015
 H360 H 0.63620 0.28597 0.94371
 H361 H 0.61605 0.30955 1.07749
 H362 H 0.55325 0.38754 0.98296
 H363 H 0.54620 0.31099 0.92438
 H364 H 0.52691 0.33681 1.05989
 C365 C 0.53232 0.17648 1.04976
 C366 C 0.54248 0.18962 1.10006
 C367 C 0.50075 0.16099 1.11532
 C368 C 0.49059 0.14782 1.06534
 C369 C 0.46956 0.20316 1.11108
 C370 C 0.51126 0.23230 1.09492
 C371 C 0.50097 0.21886 1.04457
 C372 C 0.45927 0.19017 1.06070
 H373 H 0.55917 0.16331 1.02661
 H374 H 0.57710 0.18988 1.11596
 H375 H 0.48211 0.11288 1.05274
 H376 H 0.44371 0.21406 1.13667
 H377 H 0.52025 0.26681 1.10811
 H378 H 0.42400 0.18979 1.04647
 C379 C 0.03298 0.55020 0.67688
 C380 C -0.00883 0.56591 0.64848
 C381 C 0.00123 0.61575 0.66214
 C382 C 0.04305 0.60038 0.69049
 C383 C -0.02987 0.61095 0.70441
 C384 C -0.04007 0.56072 0.69092
 C385 C 0.00171 0.54446 0.71934
 C386 C 0.01192 0.59468 0.73325
 H387 H 0.05986 0.52727 0.66343
 H388 H -0.01735 0.55364 0.61342
 H389 H 0.07763 0.61642 0.69077
 H390 H -0.05576 0.63630 0.71567
 H391 H -0.07532 0.54641 0.69048
 H392 H 0.02096 0.60757 0.76788
 C393 C 0.48775 0.76741 -0.09372
 C394 C 0.45697 0.81038 -0.09900
 C395 C 0.49875 0.83835 -0.11515
 C396 C 0.52958 0.79583 -0.11075
 C397 C 0.50976 0.85206 -0.06552
 C398 C 0.46788 0.82408 -0.04901
 C399 C 0.49877 0.78137 -0.04367
 C400 C 0.54062 0.80937 -0.06064
 H401 H 0.47824 0.73277 -0.10623
 H402 H 0.42241 0.81081 -0.11508
 H403 H 0.55504 0.78384 -0.13624
 H404 H 0.51891 0.88711 -0.05372
 H405 H 0.44156 0.83761 -0.02542
 H406 H 0.57589 0.80960 -0.04639
 C407 C 0.98910 0.40432 0.26801
 C408 C 1.03021 0.38741 0.29727
 C409 C 1.00042 0.38482 0.33796
 C410 C 0.95963 0.39907 0.31187
 C411 C 1.01140 0.43190 0.35194
 C412 C 1.04230 0.43757 0.30936
 C413 C 1.00033 0.45466 0.28135
 C414 C 0.96969 0.44940 0.32457
 H415 H 0.97930 0.39063 0.23387
 H416 H 1.05493 0.36075 0.28641
 H417 H 0.92579 0.38156 0.31399
 H418 H 1.02067 0.44196 0.38756
 H419 H 1.07793 0.45099 0.30972
 H420 H 0.94324 0.47230 0.33898
 C421 C 0.53004 0.82484 0.04865
 C422 C 0.48836 0.85178 0.06629
 C423 C 0.49945 0.83755 0.11339
 C424 C 0.54022 0.81191 0.09903
 C425 C 0.46969 0.79668 0.11101
 C426 C 0.45746 0.80903 0.06085
 C427 C 0.49939 0.78145 0.04364
 C428 C 0.51078 0.76790 0.09401
 H429 H 0.55642 0.83955 0.02555
 H430 H 0.47907 0.88737 0.05621
 H431 H 0.57411 0.81417 0.11641
 H432 H 0.44507 0.78538 0.13781
 H433 H 0.42179 0.80933 0.04761
 H434 H 0.52067 0.73383 0.10785
 C435 C -0.03039 0.45192 0.67670
 C436 C 0.01118 0.43633 0.64826
 C437 C 0.00094 0.38639 0.66183
 C438 C -0.04061 0.40167 0.69027
 C439 C 0.03233 0.39060 0.70411
 C440 C 0.04268 0.44096 0.69073
 C441 C 0.00113 0.45708 0.71919
 C442 C -0.00920 0.40676 0.73301
 H443 H -0.05726 0.47502 0.66318
 H444 H 0.01955 0.44893 0.61322
 H445 H -0.07531 0.38589 0.69061
 H446 H 0.05817 0.36501 0.71530
 H447 H 0.07795 0.45524 0.69039
 H448 H -0.01808 0.39358 0.76765
 C449 C 0.54194 0.19143 0.94065
 C450 C 0.51051 0.14896 0.93568
 C451 C 0.50027 0.16296 0.88584
 C452 C 0.53158 0.20526 0.89041
 C453 C 0.45866 0.19107 0.90146
 C454 C 0.46889 0.17708 0.95160
 C455 C 0.50034 0.21958 0.95712
 C456 C 0.48999 0.23384 0.90692
 H457 H 0.57722 0.19104 0.95485
 H458 H 0.51893 0.11385 0.94794
 H459 H 0.55741 0.21678 0.86487
 H460 H 0.42398 0.19144 0.88569
 H461 H 0.44203 0.16328 0.97465
 H462 H 0.48106 0.26853 0.89405
 C463 C 0.95920 0.55864 0.30886
 C464 C 0.99022 0.56349 0.35167
 C465 C 1.00108 0.61314 0.33764
 C466 C 0.97012 0.60875 0.29500
 C467 C 1.04280 0.59724 0.30992
 C468 C 1.03202 0.54719 0.32389
 C469 C 1.00096 0.54191 0.28108
 C470 C 1.01188 0.59197 0.26684
 H471 H 0.92394 0.54434 0.30907
 H472 H 0.98123 0.55160 0.38680
 H473 H 0.94458 0.63415 0.28269
 H474 H 1.07733 0.61343 0.31038
 H475 H 1.05847 0.52368 0.33759
 H476 H 1.02129 0.60462 0.23215
 C477 C 1.09425 0.50966 0.23262
 C478 C 1.11104 0.46864 0.20359
 C479 C 1.11364 0.49864 0.16283
 C480 C 1.09948 0.53935 0.18873
 C481 C 1.06656 0.48778 0.14857
 C482 C 1.06089 0.45667 0.19121
 C483 C 1.04392 0.49855 0.21902
 C484 C 1.04915 0.52941 0.17574
 H485 H 1.10803 0.51928 0.26680
 H486 H 1.13766 0.44384 0.21472
 H487 H 1.11702 0.57320 0.18664
 H488 H 1.05649 0.47871 0.11290
 H489 H 1.04741 0.42104 0.19086
 H490 H 1.02625 0.55596 0.16115
 C491 C 0.67598 -0.03059 0.54724
 C492 C 0.68981 -0.04139 0.59731
 C493 C 0.66205 0.00027 0.61323
 C494 C 0.64820 0.01117 0.56354
 C495 C 0.70464 0.03135 0.60891
 C496 C 0.73283 -0.01036 0.59210
 C497 C 0.71875 0.00056 0.54197
 C498 C 0.69096 0.04229 0.55873
 H499 H 0.66218 -0.05709 0.52382
 H500 H 0.68933 -0.07596 0.61347
 H501 H 0.61316 0.02011 0.55160
 H502 H 0.71682 0.05690 0.63437
 H503 H 0.76740 -0.01966 0.60493
 H504 H 0.69082 0.07761 0.54451
 C505 C -0.09246 0.48994 0.76720
 C506 C -0.09799 0.45858 0.81000
 C507 C -0.11339 0.50025 0.83818
 C508 C -0.10874 0.53158 0.79585
 C509 C -0.06357 0.51036 0.85208
 C510 C -0.04784 0.46869 0.82386
 C511 C -0.04226 0.50018 0.78133
 C512 C -0.05852 0.54183 0.80957
 H513 H -0.10545 0.48102 0.73254
 H514 H -0.11389 0.42392 0.80968
 H515 H -0.13414 0.55749 0.78439
 H516 H -0.05129 0.51875 0.88719
 H517 H -0.02487 0.44176 0.83751
 H518 H -0.04424 0.57711 0.80997
 C519 C 0.30848 -0.04229 0.44034
 C520 C 0.29492 -0.03206 0.39000
 C521 C 0.33742 -0.00104 0.38533
 C522 C 0.35117 -0.01115 0.43525
 C523 C 0.30956 0.04087 0.40062
 C524 C 0.26660 0.00983 0.40616
 C525 C 0.28057 -0.00039 0.45646
 C526 C 0.32327 0.03076 0.45087
 H527 H 0.30856 -0.07749 0.45487
 H528 H 0.28333 -0.05795 0.36459
 H529 H 0.38616 -0.01978 0.44760
 H530 H 0.30948 0.07551 0.38465
 H531 H 0.23202 0.01896 0.39319
 H532 H 0.33706 0.05760 0.47389
 C533 C 0.05045 0.53207 0.82405
 C534 C 0.06600 0.49029 0.85264
 C535 C 0.11591 0.50046 0.83926
 C536 C 0.10066 0.54223 0.81067
 C537 C 0.11148 0.46927 0.79704
 C538 C 0.06117 0.45898 0.81025
 C539 C 0.04508 0.50073 0.78163
 C540 C 0.09534 0.51102 0.76797
 H541 H 0.02742 0.55893 0.83736
 H542 H 0.05348 0.48179 0.88765
 H543 H 0.11659 0.57688 0.81035
 H544 H 0.13695 0.44340 0.78600
 H545 H 0.04683 0.42372 0.81063
 H546 H 0.10840 0.52002 0.73335
 C547 C 0.67579 0.03148 0.44911
 C548 C 0.68934 0.04231 0.39902
 C549 C 0.66170 0.00022 0.38319
 C550 C 0.64813 -0.01070 0.43291
 C551 C 0.70442 -0.03027 0.38762
 C552 C 0.73251 0.01185 0.40435
 C553 C 0.71869 0.00090 0.45450
 C554 C 0.69101 -0.04124 0.43781
 H555 H 0.66205 0.05787 0.47248
 H556 H 0.68863 0.07681 0.38274
 H557 H 0.61318 -0.02008 0.44486
 H558 H 0.71656 -0.05574 0.36223
 H559 H 0.76699 0.02159 0.39156
 H560 H 0.69100 -0.07655 0.45206
 C561 C 0.94002 0.54007 0.19116
 C562 C 0.93494 0.50924 0.14843
 C563 C 0.88533 0.49846 0.16227
 C564 C 0.88993 0.52923 0.20484
 C565 C 0.90121 0.45654 0.19017
 C566 C 0.95120 0.46725 0.17637
 C567 C 0.95672 0.49810 0.21911
 C568 C 0.90670 0.48727 0.23319
 H569 H 0.95442 0.57532 0.19090
 H570 H 0.94675 0.51838 0.11333
 H571 H 0.86466 0.55480 0.21694
 H572 H 0.88493 0.42204 0.18974
 H573 H 0.97460 0.44078 0.16285
 H574 H 0.89417 0.47771 0.26786
 C575 C 0.26661 -0.01049 0.59416
 C576 C 0.30921 -0.04169 0.59983
 C577 C 0.33765 0.00011 0.61517
 C578 C 0.29553 0.03130 0.61038
 C579 C 0.35135 0.01015 0.56525
 C580 C 0.32289 -0.03166 0.54960
 C581 C 0.28056 -0.00034 0.54389
 C582 C 0.30904 0.04146 0.56005
 H583 H 0.23193 -0.01946 0.60699
 H584 H 0.30879 -0.07631 0.61585
 H585 H 0.28435 0.05724 0.63574
 H586 H 0.38639 0.01862 0.55293
 H587 H 0.33630 -0.05854 0.52663
 H588 H 0.30948 0.07664 0.54547
   
