data_POSCAR
  _audit_creation_date              2014-09-24
  _audit_creation_method            'ToBaCCo'
  _symmetry_space_group_name_H-M    'P1'
  _symmetry_Int_Tables_number       1
  _symmetry_cell_setting            triclinic
  loop_
  _symmetry_equiv_pos_as_xyz
 x,y,z
_cell_length_a 28.7552
_cell_length_b 28.6825
_cell_length_c 36.7114
_cell_angle_alpha 90.156700
_cell_angle_beta 89.037200
_cell_angle_gamma 89.594400
loop_
  _atom_site_label
  _atom_site_type_symbol
  _atom_site_fract_x
  _atom_site_fract_y
  _atom_site_fract_z
C1 C 0.00022 0.54425 1.01986
 C2 C -0.00097 0.54384 0.98140
 C3 C -0.00191 0.50115 0.96274
 C4 C -0.00146 0.45893 0.98182
 C5 C 0.00019 0.45931 1.02019
 C6 C 0.00091 0.50195 1.03892
 H7 H 0.00200 0.50222 1.06849
 H8 H -0.00302 0.50068 0.93319
 C9 C 0.45837 -0.00524 0.51831
 C10 C 0.45884 -0.00466 0.47994
 C11 C 0.50138 -0.00458 0.46077
 C12 C 0.54352 -0.00472 0.47946
 C13 C 0.54301 -0.00480 0.51789
 C14 C 0.50043 -0.00522 0.53701
 H15 H 0.50003 -0.00539 0.56657
 H16 H 0.50161 -0.00424 0.43120
 C17 C 0.10005 0.00711 0.26289
 H18 H 0.10228 0.00874 0.23347
 C19 C 0.14056 0.00766 0.28329
 H20 H 0.17396 0.00913 0.26930
 C21 C 0.05361 0.00242 0.31666
 H22 H 0.01966 0.00107 0.32961
 C23 C 0.09324 0.00285 0.33814
 H24 H 0.08928 0.00186 0.36751
 N25 N 0.05772 0.00379 0.27971
 C26 C -0.03157 -0.06006 0.19891
 H27 H -0.05967 -0.03481 0.19811
 C28 C -0.03322 -0.10025 0.17742
 H29 H -0.06249 -0.10540 0.15971
 C30 C 0.04076 -0.08375 0.22297
 H31 H 0.06910 -0.07776 0.24127
 C32 C 0.04055 -0.12436 0.20195
 H33 H 0.06888 -0.14917 0.20437
 Zn34 Zn 0.00480 0.00252 0.24971
 N35 N 0.00531 -0.05228 0.22077
 C36 C 0.00605 0.05343 0.18308
 N37 N 0.00676 0.05642 0.22006
 C38 C 0.00967 0.09834 0.23721
 C39 C 0.01031 0.13959 0.21714
 C40 C 0.00667 0.09384 0.16193
 C41 C -0.05894 -0.03523 0.30006
 C42 C -0.09953 -0.03734 0.32141
 C43 C -0.12294 0.03720 0.29703
 C44 C -0.08195 0.03786 0.27614
 N45 N -0.05063 0.00225 0.27836
 H46 H 0.00475 0.01980 0.16987
 H47 H 0.01104 0.09966 0.26663
 H48 H 0.01259 0.17260 0.23135
 H49 H 0.00495 0.09080 0.13258
 H50 H -0.03379 -0.06343 0.30088
 H51 H -0.10510 -0.06706 0.33902
 H52 H -0.14759 0.06569 0.29462
 H53 H -0.07552 0.06669 0.25796
 C54 C 0.00329 -0.13298 0.17867
 C55 C 0.13749 0.00518 0.32146
 C56 C -0.13210 -0.00065 0.32018
 C57 C 0.00839 0.13770 0.17896
 C58 C -0.01029 0.09517 0.76361
 H59 H -0.01091 0.09688 0.73419
 C60 C -0.01162 0.13616 0.78419
 H61 H -0.01268 0.16940 0.77031
 C62 C -0.00727 0.04954 0.81724
 H63 H -0.00624 0.01573 0.83006
 C64 C -0.00852 0.08967 0.83888
 H65 H -0.00847 0.08623 0.86824
 N66 N -0.00737 0.05300 0.78029
 C67 C 0.05985 -0.03819 0.69962
 H68 H 0.03495 -0.06623 0.69836
 C69 C 0.10071 -0.04036 0.67854
 H70 H 0.10717 -0.07040 0.66121
 C71 C 0.08221 0.03430 0.72471
 H72 H 0.07529 0.06307 0.74308
 C73 C 0.12351 0.03351 0.70419
 H74 H 0.14742 0.06232 0.70648
 Zn75 Zn -0.00462 -0.00061 0.75008
 N76 N 0.05110 -0.00096 0.72178
 C77 C -0.05286 0.00015 0.68286
 N78 N -0.05728 0.00123 0.71980
 C79 C -0.09976 0.00463 0.73646
 C80 C -0.14011 0.00554 0.71587
 C81 C -0.09234 0.00094 0.66120
 C82 C 0.03173 -0.06369 0.80060
 C83 C 0.03335 -0.10386 0.82198
 C84 C -0.03995 -0.12741 0.79681
 C85 C -0.04015 -0.08684 0.77591
 N86 N -0.00496 -0.05563 0.77852
 H87 H -0.01881 -0.00127 0.67005
 H88 H -0.10223 0.00603 0.76588
 H89 H -0.17363 0.00705 0.72973
 H90 H -0.08815 0.00016 0.63184
 H91 H 0.05962 -0.03864 0.80174
 H92 H 0.06240 -0.10918 0.83992
 H93 H -0.06811 -0.15198 0.79412
 H94 H -0.06832 -0.08062 0.75744
 C95 C 0.13316 -0.00411 0.68063
 C96 C -0.01036 0.13376 0.82236
 C97 C -0.00296 -0.13626 0.82038
 C98 C -0.13673 0.00335 0.67769
 C99 C 0.04283 -0.23405 0.11849
 C100 C 0.00132 -0.25855 0.11444
 C101 C -0.03969 -0.24179 0.13103
 C102 C -0.03919 -0.20080 0.15173
 C103 C 0.00054 -0.41491 0.03920
 C104 C 0.04343 -0.19309 0.13919
 C105 C 0.00097 -0.30113 0.09362
 C106 C 0.00081 -0.33692 0.07634
 C107 C 0.00069 -0.37895 0.05627
 C108 C 0.00244 -0.17606 0.15616
 H109 H 0.07476 -0.24665 0.10569
 H110 H -0.07199 -0.26056 0.12816
 H111 H -0.07117 -0.18893 0.16481
 H112 H 0.07588 -0.17452 0.14167
 C113 C -0.01942 0.26103 0.14860
 C114 C 0.00571 0.26365 0.11571
 C115 C 0.03185 0.22518 0.10346
 C116 C 0.03284 0.18420 0.12401
 C117 C 0.00126 0.41878 0.03967
 C118 C -0.01846 0.22013 0.16919
 C119 C 0.00463 0.30586 0.09462
 C120 C 0.00359 0.34136 0.07715
 C121 C 0.00231 0.38307 0.05689
 C122 C 0.00769 0.18122 0.15714
 H123 H -0.03987 0.29055 0.15828
 H124 H 0.05154 0.22688 0.07808
 H125 H 0.05372 0.15506 0.11421
 H126 H -0.03873 0.21872 0.19428
 C127 C 0.21793 -0.02172 0.60125
 C128 C 0.25960 -0.00670 0.61639
 C129 C 0.26007 0.00868 0.65258
 C130 C 0.21904 0.00929 0.67353
 C131 C 0.41523 -0.00572 0.53901
 C132 C 0.17682 -0.02118 0.62217
 C133 C 0.30187 -0.00677 0.59483
 C134 C 0.33746 -0.00657 0.57702
 C135 C 0.37933 -0.00614 0.55642
 C136 C 0.17689 -0.00550 0.65853
 H137 H 0.21715 -0.03360 0.57322
 H138 H 0.29217 0.02023 0.66462
 H139 H 0.22038 0.02092 0.70157
 H140 H 0.14485 -0.03226 0.60972
 C141 C -0.25803 0.03064 0.64402
 C142 C -0.26058 0.00121 0.61367
 C143 C -0.22249 -0.02707 0.60393
 C144 C -0.18207 -0.02612 0.62456
 C145 C -0.41446 -0.00394 0.53830
 C146 C -0.21767 0.03162 0.66471
 C147 C -0.30245 -0.00029 0.59277
 C148 C -0.33766 -0.00155 0.57545
 C149 C -0.37903 -0.00294 0.55536
 C150 C -0.17926 0.00312 0.65528
 H151 H -0.28727 0.05277 0.65174
 H152 H -0.22414 -0.05008 0.58054
 H153 H -0.15335 -0.04892 0.61688
 H154 H -0.21638 0.05495 0.68790
 C155 C -0.04295 -0.23618 0.88054
 C156 C -0.00140 -0.26100 0.88508
 C157 C 0.03977 -0.24490 0.86876
 C158 C 0.03938 -0.20423 0.84785
 C159 C -0.00110 -0.41576 0.96168
 C160 C -0.04343 -0.19554 0.85963
 C161 C -0.00114 -0.30318 0.90623
 C162 C -0.00108 -0.33860 0.92381
 C163 C -0.00110 -0.38018 0.94427
 C164 C -0.00228 -0.17914 0.84296
 H165 H -0.07499 -0.24826 0.89314
 H166 H 0.07211 -0.26394 0.87201
 H167 H 0.07150 -0.19284 0.83501
 H168 H -0.07592 -0.17667 0.85680
 C169 C 0.01894 0.22144 0.89601
 C170 C -0.00876 0.25958 0.88628
 C171 C -0.03749 0.25644 0.85600
 C172 C -0.03833 0.21543 0.83535
 C173 C -0.00291 0.41580 0.96144
 C174 C 0.01814 0.18039 0.87542
 C175 C -0.00728 0.30213 0.90709
 C176 C -0.00591 0.33788 0.92436
 C177 C -0.00426 0.37986 0.94441
 C178 C -0.01038 0.17697 0.84476
 H179 H 0.04143 0.22356 0.91933
 H180 H -0.05917 0.28572 0.84829
 H181 H -0.06110 0.21368 0.81221
 H182 H 0.04052 0.15164 0.88308
 C183 C -0.23391 0.03799 0.38038
 C184 C -0.25855 -0.00363 0.38433
 C185 C -0.24166 -0.04444 0.36766
 C186 C -0.20039 -0.04362 0.34697
 C187 C -0.41561 -0.00467 0.45991
 C188 C -0.19268 0.03891 0.35970
 C189 C -0.30139 -0.00426 0.40517
 C190 C -0.33736 -0.00453 0.42250
 C191 C -0.37955 -0.00464 0.44269
 C192 C -0.17550 -0.00187 0.34265
 H193 H -0.24660 0.06976 0.39325
 H194 H -0.26055 -0.07683 0.37045
 H195 H -0.18840 -0.07545 0.33383
 H196 H -0.17400 0.07143 0.35731
 C197 C 0.22407 -0.02600 0.39462
 C198 C 0.26179 0.00221 0.38497
 C199 C 0.25874 0.03183 0.35486
 C200 C 0.21824 0.03306 0.33434
 C201 C 0.41618 -0.00365 0.45976
 C202 C 0.18352 -0.02481 0.37415
 C203 C 0.30379 0.00049 0.40572
 C204 C 0.33912 -0.00094 0.42291
 C205 C 0.38063 -0.00251 0.44284
 C206 C 0.18019 0.00463 0.34368
 H207 H 0.22612 -0.04916 0.41782
 H208 H 0.28769 0.05392 0.34721
 H209 H 0.21654 0.05654 0.31134
 H210 H 0.15509 -0.04755 0.38176
   
