data_POSCAR
  _audit_creation_date              2014-09-24
  _audit_creation_method            'ToBaCCo'
  _symmetry_space_group_name_H-M    'P1'
  _symmetry_Int_Tables_number       1
  _symmetry_cell_setting            triclinic
  loop_
  _symmetry_equiv_pos_as_xyz
 x,y,z
_cell_length_a 23.6148
_cell_length_b 23.7804
_cell_length_c 8.4163
_cell_angle_alpha 89.959000
_cell_angle_beta 89.902600
_cell_angle_gamma 90.008500
loop_
  _atom_site_label
  _atom_site_type_symbol
  _atom_site_fract_x
  _atom_site_fract_y
  _atom_site_fract_z
O1 O 0.28704 0.29500 0.43046
 O2 O 0.18954 0.18860 0.27484
 O3 O 0.29463 0.18884 0.37263
 O4 O 0.18415 0.29704 0.32199
 O5 O 0.21509 0.31235 0.07803
 O6 O 0.32479 0.20381 0.12792
 O7 O 0.21974 0.20460 0.03054
 O8 O 0.31835 0.31167 0.18739
 Cu9 Cu 0.23558 0.24054 0.37407
 Cu10 Cu 0.27267 0.25974 0.08152
 C11 C 0.31942 0.32133 0.33608
 C12 C 0.18763 0.17852 0.12682
 C13 C 0.32891 0.17817 0.25968
 C14 C 0.18086 0.32313 0.19055
 O15 O 0.82292 0.30208 0.37380
 O16 O 0.71143 0.19472 0.44728
 O17 O 0.81817 0.18955 0.39036
 O18 O 0.71897 0.29964 0.49837
 O19 O 0.69399 0.30972 0.24701
 O20 O 0.79648 0.19796 0.13622
 O21 O 0.68781 0.20155 0.19427
 O22 O 0.79603 0.30779 0.12345
 Cu23 Cu 0.77175 0.24690 0.44975
 Cu24 Cu 0.74114 0.25499 0.15103
 C25 C 0.82829 0.32311 0.23507
 C26 C 0.68038 0.18008 0.33031
 C27 C 0.82442 0.17439 0.24754
 C28 C 0.68878 0.32289 0.39346
 O29 O 0.81296 0.69973 0.75224
 O30 O 0.70755 0.81046 0.66137
 O31 O 0.81164 0.80950 0.76404
 O32 O 0.71549 0.70351 0.60697
 O33 O 0.67813 0.69137 0.84540
 O34 O 0.77615 0.79934 1.00503
 O35 O 0.67158 0.79965 0.90184
 O36 O 0.77577 0.69025 0.99177
 Cu37 Cu 0.76564 0.75688 0.67290
 Cu38 Cu 0.72160 0.74415 0.95948
 C39 C 0.81226 0.67640 0.88878
 C40 C 0.67144 0.82371 0.76759
 C41 C 0.81087 0.82280 0.90986
 C42 C 0.68027 0.67951 0.69766
 O43 O 0.17939 0.81058 0.61184
 O44 O 0.28316 0.70408 0.49619
 O45 O 0.17751 0.70056 0.58339
 O46 O 0.28746 0.81117 0.54640
 O47 O 0.30857 0.79972 0.79994
 O48 O 0.19976 0.69092 0.83636
 O49 O 0.30549 0.69155 0.74858
 O50 O 0.20085 0.79981 0.86537
 Cu51 Cu 0.22927 0.75790 0.53465
 Cu52 Cu 0.25593 0.74424 0.83755
 C53 C 0.17247 0.82381 0.75630
 C54 C 0.31222 0.67979 0.60220
 C55 C 0.17012 0.67674 0.71728
 C56 C 0.31691 0.82388 0.66781
 O57 O 1.04835 -0.07025 0.10261
 O58 O 0.93975 0.03928 0.16043
 O59 O 0.93846 -0.06552 0.07229
 O60 O 1.04840 0.03338 0.20444
 O61 O 1.06036 0.06272 -0.04242
 O62 O 0.95086 -0.03701 -0.17524
 O63 O 0.95098 0.06790 -0.08728
 O64 O 1.05961 -0.04077 -0.14428
 Cu65 Cu 0.99255 -0.01863 0.15987
 Cu66 Cu 1.00673 0.01620 -0.13704
 C67 C 1.07216 -0.07435 -0.03232
 C68 C 0.92685 0.07218 0.04681
 C69 C 0.92612 -0.06825 -0.07423
 C70 C 1.07294 0.06497 0.10429
 O71 O 0.55654 0.57032 0.48963
 O72 O 0.45100 0.47665 0.30489
 O73 O 0.44685 0.57149 0.45943
 O74 O 0.56024 0.47824 0.31920
 O75 O 0.55500 0.43152 0.54562
 O76 O 0.44115 0.52513 0.68640
 O77 O 0.44484 0.43026 0.53170
 O78 O 0.54988 0.52350 0.71563
 Cu79 Cu 0.50433 0.52917 0.37102
 Cu80 Cu 0.49722 0.47257 0.64208
 C81 C 0.57068 0.56331 0.63427
 C82 C 0.43005 0.43719 0.38795
 C83 C 0.42480 0.56459 0.59584
 C84 C 0.57657 0.43851 0.40825
 O85 O -0.05557 0.55850 0.01244
 O86 O 0.05634 0.45480 0.10913
 O87 O 0.05457 0.56187 0.04010
 O88 O -0.05363 0.45637 0.13044
 O89 O -0.05230 0.42996 -0.12075
 O90 O 0.05611 0.53793 -0.21351
 O91 O 0.06132 0.43354 -0.14603
 O92 O -0.05007 0.53466 -0.24082
 Cu93 Cu 0.00017 0.51056 0.09780
 Cu94 Cu 0.00249 0.47978 -0.20232
 C95 C -0.07120 0.56465 -0.13167
 C96 C 0.07819 0.42680 -0.00452
 C97 C 0.07365 0.56847 -0.09947
 C98 C -0.07118 0.42465 0.02038
 O99 O 0.44236 1.06242 0.58798
 O100 O 0.55075 0.95598 0.67784
 O101 O 0.55296 1.06378 0.62468
 O102 O 0.44148 0.95519 0.64245
 O103 O 0.45053 0.94059 0.38475
 O104 O 0.56156 1.04916 0.36695
 O105 O 0.56074 0.94132 0.42043
 O106 O 0.45192 1.04828 0.33016
 Cu107 Cu 0.49580 1.01127 0.65786
 Cu108 Cu 0.50744 0.99309 0.35089
 C109 C 0.42812 1.07320 0.44604
 C110 C 0.57431 0.93036 0.56289
 C111 C 0.57641 1.07483 0.49255
 C112 C 0.42689 0.92952 0.51656
 C113 C 1.14719 0.13679 0.06492
 C114 C 1.11567 0.10497 0.16217
 H115 H 1.14298 0.13262 -0.06273
 H116 H 1.12092 0.10845 0.28970
 C117 C 0.64126 0.63870 0.62594
 C118 C 0.61074 0.60219 0.71081
 H119 H 0.63835 0.63838 0.49739
 H120 H 0.61530 0.60055 0.83885
 C121 C -0.12781 0.36583 0.20357
 C122 C -0.11409 0.38135 0.05481
 H123 H -0.10601 0.38422 0.30410
 H124 H -0.13423 0.36110 -0.04562
 C125 C 0.36129 0.86717 0.65909
 C126 C 0.38185 0.88668 0.52159
 H127 H 0.37874 0.88213 0.77035
 H128 H 0.36614 0.87019 0.41004
 C129 C -0.14574 0.63331 -0.06798
 C130 C -0.11342 0.60746 -0.17574
 H131 H -0.14230 0.62180 0.05627
 H132 H -0.11864 0.61709 -0.30075
 C133 C 0.37192 1.13835 0.27949
 C134 C 0.38255 1.11440 0.42048
 H135 H 0.39844 1.12812 0.17826
 H136 H 0.35803 1.12641 0.52409
 C137 C 1.13124 -0.13181 -0.20710
 C138 C 1.11439 -0.11893 -0.05973
 H139 H 1.11326 -0.10951 -0.30746
 H140 H 1.13036 -0.14235 0.04116
 C141 C 0.64661 0.36408 0.44701
 C142 C 0.62029 0.39963 0.34925
 H143 H 0.63745 0.36536 0.57325
 H144 H 0.63104 0.40047 0.22404
 C145 C 0.84882 -0.13694 -0.03322
 C146 C 0.88374 -0.10869 -0.13097
 H147 H 0.84970 -0.12854 0.09334
 H148 H 0.88157 -0.11514 -0.25835
 C149 C 0.35906 0.36236 0.40378
 C150 C 0.38882 0.39860 0.31535
 H151 H 0.36361 0.36265 0.53193
 H152 H 0.38294 0.40005 0.18774
 C153 C 0.12908 0.63465 -0.26647
 C154 C 0.11708 0.61182 -0.12443
 H155 H 0.10579 0.62128 -0.37071
 H156 H 0.13827 0.62699 -0.01857
 C157 C 0.63757 1.14010 0.34669
 C158 C 0.62161 1.11758 0.48558
 H159 H 0.61547 1.12767 0.23938
 H160 H 0.64090 1.13127 0.59574
 C161 C 0.13645 0.36599 0.16864
 C162 C 0.12383 0.38601 0.02433
 H163 H 0.11244 0.37959 0.27149
 H164 H 0.14626 0.37020 -0.07888
 C165 C 0.62860 0.86738 0.73759
 C166 C 0.61814 0.88756 0.59229
 H167 H 0.60385 0.88207 0.83790
 H168 H 0.64136 0.87135 0.49100
 C169 C 0.86470 0.12878 0.21547
 C170 C 0.88389 0.11629 0.07039
 H171 H 0.88098 0.10618 0.31756
 H172 H 0.86961 0.14015 -0.03171
 C173 C 0.35476 0.63863 0.55110
 C174 C 0.38041 0.60328 0.65131
 H175 H 0.36497 0.63736 0.42552
 H176 H 0.36868 0.60259 0.77584
   
