data_POSCAR
  _audit_creation_date              2014-09-24
  _audit_creation_method            'ToBaCCo'
  _symmetry_space_group_name_H-M    'P1'
  _symmetry_Int_Tables_number       1
  _symmetry_cell_setting            triclinic
  loop_
  _symmetry_equiv_pos_as_xyz
 x,y,z
_cell_length_a 42.1961
_cell_length_b 42.3680
_cell_length_c 43.1696
_cell_angle_alpha 93.108600
_cell_angle_beta 90.607200
_cell_angle_gamma 92.476400
loop_
  _atom_site_label
  _atom_site_type_symbol
  _atom_site_fract_x
  _atom_site_fract_y
  _atom_site_fract_z
N1 N 0.29755 0.24436 0.22596
 N2 N 0.28001 0.25788 0.20565
 C3 C 0.29600 0.25978 0.17896
 C4 C 0.32539 0.24682 0.18278
 C5 C 0.32583 0.23846 0.21344
 H6 H 0.28686 0.26978 0.15833
 H7 H 0.34500 0.22841 0.22587
 Cu8 Cu 0.23930 0.27397 0.21773
 Cu9 Cu 0.28021 0.23086 0.26505
 Cu10 Cu 0.19781 0.22795 0.26443
 N11 N 0.19783 0.28547 0.23232
 N12 N 0.18098 0.26691 0.24989
 C13 C 0.15360 0.28066 0.25702
 C14 C 0.15397 0.31002 0.24423
 C15 C 0.18222 0.31195 0.22828
 H16 H 0.13518 0.27027 0.27098
 H17 H 0.19109 0.33157 0.21536
 N18 N 0.22325 0.20064 0.28954
 N19 N 0.25453 0.20337 0.29133
 C20 C 0.26501 0.18232 0.31087
 C21 C 0.23912 0.16519 0.32147
 C22 C 0.21297 0.17769 0.30785
 H23 H 0.28970 0.17899 0.31621
 H24 H 0.18833 0.17080 0.31127
 H25 H 0.23975 0.22230 0.23960
 H26 H 0.23792 0.25491 0.27025
 N27 N 0.74497 -0.20804 0.17038
 N28 N 0.74998 -0.23687 0.15945
 C29 C 0.73101 -0.24390 0.13458
 C30 C 0.71324 -0.21778 0.12911
 C31 C 0.72288 -0.19554 0.15264
 H32 H 0.72860 -0.26721 0.12309
 H33 H 0.71401 -0.17220 0.15717
 Cu34 Cu 0.77966 -0.26310 0.17975
 Cu35 Cu 0.76497 -0.19056 0.20891
 Cu36 Cu 0.78740 -0.24924 0.25654
 N37 N 0.80409 -0.29025 0.20474
 N38 N 0.80746 -0.28453 0.23482
 C39 C 0.82498 -0.30696 0.24650
 C40 C 0.83257 -0.32845 0.22251
 C41 C 0.81927 -0.31654 0.19621
 H42 H 0.83090 -0.30802 0.27086
 H43 H 0.82149 -0.32550 0.17244
 N44 N 0.77786 -0.20619 0.27232
 N45 N 0.77139 -0.18335 0.25395
 C46 C 0.76711 -0.15661 0.27137
 C47 C 0.77017 -0.16311 0.30233
 C48 C 0.77757 -0.19465 0.30198
 H49 H 0.76174 -0.13419 0.26215
 H50 H 0.78228 -0.20820 0.32192
 H51 H 0.79883 -0.22366 0.21996
 H52 H 0.75575 -0.23455 0.22338
 N53 N 0.71598 0.21288 0.81306
 N54 N 0.73148 0.23575 0.82945
 C55 C 0.71494 0.24303 0.85521
 C56 C 0.68791 0.22332 0.85510
 C57 C 0.68915 0.20480 0.82782
 H58 H 0.72158 0.26164 0.87246
 H59 H 0.67160 0.18698 0.81927
 Cu60 Cu 0.77116 0.25418 0.81461
 Cu61 Cu 0.73139 0.19553 0.77352
 Cu62 Cu 0.80266 0.22806 0.74759
 N63 N 0.81064 0.27303 0.79976
 N64 N 0.82309 0.26227 0.77371
 C65 C 0.84954 0.27979 0.76811
 C66 C 0.85429 0.30288 0.79203
 C67 C 0.82864 0.29800 0.81143
 H68 H 0.86288 0.27739 0.74694
 H69 H 0.82342 0.31169 0.83247
 N70 N 0.77828 0.19340 0.72452
 N71 N 0.75102 0.18125 0.73420
 C72 C 0.73996 0.15872 0.71311
 C73 C 0.76108 0.15689 0.68892
 C74 C 0.78525 0.17888 0.69706
 H75 H 0.71819 0.14460 0.71509
 H76 H 0.80616 0.18405 0.68367
 H77 H 0.77882 0.20606 0.78252
 H78 H 0.75680 0.23582 0.76162
 N79 N 0.29346 -0.20717 0.79085
 N80 N 0.28210 -0.23390 0.80126
 C81 C 0.30133 -0.24278 0.82400
 C82 C 0.32630 -0.22065 0.82768
 C83 C 0.32030 -0.19811 0.80662
 H84 H 0.29782 -0.26404 0.83655
 H85 H 0.33461 -0.17689 0.80286
 Cu86 Cu 0.24403 -0.25536 0.78348
 Cu87 Cu 0.27341 -0.18704 0.75673
 Cu88 Cu 0.20043 -0.21936 0.73106
 N89 N 0.20102 -0.27014 0.77236
 N90 N 0.18391 -0.25607 0.75207
 C91 C 0.15573 -0.27203 0.74809
 C92 C 0.15485 -0.29742 0.76724
 C93 C 0.18437 -0.29547 0.78195
 H94 H 0.13820 -0.26674 0.73090
 H95 H 0.19311 -0.31125 0.79863
 N96 N 0.22136 -0.18230 0.71285
 N97 N 0.24935 -0.17020 0.72245
 C98 C 0.25792 -0.14615 0.70473
 C99 C 0.23400 -0.14263 0.68329
 C100 C 0.21134 -0.16612 0.68886
 H101 H 0.28009 -0.13237 0.70690
 H102 H 0.18961 -0.17148 0.67576
 H103 H 0.22853 -0.20363 0.76876
 H104 H 0.24834 -0.22612 0.73643
 N105 N 0.73496 -0.20589 0.81167
 N106 N 0.74352 -0.23333 0.82102
 C107 C 0.72627 -0.24074 0.84592
 C108 C 0.70591 -0.21664 0.85239
 C109 C 0.71182 -0.19507 0.83008
 H110 H 0.72693 -0.26280 0.85734
 H111 H 0.69905 -0.17394 0.82658
 Cu112 Cu 0.77341 -0.25818 0.79721
 Cu113 Cu 0.75157 -0.18792 0.77422
 Cu114 Cu 0.80557 -0.23190 0.73210
 N115 N 0.80353 -0.28279 0.77346
 N116 N 0.81737 -0.27160 0.74899
 C117 C 0.83791 -0.29263 0.73765
 C118 C 0.83591 -0.31910 0.75521
 C119 C 0.81413 -0.31170 0.77803
 H120 H 0.85222 -0.28951 0.71731
 H121 H 0.80753 -0.32579 0.79728
 N122 N 0.79040 -0.19123 0.71895
 N123 N 0.77085 -0.17394 0.73564
 C124 C 0.76367 -0.14857 0.71989
 C125 C 0.77837 -0.15058 0.69142
 C126 C 0.79565 -0.17756 0.69190
 H127 H 0.74784 -0.13058 0.72795
 H128 H 0.80976 -0.18724 0.67321
 H129 H 0.76075 -0.23056 0.75091
 H130 H 0.79404 -0.21041 0.77414
 N131 N 0.26852 0.21638 0.81437
 N132 N 0.25684 0.24085 0.82957
 C133 C 0.27437 0.24766 0.85559
 C134 C 0.29820 0.22615 0.85676
 C135 C 0.29404 0.20719 0.82977
 H136 H 0.27058 0.26717 0.87215
 H137 H 0.30906 0.18862 0.82142
 Cu138 Cu 0.22166 0.26278 0.81211
 Cu139 Cu 0.25004 0.19777 0.77586
 Cu140 Cu 0.18828 0.23652 0.74373
 N141 N 0.18647 0.28398 0.79380
 N142 N 0.17424 0.27394 0.76670
 C143 C 0.15127 0.29311 0.75878
 C144 C 0.14864 0.31621 0.78227
 C145 C 0.17155 0.30999 0.80404
 H146 H 0.13741 0.29052 0.73752
 H147 H 0.17723 0.32378 0.82534
 N148 N 0.20558 0.19805 0.72420
 N149 N 0.22824 0.18254 0.73708
 C150 C 0.23373 0.15651 0.71897
 C151 C 0.21346 0.15549 0.69350
 C152 C 0.19643 0.18260 0.69732
 H153 H 0.25139 0.13961 0.72373
 H154 H 0.17906 0.19075 0.68135
 H155 H 0.23424 0.23989 0.76088
 H156 H 0.20507 0.21462 0.78183
 N157 N 0.28247 -0.21827 0.18364
 N158 N 0.27066 -0.24571 0.17209
 C159 C 0.29023 -0.25702 0.15006
 C160 C 0.31574 -0.23565 0.14803
 C161 C 0.30985 -0.21118 0.16935
 H162 H 0.28642 -0.27914 0.13657
 H163 H 0.32479 -0.19013 0.17448
 Cu164 Cu 0.23124 -0.26416 0.18755
 Cu165 Cu 0.26250 -0.19452 0.21748
 Cu166 Cu 0.19195 -0.22666 0.24487
 N167 N 0.19111 -0.28142 0.20260
 N168 N 0.17573 -0.26638 0.22480
 C169 C 0.14939 -0.28361 0.23146
 C170 C 0.14799 -0.31078 0.21220
 C171 C 0.17504 -0.30883 0.19445
 H172 H 0.13302 -0.27745 0.24969
 H173 H 0.18260 -0.32642 0.17732
 N174 N 0.21203 -0.18669 0.26221
 N175 N 0.23873 -0.17419 0.25165
 C176 C 0.24734 -0.14816 0.26963
 C177 C 0.22491 -0.14408 0.29244
 C178 C 0.20307 -0.16905 0.28720
 H179 H 0.26921 -0.13422 0.26753
 H180 H 0.18291 -0.17460 0.30149
 H181 H 0.23956 -0.23290 0.23632
 H182 H 0.21696 -0.21169 0.20704
 N183 N 0.70745 0.20227 0.20921
 N184 N 0.71650 0.23174 0.20474
 C185 C 0.70150 0.24127 0.17948
 C186 C 0.68235 0.21626 0.16710
 C187 C 0.68632 0.19203 0.18693
 H188 H 0.70384 0.26486 0.17113
 H189 H 0.67458 0.16878 0.18535
 Cu190 Cu 0.74682 0.25518 0.23246
 Cu191 Cu 0.72369 0.18028 0.24426
 Cu192 Cu 0.79993 0.20875 0.26305
 N193 N 0.78602 0.27266 0.25164
 N194 N 0.80780 0.25414 0.26129
 C195 C 0.83442 0.27164 0.26860
 C196 C 0.82873 0.30320 0.26458
 C197 C 0.79766 0.30274 0.25350
 H198 H 0.85662 0.26176 0.27497
 H199 H 0.78495 0.32259 0.24584
 N200 N 0.78206 0.16785 0.27630
 N201 N 0.75267 0.15737 0.26992
 C202 C 0.74602 0.13176 0.28621
 C203 C 0.77255 0.12582 0.30372
 C204 C 0.79484 0.14927 0.29697
 H205 H 0.72289 0.11983 0.28709
 H206 H 0.81779 0.15385 0.30810
 H207 H 0.75254 0.21507 0.27001
 H208 H 0.76408 0.20079 0.23011
 C209 C 0.23447 0.01876 0.49658
 C210 C 0.23638 -0.01332 0.49425
 C211 C 0.23541 -0.03098 0.46354
 C212 C 0.23810 -0.03245 0.52203
 C213 C 0.23073 0.03691 0.52677
 C214 C 0.23555 0.03765 0.46859
 C215 C 0.21025 -0.02768 0.44252
 C216 C 0.20953 -0.04432 0.41369
 C217 C 0.23379 -0.06468 0.40558
 C218 C 0.25855 -0.06856 0.42679
 C219 C 0.25936 -0.05179 0.45559
 C220 C 0.21604 -0.05779 0.52524
 C221 C 0.21584 -0.07465 0.55213
 C222 C 0.23769 -0.06644 0.57625
 C223 C 0.26073 -0.04210 0.57252
 C224 C 0.26099 -0.02524 0.54554
 C225 C 0.24889 0.06516 0.53302
 C226 C 0.24436 0.08369 0.56017
 C227 C 0.22175 0.07426 0.58181
 C228 C 0.20421 0.04555 0.57609
 C229 C 0.20801 0.02750 0.54843
 C230 C 0.26185 0.03713 0.44890
 C231 C 0.26305 0.05600 0.42331
 C232 C 0.23795 0.07546 0.41718
 C233 C 0.21167 0.07591 0.43671
 C234 C 0.21054 0.05724 0.46236
 H235 H 0.19111 -0.01237 0.44855
 H236 H 0.18992 -0.04160 0.39780
 H237 H 0.27721 -0.08454 0.42099
 H238 H 0.27876 -0.05488 0.47162
 H239 H 0.19838 -0.06393 0.50729
 H240 H 0.19825 -0.09373 0.55445
 H241 H 0.27862 -0.00620 0.54322
 H242 H 0.26645 0.07304 0.51669
 H243 H 0.25835 0.10559 0.56421
 H244 H 0.18712 0.03746 0.59278
 H245 H 0.19300 0.00636 0.54388
 H246 H 0.28154 0.02247 0.45362
 H247 H 0.28354 0.05561 0.40842
 H248 H 0.19222 0.09097 0.43223
 H249 H 0.19016 0.05802 0.47738
 H250 H 0.27804 -0.03577 0.59075
 C251 C 0.77000 0.00769 0.49925
 C252 C 0.77057 -0.02437 0.50000
 C253 C 0.77201 -0.04111 0.52949
 C254 C 0.77019 -0.04400 0.47048
 C255 C 0.77094 0.02289 0.46916
 C256 C 0.76728 0.02899 0.52755
 C257 C 0.79378 -0.03109 0.55336
 C258 C 0.79429 -0.04656 0.58120
 C259 C 0.77345 -0.07265 0.58545
 C260 C 0.75299 -0.08368 0.56103
 C261 C 0.75203 -0.06793 0.53355
 C262 C 0.79834 -0.04829 0.45412
 C263 C 0.79773 -0.06535 0.42545
 C264 C 0.76904 -0.07898 0.41303
 C265 C 0.74108 -0.07540 0.43006
 C266 C 0.74150 -0.05721 0.45801
 C267 C 0.74264 0.02870 0.45357
 C268 C 0.74354 0.04276 0.42501
 C269 C 0.77275 0.05121 0.41183
 C270 C 0.80103 0.04530 0.42743
 C271 C 0.80013 0.03102 0.45584
 C272 C 0.74323 0.02377 0.54924
 C273 C 0.74075 0.04431 0.57553
 C274 C 0.76177 0.07081 0.58011
 C275 C 0.78569 0.07604 0.55846
 C276 C 0.78835 0.05543 0.53237
 H277 H 0.81031 -0.01124 0.55050
 H278 H 0.81080 -0.03810 0.59948
 H279 H 0.73742 -0.10439 0.56341
 H280 H 0.73528 -0.07673 0.51572
 H281 H 0.82065 -0.03800 0.46335
 H282 H 0.81967 -0.06795 0.41297
 H283 H 0.71944 -0.05357 0.47001
 H284 H 0.71996 0.02235 0.46356
 H285 H 0.72152 0.04746 0.41336
 H286 H 0.82374 0.05186 0.41762
 H287 H 0.82215 0.02642 0.46755
 H288 H 0.72635 0.00387 0.54578
 H289 H 0.72231 0.03974 0.59217
 H290 H 0.80223 0.09626 0.56170
 H291 H 0.80708 0.06005 0.51609
 H292 H 0.71882 -0.08648 0.42159
 C293 C 0.49860 0.23857 0.02320
 C294 C 0.49620 0.23738 -0.00830
 C295 C 0.52504 0.23529 -0.02759
 C296 C 0.46527 0.23743 -0.02529
 C297 C 0.47090 0.24071 0.04371
 C298 C 0.52927 0.23516 0.03935
 C299 C 0.54945 0.25892 -0.02484
 C300 C 0.57669 0.25639 -0.04278
 C301 C 0.57992 0.23016 -0.06363
 C302 C 0.55520 0.20694 -0.06688
 C303 C 0.52794 0.20951 -0.04901
 C304 C 0.46161 0.25789 -0.04952
 C305 C 0.43422 0.25567 -0.06821
 C306 C 0.40979 0.23312 -0.06284
 C307 C 0.41281 0.21376 -0.03767
 C308 C 0.44072 0.21501 -0.01997
 C309 C 0.45683 0.21293 0.05450
 C310 C 0.43299 0.21441 0.07651
 C311 C 0.42506 0.24363 0.09069
 C312 C 0.43920 0.27156 0.07981
 C313 C 0.46170 0.27010 0.05620
 C314 C 0.54386 0.20597 0.03791
 C315 C 0.57106 0.20187 0.05577
 C316 C 0.58404 0.22700 0.07499
 C317 C 0.56994 0.25637 0.07583
 C318 C 0.54260 0.26038 0.05824
 H319 H 0.54734 0.27930 -0.00886
 H320 H 0.59528 0.27484 -0.04044
 H321 H 0.55716 0.18671 -0.08309
 H322 H 0.50924 0.19118 -0.05157
 H323 H 0.48038 0.27507 -0.05448
 H324 H 0.43241 0.27107 -0.08731
 H325 H 0.44346 0.19743 -0.00315
 H326 H 0.46444 0.19001 0.04592
 H327 H 0.42156 0.19252 0.08330
 H328 H 0.43340 0.29446 0.09004
 H329 H 0.47291 0.29178 0.04863
 H330 H 0.53362 0.18620 0.02368
 H331 H 0.58166 0.17902 0.05507
 H332 H 0.57967 0.27590 0.09072
 H333 H 0.53159 0.28302 0.05968
 H334 H 0.39407 0.19660 -0.03261
 C335 C 0.50782 0.77322 0.01135
 C336 C 0.50777 0.77264 -0.02020
 C337 C 0.53791 0.77421 -0.03760
 C338 C 0.47828 0.77213 -0.03920
 C339 C 0.47827 0.77077 0.02968
 C340 C 0.53818 0.77646 0.02911
 C341 C 0.54443 0.79979 -0.05617
 C342 C 0.57293 0.80206 -0.07216
 C343 C 0.59531 0.77870 -0.06993
 C344 C 0.58851 0.75271 -0.05187
 C345 C 0.56002 0.75052 -0.03574
 C346 C 0.45651 0.79617 -0.03535
 C347 C 0.43110 0.79761 -0.05626
 C348 C 0.42742 0.77522 -0.08135
 C349 C 0.44837 0.75047 -0.08438
 C350 C 0.47374 0.74909 -0.06362
 C351 C 0.45502 0.74646 0.02315
 C352 C 0.42802 0.74399 0.04157
 C353 C 0.42425 0.76533 0.06718
 C354 C 0.44733 0.78967 0.07355
 C355 C 0.47413 0.79230 0.05506
 C356 C 0.54763 0.75167 0.04686
 C357 C 0.57730 0.75347 0.06166
 C358 C 0.59771 0.78019 0.05905
 C359 C 0.58784 0.80547 0.04222
 C360 C 0.55823 0.80363 0.02732
 H361 H 0.52757 0.81819 -0.05797
 H362 H 0.57760 0.82208 -0.08626
 H363 H 0.60520 0.73411 -0.05043
 H364 H 0.55513 0.73036 -0.02188
 H365 H 0.45991 0.81443 -0.01693
 H366 H 0.41503 0.81679 -0.05359
 H367 H 0.49035 0.73045 -0.06702
 H368 H 0.45798 0.72916 0.00412
 H369 H 0.41030 0.72518 0.03620
 H370 H 0.44475 0.80643 0.09312
 H371 H 0.49174 0.81117 0.06060
 H372 H 0.53238 0.73062 0.04852
 H373 H 0.58455 0.73392 0.07485
 H374 H 0.60328 0.82634 0.04025
 H375 H 0.55110 0.82310 0.01396
 H376 H 0.44565 0.73285 -0.10347
 C377 C 0.00985 0.49304 0.23856
 C378 C -0.02222 0.49235 0.24141
 C379 C -0.04042 0.46250 0.24638
 C380 C -0.04116 0.52084 0.23865
 C381 C 0.02849 0.52285 0.23405
 C382 C 0.02814 0.46406 0.24074
 C383 C -0.05326 0.44439 0.22081
 C384 C -0.07155 0.41682 0.22515
 C385 C -0.07867 0.40767 0.25522
 C386 C -0.06656 0.42656 0.28084
 C387 C -0.04685 0.45328 0.27643
 C388 C -0.03994 0.53821 0.21182
 C389 C -0.05984 0.56344 0.20857
 C390 C -0.08165 0.57120 0.23183
 C391 C -0.08227 0.55441 0.25891
 C392 C -0.06227 0.52943 0.26227
 C393 C 0.02744 0.54876 0.25567
 C394 C 0.04551 0.57654 0.25116
 C395 C 0.06465 0.57883 0.22489
 C396 C 0.06608 0.55271 0.20362
 C397 C 0.04820 0.52491 0.20822
 C398 C 0.05130 0.46279 0.26412
 C399 C 0.06947 0.43615 0.26591
 C400 C 0.06440 0.41003 0.24469
 C401 C 0.04161 0.41159 0.22093
 C402 C 0.02390 0.43852 0.21877
 H403 H -0.04904 0.45163 0.19748
 H404 H -0.08079 0.40297 0.20497
 H405 H -0.07271 0.42091 0.30425
 H406 H -0.03750 0.46737 0.29642
 H407 H -0.02415 0.53176 0.19313
 H408 H -0.05893 0.57635 0.18760
 H409 H -0.06358 0.51659 0.28324
 H410 H 0.01287 0.54734 0.27609
 H411 H 0.04466 0.59624 0.26816
 H412 H 0.08100 0.55393 0.18342
 H413 H 0.04951 0.50503 0.19147
 H414 H 0.05545 0.48257 0.28086
 H415 H 0.08770 0.43599 0.28375
 H416 H 0.03782 0.39208 0.20383
 H417 H 0.00735 0.43964 0.19961
 H418 H -0.09881 0.56021 0.27716
 C419 C 0.01469 0.50644 0.76990
 C420 C -0.01750 0.50375 0.77145
 C421 C -0.03460 0.47313 0.77657
 C422 C -0.03753 0.53112 0.76763
 C423 C 0.03186 0.53759 0.76767
 C424 C 0.03442 0.47833 0.77126
 C425 C -0.05818 0.46135 0.75529
 C426 C -0.07438 0.43253 0.75960
 C427 C -0.06738 0.41522 0.78535
 C428 C -0.04418 0.42704 0.80693
 C429 C -0.02795 0.45593 0.80265
 C430 C -0.03908 0.54556 0.73918
 C431 C -0.06043 0.56938 0.73499
 C432 C -0.08036 0.57908 0.75925
 C433 C -0.07757 0.56562 0.78813
 C434 C -0.05676 0.54142 0.79209
 C435 C 0.02710 0.56265 0.78958
 C436 C 0.04488 0.59115 0.78840
 C437 C 0.06783 0.59492 0.76546
 C438 C 0.07269 0.56992 0.74364
 C439 C 0.05480 0.54149 0.74471
 C440 C 0.05840 0.47782 0.79399
 C441 C 0.07626 0.45105 0.79638
 C442 C 0.07038 0.42441 0.77608
 C443 C 0.04715 0.42524 0.75268
 C444 C 0.02934 0.45206 0.75022
 H445 H -0.06375 0.47431 0.73513
 H446 H -0.09231 0.42363 0.74282
 H447 H -0.03868 0.41388 0.82698
 H448 H -0.01023 0.46488 0.81960
 H449 H -0.02447 0.53770 0.72003
 H450 H -0.06200 0.57967 0.71264
 H451 H -0.05575 0.53054 0.81420
 H452 H 0.01024 0.55986 0.80806
 H453 H 0.04133 0.61002 0.80580
 H454 H 0.09060 0.57234 0.72604
 H455 H 0.05909 0.52234 0.72782
 H456 H 0.06286 0.49795 0.81024
 H457 H 0.09448 0.45094 0.81423
 H458 H 0.04261 0.40500 0.73659
 H459 H 0.01139 0.45226 0.73212
 H460 H -0.09221 0.57327 0.80734
 C461 C 0.37431 0.22064 0.15990
 C462 C 0.35102 0.24396 0.15937
 C463 C 0.35310 0.26647 0.13670
 C464 C 0.37733 0.26629 0.11506
 C465 C 0.40154 0.24475 0.11628
 C466 C 0.40117 0.22304 0.14029
 C467 C 0.37135 0.19437 0.17865
 C468 C 0.39627 0.17417 0.18176
 C469 C 0.42439 0.17945 0.16599
 C470 C 0.42689 0.20357 0.14534
 H471 H 0.34957 0.18846 0.19030
 H472 H 0.39383 0.15449 0.19666
 H473 H 0.44405 0.16431 0.16915
 H474 H 0.44914 0.20682 0.13349
 H475 H 0.33576 0.28446 0.13550
 H476 H 0.37694 0.28308 0.09703
 C477 C 0.68392 0.76461 0.07986
 C478 C 0.68752 0.78400 0.10795
 C479 C 0.66308 0.80439 0.11611
 C480 C 0.63461 0.80324 0.09953
 C481 C 0.62935 0.78178 0.07417
 C482 C 0.65419 0.76274 0.06357
 C483 C 0.70956 0.74872 0.06629
 C484 C 0.70525 0.72917 0.03940
 C485 C 0.67567 0.72574 0.02484
 C486 C 0.65044 0.74272 0.03641
 H487 H 0.73345 0.75224 0.07538
 H488 H 0.72514 0.71703 0.02951
 H489 H 0.67254 0.71074 0.00382
 H490 H 0.62827 0.74060 0.02348
 H491 H 0.66476 0.82007 0.13674
 H492 H 0.61594 0.81843 0.10738
 C493 C 0.66612 0.22337 -0.08997
 C494 C 0.66149 0.22407 -0.12258
 C495 C 0.63066 0.22531 -0.13465
 C496 C 0.60469 0.22707 -0.11517
 C497 C 0.60862 0.22748 -0.08292
 C498 C 0.63942 0.22507 -0.06999
 C499 C 0.69643 0.21977 -0.07679
 C500 C 0.70047 0.21849 -0.04479
 C501 C 0.67446 0.22018 -0.02534
 C502 C 0.64417 0.22323 -0.03770
 H503 H 0.71721 0.21727 -0.09096
 H504 H 0.72387 0.21573 -0.03506
 H505 H 0.67770 0.21862 -0.00058
 H506 H 0.62459 0.22360 -0.02176
 H507 H 0.62665 0.22557 -0.15946
 H508 H 0.58127 0.22859 -0.12536
 C509 C 0.38540 0.78342 -0.15935
 C510 C 0.35335 0.77887 -0.15025
 C511 C 0.34660 0.77381 -0.11914
 C512 C 0.37081 0.77352 -0.09700
 C513 C 0.40254 0.77819 -0.10530
 C514 C 0.41010 0.78384 -0.13652
 C515 C 0.39368 0.78660 -0.19070
 C516 C 0.42521 0.79194 -0.19904
 C517 C 0.44911 0.79398 -0.17651
 C518 C 0.44178 0.78992 -0.14555
 H519 H 0.37614 0.78451 -0.20917
 H520 H 0.43112 0.79452 -0.22314
 H521 H 0.47352 0.79843 -0.18310
 H522 H 0.46112 0.79172 -0.12882
 H523 H 0.32227 0.77018 -0.11187
 H524 H 0.36477 0.76911 -0.07324
 C525 C 0.11338 0.34300 0.27390
 C526 C 0.12972 0.33444 0.24623
 C527 C 0.12319 0.34993 0.21915
 C528 C 0.10138 0.37358 0.21899
 C529 C 0.08475 0.38231 0.24577
 C530 C 0.08974 0.36610 0.27323
 C531 C 0.12056 0.33010 0.30253
 C532 C 0.10304 0.33747 0.32895
 C533 C 0.07832 0.35802 0.32757
 C534 C 0.07171 0.37234 0.30007
 H535 H 0.14007 0.31482 0.30517
 H536 H 0.10866 0.32711 0.35061
 H537 H 0.06448 0.36326 0.34804
 H538 H 0.05225 0.38814 0.30003
 H539 H 0.13534 0.34386 0.19780
 H540 H 0.09799 0.38568 0.19781
 C541 C 0.09832 0.68143 0.76264
 C542 C 0.13132 0.67783 0.76873
 C543 C 0.14137 0.64759 0.77523
 C544 C 0.12049 0.62130 0.77363
 C545 C 0.08859 0.62400 0.76583
 C546 C 0.07715 0.65410 0.76019
 C547 C 0.08523 0.71150 0.76108
 C548 C 0.05318 0.71436 0.75404
 C549 C 0.03325 0.68752 0.74916
 C550 C 0.04494 0.65763 0.75246
 H551 H 0.09908 0.73312 0.76649
 H552 H 0.04370 0.73759 0.75265
 H553 H 0.00844 0.68990 0.74352
 H554 H 0.02850 0.63738 0.74912
 H555 H 0.16603 0.64357 0.78012
 H556 H 0.12943 0.59843 0.77840
 C557 C -0.15212 0.61719 0.20419
 C558 C -0.14854 0.64493 0.22453
 C559 C -0.12447 0.64624 0.24743
 C560 C -0.10291 0.62247 0.24894
 C561 C -0.10456 0.59624 0.22786
 C562 C -0.12948 0.59311 0.20547
 C563 C -0.17908 0.61125 0.18459
 C564 C -0.18215 0.58408 0.16491
 C565 C -0.15919 0.56158 0.16505
 C566 C -0.13338 0.56567 0.18543
 H567 H -0.19888 0.62650 0.18518
 H568 H -0.20286 0.58014 0.14995
 H569 H -0.16190 0.54036 0.14996
 H570 H -0.11702 0.54676 0.18574
 H571 H -0.12113 0.66658 0.26361
 H572 H -0.08441 0.62475 0.26663
 C573 C -0.09243 0.32721 0.77977
 C574 C -0.12293 0.32850 0.79376
 C575 C -0.13163 0.35743 0.80821
 C576 C -0.11290 0.38500 0.80587
 C577 C -0.08458 0.38470 0.78950
 C578 C -0.07364 0.35573 0.77691
 C579 C -0.07912 0.29823 0.77031
 C580 C -0.04966 0.29760 0.75599
 C581 C -0.03243 0.32565 0.75141
 C582 C -0.04406 0.35450 0.76200
 H583 H -0.09057 0.27573 0.77497
 H584 H -0.04001 0.27518 0.74869
 H585 H -0.00958 0.32499 0.74028
 H586 H -0.02945 0.37571 0.75891
 H587 H -0.15421 0.35956 0.81962
 H588 H -0.12116 0.40708 0.81601
 C589 C 0.22352 0.11014 0.33863
 C590 C 0.23953 0.14016 0.34402
 C591 C 0.25630 0.14694 0.37193
 C592 C 0.25613 0.12532 0.39505
 C593 C 0.23936 0.09619 0.39085
 C594 C 0.22333 0.08805 0.36239
 C595 C 0.20845 0.10117 0.30995
 C596 C 0.19300 0.07150 0.30510
 C597 C 0.19242 0.05016 0.32852
 C598 C 0.20747 0.05821 0.35693
 H599 H 0.20891 0.11663 0.29084
 H600 H 0.18160 0.06494 0.28296
 H601 H 0.18052 0.02712 0.32455
 H602 H 0.20691 0.04079 0.37438
 H603 H 0.26891 0.16960 0.37625
 H604 H 0.26859 0.13164 0.41673
 C605 C 0.73257 0.13274 0.64036
 C606 C 0.75926 0.13524 0.66081
 C607 C 0.78556 0.11715 0.65411
 C608 C 0.78563 0.09626 0.62814
 C609 C 0.75948 0.09286 0.60781
 C610 C 0.73270 0.11137 0.61361
 C611 C 0.70631 0.15194 0.64508
 C612 C 0.68061 0.14973 0.62440
 C613 C 0.68072 0.12886 0.59840
 C614 C 0.70655 0.11003 0.59281
 H615 H 0.70551 0.16925 0.66432
 H616 H 0.66066 0.16460 0.62838
 H617 H 0.66084 0.12755 0.58225
 H618 H 0.70594 0.09485 0.57185
 H619 H 0.80620 0.11900 0.66936
 H620 H 0.80636 0.08252 0.62384
 C621 C 0.20853 -0.10155 0.65136
 C622 C 0.23430 -0.12076 0.65768
 C623 C 0.26108 -0.11970 0.63879
 C624 C 0.26203 -0.10139 0.61297
 C625 C 0.23630 -0.08344 0.60532
 C626 C 0.20957 -0.08269 0.62498
 C627 C 0.18216 -0.09984 0.67118
 C628 C 0.15726 -0.08047 0.66490
 C629 C 0.15826 -0.06213 0.63913
 C630 C 0.18420 -0.06298 0.61941
 H631 H 0.18075 -0.11286 0.69199
 H632 H 0.13723 -0.07940 0.68032
 H633 H 0.13901 -0.04688 0.63457
 H634 H 0.18436 -0.04768 0.60015
 H635 H 0.28108 -0.13399 0.64349
 H636 H 0.28272 -0.10191 0.59832
 C637 C 0.74466 -0.11771 0.33308
 C638 C 0.76788 -0.14100 0.33004
 C639 C 0.79038 -0.14301 0.35386
 C640 C 0.79056 -0.12247 0.38009
 C641 C 0.76869 -0.09857 0.38329
 C642 C 0.74608 -0.09538 0.35911
 C643 C 0.71946 -0.11654 0.31140
 C644 C 0.69794 -0.09251 0.31379
 C645 C 0.70097 -0.06925 0.33772
 C646 C 0.72489 -0.07044 0.36008
 H647 H 0.71554 -0.13446 0.29287
 H648 H 0.67891 -0.09184 0.29686
 H649 H 0.68463 -0.05023 0.33906
 H650 H 0.72666 -0.05150 0.37790
 H651 H 0.80820 -0.16067 0.35216
 H652 H 0.80784 -0.12555 0.39829
 C653 C 0.68286 0.78197 -0.09356
 C654 C 0.67893 0.78282 -0.12614
 C655 C 0.64841 0.78330 -0.13902
 C656 C 0.62182 0.78201 -0.12035
 C657 C 0.62486 0.78066 -0.08811
 C658 C 0.65558 0.78134 -0.07429
 C659 C 0.71330 0.78284 -0.07961
 C660 C 0.71684 0.78350 -0.04742
 C661 C 0.69028 0.78362 -0.02858
 C662 C 0.65990 0.78252 -0.04175
 H663 H 0.73458 0.78354 -0.09335
 H664 H 0.74033 0.78439 -0.03701
 H665 H 0.69326 0.78486 -0.00362
 H666 H 0.64000 0.78322 -0.02619
 H667 H 0.64509 0.78406 -0.16389
 H668 H 0.59854 0.78171 -0.13124
 C669 C 0.33987 0.19780 -0.11315
 C670 C 0.32492 0.22597 -0.12045
 C671 C 0.33753 0.25511 -0.10788
 C672 C 0.36484 0.25686 -0.08936
 C673 C 0.38122 0.22967 -0.08353
 C674 C 0.36931 0.19986 -0.09646
 C675 C 0.32611 0.16752 -0.12159
 C676 C 0.34252 0.14026 -0.11704
 C677 C 0.37279 0.14257 -0.10390
 C678 C 0.38616 0.17200 -0.09369
 H679 H 0.30235 0.16447 -0.13117
 H680 H 0.33180 0.11727 -0.12403
 H681 H 0.38581 0.12141 -0.10116
 H682 H 0.40987 0.17261 -0.08391
 H683 H 0.32657 0.27693 -0.11291
 H684 H 0.37342 0.27980 -0.07965
 C685 C 0.36339 0.73619 0.12595
 C686 C 0.34332 0.76229 0.12722
 C687 C 0.35021 0.78800 0.10903
 C688 C 0.37612 0.78816 0.08939
 C689 C 0.39618 0.76268 0.08740
 C690 C 0.39008 0.73642 0.10587
 C691 C 0.35847 0.71051 0.14515
 C692 C 0.37884 0.68545 0.14417
 C693 C 0.40478 0.68566 0.12457
 C694 C 0.41061 0.71095 0.10577
 H695 H 0.33929 0.70969 0.16149
 H696 H 0.37471 0.66594 0.15901
 H697 H 0.42071 0.66629 0.12420
 H698 H 0.43155 0.71045 0.09159
 H699 H 0.33528 0.80820 0.10997
 H700 H 0.38069 0.80850 0.07567
 C701 C 0.66667 0.23129 0.11270
 C702 C 0.65946 0.21668 0.14082
 C703 C 0.62887 0.20344 0.14492
 C704 C 0.60511 0.20609 0.12276
 C705 C 0.61111 0.22220 0.09587
 C706 C 0.64210 0.23452 0.09030
 C707 C 0.69783 0.24208 0.10587
 C708 C 0.70428 0.25688 0.07840
 C709 C 0.68005 0.26087 0.05704
 C710 C 0.64924 0.24961 0.06270
 H711 H 0.71761 0.23860 0.12122
 H712 H 0.72827 0.26510 0.07357
 H713 H 0.68524 0.27231 0.03574
 H714 H 0.63121 0.25247 0.04517
 H715 H 0.62290 0.19199 0.16605
 H716 H 0.58146 0.19647 0.12714
 C717 C -0.15803 0.62301 0.75968
 C718 C -0.14611 0.65361 0.75208
 C719 C -0.11451 0.65712 0.74238
 C720 C -0.09386 0.63251 0.74410
 C721 C -0.10423 0.60320 0.75461
 C722 C -0.13687 0.59770 0.76097
 C723 C -0.19085 0.61622 0.76357
 C724 C -0.20220 0.58602 0.77034
 C725 C -0.18143 0.56165 0.77236
 C726 C -0.14919 0.56718 0.76728
 H727 H -0.20831 0.63361 0.76010
 H728 H -0.22738 0.58136 0.77332
 H729 H -0.19046 0.53811 0.77708
 H730 H -0.13429 0.54706 0.76743
 H731 H -0.10483 0.67982 0.73570
 H732 H -0.06916 0.63686 0.73841
 C733 C -0.12047 0.33292 0.28552
 C734 C -0.14781 0.33062 0.26579
 C735 C -0.15192 0.35409 0.24461
 C736 C -0.12949 0.37868 0.24199
 C737 C -0.10120 0.38022 0.25941
 C738 C -0.09609 0.35660 0.28086
 C739 C -0.11688 0.31274 0.31019
 C740 C -0.08868 0.31333 0.32736
 C741 C -0.06362 0.33409 0.32049
 C742 C -0.06718 0.35559 0.29752
 H743 H -0.13598 0.29693 0.31702
 H744 H -0.08617 0.29743 0.34595
 H745 H -0.04149 0.33390 0.33338
 H746 H -0.04701 0.37112 0.29286
 H747 H -0.17244 0.35330 0.22930
 H748 H -0.13425 0.39662 0.22582
 C749 C 0.10713 0.35099 0.80720
 C750 C 0.12756 0.34320 0.78228
 C751 C 0.12755 0.36112 0.75595
 C752 C 0.10866 0.38707 0.75433
 C753 C 0.08901 0.39588 0.77892
 C754 C 0.08765 0.37756 0.80546
 C755 C 0.10467 0.33235 0.83328
 C756 C 0.08398 0.33997 0.85725
 C757 C 0.06504 0.36591 0.85556
 C758 C 0.06659 0.38446 0.82988
 H759 H 0.11818 0.31144 0.83524
 H760 H 0.08237 0.32544 0.87709
 H761 H 0.04877 0.37148 0.87409
 H762 H 0.05083 0.40387 0.82918
 H763 H 0.14275 0.35525 0.73659
 H764 H 0.10971 0.40073 0.73382
 C765 C 0.09169 0.66507 0.21345
 C766 C 0.12506 0.66190 0.21349
 C767 C 0.13728 0.63188 0.21562
 C768 C 0.11727 0.60539 0.21901
 C769 C 0.08434 0.60796 0.22023
 C770 C 0.07115 0.63784 0.21684
 C771 C 0.07817 0.69445 0.20906
 C772 C 0.04534 0.69708 0.20863
 C773 C 0.02535 0.67055 0.21201
 C774 C 0.03799 0.64113 0.21582
 H775 H 0.09266 0.71550 0.20528
 H776 H 0.03536 0.71977 0.20525
 H777 H -0.00012 0.67269 0.21130
 H778 H 0.02152 0.62103 0.21745
 H779 H 0.16267 0.62901 0.21553
 H780 H 0.12766 0.58267 0.22131
 C781 C 0.74598 -0.11773 0.65561
 C782 C 0.77537 -0.12956 0.66521
 C783 C 0.80307 -0.12116 0.64941
 C784 C 0.80221 -0.10172 0.62446
 C785 C 0.77368 -0.08951 0.61474
 C786 C 0.74550 -0.09632 0.63124
 C787 C 0.71682 -0.12744 0.66870
 C788 C 0.68857 -0.11412 0.66024
 C789 C 0.68863 -0.09120 0.63839
 C790 C 0.71673 -0.08239 0.62388
 H791 H 0.71518 -0.14586 0.68496
 H792 H 0.66651 -0.12159 0.67076
 H793 H 0.66672 -0.08057 0.63227
 H794 H 0.71571 -0.06452 0.60698
 H795 H 0.82566 -0.13001 0.65627
 H796 H 0.82394 -0.09683 0.61210
 C797 C 0.23184 -0.08880 0.31864
 C798 C 0.22712 -0.12205 0.32023
 C799 C 0.22484 -0.13517 0.34925
 C800 C 0.22754 -0.11619 0.37648
 C801 C 0.23230 -0.08338 0.37564
 C802 C 0.23466 -0.06931 0.34664
 C803 C 0.23311 -0.07435 0.28995
 C804 C 0.23799 -0.04165 0.28885
 C805 C 0.24163 -0.02276 0.31616
 C806 C 0.24001 -0.03633 0.34484
 H807 H 0.23003 -0.08803 0.26818
 H808 H 0.23897 -0.03091 0.26667
 H809 H 0.24562 0.00258 0.31512
 H810 H 0.24309 -0.02079 0.36547
 H811 H 0.22131 -0.16051 0.35088
 H812 H 0.22560 -0.12718 0.39851
 C813 C 0.76369 0.07217 0.32694
 C814 C 0.77400 0.10454 0.32975
 C815 C 0.78516 0.11762 0.35854
 C816 C 0.78501 0.09973 0.38459
 C817 C 0.77376 0.06815 0.38276
 C818 C 0.76352 0.05383 0.35372
 C819 C 0.75447 0.05733 0.29799
 C820 C 0.74500 0.02535 0.29552
 C821 C 0.74478 0.00752 0.32165
 C822 C 0.75393 0.02148 0.35054
 H823 H 0.75512 0.07001 0.27693
 H824 H 0.73813 0.01425 0.27314
 H825 H 0.73788 -0.01736 0.31938
 H826 H 0.75394 0.00663 0.37017
 H827 H 0.79319 0.14226 0.36116
 H828 H 0.79310 0.11088 0.40663
 C829 C 0.18508 0.12278 0.64917
 C830 C 0.21313 0.13249 0.66627
 C831 C 0.24232 0.12158 0.65609
 C832 C 0.24436 0.10251 0.62905
 C833 C 0.21741 0.09416 0.61071
 C834 C 0.18743 0.10479 0.62041
 C835 C 0.15466 0.12999 0.66012
 C836 C 0.12759 0.12232 0.64200
 C837 C 0.13021 0.10723 0.61279
 C838 C 0.15976 0.09850 0.60200
 H839 H 0.15132 0.14098 0.68294
 H840 H 0.10448 0.12829 0.65061
 H841 H 0.10918 0.10192 0.59855
 H842 H 0.16059 0.08705 0.57906
 H843 H 0.26404 0.12849 0.66875
 H844 H 0.26741 0.09449 0.62212
   
