data_POSCAR
  _audit_creation_date              2014-09-24
  _audit_creation_method            'ToBaCCo'
  _symmetry_space_group_name_H-M    'P1'
  _symmetry_Int_Tables_number       1
  _symmetry_cell_setting            triclinic
  loop_
  _symmetry_equiv_pos_as_xyz
 x,y,z
_cell_length_a 40.9581
_cell_length_b 40.9090
_cell_length_c 42.0405
_cell_angle_alpha 90.538700
_cell_angle_beta 90.347800
_cell_angle_gamma 89.396900
loop_
  _atom_site_label
  _atom_site_type_symbol
  _atom_site_fract_x
  _atom_site_fract_y
  _atom_site_fract_z
N1 N 0.25300 0.22718 0.24520
 N2 N 0.75818 -0.25250 0.25319
 N3 N 0.74402 0.25793 0.74432
 N4 N 0.25188 -0.24559 0.76124
 N5 N 0.75767 -0.22714 0.75474
 N6 N 0.24218 0.24177 0.75394
 N7 N 0.25553 -0.24853 0.24477
 N8 N 0.74454 0.25835 0.25027
 O9 O 0.20416 0.02081 0.47119
 O10 O 0.20640 -0.04088 0.53446
 O11 O 0.20274 0.02286 0.53333
 O12 O 0.20694 -0.04280 0.47306
 O13 O 0.26076 -0.04013 0.47359
 O14 O 0.25650 0.02526 0.53434
 O15 O 0.26020 -0.03820 0.53588
 O16 O 0.25792 0.02320 0.47251
 Cu17 Cu 0.19965 -0.01011 0.50294
 Cu18 Cu 0.26424 -0.00726 0.50423
 C19 C 0.23070 0.03243 0.46088
 C20 C 0.23371 -0.05014 0.54589
 C21 C 0.22887 0.03526 0.54424
 C22 C 0.23454 -0.05264 0.46299
 O23 O 0.76769 0.04042 0.52611
 O24 O 0.77436 -0.02055 0.46148
 O25 O 0.76651 0.04253 0.46447
 O26 O 0.77593 -0.02288 0.52347
 O27 O 0.72232 -0.02704 0.52614
 O28 O 0.71335 0.03426 0.46297
 O29 O 0.72132 -0.02906 0.46410
 O30 O 0.71408 0.03589 0.52502
 Cu31 Cu 0.77650 0.01045 0.49385
 Cu32 Cu 0.71239 0.00286 0.49457
 C33 C 0.73971 0.04896 0.53632
 C34 C 0.74902 -0.03549 0.45199
 C35 C 0.73838 0.04925 0.45330
 C36 C 0.75070 -0.03567 0.53534
 O37 O 0.46915 0.21683 0.02790
 O38 O 0.52966 0.21507 -0.03632
 O39 O 0.53281 0.21477 0.02549
 O40 O 0.46622 0.21861 -0.03402
 O41 O 0.46851 0.27245 -0.03294
 O42 O 0.53360 0.26870 0.02743
 O43 O 0.53190 0.26891 -0.03479
 O44 O 0.47038 0.27072 0.02881
 Cu45 Cu 0.49928 0.21091 -0.00435
 Cu46 Cu 0.50135 0.27559 -0.00278
 C47 C 0.45931 0.24402 0.03931
 C48 C 0.54115 0.24164 -0.04658
 C49 C 0.54432 0.24119 0.03683
 C50 C 0.45608 0.24627 -0.04375
 O51 O 0.53732 0.78211 0.03655
 O52 O 0.47959 0.78134 -0.03054
 O53 O 0.47434 0.77859 0.03138
 O54 O 0.54254 0.78253 -0.02545
 O55 O 0.54531 0.72859 -0.02655
 O56 O 0.47683 0.72466 0.02928
 O57 O 0.48163 0.72737 -0.03202
 O58 O 0.54047 0.72820 0.03486
 Cu59 Cu 0.50818 0.78654 0.00317
 Cu60 Cu 0.51134 0.72180 0.00125
 C61 C 0.54886 0.75540 0.04711
 C62 C 0.47069 0.75434 -0.04271
 C63 C 0.46389 0.75086 0.03988
 C64 C 0.55556 0.75612 -0.03564
 O65 O 0.04198 0.45768 0.22241
 O66 O -0.02092 0.52262 0.21783
 O67 O 0.04322 0.52097 0.21615
 O68 O -0.02145 0.45966 0.22241
 O69 O -0.01943 0.46385 0.27478
 O70 O 0.04347 0.52733 0.26835
 O71 O -0.01991 0.52744 0.27017
 O72 O 0.04392 0.46388 0.27456
 Cu73 Cu 0.01069 0.48984 0.21444
 Cu74 Cu 0.01216 0.49620 0.27719
 C75 C 0.05362 0.44960 0.24934
 C76 C -0.03145 0.53581 0.24333
 C77 C 0.05429 0.53474 0.24111
 C78 C -0.03133 0.45108 0.24963
 O79 O 0.03071 0.53291 0.78341
 O80 O -0.03460 0.47244 0.77416
 O81 O 0.02868 0.46994 0.77554
 O82 O -0.03331 0.53543 0.78227
 O83 O -0.03202 0.54226 0.73027
 O84 O 0.02983 0.47650 0.72354
 O85 O -0.03379 0.47896 0.72214
 O86 O 0.03116 0.53983 0.73139
 Cu87 Cu -0.00223 0.50213 0.78408
 Cu88 Cu -0.00111 0.51000 0.72161
 C89 C 0.04209 0.54668 0.75895
 C90 C -0.04530 0.46524 0.74657
 C91 C 0.03983 0.46193 0.74840
 C92 C -0.04329 0.55000 0.75743
 C93 C 0.28886 0.19580 0.20859
 C94 C 0.31296 0.19474 0.18518
 C95 C 0.32699 0.22363 0.17441
 C96 C 0.31688 0.25374 0.18759
 C97 C 0.29285 0.25482 0.21101
 C98 C 0.27847 0.22588 0.22161
 N99 N 0.35110 0.22181 0.14991
 N100 N 0.36410 0.24731 0.13865
 C101 C 0.38803 0.24580 0.11398
 C102 C 0.39871 0.21587 0.10085
 C103 C 0.42191 0.21530 0.07660
 C104 C 0.43481 0.24460 0.06505
 C105 C 0.42404 0.27446 0.07835
 C106 C 0.40086 0.27497 0.10261
 H107 H 0.27796 0.17323 0.21626
 H108 H 0.32053 0.17139 0.17518
 H109 H 0.32742 0.27642 0.17975
 H110 H 0.28543 0.27825 0.22091
 H111 H 0.38912 0.19298 0.10926
 H112 H 0.42969 0.19190 0.06688
 H113 H 0.43350 0.29745 0.07002
 H114 H 0.39280 0.29818 0.11255
 C115 C 0.74599 0.74002 0.19565
 C116 C 0.72374 0.73945 0.17032
 C117 C 0.69104 0.74825 0.17514
 C118 C 0.68072 0.75768 0.20571
 C119 C 0.70278 0.75758 0.23119
 C120 C 0.73563 0.74840 0.22656
 N121 N 0.66866 0.74681 0.14888
 N122 N 0.64105 0.76135 0.14968
 C123 C 0.61814 0.75917 0.12393
 C124 C 0.59352 0.78296 0.12140
 C125 C 0.57106 0.78181 0.09629
 C126 C 0.57234 0.75620 0.07382
 C127 C 0.59658 0.73186 0.07680
 C128 C 0.61959 0.73352 0.10148
 H129 H 0.77128 0.73368 0.19115
 H130 H 0.73202 0.73234 0.14681
 H131 H 0.65550 0.76445 0.21002
 H132 H 0.69403 0.76416 0.25466
 H133 H 0.59208 0.80272 0.13867
 H134 H 0.55247 0.80076 0.09460
 H135 H 0.59811 0.71194 0.05969
 H136 H 0.63826 0.71469 0.10321
 C137 C 0.70280 0.28816 -0.22397
 C138 C 0.67857 0.28893 -0.20074
 C139 C 0.66872 0.26007 -0.18622
 C140 C 0.68307 0.23014 -0.19558
 C141 C 0.70735 0.22935 -0.21881
 C142 C 0.71764 0.25840 -0.23303
 N143 N 0.64475 0.26195 -0.16160
 N144 N 0.63466 0.23667 -0.14743
 C145 C 0.61114 0.23860 -0.12240
 C146 C 0.60019 0.20966 -0.10886
 C147 C 0.57745 0.21062 -0.08422
 C148 C 0.56537 0.24072 -0.07257
 C149 C 0.57650 0.26980 -0.08617
 C150 C 0.59916 0.26877 -0.11092
 H151 H 0.71023 0.31081 -0.23475
 H152 H 0.66767 0.31212 -0.19377
 H153 H 0.67588 0.20749 -0.18466
 H154 H 0.71865 0.20618 -0.22520
 H155 H 0.60931 0.18628 -0.11746
 H156 H 0.56941 0.18778 -0.07426
 H157 H 0.56764 0.29335 -0.07778
 H158 H 0.60735 0.29151 -0.12096
 C159 C 0.26848 0.74377 -0.18295
 C160 C 0.29256 0.74105 -0.15942
 C161 C 0.32515 0.74760 -0.16642
 C162 C 0.33364 0.75628 -0.19752
 C163 C 0.30970 0.75819 -0.22129
 C164 C 0.27678 0.75219 -0.21424
 N165 N 0.34911 0.74534 -0.14160
 N166 N 0.37655 0.75946 -0.14348
 C167 C 0.40060 0.75697 -0.11877
 C168 C 0.42430 0.78122 -0.11601
 C169 C 0.44715 0.78034 -0.09122
 C170 C 0.44723 0.75454 -0.06940
 C171 C 0.42415 0.72959 -0.07282
 C172 C 0.40069 0.73100 -0.09710
 H173 H 0.24332 0.73936 -0.17671
 H174 H 0.28573 0.73440 -0.13551
 H175 H 0.35879 0.76113 -0.20351
 H176 H 0.31688 0.76426 -0.24524
 H177 H 0.42452 0.80126 -0.13264
 H178 H 0.46486 0.79973 -0.08915
 H179 H 0.42373 0.70953 -0.05620
 H180 H 0.38273 0.71186 -0.09902
 C181 C 0.21337 0.25971 0.21381
 C182 C 0.18999 0.28470 0.21164
 C183 C 0.18080 0.30255 0.23874
 C184 C 0.19507 0.29490 0.26829
 C185 C 0.21847 0.26990 0.27048
 C186 C 0.22796 0.25219 0.24322
 N187 N 0.15727 0.32845 0.23555
 N188 N 0.14807 0.34580 0.25918
 C189 C 0.12468 0.37184 0.25601
 C190 C 0.11512 0.38927 0.28322
 C191 C 0.09219 0.41468 0.28105
 C192 C 0.07844 0.42314 0.25147
 C193 C 0.08827 0.40572 0.22411
 C194 C 0.11118 0.38025 0.22634
 H195 H 0.22021 0.24623 0.19254
 H196 H 0.17912 0.29032 0.18877
 H197 H 0.18837 0.30837 0.28960
 H198 H 0.22959 0.26469 0.29332
 H199 H 0.12541 0.38304 0.30619
 H200 H 0.08516 0.42761 0.30258
 H201 H 0.07813 0.41161 0.20099
 H202 H 0.11825 0.36715 0.20493
 C203 C 0.19309 0.74282 0.75339
 C204 C 0.16717 0.72093 0.75228
 C205 C 0.17227 0.68800 0.75962
 C206 C 0.20380 0.67696 0.76773
 C207 C 0.22992 0.69868 0.76808
 C208 C 0.22484 0.73189 0.76102
 N209 N 0.14532 0.66610 0.75777
 N210 N 0.14573 0.63859 0.77164
 C211 C 0.11923 0.61625 0.76852
 C212 C 0.11591 0.59141 0.79089
 C213 C 0.09039 0.56909 0.78819
 C214 C 0.06837 0.57082 0.76249
 C215 C 0.07196 0.59556 0.73987
 C216 C 0.09698 0.61832 0.74303
 H217 H 0.18842 0.76832 0.74816
 H218 H 0.14296 0.72968 0.74594
 H219 H 0.20833 0.65149 0.77311
 H220 H 0.25417 0.68954 0.77363
 H221 H 0.13301 0.58949 0.81054
 H222 H 0.08825 0.55010 0.80582
 H223 H 0.05525 0.59744 0.71989
 H224 H 0.09928 0.63718 0.72531
 C225 C -0.18569 0.73132 0.26943
 C226 C -0.16023 0.70837 0.27060
 C227 C -0.16405 0.67732 0.25700
 C228 C -0.19416 0.66893 0.24317
 C229 C -0.21992 0.69161 0.24265
 C230 C -0.21577 0.72338 0.25509
 N231 N -0.13712 0.65476 0.25765
 N232 N -0.13569 0.63000 0.23914
 C233 C -0.10904 0.60712 0.24030
 C234 C -0.10468 0.58499 0.21506
 C235 C -0.07898 0.56223 0.21563
 C236 C -0.05766 0.56083 0.24191
 C237 C -0.06218 0.58297 0.26731
 C238 C -0.08748 0.60612 0.26641
 H239 H -0.18169 0.75548 0.27933
 H240 H -0.13719 0.71502 0.28152
 H241 H -0.19783 0.64481 0.23305
 H242 H -0.24305 0.68439 0.23234
 H243 H -0.12120 0.58549 0.19485
 H244 H -0.07619 0.54530 0.19585
 H245 H -0.04607 0.58245 0.28783
 H246 H -0.09048 0.62288 0.28628
 C247 C -0.21752 0.29060 0.77669
 C248 C -0.19326 0.31422 0.77922
 C249 C -0.18180 0.32978 0.75207
 C250 C -0.19486 0.32143 0.72211
 C251 C -0.21917 0.29779 0.71956
 C252 C -0.23074 0.28220 0.74684
 N253 N -0.15698 0.35392 0.75567
 N254 N -0.14523 0.36911 0.73216
 C255 C -0.12040 0.39320 0.73625
 C256 C -0.10811 0.40883 0.70947
 C257 C -0.08374 0.43234 0.71272
 C258 C -0.07128 0.44060 0.74297
 C259 C -0.08378 0.42490 0.76983
 C260 C -0.10809 0.40142 0.76652
 H261 H -0.22590 0.27870 0.79800
 H262 H -0.18333 0.32042 0.80241
 H263 H -0.18638 0.33318 0.70077
 H264 H -0.22919 0.29180 0.69636
 H265 H -0.11741 0.40272 0.68601
 H266 H -0.07464 0.44398 0.69157
 H267 H -0.07473 0.43068 0.79345
 H268 H -0.11721 0.38970 0.78762
 C269 C 0.28232 0.19488 0.28607
 C270 C 0.28222 0.17280 0.31122
 C271 C 0.25287 0.15966 0.32184
 C272 C 0.22342 0.16880 0.30690
 C273 C 0.22350 0.19085 0.28169
 C274 C 0.25295 0.20414 0.27104
 N275 N 0.25373 0.13713 0.34770
 N276 N 0.22799 0.12463 0.35898
 C277 C 0.22915 0.10198 0.38476
 C278 C 0.19996 0.08916 0.39613
 C279 C 0.20033 0.06671 0.42102
 C280 C 0.23006 0.05669 0.43496
 C281 C 0.25933 0.06978 0.42356
 C282 C 0.25890 0.09221 0.39871
 H283 H 0.30529 0.20501 0.27850
 H284 H 0.30506 0.16597 0.32257
 H285 H 0.20041 0.15890 0.31463
 H286 H 0.20059 0.19743 0.27034
 H287 H 0.17687 0.09650 0.38557
 H288 H 0.17737 0.05708 0.42923
 H289 H 0.28264 0.06259 0.43375
 H290 H 0.28182 0.10178 0.39036
 C291 C 0.77625 0.21852 0.71200
 C292 C 0.77821 0.19430 0.68843
 C293 C 0.75003 0.18367 0.67268
 C294 C 0.71963 0.19758 0.68077
 C295 C 0.71766 0.22192 0.70429
 C296 C 0.74597 0.23266 0.72012
 N297 N 0.75306 0.15892 0.64853
 N298 N 0.72845 0.14722 0.63393
 C299 C 0.73182 0.12263 0.60964
 C300 C 0.70372 0.10972 0.59548
 C301 C 0.70620 0.08572 0.57169
 C302 C 0.73698 0.07431 0.56157
 C303 C 0.76518 0.08739 0.57582
 C304 C 0.76265 0.11128 0.59967
 H305 H 0.79838 0.22612 0.72405
 H306 H 0.80175 0.18372 0.68244
 H307 H 0.69750 0.18981 0.66885
 H308 H 0.69409 0.23260 0.70996
 H309 H 0.67983 0.11828 0.60294
 H310 H 0.68401 0.07619 0.56118
 H311 H 0.78925 0.07912 0.56860
 H312 H 0.78476 0.12091 0.61023
 C313 C 0.26394 -0.18891 0.74469
 C314 C 0.26467 -0.16477 0.72138
 C315 C 0.25433 -0.17173 0.69029
 C316 C 0.24427 -0.20352 0.68240
 C317 C 0.24429 -0.22786 0.70547
 C318 C 0.25364 -0.22074 0.73701
 N319 N 0.25398 -0.14624 0.66719
 N320 N 0.23649 -0.14813 0.64213
 C321 C 0.23626 -0.12322 0.61846
 C322 C 0.21044 -0.12203 0.59656
 C323 C 0.20935 -0.09795 0.57323
 C324 C 0.23464 -0.07517 0.57094
 C325 C 0.26083 -0.07668 0.59265
 C326 C 0.26148 -0.10033 0.61647
 H327 H 0.27100 -0.18266 0.76883
 H328 H 0.27252 -0.14036 0.72773
 H329 H 0.23658 -0.20956 0.65840
 H330 H 0.23671 -0.25226 0.69877
 H331 H 0.19094 -0.13965 0.59781
 H332 H 0.18901 -0.09745 0.55665
 H333 H 0.28059 -0.05936 0.59141
 H334 H 0.28181 -0.10098 0.63304
 C335 C 0.74552 -0.23822 0.30880
 C336 C 0.74239 -0.21499 0.33323
 C337 C 0.74936 -0.18211 0.32765
 C338 C 0.75878 -0.17249 0.29704
 C339 C 0.76115 -0.19560 0.27243
 C340 C 0.75481 -0.22860 0.27828
 N341 N 0.74660 -0.15897 0.35328
 N342 N 0.76047 -0.13130 0.35245
 C343 C 0.75722 -0.10776 0.37767
 C344 C 0.77970 -0.08233 0.37993
 C345 C 0.77733 -0.05906 0.40439
 C346 C 0.75181 -0.06043 0.42651
 C347 C 0.72894 -0.08569 0.42393
 C348 C 0.73180 -0.10940 0.39989
 H349 H 0.74050 -0.26365 0.31349
 H350 H 0.73503 -0.22267 0.35667
 H351 H 0.76401 -0.14716 0.29212
 H352 H 0.76836 -0.18798 0.24893
 H353 H 0.79931 -0.08075 0.36287
 H354 H 0.79514 -0.03971 0.40571
 H355 H 0.70908 -0.08732 0.44072
 H356 H 0.71399 -0.12873 0.39843
 C357 C 0.69960 0.77969 -0.22994
 C358 C 0.67510 0.77997 -0.20697
 C359 C 0.68239 0.77190 -0.17545
 C360 C 0.71472 0.76401 -0.16694
 C361 C 0.73943 0.76451 -0.18975
 C362 C 0.73213 0.77223 -0.22157
 N363 N 0.65663 0.77215 -0.15257
 N364 N 0.65915 0.75711 -0.12630
 C365 C 0.63350 0.75785 -0.10331
 C366 C 0.63212 0.73301 -0.08074
 C367 C 0.60668 0.73240 -0.05874
 C368 C 0.58277 0.75727 -0.05841
 C369 C 0.58471 0.78275 -0.08046
 C370 C 0.60967 0.78284 -0.10303
 H371 H 0.69317 0.78537 -0.25430
 H372 H 0.65025 0.78605 -0.21381
 H373 H 0.72095 0.75799 -0.14261
 H374 H 0.76430 0.75907 -0.18254
 H375 H 0.65041 0.71371 -0.08065
 H376 H 0.60581 0.71261 -0.04184
 H377 H 0.56650 0.80213 -0.08071
 H378 H 0.61047 0.80244 -0.12012
 C379 C 0.27589 0.20862 -0.20918
 C380 C 0.29994 0.20617 -0.18557
 C381 C 0.31507 0.23425 -0.17358
 C382 C 0.30572 0.26503 -0.18541
 C383 C 0.28169 0.26749 -0.20904
 C384 C 0.26660 0.23930 -0.22122
 N385 N 0.33996 0.23086 -0.14971
 N386 N 0.35451 0.25548 -0.13781
 C387 C 0.37962 0.25239 -0.11413
 C388 C 0.39411 0.28074 -0.10208
 C389 C 0.41887 0.27875 -0.07917
 C390 C 0.42965 0.24820 -0.06789
 C391 C 0.41499 0.21970 -0.08000
 C392 C 0.39016 0.22175 -0.10293
 H393 H 0.26443 0.18659 -0.21806
 H394 H 0.30689 0.18234 -0.17664
 H395 H 0.31708 0.28711 -0.17656
 H396 H 0.27510 0.29135 -0.21813
 H397 H 0.38620 0.30448 -0.11055
 H398 H 0.42961 0.30118 -0.07038
 H399 H 0.42273 0.19581 -0.07179
 H400 H 0.37932 0.19946 -0.11192
 C401 C 0.31398 0.75839 0.23179
 C402 C 0.33922 0.75964 0.20967
 C403 C 0.33333 0.75221 0.17764
 C404 C 0.30169 0.74354 0.16783
 C405 C 0.27620 0.74304 0.18984
 C406 C 0.28203 0.75058 0.22209
 N407 N 0.35963 0.75451 0.15553
 N408 N 0.35883 0.74070 0.12829
 C409 C 0.38497 0.74399 0.10611
 C410 C 0.38904 0.72034 0.08217
 C411 C 0.41487 0.72247 0.06073
 C412 C 0.43645 0.74891 0.06234
 C413 C 0.43184 0.77312 0.08584
 C414 C 0.40653 0.77048 0.10784
 H415 H 0.31931 0.76391 0.25650
 H416 H 0.36351 0.76629 0.21752
 H417 H 0.29655 0.73797 0.14309
 H418 H 0.25181 0.73732 0.18161
 H419 H 0.37250 0.69991 0.08051
 H420 H 0.41781 0.70361 0.04268
 H421 H 0.44821 0.79369 0.08759
 H422 H 0.40362 0.78921 0.12600
 C423 C 0.68753 0.26807 0.23394
 C424 C 0.66292 0.26741 0.21078
 C425 C 0.66936 0.25490 0.18032
 C426 C 0.70096 0.24345 0.17303
 C427 C 0.72578 0.24484 0.19599
 C428 C 0.71911 0.25701 0.22658
 N429 N 0.64370 0.25492 0.15705
 N430 N 0.64481 0.23714 0.13207
 C431 C 0.61943 0.23837 0.10850
 C432 C 0.61627 0.21248 0.08671
 C433 C 0.59156 0.21307 0.06357
 C434 C 0.57021 0.24009 0.06140
 C435 C 0.57377 0.26626 0.08299
 C436 C 0.59795 0.26528 0.10654
 H437 H 0.68221 0.27761 0.25748
 H438 H 0.63872 0.27643 0.21661
 H439 H 0.70653 0.23398 0.14953
 H440 H 0.75012 0.23627 0.19012
 H441 H 0.63278 0.19167 0.08789
 H442 H 0.58943 0.19268 0.04710
 H443 H 0.55757 0.28732 0.08190
 H444 H 0.60011 0.28569 0.12297
 C445 C -0.18434 0.75685 0.74685
 C446 C -0.15956 0.73311 0.74612
 C447 C -0.16611 0.70080 0.75437
 C448 C -0.19796 0.69230 0.76303
 C449 C -0.22295 0.71586 0.76304
 C450 C -0.21642 0.74847 0.75502
 N451 N -0.14031 0.67694 0.75293
 N452 N -0.14199 0.64973 0.76723
 C453 C -0.11669 0.62541 0.76473
 C454 C -0.11487 0.60059 0.78738
 C455 C -0.09061 0.57636 0.78538
 C456 C -0.06832 0.57612 0.76010
 C457 C -0.07041 0.60084 0.73717
 C458 C -0.09418 0.62550 0.73964
 H459 H -0.17850 0.78180 0.74089
 H460 H -0.13510 0.73994 0.73937
 H461 H -0.20366 0.66736 0.76914
 H462 H -0.24748 0.70858 0.76900
 H463 H -0.13218 0.60018 0.80674
 H464 H -0.08966 0.55746 0.80324
 H465 H -0.05347 0.60125 0.71749
 H466 H -0.09531 0.64430 0.72170
 C467 C -0.23514 0.31171 0.23148
 C468 C -0.21033 0.33468 0.22891
 C469 C -0.17954 0.32861 0.24225
 C470 C -0.17335 0.29863 0.25725
 C471 C -0.19792 0.27525 0.25914
 C472 C -0.22942 0.28179 0.24697
 N473 N -0.15505 0.35319 0.24016
 N474 N -0.13019 0.35362 0.25847
 C475 C -0.10560 0.37808 0.25584
 C476 C -0.08386 0.38309 0.28120
 C477 C -0.05993 0.40716 0.27946
 C478 C -0.05692 0.42604 0.25190
 C479 C -0.07847 0.42063 0.22629
 C480 C -0.10281 0.39707 0.22834
 H481 H -0.25898 0.31759 0.22173
 H482 H -0.21531 0.35763 0.21711
 H483 H -0.14949 0.29319 0.26720
 H484 H -0.19234 0.25209 0.27028
 H485 H -0.08572 0.36855 0.30249
 H486 H -0.04350 0.41070 0.29945
 H487 H -0.07673 0.43488 0.20479
 H488 H -0.11921 0.39349 0.20835
 C489 C 0.20246 0.27512 0.78466
 C490 C 0.17879 0.29991 0.78632
 C491 C 0.16948 0.31702 0.75901
 C492 C 0.18409 0.30894 0.72976
 C493 C 0.20781 0.28415 0.72807
 C494 C 0.21730 0.26705 0.75553
 N495 N 0.14540 0.34252 0.76175
 N496 N 0.13554 0.35903 0.73797
 C497 C 0.11157 0.38463 0.74107
 C498 C 0.10130 0.40146 0.71391
 C499 C 0.07799 0.42660 0.71618
 C500 C 0.06457 0.43537 0.74582
 C501 C 0.07500 0.41842 0.77308
 C502 C 0.09825 0.39328 0.77075
 H503 H 0.20916 0.26213 0.80608
 H504 H 0.16767 0.30587 0.80898
 H505 H 0.17734 0.32185 0.70831
 H506 H 0.21908 0.27853 0.70541
 H507 H 0.11140 0.39504 0.69090
 H508 H 0.07050 0.43916 0.69474
 H509 H 0.06516 0.42453 0.79626
 H510 H 0.10580 0.38067 0.79213
 C511 C 0.19723 0.73701 0.25045
 C512 C 0.17243 0.71385 0.25071
 C513 C 0.17910 0.68123 0.24268
 C514 C 0.21107 0.67189 0.23437
 C515 C 0.23611 0.69493 0.23482
 C516 C 0.22951 0.72777 0.24299
 N517 N 0.15329 0.65796 0.24428
 N518 N 0.15491 0.63018 0.23047
 C519 C 0.12938 0.60672 0.23335
 C520 C 0.12677 0.58162 0.21067
 C521 C 0.10202 0.55846 0.21289
 C522 C 0.08005 0.55955 0.23844
 C523 C 0.08303 0.58445 0.26148
 C524 C 0.10726 0.60808 0.25878
 H525 H 0.19130 0.76216 0.25645
 H526 H 0.14789 0.72134 0.25714
 H527 H 0.21683 0.64670 0.22838
 H528 H 0.26076 0.68700 0.22933
 H529 H 0.14376 0.58022 0.19105
 H530 H 0.10038 0.53938 0.19493
 H531 H 0.06637 0.58586 0.28137
 H532 H 0.10901 0.62711 0.27676
 C533 C 0.74715 -0.17007 0.73781
 C534 C 0.74511 -0.14644 0.71409
 C535 C 0.75365 -0.15427 0.68275
 C536 C 0.76396 -0.18626 0.67521
 C537 C 0.76522 -0.21015 0.69877
 C538 C 0.75688 -0.20232 0.73038
 N539 N 0.75072 -0.12966 0.65890
 N540 N 0.76564 -0.13184 0.63249
 C541 C 0.76153 -0.10765 0.60836
 C542 C 0.78547 -0.10460 0.58499
 C543 C 0.78219 -0.08092 0.56137
 C544 C 0.75434 -0.06061 0.56026
 C545 C 0.73002 -0.06416 0.58336
 C546 C 0.73374 -0.08724 0.60745
 H547 H 0.74090 -0.16327 0.76198
 H548 H 0.73710 -0.12187 0.72016
 H549 H 0.77031 -0.19292 0.65103
 H550 H 0.77237 -0.23486 0.69227
 H551 H 0.80692 -0.12031 0.58537
 H552 H 0.80118 -0.07877 0.54372
 H553 H 0.70837 -0.04872 0.58307
 H554 H 0.71479 -0.08940 0.62511
 C555 C 0.26389 -0.19130 0.26272
 C556 C 0.26384 -0.16738 0.28667
 C557 C 0.25415 -0.17506 0.31753
 C558 C 0.24509 -0.20724 0.32444
 C559 C 0.24589 -0.23137 0.30069
 C560 C 0.25506 -0.22363 0.26949
 N561 N 0.25383 -0.14989 0.34141
 N562 N 0.23757 -0.15259 0.36693
 C563 C 0.23765 -0.12770 0.39109
 C564 C 0.21228 -0.12665 0.41320
 C565 C 0.21116 -0.10210 0.43652
 C566 C 0.23602 -0.07876 0.43861
 C567 C 0.26195 -0.08034 0.41691
 C568 C 0.26258 -0.10441 0.39306
 H569 H 0.27077 -0.18460 0.23885
 H570 H 0.27086 -0.14265 0.28106
 H571 H 0.23784 -0.21379 0.34825
 H572 H 0.23940 -0.25615 0.30665
 H573 H 0.19301 -0.14455 0.41198
 H574 H 0.19103 -0.10153 0.45311
 H575 H 0.28135 -0.06256 0.41799
 H576 H 0.28259 -0.10496 0.37634
 C577 C 0.75249 0.24711 0.30777
 C578 C 0.75207 0.22554 0.33336
 C579 C 0.74104 0.19353 0.32912
 C580 C 0.73026 0.18326 0.29890
 C581 C 0.73131 0.20458 0.27317
 C582 C 0.74283 0.23664 0.27718
 N583 N 0.74222 0.17155 0.35542
 N584 N 0.72656 0.14483 0.35523
 C585 C 0.72918 0.12199 0.38073
 C586 C 0.70583 0.09743 0.38328
 C587 C 0.70837 0.07413 0.40733
 C588 C 0.73486 0.07461 0.42872
 C589 C 0.75834 0.09922 0.42605
 C590 C 0.75537 0.12291 0.40244
 H591 H 0.76062 0.27190 0.31179
 H592 H 0.76031 0.23377 0.35658
 H593 H 0.72181 0.15855 0.29502
 H594 H 0.72365 0.19581 0.24995
 H595 H 0.68563 0.09636 0.36657
 H596 H 0.69004 0.05532 0.40875
 H597 H 0.77894 0.10020 0.44229
 H598 H 0.77388 0.14151 0.40074
 C599 C 0.27270 0.21003 0.71333
 C600 C 0.27356 0.18720 0.68843
 C601 C 0.24475 0.17297 0.67721
 C602 C 0.21479 0.18210 0.69102
 C603 C 0.21390 0.20494 0.71598
 C604 C 0.24289 0.21897 0.72750
 N605 N 0.24673 0.14896 0.65226
 N606 N 0.22161 0.13493 0.64085
 C607 C 0.22395 0.11054 0.61626
 C608 C 0.19536 0.09630 0.60451
 C609 C 0.19686 0.07198 0.58096
 C610 C 0.22715 0.06142 0.56879
 C611 C 0.25583 0.07591 0.58054
 C612 C 0.25427 0.10026 0.60404
 H613 H 0.29530 0.22072 0.72164
 H614 H 0.29677 0.18040 0.67795
 H615 H 0.19218 0.17139 0.68278
 H616 H 0.19069 0.21130 0.72668
 H617 H 0.17185 0.10399 0.61376
 H618 H 0.17432 0.06132 0.57243
 H619 H 0.27954 0.06837 0.57167
 H620 H 0.27675 0.11087 0.61276
   
