data_POSCAR
  _audit_creation_date              2014-09-24
  _audit_creation_method            'ToBaCCo'
  _symmetry_space_group_name_H-M    'P1'
  _symmetry_Int_Tables_number       1
  _symmetry_cell_setting            triclinic
  loop_
  _symmetry_equiv_pos_as_xyz
 x,y,z
_cell_length_a 51.9486
_cell_length_b 51.8582
_cell_length_c 15.7130
_cell_angle_alpha 89.810700
_cell_angle_beta 89.983000
_cell_angle_gamma 120.264000
loop_
  _atom_site_label
  _atom_site_type_symbol
  _atom_site_fract_x
  _atom_site_fract_y
  _atom_site_fract_z
C1 C 0.24536 0.48895 0.53824
 C2 C 0.24205 0.48346 0.45273
 C3 C 0.21465 0.47734 0.40515
 C4 C 0.26695 0.48473 0.40265
 C5 C 0.27021 0.48886 0.58444
 C6 C 0.22410 0.49371 0.59013
 C7 C 0.18607 0.45887 0.43923
 C8 C 0.16095 0.45646 0.39925
 C9 C 0.16324 0.47055 0.32006
 C10 C 0.19191 0.48691 0.28274
 C11 C 0.21716 0.49063 0.32538
 C12 C 0.26290 0.45988 0.35649
 C13 C 0.28674 0.46098 0.31179
 C14 C 0.31498 0.48710 0.31202
 C15 C 0.31866 0.51212 0.35705
 C16 C 0.29488 0.51098 0.40152
 C17 C 0.29272 0.51506 0.62195
 C18 C 0.31657 0.51502 0.66304
 C19 C 0.31771 0.48858 0.66913
 C20 C 0.29477 0.46224 0.63322
 C21 C 0.27129 0.46243 0.59065
 C22 C 0.21285 0.51167 0.56055
 C23 C 0.18998 0.51265 0.60447
 C24 C 0.17906 0.49719 0.68220
 C25 C 0.19257 0.48162 0.71540
 C26 C 0.21443 0.47953 0.66945
 H27 H 0.18321 0.44701 0.49851
 H28 H 0.13955 0.44246 0.42946
 H29 H 0.19562 0.49894 0.22346
 H30 H 0.23886 0.50478 0.29693
 H31 H 0.24145 0.43947 0.35655
 H32 H 0.28320 0.44119 0.27868
 H33 H 0.29826 0.53059 0.43549
 H34 H 0.29209 0.53558 0.61781
 H35 H 0.33403 0.53554 0.69059
 H36 H 0.29539 0.44170 0.63639
 H37 H 0.25394 0.44201 0.56230
 H38 H 0.22077 0.52386 0.50119
 H39 H 0.18056 0.52491 0.57534
 H40 H 0.18598 0.47049 0.77646
 H41 H 0.22322 0.46612 0.69512
 H42 H 0.33995 0.53271 0.35746
 C43 C 0.49764 -0.24847 0.54468
 C44 C 0.49780 -0.24925 0.45818
 C45 C 0.50223 -0.27165 0.41271
 C46 C 0.49542 -0.22671 0.40614
 C47 C 0.49936 -0.22269 0.58995
 C48 C 0.49869 -0.27191 0.59633
 C49 C 0.52996 -0.27010 0.41568
 C50 C 0.53358 -0.29252 0.37869
 C51 C 0.50937 -0.31710 0.33967
 C52 C 0.48178 -0.31828 0.33524
 C53 C 0.47835 -0.29547 0.37057
 C54 C 0.51858 -0.20808 0.35061
 C55 C 0.51719 -0.18568 0.30486
 C56 C 0.49243 -0.18172 0.31322
 C57 C 0.46893 -0.20098 0.36750
 C58 C 0.47040 -0.22329 0.41337
 C59 C 0.47436 -0.22544 0.63245
 C60 C 0.47584 -0.20063 0.67229
 C61 C 0.50258 -0.17305 0.67201
 C62 C 0.52767 -0.17054 0.63040
 C63 C 0.52598 -0.19511 0.58896
 C64 C 0.47694 -0.30199 0.58606
 C65 C 0.48022 -0.32441 0.62483
 C66 C 0.50528 -0.31733 0.67605
 C67 C 0.52581 -0.28681 0.69119
 C68 C 0.52260 -0.26444 0.65145
 H69 H 0.54858 -0.25179 0.44803
 H70 H 0.55503 -0.29119 0.38303
 H71 H 0.46289 -0.33690 0.30478
 H72 H 0.45683 -0.29691 0.36790
 H73 H 0.53811 -0.21036 0.34453
 H74 H 0.53590 -0.17097 0.26486
 H75 H 0.45211 -0.23781 0.45499
 H76 H 0.45365 -0.24662 0.63346
 H77 H 0.45630 -0.20306 0.70450
 H78 H 0.54846 -0.14943 0.62900
 H79 H 0.54543 -0.19271 0.55616
 H80 H 0.45777 -0.30815 0.54594
 H81 H 0.46273 -0.34722 0.61474
 H82 H 0.54551 -0.27994 0.72944
 H83 H 0.53959 -0.24130 0.66055
 H84 H 0.44939 -0.19878 0.37453
 C85 C 1.24297 0.75342 0.54399
 C86 C 1.24214 0.75147 0.45776
 C87 C 1.26455 0.77603 0.40413
 C88 C 1.21814 0.72527 0.41314
 C89 C 1.21841 0.73049 0.59645
 C90 C 1.26750 0.77926 0.58874
 C91 C 1.26292 0.80187 0.39091
 C92 C 1.28433 0.82523 0.34101
 C93 C 1.30841 0.82357 0.30513
 C94 C 1.30971 0.79734 0.31942
 C95 C 1.28772 0.77367 0.36696
 C96 C 1.19892 0.72887 0.35830
 C97 C 1.17611 0.70428 0.31628
 C98 C 1.17231 0.67563 0.32753
 C99 C 1.19172 0.67216 0.38262
 C100 C 1.21449 0.69679 0.42482
 C101 C 1.22234 0.70944 0.64149
 C102 C 1.19870 0.68677 0.68748
 C103 C 1.17072 0.68512 0.69154
 C104 C 1.16735 0.70698 0.64709
 C105 C 1.19084 0.72916 0.59944
 C106 C 1.29717 0.78655 0.57745
 C107 C 1.32037 0.81229 0.61412
 C108 C 1.31449 0.83129 0.66446
 C109 C 1.28434 0.82267 0.67922
 C110 C 1.26123 0.79708 0.64161
 H111 H 1.24511 0.80397 0.41964
 H112 H 1.28258 0.84505 0.33439
 H113 H 1.32726 0.79459 0.29178
 H114 H 1.28909 0.75368 0.37628
 H115 H 1.20131 0.75067 0.34895
 H116 H 1.16123 0.70772 0.27589
 H117 H 1.22941 0.69370 0.46610
 H118 H 1.24359 0.71028 0.63974
 H119 H 1.20279 0.67109 0.72189
 H120 H 1.14626 0.70640 0.64543
 H121 H 1.18750 0.74523 0.56423
 H122 H 1.30240 0.77238 0.53961
 H123 H 1.34279 0.81662 0.60399
 H124 H 1.27835 0.83640 0.71633
 H125 H 1.23842 0.79173 0.65159
 H126 H 1.18959 0.65048 0.39210
 C127 C 0.75811 0.51527 0.55158
 C128 C 0.75638 0.51305 0.46497
 C129 C 0.77892 0.51041 0.41433
 C130 C 0.73288 0.51498 0.41690
 C131 C 0.73400 0.51555 0.60148
 C132 C 0.78374 0.51704 0.59940
 C133 C 0.79881 0.53437 0.36326
 C134 C 0.82341 0.53457 0.32700
 C135 C 0.82810 0.51027 0.33816
 C136 C 0.80671 0.48532 0.38489
 C137 C 0.78258 0.48556 0.42343
 C138 C 0.73218 0.54167 0.41533
 C139 C 0.70950 0.54317 0.37179
 C140 C 0.68693 0.51785 0.33059
 C141 C 0.68775 0.49119 0.33203
 C142 C 0.71082 0.48990 0.37387
 C143 C 0.70439 0.49261 0.59211
 C144 C 0.68133 0.49467 0.63065
 C145 C 0.68731 0.51959 0.68104
 C146 C 0.71745 0.54131 0.69582
 C147 C 0.74048 0.53936 0.65599
 C148 C 0.77866 0.49814 0.66921
 C149 C 0.80245 0.49760 0.70914
 C150 C 0.83183 0.51525 0.67809
 C151 C 0.83686 0.53540 0.61110
 C152 C 0.81323 0.53694 0.57437
 H153 H 0.79639 0.55383 0.35617
 H154 H 0.83919 0.55443 0.29332
 H155 H 0.80859 0.46562 0.39286
 H156 H 0.76716 0.46673 0.46220
 H157 H 0.74913 0.56123 0.44809
 H158 H 0.70920 0.56390 0.37177
 H159 H 0.71113 0.46917 0.37450
 H160 H 0.69906 0.47337 0.55314
 H161 H 0.65889 0.47633 0.62127
 H162 H 0.72341 0.56088 0.73385
 H163 H 0.76331 0.55710 0.66487
 H164 H 0.75615 0.48301 0.69104
 H165 H 0.79746 0.48190 0.76081
 H166 H 0.85915 0.55070 0.58823
 H167 H 0.81800 0.55326 0.52477
 H168 H 0.67068 0.47148 0.30013
 C169 C 0.50171 0.25356 0.54386
 C170 C 0.50088 0.25275 0.45734
 C171 C 0.49979 0.27615 0.40580
 C172 C 0.49977 0.22748 0.41025
 C173 C 0.49966 0.22824 0.59297
 C174 C 0.50344 0.27881 0.59327
 C175 C 0.47742 0.28336 0.41941
 C176 C 0.47727 0.30617 0.37234
 C177 C 0.49927 0.32180 0.31063
 C178 C 0.52103 0.31402 0.29495
 C179 C 0.52122 0.29122 0.34206
 C180 C 0.47405 0.20779 0.36506
 C181 C 0.47258 0.18363 0.32155
 C182 C 0.49696 0.17886 0.32200
 C183 C 0.52282 0.19888 0.36691
 C184 C 0.52426 0.22307 0.41019
 C185 C 0.52556 0.22878 0.62008
 C186 C 0.52370 0.20434 0.66349
 C187 C 0.49574 0.17928 0.68387
 C188 C 0.46980 0.17926 0.65682
 C189 C 0.47182 0.20328 0.61077
 C190 C 0.52626 0.30828 0.57859
 C191 C 0.52721 0.33187 0.62423
 C192 C 0.50544 0.32668 0.68661
 C193 C 0.48288 0.29676 0.70146
 C194 C 0.48201 0.27331 0.65572
 H195 H 0.46030 0.27151 0.46697
 H196 H 0.46020 0.31185 0.38455
 H197 H 0.53813 0.32596 0.24738
 H198 H 0.53847 0.28578 0.33020
 H199 H 0.45495 0.21093 0.36451
 H200 H 0.45217 0.16842 0.28880
 H201 H 0.54452 0.23842 0.44340
 H202 H 0.54724 0.24799 0.60660
 H203 H 0.54425 0.20570 0.68385
 H204 H 0.44782 0.16024 0.66773
 H205 H 0.45163 0.20243 0.58887
 H206 H 0.54343 0.31303 0.53182
 H207 H 0.54559 0.35410 0.61167
 H208 H 0.46486 0.29107 0.74574
 H209 H 0.46400 0.25080 0.66783
 H210 H 0.54210 0.19606 0.36766
 C211 C 0.75119 0.24490 0.54278
 C212 C 0.74919 0.24562 0.45637
 C213 C 0.72373 0.22152 0.40941
 C214 C 0.77381 0.26878 0.40447
 C215 C 0.77565 0.27021 0.58997
 C216 C 0.72969 0.21819 0.59292
 C217 C 0.72888 0.20432 0.35084
 C218 C 0.70504 0.17895 0.31515
 C219 C 0.67543 0.17048 0.33599
 C220 C 0.67038 0.18887 0.39105
 C221 C 0.69433 0.21410 0.42764
 C222 C 0.80148 0.27017 0.40158
 C223 C 0.82456 0.29171 0.35139
 C224 C 0.82041 0.31244 0.30465
 C225 C 0.79273 0.31107 0.30794
 C226 C 0.76941 0.28906 0.35647
 C227 C 0.78198 0.29961 0.57682
 C228 C 0.80576 0.32337 0.61878
 C229 C 0.82355 0.31838 0.67693
 C230 C 0.81646 0.28855 0.69104
 C231 C 0.79287 0.26489 0.64815
 C232 C 0.71447 0.22120 0.66256
 C233 C 0.69291 0.19590 0.70629
 C234 C 0.68608 0.16725 0.68031
 C235 C 0.70200 0.16433 0.61255
 C236 C 0.72403 0.18958 0.57048
 H237 H 0.75141 0.20962 0.33622
 H238 H 0.70995 0.16535 0.27372
 H239 H 0.64801 0.18370 0.40686
 H240 H 0.68999 0.22741 0.47203
 H241 H 0.80506 0.25447 0.43787
 H242 H 0.84582 0.29256 0.35023
 H243 H 0.74811 0.28811 0.35784
 H244 H 0.76842 0.30419 0.53406
 H245 H 0.80947 0.34557 0.60726
 H246 H 0.82971 0.28314 0.73235
 H247 H 0.78846 0.24238 0.65902
 H248 H 0.71877 0.24307 0.68164
 H249 H 0.68092 0.19861 0.75862
 H250 H 0.69744 0.14246 0.59244
 H251 H 0.73628 0.18675 0.51915
 H252 H 0.78912 0.32687 0.27224
 N253 N 0.96642 0.52273 0.09748
 N254 N 0.94528 0.52895 0.11434
 N255 N 1.02911 0.53587 0.15625
 N256 N 1.05293 0.54921 0.20524
 N257 N 1.02904 0.55476 0.10038
 N258 N 1.05289 0.58138 0.10964
 N259 N 0.96643 0.50412 0.15427
 N260 N 0.94511 0.49702 0.21112
 C261 C 0.93205 0.51263 0.18507
 C262 C 1.06744 0.57766 0.17571
 N263 N 1.02980 0.46390 0.08448
 N264 N 1.05161 0.45816 0.09417
 N265 N 0.96651 0.44894 0.14367
 N266 N 0.94208 0.43414 0.18979
 N267 N 0.96703 0.43214 0.08210
 N268 N 0.94311 0.40524 0.08566
 N269 N 1.02919 0.48003 0.14785
 N270 N 1.05031 0.48515 0.20361
 Mn271 Mn 0.99787 0.49225 0.15159
 C272 C 1.06423 0.47156 0.16853
 C273 C 0.92786 0.40682 0.15350
 N274 N 1.03016 0.55881 -0.08235
 N275 N 1.05228 0.58665 -0.08823
 N276 N 0.96938 0.51058 -0.14972
 N277 N 0.94796 0.50377 -0.20549
 N278 N 0.96737 0.52592 -0.08632
 N279 N 0.94411 0.52952 -0.09661
 N280 N 1.03203 0.54240 -0.14274
 N281 N 1.05583 0.55856 -0.19060
 Mn282 Mn 0.99813 0.54080 0.00738
 C283 C 1.06811 0.58615 -0.15585
 C284 C 0.93236 0.51565 -0.17155
 N285 N 0.96870 0.43613 -0.10136
 N286 N 0.94461 0.40972 -0.11059
 N287 N 1.03216 0.48703 -0.15264
 N288 N 1.05635 0.49780 -0.20028
 N289 N 1.03133 0.46759 -0.09744
 N290 N 1.05493 0.46454 -0.10614
 N291 N 0.96928 0.45513 -0.15792
 N292 N 0.94542 0.44205 -0.20698
 Mn293 Mn 0.99917 0.44962 -0.00814
 Mn294 Mn 1.00080 0.49882 -0.15182
 Cl295 Cl 0.99899 0.49539 -0.00021
 C296 C 0.93039 0.41363 -0.17709
 C297 C 1.07022 0.48339 -0.17093
 N298 N 0.47317 0.44055 0.08806
 N299 N 0.47127 0.41425 0.09410
 N300 N 0.45706 0.48763 0.14836
 N301 N 0.44207 0.49619 0.19712
 N302 N 0.43986 0.46975 0.08815
 N303 N 0.41268 0.46561 0.09450
 N304 N 0.49046 0.45851 0.14795
 N305 N 0.50069 0.44489 0.19656
 C306 C 0.48839 0.41725 0.16246
 C307 C 0.41435 0.48209 0.16318
 N308 N 0.52940 0.56358 0.09524
 N309 N 0.53457 0.59073 0.11199
 N310 N 0.54494 0.51547 0.15139
 N311 N 0.55989 0.50746 0.20258
 N312 N 0.56283 0.53471 0.09421
 N313 N 0.59042 0.54048 0.10531
 N314 N 0.51130 0.54446 0.15228
 N315 N 0.50333 0.55796 0.20856
 Mn316 Mn 0.50093 0.50147 0.15107
 C317 C 0.51790 0.58678 0.18248
 C318 C 0.58825 0.52334 0.17316
 N319 N 0.44105 0.47104 -0.09528
 N320 N 0.41373 0.46611 -0.10644
 N321 N 0.49264 0.46073 -0.15183
 N322 N 0.50452 0.44817 -0.19821
 N323 N 0.47448 0.44189 -0.09443
 N324 N 0.47351 0.41604 -0.10025
 N325 N 0.45920 0.48994 -0.15252
 N326 N 0.44487 0.49860 -0.20373
 Mn327 Mn 0.45678 0.45548 -0.00339
 C328 C 0.41653 0.48349 -0.17447
 C329 C 0.49216 0.42018 -0.16572
 N330 N 0.56392 0.53598 -0.08921
 N331 N 0.59177 0.54260 -0.10144
 N332 N 0.51321 0.54666 -0.14894
 N333 N 0.50552 0.56081 -0.20395
 N334 N 0.53030 0.56488 -0.08915
 N335 N 0.53478 0.59204 -0.10218
 N336 N 0.54655 0.51777 -0.14853
 N337 N 0.56197 0.51151 -0.20262
 Mn338 Mn 0.54692 0.55016 0.00279
 Mn339 Mn 0.50289 0.50375 -0.15137
 Cl340 Cl 0.50190 0.50276 -0.00015
 C341 C 0.59011 0.52703 -0.17242
 C342 C 0.51900 0.58906 -0.17393
 N343 N 0.43063 -0.03135 0.08650
 N344 N 0.40321 -0.05440 0.08989
 N345 N 0.48030 0.02960 0.15518
 N346 N 0.49079 0.05316 0.20518
 N347 N 0.46399 0.03140 0.09417
 N348 N 0.46290 0.05620 0.10131
 N349 N 0.44717 -0.03337 0.14630
 N350 N 0.43159 -0.05809 0.19112
 C351 C 0.40415 -0.07081 0.15568
 C352 C 0.47951 0.06941 0.17136
 N353 N 0.55317 0.02817 0.10438
 N354 N 0.58044 0.05018 0.11925
 N355 N 0.50163 -0.03500 0.15308
 N356 N 0.49063 -0.05948 0.19985
 N357 N 0.52026 -0.03459 0.09589
 N358 N 0.52234 -0.05887 0.10195
 N359 N 0.53457 0.02765 0.16183
 N360 N 0.54873 0.04927 0.21770
 Mn361 Mn 0.49085 -0.00281 0.15519
 C362 C 0.57734 0.06315 0.19008
 C363 C 0.50388 -0.07407 0.16748
 N364 N 0.46726 0.03413 -0.08918
 N365 N 0.46418 0.05774 -0.09745
 N366 N 0.45298 -0.02800 -0.15342
 N367 N 0.43892 -0.04959 -0.20931
 N368 N 0.43425 -0.02841 -0.09658
 N369 N 0.40691 -0.05025 -0.11241
 N370 N 0.48638 0.03488 -0.14528
 N371 N 0.49717 0.05931 -0.19240
 Mn372 Mn 0.44871 0.00146 -0.00126
 C373 C 0.48291 0.07321 -0.16210
 C374 C 0.41021 -0.06330 -0.18286
 N375 N 0.52412 -0.03124 -0.08682
 N376 N 0.52799 -0.05427 -0.09779
 N377 N 0.54065 0.03253 -0.14058
 N378 N 0.55739 0.05406 -0.19482
 N379 N 0.55689 0.03151 -0.07812
 N380 N 0.58503 0.05264 -0.08730
 N381 N 0.50717 -0.03020 -0.14710
 N382 N 0.49875 -0.05271 -0.20028
 Mn383 Mn 0.53892 -0.00151 0.00894
 Mn384 Mn 0.49678 0.00232 -0.14769
 Cl385 Cl 0.49383 -0.00012 0.00374
 C386 C 0.51204 -0.06745 -0.16873
 C387 C 0.58495 0.06661 -0.16014
 C388 C 1.11288 0.46179 0.32894
 C389 C 1.13864 0.46838 0.28176
 C390 C 1.13726 0.47249 0.19267
 C391 C 1.11264 0.47264 0.15584
 C392 C 1.08925 0.47009 0.20686
 C393 C 1.08919 0.46319 0.29271
 C394 C 1.08430 0.47688 0.36961
 C395 C 1.11014 0.47546 0.40990
 H396 H 1.15477 0.47507 0.15009
 H397 H 1.11257 0.47611 0.08783
 H398 H 1.06253 0.46177 0.40066
 H399 H 1.08912 0.50007 0.35810
 H400 H 1.10316 0.45965 0.46452
 H401 H 1.12990 0.49782 0.42217
 C402 C 0.53758 0.66379 0.25746
 C403 C 0.51278 0.65816 0.30647
 C404 C 0.49166 0.62811 0.32497
 C405 C 0.49391 0.60473 0.28712
 C406 C 0.51700 0.61097 0.22878
 C407 C 0.53949 0.64077 0.21887
 C408 C 0.55313 0.65872 0.14018
 C409 C 0.55113 0.68397 0.18252
 H410 H 0.47293 0.62272 0.36642
 H411 H 0.47671 0.58189 0.29991
 H412 H 0.53833 0.64933 0.08406
 H413 H 0.57642 0.66378 0.13052
 H414 H 0.53533 0.68937 0.15044
 H415 H 0.57328 0.70355 0.19764
 C416 C 0.35978 -0.14813 0.25063
 C417 C 0.33085 -0.15247 0.25702
 C418 C 0.32565 -0.13149 0.21346
 C419 C 0.34929 -0.10571 0.17549
 C420 C 0.37880 -0.09972 0.18253
 C421 C 0.38310 -0.12225 0.21586
 C422 C 0.40503 -0.12102 0.27905
 C423 C 0.37962 -0.14932 0.31779
 H424 H 0.30351 -0.13453 0.20935
 H425 H 0.34469 -0.08957 0.14591
 H426 H 0.41358 -0.10139 0.32191
 H427 H 0.42232 -0.12454 0.24863
 H428 H 0.37341 -0.14608 0.38299
 H429 H 0.38260 -0.16897 0.31046
 C430 C 0.87177 0.53014 0.23555
 C431 C 0.85528 0.51120 0.30276
 C432 C 0.86658 0.49319 0.33559
 C433 C 0.89188 0.49375 0.29879
 C434 C 0.90683 0.51245 0.22846
 C435 C 0.89606 0.53069 0.20117
 C436 C 0.90091 0.55327 0.13543
 C437 C 0.87335 0.55272 0.17296
 H438 H 0.85632 0.47879 0.39003
 H439 H 0.89957 0.47953 0.32524
 H440 H 0.89748 0.54401 0.07057
 H441 H 0.92202 0.57470 0.14547
 H442 H 0.85396 0.54320 0.12903
 H443 H 0.87891 0.57429 0.20290
 C444 C 0.51365 0.37528 0.30300
 C445 C 0.50038 0.34713 0.26535
 C446 C 0.48731 0.34364 0.18464
 C447 C 0.48434 0.36697 0.14865
 C448 C 0.49443 0.39399 0.19315
 C449 C 0.51068 0.39818 0.26784
 C450 C 0.50740 0.40877 0.35328
 C451 C 0.51108 0.38390 0.39159
 H452 H 0.47781 0.32242 0.15211
 H453 H 0.47282 0.36326 0.08856
 H454 H 0.48483 0.40568 0.36361
 H455 H 0.52613 0.43138 0.36852
 H456 H 0.49075 0.36662 0.42488
 H457 H 0.53227 0.39222 0.42722
 C458 C 0.65379 0.12920 0.22835
 C459 C 0.65035 0.14197 0.30279
 C460 C 0.62294 0.12561 0.34690
 C461 C 0.59915 0.09943 0.31168
 C462 C 0.60236 0.08889 0.23214
 C463 C 0.63051 0.10337 0.19419
 C464 C 0.63925 0.11440 0.10510
 C465 C 0.66476 0.14278 0.14244
 H466 H 0.61947 0.13318 0.40754
 H467 H 0.57809 0.08807 0.34537
 H468 H 0.62231 0.11796 0.07229
 H469 H 0.64682 0.10101 0.06909
 H470 H 0.66268 0.16284 0.13137
 H471 H 0.68700 0.14572 0.12743
 C472 C 0.51717 0.14858 -0.27076
 C473 C 0.49391 0.15501 -0.26948
 C474 C 0.46877 0.13612 -0.21851
 C475 C 0.46593 0.11027 -0.17999
 C476 C 0.48765 0.10209 -0.19317
 C477 C 0.51390 0.12261 -0.23475
 C478 C 0.53085 0.11832 -0.30441
 C479 C 0.53441 0.14667 -0.34440
 H480 H 0.45102 0.14094 -0.20845
 H481 H 0.44590 0.09584 -0.14411
 H482 H 0.51683 0.09799 -0.34279
 H483 H 0.55221 0.12086 -0.28131
 H484 H 0.52241 0.14278 -0.40586
 H485 H 0.55791 0.16533 -0.34508
 C486 C 0.66811 0.54235 -0.21806
 C487 C 0.66388 0.52334 -0.28704
 C488 C 0.63532 0.50928 -0.32558
 C489 C 0.61168 0.51142 -0.28989
 C490 C 0.61568 0.52756 -0.21451
 C491 C 0.64459 0.54422 -0.18249
 C492 C 0.65567 0.54601 -0.09399
 C493 C 0.68140 0.54392 -0.13237
 H494 H 0.63080 0.49650 -0.38345
 H495 H 0.59000 0.49943 -0.31981
 H496 H 0.64045 0.52627 -0.05453
 H497 H 0.66273 0.56801 -0.06430
 H498 H 0.68115 0.52298 -0.11516
 H499 H 0.70325 0.56471 -0.12410
 C500 C 0.86096 0.37207 -0.31175
 C501 C 0.84766 0.34261 -0.28030
 C502 C 0.85966 0.33864 -0.20353
 C503 C 0.88587 0.36210 -0.16809
 C504 C 0.90100 0.39026 -0.20799
 C505 C 0.88694 0.39517 -0.27673
 C506 C 0.89920 0.40906 -0.36128
 C507 C 0.87094 0.38386 -0.40008
 H508 H 0.84930 0.31744 -0.17046
 H509 H 0.89492 0.35770 -0.11142
 H510 H 0.91961 0.40840 -0.37876
 H511 H 0.90099 0.43125 -0.36809
 H512 H 0.87494 0.36855 -0.44007
 H513 H 0.85670 0.39172 -0.42987
 C514 C 0.48399 -0.13772 -0.29738
 C515 C 0.50462 -0.14696 -0.28414
 C516 C 0.52827 -0.12933 -0.22761
 C517 C 0.53047 -0.10366 -0.18838
 C518 C 0.50952 -0.09454 -0.20638
 C519 C 0.48659 -0.11265 -0.26174
 C520 C 0.45999 -0.11568 -0.30673
 C521 C 0.45719 -0.14396 -0.34767
 H522 H 0.54497 -0.13537 -0.21366
 H523 H 0.54887 -0.09070 -0.14562
 H524 H 0.46590 -0.09724 -0.35293
 H525 H 0.44150 -0.12033 -0.26218
 H526 H 0.46169 -0.14166 -0.41717
 H527 H 0.43696 -0.16493 -0.32723
 C528 C 0.33924 0.46735 -0.22831
 C529 C 0.34314 0.48859 -0.28922
 C530 C 0.37300 0.50971 -0.31082
 C531 C 0.39712 0.50829 -0.27320
 C532 C 0.39197 0.48602 -0.21203
 C533 C 0.36234 0.46639 -0.19104
 C534 C 0.34252 0.43956 -0.13891
 C535 C 0.31630 0.44072 -0.18084
 H536 H 0.37768 0.52677 -0.35813
 H537 H 0.41965 0.52447 -0.29239
 H538 H 0.34474 0.44449 -0.06965
 H539 H 0.34410 0.41975 -0.15777
 H540 H 0.30343 0.44642 -0.13583
 H541 H 0.30273 0.42147 -0.22334
 C542 C 1.14574 0.63496 -0.24378
 C543 C 1.14685 0.66211 -0.26136
 C544 C 1.12297 0.66508 -0.22877
 C545 C 1.09793 0.64069 -0.19048
 C546 C 1.09561 0.61250 -0.18608
 C547 C 1.12073 0.61084 -0.20820
 C548 C 1.12394 0.58869 -0.26004
 C549 C 1.15115 0.61498 -0.30037
 H550 H 1.12323 0.68602 -0.23304
 H551 H 1.07964 0.64346 -0.16913
 H552 H 1.10523 0.57638 -0.30533
 H553 H 1.12964 0.57471 -0.21949
 H554 H 1.14813 0.61817 -0.36893
 H555 H 1.17222 0.61541 -0.28474
 C556 C 0.85485 0.50340 -0.20287
 C557 C 0.85545 0.51243 -0.28762
 C558 C 0.88063 0.51809 -0.33709
 C559 C 0.90514 0.51781 -0.29991
 C560 C 0.90571 0.51317 -0.21192
 C561 C 0.87964 0.50444 -0.16569
 C562 C 0.87536 0.51624 -0.08410
 C563 C 0.84801 0.51474 -0.12368
 H564 H 0.88162 0.52283 -0.40453
 H565 H 0.92432 0.52294 -0.33905
 H566 H 0.89360 0.53950 -0.07261
 H567 H 0.87006 0.50030 -0.03045
 H568 H 0.85014 0.53702 -0.13265
 H569 H 0.82683 0.49765 -0.09342
 C570 C 0.52216 0.38037 -0.29833
 C571 C 0.50608 0.35073 -0.26806
 C572 C 0.49021 0.34638 -0.19063
 C573 C 0.48693 0.36942 -0.15467
 C574 C 0.49945 0.39754 -0.19450
 C575 C 0.51880 0.40303 -0.26273
 C576 C 0.52070 0.41732 -0.34665
 C577 C 0.52413 0.39255 -0.38607
 H578 H 0.47959 0.32514 -0.15785
 H579 H 0.47327 0.36464 -0.09820
 H580 H 0.54110 0.43967 -0.35233
 H581 H 0.49957 0.41645 -0.36462
 H582 H 0.54641 0.40085 -0.41551
 H583 H 0.50485 0.37715 -0.42606
 C584 C 0.64045 0.11668 -0.32598
 C585 C 0.66212 0.14026 -0.27769
 C586 C 0.66033 0.13705 -0.18836
 C587 C 0.63569 0.11230 -0.14978
 C588 C 0.61203 0.09095 -0.19973
 C589 C 0.61584 0.09286 -0.28805
 C590 C 0.59561 0.09087 -0.35833
 C591 C 0.62267 0.11702 -0.40012
 H592 H 0.67741 0.15407 -0.14853
 H593 H 0.63431 0.11086 -0.08112
 H594 H 0.57856 0.09642 -0.33731
 H595 H 0.58682 0.06975 -0.39469
 H596 H 0.62131 0.13772 -0.40344
 H597 H 0.62949 0.11086 -0.46023
 C598 C 1.13727 0.47492 -0.20944
 C599 C 1.15346 0.49658 -0.27214
 C600 C 1.14371 0.51703 -0.29094
 C601 C 1.11676 0.51291 -0.25749
 C602 C 1.09948 0.48919 -0.20134
 C603 C 1.11123 0.47159 -0.17426
 C604 C 1.09674 0.43842 -0.17072
 C605 C 1.12509 0.44192 -0.20957
 H606 H 1.15592 0.53554 -0.33410
 H607 H 1.10878 0.52748 -0.27870
 H608 H 1.07707 0.42704 -0.21340
 H609 H 1.09288 0.42991 -0.10418
 H610 H 1.12194 0.43264 -0.27494
 H611 H 1.13728 0.43508 -0.16529
 C612 C 0.52995 0.66548 -0.22295
 C613 C 0.51037 0.66005 -0.29135
 C614 C 0.49722 0.63123 -0.32838
 C615 C 0.50088 0.60849 -0.29186
 C616 C 0.51767 0.61364 -0.21709
 C617 C 0.53332 0.64286 -0.18667
 C618 C 0.53501 0.65419 -0.09870
 C619 C 0.53132 0.67895 -0.13776
 H620 H 0.48402 0.62582 -0.38568
 H621 H 0.48959 0.58655 -0.32060
 H622 H 0.55731 0.66236 -0.06976
 H623 H 0.51573 0.63847 -0.05863
 H624 H 0.55151 0.70135 -0.13059
 H625 H 0.51000 0.67770 -0.12001
 C626 C 0.33305 -0.12676 -0.23458
 C627 C 0.33791 -0.14146 -0.30248
 C628 C 0.36706 -0.12688 -0.33798
 C629 C 0.39039 -0.10092 -0.30084
 C630 C 0.38546 -0.08874 -0.22698
 C631 C 0.35618 -0.10127 -0.19776
 C632 C 0.34403 -0.11074 -0.11003
 C633 C 0.31873 -0.13869 -0.14976
 H634 H 0.37228 -0.13517 -0.39453
 H635 H 0.41248 -0.09106 -0.32840
 H636 H 0.33670 -0.09584 -0.08193
 H637 H 0.35871 -0.11525 -0.06865
 H638 H 0.29684 -0.13987 -0.14368
 H639 H 0.31868 -0.15945 -0.13147
 C640 C 0.47729 -0.14282 0.30419
 C641 C 0.49135 -0.15714 0.26766
 C642 C 0.50525 -0.14643 0.18772
 C643 C 0.50839 -0.11991 0.15287
 C644 C 0.49763 -0.10364 0.19710
 C645 C 0.48047 -0.11670 0.27004
 C646 C 0.48207 -0.10372 0.35592
 C647 C 0.47829 -0.13250 0.39334
 H648 H 0.51489 -0.15769 0.15388
 H649 H 0.52049 -0.11145 0.09364
 H650 H 0.46277 -0.10064 0.36883
 H651 H 0.50426 -0.08389 0.36913
 H652 H 0.45661 -0.14611 0.42657
 H653 H 0.49815 -0.12938 0.42897
 C654 C 0.36977 0.50585 0.29772
 C655 C 0.34071 0.48844 0.26649
 C656 C 0.33718 0.47250 0.19047
 C657 C 0.36141 0.47125 0.15450
 C658 C 0.38963 0.48586 0.19387
 C659 C 0.39355 0.50457 0.26250
 C660 C 0.40758 0.50720 0.34735
 C661 C 0.38149 0.50862 0.38601
 H662 H 0.31557 0.46012 0.16043
 H663 H 0.35766 0.45771 0.09846
 H664 H 0.42916 0.52843 0.35368
 H665 H 0.40811 0.48673 0.36556
 H666 H 0.38809 0.53068 0.41456
 H667 H 0.36687 0.48900 0.42667
 C668 C 1.13428 0.62084 0.31797
 C669 C 1.14836 0.64950 0.28178
 C670 C 1.13850 0.65249 0.20050
 C671 C 1.11277 0.62867 0.16400
 C672 C 1.09651 0.60125 0.20755
 C673 C 1.10903 0.59729 0.28171
 C674 C 1.09523 0.58501 0.36651
 C675 C 1.12289 0.61082 0.40626
 H676 H 1.14977 0.67356 0.16663
 H677 H 1.10487 0.63224 0.10381
 H678 H 1.09307 0.56291 0.37932
 H679 H 1.07464 0.58609 0.37763
 H680 H 1.13659 0.60352 0.44200
 H681 H 1.11840 0.62689 0.44044
 C682 C 0.51036 0.13876 0.30689
 C683 C 0.49556 0.15318 0.27596
 C684 C 0.47925 0.14214 0.19968
 C685 C 0.47486 0.11538 0.16340
 C686 C 0.48663 0.09907 0.20266
 C687 C 0.50596 0.11241 0.27136
 C688 C 0.50719 0.09991 0.35600
 C689 C 0.51202 0.12883 0.39499
 H690 H 0.46891 0.15347 0.16973
 H691 H 0.46107 0.10679 0.10721
 H692 H 0.52694 0.09706 0.36187
 H693 H 0.48558 0.08006 0.37439
 H694 H 0.53454 0.14256 0.42326
 H695 H 0.49322 0.12579 0.43599
 C696 C 0.63270 0.49797 0.30174
 C697 C 0.66244 0.51918 0.28700
 C698 C 0.66770 0.54238 0.22914
 C699 C 0.64360 0.54356 0.19021
 C700 C 0.61365 0.52198 0.20978
 C701 C 0.60967 0.49954 0.26620
 C702 C 0.58668 0.47316 0.31425
 C703 C 0.61279 0.47150 0.35504
 H704 H 0.69032 0.55950 0.21396
 H705 H 0.64845 0.56163 0.14642
 H706 H 0.57267 0.45407 0.27171
 H707 H 0.57435 0.47929 0.36002
 H708 H 0.61371 0.45131 0.33653
 H709 H 0.61545 0.47674 0.42414
 C710 C 0.85307 0.36585 0.26337
 C711 C 0.84509 0.33594 0.25417
 C712 C 0.86214 0.32934 0.19789
 C713 C 0.88840 0.35251 0.16057
 C714 C 0.89840 0.38255 0.18102
 C715 C 0.87927 0.38858 0.22862
 C716 C 0.88509 0.40824 0.30396
 C717 C 0.85630 0.38328 0.34202
 H718 H 0.85597 0.30637 0.18608
 H719 H 0.90186 0.34683 0.12089
 H720 H 0.88384 0.42841 0.28742
 H721 H 0.90528 0.41252 0.34003
 H722 H 0.83854 0.38916 0.34755
 H723 H 0.85979 0.37305 0.39995
   
