data_POSCAR
  _audit_creation_date              2014-09-24
  _audit_creation_method            'ToBaCCo'
  _symmetry_space_group_name_H-M    'P1'
  _symmetry_Int_Tables_number       1
  _symmetry_cell_setting            triclinic
  loop_
  _symmetry_equiv_pos_as_xyz
 x,y,z
_cell_length_a 44.9647
_cell_length_b 43.7345
_cell_length_c 25.1973
_cell_angle_alpha 89.964600
_cell_angle_beta 89.951200
_cell_angle_gamma 89.968300
loop_
  _atom_site_label
  _atom_site_type_symbol
  _atom_site_fract_x
  _atom_site_fract_y
  _atom_site_fract_z
C1 C 0.70097 0.28554 0.54949
 C2 C 0.69404 0.29841 0.49980
 C3 C 0.70429 0.28614 0.45219
 C4 C 0.72296 0.26024 0.45300
 C5 C 0.73066 0.24646 0.50212
 C6 C 0.71881 0.25839 0.55045
 C7 C 0.72309 0.24113 0.59694
 C8 C 0.74114 0.21537 0.59748
 C9 C 0.75597 0.20524 0.55159
 C10 C 0.74939 0.21998 0.50264
 C11 C 0.73371 0.24750 0.40576
 C12 C 0.75124 0.22145 0.40617
 C13 C 0.76054 0.20779 0.45402
 C14 C 0.77862 0.18098 0.45466
 C15 C 0.78389 0.16654 0.50360
 C16 C 0.77480 0.17905 0.55237
 H17 H 0.71133 0.24591 0.63323
 H18 H 0.74176 0.20255 0.63408
 H19 H 0.72827 0.25719 0.36750
 H20 H 0.75608 0.21178 0.36786
 H21 H 0.68034 0.31878 0.49744
 H22 H 0.79821 0.14661 0.50410
 C23 C 0.29844 0.70487 0.45251
 C24 C 0.30907 0.69396 0.50102
 C25 C 0.30187 0.70816 0.54904
 C26 C 0.28308 0.73416 0.54889
 C27 C 0.27132 0.74509 0.50016
 C28 C 0.27914 0.73044 0.45175
 C29 C 0.26732 0.74163 0.40401
 C30 C 0.24928 0.76739 0.40332
 C31 C 0.24137 0.78244 0.45055
 C32 C 0.25225 0.77113 0.49967
 C33 C 0.27697 0.75045 0.59558
 C34 C 0.25854 0.77601 0.59509
 C35 C 0.24467 0.78613 0.54807
 C36 C 0.22523 0.81202 0.54707
 C37 C 0.21666 0.82376 0.49732
 C38 C 0.22372 0.80912 0.44974
 H39 H 0.27194 0.73070 0.36643
 H40 H 0.24196 0.77552 0.36499
 H41 H 0.28706 0.74417 0.63296
 H42 H 0.25666 0.78836 0.63194
 H43 H 0.32380 0.67430 0.50133
 H44 H 0.20220 0.84357 0.49510
 C45 C 0.20332 0.20845 -0.45369
 C46 C 0.19144 0.19820 -0.50154
 C47 C 0.19901 0.21130 -0.55079
 C48 C 0.21872 0.23701 -0.55090
 C49 C 0.23188 0.24696 -0.50242
 C50 C 0.22410 0.23257 -0.45380
 C51 C 0.23728 0.24264 -0.40646
 C52 C 0.25673 0.26723 -0.40616
 C53 C 0.26458 0.28223 -0.45341
 C54 C 0.25226 0.27199 -0.50218
 C55 C 0.22383 0.25479 -0.59660
 C56 C 0.24370 0.27914 -0.59635
 C57 C 0.25956 0.28724 -0.55038
 C58 C 0.28048 0.31183 -0.54994
 C59 C 0.29061 0.32255 -0.50048
 C60 C 0.28350 0.30797 -0.45288
 H61 H 0.23260 0.23176 -0.36884
 H62 H 0.26516 0.27454 -0.36808
 H63 H 0.21145 0.25150 -0.63272
 H64 H 0.24496 0.29253 -0.63226
 H65 H 0.17614 0.17906 -0.49981
 H66 H 0.30608 0.34153 -0.49860
 C67 C -0.30339 0.71274 -0.45205
 C68 C -0.31548 0.70417 -0.50116
 C69 C -0.30389 0.71405 -0.55002
 C70 C -0.28076 0.73629 -0.54964
 C71 C -0.26848 0.74622 -0.50050
 C72 C -0.28006 0.73478 -0.45160
 C73 C -0.26988 0.74796 -0.40400
 C74 C -0.24746 0.76966 -0.40369
 C75 C -0.23460 0.78006 -0.45102
 C76 C -0.24552 0.76887 -0.50016
 C77 C -0.27169 0.75131 -0.59628
 C78 C -0.24931 0.77317 -0.59587
 C79 C -0.23462 0.78138 -0.54876
 C80 C -0.21152 0.80389 -0.54785
 C81 C -0.20182 0.81466 -0.49819
 C82 C -0.21260 0.80302 -0.45042
 H83 H -0.28001 0.74319 -0.36615
 H84 H -0.24123 0.77913 -0.36566
 H85 H -0.28293 0.74798 -0.63361
 H86 H -0.24534 0.78477 -0.63292
 H87 H -0.33278 0.68693 -0.50145
 H88 H -0.18433 0.83168 -0.49597
 N89 N 0.03684 0.94523 0.05495
 N90 N 0.05783 0.92502 0.06602
 N91 N -0.02614 0.96375 0.09325
 N92 N -0.04589 0.95737 0.13030
 N93 N -0.02558 0.94218 0.05701
 N94 N -0.04490 0.92039 0.06872
 N95 N 0.03627 0.96692 0.09098
 N96 N 0.05686 0.96218 0.12725
 C97 C 0.07033 0.93621 0.11089
 C98 C -0.05759 0.93045 0.11429
 N99 N -0.03083 1.05103 0.05742
 N100 N -0.05166 1.07112 0.07000
 N101 N 0.03316 1.03264 0.09113
 N102 N 0.05356 1.03926 0.12688
 N103 N 0.03157 1.05428 0.05507
 N104 N 0.05082 1.07630 0.06552
 N105 N -0.02928 1.02939 0.09349
 N106 N -0.04905 1.03402 0.13126
 Mn107 Mn 0.00353 0.99817 0.09260
 C108 C -0.06304 1.05988 0.11586
 C109 C 0.06460 1.06636 0.11010
 N110 N -0.02671 0.94228 -0.05791
 N111 N -0.04634 0.92059 -0.06839
 N112 N 0.03443 0.96701 -0.09588
 N113 N 0.05465 0.96253 -0.13301
 N114 N 0.03574 0.94535 -0.05983
 N115 N 0.05688 0.92545 -0.07165
 N116 N -0.02799 0.96396 -0.09392
 N117 N -0.04855 0.95780 -0.12954
 Mn118 Mn 0.00507 0.94340 -0.00145
 C119 C -0.05997 0.93088 -0.11293
 C120 C 0.06866 0.93674 -0.11713
 N121 N 0.03038 1.05433 -0.05949
 N122 N 0.04968 1.07616 -0.07087
 N123 N -0.03123 1.02953 -0.09377
 N124 N -0.05224 1.03382 -0.12944
 N125 N -0.03206 1.05108 -0.05751
 N126 N -0.05363 1.07078 -0.06785
 N127 N 0.03121 1.03274 -0.09566
 N128 N 0.05109 1.03919 -0.13246
 Mn129 Mn -0.00028 1.05303 -0.00114
 Mn130 Mn 0.00163 0.99831 -0.09522
 Cl131 Cl 0.00248 0.99822 -0.00129
 C132 C 0.06261 1.06615 -0.11623
 C133 C -0.06619 1.05942 -0.11257
 N134 N 0.47191 0.46491 0.09475
 N135 N 0.45127 0.46014 0.13097
 N136 N 0.53372 0.44212 0.05781
 N137 N 0.55323 0.42045 0.06909
 N138 N 0.53441 0.46374 0.09395
 N139 N 0.55439 0.45743 0.13064
 N140 N 0.47122 0.44341 0.05838
 N141 N 0.45015 0.42326 0.06921
 C142 C 0.43774 0.43428 0.11436
 C143 C 0.56617 0.43059 0.11429
 N144 N 0.53405 0.46385 -0.09297
 N145 N 0.55449 0.45801 -0.12914
 N146 N 0.47106 0.44341 -0.05668
 N147 N 0.45069 0.42266 -0.06833
 N148 N 0.47154 0.46500 -0.09293
 N149 N 0.45147 0.45970 -0.12987
 N150 N 0.53356 0.44223 -0.05676
 N151 N 0.55363 0.42103 -0.06747
 Mn152 Mn 0.50234 0.44244 0.00069
 C153 C 0.56671 0.43143 -0.11242
 C154 C 0.43844 0.43345 -0.11378
 N155 N 0.53549 0.52971 0.09396
 N156 N 0.55570 0.53561 0.13052
 N157 N 0.47296 0.55203 0.05844
 N158 N 0.45313 0.57335 0.06993
 N159 N 0.47295 0.53056 0.09489
 N160 N 0.45305 0.53654 0.13191
 N161 N 0.53543 0.55116 0.05746
 N162 N 0.55557 0.57221 0.06820
 Mn163 Mn 0.50374 0.49721 0.09483
 C164 C 0.56828 0.56196 0.11349
 C165 C 0.44067 0.56310 0.11556
 N166 N 0.47246 0.53072 -0.09289
 N167 N 0.45249 0.53699 -0.12966
 N168 N 0.53514 0.55124 -0.05672
 N169 N 0.55531 0.57221 -0.06797
 N170 N 0.53501 0.52973 -0.09305
 N171 N 0.55510 0.53545 -0.12993
 N172 N 0.47267 0.55207 -0.05627
 N173 N 0.45294 0.57354 -0.06733
 Mn174 Mn 0.50329 0.49731 -0.09340
 Mn175 Mn 0.50401 0.55192 0.00073
 Cl176 Cl 0.50334 0.49721 0.00071
 C177 C 0.44028 0.56355 -0.11286
 C178 C 0.56781 0.56179 -0.11338
 N179 N 0.30854 0.32185 0.31495
 C180 C 0.32202 0.34948 0.31871
 N181 N 0.32098 0.36474 0.36534
 N182 N 0.30694 0.35281 0.40695
 C183 C 0.29314 0.32518 0.40383
 N184 N 0.29443 0.30995 0.35675
 C185 C 0.33892 0.36198 0.27549
 C186 C 0.35430 0.37396 0.24224
 C187 C 0.37386 0.38986 0.20663
 N188 N 0.38384 0.41803 0.22000
 N189 N 0.40372 0.43233 0.18973
 C190 C 0.41434 0.41896 0.14500
 N191 N 0.40416 0.39080 0.13130
 N192 N 0.38426 0.37643 0.16173
 N193 N -0.18100 0.81181 0.31802
 C194 C -0.16658 0.83893 0.32197
 N195 N -0.16729 0.85421 0.36857
 N196 N -0.18205 0.84290 0.40987
 C197 C -0.19700 0.81591 0.40649
 N198 N -0.19582 0.80051 0.35957
 C199 C -0.15005 0.85154 0.27837
 C200 C -0.13532 0.86412 0.24482
 C201 C -0.11694 0.88124 0.20890
 N202 N -0.10877 0.91006 0.22204
 N203 N -0.09031 0.92581 0.19112
 C204 C -0.07935 0.91332 0.14589
 N205 N -0.08769 0.88448 0.13244
 N206 N -0.10618 0.86865 0.16353
 N207 N 0.69105 0.68101 0.31700
 C208 C 0.66381 0.66776 0.31894
 N209 N 0.64724 0.67067 0.36342
 N210 N 0.65752 0.68623 0.40479
 C211 C 0.68475 0.69979 0.40356
 N212 N 0.70132 0.69666 0.35860
 C213 C 0.65264 0.64965 0.27593
 C214 C 0.64131 0.63367 0.24268
 C215 C 0.62572 0.61413 0.20647
 N216 N 0.61755 0.58567 0.22206
 N217 N 0.60001 0.56861 0.19152
 C218 C 0.58996 0.57949 0.14439
 N219 N 0.59842 0.60788 0.12853
 N220 N 0.61595 0.62497 0.15915
 N221 N 0.18821 1.18562 0.31224
 C222 C 0.16354 1.16804 0.31739
 N223 N 0.15079 1.16513 0.36572
 N224 N 0.16218 1.17941 0.40757
 C225 C 0.18671 1.19746 0.40310
 N226 N 0.19960 1.19995 0.35436
 C227 C 0.15100 1.15189 0.27319
 C228 C 0.13878 1.13714 0.23918
 C229 C 0.12249 1.11837 0.20264
 N230 N 0.11599 1.08911 0.21600
 N231 N 0.09821 1.07232 0.18550
 C232 C 0.08625 1.08421 0.14059
 N233 N 0.09300 1.11345 0.12688
 N234 N 0.11077 1.13030 0.15753
 N235 N 0.65540 0.33551 -0.36862
 C236 C 0.66766 0.33204 -0.32005
 N237 N 0.69132 0.31309 -0.31426
 N238 N 0.70215 0.29793 -0.35600
 C239 C 0.68964 0.30084 -0.40494
 N240 N 0.66623 0.32037 -0.41008
 C241 C 0.65519 0.34838 -0.27598
 C242 C 0.64284 0.36306 -0.24200
 C243 C 0.62618 0.38144 -0.20536
 N244 N 0.61530 0.36933 -0.15971
 N245 N 0.59702 0.38560 -0.12898
 C246 C 0.58891 0.41440 -0.14313
 N247 N 0.60005 0.42650 -0.18858
 N248 N 0.61832 0.41028 -0.21918
 N249 N 0.19470 0.82255 -0.31967
 C250 C 0.18324 0.85115 -0.32334
 N251 N 0.18643 0.86683 -0.36927
 N252 N 0.20061 0.85437 -0.41026
 C253 C 0.21242 0.82575 -0.40718
 N254 N 0.20893 0.81012 -0.36084
 C255 C 0.16620 0.86427 -0.28085
 C256 C 0.15085 0.87651 -0.24783
 C257 C 0.13147 0.89244 -0.21192
 N258 N 0.12089 0.92038 -0.22547
 N259 N 0.10134 0.93467 -0.19449
 C260 C 0.09168 0.92154 -0.14884
 N261 N 0.10245 0.89361 -0.13503
 N262 N 0.12202 0.87925 -0.16614
 N263 N 0.31076 0.67302 -0.31830
 C264 C 0.34026 0.66640 -0.31809
 N265 N 0.35709 0.67439 -0.36047
 N266 N 0.34489 0.68847 -0.40190
 C267 C 0.31542 0.69523 -0.40238
 N268 N 0.29853 0.68718 -0.35983
 C269 C 0.35347 0.64920 -0.27571
 C270 C 0.36602 0.63398 -0.24270
 C271 C 0.38255 0.61512 -0.20661
 N272 N 0.39267 0.62648 -0.15990
 N273 N 0.41042 0.60971 -0.12905
 C274 C 0.41871 0.58112 -0.14407
 N275 N 0.40835 0.56977 -0.19062
 N276 N 0.39060 0.58650 -0.22137
 N277 N -0.18792 1.12535 -0.35969
 C278 C -0.18439 1.14209 -0.31502
 N279 N -0.19538 1.17095 -0.31345
 N280 N -0.20942 1.18263 -0.35549
 C281 C -0.21309 1.16598 -0.40068
 N282 N -0.20187 1.13707 -0.40157
 C283 C -0.16707 1.12986 -0.27210
 C284 C -0.15132 1.11816 -0.23911
 C285 C -0.13132 1.10262 -0.20378
 N286 N -0.12096 1.07458 -0.21717
 N287 N -0.10070 1.06065 -0.18721
 C288 C -0.09005 1.07428 -0.14277
 N289 N -0.10059 1.10231 -0.12906
 N290 N -0.12088 1.11630 -0.15917
 N291 N 0.64720 0.66927 -0.36623
 C292 C 0.66405 0.66510 -0.32240
 N293 N 0.69180 0.67715 -0.32091
 N294 N 0.70226 0.69300 -0.36217
 C295 C 0.68537 0.69762 -0.40629
 N296 N 0.65768 0.68506 -0.40728
 C297 C 0.65250 0.64726 -0.27932
 C298 C 0.64098 0.63170 -0.24561
 C299 C 0.62526 0.61272 -0.20860
 N300 N 0.61702 0.58411 -0.22302
 N301 N 0.59946 0.56750 -0.19170
 C302 C 0.58948 0.57898 -0.14495
 N303 N 0.59801 0.60753 -0.13025
 N304 N 0.61556 0.62418 -0.16166
 N305 N 0.16837 1.19536 -0.32287
 C306 C 0.16829 1.16438 -0.32009
 N307 N 0.18060 1.14804 -0.36015
 N308 N 0.19261 1.16217 -0.40176
 C309 C 0.19284 1.19317 -0.40471
 N310 N 0.18042 1.20952 -0.36453
 C311 C 0.15283 1.14883 -0.27824
 C312 C 0.13889 1.13470 -0.24556
 C313 C 0.12123 1.11670 -0.20989
 N314 N 0.11339 1.08790 -0.22380
 N315 N 0.09522 1.07162 -0.19313
 C316 C 0.08424 1.08359 -0.14748
 N317 N 0.09228 1.11238 -0.13330
 N318 N 0.11046 1.12872 -0.16410
 N319 N 0.32849 0.31411 -0.33060
 C320 C 0.32633 0.34440 -0.31966
 N321 N 0.30956 0.36244 -0.35155
 N322 N 0.29530 0.35060 -0.39302
 C323 C 0.29720 0.32027 -0.40395
 N324 N 0.31419 0.30225 -0.37211
 C325 C 0.34364 0.35789 -0.27797
 C326 C 0.35884 0.37045 -0.24518
 C327 C 0.37772 0.38687 -0.20924
 N328 N 0.38717 0.41528 -0.22240
 N329 N 0.40604 0.43025 -0.19116
 C330 C 0.41611 0.41736 -0.14560
 N331 N 0.40647 0.38894 -0.13215
 N332 N 0.38757 0.37392 -0.16354
 N333 N -0.17369 0.80891 -0.32156
 C334 C -0.17177 0.83966 -0.31541
 N335 N -0.18393 0.85819 -0.35263
 N336 N -0.19763 0.84642 -0.39472
 C337 C -0.19975 0.81568 -0.40102
 N338 N -0.18746 0.79711 -0.36370
 C339 C -0.15477 0.85278 -0.27300
 C340 C -0.13971 0.86541 -0.24012
 C341 C -0.12095 0.88236 -0.20475
 N342 N -0.10923 0.86935 -0.16052
 N343 N -0.09025 0.88496 -0.13016
 C344 C -0.08237 0.91400 -0.14327
 N345 N -0.09430 0.92691 -0.18734
 N346 N -0.11325 0.91137 -0.21752
 N347 N 0.32127 0.64400 0.35993
 C348 C 0.33426 0.66013 0.32026
 N349 N 0.33464 0.69109 0.32302
 N350 N 0.32237 0.70546 0.36423
 C351 C 0.30921 0.68936 0.40397
 N352 N 0.30903 0.65835 0.40111
 C353 C 0.34983 0.64438 0.27875
 C354 C 0.36386 0.63029 0.24611
 C355 C 0.38165 0.61256 0.21022
 N356 N 0.39172 0.62465 0.16397
 N357 N 0.41001 0.60864 0.13285
 C358 C 0.41884 0.58009 0.14715
 N359 N 0.40855 0.56804 0.19326
 N360 N 0.39028 0.58399 0.22426
 N361 N -0.18332 1.17475 0.32684
 C362 C -0.17562 1.14480 0.32650
 N363 N -0.18332 1.12699 0.36823
 N364 N -0.19845 1.13868 0.40885
 C365 C -0.20676 1.16862 0.40943
 N366 N -0.19850 1.18640 0.36759
 C367 C -0.15820 1.13214 0.28415
 C368 C -0.14292 1.12020 0.25074
 C369 C -0.12393 1.10445 0.21402
 N370 N -0.11347 1.07634 0.22666
 N371 N -0.09455 1.06199 0.19457
 C372 C -0.08544 1.07524 0.14867
 N373 N -0.09608 1.10336 0.13575
 N374 N -0.11504 1.11776 0.16798
 N375 N 0.66727 0.29988 0.32355
 C376 C 0.67033 0.33058 0.31817
 N377 N 0.68547 0.34639 0.35565
 N378 N 0.69718 0.33200 0.39726
 C379 C 0.69427 0.30126 0.40277
 N380 N 0.67901 0.28546 0.36520
 C381 C 0.65517 0.34672 0.27664
 C382 C 0.64150 0.36124 0.24409
 C383 C 0.62416 0.37953 0.20835
 N384 N 0.61370 0.36777 0.16219
 N385 N 0.59577 0.38430 0.13127
 C386 C 0.58769 0.41307 0.14565
 N387 N 0.59838 0.42480 0.19167
 N388 N 0.61630 0.40831 0.22249
 N389 N 0.18007 0.81705 0.32633
 C390 C 0.18296 0.84732 0.31587
 N391 N 0.19985 0.86480 0.34845
 N392 N 0.21351 0.85240 0.39012
 C393 C 0.21085 0.82206 0.40055
 N394 N 0.19375 0.80463 0.36802
 C395 C 0.16612 0.86138 0.27415
 C396 C 0.15112 0.87417 0.24131
 C397 C 0.13225 0.89057 0.20529
 N398 N 0.12266 0.91894 0.21837
 N399 N 0.10347 0.93368 0.18737
 C400 C 0.09320 0.92057 0.14218
 N401 N 0.10301 0.89221 0.12879
 N402 N 0.12222 0.87742 0.15994
   
