data_POSCAR
  _audit_creation_date              2014-09-24
  _audit_creation_method            'ToBaCCo'
  _symmetry_space_group_name_H-M    'P1'
  _symmetry_Int_Tables_number       1
  _symmetry_cell_setting            triclinic
  loop_
  _symmetry_equiv_pos_as_xyz
 x,y,z
_cell_length_a 27.5634
_cell_length_b 28.4591
_cell_length_c 34.9400
_cell_angle_alpha 90.000000
_cell_angle_beta 90.000000
_cell_angle_gamma 90.000000
loop_
  _atom_site_label
  _atom_site_type_symbol
  _atom_site_fract_x
  _atom_site_fract_y
  _atom_site_fract_z
B1 B 0.27687 0.23408 0.28777
 B2 B 0.21959 0.21948 0.27849
 B3 B 0.23347 0.27510 0.28798
 B4 B 0.28815 0.28756 0.26885
 B5 B 0.30741 0.23734 0.24648
 B6 B 0.26449 0.19476 0.25305
 B7 B 0.22319 0.26592 0.21221
 B8 B 0.28047 0.28052 0.22150
 B9 B 0.26659 0.22490 0.21200
 B10 B 0.21191 0.21244 0.23114
 B11 B 0.19265 0.26266 0.25351
 B12 B 0.23557 0.30524 0.24694
 B13 B 0.72319 0.76592 0.28777
 B14 B 0.78047 0.78052 0.27849
 B15 B 0.76659 0.72490 0.28798
 B16 B 0.71191 0.71244 0.26885
 B17 B 0.69265 0.76266 0.24648
 B18 B 0.73557 0.80524 0.25305
 B19 B 0.77687 0.73408 0.21221
 B20 B 0.71959 0.71948 0.22150
 B21 B 0.73347 0.77510 0.21200
 B22 B 0.78815 0.78756 0.23114
 B23 B 0.80741 0.73734 0.25351
 B24 B 0.76449 0.69476 0.24694
 B25 B 0.72319 0.23408 -0.28779
 B26 B 0.78047 0.21948 -0.27850
 B27 B 0.76659 0.27510 -0.28800
 B28 B 0.71191 0.28756 -0.26886
 B29 B 0.69265 0.23734 -0.24649
 B30 B 0.73557 0.19476 -0.25306
 B31 B 0.77687 0.26592 -0.21223
 B32 B 0.71959 0.28052 -0.22151
 B33 B 0.73347 0.22490 -0.21202
 B34 B 0.78815 0.21244 -0.23115
 B35 B 0.80741 0.26266 -0.25352
 B36 B 0.76449 0.30524 -0.24695
 B37 B 0.27687 0.76592 -0.28779
 B38 B 0.21959 0.78052 -0.27850
 B39 B 0.23347 0.72490 -0.28800
 B40 B 0.28815 0.71244 -0.26886
 B41 B 0.30741 0.76266 -0.24649
 B42 B 0.26449 0.80524 -0.25306
 B43 B 0.22319 0.73408 -0.21223
 B44 B 0.28047 0.71948 -0.22151
 B45 B 0.26659 0.77510 -0.21202
 B46 B 0.21191 0.78756 -0.23115
 B47 B 0.19265 0.73734 -0.25352
 B48 B 0.23557 0.69476 -0.24695
 B49 B 1.22319 1.26592 0.78777
 B50 B 1.28047 1.28052 0.77849
 B51 B 1.26659 1.22490 0.78798
 B52 B 1.21191 1.21244 0.76885
 B53 B 1.19265 1.26266 0.74648
 B54 B 1.23557 1.30524 0.75305
 B55 B 1.27687 1.23408 0.71221
 B56 B 1.21959 1.21948 0.72150
 B57 B 1.23347 1.27510 0.71200
 B58 B 1.28815 1.28756 0.73114
 B59 B 1.30741 1.23734 0.75351
 B60 B 1.26449 1.19476 0.74694
 B61 B 0.77687 0.73408 0.78777
 B62 B 0.71959 0.71948 0.77849
 B63 B 0.73347 0.77510 0.78798
 B64 B 0.78815 0.78756 0.76885
 B65 B 0.80741 0.73734 0.74648
 B66 B 0.76449 0.69476 0.75305
 B67 B 0.72319 0.76592 0.71221
 B68 B 0.78047 0.78052 0.72150
 B69 B 0.76659 0.72490 0.71200
 B70 B 0.71191 0.71244 0.73114
 B71 B 0.69265 0.76266 0.75351
 B72 B 0.73557 0.80524 0.74694
 B73 B 1.22319 0.73408 0.21221
 B74 B 1.28047 0.71948 0.22150
 B75 B 1.26659 0.77510 0.21200
 B76 B 1.21191 0.78756 0.23114
 B77 B 1.19265 0.73734 0.25351
 B78 B 1.23557 0.69476 0.24694
 B79 B 1.27687 0.76592 0.28777
 B80 B 1.21959 0.78052 0.27849
 B81 B 1.23347 0.72490 0.28798
 B82 B 1.28815 0.71244 0.26885
 B83 B 1.30741 0.76266 0.24648
 B84 B 1.26449 0.80524 0.25305
 B85 B 0.77687 1.26592 0.21221
 B86 B 0.71959 1.28052 0.22150
 B87 B 0.73347 1.22490 0.21200
 B88 B 0.78815 1.21244 0.23114
 B89 B 0.80741 1.26266 0.25351
 B90 B 0.76449 1.30524 0.24694
 B91 B 0.72319 1.23408 0.28777
 B92 B 0.78047 1.21948 0.27849
 B93 B 0.76659 1.27510 0.28798
 B94 B 0.71191 1.28756 0.26885
 B95 B 0.69265 1.23734 0.24648
 B96 B 0.73557 1.19476 0.25305
 N97 N 0.58618 1.04931 0.04117
 N98 N 0.62149 1.07887 0.04966
 N99 N 0.55279 0.95056 0.06803
 N100 N 0.56472 0.92086 0.09555
 N101 N 0.58618 0.95068 0.04117
 N102 N 0.62149 0.92113 0.04966
 N103 N 0.55279 1.04944 0.06803
 N104 N 0.56472 1.07914 0.09555
 C105 C 0.60710 1.09783 0.08320
 C106 C 0.60710 0.90217 0.08320
 N107 N 0.41388 0.95068 0.04117
 N108 N 0.37857 0.92113 0.04966
 N109 N 0.44728 1.04944 0.06803
 N110 N 0.43534 1.07914 0.09555
 N111 N 0.41388 1.04931 0.04117
 N112 N 0.37857 1.07887 0.04966
 N113 N 0.44728 0.95056 0.06803
 N114 N 0.43534 0.92086 0.09555
 Mn115 Mn 0.50003 1.00000 0.06838
 C116 C 0.39296 0.90217 0.08320
 C117 C 0.39296 1.09783 0.08320
 N118 N 0.58618 0.95068 -0.04118
 N119 N 0.62149 0.92113 -0.04968
 N120 N 0.55279 1.04944 -0.06804
 N121 N 0.56472 1.07914 -0.09557
 N122 N 0.58618 1.04931 -0.04118
 N123 N 0.62149 1.07887 -0.04968
 N124 N 0.55279 0.95056 -0.06804
 N125 N 0.56472 0.92086 -0.09557
 Mn126 Mn 0.58637 1.00000 -0.00001
 C127 C 0.60710 0.90217 -0.08321
 C128 C 0.60710 1.09783 -0.08321
 N129 N 0.41388 1.04931 -0.04118
 N130 N 0.37857 1.07887 -0.04968
 N131 N 0.44728 0.95056 -0.06804
 N132 N 0.43534 0.92086 -0.09557
 N133 N 0.41388 0.95068 -0.04118
 N134 N 0.37857 0.92113 -0.04968
 N135 N 0.44728 1.04944 -0.06804
 N136 N 0.43534 1.07914 -0.09557
 Mn137 Mn 0.41369 1.00000 -0.00001
 Mn138 Mn 0.50003 1.00000 -0.06840
 Cl139 Cl 0.50003 1.00000 -0.00001
 C140 C 0.39296 1.09783 -0.08321
 C141 C 0.39296 0.90217 -0.08321
 N142 N 1.08618 0.54931 0.54117
 N143 N 1.12149 0.57887 0.54966
 N144 N 1.05279 0.45056 0.56803
 N145 N 1.06472 0.42086 0.59555
 N146 N 1.08618 0.45068 0.54117
 N147 N 1.12149 0.42113 0.54966
 N148 N 1.05279 0.54944 0.56803
 N149 N 1.06472 0.57914 0.59555
 C150 C 1.10710 0.59783 0.58320
 C151 C 1.10710 0.40217 0.58320
 N152 N 0.91388 0.45068 0.54117
 N153 N 0.87857 0.42113 0.54966
 N154 N 0.94728 0.54944 0.56803
 N155 N 0.93534 0.57914 0.59555
 N156 N 0.91388 0.54931 0.54117
 N157 N 0.87857 0.57887 0.54966
 N158 N 0.94728 0.45056 0.56803
 N159 N 0.93534 0.42086 0.59555
 Mn160 Mn 1.00003 0.50000 0.56838
 C161 C 0.89296 0.40217 0.58320
 C162 C 0.89296 0.59783 0.58320
 N163 N 1.08618 0.45068 0.45882
 N164 N 1.12149 0.42113 0.45032
 N165 N 1.05279 0.54944 0.43196
 N166 N 1.06472 0.57914 0.40443
 N167 N 1.08618 0.54931 0.45882
 N168 N 1.12149 0.57887 0.45032
 N169 N 1.05279 0.45056 0.43196
 N170 N 1.06472 0.42086 0.40443
 Mn171 Mn 1.08637 0.50000 0.49999
 C172 C 1.10710 0.40217 0.41679
 C173 C 1.10710 0.59783 0.41679
 N174 N 0.91388 0.54931 0.45882
 N175 N 0.87857 0.57887 0.45032
 N176 N 0.94728 0.45056 0.43196
 N177 N 0.93534 0.42086 0.40443
 N178 N 0.91388 0.45068 0.45882
 N179 N 0.87857 0.42113 0.45032
 N180 N 0.94728 0.54944 0.43196
 N181 N 0.93534 0.57914 0.40443
 Mn182 Mn 0.91369 0.50000 0.49999
 Mn183 Mn 1.00003 0.50000 0.43160
 Cl184 Cl 1.00003 0.50000 0.49999
 C185 C 0.89296 0.59783 0.41679
 C186 C 0.89296 0.40217 0.41679
 N187 N 1.08658 0.54966 0.04155
 N188 N 1.11976 0.58188 0.04943
 N189 N 1.05249 0.45041 0.06787
 N190 N 1.06154 0.41827 0.09421
 N191 N 1.08658 0.45034 0.04155
 N192 N 1.11976 0.41812 0.04943
 N193 N 1.05249 0.54959 0.06787
 N194 N 1.06154 0.58173 0.09421
 C195 C 1.10314 0.60202 0.08205
 C196 C 1.10314 0.39798 0.08205
 N197 N 0.91349 0.45034 0.04155
 N198 N 0.88031 0.41812 0.04943
 N199 N 0.94758 0.54959 0.06787
 N200 N 0.93853 0.58173 0.09421
 N201 N 0.91349 0.54966 0.04155
 N202 N 0.88031 0.58188 0.04943
 N203 N 0.94758 0.45041 0.06787
 N204 N 0.93853 0.41827 0.09421
 Mn205 Mn 1.00003 0.50000 0.06814
 C206 C 0.89692 0.39798 0.08205
 C207 C 0.89692 0.60202 0.08205
 N208 N 1.08658 0.45034 -0.04156
 N209 N 1.11976 0.41812 -0.04945
 N210 N 1.05249 0.54959 -0.06788
 N211 N 1.06154 0.58173 -0.09422
 N212 N 1.08658 0.54966 -0.04156
 N213 N 1.11976 0.58188 -0.04945
 N214 N 1.05249 0.45041 -0.06788
 N215 N 1.06154 0.41827 -0.09422
 Mn216 Mn 1.08707 0.50000 -0.00001
 C217 C 1.10314 0.39798 -0.08206
 C218 C 1.10314 0.60202 -0.08206
 N219 N 0.91349 0.54966 -0.04156
 N220 N 0.88030 0.58188 -0.04945
 N221 N 0.94758 0.45041 -0.06788
 N222 N 0.93853 0.41827 -0.09422
 N223 N 0.91349 0.45034 -0.04156
 N224 N 0.88030 0.41812 -0.04945
 N225 N 0.94758 0.54959 -0.06788
 N226 N 0.93853 0.58173 -0.09422
 Mn227 Mn 0.91299 0.50000 -0.00001
 Mn228 Mn 1.00003 0.50000 -0.06815
 Cl229 Cl 1.00003 0.50000 -0.00001
 C230 C 0.89692 0.60202 -0.08206
 C231 C 0.89692 0.39798 -0.08206
 N232 N 0.58658 1.04966 0.54155
 N233 N 0.61976 1.08188 0.54943
 N234 N 0.55249 0.95041 0.56787
 N235 N 0.56154 0.91827 0.59421
 N236 N 0.58658 0.95034 0.54155
 N237 N 0.61976 0.91812 0.54943
 N238 N 0.55249 1.04959 0.56787
 N239 N 0.56154 1.08173 0.59421
 C240 C 0.60314 1.10202 0.58205
 C241 C 0.60314 0.89798 0.58205
 N242 N 0.41349 0.95034 0.54155
 N243 N 0.38031 0.91812 0.54943
 N244 N 0.44758 1.04959 0.56787
 N245 N 0.43853 1.08173 0.59421
 N246 N 0.41349 1.04966 0.54155
 N247 N 0.38031 1.08188 0.54943
 N248 N 0.44758 0.95041 0.56787
 N249 N 0.43853 0.91827 0.59421
 Mn250 Mn 0.50003 1.00000 0.56814
 C251 C 0.39692 0.89798 0.58205
 C252 C 0.39692 1.10202 0.58205
 N253 N 0.58658 0.95034 0.45844
 N254 N 0.61976 0.91812 0.45055
 N255 N 0.55249 1.04959 0.43212
 N256 N 0.56154 1.08173 0.40578
 N257 N 0.58658 1.04966 0.45844
 N258 N 0.61976 1.08188 0.45055
 N259 N 0.55249 0.95041 0.43212
 N260 N 0.56154 0.91827 0.40578
 Mn261 Mn 0.58707 1.00000 0.49999
 C262 C 0.60314 0.89798 0.41794
 C263 C 0.60314 1.10202 0.41794
 N264 N 0.41349 1.04966 0.45844
 N265 N 0.38030 1.08188 0.45055
 N266 N 0.44758 0.95041 0.43212
 N267 N 0.43853 0.91827 0.40578
 N268 N 0.41349 0.95034 0.45844
 N269 N 0.38030 0.91812 0.45055
 N270 N 0.44758 1.04959 0.43212
 N271 N 0.43853 1.08173 0.40578
 Mn272 Mn 0.41299 1.00000 0.49999
 Mn273 Mn 0.50003 1.00000 0.43185
 Cl274 Cl 0.50003 1.00000 0.49999
 C275 C 0.39692 1.10202 0.41794
 C276 C 0.39692 0.89798 0.41794
 N277 N 1.08656 1.04915 0.54139
 N278 N 1.12126 1.07859 0.55173
 N279 N 1.05150 0.95089 0.56681
 N280 N 1.06090 0.92141 0.59476
 N281 N 1.08656 0.95085 0.54139
 N282 N 1.12126 0.92140 0.55173
 N283 N 1.05150 1.04911 0.56681
 N284 N 1.06090 1.07859 0.59476
 C285 C 1.10376 1.09729 0.58458
 C286 C 1.10376 0.90270 0.58458
 N287 N 0.91350 0.95085 0.54139
 N288 N 0.87881 0.92140 0.55173
 N289 N 0.94856 1.04911 0.56681
 N290 N 0.93917 1.07859 0.59476
 N291 N 0.91350 1.04915 0.54139
 N292 N 0.87881 1.07859 0.55173
 N293 N 0.94856 0.95089 0.56681
 N294 N 0.93917 0.92141 0.59476
 Mn295 Mn 1.00003 1.00000 0.56694
 C296 C 0.89630 0.90270 0.58458
 C297 C 0.89630 1.09729 0.58458
 N298 N 1.08656 0.95085 0.45860
 N299 N 1.12126 0.92140 0.44826
 N300 N 1.05150 1.04911 0.43318
 N301 N 1.06090 1.07859 0.40523
 N302 N 1.08656 1.04915 0.45860
 N303 N 1.12126 1.07859 0.44826
 N304 N 1.05150 0.95089 0.43318
 N305 N 1.06090 0.92141 0.40523
 Mn306 Mn 1.08727 1.00000 0.49999
 C307 C 1.10376 0.90270 0.41541
 C308 C 1.10376 1.09730 0.41541
 N309 N 0.91350 1.04915 0.45860
 N310 N 0.87881 1.07859 0.44826
 N311 N 0.94856 0.95089 0.43318
 N312 N 0.93917 0.92141 0.40523
 N313 N 0.91350 0.95085 0.45860
 N314 N 0.87881 0.92140 0.44826
 N315 N 0.94856 1.04911 0.43318
 N316 N 0.93917 1.07859 0.40523
 Mn317 Mn 0.91279 1.00000 0.49999
 Mn318 Mn 1.00003 1.00000 0.43304
 Cl319 Cl 1.00003 1.00000 0.49999
 C320 C 0.89630 1.09729 0.41541
 C321 C 0.89630 0.90270 0.41541
 N322 N 0.58656 0.54915 0.04139
 N323 N 0.62126 0.57859 0.05173
 N324 N 0.55150 0.45089 0.06681
 N325 N 0.56090 0.42141 0.09476
 N326 N 0.58656 0.45085 0.04139
 N327 N 0.62126 0.42140 0.05173
 N328 N 0.55150 0.54911 0.06681
 N329 N 0.56090 0.57859 0.09476
 C330 C 0.60376 0.59729 0.08458
 C331 C 0.60376 0.40270 0.08458
 N332 N 0.41350 0.45085 0.04139
 N333 N 0.37881 0.42140 0.05173
 N334 N 0.44856 0.54911 0.06681
 N335 N 0.43917 0.57859 0.09476
 N336 N 0.41350 0.54915 0.04139
 N337 N 0.37881 0.57859 0.05173
 N338 N 0.44856 0.45089 0.06681
 N339 N 0.43917 0.42141 0.09476
 Mn340 Mn 0.50003 0.50000 0.06694
 C341 C 0.39630 0.40270 0.08458
 C342 C 0.39630 0.59729 0.08458
 N343 N 0.58656 0.45085 -0.04140
 N344 N 0.62126 0.42140 -0.05174
 N345 N 0.55150 0.54911 -0.06682
 N346 N 0.56090 0.57859 -0.09477
 N347 N 0.58656 0.54915 -0.04140
 N348 N 0.62126 0.57859 -0.05174
 N349 N 0.55150 0.45089 -0.06682
 N350 N 0.56090 0.42141 -0.09477
 Mn351 Mn 0.58727 0.50000 -0.00001
 C352 C 0.60376 0.40270 -0.08459
 C353 C 0.60376 0.59730 -0.08459
 N354 N 0.41350 0.54915 -0.04140
 N355 N 0.37881 0.57859 -0.05174
 N356 N 0.44856 0.45089 -0.06682
 N357 N 0.43917 0.42141 -0.09477
 N358 N 0.41350 0.45085 -0.04140
 N359 N 0.37881 0.42140 -0.05174
 N360 N 0.44856 0.54911 -0.06682
 N361 N 0.43917 0.57859 -0.09477
 Mn362 Mn 0.41279 0.50000 -0.00001
 Mn363 Mn 0.50003 0.50000 -0.06696
 Cl364 Cl 0.50003 0.50000 -0.00001
 C365 C 0.39630 0.59729 -0.08459
 C366 C 0.39630 0.40270 -0.08459
 C367 C 0.28707 1.19980 0.17647
 C368 C 0.30866 1.17838 0.15203
 C369 C 0.33720 1.15186 0.12628
 C370 C 0.36270 1.12797 0.10604
 C371 C 0.78707 0.69980 0.67647
 C372 C 0.80866 0.67838 0.65203
 C373 C 0.83720 0.65186 0.62628
 C374 C 0.86270 0.62797 0.60604
 C375 C 0.71299 0.80020 0.17647
 C376 C 0.69141 0.82162 0.15203
 C377 C 0.66286 0.84814 0.12628
 C378 C 0.63736 0.87203 0.10604
 C379 C 1.21299 0.30020 0.67647
 C380 C 1.19141 0.32162 0.65203
 C381 C 1.16286 0.34814 0.62628
 C382 C 1.13736 0.37203 0.60604
 C383 C 0.71299 1.19980 -0.17648
 C384 C 0.69141 1.17838 -0.15204
 C385 C 0.66286 1.15186 -0.12629
 C386 C 0.63736 1.12797 -0.10605
 C387 C 1.21299 0.69980 0.32352
 C388 C 1.19141 0.67838 0.34796
 C389 C 1.16286 0.65186 0.37371
 C390 C 1.13736 0.62797 0.39395
 C391 C 0.28707 0.80020 -0.17648
 C392 C 0.30866 0.82162 -0.15204
 C393 C 0.33720 0.84814 -0.12629
 C394 C 0.36270 0.87203 -0.10605
 C395 C 0.78707 0.30020 0.32352
 C396 C 0.80866 0.32162 0.34796
 C397 C 0.83720 0.34814 0.37371
 C398 C 0.86270 0.37203 0.39395
 C399 C 1.19702 0.28596 0.17647
 C400 C 1.17610 0.30743 0.15150
 C401 C 1.15120 0.33653 0.12491
 C402 C 1.12959 0.36362 0.10429
 C403 C 0.69702 0.78596 0.67647
 C404 C 0.67610 0.80743 0.65150
 C405 C 0.65120 0.83653 0.62491
 C406 C 0.62959 0.86362 0.60429
 C407 C 1.19702 0.71404 -0.17648
 C408 C 1.17610 0.69257 -0.15151
 C409 C 1.15120 0.66347 -0.12492
 C410 C 1.12959 0.63638 -0.10431
 C411 C 0.69702 1.21404 0.32352
 C412 C 0.67610 1.19257 0.34849
 C413 C 0.65120 1.16347 0.37508
 C414 C 0.62959 1.13638 0.39569
 C415 C 0.80304 0.71404 0.17647
 C416 C 0.82397 0.69257 0.15150
 C417 C 0.84886 0.66347 0.12491
 C418 C 0.87047 0.63638 0.10429
 C419 C 0.30304 1.21404 0.67647
 C420 C 0.32397 1.19257 0.65150
 C421 C 0.34886 1.16347 0.62491
 C422 C 0.37047 1.13638 0.60429
 C423 C 0.80304 0.28596 -0.17648
 C424 C 0.82397 0.30743 -0.15151
 C425 C 0.84886 0.33653 -0.12492
 C426 C 0.87047 0.36362 -0.10431
 C427 C 0.30304 0.78596 0.32352
 C428 C 0.32397 0.80743 0.34849
 C429 C 0.34886 0.83653 0.37508
 C430 C 0.37047 0.86362 0.39569
 C431 C 1.19219 1.19139 0.30856
 C432 C 1.17302 1.17081 0.33433
 C433 C 1.15112 1.14694 0.36474
 C434 C 1.13093 1.12532 0.38945
 C435 C 0.69219 0.69139 -0.19144
 C436 C 0.67302 0.67081 -0.16567
 C437 C 0.65112 0.64694 -0.13526
 C438 C 0.63093 0.62532 -0.11055
 C439 C 0.80787 1.19139 0.69143
 C440 C 0.82704 1.17081 0.66566
 C441 C 0.84894 1.14694 0.63525
 C442 C 0.86913 1.12532 0.61054
 C443 C 0.30787 0.69139 0.19143
 C444 C 0.32704 0.67081 0.16566
 C445 C 0.34894 0.64694 0.13525
 C446 C 0.36913 0.62532 0.11054
 C447 C 1.19219 0.80861 0.69143
 C448 C 1.17302 0.82919 0.66566
 C449 C 1.15112 0.85306 0.63524
 C450 C 1.13093 0.87468 0.61054
 C451 C 0.69219 0.30861 0.19143
 C452 C 0.67302 0.32919 0.16566
 C453 C 0.65112 0.35306 0.13524
 C454 C 0.63093 0.37468 0.11054
 C455 C 0.80787 0.80861 0.30856
 C456 C 0.82704 0.82919 0.33433
 C457 C 0.84894 0.85306 0.36474
 C458 C 0.86913 0.87468 0.38945
 C459 C 0.30787 0.30861 -0.19144
 C460 C 0.32704 0.32919 -0.16567
 C461 C 0.34894 0.35306 -0.13526
 C462 C 0.36913 0.37468 -0.11055
 C463 C 1.19702 0.28596 -0.17648
 C464 C 1.17610 0.30743 -0.15151
 C465 C 1.15120 0.33653 -0.12492
 C466 C 1.12959 0.36362 -0.10431
 C467 C 0.69702 0.78596 0.32352
 C468 C 0.67610 0.80743 0.34849
 C469 C 0.65120 0.83653 0.37508
 C470 C 0.62959 0.86362 0.39569
 C471 C 0.80304 0.71404 -0.17648
 C472 C 0.82397 0.69257 -0.15151
 C473 C 0.84886 0.66347 -0.12492
 C474 C 0.87047 0.63638 -0.10431
 C475 C 0.30304 1.21404 0.32352
 C476 C 0.32397 1.19257 0.34849
 C477 C 0.34886 1.16347 0.37508
 C478 C 0.37047 1.13638 0.39569
 C479 C 1.19702 0.71404 0.17647
 C480 C 1.17610 0.69257 0.15150
 C481 C 1.15120 0.66347 0.12491
 C482 C 1.12959 0.63638 0.10429
 C483 C 0.69702 1.21404 0.67647
 C484 C 0.67610 1.19257 0.65150
 C485 C 0.65120 1.16347 0.62491
 C486 C 0.62959 1.13638 0.60429
 C487 C 0.80304 0.28596 0.17647
 C488 C 0.82397 0.30743 0.15150
 C489 C 0.84886 0.33653 0.12491
 C490 C 0.87047 0.36362 0.10429
 C491 C 0.30304 0.78596 0.67647
 C492 C 0.32397 0.80743 0.65150
 C493 C 0.34886 0.83653 0.62491
 C494 C 0.37047 0.86362 0.60429
 C495 C 0.28707 1.19980 -0.17648
 C496 C 0.30866 1.17838 -0.15204
 C497 C 0.33720 1.15186 -0.12629
 C498 C 0.36270 1.12797 -0.10605
 C499 C 0.78707 0.69980 0.32352
 C500 C 0.80866 0.67838 0.34796
 C501 C 0.83720 0.65186 0.37371
 C502 C 0.86270 0.62797 0.39395
 C503 C 0.71299 1.19980 0.17647
 C504 C 0.69141 1.17838 0.15203
 C505 C 0.66286 1.15186 0.12628
 C506 C 0.63736 1.12797 0.10604
 C507 C 1.21299 0.69980 0.67647
 C508 C 1.19141 0.67838 0.65203
 C509 C 1.16286 0.65186 0.62628
 C510 C 1.13736 0.62797 0.60604
 C511 C 0.71299 0.80020 -0.17648
 C512 C 0.69141 0.82162 -0.15204
 C513 C 0.66286 0.84814 -0.12629
 C514 C 0.63736 0.87203 -0.10605
 C515 C 1.21299 0.30020 0.32352
 C516 C 1.19141 0.32162 0.34796
 C517 C 1.16286 0.34814 0.37371
 C518 C 1.13736 0.37203 0.39395
 C519 C 0.28707 0.80020 0.17647
 C520 C 0.30866 0.82162 0.15203
 C521 C 0.33720 0.84814 0.12628
 C522 C 0.36270 0.87203 0.10604
 C523 C 0.78707 0.30020 0.67647
 C524 C 0.80866 0.32162 0.65203
 C525 C 0.83720 0.34814 0.62628
 C526 C 0.86270 0.37203 0.60604
 C527 C 1.19219 1.19139 0.69143
 C528 C 1.17302 1.17081 0.66566
 C529 C 1.15112 1.14694 0.63525
 C530 C 1.13093 1.12532 0.61054
 C531 C 0.69219 0.69139 0.19143
 C532 C 0.67302 0.67081 0.16566
 C533 C 0.65112 0.64694 0.13524
 C534 C 0.63093 0.62532 0.11054
 C535 C 1.19219 0.80861 0.30856
 C536 C 1.17302 0.82919 0.33433
 C537 C 1.15112 0.85306 0.36474
 C538 C 1.13093 0.87468 0.38945
 C539 C 0.69219 0.30861 -0.19144
 C540 C 0.67302 0.32919 -0.16567
 C541 C 0.65112 0.35306 -0.13526
 C542 C 0.63093 0.37468 -0.11055
 C543 C 0.80787 1.19139 0.30856
 C544 C 0.82704 1.17081 0.33433
 C545 C 0.84894 1.14694 0.36474
 C546 C 0.86913 1.12532 0.38945
 C547 C 0.30787 0.69139 -0.19144
 C548 C 0.32704 0.67081 -0.16567
 C549 C 0.34894 0.64694 -0.13526
 C550 C 0.36913 0.62532 -0.11055
 C551 C 0.80787 0.80861 0.69143
 C552 C 0.82704 0.82919 0.66566
 C553 C 0.84894 0.85306 0.63525
 C554 C 0.86913 0.87468 0.61054
 C555 C 0.30787 0.30861 0.19143
 C556 C 0.32704 0.32919 0.16566
 C557 C 0.34894 0.35306 0.13525
 C558 C 0.36913 0.37468 0.11054
   
