data_POSCAR
  _audit_creation_date              2014-09-24
  _audit_creation_method            'ToBaCCo'
  _symmetry_space_group_name_H-M    'P1'
  _symmetry_Int_Tables_number       1
  _symmetry_cell_setting            triclinic
  loop_
  _symmetry_equiv_pos_as_xyz
 x,y,z
_cell_length_a 46.8059
_cell_length_b 45.2984
_cell_length_c 18.2233
_cell_angle_alpha 90.170700
_cell_angle_beta 90.029300
_cell_angle_gamma 90.074300
loop_
  _atom_site_label
  _atom_site_type_symbol
  _atom_site_fract_x
  _atom_site_fract_y
  _atom_site_fract_z
O1 O 0.28412 0.22135 0.21907
 O2 O 0.23194 0.27834 0.16739
 O3 O 0.28388 0.27882 0.21909
 O4 O 0.23236 0.22100 0.16648
 O5 O 0.21518 0.22088 0.27952
 O6 O 0.26671 0.27869 0.33213
 O7 O 0.21476 0.27823 0.28044
 O8 O 0.26695 0.22124 0.33213
 Cu9 Cu 0.25983 0.24991 0.18161
 Cu10 Cu 0.23919 0.24976 0.31746
 C11 C 0.28437 0.21171 0.28435
 C12 C 0.21445 0.28779 0.21510
 C13 C 0.28404 0.28846 0.28451
 C14 C 0.21500 0.21126 0.21407
 O15 O 0.71580 0.27835 0.21955
 O16 O 0.76755 0.22110 0.16581
 O17 O 0.71573 0.22104 0.21856
 O18 O 0.76739 0.27855 0.16596
 O19 O 0.78497 0.27853 0.27861
 O20 O 0.73330 0.22098 0.33125
 O21 O 0.78511 0.22108 0.27851
 O22 O 0.73337 0.27829 0.33224
 Cu23 Cu 0.73987 0.24974 0.18106
 Cu24 Cu 0.76099 0.24970 0.31650
 C25 C 0.71577 0.28786 0.28509
 C26 C 0.78514 0.21151 0.21304
 C27 C 0.71566 0.21145 0.28387
 C28 C 0.78493 0.28822 0.21337
 O29 O 0.73344 0.77988 0.66722
 O30 O 0.78497 0.72244 0.72047
 O31 O 0.73332 0.72250 0.66689
 O32 O 0.78529 0.77984 0.71952
 O33 O 0.76787 0.78015 0.83230
 O34 O 0.71589 0.72275 0.77968
 O35 O 0.76755 0.72274 0.83326
 O36 O 0.71602 0.78013 0.78001
 Cu37 Cu 0.76103 0.75114 0.68214
 Cu38 Cu 0.74007 0.75147 0.81769
 C39 C 0.71595 0.78960 0.71459
 C40 C 0.78501 0.71297 0.78591
 C41 C 0.71576 0.71303 0.71433
 C42 C 0.78542 0.78962 0.78482
 O43 O 0.28446 0.77899 0.78378
 O44 O 0.23290 0.72132 0.83632
 O45 O 0.28459 0.72158 0.78260
 O46 O 0.23279 0.77871 0.83716
 O47 O 0.21514 0.77878 0.72458
 O48 O 0.26692 0.72168 0.67003
 O49 O 0.21525 0.72141 0.72373
 O50 O 0.26680 0.77909 0.67119
 Cu51 Cu 0.26048 0.75013 0.82132
 Cu52 Cu 0.23925 0.75024 0.68604
 C53 C 0.28440 0.78870 0.71856
 C54 C 0.21527 0.71175 0.78898
 C55 C 0.28459 0.71209 0.71703
 C56 C 0.21514 0.78830 0.79010
 C57 C 0.98585 -0.08051 -0.11398
 C58 C 1.01516 -0.08075 -0.11320
 C59 C 1.02370 -0.05689 -0.07065
 N60 N 1.00061 -0.04227 -0.04502
 C61 C 0.97743 -0.05650 -0.07184
 C62 C 1.05231 -0.05009 -0.05275
 C63 C 1.06095 -0.02445 -0.01427
 C64 C 1.08817 -0.01977 0.01364
 C65 C 1.08842 0.00816 0.04334
 C66 C 1.06132 0.01980 0.03311
 N67 N 1.04482 -0.00011 -0.00272
 C68 C 1.05303 0.04865 0.05373
 C69 C 1.02443 0.05855 0.05577
 C70 C 1.01610 0.08718 0.07230
 C71 C 0.98680 0.08732 0.07233
 C72 C 0.97813 0.05877 0.05581
 N73 N 1.00118 0.04121 0.04644
 C74 C 0.94942 0.04917 0.05350
 C75 C 0.94074 0.02049 0.03210
 C76 C 0.91340 0.00925 0.04128
 C77 C 0.91321 -0.01850 0.01059
 C78 C 0.94046 -0.02354 -0.01659
 N79 N 0.95700 0.00047 -0.00390
 C80 C 0.94883 -0.04924 -0.05519
 H81 H 0.97232 -0.09637 -0.14185
 H82 H 1.02863 -0.09679 -0.14042
 H83 H 0.97710 0.00425 -0.02578
 H84 H 1.10610 -0.03482 0.01224
 H85 H 1.10658 0.01870 0.06919
 H86 H 1.02967 0.10594 0.08415
 H87 H 0.97344 0.10622 0.08404
 H88 H 0.89497 -0.03316 0.00807
 H89 H 1.02486 0.00391 -0.02519
 H90 H 0.89534 0.01998 0.06696
 C91 C 0.51549 0.58419 0.59898
 C92 C 0.48622 0.58391 0.60152
 C93 C 0.47749 0.55762 0.56935
 N94 N 0.50050 0.54187 0.54771
 C95 C 0.52379 0.55798 0.56570
 C96 C 0.44871 0.54946 0.55736
 C97 C 0.43978 0.52282 0.52341
 C98 C 0.41201 0.51718 0.50061
 C99 C 0.41186 0.48942 0.47019
 C100 C 0.43955 0.47867 0.47507
 N101 N 0.45634 0.49900 0.50868
 C102 C 0.44814 0.45050 0.44937
 C103 C 0.47679 0.44107 0.44248
 C104 C 0.48512 0.41358 0.41654
 C105 C 0.51440 0.41366 0.41485
 C106 C 0.52311 0.44115 0.44017
 N107 N 0.50005 0.45779 0.45678
 C108 C 0.55193 0.44999 0.44848
 C109 C 0.56108 0.47749 0.47755
 C110 C 0.58937 0.48459 0.49233
 C111 C 0.58954 0.51256 0.52151
 C112 C 0.56133 0.52194 0.52432
 N113 N 0.54422 0.50061 0.49617
 C114 C 0.55249 0.54945 0.55374
 H115 H 0.52909 0.60168 0.61967
 H116 H 0.47292 0.60122 0.62405
 H117 H 0.52255 0.50240 0.48651
 H118 H 0.39372 0.53169 0.50466
 H119 H 0.39344 0.47854 0.44641
 H120 H 0.47156 0.39536 0.40014
 H121 H 0.52771 0.39548 0.39715
 H122 H 0.60834 0.52442 0.53970
 H123 H 0.47715 0.49579 0.52632
 H124 H 0.60802 0.47088 0.48410
 C125 C -0.01468 0.58369 -0.09788
 C126 C 0.01458 0.58403 -0.09440
 C127 C 0.02278 0.55777 -0.06161
 N128 N -0.00054 0.54154 -0.04492
 C129 C -0.02349 0.55729 -0.06679
 C130 C 0.05143 0.54923 -0.04926
 C131 C 0.06013 0.52175 -0.01980
 C132 C 0.08824 0.51209 -0.01770
 C133 C 0.08794 0.48423 0.01167
 C134 C 0.05967 0.47749 0.02737
 N135 N 0.04294 0.50073 0.00920
 C136 C 0.05044 0.45024 0.05720
 C137 C 0.02160 0.44157 0.06574
 C138 C 0.01282 0.41451 0.09325
 C139 C -0.01644 0.41429 0.09033
 C140 C -0.02467 0.44126 0.06136
 N141 N -0.00138 0.45782 0.04656
 C142 C -0.05332 0.45031 0.05168
 C143 C -0.06189 0.47820 0.02455
 C144 C -0.08974 0.48862 0.02678
 C145 C -0.08946 0.51636 -0.00332
 C146 C -0.06144 0.52227 -0.02352
 N147 N -0.04486 0.49867 -0.00740
 C148 C -0.05232 0.54900 -0.05624
 H149 H -0.02790 0.60100 -0.12047
 H150 H 0.02821 0.60158 -0.11424
 H151 H -0.02375 0.49572 -0.02278
 H152 H 0.10708 0.52367 -0.03644
 H153 H 0.10650 0.47036 0.01948
 H154 H 0.02607 0.39674 0.11339
 H155 H -0.03006 0.39639 0.10823
 H156 H -0.10782 0.53068 -0.00884
 H157 H 0.02137 0.50289 0.02025
 H158 H -0.10837 0.47756 0.04866
 C159 C 0.51440 1.07881 0.37904
 C160 C 0.48508 1.07875 0.37892
 C161 C 0.47660 1.05531 0.42262
 N162 N 0.49973 1.04121 0.44965
 C163 C 0.52287 1.05538 0.42277
 C164 C 0.44801 1.04852 0.44064
 C165 C 0.43955 1.02317 0.48023
 C166 C 0.41244 1.01864 0.50886
 C167 C 0.41243 0.99102 0.53999
 C168 C 0.43954 0.97938 0.52975
 N169 N 0.45583 0.99900 0.49260
 C170 C 0.44801 0.95072 0.55139
 C171 C 0.47665 0.94096 0.55332
 C172 C 0.48515 0.91248 0.57044
 C173 C 0.51445 0.91245 0.56984
 C174 C 0.52295 0.94093 0.55263
 N175 N 0.49980 0.95834 0.54323
 C176 C 0.55161 0.95069 0.55012
 C177 C 0.56008 0.97938 0.52887
 C178 C 0.58734 0.99088 0.53808
 C179 C 0.58727 1.01858 0.50744
 C180 C 0.55998 1.02327 0.48007
 N181 N 0.54365 0.99917 0.49288
 C182 C 0.55146 1.04865 0.44078
 H183 H 0.52792 1.09443 0.35058
 H184 H 0.47158 1.09433 0.35033
 H185 H 0.52355 0.99516 0.47117
 H186 H 0.39445 1.03360 0.50716
 H187 H 0.39442 0.98066 0.56677
 H188 H 0.47169 0.89375 0.58319
 H189 H 0.52792 0.89369 0.58185
 H190 H 0.60539 1.03342 0.50488
 H191 H 0.47573 0.99484 0.46990
 H192 H 0.60552 0.98034 0.56357
 C193 C 1.11504 0.10817 0.11431
 C194 C 1.11191 0.13803 0.09292
 C195 C 1.13283 0.15922 0.11378
 C196 C 1.15690 0.15039 0.15532
 C197 C 1.16018 0.12050 0.17615
 C198 C 1.13913 0.09934 0.15581
 C199 C 1.14278 0.06963 0.17767
 C200 C 1.16661 0.06103 0.21817
 C201 C 1.18725 0.08169 0.23778
 C202 C 1.18417 0.11112 0.21723
 C203 C 1.12911 0.18898 0.09222
 C204 C 1.10545 0.19753 0.05100
 C205 C 1.08508 0.17678 0.03030
 C206 C 1.08818 0.14734 0.05076
 C207 C 1.17819 0.17211 0.17676
 C208 C 1.19564 0.19040 0.19440
 C209 C 1.09343 0.08666 0.09359
 C210 C 1.07521 0.06920 0.07579
 H211 H 1.12729 0.05278 0.16380
 H212 H 1.16906 0.03821 0.23448
 H213 H 1.20574 0.07489 0.26918
 H214 H 1.20078 0.12639 0.23381
 H215 H 1.14441 0.20594 0.10683
 H216 H 1.10296 0.22037 0.03491
 H217 H 1.06676 0.18350 -0.00181
 H218 H 1.07184 0.13202 0.03295
 C219 C 0.61426 0.60917 0.61414
 C220 C 0.60976 0.63946 0.59911
 C221 C 0.63080 0.66061 0.61941
 C222 C 0.65623 0.65132 0.65456
 C223 C 0.66075 0.62102 0.66943
 C224 C 0.63967 0.59988 0.64926
 C225 C 0.64461 0.56973 0.66492
 C226 C 0.66971 0.56070 0.69934
 C227 C 0.69036 0.58136 0.71889
 C228 C 0.68604 0.61121 0.70427
 C229 C 0.62582 0.69077 0.60385
 C230 C 0.60075 0.69977 0.56924
 C231 C 0.58018 0.67909 0.54939
 C232 C 0.58452 0.64926 0.56397
 C233 C 0.67760 0.67298 0.67580
 C234 C 0.69515 0.69115 0.69345
 C235 C 0.59271 0.58766 0.59330
 C236 C 0.57457 0.57014 0.57556
 H237 H 0.62917 0.55285 0.65084
 H238 H 0.67315 0.53755 0.71089
 H239 H 0.70983 0.57424 0.74551
 H240 H 0.70272 0.62645 0.72050
 H241 H 0.64119 0.70770 0.61813
 H242 H 0.59729 0.72292 0.55772
 H243 H 0.56075 0.68619 0.52249
 H244 H 0.56789 0.63402 0.54734
 C245 C -0.11516 0.39097 0.11302
 C246 C -0.13995 0.40025 0.15103
 C247 C -0.16099 0.37919 0.17170
 C248 C -0.15703 0.34897 0.15443
 C249 C -0.13221 0.33970 0.11645
 C250 C -0.11123 0.36076 0.09560
 C251 C -0.08662 0.35096 0.05756
 C252 C -0.08288 0.32122 0.04047
 C253 C -0.10336 0.30061 0.06101
 C254 C -0.12777 0.30960 0.09865
 C255 C -0.18562 0.38899 0.20960
 C256 C -0.18940 0.41877 0.22640
 C257 C -0.16881 0.43935 0.20626
 C258 C -0.14430 0.43031 0.16918
 C259 C -0.17834 0.32735 0.17600
 C260 C -0.19576 0.30909 0.19370
 C261 C -0.09365 0.41241 0.09179
 C262 C -0.07550 0.42984 0.07377
 H263 H -0.07004 0.36614 0.04061
 H264 H -0.06396 0.31412 0.01118
 H265 H -0.10034 0.27753 0.04774
 H266 H -0.14306 0.29272 0.11360
 H267 H -0.20218 0.37380 0.22665
 H268 H -0.20838 0.42590 0.25535
 H269 H -0.17181 0.46244 0.21952
 H270 H -0.12881 0.44710 0.15510
 C271 C 0.38616 0.89158 0.61472
 C272 C 0.36205 0.90100 0.65539
 C273 C 0.34085 0.88020 0.67663
 C274 C 0.34400 0.85006 0.65757
 C275 C 0.36812 0.84062 0.61695
 C276 C 0.38919 0.86146 0.59516
 C277 C 0.41295 0.85153 0.55391
 C278 C 0.41592 0.82185 0.53513
 C279 C 0.39543 0.80144 0.55685
 C280 C 0.37175 0.81059 0.59724
 C281 C 0.31685 0.89020 0.71681
 C282 C 0.31389 0.91989 0.73555
 C283 C 0.33466 0.94020 0.71498
 C284 C 0.35853 0.93097 0.67549
 C285 C 0.32251 0.82870 0.67969
 C286 C 0.30494 0.81062 0.69766
 C287 C 0.40783 0.91281 0.59287
 C288 C 0.42597 0.93020 0.57432
 H289 H 0.42941 0.86656 0.53557
 H290 H 0.43423 0.81465 0.50355
 H291 H 0.39784 0.77840 0.54220
 H292 H 0.35637 0.79388 0.61271
 H293 H 0.30014 0.87523 0.73406
 H294 H 0.29539 0.92717 0.76628
 H295 H 0.33229 0.96323 0.72974
 H296 H 0.37416 0.94756 0.66104
 C297 C -0.11373 0.60943 -0.11323
 C298 C -0.10765 0.64000 -0.10777
 C299 C -0.12868 0.66102 -0.12831
 C300 C -0.15572 0.65137 -0.15381
 C301 C -0.16190 0.62082 -0.15860
 C302 C -0.14082 0.59978 -0.13836
 C303 C -0.14746 0.56936 -0.14383
 C304 C -0.17418 0.55998 -0.16838
 C305 C -0.19480 0.58055 -0.18805
 C306 C -0.18885 0.61065 -0.18335
 C307 C -0.12207 0.69146 -0.12267
 C308 C -0.09549 0.70085 -0.09712
 C309 C -0.07497 0.68029 -0.07680
 C310 C -0.08085 0.65019 -0.08200
 C311 C -0.17708 0.67290 -0.17525
 C312 C -0.19455 0.69105 -0.19303
 C313 C -0.09211 0.58796 -0.09321
 C314 C -0.07409 0.57020 -0.07658
 H315 H -0.13212 0.55252 -0.12923
 H316 H -0.17891 0.53662 -0.17213
 H317 H -0.21553 0.57316 -0.20707
 H318 H -0.20558 0.62581 -0.19923
 H319 H -0.13733 0.70830 -0.13779
 H320 H -0.09083 0.72420 -0.09297
 H321 H -0.05438 0.68770 -0.05681
 H322 H -0.06422 0.63507 -0.06540
 C323 C 0.38639 1.10851 0.38221
 C324 C 0.39359 1.13881 0.37709
 C325 C 0.37240 1.15974 0.35699
 C326 C 0.34413 1.15026 0.34225
 C327 C 0.33692 1.11997 0.34743
 C328 C 0.35812 1.09903 0.36739
 C329 C 0.35043 1.06886 0.37203
 C330 C 0.32256 1.05966 0.35760
 C331 C 0.30181 1.08014 0.33830
 C332 C 0.30879 1.10998 0.33307
 C333 C 0.38012 1.18991 0.35212
 C334 C 0.40798 1.19913 0.36651
 C335 C 0.42869 1.17866 0.38618
 C336 C 0.42169 1.14884 0.39163
 C337 C 0.32256 1.17171 0.32172
 C338 C 0.30496 1.18983 0.30466
 C339 C 0.40805 1.08714 0.40270
 C340 C 0.42613 1.06950 0.41982
 H341 H 0.36582 1.05210 0.38678
 H342 H 0.31704 1.03650 0.36145
 H343 H 0.28018 1.07288 0.32729
 H344 H 0.29194 1.12508 0.31769
 H345 H 0.36477 1.20668 0.33710
 H346 H 0.41351 1.22228 0.36241
 H347 H 0.45030 1.18593 0.39733
 H348 H 0.43852 1.13379 0.40735
 C349 C 1.11407 -0.11018 -0.10967
 C350 C 1.14224 -0.10058 -0.12504
 C351 C 1.16346 -0.12147 -0.14546
 C352 C 1.15639 -0.15181 -0.15032
 C353 C 1.12825 -0.16142 -0.13456
 C354 C 1.10704 -0.14055 -0.11407
 C355 C 1.07908 -0.15069 -0.09844
 C356 C 1.07220 -0.18056 -0.10364
 C357 C 1.09293 -0.20097 -0.12374
 C358 C 1.12068 -0.19165 -0.13890
 C359 C 1.19147 -0.11136 -0.16062
 C360 C 1.19834 -0.08148 -0.15548
 C361 C 1.17758 -0.06106 -0.13556
 C362 C 1.14981 -0.07037 -0.12048
 C363 C 1.17797 -0.17316 -0.17171
 C364 C 1.19562 -0.19115 -0.18962
 C365 C 1.09230 -0.08885 -0.08966
 C366 C 1.07415 -0.07122 -0.07303
 H367 H 1.06226 -0.13569 -0.08202
 H368 H 1.05067 -0.18791 -0.09199
 H369 H 1.08749 -0.22416 -0.12757
 H370 H 1.13607 -0.20839 -0.15409
 H371 H 1.20832 -0.12640 -0.17649
 H372 H 1.21990 -0.07414 -0.16697
 H373 H 1.18302 -0.03787 -0.13177
 H374 H 1.13442 -0.05365 -0.10518
 C375 C 0.61384 0.39015 0.39023
 C376 C 0.63998 0.40010 0.35990
 C377 C 0.66116 0.37933 0.33854
 C378 C 0.65606 0.34874 0.34748
 C379 C 0.62997 0.33878 0.37807
 C380 C 0.60885 0.35955 0.39977
 C381 C 0.58302 0.34908 0.43064
 C382 C 0.57810 0.31895 0.43926
 C383 C 0.59868 0.29862 0.41769
 C384 C 0.62438 0.30830 0.38752
 C385 C 0.68712 0.38979 0.30833
 C386 C 0.69200 0.41992 0.29946
 C387 C 0.67128 0.44023 0.32034
 C388 C 0.64552 0.43056 0.35019
 C389 C 0.67753 0.32747 0.32505
 C390 C 0.69514 0.30955 0.30660
 C391 C 0.59201 0.41132 0.41098
 C392 C 0.57382 0.42888 0.42805
 H393 H 0.56641 0.36402 0.44857
 H394 H 0.55819 0.31133 0.46283
 H395 H 0.59476 0.27523 0.42448
 H396 H 0.63975 0.29163 0.37171
 H397 H 0.70387 0.37484 0.29124
 H398 H 0.71196 0.42755 0.27621
 H399 H 0.67517 0.46361 0.31334
 H400 H 0.63006 0.44720 0.36548
 C401 C 0.88643 -0.10826 -0.11614
 C402 C 0.88780 -0.12217 -0.18571
 C403 C 0.86646 -0.14294 -0.20653
 C404 C 0.84390 -0.14969 -0.15760
 C405 C 0.84239 -0.13557 -0.08828
 C406 C 0.86375 -0.11482 -0.06746
 C407 C 0.86186 -0.10109 0.00222
 C408 C 0.83942 -0.10751 0.04980
 C409 C 0.81850 -0.12773 0.02937
 C410 C 0.81989 -0.14172 -0.03874
 C411 C 0.86827 -0.15654 -0.27642
 C412 C 0.89053 -0.14982 -0.32436
 C413 C 0.91142 -0.12958 -0.30389
 C414 C 0.91017 -0.11584 -0.23547
 C415 C 0.82247 -0.17139 -0.17828
 C416 C 0.80491 -0.18963 -0.19559
 C417 C 0.90841 -0.08730 -0.09460
 C418 C 0.92674 -0.06997 -0.07673
 H419 H 0.87766 -0.08529 0.02068
 H420 H 0.83827 -0.09675 0.10283
 H421 H 0.80110 -0.13264 0.06649
 H422 H 0.80314 -0.15732 -0.05208
 H423 H 0.85253 -0.17243 -0.29479
 H424 H 0.89155 -0.16038 -0.37767
 H425 H 0.92870 -0.12446 -0.34124
 H426 H 0.92689 -0.10020 -0.22215
 C427 C 0.38567 0.39244 0.38368
 C428 C 0.39150 0.37152 0.32779
 C429 C 0.37034 0.35049 0.30752
 C430 C 0.34337 0.35068 0.34278
 C431 C 0.33737 0.37194 0.39778
 C432 C 0.35860 0.39287 0.41832
 C433 C 0.35213 0.41390 0.47346
 C434 C 0.32540 0.41435 0.50706
 C435 C 0.30465 0.39389 0.48700
 C436 C 0.31047 0.37282 0.43316
 C437 C 0.37676 0.32962 0.25194
 C438 C 0.40323 0.32967 0.21700
 C439 C 0.42386 0.35035 0.23652
 C440 C 0.41818 0.37107 0.29125
 C441 C 0.32193 0.32892 0.32249
 C442 C 0.30445 0.31059 0.30524
 C443 C 0.40764 0.41318 0.40632
 C444 C 0.42598 0.43023 0.42565
 H445 H 0.36758 0.43026 0.49100
 H446 H 0.32078 0.43068 0.54888
 H447 H 0.28392 0.39433 0.51327
 H448 H 0.29366 0.35733 0.41952
 H449 H 0.36141 0.31310 0.23478
 H450 H 0.40774 0.31363 0.17442
 H451 H 0.44436 0.35037 0.20903
 H452 H 0.43485 0.38680 0.30423
 C453 C 0.11343 0.60854 -0.10999
 C454 C 0.10842 0.63906 -0.09896
 C455 C 0.12954 0.66002 -0.11955
 C456 C 0.15561 0.65034 -0.15085
 C457 C 0.16067 0.61981 -0.16158
 C458 C 0.13947 0.59886 -0.14133
 C459 C 0.14492 0.56849 -0.15307
 C460 C 0.17068 0.55905 -0.18337
 C461 C 0.19147 0.57952 -0.20279
 C462 C 0.18661 0.60959 -0.19231
 C463 C 0.12401 0.69041 -0.10808
 C464 C 0.09835 0.69981 -0.07717
 C465 C 0.07770 0.67932 -0.05707
 C466 C 0.08257 0.64926 -0.06760
 C467 C 0.17708 0.67181 -0.17232
 C468 C 0.19468 0.68988 -0.19008
 C469 C 0.09180 0.58720 -0.08892
 C470 C 0.07360 0.56978 -0.07108
 H471 H 0.12938 0.55175 -0.13905
 H472 H 0.17451 0.53572 -0.19184
 H473 H 0.21146 0.57208 -0.22622
 H474 H 0.20341 0.62467 -0.20842
 H475 H 0.13942 0.70721 -0.12274
 H476 H 0.09449 0.72313 -0.06870
 H477 H 0.05779 0.68673 -0.03311
 H478 H 0.06589 0.63418 -0.05076
 C479 C 0.61325 1.10863 0.38312
 C480 C 0.60616 1.13894 0.37862
 C481 C 0.62738 1.15989 0.35856
 C482 C 0.65559 1.15039 0.34326
 C483 C 0.66271 1.12009 0.34823
 C484 C 0.64147 1.09914 0.36818
 C485 C 0.64909 1.06896 0.37271
 C486 C 0.67691 1.05975 0.35809
 C487 C 0.69769 1.08024 0.33865
 C488 C 0.69078 1.11008 0.33362
 C489 C 0.61976 1.19008 0.35432
 C490 C 0.59197 1.19929 0.36936
 C491 C 0.57122 1.17880 0.38886
 C492 C 0.57813 1.14896 0.39374
 C493 C 0.67720 1.17178 0.32228
 C494 C 0.69494 1.18974 0.30477
 C495 C 0.59151 1.08725 0.40313
 C496 C 0.57336 1.06964 0.41998
 H497 H 0.63367 1.05219 0.38753
 H498 H 0.68238 1.03659 0.36188
 H499 H 0.71928 1.07298 0.32739
 H500 H 0.70767 1.12518 0.31824
 H501 H 0.63514 1.20686 0.33934
 H502 H 0.58651 1.22246 0.36586
 H503 H 0.54965 1.18605 0.40033
 H504 H 0.56128 1.13389 0.40952
 C505 C 0.11215 0.39014 0.11409
 C506 C 0.13868 0.40004 0.14238
 C507 C 0.15989 0.37921 0.16294
 C508 C 0.15439 0.34862 0.15534
 C509 C 0.12791 0.33871 0.12678
 C510 C 0.10676 0.35954 0.10585
 C511 C 0.08052 0.34911 0.07700
 C512 C 0.07525 0.31896 0.06958
 C513 C 0.09589 0.29859 0.09026
 C514 C 0.12197 0.30822 0.11850
 C515 C 0.18628 0.38962 0.19087
 C516 C 0.19157 0.41976 0.19830
 C517 C 0.17081 0.44013 0.17838
 C518 C 0.14462 0.43052 0.15074
 C519 C 0.17594 0.32731 0.17683
 C520 C 0.19366 0.30941 0.19448
 C521 C 0.09036 0.41140 0.09393
 C522 C 0.07224 0.42905 0.07735
 H523 H 0.06386 0.36408 0.05970
 H524 H 0.05504 0.31137 0.04755
 H525 H 0.09172 0.27520 0.08425
 H526 H 0.13737 0.29153 0.13367
 H527 H 0.20308 0.37462 0.20716
 H528 H 0.21191 0.42733 0.21958
 H529 H 0.17503 0.46352 0.18427
 H530 H 0.12916 0.44722 0.13604
 C531 C 0.61381 0.89183 0.61155
 C532 C 0.63786 0.90135 0.65248
 C533 C 0.65916 0.88067 0.67349
 C534 C 0.65619 0.85057 0.65374
 C535 C 0.63211 0.84103 0.61298
 C536 C 0.61092 0.86173 0.59157
 C537 C 0.58712 0.85169 0.55045
 C538 C 0.58422 0.82200 0.53158
 C539 C 0.60487 0.80173 0.55283
 C540 C 0.62861 0.81101 0.59294
 C541 C 0.68304 0.89073 0.71421
 C542 C 0.68586 0.92039 0.73344
 C543 C 0.66502 0.94059 0.71300
 C544 C 0.64121 0.93129 0.67319
 C545 C 0.67777 0.82935 0.67559
 C546 C 0.69539 0.81139 0.69352
 C547 C 0.59198 0.91289 0.59022
 C548 C 0.57371 0.93016 0.57223
 H549 H 0.57056 0.86661 0.53233
 H550 H 0.56585 0.81470 0.50028
 H551 H 0.60252 0.77870 0.53805
 H552 H 0.64412 0.79440 0.60800
 H553 H 0.69977 0.87582 0.73154
 H554 H 0.70430 0.92772 0.76443
 H555 H 0.66728 0.96360 0.72811
 H556 H 0.62551 0.94779 0.65894
 C557 C 0.88737 0.10861 0.11316
 C558 C 0.89030 0.13853 0.09205
 C559 C 0.86899 0.15939 0.11193
 C560 C 0.84479 0.15019 0.15254
 C561 C 0.84174 0.12024 0.17314
 C562 C 0.86316 0.09942 0.15372
 C563 C 0.85980 0.06968 0.17571
 C564 C 0.83586 0.06071 0.21528
 C565 C 0.81482 0.08103 0.23383
 C566 C 0.81762 0.11048 0.21320
 C567 C 0.87246 0.18920 0.09047
 C568 C 0.89631 0.19813 0.05050
 C569 C 0.91713 0.17773 0.03100
 C570 C 0.91426 0.14824 0.05130
 C571 C 0.82329 0.17164 0.17394
 C572 C 0.80570 0.18969 0.19181
 C573 C 0.90922 0.08736 0.09289
 C574 C 0.92745 0.06992 0.07542
 H575 H 0.87562 0.05310 0.16276
 H576 H 0.83364 0.03787 0.23164
 H577 H 0.79625 0.07394 0.26448
 H578 H 0.80070 0.12547 0.22892
 H579 H 0.85682 0.20589 0.10420
 H580 H 0.89862 0.22099 0.03448
 H581 H 0.93561 0.18477 -0.00008
 H582 H 0.93097 0.13320 0.03459
 C583 C 0.38683 0.60962 0.61397
 C584 C 0.39275 0.64025 0.60988
 C585 C 0.37150 0.66107 0.63048
 C586 C 0.34442 0.65117 0.65488
 C587 C 0.33837 0.62056 0.65808
 C588 C 0.35965 0.59973 0.63768
 C589 C 0.35311 0.56925 0.64147
 C590 C 0.32624 0.55964 0.66409
 C591 C 0.30540 0.58001 0.68374
 C592 C 0.31132 0.61015 0.68124
 C593 C 0.37795 0.69157 0.62613
 C594 C 0.40467 0.70122 0.60245
 C595 C 0.42544 0.68086 0.58228
 C596 C 0.41964 0.65071 0.58555
 C597 C 0.32288 0.67248 0.67696
 C598 C 0.30524 0.69041 0.69533
 C599 C 0.40868 0.58832 0.59400
 C600 C 0.42683 0.57064 0.57746
 H601 H 0.36862 0.55255 0.62684
 H602 H 0.32156 0.53625 0.66633
 H603 H 0.28453 0.57243 0.70103
 H604 H 0.29446 0.62514 0.69740
 H605 H 0.36246 0.70827 0.64093
 H606 H 0.40925 0.72462 0.59970
 H607 H 0.44616 0.68847 0.56393
 H608 H 0.43641 0.63575 0.56872
   
