data_POSCAR
  _audit_creation_date              2014-09-24
  _audit_creation_method            'ToBaCCo'
  _symmetry_space_group_name_H-M    'P1'
  _symmetry_Int_Tables_number       1
  _symmetry_cell_setting            triclinic
  loop_
  _symmetry_equiv_pos_as_xyz
 x,y,z
_cell_length_a 44.0901
_cell_length_b 44.1288
_cell_length_c 13.2950
_cell_angle_alpha 90.103100
_cell_angle_beta 90.001400
_cell_angle_gamma 119.861500
loop_
  _atom_site_label
  _atom_site_type_symbol
  _atom_site_fract_x
  _atom_site_fract_y
  _atom_site_fract_z
C1 C 0.21116 0.47866 0.44919
 C2 C 0.21139 0.47882 0.55555
 C3 C 0.23910 0.47889 0.60773
 C4 C 0.26661 0.47876 0.55525
 C5 C 0.26634 0.47865 0.44912
 C6 C 0.23872 0.47861 0.39693
 H7 H 0.23870 0.47847 0.31528
 H8 H 0.23919 0.47894 0.68943
 C9 C 0.52112 -0.26717 0.44710
 C10 C 0.52095 -0.26695 0.55325
 C11 C 0.52093 -0.23931 0.60530
 C12 C 0.52112 -0.21172 0.55271
 C13 C 0.52125 -0.21197 0.44656
 C14 C 0.52123 -0.23963 0.39454
 H15 H 0.52140 -0.23961 0.31289
 H16 H 0.52087 -0.23928 0.68695
 C17 C 1.26742 0.78900 0.44335
 C18 C 1.26717 0.78877 0.54953
 C19 C 1.23962 0.76118 0.60140
 C20 C 1.21218 0.73373 0.54868
 C21 C 1.21242 0.73392 0.44270
 C22 C 1.23997 0.76147 0.39066
 H23 H 1.23993 0.76146 0.30902
 H24 H 1.23948 0.76112 0.68300
 C25 C 0.78806 0.52122 0.45123
 C26 C 0.78798 0.52085 0.55739
 C27 C 0.76033 0.52067 0.61011
 C28 C 0.73276 0.52087 0.55806
 C29 C 0.73288 0.52118 0.45191
 C30 C 0.76049 0.52133 0.39935
 H31 H 0.76055 0.52164 0.31775
 H32 H 0.76031 0.52047 0.69179
 C33 C 0.47851 0.26687 0.45201
 C34 C 0.47869 0.26702 0.55817
 C35 C 0.47883 0.23954 0.61062
 C36 C 0.47874 0.21188 0.55831
 C37 C 0.47860 0.21180 0.45215
 C38 C 0.47850 0.23928 0.39985
 H39 H 0.47832 0.23913 0.31824
 H40 H 0.47890 0.23963 0.69231
 C41 C 0.73398 0.21218 0.44820
 C42 C 0.73400 0.21224 0.55419
 C43 C 0.76151 0.23974 0.60677
 C44 C 0.78908 0.26724 0.55463
 C45 C 0.78901 0.26718 0.44844
 C46 C 0.76147 0.23967 0.39602
 H47 H 0.76147 0.23961 0.31442
 H48 H 0.76144 0.23963 0.68841
 N49 N 0.96326 0.53538 0.10647
 N50 N 0.93747 0.54192 0.12192
 N51 N 1.03700 0.55132 0.17556
 N52 N 1.06293 0.56873 0.23940
 N53 N 1.03682 0.57221 0.10562
 N54 N 1.06263 0.60445 0.11985
 N55 N 0.96350 0.51449 0.17634
 N56 N 0.93791 0.50623 0.24125
 C57 C 0.92192 0.52340 0.20590
 C58 C 1.07862 0.60168 0.20320
 N59 N 1.03746 0.46508 0.10711
 N60 N 1.06314 0.45839 0.12295
 N61 N 0.96385 0.44941 0.17704
 N62 N 0.93819 0.43223 0.24170
 N63 N 0.96383 0.42823 0.10749
 N64 N 0.93815 0.39601 0.12282
 N65 N 1.03742 0.48627 0.17657
 N66 N 1.06304 0.49458 0.24159
 Mn67 Mn 1.00045 0.50038 0.17748
 C68 C 1.07886 0.47714 0.20672
 C69 C 0.92244 0.39909 0.20644
 N70 N 1.03666 0.57194 -0.11115
 N71 N 1.06229 0.60420 -0.12678
 N72 N 0.96303 0.51386 -0.17995
 N73 N 0.93707 0.50517 -0.24395
 N74 N 0.96302 0.53501 -0.11032
 N75 N 0.93706 0.54132 -0.12493
 N76 N 1.03665 0.55075 -0.18070
 N77 N 1.06225 0.56798 -0.24558
 Mn78 Mn 0.99994 0.55399 -0.00234
 C79 C 1.07801 0.60117 -0.21056
 C80 C 0.92115 0.52241 -0.20820
 N81 N 0.96347 0.42779 -0.10932
 N82 N 0.93774 0.39549 -0.12403
 N83 N 1.03684 0.48554 -0.17971
 N84 N 1.06271 0.49412 -0.24376
 N85 N 1.03704 0.46467 -0.10971
 N86 N 1.06306 0.45845 -0.12411
 N87 N 0.96330 0.44870 -0.17925
 N88 N 0.93748 0.43124 -0.24347
 Mn89 Mn 1.00045 0.44609 -0.00114
 Mn90 Mn 0.99995 0.49971 -0.18104
 Cl91 Cl 1.00020 0.50004 -0.00177
 C92 C 0.92180 0.39823 -0.20763
 C93 C 1.07876 0.47710 -0.20764
 N94 N 0.57183 0.53494 -0.10740
 N95 N 0.60412 0.54132 -0.12194
 N96 N 0.51396 0.55067 -0.17787
 N97 N 0.50537 0.56792 -0.24207
 N98 N 0.53495 0.57174 -0.10792
 N99 N 0.54124 0.60394 -0.12251
 N100 N 0.55083 0.51387 -0.17735
 N101 N 0.56823 0.50533 -0.24142
 C102 C 0.60131 0.52255 -0.20546
 C103 C 0.52249 0.60096 -0.20609
 N104 N 0.42754 0.46460 -0.10908
 N105 N 0.39526 0.45818 -0.12438
 N106 N 0.48556 0.44874 -0.17798
 N107 N 0.49417 0.43138 -0.24200
 N108 N 0.46447 0.42776 -0.10834
 N109 N 0.45812 0.39551 -0.12298
 N110 N 0.44865 0.48558 -0.17870
 N111 N 0.43134 0.49403 -0.24331
 Mn112 Mn 0.49976 0.49972 -0.17912
 C113 C 0.39818 0.47684 -0.20806
 C114 C 0.47694 0.39835 -0.20626
 N115 N 0.53478 0.57204 0.10886
 N116 N 0.54140 0.60436 0.12436
 N117 N 0.55051 0.51417 0.17894
 N118 N 0.56778 0.50578 0.24379
 N119 N 0.57164 0.53515 0.10939
 N120 N 0.60392 0.54165 0.12492
 N121 N 0.51366 0.55101 0.17840
 N122 N 0.50532 0.56841 0.24313
 Mn123 Mn 0.55365 0.55382 0.00070
 C124 C 0.52269 0.60152 0.20802
 C125 C 0.60091 0.52302 0.20865
 N126 N 0.46438 0.42789 0.10845
 N127 N 0.45785 0.39563 0.12388
 N128 N 0.44857 0.48581 0.17757
 N129 N 0.43121 0.49429 0.24185
 N130 N 0.42755 0.46473 0.10771
 N131 N 0.39526 0.45826 0.12246
 N132 N 0.48538 0.44901 0.17831
 N133 N 0.49373 0.43173 0.24320
 Mn134 Mn 0.44563 0.44589 -0.00032
 Mn135 Mn 0.49952 0.49999 0.17940
 Cl136 Cl 0.49964 0.49986 0.00015
 C137 C 0.47648 0.39861 0.20783
 C138 C 0.39816 0.47702 0.20600
 N139 N 0.42798 -0.03671 0.10770
 N140 N 0.39567 -0.06237 0.12283
 N141 N 0.48591 0.03670 0.17822
 N142 N 0.49433 0.06233 0.24320
 N143 N 0.46483 0.03686 0.10869
 N144 N 0.45830 0.06261 0.12436
 N145 N 0.44909 -0.03682 0.17725
 N146 N 0.43175 -0.06253 0.24163
 C147 C 0.39859 -0.07823 0.20631
 C148 C 0.47702 0.07823 0.20815
 N149 N 0.57225 0.03662 0.10759
 N150 N 0.60453 0.06235 0.12280
 N151 N 0.51440 -0.03684 0.17636
 N152 N 0.50592 -0.06265 0.24035
 N153 N 0.53543 -0.03687 0.10645
 N154 N 0.54188 -0.06272 0.12088
 N155 N 0.55118 0.03660 0.17749
 N156 N 0.56851 0.06229 0.24221
 Mn157 Mn 0.50015 -0.00009 0.17844
 C158 C 0.60162 0.07809 0.20670
 C159 C 0.52315 -0.07850 0.20429
 N160 N 0.46487 0.03718 -0.10810
 N161 N 0.45842 0.06306 -0.12250
 N162 N 0.44916 -0.03628 -0.17905
 N163 N 0.43188 -0.06202 -0.24353
 N164 N 0.42810 -0.03631 -0.10911
 N165 N 0.39587 -0.06210 -0.12399
 N166 N 0.48592 0.03719 -0.17804
 N167 N 0.49438 0.06304 -0.24198
 Mn168 Mn 0.44609 0.00025 -0.00023
 C169 C 0.47714 0.07892 -0.20594
 C170 C 0.39883 -0.07783 -0.20774
 N171 N 0.53538 -0.03682 -0.11035
 N172 N 0.54184 -0.06265 -0.12592
 N173 N 0.55112 0.03689 -0.17876
 N174 N 0.56842 0.06270 -0.24278
 N175 N 0.57220 0.03675 -0.10919
 N176 N 0.60447 0.06248 -0.12387
 N177 N 0.51431 -0.03666 -0.17994
 N178 N 0.50585 -0.06236 -0.24481
 Mn179 Mn 0.55417 -0.00008 -0.00137
 Mn180 Mn 0.50012 0.00029 -0.18008
 Cl181 Cl 0.50013 0.00009 -0.00082
 C182 C 0.52312 -0.07833 -0.20974
 C183 C 0.60152 0.07839 -0.20711
 C184 C 1.18444 0.47840 0.39572
 C185 C 1.16063 0.47811 0.35004
 C186 C 1.13242 0.47775 0.29831
 C187 C 1.10811 0.47745 0.25564
 C188 C 0.52135 0.70625 0.39439
 C189 C 0.52161 0.68259 0.34940
 C190 C 0.52197 0.65460 0.29848
 C191 C 0.52230 0.63050 0.25642
 C192 C 0.29394 -0.18425 0.39083
 C193 C 0.31759 -0.16036 0.34619
 C194 C 0.34556 -0.13202 0.29580
 C195 C 0.36965 -0.10760 0.25421
 C196 C 0.81623 0.52166 0.39435
 C197 C 0.84005 0.52207 0.34859
 C198 C 0.86827 0.52258 0.29692
 C199 C 0.89263 0.52299 0.25443
 C200 C 0.47815 0.29466 0.39542
 C201 C 0.47779 0.31809 0.34994
 C202 C 0.47733 0.34584 0.29858
 C203 C 0.47693 0.36978 0.25628
 C204 C 0.70605 0.18402 0.39214
 C205 C 0.68246 0.16016 0.34721
 C206 C 0.65454 0.13187 0.29653
 C207 C 0.63050 0.10745 0.25475
 C208 C 0.47861 0.18523 -0.38886
 C209 C 0.47840 0.16135 -0.34424
 C210 C 0.47805 0.13296 -0.29423
 C211 C 0.47767 0.10844 -0.25314
 C212 C 0.70623 0.52097 -0.38888
 C213 C 0.68252 0.52117 -0.34413
 C214 C 0.65446 0.52154 -0.29401
 C215 C 0.63029 0.52195 -0.25282
 C216 C 0.81575 0.29366 -0.39231
 C217 C 0.83961 0.31724 -0.34732
 C218 C 0.86793 0.34517 -0.29676
 C219 C 0.89238 0.36925 -0.25522
 C220 C 0.52135 -0.18487 -0.39472
 C221 C 0.52163 -0.16087 -0.35009
 C222 C 0.52207 -0.13239 -0.29969
 C223 C 0.52251 -0.10784 -0.25800
 C224 C 0.29323 0.47857 -0.39212
 C225 C 0.31698 0.47831 -0.34759
 C226 C 0.34508 0.47790 -0.29744
 C227 C 0.36923 0.47746 -0.25601
 C228 C 1.18393 0.70568 -0.39583
 C229 C 1.16003 0.68203 -0.35124
 C230 C 1.13172 0.65407 -0.30073
 C231 C 1.10732 0.63003 -0.25891
 C232 C 0.81463 0.52087 -0.39014
 C233 C 0.83855 0.52100 -0.34587
 C234 C 0.86697 0.52130 -0.29628
 C235 C 0.89156 0.52171 -0.25541
 C236 C 0.47857 0.29356 -0.38907
 C237 C 0.47837 0.31726 -0.34451
 C238 C 0.47802 0.34531 -0.29460
 C239 C 0.47759 0.36945 -0.25354
 C240 C 0.70607 0.18419 -0.39013
 C241 C 0.68244 0.16040 -0.34563
 C242 C 0.65448 0.13215 -0.29563
 C243 C 0.63039 0.10775 -0.25446
 C244 C 1.18490 0.47873 -0.39098
 C245 C 1.16112 0.47855 -0.34601
 C246 C 1.13282 0.47821 -0.29588
 C247 C 1.10829 0.47778 -0.25478
 C248 C 0.52100 0.70522 -0.39012
 C249 C 0.52114 0.68166 -0.34510
 C250 C 0.52146 0.65378 -0.29478
 C251 C 0.52186 0.62975 -0.25347
 C252 C 0.29487 -0.18331 -0.39360
 C253 C 0.31831 -0.15962 -0.34817
 C254 C 0.34608 -0.13148 -0.29726
 C255 C 0.37005 -0.10713 -0.25550
 C256 C 0.52156 -0.18402 0.38976
 C257 C 0.52188 -0.16031 0.34431
 C258 C 0.52229 -0.13218 0.29339
 C259 C 0.52268 -0.10782 0.25172
 C260 C 0.29409 0.47841 0.39242
 C261 C 0.31754 0.47815 0.34690
 C262 C 0.34531 0.47780 0.29576
 C263 C 0.36930 0.47746 0.25381
 C264 C 1.18447 0.70611 0.38644
 C265 C 1.16071 0.68254 0.34156
 C266 C 1.13248 0.65464 0.29137
 C267 C 1.10804 0.63056 0.25024
 C268 C 0.47838 0.18372 0.39564
 C269 C 0.47814 0.15996 0.35023
 C270 C 0.47780 0.13180 0.29898
 C271 C 0.47747 0.10748 0.25670
 C272 C 0.70502 0.52149 0.39564
 C273 C 0.68152 0.52179 0.35037
 C274 C 0.65371 0.52219 0.29923
 C275 C 0.62973 0.52256 0.25705
 C276 C 0.81702 0.29501 0.39215
 C277 C 0.84074 0.31853 0.34709
 C278 C 0.86888 0.34635 0.29636
 C279 C 0.89319 0.37033 0.25454
   
