data_POSCAR
  _audit_creation_date              2014-09-24
  _audit_creation_method            'ToBaCCo'
  _symmetry_space_group_name_H-M    'P1'
  _symmetry_Int_Tables_number       1
  _symmetry_cell_setting            triclinic
  loop_
  _symmetry_equiv_pos_as_xyz
 x,y,z
_cell_length_a 35.2005
_cell_length_b 34.9433
_cell_length_c 30.0329
_cell_angle_alpha 90.083800
_cell_angle_beta 90.035500
_cell_angle_gamma 94.710400
loop_
  _atom_site_label
  _atom_site_type_symbol
  _atom_site_fract_x
  _atom_site_fract_y
  _atom_site_fract_z
C1 C -0.11578 0.29994 -0.02659
 C2 C -0.11467 0.30038 0.01898
 C3 C -0.07844 0.29135 0.03133
 N4 N -0.05766 0.28501 -0.00548
 C5 C -0.08033 0.29045 -0.04091
 C6 C -0.06665 0.28520 0.07584
 C7 C -0.02925 0.27623 0.08744
 C8 C -0.01819 0.26466 0.12946
 C9 C 0.02030 0.26091 0.12769
 C10 C 0.03195 0.27058 0.08485
 N11 N 0.00177 0.28038 0.06074
 C12 C 0.07008 0.27199 0.06995
 C13 C 0.08092 0.27590 0.02486
 C14 C 0.11827 0.28139 0.01020
 C15 C 0.11696 0.28021 -0.03535
 C16 C 0.07884 0.27353 -0.04708
 N17 N 0.05685 0.27102 -0.01017
 C18 C 0.06538 0.26682 -0.09114
 C19 C 0.02638 0.26731 -0.10306
 C20 C 0.01110 0.25475 -0.14364
 C21 C -0.02717 0.25964 -0.14220
 C22 C -0.03456 0.27446 -0.10051
 N23 N -0.00165 0.27971 -0.07714
 C24 C -0.07105 0.28330 -0.08582
 H25 H -0.14038 0.30487 -0.04676
 H26 H -0.13838 0.30557 0.04043
 H27 H 0.00191 0.29378 -0.04677
 H28 H -0.03575 0.25997 0.15880
 H29 H 0.03779 0.25254 0.15510
 H30 H 0.14387 0.28531 0.03023
 H31 H 0.14136 0.28319 -0.05735
 H32 H -0.04727 0.25254 -0.16880
 H33 H 0.00315 0.29304 0.02951
 H34 H 0.02585 0.24288 -0.17138
 C35 C 0.61809 0.76010 0.53346
 C36 C 0.62083 0.76283 0.48800
 C37 C 0.58595 0.77329 0.47288
 N38 N 0.56225 0.77761 0.50757
 C39 C 0.58171 0.76926 0.54464
 C40 C 0.57728 0.78057 0.42791
 C41 C 0.54037 0.78687 0.41245
 C42 C 0.53222 0.80011 0.37028
 C43 C 0.49317 0.79977 0.36730
 C44 C 0.47857 0.78635 0.40775
 N45 N 0.50750 0.77834 0.43493
 C46 C 0.43934 0.77947 0.41746
 C47 C 0.42476 0.77254 0.46078
 C48 C 0.38693 0.76159 0.47053
 C49 C 0.38431 0.75926 0.51602
 C50 C 0.42060 0.76899 0.53256
 N51 N 0.44518 0.77747 0.49876
 C52 C 0.43011 0.77120 0.57825
 C53 C 0.46783 0.77756 0.59431
 C54 C 0.47754 0.78632 0.63812
 C55 C 0.51657 0.78645 0.64105
 C56 C 0.52957 0.77766 0.59897
 N57 N 0.49967 0.77223 0.57076
 C58 C 0.56775 0.77148 0.58862
 H59 H 0.64043 0.75245 0.55572
 H60 H 0.64569 0.75776 0.46834
 H61 H 0.50042 0.76033 0.53916
 H62 H 0.55230 0.80868 0.34414
 H63 H 0.47732 0.80804 0.33847
 H64 H 0.36363 0.75590 0.44729
 H65 H 0.35860 0.75139 0.53475
 H66 H 0.53338 0.79152 0.67099
 H67 H 0.50475 0.76355 0.46482
 H68 H 0.45841 0.79128 0.66535
 C69 C 0.88745 0.75437 -0.01028
 C70 C 0.89031 0.75533 0.03519
 C71 C 0.92529 0.74216 0.04578
 N72 N 0.94372 0.73283 0.00832
 C73 C 0.92076 0.74057 -0.02607
 C74 C 0.93859 0.73724 0.08962
 C75 C 0.97549 0.72689 0.10007
 C76 C 0.98649 0.71460 0.14161
 C77 C 1.02477 0.70971 0.13898
 C78 C 1.03629 0.71961 0.09600
 N79 N 1.00599 0.73008 0.07254
 C80 C 1.07437 0.72014 0.08029
 C81 C 1.08406 0.72339 0.03452
 C82 C 1.12086 0.73051 0.01825
 C83 C 1.11814 0.73057 -0.02725
 C84 C 1.07977 0.72382 -0.03741
 N85 N 1.05900 0.71915 0.00035
 C86 C 1.06498 0.72028 -0.08111
 C87 C 1.02573 0.71828 -0.09138
 C88 C 1.01036 0.70825 -0.13270
 C89 C 0.97193 0.71245 -0.13008
 C90 C 0.96489 0.72497 -0.08722
 N91 N 0.99791 0.72860 -0.06396
 C92 C 0.92895 0.73466 -0.07161
 H93 H 0.86360 0.76299 -0.02954
 H94 H 0.86898 0.76458 0.05785
 H95 H 1.00204 0.74172 -0.03314
 H96 H 0.96880 0.70979 0.17086
 H97 H 1.04222 0.70020 0.16583
 H98 H 1.14699 0.73531 0.03719
 H99 H 1.14174 0.73517 -0.05023
 H100 H 0.95154 0.70728 -0.15685
 H101 H 1.00693 0.74296 0.04141
 H102 H 1.02536 0.69927 -0.16187
 C103 C 0.61580 0.24466 0.48048
 C104 C 0.61311 0.24260 0.52599
 C105 C 0.57533 0.23135 0.53570
 N106 N 0.55504 0.22595 0.49770
 C107 C 0.57962 0.23443 0.46391
 C108 C 0.56074 0.22445 0.57902
 C109 C 0.52151 0.21751 0.58872
 C110 C 0.50690 0.20434 0.62927
 C111 C 0.46785 0.20381 0.62621
 C112 C 0.45970 0.21666 0.58386
 N113 N 0.49256 0.22517 0.56138
 C114 C 0.42277 0.22258 0.56819
 C115 C 0.41415 0.22903 0.52303
 C116 C 0.37928 0.23915 0.50752
 C117 C 0.38206 0.24096 0.46201
 C118 C 0.41846 0.23159 0.45121
 N119 N 0.43789 0.22403 0.48856
 C120 C 0.43248 0.22848 0.40735
 C121 C 0.47081 0.22256 0.39738
 C122 C 0.48405 0.21320 0.35559
 C123 C 0.52315 0.21433 0.35860
 C124 C 0.53264 0.22415 0.40218
 N125 N 0.50061 0.22920 0.42551
 C126 C 0.57024 0.23162 0.41822
 H127 H 0.64151 0.25259 0.46175
 H128 H 0.63633 0.24865 0.54926
 H129 H 0.49959 0.24176 0.45675
 H130 H 0.52276 0.19635 0.65823
 H131 H 0.44776 0.19535 0.65237
 H132 H 0.35440 0.24461 0.52696
 H133 H 0.35974 0.24819 0.43948
 H134 H 0.54244 0.20930 0.33156
 H135 H 0.49526 0.23969 0.53130
 H136 H 0.46735 0.20721 0.32574
 C137 C 0.73931 -0.10936 -0.01441
 C138 C 0.74216 -0.10776 0.03101
 C139 C 0.72950 -0.07287 0.04403
 N140 N 0.71925 -0.05299 0.00788
 C141 C 0.72543 -0.07522 -0.02789
 C142 C 0.72709 -0.06029 0.08880
 C143 C 0.71789 -0.02284 0.10034
 C144 C 0.70627 -0.01190 0.14230
 C145 C 0.70346 0.02710 0.14085
 C146 C 0.71340 0.03887 0.09806
 N147 N 0.72210 0.00828 0.07358
 C148 C 0.71728 0.07748 0.08386
 C149 C 0.72100 0.08847 0.03878
 C150 C 0.73000 0.12574 0.02435
 C151 C 0.72908 0.12462 -0.02122
 C152 C 0.71928 0.08670 -0.03317
 N153 N 0.71424 0.06465 0.00362
 C154 C 0.71364 0.07345 -0.07747
 C155 C 0.70981 0.03398 -0.08912
 C156 C 0.69628 0.01983 -0.12984
 C157 C 0.69731 -0.01934 -0.12844
 C158 C 0.71150 -0.02820 -0.08693
 N159 N 0.71921 0.00451 -0.06321
 C160 C 0.71777 -0.06582 -0.07269
 H161 H 0.74704 -0.13279 -0.03525
 H162 H 0.75265 -0.12975 0.05198
 H163 H 0.73342 0.00690 -0.03290
 H164 H 0.70104 -0.03006 0.17118
 H165 H 0.69569 0.04488 0.16838
 H166 H 0.73653 0.15112 0.04454
 H167 H 0.73490 0.14900 -0.04307
 H168 H 0.68840 -0.03910 -0.15495
 H169 H 0.73501 0.00932 0.04249
 H170 H 0.68634 0.03606 -0.15759
 C171 C 0.22943 0.37454 0.46257
 C172 C 0.22680 0.37270 0.50810
 C173 C 0.21601 0.40798 0.52225
 N174 N 0.21139 0.43104 0.48691
 C175 C 0.22000 0.41084 0.45040
 C176 C 0.20924 0.41776 0.56704
 C177 C 0.20223 0.45509 0.58124
 C178 C 0.18903 0.46410 0.62315
 C179 C 0.18891 0.50345 0.62490
 C180 C 0.20209 0.51735 0.58404
 N181 N 0.21026 0.48772 0.55773
 C182 C 0.20904 0.55666 0.57338
 C183 C 0.21636 0.57059 0.52981
 C184 C 0.22775 0.60844 0.51937
 C185 C 0.23081 0.61025 0.47389
 C186 C 0.22104 0.57347 0.45804
 N187 N 0.21180 0.54940 0.49225
 C188 C 0.21975 0.56302 0.41257
 C189 C 0.21315 0.52476 0.39740
 C190 C 0.20553 0.51420 0.35358
 C191 C 0.20504 0.47480 0.35177
 C192 C 0.21245 0.46244 0.39453
 N193 N 0.21734 0.49306 0.42206
 C194 C 0.21842 0.42420 0.40607
 H195 H 0.23741 0.35173 0.44094
 H196 H 0.23226 0.34820 0.52845
 H197 H 0.22843 0.49278 0.45402
 H198 H 0.18088 0.44441 0.64992
 H199 H 0.18066 0.51998 0.65329
 H200 H 0.23338 0.63227 0.54215
 H201 H 0.23926 0.63573 0.45471
 H202 H 0.20081 0.45733 0.32211
 H203 H 0.22509 0.48996 0.52791
 H204 H 0.20170 0.53301 0.32561
 C205 C 0.26220 1.10893 -0.03738
 C206 C 0.26366 1.11015 0.00813
 C207 C 0.27919 1.07688 0.02183
 N208 N 0.28735 1.05542 -0.01393
 C209 C 0.27672 1.07487 -0.05018
 C210 C 0.28529 1.06683 0.06685
 C211 C 0.29560 1.03012 0.07975
 C212 C 0.30973 1.02133 0.12133
 C213 C 0.31162 0.98218 0.12238
 C214 C 0.29874 0.96820 0.08139
 N215 N 0.28919 0.99759 0.05557
 C216 C 0.29260 0.92891 0.07043
 C217 C 0.28602 0.91523 0.02664
 C218 C 0.27476 0.87746 0.01573
 C219 C 0.27203 0.87596 -0.02976
 C220 C 0.28215 0.91282 -0.04521
 N221 N 0.29098 0.93671 -0.01062
 C222 C 0.28312 0.92380 -0.09060
 C223 C 0.28926 0.96249 -0.10457
 C224 C 0.29874 0.97397 -0.14764
 C225 C 0.29791 1.01321 -0.14880
 C226 C 0.28786 1.02463 -0.10644
 N227 N 0.28289 0.99357 -0.07964
 C228 C 0.27963 1.06234 -0.09484
 H229 H 0.25087 1.13030 -0.05858
 H230 H 0.25365 1.13266 0.02877
 H231 H 0.27039 0.99300 -0.04833
 H232 H 0.31684 1.04100 0.14852
 H233 H 0.32053 0.96576 0.15050
 H234 H 0.26872 0.85355 0.03820
 H235 H 0.26323 0.85064 -0.04914
 H236 H 0.30295 1.03121 -0.17785
 H237 H 0.27402 0.99501 0.02592
 H238 H 0.30461 0.95578 -0.17559
 C239 C 0.77408 0.39091 0.52053
 C240 C 0.77648 0.39299 0.47501
 C241 C 0.78757 0.43092 0.46472
 N242 N 0.79262 0.45191 0.50240
 C243 C 0.78394 0.42762 0.53656
 C244 C 0.79400 0.44518 0.42112
 C245 C 0.80031 0.48465 0.41089
 C246 C 0.81277 0.49909 0.36998
 C247 C 0.81226 0.53839 0.37236
 C248 C 0.79953 0.54684 0.41467
 N249 N 0.79218 0.51392 0.43782
 C250 C 0.79229 0.58394 0.42956
 C251 C 0.78580 0.59326 0.47456
 C252 C 0.77450 0.62820 0.48923
 C253 C 0.77243 0.62607 0.53477
 C254 C 0.78277 0.58998 0.54646
 N255 N 0.79132 0.57016 0.50961
 C256 C 0.78511 0.57640 0.59064
 C257 C 0.79201 0.53821 0.60149
 C258 C 0.80003 0.52555 0.64394
 C259 C 0.80008 0.48620 0.64155
 C260 C 0.79220 0.47596 0.59768
 N261 N 0.78735 0.50781 0.57357
 C262 C 0.78561 0.43780 0.58213
 H263 H 0.76595 0.36529 0.53961
 H264 H 0.77054 0.36930 0.45212
 H265 H 0.77586 0.50815 0.54181
 H266 H 0.82080 0.48294 0.34119
 H267 H 0.81983 0.55842 0.34573
 H268 H 0.76829 0.65266 0.46921
 H269 H 0.76421 0.64855 0.55672
 H270 H 0.80435 0.46718 0.66920
 H271 H 0.77781 0.51128 0.46792
 H272 H 0.80422 0.54276 0.67381
 O273 O 0.24694 0.18586 0.22728
 O274 O 0.22819 0.27226 0.29055
 O275 O 0.19460 0.23426 0.22409
 O276 O 0.28165 0.22595 0.29043
 O277 O 0.31516 0.25938 0.23991
 O278 O 0.22750 0.27238 0.17685
 O279 O 0.26273 0.30816 0.24288
 O280 O 0.27702 0.22171 0.17636
 Cu281 Cu 0.23444 0.22600 0.26292
 Cu282 Cu 0.27406 0.26899 0.20418
 C283 C 0.26393 0.18882 0.19017
 C284 C 0.24330 0.30482 0.27851
 C285 C 0.19638 0.25464 0.18900
 C286 C 0.31338 0.24158 0.27671
 O287 O 0.70292 0.75499 0.27414
 O288 O 0.78822 0.74125 0.20723
 O289 O 0.75535 0.70607 0.27501
 O290 O 0.73780 0.79042 0.20696
 O291 O 0.77099 0.82784 0.25412
 O292 O 0.79069 0.74349 0.32072
 O293 O 0.82304 0.77919 0.25289
 O294 O 0.73790 0.79157 0.32101
 Cu295 Cu 0.74236 0.74437 0.23642
 Cu296 Cu 0.78407 0.78920 0.29194
 C297 C 0.70578 0.77576 0.30890
 C298 C 0.82000 0.75867 0.21791
 C299 C 0.77665 0.71036 0.30912
 C300 C 0.75214 0.82361 0.21824
 O301 O 0.75303 0.32506 0.25835
 O302 O 0.72509 0.23755 0.19356
 O303 O 0.69597 0.27318 0.26057
 O304 O 0.78167 0.29019 0.19121
 O305 O 0.81333 0.25490 0.23698
 O306 O 0.72797 0.23964 0.30774
 O307 O 0.75627 0.20324 0.24073
 O308 O 0.78549 0.29077 0.30425
 Cu309 Cu 0.73566 0.28482 0.22120
 Cu310 Cu 0.77392 0.24364 0.27709
 C311 C 0.77419 0.32281 0.29238
 C312 C 0.73601 0.20549 0.20599
 C313 C 0.69764 0.25457 0.29668
 C314 C 0.81203 0.27533 0.20215
 O315 O 0.28824 0.77426 0.18645
 O316 O 0.26638 0.68767 0.25401
 O317 O 0.23355 0.71963 0.18663
 O318 O 0.32031 0.74288 0.25340
 O319 O 0.28729 0.77673 0.29925
 O320 O 0.20036 0.75156 0.23405
 O321 O 0.23427 0.72107 0.30128
 O322 O 0.25444 0.80744 0.23220
 Cu323 Cu 0.28024 0.72766 0.21536
 Cu324 Cu 0.24060 0.76750 0.27123
 C325 C 0.27539 0.80570 0.19793
 C326 C 0.24779 0.68988 0.29000
 C327 C 0.20203 0.73142 0.19898
 C328 C 0.31860 0.76407 0.28765
 O329 O 0.76865 0.27913 0.69306
 O330 O 0.74451 0.19292 0.76126
 O331 O 0.71339 0.22545 0.69482
 O332 O 0.80068 0.24596 0.76060
 O333 O 0.76982 0.28230 0.80611
 O334 O 0.68150 0.25909 0.74209
 O335 O 0.71482 0.22809 0.80887
 O336 O 0.73635 0.31338 0.73924
 Cu337 Cu 0.76021 0.23256 0.72275
 Cu338 Cu 0.72258 0.27426 0.77882
 C339 C 0.75538 0.31062 0.70369
 C340 C 0.72531 0.19578 0.79675
 C341 C 0.68244 0.23827 0.70743
 C342 C 0.80005 0.26745 0.79465
 O343 O 0.30265 0.73202 0.73501
 O344 O 0.21497 0.71279 0.80016
 O345 O 0.24652 0.67872 0.73497
 O346 O 0.26914 0.76685 0.80053
 O347 O 0.23996 0.80011 0.75059
 O348 O 0.21432 0.71176 0.68748
 O349 O 0.18392 0.74720 0.75285
 O350 O 0.27120 0.76364 0.68542
 Cu351 Cu 0.26180 0.71945 0.77244
 Cu352 Cu 0.22442 0.75914 0.71417
 C353 C 0.30158 0.74973 0.69823
 C354 C 0.18456 0.72687 0.78787
 C355 C 0.22594 0.68017 0.70034
 C356 C 0.25713 0.79830 0.78756
 O357 O 0.24598 0.29737 0.72360
 O358 O 0.26544 0.21308 0.79083
 O359 O 0.29861 0.24888 0.72312
 O360 O 0.21480 0.26232 0.79281
 O361 O 0.17919 0.22344 0.74865
 O362 O 0.26266 0.21253 0.67693
 O363 O 0.23175 0.17546 0.74411
 O364 O 0.20929 0.25989 0.67932
 Cu365 Cu 0.25991 0.25927 0.76195
 Cu366 Cu 0.21710 0.21422 0.70760
 C367 C 0.22390 0.29300 0.69017
 C368 C 0.25132 0.17982 0.77946
 C369 C 0.29503 0.22826 0.68829
 C370 C 0.18302 0.24449 0.78316
 O371 O 0.73906 0.68985 0.75601
 O372 O 0.71728 0.77454 0.82125
 O373 O 0.68467 0.73661 0.75523
 O374 O 0.77141 0.72935 0.82252
 O375 O 0.80429 0.76603 0.77433
 O376 O 0.71775 0.77346 0.70737
 O377 O 0.74939 0.81225 0.77335
 O378 O 0.77125 0.72736 0.70794
 Cu379 Cu 0.72494 0.72863 0.79343
 Cu380 Cu 0.76419 0.77350 0.73614
 C381 C 0.75782 0.69414 0.72003
 C382 C 0.72916 0.80795 0.80834
 C383 C 0.68640 0.75594 0.71942
 C384 C 0.80253 0.74743 0.81062
 C385 C 0.29836 0.15760 0.13056
 C386 C 0.30368 0.12852 0.10026
 C387 C 0.27992 0.09441 0.10029
 C388 C 0.24995 0.08961 0.13205
 C389 C 0.24418 0.11949 0.16314
 C390 C 0.26876 0.15426 0.16203
 C391 C 0.21294 0.11357 0.19264
 N392 N 0.18973 0.08071 0.19090
 N393 N 0.19497 0.05321 0.16149
 C394 C 0.22395 0.05665 0.13186
 H395 H 0.31762 0.18339 0.12888
 H396 H 0.32665 0.13273 0.07629
 H397 H 0.20562 0.13435 0.21677
 H398 H 0.22590 0.03370 0.10806
 C399 C 0.79928 0.66067 0.66918
 C400 C 0.80616 0.63245 0.63811
 C401 C 0.77793 0.60335 0.62759
 C402 C 0.74237 0.60195 0.64978
 C403 C 0.73526 0.63055 0.68175
 C404 C 0.76406 0.66063 0.69112
 C405 C 0.69886 0.62862 0.70155
 N406 N 0.67212 0.60005 0.69050
 N407 N 0.67897 0.57329 0.66070
 C408 C 0.71307 0.57333 0.63985
 H409 H 0.82161 0.68323 0.67563
 H410 H 0.83340 0.63389 0.62114
 H411 H 0.69093 0.64935 0.72546
 H412 H 0.71679 0.55109 0.61557
 C413 C 0.71525 0.85278 0.15927
 C414 C 0.70914 0.88028 0.12734
 C415 C 0.73376 0.91361 0.12339
 C416 C 0.76531 0.91935 0.15295
 C417 C 0.77187 0.89109 0.18572
 C418 C 0.74649 0.85697 0.18852
 C419 C 0.80453 0.89782 0.21292
 N420 N 0.82838 0.92992 0.20754
 N421 N 0.82238 0.95587 0.17658
 C422 C 0.79196 0.95158 0.14897
 H423 H 0.69530 0.82749 0.16059
 H424 H 0.68481 0.87544 0.10529
 H425 H 0.81226 0.87835 0.23825
 H426 H 0.78934 0.97324 0.12379
 C427 C 0.24787 0.35324 0.65330
 C428 C 0.24455 0.38306 0.62324
 C429 C 0.21012 0.38711 0.60119
 C430 C 0.17789 0.36166 0.61099
 C431 C 0.18101 0.33156 0.64213
 C432 C 0.21683 0.32659 0.66227
 C433 C 0.14782 0.30806 0.65261
 N434 N 0.11443 0.31366 0.63201
 N435 N 0.11185 0.34128 0.60192
 C436 C 0.14240 0.36550 0.59074
 H437 H 0.27541 0.35014 0.66841
 H438 H 0.26934 0.40255 0.61614
 H439 H 0.14773 0.28585 0.67759
 H440 H 0.13862 0.38772 0.56648
 C441 C 0.86253 0.24740 0.15928
 C442 C 0.89182 0.24961 0.12807
 C443 C 0.90557 0.28502 0.10982
 C444 C 0.89006 0.31907 0.12468
 C445 C 0.86003 0.31674 0.15633
 C446 C 0.84569 0.28041 0.17287
 C447 C 0.84600 0.35111 0.17114
 N448 N 0.86085 0.38528 0.15482
 N449 N 0.88889 0.38746 0.12497
 C450 C 0.90410 0.35561 0.10948
 H451 H 0.85191 0.21942 0.17164
 H452 H 0.90319 0.22327 0.11712
 H453 H 0.82388 0.35127 0.19606
 H454 H 0.92718 0.35913 0.08570
 C455 C 0.34533 0.78959 0.64951
 C456 C 0.37641 0.79502 0.62087
 C457 C 0.39880 0.76479 0.61125
 C458 C 0.38987 0.72839 0.63090
 C459 C 0.35803 0.72264 0.65978
 C460 C 0.33578 0.75382 0.66946
 C461 C 0.34881 0.68532 0.67637
 N462 N 0.37074 0.65648 0.66582
 N463 N 0.40104 0.66218 0.63945
 C464 C 0.41128 0.69706 0.62153
 H465 H 0.32849 0.81358 0.65613
 H466 H 0.38285 0.82288 0.60564
 H467 H 0.32420 0.67836 0.69701
 H468 H 0.43589 0.69988 0.59989
 C469 C 0.14055 0.75146 0.17154
 C470 C 0.10944 0.74887 0.14284
 C471 C 0.10411 0.71881 0.11192
 C472 C 0.12929 0.68900 0.11276
 C473 C 0.16054 0.69108 0.14299
 C474 C 0.16721 0.72372 0.17119
 C475 C 0.18314 0.65964 0.14480
 N476 N 0.17560 0.62911 0.11737
 N477 N 0.14673 0.62748 0.08864
 C478 C 0.12319 0.65615 0.08562
 H479 H 0.14453 0.77637 0.19307
 H480 H 0.09041 0.77174 0.14320
 H481 H 0.20591 0.65814 0.16860
 H482 H 0.09953 0.65265 0.06260
 C483 C 0.62444 0.26074 0.67319
 C484 C 0.59531 0.25766 0.64168
 C485 C 0.58849 0.22423 0.61627
 C486 C 0.60970 0.19235 0.62471
 C487 C 0.63911 0.19525 0.65712
 C488 C 0.64770 0.23053 0.67998
 C489 C 0.65850 0.16239 0.66587
 N490 N 0.64972 0.12958 0.64255
 N491 N 0.62276 0.12726 0.61133
 C492 C 0.60243 0.15749 0.60163
 H493 H 0.63003 0.28770 0.69074
 H494 H 0.57899 0.28212 0.63572
 H495 H 0.67989 0.16206 0.69164
 H496 H 0.58050 0.15388 0.57636
 C497 C 0.74344 0.13355 0.82549
 C498 C 0.74065 0.10357 0.85604
 C499 C 0.71183 0.10100 0.88833
 C500 C 0.68297 0.12712 0.88670
 C501 C 0.68507 0.15695 0.85450
 C502 C 0.71697 0.16148 0.82537
 C503 C 0.65445 0.18044 0.85192
 N504 N 0.62479 0.17517 0.88064
 N505 N 0.62327 0.14772 0.91139
 C506 C 0.65114 0.12340 0.91523
 H507 H 0.76763 0.13585 0.80310
 H508 H 0.76263 0.08357 0.85624
 H509 H 0.65290 0.20208 0.82656
 H510 H 0.64778 0.10093 0.93998
 C511 C 0.20578 0.64760 0.33815
 C512 C 0.19876 0.61690 0.36737
 C513 C 0.22783 0.59378 0.37892
 C514 C 0.26469 0.60158 0.36064
 C515 C 0.27206 0.63303 0.33118
 C516 C 0.24205 0.65604 0.31956
 C517 C 0.30973 0.64113 0.31597
 N518 N 0.33741 0.61854 0.32837
 N519 N 0.33022 0.58860 0.35529
 C520 C 0.29489 0.57942 0.37196
 H521 H 0.18265 0.66501 0.33002
 H522 H 0.17055 0.61136 0.38154
 H523 H 0.31784 0.66541 0.29498
 H524 H 0.29085 0.55507 0.39412
 C525 C 0.29638 0.83726 0.84176
 C526 C 0.30287 0.86757 0.87157
 C527 C 0.27631 0.89500 0.87668
 C528 C 0.24206 0.89138 0.85136
 C529 C 0.23485 0.85975 0.82182
 C530 C 0.26278 0.83275 0.81651
 C531 C 0.19893 0.85538 0.80062
 N532 N 0.17310 0.88150 0.80728
 N533 N 0.18019 0.91141 0.83429
 C534 C 0.21352 0.91708 0.85678
 H535 H 0.31779 0.81684 0.83870
 H536 H 0.32897 0.86969 0.89092
 H537 H 0.19028 0.83120 0.77971
 H538 H 0.21696 0.94129 0.87924
 C539 C 0.75501 0.38231 0.32719
 C540 C 0.75953 0.41160 0.35868
 C541 C 0.79294 0.41695 0.38394
 C542 C 0.82336 0.39395 0.37536
 C543 C 0.81899 0.36432 0.34293
 C544 C 0.78370 0.35737 0.32015
 C545 C 0.85047 0.34313 0.33406
 N546 N 0.88336 0.35044 0.35723
 N547 N 0.88704 0.37762 0.38842
 C548 C 0.85820 0.39965 0.39824
 H549 H 0.72803 0.37795 0.30983
 H550 H 0.73616 0.42926 0.36474
 H551 H 0.84969 0.32147 0.30831
 H552 H 0.86290 0.42168 0.42346
 C553 C 0.12700 0.27689 0.80842
 C554 C 0.09794 0.28209 0.83888
 C555 C 0.09200 0.25769 0.87586
 C556 C 0.11447 0.22582 0.88024
 C557 C 0.14422 0.22094 0.84954
 C558 C 0.15071 0.24702 0.81382
 C559 C 0.16669 0.18991 0.85565
 N560 N 0.15892 0.16471 0.88932
 N561 N 0.13014 0.16846 0.91729
 C562 C 0.10755 0.19792 0.91379
 H563 H 0.13166 0.29691 0.78107
 H564 H 0.08107 0.30642 0.83465
 H565 H 0.19013 0.18535 0.83378
 H566 H 0.08420 0.19903 0.93699
 C567 C 0.64622 0.74750 0.34310
 C568 C 0.61539 0.74846 0.37197
 C569 C 0.60899 0.78204 0.39516
 C570 C 0.63320 0.81579 0.38789
 C571 C 0.66433 0.81509 0.35796
 C572 C 0.67155 0.78014 0.33650
 C573 C 0.68653 0.84977 0.34992
 N574 N 0.67875 0.88225 0.37169
 N575 N 0.65015 0.88256 0.40065
 C576 C 0.62709 0.85048 0.40945
 H577 H 0.65103 0.72060 0.32689
 H578 H 0.59689 0.72251 0.37719
 H579 H 0.70944 0.85177 0.32595
 H580 H 0.60399 0.85246 0.43287
 C581 C 0.83910 0.71338 0.86610
 C582 C 0.86965 0.70995 0.89477
 C583 C 0.89971 0.73867 0.89705
 C584 C 0.89843 0.77211 0.87053
 C585 C 0.86639 0.77651 0.84262
 C586 C 0.83678 0.74616 0.83954
 C587 C 0.86465 0.81199 0.82062
 N588 N 0.89370 0.83977 0.82450
 N589 N 0.92418 0.83501 0.84944
 C590 C 0.92745 0.80232 0.87276
 H591 H 0.81689 0.69002 0.86486
 H592 H 0.86998 0.68444 0.91521
 H593 H 0.84032 0.81884 0.80139
 H594 H 0.95249 0.80048 0.89327
 C595 C 0.34878 0.20557 0.33116
 C596 C 0.37711 0.20218 0.36280
 C597 C 0.40539 0.23200 0.36978
 C598 C 0.40626 0.26527 0.34282
 C599 C 0.37790 0.26855 0.30954
 C600 C 0.34793 0.23866 0.30476
 C601 C 0.38030 0.30232 0.28365
 N602 N 0.40841 0.33048 0.29116
 N603 N 0.43440 0.32752 0.32284
 C604 C 0.43422 0.29600 0.34899
 H605 H 0.32670 0.18222 0.32795
 H606 H 0.37628 0.17654 0.38314
 H607 H 0.36069 0.30711 0.25730
 H608 H 0.45591 0.29537 0.37441
 C609 C 0.74759 0.87437 0.83381
 C610 C 0.74495 0.90522 0.86271
 C611 C 0.71640 0.90440 0.89527
 C612 C 0.68784 0.87323 0.89587
 C613 C 0.68951 0.84253 0.86502
 C614 C 0.72112 0.84206 0.83546
 C615 C 0.65874 0.81403 0.86417
 N616 N 0.62961 0.81541 0.89348
 N617 N 0.62868 0.84358 0.92320
 C618 C 0.65660 0.87261 0.92523
 H619 H 0.77158 0.87519 0.81115
 H620 H 0.76672 0.92901 0.86132
 H621 H 0.65654 0.79139 0.83966
 H622 H 0.65369 0.89532 0.94918
 C623 C 0.20225 0.34067 0.32713
 C624 C 0.19596 0.36931 0.35785
 C625 C 0.22530 0.39683 0.36962
 C626 C 0.26146 0.39623 0.34917
 C627 C 0.26805 0.36706 0.31780
 C628 C 0.23804 0.33869 0.30702
 C629 C 0.30503 0.36661 0.30003
 N630 N 0.33283 0.39378 0.31220
 N631 N 0.32642 0.42127 0.34128
 C632 C 0.29178 0.42335 0.36029
 H633 H 0.17902 0.31936 0.31955
 H634 H 0.16825 0.36945 0.37351
 H635 H 0.31252 0.34503 0.27693
 H636 H 0.28837 0.44608 0.38407
 C637 C 0.29088 0.14912 0.83463
 C638 C 0.29795 0.12098 0.86544
 C639 C 0.27254 0.08836 0.87077
 C640 C 0.23890 0.08425 0.84440
 C641 C 0.23095 0.11361 0.81370
 C642 C 0.25763 0.14643 0.80859
 C643 C 0.19554 0.10963 0.79126
 N644 N 0.17096 0.07828 0.79805
 N645 N 0.17875 0.05070 0.82624
 C646 C 0.21160 0.05274 0.84987
 H647 H 0.31154 0.17373 0.83170
 H648 H 0.32358 0.12474 0.88555
 H649 H 0.18608 0.13115 0.76931
 H650 H 0.21564 0.02992 0.87319
 C651 C 0.75305 0.64941 0.34477
 C652 C 0.75665 0.61907 0.37402
 C653 C 0.79112 0.61500 0.39600
 C654 C 0.82309 0.64101 0.38697
 C655 C 0.81968 0.67167 0.35667
 C656 C 0.78383 0.67658 0.33661
 C657 C 0.85266 0.69577 0.34691
 N658 N 0.88609 0.69017 0.36742
 N659 N 0.88893 0.66200 0.39674
 C660 C 0.85861 0.63720 0.40718
 H661 H 0.72552 0.65246 0.32961
 H662 H 0.73206 0.59916 0.38058
 H663 H 0.85256 0.71847 0.32257
 H664 H 0.86262 0.61455 0.43081
 C665 C 0.13003 0.75358 0.82481
 C666 C 0.10156 0.75224 0.85705
 C667 C 0.09250 0.71872 0.88156
 C668 C 0.11083 0.68520 0.87164
 C669 C 0.13960 0.68638 0.83854
 C670 C 0.15029 0.72144 0.81629
 C671 C 0.15627 0.65214 0.82849
 N672 N 0.14546 0.61948 0.85110
 N673 N 0.11900 0.61864 0.88283
 C674 C 0.10128 0.65035 0.89385
 H675 H 0.13759 0.78055 0.80803
 H676 H 0.08746 0.77798 0.86417
 H677 H 0.17717 0.65073 0.80233
 H678 H 0.07967 0.64795 0.91951
 C679 C 0.65460 0.21424 0.34575
 C680 C 0.62374 0.20842 0.37467
 C681 C 0.60148 0.23852 0.38521
 C682 C 0.61042 0.27525 0.36638
 C683 C 0.64210 0.28143 0.33733
 C684 C 0.66409 0.25032 0.32651
 C685 C 0.65137 0.31903 0.32165
 N686 N 0.62959 0.34774 0.33312
 N687 N 0.59937 0.34163 0.35954
 C688 C 0.58910 0.30644 0.37666
 H689 H 0.67120 0.19027 0.33823
 H690 H 0.61731 0.18030 0.38928
 H691 H 0.67596 0.32630 0.30106
 H692 H 0.56454 0.30327 0.39837
 C693 C 0.84913 0.24113 0.84103
 C694 C 0.87985 0.24488 0.87032
 C695 C 0.89730 0.28116 0.88113
 C696 C 0.88364 0.31432 0.86179
 C697 C 0.85191 0.31056 0.83250
 C698 C 0.83444 0.27358 0.82251
 C699 C 0.83921 0.34403 0.81362
 N700 N 0.85702 0.37882 0.82393
 N701 N 0.88666 0.38235 0.85166
 C702 C 0.90060 0.35131 0.87090
 H703 H 0.83597 0.21266 0.83377
 H704 H 0.88999 0.21930 0.88501
 H705 H 0.81559 0.34286 0.79048
 H706 H 0.92485 0.35579 0.89300
 C707 C 0.37630 0.74225 0.32316
 C708 C 0.40520 0.74573 0.35491
 C709 C 0.41162 0.77931 0.38011
 C710 C 0.39015 0.81093 0.37127
 C711 C 0.36096 0.80764 0.33857
 C712 C 0.35287 0.77223 0.31581
 C713 C 0.34134 0.84027 0.32942
 N714 N 0.34968 0.87322 0.35262
 N715 N 0.37643 0.87590 0.38410
 C716 C 0.39697 0.84592 0.39420
 H717 H 0.37105 0.71516 0.30578
 H718 H 0.42170 0.72145 0.36119
 H719 H 0.32012 0.84031 0.30343
 H720 H 0.41870 0.84981 0.41966
 C721 C 0.25340 0.86308 0.16128
 C722 C 0.25744 0.89272 0.13029
 C723 C 0.29163 0.90029 0.10701
 C724 C 0.32309 0.87908 0.11687
 C725 C 0.31925 0.84921 0.14889
 C726 C 0.28346 0.84017 0.16986
 C727 C 0.35169 0.82991 0.15922
 N728 N 0.38505 0.83918 0.13771
 N729 N 0.38828 0.86657 0.10684
 C730 C 0.35847 0.88686 0.09571
 H731 H 0.22595 0.85687 0.17714
 H732 H 0.23323 0.90894 0.12309
 H733 H 0.35123 0.80815 0.18477
 H734 H 0.36279 0.90913 0.07080
 C735 C 0.79834 0.35275 0.65634
 C736 C 0.80592 0.38367 0.62753
 C737 C 0.77709 0.40691 0.61547
 C738 C 0.73987 0.39897 0.63270
 C739 C 0.73194 0.36729 0.66166
 C740 C 0.76172 0.34424 0.67393
 C741 C 0.69397 0.35903 0.67576
 N742 N 0.66652 0.38172 0.66285
 N743 N 0.67424 0.41191 0.63646
 C744 C 0.70989 0.42124 0.62083
 H745 H 0.82130 0.33531 0.66504
 H746 H 0.83439 0.38930 0.61409
 H747 H 0.68546 0.33454 0.69624
 H748 H 0.71437 0.44581 0.59905
 C749 C 0.75651 0.14622 0.17226
 C750 C 0.75223 0.11552 0.14265
 C751 C 0.71859 0.10829 0.11821
 C752 C 0.68790 0.13136 0.12531
 C753 C 0.69207 0.16253 0.15579
 C754 C 0.72729 0.17073 0.17834
 C755 C 0.66041 0.18383 0.16318
 N756 N 0.62748 0.17504 0.14055
 N757 N 0.62391 0.14628 0.11132
 C758 C 0.65294 0.12410 0.10299
 H759 H 0.78359 0.15180 0.18923
 H760 H 0.77584 0.09795 0.13764
 H761 H 0.66109 0.20681 0.18731
 H762 H 0.64832 0.10078 0.07936
 C763 C 0.24663 0.62096 0.66655
 C764 C 0.24279 0.59139 0.63541
 C765 C 0.20949 0.58515 0.61011
 C766 C 0.17849 0.60747 0.61827
 C767 C 0.18215 0.63737 0.65035
 C768 C 0.21731 0.64523 0.67314
 C769 C 0.15017 0.65793 0.65884
 N770 N 0.11744 0.64975 0.63561
 N771 N 0.11441 0.62230 0.60471
 C772 C 0.14378 0.60086 0.59527
 H773 H 0.27351 0.62608 0.68396
 H774 H 0.26658 0.57421 0.62963
 H775 H 0.15045 0.67980 0.68433
 H776 H 0.13963 0.57858 0.57026
 C777 C 0.85773 0.71828 0.17055
 C778 C 0.88645 0.71276 0.13996
 C779 C 0.91189 0.74344 0.12677
 C780 C 0.90899 0.78025 0.14549
 C781 C 0.87939 0.78618 0.17621
 C782 C 0.85341 0.75468 0.18878
 C783 C 0.87601 0.82390 0.19143
 N784 N 0.90129 0.85297 0.17799
 N785 N 0.92953 0.84710 0.15000
 C786 C 0.93418 0.81179 0.13318
 H787 H 0.83818 0.69393 0.17949
 H788 H 0.88826 0.68454 0.12550
 H789 H 0.85343 0.83097 0.21330
 H790 H 0.95740 0.80872 0.11022
 C791 C 0.35400 0.25644 0.65269
 C792 C 0.38467 0.25526 0.62364
 C793 C 0.39102 0.22146 0.60085
 C794 C 0.36681 0.18778 0.60858
 C795 C 0.33583 0.18873 0.63868
 C796 C 0.32876 0.22384 0.65989
 C797 C 0.31367 0.15411 0.64720
 N798 N 0.32135 0.12145 0.62572
 N799 N 0.34981 0.12091 0.59661
 C800 C 0.37284 0.15291 0.58736
 H801 H 0.34930 0.28345 0.66872
 H802 H 0.40316 0.28115 0.61807
 H803 H 0.29086 0.15229 0.67130
 H804 H 0.39583 0.15074 0.56384
 C805 C 0.15008 0.29354 0.15212
 C806 C 0.11941 0.29779 0.12366
 C807 C 0.10045 0.26578 0.10295
 C808 C 0.11203 0.22868 0.11170
 C809 C 0.14308 0.22429 0.14079
 C810 C 0.16220 0.25713 0.16108
 C811 C 0.15482 0.18718 0.14718
 N812 N 0.13608 0.15665 0.12654
 N813 N 0.10656 0.16075 0.09971
 C814 C 0.09394 0.19569 0.09151
 H815 H 0.16469 0.31890 0.16702
 H816 H 0.11093 0.32632 0.11688
 H817 H 0.17887 0.18215 0.16798
 H818 H 0.06999 0.19736 0.06921
 C819 C 0.65068 0.79296 0.66627
 C820 C 0.62247 0.79700 0.63465
 C821 C 0.59483 0.76696 0.62595
 C822 C 0.59460 0.73263 0.65096
 C823 C 0.62303 0.72849 0.68394
 C824 C 0.65218 0.75886 0.69076
 C825 C 0.62157 0.69351 0.70745
 N826 N 0.59403 0.66515 0.69833
 N827 N 0.56777 0.66907 0.66717
 C828 C 0.56717 0.70174 0.64312
 H829 H 0.67212 0.81670 0.67103
 H830 H 0.62282 0.82344 0.61579
 H831 H 0.64153 0.68793 0.73314
 H832 H 0.54530 0.70316 0.61803
   
