data_POSCAR
  _audit_creation_date              2014-09-24
  _audit_creation_method            'ToBaCCo'
  _symmetry_space_group_name_H-M    'P1'
  _symmetry_Int_Tables_number       1
  _symmetry_cell_setting            triclinic
  loop_
  _symmetry_equiv_pos_as_xyz
 x,y,z
_cell_length_a 29.7205
_cell_length_b 30.5185
_cell_length_c 7.3801
_cell_angle_alpha 91.056300
_cell_angle_beta 87.846400
_cell_angle_gamma 90.112300
loop_
  _atom_site_label
  _atom_site_type_symbol
  _atom_site_fract_x
  _atom_site_fract_y
  _atom_site_fract_z
O1 O 0.21476 0.27779 0.02838
 O2 O 0.29992 0.20131 0.18437
 O3 O 0.21382 0.19644 0.12147
 O4 O 0.30089 0.28233 0.09217
 O5 O 0.28472 0.30191 0.37639
 O6 O 0.19732 0.21635 0.40509
 O7 O 0.28356 0.22037 0.46859
 O8 O 0.19863 0.29725 0.31244
 Cu9 Cu 0.25898 0.23739 0.07924
 Cu10 Cu 0.23945 0.26102 0.41811
 C11 C 0.19124 0.29981 0.14480
 C12 C 0.30720 0.19855 0.35194
 C13 C 0.18981 0.19247 0.26643
 C14 C 0.30840 0.30609 0.23095
 O15 O 0.79890 0.29750 0.29468
 O16 O 0.71042 0.22419 0.47382
 O17 O 0.79780 0.21896 0.41377
 O18 O 0.71212 0.30365 0.35566
 O19 O 0.70077 0.27931 0.07747
 O20 O 0.78669 0.19463 0.13538
 O21 O 0.69967 0.20043 0.19495
 O22 O 0.78795 0.27383 0.01561
 Cu23 Cu 0.75582 0.26362 0.41179
 Cu24 Cu 0.74269 0.23441 0.07809
 C25 C 0.80930 0.29758 0.12633
 C26 C 0.68902 0.20037 0.36323
 C27 C 0.80772 0.19305 0.28181
 C28 C 0.69115 0.30541 0.20925
 O29 O 0.80293 0.71542 0.61000
 O30 O 0.71702 0.80233 0.61739
 O31 O 0.80249 0.79759 0.69527
 O32 O 0.71804 0.71956 0.53021
 O33 O 0.69914 0.70431 0.81357
 O34 O 0.78363 0.78236 0.97847
 O35 O 0.69825 0.78647 0.90078
 O36 O 0.78429 0.69954 0.89336
 Cu37 Cu 0.76208 0.76046 0.58616
 Cu38 Cu 0.73934 0.74153 0.92371
 C39 C 0.80903 0.69332 0.75116
 C40 C 0.69213 0.80845 0.75927
 C41 C 0.80871 0.80234 0.86367
 C42 C 0.69325 0.69934 0.64511
 O43 O 0.29898 0.78298 0.91759
 O44 O 0.21346 0.69673 0.86725
 O45 O 0.29999 0.70321 0.79968
 O46 O 0.21168 0.77706 0.98770
 O47 O 0.19936 0.79818 0.71021
 O48 O 0.28747 0.72429 0.52200
 O49 O 0.20043 0.71850 0.59051
 O50 O 0.28602 0.80463 0.64065
 Cu51 Cu 0.25726 0.73770 0.92023
 Cu52 Cu 0.24205 0.76379 0.58897
 C53 C 0.30798 0.80775 0.78459
 C54 C 0.19162 0.69353 0.72299
 C55 C 0.30960 0.70173 0.63073
 C56 C 0.18942 0.79958 0.87900
 C57 C 0.99951 0.10380 0.28958
 C58 C 1.04053 0.08216 0.25484
 C59 C 1.03966 0.03696 0.21381
 C60 C 0.99902 0.01263 0.22561
 C61 C 0.95873 0.03564 0.26977
 C62 C 0.95829 0.08149 0.28923
 C63 C 0.99820 -0.03604 0.18388
 C64 C 0.95785 -0.05728 0.13515
 C65 C 0.95686 -0.10226 0.09170
 C66 C 0.99771 -0.12510 0.07855
 C67 C 1.03867 -0.10510 0.11994
 C68 C 1.03812 -0.06126 0.18183
 H69 H 0.99954 0.13905 0.31089
 H70 H 1.07037 0.02118 0.16857
 H71 H 0.92769 0.01803 0.28776
 H72 H 0.92758 -0.03868 0.12078
 H73 H 0.99790 -0.15852 0.02625
 H74 H 1.06910 -0.04648 0.22159
 C75 C 0.50282 0.62414 0.43220
 C76 C 0.54368 0.60132 0.41804
 C77 C 0.54274 0.55650 0.37097
 C78 C 0.50240 0.53562 0.31945
 C79 C 0.46250 0.56087 0.32348
 C80 C 0.46193 0.60438 0.38873
 C81 C 0.50143 0.48726 0.27199
 C82 C 0.46066 0.46307 0.28171
 C83 C 0.45956 0.41811 0.23701
 C84 C 0.50046 0.39645 0.19981
 C85 C 0.54180 0.41855 0.20199
 C86 C 0.54161 0.46433 0.22502
 H87 H 0.50260 0.65750 0.48516
 H88 H 0.57301 0.53776 0.38378
 H89 H 0.43158 0.54641 0.28152
 H90 H 0.43005 0.47864 0.32970
 H91 H 0.50026 0.36126 0.17652
 H92 H 0.57273 0.48193 0.20828
 C93 C 0.00218 0.37508 -0.06651
 C94 C -0.03870 0.39482 -0.10639
 C95 C -0.03813 0.43848 -0.16340
 C96 C 0.00171 0.46388 -0.16098
 C97 C 0.04188 0.44319 -0.11071
 C98 C 0.04287 0.39829 -0.07222
 C99 C 0.00097 0.51215 -0.20186
 C100 C 0.04124 0.53481 -0.24764
 C101 C 0.04161 0.58044 -0.26878
 C102 C 0.00037 0.60258 -0.26771
 C103 C -0.04061 0.58114 -0.23130
 C104 C -0.03969 0.53638 -0.18975
 H105 H 0.00205 0.34151 -0.02085
 H106 H -0.06898 0.45294 -0.20360
 H107 H 0.07191 0.46220 -0.09320
 H108 H 0.07228 0.51708 -0.26542
 H109 H 0.00028 0.63762 -0.28973
 H110 H -0.07037 0.52090 -0.14365
 C111 C 0.50003 0.89811 0.77281
 C112 C 0.45871 0.92015 0.77308
 C113 C 0.45901 0.96574 0.75013
 C114 C 0.49918 0.98844 0.70324
 C115 C 0.53988 0.96423 0.69143
 C116 C 0.54095 0.91958 0.73480
 C117 C 0.49828 1.03663 0.66001
 C118 C 0.53820 1.06200 0.65770
 C119 C 0.53869 1.10530 0.59627
 C120 C 0.49779 1.12470 0.55428
 C121 C 0.45697 1.10186 0.56754
 C122 C 0.45790 1.05727 0.61139
 H123 H 0.50023 0.86319 0.79734
 H124 H 0.42797 0.98342 0.76757
 H125 H 0.57049 0.97965 0.64452
 H126 H 0.56923 1.04776 0.69724
 H127 H 0.49793 1.15775 0.50298
 H128 H 0.42758 1.03844 0.59799
 C129 C 1.15259 0.16277 0.26772
 C130 C 1.16557 0.11463 0.23032
 C131 C 1.12963 0.08673 0.22495
 C132 C 1.08353 0.10962 0.25725
 C133 C 1.08809 0.13420 0.44006
 C134 C 1.12385 0.16195 0.44571
 C135 C 1.11916 0.17358 0.12109
 C136 C 1.08350 0.14581 0.11478
 H137 H 1.20011 0.10322 0.21454
 H138 H 1.13468 0.05181 0.20609
 H139 H 1.06536 0.12958 0.55685
 H140 H 1.13124 0.18070 0.56759
 H141 H 1.12333 0.20072 0.02880
 H142 H 1.05764 0.14908 0.01574
 C143 C 0.65467 0.67147 0.58228
 C144 C 0.66827 0.62803 0.48705
 C145 C 0.63257 0.60381 0.42942
 C146 C 0.58623 0.62535 0.47333
 C147 C 0.58560 0.63440 0.67877
 C148 C 0.62103 0.65838 0.73573
 C149 C 0.62608 0.69492 0.44495
 C150 C 0.59076 0.67084 0.38700
 H151 H 0.70298 0.61806 0.46041
 H152 H 0.63765 0.57369 0.35128
 H153 H 0.55941 0.62258 0.77227
 H154 H 0.62460 0.66705 0.87787
 H155 H 0.63404 0.72700 0.39141
 H156 H 0.56878 0.68262 0.28431
 C157 C -0.15133 0.32455 0.05917
 C158 C -0.11866 0.29891 -0.06932
 C159 C -0.08272 0.32281 -0.13064
 C160 C -0.08191 0.37025 -0.05567
 C161 C -0.12782 0.38926 -0.10763
 C162 C -0.16401 0.36518 -0.04739
 C163 C -0.12201 0.34217 0.21143
 C164 C -0.08614 0.36592 0.15154
 H165 H -0.12411 0.26526 -0.11338
 H166 H -0.05774 0.30952 -0.22771
 H167 H -0.13233 0.41782 -0.18972
 H168 H -0.19842 0.37376 -0.07624
 H169 H -0.12874 0.33674 0.35492
 H170 H -0.06273 0.38072 0.24434
 C171 C 0.34693 0.83921 0.78967
 C172 C 0.38030 0.83109 0.62915
 C173 C 0.41582 0.85897 0.62469
 C174 C 0.41577 0.89264 0.78270
 C175 C 0.36955 0.91572 0.77334
 C176 C 0.33375 0.88760 0.77672
 C177 C 0.37555 0.83713 0.95877
 C178 C 0.41134 0.86508 0.95518
 H179 H 0.37579 0.80620 0.52455
 H180 H 0.44143 0.85772 0.51574
 H181 H 0.36433 0.95067 0.76473
 H182 H 0.29921 0.89882 0.77041
 H183 H 0.36812 0.81602 1.07284
 H184 H 0.43411 0.86784 1.06655
 C185 C -0.15230 0.66152 -0.24580
 C186 C -0.16566 0.61385 -0.20726
 C187 C -0.12987 0.58589 -0.20080
 C188 C -0.08359 0.60839 -0.23369
 C189 C -0.08799 0.63104 -0.41687
 C190 C -0.12349 0.65881 -0.42308
 C191 C -0.11903 0.67366 -0.09889
 C192 C -0.08342 0.64601 -0.09218
 H193 H -0.20027 0.60294 -0.18788
 H194 H -0.13502 0.55139 -0.17578
 H195 H -0.06532 0.62511 -0.53351
 H196 H -0.13070 0.67644 -0.54496
 H197 H -0.12372 0.70099 -0.00418
 H198 H -0.05781 0.64999 0.00798
 C199 C 0.34595 1.17122 0.41146
 C200 C 0.33245 1.12782 0.50059
 C201 C 0.36815 1.10388 0.55549
 C202 C 0.41443 1.12564 0.51509
 C203 C 0.41518 1.13445 0.31070
 C204 C 0.37970 1.15817 0.25654
 C205 C 0.37441 1.19506 0.55214
 C206 C 0.40974 1.17123 0.60742
 H207 H 0.29778 1.11739 0.52304
 H208 H 0.36308 1.07372 0.62875
 H209 H 0.44148 1.12271 0.21583
 H210 H 0.37615 1.16669 0.11558
 H211 H 0.36649 1.22732 0.60899
 H212 H 0.43165 1.18326 0.71191
 C213 C 1.15180 -0.17491 -0.05476
 C214 C 1.12278 -0.15679 -0.20500
 C215 C 1.08676 -0.13327 -0.14202
 C216 C 1.08195 -0.12956 0.06570
 C217 C 1.08249 -0.17719 0.13102
 C218 C 1.11865 -0.20085 0.06732
 C219 C 1.16410 -0.13452 0.06061
 C220 C 1.12771 -0.11072 0.12411
 H221 H 1.12973 -0.16166 -0.34948
 H222 H 1.06361 -0.11826 -0.23291
 H223 H 1.05722 -0.19077 0.22410
 H224 H 1.12403 -0.23442 0.10706
 H225 H 1.19838 -0.12593 0.09313
 H226 H 1.13186 -0.08272 0.21412
 C227 C 0.65268 0.33704 0.19930
 C228 C 0.61816 0.33062 0.35611
 C229 C 0.58298 0.35873 0.35624
 C230 C 0.58452 0.39090 0.19776
 C231 C 0.63078 0.41385 0.21292
 C232 C 0.66628 0.38551 0.21328
 C233 C 0.62531 0.33352 0.02687
 C234 C 0.58990 0.36172 0.02591
 H235 H 0.62162 0.30665 0.46129
 H236 H 0.55665 0.35866 0.46240
 H237 H 0.63612 0.44883 0.22580
 H238 H 0.70080 0.39657 0.22538
 H239 H 0.63329 0.31123 -0.08594
 H240 H 0.56800 0.36359 -0.08828
 C241 C 0.84569 -0.17171 -0.07631
 C242 C 0.87374 -0.19533 0.06288
 C243 C 0.90911 -0.17151 0.12240
 C244 C 0.91431 -0.12617 0.03550
 C245 C 0.91553 -0.13542 -0.16968
 C246 C 0.88004 -0.15905 -0.22831
 C247 C 0.83231 -0.12805 0.01754
 C248 C 0.86808 -0.10415 0.07648
 H249 H 0.86545 -0.22733 0.11645
 H250 H 0.93067 -0.18340 0.22636
 H251 H 0.94219 -0.12401 -0.26189
 H252 H 0.87697 -0.16765 -0.37075
 H253 H 0.79769 -0.11749 0.04145
 H254 H 0.86304 -0.07390 0.15361
 C255 C 0.34744 0.33762 0.22863
 C256 C 0.33444 0.38578 0.26445
 C257 C 0.37038 0.41375 0.26768
 C258 C 0.41647 0.39077 0.23579
 C259 C 0.41661 0.35495 0.37968
 C260 C 0.38091 0.32721 0.37515
 C261 C 0.37591 0.33801 0.05033
 C262 C 0.41168 0.36579 0.05412
 H263 H 0.29988 0.39705 0.28170
 H264 H 0.36539 0.44868 0.28641
 H265 H 0.44243 0.35210 0.47913
 H266 H 0.37650 0.30063 0.46989
 H267 H 0.36824 0.31896 -0.07036
 H268 H 0.43417 0.37031 -0.06337
 C269 C 0.15297 0.66176 -0.28296
 C270 C 0.12421 0.66409 -0.45147
 C271 C 0.08864 0.63593 -0.44865
 C272 C 0.08449 0.60795 -0.27727
 C273 C 0.13081 0.58505 -0.26932
 C274 C 0.16646 0.61337 -0.27215
 C275 C 0.11967 0.66931 -0.12188
 C276 C 0.08437 0.64121 -0.11783
 H277 H 0.13135 0.68561 -0.56438
 H278 H 0.06577 0.63333 -0.55969
 H279 H 0.13615 0.55007 -0.26317
 H280 H 0.20110 0.60231 -0.26819
 H281 H 0.12421 0.69384 -0.01610
 H282 H 0.05907 0.64184 -0.00759
 C283 C 0.65152 1.17491 0.42722
 C284 C 0.66389 1.13567 0.54306
 C285 C 0.62756 1.11196 0.60486
 C286 C 0.58187 1.12972 0.54425
 C287 C 0.58179 1.17790 0.61022
 C288 C 0.61782 1.20150 0.54809
 C289 C 0.62315 1.15517 0.27544
 C290 C 0.58723 1.13170 0.33662
 H291 H 0.69809 1.12800 0.57849
 H292 H 0.63167 1.08491 0.69559
 H293 H 0.55624 1.19193 0.70294
 H294 H 0.62272 1.23552 0.58770
 H295 H 0.63047 1.15893 0.13129
 H296 H 0.56457 1.11551 0.24445
 C297 C 0.15278 0.32746 0.08494
 C298 C 0.11670 0.33678 0.23561
 C299 C 0.08174 0.36127 0.18208
 C300 C 0.08512 0.37426 -0.01814
 C301 C 0.13135 0.39734 -0.04036
 C302 C 0.16659 0.37278 0.01467
 C303 C 0.12683 0.30618 -0.06981
 C304 C 0.09196 0.33074 -0.12502
 H305 H 0.11834 0.32536 0.37407
 H306 H 0.05404 0.37080 0.27454
 H307 H 0.13698 0.42896 -0.10160
 H308 H 0.20124 0.38400 0.00341
 H309 H 0.13585 0.27503 -0.13443
 H310 H 0.07151 0.32047 -0.23701
 C311 C 0.65320 0.83997 0.75469
 C312 C 0.66623 0.88753 0.71240
 C313 C 0.63027 0.91519 0.70339
 C314 C 0.58413 0.89257 0.73857
 C315 C 0.58422 0.85441 0.59935
 C316 C 0.62001 0.82701 0.60833
 C317 C 0.62440 0.84324 0.93182
 C318 C 0.58872 0.87074 0.92354
 H319 H 0.70074 0.89844 0.68982
 H320 H 0.63521 0.94941 0.67211
 H321 H 0.55899 0.85020 0.49759
 H322 H 0.62510 0.79953 0.51457
 H323 H 0.63171 0.82610 1.05491
 H324 H 0.56598 0.87696 1.03983
 C325 C 0.84660 0.16194 0.29188
 C326 C 0.87423 0.16611 0.46366
 C327 C 0.90999 0.13832 0.46460
 C328 C 0.91537 0.10882 0.29371
 C329 C 0.86928 0.08539 0.28083
 C330 C 0.83351 0.11335 0.27997
 C331 C 0.88087 0.16846 0.13421
 C332 C 0.91634 0.14070 0.13420
 H333 H 0.86648 0.18888 0.57504
 H334 H 0.93244 0.13730 0.57718
 H335 H 0.86407 0.05032 0.27526
 H336 H 0.79897 0.10188 0.27475
 H337 H 0.87715 0.19237 0.02876
 H338 H 0.94263 0.14098 0.02785
 C339 C 0.34902 0.67461 0.56079
 C340 C 0.37796 0.65705 0.71167
 C341 C 0.41392 0.63329 0.64982
 C342 C 0.41866 0.62892 0.44201
 C343 C 0.37284 0.60994 0.38471
 C344 C 0.33654 0.63392 0.44788
 C345 C 0.38199 0.70016 0.43673
 C346 C 0.41811 0.67630 0.37388
 H347 H 0.37090 0.66246 0.85576
 H348 H 0.43703 0.61853 0.74155
 H349 H 0.36854 0.58189 0.29511
 H350 H 0.30225 0.62559 0.41465
 H351 H 0.37631 0.73345 0.39413
 H352 H 0.44310 0.68942 0.27835
   
