data_POSCAR
  _audit_creation_date              2014-09-24
  _audit_creation_method            'ToBaCCo'
  _symmetry_space_group_name_H-M    'P1'
  _symmetry_Int_Tables_number       1
  _symmetry_cell_setting            triclinic
  loop_
  _symmetry_equiv_pos_as_xyz
 x,y,z
_cell_length_a 30.0983
_cell_length_b 30.3296
_cell_length_c 30.8079
_cell_angle_alpha 88.491100
_cell_angle_beta 91.870200
_cell_angle_gamma 89.669300
loop_
  _atom_site_label
  _atom_site_type_symbol
  _atom_site_fract_x
  _atom_site_fract_y
  _atom_site_fract_z
N1 N 0.20454 0.19720 0.20610
 N2 N -0.17982 0.80737 0.18925
 N3 N -0.18796 0.17649 -0.18788
 N4 N 0.20169 0.79233 -0.20073
 N5 N 0.21436 1.21273 0.78598
 N6 N 0.81705 0.81916 0.81594
 N7 N 0.17559 0.80870 1.19334
 N8 N 0.78952 1.20664 1.19826
 N9 N 0.55267 0.94815 0.93413
 N10 N 0.58737 0.94150 0.90989
 N11 N 0.45483 0.91997 0.94977
 N12 N 0.42069 0.89509 0.93852
 N13 N 0.45998 0.95192 0.92073
 N14 N 0.43007 0.94918 0.88862
 N15 N 0.54817 0.91547 0.96246
 N16 N 0.57951 0.88539 0.95777
 C17 C 0.60391 0.90229 0.92505
 C18 C 0.40576 0.91365 0.90025
 N19 N 0.44086 0.94273 1.07367
 N20 N 0.40528 0.93547 1.09679
 N21 N 0.53776 0.91062 1.05614
 N22 N 0.57332 0.88537 1.06409
 N23 N 0.53333 0.93878 1.08745
 N24 N 0.56498 0.93300 1.11767
 N25 N 0.44357 0.91395 1.04271
 N26 N 0.40935 0.88676 1.04357
 Mn27 Mn 0.49612 0.91429 1.00280
 C28 C 0.38571 0.90063 1.07750
 C29 C 0.58954 0.89945 1.10296
 N30 N 0.46240 1.04719 0.92480
 N31 N 0.42963 1.05513 0.89583
 N32 N 0.55274 1.07107 0.96932
 N33 N 0.58543 1.09972 0.96784
 N34 N 0.55567 1.04249 0.93832
 N35 N 0.59107 1.05038 0.91525
 N36 N 0.46057 1.07514 0.95648
 N37 N 0.42661 1.10225 0.95056
 Mn38 Mn 0.50769 0.99747 0.92893
 C39 C 0.40780 1.08975 0.91262
 C40 C 0.60924 1.08609 0.93425
 N41 N 0.53715 1.03339 1.09019
 N42 N 0.56773 1.03669 1.12175
 N43 N 0.44992 1.07016 1.04752
 N44 N 0.42099 1.10226 1.05171
 N45 N 0.44386 1.03819 1.07620
 N46 N 0.40992 1.04768 1.10061
 N47 N 0.54144 1.06538 1.06115
 N48 N 0.57419 1.09170 1.07224
 Mn49 Mn 0.48859 0.98820 1.08240
 Mn50 Mn 0.50129 1.07063 1.00859
 Cl51 Cl 0.49840 0.99242 1.00568
 C52 C 0.59037 1.07339 1.10990
 C53 C 0.39599 1.08769 1.08448
 N54 N 0.07290 0.44610 -0.05481
 N55 N 0.10161 0.41409 -0.06203
 N56 N 0.03636 0.53594 -0.09051
 N57 N 0.03798 0.56777 -0.12046
 N58 N 0.07054 0.53819 -0.06310
 N59 N 0.09672 0.57103 -0.07388
 N60 N 0.03803 0.44339 -0.08128
 N61 N 0.04154 0.40938 -0.10663
 C62 C 0.08117 0.39127 -0.09422
 C63 C 0.07593 0.58915 -0.10959
 N64 N -0.08548 0.53811 -0.05185
 N65 N -0.11162 0.57318 -0.05848
 N66 N -0.05664 0.44274 -0.07458
 N67 N -0.06456 0.40739 -0.09756
 N68 N -0.08356 0.44454 -0.04204
 N69 N -0.11013 0.41006 -0.04149
 N70 N -0.05832 0.53455 -0.08406
 N71 N -0.06558 0.56604 -0.11364
 Mn72 Mn -0.01016 0.48909 -0.08298
 C73 C -0.09891 0.58987 -0.09755
 C74 C -0.09790 0.38732 -0.07641
 N75 N 0.08132 0.54592 0.03006
 N76 N 0.10985 0.57894 0.03212
 N77 N 0.05645 0.45518 0.07085
 N78 N 0.06532 0.42215 0.09880
 N79 N 0.08299 0.45339 0.03790
 N80 N 0.10998 0.41918 0.04206
 N81 N 0.05316 0.54810 0.06165
 N82 N 0.06118 0.58284 0.08547
 Mn83 Mn 0.07747 0.49596 -0.01246
 C84 C 0.09658 0.60180 0.06677
 C85 C 0.09889 0.40015 0.08020
 N86 N -0.07312 0.45140 0.05055
 N87 N -0.09938 0.41861 0.06190
 N88 N -0.04212 0.54716 0.06899
 N89 N -0.04819 0.58091 0.09459
 N90 N -0.07595 0.54372 0.04129
 N91 N -0.10605 0.57434 0.04752
 N92 N -0.03953 0.45449 0.07863
 N93 N -0.04248 0.42441 0.11021
 Mn94 Mn -0.08009 0.49446 -0.00050
 Mn95 Mn 0.00712 0.50127 0.07063
 Cl96 Cl -0.00144 0.49522 -0.00622
 C97 C -0.07988 0.40214 0.09918
 C98 C -0.08826 0.59749 0.08055
 N99 N 1.05054 0.07806 0.54763
 N100 N 1.06044 0.10415 0.58013
 N101 N 1.07528 0.05130 0.45501
 N102 N 1.10101 0.05788 0.42156
 N103 N 1.04589 0.08317 0.45690
 N104 N 1.04994 0.11187 0.42464
 N105 N 1.07958 0.04581 0.54617
 N106 N 1.10966 0.04849 0.57805
 C107 C 1.09720 0.08498 0.59895
 C108 C 1.08440 0.09575 0.40304
 N109 N 1.03906 -0.07374 0.45274
 N110 N 1.04208 -0.09866 0.41815
 N111 N 1.07482 -0.04755 0.54379
 N112 N 1.10218 -0.05232 0.57776
 N113 N 1.04301 -0.07699 0.54492
 N114 N 1.04862 -0.10337 0.57966
 N115 N 1.07013 -0.04344 0.45250
 N116 N 1.09450 -0.04647 0.41793
 Mn117 Mn 1.07536 0.00136 0.49917
 C118 C 1.07699 -0.08112 0.39684
 C119 C 1.08582 -0.08730 0.59962
 N120 N 0.95216 0.08882 0.45713
 N121 N 0.94887 0.11786 0.42463
 N122 N 0.92199 0.05554 0.54692
 N123 N 0.89794 0.05948 0.58175
 N124 N 0.95548 0.08304 0.54816
 N125 N 0.95560 0.10604 0.58376
 N126 N 0.91933 0.06061 0.45537
 N127 N 0.89214 0.07033 0.42180
 Mn128 Mn 1.00095 0.08360 0.50264
 C129 C 0.91127 0.10615 0.40298
 C130 C 0.91945 0.09120 0.60419
 N131 N 0.94581 -0.07130 0.54620
 N132 N 0.93852 -0.09874 0.57949
 N133 N 0.91431 -0.03490 0.45336
 N134 N 0.88672 -0.03647 0.41922
 N135 N 0.94247 -0.06828 0.45404
 N136 N 0.93438 -0.09363 0.42050
 N137 N 0.91617 -0.03919 0.54473
 N138 N 0.88802 -0.04412 0.57636
 Mn139 Mn 0.99253 -0.07343 0.49964
 Mn140 Mn 0.91734 0.01049 0.49991
 Cl141 Cl 0.99647 0.00531 0.50032
 C142 C 0.90214 -0.08124 0.59794
 C143 C 0.89953 -0.07338 0.39914
 C144 C 1.13082 0.16014 0.29161
 C145 C 1.16024 0.13573 0.31944
 N146 N 1.20410 0.13420 0.31082
 C147 C 1.21973 0.15548 0.27518
 C148 C 1.18999 0.17855 0.24647
 N149 N 1.14623 0.18045 0.25566
 N150 N 1.08723 0.16288 0.30075
 C151 C 1.07161 0.14220 0.33658
 C152 C 1.10071 0.11703 0.36393
 N153 N 1.14447 0.11430 0.35481
 H154 H 1.25480 0.15365 0.26867
 H155 H 1.03678 0.14505 0.34347
 C156 C 0.84362 -0.11906 0.28094
 C157 C 0.86582 -0.14802 0.31075
 N158 N 0.86980 -0.19123 0.30145
 C159 C 0.85356 -0.20676 0.26321
 C160 C 0.83333 -0.17757 0.23197
 N161 N 0.82824 -0.13431 0.24211
 N162 N 0.83871 -0.07599 0.29099
 C163 C 0.85539 -0.06054 0.32929
 C164 C 0.87893 -0.08924 0.35849
 N165 N 0.88336 -0.13242 0.34844
 H166 H 0.85712 -0.24150 0.25694
 H167 H 0.85128 -0.02602 0.33636
 C168 C 0.88165 0.14066 0.72374
 C169 C 0.84978 0.12309 0.69476
 N170 N 0.80620 0.12402 0.70457
 C171 C 0.79304 0.14161 0.74218
 C172 C 0.82497 0.15850 0.77161
 N173 N 0.86861 0.15753 0.76155
 N174 N 0.92504 0.14122 0.71329
 C175 C 0.93804 0.12514 0.67500
 C176 C 0.90630 0.10718 0.64617
 N177 N 0.86284 0.10639 0.65680
 H178 H 0.75805 0.14242 0.74917
 H179 H 0.97285 0.12619 0.66723
 C180 C 1.15226 -0.13258 0.71488
 C181 C 1.13716 -0.16257 0.68369
 N182 N 1.14651 -0.20610 0.68966
 C183 C 1.16939 -0.22119 0.72582
 C184 C 1.18288 -0.19157 0.75817
 N185 N 1.17439 -0.14772 0.75148
 N186 N 1.14417 -0.08886 0.70820
 C187 C 1.12181 -0.07376 0.67171
 C188 C 1.10606 -0.10374 0.64085
 N189 N 1.11418 -0.14757 0.64753
 H190 H 1.17620 -0.25615 0.72976
 H191 H 1.11639 -0.03864 0.66675
 C192 C 0.29691 1.16597 1.13807
 C193 C 0.29461 1.11966 1.14069
 N194 N 0.26044 1.10011 1.16105
 C195 C 0.22919 1.12473 1.18015
 C196 C 0.23297 1.17108 1.18012
 N197 N 0.26640 1.19060 1.15821
 N198 N 0.33053 1.18550 1.11676
 C199 C 0.36227 1.16082 1.09840
 C200 C 0.36096 1.11454 1.10251
 N201 N 0.32693 1.09499 1.12337
 H202 H 0.20241 1.10823 1.19647
 H203 H 0.38892 1.17722 1.08175
 C204 C 0.29858 0.86157 0.82637
 C205 C 0.30016 0.85769 0.87194
 N206 N 0.26729 0.83622 0.89258
 C207 C 0.23357 0.81714 0.86974
 C208 C 0.23332 0.81815 0.82393
 N209 N 0.26553 0.84134 0.80334
 N210 N 0.33099 0.88423 0.80594
 C211 C 0.36520 0.90260 0.82901
 C212 C 0.36780 0.89699 0.87448
 N213 N 0.33492 0.87485 0.89483
 H214 H 0.20787 0.80015 0.88719
 H215 H 0.39082 0.92019 0.81195
 C216 C 0.70828 0.85608 1.16864
 C217 C 0.70297 0.85242 1.12340
 N218 N 0.73697 0.83639 1.10055
 C219 C 0.77573 0.82308 1.12087
 C220 C 0.78074 0.82494 1.16653
 N221 N 0.74672 0.84202 1.18915
 N222 N 0.67480 0.87344 1.19133
 C223 C 0.63627 0.88729 1.17089
 C224 C 0.63047 0.88295 1.12569
 N225 N 0.66416 0.86556 1.10298
 H226 H 0.80225 0.81084 1.10152
 H227 H 0.61026 0.90132 1.18979
 C228 C 0.71769 1.15355 0.88206
 C229 C 0.71366 1.10768 0.87833
 N230 N 0.74421 1.08500 0.85639
 C231 C 0.77796 1.10629 0.83681
 C232 C 0.78052 1.15267 0.83791
 N233 N 0.75057 1.17504 0.86134
 N234 N 0.68767 1.17603 0.90501
 C235 C 0.65331 1.15473 0.92376
 C236 C 0.64810 1.10919 0.91819
 N237 N 0.67866 1.08668 0.89585
 H238 H 0.80181 1.08732 0.81941
 H239 H 0.62943 1.17342 0.94144
 C240 C 0.16282 0.28439 0.12956
 C241 C 0.14427 0.31456 0.15784
 N242 N 0.14823 0.30690 0.20133
 C243 C 0.16908 0.27001 0.21786
 C244 C 0.18608 0.23862 0.18962
 N245 N 0.18290 0.24711 0.14599
 N246 N 0.16006 0.29264 0.08610
 C247 C 0.13955 0.32970 0.06958
 C248 C 0.12021 0.35955 0.09773
 N249 N 0.12305 0.35126 0.14134
 H250 H 0.17191 0.26506 0.25274
 H251 H 0.13797 0.33557 0.03475
 C252 C -0.15485 0.26801 -0.11725
 C253 C -0.13403 0.29657 -0.14669
 N254 N -0.13267 0.28614 -0.18910
 C255 C -0.15063 0.24804 -0.20347
 C256 C -0.17016 0.21819 -0.17388
 N257 N -0.17200 0.22942 -0.13137
 N258 N -0.15756 0.27937 -0.07506
 C259 C -0.14016 0.31799 -0.06099
 C260 C -0.11833 0.34605 -0.09029
 N261 N -0.11586 0.33457 -0.13251
 H262 H -0.14970 0.24143 -0.23773
 H263 H -0.14261 0.32629 -0.02719
 C264 C 0.12515 0.70330 -0.17093
 C265 C 0.15339 0.67486 -0.14606
 N266 N 0.19715 0.68453 -0.14096
 C267 C 0.21393 0.72187 -0.15914
 C268 C 0.18543 0.75143 -0.18263
 N269 N 0.14168 0.74103 -0.18824
 N270 N 0.08159 0.69295 -0.17695
 C271 C 0.06485 0.65553 -0.15872
 C272 C 0.09284 0.62785 -0.13266
 N273 N 0.13650 0.63817 -0.12711
 H274 H 0.24904 0.72868 -0.15499
 H275 H 0.02992 0.64815 -0.16352
 C276 C -0.15663 0.70412 0.13368
 C277 C -0.11003 0.70152 0.13742
 N278 N -0.08716 0.73433 0.15708
 C279 C -0.10881 0.76941 0.17345
 C280 C -0.15560 0.77152 0.17073
 N281 N -0.17822 0.73864 0.15066
 N282 N -0.17960 0.67221 0.11292
 C283 C -0.15813 0.63770 0.09563
 C284 C -0.11155 0.63450 0.09982
 N285 N -0.08848 0.66657 0.12076
 H286 H -0.08981 0.79529 0.18869
 H287 H -0.17733 0.61275 0.07911
 C288 C 1.16841 0.13526 0.70648
 C289 C 1.14050 0.16284 0.68031
 N290 N 1.13775 0.20643 0.68886
 C291 C 1.16150 0.22368 0.72262
 C292 C 1.18888 0.19595 0.74954
 N293 N 1.19152 0.15231 0.74046
 N294 N 1.17247 0.09199 0.69717
 C295 C 1.14985 0.07496 0.66270
 C296 C 1.12145 0.10234 0.63671
 N297 N 1.11735 0.14573 0.64623
 H298 H 1.15929 0.25869 0.72814
 H299 H 1.15379 0.04036 0.65584
 C300 C 0.83680 -0.12836 0.71015
 C301 C 0.88125 -0.13998 0.70373
 N302 N 0.90363 -0.16444 0.73488
 C303 C 0.88370 -0.17808 0.77195
 C304 C 0.83853 -0.16714 0.77871
 N305 N 0.81664 -0.14230 0.74695
 N306 N 0.81467 -0.10267 0.67981
 C307 C 0.83497 -0.08785 0.64346
 C308 C 0.87952 -0.09946 0.63658
 N309 N 0.90164 -0.12555 0.66706
 H310 H 0.90353 -0.19617 0.79638
 H311 H 0.81641 -0.06712 0.62008
 C312 C 1.13162 -0.12101 0.27886
 C313 C 1.11622 -0.15266 0.30884
 N314 N 1.12165 -0.19615 0.30082
 C315 C 1.14146 -0.20941 0.26419
 C316 C 1.15617 -0.17784 0.23354
 N317 N 1.15076 -0.13422 0.24189
 N318 N 1.12779 -0.07756 0.28753
 C319 C 1.10954 -0.06425 0.32485
 C320 C 1.09364 -0.09569 0.35485
 N321 N 1.09728 -0.13938 0.34600
 H322 H 1.14554 -0.24429 0.25880
 H323 H 1.10748 -0.02935 0.33112
 C324 C 0.86427 0.17229 0.28801
 C325 C 0.83457 0.15194 0.31638
 N326 N 0.79039 0.15418 0.30704
 C327 C 0.77452 0.17426 0.26979
 C328 C 0.80427 0.19181 0.23903
 N329 N 0.84860 0.19137 0.25006
 N330 N 0.90842 0.17156 0.29833
 C331 C 0.92416 0.15099 0.33550
 C332 C 0.89464 0.12915 0.36310
 N333 N 0.85036 0.13040 0.35295
 H334 H 0.73888 0.17614 0.26421
 H335 H 0.95945 0.15096 0.34304
 C336 C 0.13434 0.28524 -0.16202
 C337 C 0.16264 0.31397 -0.13940
 N338 N 0.20734 0.30903 -0.14185
 C339 C 0.22501 0.27667 -0.16590
 C340 C 0.19672 0.24768 -0.18852
 N341 N 0.15193 0.25281 -0.18571
 N342 N 0.08969 0.29073 -0.16069
 C343 C 0.07194 0.32400 -0.13812
 C344 C 0.10007 0.35303 -0.11556
 N345 N 0.14493 0.34715 -0.11651
 H346 H 0.26074 0.27378 -0.16766
 H347 H 0.03617 0.32795 -0.13806
 C348 C -0.13684 0.29793 0.17210
 C349 C -0.14287 0.30118 0.12678
 N350 N -0.16780 0.27085 0.10593
 C351 C -0.18849 0.23826 0.12835
 C352 C -0.18579 0.23647 0.17443
 N353 N -0.15854 0.26600 0.19486
 N354 N -0.11038 0.32759 0.19262
 C355 C -0.09030 0.36066 0.16987
 C356 C -0.09797 0.36500 0.12467
 N357 N -0.12392 0.33481 0.10427
 H358 H -0.20699 0.21407 0.11013
 H359 H -0.06975 0.38410 0.18704
 C360 C -0.14173 0.70734 -0.16335
 C361 C -0.14489 0.70296 -0.11806
 N362 N -0.15908 0.73780 -0.09543
 C363 C -0.17091 0.77657 -0.11599
 C364 C -0.16904 0.78103 -0.16184
 N365 N -0.15391 0.74586 -0.18400
 N366 N -0.12628 0.67309 -0.18600
 C367 C -0.11352 0.63471 -0.16541
 C368 C -0.11667 0.63001 -0.12005
 N369 N -0.13245 0.66439 -0.09734
 H370 H -0.18096 0.80392 -0.09662
 H371 H -0.10075 0.60814 -0.18431
 C372 C 0.15870 0.71258 0.12272
 C373 C 0.11307 0.70510 0.12673
 N374 N 0.08853 0.73305 0.14999
 C375 C 0.10764 0.76771 0.17031
 C376 C 0.15395 0.77429 0.16854
 N377 N 0.17819 0.74656 0.14407
 N378 N 0.18285 0.68514 0.09827
 C379 C 0.16350 0.65020 0.07822
 C380 C 0.11815 0.64163 0.08379
 N381 N 0.09408 0.66961 0.10783
 H382 H 0.08691 0.78953 0.18824
 H383 H 0.18360 0.62852 0.05944
 C384 C 0.29457 1.15772 0.86217
 C385 C 0.32494 1.13938 0.83389
 N386 N 0.31894 1.14636 0.79038
 C387 C 0.28381 1.17060 0.77392
 C388 C 0.25299 1.18842 0.80222
 N389 N 0.25941 1.18146 0.84576
 N390 N 0.30094 1.15199 0.90566
 C391 C 0.33664 1.12909 0.92232
 C392 C 0.36721 1.11070 0.89426
 N393 N 0.36058 1.11606 0.85050
 H394 H 0.27990 1.17595 0.73914
 H395 H 0.34127 1.12551 0.95724
 C396 C 0.26694 0.84201 1.12140
 C397 C 0.29345 0.86768 1.14900
 N398 N 0.28143 0.87297 1.19061
 C399 C 0.24392 0.85410 1.20593
 C400 C 0.21620 0.82907 1.17818
 N401 N 0.22897 0.82372 1.13642
 N402 N 0.27985 0.83544 1.08018
 C403 C 0.31804 0.85347 1.06530
 C404 C 0.34435 0.87991 1.09263
 N405 N 0.33119 0.88634 1.13396
 H406 H 0.23632 0.85834 1.23960
 H407 H 0.32746 0.84769 1.03231
 C408 C 0.70318 1.12792 1.17144
 C409 C 0.67439 1.15386 1.14471
 N410 N 0.68336 1.19711 1.13745
 C411 C 0.72044 1.21564 1.15518
 C412 C 0.75085 1.18943 1.18065
 N413 N 0.74071 1.14609 1.18834
 N414 N 0.69336 1.08488 1.17971
 C415 C 0.65614 1.06646 1.16183
 C416 C 0.62819 1.09211 1.13377
 N417 N 0.63800 1.13527 1.12611
 H418 H 0.72596 1.25055 1.14971
 H419 H 0.64928 1.03195 1.16827
 C420 C 0.71377 0.83805 0.87122
 C421 C 0.70642 0.88316 0.86333
 N422 N 0.73566 0.90641 0.83920
 C423 C 0.77197 0.88664 0.82254
 C424 C 0.77967 0.84088 0.83004
 N425 N 0.74955 0.81827 0.85428
 N426 N 0.68576 0.81486 0.89671
 C427 C 0.65052 0.83482 0.91476
 C428 C 0.64252 0.88002 0.90661
 N429 N 0.67079 0.90314 0.88085
 H430 H 0.79541 0.90709 0.80558
 H431 H 0.62872 0.81546 0.93489
   
