data_POSCAR
  _audit_creation_date              2014-09-24
  _audit_creation_method            'ToBaCCo'
  _symmetry_space_group_name_H-M    'P1'
  _symmetry_Int_Tables_number       1
  _symmetry_cell_setting            triclinic
  loop_
  _symmetry_equiv_pos_as_xyz
 x,y,z
_cell_length_a 36.6535
_cell_length_b 22.0992
_cell_length_c 12.0239
_cell_angle_alpha 89.988600
_cell_angle_beta 89.991000
_cell_angle_gamma 89.998800
loop_
  _atom_site_label
  _atom_site_type_symbol
  _atom_site_fract_x
  _atom_site_fract_y
  _atom_site_fract_z
C1 C 0.72081 0.27422 0.55973
 C2 C 0.72095 0.27398 0.44232
 C3 C 0.74983 0.24672 0.38477
 C4 C 0.77871 0.21967 0.44270
 C5 C 0.77864 0.21994 0.56023
 C6 C 0.74969 0.24717 0.61782
 H7 H 0.74966 0.24735 0.70815
 H8 H 0.74980 0.24668 0.29449
 C9 C 0.22099 0.77406 0.56017
 C10 C 0.22086 0.77414 0.44293
 C11 C 0.24958 0.74676 0.38492
 C12 C 0.27842 0.71943 0.44252
 C13 C 0.27863 0.71944 0.55984
 C14 C 0.24984 0.74674 0.61790
 H15 H 0.24986 0.74687 0.70817
 H16 H 0.24952 0.74678 0.29469
 C17 C 0.27714 0.27946 -0.56062
 C18 C 0.27720 0.27947 -0.44356
 C19 C 0.24838 0.25258 -0.38521
 C20 C 0.21934 0.22548 -0.44249
 C21 C 0.21927 0.22546 -0.56018
 C22 C 0.24821 0.25251 -0.61823
 H23 H 0.24829 0.25257 -0.70851
 H24 H 0.24864 0.25274 -0.29493
 C25 C -0.22298 0.77990 -0.56008
 C26 C -0.22301 0.77992 -0.44302
 C27 C -0.25174 0.75248 -0.38527
 C28 C -0.28051 0.72490 -0.44312
 C29 C -0.28049 0.72485 -0.56081
 C30 C -0.25165 0.75246 -0.61828
 H31 H -0.25142 0.75259 -0.70856
 H32 H -0.25163 0.75258 -0.29498
 O33 O -0.05094 0.89665 0.20478
 O34 O -0.09128 0.95027 0.09677
 C35 C -0.08366 0.91185 0.17461
 O36 O 0.05086 1.11116 0.19561
 O37 O 0.09124 1.05395 0.09414
 C38 C 0.08358 1.09529 0.16683
 O39 O -0.05112 1.10636 0.20410
 O40 O -0.09135 1.05199 0.09718
 C41 C -0.08382 1.09072 0.17460
 O42 O 0.05095 0.89122 0.19539
 O43 O 0.09131 0.94847 0.09377
 C44 C 0.08369 0.90712 0.16664
 Zr45 Zr -0.00001 0.92422 0.13862
 O46 O 0.00051 0.91523 0.31377
 O47 O -0.00104 0.82921 0.11920
 Zr48 Zr -0.00009 1.07724 0.14061
 O49 O 0.00323 1.07656 0.31644
 O50 O -0.00395 1.17285 0.13965
 O51 O -0.03252 1.00067 0.16168
 O52 O 0.03165 1.00077 0.16031
 O53 O 0.05093 0.89077 -0.19464
 O54 O 0.09126 0.94866 -0.09416
 C55 C 0.08364 0.90694 -0.16620
 O56 O -0.05101 1.10717 -0.20325
 O57 O -0.09128 1.05241 -0.09697
 C58 C -0.08370 1.09145 -0.17381
 O59 O 0.05108 1.11185 -0.19442
 O60 O 0.09142 1.05417 -0.09360
 C61 C 0.08381 1.09575 -0.16601
 O62 O -0.05108 0.89589 -0.20444
 O63 O -0.09133 0.95047 -0.09784
 C64 C -0.08379 0.91159 -0.17503
 Zr65 Zr -0.00006 0.92516 -0.14101
 O66 O 0.00389 0.92598 -0.31673
 O67 O -0.00347 0.82953 -0.14014
 Zr68 Zr 0.00000 1.07795 -0.13993
 O69 O 0.00392 1.07853 -0.31563
 O70 O -0.00392 1.17355 -0.13696
 Zr71 Zr -0.05469 1.00123 -0.00030
 Zr72 Zr 0.05458 1.00135 -0.00012
 O73 O 0.03172 1.00158 -0.16076
 O74 O -0.03265 1.00162 -0.16240
 O75 O 0.03276 0.91308 -0.00109
 O76 O -0.03185 1.08863 0.00039
 O77 O -0.03206 0.91371 -0.00103
 O78 O 0.03264 1.08957 0.00050
 H79 H 0.04804 1.00084 0.22580
 H80 H -0.04825 1.12426 0.00066
 H81 H 0.04806 1.00162 -0.22641
 H82 H -0.04859 0.87822 -0.00104
 H83 H 0.01681 1.18859 0.09578
 H84 H 0.01720 1.18911 -0.09450
 H85 H -0.01617 1.05329 -0.34491
 H86 H -0.01669 0.95028 -0.34559
 H87 H 0.01523 0.81445 -0.08764
 H88 H -0.00184 0.81215 0.19536
 H89 H 0.00730 0.95503 0.34480
 H90 H -0.01686 1.05079 0.34443
 O91 O 0.44971 0.39460 0.20159
 O92 O 0.40937 0.44825 0.09366
 C93 C 0.41697 0.40981 0.17157
 O94 O 0.55152 0.60920 0.19294
 O95 O 0.59188 0.55213 0.09123
 C96 C 0.58426 0.59340 0.16418
 O97 O 0.44957 0.60431 0.20096
 O98 O 0.40933 0.54995 0.09399
 C99 C 0.41690 0.58865 0.17137
 O100 O 0.55158 0.38925 0.19176
 O101 O 0.59190 0.44665 0.09028
 C102 C 0.58428 0.40527 0.16302
 Zr103 Zr 0.50064 0.42221 0.13520
 O104 O 0.50126 0.41305 0.31030
 O105 O 0.49960 0.32722 0.11540
 Zr106 Zr 0.50058 0.57529 0.13757
 O107 O 0.50389 0.57455 0.31340
 O108 O 0.49671 0.67090 0.13670
 O109 O 0.46815 0.49867 0.15849
 O110 O 0.53230 0.49879 0.15708
 O111 O 0.55165 0.38913 -0.19852
 O112 O 0.59193 0.44697 -0.09780
 C113 C 0.58437 0.40531 -0.17010
 O114 O 0.44956 0.60553 -0.20627
 O115 O 0.40933 0.55063 -0.10009
 C116 C 0.41686 0.58978 -0.17686
 O117 O 0.55180 0.61000 -0.19669
 O118 O 0.59218 0.55203 -0.09642
 C119 C 0.58452 0.59377 -0.16841
 O120 O 0.44963 0.39419 -0.20779
 O121 O 0.40937 0.44868 -0.10099
 C122 C 0.41694 0.40987 -0.17821
 Zr123 Zr 0.50064 0.42338 -0.14441
 O124 O 0.50453 0.42419 -0.32014
 O125 O 0.49727 0.32775 -0.14346
 Zr126 Zr 0.50061 0.57620 -0.14298
 O127 O 0.50455 0.57690 -0.31867
 O128 O 0.49667 0.67179 -0.14014
 Zr129 Zr 0.44597 0.49933 -0.00348
 Zr130 Zr 0.55519 0.49957 -0.00337
 O131 O 0.53234 0.49988 -0.16403
 O132 O 0.46799 0.49983 -0.16560
 O133 O 0.53345 0.41124 -0.00454
 O134 O 0.46879 0.58675 -0.00259
 O135 O 0.46861 0.41181 -0.00446
 O136 O 0.53326 0.58777 -0.00255
 H137 H 0.54867 0.49883 0.22259
 H138 H 0.45239 0.62238 -0.00230
 H139 H 0.54867 0.49998 -0.22969
 H140 H 0.45207 0.37633 -0.00446
 H141 H 0.51751 0.68666 0.09303
 H142 H 0.51771 0.68735 -0.09734
 H143 H 0.48442 0.55176 -0.34803
 H144 H 0.48404 0.44874 -0.34890
 H145 H 0.51613 0.31268 -0.09148
 H146 H 0.49881 0.31008 0.19150
 H147 H 0.50764 0.45301 0.34142
 H148 H 0.48376 0.54885 0.34137
 C149 C 0.30669 0.30692 0.37774
 C150 C 0.33179 0.33025 0.32910
 C151 C 0.36149 0.35787 0.27415
 C152 C 0.38689 0.38157 0.22765
 C153 C -0.19359 0.80782 0.37881
 C154 C -0.16859 0.83153 0.33063
 C155 C -0.13900 0.85952 0.27629
 C156 C -0.11366 0.88347 0.23025
 C157 C 0.69200 0.69829 0.37952
 C158 C 0.66764 0.67471 0.32774
 C159 C 0.63890 0.64680 0.26855
 C160 C 0.61412 0.62265 0.21970
 C161 C 0.19159 1.19937 0.38061
 C162 C 0.16709 1.17613 0.32922
 C163 C 0.13825 1.14854 0.27051
 C164 C 0.11341 1.12452 0.22201
 C165 C 0.69301 0.30056 -0.38169
 C166 C 0.66836 0.32400 -0.33094
 C167 C 0.63932 0.35181 -0.27293
 C168 C 0.61434 0.37595 -0.22494
 C169 C 0.19183 0.80188 -0.37749
 C170 C 0.16732 0.82536 -0.32657
 C171 C 0.13841 0.85323 -0.26858
 C172 C 0.11351 0.87747 -0.22072
 C173 C 0.30660 0.69326 -0.38219
 C174 C 0.33167 0.66984 -0.33352
 C175 C 0.36134 0.64211 -0.27860
 C176 C 0.38674 0.61828 -0.23231
 C177 C -0.19355 1.19411 -0.38079
 C178 C -0.16859 1.17095 -0.33143
 C179 C -0.13905 1.14348 -0.27598
 C180 C -0.11372 1.11980 -0.22939
 C181 C 0.69200 0.69844 -0.38362
 C182 C 0.66770 0.67496 -0.33178
 C183 C 0.63905 0.64717 -0.27248
 C184 C 0.61432 0.62305 -0.22362
 C185 C 0.19172 1.19943 -0.38256
 C186 C 0.16729 1.17627 -0.33042
 C187 C 0.13851 1.14879 -0.27076
 C188 C 0.11370 1.12489 -0.22161
 C189 C 0.30675 0.30689 -0.38251
 C190 C 0.33185 0.33020 -0.33424
 C191 C 0.36152 0.35781 -0.27975
 C192 C 0.38690 0.38155 -0.23366
 C193 C -0.19364 0.80783 -0.38141
 C194 C -0.16869 0.83145 -0.33258
 C195 C -0.13916 0.85934 -0.27736
 C196 C -0.11385 0.88322 -0.23079
 C197 C 0.30762 0.69171 0.38013
 C198 C 0.33240 0.66823 0.33055
 C199 C 0.36172 0.64053 0.27452
 C200 C 0.38692 0.61680 0.22741
 C201 C -0.19345 1.19349 0.38396
 C202 C -0.16856 1.17012 0.33435
 C203 C -0.13912 1.14252 0.27815
 C204 C -0.11387 1.11887 0.23085
 C205 C 0.69188 0.30158 0.37912
 C206 C 0.66753 0.32483 0.32712
 C207 C 0.63885 0.35237 0.26765
 C208 C 0.61410 0.37627 0.21860
 C209 C 0.19165 0.80220 0.38076
 C210 C 0.16719 0.82582 0.32956
 C211 C 0.13838 0.85376 0.27080
 C212 C 0.11356 0.87791 0.22213
   
