data_POSCAR
  _audit_creation_date              2014-09-24
  _audit_creation_method            'ToBaCCo'
  _symmetry_space_group_name_H-M    'P1'
  _symmetry_Int_Tables_number       1
  _symmetry_cell_setting            triclinic
  loop_
  _symmetry_equiv_pos_as_xyz
 x,y,z
_cell_length_a 20.3176
_cell_length_b 19.9455
_cell_length_c 50.5153
_cell_angle_alpha 87.979300
_cell_angle_beta 92.662400
_cell_angle_gamma 119.156400
loop_
  _atom_site_label
  _atom_site_type_symbol
  _atom_site_fract_x
  _atom_site_fract_y
  _atom_site_fract_z
C1 C 0.05701 0.15341 0.52436
 H2 H 0.11100 0.15490 0.52485
 C3 C 0.04647 0.20248 0.54034
 H4 H 0.09248 0.24134 0.55325
 C5 C -0.06979 0.09717 0.50814
 H6 H -0.11488 0.05598 0.49561
 C7 C -0.08287 0.14564 0.52393
 H8 H -0.13829 0.14093 0.52369
 N9 N -0.00119 0.10043 0.50933
 C10 C 0.05478 -0.08458 0.51143
 H11 H 0.06370 -0.08938 0.49080
 C12 C 0.05463 -0.13832 0.53006
 H13 H 0.06371 -0.18447 0.52379
 C14 C 0.02576 -0.02266 0.54458
 H15 H 0.01116 0.02003 0.55014
 C16 C 0.02570 -0.07450 0.56375
 H17 H 0.01239 -0.07032 0.58394
 Zn18 Zn 0.02359 0.03239 0.49265
 N19 N 0.03951 -0.02878 0.51892
 C20 C 0.17677 0.09263 0.47625
 N21 N 0.11080 0.09468 0.47341
 C22 C 0.10167 0.14141 0.45515
 C23 C 0.15902 0.18642 0.43802
 C24 C 0.23612 0.13723 0.45942
 C25 C -0.12548 -0.08013 0.47506
 C26 C -0.17639 -0.13825 0.45811
 C27 C -0.07402 -0.10784 0.42915
 C28 C -0.02624 -0.04890 0.44600
 N29 N -0.05194 -0.03656 0.46867
 H30 H 0.18276 0.05537 0.49108
 H31 H 0.04860 0.14185 0.45346
 H32 H 0.15016 0.22175 0.42306
 H33 H 0.28801 0.13438 0.46124
 H34 H -0.14420 -0.07198 0.49376
 H35 H -0.23406 -0.17320 0.46410
 H36 H -0.05136 -0.11493 0.41111
 H37 H 0.03255 -0.01520 0.44139
 C38 C 0.03902 -0.13379 0.55648
 C39 C -0.02430 0.19846 0.54048
 C40 C -0.15011 -0.15585 0.43535
 C41 C 0.22646 0.18345 0.43973
 C42 C 1.14184 0.06006 0.13250
 H43 H 1.14326 0.11465 0.13428
 C44 C 1.19142 0.05389 0.11597
 H45 H 1.23069 0.10387 0.10484
 C46 C 1.08603 -0.07235 0.14389
 H47 H 1.04432 -0.12132 0.15467
 C48 C 1.13496 -0.08110 0.12746
 H49 H 1.13068 -0.13701 0.12555
 N50 N 1.08968 -0.00267 0.14568
 C51 C 0.90128 0.04218 0.15091
 H52 H 0.89753 0.04633 0.17203
 C53 C 0.84634 0.04353 0.13342
 H54 H 0.80035 0.04920 0.14102
 C55 C 0.96261 0.02441 0.11515
 H56 H 1.00608 0.01416 0.10802
 C57 C 0.90935 0.02566 0.09711
 H58 H 0.91292 0.01745 0.07625
 Zn59 Zn 1.02315 0.01535 0.16535
 N60 N 0.95751 0.03194 0.14154
 C61 C 1.07834 0.16689 0.18625
 N62 N 1.08457 0.10193 0.18637
 C63 C 1.13763 0.09524 0.20186
 C64 C 1.18409 0.15312 0.21931
 C65 C 1.12493 0.22719 0.20321
 C66 C 0.90965 -0.13674 0.17652
 C67 C 0.86053 -0.19781 0.19264
 C68 C 0.92214 -0.11975 0.23101
 C69 C 0.96906 -0.06016 0.21427
 N70 N 0.96267 -0.06958 0.18755
 H71 H 1.03695 0.17165 0.17327
 H72 H 1.14222 0.04353 0.20115
 H73 H 1.22429 0.14567 0.23217
 H74 H 1.11935 0.27848 0.20331
 H75 H 0.90451 -0.14222 0.15519
 H76 H 0.81777 -0.25071 0.18377
 H77 H 0.92747 -0.11123 0.25223
 H78 H 1.00928 -0.00590 0.22278
 C79 C 0.84999 0.03423 0.10625
 C80 C 1.18830 -0.01729 0.11328
 C81 C 0.86712 -0.18924 0.22020
 C82 C 1.17698 0.21932 0.22052
 C83 C 0.03635 0.94633 0.87602
 H84 H -0.01971 0.89880 0.87888
 C85 C 0.09465 0.95801 0.89410
 H86 H 0.08344 0.91950 0.91102
 C87 C 0.11922 1.05455 0.85042
 H88 H 0.12810 1.09164 0.83327
 C89 C 0.17954 1.06827 0.86809
 H90 H 0.23511 1.11608 0.86461
 N91 N 0.04949 0.99408 0.85468
 C92 C -0.18408 0.89488 0.85274
 H93 H -0.19778 0.85049 0.83849
 C94 C -0.23834 0.88691 0.87058
 H95 H -0.29414 0.83729 0.86930
 C96 C -0.09547 1.01355 0.87165
 H97 H -0.03866 1.06109 0.87289
 C98 C -0.14790 1.00849 0.88949
 H99 H -0.13068 1.05330 0.90398
 Zn100 Zn -0.03492 0.97060 0.83183
 N101 N -0.11415 0.95768 0.85359
 C102 C -0.11768 0.85266 0.79469
 N103 N -0.06049 0.87900 0.81336
 C104 C -0.01515 0.84662 0.81676
 C105 C -0.02359 0.78854 0.80006
 C106 C -0.12731 0.79541 0.77726
 C107 C -0.00769 1.11933 0.81432
 C108 C -0.00376 1.17401 0.79544
 C109 C -0.00663 1.09151 0.76107
 C110 C -0.01007 1.03866 0.78057
 N111 N -0.01366 1.05175 0.80661
 H112 H -0.15218 0.88014 0.79205
 H113 H 0.03061 0.86865 0.83139
 H114 H 0.01541 0.76612 0.80217
 H115 H -0.16917 0.77927 0.76119
 H116 H -0.00860 1.13013 0.83501
 H117 H -0.00203 1.22622 0.80173
 H118 H -0.00721 1.07877 0.74037
 H119 H -0.01190 0.98626 0.77471
 C120 C -0.22006 0.94360 0.88969
 C121 C 0.16702 1.01962 0.89026
 C122 C -0.00620 1.15869 0.76846
 C123 C -0.07863 0.76403 0.77948
 C124 C 0.32509 0.00631 0.00010
 C125 C 0.36036 0.01663 -0.02402
 C126 C 0.42495 0.00829 -0.02489
 C127 C 0.45339 -0.01248 -0.00187
 C128 C 0.41480 -0.02570 0.02190
 C129 C 0.35297 -0.01311 0.02322
 C130 C 0.52387 -0.01851 -0.00229
 C131 C 0.57109 -0.00252 0.02072
 C132 C 0.63715 -0.00810 0.02066
 C133 C 0.65716 -0.02882 -0.00253
 C134 C 0.61229 -0.04329 -0.02570
 C135 C 0.54557 -0.03877 -0.02557
 H136 H 0.27551 0.01327 0.00087
 H137 H 0.45302 0.01921 -0.04349
 H138 H 0.43294 -0.04478 0.03970
 H139 H 0.55782 0.01557 0.03872
 H140 H 0.70890 -0.03206 -0.00272
 H141 H 0.51093 -0.05174 -0.04359
 C142 C -0.03584 0.66576 0.66448
 C143 C -0.05552 0.61687 0.68669
 C144 C -0.05914 0.54503 0.68507
 C145 C -0.04063 0.52267 0.66151
 C146 C -0.01928 0.57405 0.63958
 C147 C -0.01786 0.64470 0.64094
 C148 C -0.04110 0.44758 0.65987
 C149 C -0.05127 0.41216 0.63519
 C150 C -0.04262 0.34703 0.63299
 C151 C -0.03260 0.31138 0.65601
 C152 C -0.02792 0.34217 0.68092
 C153 C -0.02899 0.41165 0.68272
 H154 H -0.03339 0.72113 0.66565
 H155 H -0.07590 0.50758 0.70235
 H156 H -0.00239 0.56060 0.62140
 H157 H -0.06404 0.43571 0.61732
 H158 H -0.02855 0.25941 0.65456
 H159 H -0.02014 0.43689 0.70205
 C160 C 0.71353 0.67353 0.32828
 C161 C 0.67986 0.63476 0.30472
 C162 C 0.60693 0.57160 0.30494
 C163 C 0.56715 0.54698 0.32869
 C164 C 0.60224 0.58733 0.35219
 C165 C 0.67599 0.64897 0.35216
 C166 C 0.49064 0.47783 0.32918
 C167 C 0.46724 0.42994 0.35195
 C168 C 0.39629 0.36404 0.35235
 C169 C 0.34845 0.34519 0.32980
 C170 C 0.37007 0.39175 0.30696
 C171 C 0.44098 0.45811 0.30676
 H172 H 0.77002 0.72232 0.32814
 H173 H 0.58265 0.54084 0.28671
 H174 H 0.57315 0.57059 0.37069
 H175 H 0.50430 0.44239 0.36933
 H176 H 0.29395 0.29357 0.33002
 H177 H 0.45675 0.49416 0.28911
 C178 C 0.01143 0.32337 0.56347
 C179 C -0.03761 0.24354 0.56025
 C180 C -0.09230 0.20303 0.57907
 C181 C -0.09516 0.23873 0.60183
 C182 C -0.04298 0.31589 0.60668
 C183 C 0.01049 0.35949 0.58720
 C184 C 0.06245 0.36770 0.54372
 C185 C 0.11380 0.44502 0.54770
 C186 C 0.11577 0.47938 0.57143
 C187 C 0.06516 0.43724 0.59109
 H188 H 0.06269 0.34300 0.52501
 H189 H 0.15279 0.47822 0.53242
 H190 H 0.15672 0.53909 0.57462
 H191 H 0.07014 0.46640 0.60929
 H192 H -0.13017 0.14200 0.57697
 H193 H -0.13650 0.20484 0.61642
 C194 C 0.84075 0.71195 0.25670
 C195 C 0.81502 0.74969 0.23817
 C196 C 0.74132 0.73771 0.23941
 C197 C 0.69546 0.69468 0.26009
 C198 C 0.72211 0.66234 0.27996
 C199 C 0.79359 0.66722 0.27760
 C200 C 0.91283 0.71852 0.25506
 C201 C 0.93753 0.68124 0.27353
 C202 C 0.89094 0.63656 0.29377
 C203 C 0.81949 0.62921 0.29579
 H204 H 0.95016 0.75174 0.23937
 H205 H 0.99285 0.68657 0.27201
 H206 H 0.91011 0.60718 0.30790
 H207 H 0.78429 0.59268 0.31140
 H208 H 0.72111 0.76639 0.22534
 H209 H 0.64083 0.69114 0.26160
 C210 C 0.25921 0.09168 -0.07197
 C211 C 0.22848 0.03105 -0.09042
 C212 C 0.25031 -0.02565 -0.08860
 C213 C 0.29812 -0.02588 -0.06801
 C214 C 0.32532 0.03043 -0.04852
 C215 C 0.30884 0.09184 -0.05104
 C216 C 0.23977 0.15073 -0.07326
 C217 C 0.27059 0.20992 -0.05493
 C218 C 0.32083 0.21128 -0.03498
 C219 C 0.33989 0.15289 -0.03296
 H220 H 0.20082 0.15187 -0.08836
 H221 H 0.25555 0.25509 -0.05626
 H222 H 0.34495 0.25767 -0.02094
 H223 H 0.37948 0.15622 -0.01727
 H224 H 0.22714 -0.07233 -0.10257
 H225 H 0.31012 -0.07321 -0.06635
 C226 C 0.08733 0.79262 0.58631
 C227 C 0.02791 0.80514 0.57615
 C228 C -0.04426 0.76201 0.58626
 C229 C -0.05800 0.70877 0.60663
 C230 C -0.00011 0.69661 0.61756
 C231 C 0.07316 0.73775 0.60725
 C232 C 0.16103 0.83526 0.57686
 C233 C 0.21918 0.82338 0.58749
 C234 C 0.20537 0.76983 0.60789
 C235 C 0.13329 0.72767 0.61787
 H236 H 0.17450 0.87831 0.56135
 H237 H 0.27542 0.85633 0.58000
 H238 H 0.25092 0.76134 0.61617
 H239 H 0.12539 0.68767 0.63402
 H240 H -0.09019 0.77098 0.57866
 H241 H -0.11418 0.67776 0.61437
 C242 C 0.19320 0.29518 0.26212
 C243 C 0.22415 0.27830 0.24033
 C244 C 0.30261 0.31044 0.23919
 C245 C 0.35000 0.35317 0.26006
 C246 C 0.32050 0.36574 0.28269
 C247 C 0.24218 0.34109 0.28309
 C248 C 0.11464 0.26496 0.26424
 C249 C 0.08559 0.28315 0.28565
 C250 C 0.13382 0.33105 0.30543
 C251 C 0.21139 0.35974 0.30428
 H252 H 0.07477 0.22701 0.24956
 H253 H 0.02530 0.26010 0.28686
 H254 H 0.11096 0.34553 0.32186
 H255 H 0.24710 0.39692 0.32001
 H256 H 0.32707 0.29818 0.22267
 H257 H 0.40967 0.37173 0.25934
 C258 C 0.68951 -0.12773 -0.07431
 C259 C 0.72829 -0.06225 -0.09132
 C260 C 0.71931 0.00251 -0.08778
 C261 C 0.67573 0.00473 -0.06781
 C262 C 0.63996 -0.05728 -0.05033
 C263 C 0.64425 -0.12506 -0.05397
 C264 C 0.69966 -0.19299 -0.07518
 C265 C 0.66189 -0.25555 -0.05807
 C266 C 0.61482 -0.25406 -0.03926
 C267 C 0.60653 -0.18924 -0.03697
 H268 H 0.73810 -0.19623 -0.08842
 H269 H 0.66988 -0.30520 -0.05923
 H270 H 0.58573 -0.30281 -0.02604
 H271 H 0.57054 -0.18959 -0.02175
 H272 H 0.74733 0.05285 -0.10048
 H273 H 0.67339 0.05716 -0.06504
 C274 C 0.31529 0.02458 0.09337
 C275 C 0.23618 -0.02493 0.09362
 C276 C 0.20003 -0.07476 0.07247
 C277 C 0.23974 -0.07232 0.05042
 C278 C 0.31676 -0.01967 0.04871
 C279 C 0.35570 0.02882 0.07048
 C280 C 0.35485 0.07084 0.11532
 C281 C 0.43180 0.12248 0.11435
 C282 C 0.47061 0.12939 0.09154
 C283 C 0.43318 0.08350 0.06974
 H284 H 0.32671 0.06706 0.13343
 H285 H 0.46134 0.15778 0.13130
 H286 H 0.53013 0.17048 0.09075
 H287 H 0.46569 0.09196 0.05241
 H288 H 0.13964 -0.11285 0.07232
 H289 H 0.20938 -0.10982 0.03400
 C290 C 0.82887 0.73821 0.40674
 C291 C 0.80367 0.78458 0.41928
 C292 C 0.72964 0.77072 0.41313
 C293 C 0.68741 0.72384 0.39206
 C294 C 0.71624 0.68690 0.37713
 C295 C 0.78505 0.68980 0.38546
 C296 C 0.89332 0.73375 0.41638
 C297 C 0.91700 0.68808 0.40407
 C298 C 0.87573 0.64347 0.38259
 C299 C 0.80976 0.64316 0.37360
 H300 H 0.92478 0.76359 0.43400
 H301 H 0.96681 0.68614 0.41160
 H302 H 0.89367 0.60720 0.37333
 H303 H 0.77704 0.60405 0.35793
 H304 H 0.70695 0.80272 0.42252
 H305 H 0.63366 0.72009 0.38637
 C306 C -0.07781 0.21845 0.74429
 C307 C -0.01234 0.21019 0.74782
 C308 C 0.04639 0.24718 0.73015
 C309 C 0.04124 0.29152 0.70909
 C310 C -0.02277 0.30037 0.70505
 C311 C -0.08294 0.26412 0.72278
 C312 C -0.13970 0.17979 0.76102
 C313 C -0.20421 0.18721 0.75700
 C314 C -0.20905 0.23202 0.73609
 C315 C -0.14949 0.26966 0.71897
 H316 H -0.13948 0.14283 0.77714
 H317 H -0.25103 0.15739 0.77004
 H318 H -0.25958 0.23697 0.73294
 H319 H -0.15666 0.30233 0.70266
 H320 H 0.09625 0.24060 0.73246
 H321 H 0.08716 0.31826 0.69551
 C322 C 0.78132 0.08964 0.07764
 C323 C 0.78913 0.02620 0.08724
 C324 C 0.74343 -0.04632 0.07633
 C325 C 0.69244 -0.05642 0.05553
 C326 C 0.68552 0.00568 0.04491
 C327 C 0.72917 0.07941 0.05618
 C328 C 0.82615 0.16355 0.08821
 C329 C 0.81946 0.22593 0.07803
 C330 C 0.76895 0.21613 0.05699
 C331 C 0.72450 0.14382 0.04598
 H332 H 0.86672 0.17375 0.10434
 H333 H 0.85405 0.28230 0.08637
 H334 H 0.76456 0.26495 0.04903
 H335 H 0.68704 0.13917 0.02938
 H336 H 0.74920 -0.09517 0.08343
 H337 H 0.65959 -0.11297 0.04706
 C338 C 0.29684 0.19072 0.39865
 C339 C 0.28425 0.22711 0.41995
 C340 C 0.31847 0.30736 0.42022
 C341 C 0.36024 0.35151 0.39898
 C342 C 0.36879 0.31666 0.37680
 C343 C 0.34049 0.23610 0.37709
 C344 C 0.26460 0.11007 0.39772
 C345 C 0.27753 0.07535 0.37657
 C346 C 0.32223 0.11995 0.35594
 C347 C 0.35345 0.19958 0.35609
 H348 H 0.22936 0.07309 0.41324
 H349 H 0.25288 0.01350 0.37622
 H350 H 0.33247 0.09268 0.33968
 H351 H 0.38815 0.23231 0.33976
 H352 H 0.30892 0.33576 0.43632
 H353 H 0.38154 0.41300 0.39906
 C354 C -0.13992 0.64934 0.74832
 C355 C -0.07602 0.71690 0.75785
 C356 C -0.00755 0.74509 0.74508
 C357 C -0.00215 0.70997 0.72270
 C358 C -0.06502 0.64547 0.71211
 C359 C -0.13461 0.61380 0.72504
 C360 C -0.20883 0.61610 0.76144
 C361 C -0.27170 0.55096 0.75141
 C362 C -0.26717 0.51779 0.72825
 C363 C -0.19943 0.54877 0.71509
 H364 H -0.21450 0.63967 0.77961
 H365 H -0.32429 0.52616 0.76164
 H366 H -0.31637 0.46759 0.72048
 H367 H -0.19842 0.52138 0.69713
 H368 H 0.04186 0.79677 0.75192
 H369 H 0.05144 0.73473 0.71305
   
