data_POSCAR
  _audit_creation_date              2014-09-24
  _audit_creation_method            'ToBaCCo'
  _symmetry_space_group_name_H-M    'P1'
  _symmetry_Int_Tables_number       1
  _symmetry_cell_setting            triclinic
  loop_
  _symmetry_equiv_pos_as_xyz
 x,y,z
_cell_length_a 51.4298
_cell_length_b 47.6496
_cell_length_c 50.6478
_cell_angle_alpha 94.507600
_cell_angle_beta 88.928100
_cell_angle_gamma 90.918100
loop_
  _atom_site_label
  _atom_site_type_symbol
  _atom_site_fract_x
  _atom_site_fract_y
  _atom_site_fract_z
C1 C 0.61730 0.62268 0.65324
 C2 C 0.59697 0.64206 0.65484
 C3 C 0.59297 0.65953 0.63422
 C4 C 0.60931 0.65709 0.61163
 C5 C 0.62981 0.63795 0.60983
 C6 C 0.63407 0.62094 0.63089
 C7 C 0.62110 0.60508 0.67371
 C8 C 0.64181 0.58584 0.67261
 C9 C 0.65899 0.58511 0.65043
 C10 C 0.65509 0.60221 0.62957
 C11 C 0.67165 0.60056 0.60716
 C12 C 0.66712 0.61699 0.58593
 C13 C 0.64620 0.63563 0.58737
 H14 H 0.58410 0.64345 0.67209
 H15 H 0.60643 0.67058 0.59569
 H16 H 0.60830 0.60728 0.69095
 H17 H 0.67466 0.57015 0.64848
 H18 H 0.68776 0.58608 0.60594
 H19 H 0.64291 0.64855 0.57108
 C20 C 0.90432 0.36223 0.12419
 C21 C 0.92369 0.34177 0.12239
 C22 C 0.92304 0.31905 0.10270
 C23 C 0.90212 0.31732 0.08488
 C24 C 0.88234 0.33738 0.08680
 C25 C 0.88350 0.36000 0.10644
 C26 C 0.90560 0.38505 0.14340
 C27 C 0.88620 0.40558 0.14530
 C28 C 0.86526 0.40303 0.12779
 C29 C 0.86385 0.38045 0.10832
 C30 C 0.84313 0.37803 0.09064
 C31 C 0.84168 0.35536 0.07119
 C32 C 0.86135 0.33511 0.06941
 H33 H 0.93991 0.34449 0.13573
 H34 H 0.90044 0.29972 0.07010
 H35 H 0.92160 0.38674 0.15711
 H36 H 0.85033 0.41891 0.12904
 H37 H 0.82791 0.39358 0.09222
 H38 H 0.86045 0.31778 0.05422
 C39 C 0.37785 0.13843 -0.15644
 C40 C 0.39821 0.15828 -0.15740
 C41 C 0.40054 0.18045 -0.13756
 C42 C 0.38235 0.18259 -0.11648
 C43 C 0.36168 0.16309 -0.11541
 C44 C 0.35939 0.14096 -0.13552
 C45 C 0.37560 0.11629 -0.17624
 C46 C 0.35476 0.09659 -0.17593
 C47 C 0.33628 0.09964 -0.15493
 C48 C 0.33860 0.12141 -0.13475
 C49 C 0.32044 0.12385 -0.11373
 C50 C 0.32259 0.14577 -0.09361
 C51 C 0.34319 0.16542 -0.09465
 H52 H 0.41240 0.15642 -0.17353
 H53 H 0.38400 0.19978 -0.10123
 H54 H 0.38958 0.11536 -0.19253
 H55 H 0.32058 0.08441 -0.15344
 H56 H 0.30438 0.10887 -0.11315
 H57 H 0.34501 0.18226 -0.07909
 C58 C 0.09219 0.88954 0.37852
 C59 C 0.07341 0.86806 0.38041
 C60 C 0.07445 0.84912 0.40049
 C61 C 0.09508 0.85227 0.41859
 C62 C 0.11418 0.87336 0.41664
 C63 C 0.11273 0.89214 0.39661
 C64 C 0.09071 0.90851 0.35879
 C65 C 0.10966 0.92986 0.35672
 C66 C 0.13024 0.93214 0.37468
 C67 C 0.13187 0.91349 0.39465
 C68 C 0.15237 0.91576 0.41262
 C69 C 0.15410 0.89683 0.43242
 C70 C 0.13489 0.87576 0.43434
 H71 H 0.05740 0.86704 0.36677
 H72 H 0.09718 0.83753 0.43361
 H73 H 0.07499 0.90646 0.34476
 H74 H 0.14480 0.94869 0.37329
 H75 H 0.16725 0.93192 0.41092
 H76 H 0.13596 0.86135 0.44981
 N77 N 0.10297 0.15787 0.12376
 N78 N 0.09549 0.14963 0.14692
 C79 C 0.07506 0.16507 0.15608
 C80 C 0.06925 0.18373 0.13754
 C81 C 0.08731 0.17853 0.11723
 H82 H 0.06486 0.16268 0.17465
 H83 H 0.08921 0.18934 0.09929
 Cu84 Cu 0.11273 0.11895 0.16237
 Cu85 Cu 0.13304 0.14190 0.10430
 Cu86 Cu 0.16456 0.08786 0.13223
 N87 N 0.13042 0.08858 0.17784
 N88 N 0.15087 0.07670 0.16603
 C89 C 0.15946 0.05655 0.18073
 C90 C 0.14345 0.05556 0.20292
 C91 C 0.12519 0.07620 0.20040
 H92 H 0.17588 0.04325 0.17540
 H93 H 0.10944 0.08192 0.21410
 N94 N 0.17549 0.10212 0.09821
 N95 N 0.16384 0.12303 0.08779
 C96 C 0.17635 0.12840 0.06508
 C97 C 0.19667 0.10981 0.06088
 C98 C 0.19549 0.09345 0.08225
 H99 H 0.17095 0.14444 0.05234
 H100 H 0.20859 0.07679 0.08610
 H101 H 0.13004 0.10269 0.11879
 H102 H 0.15190 0.12901 0.13680
 N103 N 0.40816 0.81815 0.59637
 N104 N 0.42034 0.83129 0.61642
 C105 C 0.44181 0.81688 0.62133
 C106 C 0.44322 0.79350 0.60331
 C107 C 0.42152 0.79506 0.58774
 H108 H 0.45551 0.82305 0.63671
 H109 H 0.41562 0.78028 0.57160
 Cu110 Cu 0.40667 0.86579 0.63411
 Cu111 Cu 0.37570 0.83168 0.58315
 Cu112 Cu 0.35098 0.89309 0.61478
 N113 N 0.39303 0.90050 0.65142
 N114 N 0.37080 0.91058 0.64428
 C115 C 0.36532 0.93397 0.65991
 C116 C 0.38532 0.93899 0.67764
 C117 C 0.40260 0.91736 0.67164
 H118 H 0.34826 0.94665 0.65824
 H119 H 0.42055 0.91395 0.68162
 N120 N 0.33390 0.87226 0.58450
 N121 N 0.34317 0.84873 0.57271
 C122 C 0.32720 0.83952 0.55301
 C123 C 0.30699 0.85822 0.55220
 C124 C 0.31190 0.87875 0.57244
 H125 H 0.33027 0.82083 0.53987
 H126 H 0.30016 0.89692 0.57811
 H127 H 0.38207 0.87379 0.59482
 H128 H 0.36334 0.85260 0.61834
 N129 N 0.90574 0.66559 0.38222
 N130 N 0.91043 0.65634 0.35749
 C131 C 0.92946 0.67229 0.34741
 C132 C 0.93719 0.69253 0.36693
 C133 C 0.92172 0.68756 0.38878
 H134 H 0.93717 0.66940 0.32739
 H135 H 0.92150 0.69959 0.40779
 Cu136 Cu 0.89103 0.62444 0.34105
 Cu137 Cu 0.87804 0.64986 0.40353
 Cu138 Cu 0.84088 0.59549 0.37320
 N139 N 0.87101 0.59297 0.32471
 N140 N 0.85104 0.58217 0.33716
 C141 C 0.84112 0.56034 0.32188
 C142 C 0.85578 0.55710 0.29866
 C143 C 0.87457 0.57825 0.30115
 H144 H 0.82514 0.54705 0.32774
 H145 H 0.88987 0.58237 0.28700
 N146 N 0.83400 0.61170 0.40965
 N147 N 0.84895 0.63140 0.42160
 C148 C 0.83997 0.63716 0.44655
 C149 C 0.81819 0.62052 0.45041
 C150 C 0.81492 0.60469 0.42660
 H151 H 0.84819 0.65286 0.46070
 H152 H 0.79992 0.58898 0.42214
 H153 H 0.87742 0.60985 0.38433
 H154 H 0.85515 0.63619 0.37184
 N155 N 0.59184 0.34288 -0.09977
 N156 N 0.57957 0.35299 -0.11940
 C157 C 0.55735 0.33819 -0.12373
 C158 C 0.55548 0.31773 -0.10581
 C159 C 0.57773 0.32141 -0.09083
 H160 H 0.54341 0.34215 -0.13865
 H161 H 0.58345 0.30909 -0.07492
 Cu162 Cu 0.59380 0.38445 -0.13746
 Cu163 Cu 0.62543 0.35806 -0.08773
 Cu164 Cu 0.65122 0.41405 -0.12016
 N165 N 0.60804 0.41628 -0.15500
 N166 N 0.63092 0.42723 -0.14872
 C167 C 0.63644 0.44836 -0.16418
 C168 C 0.61576 0.45097 -0.18086
 C169 C 0.59807 0.43030 -0.17445
 H170 H 0.65394 0.46126 -0.16299
 H171 H 0.57949 0.42566 -0.18355
 N172 N 0.66876 0.39782 -0.09076
 N173 N 0.65914 0.37636 -0.07856
 C174 C 0.67555 0.37043 -0.05939
 C175 C 0.69638 0.38920 -0.05937
 C176 C 0.69139 0.40623 -0.07952
 H177 H 0.67232 0.35411 -0.04598
 H178 H 0.70343 0.42345 -0.08559
 H179 H 0.62016 0.39829 -0.09900
 H180 H 0.63714 0.37302 -0.12325
 C181 C -0.04375 0.29177 0.12362
 C182 C -0.02389 0.27183 0.12185
 C183 C -0.01656 0.25869 0.09693
 C184 C -0.02968 0.26521 0.07428
 C185 C -0.04979 0.28468 0.07621
 C186 C -0.05704 0.29863 0.10085
 C187 C 0.00366 0.23915 0.09506
 C188 C 0.01627 0.23214 0.11793
 C189 C 0.00842 0.24474 0.14297
 C190 C -0.01142 0.26468 0.14474
 C191 C 0.02046 0.23705 0.16588
 C192 C 0.04008 0.21705 0.16404
 C193 C 0.04836 0.20476 0.13926
 C194 C 0.03643 0.21251 0.11622
 H195 H -0.04948 0.30098 0.14305
 H196 H -0.02432 0.25534 0.05499
 H197 H -0.05874 0.28965 0.05802
 H198 H 0.00944 0.22926 0.07587
 H199 H -0.01724 0.27451 0.16395
 H200 H 0.01461 0.24642 0.18523
 H201 H 0.04909 0.21151 0.18204
 H202 H 0.04247 0.20283 0.09704
 C203 C 0.55623 0.68466 0.61479
 C204 C 0.53684 0.70516 0.61676
 C205 C 0.53325 0.72203 0.64077
 C206 C 0.54893 0.71792 0.66243
 C207 C 0.56812 0.69743 0.66032
 C208 C 0.57205 0.68071 0.63650
 C209 C 0.51411 0.74276 0.64272
 C210 C 0.49842 0.74679 0.62102
 C211 C 0.50183 0.72974 0.59711
 C212 C 0.52104 0.70908 0.59511
 C213 C 0.48593 0.73366 0.57557
 C214 C 0.46684 0.75430 0.57765
 C215 C 0.46340 0.77153 0.60125
 C216 C 0.47933 0.76760 0.62288
 H217 H 0.55889 0.67163 0.59644
 H218 H 0.54645 0.73066 0.68096
 H219 H 0.58026 0.69499 0.67721
 H220 H 0.51145 0.75576 0.66111
 H221 H 0.52372 0.69609 0.57672
 H222 H 0.48826 0.72079 0.55709
 H223 H 0.45502 0.75695 0.56060
 H224 H 0.47671 0.78046 0.64132
 C225 C 1.04270 0.81523 0.37968
 C226 C 1.02422 0.79342 0.38154
 C227 C 1.01771 0.78380 0.40652
 C228 C 1.02998 0.79588 0.42916
 C229 C 1.04865 0.81723 0.42715
 C230 C 1.05538 0.82742 0.40242
 C231 C 0.99913 0.76216 0.40850
 C232 C 0.98723 0.74970 0.38570
 C233 C 0.99406 0.75896 0.36062
 C234 C 1.01239 0.78087 0.35870
 C235 C 0.98247 0.74609 0.33785
 C236 C 0.96420 0.72431 0.33989
 C237 C 0.95700 0.71517 0.36476
 C238 C 0.96868 0.72801 0.38760
 H239 H 1.04796 0.82160 0.36021
 H240 H 1.02511 0.78886 0.44850
 H241 H 1.05696 0.82643 0.44536
 H242 H 0.99405 0.75493 0.42773
 H243 H 1.01751 0.78806 0.33946
 H244 H 0.98750 0.75288 0.31846
 H245 H 0.95539 0.71496 0.32199
 H246 H 0.96359 0.72093 0.40687
 C247 C 0.43717 0.20951 -0.11717
 C248 C 0.45750 0.22934 -0.11900
 C249 C 0.46218 0.24178 -0.14314
 C250 C 0.44667 0.23399 -0.16505
 C251 C 0.42673 0.21401 -0.16314
 C252 C 0.42176 0.20165 -0.13925
 C253 C 0.48232 0.26171 -0.14506
 C254 C 0.49808 0.26920 -0.12326
 C255 C 0.49370 0.25653 -0.09923
 C256 C 0.47334 0.23678 -0.09719
 C257 C 0.50983 0.26381 -0.07766
 C258 C 0.53006 0.28351 -0.07985
 C259 C 0.53437 0.29648 -0.10356
 C260 C 0.51826 0.28911 -0.12521
 H261 H 0.43358 0.19982 -0.09875
 H262 H 0.45001 0.24330 -0.18368
 H263 H 0.41494 0.20841 -0.18031
 H264 H 0.48579 0.27132 -0.16355
 H265 H 0.46989 0.22715 -0.07871
 H266 H 0.50680 0.25429 -0.05909
 H267 H 0.54207 0.28889 -0.06282
 H268 H 0.52157 0.29858 -0.14376
 C269 C 0.13014 -0.04378 0.32058
 C270 C 0.12858 -0.02514 0.30057
 C271 C 0.10457 -0.01254 0.29580
 C272 C 0.08253 -0.01898 0.31101
 C273 C 0.08421 -0.03775 0.33072
 C274 C 0.10799 -0.05026 0.33574
 C275 C 0.10295 0.00616 0.27586
 C276 C 0.12497 0.01221 0.26042
 C277 C 0.14891 -0.00060 0.26502
 C278 C 0.15060 -0.01907 0.28515
 C279 C 0.17076 0.00518 0.24929
 C280 C 0.16892 0.02339 0.22912
 C281 C 0.14528 0.03637 0.22443
 C282 C 0.12337 0.03072 0.24029
 H283 H 0.14849 -0.05362 0.32411
 H284 H 0.06398 -0.00952 0.30763
 H285 H 0.06695 -0.04226 0.34232
 H286 H 0.08454 0.01586 0.27227
 H287 H 0.16899 -0.02882 0.28870
 H288 H 0.18926 -0.00444 0.25254
 H289 H 0.18616 0.02753 0.21739
 H290 H 0.10493 0.04029 0.23671
 C291 C 0.62325 0.55790 -0.29248
 C292 C 0.62616 0.53924 -0.27269
 C293 C 0.65120 0.53023 -0.26655
 C294 C 0.67287 0.53975 -0.28060
 C295 C 0.66982 0.55789 -0.30067
 C296 C 0.64499 0.56747 -0.30694
 C297 C 0.65413 0.51165 -0.24667
 C298 C 0.63223 0.50145 -0.23328
 C299 C 0.60712 0.51006 -0.23983
 C300 C 0.60426 0.52909 -0.25928
 C301 C 0.58522 0.49927 -0.22697
 C302 C 0.58811 0.48000 -0.20789
 C303 C 0.61295 0.47149 -0.20102
 C304 C 0.63499 0.48247 -0.21369
 H305 H 0.60375 0.56370 -0.29740
 H306 H 0.69225 0.53312 -0.27610
 H307 H 0.68724 0.56519 -0.31046
 H308 H 0.67339 0.50486 -0.24186
 H309 H 0.58499 0.53577 -0.26417
 H310 H 0.56584 0.50561 -0.23178
 H311 H 0.57086 0.47201 -0.19825
 H312 H 0.65422 0.47576 -0.20875
 C313 C 0.37471 1.06273 0.79059
 C314 C 0.37246 1.04072 0.77062
 C315 C 0.34760 1.03033 0.76308
 C316 C 0.32545 1.04175 0.77599
 C317 C 0.32781 1.06328 0.79619
 C318 C 0.35244 1.07439 0.80378
 C319 C 0.34528 1.00859 0.74287
 C320 C 0.36757 0.99670 0.73046
 C321 C 0.39249 1.00664 0.73846
 C322 C 0.39477 1.02874 0.75830
 C323 C 0.41473 0.99418 0.72655
 C324 C 0.41235 0.97205 0.70692
 C325 C 0.38770 0.96230 0.69854
 C326 C 0.36535 0.97482 0.71036
 H327 H 0.39401 1.06976 0.79654
 H328 H 0.30622 1.03407 0.77041
 H329 H 0.31005 1.07196 0.80495
 H330 H 0.32616 1.00078 0.73697
 H331 H 0.41390 1.03648 0.76427
 H332 H 0.43398 1.00147 0.73248
 H333 H 0.42984 0.96284 0.69799
 H334 H 0.34625 0.96718 0.70429
 C335 C 0.86609 0.43811 0.18108
 C336 C 0.86794 0.46063 0.20061
 C337 C 0.89191 0.47524 0.20437
 C338 C 0.91359 0.46705 0.18861
 C339 C 0.91165 0.44445 0.16943
 C340 C 0.88796 0.42976 0.16550
 C341 C 0.89391 0.49762 0.22396
 C342 C 0.87235 0.50537 0.24011
 C343 C 0.84841 0.49069 0.23647
 C344 C 0.84631 0.46854 0.21663
 C345 C 0.82704 0.49825 0.25295
 C346 C 0.82942 0.51994 0.27304
 C347 C 0.85312 0.53465 0.27687
 C348 C 0.87448 0.52734 0.26013
 H349 H 0.84781 0.42669 0.17836
 H350 H 0.93209 0.47804 0.19120
 H351 H 0.92866 0.43857 0.15746
 H352 H 0.91231 0.50879 0.22682
 H353 H 0.82794 0.45728 0.21384
 H354 H 0.80854 0.48726 0.25044
 H355 H 0.81261 0.52527 0.28549
 H356 H 0.89297 0.53822 0.26302
 C357 C 0.29615 0.12403 -0.05838
 C358 C 0.27772 0.12587 -0.03756
 C359 C 0.26603 0.15198 -0.02988
 C360 C 0.27326 0.17587 -0.04295
 C361 C 0.29185 0.17391 -0.06348
 C362 C 0.30331 0.14798 -0.07148
 C363 C 0.24737 0.15380 -0.00926
 C364 C 0.24054 0.12991 0.00403
 C365 C 0.25257 0.10392 -0.00340
 C366 C 0.27094 0.10202 -0.02425
 C367 C 0.24614 0.08025 0.01026
 C368 C 0.22802 0.08226 0.03117
 C369 C 0.21575 0.10788 0.03860
 C370 C 0.22202 0.13164 0.02482
 H371 H 0.30517 0.10403 -0.06422
 H372 H 0.26455 0.19606 -0.03730
 H373 H 0.29698 0.19257 -0.07344
 H374 H 0.23831 0.17380 -0.00346
 H375 H 0.28004 0.08204 -0.03002
 H376 H 0.25519 0.06018 0.00484
 H377 H 0.22338 0.06361 0.04133
 H378 H 0.21292 0.15160 0.03059
 C379 C 0.71115 0.61836 0.56425
 C380 C 0.72722 0.61702 0.54148
 C381 C 0.71614 0.61109 0.51625
 C382 C 0.68917 0.60703 0.51422
 C383 C 0.67328 0.60904 0.53692
 C384 C 0.68413 0.61461 0.56205
 C385 C 0.73212 0.60966 0.49346
 C386 C 0.75897 0.61477 0.49548
 C387 C 0.76999 0.62124 0.52065
 C388 C 0.75410 0.62198 0.54351
 C389 C 0.79670 0.62723 0.52249
 C390 C 0.81233 0.62705 0.49962
 C391 C 0.80163 0.62035 0.47456
 C392 C 0.77493 0.61399 0.47265
 H393 H 0.71953 0.62297 0.58363
 H394 H 0.68034 0.60257 0.49506
 H395 H 0.65247 0.60602 0.53493
 H396 H 0.72361 0.60498 0.47414
 H397 H 0.76259 0.62682 0.56282
 H398 H 0.80547 0.63230 0.54160
 H399 H 0.83288 0.63185 0.50156
 H400 H 0.76644 0.60919 0.45337
 C401 C 0.81140 0.37649 0.04030
 C402 C 0.79033 0.37434 0.02301
 C403 C 0.77704 0.34827 0.01826
 C404 C 0.78528 0.32474 0.03064
 C405 C 0.80643 0.32700 0.04764
 C406 C 0.81957 0.35289 0.05274
 C407 C 0.75576 0.34616 0.00122
 C408 C 0.74776 0.36973 -0.01132
 C409 C 0.76133 0.39567 -0.00684
 C410 C 0.78243 0.39785 0.01038
 C411 C 0.75359 0.41905 -0.01971
 C412 C 0.73259 0.41682 -0.03686
 C413 C 0.71877 0.39125 -0.04131
 C414 C 0.72647 0.36775 -0.02838
 H415 H 0.82165 0.39645 0.04387
 H416 H 0.77535 0.30459 0.02721
 H417 H 0.81228 0.30861 0.05718
 H418 H 0.74548 0.32620 -0.00231
 H419 H 0.79272 0.41780 0.01389
 H420 H 0.76377 0.43908 -0.01652
 H421 H 0.72695 0.43532 -0.04633
 H422 H 0.71618 0.34783 -0.03187
 C423 C 0.18919 0.87439 0.45672
 C424 C 0.20985 0.87599 0.47449
 C425 C 0.21748 0.90237 0.48692
 C426 C 0.20447 0.92673 0.48110
 C427 C 0.18402 0.92496 0.46323
 C428 C 0.17610 0.89880 0.45101
 C429 C 0.23797 0.90398 0.50491
 C430 C 0.25107 0.87955 0.51046
 C431 C 0.24361 0.85324 0.49776
 C432 C 0.22299 0.85160 0.47996
 C433 C 0.25696 0.82895 0.50302
 C434 C 0.27756 0.83065 0.52066
 C435 C 0.28507 0.85663 0.53357
 C436 C 0.27163 0.88103 0.52840
 H437 H 0.18345 0.85417 0.44709
 H438 H 0.21006 0.94713 0.49041
 H439 H 0.17408 0.94400 0.45926
 H440 H 0.24376 0.92420 0.51452
 H441 H 0.21722 0.83138 0.47032
 H442 H 0.25150 0.80862 0.49346
 H443 H 0.28740 0.81150 0.52444
 H444 H 0.27741 0.90125 0.53797
   
