data_POSCAR
  _audit_creation_date              2014-09-24
  _audit_creation_method            'ToBaCCo'
  _symmetry_space_group_name_H-M    'P1'
  _symmetry_Int_Tables_number       1
  _symmetry_cell_setting            triclinic
  loop_
  _symmetry_equiv_pos_as_xyz
 x,y,z
_cell_length_a 42.4416
_cell_length_b 42.7833
_cell_length_c 16.1188
_cell_angle_alpha 89.876400
_cell_angle_beta 90.140900
_cell_angle_gamma 118.735500
loop_
  _atom_site_label
  _atom_site_type_symbol
  _atom_site_fract_x
  _atom_site_fract_y
  _atom_site_fract_z
C1 C 0.15466 0.44648 0.41934
 C2 C 0.13932 0.44879 0.49421
 C3 C 0.15497 0.44984 0.57143
 C4 C 0.18633 0.44600 0.57482
 C5 C 0.20268 0.44387 0.49954
 C6 C 0.18729 0.44487 0.42152
 C7 C 0.20403 0.44251 0.34835
 C8 C 0.23596 0.44089 0.35111
 C9 C 0.25165 0.44000 0.42717
 C10 C 0.23490 0.44132 0.50222
 C11 C 0.20283 0.44601 0.65061
 C12 C 0.23367 0.44243 0.65311
 C13 C 0.25070 0.44078 0.57986
 C14 C 0.28225 0.43709 0.58186
 C15 C 0.29750 0.43475 0.50666
 C16 C 0.28387 0.43806 0.43024
 H17 H 0.19250 0.44159 0.28793
 H18 H 0.24787 0.43956 0.29284
 H19 H 0.19212 0.44864 0.70928
 H20 H 0.24388 0.44080 0.71356
 H21 H 0.11502 0.45128 0.49235
 H22 H 0.32261 0.43380 0.50730
 C23 C 0.55850 -0.15735 0.56905
 C24 C 0.56424 -0.14024 0.49222
 C25 C 0.56034 -0.15856 0.41799
 C26 C 0.55221 -0.19466 0.42015
 C27 C 0.54774 -0.21215 0.49758
 C28 C 0.55070 -0.19341 0.57238
 C29 C 0.54374 -0.21169 0.64814
 C30 C 0.53369 -0.24779 0.65073
 C31 C 0.53079 -0.26705 0.57773
 C32 C 0.53756 -0.24908 0.49995
 C33 C 0.54664 -0.21410 0.34664
 C34 C 0.53626 -0.25021 0.34869
 C35 C 0.53219 -0.26828 0.42435
 C36 C 0.51975 -0.30561 0.42673
 C37 C 0.51216 -0.32270 0.50414
 C38 C 0.51815 -0.30439 0.57958
 H39 H 0.54524 -0.19837 0.70620
 H40 H 0.52682 -0.26066 0.71071
 H41 H 0.54940 -0.20167 0.28657
 H42 H 0.53010 -0.26398 0.28989
 H43 H 0.56839 -0.11316 0.48987
 H44 H 0.50443 -0.35083 0.50613
 C45 C 1.17255 0.70339 0.57699
 C46 C 1.15705 0.68885 0.50003
 C47 C 1.17326 0.70457 0.42516
 C48 C 1.20609 0.73663 0.42563
 C49 C 1.22246 0.75242 0.50252
 C50 C 1.20551 0.73592 0.57870
 C51 C 1.22378 0.75039 0.65345
 C52 C 1.25770 0.78017 0.65404
 C53 C 1.27501 0.79708 0.57995
 C54 C 1.25723 0.78300 0.50301
 C55 C 1.22399 0.75188 0.35129
 C56 C 1.25789 0.78151 0.35167
 C57 C 1.27515 0.79767 0.42644
 C58 C 1.31117 0.82573 0.42723
 C59 C 1.32825 0.83827 0.50378
 C60 C 1.31102 0.82524 0.58000
 H61 H 1.21288 0.73795 0.71252
 H62 H 1.27091 0.78854 0.71352
 H63 H 1.21249 0.74022 0.29183
 H64 H 1.27100 0.79042 0.29234
 H65 H 1.13190 0.66399 0.49805
 H66 H 1.35530 0.86069 0.50400
 C67 C 0.70827 0.55457 0.41701
 C68 C 0.68953 0.55153 0.49000
 C69 C 0.70426 0.55277 0.56872
 C70 C 0.74009 0.55828 0.57405
 C71 C 0.75958 0.56140 0.49965
 C72 C 0.74359 0.55975 0.42101
 C73 C 0.76243 0.56127 0.34834
 C74 C 0.79579 0.56274 0.35213
 C75 C 0.81166 0.56295 0.42875
 C76 C 0.79389 0.56311 0.50349
 C77 C 0.75569 0.55722 0.65041
 C78 C 0.78939 0.55925 0.65419
 C79 C 0.80886 0.56183 0.58173
 C80 C 0.84115 0.55964 0.58442
 C81 C 0.85802 0.55955 0.50984
 C82 C 0.84379 0.56080 0.43266
 H83 H 0.75103 0.56027 0.28762
 H84 H 0.80857 0.56271 0.29417
 H85 H 0.74151 0.55325 0.70828
 H86 H 0.79932 0.55726 0.71472
 H87 H 0.66226 0.54740 0.48496
 H88 H 0.88234 0.55712 0.51176
 C89 C 0.47240 0.29556 0.42244
 C90 C 0.47420 0.31285 0.49709
 C91 C 0.47012 0.29616 0.57393
 C92 C 0.46328 0.26038 0.57677
 C93 C 0.46128 0.24225 0.50153
 C94 C 0.46604 0.25996 0.42403
 C95 C 0.46530 0.24197 0.35067
 C96 C 0.45939 0.20705 0.35293
 C97 C 0.45401 0.18884 0.42863
 C98 C 0.45525 0.20657 0.50381
 C99 C 0.45902 0.24248 0.65247
 C100 C 0.45254 0.20736 0.65458
 C101 C 0.45150 0.18908 0.58126
 C102 C 0.44537 0.15332 0.58285
 C103 C 0.44239 0.13589 0.50718
 C104 C 0.44820 0.15353 0.43118
 H105 H 0.46960 0.25484 0.29078
 H106 H 0.45893 0.19435 0.29459
 H107 H 0.46064 0.25540 0.71110
 H108 H 0.44805 0.19460 0.71462
 H109 H 0.47874 0.34007 0.49531
 H110 H 0.43938 0.10921 0.50728
 C111 C 0.70477 0.17349 0.57569
 C112 C 0.69001 0.15687 0.50026
 C113 C 0.70506 0.17273 0.42434
 C114 C 0.73694 0.20588 0.42333
 C115 C 0.75284 0.22289 0.49963
 C116 C 0.73658 0.20666 0.57611
 C117 C 0.75139 0.22480 0.65055
 C118 C 0.78154 0.25839 0.65037
 C119 C 0.79853 0.27507 0.57575
 C120 C 0.78372 0.25719 0.49933
 C121 C 0.75231 0.22319 0.34836
 C122 C 0.78245 0.25678 0.34792
 C123 C 0.79842 0.27430 0.42243
 C124 C 0.82765 0.30923 0.42225
 C125 C 0.84160 0.32647 0.49749
 C126 C 0.82787 0.31034 0.57445
 H127 H 0.73925 0.21354 0.70979
 H128 H 0.79047 0.27155 0.70957
 H129 H 0.74072 0.21122 0.28921
 H130 H 0.79257 0.26924 0.28836
 H131 H 0.66517 0.13171 0.50058
 H132 H 0.86453 0.35310 0.49580
 N133 N 0.96786 0.54793 0.09507
 N134 N 0.94472 0.55899 0.11624
 N135 N 1.04273 0.55687 0.14340
 N136 N 1.06840 0.57260 0.19887
 N137 N 1.04306 0.58021 0.08979
 N138 N 1.06876 0.61265 0.10848
 N139 N 0.96724 0.52467 0.14929
 N140 N 0.94338 0.51883 0.20765
 C141 C 0.92930 0.54011 0.18618
 C142 C 1.08469 0.60727 0.17603
 N143 N 1.03562 0.46446 0.08349
 N144 N 1.05781 0.45171 0.09996
 N145 N 0.96268 0.45562 0.14566
 N146 N 0.93731 0.44014 0.20177
 N147 N 0.96040 0.43256 0.08915
 N148 N 0.93368 0.40046 0.10636
 N149 N 1.03832 0.48761 0.14028
 N150 N 1.06263 0.49143 0.19629
 Mn151 Mn 1.00280 0.50621 0.14535
 C152 C 1.07516 0.46958 0.16926
 C153 C 0.91928 0.40586 0.17638
 N154 N 1.04093 0.58063 -0.09023
 N155 N 1.06747 0.61275 -0.10890
 N156 N 0.96351 0.52496 -0.14095
 N157 N 0.93786 0.51831 -0.19489
 N158 N 0.96532 0.54816 -0.08545
 N159 N 0.94094 0.55838 -0.10148
 N160 N 1.03876 0.55726 -0.14571
 N161 N 1.06369 0.57248 -0.20262
 Mn162 Mn 1.00429 0.56473 0.00232
 C163 C 1.08166 0.60697 -0.17901
 C164 C 0.92369 0.53893 -0.16971
 N165 N 0.95793 0.43284 -0.09079
 N166 N 0.93188 0.40058 -0.11010
 N167 N 1.03429 0.48847 -0.14909
 N168 N 1.05833 0.49456 -0.20697
 N169 N 1.03334 0.46493 -0.09548
 N170 N 1.05669 0.45408 -0.11618
 N171 N 0.95896 0.45640 -0.14446
 N172 N 0.93355 0.44117 -0.20053
 Mn173 Mn 0.99675 0.44824 -0.00335
 Mn174 Mn 0.99892 0.50682 -0.14543
 Cl175 Cl 1.00069 0.50652 -0.00015
 C176 C 0.91654 0.40647 -0.17826
 C177 C 1.07238 0.47327 -0.18560
 N178 N 0.46617 0.42184 0.08795
 N179 N 0.46035 0.38927 0.10556
 N180 N 0.44408 0.47707 0.15050
 N181 N 0.42581 0.48263 0.20916
 N182 N 0.42223 0.45404 0.09604
 N183 N 0.38836 0.44291 0.11694
 N184 N 0.48830 0.44478 0.14219
 N185 N 0.49864 0.42867 0.19699
 C186 C 0.48138 0.39416 0.17305
 C187 C 0.39113 0.46142 0.18724
 N188 N 0.52684 0.56943 0.09148
 N189 N 0.53235 0.60169 0.11123
 N190 N 0.55064 0.51360 0.13908
 N191 N 0.57070 0.50792 0.19287
 N192 N 0.57069 0.53714 0.08326
 N193 N 0.60517 0.54870 0.09888
 N194 N 0.50664 0.54608 0.14749
 N195 N 0.49741 0.56156 0.20586
 Mn196 Mn 0.49743 0.49541 0.14543
 C197 C 0.51331 0.59614 0.18232
 C198 C 0.60458 0.52962 0.16677
 N199 N 0.41886 0.45457 -0.08304
 N200 N 0.38430 0.44159 -0.09969
 N201 N 0.48279 0.44573 -0.14799
 N202 N 0.49205 0.43011 -0.20609
 N203 N 0.46284 0.42253 -0.09148
 N204 N 0.45741 0.39027 -0.11054
 N205 N 0.43852 0.47807 -0.13939
 N206 N 0.41791 0.48212 -0.19493
 Mn207 Mn 0.44220 0.43787 0.00237
 C208 C 0.38423 0.45983 -0.16839
 C209 C 0.47630 0.39562 -0.18170
 N210 N 0.56739 0.53761 -0.09662
 N211 N 0.60118 0.54841 -0.11822
 N212 N 0.50119 0.54710 -0.14210
 N213 N 0.49082 0.56321 -0.19669
 N214 N 0.52356 0.57007 -0.08819
 N215 N 0.52940 0.60266 -0.10577
 N216 N 0.54526 0.51478 -0.15108
 N217 N 0.56319 0.50913 -0.21028
 Mn218 Mn 0.54754 0.55400 -0.00254
 Mn219 Mn 0.49192 0.49644 -0.14577
 Cl220 Cl 0.49478 0.49594 -0.00016
 C221 C 0.59801 0.52996 -0.18901
 C222 C 0.50821 0.59776 -0.17298
 N223 N 0.43210 -0.04401 0.09137
 N224 N 0.39987 -0.07031 0.11087
 N225 N 0.48687 0.03227 0.15011
 N226 N 0.49260 0.05609 0.20792
 N227 N 0.46262 0.03054 0.09689
 N228 N 0.45084 0.05300 0.11794
 N229 N 0.45619 -0.04239 0.14490
 N230 N 0.44134 -0.06769 0.20096
 C231 C 0.40635 -0.08519 0.17884
 C232 C 0.47025 0.06905 0.18696
 N233 N 0.58068 0.04106 0.08953
 N234 N 0.61300 0.06744 0.10782
 N235 N 0.52611 -0.03622 0.14038
 N236 N 0.52091 -0.06120 0.19474
 N237 N 0.54967 -0.03347 0.08423
 N238 N 0.56187 -0.05612 0.10043
 N239 N 0.55722 0.03859 0.14567
 N240 N 0.57266 0.06337 0.20268
 Mn241 Mn 0.50663 -0.00189 0.14577
 C242 C 0.60733 0.08138 0.17819
 C243 C 0.54304 -0.07362 0.16893
 N244 N 0.46168 0.03307 -0.08259
 N245 N 0.44791 0.05432 -0.09918
 N246 N 0.45494 -0.03803 -0.14568
 N247 N 0.44014 -0.06321 -0.20194
 N248 N 0.43140 -0.04146 -0.08880
 N249 N 0.39957 -0.06892 -0.10595
 N250 N 0.48557 0.03675 -0.13888
 N251 N 0.48904 0.06088 -0.19437
 Mn252 Mn 0.44646 -0.00557 0.00421
 C253 C 0.46598 0.07210 -0.16798
 C254 C 0.40572 -0.08243 -0.17649
 N255 N 0.54870 -0.03100 -0.09646
 N256 N 0.55987 -0.05395 -0.11782
 N257 N 0.55605 0.04292 -0.14311
 N258 N 0.57148 0.06844 -0.19861
 N259 N 0.57988 0.04358 -0.09001
 N260 N 0.61237 0.06940 -0.10894
 N261 N 0.52507 -0.03179 -0.15034
 N262 N 0.51905 -0.05551 -0.20860
 Mn263 Mn 0.56517 0.00501 -0.00323
 Mn264 Mn 0.50543 0.00255 -0.14507
 Cl265 Cl 0.50593 0.00003 0.00038
 C266 C 0.54065 -0.06935 -0.18761
 C267 C 0.60649 0.08504 -0.17618
 C268 C 1.09985 0.42508 0.33754
 C269 C 1.13712 0.44777 0.34589
 C270 C 1.15455 0.47561 0.28804
 C271 C 1.13465 0.48181 0.22681
 C272 C 1.09737 0.45975 0.22138
 C273 C 1.08030 0.43078 0.27535
 H274 H 1.08561 0.40357 0.38134
 H275 H 1.18291 0.49434 0.29444
 H276 H 1.14803 0.50472 0.18633
 H277 H 1.05144 0.41383 0.27253
 C278 C 0.54315 0.68321 0.29613
 C279 C 0.51564 0.67309 0.35586
 C280 C 0.48573 0.63871 0.35010
 C281 C 0.48432 0.61460 0.29045
 C282 C 0.51257 0.62412 0.23417
 C283 C 0.54142 0.65900 0.23533
 H284 H 0.56727 0.70880 0.30005
 H285 H 0.46367 0.63004 0.39360
 H286 H 0.46157 0.58794 0.29021
 H287 H 0.56374 0.66676 0.19301
 C288 C 0.31941 -0.14314 0.29316
 C289 C 0.33165 -0.15810 0.35516
 C290 C 0.36718 -0.15227 0.35035
 C291 C 0.39039 -0.13055 0.28904
 C292 C 0.37899 -0.11369 0.23091
 C293 C 0.34294 -0.12114 0.23130
 H294 H 0.29259 -0.14616 0.29612
 H295 H 0.37741 -0.16379 0.39601
 H296 H 0.41793 -0.12566 0.28955
 H297 H 0.33363 -0.10818 0.18740
 C298 C 0.86102 0.52166 0.35361
 C299 C 0.86084 0.55428 0.35924
 C300 C 0.88050 0.58129 0.30137
 C301 C 0.90126 0.57611 0.24077
 C302 C 0.90304 0.54413 0.23872
 C303 C 0.88200 0.51669 0.29428
 H304 H 0.84611 0.50057 0.39787
 H305 H 0.88096 0.60677 0.30542
 H306 H 0.91745 0.59772 0.19883
 H307 H 0.88272 0.49172 0.29373
 C308 C 0.44928 0.30721 0.28867
 C309 C 0.47760 0.31650 0.34536
 C310 C 0.50893 0.34939 0.33663
 C311 C 0.51092 0.37371 0.27647
 C312 C 0.48176 0.36548 0.22325
 C313 C 0.45150 0.33147 0.22728
 H314 H 0.42466 0.28220 0.29524
 H315 H 0.53098 0.35711 0.37998
 H316 H 0.53460 0.39971 0.27427
 H317 H 0.42860 0.32465 0.18720
 C318 C 0.64920 0.15189 0.34193
 C319 C 0.68365 0.15533 0.34919
 C320 C 0.69467 0.13771 0.29225
 C321 C 0.67067 0.11538 0.23154
 C322 C 0.63531 0.11004 0.22858
 C323 C 0.62522 0.12935 0.28254
 H324 H 0.64020 0.16518 0.38553
 H325 H 0.72104 0.13976 0.29766
 H326 H 0.67891 0.10055 0.19083
 H327 H 0.59817 0.12582 0.28117
 C328 C 0.47624 0.15150 -0.28985
 C329 C 0.44650 0.13553 -0.34400
 C330 C 0.42122 0.09936 -0.33160
 C331 C 0.42608 0.07952 -0.26880
 C332 C 0.45680 0.09508 -0.21874
 C333 C 0.48157 0.13126 -0.22860
 H334 H 0.49702 0.17877 -0.29942
 H335 H 0.39814 0.08616 -0.37224
 H336 H 0.40706 0.05140 -0.26291
 H337 H 0.50589 0.14337 -0.19161
 C338 C 0.64624 0.51533 -0.36724
 C339 C 0.68087 0.54501 -0.36269
 C340 C 0.68925 0.56822 -0.29436
 C341 C 0.66293 0.56265 -0.23464
 C342 C 0.62794 0.53390 -0.24260
 C343 C 0.62033 0.50979 -0.30804
 H344 H 0.63894 0.49657 -0.41811
 H345 H 0.71526 0.59187 -0.28999
 H346 H 0.66939 0.58174 -0.18484
 H347 H 0.59379 0.48710 -0.31532
 C348 C 0.85808 0.31924 -0.28963
 C349 C 0.84380 0.33112 -0.35396
 C350 C 0.85015 0.36655 -0.35187
 C351 C 0.87171 0.38998 -0.29079
 C352 C 0.88808 0.37895 -0.23033
 C353 C 0.88010 0.34305 -0.22816
 H354 H 0.85457 0.29243 -0.29040
 H355 H 0.83914 0.37650 -0.39944
 H356 H 0.87693 0.41736 -0.29336
 H357 H 0.89261 0.33398 -0.18236
 C358 C 0.58019 -0.12020 -0.30088
 C359 C 0.55295 -0.13899 -0.35925
 C360 C 0.52080 -0.13740 -0.35514
 C361 C 0.51646 -0.11599 -0.29634
 C362 C 0.54412 -0.09582 -0.24002
 C363 C 0.57568 -0.09887 -0.24095
 H364 H 0.60526 -0.12103 -0.30374
 H365 H 0.49958 -0.15168 -0.39989
 H366 H 0.49177 -0.11433 -0.29672
 H367 H 0.59744 -0.08342 -0.19839
 C368 C 0.31420 0.46927 -0.29303
 C369 C 0.30155 0.43917 -0.34503
 C370 C 0.31377 0.41427 -0.33095
 C371 C 0.33855 0.41970 -0.26812
 C372 C 0.35252 0.45067 -0.21997
 C373 C 0.33993 0.47520 -0.23178
 H374 H 0.30651 0.48967 -0.30416
 H375 H 0.30481 0.39102 -0.37030
 H376 H 0.34857 0.40085 -0.26064
 H377 H 0.35116 0.49966 -0.19616
 C378 C 1.14751 0.64622 -0.35325
 C379 C 1.15602 0.68230 -0.35229
 C380 C 1.14343 0.69470 -0.28592
 C381 C 1.12073 0.67076 -0.22535
 C382 C 1.11058 0.63432 -0.23048
 C383 C 1.12543 0.62273 -0.29303
 H384 H 1.15721 0.63589 -0.40261
 H385 H 1.14893 0.72218 -0.28423
 H386 H 1.10950 0.68029 -0.17774
 H387 H 1.11864 0.59494 -0.29792
 C388 C 0.85772 0.52074 -0.34103
 C389 C 0.85459 0.55192 -0.34296
 C390 C 0.86991 0.57683 -0.27812
 C391 C 0.89071 0.57185 -0.21662
 C392 C 0.89586 0.54177 -0.21927
 C393 C 0.87763 0.51553 -0.27953
 H394 H 0.84584 0.50091 -0.38958
 H395 H 0.86820 0.60129 -0.27871
 H396 H 0.90456 0.59247 -0.17075
 H397 H 0.88052 0.49174 -0.28238
 C398 C 0.44485 0.30903 -0.29750
 C399 C 0.47389 0.31801 -0.35155
 C400 C 0.50502 0.35107 -0.34246
 C401 C 0.50632 0.37563 -0.28407
 C402 C 0.47679 0.36733 -0.23250
 C403 C 0.44651 0.33338 -0.23736
 H404 H 0.42029 0.28400 -0.30466
 H405 H 0.52762 0.35861 -0.38387
 H406 H 0.52996 0.40165 -0.28120
 H407 H 0.42329 0.32663 -0.19863
 C408 C 0.64909 0.15420 -0.34275
 C409 C 0.68321 0.15685 -0.34915
 C410 C 0.69386 0.13929 -0.29094
 C411 C 0.66973 0.11768 -0.22974
 C412 C 0.63464 0.11308 -0.22741
 C413 C 0.62499 0.13245 -0.28262
 H414 H 0.64044 0.16750 -0.38740
 H415 H 0.72001 0.14081 -0.29568
 H416 H 0.67766 0.10282 -0.18801
 H417 H 0.59817 0.12951 -0.28175
 C418 C 1.12545 0.43432 -0.29161
 C419 C 1.13990 0.45785 -0.35933
 C420 C 1.13482 0.48795 -0.36323
 C421 C 1.11473 0.49376 -0.30346
 C422 C 1.09854 0.46934 -0.23862
 C423 C 1.10490 0.44009 -0.23146
 H424 H 1.12800 0.41035 -0.28814
 H425 H 1.14579 0.50669 -0.41425
 H426 H 1.11068 0.51678 -0.31013
 H427 H 1.09247 0.42078 -0.18217
 C428 C 0.48184 0.64150 -0.34068
 C429 C 0.51243 0.67535 -0.34691
 C430 C 0.53939 0.68536 -0.28570
 C431 C 0.53694 0.66103 -0.22415
 C432 C 0.50770 0.62634 -0.22333
 C433 C 0.47954 0.61739 -0.27986
 H434 H 0.46021 0.63306 -0.38554
 H435 H 0.56382 0.71070 -0.28959
 H436 H 0.55912 0.66843 -0.18136
 H437 H 0.45643 0.59096 -0.27980
 C438 C 0.36714 -0.15180 -0.34274
 C439 C 0.33126 -0.15861 -0.34756
 C440 C 0.31859 -0.14402 -0.28598
 C441 C 0.34212 -0.12101 -0.22536
 C442 C 0.37855 -0.11222 -0.22590
 C443 C 0.39037 -0.12900 -0.28285
 H444 H 0.37769 -0.16310 -0.38788
 H445 H 0.29144 -0.14789 -0.28879
 H446 H 0.33249 -0.10817 -0.18216
 H447 H 0.41821 -0.12313 -0.28378
 C448 C 0.58688 -0.11492 0.30039
 C449 C 0.55670 -0.14145 0.34149
 C450 C 0.52223 -0.14854 0.31685
 C451 C 0.51793 -0.12784 0.25573
 C452 C 0.54801 -0.10010 0.21723
 C453 C 0.58252 -0.09456 0.23753
 H454 H 0.61367 -0.10892 0.31960
 H455 H 0.49874 -0.16870 0.34864
 H456 H 0.49112 -0.13231 0.24138
 H457 H 0.60605 -0.07286 0.20948
 C458 C 0.33966 0.47793 0.35507
 C459 C 0.30769 0.44540 0.35772
 C460 C 0.30150 0.41916 0.29821
 C461 C 0.32783 0.42504 0.23861
 C462 C 0.36075 0.45689 0.23939
 C463 C 0.36600 0.48358 0.29674
 H464 H 0.34488 0.49835 0.40093
 H465 H 0.27710 0.39376 0.30016
 H466 H 0.32331 0.40402 0.19514
 H467 H 0.39104 0.50842 0.29831
 C468 C 1.13794 0.69368 0.29287
 C469 C 1.15672 0.68359 0.34921
 C470 C 1.15528 0.65034 0.34047
 C471 C 1.13347 0.62646 0.28013
 C472 C 1.11287 0.63547 0.22691
 C473 C 1.11631 0.66979 0.23135
 H474 H 1.13851 0.71913 0.29943
 H475 H 1.16951 0.64211 0.38366
 H476 H 1.13141 0.60024 0.27762
 H477 H 1.10047 0.67719 0.19122
 C478 C 0.48781 0.13637 0.35447
 C479 C 0.45485 0.13632 0.35899
 C480 C 0.42784 0.11684 0.30074
 C481 C 0.43341 0.09636 0.24049
 C482 C 0.46578 0.09487 0.23924
 C483 C 0.49321 0.11578 0.29534
 H484 H 0.50883 0.15121 0.39925
 H485 H 0.40216 0.11641 0.30404
 H486 H 0.41183 0.08029 0.19807
 H487 H 0.51848 0.11526 0.29537
 C488 C 0.65890 0.51284 0.32632
 C489 C 0.68751 0.54723 0.33901
 C490 C 0.69190 0.57494 0.28543
 C491 C 0.66639 0.56868 0.22316
 C492 C 0.63611 0.53483 0.21541
 C493 C 0.63334 0.50673 0.26530
 H494 H 0.65508 0.49124 0.36749
 H495 H 0.71367 0.60171 0.29517
 H496 H 0.66883 0.59078 0.18572
 H497 H 0.61025 0.48040 0.26022
 C498 C 0.86373 0.31965 0.29175
 C499 C 0.84444 0.32992 0.34585
 C500 C 0.84633 0.36335 0.33537
 C501 C 0.86918 0.38720 0.27622
 C502 C 0.89015 0.37788 0.22550
 C503 C 0.88619 0.34340 0.23108
 H504 H 0.86306 0.29420 0.29975
 H505 H 0.83179 0.37181 0.37671
 H506 H 0.87171 0.41361 0.27272
 H507 H 0.90238 0.33582 0.19292
   
