data_POSCAR
  _audit_creation_date              2014-09-24
  _audit_creation_method            'ToBaCCo'
  _symmetry_space_group_name_H-M    'P1'
  _symmetry_Int_Tables_number       1
  _symmetry_cell_setting            triclinic
  loop_
  _symmetry_equiv_pos_as_xyz
 x,y,z
_cell_length_a 30.3476
_cell_length_b 30.5406
_cell_length_c 30.2817
_cell_angle_alpha 89.689600
_cell_angle_beta 90.181200
_cell_angle_gamma 98.325800
loop_
  _atom_site_label
  _atom_site_type_symbol
  _atom_site_fract_x
  _atom_site_fract_y
  _atom_site_fract_z
C1 C -0.09627 0.33816 0.00091
 C2 C -0.08102 0.32512 0.04238
 C3 C -0.03964 0.30939 0.04381
 C4 C -0.01148 0.31186 0.00684
 C5 C -0.02830 0.32482 -0.03388
 C6 C -0.07255 0.33371 -0.03858
 C7 C 0.03523 0.30086 0.01100
 C8 C 0.05906 0.28962 -0.02630
 C9 C 0.10336 0.28154 -0.02271
 C10 C 0.12306 0.28113 0.01912
 C11 C 0.10002 0.29135 0.05669
 C12 C 0.05694 0.30225 0.05244
 H13 H -0.12636 0.35271 -0.00006
 H14 H -0.02956 0.29414 0.07360
 H15 H -0.00610 0.32952 -0.06153
 H16 H 0.04386 0.28746 -0.05864
 H17 H 0.15569 0.27148 0.02275
 H18 H 0.04108 0.31216 0.08192
 C19 C 0.37702 0.80946 0.50458
 C20 C 0.40314 0.81903 0.54233
 C21 C 0.44952 0.82508 0.53839
 C22 C 0.47034 0.81735 0.49816
 C23 C 0.44304 0.80592 0.46091
 C24 C 0.39629 0.80361 0.46319
 C25 C 0.52009 0.81937 0.49586
 C26 C 0.54346 0.82753 0.45574
 C27 C 0.58988 0.82843 0.45405
 C28 C 0.61346 0.82269 0.49305
 C29 C 0.59127 0.81490 0.53342
 C30 C 0.54472 0.81244 0.53419
 H31 H 0.34149 0.80507 0.50787
 H32 H 0.46889 0.83510 0.56757
 H33 H 0.45807 0.79737 0.43054
 H34 H 0.52608 0.83357 0.42559
 H35 H 0.64882 0.82209 0.49120
 H36 H 0.52788 0.80486 0.56520
 C37 C 1.09648 0.66676 -0.00051
 C38 C 1.07287 0.66474 0.03977
 C39 C 1.02739 0.66962 0.03837
 C40 C 1.00688 0.68154 -0.00065
 C41 C 1.03220 0.68570 -0.03966
 C42 C 1.07649 0.67684 -0.04076
 C43 C 0.95962 0.69099 -0.00059
 C44 C 0.93399 0.68737 -0.03977
 C45 C 0.89138 0.69978 -0.04100
 C46 C 0.87283 0.71348 -0.00228
 C47 C 0.89628 0.71504 0.03776
 C48 C 0.94008 0.70520 0.03818
 H49 H 1.13168 0.66477 -0.00012
 H50 H 1.00779 0.66367 0.06807
 H51 H 1.01713 0.69527 -0.06975
 H52 H 0.94668 0.67520 -0.06992
 H53 H 0.84066 0.72469 -0.00342
 H54 H 0.95855 0.70891 0.06881
 C55 C 0.62471 0.19267 0.50625
 C56 C 0.60284 0.18559 0.54691
 C57 C 0.55603 0.17960 0.54799
 C58 C 0.53071 0.18343 0.50929
 C59 C 0.55400 0.19145 0.46910
 C60 C 0.60055 0.19487 0.46705
 C61 C 0.48071 0.18099 0.51068
 C62 C 0.45480 0.17404 0.47177
 C63 C 0.40905 0.17669 0.47166
 C64 C 0.38777 0.18221 0.51170
 C65 C 0.41188 0.18620 0.55136
 C66 C 0.45829 0.18738 0.55044
 H67 H 0.66056 0.19897 0.50565
 H68 H 0.54004 0.17224 0.57949
 H69 H 0.53651 0.19572 0.43873
 H70 H 0.46953 0.16699 0.44070
 H71 H 0.35289 0.18556 0.51220
 H72 H 0.47628 0.19347 0.58111
 C73 C 0.68620 -0.10351 -0.00643
 C74 C 0.69271 -0.08098 0.03422
 C75 C 0.69507 -0.03448 0.03301
 C76 C 0.68567 -0.01156 -0.00566
 C77 C 0.67577 -0.03608 -0.04458
 C78 C 0.67797 -0.08158 -0.04563
 C79 C 0.68887 0.03802 -0.00555
 C80 C 0.70068 0.06314 -0.04419
 C81 C 0.70549 0.10986 -0.04408
 C82 C 0.69991 0.13101 -0.00368
 C83 C 0.69015 0.10701 0.03542
 C84 C 0.68273 0.06075 0.03390
 H85 H 0.69214 -0.13723 -0.00893
 H86 H 0.70539 -0.01555 0.06186
 H87 H 0.66785 -0.01995 -0.07487
 H88 H 0.70597 0.04617 -0.07437
 H89 H 0.70692 0.16670 -0.00160
 H90 H 0.67282 0.04286 0.06400
 C91 C 0.18355 0.35665 0.51780
 C92 C 0.17772 0.37953 0.55676
 C93 C 0.17188 0.42434 0.55431
 C94 C 0.17465 0.44761 0.51362
 C95 C 0.18122 0.42341 0.47513
 C96 C 0.18421 0.37801 0.47679
 C97 C 0.17280 0.49686 0.51128
 C98 C 0.16728 0.51821 0.47048
 C99 C 0.17052 0.56440 0.46718
 C100 C 0.17586 0.58984 0.50562
 C101 C 0.17857 0.56969 0.54703
 C102 C 0.17843 0.52365 0.54941
 H103 H 0.19027 0.32296 0.51922
 H104 H 0.16575 0.44040 0.58485
 H105 H 0.18473 0.43926 0.44323
 H106 H 0.16078 0.49974 0.44035
 H107 H 0.18015 0.62547 0.50337
 H108 H 0.18318 0.50949 0.58142
 C109 C 0.32212 1.11302 0.00831
 C110 C 0.30893 1.09066 0.04795
 C111 C 0.29847 1.04420 0.04712
 C112 C 0.30506 1.01988 0.00887
 C113 C 0.31847 1.04361 -0.03002
 C114 C 0.32400 1.09009 -0.03166
 C115 C 0.29839 0.97006 0.00942
 C116 C 0.29080 0.94582 -0.03012
 C117 C 0.29005 0.89960 -0.03101
 C118 C 0.29109 0.87697 0.00951
 C119 C 0.29581 0.89983 0.04958
 C120 C 0.30104 0.94622 0.04915
 H121 H 0.32861 1.14861 0.00838
 H122 H 0.28447 1.02702 0.07614
 H123 H 0.32573 1.02634 -0.05950
 H124 H 0.28719 0.96296 -0.06082
 H125 H 0.28510 0.84133 0.01002
 H126 H 0.30749 0.96322 0.08023
 C127 C 0.81156 0.64701 0.49856
 C128 C 0.80838 0.62252 0.53790
 C129 C 0.81293 0.57750 0.53670
 C130 C 0.82370 0.55719 0.49717
 C131 C 0.82836 0.58314 0.45836
 C132 C 0.82106 0.62746 0.45861
 C133 C 0.82884 0.50904 0.49640
 C134 C 0.82120 0.48395 0.45739
 C135 C 0.82437 0.43847 0.45693
 C136 C 0.83277 0.41746 0.49682
 C137 C 0.83957 0.44139 0.53615
 C138 C 0.83950 0.48723 0.53524
 H139 H 0.80455 0.68067 0.49847
 H140 H 0.80777 0.55866 0.56702
 H141 H 0.83773 0.56941 0.42754
 H142 H 0.81208 0.49952 0.42749
 H143 H 0.83142 0.38184 0.49777
 H144 H 0.84712 0.50538 0.56551
 O145 O 0.20568 0.23749 0.31845
 O146 O 0.24729 0.17090 0.23065
 O147 O 0.26516 0.18464 0.31410
 O148 O 0.18707 0.22340 0.23453
 O149 O 0.23690 0.28104 0.21772
 O150 O 0.31582 0.24089 0.29536
 O151 O 0.29579 0.22888 0.21131
 O152 O 0.25638 0.29400 0.30046
 Cu153 Cu 0.22117 0.19843 0.27625
 Cu154 Cu 0.28150 0.26678 0.25459
 C155 C 0.22427 0.27702 0.32468
 C156 C 0.27799 0.18913 0.20539
 C157 C 0.30381 0.20643 0.31856
 C158 C 0.19871 0.25855 0.21224
 O159 O 0.75787 0.84107 0.21855
 O160 O 0.80018 0.77218 0.30433
 O161 O 0.81628 0.78815 0.22016
 O162 O 0.73942 0.82492 0.30204
 O163 O 0.68807 0.76959 0.28293
 O164 O 0.76449 0.73251 0.20239
 O165 O 0.74929 0.71622 0.28574
 O166 O 0.70738 0.78475 0.19948
 Cu167 Cu 0.78349 0.81209 0.26364
 Cu168 Cu 0.72187 0.74502 0.24161
 C169 C 0.72686 0.82394 0.19304
 C170 C 0.78225 0.73229 0.30943
 C171 C 0.80250 0.75503 0.19597
 C172 C 0.70041 0.80367 0.30613
 O173 O 0.81839 0.27216 0.22100
 O174 O 0.73616 0.22062 0.30159
 O175 O 0.75479 0.20536 0.21920
 O176 O 0.79784 0.28820 0.30248
 O177 O 0.75056 0.33177 0.27895
 O178 O 0.70672 0.24853 0.19667
 O179 O 0.68887 0.26468 0.27933
 O180 O 0.76988 0.31426 0.19696
 Cu181 Cu 0.78158 0.24218 0.26331
 Cu182 Cu 0.72421 0.29415 0.23565
 C183 C 0.80763 0.30114 0.19445
 C184 C 0.69911 0.23492 0.30529
 C185 C 0.72406 0.21331 0.19303
 C186 C 0.78077 0.32367 0.30562
 O187 O 0.23304 0.66268 0.28252
 O188 O 0.27605 0.75032 0.20301
 O189 O 0.29476 0.73094 0.28394
 O190 O 0.21602 0.68038 0.19912
 O191 O 0.16588 0.72044 0.22233
 O192 O 0.24315 0.76894 0.30830
 O193 O 0.22597 0.79039 0.22640
 O194 O 0.18168 0.70208 0.30421
 Cu195 Cu 0.25984 0.70186 0.23972
 Cu196 Cu 0.19920 0.74966 0.26735
 C197 C 0.20066 0.66784 0.30764
 C198 C 0.25814 0.78538 0.20106
 C199 C 0.28177 0.75776 0.31120
 C200 C 0.17777 0.69237 0.19575
 O201 O 0.82388 0.29239 0.69084
 O202 O 0.78184 0.21025 0.77574
 O203 O 0.76043 0.22464 0.69360
 O204 O 0.84227 0.27925 0.77409
 O205 O 0.79337 0.32210 0.79459
 O206 O 0.71187 0.26688 0.71600
 O207 O 0.73435 0.25387 0.79794
 O208 O 0.77532 0.33508 0.71227
 Cu209 Cu 0.80692 0.24739 0.73107
 Cu210 Cu 0.74862 0.29874 0.75680
 C211 C 0.80693 0.32787 0.68718
 C212 C 0.75201 0.21883 0.80234
 C213 C 0.72196 0.23639 0.69134
 C214 C 0.83103 0.30916 0.79901
 O215 O 0.30815 0.74762 0.72502
 O216 O 0.22371 0.69658 0.80428
 O217 O 0.24536 0.67982 0.72317
 O218 O 0.28622 0.76220 0.80705
 O219 O 0.23966 0.80614 0.78277
 O220 O 0.19951 0.72383 0.69759
 O221 O 0.17704 0.73985 0.77885
 O222 O 0.26190 0.79203 0.70123
 Cu223 Cu 0.27072 0.71719 0.76702
 Cu224 Cu 0.21490 0.76978 0.73740
 C225 C 0.29935 0.77830 0.69935
 C226 C 0.18630 0.71055 0.80590
 C227 C 0.21571 0.68775 0.69581
 C228 C 0.26882 0.79741 0.81039
 O229 O 0.25841 0.30026 0.73279
 O230 O 0.30839 0.23083 0.81278
 O231 O 0.32030 0.24939 0.72911
 O232 O 0.24502 0.27873 0.81601
 O233 O 0.19575 0.22112 0.79806
 O234 O 0.26960 0.19346 0.70991
 O235 O 0.25978 0.17334 0.79320
 O236 O 0.20772 0.24376 0.71518
 Cu237 Cu 0.28796 0.27064 0.77437
 Cu238 Cu 0.22822 0.20225 0.75220
 C239 C 0.22469 0.28402 0.71023
 C240 C 0.29248 0.19024 0.81689
 C241 C 0.30757 0.21636 0.70449
 C242 C 0.20788 0.25441 0.82240
 O243 O 0.73305 0.69990 0.71903
 O244 O 0.69198 0.77406 0.80049
 O245 O 0.67567 0.75387 0.71776
 O246 O 0.74873 0.71680 0.80268
 O247 O 0.80216 0.77036 0.78360
 O248 O 0.72902 0.80731 0.69809
 O249 O 0.74552 0.82723 0.78081
 O250 O 0.78677 0.75347 0.70061
 Cu251 Cu 0.70704 0.73084 0.76234
 Cu252 Cu 0.77122 0.79509 0.73918
 C253 C 0.76646 0.71454 0.69522
 C254 C 0.71174 0.81352 0.80432
 C255 C 0.69020 0.78606 0.69260
 C256 C 0.78804 0.73696 0.80748
 C257 C 0.30439 0.16201 0.08864
 C258 C 0.30563 0.11618 0.08970
 C259 C 0.30538 0.09618 0.13213
 C260 C 0.29768 0.12001 0.17046
 C261 C 0.29209 0.16483 0.16753
 C262 C 0.29855 0.18575 0.12653
 C263 C 0.27025 0.21474 0.10335
 C264 C 0.27604 0.18851 0.06188
 H265 H 0.30964 0.06187 0.13612
 H266 H 0.29485 0.10311 0.20208
 H267 H 0.28697 0.24953 0.10124
 H268 H 0.23540 0.21041 0.11572
 H269 H 0.29523 0.20884 0.03591
 H270 H 0.24464 0.16846 0.05032
 C271 C 0.82778 0.68100 0.59572
 C272 C 0.80005 0.64339 0.58052
 C273 C 0.76616 0.62394 0.60935
 C274 C 0.75663 0.64555 0.64856
 C275 C 0.78130 0.68675 0.66004
 C276 C 0.81886 0.70176 0.63446
 C277 C 0.83711 0.74650 0.61710
 C278 C 0.84682 0.72382 0.57434
 H279 H 0.74525 0.59351 0.60026
 H280 H 0.72828 0.63142 0.66818
 H281 H 0.86772 0.76114 0.63500
 H282 H 0.81118 0.76855 0.61339
 H283 H 0.88301 0.72563 0.56753
 H284 H 0.82659 0.73387 0.54649
 C285 C 0.71958 0.91742 0.11207
 C286 C 0.69995 0.89577 0.07410
 C287 C 0.68947 0.84892 0.07725
 C288 C 0.69741 0.82591 0.11604
 C289 C 0.71588 0.84849 0.15350
 C290 C 0.72818 0.89418 0.15018
 C291 C 0.71580 0.92868 0.18031
 C292 C 0.70567 0.95402 0.13934
 H293 H 0.67300 0.82928 0.05084
 H294 H 0.68868 0.79023 0.11670
 H295 H 0.74494 0.94522 0.19922
 H296 H 0.68581 0.91684 0.20045
 H297 H 0.72862 0.98567 0.13556
 H298 H 0.66970 0.95678 0.13553
 C299 C 0.15847 0.31783 0.61318
 C300 C 0.18275 0.35856 0.60044
 C301 C 0.21436 0.37901 0.63102
 C302 C 0.22601 0.35596 0.66882
 C303 C 0.20584 0.31207 0.67722
 C304 C 0.16928 0.29570 0.65079
 C305 C 0.15376 0.25133 0.63150
 C306 C 0.14166 0.27551 0.59001
 H307 H 0.23285 0.41131 0.62383
 H308 H 0.25307 0.37133 0.68942
 H309 H 0.12424 0.23372 0.64907
 H310 H 0.18141 0.23165 0.62635
 H311 H 0.10519 0.27175 0.58387
 H312 H 0.16194 0.26811 0.56138
 C313 C 0.84744 0.33132 0.07964
 C314 C 0.89313 0.32722 0.08143
 C315 C 0.91164 0.32518 0.12454
 C316 C 0.88433 0.31970 0.16229
 C317 C 0.83796 0.31770 0.15840
 C318 C 0.82079 0.32671 0.11712
 C319 C 0.78200 0.30199 0.09335
 C320 C 0.81065 0.30687 0.05228
 H321 H 0.94702 0.32636 0.12975
 H322 H 0.89924 0.31473 0.19413
 H323 H 0.75336 0.32089 0.09165
 H324 H 0.77372 0.26713 0.10486
 H325 H 0.79775 0.32852 0.02735
 H326 H 0.81872 0.27487 0.03957
 C327 C 0.34837 0.84072 0.59892
 C328 C 0.38263 0.81687 0.58687
 C329 C 0.39610 0.78778 0.61904
 C330 C 0.37107 0.77770 0.65793
 C331 C 0.33225 0.79692 0.66579
 C332 C 0.32449 0.83146 0.63750
 C333 C 0.28333 0.84539 0.61839
 C334 C 0.30953 0.85583 0.57582
 H335 H 0.42351 0.76969 0.61234
 H336 H 0.38003 0.75214 0.67970
 H337 H 0.27433 0.87533 0.63480
 H338 H 0.25569 0.81740 0.61502
 H339 H 0.31557 0.89177 0.56792
 H340 H 0.29526 0.83428 0.54849
 C341 C 0.07756 0.67670 0.12021
 C342 C 0.09460 0.66099 0.08105
 C343 C 0.13601 0.64476 0.08508
 C344 C 0.16180 0.65147 0.12401
 C345 C 0.14712 0.67477 0.15987
 C346 C 0.10330 0.68390 0.15815
 C347 C 0.08440 0.72482 0.16966
 C348 C 0.05613 0.71718 0.12827
 H349 H 0.14978 0.62849 0.05784
 H350 H 0.19465 0.64157 0.12449
 H351 H 0.10937 0.75525 0.16778
 H352 H 0.06456 0.72077 0.20058
 H353 H 0.06471 0.74317 0.10259
 H354 H 0.01999 0.70900 0.13556
 C355 C 0.61562 0.21091 0.62510
 C356 C 0.62899 0.18822 0.58860
 C357 C 0.67060 0.17273 0.59157
 C358 C 0.70004 0.18574 0.62684
 C359 C 0.68863 0.21487 0.65955
 C360 C 0.64474 0.22417 0.65945
 C361 C 0.62688 0.26694 0.66470
 C362 C 0.59488 0.25230 0.62712
 H363 H 0.68168 0.15322 0.56516
 H364 H 0.73289 0.17586 0.62646
 H365 H 0.65172 0.29619 0.65616
 H366 H 0.60989 0.26892 0.69693
 H367 H 0.60116 0.27306 0.59687
 H368 H 0.55950 0.24574 0.63775
 C369 C 0.71101 0.18027 0.91521
 C370 C 0.71801 0.13577 0.91760
 C371 C 0.74033 0.11988 0.88113
 C372 C 0.75152 0.14663 0.84347
 C373 C 0.73986 0.18957 0.84060
 C374 C 0.72139 0.20612 0.87799
 C375 C 0.68132 0.22880 0.88244
 C376 C 0.66970 0.20047 0.92330
 H377 H 0.75024 0.08731 0.88140
 H378 H 0.76845 0.13331 0.81631
 H379 H 0.65720 0.22108 0.85487
 H380 H 0.69034 0.26457 0.88995
 H381 H 0.63881 0.17630 0.91952
 H382 H 0.67176 0.22016 0.95420
 C383 C 0.14425 0.61581 0.40993
 C384 C 0.17246 0.58556 0.42290
 C385 C 0.20349 0.57521 0.39131
 C386 C 0.21051 0.59971 0.35167
 C387 C 0.18617 0.63475 0.34245
 C388 C 0.15054 0.63917 0.37063
 C389 C 0.13302 0.67841 0.38910
 C390 C 0.12627 0.65287 0.43249
 H391 H 0.22481 0.55059 0.39878
 H392 H 0.23730 0.59343 0.33014
 H393 H 0.10123 0.68392 0.37316
 H394 H 0.15878 0.70815 0.39110
 H395 H 0.09062 0.64397 0.44152
 H396 H 0.14806 0.66894 0.45900
 C397 C 0.27273 0.89362 0.88932
 C398 C 0.28943 0.87677 0.92830
 C399 C 0.30774 0.83683 0.92428
 C400 C 0.30420 0.81280 0.88462
 C401 C 0.28140 0.82729 0.84796
 C402 C 0.26810 0.86919 0.85056
 C403 C 0.22470 0.88400 0.83929
 C404 C 0.22958 0.91079 0.88157
 H405 H 0.32454 0.82354 0.95176
 H406 H 0.31670 0.78135 0.88385
 H407 H 0.19631 0.85654 0.84011
 H408 H 0.22689 0.90490 0.80899
 H409 H 0.20403 0.89890 0.90682
 H410 H 0.23437 0.94707 0.87544
 C411 C 0.78056 0.41703 0.38727
 C412 C 0.81571 0.41153 0.41611
 C413 C 0.83834 0.37490 0.40868
 C414 C 0.82756 0.34665 0.37252
 C415 C 0.79399 0.35428 0.34244
 C416 C 0.76987 0.38886 0.35165
 C417 C 0.75952 0.42518 0.32213
 C418 C 0.77190 0.45631 0.36048
 H419 H 0.86497 0.36835 0.43051
 H420 H 0.84594 0.31916 0.36790
 H421 H 0.72358 0.42152 0.31340
 H422 H 0.78280 0.43118 0.29373
 H423 H 0.74324 0.47130 0.37329
 H424 H 0.80255 0.48011 0.35390
 C425 C 0.16992 0.30181 0.92828
 C426 C 0.12911 0.27528 0.93686
 C427 C 0.11084 0.24672 0.90288
 C428 C 0.13559 0.24108 0.86450
 C429 C 0.17880 0.26464 0.85879
 C430 C 0.19377 0.29697 0.89008
 C431 C 0.23758 0.30714 0.91297
 C432 C 0.21164 0.31195 0.95510
 H433 H 0.07835 0.22717 0.90689
 H434 H 0.12163 0.21693 0.84033
 H435 H 0.25680 0.33883 0.90135
 H436 H 0.25638 0.27847 0.91364
 H437 H 0.21640 0.34630 0.96806
 H438 H 0.21617 0.28587 0.97970
 C439 C 0.59717 0.80623 0.37522
 C440 C 0.61368 0.83216 0.41122
 C441 C 0.65646 0.85706 0.40690
 C442 C 0.68385 0.85042 0.37070
 C443 C 0.66921 0.81826 0.33852
 C444 C 0.62436 0.79911 0.34000
 C445 C 0.60326 0.75202 0.33550
 C446 C 0.57341 0.75992 0.37401
 H447 H 0.67002 0.87902 0.43311
 H448 H 0.71765 0.86764 0.37010
 H449 H 0.58484 0.74602 0.30382
 H450 H 0.62656 0.72811 0.34339
 H451 H 0.57941 0.74060 0.40412
 H452 H 0.53785 0.75862 0.36447
 C453 C 0.82638 0.67832 0.90749
 C454 C 0.86826 0.70253 0.91635
 C455 C 0.88744 0.73182 0.88321
 C456 C 0.86221 0.74150 0.84615
 C457 C 0.81751 0.72150 0.84127
 C458 C 0.80200 0.68720 0.87065
 C459 C 0.75864 0.67554 0.89399
 C460 C 0.78537 0.66557 0.93457
 H461 H 0.92056 0.74992 0.88771
 H462 H 0.87676 0.76665 0.82305
 H463 H 0.73838 0.64560 0.87991
 H464 H 0.74070 0.70452 0.89825
 H465 H 0.78050 0.62989 0.94365
 H466 H 0.78159 0.68843 0.96217
 C467 C 0.34542 0.15080 0.41891
 C468 C 0.38529 0.17831 0.42893
 C469 C 0.40287 0.20873 0.39592
 C470 C 0.37769 0.21593 0.35803
 C471 C 0.33460 0.19232 0.35193
 C472 C 0.32124 0.15722 0.38115
 C473 C 0.27780 0.14124 0.40284
 C474 C 0.30422 0.13420 0.44449
 H475 H 0.43454 0.22949 0.40101
 H476 H 0.39072 0.24212 0.33534
 H477 H 0.26108 0.10984 0.38823
 H478 H 0.25646 0.16774 0.40620
 H479 H 0.30251 0.09875 0.45382
 H480 H 0.29669 0.15634 0.47146
 C481 C 0.65226 0.85502 0.90170
 C482 C 0.67867 0.89554 0.91131
 C483 C 0.70940 0.91311 0.87859
 C484 C 0.71819 0.88751 0.84188
 C485 C 0.69601 0.84386 0.83671
 C486 C 0.66028 0.83040 0.86511
 C487 C 0.64362 0.78752 0.88721
 C488 C 0.63442 0.81442 0.92758
 H489 H 0.72961 0.94501 0.88336
 H490 H 0.74466 0.90077 0.81956
 H491 H 0.67036 0.76671 0.89271
 H492 H 0.61282 0.77039 0.87137
 H493 H 0.65514 0.80725 0.95616
 H494 H 0.59831 0.81276 0.93471
 C495 C 0.21487 0.37309 0.40039
 C496 C 0.18937 0.35330 0.43549
 C497 C 0.16855 0.30924 0.42976
 C498 C 0.17793 0.28473 0.39245
 C499 C 0.20865 0.30369 0.36036
 C500 C 0.22454 0.34890 0.36403
 C501 C 0.27076 0.37337 0.36071
 C502 C 0.26003 0.39997 0.40056
 H503 H 0.14648 0.29315 0.45488
 H504 H 0.16322 0.25033 0.39019
 H505 H 0.27578 0.39350 0.32997
 H506 H 0.29670 0.35195 0.36756
 H507 H 0.25875 0.43536 0.39268
 H508 H 0.27972 0.39401 0.43047
 C509 C 0.30955 0.09224 0.88837
 C510 C 0.32810 0.11272 0.92711
 C511 C 0.34608 0.15811 0.92316
 C512 C 0.33800 0.18276 0.88524
 C513 C 0.31133 0.16293 0.85051
 C514 C 0.30072 0.11682 0.85151
 C515 C 0.25825 0.08744 0.84150
 C516 C 0.26769 0.06035 0.88169
 H517 H 0.36456 0.17551 0.94991
 H518 H 0.34928 0.21806 0.88506
 H519 H 0.25991 0.06941 0.80991
 H520 H 0.22837 0.10424 0.84556
 H521 H 0.27470 0.02671 0.87311
 H522 H 0.24323 0.06140 0.90880
 C523 C 0.79859 0.63303 0.37943
 C524 C 0.82060 0.65251 0.41667
 C525 C 0.83833 0.69776 0.41378
 C526 C 0.82838 0.72344 0.37723
 C527 C 0.79983 0.70448 0.34335
 C528 C 0.78805 0.65841 0.34391
 C529 C 0.74414 0.63015 0.33703
 C530 C 0.75583 0.60221 0.37589
 H531 H 0.85735 0.71389 0.44096
 H532 H 0.84010 0.75865 0.37737
 H533 H 0.74262 0.61225 0.30507
 H534 H 0.71543 0.64800 0.34372
 H535 H 0.76122 0.56831 0.36628
 H536 H 0.73389 0.60383 0.40501
 C537 C 0.08746 0.70343 0.88229
 C538 C 0.10037 0.67930 0.91870
 C539 C 0.13798 0.65731 0.91223
 C540 C 0.16424 0.66457 0.87380
 C541 C 0.15394 0.69416 0.84074
 C542 C 0.11368 0.71094 0.84476
 C543 C 0.10391 0.75715 0.83934
 C544 C 0.07523 0.74922 0.88032
 H545 H 0.14807 0.63507 0.93697
 H546 H 0.19415 0.64922 0.87146
 H547 H 0.08440 0.76129 0.80886
 H548 H 0.13380 0.78241 0.84418
 H549 H 0.03926 0.74920 0.87322
 H550 H 0.08844 0.76988 0.90888
 C551 C 0.65564 0.17664 0.40992
 C552 C 0.62322 0.20204 0.42366
 C553 C 0.60958 0.23202 0.39250
 C554 C 0.63198 0.24019 0.35198
 C555 C 0.66859 0.21854 0.34151
 C556 C 0.67740 0.18449 0.36987
 C557 C 0.71991 0.17227 0.38751
 C558 C 0.69640 0.16403 0.43167
 H559 H 0.58343 0.25128 0.40048
 H560 H 0.62268 0.26586 0.33054
 H561 H 0.74734 0.20068 0.38810
 H562 H 0.72842 0.14159 0.37218
 H563 H 0.71131 0.18789 0.45698
 H564 H 0.69186 0.12869 0.44200
 C565 C 0.86414 0.34881 0.91306
 C566 C 0.90748 0.33750 0.91867
 C567 C 0.92855 0.32671 0.87879
 C568 C 0.90511 0.32107 0.83840
 C569 C 0.86019 0.32703 0.83578
 C570 C 0.84181 0.34442 0.87276
 C571 C 0.79741 0.33076 0.89315
 C572 C 0.82112 0.33483 0.93715
 H573 H 0.96171 0.31810 0.87820
 H574 H 0.92122 0.30867 0.81016
 H575 H 0.78290 0.29617 0.88509
 H576 H 0.77475 0.35587 0.88805
 H577 H 0.82026 0.30243 0.95431
 H578 H 0.81112 0.36203 0.95734
 C579 C 0.32081 0.78313 0.42712
 C580 C 0.36720 0.79489 0.42307
 C581 C 0.38407 0.80093 0.37946
 C582 C 0.35629 0.79000 0.34248
 C583 C 0.31069 0.77462 0.34807
 C584 C 0.29334 0.77394 0.39066
 C585 C 0.26416 0.73748 0.41377
 C586 C 0.29434 0.74701 0.45364
 H587 H 0.41877 0.81301 0.37338
 H588 H 0.37061 0.79259 0.30968
 H589 H 0.26549 0.70445 0.39892
 H590 H 0.23012 0.74570 0.41921
 H591 H 0.31357 0.71968 0.46184
 H592 H 0.27700 0.75986 0.48202
 C593 C 0.31851 0.84289 0.10320
 C594 C 0.29225 0.87562 0.09232
 C595 C 0.26098 0.88473 0.12421
 C596 C 0.25175 0.85713 0.16161
 C597 C 0.27408 0.82012 0.16826
 C598 C 0.31003 0.81646 0.14032
 C599 C 0.32654 0.77796 0.11923
 C600 C 0.33603 0.80694 0.07824
 H601 H 0.24109 0.91094 0.11848
 H602 H 0.22495 0.86294 0.18333
 H603 H 0.29970 0.74952 0.11416
 H604 H 0.35721 0.76971 0.13547
 H605 H 0.31508 0.79372 0.04994
 H606 H 0.37216 0.81526 0.07101
 C607 C 0.81863 0.43045 0.61568
 C608 C 0.84178 0.41801 0.57896
 C609 C 0.86226 0.37952 0.58312
 C610 C 0.85358 0.35135 0.62011
 C611 C 0.82385 0.36095 0.65329
 C612 C 0.80961 0.40253 0.65173
 C613 C 0.76443 0.41550 0.65784
 C614 C 0.77439 0.44624 0.61836
 H615 H 0.88228 0.36952 0.55649
 H616 H 0.86721 0.32049 0.62080
 H617 H 0.76176 0.43343 0.68934
 H618 H 0.73712 0.38779 0.65153
 H619 H 0.77756 0.48185 0.62716
 H620 H 0.75286 0.43638 0.58925
 C621 C 0.68198 0.17345 0.08099
 C622 C 0.69361 0.13087 0.07817
 C623 C 0.71704 0.11572 0.11421
 C624 C 0.72583 0.14172 0.15245
 C625 C 0.71094 0.18325 0.15576
 C626 C 0.69017 0.19879 0.11875
 C627 C 0.64681 0.21618 0.11503
 C628 C 0.63790 0.18844 0.07358
 H629 H 0.72956 0.08433 0.11249
 H630 H 0.74438 0.12937 0.17924
 H631 H 0.65148 0.25237 0.10829
 H632 H 0.62375 0.20497 0.14262
 H633 H 0.63749 0.20866 0.04298
 H634 H 0.60962 0.16110 0.07701
 C635 C 0.20884 0.58643 0.62347
 C636 C 0.18268 0.59684 0.58786
 C637 C 0.16041 0.63413 0.59246
 C638 C 0.16915 0.66274 0.62887
 C639 C 0.20046 0.65475 0.66142
 C640 C 0.21769 0.61469 0.65911
 C641 C 0.26453 0.60537 0.66295
 C642 C 0.25475 0.57432 0.62393
 H643 H 0.13773 0.64229 0.56705
 H644 H 0.15337 0.69231 0.63009
 H645 H 0.27034 0.58788 0.69424
 H646 H 0.28948 0.63486 0.65543
 H647 H 0.25486 0.53898 0.63283
 H648 H 0.27400 0.58576 0.59380
 C649 C 0.82861 0.71215 0.08442
 C650 C 0.87399 0.72691 0.07859
 C651 C 0.89596 0.75461 0.11155
 C652 C 0.87325 0.76381 0.15041
 C653 C 0.82857 0.74463 0.15736
 C654 C 0.80667 0.72054 0.12262
 C655 C 0.77910 0.67586 0.12230
 C656 C 0.80318 0.66677 0.08012
 H657 H 0.93051 0.76884 0.10750
 H658 H 0.89085 0.78501 0.17524
 H659 H 0.74318 0.67784 0.11703
 H660 H 0.78665 0.65483 0.15064
 H661 H 0.78116 0.66368 0.05056
 H662 H 0.82467 0.64041 0.08389
 C663 C 0.40545 0.21900 0.62671
 C664 C 0.38834 0.18930 0.59374
 C665 C 0.34736 0.16244 0.60216
 C666 C 0.32204 0.16965 0.63956
 C667 C 0.33694 0.20419 0.66919
 C668 C 0.38023 0.22653 0.66335
 C669 C 0.39742 0.27488 0.66321
 C670 C 0.42513 0.26656 0.62316
 H671 H 0.33388 0.13726 0.57877
 H672 H 0.28966 0.14992 0.64367
 H673 H 0.41792 0.28495 0.69293
 H674 H 0.37105 0.29561 0.65567
 H675 H 0.46154 0.27167 0.62990
 H676 H 0.41490 0.28248 0.59242
 C677 C 0.15731 0.31796 0.11435
 C678 C 0.12002 0.28867 0.10088
 C679 C 0.10272 0.25507 0.13078
 C680 C 0.12670 0.24697 0.16927
 C681 C 0.16815 0.27276 0.17869
 C682 C 0.18045 0.31050 0.15246
 C683 C 0.22397 0.33023 0.13288
 C684 C 0.19850 0.33828 0.09090
 H685 H 0.07273 0.23280 0.12259
 H686 H 0.11446 0.21853 0.18957
 H687 H 0.24723 0.30567 0.12872
 H688 H 0.23836 0.36131 0.14972
 H689 H 0.20758 0.31840 0.06266
 H690 H 0.19834 0.37397 0.08364
 C691 C 0.65484 0.83735 0.58678
 C692 C 0.61581 0.80910 0.57520
 C693 C 0.59766 0.77795 0.60736
 C694 C 0.62040 0.77243 0.64708
 C695 C 0.66204 0.79786 0.65585
 C696 C 0.67702 0.83206 0.62621
 C697 C 0.72179 0.84548 0.60630
 C698 C 0.69790 0.85056 0.56285
 H699 H 0.56697 0.75606 0.60096
 H700 H 0.60658 0.74633 0.66953
 H701 H 0.74240 0.81818 0.60614
 H702 H 0.73859 0.87742 0.61971
 H703 H 0.70541 0.82584 0.53825
 H704 H 0.70166 0.88533 0.55076
   
