data_POSCAR
  _audit_creation_date              2014-09-24
  _audit_creation_method            'ToBaCCo'
  _symmetry_space_group_name_H-M    'P1'
  _symmetry_Int_Tables_number       1
  _symmetry_cell_setting            triclinic
  loop_
  _symmetry_equiv_pos_as_xyz
 x,y,z
_cell_length_a 24.3865
_cell_length_b 24.1355
_cell_length_c 24.3355
_cell_angle_alpha 85.547900
_cell_angle_beta 89.818100
_cell_angle_gamma 87.754900
loop_
  _atom_site_label
  _atom_site_type_symbol
  _atom_site_fract_x
  _atom_site_fract_y
  _atom_site_fract_z
C1 C 0.00060 0.42609 0.22459
 C2 C 0.05287 0.42190 0.25858
 C3 C 0.06009 0.46737 0.29085
 C4 C 0.01192 0.51134 0.28547
 C5 C -0.04550 0.43290 0.26563
 C6 C -0.04040 0.47842 0.29889
 C7 C 0.00239 0.48183 0.19109
 C8 C 0.00797 0.52792 0.22301
 H9 H 0.08365 0.38860 0.25581
 H10 H 0.01658 0.54649 0.31157
 H11 H -0.08158 0.40840 0.26432
 H12 H -0.00023 0.48594 0.14649
 C13 C 0.00682 0.47046 0.77982
 C14 C -0.04122 0.46872 0.74494
 C15 C -0.04775 0.51402 0.70415
 C16 C -0.00215 0.55539 0.70628
 C17 C 0.05397 0.47447 0.74322
 C18 C 0.05059 0.51973 0.70195
 C19 C 0.00213 0.52342 0.80487
 C20 C -0.00266 0.57109 0.76600
 H21 H -0.07221 0.43821 0.75326
 H22 H -0.00596 0.59130 0.67482
 H23 H 0.09088 0.44858 0.75070
 H24 H 0.00228 0.52597 0.84905
 C25 C 0.20535 0.00353 0.44261
 C26 C 0.23612 0.05742 0.43821
 C27 C 0.27369 0.06241 0.48204
 C28 C 0.27546 0.01127 0.52390
 C29 C 0.24926 -0.04292 0.44742
 C30 C 0.28765 -0.03904 0.49021
 C31 C 0.17798 0.00133 0.49941
 C32 C 0.21578 0.00558 0.54349
 H33 H 0.22719 0.08929 0.40549
 H34 H 0.30520 0.01426 0.55800
 H35 H 0.24627 -0.07936 0.42451
 H36 H 0.13406 -0.00075 0.50473
 C37 C 0.79301 -0.02373 0.45011
 C38 C 0.74991 -0.06307 0.45200
 C39 C 0.70865 -0.05509 0.49263
 C40 C 0.71915 -0.00488 0.52631
 C41 C 0.76490 0.03351 0.44232
 C42 C 0.72603 0.04490 0.48333
 C43 C 0.81692 -0.02732 0.50826
 C44 C 0.77713 -0.01721 0.54981
 H45 H 0.75407 -0.10044 0.43021
 H46 H 0.68750 0.00202 0.55820
 H47 H 0.77680 0.06450 0.41027
 H48 H 0.85960 -0.03879 0.51614
 C49 C 0.43162 0.21983 1.02838
 C50 C 0.44718 0.24742 1.07643
 C51 C 0.49024 0.28526 1.06872
 C52 C 0.51251 0.28861 1.00960
 C53 C 0.41943 0.26382 0.98549
 C54 C 0.46222 0.30059 0.97221
 C55 C 0.48033 0.18942 1.01126
 C56 C 0.53052 0.22312 0.99986
 H57 H 0.42370 0.24374 1.11432
 H58 H 0.54625 0.31790 1.00257
 H59 H 0.38189 0.26586 0.96145
 H60 H 0.48191 0.14476 1.00848
 C61 C 0.45896 0.79158 0.98753
 C62 C 0.45714 0.75355 0.94048
 C63 C 0.50115 0.71321 0.94079
 C64 C 0.54068 0.71702 0.98912
 C65 C 0.46144 0.75268 1.03989
 C66 C 0.50600 0.71301 1.04173
 C67 C 0.51211 0.81686 0.98329
 C68 C 0.55802 0.77769 0.98409
 H69 H 0.42625 0.75999 0.90870
 H70 H 0.57556 0.68584 0.98982
 H71 H 0.43140 0.75626 1.07229
 H72 H 0.51595 0.86145 0.98115
 B73 B 0.99842 1.05730 0.02392
 B74 B 0.99977 1.05598 -0.04619
 B75 B 1.05335 1.02858 -0.00815
 B76 B 1.02866 0.99737 0.05152
 B77 B 0.95859 1.00523 0.04985
 B78 B 0.93897 1.04325 -0.01106
 B79 B 0.99080 0.94234 -0.03562
 B80 B 0.98948 0.94172 0.03624
 B81 B 0.93526 0.97093 -0.00421
 B82 B 0.96105 1.00237 -0.06366
 B83 B 1.03022 0.99456 -0.06149
 B84 B 1.04864 0.95876 -0.00157
 B85 B 0.56034 0.49288 0.47406
 B86 B 0.55693 0.49330 0.54339
 B87 B 0.53913 0.55222 0.50286
 B88 B 0.50638 0.53211 0.44692
 B89 B 0.50361 0.46216 0.45241
 B90 B 0.53430 0.43814 0.51238
 B91 B 0.44458 0.50240 0.53771
 B92 B 0.44750 0.50182 0.46823
 B93 B 0.46540 0.44365 0.50872
 B94 B 0.49829 0.46334 0.56500
 B95 B 0.50104 0.53322 0.55956
 B96 B 0.46979 0.55726 0.49950
 C97 C 0.99278 1.37824 0.18961
 C98 C 1.00136 1.32312 0.21030
 C99 C 0.99084 1.27624 0.17703
 C100 C 1.02670 1.22930 0.18126
 C101 C 1.01799 1.18461 0.14963
 C102 C 0.97244 1.18578 0.11433
 C103 C 0.93546 1.23179 0.11150
 C104 C 0.94492 1.27711 0.14214
 C105 C 0.96234 1.13857 0.08161
 C106 C 1.00501 1.11206 0.05455
 H107 H 1.01920 1.31409 0.25087
 H108 H 1.06190 1.22761 0.20847
 H109 H 1.04630 1.14879 0.15339
 H110 H 0.89976 1.23292 0.08500
 H111 H 0.91587 1.31231 0.13929
 H112 H 0.92072 1.12538 0.07846
 H113 H 0.97641 1.38704 0.14838
 H114 H 1.04494 1.12981 0.05440
 C115 C 1.01047 0.58133 0.19655
 C116 C 1.00992 0.63106 0.22233
 C117 C 1.01394 0.68461 0.18859
 C118 C 0.98121 0.73133 0.20060
 C119 C 0.98201 0.78062 0.16593
 C120 C 1.01636 0.78395 0.11928
 C121 C 1.05051 0.73789 0.10876
 C122 C 1.04934 0.68882 0.14290
 C123 C 1.01856 0.83432 0.08086
 C124 C 0.98309 0.88060 0.08300
 H125 H 1.00211 0.63152 0.26607
 H126 H 0.95392 0.72915 0.23583
 H127 H 0.95572 0.81579 0.17546
 H128 H 1.07787 0.73962 0.07354
 H129 H 1.07613 0.65400 0.13341
 H130 H 1.04961 0.83462 0.04903
 H131 H 1.01108 0.58430 0.15186
 H132 H 0.98784 0.90976 0.05859
 C133 C 1.01078 1.42279 -0.18128
 C134 C 1.01949 1.36942 -0.19927
 C135 C 1.01311 1.31776 -0.16401
 C136 C 1.04004 1.26891 -0.17920
 C137 C 1.03246 1.21834 -0.14894
 C138 C 0.99664 1.21566 -0.10349
 C139 C 0.96996 1.26466 -0.08813
 C140 C 0.97792 1.31530 -0.11816
 C141 C 0.98787 1.16343 -0.06965
 C142 C 1.00319 1.11092 -0.08583
 H143 H 1.03028 1.36527 -0.24207
 H144 H 1.06724 1.26994 -0.21454
 H145 H 1.05521 1.18194 -0.16110
 H146 H 0.94243 1.26366 -0.05305
 H147 H 0.95529 1.35191 -0.10625
 H148 H 0.96733 1.16709 -0.03079
 H149 H 1.00172 1.42743 -0.13823
 H150 H 1.01352 1.10673 -0.12831
 C151 C 0.99343 0.62662 -0.22153
 C152 C 0.99662 0.64366 -0.16825
 C153 C 0.99522 0.70280 -0.15660
 C154 C 1.02175 0.71735 -0.10917
 C155 C 1.02086 0.77246 -0.09592
 C156 C 0.99218 0.81410 -0.12928
 C157 C 0.96645 0.79994 -0.17733
 C158 C 0.96756 0.74459 -0.19080
 C159 C 0.98857 0.87206 -0.11403
 C160 C 0.98802 0.88344 -0.05894
 H161 H 1.00447 0.61339 -0.13382
 H162 H 1.04367 0.68601 -0.08249
 H163 H 1.04298 0.78230 -0.05965
 H164 H 0.94433 0.83147 -0.20364
 H165 H 0.94565 0.73464 -0.22711
 H166 H 0.98526 0.90537 -0.14630
 H167 H 0.98984 0.65787 -0.25582
 H168 H 0.98621 0.84887 -0.02820
 C169 C 1.16802 0.99820 0.39390
 C170 C 1.19108 0.98930 0.34233
 C171 C 1.15981 0.97695 0.29321
 C172 C 1.10723 1.00055 0.28168
 C173 C 1.08130 0.99179 0.23205
 C174 C 1.10719 0.95875 0.19362
 C175 C 1.15864 0.93337 0.20623
 C176 C 1.18510 0.94312 0.25523
 C177 C 1.08206 0.95230 0.13950
 C178 C 1.05958 0.99840 0.10855
 H179 H 1.23544 0.98694 0.33893
 H180 H 1.08702 1.02729 0.30987
 H181 H 1.04126 1.01123 0.22354
 H182 H 1.17923 0.90776 0.17721
 H183 H 1.22572 0.92453 0.26333
 H184 H 1.08580 0.91246 0.12214
 H185 H 1.12396 0.99929 0.39953
 H186 H 1.06139 1.03829 0.12568
 C187 C 1.20199 1.00718 -0.40056
 C188 C 1.14983 0.99738 -0.37864
 C189 C 1.13675 1.00246 -0.31957
 C190 C 1.09700 0.96880 -0.29385
 C191 C 1.08236 0.97420 -0.23877
 C192 C 1.10643 1.01434 -0.20855
 C193 C 1.14579 1.04835 -0.23446
 C194 C 1.16119 1.04222 -0.28921
 C195 C 1.08773 1.02497 -0.15210
 C196 C 1.06451 0.98434 -0.11630
 H197 H 1.11819 0.98270 -0.40432
 H198 H 1.07705 0.93836 -0.31653
 H199 H 1.05086 0.94819 -0.22070
 H200 H 1.16424 1.08020 -0.21243
 H201 H 1.19088 1.06988 -0.30821
 H202 H 1.09274 1.06618 -0.13920
 H203 H 1.23454 1.01524 -0.37246
 H204 H 1.06919 0.94186 -0.12688
 C205 C 0.83484 0.96869 0.40556
 C206 C 0.81786 0.96259 0.35181
 C207 C 0.85268 0.97406 0.30330
 C208 C 0.84260 0.94674 0.25595
 C209 C 0.87068 0.96068 0.20726
 C210 C 0.90819 1.00368 0.20466
 C211 C 0.91922 1.03014 0.25250
 C212 C 0.89166 1.01553 0.30154
 C213 C 0.93800 1.01998 0.15355
 C214 C 0.92050 1.00675 0.10210
 H215 H 0.77588 0.95200 0.34444
 H216 H 0.81272 0.91462 0.25663
 H217 H 0.86289 0.93734 0.17213
 H218 H 0.94846 1.06287 0.25163
 H219 H 0.89930 1.03822 0.33722
 H220 H 0.97452 1.04311 0.15685
 H221 H 0.87702 0.97815 0.41336
 H222 H 0.87985 0.99146 0.09780
 C223 C 0.78789 0.98122 -0.39353
 C224 C 0.84057 0.97328 -0.37108
 C225 C 0.85242 0.97331 -0.31157
 C226 C 0.90487 0.98770 -0.29577
 C227 C 0.91844 0.98795 -0.24026
 C228 C 0.87988 0.97331 -0.19913
 C229 C 0.82789 0.95720 -0.21468
 C230 C 0.81399 0.95758 -0.27054
 C231 C 0.89454 0.97218 -0.14023
 C232 C 0.93224 1.00842 -0.12186
 H233 H 0.87574 0.97066 -0.39796
 H234 H 0.93551 0.99901 -0.32654
 H235 H 0.95957 0.99862 -0.22973
 H236 H 0.79799 0.94467 -0.18359
 H237 H 0.77376 0.94450 -0.28132
 H238 H 0.87715 0.94093 -0.11197
 H239 H 0.75356 0.98829 -0.36635
 H240 H 0.94585 1.04172 -0.15030
 C241 C 1.38606 1.18485 0.03986
 C242 C 1.35824 1.15983 -0.00118
 C243 C 1.30386 1.13589 0.00836
 C244 C 1.28529 1.09787 -0.02742
 C245 C 1.23268 1.07729 -0.02143
 C246 C 1.19741 1.09516 0.02014
 C247 C 1.21626 1.13251 0.05634
 C248 C 1.26870 1.15315 0.05029
 C249 C 1.14138 1.07503 0.02779
 C250 C 1.11131 1.05584 -0.01485
 H251 H 1.37547 1.16062 -0.04235
 H252 H 1.31158 1.08406 -0.06005
 H253 H 1.22027 1.04693 -0.04890
 H254 H 1.18984 1.14675 0.08869
 H255 H 1.28064 1.18385 0.07756
 H256 H 1.12354 1.07680 0.06812
 H257 H 1.37187 1.17773 0.08197
 H258 H 1.12923 1.05757 -0.05532
 C259 C 0.58627 1.19521 -0.01543
 C260 C 0.63665 1.22022 -0.01884
 C261 C 0.68766 1.18734 -0.02897
 C262 C 0.73831 1.20636 -0.01263
 C263 C 0.78666 1.17417 -0.01858
 C264 C 0.78520 1.12275 -0.04199
 C265 C 0.73488 1.10474 -0.06019
 C266 C 0.68649 1.13643 -0.05339
 C267 C 0.83487 1.08639 -0.04644
 C268 C 0.88066 1.09138 -0.01378
 H269 H 0.63940 1.26326 -0.00945
 H270 H 0.74029 1.24553 0.00607
 H271 H 0.82502 1.18935 -0.00462
 H272 H 0.73279 1.06534 -0.07848
 H273 H 0.64816 1.12091 -0.06700
 H274 H 0.83352 1.05194 -0.07235
 H275 H 0.55917 1.21808 -0.00774
 H276 H 0.90815 1.06596 -0.01541
 C277 C 1.40966 0.83156 -0.01206
 C278 C 1.35694 0.81041 -0.01000
 C279 C 1.30505 0.84288 -0.00269
 C280 C 1.25548 0.81691 -0.01080
 C281 C 1.20512 0.84437 -0.00217
 C282 C 1.20326 0.89870 0.01483
 C283 C 1.25276 0.92444 0.02387
 C284 C 1.30326 0.89701 0.01497
 C285 C 1.15085 0.92952 0.02392
 C286 C 1.10176 0.91881 -0.00187
 H287 H 1.35365 0.76608 -0.01308
 H288 H 1.25569 0.77485 -0.02351
 H289 H 1.16801 0.82238 -0.00783
 H290 H 1.25236 0.96603 0.03773
 H291 H 1.34041 0.91799 0.02303
 H292 H 1.15226 0.96457 0.04874
 H293 H 1.41560 0.87554 -0.01021
 H294 H 1.10057 0.88537 -0.02883
 C295 C 0.61149 0.78970 -0.01690
 C296 C 0.63151 0.84337 -0.02042
 C297 C 0.69094 0.85411 -0.01804
 C298 C 0.70924 0.90504 -0.04132
 C299 C 0.76449 0.91762 -0.03842
 C300 C 0.80269 0.87983 -0.01114
 C301 C 0.78478 0.82844 0.01125
 C302 C 0.72936 0.81579 0.00835
 C303 C 0.86097 0.89365 -0.00574
 C304 C 0.87532 0.94844 -0.00218
 H305 H 0.60358 0.87915 -0.02702
 H306 H 0.68069 0.93518 -0.06205
 H307 H 0.77719 0.95690 -0.05792
 H308 H 0.81345 0.79866 0.03229
 H309 H 0.71677 0.77667 0.02815
 H310 H 0.89215 0.86048 -0.00310
 H311 H 0.64096 0.75493 -0.01498
 H312 H 0.84277 0.97938 0.00233
 C313 C 0.91822 0.49460 0.33580
 C314 C 0.87501 0.45971 0.35160
 C315 C 0.82281 0.47547 0.37928
 C316 C 0.78320 0.43474 0.38681
 C317 C 0.73194 0.44690 0.40957
 C318 C 0.71868 0.50037 0.42573
 C319 C 0.75865 0.54095 0.41971
 C320 C 0.81010 0.52890 0.39621
 C321 C 0.66477 0.51394 0.45115
 C322 C 0.61718 0.48513 0.44233
 H323 H 0.87854 0.41678 0.34191
 H324 H 0.79170 0.39308 0.37449
 H325 H 0.70329 0.41388 0.41504
 H326 H 0.74975 0.58232 0.43258
 H327 H 0.83932 0.56145 0.39127
 H328 H 0.66305 0.54798 0.47734
 H329 H 0.92011 0.53504 0.35179
 H330 H 0.61833 0.45431 0.41239
 C331 C 0.10870 0.46878 0.32131
 C332 C 0.12933 0.51497 0.34430
 C333 C 0.18364 0.50959 0.37240
 C334 C 0.22307 0.55011 0.36218
 C335 C 0.27591 0.54243 0.38534
 C336 C 0.28972 0.49436 0.41983
 C337 C 0.24951 0.45506 0.43140
 C338 C 0.19733 0.46237 0.40787
 C339 C 0.34366 0.48465 0.44775
 C340 C 0.39282 0.50912 0.43139
 H341 H 0.10935 0.55565 0.33649
 H342 H 0.21340 0.58704 0.33527
 H343 H 0.30537 0.57436 0.37685
 H344 H 0.25862 0.41817 0.45862
 H345 H 0.16753 0.43094 0.41748
 H346 H 0.34418 0.45580 0.48386
 H347 H 0.13484 0.43125 0.32376
 H348 H 0.39376 0.53642 0.39407
 C349 C 0.90680 0.52314 0.66962
 C350 C 0.86851 0.48255 0.66389
 C351 C 0.81372 0.49494 0.64007
 C352 C 0.78522 0.45162 0.61969
 C353 C 0.73124 0.46055 0.60160
 C354 C 0.70449 0.51288 0.60486
 C355 C 0.73340 0.55650 0.62417
 C356 C 0.78754 0.54766 0.64189
 C357 C 0.64778 0.52435 0.58574
 C358 C 0.61111 0.48301 0.57833
 H359 H 0.87838 0.43967 0.67788
 H360 H 0.80476 0.41069 0.61796
 H361 H 0.71111 0.42654 0.58470
 H362 H 0.71374 0.59733 0.62635
 H363 H 0.80801 0.58159 0.65862
 H364 H 0.63526 0.56712 0.57620
 H365 H 0.90120 0.56336 0.64696
 H366 H 0.62122 0.44053 0.59332
 C367 C 0.09197 0.53272 0.66396
 C368 C 0.13518 0.49508 0.65468
 C369 C 0.18545 0.50973 0.62433
 C370 C 0.21891 0.46634 0.60625
 C371 C 0.27052 0.47678 0.58444
 C372 C 0.29003 0.53097 0.58092
 C373 C 0.25551 0.57500 0.59609
 C374 C 0.20360 0.56450 0.61815
 C375 C 0.34595 0.54201 0.56123
 C376 C 0.38825 0.50185 0.56938
 H377 H 0.13262 0.45212 0.67056
 H378 H 0.20558 0.42390 0.61023
 H379 H 0.29510 0.44213 0.57088
 H380 H 0.26956 0.61716 0.59288
 H381 H 0.17907 0.59883 0.63244
 H382 H 0.35293 0.58170 0.53950
 H383 H 0.08947 0.57270 0.64050
 H384 H 0.38056 0.46394 0.59440
 C385 C 0.52177 0.67887 0.08874
 C386 C 0.49902 0.68591 0.14070
 C387 C 0.51721 0.65461 0.19227
 C388 C 0.50714 0.67920 0.24184
 C389 C 0.51827 0.64974 0.29222
 C390 C 0.53868 0.59441 0.29410
 C391 C 0.55197 0.57076 0.24462
 C392 C 0.54093 0.60047 0.19387
 C393 C 0.54367 0.56018 0.34691
 C394 C 0.50752 0.56865 0.39023
 H395 H 0.46901 0.71922 0.14568
 H396 H 0.48970 0.72121 0.24162
 H397 H 0.51003 0.67021 0.32957
 H398 H 0.56864 0.52845 0.24524
 H399 H 0.54884 0.58021 0.15636
 H400 H 0.57185 0.52448 0.34918
 H401 H 0.55595 0.64940 0.08521
 H402 H 0.47580 0.60108 0.38470
 C403 C 0.51190 0.67758 0.89878
 C404 C 0.47940 0.67765 0.85147
 C405 C 0.49475 0.64770 0.80275
 C406 C 0.47521 0.66974 0.75118
 C407 C 0.48745 0.64290 0.70378
 C408 C 0.51852 0.59250 0.70712
 C409 C 0.53876 0.57061 0.75858
 C410 C 0.52691 0.59791 0.80619
 C411 C 0.53009 0.56236 0.65760
 C412 C 0.49421 0.56632 0.61284
 H413 H 0.44305 0.70452 0.84683
 H414 H 0.45075 0.70831 0.74744
 H415 H 0.47281 0.66204 0.66460
 H416 H 0.56283 0.53180 0.76204
 H417 H 0.54179 0.57933 0.84550
 H418 H 0.56475 0.53321 0.65879
 H419 H 0.54893 0.65135 0.90202
 H420 H 0.45500 0.58804 0.61702
 C421 C 0.50776 0.31762 0.11041
 C422 C 0.49638 0.30290 0.16605
 C423 C 0.50055 0.33965 0.21155
 C424 C 0.50386 0.31497 0.26565
 C425 C 0.50006 0.34736 0.31067
 C426 C 0.49250 0.40542 0.30255
 C427 C 0.48917 0.43025 0.24841
 C428 C 0.49375 0.39776 0.20317
 C429 C 0.48554 0.44043 0.34962
 C430 C 0.50870 0.42544 0.40128
 H431 H 0.48326 0.26128 0.17770
 H432 H 0.50788 0.27015 0.27318
 H433 H 0.50084 0.32644 0.35164
 H434 H 0.48217 0.47478 0.24114
 H435 H 0.48941 0.41784 0.16199
 H436 H 0.46316 0.47988 0.34260
 H437 H 0.53157 0.35373 0.09935
 H438 H 0.53358 0.38743 0.40736
 C439 C 0.45859 0.33627 0.92410
 C440 C 0.50345 0.35915 0.89607
 C441 C 0.49690 0.38517 0.83907
 C442 C 0.53755 0.37585 0.79951
 C443 C 0.52960 0.39545 0.74425
 C444 C 0.48080 0.42515 0.72770
 C445 C 0.44150 0.43676 0.76789
 C446 C 0.44929 0.41691 0.82289
 C447 C 0.47070 0.44788 0.67012
 C448 C 0.49836 0.42934 0.62415
 H449 H 0.54457 0.35008 0.91172
 H450 H 0.57491 0.35213 0.81112
 H451 H 0.56196 0.38774 0.71501
 H452 H 0.40427 0.46086 0.75658
 H453 H 0.41791 0.42631 0.85270
 H454 H 0.44126 0.48242 0.66454
 H455 H 0.41906 0.34049 0.90367
 H456 H 0.52581 0.39318 0.62968
 C457 C 0.66942 0.90803 0.50518
 C458 C 0.65756 0.86599 0.47074
 C459 C 0.63013 0.81392 0.48823
 C460 C 0.61053 0.78198 0.44722
 C461 C 0.59199 0.72864 0.46055
 C462 C 0.59358 0.70551 0.51538
 C463 C 0.61089 0.73833 0.55682
 C464 C 0.62927 0.79202 0.54344
 C465 C 0.57539 0.64851 0.53073
 C466 C 0.57237 0.60766 0.49328
 H467 H 0.67061 0.87019 0.42810
 H468 H 0.61058 0.79799 0.40436
 H469 H 0.57649 0.70590 0.42769
 H470 H 0.61153 0.72181 0.59951
 H471 H 0.64485 0.81519 0.57597
 H472 H 0.56373 0.63892 0.57307
 H473 H 0.64654 0.91092 0.54311
 H474 H 0.58929 0.61565 0.45247
 C475 C 0.70420 0.09924 0.48456
 C476 C 0.66914 0.11890 0.52452
 C477 C 0.65373 0.17901 0.52235
 C478 C 0.59910 0.19632 0.53048
 C479 C 0.58333 0.25281 0.52391
 C480 C 0.62248 0.29348 0.51082
 C481 C 0.67736 0.27594 0.50379
 C482 C 0.69289 0.21939 0.50955
 C483 C 0.60734 0.35387 0.50258
 C484 C 0.55865 0.37618 0.52286
 H485 H 0.65039 0.09063 0.55503
 H486 H 0.56820 0.16592 0.53979
 H487 H 0.54017 0.26376 0.52762
 H488 H 0.70831 0.30607 0.49359
 H489 H 0.73561 0.20718 0.50383
 H490 H 0.63593 0.38105 0.48153
 H491 H 0.71682 0.12920 0.45186
 H492 H 0.53318 0.34903 0.54821
 C493 C 0.32874 0.91973 0.50351
 C494 C 0.34318 0.87923 0.46705
 C495 C 0.37315 0.82558 0.48160
 C496 C 0.38283 0.78965 0.43950
 C497 C 0.40611 0.73634 0.45123
 C498 C 0.42024 0.71774 0.50554
 C499 C 0.41237 0.75412 0.54748
 C500 C 0.38856 0.80742 0.53584
 C501 C 0.44575 0.66200 0.51939
 C502 C 0.43808 0.61621 0.48887
 H503 H 0.32970 0.88588 0.42466
 H504 H 0.37156 0.80258 0.39728
 H505 H 0.41352 0.71017 0.41761
 H506 H 0.42377 0.74084 0.58959
 H507 H 0.38154 0.83349 0.56952
 H508 H 0.47105 0.65786 0.55551
 H509 H 0.34922 0.91970 0.54283
 H510 H 0.40919 0.62044 0.45507
 C511 C 0.30396 0.10981 0.48949
 C512 C 0.30168 0.15779 0.45294
 C513 C 0.33040 0.21006 0.45996
 C514 C 0.36000 0.22011 0.50764
 C515 C 0.38563 0.27086 0.51125
 C516 C 0.38184 0.31248 0.46742
 C517 C 0.35227 0.30226 0.42021
 C518 C 0.32682 0.25196 0.41661
 C519 C 0.40984 0.36589 0.46719
 C520 C 0.43095 0.38857 0.51343
 H521 H 0.27748 0.15794 0.41590
 H522 H 0.36362 0.18933 0.54223
 H523 H 0.40896 0.27677 0.54790
 H524 H 0.34886 0.33339 0.38569
 H525 H 0.30430 0.24576 0.37941
 H526 H 0.41208 0.38972 0.42788
 H527 H 0.32964 0.10863 0.52567
 H528 H 0.42596 0.36777 0.55397
   
