data_POSCAR
  _audit_creation_date              2014-09-24
  _audit_creation_method            'ToBaCCo'
  _symmetry_space_group_name_H-M    'P1'
  _symmetry_Int_Tables_number       1
  _symmetry_cell_setting            triclinic
  loop_
  _symmetry_equiv_pos_as_xyz
 x,y,z
_cell_length_a 20.6548
_cell_length_b 19.4015
_cell_length_c 20.6385
_cell_angle_alpha 100.276900
_cell_angle_beta 73.469200
_cell_angle_gamma 96.167900
loop_
  _atom_site_label
  _atom_site_type_symbol
  _atom_site_fract_x
  _atom_site_fract_y
  _atom_site_fract_z
C1 C 0.65673 0.61113 0.00367
 C2 C 0.65793 0.53840 0.00145
 C3 C 0.59934 0.49560 -0.00236
 C4 C 0.53828 0.52410 0.00164
 C5 C 0.53787 0.59825 0.00756
 C6 C 0.59745 0.64187 0.00506
 C7 C 0.47601 0.47647 -0.00193
 C8 C 0.42299 0.50126 -0.01999
 C9 C 0.36242 0.46108 -0.01915
 C10 C 0.35646 0.39185 -0.00592
 C11 C 0.40977 0.36316 0.00807
 C12 C 0.46847 0.40633 0.01197
 H13 H 0.70228 0.64421 0.00395
 H14 H 0.60211 0.43944 -0.00921
 H15 H 0.49158 0.62267 0.01377
 H16 H 0.42798 0.55247 -0.03499
 H17 H 0.31031 0.35994 -0.00662
 H18 H 0.50678 0.38495 0.02756
 C19 C -0.04530 0.60032 0.38697
 C20 C -0.06175 0.62102 0.45850
 C21 C -0.05005 0.57621 0.49966
 C22 C -0.01162 0.51780 0.47070
 C23 C 0.00418 0.49753 0.39921
 C24 C -0.01611 0.53583 0.35724
 C25 C 0.01332 0.47979 0.51500
 C26 C 0.02853 0.40940 0.49371
 C27 C 0.05257 0.37328 0.53388
 C28 C 0.05731 0.40535 0.59872
 C29 C 0.04205 0.47576 0.62177
 C30 C 0.02257 0.51326 0.57871
 H31 H -0.05722 0.63327 0.35532
 H32 H -0.06626 0.59014 0.55470
 H33 H 0.03381 0.45263 0.37527
 H34 H 0.01999 0.38091 0.44656
 H35 H 0.07410 0.37584 0.63016
 H36 H 0.01406 0.56835 0.59573
 C37 C 0.60421 -0.00076 0.61242
 C38 C 0.53572 -0.02172 0.63681
 C39 C 0.49255 -0.02536 0.59447
 C40 C 0.51506 -0.00230 0.53018
 C41 C 0.58391 0.02128 0.50833
 C42 C 0.62961 0.01835 0.54686
 C43 C 0.46758 -0.00334 0.48598
 C44 C 0.49294 0.00275 0.41605
 C45 C 0.44989 0.00556 0.37510
 C46 C 0.37975 -0.00403 0.40230
 C47 C 0.35249 -0.01284 0.47108
 C48 C 0.39648 -0.01003 0.51276
 H49 H 0.63762 -0.00122 0.64418
 H50 H 0.44124 -0.04598 0.61293
 H51 H 0.60326 0.04201 0.46096
 H52 H 0.54654 0.00469 0.39171
 H53 H 0.34663 -0.00303 0.37033
 H54 H 0.37413 -0.01225 0.56638
 O55 O 0.44228 -0.04836 -0.06870
 O56 O 0.44314 -0.01031 0.11184
 O57 O 0.41025 0.05907 0.02899
 O58 O 0.48233 -0.11307 0.01352
 O59 O 0.58428 -0.06066 -0.01630
 O60 O 0.51274 0.11024 -0.00066
 O61 O 0.54566 0.04104 0.08228
 O62 O 0.54441 0.00354 -0.09895
 Cu63 Cu 0.43419 -0.03297 0.02402
 Cu64 Cu 0.55691 0.02859 -0.01164
 C65 C 0.49273 -0.02880 -0.11457
 C66 C 0.49512 0.02041 0.12770
 C67 C 0.44894 0.11383 0.01706
 C68 C 0.54642 -0.11529 -0.00267
 O69 O -0.08247 0.55539 1.01354
 O70 O 0.10182 0.56819 0.99211
 O71 O 0.02408 0.57587 0.91484
 O72 O -0.00419 0.55771 1.09568
 O73 O 0.00116 0.44292 1.06584
 O74 O 0.02648 0.46077 0.88555
 O75 O 0.10410 0.45302 0.96305
 O76 O -0.07906 0.44022 0.98649
 Cu77 Cu 0.00922 0.57583 1.00736
 Cu78 Cu 0.01280 0.43770 0.97251
 C79 C -0.11181 0.49519 1.00225
 C80 C 0.13413 0.51257 0.97430
 C81 C 0.02989 0.52163 0.86950
 C82 C -0.00392 0.49732 1.11117
 O83 O -0.02426 -0.10820 0.45040
 O84 O 0.03785 0.07364 0.44053
 O85 O 0.09017 -0.03398 0.45454
 O86 O -0.07796 0.00516 0.44476
 O87 O -0.11220 0.02779 0.55761
 O88 O 0.05486 -0.01014 0.56725
 O89 O 0.00276 0.09965 0.55319
 O90 O -0.05843 -0.08359 0.56311
 Cu91 Cu 0.00964 -0.01904 0.43618
 Cu92 Cu -0.03158 0.01079 0.57169
 C93 C -0.05264 -0.12684 0.50814
 C94 C 0.03161 0.11741 0.49497
 C95 C 0.10160 -0.02620 0.51292
 C96 C -0.12387 0.02237 0.49977
 N97 N -0.21752 0.42804 1.00007
 N98 N -0.27950 0.43792 0.99875
 C99 C -0.28362 0.50762 1.00233
 C100 C -0.22150 0.54029 1.00666
 N101 N -0.18213 0.48877 1.00509
 H102 H -0.20549 0.59542 1.00915
 N103 N 0.24350 0.57573 0.96800
 N104 N 0.30497 0.56349 0.96914
 C105 C 0.30514 0.49424 0.97117
 C106 C 0.24147 0.46433 0.97076
 N107 N 0.20484 0.51684 0.96887
 H108 H 0.22232 0.41068 0.97481
 N109 N -0.10153 -0.22312 0.56986
 N110 N -0.10528 -0.29244 0.55788
 C111 C -0.08222 -0.31180 0.48946
 C112 C -0.06529 -0.25174 0.45974
 N113 N -0.07668 -0.19796 0.51173
 H114 H -0.03858 -0.24739 0.40711
 N115 N 0.09184 0.20911 0.43191
 N116 N 0.09999 0.27830 0.44086
 C117 C 0.06973 0.30085 0.50729
 C118 C 0.04257 0.24376 0.53898
 N119 N 0.05709 0.18775 0.49001
 H120 H 0.00977 0.24334 0.59025
 N121 N 0.43831 -0.07479 -0.20485
 N122 N 0.44793 -0.07401 -0.27098
 C123 C 0.50845 -0.03962 -0.29328
 C124 C 0.53565 -0.01927 -0.23830
 N125 N 0.49030 -0.04213 -0.18434
 H126 H 0.58201 0.01198 -0.23672
 N127 N 0.55248 0.05499 0.21715
 N128 N 0.54263 0.05056 0.28254
 C129 C 0.47973 0.02083 0.30461
 C130 C 0.45107 0.00756 0.25045
 N131 N 0.49814 0.02956 0.19704
 H132 H 0.40204 -0.01779 0.24913
 N133 N 0.64255 -0.18019 -0.00898
 N134 N 0.65755 -0.24386 -0.00572
 C135 C 0.59985 -0.28535 0.00224
 C136 C 0.54819 -0.24365 0.00376
 N137 N 0.57734 -0.17864 -0.00356
 H138 H 0.49510 -0.25857 0.00948
 N139 N 0.35400 0.18654 0.03692
 N140 N 0.34183 0.25176 0.03514
 C141 C 0.40210 0.28849 0.01954
 C142 C 0.45211 0.24266 0.01165
 N143 N 0.41982 0.17965 0.02279
 H144 H 0.50640 0.25337 -0.00305
 N145 N -0.20576 0.04244 0.44114
 N146 N -0.27229 0.04195 0.45276
 C147 C -0.30038 0.03095 0.51808
 C148 C -0.24807 0.02584 0.54635
 N149 N -0.19037 0.03292 0.49675
 H150 H -0.25102 0.01376 0.59633
 N151 N 0.18269 -0.03399 0.57622
 N152 N 0.24901 -0.02936 0.56722
 C153 C 0.27826 -0.02329 0.50090
 C154 C 0.22702 -0.02536 0.46926
 N155 N 0.16846 -0.03207 0.51802
 H156 H 0.23135 -0.01921 0.41708
 N157 N 0.01242 0.43295 1.19492
 N158 N 0.01176 0.44246 1.26015
 C159 C -0.00731 0.50821 1.28756
 C160 C -0.01850 0.53883 1.23607
 N161 N -0.00566 0.48995 1.17944
 H162 H -0.03345 0.59127 1.23880
 N163 N 0.04048 0.59009 0.77858
 N164 N 0.04378 0.57995 0.71254
 C165 C 0.04446 0.51003 0.69112
 C166 C 0.04138 0.47759 0.74643
 N167 N 0.03887 0.52929 0.79977
 H168 H 0.03805 0.42196 0.74865
   
