data_POSCAR
  _audit_creation_date              2014-09-24
  _audit_creation_method            'ToBaCCo'
  _symmetry_space_group_name_H-M    'P1'
  _symmetry_Int_Tables_number       1
  _symmetry_cell_setting            triclinic
  loop_
  _symmetry_equiv_pos_as_xyz
 x,y,z
_cell_length_a 41.6494
_cell_length_b 41.8360
_cell_length_c 9.1000
_cell_angle_alpha 98.084800
_cell_angle_beta 87.164400
_cell_angle_gamma 120.087300
loop_
  _atom_site_label
  _atom_site_type_symbol
  _atom_site_fract_x
  _atom_site_fract_y
  _atom_site_fract_z
C1 C 0.08026 0.51550 0.02824
 C2 C 0.06083 0.47628 0.00300
 C3 C 0.02211 0.45704 0.00856
 C4 C 0.00265 0.47650 0.03899
 C5 C 0.02249 0.51574 0.06267
 C6 C 0.06132 0.53559 0.05709
 C7 C -0.03827 0.45597 0.05228
 C8 C -0.05973 0.46886 -0.00471
 C9 C -0.09840 0.45052 0.00952
 C10 C -0.11530 0.41896 0.08544
 C11 C -0.09417 0.40602 0.14679
 C12 C -0.05579 0.42414 0.12530
 H13 H 0.11020 0.52998 0.03525
 H14 H 0.00721 0.42684 -0.00907
 H15 H 0.00778 0.53094 0.09062
 H16 H -0.04619 0.49292 -0.06396
 H17 H -0.14494 0.40366 0.09440
 H18 H -0.03923 0.41457 0.17247
 C19 C 0.46282 0.54498 -0.12214
 C20 C 0.50156 0.56690 -0.12274
 C21 C 0.52324 0.55150 -0.09245
 C22 C 0.50677 0.51328 -0.07503
 C23 C 0.46757 0.49162 -0.08252
 C24 C 0.44550 0.50740 -0.10023
 C25 C 0.53004 0.49611 -0.04849
 C26 C 0.51416 0.46103 0.00427
 C27 C 0.53526 0.44408 0.01960
 C28 C 0.57310 0.46304 -0.01068
 C29 C 0.59052 0.49884 -0.05342
 C30 C 0.56842 0.51426 -0.07858
 H31 H 0.44653 0.55824 -0.12994
 H32 H 0.55284 0.57000 -0.08181
 H33 H 0.45332 0.46224 -0.07357
 H34 H 0.48534 0.44604 0.03287
 H35 H 0.58806 0.44817 -0.01259
 H36 H 0.58165 0.54031 -0.12400
 C37 C 0.42359 0.88398 -0.07116
 C38 C 0.41011 0.90787 -0.01502
 C39 C 0.43382 0.94642 -0.00702
 C40 C 0.47034 0.96118 -0.05886
 C41 C 0.48336 0.93657 -0.11471
 C42 C 0.45997 0.89785 -0.12004
 C43 C 0.49485 1.00227 -0.04997
 C44 C 0.53249 1.01900 -0.00877
 C45 C 0.55518 1.05771 0.00810
 C46 C 0.54027 1.08011 -0.01670
 C47 C 0.50267 1.06416 -0.06077
 C48 C 0.48046 1.02504 -0.07874
 H49 H 0.40624 0.85418 -0.07139
 H50 H 0.42388 0.96494 0.04175
 H51 H 0.51115 0.94740 -0.15694
 H52 H 0.54415 1.00205 0.01324
 H53 H 0.55920 1.10972 -0.01112
 H54 H 0.45169 1.01217 -0.11462
 C55 C 0.90524 0.44314 0.51743
 C56 C 0.92531 0.47619 0.45456
 C57 C 0.96372 0.49783 0.48130
 C58 C 0.98191 0.48639 0.57038
 C59 C 0.96127 0.45240 0.62900
 C60 C 0.92262 0.43080 0.60510
 C61 C 1.02208 0.51112 0.60733
 C62 C 1.04681 0.49718 0.59518
 C63 C 1.08513 0.52140 0.62143
 C64 C 1.09817 0.55969 0.66335
 C65 C 1.07390 0.57419 0.67723
 C66 C 1.03595 0.54952 0.64829
 H67 H 0.87567 0.42699 0.49595
 H68 H 0.97958 0.52326 0.43173
 H69 H 0.97502 0.44356 0.69824
 H70 H 1.03646 0.46782 0.55845
 H71 H 1.12768 0.57871 0.66889
 H72 H 1.01700 0.56034 0.65624
 C73 C 0.58411 0.48043 0.50491
 C74 C 0.54592 0.45453 0.48771
 C75 C 0.52112 0.46760 0.47520
 C76 C 0.53382 0.50621 0.48492
 C77 C 0.57231 0.53146 0.50948
 C78 C 0.59744 0.51862 0.51145
 C79 C 0.50762 0.52021 0.46373
 C80 C 0.52128 0.55558 0.41739
 C81 C 0.49780 0.56961 0.39823
 C82 C 0.45959 0.54686 0.41353
 C83 C 0.44485 0.51161 0.45899
 C84 C 0.46892 0.49848 0.48525
 H85 H 0.60393 0.47150 0.51850
 H86 H 0.49208 0.44725 0.45423
 H87 H 0.58337 0.56126 0.52585
 H88 H 0.55024 0.57259 0.39327
 H89 H 0.44087 0.55598 0.38444
 H90 H 0.45714 0.47157 0.52336
 C91 C 0.53166 0.09509 0.44025
 C92 C 0.55080 0.08053 0.50352
 C93 C 0.53132 0.04308 0.52787
 C94 C 0.49311 0.02051 0.49229
 C95 C 0.47432 0.03614 0.43406
 C96 C 0.49331 0.07335 0.40812
 C97 C 0.47306 -0.01938 0.51490
 C98 C 0.43626 -0.03663 0.56444
 C99 C 0.41755 -0.07457 0.58124
 C100 C 0.43594 -0.09497 0.55137
 C101 C 0.47251 -0.07857 0.49931
 C102 C 0.49063 -0.04067 0.48172
 H103 H 0.54616 0.12387 0.42194
 H104 H 0.54580 0.03177 0.57833
 H105 H 0.44481 0.01947 0.40893
 H106 H 0.42246 -0.02056 0.59229
 H107 H 0.42066 -0.12391 0.56777
 H108 H 0.51837 -0.02781 0.43768
 O109 O 0.27075 0.46561 0.35174
 O110 O 0.20351 0.45371 0.06811
 O111 O 0.27068 0.46168 0.06633
 O112 O 0.20317 0.45944 0.35270
 O113 O 0.22927 0.52055 0.36633
 O114 O 0.29533 0.52282 0.08326
 O115 O 0.23029 0.51501 0.08171
 O116 O 0.29500 0.52664 0.36937
 Cu117 Cu 0.23449 0.45385 0.20910
 Cu118 Cu 0.26507 0.52733 0.22816
 C119 C 0.29515 0.49846 0.40466
 C120 C 0.20526 0.48256 0.02930
 C121 C 0.29470 0.49299 0.02791
 C122 C 0.20393 0.48973 0.40329
 O123 O 0.55646 0.74435 0.00017
 O124 O 0.52499 0.79688 0.27156
 O125 O 0.53070 0.73696 0.25847
 O126 O 0.55713 0.81016 0.01885
 O127 O 0.50012 0.77912 -0.07529
 O128 O 0.47385 0.70577 0.15950
 O129 O 0.46760 0.76122 0.18054
 O130 O 0.49935 0.71221 -0.09423
 Cu131 Cu 0.54832 0.77575 0.14531
 Cu132 Cu 0.48063 0.73777 0.02491
 C133 C 0.53175 0.71688 -0.08450
 C134 C 0.49076 0.78744 0.27278
 C135 C 0.49813 0.70881 0.24800
 C136 C 0.53197 0.80828 -0.06070
 O137 O 0.18727 0.73768 0.54522
 O138 O 0.23852 0.78353 0.22278
 O139 O 0.18442 0.71628 0.26297
 O140 O 0.24086 0.80618 0.50162
 O141 O 0.28164 0.78871 0.53699
 O142 O 0.22681 0.70072 0.29514
 O143 O 0.27953 0.76622 0.25700
 O144 O 0.22960 0.72206 0.57764
 Cu145 Cu 0.20841 0.76259 0.38081
 Cu146 Cu 0.25850 0.74285 0.42099
 C147 C 0.19935 0.72105 0.61288
 C148 C 0.26808 0.78285 0.18709
 C149 C 0.19616 0.69325 0.23897
 C150 C 0.27153 0.81294 0.55558
 O151 O 0.84175 0.57289 0.52934
 O152 O 0.76424 0.54604 0.78682
 O153 O 0.82479 0.54327 0.77757
 O154 O 0.77344 0.56791 0.53661
 O155 O 0.74960 0.51159 0.40930
 O156 O 0.79720 0.48618 0.65565
 O157 O 0.73724 0.48854 0.66787
 O158 O 0.81522 0.51521 0.41448
 Cu159 Cu 0.80458 0.56383 0.66581
 Cu160 Cu 0.77215 0.49502 0.52207
 C161 C 0.84305 0.54798 0.43640
 C162 C 0.73747 0.51273 0.76998
 C163 C 0.81880 0.50996 0.75903
 C164 C 0.75064 0.54255 0.43922
 O165 O 0.47430 0.27372 0.59627
 O166 O 0.47227 0.20371 0.81560
 O167 O 0.46766 0.26620 0.87203
 O168 O 0.47058 0.20797 0.53446
 O169 O 0.53183 0.23814 0.55181
 O170 O 0.52895 0.29794 0.88140
 O171 O 0.53342 0.23711 0.83623
 O172 O 0.53551 0.30208 0.60571
 Cu173 Cu 0.46495 0.23448 0.70347
 Cu174 Cu 0.53837 0.27147 0.72095
 C175 C 0.50587 0.30061 0.56811
 C176 C 0.50316 0.20881 0.86149
 C177 C 0.49788 0.29374 0.92703
 C178 C 0.50165 0.21261 0.48785
 O179 O 0.79256 0.24868 1.06760
 O180 O 0.71745 0.21000 0.78654
 O181 O 0.78398 0.27098 0.83005
 O182 O 0.72278 0.19213 1.03806
 O183 O 0.70218 0.22715 1.16400
 O184 O 0.75863 0.30269 0.94577
 O185 O 0.69377 0.24255 0.90929
 O186 O 0.77012 0.28297 1.18440
 Cu187 Cu 0.75659 0.22709 0.91883
 Cu188 Cu 0.72900 0.26714 1.06327
 C189 C 0.79512 0.27383 1.16974
 C190 C 0.69210 0.21851 0.80310
 C191 C 0.78168 0.30051 0.85489
 C192 C 0.70109 0.19619 1.13294
 C193 C 0.08109 0.45538 -0.01028
 C194 C 0.11393 0.46843 -0.07523
 C195 C 0.14070 0.45713 -0.04220
 C196 C 0.17657 0.47959 -0.06699
 H197 H 0.12363 0.49229 -0.13313
 H198 H 0.13258 0.43566 0.02887
 H199 H 0.07045 0.43096 0.04620
 H200 H 0.18445 0.50265 -0.12924
 C201 C 0.51913 0.60690 -0.14154
 C202 C 0.50456 0.61810 -0.23753
 C203 C 0.51130 0.65644 -0.23215
 C204 C 0.53864 0.68684 -0.15372
 H205 H 0.48162 0.59709 -0.30926
 H206 H 0.48884 0.65826 -0.27828
 H207 H 0.54230 0.62693 -0.06861
 H208 H 0.56246 0.68642 -0.11399
 C209 C 0.37258 0.89288 0.04823
 C210 C 0.34491 0.85847 0.00173
 C211 C 0.31154 0.83983 0.08960
 C212 C 0.29092 0.80269 0.06800
 H213 H 0.34844 0.84214 -0.09433
 H214 H 0.30715 0.85555 0.18592
 H215 H 0.36842 0.90956 0.14147
 H216 H 0.29773 0.78685 -0.01980
 C217 C 0.90415 0.48645 0.36382
 C218 C 0.91259 0.52134 0.35189
 C219 C 0.88262 0.52702 0.30422
 C220 C 0.87907 0.55549 0.37257
 H221 H 0.93799 0.54491 0.40178
 H222 H 0.85811 0.50259 0.25190
 H223 H 0.87704 0.46396 0.32268
 H224 H 0.90347 0.58026 0.42319
 C225 C 0.53135 0.41402 0.48969
 C226 C 0.55238 0.39823 0.45373
 C227 C 0.54268 0.36021 0.47517
 C228 C 0.50896 0.33260 0.50458
 H229 H 0.58005 0.41459 0.41376
 H230 H 0.56622 0.35584 0.47486
 H231 H 0.50331 0.39749 0.52634
 H232 H 0.48457 0.33531 0.49902
 C233 C 0.59052 0.10402 0.55198
 C234 C 0.60799 0.14136 0.57962
 C235 C 0.64562 0.16316 0.64662
 C236 C 0.65897 0.19881 0.70512
 H237 H 0.59383 0.15638 0.56449
 H238 H 0.66097 0.14916 0.66121
 H239 H 0.60509 0.08997 0.57724
 H240 H 0.64234 0.21190 0.69934
 C241 C 0.48704 0.08573 0.90654
 C242 C 0.50337 0.12290 0.94222
 C243 C 0.48841 0.14532 0.89420
 C244 C 0.50575 0.18197 0.94101
 H245 H 0.52901 0.13812 1.00666
 H246 H 0.46677 0.13312 0.80862
 H247 H 0.45997 0.07141 0.85115
 H248 H 0.52869 0.19366 1.02056
 C249 C 0.62879 0.51833 0.91792
 C250 C 0.65280 0.50798 0.95408
 C251 C 0.68989 0.52351 0.89164
 C252 C 0.70526 0.50200 0.86417
 H253 H 0.64485 0.48579 1.02059
 H254 H 0.70239 0.55027 0.85070
 H255 H 0.63935 0.54261 0.86058
 H256 H 0.69073 0.47376 0.89185
 C257 C 0.88933 0.37486 1.22478
 C258 C 0.85638 0.36312 1.29011
 C259 C 0.83471 0.32689 1.34540
 C260 C 0.82988 0.29628 1.25811
 H261 H 0.84310 0.37983 1.29957
 H262 H 0.81105 0.32468 1.40849
 H263 H 0.90429 0.36028 1.23596
 H264 H 0.85384 0.29650 1.20486
 C265 C 0.49132 0.90139 0.45930
 C266 C 0.47676 0.86482 0.46403
 C267 C 0.49610 0.84497 0.40156
 C268 C 0.47723 0.80785 0.37558
 H269 H 0.44922 0.84798 0.50324
 H270 H 0.52386 0.86043 0.35956
 H271 H 0.51908 0.91628 0.41660
 H272 H 0.44842 0.79276 0.40702
 C273 C 0.40395 0.48786 0.46649
 C274 C 0.38295 0.50310 0.51271
 C275 C 0.34322 0.48520 0.47225
 C276 C 0.32620 0.50533 0.49882
 H277 H 0.39653 0.53184 0.56522
 H278 H 0.33038 0.45910 0.39816
 H279 H 0.39106 0.45876 0.41958
 H280 H 0.34055 0.53240 0.56609
 C281 C 0.08719 0.61291 0.69869
 C282 C 0.12161 0.63838 0.74923
 C283 C 0.14020 0.67627 0.70748
 C284 C 0.17709 0.69696 0.72374
 H285 H 0.13856 0.63006 0.80149
 H286 H 0.12558 0.68325 0.63403
 H287 H 0.06952 0.62266 0.66258
 H288 H 0.19146 0.68863 0.79250
 C289 C 0.88168 0.46454 0.94629
 C290 C 0.84453 0.44875 0.94228
 C291 C 0.82525 0.46257 0.86166
 C292 C 0.83776 0.49873 0.85501
 H293 H 0.82668 0.42272 0.98395
 H294 H 0.79909 0.44160 0.80729
 H295 H 0.89753 0.48923 0.89193
 H296 H 0.86227 0.52013 0.91841
 C297 C 0.51714 0.40463 1.04768
 C298 C 0.53602 0.39205 1.11359
 C299 C 0.52881 0.35339 1.08558
 C300 C 0.49706 0.32400 1.02859
 H301 H 0.56273 0.41212 1.16537
 H302 H 0.55328 0.35063 1.08888
 H303 H 0.49018 0.38540 0.99586
 H304 H 0.47182 0.32546 1.03050
 C305 C 0.59546 0.07472 1.03584
 C306 C 0.61413 0.10562 1.13204
 C307 C 0.65436 0.13033 1.11836
 C308 C 0.67099 0.16428 1.19661
 H309 H 0.59883 0.11558 1.20607
 H310 H 0.66802 0.12402 1.02344
 H311 H 0.61032 0.06369 0.96500
 H312 H 0.65630 0.17060 1.28738
 C313 C 0.11175 0.50763 0.58262
 C314 C 0.14706 0.52651 0.63465
 C315 C 0.17740 0.52126 0.56846
 C316 C 0.17372 0.48934 0.49659
 H317 H 0.15586 0.55026 0.71963
 H318 H 0.20448 0.54624 0.57573
 H319 H 0.10291 0.48339 0.49960
 H320 H 0.14758 0.46348 0.49565
 C321 C 0.51364 0.60769 0.35762
 C322 C 0.49672 0.62778 0.38873
 C323 C 0.51089 0.66406 0.33690
 C324 C 0.48837 0.67799 0.33178
 H325 H 0.47096 0.61678 0.44775
 H326 H 0.53816 0.67741 0.28868
 H327 H 0.54007 0.61969 0.30274
 H328 H 0.46005 0.66280 0.36858
 C329 C 0.37824 0.90489 0.62356
 C330 C 0.35167 0.90954 0.56929
 C331 C 0.31217 0.87936 0.55529
 C332 C 0.29791 0.84997 0.63057
 H333 H 0.35966 0.93239 0.50606
 H334 H 0.29669 0.87817 0.46051
 H335 H 0.37052 0.88040 0.67543
 H336 H 0.31257 0.85059 0.72627
 C337 C 0.47126 0.87005 -0.17576
 C338 C 0.50556 0.87532 -0.16546
 C339 C 0.50988 0.84203 -0.18385
 C340 C 0.53798 0.84209 -0.11856
 H341 H 0.52857 0.90239 -0.12368
 H342 H 0.48595 0.81547 -0.22502
 H343 H 0.44882 0.84192 -0.20986
 H344 H 0.56193 0.86841 -0.07571
 C345 C 0.40488 0.48520 -0.07767
 C346 C 0.38067 0.49430 -0.12135
 C347 C 0.34308 0.47899 -0.06169
 C348 C 0.32395 0.49624 -0.07526
 H349 H 0.38965 0.51639 -0.18896
 H350 H 0.33375 0.45799 0.01243
 H351 H 0.39502 0.46229 -0.01283
 H352 H 0.33511 0.51920 -0.14055
 C353 C 0.08118 0.57680 0.09842
 C354 C 0.11718 0.59909 0.07346
 C355 C 0.13728 0.63853 0.14004
 C356 C 0.17435 0.65686 0.14821
 H357 H 0.13296 0.58805 0.01023
 H358 H 0.12200 0.65139 0.19434
 H359 H 0.06594 0.58907 0.15818
 H360 H 0.18913 0.64277 0.10110
 C361 C 0.47200 0.09090 0.37166
 C362 C 0.48781 0.12210 0.30822
 C363 C 0.47682 0.15029 0.35214
 C364 C 0.50335 0.18614 0.36842
 H365 H 0.51427 0.13084 0.25572
 H366 H 0.45053 0.14195 0.40648
 H367 H 0.44523 0.08183 0.42271
 H368 H 0.53040 0.19389 0.32215
 C369 C 0.63789 0.54489 0.52345
 C370 C 0.66076 0.53989 0.42655
 C371 C 0.70083 0.55709 0.45975
 C372 C 0.72131 0.54604 0.37259
 H373 H 0.64888 0.51878 0.33043
 H374 H 0.71130 0.57216 0.56958
 H375 H 0.64892 0.56661 0.61770
 H376 H 0.70950 0.52905 0.26680
 C377 C 0.90074 0.39526 0.66986
 C378 C 0.86437 0.38070 0.69587
 C379 C 0.84147 0.34465 0.75237
 C380 C 0.80583 0.33341 0.78158
 H381 H 0.85065 0.39604 0.67836
 H382 H 0.85369 0.32821 0.77482
 H383 H 0.91484 0.38099 0.69772
 H384 H 0.79479 0.35132 0.76554
   
