data_POSCAR
  _audit_creation_date              2014-09-24
  _audit_creation_method            'ToBaCCo'
  _symmetry_space_group_name_H-M    'P1'
  _symmetry_Int_Tables_number       1
  _symmetry_cell_setting            triclinic
  loop_
  _symmetry_equiv_pos_as_xyz
 x,y,z
_cell_length_a 10.3594
_cell_length_b 11.5408
_cell_length_c 36.1330
_cell_angle_alpha 87.223300
_cell_angle_beta 86.774400
_cell_angle_gamma 114.168500
loop_
  _atom_site_label
  _atom_site_type_symbol
  _atom_site_fract_x
  _atom_site_fract_y
  _atom_site_fract_z
C1 C -0.07227 -0.00405 0.49696
 C2 C 1.03389 0.07930 0.17635
 C3 C 0.05120 0.98869 0.82412
 O4 O 0.37648 -0.06104 -0.03723
 O5 O 0.59452 -0.05530 0.04081
 O6 O 0.33573 -0.08506 0.03715
 O7 O 0.59142 -0.12618 -0.02761
 O8 O 0.69910 0.08133 -0.04152
 O9 O 0.45582 0.12240 0.02905
 O10 O 0.71053 0.15269 0.02922
 O11 O 0.48384 0.14927 -0.04298
 Cu12 Cu 0.46276 -0.10241 0.00355
 Cu13 Cu 0.60038 0.14454 -0.00835
 C14 C 0.39424 0.04639 -0.05328
 C15 C 0.68548 0.05259 0.04949
 C16 C 0.35455 0.02487 0.04590
 C17 C 0.68385 -0.03193 -0.04695
 O18 O -0.09478 0.35079 0.70130
 O19 O -0.08952 0.59197 0.62954
 O20 O -0.17374 0.34355 0.63264
 O21 O -0.08981 0.57739 0.70234
 O22 O 0.13903 0.62854 0.69125
 O23 O 0.05480 0.40132 0.61822
 O24 O 0.14073 0.65122 0.61730
 O25 O 0.13293 0.40459 0.68596
 Cu26 Cu -0.13357 0.46037 0.66769
 Cu27 Cu 0.13806 0.52760 0.65172
 C28 C 0.01992 0.33753 0.70587
 C29 C 0.02781 0.66360 0.61119
 C30 C -0.07485 0.33175 0.61335
 C31 C 0.03711 0.64092 0.70953
 O32 O 0.56248 0.69886 0.30566
 O33 O 0.30617 0.44020 0.36865
 O34 O 0.48411 0.66883 0.37741
 O35 O 0.31737 0.50558 0.29867
 O36 O 0.46825 0.41602 0.29457
 O37 O 0.62582 0.56931 0.37821
 O38 O 0.44838 0.34096 0.36670
 O39 O 0.71255 0.60871 0.30805
 Cu40 Cu 0.40529 0.58905 0.33730
 Cu41 Cu 0.57590 0.47385 0.33604
 C42 C 0.68439 0.70053 0.29690
 C43 C 0.33269 0.34460 0.37813
 C44 C 0.58015 0.64676 0.39210
 C45 C 0.36352 0.43415 0.28253
 C46 C -0.20040 0.02904 0.55925
 C47 C -0.11239 0.07992 0.52498
 C48 C -0.03808 0.21501 0.52051
 C49 C -0.03150 0.29222 0.54908
 C50 C -0.10709 0.24272 0.58328
 C51 C -0.20316 0.11205 0.58745
 C52 C -0.29039 -0.10186 0.56569
 C53 C -0.38723 -0.14851 0.59674
 C54 C -0.39585 -0.06680 0.62265
 C55 C -0.30257 0.06156 0.61872
 H56 H -0.29609 -0.16875 0.54559
 H57 H -0.45908 -0.24820 0.59999
 H58 H -0.47648 -0.10341 0.64568
 H59 H -0.31390 0.12080 0.63963
 H60 H 0.03029 0.26518 0.49612
 H61 H 0.03756 0.39293 0.54456
 C62 C 0.83799 1.00078 0.23245
 C63 C 0.94618 0.98099 0.20990
 C64 C 0.98189 0.88065 0.22254
 C65 C 0.89970 0.79168 0.25152
 C66 C 0.79035 0.80810 0.27214
 C67 C 0.77399 0.92252 0.26572
 C68 C 0.79177 1.09742 0.22328
 C69 C 0.70594 1.12889 0.24823
 C70 C 0.66203 1.06381 0.28304
 C71 C 0.69483 0.96094 0.29178
 H72 H 0.81763 1.14855 0.19675
 H73 H 0.67517 1.20537 0.24064
 H74 H 0.59987 1.09122 0.30302
 H75 H 0.66034 0.91382 0.31942
 H76 H 1.06983 0.86689 0.20920
 H77 H 0.92056 0.70831 0.25739
 C78 C 0.16945 0.12755 -0.12249
 C79 C 0.17166 0.04529 -0.15154
 C80 C 0.26952 -0.01204 -0.14813
 C81 C 0.33846 -0.00984 -0.11632
 C82 C 0.31853 0.05223 -0.08613
 C83 C 0.23916 0.12626 -0.08933
 C84 C 0.09135 0.20371 -0.12391
 C85 C 0.07926 0.27214 -0.09419
 C86 C 0.14331 0.26659 -0.06190
 C87 C 0.22214 0.19430 -0.05931
 H88 H 0.03583 0.21100 -0.14744
 H89 H 0.01765 0.32835 -0.09605
 H90 H 0.13143 0.31819 -0.03865
 H91 H 0.26785 0.19117 -0.03331
 H92 H 0.28407 -0.07308 -0.16803
 H93 H 0.40475 -0.06199 -0.11480
 C94 C 0.09565 0.96754 0.54793
 C95 C -0.01354 0.91429 0.52268
 C96 C -0.08887 0.77889 0.52679
 C97 C -0.06972 0.70290 0.55469
 C98 C 0.02780 0.75409 0.58050
 C99 C 0.11625 0.88644 0.57651
 C100 C 0.18387 1.09937 0.54632
 C101 C 0.28776 1.14969 0.57106
 C102 C 0.30695 1.07066 0.59832
 C103 C 0.22198 0.94054 0.60118
 H104 H 0.17757 1.16583 0.52551
 H105 H 0.35442 1.25091 0.56892
 H106 H 0.38819 1.11042 0.61737
 H107 H 0.24044 0.88290 0.62278
 H108 H -0.17655 0.72640 0.51103
 H109 H -0.13672 0.60147 0.55683
 C110 C 0.11836 0.31916 0.20221
 C111 C 0.11650 0.19371 0.20032
 C112 C 0.20802 0.16438 0.22351
 C113 C 0.28812 0.24443 0.24829
 C114 C 0.28864 0.36348 0.25133
 C115 C 0.20994 0.40521 0.22693
 C116 C 0.03799 0.36525 0.18035
 C117 C 0.05107 0.49020 0.18092
 C118 C 0.14546 0.57405 0.20302
 C119 C 0.22460 0.53265 0.22569
 H120 H -0.03814 0.30794 0.16289
 H121 H -0.01172 0.52260 0.16369
 H122 H 0.15766 0.67191 0.20255
 H123 H 0.30040 0.60316 0.24126
 H124 H 0.22086 0.07639 0.22200
 H125 H 0.34935 0.21077 0.26578
 C126 C 0.91372 -0.14030 -0.11190
 C127 C 0.91706 -0.06669 -0.14584
 C128 C 0.81866 -0.00932 -0.14547
 C129 C 0.74482 -0.00239 -0.11335
 C130 C 0.76058 -0.05416 -0.07946
 C131 C 0.83861 -0.12986 -0.07847
 C132 C 0.99149 -0.21612 -0.10937
 C133 C 0.99768 -0.27685 -0.07565
 C134 C 0.92774 -0.26325 -0.04336
 C135 C 0.84924 -0.19022 -0.04458
 H136 H 1.05030 -0.22901 -0.13303
 H137 H 1.05889 -0.33355 -0.07452
 H138 H 0.93475 -0.30921 -0.01718
 H139 H 0.79828 -0.18071 -0.01868
 H140 H 0.80926 0.04769 -0.16870
 H141 H 0.67945 0.05070 -0.11482
 C142 C 0.26314 0.17027 0.12895
 C143 C 0.15358 0.06144 0.15093
 C144 C 0.11914 -0.05791 0.13613
 C145 C 0.18239 -0.06919 0.10205
 C146 C 0.26894 0.03891 0.07860
 C147 C 0.29415 0.15961 0.09079
 C148 C 0.33865 0.29240 0.14196
 C149 C 0.40698 0.40104 0.11762
 C150 C 0.40631 0.39099 0.07961
 C151 C 0.35211 0.27106 0.06613
 H152 H 0.35533 0.30758 0.17052
 H153 H 0.45951 0.49336 0.12839
 H154 H 0.45361 0.47564 0.06059
 H155 H 0.35426 0.26666 0.03630
 H156 H 0.03676 -0.14364 0.14956
 H157 H 0.15856 -0.16381 0.09336
 C158 C 0.66061 0.86716 0.47261
 C159 C 0.81119 0.90028 0.47323
 C160 C 0.86967 0.83858 0.44845
 C161 C 0.79167 0.75274 0.42459
 C162 C 0.64775 0.71976 0.42361
 C163 C 0.57886 0.77076 0.44909
 C164 C 0.58690 0.92595 0.49327
 C165 C 0.43994 0.88372 0.49417
 C166 C 0.36111 0.78245 0.47423
 C167 C 0.42935 0.72657 0.45181
 H168 H 0.63872 1.00710 0.50845
 H169 H 0.38679 0.92971 0.51068
 H170 H 0.24662 0.74817 0.47574
 H171 H 0.36310 0.64666 0.43724
 H172 H 0.98087 0.85635 0.44781
 H173 H 0.84695 0.71486 0.40568
 C174 C -0.07839 0.03500 0.77000
 C175 C 0.03379 0.07834 0.79541
 C176 C 0.13602 0.20589 0.78850
 C177 C 0.12982 0.28649 0.75944
 C178 C 0.02282 0.24486 0.73513
 C179 C -0.07979 0.11805 0.73958
 C180 C -0.19282 -0.08813 0.77448
 C181 C -0.29636 -0.12962 0.74944
 C182 C -0.29077 -0.05045 0.71896
 C183 C -0.18358 0.07170 0.71380
 H184 H -0.21030 -0.15359 0.79810
 H185 H -0.38211 -0.22379 0.75392
 H186 H -0.37134 -0.08352 0.69965
 H187 H -0.18261 0.12898 0.68929
 H188 H 0.22431 0.24561 0.80542
 H189 H 0.21001 0.38364 0.75601
 C190 C 0.79161 -0.03514 0.14217
 C191 C 0.92590 0.07380 0.14611
 C192 C 0.97193 0.16944 0.11628
 C193 C 0.89381 0.16210 0.08563
 C194 C 0.75958 0.06319 0.08406
 C195 C 0.70120 -0.02635 0.11493
 C196 C 0.74431 -0.15713 0.16173
 C197 C 0.60323 -0.24571 0.16334
 C198 C 0.50710 -0.21956 0.14324
 C199 C 0.55606 -0.11210 0.11838
 H200 H 0.81419 -0.19154 0.17405
 H201 H 0.56905 -0.33548 0.17991
 H202 H 0.39669 -0.28642 0.14508
 H203 H 0.47961 -0.09723 0.10187
 H204 H 1.07269 0.25064 0.11587
 H205 H 0.93991 0.23460 0.06273
 C206 C -0.00908 0.15109 0.43607
 C207 C 0.03666 0.08671 0.46447
 C208 C 0.17593 0.09367 0.45864
 C209 C 0.27151 0.17439 0.42995
 C210 C 0.22712 0.23951 0.40337
 C211 C 0.08232 0.21409 0.40388
 C212 C -0.14403 0.15481 0.43854
 C213 C -0.19591 0.19630 0.40825
 C214 C -0.11246 0.23928 0.37487
 C215 C 0.02654 0.25071 0.37277
 H216 H -0.21005 0.12835 0.46389
 H217 H -0.30166 0.19389 0.41065
 H218 H -0.15379 0.26691 0.35082
 H219 H 0.08911 0.28610 0.34639
 H220 H 0.21389 0.03930 0.47667
 H221 H 0.38130 0.18722 0.42887
 C222 C 0.18446 0.93050 0.76784
 C223 C 0.07451 0.88981 0.79845
 C224 C -0.02530 0.76185 0.80060
 C225 C -0.03108 0.68326 0.77218
 C226 C 0.06364 0.72670 0.74026
 C227 C 0.17532 0.85011 0.73827
 C228 C 0.30272 1.05071 0.76540
 C229 C 0.40178 1.09321 0.73468
 C230 C 0.38709 1.01780 0.70528
 C231 C 0.27589 0.89769 0.70694
 H232 H 0.32407 1.11374 0.78725
 H233 H 0.49037 1.18564 0.73369
 H234 H 0.46311 1.05215 0.68119
 H235 H 0.27125 0.84426 0.68319
 H236 H -0.10894 0.72358 0.82286
 H237 H -0.11515 0.58788 0.77458
   
