data_POSCAR
  _audit_creation_date              2014-09-24
  _audit_creation_method            'ToBaCCo'
  _symmetry_space_group_name_H-M    'P1'
  _symmetry_Int_Tables_number       1
  _symmetry_cell_setting            triclinic
  loop_
  _symmetry_equiv_pos_as_xyz
 x,y,z
_cell_length_a 56.2293
_cell_length_b 57.5236
_cell_length_c 24.4431
_cell_angle_alpha 90.135700
_cell_angle_beta 89.894900
_cell_angle_gamma 120.303700
loop_
  _atom_site_label
  _atom_site_type_symbol
  _atom_site_fract_x
  _atom_site_fract_y
  _atom_site_fract_z
C1 C 0.14011 0.39722 0.52441
 C2 C 0.13969 0.39631 0.46833
 C3 C 0.16685 0.40751 0.45112
 N4 N 0.18373 0.41444 0.49510
 C5 C 0.16739 0.40842 0.53978
 C6 C 0.17629 0.41337 0.39612
 C7 C 0.20286 0.41800 0.38206
 C8 C 0.21865 0.43280 0.33753
 C9 C 0.24252 0.43171 0.33844
 C10 C 0.24084 0.41654 0.38370
 N11 N 0.21674 0.40839 0.41021
 C12 C 0.26087 0.41004 0.39972
 C13 C 0.26150 0.40178 0.45339
 C14 C 0.27479 0.38825 0.46963
 C15 C 0.27490 0.38860 0.52568
 C16 C 0.26217 0.40288 0.54157
 N17 N 0.25348 0.41044 0.49722
 C18 C 0.26199 0.41224 0.59504
 C19 C 0.24160 0.41879 0.60993
 C20 C 0.24280 0.43485 0.65373
 C21 C 0.21875 0.43562 0.65319
 C22 C 0.20369 0.42049 0.60863
 N23 N 0.21768 0.41036 0.58246
 C24 C 0.17731 0.41555 0.59377
 H25 H 0.12237 0.39039 0.55088
 H26 H 0.12134 0.38819 0.44337
 H27 H 0.21028 0.39676 0.54989
 H28 H 0.21412 0.44412 0.30831
 H29 H 0.25942 0.44163 0.30984
 H30 H 0.28404 0.37967 0.44369
 H31 H 0.28398 0.37996 0.55169
 H32 H 0.21341 0.44677 0.68145
 H33 H 0.20926 0.39529 0.44352
 H34 H 0.25945 0.44584 0.68227
 C35 C 0.54655 -0.28836 0.47873
 C36 C 0.54608 -0.28742 0.53473
 C37 C 0.53388 -0.27240 0.54857
 N38 N 0.52737 -0.26371 0.50252
 C39 C 0.53474 -0.27380 0.45972
 C40 C 0.52803 -0.26750 0.60268
 C41 C 0.52409 -0.24538 0.61348
 C42 C 0.50962 -0.24319 0.65743
 C43 C 0.51203 -0.21822 0.65411
 C44 C 0.52767 -0.20585 0.60802
 N45 N 0.53480 -0.22258 0.58326
 C46 C 0.53555 -0.17948 0.59062
 C47 C 0.54533 -0.17025 0.53745
 C48 C 0.55731 -0.14371 0.52027
 C49 C 0.55920 -0.14406 0.46436
 C50 C 0.54849 -0.17078 0.44954
 N51 N 0.54018 -0.18668 0.49425
 C52 C 0.54222 -0.18085 0.39588
 C53 C 0.53260 -0.20814 0.38403
 C54 C 0.51838 -0.22145 0.33722
 C55 C 0.51429 -0.24704 0.34018
 C56 C 0.52688 -0.24843 0.38799
 N57 N 0.53752 -0.22475 0.41500
 C58 C 0.53048 -0.27015 0.40386
 H59 H 0.55559 -0.29785 0.45504
 H60 H 0.55471 -0.29607 0.56183
 H61 H 0.55018 -0.21933 0.44938
 H62 H 0.49792 -0.25817 0.68818
 H63 H 0.50293 -0.21030 0.68211
 H64 H 0.56311 -0.12607 0.54522
 H65 H 0.56650 -0.12679 0.43770
 H66 H 0.50330 -0.26274 0.31019
 H67 H 0.54825 -0.21788 0.55029
 H68 H 0.51160 -0.21364 0.30430
 C69 C 1.16084 0.69858 0.48622
 C70 C 1.16018 0.69879 0.54227
 C71 C 1.17077 0.72545 0.55820
 N72 N 1.17852 0.74151 0.51363
 C73 C 1.17227 0.72508 0.46975
 C74 C 1.17249 0.73495 0.61250
 C75 C 1.19031 0.76255 0.62486
 C76 C 1.18720 0.77635 0.66833
 C77 C 1.21002 0.80174 0.66850
 C78 C 1.22656 0.80279 0.62524
 N79 N 1.21399 0.77905 0.59791
 C80 C 1.25348 0.82431 0.61381
 C81 C 1.26428 0.82761 0.56006
 C82 C 1.29198 0.84067 0.54630
 C83 C 1.29330 0.83990 0.49043
 C84 C 1.26636 0.82644 0.47150
 N85 N 1.24862 0.81853 0.51430
 C86 C 1.25816 0.82168 0.41575
 C87 C 1.23152 0.80045 0.40145
 C88 C 1.21771 0.79824 0.35287
 C89 C 1.19443 0.77312 0.35259
 C90 C 1.19445 0.76089 0.40127
 N91 N 1.21678 0.77783 0.43130
 C92 C 1.17581 0.73388 0.41508
 H93 H 1.15432 0.68100 0.46067
 H94 H 1.15334 0.68125 0.56787
 H95 H 1.22342 0.77290 0.46694
 H96 H 1.17017 0.76901 0.69680
 H97 H 1.21382 0.81760 0.69718
 H98 H 1.30954 0.84888 0.57347
 H99 H 1.31208 0.84742 0.46699
 H100 H 1.17936 0.76475 0.32006
 H101 H 1.22264 0.77339 0.56649
 H102 H 1.22377 0.81302 0.32064
 C103 C 0.85622 0.54569 0.46239
 C104 C 0.85593 0.54347 0.51822
 C105 C 0.84213 0.55602 0.53853
 N106 N 0.83350 0.56527 0.49669
 C107 C 0.84223 0.55909 0.45023
 C108 C 0.83815 0.55973 0.59450
 C109 C 0.81744 0.56568 0.60976
 C110 C 0.81763 0.57930 0.65683
 C111 C 0.79296 0.57878 0.65847
 C112 C 0.77822 0.56480 0.61243
 N113 N 0.79363 0.55753 0.58212
 C114 C 0.75064 0.55767 0.60060
 C115 C 0.74121 0.55347 0.54562
 C116 C 0.71390 0.54006 0.52859
 C117 C 0.71418 0.54204 0.47265
 C118 C 0.74158 0.55618 0.45712
 N119 N 0.75808 0.56306 0.50164
 C120 C 0.75116 0.56324 0.40285
 C121 C 0.77855 0.57137 0.38827
 C122 C 0.79131 0.58408 0.33981
 C123 C 0.81619 0.58490 0.33817
 C124 C 0.81786 0.57271 0.38571
 N125 N 0.79506 0.56491 0.41639
 C126 C 0.83835 0.56618 0.39715
 H127 H 0.86507 0.53766 0.43401
 H128 H 0.86424 0.53300 0.54064
 H129 H 0.78939 0.55249 0.45063
 H130 H 0.83397 0.58895 0.68668
 H131 H 0.78680 0.58798 0.68984
 H132 H 0.69554 0.52920 0.55326
 H133 H 0.69623 0.53340 0.44644
 H134 H 0.83100 0.59291 0.30511
 H135 H 0.78699 0.54507 0.54772
 H136 H 0.78325 0.59138 0.30826
 C137 C 0.43038 0.15835 0.50893
 C138 C 0.42703 0.15732 0.45324
 C139 C 0.43513 0.18323 0.43651
 N140 N 0.44334 0.20013 0.48009
 C141 C 0.44091 0.18503 0.52449
 C142 C 0.43697 0.19147 0.38146
 C143 C 0.43858 0.21599 0.36760
 C144 C 0.44837 0.22969 0.31859
 C145 C 0.44534 0.25200 0.32137
 C146 C 0.43348 0.25102 0.37175
 N147 N 0.42946 0.22902 0.39954
 C148 C 0.42581 0.26941 0.39132
 C149 C 0.41921 0.26960 0.44660
 C150 C 0.40393 0.28046 0.46688
 C151 C 0.40690 0.28138 0.52260
 C152 C 0.42446 0.27163 0.53406
 N153 N 0.43149 0.26393 0.48757
 C154 C 0.43742 0.27364 0.58467
 C155 C 0.44768 0.25605 0.59589
 C156 C 0.46806 0.26058 0.63350
 C157 C 0.47163 0.23867 0.63118
 C158 C 0.45348 0.22127 0.59207
 N159 N 0.43925 0.23219 0.57020
 C160 C 0.44994 0.19575 0.57785
 H161 H 0.42522 0.14120 0.53472
 H162 H 0.41926 0.13946 0.42802
 H163 H 0.42319 0.22287 0.54200
 H164 H 0.45718 0.22444 0.28471
 H165 H 0.45140 0.26716 0.28994
 H166 H 0.39255 0.28766 0.44370
 H167 H 0.39788 0.28916 0.55118
 H168 H 0.48675 0.23644 0.65430
 H169 H 0.41897 0.22199 0.43653
 H170 H 0.48016 0.27821 0.65852
 C171 C 0.71139 0.14063 0.52477
 C172 C 0.71118 0.14459 0.46954
 C173 C 0.72937 0.17164 0.46040
 N174 N 0.74055 0.18447 0.50814
 C175 C 0.72921 0.16560 0.54791
 C176 C 0.73408 0.18446 0.40914
 C177 C 0.75792 0.20942 0.39823
 C178 C 0.76144 0.22581 0.35378
 C179 C 0.78816 0.24685 0.35574
 C180 C 0.80017 0.24277 0.40145
 N181 N 0.78157 0.21995 0.42721
 C182 C 0.82788 0.25939 0.41750
 C183 C 0.83659 0.25945 0.47161
 C184 C 0.86369 0.27297 0.48936
 C185 C 0.86284 0.27066 0.54529
 C186 C 0.83526 0.25565 0.55967
 N187 N 0.81926 0.24870 0.51462
 C188 C 0.82502 0.25144 0.61361
 C189 C 0.79759 0.23178 0.62668
 C190 C 0.78418 0.23122 0.67470
 C191 C 0.75843 0.20869 0.67240
 C192 C 0.75675 0.19583 0.62315
 N193 N 0.78069 0.21026 0.59524
 C194 C 0.73365 0.17137 0.60482
 H195 H 0.69990 0.12138 0.54503
 H196 H 0.69931 0.12923 0.43943
 H197 H 0.78597 0.20452 0.55880
 H198 H 0.74638 0.22298 0.32304
 H199 H 0.79755 0.26338 0.32701
 H200 H 0.88212 0.28381 0.46480
 H201 H 0.88047 0.27942 0.57237
 H202 H 0.74254 0.20308 0.70299
 H203 H 0.78560 0.21059 0.45940
 H204 H 0.79186 0.24581 0.70762
 O205 O 0.99580 0.51417 -0.09005
 O206 O 1.02486 0.52941 0.09673
 O207 O 0.96301 0.49914 0.03249
 O208 O 1.05758 0.54470 -0.02471
 O209 O 0.97845 0.49398 0.10774
 O210 O 1.04205 0.52367 -0.09937
 O211 O 1.06293 0.53492 0.06742
 O212 O 0.95758 0.48302 -0.05926
 C213 C 0.97073 0.50451 -0.08519
 C214 C 1.05001 0.54406 0.09238
 C215 C 0.96649 0.50376 0.08200
 C216 C 1.05383 0.54546 -0.07417
 O217 O 1.02438 0.47033 -0.08816
 O218 O 0.99513 0.45724 0.09875
 O219 O 0.96227 0.44051 -0.02368
 O220 O 1.05693 0.48666 0.03382
 O221 O 1.04159 0.49281 0.10836
 O222 O 0.97820 0.46073 -0.09907
 O223 O 1.06267 0.50188 -0.05848
 O224 O 0.95717 0.45142 0.06806
 Co225 Co 1.01011 0.49228 -0.08458
 Co226 Co 1.01002 0.49331 0.09331
 Co227 Co 0.96497 0.47093 0.00443
 Co228 Co 1.05509 0.51463 0.00450
 O229 O 1.01004 0.49276 0.00441
 C230 C 1.04951 0.48020 -0.08405
 C231 C 0.96997 0.44262 0.09435
 C232 C 0.96541 0.43918 -0.07331
 C233 C 1.05330 0.48249 0.08343
 O234 O 0.51200 0.48992 -0.11801
 O235 O 0.48639 0.51201 0.11056
 O236 O 0.49896 0.46087 0.04670
 O237 O 0.45752 0.49055 -0.05026
 O238 O 0.51348 0.49030 0.11213
 O239 O 0.48530 0.51333 -0.11401
 O240 O 0.45967 0.48899 0.04594
 O241 O 0.50658 0.46060 -0.05478
 C242 C 0.50499 0.46625 -0.10338
 C243 C 0.46347 0.49323 0.09543
 C244 C 0.49895 0.46628 0.09586
 C245 C 0.46210 0.49483 -0.09954
 O246 O 0.52908 0.55751 -0.07438
 O247 O 0.55751 0.53657 0.07087
 O248 O 0.55677 0.50113 -0.04406
 O249 O 0.48733 0.54407 0.05047
 O250 O 0.52946 0.55657 0.06368
 O251 O 0.55716 0.53429 -0.08946
 O252 O 0.48760 0.54551 -0.04860
 O253 O 0.55183 0.49769 0.05728
 Co254 Co 0.51998 0.52285 -0.08935
 Co255 Co 0.52083 0.52284 0.08170
 Co256 Co 0.52678 0.48313 0.00144
 Co257 Co 0.47631 0.51692 -0.00056
 O258 O 0.51124 0.51142 -0.00241
 C259 C 0.51047 0.56300 -0.06835
 C260 C 0.56692 0.52134 0.07287
 C261 C 0.56840 0.52114 -0.07581
 C262 C 0.51082 0.56192 0.06530
 O263 O 0.51913 0.02756 -0.10633
 O264 O 0.50213 -0.01657 0.10843
 O265 O 0.53239 0.06506 0.05097
 O266 O 0.50085 -0.03013 -0.05702
 O267 O 0.53197 0.03164 0.08989
 O268 O 0.48074 -0.01970 -0.11523
 O269 O 0.50289 -0.03717 0.03580
 O270 O 0.54198 0.04761 -0.03391
 C271 C 0.54184 0.04092 -0.08236
 C272 C 0.50765 -0.03247 0.08509
 C273 C 0.54343 0.05632 0.08277
 C274 C 0.49491 -0.03001 -0.10492
 O275 O 0.44660 -0.00676 -0.07055
 O276 O 0.48710 0.03701 0.09925
 O277 O 0.51963 0.07599 -0.04843
 O278 O 0.45141 -0.04693 0.05388
 O279 O 0.45851 -0.01305 0.10792
 O280 O 0.48128 0.04116 -0.07602
 O281 O 0.44592 -0.04348 -0.04587
 O282 O 0.48208 0.04913 0.01903
 Co283 Co 0.48316 0.01039 -0.08313
 Co284 Co 0.49481 0.00990 0.09209
 Co285 Co 0.51118 0.04643 -0.00817
 Co286 Co 0.47642 -0.03564 -0.00361
 O287 O 0.49134 0.00611 0.00350
 C288 C 0.43373 -0.03176 -0.06464
 C289 C 0.47793 0.04823 0.06916
 C290 C 0.49968 0.06558 -0.08440
 C291 C 0.44434 -0.03735 0.09353
 N292 N 1.14891 0.41764 0.26368
 C293 C 1.13017 0.42466 0.27866
 N294 N 1.12631 0.42730 0.33247
 N295 N 1.14084 0.42321 0.37020
 C296 C 1.15990 0.41638 0.35580
 N297 N 1.16342 0.41353 0.30154
 C298 C 1.11580 0.43103 0.23852
 C299 C 1.10371 0.43762 0.20733
 C300 C 1.08930 0.44694 0.17391
 N301 N 1.07217 0.45403 0.19794
 N302 N 1.06028 0.46479 0.16851
 C303 C 1.06513 0.46887 0.11400
 N304 N 1.08212 0.46153 0.08972
 N305 N 1.09408 0.45078 0.11929
 N306 N 0.53502 0.70340 0.27117
 C307 C 0.52758 0.67772 0.28360
 N308 N 0.52169 0.66939 0.33627
 N309 N 0.52294 0.68622 0.37525
 C310 C 0.53004 0.71201 0.36308
 N311 N 0.53626 0.72017 0.31013
 C312 C 0.52545 0.65949 0.24121
 C313 C 0.52348 0.64406 0.20567
 C314 C 0.52096 0.62515 0.16450
 N315 N 0.49621 0.60849 0.14100
 N316 N 0.49328 0.58917 0.10671
 C317 C 0.51504 0.58595 0.09465
 N318 N 0.53989 0.60298 0.11756
 N319 N 0.54281 0.62229 0.15181
 N320 N 0.29258 -0.15758 0.28344
 C321 C 0.31378 -0.13261 0.29490
 N322 N 0.31621 -0.12261 0.34609
 N323 N 0.29811 -0.13719 0.38478
 C324 C 0.27687 -0.16239 0.37399
 N325 N 0.27448 -0.17213 0.32222
 C326 C 0.33411 -0.11726 0.25426
 C327 C 0.35202 -0.10377 0.22194
 C328 C 0.37433 -0.08683 0.18615
 N329 N 0.38931 -0.06003 0.19609
 N330 N 0.41127 -0.04428 0.16563
 C331 C 0.41904 -0.05477 0.12420
 N332 N 0.40389 -0.08163 0.11399
 N333 N 0.38188 -0.09742 0.14457
 N334 N 0.89763 0.57299 0.31819
 C335 C 0.88540 0.55965 0.27137
 N336 N 0.85793 0.54929 0.26495
 N337 N 0.84312 0.55208 0.30429
 C338 C 0.85525 0.56518 0.35153
 N339 N 0.88284 0.57578 0.35753
 C340 C 0.90072 0.55377 0.23234
 C341 C 0.91354 0.54755 0.20207
 C342 C 0.92871 0.53865 0.16960
 N343 N 0.94616 0.53232 0.19457
 N344 N 0.95866 0.52181 0.16606
 C345 C 0.95411 0.51723 0.11156
 N346 N 0.93681 0.52383 0.08636
 N347 N 0.92423 0.53432 0.11500
 N348 N 0.44518 0.33818 0.34907
 C349 C 0.43730 0.33477 0.29605
 N350 N 0.42522 0.30972 0.27375
 N351 N 0.42110 0.28867 0.30382
 C352 C 0.42913 0.29209 0.35703
 N353 N 0.44111 0.31722 0.37900
 C354 C 0.44391 0.35781 0.26318
 C355 C 0.45085 0.37752 0.23561
 C356 C 0.46052 0.40070 0.20134
 N357 N 0.47619 0.42592 0.22206
 N358 N 0.48781 0.44720 0.18885
 C359 C 0.48419 0.44383 0.13390
 N360 N 0.46820 0.41860 0.11356
 N361 N 0.45659 0.39741 0.14666
 N362 N 0.66672 0.14970 0.33893
 C363 C 0.67404 0.14812 0.28679
 N364 N 0.70103 0.15823 0.27466
 N365 N 0.72015 0.16976 0.31348
 C366 C 0.71289 0.17147 0.36578
 N367 N 0.68581 0.16123 0.37772
 C368 C 0.65324 0.13459 0.24584
 C369 C 0.63516 0.12221 0.21305
 C370 C 0.61291 0.10595 0.17651
 N371 N 0.60156 0.07886 0.17730
 N372 N 0.57979 0.06325 0.14634
 C373 C 0.56857 0.07416 0.11344
 N374 N 0.58007 0.10136 0.11228
 N375 N 0.60190 0.11701 0.14343
 N376 N 0.47022 0.15017 -0.36268
 C377 C 0.46999 0.15505 -0.30850
 N378 N 0.46300 0.17331 -0.29202
 N379 N 0.45652 0.18634 -0.32865
 C380 C 0.45667 0.18162 -0.38324
 N381 N 0.46374 0.16323 -0.39924
 C382 C 0.47639 0.14056 -0.26903
 C383 C 0.48129 0.12795 -0.23608
 C384 C 0.48632 0.11222 -0.19724
 N385 N 0.46815 0.08550 -0.19234
 N386 N 0.47253 0.07074 -0.15633
 C387 C 0.49524 0.08216 -0.12394
 N388 N 0.51347 0.10894 -0.12890
 N389 N 0.50907 0.12373 -0.16498
 N390 N 0.69349 0.55541 -0.32409
 C391 C 0.69795 0.54960 -0.27280
 N392 N 0.72006 0.54674 -0.26330
 N393 N 0.73710 0.54952 -0.30402
 C394 C 0.73271 0.55517 -0.35587
 N395 N 0.71053 0.55816 -0.36470
 C396 C 0.67895 0.54594 -0.22980
 C397 C 0.66197 0.54280 -0.19593
 C398 C 0.64045 0.53909 -0.15902
 N399 N 0.62818 0.51733 -0.12556
 N400 N 0.60593 0.51223 -0.09659
 C401 C 0.59520 0.52870 -0.10031
 N402 N 0.60781 0.55064 -0.13324
 N403 N 0.63004 0.55575 -0.16204
 N404 N 0.86095 0.27990 -0.25487
 C405 C 0.87469 0.30667 -0.26591
 N406 N 0.87229 0.31516 -0.31612
 N407 N 0.85664 0.29752 -0.35422
 C408 C 0.84284 0.27070 -0.34357
 N409 N 0.84527 0.26219 -0.29312
 C410 C 0.89129 0.32622 -0.22535
 C411 C 0.90549 0.34427 -0.19433
 C412 C 0.92256 0.36753 -0.16149
 N413 N 0.94150 0.39056 -0.18628
 N414 N 0.95570 0.41315 -0.15755
 C415 C 0.95147 0.41352 -0.10298
 N416 N 0.93269 0.39035 -0.07794
 N417 N 0.91839 0.36771 -0.10681
 N418 N 0.51253 -0.13303 -0.36242
 C419 C 0.52241 -0.12736 -0.31069
 N420 N 0.53609 -0.13929 -0.29049
 N421 N 0.54001 -0.15621 -0.32138
 C422 C 0.53034 -0.16173 -0.37347
 N423 N 0.51643 -0.14991 -0.39325
 C424 C 0.51854 -0.10881 -0.27797
 C425 C 0.51526 -0.09336 -0.25010
 C426 C 0.51142 -0.07549 -0.21508
 N427 N 0.49586 -0.06478 -0.23102
 N428 N 0.49114 -0.04947 -0.19670
 C429 C 0.50188 -0.04444 -0.14541
 N430 N 0.51762 -0.05502 -0.12996
 N431 N 0.52235 -0.07024 -0.16418
 N432 N 0.33006 0.42890 -0.35750
 C433 C 0.32772 0.43056 -0.30279
 N434 N 0.30328 0.42544 -0.28143
 N435 N 0.28184 0.41900 -0.31403
 C436 C 0.28404 0.41756 -0.36921
 N437 N 0.30865 0.42251 -0.38992
 C438 C 0.35137 0.43930 -0.26861
 C439 C 0.37154 0.44745 -0.24034
 C440 C 0.39535 0.45791 -0.20603
 N441 N 0.39262 0.45037 -0.15293
 N442 N 0.41425 0.46164 -0.11959
 C443 C 0.43934 0.48084 -0.13818
 N444 N 0.44213 0.48817 -0.19161
 N445 N 0.42044 0.47687 -0.22501
 N446 N 1.15064 0.70417 -0.25296
 C447 C 1.12742 0.68076 -0.26540
 N448 N 1.11864 0.67584 -0.31791
 N449 N 1.13279 0.69360 -0.35696
 C450 C 1.15643 0.71692 -0.34530
 N451 N 1.16477 0.72197 -0.29214
 C452 C 1.11378 0.66007 -0.22519
 C453 C 1.10224 0.64124 -0.19449
 C454 C 1.08846 0.61729 -0.16205
 N455 N 1.07192 0.59340 -0.18696
 N456 N 1.06055 0.57062 -0.15846
 C457 C 1.06538 0.57092 -0.10404
 N458 N 1.08181 0.59492 -0.07891
 N459 N 1.09325 0.61776 -0.10754
 N460 N 0.89533 0.55821 -0.33876
 C461 C 0.88598 0.55171 -0.28676
 N462 N 0.86104 0.54845 -0.27384
 N463 N 0.84587 0.55147 -0.31190
 C464 C 0.85489 0.55766 -0.36451
 N465 N 0.88013 0.56121 -0.37673
 C466 C 0.90146 0.54644 -0.24706
 C467 C 0.91419 0.54105 -0.21490
 C468 C 0.92894 0.53340 -0.17813
 N469 N 0.91497 0.51220 -0.14396
 N470 N 0.92841 0.50352 -0.11312
 C471 C 0.95630 0.51572 -0.11545
 N472 N 0.97028 0.53711 -0.14935
 N473 N 0.95681 0.54579 -0.18022
 N474 N 0.44945 0.33864 -0.36723
 C475 C 0.45481 0.33791 -0.31360
 N476 N 0.45394 0.31560 -0.29311
 N477 N 0.44798 0.29467 -0.32550
 C478 C 0.44271 0.29524 -0.37962
 N479 N 0.44353 0.31774 -0.39945
 C480 C 0.46215 0.36083 -0.27945
 C481 C 0.46869 0.38004 -0.25034
 C482 C 0.47689 0.40225 -0.21363
 N483 N 0.47763 0.39831 -0.15930
 N484 N 0.48629 0.41884 -0.12464
 C485 C 0.49452 0.44405 -0.14295
 N486 N 0.49363 0.44802 -0.19750
 N487 N 0.48496 0.42739 -0.23233
 N488 N 0.66866 0.12049 -0.33484
 C489 C 0.67592 0.12028 -0.28215
 N490 N 0.70244 0.13683 -0.26692
 N491 N 0.72109 0.15304 -0.30342
 C492 C 0.71400 0.15348 -0.35652
 N493 N 0.68731 0.13672 -0.37119
 C494 C 0.65524 0.10384 -0.24272
 C495 C 0.63683 0.09038 -0.21119
 C496 C 0.61365 0.07496 -0.17584
 N497 N 0.61470 0.08150 -0.12217
 N498 N 0.59206 0.06954 -0.09129
 C499 C 0.56761 0.05067 -0.11309
 N500 N 0.56676 0.04389 -0.16659
 N501 N 0.58938 0.05581 -0.19739
 N502 N 1.13276 0.43831 -0.34254
 C503 C 1.13150 0.43049 -0.28983
 N504 N 1.14486 0.41733 -0.27530
 N505 N 1.15910 0.41224 -0.31233
 C506 C 1.16049 0.42014 -0.36521
 N507 N 1.14699 0.43324 -0.37953
 C508 C 1.11688 0.43689 -0.24982
 C509 C 1.10476 0.44296 -0.21722
 C510 C 1.09052 0.45107 -0.17978
 N511 N 1.06261 0.43831 -0.17964
 N512 N 1.04947 0.44711 -0.14785
 C513 C 1.06381 0.46897 -0.11512
 N514 N 1.09175 0.48156 -0.11501
 N515 N 1.10488 0.47276 -0.14679
 N516 N 0.51757 0.67286 -0.32384
 C517 C 0.52166 0.68147 -0.27123
 N518 N 0.52775 0.70700 -0.26032
 N519 N 0.52969 0.72336 -0.30085
 C520 C 0.52572 0.71496 -0.35394
 N521 N 0.51952 0.68924 -0.36424
 C522 C 0.52012 0.66376 -0.22805
 C523 C 0.51895 0.64819 -0.19358
 C524 C 0.51774 0.62868 -0.15516
 N525 N 0.53972 0.62523 -0.14913
 N526 N 0.53778 0.60511 -0.11887
 C527 C 0.51379 0.58771 -0.09340
 N528 N 0.49191 0.59147 -0.09874
 N529 N 0.49385 0.61161 -0.12910
 N530 N 0.30757 -0.11689 -0.31516
 C531 C 0.30253 -0.12486 -0.26223
 N532 N 0.28083 -0.14946 -0.25029
 N533 N 0.26477 -0.16560 -0.29011
 C534 C 0.26983 -0.15794 -0.34354
 N535 N 0.29151 -0.13305 -0.35490
 C536 C 0.32136 -0.10834 -0.22012
 C537 C 0.33830 -0.09464 -0.18620
 C538 C 0.35994 -0.07858 -0.14810
 N539 N 0.37056 -0.09032 -0.11604
 N540 N 0.39320 -0.07531 -0.08659
 C541 C 0.40602 -0.04801 -0.08808
 N542 N 0.39503 -0.03630 -0.11940
 N543 N 0.37238 -0.05132 -0.14891
 N544 N 0.56488 -0.12570 0.29577
 C545 C 0.54045 -0.12894 0.27865
 N546 N 0.51672 -0.14953 0.29902
 N547 N 0.51734 -0.16637 0.33549
 C548 C 0.54173 -0.16321 0.35269
 N549 N 0.56551 -0.14257 0.33227
 C550 C 0.53944 -0.11012 0.24178
 C551 C 0.53722 -0.09464 0.21208
 C552 C 0.53284 -0.07679 0.17836
 N553 N 0.52886 -0.08112 0.12372
 N554 N 0.52183 -0.06628 0.09346
 C555 C 0.51848 -0.04668 0.11689
 N556 N 0.52277 -0.04223 0.17151
 N557 N 0.52982 -0.05704 0.20172
 N558 N 0.30249 0.41665 0.27659
 C559 C 0.32831 0.42863 0.29780
 N560 N 0.33188 0.43412 0.35201
 N561 N 0.31033 0.42786 0.38409
 C562 C 0.28441 0.41593 0.36320
 N563 N 0.28088 0.41035 0.30877
 C564 C 0.35187 0.43693 0.26319
 C565 C 0.37204 0.44489 0.23477
 C566 C 0.39606 0.45540 0.20067
 N567 N 0.42105 0.47430 0.22019
 N568 N 0.44291 0.48579 0.18717
 C569 C 0.44044 0.47876 0.13354
 N570 N 0.41546 0.45961 0.11435
 N571 N 0.39364 0.44813 0.14733
 N572 N 1.15898 0.69551 0.28525
 C573 C 1.13217 0.67652 0.29290
 N574 N 1.11947 0.67669 0.33997
 N575 N 1.13318 0.69520 0.37832
 C576 C 1.16011 0.71416 0.37106
 N577 N 1.17269 0.71403 0.32362
 C578 C 1.11785 0.65548 0.25324
 C579 C 1.10583 0.63721 0.22118
 C580 C 1.09151 0.61469 0.18468
 N581 N 1.06359 0.60011 0.18465
 N582 N 1.05033 0.57799 0.15398
 C583 C 1.06453 0.56969 0.12231
 N584 N 1.09248 0.58448 0.12204
 N585 N 1.10574 0.60659 0.15273
 N586 N 0.45589 0.14782 0.30435
 C587 C 0.44168 0.14349 0.25708
 N588 N 0.42585 0.15488 0.25032
 N589 N 0.42433 0.17016 0.28976
 C590 C 0.43853 0.17449 0.33731
 N591 N 0.45438 0.16306 0.34371
 C592 C 0.44320 0.12650 0.21572
 C593 C 0.44560 0.11168 0.18411
 C594 C 0.44998 0.09342 0.15134
 N595 N 0.45688 0.09825 0.09756
 N596 N 0.46438 0.08292 0.06984
 C597 C 0.46532 0.06240 0.09521
 N598 N 0.45801 0.05748 0.14870
 N599 N 0.45044 0.07266 0.17620
 N600 N 0.69628 0.56754 0.32810
 C601 C 0.69558 0.55550 0.27987
 N602 N 0.71317 0.54620 0.27181
 N603 N 0.73093 0.54887 0.31075
 C604 C 0.73169 0.56088 0.35920
 N605 N 0.71405 0.57022 0.36707
 C606 C 0.67558 0.55150 0.23886
 C607 C 0.65824 0.54749 0.20523
 C608 C 0.63673 0.54193 0.16671
 N609 N 0.62289 0.51755 0.14184
 N610 N 0.60129 0.51140 0.10997
 C611 C 0.59281 0.52944 0.10180
 N612 N 0.60693 0.55397 0.12622
 N613 N 0.62853 0.56012 0.15812
 N614 N 0.86570 0.28948 0.28888
 C615 C 0.88164 0.31574 0.30306
 N616 N 0.88044 0.32342 0.35497
 N617 N 0.86376 0.30542 0.39159
 C618 C 0.84768 0.27909 0.37758
 N619 N 0.84902 0.27145 0.32553
 C620 C 0.89823 0.33556 0.26292
 C621 C 0.91161 0.35284 0.22986
 C622 C 0.92682 0.37420 0.19156
 N623 N 0.91327 0.38153 0.15612
 N624 N 0.92715 0.40285 0.12381
 C625 C 0.95507 0.41760 0.12584
 N626 N 0.96864 0.41006 0.16097
 N627 N 0.95474 0.38872 0.19334
   
