data_POSCAR
  _audit_creation_date              2014-09-24
  _audit_creation_method            'ToBaCCo'
  _symmetry_space_group_name_H-M    'P1'
  _symmetry_Int_Tables_number       1
  _symmetry_cell_setting            triclinic
  loop_
  _symmetry_equiv_pos_as_xyz
 x,y,z
_cell_length_a 34.1254
_cell_length_b 34.1351
_cell_length_c 34.1759
_cell_angle_alpha 90.068900
_cell_angle_beta 90.050200
_cell_angle_gamma 89.938600
loop_
  _atom_site_label
  _atom_site_type_symbol
  _atom_site_fract_x
  _atom_site_fract_y
  _atom_site_fract_z
N1 N 0.18607 0.18854 0.18345
 N2 N -0.18305 0.81692 0.18795
 N3 N -0.18788 0.18335 -0.18822
 N4 N 0.18378 0.81353 -0.18237
 N5 N 0.18392 1.18418 0.81984
 N6 N 0.81476 0.81699 0.81072
 N7 N 0.18372 0.81229 1.18300
 N8 N 0.81414 1.18438 1.18804
 O9 O 0.44485 0.92747 0.93233
 O10 O 0.40192 0.96375 0.96937
 C11 C 0.40975 0.93715 0.94342
 O12 O 0.55576 0.92961 1.07181
 O13 O 0.59830 0.96640 1.03499
 C14 C 0.59079 0.94054 1.06170
 O15 O 0.44549 0.92676 1.06985
 O16 O 0.40224 0.96347 1.03359
 C17 C 0.41028 0.93665 1.05923
 O18 O 0.55506 0.93154 0.92830
 O19 O 0.59787 0.96555 0.96746
 C20 C 0.59018 0.94120 0.93937
 Zr21 Zr 0.50000 0.94895 0.95142
 O22 O 0.50470 0.88710 0.95238
 O23 O 0.49543 0.94813 0.88967
 Zr24 Zr 0.50041 0.94842 1.05049
 O25 O 0.50451 0.88654 1.04947
 O26 O 0.49686 0.94810 1.11233
 O27 O 0.46532 0.94090 1.00102
 O28 O 0.53424 0.94169 1.00078
 O29 O 0.55444 1.06737 0.93045
 O30 O 0.59769 1.03100 0.96700
 C31 C 0.58965 1.05678 0.94035
 O32 O 0.44480 1.06893 1.07026
 O33 O 0.40186 1.03210 1.03377
 C34 C 0.40970 1.05894 1.05948
 O35 O 0.55499 1.06680 1.07259
 O36 O 0.59794 1.03090 1.03525
 C37 C 0.59013 1.05642 1.06228
 O38 O 0.44417 1.06903 0.93277
 O39 O 0.40158 1.03245 0.96975
 C40 C 0.40917 1.05907 0.94382
 Zr41 Zr 0.49949 1.04808 0.95204
 O42 O 0.50288 1.11001 0.95315
 O43 O 0.49548 1.04846 0.89021
 Zr44 Zr 0.49990 1.04749 1.05116
 O45 O 0.50345 1.10940 1.05171
 O46 O 0.49618 1.04647 1.11299
 Zr47 Zr 0.44183 0.99805 1.00146
 Zr48 Zr 0.55811 0.99851 1.00110
 O49 O 0.53363 1.05509 1.00153
 O50 O 0.46479 1.05534 1.00174
 O51 O 0.53465 0.99872 0.94399
 O52 O 0.46615 0.99781 1.05803
 O53 O 0.46573 0.99840 0.94473
 O54 O 0.53513 0.99807 1.05834
 H55 H 0.55217 0.91884 1.00052
 H56 H 0.44843 0.99771 1.08098
 H57 H 0.55127 1.07812 1.00161
 H58 H 0.44789 0.99838 0.92184
 H59 H 0.51869 0.96428 1.12239
 H60 H 0.51894 1.03146 1.12285
 H61 H 0.48191 1.11945 1.03514
 H62 H 0.47995 1.11978 0.96792
 H63 H 0.51784 1.03314 0.87993
 H64 H 0.51525 0.96653 0.87938
 H65 H 0.48163 0.87685 0.96655
 H66 H 0.48207 0.87659 1.03405
 O67 O -0.07888 0.44470 0.06569
 O68 O -0.03971 0.40172 0.03184
 C69 C -0.06754 0.40957 0.05642
 O70 O -0.07349 0.55457 -0.07417
 O71 O -0.03951 0.59731 -0.03491
 C72 C -0.06399 0.58967 -0.06286
 O73 O -0.07859 0.44438 -0.06912
 O74 O -0.03996 0.40153 -0.03451
 C75 C -0.06755 0.40930 -0.05941
 O76 O -0.07531 0.55483 0.06898
 O77 O -0.03832 0.59759 0.03260
 C78 C -0.06425 0.58988 0.05919
 Zr79 Zr -0.05612 0.49963 0.04772
 O80 O -0.11799 0.50405 0.04825
 O81 O -0.05519 0.49554 0.10952
 Zr82 Zr -0.05592 0.49942 -0.05121
 O83 O -0.11775 0.50461 -0.05111
 O84 O -0.05607 0.49435 -0.11294
 O85 O -0.06363 0.46454 -0.00172
 O86 O -0.06314 0.53353 -0.00182
 O87 O 0.06276 0.55463 0.06895
 O88 O 0.02591 0.59746 0.03247
 C89 C 0.05195 0.58971 0.05897
 O90 O 0.06451 0.44369 -0.07019
 O91 O 0.02815 0.40111 -0.03303
 C92 C 0.05473 0.40865 -0.05898
 O93 O 0.06269 0.55422 -0.07225
 O94 O 0.02582 0.59731 -0.03594
 C95 C 0.05188 0.58938 -0.06238
 O96 O 0.06635 0.44469 0.06541
 O97 O 0.02700 0.40161 0.03196
 C98 C 0.05507 0.40954 0.05626
 Zr99 Zr 0.04307 0.49954 0.04798
 O100 O 0.10488 0.50363 0.05018
 O101 O 0.04089 0.49535 0.10977
 Zr102 Zr 0.04330 0.49914 -0.05105
 O103 O 0.10525 0.50274 -0.05071
 O104 O 0.04299 0.49528 -0.11289
 Zr105 Zr -0.00634 0.44122 -0.00150
 Zr106 Zr -0.00636 0.55755 -0.00167
 O107 O 0.05035 0.53328 -0.00159
 O108 O 0.05088 0.46446 -0.00146
 O109 O -0.00651 0.53450 0.05550
 O110 O -0.00635 0.46525 -0.05820
 O111 O -0.00650 0.46563 0.05509
 O112 O -0.00624 0.53418 -0.05882
 H113 H -0.08609 0.55133 -0.00197
 H114 H -0.00640 0.44741 -0.08109
 H115 H 0.07341 0.55088 -0.00156
 H116 H -0.00645 0.44793 0.07805
 H117 H -0.03879 0.51512 -0.12330
 H118 H 0.02818 0.51806 -0.12296
 H119 H 0.11532 0.47972 -0.03628
 H120 H 0.11534 0.48556 0.03011
 H121 H 0.02778 0.51923 0.11970
 H122 H -0.04017 0.51821 0.11954
 H123 H -0.12831 0.48323 0.03094
 H124 H -0.12829 0.48262 -0.03553
 O125 O 1.07650 -0.06777 0.55576
 O126 O 1.04063 -0.02997 0.59840
 C127 C 1.06672 -0.05652 0.59076
 O128 O 1.07548 0.07336 0.44545
 O129 O 1.04094 0.03468 0.40262
 C130 C 1.06584 0.06222 0.41038
 O131 O 1.08002 0.06884 0.55549
 O132 O 1.04044 0.03528 0.59813
 C133 C 1.06841 0.05976 0.59051
 O134 O 1.07459 -0.07031 0.44541
 O135 O 1.03869 -0.03286 0.40256
 C136 C 1.06402 -0.06008 0.41031
 Zr137 Zr 1.05576 -0.04829 0.50051
 O138 O 1.11770 -0.04880 0.49695
 O139 O 1.05472 -0.11017 0.50437
 Zr140 Zr 1.05734 0.05087 0.50042
 O141 O 1.11918 0.04933 0.49574
 O142 O 1.05870 0.11269 0.50529
 O143 O 1.06409 0.00124 0.53539
 O144 O 1.06377 0.00112 0.46653
 O145 O 0.93834 -0.06875 0.44500
 O146 O 0.97345 -0.03064 0.40230
 C147 C 0.94817 -0.05782 0.40997
 O148 O 0.93684 0.07199 0.55510
 O149 O 0.97252 0.03449 0.59810
 C150 C 0.94621 0.06071 0.59018
 O151 O 0.94046 0.07513 0.44489
 O152 O 0.97446 0.03571 0.40231
 C153 C 0.94985 0.06361 0.40989
 O154 O 0.93298 -0.06357 0.55477
 O155 O 0.97264 -0.03050 0.59787
 C156 C 0.94423 -0.05443 0.58990
 Zr157 Zr 0.95673 -0.04662 0.50009
 O158 O 0.89493 -0.04667 0.49500
 O159 O 0.95673 -0.10844 0.50517
 Zr160 Zr 0.95826 0.05270 0.50005
 O161 O 0.89637 0.05339 0.49553
 O162 O 0.95913 0.11457 0.50435
 Zr163 Zr 1.00676 0.00230 0.55836
 Zr164 Zr 1.00709 0.00202 0.44219
 O165 O 0.95034 0.00308 0.46626
 O166 O 0.94965 0.00325 0.53480
 O167 O 1.00622 -0.05518 0.46539
 O168 O 1.00779 0.05898 0.53419
 O169 O 1.00598 -0.05448 0.53431
 O170 O 1.00800 0.05934 0.46529
 H171 H 1.08676 0.00077 0.44884
 H172 H 1.00806 0.08198 0.55190
 H173 H 0.92729 0.00338 0.44861
 H174 H 1.00542 -0.07737 0.55211
 H175 H 1.04199 0.12340 0.48420
 H176 H 0.97537 0.12455 0.48258
 H177 H 0.88582 0.03893 0.51827
 H178 H 0.88470 -0.02781 0.51446
 H179 H 0.97173 -0.11908 0.48281
 H180 H 1.03887 -0.12002 0.48221
 H181 H 1.12788 -0.03409 0.51973
 H182 H 1.12916 0.03307 0.51751
 C183 C 1.13688 0.13581 0.28091
 N184 N 1.15159 0.11378 0.25128
 N185 N 1.16778 0.13074 0.22019
 C186 C 1.16934 0.17037 0.21735
 N187 N 1.15442 0.19244 0.24691
 N188 N 1.13871 0.17545 0.27827
 C189 C 1.11867 0.11689 0.31481
 N190 N 1.11584 0.13582 0.34967
 N191 N 1.09934 0.11833 0.38037
 C192 C 1.08462 0.08153 0.37707
 N193 N 1.08725 0.06276 0.34214
 N194 N 1.10423 0.08002 0.31165
 C195 C 0.87296 -0.13004 0.28181
 N196 N 0.86835 -0.16950 0.28057
 N197 N 0.85063 -0.18644 0.25023
 C198 C 0.83640 -0.16451 0.22028
 N199 N 0.84078 -0.12500 0.22166
 N200 N 0.85899 -0.10810 0.25176
 C201 C 0.89266 -0.11144 0.31510
 N202 N 0.90882 -0.07534 0.31137
 N203 N 0.92686 -0.05847 0.34157
 C204 C 0.92892 -0.07688 0.37671
 N205 N 0.91254 -0.11289 0.38052
 N206 N 0.89497 -0.12999 0.35015
 C207 C 0.86832 0.13088 0.71777
 N208 N 0.86332 0.17029 0.71907
 N209 N 0.84550 0.18706 0.74943
 C210 C 0.83157 0.16497 0.77936
 N211 N 0.83631 0.12549 0.77791
 N212 N 0.85462 0.10877 0.74778
 C213 C 0.88833 0.11255 0.68455
 N214 N 0.90511 0.07669 0.68829
 N215 N 0.92376 0.06028 0.65822
 C216 C 0.92580 0.07891 0.62321
 N217 N 0.90875 0.11463 0.61937
 N218 N 0.89057 0.13128 0.64960
 C219 C 1.13673 -0.13115 0.72039
 N220 N 1.13829 -0.17085 0.72222
 N221 N 1.15327 -0.18866 0.75353
 C222 C 1.16770 -0.16737 0.78386
 N223 N 1.16642 -0.12766 0.78187
 N224 N 1.15094 -0.10988 0.75081
 C225 C 1.11934 -0.11152 0.68642
 N226 N 1.10461 -0.07472 0.68981
 N227 N 1.08791 -0.05717 0.65925
 C228 C 1.08592 -0.07554 0.62406
 N229 N 1.10101 -0.11219 0.62055
 N230 N 1.11720 -0.12997 0.65127
 C231 C 0.28197 1.13622 1.13040
 N232 N 0.28060 1.14046 1.16988
 N233 N 0.24983 1.15738 1.18692
 C234 C 0.21962 1.17120 1.16504
 N235 N 0.22117 1.16730 1.12552
 N236 N 0.25169 1.14988 1.10853
 C237 C 0.31530 1.11658 1.11177
 N238 N 0.31134 1.09976 1.07598
 N239 N 0.34140 1.08119 1.05938
 C240 C 0.37662 1.07925 1.07778
 N241 N 0.38067 1.09635 1.11343
 N242 N 0.35045 1.11444 1.13026
 C243 C 0.28108 0.86210 0.87172
 N244 N 0.27929 0.85922 0.83215
 N245 N 0.24809 0.84348 0.81478
 C246 C 0.21781 0.82952 0.83640
 N247 N 0.21979 0.83201 0.87601
 N248 N 0.25076 0.84826 0.89335
 C249 C 0.31480 0.88075 0.89072
 N250 N 0.31123 0.89679 0.92690
 N251 N 0.34151 0.91481 0.94368
 C252 C 0.37659 0.91696 0.92509
 N253 N 0.38027 0.90057 0.88908
 N254 N 0.34983 0.88304 0.87206
 C255 C 0.72054 0.86928 1.13568
 N256 N 0.71860 0.83171 1.14854
 N257 N 0.74962 0.81481 1.16522
 C258 C 0.78354 0.83503 1.16998
 N259 N 0.78541 0.87263 1.15724
 N260 N 0.75453 0.88939 1.14024
 C261 C 0.68664 0.88786 1.11682
 N262 N 0.69111 0.92153 1.09621
 N263 N 0.66053 0.93827 1.07867
 C264 C 0.62428 0.92219 1.08143
 N265 N 0.61973 0.88865 1.10226
 N266 N 0.65041 0.87169 1.11950
 C267 C 0.71738 1.12965 0.86517
 N268 N 0.71439 1.16691 0.85162
 N269 N 0.74487 1.18424 0.83454
 C270 C 0.77928 1.16475 0.83007
 N271 N 0.78222 1.12747 0.84352
 N272 N 0.75187 1.11028 0.86090
 C273 C 0.68406 1.11063 0.88441
 N274 N 0.68937 1.07728 0.90534
 N275 N 0.65926 1.06014 0.92318
 C276 C 0.62267 1.07553 0.92040
 N277 N 0.61730 1.10876 0.89927
 N278 N 0.64749 1.12611 0.88172
 C279 C 0.13089 0.28274 0.13030
 N280 N 0.17057 0.28114 0.13249
 N281 N 0.18832 0.25087 0.14958
 C282 C 0.16697 0.22144 0.16563
 N283 N 0.12726 0.22323 0.16373
 N284 N 0.10955 0.25322 0.14615
 C285 C 0.11134 0.31567 0.11088
 N286 N 0.07447 0.31161 0.09651
 N287 N 0.05672 0.34144 0.07870
 C288 C 0.07501 0.37654 0.07509
 N289 N 0.11179 0.38068 0.08967
 N290 N 0.12976 0.35067 0.10699
 C291 C -0.13877 0.28111 -0.13549
 N292 N -0.11578 0.25253 -0.15080
 N293 N -0.13167 0.22163 -0.16846
 C294 C -0.17118 0.21791 -0.17109
 N295 N -0.19426 0.24646 -0.15563
 N296 N -0.17831 0.27769 -0.13842
 C297 C -0.12086 0.31451 -0.11535
 N298 N -0.14009 0.34920 -0.11197
 N299 N -0.12317 0.37956 -0.09415
 C300 C -0.08671 0.37604 -0.07856
 N301 N -0.06770 0.34126 -0.08164
 N302 N -0.08436 0.31113 -0.09993
 C303 C 0.12733 0.71768 -0.13391
 N304 N 0.16705 0.71888 -0.13580
 N305 N 0.18521 0.74973 -0.15125
 C306 C 0.16426 0.78023 -0.16588
 N307 N 0.12452 0.77887 -0.16428
 N308 N 0.10639 0.74827 -0.14831
 C309 C 0.10739 0.68412 -0.11608
 N310 N 0.07084 0.68812 -0.10092
 N311 N 0.05310 0.65789 -0.08385
 C312 C 0.07103 0.62243 -0.08187
 N313 N 0.10742 0.61833 -0.09738
 N314 N 0.12539 0.64870 -0.11394
 C315 C -0.13363 0.71866 0.13624
 N316 N -0.11072 0.74775 0.15064
 N317 N -0.12670 0.77884 0.16792
 C318 C -0.16622 0.78227 0.17104
 N319 N -0.18920 0.75322 0.15648
 N320 N -0.17316 0.72180 0.13966
 C321 C -0.11576 0.68497 0.11646
 N322 N -0.13498 0.65027 0.11380
 N323 N -0.11844 0.61977 0.09584
 C324 C -0.08237 0.62312 0.07942
 N325 N -0.06331 0.65790 0.08186
 N326 N -0.07959 0.68819 0.10030
 C327 C 1.13771 0.13722 0.71928
 N328 N 1.17680 0.13514 0.72620
 N329 N 1.19210 0.15097 0.75846
 C330 C 1.16912 0.17006 0.78495
 N331 N 1.13006 0.17282 0.77713
 N332 N 1.11466 0.15650 0.74523
 C333 C 1.12009 0.11730 0.68547
 N334 N 1.08258 0.10429 0.68741
 N335 N 1.06645 0.08551 0.65728
 C336 C 1.08704 0.07947 0.62386
 N337 N 1.12451 0.09273 0.62173
 N338 N 1.14088 0.11098 0.65217
 C339 C 0.86818 -0.12942 0.71586
 N340 N 0.82849 -0.13106 0.71826
 N341 N 0.81118 -0.14852 0.74854
 C342 C 0.83298 -0.16558 0.77713
 N343 N 0.87266 -0.16422 0.77446
 N344 N 0.88992 -0.14629 0.74451
 C345 C 0.88750 -0.10935 0.68320
 N346 N 0.92450 -0.09538 0.68736
 N347 N 0.94232 -0.07733 0.65779
 C348 C 0.92397 -0.07305 0.62281
 N349 N 0.88701 -0.08716 0.61857
 N350 N 0.86896 -0.10472 0.64834
 C351 C 1.13381 -0.13441 0.28004
 N352 N 1.11356 -0.13747 0.24597
 N353 N 1.12962 -0.15460 0.21485
 C354 C 1.16667 -0.16898 0.21651
 N355 N 1.18708 -0.16571 0.25048
 N356 N 1.17087 -0.14886 0.28176
 C357 C 1.11578 -0.11550 0.31419
 N358 N 1.13179 -0.11914 0.35042
 N359 N 1.11513 -0.10189 0.38125
 C360 C 1.08206 -0.08015 0.37685
 N361 N 1.06618 -0.07647 0.34062
 N362 N 1.08260 -0.09399 0.30991
 C363 C 0.87233 0.13365 0.28186
 N364 N 0.86742 0.17305 0.27994
 N365 N 0.84892 0.18923 0.24966
 C366 C 0.83419 0.16659 0.22045
 N367 N 0.83884 0.12713 0.22254
 N368 N 0.85781 0.11098 0.25258
 C369 C 0.89295 0.11582 0.31505
 N370 N 0.90909 0.07964 0.31164
 N371 N 0.92774 0.06335 0.34176
 C372 C 0.93050 0.08243 0.37653
 N373 N 0.91419 0.11855 0.38003
 N374 N 0.89600 0.13508 0.34971
 C375 C 0.12864 0.27792 -0.12874
 N376 N 0.12840 0.27330 -0.16814
 N377 N 0.14573 0.24243 -0.18461
 C378 C 0.16466 0.21510 -0.16251
 N379 N 0.16470 0.22001 -0.12295
 N380 N 0.14682 0.25054 -0.10641
 C381 C 0.10973 0.31206 -0.11057
 N382 N 0.09591 0.31004 -0.07341
 N383 N 0.07838 0.34086 -0.05705
 C384 C 0.07467 0.37506 -0.07699
 N385 N 0.08885 0.37723 -0.11402
 N386 N 0.10582 0.34619 -0.13062
 C387 C -0.13778 0.28164 0.13364
 N388 N -0.17728 0.27809 0.13699
 N389 N -0.19289 0.24700 0.15469
 C390 C -0.16952 0.21873 0.17021
 N391 N -0.13006 0.22259 0.16713
 N392 N -0.11450 0.25334 0.14900
 C393 C -0.12019 0.31495 0.11310
 N394 N -0.08372 0.31166 0.09766
 N395 N -0.06729 0.34171 0.07913
 C396 C -0.08652 0.37635 0.07579
 N397 N -0.12297 0.37979 0.09139
 N398 N -0.13965 0.34949 0.10947
 C399 C -0.13421 0.72015 -0.13634
 N400 N -0.14848 0.75006 -0.11433
 N401 N -0.16499 0.78111 -0.13124
 C402 C -0.16728 0.78369 -0.17083
 N403 N -0.15278 0.75385 -0.19284
 N404 N -0.13674 0.72254 -0.17590
 C405 C -0.11607 0.68603 -0.11752
 N406 N -0.11357 0.65109 -0.13645
 N407 N -0.09729 0.62014 -0.11902
 C408 C -0.08248 0.62324 -0.08226
 N409 N -0.08478 0.65824 -0.06349
 N410 N -0.10151 0.68898 -0.08068
 C411 C 0.12709 0.71825 0.13082
 N412 N 0.10622 0.74933 0.14428
 N413 N 0.12431 0.77955 0.16112
 C414 C 0.16397 0.78005 0.16455
 N415 N 0.18482 0.74907 0.15078
 N416 N 0.16670 0.71862 0.13444
 C417 C 0.10725 0.68475 0.11266
 N418 N 0.12501 0.64917 0.11123
 N419 N 0.10712 0.61872 0.09462
 C420 C 0.07105 0.62290 0.07839
 N421 N 0.05335 0.65852 0.07966
 N422 N 0.07101 0.68884 0.09677
 C423 C 0.28008 1.13313 0.87183
 N424 N 0.26019 1.16217 0.89018
 N425 N 0.22943 1.17905 0.87306
 C426 C 0.21651 1.16721 0.83719
 N427 N 0.23673 1.13781 0.81922
 N428 N 0.26798 1.12141 0.83592
 C429 C 0.31385 1.11441 0.89065
 N430 N 0.34559 1.10367 0.86923
 N431 N 0.37625 1.08654 0.88632
 C432 C 0.37590 1.07884 0.92528
 N433 N 0.34402 1.08925 0.94664
 N434 N 0.31369 1.10709 0.92968
 C435 C 0.28199 0.86131 1.13115
 N436 N 0.27922 0.85919 1.17074
 N437 N 0.24782 0.84320 1.18755
 C438 C 0.21840 0.82818 1.16533
 N439 N 0.22146 0.82998 1.12576
 N440 N 0.25253 0.84646 1.10899
 C441 C 0.31563 0.88036 1.11243
 N442 N 0.31204 0.89589 1.07606
 N443 N 0.34220 0.91391 1.05916
 C444 C 0.37724 0.91650 1.07779
 N445 N 0.38097 0.90065 1.11404
 N446 N 0.35061 0.88314 1.13119
 C447 C 0.71867 1.12976 1.13639
 N448 N 0.75326 1.11052 1.14045
 N449 N 0.78382 1.12797 1.15732
 C450 C 0.78101 1.16542 1.17044
 N451 N 0.74649 1.18477 1.16619
 N452 N 0.71580 1.16718 1.14963
 C453 C 0.68511 1.11051 1.11757
 N454 N 0.64853 1.12590 1.12059
 N455 N 0.61817 1.10845 1.10331
 C456 C 0.62336 1.07519 1.08210
 N457 N 0.65995 1.05987 1.07900
 N458 N 0.69024 1.07710 1.09658
 C459 C 0.71951 0.87098 0.86346
 N460 N 0.75403 0.86722 0.88284
 N461 N 0.78460 0.84989 0.86587
 C462 C 0.78187 0.83594 0.82877
 N463 N 0.74745 0.83998 0.80920
 N464 N 0.71675 0.85704 0.82631
 C465 C 0.68578 0.88960 0.88267
 N466 N 0.64922 0.88670 0.86720
 N467 N 0.61865 0.90306 0.88523
 C468 C 0.62363 0.92314 0.91921
 N469 N 0.66022 0.92620 0.93450
 N470 N 0.69069 0.90959 0.91666
   
