data_POSCAR
  _audit_creation_date              2014-09-24
  _audit_creation_method            'ToBaCCo'
  _symmetry_space_group_name_H-M    'P1'
  _symmetry_Int_Tables_number       1
  _symmetry_cell_setting            triclinic
  loop_
  _symmetry_equiv_pos_as_xyz
 x,y,z
_cell_length_a 61.0874
_cell_length_b 61.0941
_cell_length_c 47.7180
_cell_angle_alpha 89.969900
_cell_angle_beta 90.009200
_cell_angle_gamma 90.688100
loop_
  _atom_site_label
  _atom_site_type_symbol
  _atom_site_fract_x
  _atom_site_fract_y
  _atom_site_fract_z
O1 O -0.02071 0.29516 0.02990
 O2 O 0.02451 0.29637 -0.02154
 O3 O -0.01845 0.29578 -0.02469
 O4 O 0.02193 0.29565 0.03287
 O5 O 0.02181 0.25955 0.03210
 O6 O -0.01829 0.25969 -0.02523
 O7 O 0.02435 0.26031 -0.02202
 O8 O -0.02052 0.25907 0.02912
 Cu9 Cu 0.00178 0.29937 0.00410
 Cu10 Cu 0.00181 0.25607 0.00332
 C11 C -0.02828 0.27685 0.03837
 C12 C 0.03244 0.27846 -0.03026
 C13 C -0.02545 0.27770 -0.03461
 C14 C 0.02882 0.27751 0.04226
 O15 O 0.52475 0.81266 0.46568
 O16 O 0.48089 0.81297 0.51889
 O17 O 0.52395 0.81466 0.51994
 O18 O 0.48191 0.81048 0.46441
 O19 O 0.48317 0.77448 0.46715
 O20 O 0.52475 0.77861 0.52236
 O21 O 0.48222 0.77696 0.52140
 O22 O 0.52560 0.77662 0.46813
 Cu23 Cu 0.50272 0.81633 0.49203
 Cu24 Cu 0.50403 0.77309 0.49504
 C25 C 0.53276 0.79454 0.45796
 C26 C 0.47395 0.79496 0.52909
 C27 C 0.53172 0.79724 0.53037
 C28 C 0.47531 0.79168 0.45638
 O29 O 0.97961 0.70518 -0.03521
 O30 O 1.02343 0.70157 0.01778
 O31 O 0.98058 0.70298 0.01936
 O32 O 1.02237 0.70412 -0.03657
 O33 O 1.02373 0.74012 -0.03392
 O34 O 0.98211 0.73902 0.02155
 O35 O 1.02465 0.73761 0.02040
 O36 O 0.98127 0.74117 -0.03278
 Cu37 Cu 1.00132 0.69984 -0.00888
 Cu38 Cu 1.00309 0.74306 -0.00591
 C39 C 0.97289 0.72382 -0.04310
 C40 C 1.03163 0.71903 0.02803
 C41 C 0.97410 0.72088 0.02989
 C42 C 1.03033 0.72238 -0.04473
 O43 O 0.52218 0.18666 0.53163
 O44 O 0.47889 0.18603 0.47767
 O45 O 0.52207 0.18584 0.47739
 O46 O 0.47937 0.18742 0.53232
 O47 O 0.48025 0.22349 0.53069
 O48 O 0.52264 0.22194 0.47654
 O49 O 0.47999 0.22211 0.47633
 O50 O 0.52260 0.22277 0.53061
 Cu51 Cu 0.50047 0.18283 0.50477
 Cu52 Cu 0.50139 0.22616 0.50333
 C53 C 0.52989 0.20487 0.54019
 C54 C 0.47192 0.20401 0.46794
 C55 C 0.53001 0.20376 0.46809
 C56 C 0.47254 0.20583 0.54088
 O57 O 0.68341 0.02242 -0.02369
 O58 O 0.68548 -0.02296 0.02764
 O59 O 0.68422 0.02008 0.03068
 O60 O 0.68418 -0.02053 -0.02655
 O61 O 0.72028 -0.01899 -0.02760
 O62 O 0.72031 0.02120 0.02956
 O63 O 0.72152 -0.02133 0.02636
 O64 O 0.71952 0.02337 -0.02471
 Cu65 Cu 0.68068 -0.00034 0.00218
 Cu66 Cu 0.72399 0.00124 0.00086
 C67 C 0.70123 0.03068 -0.03286
 C68 C 0.70398 -0.03023 0.03534
 C69 C 0.70232 0.02777 0.03966
 C70 C 0.70229 -0.02690 -0.03661
 O71 O 0.19839 0.51979 0.47754
 O72 O 0.19974 0.47491 0.52913
 O73 O 0.20007 0.51780 0.53198
 O74 O 0.19956 0.47695 0.47468
 O75 O 0.23565 0.47821 0.47376
 O76 O 0.23617 0.51820 0.53088
 O77 O 0.23583 0.47564 0.52785
 O78 O 0.23450 0.52058 0.47658
 Cu79 Cu 0.19580 0.49730 0.50345
 Cu80 Cu 0.23912 0.49828 0.50222
 C81 C 0.21622 0.52794 0.46833
 C82 C 0.21803 0.46739 0.53703
 C83 C 0.21834 0.52507 0.54107
 C84 C 0.21765 0.47051 0.46458
 O85 O 0.30649 1.02233 0.02832
 O86 O 0.30840 0.97661 -0.02202
 O87 O 0.30676 1.01936 -0.02604
 O88 O 0.30683 0.97952 0.03241
 O89 O 0.27074 0.97862 0.03132
 O90 O 0.27072 1.01763 -0.02688
 O91 O 0.27231 0.97539 -0.02293
 O92 O 0.27044 1.02107 0.02710
 Cu93 Cu 0.31076 0.99956 0.00329
 Cu94 Cu 0.26748 0.99800 0.00211
 C95 C 0.28811 1.02977 0.03606
 C96 C 0.29066 0.96816 -0.03105
 C97 C 0.28859 1.02546 -0.03633
 C98 C 0.28866 0.97219 0.04174
 O99 O 0.79307 0.47987 0.47461
 O100 O 0.79275 0.52361 0.52791
 O101 O 0.79296 0.48084 0.52925
 O102 O 0.79286 0.52259 0.47332
 O103 O 0.75676 0.52187 0.47328
 O104 O 0.75686 0.48036 0.52906
 O105 O 0.75664 0.52291 0.52769
 O106 O 0.75697 0.47933 0.47462
 Cu107 Cu 0.79654 0.50178 0.50130
 Cu108 Cu 0.75321 0.50105 0.50116
 C109 C 0.77503 0.47208 0.46554
 C110 C 0.77460 0.53081 0.53682
 C111 C 0.77488 0.47341 0.53866
 C112 C 0.77475 0.52942 0.46379
 C113 C 0.23153 0.22833 0.18842
 C114 C 0.25145 0.22029 0.19829
 C115 C 0.25972 0.22785 0.22401
 C116 C 0.24773 0.24262 0.24069
 C117 C 0.22723 0.24972 0.23064
 C118 C 0.21943 0.24319 0.20424
 C119 C 0.25661 0.25072 0.26822
 C120 C 0.24980 0.27089 0.27955
 C121 C 0.25770 0.27839 0.30549
 C122 C 0.27358 0.26622 0.31958
 C123 C 0.28120 0.24650 0.30847
 C124 C 0.27221 0.23856 0.28332
 H125 H 0.22497 0.22238 0.16871
 H126 H 0.27567 0.22230 0.23048
 H127 H 0.21718 0.26046 0.24302
 H128 H 0.23829 0.28097 0.26839
 H129 H 0.28065 0.27258 0.33879
 H130 H 0.27744 0.22275 0.27590
 C131 C 0.76866 0.76701 0.17485
 C132 C 0.74887 0.77494 0.18529
 C133 C 0.74103 0.76711 0.21108
 C134 C 0.75339 0.75250 0.22750
 C135 C 0.77362 0.74528 0.21676
 C136 C 0.78101 0.75198 0.19019
 C137 C 0.74527 0.74508 0.25571
 C138 C 0.75211 0.72509 0.26757
 C139 C 0.74478 0.71845 0.29419
 C140 C 0.72948 0.73124 0.30841
 C141 C 0.72188 0.75076 0.29679
 C142 C 0.73036 0.75792 0.27102
 H143 H 0.77497 0.77323 0.15513
 H144 H 0.72513 0.77250 0.21797
 H145 H 0.78380 0.73444 0.22885
 H146 H 0.76314 0.71453 0.25635
 H147 H 0.72280 0.72546 0.32814
 H148 H 0.72523 0.77366 0.26325
 C149 C 0.76728 0.22502 0.18946
 C150 C 0.78000 0.24083 0.20343
 C151 C 0.77337 0.24816 0.22997
 C152 C 0.75349 0.24076 0.24202
 C153 C 0.74071 0.22535 0.22698
 C154 C 0.74783 0.21690 0.20127
 C155 C 0.74620 0.24878 0.27022
 C156 C 0.73196 0.23592 0.28699
 C157 C 0.72435 0.24357 0.31287
 C158 C 0.73212 0.26371 0.32301
 C159 C 0.74673 0.27658 0.30727
 C160 C 0.75322 0.26935 0.28063
 H161 H 0.77305 0.21836 0.16980
 H162 H 0.78386 0.25961 0.24101
 H163 H 0.72503 0.21980 0.23493
 H164 H 0.72670 0.21980 0.28029
 H165 H 0.72605 0.26988 0.34279
 H166 H 0.76372 0.27991 0.26824
 C167 C 0.22985 0.76854 0.18473
 C168 C 0.22154 0.74861 0.19489
 C169 C 0.22998 0.73998 0.21990
 C170 C 0.24582 0.75166 0.23573
 C171 C 0.25320 0.77215 0.22542
 C172 C 0.24584 0.78029 0.19964
 C173 C 0.25455 0.74265 0.26283
 C174 C 0.27504 0.74976 0.27348
 C175 C 0.28282 0.74227 0.29940
 C176 C 0.27073 0.72639 0.31406
 C177 C 0.25082 0.71831 0.30352
 C178 C 0.24255 0.72690 0.27841
 H179 H 0.22325 0.77539 0.16560
 H180 H 0.22417 0.72403 0.22651
 H181 H 0.26478 0.78199 0.23716
 H182 H 0.28513 0.76125 0.26195
 H183 H 0.27728 0.71970 0.33331
 H184 H 0.22660 0.72129 0.27153
 C185 C 0.72777 0.27039 0.69078
 C186 C 0.71972 0.25062 0.70174
 C187 C 0.72814 0.24289 0.72717
 C188 C 0.74340 0.25538 0.74285
 C189 C 0.75073 0.27560 0.73168
 C190 C 0.74347 0.28283 0.70534
 C191 C 0.75146 0.24723 0.77065
 C192 C 0.77206 0.25383 0.78134
 C193 C 0.77952 0.24609 0.80734
 C194 C 0.76684 0.23065 0.82207
 C195 C 0.74659 0.22339 0.81163
 C196 C 0.73869 0.23235 0.78658
 H197 H 0.72117 0.27660 0.67129
 H198 H 0.72270 0.22696 0.73437
 H199 H 0.76212 0.28586 0.74320
 H200 H 0.78247 0.26495 0.76963
 H201 H 0.77322 0.22362 0.84120
 H202 H 0.72246 0.22755 0.77975
 C203 C 0.27621 0.73115 0.68206
 C204 C 0.28417 0.75117 0.69242
 C205 C 0.27558 0.75944 0.71750
 C206 C 0.26002 0.74735 0.73325
 C207 C 0.25285 0.72690 0.72269
 C208 C 0.26037 0.71904 0.69683
 C209 C 0.25149 0.75592 0.76060
 C210 C 0.23084 0.74908 0.77098
 C211 C 0.22322 0.75633 0.79708
 C212 C 0.23570 0.77160 0.81225
 C213 C 0.25582 0.77937 0.80200
 C214 C 0.26388 0.77105 0.77666
 H215 H 0.28295 0.72453 0.66290
 H216 H 0.28104 0.77545 0.72435
 H217 H 0.24134 0.71690 0.73436
 H218 H 0.22052 0.73803 0.75904
 H219 H 0.22926 0.77812 0.83165
 H220 H 0.27996 0.77637 0.76989
 C221 C 0.27073 0.26583 0.68720
 C222 C 0.25127 0.27426 0.69803
 C223 C 0.24343 0.26659 0.72395
 C224 C 0.25541 0.25127 0.73980
 C225 C 0.27549 0.24385 0.72878
 C226 C 0.28284 0.25049 0.70224
 C227 C 0.24713 0.24295 0.76756
 C228 C 0.25419 0.22262 0.77821
 C229 C 0.24752 0.21512 0.80468
 C230 C 0.23253 0.22740 0.82006
 C231 C 0.22447 0.24715 0.80960
 C232 C 0.23215 0.25509 0.78374
 H233 H 0.27697 0.27189 0.66735
 H234 H 0.22785 0.27253 0.73124
 H235 H 0.28560 0.23276 0.74056
 H236 H 0.26499 0.21240 0.76617
 H237 H 0.22646 0.22109 0.83985
 H238 H 0.22651 0.27087 0.77673
 C239 C 0.72940 0.73884 0.67943
 C240 C 0.74477 0.72640 0.69408
 C241 C 0.75247 0.73387 0.72017
 C242 C 0.74591 0.75427 0.73103
 C243 C 0.73105 0.76679 0.71519
 C244 C 0.72213 0.75884 0.69004
 C245 C 0.75412 0.76241 0.75885
 C246 C 0.74174 0.77740 0.77462
 C247 C 0.74956 0.78595 0.80003
 C248 C 0.76931 0.77823 0.81092
 C249 C 0.78162 0.76276 0.79629
 C250 C 0.77431 0.75542 0.76996
 H251 H 0.72240 0.73242 0.66021
 H252 H 0.76354 0.72362 0.73181
 H253 H 0.72623 0.78286 0.72215
 H254 H 0.72581 0.78252 0.76749
 H255 H 0.77559 0.78488 0.83042
 H256 H 0.78448 0.74424 0.75839
 C257 C 0.28513 0.08642 0.08702
 C258 C 0.30545 0.07747 0.07988
 C259 C 0.30651 0.05848 0.06356
 C260 C 0.28722 0.04798 0.05404
 C261 C 0.26690 0.05663 0.06209
 C262 C 0.26590 0.07558 0.07832
 C263 C 0.28380 0.10733 0.10273
 C264 C 0.26845 0.12309 0.09479
 C265 C 0.26646 0.14249 0.10990
 C266 C 0.27980 0.14668 0.13334
 C267 C 0.29545 0.13109 0.14105
 C268 C 0.29750 0.11163 0.12581
 C269 C 0.27632 0.16671 0.15032
 C270 C 0.27601 0.16566 0.17976
 C271 C 0.26929 0.18366 0.19557
 C272 C 0.26268 0.20298 0.18220
 C273 C 0.26442 0.20452 0.15293
 C274 C 0.27123 0.18661 0.13716
 H275 H 0.32055 0.08553 0.08621
 H276 H 0.32248 0.05234 0.05794
 H277 H 0.25165 0.04901 0.05549
 H278 H 0.24999 0.08184 0.08398
 H279 H 0.25789 0.12040 0.07685
 H280 H 0.25400 0.15397 0.10364
 H281 H 0.30604 0.13391 0.15892
 H282 H 0.30942 0.09973 0.13247
 H283 H 0.27969 0.15054 0.19052
 H284 H 0.26794 0.18201 0.21810
 H285 H 0.25973 0.21936 0.14216
 H286 H 0.27181 0.18809 0.11456
 C287 C 0.77321 0.58457 0.59516
 C288 C 0.79328 0.57653 0.58538
 C289 C 0.79380 0.55880 0.56686
 C290 C 0.77425 0.54878 0.55765
 C291 C 0.75422 0.55655 0.56789
 C292 C 0.75371 0.57422 0.58642
 C293 C 0.77240 0.60437 0.61318
 C294 C 0.75715 0.60578 0.63514
 C295 C 0.75490 0.62523 0.65025
 C296 C 0.76784 0.64370 0.64369
 C297 C 0.78371 0.64200 0.62250
 C298 C 0.78598 0.62256 0.60742
 C299 C 0.76365 0.66507 0.65740
 C300 C 0.76322 0.68430 0.64126
 C301 C 0.75760 0.70422 0.65341
 C302 C 0.75230 0.70542 0.68200
 C303 C 0.75335 0.68636 0.69841
 C304 C 0.75890 0.66634 0.68619
 H305 H 0.80859 0.58403 0.59197
 H306 H 0.80951 0.55316 0.55944
 H307 H 0.73886 0.54922 0.56122
 H308 H 0.73797 0.58021 0.59322
 H309 H 0.74665 0.59195 0.64031
 H310 H 0.74242 0.62606 0.66631
 H311 H 0.79410 0.65588 0.61720
 H312 H 0.79778 0.62206 0.59052
 H313 H 0.76652 0.68384 0.61897
 H314 H 0.75713 0.71870 0.64033
 H315 H 0.74923 0.68680 0.72047
 H316 H 0.75927 0.65182 0.69919
 C317 C 0.70855 0.91175 0.08340
 C318 C 0.72742 0.92365 0.07576
 C319 C 0.72582 0.94316 0.06079
 C320 C 0.70525 0.95136 0.05296
 C321 C 0.68628 0.93994 0.06178
 C322 C 0.68793 0.92033 0.07686
 C323 C 0.71069 0.89010 0.09720
 C324 C 0.69740 0.88409 0.12006
 C325 C 0.70053 0.86409 0.13379
 C326 C 0.71686 0.84966 0.12475
 C327 C 0.72967 0.85548 0.10139
 C328 C 0.72660 0.87541 0.08778
 C329 C 0.72170 0.82926 0.14044
 C330 C 0.72778 0.81018 0.12608
 C331 C 0.73557 0.79206 0.14072
 C332 C 0.73734 0.79259 0.17006
 C333 C 0.72998 0.81112 0.18455
 C334 C 0.72226 0.82929 0.16989
 H335 H 0.74352 0.91771 0.08111
 H336 H 0.74086 0.95150 0.05481
 H337 H 0.67014 0.94573 0.05632
 H338 H 0.67311 0.91148 0.08250
 H339 H 0.68504 0.89511 0.12778
 H340 H 0.69030 0.85999 0.15161
 H341 H 0.74259 0.84493 0.09410
 H342 H 0.73684 0.87942 0.06994
 H343 H 0.72709 0.80948 0.10342
 H344 H 0.74079 0.77785 0.12906
 H345 H 0.73134 0.81205 0.20715
 H346 H 0.71790 0.84379 0.18156
 C347 C 0.22020 0.41015 0.58954
 C348 C 0.23961 0.42056 0.58058
 C349 C 0.23887 0.43948 0.56421
 C350 C 0.21870 0.44844 0.55637
 C351 C 0.19926 0.43842 0.56607
 C352 C 0.20002 0.41949 0.58255
 C353 C 0.22118 0.38917 0.60517
 C354 C 0.20762 0.38513 0.62846
 C355 C 0.20923 0.36550 0.64347
 C356 C 0.22427 0.34947 0.63527
 C357 C 0.23750 0.35343 0.61167
 C358 C 0.23597 0.37301 0.59682
 C359 C 0.22722 0.32914 0.65185
 C360 C 0.23125 0.30920 0.63822
 C361 C 0.23770 0.29088 0.65347
 C362 C 0.24015 0.29206 0.68269
 C363 C 0.23453 0.31146 0.69658
 C364 C 0.22814 0.32987 0.68128
 H365 H 0.25541 0.41396 0.58607
 H366 H 0.25414 0.44683 0.55725
 H367 H 0.18346 0.44493 0.56040
 H368 H 0.18481 0.41175 0.58905
 H369 H 0.19613 0.39734 0.63541
 H370 H 0.19877 0.36287 0.66150
 H371 H 0.24949 0.34160 0.60506
 H372 H 0.24640 0.37551 0.57873
 H373 H 0.23017 0.30799 0.61562
 H374 H 0.24162 0.27599 0.64232
 H375 H 0.23644 0.31283 0.71908
 H376 H 0.22525 0.34502 0.69237
 C377 C 0.91829 0.27404 0.09725
 C378 C 0.92606 0.29432 0.08718
 C379 C 0.94358 0.29533 0.06831
 C380 C 0.95362 0.27605 0.05902
 C381 C 0.94597 0.25581 0.06934
 C382 C 0.92855 0.25482 0.08823
 C383 C 0.89900 0.27267 0.11614
 C384 C 0.89840 0.25749 0.13830
 C385 C 0.87945 0.25466 0.15435
 C386 C 0.86066 0.26691 0.14858
 C387 C 0.86155 0.28272 0.12716
 C388 C 0.88053 0.28558 0.11114
 C389 C 0.83978 0.26206 0.16342
 C390 C 0.82006 0.26086 0.14832
 C391 C 0.80064 0.25449 0.16155
 C392 C 0.80044 0.24918 0.19019
 C393 C 0.81999 0.25102 0.20557
 C394 C 0.83950 0.25734 0.19228
 H395 H 0.91860 0.30942 0.09394
 H396 H 0.94913 0.31118 0.06080
 H397 H 0.95331 0.24065 0.06262
 H398 H 0.92273 0.23892 0.09523
 H399 H 0.91249 0.24752 0.14290
 H400 H 0.87923 0.24224 0.17055
 H401 H 0.84742 0.29259 0.12245
 H402 H 0.88043 0.29731 0.09412
 H403 H 0.81975 0.26413 0.12602
 H404 H 0.78575 0.25343 0.14926
 H405 H 0.82034 0.24691 0.22764
 H406 H 0.85442 0.25830 0.20450
 C407 C 0.41935 0.79314 0.58609
 C408 C 0.42506 0.81267 0.57219
 C409 C 0.44318 0.81350 0.55424
 C410 C 0.45577 0.79473 0.54961
 C411 C 0.45023 0.77532 0.56388
 C412 C 0.43228 0.77455 0.58197
 C413 C 0.39946 0.79165 0.60388
 C414 C 0.39987 0.78011 0.62933
 C415 C 0.38069 0.77677 0.64474
 C416 C 0.36062 0.78483 0.63499
 C417 C 0.36033 0.79706 0.61003
 C418 C 0.37958 0.80050 0.59468
 C419 C 0.33996 0.77902 0.64978
 C420 C 0.32150 0.77195 0.63453
 C421 C 0.30297 0.76380 0.64839
 C422 C 0.30246 0.76262 0.67780
 C423 C 0.32048 0.77072 0.69308
 C424 C 0.33906 0.77879 0.67921
 H425 H 0.41546 0.82728 0.57515
 H426 H 0.44702 0.82869 0.54351
 H427 H 0.45960 0.76058 0.56079
 H428 H 0.42812 0.75919 0.59209
 H429 H 0.41500 0.77329 0.63707
 H430 H 0.38142 0.76710 0.66374
 H431 H 0.34514 0.80362 0.60213
 H432 H 0.37874 0.80935 0.57504
 H433 H 0.32175 0.77176 0.61185
 H434 H 0.28923 0.75788 0.63609
 H435 H 0.32062 0.76989 0.71575
 H436 H 0.35294 0.78435 0.69151
 C437 C 0.08571 0.71636 0.08578
 C438 C 0.07446 0.73599 0.08138
 C439 C 0.05673 0.73674 0.06296
 C440 C 0.04972 0.71784 0.04862
 C441 C 0.06066 0.69807 0.05345
 C442 C 0.07856 0.69736 0.07174
 C443 C 0.10536 0.71610 0.10407
 C444 C 0.12453 0.70560 0.09532
 C445 C 0.14373 0.70733 0.11119
 C446 C 0.14410 0.71945 0.13623
 C447 C 0.12466 0.72913 0.14554
 C448 C 0.10552 0.72752 0.12961
 C449 C 0.16495 0.72362 0.15141
 C450 C 0.16558 0.72371 0.18087
 C451 C 0.18447 0.73061 0.19507
 C452 C 0.20303 0.73772 0.18008
 C453 C 0.20279 0.73651 0.15068
 C454 C 0.18397 0.72948 0.13650
 H455 H 0.07978 0.75095 0.09162
 H456 H 0.04866 0.75223 0.05971
 H457 H 0.05566 0.68322 0.04270
 H458 H 0.08684 0.68198 0.07488
 H459 H 0.12492 0.69679 0.07565
 H460 H 0.15843 0.69956 0.10361
 H461 H 0.12446 0.73877 0.16458
 H462 H 0.09092 0.73558 0.13700
 H463 H 0.15124 0.71904 0.19291
 H464 H 0.18416 0.73150 0.21773
 H465 H 0.21695 0.74171 0.13862
 H466 H 0.18396 0.72975 0.11381
 C467 C 0.58421 0.20743 0.59746
 C468 C 0.57180 0.22617 0.59209
 C469 C 0.55390 0.22520 0.57395
 C470 C 0.54788 0.20540 0.56093
 C471 C 0.55992 0.18648 0.56688
 C472 C 0.57801 0.18752 0.58485
 C473 C 0.60411 0.20907 0.61514
 C474 C 0.62382 0.19965 0.60633
 C475 C 0.64314 0.20327 0.62144
 C476 C 0.64307 0.21621 0.64578
 C477 C 0.62316 0.22485 0.65519
 C478 C 0.60391 0.22137 0.63999
 C479 C 0.66380 0.22214 0.66024
 C480 C 0.66476 0.22298 0.68964
 C481 C 0.68339 0.23125 0.70315
 C482 C 0.70140 0.23895 0.68752
 C483 C 0.70085 0.23714 0.65818
 C484 C 0.68225 0.22877 0.64468
 H485 H 0.57636 0.24179 0.60125
 H486 H 0.54495 0.24005 0.56981
 H487 H 0.55570 0.17101 0.55710
 H488 H 0.58723 0.17280 0.58879
 H489 H 0.62447 0.19023 0.58714
 H490 H 0.65823 0.19627 0.61384
 H491 H 0.62262 0.23508 0.67369
 H492 H 0.58890 0.22865 0.64738
 H493 H 0.65087 0.21776 0.70217
 H494 H 0.68328 0.23258 0.72578
 H495 H 0.71459 0.24275 0.64564
 H496 H 0.68194 0.22847 0.62199
 C497 C 0.70206 0.08667 0.91245
 C498 C 0.72065 0.07358 0.91544
 C499 C 0.72015 0.05517 0.93273
 C500 C 0.70098 0.04929 0.94730
 C501 C 0.68215 0.06202 0.94377
 C502 C 0.68274 0.08065 0.92664
 C503 C 0.70342 0.10702 0.89555
 C504 C 0.69532 0.12682 0.90609
 C505 C 0.69906 0.14646 0.89167
 C506 C 0.71080 0.14665 0.86632
 C507 C 0.71800 0.12668 0.85522
 C508 C 0.71438 0.10711 0.86969
 C509 C 0.71704 0.16757 0.85245
 C510 C 0.71691 0.16933 0.82309
 C511 C 0.72558 0.18793 0.80991
 C512 C 0.73460 0.20519 0.82579
 C513 C 0.73372 0.20391 0.85518
 C514 C 0.72501 0.18531 0.86837
 H515 H 0.73585 0.07797 0.90507
 H516 H 0.73492 0.04570 0.93498
 H517 H 0.66717 0.05792 0.95481
 H518 H 0.66815 0.09042 0.92458
 H519 H 0.68693 0.12724 0.92607
 H520 H 0.69315 0.16157 0.90060
 H521 H 0.72729 0.12628 0.83590
 H522 H 0.72062 0.09206 0.86095
 H523 H 0.71064 0.15604 0.81028
 H524 H 0.72615 0.18833 0.78723
 H525 H 0.74032 0.21705 0.86797
 H526 H 0.72549 0.18439 0.89103
 C527 C 0.21558 0.58267 0.41150
 C528 C 0.23501 0.57125 0.41659
 C529 C 0.23513 0.55335 0.43478
 C530 C 0.21580 0.54635 0.44817
 C531 C 0.19626 0.55752 0.44269
 C532 C 0.19618 0.57559 0.42465
 C533 C 0.21591 0.60239 0.39335
 C534 C 0.20539 0.62162 0.40183
 C535 C 0.20757 0.64083 0.38607
 C536 C 0.22014 0.64113 0.36140
 C537 C 0.22988 0.62165 0.35234
 C538 C 0.22784 0.60251 0.36818
 C539 C 0.22470 0.66196 0.34636
 C540 C 0.22520 0.66261 0.31691
 C541 C 0.23248 0.68144 0.30290
 C542 C 0.23957 0.69991 0.31807
 C543 C 0.23796 0.69965 0.34744
 C544 C 0.23055 0.68090 0.36144
 H545 H 0.25026 0.57652 0.40703
 H546 H 0.25045 0.54510 0.43854
 H547 H 0.18109 0.55254 0.45271
 H548 H 0.18095 0.58402 0.42096
 H549 H 0.19620 0.62202 0.42122
 H550 H 0.19976 0.65557 0.39344
 H551 H 0.23986 0.62142 0.33360
 H552 H 0.23592 0.58786 0.36101
 H553 H 0.22056 0.64833 0.30476
 H554 H 0.23367 0.68115 0.28026
 H555 H 0.24315 0.71375 0.35962
 H556 H 0.23050 0.68085 0.38413
 C557 C 0.29174 0.91335 0.91234
 C558 C 0.27228 0.92477 0.91718
 C559 C 0.27201 0.94263 0.93539
 C560 C 0.29124 0.94961 0.94904
 C561 C 0.31081 0.93840 0.94389
 C562 C 0.31102 0.92035 0.92584
 C563 C 0.29155 0.89381 0.89392
 C564 C 0.30179 0.87442 0.90239
 C565 C 0.29965 0.85535 0.88635
 C566 C 0.28740 0.85537 0.86141
 C567 C 0.27797 0.87503 0.85238
 C568 C 0.27997 0.89401 0.86850
 C569 C 0.28276 0.83473 0.84602
 C570 C 0.28254 0.83435 0.81657
 C571 C 0.27502 0.81581 0.80218
 C572 C 0.26743 0.79733 0.81698
 C573 C 0.26883 0.79726 0.84637
 C574 C 0.27647 0.81574 0.86075
 H575 H 0.25711 0.91956 0.90734
 H576 H 0.25667 0.95092 0.93889
 H577 H 0.32588 0.94337 0.95413
 H578 H 0.32626 0.91190 0.92236
 H579 H 0.31072 0.87377 0.92198
 H580 H 0.30720 0.84047 0.89370
 H581 H 0.26823 0.87552 0.83343
 H582 H 0.27211 0.90879 0.86134
 H583 H 0.28753 0.84867 0.80469
 H584 H 0.27400 0.81636 0.77953
 H585 H 0.26328 0.78315 0.85827
 H586 H 0.27632 0.81557 0.88344
 C587 C 0.77447 0.41884 0.40635
 C588 C 0.75480 0.42797 0.41581
 C589 C 0.75503 0.44545 0.43465
 C590 C 0.77495 0.45423 0.44454
 C591 C 0.79465 0.44541 0.43468
 C592 C 0.79441 0.42788 0.41581
 C593 C 0.77401 0.39925 0.38789
 C594 C 0.78836 0.38185 0.39272
 C595 C 0.78642 0.36246 0.37734
 C596 C 0.77008 0.36003 0.35679
 C597 C 0.75637 0.37779 0.35108
 C598 C 0.75831 0.39719 0.36646
 C599 C 0.76614 0.33852 0.34305
 C600 C 0.76031 0.33713 0.31457
 C601 C 0.75470 0.31692 0.30255
 C602 C 0.75466 0.29777 0.31885
 C603 C 0.76117 0.29909 0.34704
 C604 C 0.76684 0.31920 0.35899
 H605 H 0.73916 0.42117 0.40930
 H606 H 0.73955 0.45183 0.44183
 H607 H 0.81027 0.45186 0.44180
 H608 H 0.80984 0.42136 0.40868
 H609 H 0.80053 0.38284 0.40918
 H610 H 0.79742 0.34916 0.38196
 H611 H 0.74351 0.37639 0.33554
 H612 H 0.74722 0.41043 0.36197
 H613 H 0.75981 0.35172 0.30170
 H614 H 0.74964 0.31639 0.28081
 H615 H 0.76151 0.28454 0.36001
 H616 H 0.77098 0.31970 0.38105
 C617 C 0.08921 0.27826 0.91876
 C618 C 0.07968 0.29816 0.92653
 C619 C 0.06059 0.29834 0.94281
 C620 C 0.05058 0.27856 0.95157
 C621 C 0.05977 0.25869 0.94269
 C622 C 0.07881 0.25857 0.92658
 C623 C 0.11035 0.27775 0.90346
 C624 C 0.12649 0.26285 0.91158
 C625 C 0.14607 0.26145 0.89675
 C626 C 0.15008 0.27492 0.87338
 C627 C 0.13413 0.29016 0.86551
 C628 C 0.11448 0.29165 0.88052
 C629 C 0.17031 0.27189 0.85660
 C630 C 0.16942 0.27127 0.82716
 C631 C 0.18762 0.26466 0.81162
 C632 C 0.20697 0.25849 0.82526
 C633 C 0.20835 0.26066 0.85450
 C634 C 0.19025 0.26735 0.86999
 H635 H 0.08739 0.31358 0.92082
 H636 H 0.05402 0.31398 0.94905
 H637 H 0.05254 0.24309 0.94865
 H638 H 0.08553 0.24298 0.92039
 H639 H 0.12390 0.25215 0.92941
 H640 H 0.15783 0.24929 0.90312
 H641 H 0.13681 0.30083 0.84767
 H642 H 0.10230 0.30326 0.87378
 H643 H 0.15427 0.27454 0.81623
 H644 H 0.18609 0.26299 0.78910
 H645 H 0.22321 0.25633 0.86548
 H646 H 0.19160 0.26817 0.89260
 C647 C 0.58718 0.79266 0.40087
 C648 C 0.57499 0.77359 0.40693
 C649 C 0.55711 0.77432 0.42509
 C650 C 0.55089 0.79417 0.43743
 C651 C 0.56274 0.81337 0.43085
 C652 C 0.58081 0.81259 0.41287
 C653 C 0.60698 0.79135 0.38303
 C654 C 0.62666 0.80156 0.39134
 C655 C 0.64591 0.79831 0.37611
 C656 C 0.64578 0.78495 0.35214
 C657 C 0.62588 0.77552 0.34320
 C658 C 0.60670 0.77864 0.35852
 C659 C 0.66647 0.77934 0.33769
 C660 C 0.66729 0.77793 0.30832
 C661 C 0.68581 0.76974 0.29494
 C662 C 0.70384 0.76267 0.31068
 C663 C 0.70347 0.76513 0.33995
 C664 C 0.68499 0.77343 0.35332
 H665 H 0.57969 0.75796 0.39826
 H666 H 0.54831 0.75926 0.42972
 H667 H 0.55835 0.82889 0.44009
 H668 H 0.58986 0.82753 0.40840
 H669 H 0.62736 0.81133 0.41026
 H670 H 0.66099 0.80589 0.38336
 H671 H 0.62530 0.76496 0.32499
 H672 H 0.59171 0.77075 0.35151
 H673 H 0.65334 0.78259 0.29574
 H674 H 0.68557 0.76790 0.27237
 H675 H 0.71723 0.76001 0.35256
 H676 H 0.68479 0.77418 0.37599
 C677 C 0.92073 0.72860 0.89868
 C678 C 0.92841 0.70802 0.90704
 C679 C 0.94586 0.70638 0.92589
 C680 C 0.95598 0.72533 0.93699
 C681 C 0.94847 0.74592 0.92812
 C682 C 0.93110 0.74751 0.90921
 C683 C 0.90131 0.73049 0.88013
 C684 C 0.90062 0.74659 0.85909
 C685 C 0.88157 0.74971 0.84343
 C686 C 0.86276 0.73686 0.84855
 C687 C 0.86372 0.72022 0.86885
 C688 C 0.88279 0.71704 0.88444
 C689 C 0.84180 0.74187 0.83430
 C690 C 0.82226 0.74234 0.84981
 C691 C 0.80272 0.74866 0.83721
 C692 C 0.80221 0.75461 0.80878
 C693 C 0.82157 0.75354 0.79298
 C694 C 0.84122 0.74733 0.80567
 H695 H 0.92087 0.69315 0.89904
 H696 H 0.95118 0.69022 0.93201
 H697 H 0.95576 0.76093 0.93606
 H698 H 0.92537 0.76360 0.90348
 H699 H 0.91473 0.75702 0.85507
 H700 H 0.88128 0.76276 0.82807
 H701 H 0.84955 0.70990 0.87305
 H702 H 0.88275 0.70461 0.90061
 H703 H 0.82220 0.73848 0.87196
 H704 H 0.78798 0.74914 0.84980
 H705 H 0.82164 0.75814 0.77106
 H706 H 0.85601 0.74697 0.79317
 C707 C 0.41734 0.20533 0.41095
 C708 C 0.42316 0.18570 0.42422
 C709 C 0.44132 0.18505 0.44209
 C710 C 0.45385 0.20408 0.44725
 C711 C 0.44825 0.22358 0.43353
 C712 C 0.43026 0.22418 0.41552
 C713 C 0.39730 0.20664 0.39349
 C714 C 0.39746 0.21867 0.36840
 C715 C 0.37811 0.22186 0.35342
 C716 C 0.35814 0.21317 0.36327
 C717 C 0.35810 0.20045 0.38783
 C718 C 0.37750 0.19714 0.40273
 C719 C 0.33733 0.21884 0.34908
 C720 C 0.31910 0.22525 0.36492
 C721 C 0.30044 0.23332 0.35170
 C722 C 0.29958 0.23507 0.32236
 C723 C 0.31735 0.22760 0.30646
 C724 C 0.33605 0.21962 0.31968
 H725 H 0.41357 0.17090 0.42091
 H726 H 0.44521 0.16978 0.45239
 H727 H 0.45757 0.23852 0.43704
 H728 H 0.42602 0.23961 0.40588
 H729 H 0.41251 0.22599 0.36064
 H730 H 0.37865 0.23192 0.33474
 H731 H 0.34299 0.19339 0.39578
 H732 H 0.37686 0.18792 0.42210
 H733 H 0.31963 0.22501 0.38760
 H734 H 0.28689 0.23876 0.36446
 H735 H 0.31721 0.22888 0.28382
 H736 H 0.34976 0.21456 0.30694
 C737 C 0.70477 0.92003 0.90440
 C738 C 0.68502 0.92507 0.91788
 C739 C 0.68392 0.94286 0.93628
 C740 C 0.70264 0.95578 0.94175
 C741 C 0.72222 0.95105 0.92768
 C742 C 0.72325 0.93343 0.90915
 C743 C 0.70665 0.90021 0.88667
 C744 C 0.71865 0.90096 0.86158
 C745 C 0.72250 0.88184 0.84643
 C746 C 0.71451 0.86153 0.85610
 C747 C 0.70182 0.86089 0.88065
 C748 C 0.69786 0.88006 0.89574
 C749 C 0.72082 0.84105 0.84164
 C750 C 0.72780 0.82288 0.85720
 C751 C 0.73631 0.80456 0.84369
 C752 C 0.73795 0.80400 0.81433
 C753 C 0.72999 0.82173 0.79873
 C754 C 0.72155 0.84007 0.81224
 H755 H 0.67049 0.91511 0.91442
 H756 H 0.66861 0.94608 0.94685
 H757 H 0.73692 0.96069 0.93143
 H758 H 0.73877 0.92979 0.89933
 H759 H 0.72545 0.91630 0.85397
 H760 H 0.73252 0.88285 0.82774
 H761 H 0.69529 0.84550 0.88845
 H762 H 0.68869 0.87897 0.91512
 H763 H 0.72761 0.82321 0.87989
 H764 H 0.74211 0.79103 0.85624
 H765 H 0.73119 0.82185 0.77608
 H766 H 0.71606 0.85373 0.79970
 C767 C 0.22016 0.41837 0.40406
 C768 C 0.20000 0.42454 0.41574
 C769 C 0.19896 0.44197 0.43474
 C770 C 0.21807 0.45347 0.44254
 C771 C 0.23807 0.44769 0.43018
 C772 C 0.23910 0.43039 0.41120
 C773 C 0.22191 0.39866 0.38602
 C774 C 0.23635 0.39849 0.36308
 C775 C 0.24013 0.37915 0.34832
 C776 C 0.22954 0.35953 0.35614
 C777 C 0.21430 0.35994 0.37821
 C778 C 0.21053 0.37928 0.39299
 C779 C 0.23549 0.33852 0.34263
 C780 C 0.23810 0.31959 0.35898
 C781 C 0.24504 0.30010 0.34680
 C782 C 0.24958 0.29904 0.31797
 C783 C 0.24661 0.31784 0.30147
 C784 C 0.23966 0.33738 0.31368
 H785 H 0.18509 0.41572 0.41043
 H786 H 0.18330 0.44605 0.44387
 H787 H 0.25311 0.45622 0.43568
 H788 H 0.25492 0.42588 0.40294
 H789 H 0.24514 0.41322 0.35696
 H790 H 0.25207 0.37938 0.33155
 H791 H 0.20562 0.34517 0.38446
 H792 H 0.19941 0.37882 0.41066
 H793 H 0.23534 0.31996 0.38138
 H794 H 0.24693 0.28581 0.36000
 H795 H 0.25013 0.31758 0.27924
 H796 H 0.23764 0.35164 0.30049
 C797 C 0.28602 0.07546 0.90229
 C798 C 0.30631 0.06845 0.91265
 C799 C 0.30733 0.05147 0.93234
 C800 C 0.28802 0.04127 0.94227
 C801 C 0.26781 0.04793 0.93110
 C802 C 0.26685 0.06477 0.91143
 C803 C 0.28445 0.09481 0.88359
 C804 C 0.26898 0.09520 0.86178
 C805 C 0.26525 0.11445 0.84681
 C806 C 0.27694 0.13374 0.85329
 C807 C 0.29326 0.13303 0.87405
 C808 C 0.29697 0.11377 0.88904
 C809 C 0.27089 0.15484 0.84008
 C810 C 0.26956 0.17389 0.85646
 C811 C 0.26228 0.19344 0.84480
 C812 C 0.25611 0.19444 0.81647
 C813 C 0.25787 0.17555 0.79986
 C814 C 0.26515 0.15593 0.81157
 H815 H 0.32137 0.07626 0.90577
 H816 H 0.32321 0.04676 0.94024
 H817 H 0.25254 0.04052 0.93801
 H818 H 0.25094 0.06998 0.90419
 H819 H 0.25929 0.08075 0.85684
 H820 H 0.25249 0.11448 0.83107
 H821 H 0.30277 0.14755 0.87921
 H822 H 0.30892 0.11404 0.90581
 H823 H 0.27354 0.17354 0.87857
 H824 H 0.26136 0.20780 0.85802
 H825 H 0.25311 0.17579 0.77801
 H826 H 0.26615 0.14157 0.79837
 C827 C 0.77364 0.58069 0.40180
 C828 C 0.79367 0.57293 0.41210
 C829 C 0.79410 0.55601 0.43186
 C830 C 0.77449 0.54653 0.44178
 C831 C 0.75450 0.55400 0.43104
 C832 C 0.75408 0.57087 0.41130
 C833 C 0.77293 0.59969 0.38238
 C834 C 0.75758 0.60031 0.36045
 C835 C 0.75540 0.61912 0.34404
 C836 C 0.76849 0.63775 0.34924
 C837 C 0.78448 0.63679 0.37038
 C838 C 0.78669 0.61798 0.38676
 C839 C 0.76429 0.65859 0.33423
 C840 C 0.76407 0.67841 0.34915
 C841 C 0.75830 0.69785 0.33587
 C842 C 0.75263 0.69798 0.30734
 C843 C 0.75353 0.67833 0.29211
 C844 C 0.75922 0.65879 0.30547
 H845 H 0.80901 0.58002 0.40496
 H846 H 0.80977 0.55057 0.43964
 H847 H 0.73910 0.54707 0.43824
 H848 H 0.73837 0.57668 0.40411
 H849 H 0.74696 0.58637 0.35631
 H850 H 0.74282 0.61939 0.32805
 H851 H 0.79500 0.65079 0.37465
 H852 H 0.79857 0.61810 0.40360
 H853 H 0.76761 0.67879 0.37138
 H854 H 0.75796 0.71280 0.34804
 H855 H 0.74913 0.67795 0.27013
 H856 H 0.75943 0.64380 0.29339
 C857 C 0.08151 0.72463 0.89540
 C858 C 0.07264 0.74400 0.90611
 C859 C 0.05552 0.74324 0.92545
 C860 C 0.04674 0.72304 0.93460
 C861 C 0.05523 0.70363 0.92319
 C862 C 0.07248 0.70444 0.90391
 C863 C 0.10096 0.72565 0.87679
 C864 C 0.11866 0.71160 0.88130
 C865 C 0.13806 0.71427 0.86610
 C866 C 0.14014 0.73100 0.84600
 C867 C 0.12206 0.74435 0.84052
 C868 C 0.10269 0.74173 0.85580
 C869 C 0.16158 0.73571 0.83255
 C870 C 0.16297 0.74141 0.80404
 C871 C 0.18309 0.74754 0.79218
 C872 C 0.20212 0.74827 0.80871
 C873 C 0.20079 0.74206 0.83700
 C874 C 0.18078 0.73581 0.84877
 H875 H 0.07945 0.75980 0.90025
 H876 H 0.04948 0.75858 0.93358
 H877 H 0.04887 0.68776 0.92952
 H878 H 0.07887 0.68925 0.89579
 H879 H 0.11787 0.69916 0.89745
 H880 H 0.15164 0.70359 0.87054
 H881 H 0.12323 0.75746 0.82530
 H882 H 0.08921 0.75262 0.85164
 H883 H 0.14845 0.74135 0.79101
 H884 H 0.18366 0.75236 0.77035
 H885 H 0.21526 0.74228 0.85012
 H886 H 0.18021 0.73177 0.87086
 C887 C 0.58780 0.20526 0.41680
 C888 C 0.57909 0.18511 0.42598
 C889 C 0.55971 0.18438 0.44169
 C890 C 0.54870 0.20379 0.44833
 C891 C 0.55687 0.22376 0.43781
 C892 C 0.57618 0.22448 0.42227
 C893 C 0.60946 0.20669 0.40289
 C894 C 0.62453 0.22298 0.41116
 C895 C 0.64453 0.22540 0.39741
 C896 C 0.65001 0.21159 0.37502
 C897 C 0.63518 0.19490 0.36714
 C898 C 0.61511 0.19238 0.38109
 C899 C 0.67044 0.21586 0.35897
 C900 C 0.67019 0.21585 0.32952
 C901 C 0.68831 0.22361 0.31443
 C902 C 0.70699 0.23155 0.32850
 C903 C 0.70780 0.23011 0.35786
 C904 C 0.68973 0.22232 0.37293
 H905 H 0.58775 0.17006 0.42204
 H906 H 0.55382 0.16874 0.44951
 H907 H 0.54872 0.23901 0.44230
 H908 H 0.58228 0.24019 0.41494
 H909 H 0.62074 0.23403 0.42817
 H910 H 0.65542 0.23861 0.40375
 H911 H 0.63902 0.18395 0.35003
 H912 H 0.60377 0.17969 0.37433
 H913 H 0.65551 0.21115 0.31818
 H914 H 0.68716 0.22469 0.29182
 H915 H 0.72214 0.23576 0.36921
 H916 H 0.69056 0.22207 0.39560
 C917 C 0.92236 0.27642 0.90473
 C918 C 0.93251 0.25697 0.91316
 C919 C 0.94985 0.25748 0.93223
 C920 C 0.95748 0.27746 0.94334
 C921 C 0.94783 0.29699 0.93423
 C922 C 0.93043 0.29647 0.91516
 C923 C 0.90255 0.27551 0.88668
 C924 C 0.88445 0.28866 0.89277
 C925 C 0.86488 0.28607 0.87791
 C926 C 0.86296 0.27027 0.85662
 C927 C 0.88136 0.25782 0.84965
 C928 C 0.90094 0.26040 0.86453
 C929 C 0.84143 0.26565 0.84325
 C930 C 0.83984 0.26097 0.81446
 C931 C 0.81966 0.25512 0.80253
 C932 C 0.80074 0.25369 0.81922
 C933 C 0.80229 0.25885 0.84783
 C934 C 0.82237 0.26476 0.85970
 H935 H 0.92650 0.24123 0.90585
 H936 H 0.95690 0.24213 0.93879
 H937 H 0.95338 0.31266 0.94232
 H938 H 0.92312 0.31175 0.90880
 H939 H 0.88508 0.30033 0.90983
 H940 H 0.85107 0.29612 0.88351
 H941 H 0.88037 0.24541 0.83349
 H942 H 0.91470 0.25022 0.85910
 H943 H 0.85422 0.26168 0.80122
 H944 H 0.81897 0.25111 0.78044
 H945 H 0.78793 0.25810 0.86113
 H946 H 0.82307 0.26797 0.88200
 C947 C 0.42284 0.78490 0.39666
 C948 C 0.43442 0.76652 0.40588
 C949 C 0.45175 0.76884 0.42473
 C950 C 0.45798 0.78962 0.43481
 C951 C 0.44684 0.80810 0.42498
 C952 C 0.42940 0.80576 0.40614
 C953 C 0.40318 0.78198 0.37867
 C954 C 0.38401 0.79365 0.38436
 C955 C 0.36472 0.78909 0.36963
 C956 C 0.36419 0.77279 0.34885
 C957 C 0.38361 0.76183 0.34226
 C958 C 0.40289 0.76636 0.35704
 C959 C 0.34316 0.76617 0.33553
 C960 C 0.34206 0.76105 0.30682
 C961 C 0.32241 0.75360 0.29487
 C962 C 0.30355 0.75098 0.31146
 C963 C 0.30460 0.75642 0.34002
 C964 C 0.32416 0.76393 0.35191
 H965 H 0.42958 0.75020 0.39931
 H966 H 0.46000 0.75426 0.43185
 H967 H 0.45128 0.82433 0.43230
 H968 H 0.42091 0.82024 0.39919
 H969 H 0.38365 0.80566 0.40103
 H970 H 0.35008 0.79801 0.37490
 H971 H 0.38369 0.74910 0.32649
 H972 H 0.41749 0.75731 0.35194
 H973 H 0.35641 0.76274 0.29365
 H974 H 0.32210 0.74940 0.27283
 H975 H 0.29026 0.75480 0.35323
 H976 H 0.32453 0.76745 0.37415
 C977 C 0.28599 0.92118 0.10387
 C978 C 0.30625 0.92814 0.09281
 C979 C 0.30732 0.94524 0.07329
 C980 C 0.28812 0.95560 0.06435
 C981 C 0.26799 0.94910 0.07613
 C982 C 0.26694 0.93212 0.09565
 C983 C 0.28426 0.90159 0.12220
 C984 C 0.26931 0.90097 0.14459
 C985 C 0.26539 0.88153 0.15929
 C986 C 0.27634 0.86228 0.15191
 C987 C 0.29217 0.86320 0.13054
 C988 C 0.29609 0.88264 0.11584
 C989 C 0.26999 0.84102 0.16484
 C990 C 0.26758 0.82228 0.14800
 C991 C 0.26005 0.80259 0.15947
 C992 C 0.25473 0.80112 0.18804
 C993 C 0.25758 0.81969 0.20509
 C994 C 0.26509 0.83948 0.19357
 H995 H 0.32123 0.92014 0.09896
 H996 H 0.32308 0.94992 0.06463
 H997 H 0.25289 0.95676 0.06976
 H998 H 0.25104 0.92697 0.10343
 H999 H 0.26017 0.91540 0.15022
 H1000 H 0.25302 0.88134 0.17554
 H1001 H 0.30111 0.84871 0.12467
 H1002 H 0.30761 0.88254 0.09860
 H1003 H 0.27091 0.82299 0.12573
 H1004 H 0.25826 0.78847 0.14590
 H1005 H 0.25348 0.81907 0.22715
 H1006 H 0.26692 0.85361 0.20710
 C1007 C 0.77393 0.42202 0.60054
 C1008 C 0.79394 0.43026 0.59017
 C1009 C 0.79432 0.44724 0.57047
 C1010 C 0.77469 0.45628 0.56066
 C1011 C 0.75473 0.44834 0.57149
 C1012 C 0.75436 0.43142 0.59119
 C1013 C 0.77326 0.40290 0.61979
 C1014 C 0.75798 0.40183 0.64180
 C1015 C 0.75571 0.38283 0.65794
 C1016 C 0.76865 0.36447 0.65239
 C1017 C 0.78462 0.36591 0.63124
 C1018 C 0.78691 0.38491 0.61513
 C1019 C 0.76422 0.34337 0.66693
 C1020 C 0.76368 0.32378 0.65152
 C1021 C 0.75755 0.30411 0.66430
 C1022 C 0.75184 0.30351 0.69280
 C1023 C 0.75312 0.32291 0.70854
 C1024 C 0.75916 0.34269 0.69568
 H1025 H 0.80930 0.42350 0.59718
 H1026 H 0.80997 0.45306 0.56262
 H1027 H 0.73931 0.45492 0.56440
 H1028 H 0.73867 0.42523 0.59842
 H1029 H 0.74744 0.41554 0.64615
 H1030 H 0.74316 0.38219 0.67395
 H1031 H 0.79502 0.35212 0.62670
 H1032 H 0.79874 0.38515 0.59823
 H1033 H 0.76721 0.32377 0.62929
 H1034 H 0.75691 0.28935 0.65175
 H1035 H 0.74870 0.32291 0.73052
 H1036 H 0.75961 0.35751 0.70813
 C1037 C 0.70426 0.08078 0.09887
 C1038 C 0.72316 0.06872 0.09306
 C1039 C 0.72236 0.05112 0.07444
 C1040 C 0.70260 0.04507 0.06135
 C1041 C 0.68351 0.05664 0.06788
 C1042 C 0.68436 0.07442 0.08635
 C1043 C 0.70578 0.10063 0.11666
 C1044 C 0.69591 0.12020 0.10813
 C1045 C 0.69951 0.13957 0.12314
 C1046 C 0.71290 0.13970 0.14709
 C1047 C 0.72196 0.11991 0.15629
 C1048 C 0.71847 0.10060 0.14120
 C1049 C 0.71892 0.16055 0.16124
 C1050 C 0.72045 0.16162 0.19059
 C1051 C 0.72884 0.18039 0.20366
 C1052 C 0.73595 0.19843 0.18765
 C1053 C 0.73342 0.19776 0.15840
 C1054 C 0.72495 0.17903 0.14533
 H1055 H 0.73878 0.07340 0.10214
 H1056 H 0.73735 0.04253 0.06986
 H1057 H 0.66805 0.05238 0.05808
 H1058 H 0.66952 0.08334 0.09063
 H1059 H 0.68618 0.12073 0.08918
 H1060 H 0.69219 0.15455 0.11571
 H1061 H 0.73253 0.11952 0.17450
 H1062 H 0.72611 0.08571 0.14839
 H1063 H 0.71571 0.14771 0.20338
 H1064 H 0.73073 0.18037 0.22623
 H1065 H 0.73857 0.21151 0.14557
 H1066 H 0.72411 0.17864 0.12267
 C1067 C 0.22163 0.57730 0.60147
 C1068 C 0.24057 0.56609 0.59348
 C1069 C 0.23933 0.54874 0.57453
 C1070 C 0.21911 0.54212 0.56310
 C1071 C 0.20002 0.55281 0.57180
 C1072 C 0.20128 0.57028 0.59074
 C1073 C 0.22352 0.59714 0.61934
 C1074 C 0.21169 0.61604 0.61270
 C1075 C 0.21555 0.63558 0.62718
 C1076 C 0.23131 0.63667 0.64863
 C1077 C 0.24235 0.61751 0.65619
 C1078 C 0.23850 0.59796 0.64170
 C1079 C 0.23738 0.65799 0.66161
 C1080 C 0.24210 0.65956 0.69040
 C1081 C 0.24922 0.67944 0.70203
 C1082 C 0.25188 0.69810 0.68507
 C1083 C 0.24678 0.69660 0.65642
 C1084 C 0.23962 0.67680 0.64484
 H1085 H 0.25653 0.57128 0.60101
 H1086 H 0.25435 0.54085 0.56832
 H1087 H 0.18420 0.54806 0.56340
 H1088 H 0.18638 0.57847 0.59673
 H1089 H 0.20016 0.61599 0.59547
 H1090 H 0.20655 0.65000 0.62115
 H1091 H 0.25468 0.61782 0.67249
 H1092 H 0.24766 0.58359 0.64755
 H1093 H 0.24038 0.64539 0.70389
 H1094 H 0.25317 0.68007 0.72414
 H1095 H 0.24842 0.71077 0.64290
 H1096 H 0.23643 0.67609 0.62253
 C1097 C 0.92181 0.72129 0.09047
 C1098 C 0.93220 0.74088 0.08213
 C1099 C 0.94946 0.74064 0.06297
 C1100 C 0.95676 0.72081 0.05161
 C1101 C 0.94676 0.70114 0.06044
 C1102 C 0.92945 0.70138 0.07965
 C1103 C 0.90228 0.72192 0.10903
 C1104 C 0.88393 0.70853 0.10345
 C1105 C 0.86463 0.71090 0.11881
 C1106 C 0.86321 0.72674 0.14008
 C1107 C 0.88189 0.73941 0.14656
 C1108 C 0.90121 0.73701 0.13122
 C1109 C 0.84191 0.73130 0.15384
 C1110 C 0.84078 0.73656 0.18250
 C1111 C 0.82091 0.74269 0.19463
 C1112 C 0.80181 0.74377 0.17829
 C1113 C 0.80284 0.73786 0.14988
 C1114 C 0.82263 0.73172 0.13780
 H1115 H 0.92651 0.75652 0.08968
 H1116 H 0.95677 0.75610 0.05662
 H1117 H 0.95206 0.68557 0.05216
 H1118 H 0.92194 0.68599 0.08590
 H1119 H 0.88415 0.69685 0.08640
 H1120 H 0.85062 0.70067 0.11359
 H1121 H 0.88131 0.75186 0.16267
 H1122 H 0.91517 0.74734 0.13632
 H1123 H 0.85533 0.73620 0.19546
 H1124 H 0.82062 0.74726 0.21655
 H1125 H 0.78833 0.73829 0.13685
 H1126 H 0.82295 0.72805 0.11561
 C1127 C 0.42068 0.21002 0.60165
 C1128 C 0.43188 0.22890 0.59245
 C1129 C 0.44894 0.22740 0.57316
 C1130 C 0.45526 0.20698 0.56256
 C1131 C 0.44443 0.18799 0.57220
 C1132 C 0.42725 0.18950 0.59151
 C1133 C 0.40144 0.21209 0.62043
 C1134 C 0.38222 0.19988 0.61529
 C1135 C 0.36321 0.20385 0.63066
 C1136 C 0.36300 0.22010 0.65151
 C1137 C 0.38253 0.23152 0.65760
 C1138 C 0.40153 0.22755 0.64224
 C1139 C 0.34219 0.22633 0.66530
 C1140 C 0.34161 0.23192 0.69388
 C1141 C 0.32227 0.23940 0.70611
 C1142 C 0.30317 0.24153 0.68996
 C1143 C 0.30366 0.23547 0.66158
 C1144 C 0.32292 0.22798 0.64939
 H1145 H 0.42700 0.24497 0.59948
 H1146 H 0.45693 0.24236 0.56620
 H1147 H 0.44896 0.17201 0.56447
 H1148 H 0.41903 0.17465 0.59840
 H1149 H 0.38158 0.18794 0.59853
 H1150 H 0.34849 0.19455 0.62578
 H1151 H 0.38289 0.24424 0.67340
 H1152 H 0.41619 0.23699 0.64696
 H1153 H 0.35615 0.23066 0.70672
 H1154 H 0.32241 0.24406 0.72800
 H1155 H 0.28911 0.23668 0.64871
 H1156 H 0.32288 0.22411 0.62725
 C1157 C 0.07933 0.27612 0.10513
 C1158 C 0.07142 0.29621 0.09523
 C1159 C 0.05463 0.29674 0.07529
 C1160 C 0.04547 0.27718 0.06480
 C1161 C 0.05299 0.25713 0.07529
 C1162 C 0.06971 0.25661 0.09519
 C1163 C 0.09850 0.27528 0.12423
 C1164 C 0.09953 0.25946 0.14559
 C1165 C 0.11871 0.25681 0.16113
 C1166 C 0.13728 0.26991 0.15563
 C1167 C 0.13585 0.28651 0.13532
 C1168 C 0.11669 0.28916 0.11978
 C1169 C 0.15855 0.26498 0.16914
 C1170 C 0.17778 0.26495 0.15301
 C1171 C 0.19757 0.25840 0.16471
 C1172 C 0.19863 0.25171 0.19283
 C1173 C 0.17959 0.25240 0.20931
 C1174 C 0.15970 0.25889 0.19754
 H1175 H 0.07835 0.31152 0.10271
 H1176 H 0.04914 0.31246 0.06772
 H1177 H 0.04629 0.24176 0.06766
 H1178 H 0.07565 0.24086 0.10204
 H1179 H 0.08567 0.24874 0.14979
 H1180 H 0.11933 0.24380 0.17652
 H1181 H 0.14980 0.29706 0.13089
 H1182 H 0.11648 0.30140 0.10337
 H1183 H 0.17742 0.26925 0.13099
 H1184 H 0.21205 0.25826 0.15161
 H1185 H 0.17995 0.24724 0.23102
 H1186 H 0.14517 0.25891 0.21053
 C1187 C 0.58594 0.79903 0.58783
 C1188 C 0.58000 0.81801 0.57316
 C1189 C 0.56185 0.81774 0.55523
 C1190 C 0.54950 0.79841 0.55140
 C1191 C 0.55518 0.77961 0.56660
 C1192 C 0.57313 0.77995 0.58467
 C1193 C 0.60608 0.79851 0.60519
 C1194 C 0.60606 0.78752 0.63105
 C1195 C 0.62554 0.78463 0.64582
 C1196 C 0.64551 0.79261 0.63504
 C1197 C 0.64540 0.80442 0.60974
 C1198 C 0.62586 0.80741 0.59501
 C1199 C 0.66640 0.78701 0.64908
 C1200 C 0.68431 0.77976 0.63324
 C1201 C 0.70290 0.77156 0.64651
 C1202 C 0.70399 0.77048 0.67589
 C1203 C 0.68658 0.77884 0.69172
 C1204 C 0.66798 0.78699 0.67846
 H1205 H 0.58953 0.83297 0.57536
 H1206 H 0.55789 0.83246 0.54373
 H1207 H 0.54599 0.76447 0.56413
 H1208 H 0.57747 0.76499 0.59541
 H1209 H 0.59102 0.78068 0.63951
 H1210 H 0.62508 0.77528 0.66510
 H1211 H 0.66051 0.81092 0.60106
 H1212 H 0.62638 0.81582 0.57504
 H1213 H 0.68354 0.77941 0.61057
 H1214 H 0.71617 0.76547 0.63377
 H1215 H 0.68686 0.77809 0.71439
 H1216 H 0.65455 0.79271 0.69121
   
