data_POSCAR
  _audit_creation_date              2014-09-24
  _audit_creation_method            'ToBaCCo'
  _symmetry_space_group_name_H-M    'P1'
  _symmetry_Int_Tables_number       1
  _symmetry_cell_setting            triclinic
  loop_
  _symmetry_equiv_pos_as_xyz
 x,y,z
_cell_length_a 22.0241
_cell_length_b 21.7709
_cell_length_c 21.3012
_cell_angle_alpha 74.611900
_cell_angle_beta 99.273600
_cell_angle_gamma 82.155400
loop_
  _atom_site_label
  _atom_site_type_symbol
  _atom_site_fract_x
  _atom_site_fract_y
  _atom_site_fract_z
C1 C 0.62629 0.55163 0.02101
 C2 C 0.60236 0.60668 0.03821
 C3 C 0.53955 0.62201 0.04270
 C4 C 0.49888 0.57889 0.03209
 C5 C 0.52078 0.52444 0.01172
 C6 C 0.58410 0.51156 0.00455
 C7 C 0.60187 0.46182 -0.02328
 C8 C 0.56159 0.42061 -0.03544
 C9 C 0.50116 0.42832 -0.02192
 C10 C 0.47920 0.48250 -0.00135
 C11 C 0.43836 0.58614 0.04582
 C12 C 0.39834 0.54435 0.03445
 C13 C 0.41629 0.49408 0.00742
 C14 C 0.37520 0.45158 -0.00567
 C15 C 0.40020 0.39574 -0.02107
 C16 C 0.46181 0.38373 -0.02951
 H17 H 0.64672 0.45474 -0.03731
 H18 H 0.57823 0.38295 -0.05638
 H19 H 0.42188 0.62294 0.06784
 H20 H 0.35388 0.55083 0.04943
 H21 H 0.63356 0.63904 0.04779
 H22 H 0.37067 0.36135 -0.02887
 C23 C 0.01173 0.57347 0.36710
 C24 C 0.00878 0.63447 0.37800
 C25 C 0.00350 0.64376 0.43997
 C26 C -0.00208 0.58927 0.49252
 C27 C -0.00118 0.52738 0.48165
 C28 C 0.00538 0.51963 0.41879
 C29 C 0.00356 0.45854 0.40875
 C30 C -0.00173 0.40562 0.45961
 C31 C -0.00945 0.41197 0.52188
 C32 C -0.00881 0.47331 0.53328
 C33 C -0.01283 0.59529 0.55432
 C34 C -0.01603 0.54202 0.60568
 C35 C -0.01584 0.48076 0.59613
 C36 C -0.02253 0.42683 0.64762
 C37 C -0.02214 0.36668 0.63546
 C38 C -0.01720 0.35856 0.57326
 H39 H 0.00537 0.45061 0.36111
 H40 H 0.00028 0.35961 0.44904
 H41 H -0.02059 0.64122 0.56451
 H42 H -0.01967 0.55041 0.65273
 H43 H 0.01465 0.67473 0.33819
 H44 H -0.02808 0.32581 0.67459
 C45 C 0.57148 -0.01058 0.63945
 C46 C 0.63091 -0.01950 0.62385
 C47 C 0.63902 -0.01679 0.55904
 C48 C 0.58489 -0.00934 0.50856
 C49 C 0.52433 -0.00315 0.52406
 C50 C 0.51767 -0.00482 0.58956
 C51 C 0.45757 -0.00520 0.60443
 C52 C 0.40485 0.00434 0.55544
 C53 C 0.40980 0.00679 0.49017
 C54 C 0.47019 0.00200 0.47447
 C55 C 0.58950 -0.01256 0.44421
 C56 C 0.53672 -0.00430 0.39529
 C57 C 0.47660 0.00140 0.40959
 C58 C 0.42277 0.00577 0.36093
 C59 C 0.36347 0.01339 0.37647
 C60 C 0.35614 0.01294 0.44046
 H61 H 0.44976 -0.01451 0.65449
 H62 H 0.36036 0.00844 0.57049
 H63 H 0.63380 -0.02330 0.43039
 H64 H 0.54418 -0.00344 0.34619
 H65 H 0.67139 -0.02175 0.66143
 H66 H 0.32256 0.01633 0.33904
 O67 O 0.47680 0.01455 -0.10302
 O68 O 0.42784 0.01523 0.05257
 O69 O 0.45349 0.10116 -0.04440
 O70 O 0.45127 -0.07324 -0.00615
 O71 O 0.55080 -0.09487 0.04460
 O72 O 0.55247 0.07895 0.00825
 O73 O 0.52727 -0.01014 0.10466
 O74 O 0.57661 -0.00876 -0.05278
 Cu75 Cu 0.44232 0.01657 -0.03056
 Cu76 Cu 0.56203 -0.01053 0.03119
 C77 C 0.53443 0.00328 -0.10489
 C78 C 0.46934 0.00146 0.10538
 C79 C 0.50329 0.11972 -0.02440
 C80 C 0.50067 -0.11381 0.02644
 O81 O -0.09066 0.55875 0.98278
 O82 O 0.07656 0.54345 0.97650
 O83 O -0.02393 0.52844 0.90150
 O84 O 0.00668 0.57324 1.05756
 O85 O 0.02475 0.46975 1.11550
 O86 O -0.00558 0.42491 0.95938
 O87 O 0.09238 0.44012 1.03396
 O88 O -0.07520 0.45537 1.04003
 Cu89 Cu -0.00907 0.56126 0.97369
 Cu90 Cu 0.01061 0.43723 1.04306
 C91 C -0.11143 0.51012 1.01309
 C92 C 0.11299 0.48888 1.00360
 C93 C -0.01961 0.46902 0.90390
 C94 C 0.01990 0.52920 1.11309
 O95 O -0.01577 -0.05045 0.42872
 O96 O -0.03131 0.10689 0.46618
 O97 O 0.05699 0.03537 0.43394
 O98 O -0.10238 0.02232 0.46043
 O99 O -0.06434 -0.02846 0.56694
 O100 O 0.09490 -0.01824 0.53984
 O101 O 0.00919 0.05568 0.57210
 O102 O 0.02195 -0.10093 0.53532
 Cu103 Cu -0.02664 0.03367 0.43651
 Cu104 Cu 0.01931 -0.02786 0.56421
 C105 C 0.00489 -0.10268 0.47604
 C106 C -0.01384 0.10797 0.52567
 C107 C 0.10316 0.01030 0.48252
 C108 C -0.11056 -0.00538 0.51810
 C109 C -0.27690 0.59087 1.00302
 C110 C -0.30843 0.53925 1.02197
 C111 C -0.27049 0.47646 1.04847
 C112 C -0.20601 0.46633 1.04679
 C113 C -0.17780 0.51874 1.01892
 C114 C -0.21403 0.58096 1.00098
 C115 C -0.22327 0.63662 0.93955
 C116 C -0.29245 0.64765 0.94180
 H117 H -0.29040 0.43509 1.07042
 H118 H -0.17892 0.41746 1.06551
 H119 H -0.21349 0.62103 0.89592
 H120 H -0.19980 0.67636 0.94888
 H121 H -0.32286 0.63855 0.89949
 H122 H -0.30873 0.69375 0.95242
 C123 C 0.27972 0.41030 1.01478
 C124 C 0.31006 0.46264 0.99435
 C125 C 0.27097 0.52473 0.96680
 C126 C 0.20657 0.53375 0.96875
 C127 C 0.17944 0.48093 0.99789
 C128 C 0.21681 0.41916 1.01706
 C129 C 0.22709 0.36453 1.07954
 C130 C 0.29625 0.35463 1.07705
 H131 H 0.28985 0.56641 0.94358
 H132 H 0.17863 0.58221 0.94906
 H133 H 0.20461 0.32373 1.07158
 H134 H 0.21690 0.38106 1.12252
 H135 H 0.31349 0.30811 1.06770
 H136 H 0.32625 0.36532 1.11860
 C137 C 0.03620 -0.28388 0.50553
 C138 C 0.00421 -0.29314 0.44730
 C139 C -0.02797 -0.23614 0.39644
 C140 C -0.02708 -0.17388 0.40469
 C141 C 0.00681 -0.16655 0.46354
 C142 C 0.03657 -0.22303 0.51407
 C143 C 0.10319 -0.24225 0.55102
 C144 C 0.10252 -0.30903 0.54170
 H145 H -0.05523 -0.23946 0.35078
 H146 H -0.05313 -0.13167 0.36516
 H147 H 0.10775 -0.24251 0.60383
 H148 H 0.13507 -0.21539 0.52372
 H149 H 0.10646 -0.34764 0.58912
 H150 H 0.13391 -0.32094 0.50889
 C151 C 0.01522 0.23720 0.60942
 C152 C -0.02202 0.29374 0.56411
 C153 C -0.06633 0.28612 0.51224
 C154 C -0.06497 0.22525 0.50022
 C155 C -0.02081 0.17041 0.54136
 C156 C 0.01573 0.17708 0.59849
 C157 C 0.08456 0.15626 0.62575
 C158 C 0.08386 0.22218 0.63777
 H159 H -0.09948 0.32781 0.47879
 H160 H -0.09688 0.22168 0.45755
 H161 H 0.11132 0.14916 0.58737
 H162 H 0.09544 0.11541 0.67251
 H163 H 0.11016 0.25342 0.60635
 H164 H 0.09417 0.21927 0.69142
 C165 C 0.51898 0.03957 -0.28862
 C166 C 0.56704 -0.00511 -0.29657
 C167 C 0.60859 -0.04574 -0.23777
 C168 C 0.60028 -0.04158 -0.17454
 C169 C 0.55080 0.00370 -0.16893
 C170 C 0.50987 0.04278 -0.22697
 C171 C 0.49175 0.11510 -0.25110
 C172 C 0.50169 0.11121 -0.31898
 H173 H 0.64589 -0.08242 -0.24024
 H174 H 0.63128 -0.07474 -0.13029
 H175 H 0.52584 0.13947 -0.22703
 H176 H 0.44196 0.13209 -0.25051
 H177 H 0.54171 0.13311 -0.33440
 H178 H 0.45761 0.12567 -0.35742
 C179 C 0.39272 0.04585 0.23649
 C180 C 0.42660 -0.00128 0.29449
 C181 C 0.46412 -0.05593 0.28744
 C182 C 0.47694 -0.05603 0.22496
 C183 C 0.44989 -0.00296 0.16853
 C184 C 0.40374 0.04478 0.17450
 C185 C 0.39577 0.11696 0.15040
 C186 C 0.38372 0.11800 0.21848
 H187 H 0.48758 -0.09580 0.33085
 H188 H 0.51001 -0.09593 0.22127
 H189 H 0.35386 0.13901 0.10966
 H190 H 0.43971 0.13355 0.14021
 H191 H 0.33487 0.14058 0.21691
 H192 H 0.42078 0.13501 0.24792
 C193 C 0.46471 -0.27520 0.01472
 C194 C 0.51930 -0.31816 0.05412
 C195 C 0.55854 -0.29425 0.09773
 C196 C 0.54927 -0.22792 0.09262
 C197 C 0.50061 -0.18385 0.04378
 C198 C 0.45559 -0.20949 0.00967
 C199 C 0.42667 -0.19033 -0.06273
 C200 C 0.43658 -0.26215 -0.05733
 H201 H 0.59927 -0.32596 0.13241
 H202 H 0.58328 -0.21069 0.12313
 H203 H 0.45548 -0.16320 -0.09447
 H204 H 0.37643 -0.16730 -0.07317
 H205 H 0.47111 -0.27672 -0.08595
 H206 H 0.39203 -0.28041 -0.06472
 C207 C 0.53562 0.27728 0.00046
 C208 C 0.48404 0.32178 -0.04240
 C209 C 0.44805 0.30119 -0.09118
 C210 C 0.45750 0.23539 -0.08899
 C211 C 0.50349 0.18945 -0.03836
 C212 C 0.54562 0.21263 0.00201
 C213 C 0.56846 0.19044 0.07582
 C214 C 0.55733 0.26143 0.07393
 H215 H 0.40891 0.33460 -0.12680
 H216 H 0.42560 0.21987 -0.12333
 H217 H 0.61884 0.16721 0.09030
 H218 H 0.53703 0.16221 0.10242
 H219 H 0.60125 0.27910 0.08726
 H220 H 0.51920 0.27452 0.09918
 C221 C -0.28685 0.02096 0.48861
 C222 C -0.29932 -0.01906 0.54670
 C223 C -0.24665 -0.05949 0.59410
 C224 C -0.18516 -0.05609 0.58462
 C225 C -0.17440 -0.01192 0.52773
 C226 C -0.22653 0.02373 0.47879
 C227 C -0.24314 0.09494 0.44432
 C228 C -0.30936 0.09180 0.45512
 H229 H -0.25273 -0.09355 0.63895
 H230 H -0.14617 -0.08691 0.62259
 H231 H -0.23997 0.10640 0.39103
 H232 H -0.21862 0.12376 0.47263
 H233 H -0.34420 0.10151 0.40802
 H234 H -0.32331 0.11864 0.48985
 C235 C 0.27810 -0.03172 0.50497
 C236 C 0.29195 0.01629 0.45406
 C237 C 0.24235 0.06690 0.41504
 C238 C 0.18046 0.06582 0.42432
 C239 C 0.16731 0.01440 0.47322
 C240 C 0.21775 -0.03204 0.51528
 C241 C 0.22759 -0.10440 0.53334
 C242 C 0.29402 -0.10371 0.52213
 H243 H 0.25115 0.10591 0.37599
 H244 H 0.14293 0.10423 0.39243
 H245 H 0.19796 -0.12178 0.49674
 H246 H 0.22570 -0.12664 0.58621
 H247 H 0.30300 -0.12061 0.47901
 H248 H 0.33037 -0.12515 0.56859
 C249 C -0.01465 0.61123 1.24180
 C250 C 0.02232 0.56833 1.30100
 C251 C 0.07016 0.52120 1.29495
 C252 C 0.07170 0.50974 1.23293
 C253 C 0.02762 0.54761 1.17533
 C254 C -0.01184 0.60138 1.18044
 C255 C -0.08087 0.62394 1.15560
 C256 C -0.08381 0.63473 1.22284
 H257 H 0.10305 0.48987 1.33886
 H258 H 0.10515 0.46943 1.23066
 H259 H -0.10523 0.58469 1.14634
 H260 H -0.09229 0.66975 1.11392
 H261 H -0.10977 0.60166 1.25273
 H262 H -0.09682 0.68673 1.21987
 C263 C 0.00946 0.38851 0.77249
 C264 C -0.03038 0.43087 0.71479
 C265 C -0.07790 0.47663 0.72345
 C266 C -0.07643 0.48779 0.78600
 C267 C -0.02957 0.45084 0.84161
 C268 C 0.00963 0.39796 0.83448
 C269 C 0.07912 0.37703 0.85553
 C270 C 0.07880 0.36667 0.78759
 H271 H -0.11281 0.50736 0.68093
 H272 H -0.10982 0.52720 0.79010
 H273 H 0.09291 0.33116 0.89713
 H274 H 0.10317 0.41700 0.86319
 H275 H 0.09230 0.31485 0.79008
 H276 H 0.10256 0.40069 0.75571
   
