data_POSCAR
  _audit_creation_date              2014-09-24
  _audit_creation_method            'ToBaCCo'
  _symmetry_space_group_name_H-M    'P1'
  _symmetry_Int_Tables_number       1
  _symmetry_cell_setting            triclinic
  loop_
  _symmetry_equiv_pos_as_xyz
 x,y,z
_cell_length_a 29.1077
_cell_length_b 28.5434
_cell_length_c 12.2674
_cell_angle_alpha 89.779800
_cell_angle_beta 89.960900
_cell_angle_gamma 119.052600
loop_
  _atom_site_label
  _atom_site_type_symbol
  _atom_site_fract_x
  _atom_site_fract_y
  _atom_site_fract_z
C1 C 0.49030 0.95011 0.54813
 C2 C 0.48023 0.95279 0.43632
 C3 C 0.50077 1.00270 0.38418
 C4 C 0.52994 1.05135 0.44061
 C5 C 0.53704 1.04937 0.55531
 C6 C 0.51881 0.99860 0.60544
 H7 H 0.52609 0.99682 0.69105
 H8 H 0.49528 1.00292 0.29689
 C9 C 0.05048 0.53555 0.54633
 C10 C 0.05180 0.53689 0.43111
 C11 C 0.00441 0.51533 0.37332
 C12 C -0.04477 0.49352 0.42570
 C13 C -0.04582 0.49264 0.54164
 C14 C 0.00161 0.51285 0.59946
 H15 H 0.00041 0.51135 0.68790
 H16 H 0.00615 0.51634 0.28483
 C17 C 0.45716 0.50369 0.56600
 C18 C 0.45786 0.50630 0.45017
 C19 C 0.48590 0.48596 0.39171
 C20 C 0.51274 0.46265 0.44429
 C21 C 0.51064 0.45797 0.55923
 C22 C 0.48428 0.48028 0.61780
 H23 H 0.48516 0.48002 0.70609
 H24 H 0.48859 0.49015 0.30368
 O25 O 0.40948 0.64858 -0.09456
 O26 O 0.41253 0.74039 -0.13263
 C27 C 0.38930 0.76683 -0.15670
 O28 O 0.34689 0.75910 -0.11168
 O29 O 0.25939 0.67037 -0.14345
 C30 C 0.23356 0.62021 -0.15807
 O31 O 0.23911 0.58700 -0.09824
 O32 O 0.32716 0.58553 -0.13178
 C33 C 0.37634 0.60887 -0.14980
 O34 O 0.40586 0.66474 0.12178
 O35 O 0.41163 0.75752 0.08121
 C36 C 0.37964 0.76971 0.12673
 O37 O 0.33098 0.74666 0.10504
 O38 O 0.24168 0.65936 0.07480
 C39 C 0.23393 0.61966 0.13464
 O40 O 0.25637 0.59161 0.11843
 O41 O 0.34107 0.58313 0.08420
 C42 C 0.38128 0.61470 0.13873
 Cr43 Cr 0.40688 0.70129 -0.00613
 Cr44 Cr 0.29601 0.70716 -0.01858
 Cr45 Cr 0.29241 0.58979 -0.00687
 O46 O 0.33191 0.66634 -0.01060
 O47 O 0.59737 0.33226 -0.12856
 O48 O 0.59992 0.24236 -0.09522
 C49 C 0.63361 0.23497 -0.14699
 O50 O 0.68254 0.26307 -0.13189
 O51 O 0.76874 0.35274 -0.09688
 C52 C 0.77548 0.39516 -0.14501
 O53 O 0.75021 0.41930 -0.12036
 O54 O 0.65992 0.41611 -0.09269
 C55 C 0.61956 0.38249 -0.14467
 O56 O 0.59194 0.34425 0.08577
 O57 O 0.60004 0.25766 0.11891
 C58 C 0.62596 0.23321 0.13556
 O59 O 0.66828 0.24421 0.08512
 O60 O 0.75291 0.33575 0.11945
 C61 C 0.77271 0.38447 0.14658
 O62 O 0.76232 0.41777 0.09846
 O63 O 0.67098 0.41185 0.12519
 C64 C 0.62177 0.38604 0.13934
 Cr65 Cr 0.60046 0.29584 -0.00479
 Cr66 Cr 0.71650 0.30047 -0.00583
 Cr67 Cr 0.70961 0.41319 0.00232
 O68 O 0.67566 0.33662 -0.00268
 C69 C 0.47086 0.89992 -0.39847
 C70 C 0.49032 0.89215 -0.30502
 C71 C 0.46550 0.84066 -0.24558
 C72 C 0.41325 0.81055 -0.23683
 H73 H 0.52671 0.92321 -0.27149
 H74 H 0.49075 0.83141 -0.19552
 H75 H 0.43927 0.86481 -0.43591
 H76 H 0.38783 0.82302 -0.27723
 C77 C 0.09764 0.55582 -0.38355
 C78 C 0.13941 0.60489 -0.39398
 C79 C 0.18271 0.62787 -0.31315
 C80 C 0.19387 0.59784 -0.24517
 H81 H 0.13989 0.63113 -0.45848
 H82 H 0.20585 0.67113 -0.30985
 H83 H 0.09410 0.53176 -0.31244
 H84 H 0.17291 0.55463 -0.25194
 C85 C 0.43231 0.52399 -0.36446
 C86 C 0.39047 0.53007 -0.38866
 C87 C 0.36763 0.55133 -0.30781
 C88 C 0.39758 0.58887 -0.23548
 H89 H 0.36894 0.51451 -0.46346
 H90 H 0.32564 0.53669 -0.31013
 H91 H 0.44555 0.53117 -0.28049
 H92 H 0.43995 0.60627 -0.23910
 C93 C 0.55862 0.09658 -0.38008
 C94 C 0.54863 0.09686 -0.27308
 C95 C 0.56795 0.14625 -0.20849
 C96 C 0.61484 0.18992 -0.22367
 H97 H 0.52062 0.06071 -0.23155
 H98 H 0.54395 0.14448 -0.13933
 H99 H 0.58030 0.13538 -0.41817
 H100 H 0.64155 0.19035 -0.28569
 C101 C 0.90551 0.46877 -0.39273
 C102 C 0.88756 0.42040 -0.34632
 C103 C 0.84423 0.39646 -0.26540
 C104 C 0.81533 0.41881 -0.23224
 H105 H 0.90746 0.39762 -0.36452
 H106 H 0.83707 0.35877 -0.22947
 H107 H 0.88850 0.49405 -0.37448
 H108 H 0.82100 0.45594 -0.26773
 C109 C 0.53421 0.43148 -0.38544
 C110 C 0.51817 0.40827 -0.28717
 C111 C 0.54367 0.38187 -0.22930
 C112 C 0.59593 0.40367 -0.22258
 H113 H 0.48286 0.40453 -0.24984
 H114 H 0.51879 0.34749 -0.17887
 H115 H 0.56436 0.42611 -0.42579
 H116 H 0.62112 0.44160 -0.26255
 C117 C 0.91079 0.47177 0.35690
 C118 C 0.86344 0.46668 0.37944
 C119 C 0.82136 0.44589 0.29670
 C120 C 0.81134 0.40325 0.23544
 H121 H 0.85689 0.48405 0.45160
 H122 H 0.79766 0.46547 0.28788
 H123 H 0.91670 0.46239 0.27411
 H124 H 0.83195 0.38092 0.25158
 C125 C 0.55158 0.10036 0.38204
 C126 C 0.52966 0.10755 0.29169
 C127 C 0.55317 0.15811 0.22926
 C128 C 0.60503 0.18808 0.21295
 H129 H 0.49107 0.07715 0.26584
 H130 H 0.52634 0.16761 0.18572
 H131 H 0.58668 0.13459 0.41179
 H132 H 0.63185 0.17574 0.24695
 C133 C 0.54220 0.44300 0.37707
 C134 C 0.51980 0.41061 0.29197
 C135 C 0.54606 0.38845 0.22241
 C136 C 0.59816 0.40689 0.21858
 H137 H 0.47901 0.39789 0.27356
 H138 H 0.52068 0.35685 0.16735
 H139 H 0.58181 0.45390 0.40112
 H140 H 0.62464 0.44029 0.26846
 C141 C 0.10034 0.56111 0.36463
 C142 C 0.13819 0.54737 0.37300
 C143 C 0.18114 0.56396 0.29139
 C144 C 0.19571 0.60606 0.22414
 H145 H 0.13496 0.51889 0.43523
 H146 H 0.20046 0.53981 0.28571
 H147 H 0.10013 0.58479 0.29583
 H148 H 0.17879 0.63220 0.23317
 C149 C 0.45210 0.90391 0.36919
 C150 C 0.47585 0.89582 0.28359
 C151 C 0.45208 0.84771 0.21419
 C152 C 0.40029 0.81399 0.20579
 H153 H 0.51621 0.92520 0.26531
 H154 H 0.47917 0.84201 0.16258
 H155 H 0.41316 0.87379 0.39416
 H156 H 0.37231 0.82083 0.25148
 C157 C 0.43580 0.53527 0.38742
 C158 C 0.40602 0.51307 0.29930
 C159 C 0.38324 0.53885 0.22971
 C160 C 0.40170 0.59195 0.22177
 H161 H 0.39634 0.47255 0.27745
 H162 H 0.35210 0.51224 0.17572
 H163 H 0.44296 0.57404 0.41612
 H164 H 0.43474 0.61941 0.27064
   
