data_POSCAR
  _audit_creation_date              2014-09-24
  _audit_creation_method            'ToBaCCo'
  _symmetry_space_group_name_H-M    'P1'
  _symmetry_Int_Tables_number       1
  _symmetry_cell_setting            triclinic
  loop_
  _symmetry_equiv_pos_as_xyz
 x,y,z
_cell_length_a 74.5299
_cell_length_b 74.5870
_cell_length_c 21.7656
_cell_angle_alpha 89.876100
_cell_angle_beta 89.981700
_cell_angle_gamma 120.232100
loop_
  _atom_site_label
  _atom_site_type_symbol
  _atom_site_fract_x
  _atom_site_fract_y
  _atom_site_fract_z
C1 C 0.24850 0.49555 0.53084
 C2 C 0.24796 0.49679 0.46840
 C3 C 0.23168 0.49919 0.43626
 C4 C 0.26337 0.49510 0.42941
 C5 C 0.26682 0.49681 0.56217
 C6 C 0.23096 0.49283 0.57018
 C7 C 0.22026 0.48567 0.38872
 C8 C 0.20434 0.48716 0.35982
 C9 C 0.19926 0.50242 0.37727
 C10 C 0.21151 0.51636 0.42445
 C11 C 0.22745 0.51479 0.45304
 C12 C 0.26523 0.47731 0.43253
 C13 C 0.27997 0.47583 0.39668
 C14 C 0.29315 0.49215 0.35729
 C15 C 0.29107 0.50984 0.35365
 C16 C 0.27614 0.51121 0.38902
 C17 C 0.28676 0.51385 0.55202
 C18 C 0.30406 0.51468 0.57973
 C19 C 0.30176 0.49852 0.61841
 C20 C 0.28167 0.48168 0.62951
 C21 C 0.26436 0.48090 0.60187
 C22 C 0.23475 0.50558 0.62160
 C23 C 0.21825 0.50370 0.65712
 C24 C 0.19767 0.48908 0.64163
 C25 C 0.19393 0.47585 0.59145
 C26 C 0.21043 0.47752 0.55657
 H27 H 0.22322 0.47342 0.37519
 H28 H 0.19542 0.47527 0.32647
 H29 H 0.20972 0.52925 0.43838
 H30 H 0.23655 0.52583 0.48849
 H31 H 0.25532 0.46463 0.46300
 H32 H 0.28136 0.46210 0.40065
 H33 H 0.27480 0.52498 0.38582
 H34 H 0.28892 0.52648 0.52243
 H35 H 0.31924 0.52806 0.57122
 H36 H 0.27937 0.46888 0.65851
 H37 H 0.24908 0.46765 0.61030
 H38 H 0.25047 0.51735 0.63333
 H39 H 0.22151 0.51410 0.69553
 H40 H 0.17821 0.46421 0.57926
 H41 H 0.20715 0.46705 0.51836
 H42 H 0.30094 0.52255 0.32323
 C43 C 0.50825 -0.24583 0.53364
 C44 C 0.50587 -0.24651 0.47129
 C45 C 0.50239 -0.26499 0.43589
 C46 C 0.50692 -0.22893 0.43563
 C47 C 0.50811 -0.22931 0.57120
 C48 C 0.51069 -0.26192 0.56714
 C49 C 0.51644 -0.26295 0.38983
 C50 C 0.51451 -0.28054 0.36085
 C51 C 0.49829 -0.30047 0.37686
 C52 C 0.48365 -0.30233 0.42099
 C53 C 0.48567 -0.28475 0.45015
 C54 C 0.52297 -0.20841 0.44555
 C55 C 0.52368 -0.19204 0.41220
 C56 C 0.50873 -0.19591 0.36699
 C57 C 0.49307 -0.21645 0.35566
 C58 C 0.49214 -0.23279 0.38980
 C59 C 0.49163 -0.22535 0.56685
 C60 C 0.49183 -0.20947 0.60128
 C61 C 0.50848 -0.19728 0.64096
 C62 C 0.52472 -0.20163 0.64621
 C63 C 0.52446 -0.21758 0.61191
 C64 C 0.49814 -0.27213 0.61811
 C65 C 0.49943 -0.28815 0.64735
 C66 C 0.51316 -0.29462 0.62575
 C67 C 0.52628 -0.28364 0.57585
 C68 C 0.52529 -0.26733 0.54779
 H69 H 0.52943 -0.24781 0.37824
 H70 H 0.52617 -0.27855 0.32758
 H71 H 0.47073 -0.31740 0.43340
 H72 H 0.47447 -0.28656 0.48495
 H73 H 0.53500 -0.20505 0.47901
 H74 H 0.53610 -0.17635 0.42104
 H75 H 0.47973 -0.24847 0.38087
 H76 H 0.47865 -0.23454 0.53664
 H77 H 0.47888 -0.20682 0.59713
 H78 H 0.53788 -0.19242 0.67579
 H79 H 0.53727 -0.22047 0.61604
 H80 H 0.48685 -0.26812 0.63414
 H81 H 0.48868 -0.29618 0.68453
 H82 H 0.53788 -0.28712 0.55925
 H83 H 0.53578 -0.25907 0.51019
 H84 H 0.48134 -0.21980 0.32113
 C85 C 1.25492 0.74697 0.52631
 C86 C 1.25587 0.74553 0.46402
 C87 C 1.27377 0.76129 0.42768
 C88 C 1.23847 0.72863 0.42933
 C89 C 1.23846 0.72953 0.56256
 C90 C 1.27000 0.76599 0.56016
 C91 C 1.27046 0.77169 0.37936
 C92 C 1.28726 0.78800 0.34887
 C93 C 1.30796 0.79434 0.36566
 C94 C 1.31097 0.78290 0.41242
 C95 C 1.29411 0.76661 0.44280
 C96 C 1.21852 0.72611 0.43252
 C97 C 1.20204 0.70999 0.40080
 C98 C 1.20521 0.69608 0.36551
 C99 C 1.22526 0.69878 0.36184
 C100 C 1.24181 0.71507 0.39306
 C101 C 1.23554 0.70952 0.55748
 C102 C 1.21896 0.69277 0.58719
 C103 C 1.20479 0.69555 0.62345
 C104 C 1.20857 0.71604 0.63046
 C105 C 1.22518 0.73275 0.60045
 C106 C 1.28024 0.76449 0.61220
 C107 C 1.29549 0.78240 0.64154
 C108 C 1.30110 0.80235 0.61897
 C109 C 1.28997 0.80358 0.56820
 C110 C 1.27444 0.78568 0.54002
 H111 H 1.25483 0.76781 0.36706
 H112 H 1.28368 0.79630 0.31487
 H113 H 1.32630 0.78609 0.42536
 H114 H 1.29695 0.75836 0.47900
 H115 H 1.21573 0.73660 0.45981
 H116 H 1.18672 0.70817 0.40471
 H117 H 1.25715 0.71690 0.38988
 H118 H 1.24602 0.70682 0.52973
 H119 H 1.21774 0.67778 0.58249
 H120 H 1.19812 0.71930 0.65605
 H121 H 1.22719 0.74812 0.60489
 H122 H 1.27693 0.74944 0.62894
 H123 H 1.30366 0.78038 0.67955
 H124 H 1.29272 0.81836 0.55088
 H125 H 1.26607 0.78723 0.50163
 H126 H 1.22812 0.68836 0.33446
 C127 C 0.75301 0.50677 0.53301
 C128 C 0.75334 0.50466 0.47084
 C129 C 0.77096 0.50449 0.43984
 C130 C 0.73645 0.50291 0.43070
 C131 C 0.73651 0.50905 0.56424
 C132 C 0.76922 0.50672 0.57265
 C133 C 0.79111 0.52168 0.44381
 C134 C 0.80771 0.52123 0.41554
 C135 C 0.80441 0.50354 0.38314
 C136 C 0.78417 0.48644 0.37879
 C137 C 0.76755 0.48700 0.40647
 C138 C 0.74108 0.51747 0.38365
 C139 C 0.72518 0.51702 0.34849
 C140 C 0.70434 0.50180 0.35919
 C141 C 0.69986 0.48670 0.40481
 C142 C 0.71577 0.48723 0.44017
 C143 C 0.72595 0.49641 0.61472
 C144 C 0.70980 0.49771 0.64294
 C145 C 0.70357 0.51158 0.62094
 C146 C 0.71476 0.52467 0.57118
 C147 C 0.73121 0.52365 0.54405
 C148 C 0.77278 0.49000 0.57167
 C149 C 0.78876 0.49052 0.60651
 C150 C 0.80164 0.50779 0.64393
 C151 C 0.79727 0.52418 0.64617
 C152 C 0.78128 0.52359 0.61109
 H153 H 0.79396 0.53537 0.46900
 H154 H 0.82318 0.53456 0.41979
 H155 H 0.78121 0.47273 0.35348
 H156 H 0.75205 0.47365 0.40280
 H157 H 0.75695 0.52967 0.37565
 H158 H 0.72919 0.52902 0.31432
 H159 H 0.71195 0.47564 0.47562
 H160 H 0.72984 0.48509 0.63134
 H161 H 0.70156 0.48691 0.67983
 H162 H 0.71142 0.53631 0.55418
 H163 H 0.73971 0.53420 0.50682
 H164 H 0.76319 0.47652 0.54363
 H165 H 0.79044 0.47695 0.60502
 H166 H 0.80678 0.53813 0.67228
 H167 H 0.77871 0.53665 0.61247
 H168 H 0.68403 0.47452 0.41339
 C169 C 0.48491 0.24377 0.53597
 C170 C 0.48620 0.24376 0.47360
 C171 C 0.48465 0.25939 0.43541
 C172 C 0.48876 0.22773 0.44098
 C173 C 0.48347 0.22638 0.57270
 C174 C 0.48463 0.26083 0.57025
 C175 C 0.46708 0.26164 0.43910
 C176 C 0.46596 0.27678 0.40414
 C177 C 0.48243 0.28996 0.36515
 C178 C 0.49984 0.28742 0.36079
 C179 C 0.50085 0.27213 0.39524
 C180 C 0.47371 0.21447 0.39885
 C181 C 0.47545 0.19861 0.37052
 C182 C 0.49241 0.19585 0.38335
 C183 C 0.50776 0.20957 0.42439
 C184 C 0.50596 0.22537 0.45281
 C185 C 0.49977 0.22960 0.61151
 C186 C 0.49898 0.21300 0.64368
 C187 C 0.48155 0.19278 0.63896
 C188 C 0.46494 0.18996 0.60098
 C189 C 0.46601 0.20653 0.56794
 C190 C 0.50029 0.28151 0.56167
 C191 C 0.50000 0.29745 0.59448
 C192 C 0.48405 0.29317 0.63745
 C193 C 0.46850 0.27216 0.64598
 C194 C 0.46888 0.25629 0.61306
 H195 H 0.45432 0.25176 0.46938
 H196 H 0.45243 0.27850 0.40859
 H197 H 0.51264 0.29726 0.33058
 H198 H 0.51445 0.27050 0.39158
 H199 H 0.46032 0.21607 0.38919
 H200 H 0.46323 0.18819 0.33974
 H201 H 0.51793 0.23571 0.48441
 H202 H 0.51330 0.24494 0.61598
 H203 H 0.51183 0.21631 0.67379
 H204 H 0.45147 0.17479 0.59388
 H205 H 0.45329 0.20385 0.53798
 H206 H 0.51295 0.28531 0.53008
 H207 H 0.51291 0.31298 0.58750
 H208 H 0.45541 0.26773 0.67617
 H209 H 0.45659 0.24041 0.62024
 H210 H 0.52123 0.20815 0.43435
 C211 C 0.74985 0.25147 0.52866
 C212 C 0.75009 0.25061 0.46620
 C213 C 0.73230 0.23407 0.43185
 C214 C 0.76822 0.26590 0.42974
 C215 C 0.76632 0.26938 0.56290
 C216 C 0.73315 0.23435 0.56502
 C217 C 0.73519 0.22059 0.39383
 C218 C 0.71822 0.20410 0.36469
 C219 C 0.69809 0.20093 0.37260
 C220 C 0.69540 0.21495 0.40912
 C221 C 0.71236 0.23138 0.43838
 C222 C 0.78793 0.26827 0.43924
 C223 C 0.80503 0.28300 0.40564
 C224 C 0.80273 0.29567 0.36224
 C225 C 0.78292 0.29307 0.35229
 C226 C 0.76577 0.27816 0.38537
 C227 C 0.77091 0.28962 0.54952
 C228 C 0.78725 0.30655 0.57913
 C229 C 0.79953 0.30374 0.62343
 C230 C 0.79415 0.28311 0.63800
 C231 C 0.77776 0.26623 0.60824
 C232 C 0.71986 0.23802 0.60164
 C233 C 0.70315 0.22159 0.63228
 C234 C 0.69973 0.20130 0.62765
 C235 C 0.71349 0.19781 0.59247
 C236 C 0.73003 0.21419 0.56132
 H237 H 0.75049 0.22247 0.38829
 H238 H 0.72080 0.19347 0.33744
 H239 H 0.68018 0.21320 0.41512
 H240 H 0.70992 0.24188 0.46675
 H241 H 0.79004 0.25878 0.47290
 H242 H 0.82015 0.28478 0.41440
 H243 H 0.75065 0.27644 0.37726
 H244 H 0.76184 0.29233 0.51579
 H245 H 0.78970 0.32175 0.56800
 H246 H 0.80316 0.27973 0.66992
 H247 H 0.77444 0.25067 0.61913
 H248 H 0.72209 0.25350 0.60506
 H249 H 0.69288 0.22470 0.65960
 H250 H 0.71114 0.18232 0.58781
 H251 H 0.74024 0.21113 0.53351
 H252 H 0.78072 0.30251 0.31866
 N253 N 0.97955 0.47157 0.10710
 N254 N 0.96362 0.46189 0.14483
 N255 N 1.02313 0.48082 0.06366
 N256 N 1.03910 0.47799 0.07086
 N257 N 1.02329 0.49356 0.10547
 N258 N 1.03940 0.49971 0.14240
 N259 N 0.97942 0.45870 0.06579
 N260 N 0.96343 0.43985 0.07465
 C261 C 0.95372 0.44210 0.12423
 C262 C 1.04912 0.48984 0.12023
 N263 N 1.02237 0.49194 -0.11202
 N264 N 1.03755 0.49689 -0.15167
 N265 N 0.97892 0.45778 -0.06670
 N266 N 0.96289 0.43882 -0.07230
 N267 N 0.97876 0.46989 -0.11028
 N268 N 0.96263 0.45950 -0.14675
 N269 N 1.02270 0.47989 -0.06852
 N270 N 1.03826 0.47644 -0.07722
 Mn271 Mn 1.00104 0.46906 -0.00142
 C272 C 1.04739 0.48718 -0.12935
 C273 C 0.95287 0.44011 -0.12256
 N274 N 1.02315 0.53208 0.10245
 N275 N 1.03942 0.54244 0.13845
 N276 N 0.97921 0.52215 0.06085
 N277 N 0.96378 0.52575 0.06917
 N278 N 0.97938 0.51002 0.10435
 N279 N 0.96396 0.50493 0.14332
 N280 N 1.02282 0.54423 0.05927
 N281 N 1.03881 0.56322 0.06493
 Mn282 Mn 1.00135 0.50181 0.10562
 C283 C 1.04902 0.56187 0.11461
 C284 C 0.95435 0.51487 0.12071
 N285 N 0.97865 0.50838 -0.11313
 N286 N 0.96274 0.50220 -0.15067
 N287 N 1.02231 0.54323 -0.07282
 N288 N 1.03834 0.56208 -0.08029
 N289 N 1.02238 0.53058 -0.11450
 N290 N 1.03853 0.54052 -0.15154
 N291 N 0.97859 0.52106 -0.07150
 N292 N 0.96260 0.52386 -0.07969
 Mn293 Mn 1.00055 0.50021 -0.11322
 Mn294 Mn 1.00071 0.53287 -0.00609
 Cl295 Cl 1.00091 0.50098 -0.00377
 C296 C 0.95285 0.51197 -0.12937
 C297 C 1.04831 0.56020 -0.12968
 N298 N 0.47016 0.49268 0.11503
 N299 N 0.46020 0.49891 0.15128
 N300 N 0.47924 0.45821 0.07234
 N301 N 0.47591 0.43918 0.07963
 N302 N 0.49146 0.47045 0.11574
 N303 N 0.49693 0.46017 0.15340
 N304 N 0.45776 0.48029 0.07215
 N305 N 0.43896 0.47771 0.07828
 C306 C 0.44074 0.48942 0.12798
 C307 C 0.48709 0.44067 0.13044
 N308 N 0.49294 0.47202 -0.10236
 N309 N 0.49826 0.46213 -0.14186
 N310 N 0.45875 0.48124 -0.05999
 N311 N 0.43985 0.47809 -0.06809
 N312 N 0.47149 0.49407 -0.10175
 N313 N 0.46152 0.49990 -0.13966
 N314 N 0.48022 0.45917 -0.06057
 N315 N 0.47653 0.44014 -0.07071
 Mn316 Mn 0.46877 0.46947 0.00595
 C317 C 0.48796 0.44226 -0.12160
 C318 C 0.44177 0.48980 -0.11795
 N319 N 0.53029 0.50876 0.11893
 N320 N 0.53966 0.50239 0.15709
 N321 N 0.52214 0.54367 0.07647
 N322 N 0.52485 0.56247 0.08249
 N323 N 0.50914 0.53110 0.11811
 N324 N 0.50273 0.54104 0.15391
 N325 N 0.54329 0.52118 0.07704
 N326 N 0.56193 0.52356 0.08553
 Mn327 Mn 0.50023 0.50075 0.11765
 C328 C 0.55940 0.51174 0.13583
 C329 C 0.51273 0.56064 0.13118
 N330 N 0.51075 0.53268 -0.09895
 N331 N 0.50572 0.54338 -0.13644
 N332 N 0.54418 0.52217 -0.05523
 N333 N 0.56309 0.52518 -0.06198
 N334 N 0.53200 0.51047 -0.09958
 N335 N 0.54237 0.50535 -0.13808
 N336 N 0.52304 0.54462 -0.05516
 N337 N 0.52650 0.56371 -0.06121
 Mn338 Mn 0.50178 0.50233 -0.10144
 Mn339 Mn 0.53341 0.53311 0.01079
 Cl340 Cl 0.50105 0.50140 0.00819
 C341 C 0.51564 0.56272 -0.11220
 C342 C 0.56174 0.51461 -0.11389
 N343 N 0.45658 -0.02057 0.06538
 N344 N 0.43787 -0.03704 0.07096
 N345 N 0.49149 0.02326 0.10649
 N346 N 0.49711 0.03911 0.14401
 N347 N 0.47903 0.02313 0.06368
 N348 N 0.47592 0.03893 0.07062
 N349 N 0.46895 -0.02043 0.10852
 N350 N 0.45900 -0.03680 0.14459
 C351 C 0.43959 -0.04697 0.12084
 C352 C 0.48729 0.04878 0.12091
 N353 N 0.54202 0.02160 0.06462
 N354 N 0.56112 0.03734 0.07076
 N355 N 0.50709 -0.02120 0.10931
 N356 N 0.50194 -0.03611 0.15012
 N357 N 0.51895 -0.02212 0.06629
 N358 N 0.52212 -0.03778 0.07658
 N359 N 0.52980 0.02234 0.10678
 N360 N 0.54028 0.03852 0.14294
 Mn361 Mn 0.49935 0.00105 0.10852
 C362 C 0.55982 0.04773 0.11994
 C363 C 0.51135 -0.04640 0.12904
 N364 N 0.47893 0.02274 -0.06822
 N365 N 0.47586 0.03852 -0.07660
 N366 N 0.46885 -0.02088 -0.11013
 N367 N 0.45857 -0.03688 -0.14714
 N368 N 0.45656 -0.02092 -0.06684
 N369 N 0.43765 -0.03699 -0.07292
 N370 N 0.49165 0.02281 -0.11002
 N371 N 0.49770 0.03870 -0.14780
 Mn372 Mn 0.46754 0.00107 -0.00148
 C373 C 0.48769 0.04835 -0.12638
 C374 C 0.43911 -0.04677 -0.12336
 N375 N 0.51895 -0.02242 -0.06658
 N376 N 0.52174 -0.03838 -0.07515
 N377 N 0.52987 0.02193 -0.10961
 N378 N 0.54046 0.03792 -0.14672
 N379 N 0.54207 0.02124 -0.06736
 N380 N 0.56129 0.03668 -0.07466
 N381 N 0.50698 -0.02174 -0.10966
 N382 N 0.50129 -0.03718 -0.14860
 Mn383 Mn 0.53069 -0.00050 -0.00074
 Mn384 Mn 0.49936 0.00058 -0.11061
 Cl385 Cl 0.49925 0.00055 -0.00108
 C386 C 0.51058 -0.04747 -0.12655
 C387 C 0.56007 0.04696 -0.12437
 C388 C 1.17376 0.51385 0.37891
 C389 C 1.15687 0.51421 0.35226
 C390 C 1.14870 0.50435 0.29641
 C391 C 1.15785 0.49433 0.26659
 C392 C 1.17473 0.49390 0.29282
 C393 C 1.18311 0.50345 0.35030
 N394 N 1.13091 0.50437 0.27147
 N395 N 1.12235 0.49487 0.22195
 C396 C 1.10436 0.49438 0.19677
 C397 C 1.09553 0.48288 0.14339
 C398 C 1.07764 0.48150 0.11834
 C399 C 1.06828 0.49171 0.14635
 C400 C 1.07729 0.50349 0.19956
 C401 C 1.09519 0.50480 0.22472
 H402 H 1.17837 0.52081 0.42381
 H403 H 1.14983 0.52188 0.37601
 H404 H 1.15202 0.48683 0.22269
 H405 H 1.18150 0.48672 0.26565
 H406 H 1.10247 0.47480 0.12144
 H407 H 1.07109 0.47238 0.07717
 H408 H 1.07042 0.51155 0.22199
 H409 H 1.10176 0.51382 0.26602
 C410 C 0.49144 0.66302 0.38588
 C411 C 0.49136 0.64571 0.36112
 C412 C 0.49719 0.64583 0.29999
 C413 C 0.50266 0.66335 0.26316
 C414 C 0.50259 0.68061 0.28769
 C415 C 0.49719 0.68075 0.34956
 N416 N 0.49794 0.62824 0.27697
 N417 N 0.50540 0.62837 0.22427
 C418 C 0.50650 0.61098 0.20128
 C419 C 0.51700 0.61315 0.14603
 C420 C 0.51901 0.59676 0.12321
 C421 C 0.51035 0.57782 0.15519
 C422 C 0.49950 0.57552 0.21016
 C423 C 0.49766 0.59201 0.23325
 H424 H 0.48754 0.66272 0.43394
 H425 H 0.48718 0.63233 0.39001
 H426 H 0.50708 0.66374 0.21558
 H427 H 0.50677 0.69386 0.25821
 H428 H 0.52384 0.62768 0.12097
 H429 H 0.52735 0.59893 0.08052
 H430 H 0.49263 0.56106 0.23561
 H431 H 0.48941 0.58995 0.27600
 C432 C 0.34425 -0.17658 0.36909
 C433 C 0.36064 -0.15861 0.34335
 C434 C 0.35846 -0.15144 0.28616
 C435 C 0.33978 -0.16276 0.25388
 C436 C 0.32335 -0.18080 0.27925
 C437 C 0.32507 -0.18801 0.33796
 N438 N 0.37526 -0.13242 0.26266
 N439 N 0.37378 -0.12420 0.21306
 C440 C 0.39053 -0.10500 0.19033
 C441 C 0.38756 -0.09630 0.13702
 C442 C 0.40348 -0.07737 0.11435
 C443 C 0.42269 -0.06689 0.14476
 C444 C 0.42570 -0.07571 0.19804
 C445 C 0.40975 -0.09459 0.22075
 H446 H 0.34652 -0.18066 0.41493
 H447 H 0.37497 -0.14992 0.36883
 H448 H 0.33783 -0.15767 0.20903
 H449 H 0.30956 -0.18924 0.25149
 H450 H 0.37282 -0.10418 0.11319
 H451 H 0.40077 -0.07097 0.07303
 H452 H 0.44037 -0.06800 0.22229
 H453 H 0.41244 -0.10101 0.26204
 C454 C 0.82440 0.48553 0.36093
 C455 C 0.84113 0.48506 0.33351
 C456 C 0.85554 0.50182 0.29798
 C457 C 0.85319 0.51926 0.29063
 C458 C 0.83662 0.51985 0.31863
 C459 C 0.82203 0.50296 0.35384
 N460 N 0.87246 0.50086 0.27022
 N461 N 0.88444 0.51436 0.23130
 C462 C 0.90164 0.51386 0.20387
 C463 C 0.91243 0.52770 0.15603
 C464 C 0.92943 0.52786 0.12854
 C465 C 0.93610 0.51430 0.14915
 C466 C 0.92528 0.50041 0.19727
 C467 C 0.90809 0.50011 0.22430
 H468 H 0.81347 0.47240 0.38835
 H469 H 0.84282 0.47158 0.33970
 H470 H 0.86418 0.53245 0.26355
 H471 H 0.83505 0.53339 0.31213
 H472 H 0.90760 0.53838 0.13998
 H473 H 0.93750 0.53875 0.09160
 H474 H 0.93006 0.48976 0.21388
 H475 H 0.90001 0.48931 0.26140
 C476 C 0.46364 0.30261 0.29837
 C477 C 0.46285 0.31854 0.26677
 C478 C 0.47989 0.33875 0.26734
 C479 C 0.49801 0.34282 0.29895
 C480 C 0.49891 0.32686 0.32989
 C481 C 0.48168 0.30664 0.33032
 N482 N 0.47835 0.35491 0.23652
 N483 N 0.49211 0.37393 0.24286
 C484 C 0.49079 0.39031 0.21277
 C485 C 0.50473 0.41081 0.22964
 C486 C 0.50353 0.42719 0.20275
 C487 C 0.48850 0.42329 0.15775
 C488 C 0.47476 0.40273 0.13987
 C489 C 0.47580 0.38631 0.16747
 H490 H 0.45022 0.28711 0.29761
 H491 H 0.44882 0.31520 0.24249
 H492 H 0.51141 0.35832 0.29995
 H493 H 0.51292 0.33041 0.35462
 H494 H 0.51638 0.41407 0.26437
 H495 H 0.51439 0.44290 0.21713
 H496 H 0.46304 0.39933 0.10525
 H497 H 0.46492 0.37057 0.15349
 C498 C 0.66110 0.17177 0.37687
 C499 C 0.64413 0.15439 0.35097
 C500 C 0.64564 0.14759 0.29241
 C501 C 0.66432 0.15857 0.25936
 C502 C 0.68128 0.17604 0.28507
 C503 C 0.67990 0.18278 0.34428
 N504 N 0.62810 0.12941 0.26801
 N505 N 0.62884 0.12150 0.21700
 C506 C 0.61127 0.10322 0.19306
 C507 C 0.61357 0.09448 0.13895
 C508 C 0.59684 0.07641 0.11504
 C509 C 0.57748 0.06688 0.14490
 C510 C 0.57513 0.07579 0.19888
 C511 C 0.59190 0.09379 0.22292
 H512 H 0.65962 0.17634 0.42293
 H513 H 0.62983 0.14601 0.37693
 H514 H 0.66581 0.15367 0.21381
 H515 H 0.69543 0.18434 0.25844
 H516 H 0.62841 0.10163 0.11551
 H517 H 0.59905 0.06992 0.07321
 H518 H 0.56037 0.06878 0.22276
 H519 H 0.58973 0.10029 0.26476
 C520 C 0.46173 0.15851 -0.31107
 C521 C 0.46107 0.14166 -0.28078
 C522 C 0.47933 0.14134 -0.26915
 C523 C 0.49846 0.15837 -0.28673
 C524 C 0.49924 0.17546 -0.31589
 C525 C 0.48085 0.17579 -0.32938
 N526 N 0.47801 0.12354 -0.23977
 N527 N 0.49318 0.12025 -0.23926
 C528 C 0.49180 0.10247 -0.20945
 C529 C 0.50677 0.09694 -0.22238
 C530 C 0.50544 0.07927 -0.19549
 C531 C 0.48929 0.06713 -0.15423
 C532 C 0.47455 0.07297 -0.14019
 C533 C 0.47568 0.09041 -0.16797
 H534 H 0.44718 0.15816 -0.31792
 H535 H 0.44623 0.12868 -0.26680
 H536 H 0.51280 0.15845 -0.27810
 H537 H 0.51431 0.18790 -0.33035
 H538 H 0.51929 0.10616 -0.25412
 H539 H 0.51707 0.07517 -0.20675
 H540 H 0.46197 0.06387 -0.10848
 H541 H 0.46402 0.09449 -0.15694
 C542 C 0.67421 0.51790 -0.38782
 C543 C 0.65706 0.51796 -0.36207
 C544 C 0.65194 0.51281 -0.30033
 C545 C 0.66405 0.50730 -0.26440
 C546 C 0.68096 0.50680 -0.29022
 C547 C 0.68647 0.51218 -0.35251
 N548 N 0.63434 0.51315 -0.27533
 N549 N 0.63130 0.51275 -0.21769
 C550 C 0.61355 0.51276 -0.19256
 C551 C 0.61368 0.51765 -0.13050
 C552 C 0.59682 0.51830 -0.10490
 C553 C 0.57935 0.51357 -0.14085
 C554 C 0.57900 0.50818 -0.20279
 C555 C 0.59607 0.50796 -0.22868
 H556 H 0.67714 0.52146 -0.43627
 H557 H 0.64772 0.52207 -0.39039
 H558 H 0.66039 0.50328 -0.21640
 H559 H 0.69011 0.50295 -0.26023
 H560 H 0.62703 0.52128 -0.10217
 H561 H 0.59741 0.52238 -0.05692
 H562 H 0.56570 0.50448 -0.23142
 H563 H 0.59557 0.50396 -0.27668
 C564 C 0.82725 0.34065 -0.37799
 C565 C 0.84461 0.35745 -0.35138
 C566 C 0.85220 0.35528 -0.29496
 C567 C 0.84203 0.33606 -0.26465
 C568 C 0.82462 0.31920 -0.29096
 C569 C 0.81687 0.32104 -0.34858
 N570 N 0.87038 0.37272 -0.27006
 N571 N 0.87872 0.37161 -0.22026
 C572 C 0.89705 0.38906 -0.19604
 C573 C 0.90590 0.38653 -0.14242
 C574 C 0.92405 0.40313 -0.11832
 C575 C 0.93359 0.42260 -0.14757
 C576 C 0.92458 0.42517 -0.20109
 C577 C 0.90648 0.40854 -0.22522
 H578 H 0.82278 0.34308 -0.42311
 H579 H 0.85244 0.37218 -0.37544
 H580 H 0.84749 0.33407 -0.22049
 H581 H 0.81700 0.30498 -0.26455
 H582 H 0.89878 0.37160 -0.11951
 H583 H 0.93062 0.40072 -0.07690
 H584 H 0.93158 0.44002 -0.22449
 H585 H 0.89991 0.41091 -0.26670
 C586 C 0.51663 -0.17556 -0.26357
 C587 C 0.51748 -0.15894 -0.23141
 C588 C 0.51071 -0.14642 -0.25896
 C589 C 0.50307 -0.15071 -0.31939
 C590 C 0.50231 -0.16724 -0.35167
 C591 C 0.50907 -0.17988 -0.32418
 N592 N 0.51197 -0.12935 -0.22520
 N593 N 0.50485 -0.11832 -0.24688
 C594 C 0.50618 -0.10096 -0.21478
 C595 C 0.49689 -0.09051 -0.24091
 C596 C 0.49818 -0.07324 -0.21184
 C597 C 0.50894 -0.06604 -0.15608
 C598 C 0.51820 -0.07661 -0.12958
 C599 C 0.51680 -0.09399 -0.15866
 H600 H 0.52172 -0.18515 -0.24078
 H601 H 0.52338 -0.15582 -0.18485
 H602 H 0.49787 -0.14118 -0.34192
 H603 H 0.49675 -0.16989 -0.39860
 H604 H 0.48869 -0.09573 -0.28413
 H605 H 0.49088 -0.06543 -0.23334
 H606 H 0.52655 -0.07141 -0.08657
 H607 H 0.52414 -0.10184 -0.13764
 C608 C 0.33880 0.50663 -0.38709
 C609 C 0.35613 0.50704 -0.36084
 C610 C 0.35523 0.49991 -0.30081
 C611 C 0.33677 0.49248 -0.26685
 C612 C 0.31946 0.49214 -0.29292
 C613 C 0.32024 0.49914 -0.35346
 N614 N 0.37313 0.50016 -0.27567
 N615 N 0.37280 0.49266 -0.22283
 C616 C 0.39049 0.49265 -0.19720
 C617 C 0.38824 0.48259 -0.14104
 C618 C 0.40496 0.48176 -0.11522
 C619 C 0.42432 0.49115 -0.14510
 C620 C 0.42668 0.50153 -0.20110
 C621 C 0.40986 0.50222 -0.22714
 H622 H 0.33984 0.51184 -0.43410
 H623 H 0.37023 0.51273 -0.38756
 H624 H 0.33571 0.48697 -0.22020
 H625 H 0.30553 0.48658 -0.26546
 H626 H 0.37341 0.47519 -0.11750
 H627 H 0.40271 0.47373 -0.07188
 H628 H 0.44143 0.50891 -0.22504
 H629 H 0.41197 0.51015 -0.27057
 C630 C 1.17852 0.65814 -0.37450
 C631 C 1.16083 0.64134 -0.34893
 C632 C 1.15122 0.64404 -0.29762
 C633 C 1.15965 0.66382 -0.27144
 C634 C 1.17734 0.68071 -0.29685
 C635 C 1.18715 0.67830 -0.34928
 N636 N 1.13280 0.62654 -0.27363
 N637 N 1.12318 0.62806 -0.22744
 C638 C 1.10461 0.61073 -0.20362
 C639 C 1.09502 0.61373 -0.15264
 C640 C 1.07673 0.59728 -0.12858
 C641 C 1.06770 0.57749 -0.15532
 C642 C 1.07738 0.57443 -0.20640
 C643 C 1.09571 0.59093 -0.23044
 H644 H 1.18466 0.65524 -0.41590
 H645 H 1.15437 0.62617 -0.36985
 H646 H 1.15260 0.66627 -0.23124
 H647 H 1.18353 0.69544 -0.27361
 H648 H 1.10173 0.62890 -0.13160
 H649 H 1.06965 0.60009 -0.08909
 H650 H 1.07077 0.55933 -0.22781
 H651 H 1.10285 0.58823 -0.26995
 C652 C 0.82670 0.52129 -0.26981
 C653 C 0.84368 0.52259 -0.23840
 C654 C 0.85308 0.51153 -0.25875
 C655 C 0.84515 0.49891 -0.31085
 C656 C 0.82818 0.49752 -0.34236
 C657 C 0.81858 0.50877 -0.32282
 N658 N 0.87081 0.51361 -0.22655
 N659 N 0.87998 0.50396 -0.24364
 C660 C 0.89790 0.50598 -0.21305
 C661 C 0.90698 0.49486 -0.23566
 C662 C 0.92476 0.49673 -0.20817
 C663 C 0.93381 0.50983 -0.15735
 C664 C 0.92458 0.52087 -0.13420
 C665 C 0.90675 0.51899 -0.16187
 H666 H 0.81966 0.52966 -0.25074
 H667 H 0.84954 0.53226 -0.19792
 H668 H 0.85225 0.49031 -0.32792
 H669 H 0.82341 0.48831 -0.38378
 H670 H 0.90029 0.48479 -0.27504
 H671 H 0.93148 0.48798 -0.22692
 H672 H 0.93122 0.53105 -0.09501
 H673 H 0.89999 0.52774 -0.14357
 C674 C 0.47319 0.30553 -0.27207
 C675 C 0.47275 0.32147 -0.23963
 C676 C 0.48272 0.34168 -0.26277
 C677 C 0.49322 0.34586 -0.31914
 C678 C 0.49369 0.33000 -0.35183
 C679 C 0.48366 0.30939 -0.32913
 N680 N 0.48183 0.35762 -0.22855
 N681 N 0.49116 0.37642 -0.24660
 C682 C 0.49032 0.39256 -0.21353
 C683 C 0.50142 0.41283 -0.23634
 C684 C 0.50075 0.42898 -0.20612
 C685 C 0.48887 0.42509 -0.15241
 C686 C 0.47780 0.40474 -0.12919
 C687 C 0.47852 0.38856 -0.15951
 H688 H 0.46590 0.29041 -0.25055
 H689 H 0.46472 0.31806 -0.19592
 H690 H 0.50089 0.36136 -0.33842
 H691 H 0.50128 0.33400 -0.39616
 H692 H 0.51057 0.41610 -0.27789
 H693 H 0.50947 0.44450 -0.22508
 H694 H 0.46854 0.40131 -0.08784
 H695 H 0.46979 0.37299 -0.14099
 C696 C 0.66178 0.18148 -0.34653
 C697 C 0.64455 0.16444 -0.31973
 C698 C 0.64687 0.14953 -0.28718
 C699 C 0.66672 0.15184 -0.28171
 C700 C 0.68391 0.16873 -0.30909
 C701 C 0.68161 0.18371 -0.34181
 N702 N 0.62886 0.13206 -0.26117
 N703 N 0.63024 0.11926 -0.22554
 C704 C 0.61236 0.10146 -0.20037
 C705 C 0.61523 0.08972 -0.15541
 C706 C 0.59821 0.07210 -0.13033
 C707 C 0.57798 0.06577 -0.15054
 C708 C 0.57508 0.07753 -0.19583
 C709 C 0.59214 0.09532 -0.22039
 H710 H 0.65954 0.19268 -0.37208
 H711 H 0.62933 0.16281 -0.32447
 H712 H 0.66892 0.14049 -0.25691
 H713 H 0.69905 0.17016 -0.30446
 H714 H 0.63074 0.09427 -0.13970
 H715 H 0.60090 0.06333 -0.09553
 H716 H 0.55965 0.07304 -0.21208
 H717 H 0.58954 0.10412 -0.25531
 C718 C 1.17990 0.48786 -0.25914
 C719 C 1.16326 0.48708 -0.22688
 C720 C 1.14681 0.48686 -0.25855
 C721 C 1.14698 0.48709 -0.32314
 C722 C 1.16342 0.48757 -0.35537
 C723 C 1.18008 0.48806 -0.32371
 N724 N 1.13014 0.48646 -0.22452
 N725 N 1.11682 0.48980 -0.25064
 C726 C 1.09977 0.48921 -0.21850
 C727 C 1.08795 0.49628 -0.24871
 C728 C 1.07107 0.49582 -0.21936
 C729 C 1.06551 0.48792 -0.15939
 C730 C 1.07733 0.48072 -0.12902
 C731 C 1.09444 0.48147 -0.15823
 H732 H 1.19251 0.48811 -0.23375
 H733 H 1.16329 0.48685 -0.17714
 H734 H 1.13441 0.48686 -0.34872
 H735 H 1.16330 0.48791 -0.40513
 H736 H 1.09189 0.50223 -0.29518
 H737 H 1.06222 0.50143 -0.24392
 H738 H 1.07339 0.47460 -0.08271
 H739 H 1.10334 0.47584 -0.13409
 C740 C 0.51902 0.67576 -0.38272
 C741 C 0.51896 0.65858 -0.35684
 C742 C 0.51399 0.65361 -0.29497
 C743 C 0.50870 0.66586 -0.25904
 C744 C 0.50827 0.68281 -0.28504
 C745 C 0.51357 0.68821 -0.34743
 N746 N 0.51422 0.63596 -0.27002
 N747 N 0.51417 0.63295 -0.21243
 C748 C 0.51409 0.61507 -0.18799
 C749 C 0.51952 0.61511 -0.12644
 C750 C 0.52012 0.59810 -0.10175
 C751 C 0.51481 0.58058 -0.13808
 C752 C 0.50888 0.58034 -0.19943
 C753 C 0.50871 0.59754 -0.22443
 H754 H 0.52244 0.67858 -0.43127
 H755 H 0.52286 0.64911 -0.38517
 H756 H 0.50478 0.66228 -0.21095
 H757 H 0.50457 0.69207 -0.25516
 H758 H 0.52361 0.62849 -0.09784
 H759 H 0.52461 0.59859 -0.05418
 H760 H 0.50471 0.56701 -0.22834
 H761 H 0.50429 0.59710 -0.27201
 C762 C 0.32955 -0.16140 -0.39039
 C763 C 0.34614 -0.14360 -0.36487
 C764 C 0.35102 -0.14304 -0.30276
 C765 C 0.33928 -0.16069 -0.26618
 C766 C 0.32294 -0.17873 -0.29181
 C767 C 0.31763 -0.17942 -0.35447
 N768 N 0.36810 -0.12446 -0.27832
 N769 N 0.37083 -0.12107 -0.22086
 C770 C 0.38819 -0.10255 -0.19712
 C771 C 0.38768 -0.09688 -0.13619
 C772 C 0.40419 -0.07863 -0.11223
 C773 C 0.42170 -0.06604 -0.14863
 C774 C 0.42240 -0.07197 -0.20935
 C775 C 0.40568 -0.08999 -0.23366
 H776 H 0.32683 -0.16116 -0.43913
 H777 H 0.35523 -0.13013 -0.39369
 H778 H 0.34282 -0.16060 -0.21790
 H779 H 0.31406 -0.19180 -0.26152
 H780 H 0.37433 -0.10647 -0.10751
 H781 H 0.40335 -0.07446 -0.06511
 H782 H 0.43573 -0.06253 -0.23830
 H783 H 0.40649 -0.09417 -0.28076
 C784 C 0.50777 -0.17936 0.26765
 C785 C 0.50842 -0.16290 0.23479
 C786 C 0.51029 -0.14561 0.26573
 C787 C 0.51186 -0.14477 0.33016
 C788 C 0.51157 -0.16105 0.36295
 C789 C 0.50940 -0.17854 0.33202
 N790 N 0.51060 -0.12911 0.23097
 N791 N 0.50835 -0.11505 0.25666
 C792 C 0.50898 -0.09821 0.22311
 C793 C 0.50258 -0.08572 0.25251
 C794 C 0.50310 -0.06905 0.22156
 C795 C 0.51044 -0.06435 0.16083
 C796 C 0.51699 -0.07681 0.13133
 C797 C 0.51614 -0.09374 0.16210
 H798 H 0.50624 -0.19262 0.24280
 H799 H 0.50726 -0.16370 0.18517
 H800 H 0.51343 -0.13152 0.35510
 H801 H 0.51273 -0.16014 0.41258
 H802 H 0.49708 -0.08900 0.29953
 H803 H 0.49801 -0.05967 0.24547
 H804 H 0.52267 -0.07354 0.08449
 H805 H 0.52127 -0.10314 0.13856
 C806 C 0.30461 0.47267 0.28936
 C807 C 0.32013 0.47121 0.25759
 C808 C 0.34062 0.48774 0.25800
 C809 C 0.34538 0.50608 0.28932
 C810 C 0.32983 0.50766 0.32044
 C811 C 0.30935 0.49088 0.32136
 N812 N 0.35638 0.48535 0.22784
 N813 N 0.37558 0.49854 0.23439
 C814 C 0.39157 0.49627 0.20540
 C815 C 0.41219 0.50965 0.22249
 C816 C 0.42817 0.50742 0.19714
 C817 C 0.42377 0.49190 0.15349
 C818 C 0.40309 0.47874 0.13525
 C819 C 0.38706 0.48081 0.16133
 H820 H 0.28889 0.45959 0.28895
 H821 H 0.31626 0.45702 0.23354
 H822 H 0.36111 0.51911 0.29018
 H823 H 0.33391 0.52180 0.34516
 H824 H 0.41585 0.52163 0.25630
 H825 H 0.44398 0.51787 0.21173
 H826 H 0.39930 0.46667 0.10161
 H827 H 0.37121 0.47035 0.14722
 C828 C 1.18439 0.65848 0.33734
 C829 C 1.16721 0.64191 0.30909
 C830 C 1.15311 0.64529 0.27580
 C831 C 1.15640 0.66552 0.27086
 C832 C 1.17344 0.68205 0.29966
 C833 C 1.18756 0.67867 0.33332
 N834 N 1.13533 0.62791 0.24903
 N835 N 1.12312 0.63013 0.21305
 C836 C 1.10495 0.61275 0.18789
 C837 C 1.09368 0.61624 0.14274
 C838 C 1.07559 0.59966 0.11828
 C839 C 1.06836 0.57934 0.13938
 C840 C 1.07970 0.57585 0.18466
 C841 C 1.09791 0.59241 0.20856
 H842 H 1.19494 0.65544 0.36353
 H843 H 1.16479 0.62638 0.31343
 H844 H 1.14568 0.66851 0.24551
 H845 H 1.17563 0.69750 0.29552
 H846 H 1.09892 0.63185 0.12657
 H847 H 1.06714 0.60278 0.08343
 H848 H 1.07451 0.56033 0.20157
 H849 H 1.10631 0.58934 0.24364
 C850 C 0.50119 0.16744 0.38909
 C851 C 0.50214 0.15085 0.36279
 C852 C 0.49574 0.14491 0.30214
 C853 C 0.48858 0.15599 0.26755
 C854 C 0.48771 0.17265 0.29366
 C855 C 0.49389 0.17851 0.35489
 N856 N 0.49634 0.12745 0.27716
 N857 N 0.48931 0.12040 0.22391
 C858 C 0.48958 0.10281 0.19861
 C859 C 0.47995 0.09503 0.14198
 C860 C 0.47932 0.07753 0.11661
 C861 C 0.48848 0.06759 0.14742
 C862 C 0.49846 0.07560 0.20385
 C863 C 0.49895 0.09305 0.22943
 H864 H 0.50578 0.17132 0.43660
 H865 H 0.50762 0.14240 0.39001
 H866 H 0.48364 0.15178 0.22042
 H867 H 0.48233 0.18103 0.26575
 H868 H 0.47270 0.10243 0.11776
 H869 H 0.47159 0.07176 0.07294
 H870 H 0.50567 0.06826 0.22852
 H871 H 0.50655 0.09883 0.27323
 C872 C 0.68980 0.50791 0.26210
 C873 C 0.67418 0.50930 0.23065
 C874 C 0.65581 0.50489 0.26073
 C875 C 0.65314 0.49890 0.32287
 C876 C 0.66878 0.49765 0.35448
 C877 C 0.68735 0.50222 0.32458
 N878 N 0.64032 0.50703 0.22788
 N879 N 0.62274 0.50171 0.25176
 C880 C 0.60716 0.50414 0.22075
 C881 C 0.58764 0.49602 0.24832
 C882 C 0.57211 0.49839 0.22036
 C883 C 0.57593 0.50915 0.16440
 C884 C 0.59554 0.51730 0.13656
 C885 C 0.61105 0.51476 0.16444
 H886 H 0.70378 0.51126 0.23747
 H887 H 0.67641 0.51388 0.18275
 H888 H 0.63913 0.49554 0.34733
 H889 H 0.66652 0.49360 0.40279
 H890 H 0.58448 0.48785 0.29174
 H891 H 0.55716 0.49192 0.24288
 H892 H 0.59886 0.52561 0.09333
 H893 H 0.62608 0.52123 0.14238
 C894 C 0.83536 0.30718 0.30143
 C895 C 0.85276 0.32255 0.27021
 C896 C 0.85627 0.34280 0.26611
 C897 C 0.84191 0.34746 0.29273
 C898 C 0.82437 0.33205 0.32323
 C899 C 0.82100 0.31180 0.32826
 N900 N 0.87457 0.35836 0.23547
 N901 N 0.88016 0.37752 0.23835
 C902 C 0.89839 0.39331 0.20815
 C903 C 0.90532 0.41409 0.22197
 C904 C 0.92333 0.42994 0.19467
 C905 C 0.93456 0.42523 0.15222
 C906 C 0.92740 0.40438 0.13742
 C907 C 0.90951 0.38849 0.16550
 H908 H 0.83301 0.29165 0.30426
 H909 H 0.86367 0.31874 0.24979
 H910 H 0.84425 0.36299 0.29005
 H911 H 0.81363 0.33605 0.34394
 H912 H 0.89685 0.41799 0.25460
 H913 H 0.92842 0.44588 0.20665
 H914 H 0.93576 0.40035 0.10480
 H915 H 0.90437 0.37252 0.15386
   
