data_POSCAR
  _audit_creation_date              2014-09-24
  _audit_creation_method            'ToBaCCo'
  _symmetry_space_group_name_H-M    'P1'
  _symmetry_Int_Tables_number       1
  _symmetry_cell_setting            triclinic
  loop_
  _symmetry_equiv_pos_as_xyz
 x,y,z
_cell_length_a 17.8647
_cell_length_b 17.9994
_cell_length_c 29.0835
_cell_angle_alpha 89.971700
_cell_angle_beta 94.844800
_cell_angle_gamma 89.886600
loop_
  _atom_site_label
  _atom_site_type_symbol
  _atom_site_fract_x
  _atom_site_fract_y
  _atom_site_fract_z
C1 C -0.00099 0.69973 0.99996
 C2 C -0.01460 0.66114 1.03998
 C3 C -0.01689 0.58333 1.03972
 C4 C -0.00122 0.54245 0.99993
 C5 C 0.01457 0.58331 0.96016
 C6 C 0.01251 0.66114 0.95992
 C7 C -0.00131 0.45844 0.99992
 C8 C -0.00287 0.41756 0.95806
 C9 C -0.00088 0.33981 0.95842
 C10 C -0.00143 0.30142 0.99990
 C11 C -0.00192 0.33974 1.04140
 C12 C 0.00020 0.41747 1.04177
 H13 H -0.00089 0.76010 0.99998
 H14 H -0.03141 0.55606 1.07078
 H15 H 0.02903 0.55601 0.92908
 H16 H -0.00611 0.44455 0.92483
 H17 H -0.00146 0.24109 0.99990
 H18 H 0.00350 0.44438 1.07500
 C19 C 0.30296 0.01222 0.50582
 C20 C 0.35042 0.00503 0.54608
 C21 C 0.42840 0.00378 0.54390
 C22 C 0.46039 0.01387 0.50130
 C23 C 0.41054 0.02318 0.46106
 C24 C 0.33264 0.02013 0.46334
 C25 C 0.54449 0.01381 0.49882
 C26 C 0.57648 0.00365 0.45623
 C27 C 0.65450 0.00486 0.45399
 C28 C 0.70199 0.01202 0.49429
 C29 C 0.67226 0.01995 0.53682
 C30 C 0.59429 0.02311 0.53906
 H31 H 0.24250 0.01107 0.50751
 H32 H 0.46269 -0.00600 0.57568
 H33 H 0.43077 0.03291 0.42766
 H34 H 0.54198 -0.00614 0.42453
 H35 H 0.76252 0.01084 0.49259
 H36 H 0.57379 0.03292 0.57240
 C37 C 0.11969 0.00671 0.27656
 H38 H 0.12702 0.00591 0.24002
 C39 C 0.18234 0.01341 0.30867
 H40 H 0.23819 0.01688 0.29696
 C41 C 0.03820 0.00430 0.33682
 H42 H -0.01785 0.00208 0.34793
 C43 C 0.09893 0.01107 0.36985
 H44 H 0.08923 0.01279 0.40612
 N45 N 0.04939 0.00125 0.29115
 C46 C -0.09849 -0.10910 0.18481
 H47 H -0.14715 -0.07343 0.18572
 C48 C -0.09912 -0.16712 0.15297
 H49 H -0.14836 -0.17617 0.12926
 C50 C 0.02691 -0.13789 0.21255
 H51 H 0.07623 -0.12567 0.23531
 C52 C 0.02864 -0.19654 0.18115
 H53 H 0.07958 -0.22887 0.17957
 Zn54 Zn -0.03583 -0.00516 0.24767
 N55 N -0.03523 -0.09402 0.21265
 C56 C -0.03108 0.06383 0.16129
 N57 N -0.03315 0.07746 0.20719
 C58 C -0.02768 0.14804 0.22411
 C59 C -0.02103 0.20833 0.19418
 C60 C -0.02458 0.12207 0.13043
 C61 C -0.13623 -0.06923 0.30356
 C62 C -0.19192 -0.07125 0.33437
 C63 C -0.22416 0.05566 0.31381
 C64 C -0.16784 0.05527 0.28318
 N65 N -0.12361 -0.00585 0.27990
 H66 H -0.03301 0.00769 0.14837
 H67 H -0.02743 0.15736 0.26087
 H68 H -0.01658 0.26432 0.20774
 H69 H -0.02285 0.11028 0.09400
 H70 H -0.10003 -0.11688 0.30040
 H71 H -0.19860 -0.12056 0.35500
 H72 H -0.25632 0.10583 0.31831
 H73 H -0.15718 0.10488 0.26391
 C74 C -0.03437 -0.21007 0.15036
 C75 C 0.17160 0.01541 0.35577
 C76 C -0.23493 -0.00763 0.34045
 C77 C -0.01937 0.19488 0.14689
 C78 C 0.02657 0.14834 0.77587
 H79 H 0.02714 0.15776 0.73916
 C80 C 0.01951 0.20861 0.80575
 H81 H 0.01558 0.26467 0.79221
 C82 C 0.02840 0.06395 0.83859
 H83 H 0.02990 0.00776 0.85148
 C84 C 0.02145 0.12216 0.86940
 H85 H 0.01896 0.11028 0.90578
 N86 N 0.03152 0.07768 0.79278
 C87 C 0.13665 -0.06896 0.69713
 H88 H 0.10033 -0.11648 0.69996
 C89 C 0.19302 -0.07108 0.66679
 H90 H 0.20010 -0.12032 0.64617
 C91 C 0.16796 0.05529 0.71791
 H92 H 0.15697 0.10484 0.73716
 C93 C 0.22496 0.05558 0.68774
 H94 H 0.25729 0.10563 0.68357
 Zn95 Zn 0.03514 -0.00489 0.75237
 N96 N 0.12358 -0.00565 0.72075
 C97 C -0.03741 0.00493 0.66282
 N98 N -0.04942 0.00162 0.70837
 C99 C -0.12009 0.00679 0.72246
 C100 C -0.18226 0.01341 0.68995
 C101 C -0.09763 0.01162 0.62941
 C102 C 0.09720 -0.10878 0.81563
 C103 C 0.09762 -0.16685 0.84747
 C104 C -0.02960 -0.19645 0.81849
 C105 C -0.02765 -0.13775 0.78710
 N106 N 0.03429 -0.09377 0.78739
 H107 H 0.01891 0.00294 0.65211
 H108 H -0.12808 0.00581 0.75891
 H109 H -0.23840 0.01661 0.70127
 H110 H -0.08728 0.01351 0.59325
 H111 H 0.14571 -0.07303 0.81502
 H112 H 0.14653 -0.17584 0.87148
 H113 H -0.08042 -0.22887 0.81974
 H114 H -0.07668 -0.12559 0.76402
 C115 C 0.23625 -0.00763 0.66113
 C116 C 0.01687 0.19504 0.85297
 C117 C 0.03301 -0.20992 0.84966
 C118 C -0.17066 0.01563 0.64298
 C119 C -0.02364 -0.29961 0.07922
 C120 C -0.02949 -0.26105 0.11263
 C121 C -0.00644 0.29685 0.08286
 C122 C -0.01185 0.25378 0.11415
 C123 C 0.31715 -0.00071 0.58934
 C124 C 0.28335 -0.00422 0.62343
 C125 C -0.27948 0.02131 0.57569
 C126 C -0.23230 0.01990 0.60788
 C127 C 0.02174 -0.29958 0.92072
 C128 C 0.02781 -0.26097 0.88734
 C129 C 0.00370 0.29698 0.91696
 C130 C 0.00920 0.25394 0.88568
 C131 C -0.31423 -0.00057 0.41297
 C132 C -0.28117 -0.00417 0.37857
 C133 C 0.28149 0.02156 0.42234
 C134 C 0.23378 0.01992 0.39047
   
