data_POSCAR
  _audit_creation_date              2014-09-24
  _audit_creation_method            'ToBaCCo'
  _symmetry_space_group_name_H-M    'P1'
  _symmetry_Int_Tables_number       1
  _symmetry_cell_setting            triclinic
  loop_
  _symmetry_equiv_pos_as_xyz
 x,y,z
_cell_length_a 33.3025
_cell_length_b 33.3580
_cell_length_c 33.3146
_cell_angle_alpha 90.348200
_cell_angle_beta 89.892700
_cell_angle_gamma 90.493700
loop_
  _atom_site_label
  _atom_site_type_symbol
  _atom_site_fract_x
  _atom_site_fract_y
  _atom_site_fract_z
C1 C 0.70465 0.68311 0.96035
 H2 H 0.73447 0.68643 0.94778
 C3 C 0.67305 0.70544 0.94501
 H4 H 0.67899 0.72579 0.92055
 C5 C 0.66063 0.65051 1.00587
 H6 H 0.65576 0.62879 1.02929
 C7 C 0.62805 0.67206 0.99115
 H8 H 0.59820 0.66634 1.00288
 N9 N 0.69770 0.65518 0.98912
 C10 C 0.82089 0.64843 0.98829
 H11 H 0.82093 0.62801 0.96305
 C12 C 0.85615 0.66925 0.99804
 H13 H 0.88326 0.66388 0.98094
 C14 C 0.78613 0.67982 1.04189
 H15 H 0.75876 0.68352 1.05900
 C16 C 0.82078 0.70094 1.05288
 H17 H 0.82019 0.72045 1.07897
 Zn18 Zn 0.74085 0.62076 1.00149
 N19 N 0.78724 0.65284 1.01117
 C20 C 0.78021 0.55874 0.96106
 N21 N 0.75058 0.58622 0.95725
 C22 C 0.73069 0.59081 0.92190
 C23 C 0.74292 0.56980 0.88765
 C24 C 0.79352 0.53734 0.92757
 C25 C 0.74675 0.59406 1.08289
 C26 C 0.73267 0.57400 1.11692
 C27 C 0.68280 0.54098 1.07553
 C28 C 0.69772 0.56177 1.04244
 N29 N 0.72800 0.58896 1.04691
 H30 H 0.79528 0.55548 0.98958
 H31 H 0.70664 0.61216 0.91962
 H32 H 0.72870 0.57569 0.85913
 H33 H 0.81913 0.51778 0.93034
 H34 H 0.77166 0.61474 1.08577
 H35 H 0.74647 0.58012 1.14577
 H36 H 0.65726 0.52131 1.07106
 H37 H 0.68383 0.55771 1.01334
 C38 C 0.85643 0.69504 1.03129
 C39 C 0.63397 0.69888 0.95948
 C40 C 0.69942 0.54800 1.11379
 C41 C 0.77549 0.54371 0.89019
 C42 C 0.71415 0.30906 0.52908
 H43 H 0.74363 0.30235 0.54071
 C44 C 0.68082 0.28725 0.54248
 H45 H 0.68527 0.26365 0.56406
 C46 C 0.67260 0.34955 0.48872
 H47 H 0.66926 0.37445 0.46851
 C48 C 0.63842 0.32844 0.50135
 H49 H 0.60907 0.33741 0.49093
 N50 N 0.70936 0.34070 0.50404
 C51 C 0.83641 0.36903 0.48247
 H52 H 0.83707 0.40003 0.49189
 C53 C 0.87173 0.35106 0.46910
 H54 H 0.89938 0.36837 0.46824
 C55 C 0.79939 0.30936 0.46960
 H56 H 0.77091 0.29362 0.46862
 C57 C 0.83405 0.29028 0.45582
 H58 H 0.83183 0.25985 0.44462
 Zn59 Zn 0.75354 0.37649 0.49557
 N60 N 0.80106 0.34824 0.48214
 C61 C 0.78384 0.44197 0.54100
 N62 N 0.76270 0.40695 0.54328
 C63 C 0.75046 0.39225 0.57937
 C64 C 0.76162 0.41145 0.61500
 C65 C 0.79548 0.46228 0.57598
 C66 C 0.75483 0.40170 0.41515
 C67 C 0.74072 0.42239 0.38177
 C68 C 0.70062 0.46329 0.42621
 C69 C 0.71555 0.44190 0.45876
 N70 N 0.74117 0.41097 0.45257
 H71 H 0.79292 0.45340 0.51203
 H72 H 0.73341 0.36473 0.58095
 H73 H 0.75357 0.39817 0.64352
 H74 H 0.81410 0.48891 0.57370
 H75 H 0.77498 0.37679 0.41091
 H76 H 0.75001 0.41327 0.35193
 H77 H 0.67868 0.48639 0.43166
 H78 H 0.70501 0.44849 0.48881
 C79 C 0.87057 0.31153 0.45482
 C80 C 0.64223 0.29810 0.52991
 C81 C 0.71217 0.45254 0.38708
 C82 C 0.78504 0.44639 0.61348
 C83 C 0.20568 -0.19260 0.01655
 H84 H 0.23494 -0.20289 0.02576
 C85 C 0.17134 -0.21423 0.02752
 H86 H 0.17447 -0.24066 0.04587
 C87 C 0.16594 -0.14420 -0.01617
 H88 H 0.16362 -0.11666 -0.03268
 C89 C 0.13084 -0.16479 -0.00564
 H90 H 0.10191 -0.15245 -0.01340
 N91 N 0.20238 -0.15750 -0.00370
 C92 C 0.32996 -0.15051 -0.00674
 H93 H 0.33310 -0.12664 0.01515
 C94 C 0.36396 -0.17107 -0.01984
 H95 H 0.39322 -0.16289 -0.00807
 C96 C 0.28860 -0.18847 -0.05092
 H97 H 0.25920 -0.19435 -0.06353
 C98 C 0.32179 -0.20973 -0.06486
 H99 H 0.31754 -0.23195 -0.08825
 Zn100 Zn 0.24942 -0.12552 -0.01069
 N101 N 0.29342 -0.15876 -0.02320
 C102 C 0.27373 -0.05869 0.03671
 N103 N 0.26079 -0.09749 0.03766
 C104 C 0.25855 -0.11796 0.07280
 C105 C 0.27045 -0.09974 0.10868
 C106 C 0.28605 -0.03936 0.07197
 C107 C 0.25876 -0.09529 -0.08959
 C108 C 0.24694 -0.07313 -0.12292
 C109 C 0.20211 -0.03575 -0.07994
 C110 C 0.21478 -0.05859 -0.04753
 N111 N 0.24131 -0.08885 -0.05318
 H112 H 0.27618 -0.04323 0.00839
 H113 H 0.24878 -0.14888 0.07289
 H114 H 0.26994 -0.11682 0.13623
 H115 H 0.29776 -0.00906 0.07044
 H116 H 0.28003 -0.11923 -0.09350
 H117 H 0.25885 -0.08093 -0.15217
 H118 H 0.17852 -0.01406 -0.07526
 H119 H 0.20142 -0.05397 -0.01826
 C120 C 0.36016 -0.20016 -0.05011
 C121 C 0.13337 -0.19963 0.01733
 C122 C 0.21732 -0.04370 -0.11853
 C123 C 0.28515 -0.06032 0.10829
 C124 C 0.21112 0.18252 0.45114
 H125 H 0.23930 0.18356 0.43497
 C126 C 0.17818 0.20366 0.43673
 H127 H 0.18128 0.22118 0.40963
 C128 C 0.17142 0.15520 0.50356
 H129 H 0.16834 0.13505 0.52864
 C130 C 0.13783 0.17617 0.49037
 H131 H 0.10931 0.17203 0.50548
 N132 N 0.20689 0.15780 0.48323
 C133 C 0.32594 0.12319 0.52495
 H134 H 0.31894 0.09217 0.53087
 C135 C 0.36275 0.13872 0.53743
 H136 H 0.38358 0.11883 0.55186
 C137 C 0.30542 0.18703 0.50264
 H138 H 0.28264 0.20596 0.48993
 C139 C 0.34206 0.20403 0.51519
 H140 H 0.34721 0.23597 0.51219
 Zn141 Zn 0.24835 0.12096 0.49574
 N142 N 0.29807 0.14713 0.50779
 C143 C 0.28425 0.05617 0.45463
 N144 N 0.25582 0.08503 0.45152
 C145 C 0.23546 0.09025 0.41649
 C146 C 0.24627 0.06884 0.38197
 C147 C 0.29595 0.03418 0.42096
 C148 C 0.23485 0.11318 0.57737
 C149 C 0.22184 0.09538 0.61285
 C150 C 0.20660 0.03482 0.57546
 C151 C 0.22014 0.05375 0.54057
 N152 N 0.23321 0.09248 0.54213
 H153 H 0.29913 0.05115 0.48279
 H154 H 0.21204 0.11226 0.41457
 H155 H 0.23187 0.07536 0.35367
 H156 H 0.32061 0.01340 0.42338
 H157 H 0.24537 0.14395 0.57763
 H158 H 0.22204 0.11259 0.64052
 H159 H 0.19487 0.00452 0.57364
 H160 H 0.21899 0.03802 0.51212
 C161 C 0.37102 0.17972 0.53321
 C162 C 0.14086 0.19980 0.45594
 C163 C 0.20680 0.05609 0.61191
 C164 C 0.27772 0.04139 0.38391
 C165 C 0.19277 0.46648 0.21019
 H166 H 0.19477 0.45223 0.23920
 C167 C 0.21405 0.45099 0.17756
 H168 H 0.23246 0.42487 0.18199
 C169 C 0.16344 0.51575 0.16877
 H170 H 0.14272 0.54024 0.16526
 C171 C 0.18393 0.50096 0.13523
 H172 H 0.17882 0.51404 0.10603
 N173 N 0.16734 0.49763 0.20505
 C174 C 0.13387 0.54236 0.32317
 H175 H 0.10180 0.54217 0.31801
 C176 C 0.14889 0.55580 0.35973
 H177 H 0.12791 0.56625 0.38212
 C178 C 0.19952 0.52857 0.29949
 H179 H 0.21899 0.51792 0.27580
 C180 C 0.21597 0.54210 0.33591
 H181 H 0.24821 0.54235 0.34006
 Zn182 Zn 0.13183 0.51032 0.24739
 N183 N 0.15902 0.52886 0.29400
 C184 C 0.10772 0.44907 0.29924
 N185 N 0.10320 0.46242 0.26104
 C186 C 0.08195 0.44045 0.23351
 C187 C 0.06322 0.40423 0.24465
 C188 C 0.08958 0.41366 0.31148
 C189 C 0.10966 0.59033 0.23989
 C190 C 0.08850 0.62317 0.22566
 C191 C 0.04214 0.57744 0.19317
 C192 C 0.06387 0.54533 0.20857
 N193 N 0.09739 0.55228 0.23093
 H194 H 0.12619 0.46516 0.32045
 H195 H 0.08023 0.45044 0.20277
 H196 H 0.04638 0.38690 0.22276
 H197 H 0.09353 0.40384 0.34216
 H198 H 0.13687 0.59535 0.25688
 H199 H 0.09944 0.65322 0.23194
 H200 H 0.01645 0.57137 0.17421
 H201 H 0.05470 0.51503 0.20145
 C202 C 0.19040 0.55602 0.36642
 C203 C 0.20866 0.46750 0.13929
 C204 C 0.05506 0.61686 0.20105
 C205 C 0.06707 0.39081 0.28420
 C206 C -0.18156 0.04295 0.21385
 H207 H -0.18139 0.05839 0.24251
 C208 C -0.20310 0.05862 0.18177
 H209 H -0.21914 0.08626 0.18655
 C210 C -0.15736 -0.00974 0.17268
 H211 H -0.13860 -0.03578 0.16902
 C212 C -0.17835 0.00500 0.13966
 H213 H -0.17530 -0.00975 0.11077
 N214 N -0.15851 0.00997 0.20856
 C215 C -0.12531 -0.03389 0.32684
 H216 H -0.09318 -0.03407 0.32200
 C217 C -0.14098 -0.04679 0.36326
 H218 H -0.12047 -0.05715 0.38594
 C219 C -0.19049 -0.01989 0.30244
 H220 H -0.20955 -0.00941 0.27853
 C221 C -0.20757 -0.03283 0.33870
 H222 H -0.23987 -0.03282 0.34246
 Zn223 Zn -0.12261 -0.00347 0.25018
 N224 N -0.14994 -0.02075 0.29728
 C225 C -0.09625 0.05782 0.30177
 N226 N -0.09243 0.04386 0.26352
 C227 C -0.07100 0.06509 0.23571
 C228 C -0.05153 0.10113 0.24653
 C229 C -0.07735 0.09308 0.31372
 C230 C -0.09936 -0.08408 0.24513
 C231 C -0.07959 -0.11746 0.22968
 C232 C -0.03944 -0.07330 0.18852
 C233 C -0.05971 -0.04059 0.20510
 N234 N -0.08951 -0.04648 0.23249
 H235 H -0.11491 0.04248 0.32323
 H236 H -0.06988 0.05481 0.20493
 H237 H -0.03474 0.11795 0.22435
 H238 H -0.08094 0.10345 0.34439
 H239 H -0.12396 -0.08856 0.26582
 H240 H -0.08881 -0.14722 0.23895
 H241 H -0.01691 -0.06808 0.16568
 H242 H -0.05270 -0.01075 0.19480
 C243 C -0.18260 -0.04677 0.36944
 C244 C -0.20093 0.04017 0.14367
 C245 C -0.05006 -0.11230 0.20025
 C246 C -0.05479 0.11521 0.28609
 C247 C 0.31013 0.53301 0.70959
 H248 H 0.30302 0.54234 0.73992
 C249 C 0.28884 0.54874 0.67735
 H250 H 0.26510 0.56985 0.68335
 C251 C 0.35180 0.49635 0.66505
 H252 H 0.37733 0.47706 0.66042
 C253 C 0.33119 0.51130 0.63194
 H254 H 0.34088 0.50336 0.60190
 N255 N 0.34172 0.50834 0.70284
 C256 C 0.35816 0.49995 0.82975
 H257 H 0.38407 0.51936 0.83223
 C258 C 0.33859 0.48747 0.86474
 H259 H 0.34996 0.49697 0.89375
 C260 C 0.31245 0.46264 0.78968
 H261 H 0.30227 0.45310 0.76032
 C262 C 0.29212 0.44935 0.82387
 H263 H 0.26673 0.42926 0.82031
 Zn264 Zn 0.37653 0.49646 0.74580
 N265 N 0.34585 0.48616 0.79317
 C266 C 0.44167 0.53893 0.78126
 N267 N 0.41123 0.54149 0.75425
 C268 C 0.40307 0.57676 0.73565
 C269 C 0.42371 0.61185 0.74638
 C270 C 0.46300 0.57330 0.79289
 C271 C 0.38610 0.41423 0.73070
 C272 C 0.40514 0.37963 0.71714
 C273 C 0.46550 0.41868 0.70624
 C274 C 0.44538 0.45262 0.72043
 N275 N 0.40617 0.44993 0.73181
 H276 H 0.44783 0.51057 0.79548
 H277 H 0.37912 0.57834 0.71396
 H278 H 0.41505 0.64013 0.73335
 H279 H 0.48517 0.57126 0.81650
 H280 H 0.35489 0.41267 0.73918
 H281 H 0.38842 0.35168 0.71538
 H282 H 0.49622 0.42158 0.69600
 H283 H 0.46064 0.48135 0.72080
 C284 C 0.30611 0.46068 0.86201
 C285 C 0.30040 0.53904 0.63795
 C286 C 0.44498 0.38184 0.70393
 C287 C 0.45335 0.61041 0.77603
 C288 C 0.69767 0.96756 0.71506
 H289 H 0.70549 0.95690 0.74462
 C290 C 0.71805 0.95321 0.68135
 H291 H 0.74185 0.93182 0.68550
 C292 C 0.65528 1.00649 0.67389
 H293 H 0.62986 1.02620 0.67108
 C294 C 0.67494 0.99291 0.63937
 H295 H 0.66461 1.00229 0.61011
 N296 N 0.66613 0.99271 0.71066
 C297 C 0.65345 0.99843 0.83865
 H298 H 0.62812 0.97831 0.84136
 C299 C 0.67318 1.01144 0.87344
 H300 H 0.66235 1.00150 0.90244
 C301 C 0.69745 1.03695 0.79823
 H302 H 0.70683 1.04682 0.76878
 C303 C 0.71798 1.05079 0.83216
 H304 H 0.74282 1.07134 0.82788
 Zn305 Zn 0.63268 1.00320 0.75537
 N306 N 0.66460 1.01281 0.80207
 C307 C 0.56900 0.95987 0.79166
 N308 N 0.59834 0.95792 0.76328
 C309 C 0.60507 0.92337 0.74237
 C310 C 0.58388 0.88830 0.75179
 C311 C 0.54734 0.92549 0.80216
 C312 C 0.62165 1.08570 0.74337
 C313 C 0.60220 1.11988 0.72978
 C314 C 0.54255 1.07979 0.71846
 C315 C 0.56306 1.04631 0.73261
 N316 N 0.60221 1.04965 0.74391
 H317 H 0.56381 0.98774 0.80753
 H318 H 0.62809 0.92237 0.71955
 H319 H 0.59120 0.86052 0.73661
 H320 H 0.52591 0.92691 0.82660
 H321 H 0.65283 1.08778 0.75181
 H322 H 0.61861 1.14798 0.72784
 H323 H 0.51209 1.07619 0.70775
 H324 H 0.54833 1.01732 0.73251
 C325 C 0.70464 1.03960 0.87066
 C326 C 0.70563 0.96472 0.64287
 C327 C 0.56263 1.11683 0.71601
 C328 C 0.55537 0.88904 0.78267
 C329 C 0.03731 0.21172 -0.17830
 H330 H 0.05039 0.24117 -0.18272
 C331 C 0.05126 0.17916 -0.20056
 H332 H 0.07525 0.18398 -0.22194
 C333 C -0.00843 0.16972 -0.14336
 H334 H -0.03161 0.16602 -0.12101
 C335 C 0.00490 0.13622 -0.16479
 H336 H -0.00754 0.10687 -0.15826
 N337 N 0.00912 0.20626 -0.14925
 C338 C 0.00331 0.33140 -0.14556
 H339 H 0.02771 0.33567 -0.12470
 C340 C -0.01094 0.36428 -0.16688
 H341 H 0.00205 0.39373 -0.16168
 C342 C -0.04453 0.28863 -0.17694
 H343 H -0.05804 0.25916 -0.17998
 C344 C -0.05946 0.32058 -0.19905
 H345 H -0.08465 0.31536 -0.21887
 Zn346 Zn -0.00200 0.25114 -0.11593
 N347 N -0.01478 0.29484 -0.14965
 C348 C 0.04173 0.29501 -0.05815
 N349 N 0.04378 0.26357 -0.08423
 C350 C 0.07841 0.24265 -0.08911
 C351 C 0.11359 0.25523 -0.06987
 C352 C 0.07627 0.30883 -0.03865
 C353 C -0.08120 0.25998 -0.08550
 C354 C -0.11550 0.24744 -0.06477
 C355 C -0.07608 0.19574 -0.03367
 C356 C -0.04252 0.20945 -0.05482
 N357 N -0.04609 0.23978 -0.08159
 H358 H 0.01368 0.31071 -0.05427
 H359 H 0.07930 0.21705 -0.10905
 H360 H 0.14140 0.23968 -0.07578
 H361 H 0.07485 0.33550 -0.02003
 H362 H -0.08327 0.28476 -0.10605
 H363 H -0.14365 0.26229 -0.07051
 H364 H -0.07328 0.16959 -0.01479
 H365 H -0.01411 0.19428 -0.05180
 C366 C -0.04342 0.35915 -0.19307
 C367 C 0.03593 0.14066 -0.19286
 C368 C -0.11348 0.21412 -0.03933
 C369 C 0.11284 0.28933 -0.04522
 C370 C 0.45460 0.20537 0.18844
 H371 H 0.44004 0.23406 0.19190
 C372 C 0.43977 0.17199 0.20886
 H373 H 0.41368 0.17544 0.22786
 C374 C 0.50499 0.16598 0.15764
 H375 H 0.53039 0.16360 0.13767
 C376 C 0.49090 0.13170 0.17726
 H377 H 0.50501 0.10307 0.17163
 N378 N 0.48557 0.20151 0.16213
 C379 C 0.48513 0.32549 0.16092
 H380 H 0.45966 0.32624 0.14098
 C381 C 0.49622 0.36027 0.18187
 H382 H 0.47984 0.38772 0.17708
 C383 C 0.53852 0.28961 0.19038
 H384 H 0.55534 0.26214 0.19289
 C385 C 0.55078 0.32373 0.21165
 H386 H 0.57741 0.32254 0.23019
 Zn387 Zn 0.49793 0.24673 0.12986
 N388 N 0.50744 0.29160 0.16409
 C389 C 0.45874 0.28905 0.06971
 N390 N 0.45431 0.25771 0.09528
 C391 C 0.41908 0.23680 0.09759
 C392 C 0.38547 0.24952 0.07623
 C393 C 0.42591 0.30288 0.04807
 C394 C 0.57846 0.25811 0.10196
 C395 C 0.61338 0.24635 0.08192
 C396 C 0.57560 0.19242 0.05086
 C397 C 0.54140 0.20537 0.07118
 N398 N 0.54384 0.23647 0.09765
 H399 H 0.48721 0.30482 0.06809
 H400 H 0.41637 0.21133 0.11726
 H401 H 0.35697 0.23420 0.08023
 H402 H 0.42908 0.32959 0.02998
 H403 H 0.57960 0.28363 0.12198
 H404 H 0.64128 0.26232 0.08742
 H405 H 0.57388 0.16590 0.03201
 H406 H 0.51333 0.18917 0.06768
 C407 C 0.53014 0.35979 0.20656
 C408 C 0.45715 0.13434 0.20220
 C409 C 0.61226 0.21243 0.05700
 C410 C 0.38855 0.28369 0.05219
 C411 C 0.96404 0.70612 0.70527
 H412 H 0.95353 0.73550 0.71397
 C413 C 0.94979 0.67229 0.72539
 H414 H 0.92814 0.67609 0.74929
 C415 C 1.00390 0.66562 0.66262
 H416 H 1.02452 0.66281 0.63784
 C417 C 0.99051 0.63099 0.68204
 H418 H 1.00052 0.60191 0.67164
 N419 N 0.98899 0.70211 0.67317
 C420 C 0.99175 0.82959 0.66039
 H421 H 0.97191 0.83087 0.63479
 C422 C 1.00452 0.86512 0.67893
 H423 H 0.99439 0.89366 0.66759
 C424 C 1.03193 0.79121 0.70424
 H425 H 1.04344 0.76233 0.71300
 C426 C 1.04551 0.82598 0.72354
 H427 H 1.06718 0.82336 0.74746
 Zn428 Zn 0.99775 0.74781 0.64026
 N429 N 1.00662 0.79375 0.67245
 C430 C 0.95496 0.76661 0.56919
 N431 N 0.95139 0.75625 0.60849
 C432 C 0.91488 0.75497 0.62687
 C433 C 0.88035 0.76572 0.60611
 C434 C 0.92113 0.77791 0.54736
 C435 C 1.07799 0.76124 0.61382
 C436 C 1.11320 0.75167 0.59306
 C437 C 1.07609 0.70047 0.55696
 C438 C 1.04166 0.71110 0.57816
 N439 N 1.04348 0.74000 0.60704
 H440 H 0.98428 0.76822 0.55530
 H441 H 0.91256 0.74728 0.65816
 H442 H 0.85179 0.76647 0.62170
 H443 H 0.92480 0.78816 0.51683
 H444 H 1.07883 0.78446 0.63652
 H445 H 1.14098 0.76715 0.60029
 H446 H 1.07472 0.67568 0.53585
 H447 H 1.01381 0.69497 0.57298
 C448 C 1.03299 0.86355 0.70974
 C449 C 0.96167 0.63409 0.71246
 C450 C 1.11250 0.72030 0.56501
 C451 C 0.88351 0.77852 0.56633
 C452 C 0.54088 0.70966 0.31933
 H453 H 0.55764 0.73738 0.31600
 C454 C 0.55327 0.67522 0.29905
 H455 H 0.57986 0.67641 0.28032
 C456 C 0.48732 0.67370 0.34972
 H457 H 0.46171 0.67312 0.36961
 C458 C 0.49852 0.63854 0.32971
 H459 H 0.48199 0.61099 0.33502
 N460 N 0.50952 0.70792 0.34544
 C461 C 0.50614 0.83382 0.34489
 H462 H 0.53100 0.83847 0.36514
 C463 C 0.49137 0.86631 0.32325
 H464 H 0.50461 0.89578 0.32771
 C465 C 0.45747 0.79054 0.31573
 H466 H 0.44371 0.76109 0.31384
 C467 C 0.44192 0.82199 0.29340
 H468 H 0.41609 0.81588 0.27472
 Zn469 Zn 0.49962 0.75431 0.37717
 N470 N 0.48780 0.79728 0.34216
 C471 C 0.54343 0.79938 0.43358
 N472 N 0.54513 0.76649 0.40935
 C473 C 0.57873 0.74350 0.40766
 C474 C 0.61338 0.75517 0.42840
 C475 C 0.57747 0.81232 0.45444
 C476 C 0.42078 0.76649 0.40816
 C477 C 0.38656 0.75555 0.42998
 C478 C 0.42478 0.70288 0.46094
 C479 C 0.45827 0.71492 0.43873
 N480 N 0.45523 0.74507 0.41168
 H481 H 0.51607 0.81657 0.43521
 H482 H 0.57918 0.71662 0.38949
 H483 H 0.64047 0.73772 0.42523
 H484 H 0.57643 0.83989 0.47173
 H485 H 0.41917 0.79105 0.38730
 H486 H 0.35864 0.77114 0.42506
 H487 H 0.42684 0.67699 0.48025
 H488 H 0.48614 0.69871 0.44129
 C489 C 0.45795 0.86092 0.29807
 C490 C 0.53253 0.63899 0.30496
 C491 C 0.38823 0.72275 0.45589
 C492 C 0.61311 0.79050 0.45124
 C493 C 0.36973 -0.00643 0.24764
 C494 C 0.12294 1.00413 0.75205
 C495 C 0.61766 0.50031 0.25293
 C496 C 0.86898 0.49571 0.75486
 C497 C 0.25424 0.37547 0.00154
 C498 C 0.75117 0.12585 1.00811
 C499 C 0.24931 0.63601 0.50702
 C500 C 0.75401 0.87180 0.50654
 C501 C 0.00594 0.25413 0.36616
 C502 C 0.99849 0.74981 0.11046
 C503 C 0.50507 0.24524 0.61943
 C504 C 0.50063 0.74949 0.86540
 C505 C 0.42057 -0.07037 0.23186
 C506 C 0.45604 -0.07072 0.26182
 C507 C 0.43735 -0.10486 0.28272
 C508 C 0.40345 -0.10697 0.25456
 C509 C 0.41574 -0.07867 0.31086
 C510 C 0.43309 -0.04132 0.28955
 C511 C 0.39688 -0.04207 0.26029
 C512 C 0.37939 -0.07909 0.28241
 H513 H 0.42444 -0.06886 0.19886
 H514 H 0.48840 -0.06901 0.25386
 H515 H 0.39127 -0.13400 0.23915
 H516 H 0.41449 -0.08339 0.34382
 H517 H 0.44727 -0.01504 0.30457
 H518 H 0.34840 -0.08563 0.29271
 C519 C 0.91852 0.43097 0.73890
 C520 C 0.95448 0.43133 0.76839
 C521 C 0.93584 0.39522 0.79029
 C522 C 0.90029 0.39436 0.76097
 C523 C 0.91299 0.42347 0.81866
 C524 C 0.93116 0.46002 0.79657
 C525 C 0.89516 0.45926 0.76735
 C526 C 0.87719 0.42264 0.78940
 H527 H 0.92193 0.43308 0.70590
 H528 H 0.98652 0.43464 0.75970
 H529 H 0.88700 0.36792 0.74542
 H530 H 0.91066 0.42033 0.85174
 H531 H 0.94491 0.48665 0.81134
 H532 H 0.84581 0.41718 0.79908
 C533 C 0.06101 1.03936 0.79565
 C534 C 0.07943 1.07606 0.81771
 C535 C 0.05610 1.10420 0.79003
 C536 C 0.03715 1.06796 0.76820
 C537 C 0.09117 1.10496 0.76002
 C538 C 0.11474 1.07686 0.78778
 C539 C 0.09652 1.04016 0.76570
 C540 C 0.07263 1.06828 0.73800
 H541 H 0.04769 1.01267 0.81041
 H542 H 0.08229 1.07932 0.85077
 H543 H 0.00498 1.06457 0.76013
 H544 H 0.10436 1.13120 0.74433
 H545 H 0.14622 1.08238 0.79705
 H546 H 0.06873 1.06595 0.70505
 C547 C 0.60810 0.57973 0.26847
 C548 C 0.56980 0.59538 0.24804
 C549 C 0.55049 0.60074 0.28959
 C550 C 0.58846 0.58508 0.31002
 C551 C 0.53284 0.55798 0.28765
 C552 C 0.55267 0.55204 0.24585
 C553 C 0.59115 0.53648 0.26626
 C554 C 0.57123 0.54199 0.30789
 H555 H 0.63867 0.59087 0.26137
 H556 H 0.56911 0.61742 0.22324
 H557 H 0.60333 0.59873 0.33665
 H558 H 0.50162 0.54900 0.29540
 H559 H 0.53704 0.53847 0.21966
 H560 H 0.57050 0.52101 0.33351
 C561 C 0.60765 0.42067 0.23772
 C562 C 0.57134 0.40377 0.26119
 C563 C 0.54875 0.39822 0.22139
 C564 C 0.58475 0.41514 0.19797
 C565 C 0.53088 0.44047 0.22521
 C566 C 0.55399 0.44663 0.26525
 C567 C 0.59050 0.46344 0.24179
 C568 C 0.56730 0.45770 0.20195
 H569 H 0.63877 0.41018 0.24197
 H570 H 0.57291 0.38154 0.28578
 H571 H 0.59755 0.40213 0.17003
 H572 H 0.49904 0.44859 0.22025
 H573 H 0.54038 0.45962 0.29276
 H574 H 0.56423 0.47881 0.17665
 C575 C 0.11222 0.93049 0.71862
 C576 C 0.09197 0.90246 0.74935
 C577 C 0.05406 0.90138 0.72316
 C578 C 0.07413 0.92945 0.69248
 C579 C 0.03685 0.93764 0.74589
 C580 C 0.07514 0.93910 0.77228
 C581 C 0.09576 0.96720 0.74160
 C582 C 0.05746 0.96621 0.71545
 H583 H 0.14265 0.92561 0.70620
 H584 H 0.10733 0.87711 0.76404
 H585 H 0.07380 0.92546 0.65938
 H586 H 0.00561 0.94032 0.75718
 H587 H 0.07445 0.94199 0.80541
 H588 H 0.04241 0.99223 0.70163
 C589 C 0.88083 0.56930 0.72218
 C590 C 0.90191 0.59708 0.75287
 C591 C 0.93968 0.59710 0.72632
 C592 C 0.91878 0.56931 0.69569
 C593 C 0.95618 0.56061 0.74870
 C594 C 0.91800 0.56016 0.77543
 C595 C 0.89661 0.53234 0.74475
 C596 C 0.93478 0.53236 0.71827
 H597 H 0.85044 0.57487 0.71014
 H598 H 0.88737 0.62298 0.76783
 H599 H 0.91902 0.57308 0.66260
 H600 H 0.98740 0.55729 0.75968
 H601 H 0.91873 0.55744 0.80854
 H602 H 0.94927 0.50600 0.70412
 C603 C 0.41694 0.05976 0.26670
 C604 C 0.45482 0.06121 0.23963
 C605 C 0.43676 0.09673 0.21682
 C606 C 0.39929 0.09571 0.24375
 C607 C 0.41671 0.06771 0.18681
 C608 C 0.43420 0.03171 0.20983
 C609 C 0.39627 0.03074 0.23664
 C610 C 0.37898 0.06675 0.21365
 H611 H 0.41822 0.05747 0.29983
 H612 H 0.48626 0.05921 0.25037
 H613 H 0.38407 0.12121 0.25870
 H614 H 0.41657 0.07104 0.15367
 H615 H 0.44946 0.00561 0.19599
 H616 H 0.34830 0.07106 0.20182
 C617 C 0.23878 0.42407 -0.06378
 C618 C 0.26865 0.46000 -0.06458
 C619 C 0.29014 0.44076 -0.10070
 C620 C 0.26047 0.40522 -0.10033
 C621 C 0.31849 0.41845 -0.07229
 C622 C 0.29676 0.43722 -0.03571
 C623 C 0.26715 0.40127 -0.03537
 C624 C 0.28887 0.38272 -0.07195
 H625 H 0.20580 0.42733 -0.06116
 H626 H 0.26028 0.49203 -0.06178
 H627 H 0.24476 0.39109 -0.12619
 H628 H 0.35154 0.41602 -0.07577
 H629 H 0.31166 0.45134 -0.00939
 H630 H 0.29834 0.35134 -0.07686
 C631 C 0.79481 0.87759 0.43638
 C632 C 0.76982 0.89988 0.40482
 C633 C 0.79985 0.93500 0.40690
 C634 C 0.82476 0.91293 0.43859
 C635 C 0.77477 0.95512 0.44011
 C636 C 0.74461 0.91948 0.43862
 C637 C 0.76973 0.89700 0.47026
 C638 C 0.79953 0.93268 0.47222
 H639 H 0.80408 0.84604 0.43247
 H640 H 0.75748 0.88624 0.37694
 H641 H 0.85775 0.90910 0.44028
 H642 H 0.76663 0.98729 0.44143
 H643 H 0.71156 0.92305 0.43791
 H644 H 0.81186 0.94729 0.49958
 C645 C 0.78510 0.11726 1.08145
 C646 C 0.75663 0.09406 1.10957
 C647 C 0.78431 0.05997 1.10860
 C648 C 0.81298 0.08074 1.08221
 C649 C 0.76336 0.04079 1.07457
 C650 C 0.73395 0.07644 1.07301
 C651 C 0.76298 0.09924 1.04450
 C652 C 0.79169 0.06285 1.04494
 H653 H 0.79586 0.14820 1.08746
 H654 H 0.74127 0.10665 1.13634
 H655 H 0.84593 0.08179 1.08733
 H656 H 0.75487 0.00853 1.07348
 H657 H 0.70089 0.07294 1.07099
 H658 H 0.80667 0.04808 1.01909
 C659 C 0.23304 0.58379 0.56956
 C660 C 0.26038 0.54650 0.56658
 C661 C 0.28447 0.56215 0.60284
 C662 C 0.25732 0.59903 0.60620
 C663 C 0.31323 0.58496 0.57472
 C664 C 0.28888 0.56981 0.53803
 C665 C 0.26182 0.60709 0.54143
 C666 C 0.28612 0.62203 0.57811
 H667 H 0.19982 0.58213 0.56846
 H668 H 0.24973 0.51518 0.56208
 H669 H 0.24355 0.61212 0.63358
 H670 H 0.34649 0.58554 0.57685
 H671 H 0.30163 0.55681 0.51010
 H672 H 0.29778 0.65253 0.58467
 C673 C 0.20982 0.63075 0.43616
 C674 C 0.23591 0.61024 0.40391
 C675 C 0.20715 0.57405 0.40446
 C676 C 0.18116 0.59432 0.43682
 C677 C 0.23265 0.55397 0.43702
 C678 C 0.26150 0.59069 0.43714
 C679 C 0.23523 0.61136 0.46946
 C680 C 0.20677 0.57458 0.46978
 H681 H 0.19947 0.66204 0.43338
 H682 H 0.24801 0.62503 0.37664
 H683 H 0.14803 0.59694 0.43861
 H684 H 0.24195 0.52211 0.43714
 H685 H 0.29467 0.58833 0.43649
 H686 H 0.19470 0.55870 0.49640
 C687 C 0.76879 0.07696 0.94254
 C688 C 0.73936 0.04080 0.94008
 C689 C 0.71877 0.05980 0.90622
 C690 C 0.74640 0.09444 0.90614
 C691 C 0.68985 0.08000 0.93275
 C692 C 0.71082 0.06223 0.96989
 C693 C 0.73954 0.09909 0.97126
 C694 C 0.71772 0.11694 0.93446
 H695 H 0.80184 0.07397 0.94468
 H696 H 0.74775 0.00866 0.94062
 H697 H 0.76156 0.10837 0.87999
 H698 H 0.65694 0.08072 0.92748
 H699 H 0.69568 0.04698 0.99533
 H700 H 0.70699 0.14772 0.92886
 C701 C 0.71632 0.93842 0.54077
 C702 C 0.69115 0.92263 0.57658
 C703 C 0.72054 0.94304 0.60603
 C704 C 0.74542 0.95941 0.57071
 C705 C 0.74625 0.90506 0.60724
 C706 C 0.71681 0.88448 0.57788
 C707 C 0.74197 0.90005 0.54213
 C708 C 0.77134 0.92105 0.57159
 H709 H 0.70425 0.95297 0.51353
 H710 H 0.65789 0.92319 0.57863
 H711 H 0.75725 0.99048 0.56800
 H712 H 0.75934 0.89007 0.63374
 H713 H 0.70374 0.85427 0.58276
 H714 H 0.80458 0.92173 0.57075
 C715 C 0.27360 0.42492 0.06607
 C716 C 0.24687 0.46275 0.06617
 C717 C 0.22366 0.44597 0.10245
 C718 C 0.25025 0.40858 0.10278
 C719 C 0.19364 0.42492 0.07420
 C720 C 0.21703 0.44113 0.03747
 C721 C 0.24349 0.40327 0.03786
 C722 C 0.22012 0.38728 0.07462
 H723 H 0.30677 0.42601 0.06362
 H724 H 0.25793 0.49405 0.06295
 H725 H 0.26491 0.39437 0.12890
 H726 H 0.16047 0.42485 0.07758
 H727 H 0.20340 0.45541 0.01085
 H728 H 0.20794 0.35684 0.08016
 C729 C -0.04726 0.24848 0.43053
 C730 C -0.05067 0.28977 0.45184
 C731 C -0.09303 0.29452 0.43430
 C732 C -0.09016 0.25346 0.41338
 C733 C -0.07547 0.31534 0.39714
 C734 C -0.03273 0.31034 0.41427
 C735 C -0.02973 0.26916 0.39285
 C736 C -0.07257 0.27428 0.37594
 H737 H -0.03568 0.22132 0.44549
 H738 H -0.04186 0.29616 0.48336
 H739 H -0.11323 0.22928 0.41255
 H740 H -0.08713 0.34306 0.38323
 H741 H -0.00999 0.33470 0.41595
 H742 H -0.08365 0.26896 0.34504
 C743 C 0.46240 0.78932 0.92807
 C744 C 0.42701 0.81242 0.90942
 C745 C 0.39721 0.78365 0.92992
 C746 C 0.43214 0.76074 0.94901
 C747 C 0.39781 0.75560 0.89318
 C748 C 0.42762 0.78444 0.87245
 C749 C 0.46309 0.76140 0.89087
 C750 C 0.43324 0.73253 0.91186
 H751 H 0.48860 0.80310 0.94353
 H752 H 0.42445 0.84555 0.90832
 H753 H 0.43372 0.75094 0.98074
 H754 H 0.37192 0.74090 0.87801
 H755 H 0.42383 0.79523 0.84135
 H756 H 0.43482 0.69945 0.91393
 C757 C 1.07713 0.76724 0.09720
 C758 C 1.09279 0.74427 0.06014
 C759 C 1.09643 0.78418 0.03763
 C760 C 1.08067 0.80711 0.07441
 C761 C 1.05340 0.77938 0.02146
 C762 C 1.04918 0.73924 0.04449
 C763 C 1.03361 0.76215 0.08181
 C764 C 1.03732 0.80211 0.05872
 H765 H 1.08941 0.76323 0.12772
 H766 H 1.11519 0.71986 0.06080
 H767 H 1.09369 0.83528 0.08690
 H768 H 1.04387 0.78433 -0.01002
 H769 H 1.03613 0.71153 0.03113
 H770 H 1.01539 0.82679 0.05691
 C771 C 0.54001 0.28436 0.55408
 C772 C 0.57506 0.31021 0.57087
 C773 C 0.60541 0.28186 0.55084
 C774 C 0.57084 0.25627 0.53352
 C775 C 0.60646 0.25583 0.58871
 C776 C 0.57617 0.28423 0.60892
 C777 C 0.54117 0.25839 0.59234
 C778 C 0.57154 0.23004 0.57177
 H779 H 0.51282 0.29593 0.53904
 H780 H 0.57649 0.34347 0.57060
 H781 H 0.56887 0.24471 0.50227
 H782 H 0.63298 0.24327 0.60414
 H783 H 0.58026 0.29701 0.63939
 H784 H 0.57123 0.19683 0.57106
 C785 C 0.47323 0.19960 0.55707
 C786 C 0.43939 0.17350 0.57549
 C787 C 0.40799 0.19785 0.55241
 C788 C 0.44146 0.22379 0.53359
 C789 C 0.40443 0.22748 0.58766
 C790 C 0.43565 0.20303 0.61096
 C791 C 0.46974 0.22897 0.59290
 C792 C 0.43844 0.25356 0.56939
 H793 H 0.50121 0.18794 0.54339
 H794 H 0.44167 0.14056 0.57895
 H795 H 0.44368 0.23224 0.50149
 H796 H 0.37595 0.23910 0.60039
 H797 H 0.43091 0.19340 0.64235
 H798 H 0.43736 0.28657 0.56611
 C799 C 0.94289 0.75639 0.04837
 C800 C 0.93692 0.71479 0.02800
 C801 C 0.89519 0.71137 0.04768
 C802 C 0.90055 0.75270 0.06754
 C803 C 0.91351 0.69087 0.08435
 C804 C 0.95559 0.69449 0.06509
 C805 C 0.96114 0.73591 0.08556
 C806 C 0.91887 0.73218 0.10455
 H807 H 0.95491 0.78314 0.03263
 H808 H 0.94431 0.70778 -0.00375
 H809 H 0.87784 0.77684 0.06845
 H810 H 0.90137 0.66367 0.09929
 H811 H 0.97719 0.66954 0.06283
 H812 H 0.90903 0.73835 0.13569
 C813 C 0.53353 0.70955 0.93053
 C814 C 0.57036 0.68650 0.91440
 C815 C 0.59839 0.71527 0.93746
 C816 C 0.56200 0.73813 0.95412
 C817 C 0.60068 0.74337 0.90114
 C818 C 0.57272 0.71451 0.87785
 C819 C 0.53583 0.73750 0.89373
 C820 C 0.56383 0.76637 0.91734
 H821 H 0.50616 0.69572 0.94370
 H822 H 0.57307 0.65337 0.91312
 H823 H 0.55785 0.74789 0.98575
 H824 H 0.62762 0.75828 0.88823
 H825 H 0.57917 0.70372 0.84704
 H826 H 0.56207 0.79944 0.91971
 C827 C 0.05814 0.26157 0.43112
 C828 C 0.06120 0.22079 0.45294
 C829 C 0.10390 0.21573 0.43602
 C830 C 0.10136 0.25625 0.41465
 C831 C 0.08704 0.19401 0.39888
 C832 C 0.04399 0.19932 0.41537
 C833 C 0.04130 0.23996 0.39343
 C834 C 0.08445 0.23455 0.37717
 H835 H 0.04628 0.28910 0.44553
 H836 H 0.05155 0.21532 0.48435
 H837 H 0.12502 0.27989 0.41443
 H838 H 0.09901 0.16597 0.38552
 H839 H 0.02131 0.17492 0.41704
 H840 H 0.09601 0.23916 0.34636
 C841 C 0.52575 0.16780 0.63390
 C842 C 0.56635 0.16699 0.65594
 C843 C 0.54486 0.15141 0.69364
 C844 C 0.50424 0.15219 0.67187
 C845 C 0.53891 0.19459 0.70875
 C846 C 0.56022 0.21049 0.67066
 C847 C 0.51953 0.21145 0.64834
 C848 C 0.49806 0.19593 0.68651
 H849 H 0.52130 0.15467 0.60363
 H850 H 0.59466 0.15504 0.64313
 H851 H 0.48053 0.12863 0.67198
 H852 H 0.54432 0.20544 0.73985
 H853 H 0.58431 0.23355 0.67167
 H854 H 0.47017 0.20782 0.70018
 C855 C 1.04186 0.71670 0.17301
 C856 C 1.01479 0.68784 0.19752
 C857 C 1.03724 0.65189 0.17944
 C858 C 1.06452 0.68034 0.15534
 C859 C 1.00733 0.64940 0.14448
 C860 C 0.98467 0.68586 0.16209
 C861 C 1.01206 0.71434 0.13755
 C862 C 1.03467 0.67787 0.12016
 H863 H 1.05600 0.74403 0.18602
 H864 H 1.00657 0.69166 0.22961
 H865 H 1.09764 0.67811 0.15236
 H866 H 0.99250 0.62216 0.13201
 H867 H 0.95165 0.68726 0.16592
 H868 H 1.04405 0.67175 0.08885
 C869 C 0.96059 0.78650 0.17509
 C870 C 0.98966 0.81658 0.19580
 C871 C 0.96569 0.85157 0.17834
 C872 C 0.93643 0.82192 0.15804
 C873 C 0.99242 0.85204 0.14073
 C874 C 1.01657 0.81654 0.15777
 C875 C 0.98720 0.78681 0.13703
 C876 C 0.96311 0.82234 0.12021
 H877 H 0.94764 0.75995 0.19041
 H878 H 1.00065 0.81450 0.22714
 H879 H 0.90319 0.82414 0.15802
 H880 H 1.00612 0.87850 0.12584
 H881 H 1.04978 0.81537 0.15879
 H882 H 0.95110 0.82656 0.08958
 C883 C 0.44873 0.28472 0.66569
 C884 C 0.46913 0.30435 0.70264
 C885 C 0.46326 0.34586 0.68383
 C886 C 0.44269 0.32658 0.64718
 C887 C 0.50438 0.34330 0.66298
 C888 C 0.51047 0.30123 0.68143
 C889 C 0.48992 0.28190 0.64440
 C890 C 0.48382 0.32385 0.62606
 H891 H 0.42489 0.26149 0.66793
 H892 H 0.46307 0.29652 0.73443
 H893 H 0.41460 0.33707 0.63292
 H894 H 0.52785 0.36705 0.66153
 H895 H 0.53812 0.29092 0.69658
 H896 H 0.48898 0.33362 0.59476
 C897 C 0.48464 0.67013 0.85449
 C898 C 0.44492 0.66504 0.83138
 C899 C 0.46840 0.64846 0.79533
 C900 C 0.50816 0.65359 0.81814
 C901 C 0.47257 0.69093 0.77791
 C902 C 0.44928 0.70784 0.81441
 C903 C 0.48908 0.71310 0.83780
 C904 C 0.51256 0.69664 0.80122
 H905 H 0.48873 0.65923 0.88550
 H906 H 0.41685 0.65198 0.84394
 H907 H 0.53275 0.63141 0.81962
 H908 H 0.46773 0.69934 0.74611
 H909 H 0.42421 0.72922 0.81161
 H910 H 0.54021 0.70968 0.78783
 C911 C 0.01822 0.18656 0.31816
 C912 C -0.00760 0.15280 0.33694
 C913 C -0.03586 0.15365 0.30062
 C914 C -0.01012 0.18691 0.28120
 C915 C -0.06214 0.18527 0.32135
 C916 C -0.03414 0.18406 0.35798
 C917 C -0.00835 0.21800 0.33959
 C918 C -0.03624 0.21902 0.30255
 H919 H 0.05143 0.18637 0.31613
 H920 H 0.00443 0.12542 0.35120
 H921 H -0.00030 0.18784 0.24937
 H922 H -0.09545 0.18492 0.32269
 H923 H -0.04524 0.18019 0.38904
 H924 H -0.04790 0.24614 0.28758
 C925 C 0.04606 0.32392 0.35709
 C926 C 0.07445 0.32172 0.32068
 C927 C 0.04832 0.35266 0.29924
 C928 C 0.01969 0.35452 0.33533
 C929 C 0.02286 0.31882 0.28020
 C930 C 0.04882 0.28738 0.30228
 C931 C 0.02052 0.28943 0.33908
 C932 C -0.00587 0.32019 0.31693
 H933 H 0.05679 0.32863 0.38817
 H934 H 0.10775 0.32219 0.32224
 H935 H 0.00746 0.38227 0.34905
 H936 H 0.01339 0.31694 0.24832
 H937 H 0.06068 0.25983 0.28790
 H938 H -0.03905 0.32033 0.31458
 C939 C 0.49446 0.80253 0.80114
 C940 C 0.49729 0.84553 0.81896
 C941 C 0.53897 0.85072 0.79982
 C942 C 0.53642 0.80830 0.78150
 C943 C 0.55906 0.83405 0.83754
 C944 C 0.51739 0.82891 0.85700
 C945 C 0.51452 0.78598 0.83940
 C946 C 0.55630 0.79131 0.81965
 H947 H 0.46811 0.78954 0.78526
 H948 H 0.47276 0.86784 0.81858
 H949 H 0.54412 0.79989 0.75015
 H950 H 0.58587 0.84707 0.85269
 H951 H 0.51052 0.83982 0.88766
 H952 H 0.58156 0.76996 0.81868
 C953 C 0.66405 0.48321 0.18550
 C954 C 0.64543 0.50595 0.14994
 C955 C 0.68017 0.53345 0.14947
 C956 C 0.70024 0.51247 0.18245
 C957 C 0.66095 0.56212 0.17693
 C958 C 0.62388 0.53437 0.17930
 C959 C 0.64292 0.51220 0.21525
 C960 C 0.67988 0.54077 0.21322
 H961 H 0.66714 0.45020 0.18698
 H962 H 0.63106 0.49071 0.12395
 H963 H 0.73240 0.50395 0.18198
 H964 H 0.66032 0.59502 0.17204
 H965 H 0.59284 0.54508 0.17483
 H966 H 0.69606 0.55566 0.23836
 C967 C 0.18470 0.99508 0.69636
 C968 C 0.16607 0.99861 0.65390
 C969 C 0.18709 1.03947 0.64883
 C970 C 0.20613 1.03610 0.69064
 C971 C 0.15066 1.06102 0.66683
 C972 C 0.12935 1.02017 0.67208
 C973 C 0.14787 1.01669 0.71439
 C974 C 0.16941 1.05755 0.70899
 H975 H 0.19978 0.96821 0.70840
 H976 H 0.16449 0.97384 0.63157
 H977 H 0.23800 1.04265 0.69805
 H978 H 0.13648 1.08835 0.65460
 H979 H 0.09802 1.01419 0.66257
 H980 H 0.17221 1.08282 0.73052
 C981 C 0.13779 0.98874 0.83092
 C982 C 0.16040 0.94890 0.83437
 C983 C 0.19651 0.97096 0.84715
 C984 C 0.17653 1.01000 0.84520
 C985 C 0.21202 0.97400 0.80591
 C986 C 0.17418 0.95188 0.79031
 C987 C 0.15193 0.99240 0.78669
 C988 C 0.19048 1.01466 0.80111
 H989 H 0.10791 0.99396 0.84453
 H990 H 0.14886 0.92137 0.84923
 H991 H 0.17871 1.03367 0.86870
 H992 H 0.24351 0.96799 0.79688
 H993 H 0.17560 0.92603 0.76937
 H994 H 0.20489 1.04179 0.78819
 C995 C 0.68302 0.46140 0.28649
 C996 C 0.70651 0.49056 0.31441
 C997 C 0.68995 0.46820 0.35124
 C998 C 0.66696 0.43885 0.32373
 C999 C 0.65350 0.49609 0.35301
 C1000 C 0.66961 0.51860 0.31573
 C1001 C 0.64611 0.48914 0.28828
 C1002 C 0.63031 0.46663 0.32558
 H1003 H 0.69626 0.44729 0.25936
 H1004 H 0.73812 0.50046 0.31008
 H1005 H 0.66575 0.40576 0.32702
 H1006 H 0.64044 0.51118 0.37970
 H1007 H 0.67181 0.55165 0.31322
 H1008 H 0.59954 0.45568 0.33213
 C1009 C 0.86213 0.48014 0.67472
 C1010 C 0.83997 0.43978 0.66880
 C1011 C 0.80407 0.46223 0.65124
 C1012 C 0.82593 0.50258 0.65706
 C1013 C 0.78501 0.46569 0.69320
 C1014 C 0.82128 0.44338 0.71109
 C1015 C 0.84365 0.48376 0.71717
 C1016 C 0.80730 0.50622 0.69964
 H1017 H 0.89353 0.48547 0.66507
 H1018 H 0.85355 0.41223 0.65601
 H1019 H 0.82786 0.52742 0.63512
 H1020 H 0.75300 0.45980 0.70060
 H1021 H 0.81825 0.41811 0.73233
 H1022 H 0.79277 0.53332 0.71225
 C1023 C 0.36229 -0.02320 0.16790
 C1024 C 0.34149 -0.06435 0.16272
 C1025 C 0.30457 -0.04340 0.14538
 C1026 C 0.32510 -0.00224 0.15045
 C1027 C 0.28594 -0.04007 0.18750
 C1028 C 0.32318 -0.06089 0.20518
 C1029 C 0.34423 -0.01969 0.21052
 C1030 C 0.30689 0.00128 0.19320
 H1031 H 0.39342 -0.01696 0.15788
 H1032 H 0.35590 -0.09156 0.15011
 H1033 H 0.32613 0.02250 0.12836
 H1034 H 0.25424 -0.04702 0.19533
 H1035 H 0.32101 -0.08608 0.22658
 H1036 H 0.29161 0.02801 0.20570
 C1037 C 0.35679 0.00892 0.32680
 C1038 C 0.33457 0.04898 0.33122
 C1039 C 0.29737 0.02616 0.34635
 C1040 C 0.31929 -0.01393 0.34191
 C1041 C 0.28122 0.02262 0.30324
 C1042 C 0.31885 0.04529 0.28780
 C1043 C 0.34138 0.00516 0.28320
 C1044 C 0.30368 -0.01771 0.29820
 H1045 H 0.38737 0.00403 0.33863
 H1046 H 0.34742 0.07669 0.34487
 H1047 H 0.31933 -0.03857 0.36415
 H1048 H 0.24987 0.02810 0.29364
 H1049 H 0.31722 0.07061 0.26657
 H1050 H 0.29003 -0.04505 0.28467
 C1051 C 0.81884 0.54812 0.79503
 C1052 C 0.78046 0.52610 0.80950
 C1053 C 0.79589 0.52872 0.85293
 C1054 C 0.83386 0.55090 0.83877
 C1055 C 0.81694 0.48819 0.84835
 C1056 C 0.80204 0.48533 0.80433
 C1057 C 0.84049 0.50753 0.79025
 C1058 C 0.85523 0.51038 0.83417
 H1059 H 0.81821 0.57377 0.77412
 H1060 H 0.74944 0.53238 0.79933
 H1061 H 0.84708 0.57812 0.85302
 H1062 H 0.81603 0.46333 0.87033
 H1063 H 0.78798 0.45848 0.79026
 H1064 H 0.88546 0.50465 0.84649
 C1065 C 0.21013 0.68200 0.56469
 C1066 C 0.19350 0.72076 0.54581
 C1067 C 0.15069 0.70322 0.54860
 C1068 C 0.16696 0.66497 0.56780
 C1069 C 0.15462 0.68461 0.50657
 C1070 C 0.19797 0.70162 0.50345
 C1071 C 0.21406 0.66275 0.52249
 C1072 C 0.17073 0.64603 0.52577
 H1073 H 0.23212 0.68214 0.58958
 H1074 H 0.20273 0.75179 0.55399
 H1075 H 0.15414 0.64976 0.59452
 H1076 H 0.13181 0.68577 0.48236
 H1077 H 0.21071 0.71765 0.47722
 H1078 H 0.15881 0.61575 0.51874
 C1079 C 0.70932 0.17414 1.06123
 C1080 C 0.69300 0.21138 1.03943
 C1081 C 0.65029 0.19366 1.04215
 C1082 C 0.66628 0.15680 1.06413
 C1083 C 0.65549 0.17250 1.00144
 C1084 C 0.69878 0.18974 0.99849
 C1085 C 0.71472 0.15240 1.02046
 C1086 C 0.67153 0.13532 1.02343
 H1087 H 0.73038 0.17623 1.08685
 H1088 H 0.70187 0.24292 1.04582
 H1089 H 0.65282 0.14314 1.09138
 H1090 H 0.63328 0.17194 0.97664
 H1091 H 0.71209 0.20435 0.97172
 H1092 H 0.66065 0.10438 1.01767
 C1093 C 0.79283 0.17516 0.95561
 C1094 C 0.81038 0.21207 0.97783
 C1095 C 0.85075 0.19471 0.97478
 C1096 C 0.83612 0.15938 0.95261
 C1097 C 0.84729 0.17473 1.01382
 C1098 C 0.80401 0.19070 1.01850
 C1099 C 0.78756 0.15304 0.99617
 C1100 C 0.83096 0.13683 0.99246
 H1101 H 0.77220 0.17759 0.92973
 H1102 H 0.80290 0.24387 0.97199
 H1103 H 0.85056 0.14732 0.92503
 H1104 H 0.87082 0.17566 1.03739
 H1105 H 0.79162 0.20565 1.04560
 H1106 H 0.84267 0.10632 0.99755
 C1107 C 0.30413 0.69878 0.51794
 C1108 C 0.34664 0.68112 0.51163
 C1109 C 0.35039 0.70417 0.47202
 C1110 C 0.30848 0.72232 0.47808
 C1111 C 0.33201 0.66867 0.44878
 C1112 C 0.32825 0.64532 0.48834
 C1113 C 0.28586 0.66278 0.49466
 C1114 C 0.28977 0.68639 0.45502
 H1115 H 0.29258 0.71205 0.54626
 H1116 H 0.37005 0.67906 0.53518
 H1117 H 0.30044 0.75425 0.47402
 H1118 H 0.34356 0.65619 0.42006
 H1119 H 0.33850 0.61404 0.49157
 H1120 H 0.26724 0.68970 0.43088
 C1121 C 0.67495 0.86567 0.48684
 C1122 C 0.67090 0.84374 0.44620
 C1123 C 0.65132 0.80803 0.46773
 C1124 C 0.65529 0.82962 0.50837
 C1125 C 0.69263 0.78851 0.47323
 C1126 C 0.71256 0.82462 0.45189
 C1127 C 0.71673 0.84677 0.49260
 C1128 C 0.69718 0.81057 0.51412
 H1129 H 0.66576 0.89716 0.49154
 H1130 H 0.66000 0.85746 0.41801
 H1131 H 0.63162 0.83158 0.53178
 H1132 H 0.69995 0.75654 0.46781
 H1133 H 0.73525 0.82139 0.42776
 H1134 H 0.70790 0.79594 0.54187
 C1135 C 0.17404 0.36691 -0.01319
 C1136 C 0.16807 0.34489 -0.05356
 C1137 C 0.15118 0.30851 -0.03094
 C1138 C 0.15703 0.33020 0.00942
 C1139 C 0.19342 0.29044 -0.02821
 C1140 C 0.21067 0.32719 -0.05067
 C1141 C 0.21677 0.34944 -0.01024
 C1142 C 0.19985 0.31259 0.01236
 H1143 H 0.16408 0.39805 -0.00771
 H1144 H 0.15489 0.35826 -0.08093
 H1145 H 0.13489 0.33132 0.03434
 H1146 H 0.20149 0.25875 -0.03416
 H1147 H 0.23162 0.32457 -0.07637
 H1148 H 0.21272 0.29825 0.03933
 C1149 C 0.29356 0.32652 0.05500
 C1150 C 0.30826 0.28807 0.03366
 C1151 C 0.35171 0.30380 0.03650
 C1152 C 0.33730 0.34189 0.05798
 C1153 C 0.34794 0.32429 -0.00445
 C1154 C 0.30390 0.30906 -0.00752
 C1155 C 0.28955 0.34761 0.01400
 C1156 C 0.33346 0.36270 0.01704
 H1157 H 0.27226 0.32597 0.08054
 H1158 H 0.29777 0.25714 0.04028
 H1159 H 0.35111 0.35552 0.08519
 H1160 H 0.37042 0.32322 -0.02906
 H1161 H 0.29018 0.29461 -0.03431
 H1162 H 0.34589 0.39293 0.01093
 C1163 C 0.78944 0.82233 0.56259
 C1164 C 0.80516 0.78364 0.54240
 C1165 C 0.84845 0.79919 0.54754
 C1166 C 0.83302 0.83749 0.56790
 C1167 C 0.84705 0.81941 0.50627
 C1168 C 0.80315 0.80439 0.50088
 C1169 C 0.78787 0.84318 0.52126
 C1170 C 0.83166 0.85798 0.52668
 H1171 H 0.76674 0.82191 0.58689
 H1172 H 0.79448 0.75274 0.54887
 H1173 H 0.84533 0.85138 0.59569
 H1174 H 0.87033 0.81847 0.48243
 H1175 H 0.79073 0.78976 0.47355
 H1176 H 0.84484 0.88802 0.52119
   
