data_POSCAR
  _audit_creation_date              2014-09-24
  _audit_creation_method            'ToBaCCo'
  _symmetry_space_group_name_H-M    'P1'
  _symmetry_Int_Tables_number       1
  _symmetry_cell_setting            triclinic
  loop_
  _symmetry_equiv_pos_as_xyz
 x,y,z
_cell_length_a 34.5560
_cell_length_b 24.2426
_cell_length_c 15.3154
_cell_angle_alpha 89.924700
_cell_angle_beta 89.953700
_cell_angle_gamma 90.074900
loop_
  _atom_site_label
  _atom_site_type_symbol
  _atom_site_fract_x
  _atom_site_fract_y
  _atom_site_fract_z
O1 O 0.79697 0.25828 0.41717
 O2 O 0.73173 0.31518 0.58452
 O3 O 0.79646 0.25851 0.58740
 O4 O 0.73267 0.31494 0.41710
 O5 O 0.69905 0.23745 0.41676
 O6 O 0.76363 0.18035 0.58513
 O7 O 0.69923 0.23692 0.58731
 O8 O 0.76348 0.18067 0.41757
 Cu9 Cu 0.76793 0.29441 0.50169
 Cu10 Cu 0.72785 0.20118 0.50168
 C11 C 0.79169 0.20939 0.38978
 C12 C 0.70385 0.28623 0.61361
 C13 C 0.79149 0.20930 0.61383
 C14 C 0.70450 0.28631 0.38917
 O15 O 0.20268 0.74241 0.41839
 O16 O 0.26833 0.68510 0.58460
 O17 O 0.20366 0.74201 0.58860
 O18 O 0.26679 0.68548 0.41719
 O19 O 0.30062 0.76278 0.41613
 O20 O 0.23660 0.82007 0.58547
 O21 O 0.30095 0.76327 0.58671
 O22 O 0.23634 0.81987 0.41792
 Cu23 Cu 0.23188 0.70608 0.50247
 Cu24 Cu 0.27214 0.79914 0.50148
 C25 C 0.20800 0.79127 0.39070
 C26 C 0.29634 0.71394 0.61314
 C27 C 0.20875 0.79121 0.61472
 C28 C 0.29494 0.71399 0.38866
 O29 O 0.26529 0.31943 -0.58619
 O30 O 0.19972 0.26298 -0.41843
 O31 O 0.26434 0.31931 -0.41888
 O32 O 0.20020 0.26358 -0.58913
 O33 O 0.23182 0.18473 -0.58504
 O34 O 0.29772 0.24173 -0.41925
 O35 O 0.23318 0.18549 -0.41772
 O36 O 0.29683 0.24051 -0.58976
 Cu37 Cu 0.22893 0.29901 -0.50330
 Cu38 Cu 0.26832 0.20544 -0.50304
 C39 C 0.29273 0.28999 -0.61581
 C40 C 0.20505 0.21427 -0.39013
 C41 C 0.29251 0.29054 -0.39149
 C42 C 0.20430 0.21402 -0.61463
 O43 O -0.19902 0.73726 -0.41661
 O44 O -0.26400 0.67998 -0.58420
 O45 O -0.19946 0.73669 -0.58719
 O46 O -0.26347 0.68045 -0.41663
 O47 O -0.29692 0.75797 -0.41647
 O48 O -0.23186 0.81491 -0.58446
 O49 O -0.29670 0.75813 -0.58670
 O50 O -0.23261 0.81466 -0.41701
 Cu51 Cu -0.22800 0.70094 -0.50120
 Cu52 Cu -0.26798 0.79409 -0.50138
 C53 C -0.20444 0.78608 -0.38906
 C54 C -0.29189 0.70887 -0.61283
 C55 C -0.20404 0.78601 -0.61357
 C56 C -0.29160 0.70915 -0.38877
 N57 N -0.04039 0.94043 0.15451
 N58 N -0.06927 0.93282 0.20958
 N59 N 0.04159 0.90287 0.09610
 N60 N 0.07018 0.86799 0.11122
 N61 N 0.04127 0.94220 0.15495
 N62 N 0.06987 0.93568 0.21086
 N63 N -0.03959 0.90101 0.09583
 N64 N -0.06751 0.86485 0.11039
 C65 C -0.08593 0.88562 0.18119
 C66 C 0.08772 0.88936 0.18276
 N67 N 0.04159 0.94224 -0.15167
 N68 N 0.07040 0.93581 -0.20716
 N69 N -0.03949 0.90107 -0.09306
 N70 N -0.06752 0.86512 -0.10800
 N71 N -0.03995 0.94050 -0.15189
 N72 N -0.06850 0.93302 -0.20757
 N73 N 0.04177 0.90292 -0.09265
 N74 N 0.07048 0.86814 -0.10718
 Mn75 Mn 0.00108 0.90123 0.00156
 C76 C 0.08823 0.88955 -0.17857
 C77 C -0.08551 0.88599 -0.17943
 N78 N 0.04020 1.06054 0.15451
 N79 N 0.06901 1.06807 0.20964
 N80 N -0.04165 1.09811 0.09548
 N81 N -0.07029 1.13298 0.11028
 N82 N -0.04144 1.05876 0.15445
 N83 N -0.07017 1.06524 0.21015
 N84 N 0.03953 1.09997 0.09567
 N85 N 0.06748 1.13605 0.11016
 Mn86 Mn -0.00009 1.00048 0.15554
 C87 C 0.08577 1.11523 0.18113
 C88 C -0.08798 1.11155 0.18178
 N89 N -0.04120 1.05874 -0.15212
 N90 N -0.06993 1.06514 -0.20775
 N91 N 0.03977 1.09993 -0.09326
 N92 N 0.06781 1.13591 -0.10829
 N93 N 0.04033 1.06049 -0.15190
 N94 N 0.06896 1.06796 -0.20750
 N95 N -0.04149 1.09807 -0.09329
 N96 N -0.07019 1.13282 -0.10806
 Mn97 Mn 0.00019 1.00049 -0.15276
 Mn98 Mn -0.00097 1.09976 0.00115
 Cl99 Cl 0.00005 1.00050 0.00139
 C100 C -0.08782 1.11138 -0.17944
 C101 C 0.08591 1.11502 -0.17955
 N102 N 0.54052 0.55793 0.15318
 N103 N 0.56911 0.56439 0.20919
 N104 N 0.45974 0.59876 0.09305
 N105 N 0.43173 0.63469 0.10768
 N106 N 0.45898 0.55923 0.15170
 N107 N 0.43023 0.56662 0.20695
 N108 N 0.54099 0.59728 0.09422
 N109 N 0.56967 0.63211 0.10931
 C110 C 0.58710 0.61072 0.18101
 C111 C 0.41341 0.61369 0.17870
 N112 N 0.45980 0.55969 -0.15451
 N113 N 0.43114 0.56728 -0.21005
 N114 N 0.54157 0.59758 -0.09462
 N115 N 0.57030 0.63250 -0.10905
 N116 N 0.54145 0.55837 -0.15364
 N117 N 0.57031 0.56494 -0.20894
 N118 N 0.46040 0.59909 -0.09576
 N119 N 0.43254 0.63518 -0.11072
 Mn120 Mn 0.50069 0.59892 -0.00077
 C121 C 0.41439 0.61441 -0.18186
 C122 C 0.58811 0.61121 -0.18033
 N123 N 0.45775 0.44093 0.15140
 N124 N 0.42879 0.43403 0.20649
 N125 N 0.53923 0.40044 0.09388
 N126 N 0.56742 0.36484 0.10879
 N127 N 0.53939 0.43965 0.15291
 N128 N 0.56793 0.43240 0.20870
 N129 N 0.45805 0.40151 0.09270
 N130 N 0.42966 0.36608 0.10722
 Mn131 Mn 0.49914 0.49943 0.15320
 C132 C 0.41149 0.38732 0.17802
 C133 C 0.58521 0.38571 0.18041
 N134 N 0.54057 0.44012 -0.15372
 N135 N 0.56941 0.43263 -0.20888
 N136 N 0.45861 0.40187 -0.09601
 N137 N 0.43005 0.36686 -0.11122
 N138 N 0.45894 0.44132 -0.15481
 N139 N 0.43038 0.43478 -0.21081
 N140 N 0.53978 0.40062 -0.09500
 N141 N 0.56765 0.36452 -0.10965
 Mn142 Mn 0.50018 0.49988 -0.15510
 Mn143 Mn 0.49892 0.40039 -0.00111
 Cl144 Cl 0.49973 0.49966 -0.00095
 C145 C 0.58606 0.38544 -0.18051
 C146 C 0.41256 0.38830 -0.18280
 C147 C 0.32020 0.37038 0.31026
 C148 C 0.31953 0.31300 0.32536
 C149 C 0.34789 0.28000 0.28480
 C150 C 0.37670 0.30396 0.23281
 C151 C 0.37847 0.36137 0.22277
 C152 C 0.34984 0.39433 0.26103
 H153 H 0.29898 0.39732 0.34003
 H154 H 0.34824 0.23570 0.29413
 H155 H 0.39865 0.27787 0.20386
 H156 H 0.35068 0.43878 0.25364
 C157 C -0.14852 0.77706 0.28782
 C158 C -0.17736 0.80949 0.32781
 C159 C -0.17731 0.86684 0.31238
 C160 C -0.14783 0.89136 0.26340
 C161 C -0.11873 0.85899 0.22571
 C162 C -0.11986 0.80157 0.23605
 H163 H -0.14768 0.73280 0.29743
 H164 H -0.19892 0.89335 0.34171
 H165 H -0.14749 0.93580 0.25574
 H166 H -0.09754 0.77594 0.20753
 C167 C 0.67403 0.62645 0.32769
 C168 C 0.67987 0.68381 0.32665
 C169 C 0.65650 0.71673 0.27258
 C170 C 0.62730 0.69274 0.22183
 C171 C 0.62040 0.63572 0.22631
 C172 C 0.64429 0.60274 0.27881
 H173 H 0.69142 0.60011 0.36920
 H174 H 0.66044 0.76104 0.27061
 H175 H 0.60913 0.71897 0.18191
 H176 H 0.63962 0.55862 0.28300
 C177 C 0.14887 1.22340 0.28669
 C178 C 0.17746 1.19072 0.32714
 C179 C 0.17704 1.13332 0.31246
 C180 C 0.14748 1.10902 0.26368
 C181 C 0.11864 1.14164 0.22550
 C182 C 0.12011 1.19908 0.23515
 H183 H 0.14832 1.26770 0.29572
 H184 H 0.19845 1.10662 0.34214
 H185 H 0.14688 1.06457 0.25656
 H186 H 0.09799 1.22490 0.20624
 C187 C 0.64834 0.27710 -0.28768
 C188 C 0.67720 0.30961 -0.32778
 C189 C 0.67726 0.36693 -0.31233
 C190 C 0.64787 0.39135 -0.26313
 C191 C 0.61877 0.35890 -0.22526
 C192 C 0.61978 0.30150 -0.23570
 H193 H 0.64742 0.23286 -0.29730
 H194 H 0.69888 0.39351 -0.34174
 H195 H 0.64761 0.43577 -0.25543
 H196 H 0.59745 0.27580 -0.20708
 C197 C 0.17531 0.87371 -0.32475
 C198 C 0.18082 0.81632 -0.32415
 C199 C 0.15731 0.78341 -0.27016
 C200 C 0.12820 0.80746 -0.21924
 C201 C 0.12158 0.86452 -0.22347
 C202 C 0.14568 0.89749 -0.27569
 H203 H 0.19282 0.90004 -0.36618
 H204 H 0.16100 0.73906 -0.26853
 H205 H 0.10986 0.78124 -0.17953
 H206 H 0.14121 0.94165 -0.27965
 C207 C 0.35207 0.72286 -0.28896
 C208 C 0.32314 0.69042 -0.32871
 C209 C 0.32314 0.63306 -0.31333
 C210 C 0.35260 0.60857 -0.26444
 C211 C 0.38172 0.64098 -0.22677
 C212 C 0.38069 0.69839 -0.23725
 H213 H 0.35296 0.76713 -0.29855
 H214 H 0.30148 0.60654 -0.34252
 H215 H 0.35287 0.56413 -0.25671
 H216 H 0.40303 0.72405 -0.20877
 C217 C -0.15699 1.21732 -0.27149
 C218 C -0.18045 1.18431 -0.32523
 C219 C -0.17484 1.12694 -0.32562
 C220 C -0.14518 1.10327 -0.27653
 C221 C -0.12115 1.13632 -0.22449
 C222 C -0.12786 1.19337 -0.22054
 H223 H -0.16076 1.26165 -0.27002
 H224 H -0.19231 1.10055 -0.36684
 H225 H -0.14065 1.05912 -0.28028
 H226 H -0.10957 1.21964 -0.18097
 C227 C 0.65676 0.71742 -0.27430
 C228 C 0.68049 0.68429 -0.32718
 C229 C 0.67535 0.62682 -0.32598
 C230 C 0.64583 0.60313 -0.27631
 C231 C 0.62147 0.63628 -0.22527
 C232 C 0.62775 0.69347 -0.22274
 H233 H 0.66020 0.76183 -0.27402
 H234 H 0.69307 0.60032 -0.36647
 H235 H 0.64161 0.55887 -0.27895
 H236 H 0.60919 0.71981 -0.18398
 C237 C 0.15281 1.22252 -0.27667
 C238 C 0.17724 1.18949 -0.32813
 C239 C 0.17308 1.13189 -0.32483
 C240 C 0.14392 1.10788 -0.27454
 C241 C 0.11889 1.14084 -0.22489
 C242 C 0.12412 1.19827 -0.22444
 H243 H 0.15547 1.26703 -0.27798
 H244 H 0.19133 1.10540 -0.36410
 H245 H 0.14051 1.06345 -0.27560
 H246 H 0.10501 1.22446 -0.18681
 C247 C 0.32572 0.37276 -0.32932
 C248 C 0.32055 0.31530 -0.33033
 C249 C 0.34425 0.28211 -0.27741
 C250 C 0.37317 0.30603 -0.22581
 C251 C 0.37943 0.36323 -0.22836
 C252 C 0.35518 0.39642 -0.27962
 H253 H 0.30803 0.39930 -0.36985
 H254 H 0.34078 0.23771 -0.27700
 H255 H 0.39166 0.27966 -0.18687
 H256 H 0.35938 0.44069 -0.28227
 C257 C -0.15243 0.77829 -0.27523
 C258 C -0.17668 0.81114 -0.32745
 C259 C -0.17238 0.86874 -0.32525
 C260 C -0.14325 0.89290 -0.27520
 C261 C -0.11842 0.86010 -0.22474
 C262 C -0.12379 0.80270 -0.22327
 H263 H -0.15521 0.73379 -0.27569
 H264 H -0.19050 0.89507 -0.36513
 H265 H -0.13974 0.93730 -0.27705
 H266 H -0.10483 0.77663 -0.18500
 C267 C 0.34688 0.72161 0.27447
 C268 C 0.32244 0.68883 0.32659
 C269 C 0.32639 0.63121 0.32406
 C270 C 0.35543 0.60693 0.27394
 C271 C 0.38051 0.63966 0.22375
 C272 C 0.37542 0.69709 0.22246
 H273 H 0.34436 0.76613 0.27518
 H274 H 0.30812 0.60493 0.36385
 H275 H 0.35872 0.56250 0.27561
 H276 H 0.39457 0.72310 0.18437
 C277 C -0.15659 1.21764 0.27534
 C278 C -0.18028 1.18452 0.32862
 C279 C -0.17503 1.12708 0.32813
 C280 C -0.14549 1.10342 0.27863
 C281 C -0.12123 1.13657 0.22704
 C282 C -0.12758 1.19372 0.22396
 H283 H -0.16011 1.26202 0.27452
 H284 H -0.19269 1.10059 0.36896
 H285 H -0.14122 1.05920 0.28173
 H286 H -0.10911 1.22007 0.18478
 C287 C 0.65266 0.27848 0.27511
 C288 C 0.67673 0.31137 0.32767
 C289 C 0.67214 0.36891 0.32613
 C290 C 0.64287 0.39295 0.27640
 C291 C 0.61821 0.36009 0.22561
 C292 C 0.62390 0.30279 0.22346
 H293 H 0.65567 0.23402 0.27510
 H294 H 0.69012 0.39524 0.36634
 H295 H 0.63911 0.43729 0.27873
 H296 H 0.60508 0.27668 0.18489
 C297 C 0.17461 0.87366 0.32939
 C298 C 0.17991 0.81623 0.32980
 C299 C 0.15625 0.78318 0.27656
 C300 C 0.12727 0.80716 0.22519
 C301 C 0.12089 0.86430 0.22827
 C302 C 0.14508 0.89737 0.27992
 H303 H 0.19224 0.90008 0.37021
 H304 H 0.15981 0.73880 0.27569
 H305 H 0.10885 0.78086 0.18597
 H306 H 0.14079 0.94159 0.28301
   
