data_POSCAR
  _audit_creation_date              2014-09-24
  _audit_creation_method            'ToBaCCo'
  _symmetry_space_group_name_H-M    'P1'
  _symmetry_Int_Tables_number       1
  _symmetry_cell_setting            triclinic
  loop_
  _symmetry_equiv_pos_as_xyz
 x,y,z
_cell_length_a 31.2363
_cell_length_b 30.5756
_cell_length_c 31.6540
_cell_angle_alpha 90.791700
_cell_angle_beta 89.250800
_cell_angle_gamma 89.982500
loop_
  _atom_site_label
  _atom_site_type_symbol
  _atom_site_fract_x
  _atom_site_fract_y
  _atom_site_fract_z
N1 N 0.21840 0.21741 0.20249
 N2 N 0.70672 0.69297 0.69752
 N3 N 0.27333 0.80563 0.72022
 N4 N 0.80129 0.29117 0.19937
 N5 N 0.78013 0.70879 0.28489
 N6 N 0.28954 0.21657 -0.20730
 N7 N 0.71421 0.27518 -0.21686
 N8 N 0.20201 0.80376 0.31614
 N9 N 0.44883 0.44644 0.45627
 N10 N -0.02757 -0.04207 0.97501
 N11 N 1.04121 0.55301 0.95922
 N12 N 0.54048 0.03364 0.45445
 N13 N -0.05648 0.06000 0.54317
 N14 N 0.47777 0.54242 0.03433
 N15 N 0.53303 -0.04093 0.02698
 N16 N 1.04591 0.45644 0.54305
 C17 C 0.43952 0.01360 0.18059
 H18 H 0.44563 0.04359 0.19801
 C19 C 0.46418 0.00307 0.14465
 H20 H 0.48931 0.02533 0.13529
 C21 C 0.40089 -0.05269 0.17388
 H22 H 0.37704 -0.07501 0.18587
 C23 C 0.42469 -0.06448 0.13790
 H24 H 0.41833 -0.09552 0.12229
 N25 N 0.40838 -0.01405 0.19429
 C26 C 0.31974 0.06249 0.27366
 H27 H 0.31926 0.04180 0.30111
 C28 C 0.29312 0.09903 0.27243
 H29 H 0.27234 0.10640 0.29926
 C30 C 0.34671 0.07708 0.20500
 H31 H 0.36728 0.06804 0.17859
 C32 C 0.32037 0.11399 0.20234
 H33 H 0.32202 0.13336 0.17407
 Zn34 Zn 0.37775 -0.00018 0.24491
 N35 N 0.34595 0.05228 0.24036
 C36 C 0.41927 0.04023 0.31493
 N37 N 0.41755 0.00412 0.28945
 C38 C 0.44377 -0.03064 0.29557
 C39 C 0.47196 -0.03069 0.32943
 C40 C 0.44695 0.04158 0.34924
 C41 C 0.30524 -0.05032 0.22859
 C42 C 0.27446 -0.08265 0.23495
 C43 C 0.30977 -0.10216 0.29950
 C44 C 0.33999 -0.06947 0.29182
 N45 N 0.33752 -0.04475 0.25653
 H46 H 0.39870 0.06785 0.30920
 H47 H 0.44203 -0.05881 0.27460
 H48 H 0.49200 -0.05906 0.33423
 H49 H 0.44624 0.07020 0.36960
 H50 H 0.30375 -0.02979 0.20108
 H51 H 0.24923 -0.08696 0.21210
 H52 H 0.31332 -0.12212 0.32715
 H53 H 0.36539 -0.06405 0.31408
 C54 C 0.29270 0.12505 0.23633
 C55 C 0.45671 -0.03652 0.12264
 C56 C 0.27636 -0.10898 0.27078
 C57 C 0.47368 0.00554 0.35705
 C58 C 0.03350 -0.00230 0.70430
 H59 H 0.03158 -0.02838 0.72701
 C60 C 0.00481 -0.00110 0.67100
 H61 H -0.01943 -0.02629 0.66836
 C62 C 0.06834 0.06146 0.67963
 H63 H 0.09342 0.08551 0.68291
 C64 C 0.04021 0.06399 0.64579
 H65 H 0.04478 0.08978 0.62317
 N66 N 0.06512 0.02803 0.70739
 C67 C 0.17227 -0.03946 0.76248
 H68 H 0.17898 -0.01800 0.78905
 C69 C 0.19869 -0.07537 0.75383
 H70 H 0.22592 -0.08038 0.77389
 C71 C 0.12995 -0.05628 0.70289
 H72 H 0.10379 -0.04826 0.68247
 C73 C 0.15542 -0.09265 0.69317
 H74 H 0.14819 -0.11254 0.66559
 Zn75 Zn 0.10565 0.01979 0.75025
 N76 N 0.13843 -0.03085 0.73739
 C77 C 0.08070 -0.02371 0.82512
 N78 N 0.07552 0.01314 0.80217
 C79 C 0.04775 0.04506 0.81501
 C80 C 0.02421 0.04079 0.85261
 C81 C 0.05789 -0.02930 0.86285
 C82 C 0.17167 0.07280 0.71980
 C83 C 0.20296 0.10536 0.72102
 C84 C 0.17788 0.12594 0.79102
 C85 C 0.14704 0.09295 0.78844
 N86 N 0.14446 0.06724 0.75317
 H87 H 0.10247 -0.04899 0.81423
 H88 H 0.04386 0.07385 0.79594
 H89 H 0.00229 0.06655 0.86243
 H90 H 0.06376 -0.05844 0.88084
 H91 H 0.16935 0.05145 0.69238
 H92 H 0.22451 0.10913 0.69422
 H93 H 0.17854 0.14633 0.81916
 H94 H 0.12555 0.08767 0.81487
 C95 C 0.19010 -0.10290 0.71890
 C96 C 0.00818 0.03200 0.64093
 C97 C 0.20683 0.13205 0.75714
 C98 C 0.02877 0.00307 0.87688
 C99 C 0.56225 0.46216 0.19160
 H100 H 0.56110 0.43293 0.21046
 C101 C 0.53628 0.46564 0.15632
 H102 H 0.51533 0.43871 0.14802
 C103 C 0.59011 0.53318 0.18054
 H104 H 0.61031 0.55986 0.19078
 C105 C 0.56440 0.53823 0.14517
 H106 H 0.56561 0.56910 0.12906
 N107 N 0.58876 0.49548 0.20276
 C108 C 0.68452 0.43298 0.28085
 H109 H 0.68172 0.45258 0.30947
 C110 C 0.71538 0.39999 0.27767
 H111 H 0.73609 0.39409 0.30418
 C112 C 0.66168 0.41772 0.21112
 H113 H 0.64125 0.42517 0.18494
 C114 C 0.69204 0.38442 0.20659
 H115 H 0.69318 0.36591 0.17726
 Zn116 Zn 0.62004 0.48888 0.25290
 N117 N 0.65838 0.44113 0.24786
 C118 C 0.58012 0.44643 0.32325
 N119 N 0.57932 0.48092 0.29662
 C120 C 0.54900 0.51266 0.30054
 C121 C 0.51891 0.51157 0.33335
 C122 C 0.55039 0.44392 0.35653
 C123 C 0.68415 0.55156 0.23737
 C124 C 0.71023 0.58754 0.24645
 C125 C 0.67237 0.59680 0.31301
 C126 C 0.64707 0.56081 0.30265
 N127 N 0.65299 0.53927 0.26515
 H128 H 0.60425 0.42134 0.31928
 H129 H 0.54901 0.53954 0.27867
 H130 H 0.49563 0.53772 0.33660
 H131 H 0.55276 0.41712 0.37831
 H132 H 0.68899 0.53308 0.20830
 H133 H 0.73526 0.59597 0.22413
 H134 H 0.66720 0.61345 0.34308
 H135 H 0.62327 0.54973 0.32507
 C136 C 0.71989 0.37562 0.24000
 C137 C 0.53702 0.50397 0.13248
 C138 C 0.70420 0.61085 0.28474
 C139 C 0.51941 0.47707 0.36197
 C140 C 0.94379 0.52108 0.69950
 H141 H 0.94374 0.54811 0.72192
 C142 C 0.97174 0.52140 0.66490
 H143 H 0.99321 0.54888 0.66081
 C144 C 0.91588 0.45233 0.67805
 H145 H 0.89412 0.42547 0.68349
 C146 C 0.94350 0.45122 0.64290
 H147 H 0.94180 0.42365 0.62125
 N148 N 0.91636 0.48713 0.70524
 C149 C 0.81236 0.54585 0.77931
 H150 H 0.81216 0.52576 0.80718
 C151 C 0.78230 0.57937 0.77544
 H152 H 0.75906 0.58502 0.80063
 C153 C 0.84236 0.56234 0.71232
 H154 H 0.86538 0.55535 0.68742
 C155 C 0.81301 0.59621 0.70718
 H156 H 0.81518 0.61526 0.67875
 Zn157 Zn 0.88104 0.49130 0.75391
 N158 N 0.84182 0.53817 0.74809
 C159 C 0.91345 0.53555 0.82692
 N160 N 0.91827 0.50106 0.79973
 C161 C 0.95105 0.47220 0.80364
 C162 C 0.98023 0.47693 0.83636
 C163 C 0.94185 0.54148 0.86024
 C164 C 0.81937 0.42656 0.73444
 C165 C 0.79337 0.39019 0.74225
 C166 C 0.82919 0.38113 0.80871
 C167 C 0.85436 0.41750 0.79964
 N168 N 0.84918 0.43942 0.76298
 H169 H 0.88748 0.55840 0.82300
 H170 H 0.95432 0.44526 0.78131
 H171 H 1.00596 0.45341 0.83908
 H172 H 0.93622 0.56849 0.88193
 H173 H 0.81525 0.44512 0.70591
 H174 H 0.76959 0.38144 0.71918
 H175 H 0.83364 0.36452 0.83834
 H176 H 0.87731 0.42872 0.82254
 C177 C 0.78208 0.60489 0.73890
 C178 C 0.97211 0.48614 0.63618
 C179 C 0.79800 0.36702 0.78012
 C180 C 0.97606 0.51195 0.86517
 C181 C 0.19805 0.45575 0.03022
 H182 H 0.21886 0.45608 0.05728
 C183 C 0.16252 0.48357 0.02948
 H184 H 0.15598 0.50517 0.05621
 C185 C 0.18133 0.42737 -0.03757
 H186 H 0.18890 0.40577 -0.06389
 C187 C 0.14570 0.45481 -0.03976
 H188 H 0.12571 0.45269 -0.06735
 N189 N 0.20642 0.42789 -0.00275
 C190 C 0.28490 0.32445 0.05105
 H191 H 0.31097 0.32429 0.02821
 C192 C 0.28489 0.29482 0.08419
 H193 H 0.31122 0.27199 0.08681
 C194 C 0.21866 0.35410 0.07488
 H195 H 0.19266 0.37690 0.07088
 C196 C 0.21726 0.32485 0.10847
 H197 H 0.19057 0.32667 0.13052
 Zn198 Zn 0.25512 0.39072 -0.00033
 N199 N 0.25231 0.35357 0.04716
 C200 C 0.33076 0.42535 0.03618
 N201 N 0.30463 0.42658 0.00216
 C202 C 0.31312 0.45353 -0.03074
 C203 C 0.35012 0.47920 -0.03110
 C204 C 0.36784 0.45082 0.03733
 C205 C 0.22421 0.32517 -0.05380
 C206 C 0.22391 0.29581 -0.08792
 C207 C 0.29288 0.32365 -0.11006
 C208 C 0.29175 0.35269 -0.07556
 N209 N 0.25754 0.35321 -0.04850
 H210 H 0.32310 0.40443 0.06242
 H211 H 0.29150 0.45435 -0.05714
 H212 H 0.35694 0.49979 -0.05794
 H213 H 0.38878 0.44812 0.06413
 H214 H 0.19773 0.32577 -0.03143
 H215 H 0.19695 0.27391 -0.09177
 H216 H 0.32002 0.32467 -0.13157
 H217 H 0.31841 0.37447 -0.07037
 C218 C 0.25062 0.29438 0.11320
 C219 C 0.13598 0.48357 -0.00593
 C220 C 0.25865 0.29449 -0.11640
 C221 C 0.37796 0.47812 0.00324
 C222 C 0.69352 0.04684 -0.01601
 H223 H 0.71040 0.04289 -0.04588
 C224 C 0.65814 0.02049 -0.00680
 H225 H 0.64875 -0.00425 -0.02960
 C226 C 0.68642 0.08329 0.05022
 H227 H 0.69768 0.10745 0.07263
 C228 C 0.65113 0.05752 0.06081
 H229 H 0.63533 0.06246 0.09118
 N230 N 0.70609 0.07843 0.01185
 C231 C 0.76424 0.17870 -0.06716
 H232 H 0.79448 0.18328 -0.05143
 C233 C 0.75416 0.20424 -0.10192
 H234 H 0.77686 0.22877 -0.11199
 C235 C 0.69717 0.14285 -0.07075
 H236 H 0.67450 0.11976 -0.05797
 C237 C 0.68579 0.16764 -0.10557
 H238 H 0.65463 0.16286 -0.11953
 Zn239 Zn 0.75143 0.11638 -0.00405
 N240 N 0.73607 0.14836 -0.05259
 C241 C 0.81908 0.08107 -0.05466
 N242 N 0.80100 0.08192 -0.01532
 C243 C 0.81665 0.05672 0.01604
 C244 C 0.85261 0.03028 0.00876
 C245 C 0.85480 0.05484 -0.06341
 C246 C 0.72815 0.18609 0.04832
 C247 C 0.73079 0.21618 0.08166
 C248 C 0.80156 0.18897 0.09642
 C249 C 0.79751 0.15924 0.06269
 N250 N 0.76082 0.15778 0.04000
 H251 H 0.80551 0.10022 -0.07958
 H252 H 0.80096 0.05701 0.04672
 H253 H 0.86391 0.01002 0.03404
 H254 H 0.86867 0.05442 -0.09497
 H255 H 0.69949 0.18451 0.02952
 H256 H 0.70399 0.23783 0.08826
 H257 H 0.83049 0.18827 0.11473
 H258 H 0.82343 0.13697 0.05519
 C259 C 0.71449 0.19855 -0.12189
 C260 C 0.63582 0.02650 0.03175
 C261 C 0.76764 0.21780 0.10646
 C262 C 0.87232 0.02939 -0.03145
 C263 C 0.20011 0.56577 0.48256
 H264 H 0.22273 0.56677 0.45640
 C265 C 0.16590 0.53661 0.48132
 H266 H 0.16224 0.51526 0.45400
 C267 C 0.17792 0.59229 0.55005
 H268 H 0.18298 0.61389 0.57683
 C269 C 0.14323 0.56327 0.55026
 H270 H 0.12136 0.56382 0.57703
 N271 N 0.20531 0.59312 0.51632
 C272 C 0.28231 0.69562 0.45876
 H273 H 0.31077 0.69463 0.47784
 C274 C 0.27939 0.72558 0.42599
 H275 H 0.30590 0.74752 0.41983
 C276 C 0.21291 0.66869 0.44408
 H277 H 0.18674 0.64696 0.45155
 C278 C 0.20864 0.69807 0.41104
 H279 H 0.17960 0.69712 0.39288
 Zn280 Zn 0.25428 0.62934 0.51312
 N281 N 0.24944 0.66775 0.46699
 C282 C 0.32636 0.59047 0.47029
 N283 N 0.30108 0.59073 0.50560
 C284 C 0.30673 0.56116 0.53672
 C285 C 0.33925 0.53004 0.53338
 C286 C 0.35915 0.55959 0.46548
 C287 C 0.23114 0.69295 0.57515
 C288 C 0.23833 0.72224 0.60871
 C289 C 0.30953 0.69245 0.61503
 C290 C 0.30090 0.66362 0.58169
 N291 N 0.26222 0.66429 0.56244
 H292 H 0.32088 0.61383 0.44564
 H293 H 0.28575 0.56181 0.56419
 H294 H 0.34336 0.50680 0.55854
 H295 H 0.37933 0.56048 0.43748
 H296 H 0.20117 0.69386 0.55844
 H297 H 0.21358 0.74555 0.61735
 H298 H 0.34080 0.69190 0.62944
 H299 H 0.32582 0.64184 0.57028
 C300 C 0.24206 0.72742 0.40189
 C301 C 0.13714 0.53472 0.51552
 C302 C 0.27818 0.72226 0.62897
 C303 C 0.36559 0.52858 0.49725
 C304 C 0.68939 0.93004 0.52901
 H305 H 0.70962 0.93121 0.55649
 C306 C 0.65337 0.95681 0.52732
 H307 H 0.64584 0.97844 0.55378
 C308 C 0.67548 0.90122 0.46067
 H309 H 0.68465 0.88003 0.43451
 C310 C 0.63922 0.92776 0.45750
 H311 H 0.62027 0.92557 0.42921
 N312 N 0.69965 0.90284 0.49610
 C313 C 0.78344 0.80803 0.55589
 H314 H 0.81224 0.81134 0.53684
 C315 C 0.78191 0.77762 0.58847
 H316 H 0.80984 0.75779 0.59456
 C317 C 0.71178 0.82923 0.57049
 H318 H 0.68421 0.84883 0.56304
 C319 C 0.70887 0.79931 0.60333
 H320 H 0.67934 0.79781 0.62143
 Zn321 Zn 0.75143 0.87145 0.50096
 N322 N 0.74871 0.83320 0.54762
 C323 C 0.82090 0.91640 0.54105
 N324 N 0.79467 0.91420 0.50714
 C325 C 0.79775 0.94361 0.47540
 C326 C 0.82913 0.97599 0.47615
 C327 C 0.85255 0.94867 0.54331
 C328 C 0.73471 0.80580 0.43991
 C329 C 0.74332 0.77917 0.40454
 C330 C 0.81101 0.81634 0.39570
 C331 C 0.80105 0.84229 0.43099
 N332 N 0.76318 0.83705 0.45200
 H333 H 0.81754 0.89303 0.56617
 H334 H 0.77614 0.94131 0.44903
 H335 H 0.83166 0.99862 0.45020
 H336 H 0.87393 0.94902 0.56992
 H337 H 0.70540 0.80143 0.45794
 H338 H 0.72045 0.75412 0.39606
 H339 H 0.84137 0.82098 0.37943
 H340 H 0.82407 0.86606 0.44192
 C341 C 0.74413 0.77249 0.61234
 C342 C 0.62816 0.95645 0.49104
 C343 C 0.78190 0.78462 0.38176
 C344 C 0.85690 0.97895 0.51041
 C345 C 0.03156 0.19801 0.43140
 H346 H 0.05893 0.21968 0.43209
 C347 C 0.02704 0.16561 0.46180
 H348 H 0.05138 0.16216 0.48560
 C349 C -0.03432 0.17750 0.40065
 H350 H -0.05868 0.18285 0.37738
 C351 C -0.04017 0.14474 0.43051
 H352 H -0.06841 0.12442 0.42861
 N353 N 0.00096 0.20354 0.40179
 C354 C 0.06067 0.28352 0.30396
 H355 H 0.03741 0.30972 0.30339
 C356 C 0.09568 0.28386 0.27617
 H357 H 0.09929 0.31059 0.25429
 C358 C 0.08371 0.21659 0.33292
 H359 H 0.07869 0.19031 0.35490
 C360 C 0.11918 0.21550 0.30545
 H361 H 0.14159 0.18870 0.30760
 Zn362 Zn 0.00567 0.25280 0.36643
 N363 N 0.05545 0.25039 0.33176
 C364 C 0.04164 0.32974 0.40321
 N365 N 0.00730 0.30239 0.40285
 C366 C -0.02563 0.30764 0.43097
 C367 C -0.02490 0.34153 0.46095
 C368 C 0.04374 0.36404 0.43273
 C369 C -0.04537 0.22257 0.30065
 C370 C -0.07864 0.22288 0.27166
 C371 C -0.10334 0.29113 0.30267
 C372 C -0.06957 0.28948 0.33112
 N373 N -0.04158 0.25541 0.32975
 H374 H 0.06788 0.32460 0.38115
 H375 H -0.05222 0.28498 0.43046
 H376 H -0.05126 0.34500 0.48332
 H377 H 0.07116 0.38558 0.43183
 H378 H -0.02236 0.19610 0.29999
 H379 H -0.08118 0.19641 0.24873
 H380 H -0.12563 0.31811 0.30526
 H381 H -0.06569 0.31557 0.35410
 C382 C 0.12524 0.24939 0.27628
 C383 C -0.00963 0.13915 0.46227
 C384 C -0.10793 0.25764 0.27208
 C385 C 0.01038 0.36982 0.46260
 C386 C -0.00414 0.69697 0.07100
 H387 H -0.03430 0.71420 0.06912
 C388 C 0.00660 0.66515 0.04072
 H389 H -0.01537 0.65876 0.01524
 C390 C 0.06183 0.68644 0.10556
 H391 H 0.08354 0.69529 0.13053
 C392 C 0.07398 0.65447 0.07577
 H393 H 0.10483 0.63859 0.07826
 N394 N 0.02297 0.70634 0.10308
 C395 C -0.05958 0.75778 0.20365
 H396 H -0.04274 0.78783 0.21084
 C397 C -0.09649 0.74695 0.22644
 H398 H -0.10706 0.76869 0.25171
 C399 C -0.06424 0.69221 0.16320
 H400 H -0.05121 0.67063 0.13900
 C401 C -0.10130 0.68006 0.18524
 H402 H -0.11674 0.64930 0.17753
 Zn403 Zn 0.00509 0.74940 0.14296
 N404 N -0.04468 0.73090 0.17223
 C405 C -0.04728 0.81773 0.11294
 N406 N -0.00684 0.80120 0.11290
 C407 C 0.02487 0.81940 0.08914
 C408 C 0.01654 0.85582 0.06432
 C409 C -0.05707 0.85391 0.08845
 C410 C 0.05668 0.72389 0.20901
 C411 C 0.08850 0.72717 0.23938
 C412 C 0.10123 0.80166 0.21805
 C413 C 0.06905 0.79693 0.18807
 N414 N 0.04803 0.75825 0.18370
 H415 H -0.07240 0.80230 0.13110
 H416 H 0.05665 0.80530 0.08921
 H417 H 0.04272 0.86986 0.04647
 H418 H -0.08961 0.86619 0.08853
 H419 H 0.03911 0.69364 0.20513
 H420 H 0.09535 0.69919 0.25880
 H421 H 0.11824 0.83237 0.21963
 H422 H 0.06124 0.82407 0.16811
 C423 C -0.11831 0.70791 0.21677
 C424 C 0.04584 0.64283 0.04340
 C425 C 0.11138 0.76631 0.24424
 C426 C -0.02524 0.87312 0.06318
 C427 C 0.46897 0.18764 0.56137
 H428 H 0.44389 0.21200 0.56037
 C429 C 0.46947 0.15298 0.53222
 H430 H 0.44444 0.15060 0.50893
 C431 C 0.53278 0.16196 0.59227
 H432 H 0.55743 0.16578 0.61568
 C433 C 0.53459 0.12681 0.56362
 H434 H 0.56035 0.10339 0.56613
 N435 N 0.50057 0.19174 0.59029
 C436 C 0.42512 0.20859 0.66317
 H437 H 0.42915 0.18174 0.64094
 C438 C 0.39028 0.20864 0.69135
 H439 H 0.36762 0.18201 0.68948
 C440 C 0.44934 0.27617 0.69140
 H441 H 0.47265 0.30234 0.69130
 C442 C 0.41504 0.27756 0.72007
 H443 H 0.41210 0.30502 0.74191
 Zn444 Zn 0.50071 0.24271 0.62469
 N445 N 0.45364 0.24221 0.66345
 C446 C 0.52189 0.29058 0.55280
 N447 N 0.49580 0.29069 0.58756
 C448 C 0.46570 0.32244 0.59366
 C449 C 0.46172 0.35623 0.56469
 C450 C 0.51929 0.32387 0.52331
 C451 C 0.55246 0.24135 0.69772
 C452 C 0.59009 0.24552 0.72086
 C453 C 0.62867 0.25901 0.65582
 C454 C 0.59036 0.25454 0.63396
 N455 N 0.55301 0.24660 0.65508
 H456 H 0.54404 0.26392 0.54726
 H457 H 0.44438 0.32162 0.62070
 H458 H 0.43814 0.38155 0.57070
 H459 H 0.54036 0.32322 0.49585
 H460 H 0.52287 0.23357 0.71396
 H461 H 0.58846 0.24054 0.75457
 H462 H 0.65794 0.26582 0.63839
 H463 H 0.59068 0.25760 0.60010
 C464 C 0.38501 0.24349 0.72050
 C465 C 0.50308 0.12260 0.53241
 C466 C 0.62886 0.25526 0.69989
 C467 C 0.48869 0.35698 0.52882
 C468 C 0.51614 0.68584 0.92085
 H469 H 0.54656 0.70273 0.91986
 C470 C 0.50927 0.65249 0.94988
 H471 H 0.53469 0.64440 0.97128
 C472 C 0.44519 0.67865 0.89612
 H473 H 0.41982 0.68970 0.87606
 C474 C 0.43688 0.64536 0.92476
 H475 H 0.40534 0.63066 0.92597
 N476 N 0.48442 0.69795 0.89443
 C477 C 0.54672 0.76685 0.79067
 H478 H 0.52575 0.79500 0.79002
 C479 C 0.58133 0.76381 0.76257
 H480 H 0.58674 0.78974 0.74015
 C481 C 0.56533 0.69933 0.82136
 H482 H 0.55902 0.67438 0.84445
 C483 C 0.60041 0.69489 0.79370
 H484 H 0.62099 0.66672 0.79669
 Zn485 Zn 0.49397 0.74587 0.85829
 N486 N 0.53987 0.73536 0.81987
 C487 C 0.54621 0.81436 0.88910
 N488 N 0.50712 0.79514 0.89298
 C489 C 0.47868 0.80854 0.92342
 C490 C 0.48886 0.84312 0.95095
 C491 C 0.55772 0.84881 0.91592
 C492 C 0.43368 0.72268 0.79822
 C493 C 0.39671 0.72604 0.77423
 C494 C 0.38369 0.79719 0.80605
 C495 C 0.42085 0.79235 0.82962
 N496 N 0.44461 0.75523 0.82573
 H497 H 0.56909 0.80247 0.86582
 H498 H 0.44829 0.79188 0.92671
 H499 H 0.46597 0.85239 0.97536
 H500 H 0.58913 0.86344 0.91240
 H501 H 0.45339 0.69364 0.79559
 H502 H 0.38808 0.69951 0.75297
 H503 H 0.36457 0.82636 0.81088
 H504 H 0.43032 0.81802 0.85133
 C505 C 0.60892 0.72772 0.76394
 C506 C 0.46911 0.63169 0.95193
 C507 C 0.37124 0.76363 0.77787
 C508 C 0.52897 0.86381 0.94723
 C509 C 0.18354 0.21495 0.23280
 C510 C 0.16188 0.25057 0.24602
 H511 H 0.17511 0.18322 0.24511
 H512 H 0.17046 0.28207 0.23315
 C513 C 0.66994 0.69120 0.72557
 C514 C 0.64675 0.72701 0.73514
 H515 H 0.66153 0.66014 0.73931
 H516 H 0.65575 0.75775 0.72092
 C517 C 0.31351 0.80374 0.74190
 C518 C 0.33135 0.76592 0.75321
 H519 H 0.32812 0.83439 0.75132
 H520 H 0.31647 0.73539 0.74375
 C521 C -0.16448 0.29297 0.22948
 C522 C -0.14290 0.25715 0.24080
 H523 H -0.15699 0.32434 0.24372
 H524 H -0.15066 0.22603 0.22603
 C525 C -0.18368 0.72295 0.25998
 C526 C -0.15760 0.69448 0.23988
 H527 H -0.17672 0.75759 0.25932
 H528 H -0.16526 0.65994 0.24032
 C529 C 0.32442 0.21214 0.76257
 C530 C 0.34856 0.24636 0.75101
 H531 H 0.33062 0.18011 0.74894
 H532 H 0.34185 0.27816 0.76508
 C533 C 0.67321 0.26867 0.76384
 C534 C 0.67004 0.26110 0.72221
 H535 H 0.64488 0.27051 0.78369
 H536 H 0.69924 0.26018 0.70334
 C537 C 0.16556 0.80469 0.28870
 C538 C 0.14650 0.76783 0.27538
 H539 H 0.15518 0.83606 0.27731
 H540 H 0.15773 0.73690 0.28734
 C541 C 0.24998 0.18290 0.20081
 C542 C 0.26282 0.16281 0.23589
 H543 H 0.26298 0.17313 0.17029
 H544 H 0.24933 0.17344 0.26602
 C545 C 0.73925 0.65955 0.69923
 C546 C 0.74953 0.64008 0.73553
 H547 H 0.75560 0.65055 0.67011
 H548 H 0.73274 0.64979 0.76431
 C549 C 0.74135 0.30997 0.76779
 C550 C 0.77056 0.32948 0.79248
 H551 H 0.73592 0.32198 0.73640
 H552 H 0.77411 0.31812 0.82448
 C553 C 0.23404 -0.16242 0.31305
 C554 C 0.24380 -0.14373 0.27606
 H555 H 0.25060 -0.15259 0.34142
 H556 H 0.22665 -0.15388 0.24806
 C557 C 0.24495 -0.15963 0.73343
 C558 C 0.21731 -0.14106 0.70706
 H559 H 0.24800 -0.14713 0.76536
 H560 H 0.21469 -0.15401 0.67518
 C561 C 0.76911 0.32499 0.20055
 C562 C 0.75343 0.34131 0.23716
 H563 H 0.75710 0.33653 0.17082
 H564 H 0.76626 0.32950 0.26652
 C565 C 0.75462 0.67236 0.27052
 C566 C 0.73104 0.64862 0.29744
 H567 H 0.75547 0.66400 0.23722
 H568 H 0.73081 0.65759 0.33066
 C569 C 0.25623 0.18391 0.79346
 C570 C 0.24100 0.16575 0.75789
 H571 H 0.24311 0.17465 0.82381
 H572 H 0.25488 0.17527 0.72784
 C573 C 0.21634 0.24867 0.16879
 C574 C 0.25146 0.26237 0.14803
 H575 H 0.18531 0.26151 0.16059
 H576 H 0.28228 0.24883 0.15617
 C577 C 0.70676 0.72307 0.66281
 C578 C 0.74308 0.73980 0.64666
 H579 H 0.67617 0.73312 0.65061
 H580 H 0.77345 0.72892 0.65889
 C581 C 0.76611 0.73507 0.32068
 C582 C 0.79408 0.75711 0.34467
 H583 H 0.73228 0.73618 0.32833
 H584 H 0.82780 0.75563 0.33632
 C585 C 0.29234 0.24796 -0.17295
 C586 C 0.25737 0.26299 -0.15238
 H587 H 0.32369 0.25944 -0.16385
 H588 H 0.22622 0.25081 -0.16149
 C589 C 0.72816 0.24740 -0.18307
 C590 C 0.70085 0.22549 -0.15801
 H591 H 0.76219 0.24442 -0.17804
 H592 H 0.66687 0.22701 -0.16386
 C593 C 0.20290 0.77308 0.35032
 C594 C 0.23971 0.75956 0.36728
 H595 H 0.17268 0.76023 0.36163
 H596 H 0.26966 0.77296 0.35569
 C597 C 0.26072 0.77415 0.68822
 C598 C 0.28945 0.75429 0.66262
 H599 H 0.22694 0.76763 0.68439
 H600 H 0.32313 0.76122 0.66683
 C601 C 0.80337 0.26083 0.16400
 C602 C 0.76814 0.24875 0.14299
 H603 H 0.83423 0.24752 0.15483
 H604 H 0.73759 0.26249 0.15291
 C605 C 0.45020 0.41325 0.48818
 C606 C 0.48634 0.39170 0.49689
 H607 H 0.42107 0.40598 0.50560
 H608 H 0.51529 0.39863 0.47902
 C609 C -0.01386 0.92384 0.00290
 C610 C -0.03734 0.91041 0.03612
 H611 H 0.01558 0.90691 -0.00519
 H612 H -0.06818 0.92542 0.04247
 C613 C 0.02979 0.58314 -0.00720
 C614 C 0.05860 0.60856 0.01221
 H615 H -0.00394 0.58745 0.00002
 H616 H 0.09237 0.60415 0.00522
 C617 C 0.54023 0.06731 0.48682
 C618 C 0.50410 0.08738 0.49974
 H619 H 0.57036 0.07597 0.50118
 H620 H 0.47422 0.07881 0.48472
 C621 C -0.05277 0.09052 0.50895
 C622 C -0.01480 0.10670 0.49639
 H623 H -0.08171 0.10004 0.49310
 H624 H 0.01378 0.09696 0.51285
 C625 C 0.48832 0.57236 1.00103
 C626 C 0.45877 0.59788 0.98350
 H627 H 0.52171 0.57606 0.99226
 H628 H 0.42547 0.59405 0.99268
 C629 C 0.51690 0.92442 1.00006
 C630 C 0.54320 0.89954 0.97599
 H631 H 0.48277 0.91857 0.99984
 H632 H 0.57727 0.90601 0.97677
 C633 C 0.04680 0.42386 0.50964
 C634 C 0.01095 0.40455 0.49577
 H635 H 0.07747 0.41514 0.49569
 H636 H -0.01943 0.41349 0.51039
 C637 C 0.41554 0.47916 0.45778
 C638 C 0.39964 0.49495 0.49445
 H639 H 0.40385 0.49160 0.42824
 H640 H 0.41119 0.48193 0.52384
 C641 C 0.93773 -0.01278 -0.01342
 C642 C 0.90945 0.00084 -0.04194
 H643 H 0.93400 -0.00294 0.01938
 H644 H 0.91393 -0.00893 -0.07473
 C645 C 0.57105 -0.01734 0.01453
 C646 C 0.59701 0.00113 0.04308
 H647 H 0.57865 -0.01517 -0.01882
 H648 H 0.58863 -0.00105 0.07631
 C649 C 0.08069 0.48726 0.54692
 C650 C 0.10113 0.50326 0.51303
 H651 H 0.08980 0.49798 0.57826
 H652 H 0.09190 0.49193 0.48188
 C653 C 0.07997 0.52719 -0.04132
 C654 C 0.09778 0.51246 -0.00587
 H655 H 0.09385 0.51822 -0.07172
 H656 H 0.08407 0.52200 0.02447
 C657 C 0.57439 1.00157 0.45386
 C658 C 0.59113 0.98661 0.48969
 H659 H 0.58673 0.99009 0.42360
 H660 H 0.57856 0.99881 0.51966
 C661 C 0.90804 1.02981 0.54467
 C662 C 0.89114 1.01239 0.50962
 H663 H 0.89587 1.01991 0.57526
 H664 H 0.90263 1.02300 0.47900
 C665 C 0.43738 0.51943 0.03639
 C666 C 0.41802 0.50402 0.00169
 H667 H 0.42322 0.51346 0.06715
 H668 H 0.43178 0.51086 -0.02910
 C669 C 0.47671 0.44311 0.41969
 C670 C 0.48893 0.47847 0.39813
 H671 H 0.48886 0.41120 0.41044
 H672 H 0.47614 0.51017 0.40737
 C673 C -0.00489 -0.03918 0.93518
 C674 C 0.00365 -0.00081 0.91680
 H675 H 0.00707 -0.06925 0.92105
 H676 H -0.00862 0.02903 0.93131
 C677 C -0.02865 0.06413 0.57905
 C678 C -0.02063 0.03019 0.60417
 H679 H -0.01365 0.09542 0.58508
 H680 H -0.03593 -0.00091 0.59759
 C681 C 0.50806 0.53964 0.06818
 C682 C 0.50747 0.50713 0.09625
 H683 H 0.53264 0.56443 0.06984
 H684 H 0.48448 0.48093 0.09245
 C685 C 0.50755 -0.02471 0.06219
 C686 C 0.48236 -0.05107 0.08514
 H687 H 0.51023 0.00955 0.07062
 H688 H 0.48037 -0.08530 0.07611
 C689 C 1.01514 0.45276 0.57717
 C690 C 1.00234 0.48783 0.59982
 H691 H 1.00232 0.42077 0.58411
 H692 H 1.01570 0.51948 0.59214
 C693 C 1.01236 0.55145 0.92415
 C694 C 1.00718 0.51542 0.90015
 H695 H 0.99322 0.58020 0.91856
 H696 H 1.02650 0.48686 0.90641
 C697 C 0.51296 0.03785 0.41846
 C698 C 0.50249 0.00339 0.39396
 H699 H 0.50024 0.06986 0.41189
 H700 H 0.51559 -0.02837 0.40132
   
