data_POSCAR
  _audit_creation_date              2014-09-24
  _audit_creation_method            'ToBaCCo'
  _symmetry_space_group_name_H-M    'P1'
  _symmetry_Int_Tables_number       1
  _symmetry_cell_setting            triclinic
  loop_
  _symmetry_equiv_pos_as_xyz
 x,y,z
_cell_length_a 42.2096
_cell_length_b 39.8624
_cell_length_c 38.4031
_cell_angle_alpha 90.080000
_cell_angle_beta 89.753100
_cell_angle_gamma 90.067500
loop_
  _atom_site_label
  _atom_site_type_symbol
  _atom_site_fract_x
  _atom_site_fract_y
  _atom_site_fract_z
C1 C 0.25078 0.24891 0.24999
 C2 C 0.75050 0.74899 0.24994
 C3 C 0.74979 0.25005 0.74995
 C4 C 0.24950 0.74992 0.74995
 C5 C 0.04318 0.05187 0.01360
 H6 H 0.04380 0.05392 -0.01449
 C7 C 0.06200 0.07297 0.03390
 H8 H 0.07741 0.09094 0.02117
 C9 C 0.02261 0.02547 0.06411
 H10 H 0.00687 0.00731 0.07584
 C11 C 0.04104 0.04606 0.08542
 H12 H 0.03926 0.04345 0.11342
 N13 N 0.02437 0.02835 0.02887
 C14 C 0.01281 -0.04955 -0.05007
 H15 H -0.01275 -0.05120 -0.05119
 C16 C 0.03140 -0.07055 -0.07091
 H17 H 0.01993 -0.08804 -0.08840
 C18 C 0.05871 -0.02451 -0.02597
 H19 H 0.06932 -0.00702 -0.00797
 C20 C 0.07818 -0.04499 -0.04634
 H21 H 0.10364 -0.04295 -0.04374
 Zn22 Zn -0.00008 0.00059 -0.00076
 N23 N 0.02665 -0.02679 -0.02852
 C24 C -0.02335 0.02764 -0.06438
 N25 N -0.02488 0.02916 -0.02902
 C26 C -0.04381 0.05181 -0.01257
 C27 C -0.06304 0.07335 -0.03177
 C28 C -0.04217 0.04875 -0.08461
 C29 C -0.01247 -0.05154 0.04632
 C30 C -0.03086 -0.07352 0.06625
 C31 C -0.07787 -0.04791 0.04249
 C32 C -0.05859 -0.02640 0.02308
 N33 N -0.02651 -0.02826 0.02566
 H34 H -0.00766 0.01002 -0.07702
 H35 H -0.04412 0.05290 0.01558
 H36 H -0.07795 0.09119 -0.01816
 H37 H -0.04117 0.04662 -0.11270
 H38 H 0.01311 -0.05293 0.04736
 H39 H -0.01924 -0.09194 0.08246
 H40 H -0.10336 -0.04557 0.04057
 H41 H -0.06937 -0.00830 0.00594
 C42 C 0.06458 -0.06829 -0.06933
 C43 C 0.06126 0.07005 0.07034
 C44 C -0.06405 -0.07178 0.06456
 C45 C -0.06256 0.07181 -0.06831
 C46 C 0.04377 0.55246 0.51468
 H47 H 0.04474 0.55416 0.48658
 C48 C 0.06232 0.57383 0.53498
 H49 H 0.07788 0.59165 0.52224
 C50 C 0.02259 0.52668 0.56524
 H51 H 0.00673 0.50864 0.57697
 C52 C 0.04075 0.54755 0.58654
 H53 H 0.03863 0.54529 0.61455
 N54 N 0.02480 0.52911 0.52998
 C55 C 0.01437 0.45030 0.45186
 H56 H -0.01118 0.44857 0.45046
 C57 C 0.03320 0.42922 0.43139
 H58 H 0.02194 0.41159 0.41390
 C59 C 0.05996 0.47570 0.47624
 H60 H 0.07035 0.49339 0.49419
 C61 C 0.07968 0.45514 0.45624
 H62 H 0.10511 0.45731 0.45907
 Zn63 Zn 0.00080 0.50092 0.50035
 N64 N 0.02793 0.47330 0.47335
 C65 C -0.02140 0.52717 0.43598
 N66 N -0.02368 0.52903 0.47127
 C67 C -0.04309 0.55170 0.48699
 C68 C -0.06204 0.57292 0.46707
 C69 C -0.03993 0.54792 0.41505
 C70 C -0.01199 0.44930 0.54789
 C71 C -0.03053 0.42740 0.56774
 C72 C -0.07735 0.45242 0.54287
 C73 C -0.05792 0.47387 0.52356
 N74 N -0.02587 0.47226 0.52672
 H75 H -0.00519 0.50969 0.42392
 H76 H -0.04412 0.55295 0.51512
 H77 H -0.07794 0.59018 0.48012
 H78 H -0.03774 0.54612 0.38701
 H79 H 0.01358 0.44810 0.54938
 H80 H -0.01903 0.40923 0.58436
 H81 H -0.10281 0.45455 0.54047
 H82 H -0.06855 0.49169 0.50601
 C83 C 0.06635 0.43164 0.43328
 C84 C 0.06114 0.57137 0.57144
 C85 C -0.06370 0.42887 0.56545
 C86 C -0.06078 0.57101 0.43057
 C87 C 0.54251 0.05121 0.51488
 H88 H 0.54329 0.05293 0.48677
 C89 C 0.56119 0.07258 0.53504
 H90 H 0.57664 0.09042 0.52218
 C91 C 0.52174 0.02533 0.56559
 H92 H 0.50600 0.00724 0.57744
 C93 C 0.54003 0.04620 0.58675
 H94 H 0.53814 0.04389 0.61477
 N95 N 0.52370 0.02780 0.53032
 C96 C 0.51330 -0.05102 0.45223
 H97 H 0.48776 -0.05285 0.45085
 C98 C 0.53219 -0.07197 0.43167
 H99 H 0.52098 -0.08961 0.41415
 C100 C 0.55882 -0.02548 0.47660
 H101 H 0.56917 -0.00780 0.49458
 C102 C 0.57860 -0.04590 0.45652
 H103 H 0.60402 -0.04363 0.45933
 Zn104 Zn 0.49965 -0.00047 0.50082
 N105 N 0.52680 -0.02801 0.47375
 C106 C 0.47733 0.02579 0.43652
 N107 N 0.47504 0.02758 0.47181
 C108 C 0.45561 0.05022 0.48757
 C109 C 0.43672 0.07152 0.46768
 C110 C 0.45885 0.04661 0.41562
 C111 C 0.48719 -0.05209 0.54846
 C112 C 0.46879 -0.07400 0.56846
 C113 C 0.42180 -0.04910 0.54385
 C114 C 0.44109 -0.02764 0.52439
 N115 N 0.47315 -0.02919 0.52734
 H116 H 0.49355 0.00834 0.42443
 H117 H 0.45458 0.05143 0.51570
 H118 H 0.42084 0.08878 0.48076
 H119 H 0.46108 0.04490 0.38758
 H120 H 0.51276 -0.05324 0.54979
 H121 H 0.48041 -0.09212 0.58503
 H122 H 0.39631 -0.04702 0.54162
 H123 H 0.43033 -0.00985 0.50689
 C124 C 0.56533 -0.06940 0.43351
 C125 C 0.56029 0.07005 0.57150
 C126 C 0.43560 -0.07259 0.56639
 C127 C 0.43803 0.06972 0.43117
 C128 C 0.54177 0.55338 0.01358
 H129 H 0.54241 0.55548 -0.01450
 C130 C 0.56060 0.57443 0.03393
 H131 H 0.57602 0.59241 0.02124
 C132 C 0.52121 0.52687 0.06403
 H133 H 0.50549 0.50866 0.07571
 C134 C 0.53965 0.54740 0.08538
 H135 H 0.53789 0.54472 0.11338
 N136 N 0.52299 0.52980 0.02879
 C137 C 0.51208 0.45182 -0.05012
 H138 H 0.48653 0.45006 -0.05142
 C139 C 0.53086 0.43087 -0.07081
 H140 H 0.51956 0.41332 -0.08836
 C141 C 0.55774 0.47706 -0.02573
 H142 H 0.56819 0.49460 -0.00767
 C143 C 0.57740 0.45664 -0.04594
 H144 H 0.60284 0.45878 -0.04316
 Zn145 Zn 0.49874 0.50193 -0.00092
 N146 N 0.52570 0.47465 -0.02850
 C147 C 0.47574 0.52886 -0.06469
 N148 N 0.47394 0.53035 -0.02935
 C149 C 0.45479 0.55291 -0.01307
 C150 C 0.43565 0.57440 -0.03243
 C151 C 0.45702 0.54991 -0.08509
 C152 C 0.48654 0.44972 0.04607
 C153 C 0.46826 0.42763 0.06598
 C154 C 0.42111 0.45302 0.04228
 C155 C 0.44029 0.47466 0.02288
 N156 N 0.47238 0.47295 0.02545
 H157 H 0.49160 0.51131 -0.07720
 H158 H 0.45427 0.55400 0.01508
 H159 H 0.42058 0.59218 -0.01895
 H160 H 0.45826 0.54781 -0.11317
 H161 H 0.51212 0.44847 0.04709
 H162 H 0.47997 0.40926 0.08216
 H163 H 0.39561 0.45524 0.04038
 H164 H 0.42943 0.49272 0.00577
 C165 C 0.56402 0.43326 -0.06900
 C166 C 0.55988 0.57140 0.07036
 C167 C 0.43505 0.42920 0.06432
 C168 C 0.43644 0.57290 -0.06897
 C169 C 0.18318 -0.19023 -0.19086
 C170 C 0.19064 -0.22273 -0.18022
 C171 C 0.21210 -0.24202 -0.19947
 C172 C 0.22785 -0.22879 -0.22921
 C173 C 0.21795 -0.19662 -0.24075
 C174 C 0.19649 -0.17744 -0.22142
 C175 C 0.16188 -0.16994 -0.17046
 C176 C 0.14442 -0.15258 -0.15327
 C177 C 0.12406 -0.13145 -0.13262
 C178 C 0.09659 -0.14457 -0.11726
 C179 C 0.07712 -0.12404 -0.09681
 C180 C 0.08494 -0.09010 -0.09141
 C181 C 0.11253 -0.07714 -0.10712
 C182 C 0.13193 -0.09770 -0.12756
 H183 H 0.17982 -0.23325 -0.15705
 H184 H 0.21666 -0.26738 -0.19079
 H185 H 0.22658 -0.18607 -0.26494
 H186 H 0.19013 -0.15262 -0.23047
 H187 H 0.09034 -0.17070 -0.12092
 H188 H 0.05625 -0.13485 -0.08474
 H189 H 0.11896 -0.05102 -0.10387
 H190 H 0.15309 -0.08726 -0.13940
 C191 C 0.18505 0.31029 0.31120
 C192 C 0.20157 0.32470 0.28339
 C193 C 0.22264 0.30545 0.26360
 C194 C 0.22845 0.27145 0.27194
 C195 C 0.21012 0.25695 0.29892
 C196 C 0.18907 0.27628 0.31867
 C197 C 0.16395 0.33047 0.33197
 C198 C 0.14659 0.34771 0.34941
 C199 C 0.12626 0.36870 0.37025
 C200 C 0.13404 0.40246 0.37540
 C201 C 0.11455 0.42292 0.39584
 C202 C 0.08695 0.40987 0.41143
 C203 C 0.07926 0.37589 0.40601
 C204 C 0.09883 0.35545 0.38557
 H205 H 0.19800 0.35085 0.27681
 H206 H 0.23381 0.31735 0.24146
 H207 H 0.21245 0.23055 0.30496
 H208 H 0.17593 0.26466 0.33974
 H209 H 0.15518 0.41299 0.36359
 H210 H 0.12087 0.44907 0.39910
 H211 H 0.05840 0.36500 0.41799
 H212 H 0.09264 0.32931 0.38183
 C213 C 0.68466 -0.18987 0.31125
 C214 C 0.70116 -0.17537 0.28347
 C215 C 0.72230 -0.19454 0.26366
 C216 C 0.72818 -0.22853 0.27197
 C217 C 0.70990 -0.24311 0.29894
 C218 C 0.68879 -0.22387 0.31869
 C219 C 0.66344 -0.16980 0.33199
 C220 C 0.64598 -0.15267 0.34942
 C221 C 0.62552 -0.13184 0.37028
 C222 C 0.63312 -0.09804 0.37549
 C223 C 0.61352 -0.07774 0.39598
 C224 C 0.58600 -0.09099 0.41156
 C225 C 0.57849 -0.12500 0.40605
 C226 C 0.59816 -0.14528 0.38556
 H227 H 0.69751 -0.14923 0.27691
 H228 H 0.73344 -0.18259 0.24154
 H229 H 0.71230 -0.26951 0.30496
 H230 H 0.67566 -0.23555 0.33974
 H231 H 0.65420 -0.08736 0.36370
 H232 H 0.61971 -0.05157 0.39930
 H233 H 0.55768 -0.13603 0.41803
 H234 H 0.59211 -0.17145 0.38177
 C235 C 0.68347 0.31166 -0.18989
 C236 C 0.68755 0.27773 -0.18209
 C237 C 0.70881 0.25833 -0.20148
 C238 C 0.72729 0.27269 -0.22842
 C239 C 0.72145 0.30660 -0.23709
 C240 C 0.70016 0.32593 -0.21766
 C241 C 0.66213 0.33192 -0.16949
 C242 C 0.64459 0.34922 -0.15234
 C243 C 0.62408 0.37028 -0.13179
 C244 C 0.59658 0.35706 -0.11661
 C245 C 0.57692 0.37754 -0.09631
 C246 C 0.58458 0.41152 -0.09090
 C247 C 0.61222 0.42456 -0.10643
 C248 C 0.63181 0.40407 -0.12672
 H249 H 0.67428 0.26622 -0.16105
 H250 H 0.71118 0.23198 -0.19520
 H251 H 0.73275 0.31837 -0.25923
 H252 H 0.69656 0.35201 -0.22449
 H253 H 0.59043 0.33090 -0.12029
 H254 H 0.55602 0.36666 -0.08438
 H255 H 0.61853 0.45071 -0.10317
 H256 H 0.65300 0.41458 -0.13843
 C257 C -0.18348 0.19187 -0.18761
 C258 C -0.18798 0.18456 -0.22283
 C259 C -0.20935 0.20334 -0.24245
 C260 C -0.22754 0.22921 -0.22704
 C261 C -0.22129 0.23738 -0.19185
 C262 C -0.19988 0.21855 -0.17230
 C263 C -0.16204 0.17202 -0.16719
 C264 C -0.14435 0.15514 -0.14998
 C265 C -0.12360 0.13471 -0.12930
 C266 C -0.09243 0.12880 -0.14022
 C267 C -0.07248 0.10849 -0.12035
 C268 C -0.08349 0.09383 -0.08924
 C269 C -0.11484 0.10006 -0.07844
 C270 C -0.13473 0.12035 -0.09835
 H271 H -0.17495 0.16435 -0.23516
 H272 H -0.21205 0.19741 -0.26980
 H273 H -0.23238 0.25863 -0.17929
 H274 H -0.19597 0.22497 -0.14523
 H275 H -0.08356 0.13985 -0.16412
 H276 H -0.04837 0.10451 -0.12914
 H277 H -0.12417 0.08876 -0.05490
 H278 H -0.15887 0.12465 -0.08973
 C279 C -0.18227 0.69040 0.31129
 C280 C -0.18711 0.68326 0.27610
 C281 C -0.20867 0.70214 0.25683
 C282 C -0.22669 0.72795 0.27258
 C283 C -0.22012 0.73593 0.30774
 C284 C -0.19853 0.71699 0.32694
 C285 C -0.16056 0.67052 0.33133
 C286 C -0.14261 0.65363 0.34820
 C287 C -0.12150 0.63320 0.36843
 C288 C -0.11602 0.59982 0.35887
 C289 C -0.09608 0.57968 0.37890
 C290 C -0.08136 0.59268 0.40885
 C291 C -0.08687 0.62635 0.41812
 C292 C -0.10681 0.64645 0.39802
 H293 H -0.17420 0.66311 0.26350
 H294 H -0.21161 0.69636 0.22947
 H295 H -0.23107 0.75712 0.32054
 H296 H -0.19434 0.72329 0.35400
 H297 H -0.12737 0.58927 0.33608
 H298 H -0.09268 0.55375 0.37134
 H299 H -0.07558 0.63721 0.44076
 H300 H -0.11086 0.67229 0.40563
 C301 C 0.31776 0.19024 0.31159
 C302 C 0.31309 0.18317 0.27635
 C303 C 0.29166 0.20212 0.25699
 C304 C 0.27358 0.22792 0.27270
 C305 C 0.28003 0.23586 0.30789
 C306 C 0.30150 0.21685 0.32719
 C307 C 0.33927 0.17019 0.33174
 C308 C 0.35701 0.15314 0.34869
 C309 C 0.37788 0.13250 0.36899
 C310 C 0.38321 0.09911 0.35933
 C311 C 0.40293 0.07877 0.37940
 C312 C 0.41760 0.09156 0.40948
 C313 C 0.41223 0.12524 0.41885
 C314 C 0.39250 0.14554 0.39872
 H315 H 0.32602 0.16301 0.26379
 H316 H 0.28881 0.19638 0.22961
 H317 H 0.26904 0.25705 0.32067
 H318 H 0.30556 0.22309 0.35428
 H319 H 0.37190 0.08872 0.33644
 H320 H 0.40623 0.05285 0.37176
 H321 H 0.42348 0.13595 0.44159
 H322 H 0.38857 0.17138 0.40640
 C323 C 0.31611 0.69273 -0.18927
 C324 C 0.30826 0.68260 -0.22295
 C325 C 0.28671 0.70120 -0.24251
 C326 C 0.27125 0.72981 -0.22836
 C327 C 0.28152 0.74082 -0.19504
 C328 C 0.30309 0.72212 -0.17559
 C329 C 0.33757 0.67296 -0.16876
 C330 C 0.35519 0.65614 -0.15142
 C331 C 0.37581 0.63574 -0.13054
 C332 C 0.40709 0.62991 -0.14114
 C333 C 0.42690 0.60961 -0.12108
 C334 C 0.41565 0.59490 -0.09010
 C335 C 0.38420 0.60107 -0.07961
 C336 C 0.36445 0.62133 -0.09972
 H337 H 0.31886 0.66031 -0.23418
 H338 H 0.28184 0.69292 -0.26880
 H339 H 0.27312 0.76409 -0.18382
 H340 H 0.30975 0.73075 -0.14987
 H341 H 0.41614 0.64099 -0.16494
 H342 H 0.45109 0.60569 -0.12962
 H343 H 0.37469 0.58974 -0.05618
 H344 H 0.34023 0.62558 -0.09134
 C345 C -0.18275 -0.19343 0.18615
 C346 C -0.19977 -0.21976 0.17109
 C347 C -0.22117 -0.23842 0.19110
 C348 C -0.22678 -0.23039 0.22650
 C349 C -0.20795 -0.20492 0.24161
 C350 C -0.18659 -0.18632 0.22154
 C351 C -0.16141 -0.17366 0.16526
 C352 C -0.14386 -0.15679 0.14767
 C353 C -0.12331 -0.13629 0.12657
 C354 C -0.13139 -0.12928 0.09204
 C355 C -0.11198 -0.10857 0.07176
 C356 C -0.08420 -0.09456 0.08578
 C357 C -0.07611 -0.10204 0.12043
 C358 C -0.09558 -0.12274 0.14068
 H359 H -0.19637 -0.22603 0.14387
 H360 H -0.23277 -0.25941 0.17869
 H361 H -0.21015 -0.19915 0.26907
 H362 H -0.17308 -0.16638 0.23366
 H363 H -0.15277 -0.13969 0.08084
 H364 H -0.11862 -0.10368 0.04505
 H365 H -0.05509 -0.09132 0.13210
 H366 H -0.08917 -0.12790 0.16743
 C367 C -0.18313 0.30734 0.68629
 C368 C -0.20003 0.28091 0.67126
 C369 C -0.22153 0.26232 0.69123
 C370 C -0.22735 0.27052 0.72654
 C371 C -0.20863 0.29609 0.74164
 C372 C -0.18718 0.31462 0.72162
 C373 C -0.16170 0.32706 0.66546
 C374 C -0.14405 0.34391 0.64796
 C375 C -0.12337 0.36440 0.62702
 C376 C -0.13100 0.37105 0.59229
 C377 C -0.11147 0.39176 0.57217
 C378 C -0.08399 0.40613 0.58654
 C379 C -0.07636 0.39902 0.62139
 C380 C -0.09595 0.37832 0.64149
 H381 H -0.19647 0.27451 0.64410
 H382 H -0.23304 0.24125 0.67885
 H383 H -0.21101 0.30202 0.76905
 H384 H -0.17377 0.33464 0.73372
 H385 H -0.15214 0.36036 0.58082
 H386 H -0.11775 0.39637 0.54529
 H387 H -0.05559 0.41002 0.63333
 H388 H -0.08989 0.37344 0.66840
 C389 C 0.31663 -0.19380 0.68813
 C390 C 0.30312 -0.22300 0.67465
 C391 C 0.28141 -0.24144 0.69446
 C392 C 0.27149 -0.23031 0.72794
 C393 C 0.28746 -0.20195 0.74187
 C394 C 0.30915 -0.18362 0.72196
 C395 C 0.33813 -0.17420 0.66725
 C396 C 0.35576 -0.15743 0.64964
 C397 C 0.37635 -0.13701 0.62851
 C398 C 0.36852 -0.13044 0.59382
 C399 C 0.38792 -0.10976 0.57351
 C400 C 0.41546 -0.09533 0.58766
 C401 C 0.42330 -0.10236 0.62248
 C402 C 0.40383 -0.12304 0.64276
 H403 H 0.30949 -0.23168 0.64880
 H404 H 0.27261 -0.26458 0.68335
 H405 H 0.28286 -0.19362 0.76825
 H406 H 0.32012 -0.16147 0.73304
 H407 H 0.34732 -0.14117 0.58251
 H408 H 0.38148 -0.10521 0.54667
 H409 H 0.44412 -0.09131 0.63425
 H410 H 0.41004 -0.12784 0.66964
 C411 C 0.31732 0.30660 0.18602
 C412 C 0.30031 0.28024 0.17100
 C413 C 0.27901 0.26151 0.19107
 C414 C 0.27350 0.26949 0.22650
 C415 C 0.29236 0.29495 0.24157
 C416 C 0.31361 0.31363 0.22144
 C417 C 0.33848 0.32652 0.16506
 C418 C 0.35588 0.34354 0.14743
 C419 C 0.37625 0.36422 0.12633
 C420 C 0.36806 0.37126 0.09184
 C421 C 0.38731 0.39214 0.07156
 C422 C 0.41504 0.40630 0.08555
 C423 C 0.42323 0.39880 0.12017
 C424 C 0.40392 0.37793 0.14041
 H425 H 0.30361 0.27403 0.14375
 H426 H 0.26740 0.24052 0.17867
 H427 H 0.29022 0.30070 0.26905
 H428 H 0.32711 0.33359 0.23353
 H429 H 0.34672 0.36074 0.08066
 H430 H 0.38059 0.39705 0.04487
 H431 H 0.44421 0.40963 0.13181
 H432 H 0.41041 0.37275 0.16713
 C433 C 0.18270 0.18883 0.19098
 C434 C 0.18719 0.22278 0.18343
 C435 C 0.20898 0.24168 0.20248
 C436 C 0.22759 0.22681 0.22880
 C437 C 0.22133 0.19290 0.23730
 C438 C 0.19951 0.17407 0.21820
 C439 C 0.16083 0.16910 0.17086
 C440 C 0.14282 0.15231 0.15387
 C441 C 0.12170 0.13197 0.13343
 C442 C 0.10634 0.14566 0.10454
 C443 C 0.08647 0.12564 0.08415
 C444 C 0.08171 0.09161 0.09243
 C445 C 0.09709 0.07818 0.12171
 C446 C 0.11695 0.09824 0.14203
 H447 H 0.17384 0.23467 0.16283
 H448 H 0.21167 0.26805 0.19639
 H449 H 0.23273 0.18077 0.25903
 H450 H 0.19559 0.14798 0.22486
 H451 H 0.10981 0.17177 0.09768
 H452 H 0.07466 0.13683 0.06206
 H453 H 0.09427 0.05198 0.12849
 H454 H 0.12884 0.08735 0.16426
 C455 C 0.18186 0.69124 0.69177
 C456 C 0.18985 0.72360 0.68102
 C457 C 0.21175 0.74250 0.69992
 C458 C 0.22742 0.72899 0.72941
 C459 C 0.21703 0.69698 0.74109
 C460 C 0.19512 0.67819 0.72210
 C461 C 0.16000 0.67140 0.67175
 C462 C 0.14204 0.65449 0.65484
 C463 C 0.12100 0.63397 0.63448
 C464 C 0.10596 0.64733 0.60522
 C465 C 0.08625 0.62710 0.58486
 C466 C 0.08135 0.59318 0.59354
 C467 C 0.09638 0.58009 0.62319
 C468 C 0.11608 0.60036 0.64349
 H469 H 0.17908 0.73433 0.65803
 H470 H 0.21671 0.76778 0.69118
 H471 H 0.22560 0.68627 0.76514
 H472 H 0.18836 0.65349 0.73125
 H473 H 0.10958 0.67333 0.59803
 H474 H 0.07471 0.63803 0.56246
 H475 H 0.09344 0.55399 0.63030
 H476 H 0.12773 0.58973 0.66600
 C477 C 0.68194 0.18962 0.69102
 C478 C 0.68657 0.22348 0.68316
 C479 C 0.70833 0.24249 0.70214
 C480 C 0.72676 0.22780 0.72873
 C481 C 0.72040 0.19398 0.73748
 C482 C 0.69861 0.17504 0.71845
 C483 C 0.66002 0.16980 0.67106
 C484 C 0.64196 0.15293 0.65424
 C485 C 0.62076 0.13246 0.63403
 C486 C 0.60546 0.14591 0.60497
 C487 C 0.58555 0.12574 0.58479
 C488 C 0.58070 0.09181 0.59344
 C489 C 0.59600 0.07863 0.62289
 C490 C 0.61590 0.09884 0.64300
 H491 H 0.67333 0.23524 0.66239
 H492 H 0.71111 0.26880 0.69583
 H493 H 0.73167 0.18200 0.75939
 H494 H 0.69459 0.14903 0.72534
 H495 H 0.60902 0.17193 0.59782
 H496 H 0.57381 0.13673 0.56255
 H497 H 0.59311 0.05252 0.62995
 H498 H 0.62775 0.08814 0.66536
 C499 C 0.68222 0.68920 0.19091
 C500 C 0.68684 0.72313 0.18337
 C501 C 0.70872 0.74193 0.20241
 C502 C 0.72729 0.72697 0.22870
 C503 C 0.72094 0.69307 0.23716
 C504 C 0.69902 0.67434 0.21808
 C505 C 0.66021 0.66960 0.17084
 C506 C 0.64206 0.65296 0.15388
 C507 C 0.62075 0.63281 0.13348
 C508 C 0.60535 0.64669 0.10471
 C509 C 0.58532 0.62684 0.08433
 C510 C 0.58045 0.59280 0.09249
 C511 C 0.59586 0.57919 0.12165
 C512 C 0.61588 0.59907 0.14197
 H513 H 0.67350 0.73510 0.16281
 H514 H 0.71149 0.76829 0.19634
 H515 H 0.73233 0.68088 0.25887
 H516 H 0.69502 0.64826 0.22472
 H517 H 0.60893 0.67280 0.09793
 H518 H 0.57350 0.63816 0.06232
 H519 H 0.59295 0.55298 0.12834
 H520 H 0.62780 0.58804 0.16410
   
