data_POSCAR
  _audit_creation_date              2014-09-24
  _audit_creation_method            'ToBaCCo'
  _symmetry_space_group_name_H-M    'P1'
  _symmetry_Int_Tables_number       1
  _symmetry_cell_setting            triclinic
  loop_
  _symmetry_equiv_pos_as_xyz
 x,y,z
_cell_length_a 45.5988
_cell_length_b 43.8036
_cell_length_c 7.3957
_cell_angle_alpha 93.017300
_cell_angle_beta 89.817800
_cell_angle_gamma 89.985100
loop_
  _atom_site_label
  _atom_site_type_symbol
  _atom_site_fract_x
  _atom_site_fract_y
  _atom_site_fract_z
O1 O 0.27290 0.28491 0.49675
 O2 O 0.21555 0.22567 0.50076
 O3 O 0.27175 0.22779 0.57641
 O4 O 0.21696 0.28296 0.42628
 O5 O 0.22668 0.27009 0.13972
 O6 O 0.28147 0.21502 0.28985
 O7 O 0.22568 0.21289 0.21423
 O8 O 0.28271 0.27195 0.20997
 Cu9 Cu 0.24323 0.25670 0.52807
 Cu10 Cu 0.25520 0.24103 0.18585
 C11 C 0.28755 0.28831 0.35317
 C12 C 0.21076 0.20949 0.35649
 C13 C 0.28613 0.21220 0.45689
 C14 C 0.21241 0.28583 0.25919
 O15 O 0.73050 0.21730 0.31525
 O16 O 0.78611 0.27576 0.22579
 O17 O 0.73296 0.27649 0.35631
 O18 O 0.78401 0.21667 0.18927
 O19 O 0.76771 0.21970 -0.09048
 O20 O 0.71631 0.27966 0.07743
 O21 O 0.76962 0.27907 -0.05331
 O22 O 0.71405 0.22046 0.03592
 Cu23 Cu 0.76020 0.24617 0.29919
 Cu24 Cu 0.74011 0.25007 -0.03534
 C25 C 0.71267 0.20920 0.19024
 C26 C 0.78744 0.28715 0.07176
 C27 C 0.71576 0.28801 0.24421
 C28 C 0.78483 0.20828 0.02282
 O29 O 0.73030 0.78363 0.68273
 O30 O 0.78546 0.72480 0.77298
 O31 O 0.73238 0.72440 0.64374
 O32 O 0.78382 0.78393 0.80677
 O33 O 0.76743 0.78137 1.08723
 O34 O 0.71559 0.72171 0.92330
 O35 O 0.76883 0.72196 1.05277
 O36 O 0.71375 0.78096 0.96277
 Cu37 Cu 0.75980 0.75453 0.69894
 Cu38 Cu 0.73957 0.75122 1.03433
 C39 C 0.71249 0.79204 0.80796
 C40 C 0.78663 0.71358 0.92748
 C41 C 0.71507 0.71315 0.75683
 C42 C 0.78468 0.79249 0.97293
 O43 O 0.28040 0.78511 0.71084
 O44 O 0.22583 0.72979 0.86251
 O45 O 0.28196 0.72830 0.79303
 O46 O 0.22448 0.78685 0.78574
 O47 O 0.21478 0.77372 0.49953
 O48 O 0.27259 0.71499 0.50651
 O49 O 0.21656 0.71656 0.57620
 O50 O 0.27111 0.77197 0.42453
 Cu51 Cu 0.25418 0.75902 0.81562
 Cu52 Cu 0.24275 0.74290 0.47366
 C53 C 0.28523 0.78778 0.54368
 C54 C 0.21184 0.71382 0.74339
 C55 C 0.28708 0.71184 0.65039
 C56 C 0.20968 0.78998 0.64329
 C57 C 0.99890 0.08038 0.02505
 C58 C 1.02410 0.06446 0.07173
 C59 C 1.02423 0.03247 0.06180
 C60 C 0.99912 0.01611 0.00342
 C61 C 0.97397 0.03242 -0.04486
 C62 C 0.97383 0.06438 -0.03267
 C63 C 0.99900 -0.01782 -0.00535
 C64 C 0.97365 -0.03394 0.04222
 C65 C 0.97330 -0.06589 0.02949
 C66 C 0.99834 -0.08208 -0.02807
 C67 C 1.02373 -0.06635 -0.07399
 C68 C 1.02408 -0.03437 -0.06351
 H69 H 0.99871 0.10518 0.03546
 H70 H 1.04371 0.02044 0.10217
 H71 H 0.95444 0.02037 -0.09169
 H72 H 0.95414 -0.02174 0.08879
 H73 H 0.99798 -0.10687 -0.03899
 H74 H 1.04371 -0.02248 -0.10341
 C75 C 0.50372 0.58187 0.53863
 C76 C 0.52984 0.56606 0.50348
 C77 C 0.52981 0.53413 0.48364
 C78 C 0.50376 0.51737 0.50877
 C79 C 0.47769 0.53385 0.54914
 C80 C 0.47764 0.56582 0.55921
 C81 C 0.50378 0.48309 0.49429
 C82 C 0.47778 0.46659 0.45375
 C83 C 0.47776 0.43462 0.44383
 C84 C 0.50384 0.41858 0.46470
 C85 C 0.52990 0.43442 0.50002
 C86 C 0.52981 0.46635 0.51972
 H87 H 0.50375 0.60666 0.55172
 H88 H 0.55028 0.52277 0.44920
 H89 H 0.45730 0.52222 0.57473
 H90 H 0.45741 0.47821 0.42794
 H91 H 0.50390 0.39379 0.45173
 H92 H 0.55022 0.47772 0.55431
 C93 C 0.00127 0.41768 0.00341
 C94 C -0.02488 0.43334 -0.02323
 C95 C -0.02476 0.46526 -0.02925
 C96 C 0.00137 0.48222 0.00103
 C97 C 0.02748 0.46579 0.03214
 C98 C 0.02749 0.43375 0.02898
 C99 C 0.00133 0.51665 0.00159
 C100 C 0.02743 0.53314 -0.02963
 C101 C 0.02735 0.56517 -0.02662
 C102 C 0.00107 0.58120 -0.00105
 C103 C -0.02507 0.56549 0.02569
 C104 C -0.02488 0.53357 0.03186
 H105 H 0.00117 0.39294 0.00627
 H106 H -0.04523 0.47643 -0.05776
 H107 H 0.04791 0.47750 0.06146
 H108 H 0.04791 0.52146 -0.05894
 H109 H 0.00092 0.60594 -0.00399
 H110 H -0.04535 0.52236 0.06041
 C111 C 0.49957 0.91927 0.51080
 C112 C 0.47373 0.93454 0.46928
 C113 C 0.47372 0.96645 0.46156
 C114 C 0.49940 0.98358 0.50099
 C115 C 0.52514 0.96769 0.54561
 C116 C 0.52531 0.93572 0.54775
 C117 C 0.49935 1.01775 0.49656
 C118 C 0.52507 1.03370 0.45147
 C119 C 0.52514 1.06567 0.44925
 C120 C 0.49934 1.08206 0.48659
 C121 C 0.47352 1.06673 0.52859
 C122 C 0.47359 1.03482 0.53640
 H123 H 0.49958 0.89456 0.51599
 H124 H 0.45365 0.97769 0.42435
 H125 H 0.54507 0.97999 0.58115
 H126 H 0.54505 1.02145 0.41560
 H127 H 0.49929 1.10677 0.48134
 H128 H 0.45354 1.02353 0.57401
 C129 C 1.11528 0.13026 0.08136
 C130 C 1.11442 0.16013 0.20224
 C131 C 1.14216 0.14975 0.29919
 C132 C 1.14336 0.12012 0.17869
 C133 C 1.09669 0.11460 0.22307
 C134 C 1.12439 0.10412 0.32005
 C135 C 1.09549 0.14423 0.34355
 C136 C 1.12363 0.13413 0.44137
 C137 C 1.16714 0.17016 0.33257
 C138 C 1.18732 0.18776 0.34956
 C139 C 1.07112 0.09583 0.17443
 C140 C 1.04982 0.08116 0.12947
 H141 H 1.11156 0.12846 -0.06710
 H142 H 1.11059 0.18337 0.15412
 H143 H 1.16335 0.11044 0.11139
 H144 H 1.12814 0.08084 0.36782
 H145 H 1.07549 0.15391 0.41066
 H146 H 1.12740 0.13598 0.58973
 C147 C 0.62282 0.63231 0.39174
 C148 C 0.62226 0.66237 0.51211
 C149 C 0.65057 0.65239 0.60433
 C150 C 0.65163 0.62267 0.48467
 C151 C 0.60521 0.61662 0.53790
 C152 C 0.63351 0.60662 0.63012
 C153 C 0.60429 0.64638 0.65737
 C154 C 0.63288 0.63666 0.74995
 C155 C 0.67483 0.67312 0.65032
 C156 C 0.69377 0.69100 0.69580
 C157 C 0.57911 0.59758 0.51187
 C158 C 0.55692 0.58276 0.50192
 H159 H 0.61834 0.63026 0.24415
 H160 H 0.61792 0.68553 0.46408
 H161 H 0.67143 0.61321 0.41422
 H162 H 0.63781 0.58347 0.67824
 H163 H 0.58455 0.65593 0.72812
 H164 H 0.63728 0.63867 0.89767
 C165 C -0.10085 0.35243 0.07340
 C166 C -0.13055 0.36207 0.16046
 C167 C -0.14647 0.34633 -0.00181
 C168 C -0.11708 0.33642 -0.08869
 C169 C -0.10050 0.38222 -0.02754
 C170 C -0.11637 0.36650 -0.19007
 C171 C -0.12987 0.39216 0.05944
 C172 C -0.14622 0.37610 -0.10288
 C173 C -0.17142 0.32559 0.01825
 C174 C -0.19117 0.30784 0.04061
 C175 C -0.07422 0.40146 -0.03513
 C176 C -0.05202 0.41645 -0.03398
 H177 H -0.08195 0.34286 0.14591
 H178 H -0.13658 0.36007 0.30493
 H179 H -0.11206 0.31328 -0.14932
 H180 H -0.11029 0.36853 -0.33441
 H181 H -0.13487 0.41529 0.12026
 H182 H -0.16517 0.38561 -0.17513
 C183 C 0.38452 0.86610 0.26222
 C184 C 0.38288 0.83640 0.36729
 C185 C 0.35270 0.84642 0.44200
 C186 C 0.35383 0.87579 0.33722
 C187 C 0.39876 0.88253 0.42852
 C188 C 0.36858 0.89254 0.50321
 C189 C 0.39750 0.85314 0.53300
 C190 C 0.36704 0.86290 0.60774
 C191 C 0.32762 0.82583 0.46227
 C192 C 0.30777 0.80857 0.49214
 C193 C 0.42497 0.90201 0.43194
 C194 C 0.44697 0.91729 0.44436
 H195 H 0.39197 0.86765 0.11993
 H196 H 0.38853 0.81312 0.31133
 H197 H 0.33561 0.88486 0.25657
 H198 H 0.36294 0.91582 0.55918
 H199 H 0.41567 0.84398 0.61380
 H200 H 0.35968 0.86142 0.75027
 C201 C -0.11581 0.63368 0.19102
 C202 C -0.11669 0.66296 0.08220
 C203 C -0.14647 0.65280 0.00304
 C204 C -0.14604 0.62382 0.11155
 C205 C -0.10066 0.61669 0.02935
 C206 C -0.13041 0.60649 -0.04993
 C207 C -0.10119 0.64568 -0.07902
 C208 C -0.13126 0.63578 -0.15839
 C209 C -0.17130 0.67367 -0.01716
 C210 C -0.19095 0.69153 -0.03940
 C211 C -0.07444 0.59737 0.03722
 C212 C -0.05225 0.58235 0.03628
 H213 H -0.10922 0.63261 0.33491
 H214 H -0.11127 0.68640 0.13625
 H215 H -0.16478 0.61506 0.18972
 H216 H -0.13579 0.58306 -0.10413
 H217 H -0.08250 0.65451 -0.15745
 H218 H -0.13781 0.63684 -0.30240
 C219 C 0.38427 1.13546 0.73613
 C220 C 0.38261 1.16492 0.62896
 C221 C 0.35239 1.15481 0.55655
 C222 C 0.35355 1.12567 0.66343
 C223 C 0.39845 1.11868 0.57013
 C224 C 0.36823 1.10857 0.49776
 C225 C 0.39715 1.14784 0.46357
 C226 C 0.36667 1.13797 0.39113
 C227 C 0.32733 1.17538 0.53590
 C228 C 0.30750 1.19261 0.50538
 C229 C 0.42467 1.09919 0.56658
 C230 C 0.44671 1.08394 0.55392
 H231 H 0.39177 1.13419 0.87821
 H232 H 0.38828 1.18829 0.68301
 H233 H 0.33536 1.11680 0.74583
 H234 H 0.36257 1.08520 0.44370
 H235 H 0.41529 1.15680 0.38106
 H236 H 0.35925 1.13917 0.24881
 C237 C 1.10110 -0.13470 -0.40732
 C238 C 1.13350 -0.12386 -0.40698
 C239 C 1.14189 -0.15187 -0.30184
 C240 C 1.10996 -0.16301 -0.30288
 C241 C 1.09631 -0.11675 -0.22552
 C242 C 1.10479 -0.14477 -0.12079
 C243 C 1.12823 -0.10556 -0.22436
 C244 C 1.13704 -0.13389 -0.12017
 C245 C 1.16699 -0.17219 -0.33488
 C246 C 1.18729 -0.18968 -0.35092
 C247 C 1.07071 -0.09796 -0.17673
 C248 C 1.04941 -0.08321 -0.13171
 H249 H 1.08600 -0.13478 -0.52479
 H250 H 1.14561 -0.11554 -0.52517
 H251 H 1.10273 -0.18686 -0.33569
 H252 H 1.09274 -0.15315 -0.00249
 H253 H 1.13542 -0.08171 -0.19127
 H254 H 1.15208 -0.13377 -0.00240
 C255 C 0.62299 0.36842 0.61210
 C256 C 0.62275 0.33845 0.49088
 C257 C 0.65114 0.34864 0.39943
 C258 C 0.65189 0.37829 0.51993
 C259 C 0.60550 0.38414 0.46614
 C260 C 0.63388 0.39436 0.37469
 C261 C 0.60490 0.35447 0.34584
 C262 C 0.63358 0.36441 0.25403
 C263 C 0.67552 0.32802 0.35295
 C264 C 0.69450 0.31018 0.30668
 C265 C 0.57927 0.40303 0.49210
 C266 C 0.55701 0.41776 0.50186
 H267 H 0.61830 0.37032 0.75964
 H268 H 0.61847 0.31522 0.53817
 H269 H 0.67154 0.38779 0.59092
 H270 H 0.63813 0.41758 0.32732
 H271 H 0.58532 0.34486 0.27453
 H272 H 0.63818 0.36255 0.10636
 C273 C 0.89421 -0.14431 -0.02669
 C274 C 0.88095 -0.15988 0.13756
 C275 C 0.85041 -0.14899 0.08209
 C276 C 0.86342 -0.13365 -0.08219
 C277 C 0.89768 -0.11463 0.09123
 C278 C 0.86715 -0.10371 0.03578
 C279 C 0.88479 -0.12989 0.25615
 C280 C 0.85370 -0.11932 0.20045
 C281 C 0.82499 -0.16916 0.06094
 C282 C 0.80530 -0.18679 0.02703
 C283 C 0.92443 -0.09641 0.08260
 C284 C 0.94669 -0.08217 0.06360
 H285 H 0.91111 -0.15442 -0.12028
 H286 H 0.88633 -0.18319 0.17947
 H287 H 0.85441 -0.13537 -0.22167
 H288 H 0.86180 -0.08040 -0.00626
 H289 H 0.89393 -0.12810 0.39526
 H290 H 0.83673 -0.10933 0.29383
 C291 C 0.37475 0.39088 0.27349
 C292 C 0.37463 0.35699 0.20119
 C293 C 0.35591 0.34888 0.36486
 C294 C 0.35556 0.38240 0.43704
 C295 C 0.40232 0.38440 0.38393
 C296 C 0.38357 0.37626 0.54747
 C297 C 0.40261 0.35087 0.31185
 C298 C 0.38351 0.34247 0.47514
 C299 C 0.33071 0.32824 0.35764
 C300 C 0.31064 0.31042 0.35445
 C301 C 0.42868 0.40330 0.39893
 C302 C 0.45086 0.41801 0.41644
 H303 H 0.37151 0.41102 0.19072
 H304 H 0.37064 0.34885 0.05870
 H305 H 0.33590 0.39508 0.48840
 H306 H 0.38755 0.38437 0.69004
 H307 H 0.42225 0.33814 0.26055
 H308 H 0.38682 0.32236 0.55807
 C309 C 0.13299 0.61056 -0.03326
 C310 C 0.14427 0.62090 -0.21849
 C311 C 0.14615 0.65392 -0.13802
 C312 C 0.13529 0.64395 0.04670
 C313 C 0.10143 0.61702 -0.09302
 C314 C 0.10334 0.65004 -0.01260
 C315 C 0.11233 0.62703 -0.27755
 C316 C 0.11457 0.66030 -0.19754
 C317 C 0.17043 0.67499 -0.16974
 C318 C 0.18973 0.69263 -0.20414
 C319 C 0.07584 0.59727 -0.06989
 C320 C 0.05411 0.58203 -0.05100
 H321 H 0.14029 0.58986 0.03440
 H322 H 0.16138 0.60911 -0.30337
 H323 H 0.14495 0.65112 0.17984
 H324 H 0.08623 0.66184 0.07225
 H325 H 0.10269 0.61989 -0.41079
 H326 H 0.10719 0.68097 -0.26520
 C327 C 0.63092 1.10789 0.40091
 C328 C 0.64204 1.11654 0.21179
 C329 C 0.64515 1.14992 0.28431
 C330 C 0.63445 1.14158 0.47268
 C331 C 0.59942 1.11505 0.34310
 C332 C 0.60259 1.14842 0.41536
 C333 C 0.61010 1.12338 0.15466
 C334 C 0.61362 1.15702 0.22659
 C335 C 0.67007 1.17014 0.25190
 C336 C 0.68991 1.18756 0.22461
 C337 C 0.57345 1.09643 0.37798
 C338 C 0.55166 1.08195 0.40902
 H339 H 0.63777 1.08747 0.47288
 H340 H 0.65853 1.10365 0.12763
 H341 H 0.64469 1.14926 0.60324
 H342 H 0.58611 1.16138 0.49939
 H343 H 0.59985 1.11571 0.02409
 H344 H 0.60674 1.17742 0.15453
 C345 C 0.12371 0.37207 -0.05420
 C346 C 0.14916 0.37839 0.08152
 C347 C 0.14650 0.34541 0.14104
 C348 C 0.12148 0.33878 0.00596
 C349 C 0.10169 0.38212 0.09519
 C350 C 0.09910 0.34913 0.15469
 C351 C 0.12669 0.38876 0.23030
 C352 C 0.12443 0.35549 0.29012
 C353 C 0.17086 0.32446 0.17293
 C354 C 0.19022 0.30691 0.20719
 C355 C 0.07603 0.40177 0.07198
 C356 C 0.05427 0.41695 0.05318
 H357 H 0.12315 0.37911 -0.19619
 H358 H 0.17002 0.39019 0.05145
 H359 H 0.11957 0.31804 -0.08615
 H360 H 0.07827 0.33728 0.18481
 H361 H 0.12858 0.40949 0.32247
 H362 H 0.12494 0.34846 0.43216
 C363 C 0.60019 0.86143 0.79165
 C364 C 0.61517 0.83959 0.64816
 C365 C 0.64524 0.85155 0.71299
 C366 C 0.63062 0.87312 0.85714
 C367 C 0.59959 0.88642 0.65348
 C368 C 0.62963 0.89845 0.71836
 C369 C 0.61423 0.86484 0.50950
 C370 C 0.64468 0.87654 0.57478
 C371 C 0.67010 0.83127 0.74570
 C372 C 0.68986 0.81379 0.77325
 C373 C 0.57364 0.90504 0.61855
 C374 C 0.55184 0.91949 0.58765
 H375 H 0.58166 0.85539 0.88072
 H376 H 0.60945 0.81519 0.61960
 H377 H 0.63760 0.87632 1.00057
 H378 H 0.63529 0.92287 0.74696
 H379 H 0.60727 0.86161 0.36604
 H380 H 0.66323 0.88254 0.48586
 C381 C 0.86859 0.10386 -0.02508
 C382 C 0.86584 0.13533 0.07831
 C383 C 0.85148 0.14819 -0.08935
 C384 C 0.85381 0.11697 -0.19309
 C385 C 0.89862 0.11359 -0.09695
 C386 C 0.88439 0.12635 -0.26529
 C387 C 0.89613 0.14481 0.00644
 C388 C 0.88152 0.15791 -0.16124
 C389 C 0.82612 0.16849 -0.06890
 C390 C 0.80645 0.18621 -0.03548
 C391 C 0.92526 0.09522 -0.08743
 C392 C 0.94740 0.08085 -0.06766
 H393 H 0.86359 0.08143 0.03115
 H394 H 0.85799 0.13919 0.21995
 H395 H 0.83609 0.10580 -0.27512
 H396 H 0.89237 0.12241 -0.40657
 H397 H 0.91377 0.15608 0.08872
 H398 H 0.88653 0.18034 -0.21732
 C399 C 0.37237 0.60671 0.69729
 C400 C 0.37061 0.63815 0.80362
 C401 C 0.35569 0.65155 0.63955
 C402 C 0.35699 0.62048 0.53343
 C403 C 0.40214 0.61604 0.61968
 C404 C 0.38718 0.62946 0.45581
 C405 C 0.40080 0.64711 0.72569
 C406 C 0.38548 0.66079 0.56201
 C407 C 0.33045 0.67213 0.64698
 C408 C 0.31030 0.68988 0.64995
 C409 C 0.42851 0.59713 0.60433
 C410 C 0.45070 0.58242 0.58665
 H411 H 0.36734 0.58423 0.75269
 H412 H 0.36349 0.64197 0.94672
 H413 H 0.33867 0.60980 0.45449
 H414 H 0.39427 0.62568 0.31261
 H415 H 0.41912 0.65782 0.80453
 H416 H 0.39059 0.68324 0.50642
   
