data_POSCAR
  _audit_creation_date              2014-09-24
  _audit_creation_method            'ToBaCCo'
  _symmetry_space_group_name_H-M    'P1'
  _symmetry_Int_Tables_number       1
  _symmetry_cell_setting            triclinic
  loop_
  _symmetry_equiv_pos_as_xyz
 x,y,z
_cell_length_a 48.7703
_cell_length_b 48.6966
_cell_length_c 26.8628
_cell_angle_alpha 89.901900
_cell_angle_beta 90.044000
_cell_angle_gamma 87.128800
loop_
  _atom_site_label
  _atom_site_type_symbol
  _atom_site_fract_x
  _atom_site_fract_y
  _atom_site_fract_z
C1 C -0.02391 0.25896 0.02775
 C2 C -0.02395 0.26006 -0.02559
 C3 C 0.00153 0.26026 -0.05054
 C4 C 0.02684 0.25978 -0.02509
 C5 C 0.02644 0.26011 0.02780
 C6 C 0.00135 0.25981 0.05299
 H7 H 0.00184 0.25903 0.09332
 H8 H 0.00170 0.26085 -0.09081
 C9 C 0.47118 0.76709 0.52611
 C10 C 0.47162 0.76510 0.47368
 C11 C 0.49688 0.76388 0.44864
 C12 C 0.52177 0.76482 0.47482
 C13 C 0.52116 0.76758 0.52738
 C14 C 0.49587 0.76859 0.55232
 H15 H 0.49540 0.77020 0.59257
 H16 H 0.49716 0.76191 0.40845
 C17 C 1.02342 0.73864 0.02220
 C18 C 1.02266 0.73453 -0.03013
 C19 C 0.99741 0.73242 -0.05438
 C20 C 0.97228 0.73524 -0.02857
 C21 C 0.97306 0.73877 0.02406
 C22 C 0.99837 0.74104 0.04819
 H23 H 0.99851 0.74287 0.08842
 H24 H 0.99750 0.73090 -0.09464
 C25 C 0.52728 0.23486 0.52912
 C26 C 0.52829 0.23489 0.47656
 C27 C 0.50377 0.23473 0.44927
 C28 C 0.47833 0.23479 0.47348
 C29 C 0.47732 0.23489 0.52605
 C30 C 0.50186 0.23479 0.55332
 H31 H 0.50116 0.23503 0.59367
 H32 H 0.50446 0.23491 0.40892
 C33 C 0.73350 -0.02679 0.03315
 C34 C 0.73290 -0.02603 -0.01993
 C35 C 0.73312 -0.00057 -0.04458
 C36 C 0.73454 0.02417 -0.01825
 C37 C 0.73533 0.02346 0.03436
 C38 C 0.73526 -0.00184 0.05916
 H39 H 0.73502 -0.00179 0.09953
 H40 H 0.73352 -0.00010 -0.08493
 C41 C 0.23025 0.47829 0.52321
 C42 C 0.23121 0.47712 0.47052
 C43 C 0.23106 0.50170 0.44314
 C44 C 0.23054 0.52732 0.46694
 C45 C 0.23072 0.52845 0.51965
 C46 C 0.23028 0.50390 0.54702
 H47 H 0.23019 0.50468 0.58736
 H48 H 0.23158 0.50090 0.40281
 C49 C 0.27044 1.02726 0.02073
 C50 C 0.26703 1.02659 -0.03232
 C51 C 0.26338 1.00110 -0.05561
 C52 C 0.26447 0.97645 -0.02871
 C53 C 0.26881 0.97700 0.02310
 C54 C 0.27224 1.00209 0.04701
 H55 H 0.27388 1.00193 0.08726
 H56 H 0.26139 1.00003 -0.09576
 C57 C 0.77153 0.52248 0.52930
 C58 C 0.77490 0.52210 0.47703
 C59 C 0.77722 0.49694 0.45182
 C60 C 0.77535 0.47209 0.47761
 C61 C 0.77194 0.47234 0.52986
 C62 C 0.77004 0.49755 0.55514
 H63 H 0.76760 0.49775 0.59526
 H64 H 0.77899 0.49675 0.41158
 O65 O 0.22816 0.26529 0.18740
 O66 O 0.29638 0.25720 0.24592
 O67 O 0.26756 0.22760 0.18543
 O68 O 0.25639 0.29451 0.24767
 O69 O 0.23944 0.27368 0.31300
 O70 O 0.24916 0.20697 0.24956
 O71 O 0.27847 0.23547 0.30932
 O72 O 0.20991 0.24531 0.25234
 Cu73 Cu 0.26402 0.26316 0.21016
 Cu74 Cu 0.24239 0.23830 0.28748
 C75 C 0.20733 0.25674 0.20988
 C76 C 0.29908 0.24503 0.28765
 C77 C 0.25995 0.20589 0.20656
 C78 C 0.24625 0.29549 0.29120
 O79 O 0.75143 0.79082 0.25611
 O80 O 0.76488 0.72286 0.31393
 O81 O 0.79177 0.75371 0.25423
 O82 O 0.72459 0.75983 0.31677
 O83 O 0.70509 0.74182 0.25113
 O84 O 0.77282 0.73320 0.19065
 O85 O 0.74425 0.70353 0.25080
 O86 O 0.73353 0.77110 0.19062
 Cu87 Cu 0.76005 0.75882 0.29171
 Cu88 Cu 0.73700 0.73542 0.21436
 C89 C 0.74060 0.79254 0.21310
 C90 C 0.75652 0.70161 0.29249
 C91 C 0.79384 0.74229 0.21182
 C92 C 0.70335 0.75194 0.29465
 O93 O 0.79857 0.23842 0.25827
 O94 O 0.73206 0.23522 0.32205
 O95 O 0.75993 0.20351 0.26021
 O96 O 0.77055 0.27054 0.31891
 O97 O 0.74932 0.29144 0.25577
 O98 O 0.73963 0.22467 0.19642
 O99 O 0.71138 0.25577 0.25803
 O100 O 0.77796 0.25940 0.19458
 Cu101 Cu 0.76732 0.23484 0.29631
 Cu102 Cu 0.74254 0.26004 0.21990
 C103 C 0.79960 0.24922 0.21530
 C104 C 0.71031 0.24480 0.30089
 C105 C 0.74815 0.20265 0.21804
 C106 C 0.76153 0.29245 0.29746
 O107 O 0.25307 0.70917 0.24379
 O108 O 0.26305 0.77653 0.18574
 O109 O 0.29105 0.74486 0.24714
 O110 O 0.22489 0.74101 0.18215
 O111 O 0.20360 0.76054 0.24637
 O112 O 0.27001 0.76610 0.30987
 O113 O 0.24079 0.79702 0.24800
 O114 O 0.23273 0.72981 0.30785
 Cu115 Cu 0.26010 0.74081 0.20834
 Cu116 Cu 0.23469 0.76546 0.28437
 C117 C 0.24141 0.70796 0.28598
 C118 C 0.25342 0.79828 0.20677
 C119 C 0.29187 0.75624 0.28959
 C120 C 0.20291 0.74997 0.20322
 O121 O 0.70689 0.25611 0.75748
 O122 O 0.77444 0.26374 0.81599
 O123 O 0.74394 0.29239 0.75447
 O124 O 0.73757 0.22665 0.82024
 O125 O 0.75634 0.20439 0.75630
 O126 O 0.76442 0.27032 0.69204
 O127 O 0.79418 0.24017 0.75441
 O128 O 0.72688 0.23412 0.69440
 Cu129 Cu 0.73864 0.26181 0.79349
 Cu130 Cu 0.76249 0.23507 0.71798
 C131 C 0.70538 0.24411 0.71565
 C132 C 0.79582 0.25319 0.79516
 C133 C 0.75542 0.29262 0.71207
 C134 C 0.74574 0.20428 0.79945
 O135 O 0.28893 0.74485 0.74595
 O136 O 0.22139 0.73803 0.80454
 O137 O 0.25138 0.70887 0.74325
 O138 O 0.25866 0.77453 0.80832
 O139 O 0.23865 0.79679 0.74545
 O140 O 0.23239 0.73121 0.67939
 O141 O 0.20157 0.76044 0.74155
 O142 O 0.26926 0.76801 0.68369
 Cu143 Cu 0.25714 0.73943 0.78189
 Cu144 Cu 0.23346 0.76630 0.70615
 C145 C 0.29064 0.75752 0.70476
 C146 C 0.19994 0.74802 0.78300
 C147 C 0.24073 0.70883 0.70011
 C148 C 0.24971 0.79688 0.78825
 O149 O 0.25280 0.29513 0.74817
 O150 O 0.26567 0.22700 0.80570
 O151 O 0.29282 0.25764 0.74565
 O152 O 0.22586 0.26404 0.80851
 O153 O 0.20638 0.24511 0.74377
 O154 O 0.27354 0.23828 0.68117
 O155 O 0.24641 0.20761 0.74121
 O156 O 0.23377 0.27576 0.68346
 Cu157 Cu 0.26122 0.26297 0.78339
 Cu158 Cu 0.23804 0.23978 0.70594
 C159 C 0.24129 0.29710 0.70577
 C160 C 0.25811 0.20566 0.78345
 C161 C 0.29469 0.24682 0.70271
 C162 C 0.20471 0.25542 0.78715
 O163 O 0.72372 0.76589 0.68580
 O164 O 0.79136 0.75459 0.74549
 O165 O 0.76171 0.72650 0.68507
 O166 O 0.75321 0.79403 0.74649
 O167 O 0.73429 0.77439 0.81120
 O168 O 0.74209 0.70710 0.74920
 O169 O 0.77174 0.73522 0.80972
 O170 O 0.70418 0.74689 0.75045
 Cu171 Cu 0.75944 0.76220 0.70924
 Cu172 Cu 0.73604 0.73889 0.78644
 C173 C 0.70237 0.75829 0.70791
 C174 C 0.79306 0.74323 0.78807
 C175 C 0.75328 0.70524 0.70656
 C176 C 0.74264 0.79566 0.78969
 C177 C 0.26695 0.10202 0.10279
 C178 C 0.24989 0.09886 0.06142
 C179 C 0.25055 0.07412 0.03525
 C180 C 0.26901 0.05208 0.04864
 C181 C 0.28544 0.05515 0.09140
 C182 C 0.28439 0.07982 0.11809
 C183 C 0.26639 0.12849 0.12979
 C184 C 0.26799 0.15328 0.10343
 C185 C 0.26660 0.17840 0.12856
 C186 C 0.26313 0.17923 0.18046
 C187 C 0.26176 0.15438 0.20686
 C188 C 0.26362 0.12922 0.18178
 H189 H 0.23621 0.07221 0.00483
 H190 H 0.30002 0.03892 0.10316
 H191 H 0.26763 0.19721 0.10721
 H192 H 0.25915 0.15440 0.24690
 H193 H 0.29775 0.08182 0.14998
 H194 H 0.27033 0.15318 0.06333
 H195 H 0.23570 0.11546 0.04977
 H196 H 0.26222 0.11035 0.20282
 C197 C 0.76472 0.59947 0.60796
 C198 C 0.74414 0.58037 0.61233
 C199 C 0.74656 0.55518 0.58738
 C200 C 0.76950 0.54868 0.55741
 C201 C 0.79031 0.56746 0.55370
 C202 C 0.78793 0.59262 0.57861
 C203 C 0.76192 0.62654 0.63346
 C204 C 0.77004 0.65051 0.60949
 C205 C 0.76733 0.67600 0.63328
 C206 C 0.75639 0.67816 0.68158
 C207 C 0.74826 0.65421 0.70559
 C208 C 0.75101 0.62870 0.68180
 H209 H 0.73025 0.54098 0.59059
 H210 H 0.80842 0.56262 0.53148
 H211 H 0.77367 0.69405 0.61364
 H212 H 0.73983 0.65514 0.74286
 H213 H 0.80438 0.60663 0.57523
 H214 H 0.77811 0.64963 0.57196
 H215 H 0.72588 0.58513 0.63417
 H216 H 0.74490 0.61059 0.70153
 C217 C 0.73102 0.89830 0.11417
 C218 C 0.71351 0.90338 0.07325
 C219 C 0.71396 0.92813 0.04697
 C220 C 0.73200 0.94852 0.06080
 C221 C 0.74859 0.94383 0.10324
 C222 C 0.74833 0.91897 0.12914
 C223 C 0.73192 0.87127 0.14019
 C224 C 0.72928 0.84682 0.11319
 C225 C 0.73147 0.82132 0.13712
 C226 C 0.73668 0.81963 0.18850
 C227 C 0.73895 0.84402 0.21570
 C228 C 0.73642 0.86955 0.19188
 H229 H 0.69977 0.93146 0.01628
 H230 H 0.76299 0.95876 0.11499
 H231 H 0.72981 0.80287 0.11509
 H232 H 0.74274 0.84336 0.25543
 H233 H 0.76242 0.91564 0.15998
 H234 H 0.72629 0.84730 0.07326
 H235 H 0.69930 0.88825 0.06159
 H236 H 0.73804 0.88796 0.21400
 C237 C 0.23010 0.40327 0.60806
 C238 C 0.20900 0.40983 0.57365
 C239 C 0.20859 0.43454 0.54704
 C240 C 0.22931 0.45313 0.55420
 C241 C 0.24987 0.44711 0.58965
 C242 C 0.25034 0.42238 0.61618
 C243 C 0.23160 0.37624 0.63406
 C244 C 0.22517 0.35216 0.60867
 C245 C 0.22781 0.32656 0.63226
 C246 C 0.23708 0.32440 0.68173
 C247 C 0.24312 0.34849 0.70740
 C248 C 0.24035 0.37411 0.68388
 H249 H 0.19236 0.43899 0.52025
 H250 H 0.26610 0.46115 0.59554
 H251 H 0.22311 0.30839 0.61135
 H252 H 0.25016 0.34754 0.74564
 H253 H 0.26708 0.41784 0.64187
 H254 H 0.21881 0.35298 0.57005
 H255 H 0.19283 0.39581 0.56716
 H256 H 0.24506 0.39229 0.70474
 C257 C 0.90325 0.25025 0.11169
 C258 C 0.90795 0.23473 0.06834
 C259 C 0.93234 0.23673 0.04166
 C260 C 0.95222 0.25510 0.05669
 C261 C 0.94784 0.26961 0.10166
 C262 C 0.92365 0.26722 0.12873
 C263 C 0.87676 0.24950 0.13827
 C264 C 0.85195 0.25304 0.11194
 C265 C 0.82688 0.25332 0.13708
 C266 C 0.82614 0.24962 0.18894
 C267 C 0.85099 0.24580 0.21519
 C268 C 0.87608 0.24599 0.19012
 H269 H 0.93554 0.22399 0.00897
 H270 H 0.96241 0.28406 0.11468
 H271 H 0.80805 0.25616 0.11586
 H272 H 0.85103 0.24291 0.25518
 H273 H 0.92041 0.27945 0.16204
 H274 H 0.85201 0.25606 0.07197
 H275 H 0.89273 0.22100 0.05516
 H276 H 0.89497 0.24315 0.21114
 C277 C 0.39531 0.76399 0.60615
 C278 C 0.40659 0.74049 0.58203
 C279 C 0.43130 0.74156 0.55599
 C280 C 0.44530 0.76600 0.55442
 C281 C 0.43435 0.78939 0.57917
 C282 C 0.40933 0.78848 0.60440
 C283 C 0.36882 0.76292 0.63261
 C284 C 0.34726 0.78223 0.62197
 C285 C 0.32183 0.78050 0.64546
 C286 C 0.31770 0.75978 0.68077
 C287 C 0.33949 0.74083 0.69213
 C288 C 0.36473 0.74222 0.66787
 H289 H 0.43953 0.72336 0.53700
 H290 H 0.44495 0.80840 0.57816
 H291 H 0.30540 0.79542 0.63610
 H292 H 0.33684 0.72458 0.71903
 H293 H 0.40102 0.80680 0.62292
 H294 H 0.34995 0.79826 0.59466
 H295 H 0.39602 0.72146 0.58263
 H296 H 0.38114 0.72719 0.67675
 C297 C 0.09875 0.74253 0.10133
 C298 C 0.07604 0.76011 0.11366
 C299 C 0.05113 0.75848 0.08831
 C300 C 0.04840 0.73963 0.04905
 C301 C 0.07102 0.72155 0.03787
 C302 C 0.09579 0.72300 0.06355
 C303 C 0.12546 0.74451 0.12760
 C304 C 0.15036 0.74033 0.10165
 C305 C 0.17548 0.74195 0.12625
 C306 C 0.17630 0.74810 0.17727
 C307 C 0.15147 0.75250 0.20322
 C308 C 0.12634 0.75059 0.17873
 H309 H 0.03439 0.77293 0.09801
 H310 H 0.06937 0.70550 0.01041
 H311 H 0.19426 0.73868 0.10515
 H312 H 0.15144 0.75711 0.24264
 H313 H 0.11251 0.70846 0.05426
 H314 H 0.15049 0.73614 0.06208
 H315 H 0.07766 0.77563 0.14218
 H316 H 0.10760 0.75349 0.20006
 C317 C 0.60149 0.23831 0.61399
 C318 C 0.59032 0.26194 0.58992
 C319 C 0.56606 0.26082 0.56244
 C320 C 0.55243 0.23621 0.55941
 C321 C 0.56320 0.21274 0.58426
 C322 C 0.58776 0.21369 0.61093
 C323 C 0.62775 0.23925 0.64132
 C324 C 0.64944 0.22013 0.63073
 C325 C 0.67467 0.22167 0.65502
 C326 C 0.67846 0.24201 0.69107
 C327 C 0.65653 0.26077 0.70241
 C328 C 0.63148 0.25958 0.67734
 H329 H 0.55796 0.27907 0.54329
 H330 H 0.55288 0.19359 0.58210
 H331 H 0.69120 0.20691 0.64565
 H332 H 0.65894 0.27673 0.72987
 H333 H 0.59600 0.19528 0.62937
 H334 H 0.64703 0.20439 0.60284
 H335 H 0.60070 0.28106 0.59151
 H336 H 0.61495 0.27446 0.68617
 C337 C 0.73874 0.10059 0.90191
 C338 C 0.75794 0.09359 0.93930
 C339 C 0.75707 0.06847 0.96422
 C340 C 0.73641 0.05026 0.95338
 C341 C 0.71744 0.05711 0.91540
 C342 C 0.71870 0.08200 0.88966
 C343 C 0.73976 0.12720 0.87565
 C344 C 0.74057 0.12811 0.82347
 C345 C 0.74254 0.15320 0.79871
 C346 C 0.74313 0.17787 0.82568
 C347 C 0.74174 0.17698 0.87789
 C348 C 0.74037 0.15182 0.90268
 H349 H 0.77245 0.06332 0.99225
 H350 H 0.70140 0.04337 0.90622
 H351 H 0.74348 0.15332 0.75843
 H352 H 0.74227 0.19568 0.89957
 H353 H 0.70371 0.08702 0.86088
 H354 H 0.74024 0.10933 0.80196
 H355 H 0.77384 0.10744 0.94874
 H356 H 0.73963 0.15155 0.94298
 C357 C 0.23130 0.60248 0.38274
 C358 C 0.25183 0.58152 0.37566
 C359 C 0.25106 0.55675 0.40186
 C360 C 0.22990 0.55256 0.43593
 C361 C 0.20889 0.57303 0.44193
 C362 C 0.20959 0.59777 0.41565
 C363 C 0.23303 0.62946 0.35719
 C364 C 0.24254 0.63094 0.30790
 C365 C 0.24511 0.65639 0.28465
 C366 C 0.23812 0.68095 0.31009
 C367 C 0.22830 0.67947 0.35915
 C368 C 0.22586 0.65404 0.38246
 H369 H 0.26752 0.54122 0.39690
 H370 H 0.19221 0.57002 0.46765
 H371 H 0.25259 0.65683 0.24672
 H372 H 0.22286 0.69800 0.37988
 H373 H 0.19319 0.61327 0.42125
 H374 H 0.24787 0.61239 0.28716
 H375 H 0.26900 0.58458 0.35110
 H376 H 0.21893 0.65367 0.42073
 C377 C 0.25809 0.90002 0.89300
 C378 C 0.28127 0.90471 0.92234
 C379 C 0.28337 0.92958 0.94751
 C380 C 0.26229 0.95019 0.94412
 C381 C 0.23925 0.94573 0.91451
 C382 C 0.23711 0.92084 0.88929
 C383 C 0.25592 0.87356 0.86620
 C384 C 0.24524 0.87308 0.81762
 C385 C 0.24330 0.84821 0.79232
 C386 C 0.25203 0.82324 0.81498
 C387 C 0.26273 0.82370 0.86354
 C388 C 0.26463 0.84858 0.88888
 H389 H 0.30158 0.93284 0.96940
 H390 H 0.22276 0.96140 0.91149
 H391 H 0.23503 0.84858 0.75489
 H392 H 0.26950 0.80481 0.88215
 H393 H 0.21886 0.91773 0.86746
 H394 H 0.23873 0.89200 0.79885
 H395 H 0.29800 0.88932 0.92522
 H396 H 0.27260 0.84822 0.92652
 C397 C 0.77128 0.39660 0.39662
 C398 C 0.79633 0.40946 0.40081
 C399 C 0.79763 0.43441 0.42628
 C400 C 0.77404 0.44638 0.44884
 C401 C 0.74906 0.43353 0.44482
 C402 C 0.74763 0.40893 0.41857
 C403 C 0.76967 0.37025 0.36980
 C404 C 0.74968 0.36727 0.33286
 C405 C 0.74747 0.34213 0.30859
 C406 C 0.76485 0.31935 0.32154
 C407 C 0.78493 0.32238 0.35843
 C408 C 0.78749 0.34772 0.38201
 H409 H 0.81706 0.44413 0.42921
 H410 H 0.73070 0.44256 0.46214
 H411 H 0.73175 0.34035 0.28045
 H412 H 0.79865 0.30518 0.36901
 H413 H 0.72816 0.39925 0.41609
 H414 H 0.73580 0.38444 0.32278
 H415 H 0.81477 0.40032 0.38398
 H416 H 0.80294 0.34956 0.41063
 C417 C 0.10132 0.25755 0.89228
 C418 C 0.07833 0.27342 0.87565
 C419 C 0.05379 0.27399 0.90258
 C420 C 0.05160 0.25865 0.94695
 C421 C 0.07453 0.24182 0.96199
 C422 C 0.09913 0.24161 0.93546
 C423 C 0.12764 0.25769 0.86494
 C424 C 0.15226 0.26108 0.89080
 C425 C 0.17721 0.26090 0.86531
 C426 C 0.17809 0.25692 0.81352
 C427 C 0.15342 0.25361 0.78761
 C428 C 0.12839 0.25422 0.81306
 H429 H 0.03696 0.28750 0.88964
 H430 H 0.07336 0.22814 0.99358
 H431 H 0.19588 0.26340 0.88632
 H432 H 0.15348 0.25054 0.74770
 H433 H 0.11639 0.22859 0.94825
 H434 H 0.15215 0.26404 0.93076
 H435 H 0.07958 0.28600 0.84251
 H436 H 0.10967 0.25143 0.79238
 C437 C 0.59839 0.75868 0.39496
 C438 C 0.57729 0.77757 0.37984
 C439 C 0.55235 0.77940 0.40558
 C440 C 0.54797 0.76220 0.44654
 C441 C 0.56873 0.74260 0.46039
 C442 C 0.59384 0.74114 0.43532
 C443 C 0.62520 0.75739 0.36905
 C444 C 0.64970 0.75791 0.39643
 C445 C 0.67506 0.75661 0.37215
 C446 C 0.67643 0.75426 0.32006
 C447 C 0.65189 0.75367 0.29269
 C448 C 0.62649 0.75549 0.31694
 H449 H 0.53662 0.79460 0.39408
 H450 H 0.56558 0.72855 0.49090
 H451 H 0.69363 0.75701 0.39422
 H452 H 0.65233 0.75193 0.25251
 H453 H 0.60966 0.72613 0.44714
 H454 H 0.64918 0.75957 0.43663
 H455 H 0.58038 0.79133 0.34886
 H456 H 0.60785 0.75494 0.29511
 C457 C 0.89732 0.73687 0.89012
 C458 C 0.91970 0.71974 0.87495
 C459 C 0.94440 0.71924 0.90152
 C460 C 0.94733 0.73596 0.94394
 C461 C 0.92501 0.75402 0.95725
 C462 C 0.90025 0.75412 0.93124
 C463 C 0.87084 0.73696 0.86331
 C464 C 0.86980 0.74021 0.81139
 C465 C 0.84451 0.74196 0.78667
 C466 C 0.81992 0.73997 0.81340
 C467 C 0.82112 0.73592 0.86517
 C468 C 0.84632 0.73465 0.88992
 H469 H 0.96078 0.70486 0.88984
 H470 H 0.92678 0.76880 0.98693
 H471 H 0.84419 0.74503 0.74673
 H472 H 0.80251 0.73442 0.88678
 H473 H 0.88348 0.76812 0.94271
 H474 H 0.88849 0.74215 0.79021
 H475 H 0.91784 0.70624 0.84326
 H476 H 0.84669 0.73195 0.92996
 C477 C 0.40374 0.23823 0.38866
 C478 C 0.41980 0.21354 0.39226
 C479 C 0.44447 0.21258 0.41889
 C480 C 0.45304 0.23612 0.44319
 C481 C 0.43708 0.26079 0.43966
 C482 C 0.41270 0.26191 0.41220
 C483 C 0.37741 0.23923 0.36126
 C484 C 0.37184 0.25946 0.32485
 C485 C 0.34663 0.26087 0.29993
 C486 C 0.32634 0.24244 0.31176
 C487 C 0.33199 0.22214 0.34811
 C488 C 0.35742 0.22038 0.37228
 H489 H 0.45661 0.19338 0.42146
 H490 H 0.44346 0.27909 0.45840
 H491 H 0.34276 0.27680 0.27226
 H492 H 0.31673 0.20765 0.35789
 H493 H 0.40052 0.28109 0.41020
 H494 H 0.38704 0.27413 0.31569
 H495 H 0.41328 0.19508 0.37423
 H496 H 0.36126 0.20472 0.40046
 C497 C 0.73799 0.89953 0.89352
 C498 C 0.75688 0.90359 0.93192
 C499 C 0.75580 0.92810 0.95890
 C500 C 0.73522 0.94865 0.94908
 C501 C 0.71678 0.94488 0.90974
 C502 C 0.71825 0.92056 0.88200
 C503 C 0.73854 0.87309 0.86651
 C504 C 0.73956 0.87241 0.81430
 C505 C 0.74089 0.84723 0.78913
 C506 C 0.74057 0.82238 0.81578
 C507 C 0.73898 0.82318 0.86798
 C508 C 0.73825 0.84829 0.89312
 H509 H 0.77070 0.93083 0.98816
 H510 H 0.70087 0.96050 0.90126
 H511 H 0.74206 0.84719 0.74887
 H512 H 0.73885 0.80435 0.88949
 H513 H 0.70349 0.91781 0.85250
 H514 H 0.73988 0.89133 0.79311
 H515 H 0.77251 0.88778 0.94094
 H516 H 0.73728 0.84838 0.93341
 C517 C 0.23648 0.39992 0.39257
 C518 C 0.25481 0.40496 0.43140
 C519 C 0.25348 0.43022 0.45600
 C520 C 0.23327 0.45060 0.44321
 C521 C 0.21513 0.44564 0.40397
 C522 C 0.21682 0.42056 0.37866
 C523 C 0.23807 0.37320 0.36648
 C524 C 0.23938 0.37219 0.31432
 C525 C 0.24196 0.34691 0.28979
 C526 C 0.24273 0.32219 0.31697
 C527 C 0.24082 0.32324 0.36913
 C528 C 0.23878 0.34853 0.39368
 H529 H 0.26821 0.43383 0.48514
 H530 H 0.19944 0.46107 0.39336
 H531 H 0.24332 0.34668 0.24955
 H532 H 0.24148 0.30452 0.39101
 H533 H 0.20246 0.41705 0.34883
 H534 H 0.23901 0.39098 0.29266
 H535 H 0.27042 0.38948 0.44219
 H536 H 0.23762 0.34887 0.43395
 C537 C 0.26992 0.09946 0.88084
 C538 C 0.28920 0.09396 0.91891
 C539 C 0.28884 0.06964 0.94651
 C540 C 0.26907 0.05016 0.93701
 C541 C 0.25096 0.05494 0.89666
 C542 C 0.25117 0.07939 0.86938
 C543 C 0.26847 0.12652 0.85484
 C544 C 0.26150 0.12850 0.80408
 C545 C 0.25844 0.15415 0.78069
 C546 C 0.26252 0.17839 0.80741
 C547 C 0.27011 0.17641 0.85780
 C548 C 0.27291 0.15081 0.88129
 H549 H 0.30405 0.06614 0.97554
 H550 H 0.23531 0.04064 0.88813
 H551 H 0.25278 0.15500 0.74171
 H552 H 0.27323 0.19471 0.87950
 H553 H 0.23583 0.08303 0.84066
 H554 H 0.25837 0.11021 0.78238
 H555 H 0.30451 0.10856 0.92769
 H556 H 0.27778 0.15015 0.92061
 C557 C 0.76907 0.59716 0.39346
 C558 C 0.79438 0.58223 0.39755
 C559 C 0.79627 0.55744 0.42398
 C560 C 0.77302 0.54771 0.44757
 C561 C 0.74778 0.56263 0.44363
 C562 C 0.74577 0.58708 0.41643
 C563 C 0.76687 0.62342 0.36585
 C564 C 0.74668 0.62775 0.32905
 C565 C 0.74378 0.65298 0.30430
 C566 C 0.76068 0.67448 0.31667
 C567 C 0.78101 0.67005 0.35332
 C568 C 0.78425 0.64462 0.37737
 H569 H 0.81588 0.54608 0.42682
 H570 H 0.72968 0.55531 0.46169
 H571 H 0.72789 0.65587 0.27633
 H572 H 0.79436 0.68626 0.36344
 H573 H 0.72612 0.59840 0.41402
 H574 H 0.73313 0.61160 0.31954
 H575 H 0.81256 0.58966 0.37994
 H576 H 0.79985 0.64170 0.40589
 C577 C 0.09574 0.73989 0.88210
 C578 C 0.08532 0.76273 0.90914
 C579 C 0.06141 0.76102 0.93732
 C580 C 0.04738 0.73656 0.93831
 C581 C 0.05721 0.71402 0.90988
 C582 C 0.08148 0.71554 0.88253
 C583 C 0.12195 0.74128 0.85491
 C584 C 0.14356 0.72187 0.86445
 C585 C 0.16892 0.72404 0.84097
 C586 C 0.17290 0.74533 0.80674
 C587 C 0.15103 0.76435 0.79632
 C588 C 0.12586 0.76253 0.82067
 H589 H 0.05396 0.77866 0.95878
 H590 H 0.04653 0.69505 0.91014
 H591 H 0.18541 0.70905 0.84953
 H592 H 0.15361 0.78101 0.77024
 H593 H 0.08915 0.69775 0.86171
 H594 H 0.14099 0.70544 0.89102
 H595 H 0.09610 0.78165 0.90946
 H596 H 0.10940 0.77768 0.81278
 C597 C 0.60543 0.23833 0.40012
 C598 C 0.58477 0.25924 0.39362
 C599 C 0.55957 0.25787 0.41796
 C600 C 0.55464 0.23570 0.44950
 C601 C 0.57503 0.21462 0.45566
 C602 C 0.60022 0.21593 0.43127
 C603 C 0.63233 0.23993 0.37465
 C604 C 0.65684 0.23173 0.39931
 C605 C 0.68215 0.23327 0.37537
 C606 C 0.68353 0.24316 0.32630
 C607 C 0.65904 0.25140 0.30167
 C608 C 0.63373 0.24976 0.32554
 H609 H 0.54408 0.27437 0.41296
 H610 H 0.57141 0.19714 0.47929
 H611 H 0.70065 0.22688 0.39545
 H612 H 0.65939 0.25898 0.26376
 H613 H 0.61550 0.19926 0.43636
 H614 H 0.65650 0.22446 0.43741
 H615 H 0.58825 0.27693 0.37043
 H616 H 0.61522 0.25586 0.30526
 C617 C 0.90145 0.26288 0.89103
 C618 C 0.92519 0.24863 0.87298
 C619 C 0.94976 0.24819 0.89977
 C620 C 0.95160 0.26235 0.94533
 C621 C 0.92843 0.27855 0.96102
 C622 C 0.90361 0.27829 0.93502
 C623 C 0.87449 0.26087 0.86507
 C624 C 0.85419 0.28247 0.86738
 C625 C 0.82853 0.27987 0.84506
 C626 C 0.82285 0.25599 0.81867
 C627 C 0.84313 0.23466 0.81522
 C628 C 0.86847 0.23687 0.83876
 H629 H 0.96685 0.23541 0.88580
 H630 H 0.92926 0.29116 0.99409
 H631 H 0.81325 0.29673 0.84773
 H632 H 0.83908 0.21591 0.79546
 H633 H 0.88599 0.28963 0.95045
 H634 H 0.85806 0.30154 0.88612
 H635 H 0.92482 0.23732 0.83838
 H636 H 0.88305 0.21942 0.83710
 C637 C 0.39591 0.76224 0.39220
 C638 C 0.41624 0.74084 0.38788
 C639 C 0.44106 0.74198 0.41371
 C640 C 0.44590 0.76444 0.44451
 C641 C 0.42589 0.78606 0.44821
 C642 C 0.40112 0.78496 0.42239
 C643 C 0.36926 0.76080 0.36573
 C644 C 0.34463 0.76980 0.38906
 C645 C 0.31954 0.76843 0.36429
 C646 C 0.31848 0.75793 0.31567
 C647 C 0.34310 0.74891 0.29233
 C648 C 0.36820 0.75036 0.31706
 H649 H 0.45625 0.72508 0.41054
 H650 H 0.42947 0.80377 0.47121
 H651 H 0.30094 0.77541 0.38342
 H652 H 0.34300 0.74081 0.25482
 H653 H 0.38613 0.80201 0.42576
 H654 H 0.34470 0.77754 0.42682
 H655 H 0.41274 0.72292 0.36539
 H656 H 0.38684 0.74361 0.29782
 C657 C 0.26359 0.90263 0.10770
 C658 C 0.24014 0.91492 0.08490
 C659 C 0.24189 0.93923 0.05772
 C660 C 0.26701 0.95185 0.05358
 C661 C 0.29036 0.94000 0.07727
 C662 C 0.28874 0.91535 0.10369
 C663 C 0.26179 0.87628 0.13466
 C664 C 0.27988 0.85385 0.12326
 C665 C 0.27720 0.82848 0.14675
 C666 C 0.25670 0.82525 0.18276
 C667 C 0.23902 0.84791 0.19493
 C668 C 0.24137 0.87312 0.17073
 H669 H 0.22370 0.94816 0.03959
 H670 H 0.30990 0.94952 0.07427
 H671 H 0.29117 0.81139 0.13678
 H672 H 0.22299 0.84599 0.22242
 H673 H 0.30704 0.90625 0.12117
 H674 H 0.29565 0.85579 0.09528
 H675 H 0.22060 0.90535 0.08720
 H676 H 0.22726 0.89019 0.18018
 C677 C 0.76580 0.39635 0.60983
 C678 C 0.74481 0.41717 0.61313
 C679 C 0.74703 0.44204 0.58778
 C680 C 0.77018 0.44649 0.55850
 C681 C 0.79136 0.42597 0.55579
 C682 C 0.78918 0.40111 0.58109
 C683 C 0.76328 0.36975 0.63609
 C684 C 0.77191 0.34487 0.61312
 C685 C 0.76944 0.31982 0.63778
 C686 C 0.75824 0.31910 0.68592
 C687 C 0.74965 0.34398 0.70889
 C688 C 0.75216 0.36901 0.68427
 H689 H 0.73042 0.45761 0.59014
 H690 H 0.80960 0.42923 0.53401
 H691 H 0.77615 0.30101 0.61899
 H692 H 0.74103 0.34415 0.74604
 H693 H 0.80591 0.38571 0.57855
 H694 H 0.78020 0.34473 0.57574
 H695 H 0.72641 0.41401 0.63448
 H696 H 0.74569 0.38784 0.70323
 C697 C 0.73741 0.09833 0.11861
 C698 C 0.71556 0.09405 0.08573
 C699 C 0.71458 0.06953 0.05905
 C700 C 0.73544 0.04885 0.06463
 C701 C 0.75683 0.05269 0.09843
 C702 C 0.75789 0.07724 0.12502
 C703 C 0.73929 0.12498 0.14492
 C704 C 0.74884 0.12589 0.19428
 C705 C 0.75152 0.15108 0.21824
 C706 C 0.74460 0.17589 0.19345
 C707 C 0.73471 0.17497 0.14435
 C708 C 0.73217 0.14982 0.12033
 H709 H 0.69770 0.06676 0.03362
 H710 H 0.77314 0.03696 0.10314
 H711 H 0.75907 0.15110 0.25617
 H712 H 0.72934 0.19372 0.12409
 H713 H 0.77516 0.08000 0.14953
 H714 H 0.75413 0.10711 0.21448
 H715 H 0.69921 0.10967 0.08064
 H716 H 0.72520 0.14988 0.08205
 C717 C 0.23406 0.60536 0.59754
 C718 C 0.21445 0.58648 0.61059
 C719 C 0.21340 0.56148 0.58532
 C720 C 0.23215 0.55483 0.54702
 C721 C 0.25231 0.57342 0.53514
 C722 C 0.25298 0.59864 0.55963
 C723 C 0.23503 0.63193 0.62377
 C724 C 0.23526 0.65663 0.59678
 C725 C 0.23656 0.68174 0.62162
 C726 C 0.23825 0.68248 0.67381
 C727 C 0.23805 0.65772 0.70073
 C728 C 0.23617 0.63269 0.67593
 H729 H 0.19772 0.54746 0.59522
 H730 H 0.26750 0.56844 0.50677
 H731 H 0.23678 0.70052 0.60000
 H732 H 0.23922 0.65772 0.74099
 H733 H 0.26854 0.61274 0.54955
 H734 H 0.23427 0.65647 0.55650
 H735 H 0.19966 0.59130 0.63974
 H736 H 0.23615 0.61384 0.69741
 C737 C 0.89898 0.73659 0.11089
 C738 C 0.90680 0.71468 0.07905
 C739 C 0.93122 0.71501 0.05192
 C740 C 0.94822 0.73734 0.05580
 C741 C 0.94100 0.75876 0.08889
 C742 C 0.91657 0.75846 0.11600
 C743 C 0.87224 0.73706 0.13753
 C744 C 0.86997 0.74701 0.18653
 C745 C 0.84460 0.74843 0.21080
 C746 C 0.82090 0.73988 0.18669
 C747 C 0.82322 0.72958 0.13796
 C748 C 0.84859 0.72823 0.11364
 H749 H 0.93664 0.69807 0.02717
 H750 H 0.95383 0.77618 0.09239
 H751 H 0.84354 0.75635 0.24843
 H752 H 0.80535 0.72293 0.11826
 H753 H 0.91103 0.77578 0.13979
 H754 H 0.88786 0.75362 0.20622
 H755 H 0.89399 0.69729 0.07501
 H756 H 0.84954 0.72085 0.07565
 C757 C 0.40005 0.23856 0.60318
 C758 C 0.40726 0.21622 0.57189
 C759 C 0.43250 0.21484 0.54720
 C760 C 0.45091 0.23581 0.55318
 C761 C 0.44398 0.25793 0.58481
 C762 C 0.41875 0.25936 0.60948
 C763 C 0.37309 0.24027 0.62894
 C764 C 0.37096 0.24992 0.67813
 C765 C 0.34554 0.25197 0.70211
 C766 C 0.32166 0.24431 0.67749
 C767 C 0.32380 0.23447 0.62842
 C768 C 0.34923 0.23250 0.60440
 H769 H 0.43771 0.19737 0.52355
 H770 H 0.45792 0.27435 0.58970
 H771 H 0.34461 0.25950 0.74000
 H772 H 0.30578 0.22851 0.60836
 H773 H 0.41366 0.27701 0.63276
 H774 H 0.38902 0.25568 0.69831
 H775 H 0.39353 0.19965 0.56693
 H776 H 0.35012 0.22535 0.56626
 C777 C 0.10114 0.26363 0.11254
 C778 C 0.09359 0.28464 0.07841
 C779 C 0.06900 0.28393 0.05173
 C780 C 0.05159 0.26215 0.05848
 C781 C 0.05859 0.24168 0.09373
 C782 C 0.08317 0.24233 0.12031
 C783 C 0.12810 0.26326 0.13853
 C784 C 0.13063 0.25430 0.18820
 C785 C 0.15627 0.25250 0.21162
 C786 C 0.17996 0.25973 0.18597
 C787 C 0.17736 0.26922 0.13665
 C788 C 0.15175 0.27089 0.11318
 H789 H 0.06376 0.30011 0.02514
 H790 H 0.04543 0.22467 0.09939
 H791 H 0.15756 0.24527 0.24974
 H792 H 0.19522 0.27485 0.11576
 H793 H 0.08849 0.22564 0.14577
 H794 H 0.11275 0.24866 0.20902
 H795 H 0.10673 0.30158 0.07220
 H796 H 0.15063 0.27746 0.07467
 C797 C 0.59657 0.76876 0.61009
 C798 C 0.59015 0.78912 0.57411
 C799 C 0.56535 0.78921 0.54800
 C800 C 0.54656 0.76892 0.55730
 C801 C 0.55252 0.74907 0.59413
 C802 C 0.57732 0.74890 0.62012
 C803 C 0.62354 0.76758 0.63596
 C804 C 0.62554 0.75994 0.68638
 C805 C 0.65109 0.75725 0.70990
 C806 C 0.67522 0.76233 0.68364
 C807 C 0.67321 0.77058 0.63356
 C808 C 0.64767 0.77308 0.60993
 H809 H 0.56094 0.80486 0.52003
 H810 H 0.53832 0.73316 0.60162
 H811 H 0.65194 0.75107 0.74864
 H812 H 0.69144 0.77452 0.61224
 H813 H 0.58177 0.73270 0.64700
 H814 H 0.60732 0.75601 0.70772
 H815 H 0.60433 0.80495 0.56609
 H816 H 0.64691 0.77860 0.57087
   
