data_POSCAR
  _audit_creation_date              2014-09-24
  _audit_creation_method            'ToBaCCo'
  _symmetry_space_group_name_H-M    'P1'
  _symmetry_Int_Tables_number       1
  _symmetry_cell_setting            triclinic
  loop_
  _symmetry_equiv_pos_as_xyz
 x,y,z
_cell_length_a 20.3457
_cell_length_b 20.3433
_cell_length_c 20.3412
_cell_angle_alpha 90.233900
_cell_angle_beta 89.759500
_cell_angle_gamma 90.233000
loop_
  _atom_site_label
  _atom_site_type_symbol
  _atom_site_fract_x
  _atom_site_fract_y
  _atom_site_fract_z
N1 N 0.23771 1.23903 0.23769
 N2 N 0.76047 0.76265 0.23784
 N3 N 0.76430 1.23617 -0.23651
 N4 N 0.23784 0.76179 -0.23870
 C5 C 0.60208 1.09177 -0.02394
 H6 H 0.60423 1.09272 0.02919
 C7 C 0.64544 1.13042 -0.06075
 H8 H 0.68101 1.16150 -0.03600
 C9 C 0.55381 1.04940 -0.12134
 H10 H 0.51882 1.01701 -0.14483
 C11 C 0.59630 1.08724 -0.15998
 H12 H 0.59344 1.08436 -0.21309
 N13 N 0.55694 1.05287 -0.05457
 C14 C 0.40015 1.02445 0.08967
 H15 H 0.39737 0.97133 0.09021
 C16 C 0.35715 1.06142 0.12851
 H17 H 0.32122 1.03681 0.15932
 C18 C 0.44971 1.12163 0.04816
 H19 H 0.48507 1.14496 0.01605
 C20 C 0.40760 1.16045 0.08622
 H21 H 0.41111 1.21353 0.08378
 Zn22 Zn 0.50110 1.00092 -0.00097
 N23 N 0.44576 1.05487 0.05111
 C24 C 0.55155 0.95226 0.11971
 N25 N 0.55566 0.94888 0.05295
 C26 C 0.60085 0.90990 0.02259
 C27 C 0.64319 0.87105 0.05963
 C28 C 0.59300 0.91422 0.15859
 C29 C 0.40119 0.97735 -0.09221
 C30 C 0.35826 0.94029 -0.13104
 C31 C 0.40711 0.84135 -0.08806
 C32 C 0.44917 0.88024 -0.05003
 N33 N 0.44597 0.94699 -0.05330
 H34 H 0.51656 0.98471 0.14300
 H35 H 0.60379 0.90901 -0.03053
 H36 H 0.67879 0.83990 0.03507
 H37 H 0.58934 0.91701 0.21167
 H38 H 0.39895 1.03047 -0.09300
 H39 H 0.32293 0.96483 -0.16208
 H40 H 0.41000 0.78827 -0.08530
 H41 H 0.48385 0.85697 -0.01763
 C42 C 0.36107 1.13002 0.12687
 C43 C 0.64236 1.12822 -0.12937
 C44 C 0.36140 0.87169 -0.12901
 C45 C 0.63906 0.87313 0.12823
 C46 C -0.02451 0.59981 1.09075
 H47 H 0.02860 0.60253 1.09142
 C48 C -0.06152 0.64285 1.12952
 H49 H -0.03695 0.67875 1.16040
 C50 C -0.12164 0.55044 1.04895
 H51 H -0.14494 0.51515 1.01674
 C52 C -0.16049 0.59259 1.08693
 H53 H -0.21357 0.58918 1.08432
 N54 N -0.05490 0.55429 1.05207
 C55 C 0.08992 0.39910 1.02320
 H56 H 0.09074 0.39626 0.97008
 C57 C 0.12879 0.35665 1.06009
 H58 H 0.15987 0.32107 1.03542
 C59 C 0.04776 0.44826 1.12048
 H60 H 0.01540 0.48325 1.14389
 C61 C 0.08583 0.40669 1.15922
 H62 H 0.08313 0.41025 1.21231
 Zn63 Zn -0.00097 0.49899 0.99992
 N64 N 0.05104 0.44427 1.05371
 C65 C 0.11973 0.55085 0.95077
 N66 N 0.05299 0.55417 0.94765
 C67 C 0.02263 0.59904 0.90884
 C68 C 0.05967 0.64189 0.86991
 C69 C 0.15861 0.59283 0.91264
 C70 C -0.09190 0.39811 0.97670
 C71 C -0.13053 0.35484 0.93977
 C72 C -0.08719 0.40416 0.84068
 C73 C -0.04938 0.44654 0.87944
 N74 N -0.05293 0.44328 0.94620
 H75 H 0.14301 0.51610 0.98309
 H76 H -0.03048 0.60135 0.90816
 H77 H 0.03512 0.67726 0.83892
 H78 H 0.21168 0.58983 0.91524
 H79 H -0.09292 0.39585 1.02983
 H80 H -0.16164 0.31922 0.96442
 H81 H -0.08423 0.40711 0.78758
 H82 H -0.01694 0.48154 0.85605
 C83 C 0.12682 0.36065 1.12871
 C84 C -0.13012 0.63906 1.12767
 C85 C -0.12823 0.35805 0.87115
 C86 C 0.12826 0.63860 0.87174
 C87 C 1.09099 -0.02324 0.60086
 H88 H 1.09194 0.02988 0.60363
 C89 C 1.12978 -0.06018 0.64336
 H90 H 1.16094 -0.03555 0.67889
 C91 C 1.04853 -0.12047 0.55189
 H92 H 1.01607 -0.14384 0.51697
 C93 C 1.08651 -0.15924 0.59350
 H94 H 1.08364 -0.21233 0.59004
 N95 N 1.05199 -0.05371 0.55578
 C96 C 1.02325 0.09102 0.40092
 H97 H 0.97013 0.09163 0.39871
 C98 C 1.06015 0.12996 0.35795
 H99 H 1.03548 0.16088 0.32261
 C100 C 1.12050 0.04928 0.44897
 H101 H 1.14388 0.01704 0.48372
 C102 C 1.15924 0.08742 0.40686
 H103 H 1.21233 0.08491 0.40977
 Zn104 Zn 0.99992 0.00007 0.50110
 N105 N 1.05375 0.05231 0.44577
 C106 C 0.95141 0.12057 0.55348
 N107 N 0.94802 0.05381 0.55685
 C108 C 0.90914 0.02331 0.60211
 C109 C 0.87041 0.06022 0.64530
 C110 C 0.91349 0.15932 0.59580
 C111 C 0.97614 -0.09084 0.40037
 C112 C 0.93901 -0.12959 0.35742
 C113 C 0.84017 -0.08684 0.40785
 C114 C 0.87913 -0.04890 0.44990
 N115 N 0.94587 -0.05210 0.44593
 H116 H 0.98378 0.14397 0.51840
 H117 H 0.90824 -0.02981 0.60444
 H118 H 0.83934 0.03556 0.68096
 H119 H 0.91630 0.21241 0.59273
 H120 H 1.02924 -0.09158 0.39756
 H121 H 0.96348 -0.16051 0.32149
 H122 H 0.78710 -0.08415 0.41135
 H123 H 0.85593 -0.01662 0.48520
 C124 C 1.12875 0.12823 0.36111
 C125 C 1.12760 -0.12879 0.63948
 C126 C 0.87042 -0.12764 0.36134
 C127 C 0.87251 0.12882 0.64195
 C128 C 0.19957 0.28093 1.20025
 C129 C 0.16640 0.31734 1.16767
 C130 C -0.20193 0.72007 1.19997
 C131 C -0.16921 0.68307 1.16703
 C132 C -0.20012 0.27658 0.79930
 C133 C -0.16739 0.31380 0.83211
 C134 C 0.20016 0.71933 0.79921
 C135 C 0.16739 0.68245 0.83224
 C136 C 1.20028 0.20095 0.28023
 C137 C 1.16771 0.16780 0.31718
 C138 C 1.19997 -0.20055 0.71936
 C139 C 1.16700 -0.16782 0.68289
 C140 C 0.79830 -0.19970 0.28040
 C141 C 0.83119 -0.16690 0.31738
 C142 C 0.80017 0.20053 0.72317
 C143 C 0.83314 0.16782 0.68606
 C144 C 0.28023 1.20163 0.19956
 C145 C 0.31717 1.16904 0.16641
 C146 C 0.72388 1.20037 -0.20092
 C147 C 0.68665 1.16748 -0.16827
 C148 C 0.28041 0.79965 -0.20109
 C149 C 0.31741 0.83252 -0.16830
 C150 C 0.71863 0.80059 0.20014
 C151 C 0.68229 0.83364 0.16736
   
