data_POSCAR
  _audit_creation_date              2014-09-24
  _audit_creation_method            'ToBaCCo'
  _symmetry_space_group_name_H-M    'P1'
  _symmetry_Int_Tables_number       1
  _symmetry_cell_setting            triclinic
  loop_
  _symmetry_equiv_pos_as_xyz
 x,y,z
_cell_length_a 48.9699
_cell_length_b 49.8515
_cell_length_c 19.6673
_cell_angle_alpha 89.654300
_cell_angle_beta 90.519200
_cell_angle_gamma 119.167500
loop_
  _atom_site_label
  _atom_site_type_symbol
  _atom_site_fract_x
  _atom_site_fract_y
  _atom_site_fract_z
O1 O 0.18724 0.43502 0.44593
 O2 O 0.23136 0.41511 0.57092
 O3 O 0.17846 0.41623 0.57136
 O4 O 0.24111 0.43508 0.44516
 O5 O 0.26407 0.48348 0.47857
 O6 O 0.20477 0.46372 0.61019
 O7 O 0.25754 0.46381 0.60155
 O8 O 0.21033 0.48250 0.48531
 Cu9 Cu 0.20711 0.42051 0.50445
 Cu10 Cu 0.23655 0.47819 0.54730
 C11 C 0.19069 0.46198 0.44593
 C12 C 0.25254 0.43636 0.60653
 C13 C 0.18133 0.43691 0.61282
 C14 C 0.26334 0.46261 0.44087
 O15 O 0.55324 -0.25537 0.43600
 O16 O 0.54058 -0.20930 0.56403
 O17 O 0.54339 -0.26021 0.56669
 O18 O 0.54554 -0.20658 0.43235
 O19 O 0.49468 -0.23620 0.41684
 O20 O 0.49226 -0.28770 0.55284
 O21 O 0.48950 -0.23719 0.54913
 O22 O 0.50222 -0.28402 0.42211
 Cu23 Cu 0.55082 -0.23003 0.50100
 Cu24 Cu 0.48960 -0.26407 0.48374
 C25 C 0.53000 -0.27763 0.40742
 C26 C 0.51297 -0.21539 0.57855
 C27 C 0.51721 -0.28299 0.58304
 C28 C 0.52019 -0.21262 0.40164
 O29 O 1.25127 0.79811 0.42042
 O30 O 1.19195 0.74788 0.54372
 O31 O 1.24652 0.79878 0.55227
 O32 O 1.19865 0.74651 0.41341
 O33 O 1.22433 0.72062 0.42660
 O34 O 1.26988 0.77079 0.56695
 O35 O 1.21670 0.72117 0.55712
 O36 O 1.27624 0.77163 0.43498
 Cu37 Cu 1.21965 0.77561 0.48142
 Cu38 Cu 1.24932 0.74346 0.49786
 C39 C 1.27369 0.79320 0.40629
 C40 C 1.19397 0.72574 0.57082
 C41 C 1.26623 0.79336 0.58332
 C42 C 1.20367 0.72471 0.39641
 O43 O 0.82363 0.58766 0.45724
 O44 O 0.76958 0.59539 0.57388
 O45 O 0.81943 0.58949 0.58883
 O46 O 0.77146 0.59084 0.44326
 O47 O 0.74192 0.54058 0.45331
 O48 O 0.79120 0.53884 0.59108
 O49 O 0.74249 0.54491 0.58414
 O50 O 0.79394 0.53720 0.45843
 Cu51 Cu 0.79904 0.59592 0.51471
 Cu52 Cu 0.76463 0.53526 0.52141
 C53 C 0.81811 0.56125 0.43804
 C54 C 0.74716 0.57155 0.59992
 C55 C 0.81301 0.56367 0.61487
 C56 C 0.74756 0.56583 0.42592
 O57 O 0.47837 0.26110 0.43120
 O58 O 0.47509 0.20554 0.56101
 O59 O 0.46977 0.25537 0.56209
 O60 O 0.48574 0.21267 0.43046
 O61 O 0.53642 0.24068 0.45071
 O62 O 0.52057 0.28411 0.57971
 O63 O 0.52558 0.23484 0.58116
 O64 O 0.52929 0.28897 0.44869
 Cu65 Cu 0.47212 0.23073 0.49439
 Cu66 Cu 0.53303 0.26499 0.51691
 C67 C 0.50454 0.28440 0.41762
 C68 C 0.49978 0.21091 0.59365
 C69 C 0.49258 0.27714 0.59312
 C70 C 0.51383 0.21945 0.41821
 O71 O 0.80094 0.25872 0.51948
 O72 O 0.73699 0.19895 0.41768
 O73 O 0.78821 0.24979 0.39036
 O74 O 0.74701 0.21012 0.54777
 O75 O 0.72400 0.23879 0.54955
 O76 O 0.76222 0.27565 0.39084
 O77 O 0.71141 0.22514 0.42217
 O78 O 0.77659 0.28610 0.52064
 Cu79 Cu 0.77077 0.22667 0.46883
 Cu80 Cu 0.74122 0.25921 0.47044
 C81 C 0.79979 0.28253 0.53753
 C82 C 0.71317 0.20170 0.40313
 C83 C 0.78186 0.26945 0.36386
 C84 C 0.72855 0.21799 0.57535
 O85 O 0.98928 0.53086 -0.12361
 O86 O 1.00873 0.53663 0.11445
 O87 O 0.94535 0.50958 0.03357
 O88 O 1.05283 0.55282 -0.03812
 O89 O 0.95520 0.49420 0.12504
 O90 O 1.03870 0.53060 -0.13260
 O91 O 1.05228 0.54248 0.07659
 O92 O 0.94341 0.50109 -0.08352
 C93 C 0.96217 0.52557 -0.11333
 C94 C 1.03727 0.55326 0.10694
 C95 C 0.94296 0.50778 0.09561
 C96 C 1.05427 0.55471 -0.10024
 O97 O 1.00828 0.46947 -0.12339
 O98 O 0.97614 0.45450 0.10750
 O99 O 0.94005 0.44457 -0.05759
 O100 O 1.04217 0.48340 0.04384
 O101 O 1.02868 0.49587 0.13354
 O102 O 0.95939 0.47073 -0.14585
 O103 O 1.05138 0.49787 -0.07007
 O104 O 0.93466 0.44982 0.05815
 Co105 Co 0.99854 0.50008 -0.11794
 Co106 Co 0.99254 0.49560 0.10647
 Co107 Co 0.94568 0.47820 -0.01163
 Co108 Co 1.04484 0.51716 0.00245
 O109 O 0.99537 0.49779 -0.00538
 C110 C 1.03503 0.47494 -0.10689
 C111 C 0.94836 0.43807 0.09114
 C112 C 0.94124 0.44556 -0.11982
 C113 C 1.04139 0.48255 0.10604
 O114 O 0.50062 0.45819 -0.11402
 O115 O 0.46183 0.49780 0.14057
 O116 O 0.51611 0.45535 0.07858
 O117 O 0.43676 0.46692 -0.06036
 O118 O 0.47464 0.45603 0.10894
 O119 O 0.46809 0.48290 -0.14408
 O120 O 0.43729 0.47215 0.05637
 O121 O 0.53641 0.46545 -0.03762
 C122 C 0.51818 0.44985 -0.08542
 C123 C 0.43607 0.48048 0.11488
 C124 C 0.48969 0.44201 0.10548
 C125 C 0.44123 0.46700 -0.12198
 O126 O 0.51532 0.53653 -0.12492
 O127 O 0.51333 0.49985 0.18370
 O128 O 0.56668 0.52662 -0.00830
 O129 O 0.47398 0.53584 0.04473
 O130 O 0.51425 0.53954 0.10115
 O131 O 0.54973 0.51245 -0.10966
 O132 O 0.47142 0.52927 -0.07920
 O133 O 0.54848 0.51676 0.10537
 Co134 Co 0.50751 0.49731 -0.11132
 Co135 Co 0.49556 0.49766 0.10132
 Co136 Co 0.53814 0.49135 0.03164
 Co137 Co 0.45829 0.50079 -0.00845
 O138 O 0.49859 0.49629 -0.00156
 C139 C 0.49530 0.54489 -0.11590
 C140 C 0.54217 0.50956 0.16733
 C141 C 0.57173 0.52820 -0.07003
 C142 C 0.49823 0.55146 0.08067
 O143 O 0.55260 0.03014 -0.10227
 O144 O 0.49390 -0.03114 0.12856
 O145 O 0.55876 0.03824 0.02208
 O146 O 0.49116 -0.06513 -0.07673
 O147 O 0.53129 0.02381 0.11475
 O148 O 0.53252 -0.02379 -0.10277
 O149 O 0.49622 -0.06186 0.05155
 O150 O 0.55442 0.07225 -0.06772
 C151 C 0.56389 0.05884 -0.11032
 C152 C 0.50006 -0.05220 0.11167
 C153 C 0.55760 0.03535 0.08551
 C154 C 0.51797 -0.05214 -0.10084
 O155 O 0.47551 -0.03323 -0.14991
 O156 O 0.48184 0.03183 0.06865
 O157 O 0.49539 0.04598 -0.05570
 O158 O 0.44373 -0.06282 0.05749
 O159 O 0.44728 -0.01976 0.08125
 O160 O 0.49567 0.02211 -0.14524
 O161 O 0.44177 -0.05897 -0.06989
 O162 O 0.52777 0.06542 0.05034
 Co163 Co 0.51262 -0.00152 -0.11536
 Co164 Co 0.48949 0.00079 0.08998
 Co165 Co 0.52608 0.04008 -0.01896
 Co166 Co 0.47109 -0.05671 -0.00979
 O167 O 0.49787 -0.00611 -0.01072
 C168 C 0.44773 -0.05120 -0.13099
 C169 C 0.50259 0.05864 0.07772
 C170 C 0.48828 0.03988 -0.11643
 C171 C 0.43187 -0.04799 0.08142
 C172 C 1.17119 0.46980 0.40203
 C173 C 1.15023 0.44955 0.35425
 C174 C 1.12841 0.45680 0.31723
 N175 N 1.11345 0.44088 0.26046
 N176 N 1.09363 0.44741 0.22687
 C177 C 1.08780 0.46983 0.24941
 N178 N 1.10244 0.48543 0.30661
 N179 N 1.12243 0.47909 0.33981
 C180 C 1.06669 0.47801 0.21247
 C181 C 1.05807 0.46973 0.14498
 H182 H 1.14978 0.42802 0.34384
 H183 H 1.06000 0.49327 0.23726
 H184 H 1.17273 0.49203 0.40925
 H185 H 1.06630 0.45610 0.11838
 C186 C 0.53539 0.70478 0.36012
 C187 C 0.51129 0.68168 0.32222
 C188 C 0.51654 0.66160 0.27600
 N189 N 0.49411 0.64426 0.23006
 N190 N 0.49763 0.62470 0.19017
 C191 C 0.52363 0.62158 0.19494
 N192 N 0.54612 0.63894 0.24093
 N193 N 0.54272 0.65874 0.28051
 C194 C 0.52603 0.59777 0.15565
 C195 C 0.50472 0.58194 0.10381
 H196 H 0.48772 0.67820 0.32588
 H197 H 0.54266 0.59060 0.17213
 H198 H 0.55922 0.70955 0.35229
 H199 H 0.48899 0.59004 0.08615
 C200 C 0.29681 -0.18800 0.35507
 C201 C 0.29809 -0.16172 0.32667
 C202 C 0.32031 -0.14466 0.27228
 N203 N 0.32729 -0.11541 0.25685
 N204 N 0.34806 -0.09971 0.20859
 C205 C 0.36220 -0.11292 0.17359
 N206 N 0.35480 -0.14228 0.18834
 N207 N 0.33429 -0.15784 0.23680
 C208 C 0.38663 -0.09588 0.12336
 C209 C 0.40168 -0.06400 0.11661
 H210 H 0.28300 -0.15322 0.34545
 H211 H 0.39560 -0.10878 0.09622
 H212 H 0.31329 -0.19526 0.33896
 H213 H 0.39321 -0.05065 0.14357
 C214 C 0.84092 0.55896 0.39371
 C215 C 0.83305 0.53412 0.35071
 C216 C 0.85703 0.53168 0.31069
 N217 N 0.84937 0.51643 0.25056
 N218 N 0.87086 0.51363 0.21482
 C219 C 0.90071 0.52563 0.23837
 N220 N 0.90826 0.54057 0.29886
 N221 N 0.88690 0.54377 0.33409
 C222 C 0.92411 0.52103 0.20144
 C223 C 0.92271 0.51718 0.13119
 H224 H 0.80878 0.51672 0.34457
 H225 H 0.94295 0.52077 0.23020
 H226 H 0.86467 0.57790 0.39386
 H227 H 0.90577 0.52042 0.10157
 C228 C 0.50695 0.30654 0.36494
 C229 C 0.48102 0.30714 0.33643
 C230 C 0.48471 0.33008 0.28434
 N231 N 0.46074 0.33558 0.26918
 N232 N 0.46441 0.35705 0.22369
 C233 C 0.49211 0.37357 0.19119
 N234 N 0.51584 0.36772 0.20568
 N235 N 0.51226 0.34646 0.25137
 C236 C 0.49782 0.39874 0.14388
 C237 C 0.47802 0.41142 0.13678
 H238 H 0.45777 0.29134 0.35451
 H239 H 0.52041 0.40997 0.11927
 H240 H 0.53022 0.32363 0.34949
 H241 H 0.45556 0.40086 0.16188
 C242 C 0.68688 0.17731 0.36495
 C243 C 0.68980 0.15499 0.32813
 C244 C 0.66286 0.12979 0.29312
 N245 N 0.66730 0.11415 0.24194
 N246 N 0.64294 0.09145 0.20981
 C247 C 0.61326 0.08330 0.22855
 N248 N 0.60889 0.09866 0.28029
 N249 N 0.63318 0.12152 0.31183
 C250 C 0.58576 0.05929 0.19272
 C251 C 0.58663 0.04994 0.12632
 H252 H 0.71251 0.15646 0.32338
 H253 H 0.56325 0.05211 0.21599
 H254 H 0.66473 0.17725 0.36496
 H255 H 0.60885 0.05841 0.10082
 C256 C 0.49916 0.19088 -0.35579
 C257 C 0.47302 0.16246 -0.34207
 C258 C 0.47390 0.14225 -0.28807
 N259 N 0.45485 0.11137 -0.29139
 N260 N 0.45651 0.09291 -0.24408
 C261 C 0.47697 0.10474 -0.19114
 N262 N 0.49551 0.13564 -0.18715
 N263 N 0.49411 0.15404 -0.23481
 C264 C 0.48088 0.08488 -0.14078
 C265 C 0.47373 0.05484 -0.15571
 H266 H 0.45228 0.15408 -0.37382
 H267 H 0.49435 0.09570 -0.09528
 H268 H 0.52049 0.19754 -0.32698
 H269 H 0.46273 0.04478 -0.20391
 C270 C 0.72745 0.57500 -0.35455
 C271 C 0.70585 0.55075 -0.31499
 C272 C 0.68316 0.55387 -0.27218
 N273 N 0.67270 0.53708 -0.21430
 N274 N 0.65040 0.53797 -0.17772
 C275 C 0.63746 0.55539 -0.19818
 N276 N 0.64784 0.57210 -0.25622
 N277 N 0.67053 0.57161 -0.29221
 C278 C 0.60976 0.55273 -0.16384
 C279 C 0.60387 0.54451 -0.09560
 H280 H 0.70600 0.52908 -0.31386
 H281 H 0.59196 0.55392 -0.19479
 H282 H 0.72963 0.59756 -0.34846
 H283 H 0.62260 0.54646 -0.06265
 C284 C 0.82440 0.30468 -0.42371
 C285 C 0.82291 0.32885 -0.39178
 C286 C 0.84882 0.35126 -0.34930
 N287 N 0.84267 0.36360 -0.29414
 N288 N 0.86589 0.38401 -0.25536
 C289 C 0.89617 0.39319 -0.27088
 N290 N 0.90235 0.38120 -0.32665
 N291 N 0.87909 0.36038 -0.36482
 C292 C 0.92185 0.41672 -0.22972
 C293 C 0.91839 0.41941 -0.16031
 H294 H 0.80139 0.33001 -0.39331
 H295 H 0.94378 0.43202 -0.25418
 H296 H 0.84486 0.30201 -0.41526
 H297 H 0.89765 0.40210 -0.13493
 C298 C 0.50784 -0.19732 -0.36948
 C299 C 0.53250 -0.17106 -0.34080
 C300 C 0.52735 -0.15338 -0.28784
 N301 N 0.55051 -0.12490 -0.27072
 N302 N 0.54578 -0.10843 -0.22380
 C303 C 0.51780 -0.12005 -0.19188
 N304 N 0.49485 -0.14866 -0.20837
 N305 N 0.49950 -0.16502 -0.25551
 C306 C 0.51110 -0.10188 -0.14317
 C307 C 0.53019 -0.07030 -0.13467
 H308 H 0.55612 -0.16278 -0.35877
 H309 H 0.48850 -0.11331 -0.11863
 H310 H 0.48404 -0.20478 -0.35384
 H311 H 0.55267 -0.05843 -0.15957
 C312 C 0.27092 0.42965 -0.34950
 C313 C 0.29783 0.45313 -0.31958
 C314 C 0.31968 0.44756 -0.27871
 N315 N 0.35066 0.46766 -0.28303
 N316 N 0.37108 0.46427 -0.24406
 C317 C 0.36129 0.44088 -0.19854
 N318 N 0.33019 0.42083 -0.19361
 N319 N 0.30971 0.42393 -0.23358
 C320 C 0.38403 0.43945 -0.15156
 C321 C 0.41523 0.45263 -0.17062
 H322 H 0.30516 0.47686 -0.33233
 H323 H 0.37714 0.43202 -0.09966
 H324 H 0.26541 0.40597 -0.34233
 H325 H 0.42101 0.45761 -0.22395
 C326 C 1.17059 0.70601 -0.38512
 C327 C 1.17319 0.68354 -0.34758
 C328 C 1.14718 0.66045 -0.30741
 N329 N 1.15315 0.64749 -0.25253
 N330 N 1.12979 0.62534 -0.21765
 C331 C 1.09962 0.61502 -0.23707
 N332 N 1.09364 0.62778 -0.29236
 N333 N 1.11701 0.65028 -0.32666
 C334 C 1.07402 0.58919 -0.20146
 C335 C 1.07687 0.58328 -0.13336
 H336 H 1.19508 0.68306 -0.34643
 H337 H 1.05277 0.57438 -0.22932
 H338 H 1.14986 0.70838 -0.37974
 H339 H 1.09663 0.59984 -0.10372
 C340 C 0.83009 0.56146 -0.32597
 C341 C 0.86067 0.58322 -0.30971
 C342 C 0.87750 0.57595 -0.25694
 N343 N 0.90887 0.58729 -0.26102
 N344 N 0.92341 0.57728 -0.21874
 C345 C 0.90709 0.55575 -0.17069
 N346 N 0.87596 0.54524 -0.16524
 N347 N 0.86144 0.55509 -0.20765
 C348 C 0.92154 0.54131 -0.12965
 C349 C 0.95144 0.54600 -0.14246
 H350 H 0.87325 0.60340 -0.34131
 H351 H 0.90691 0.52390 -0.09325
 H352 H 0.81896 0.54003 -0.29788
 H353 H 0.96655 0.56371 -0.17774
 C354 C 0.48638 0.29476 -0.35572
 C355 C 0.51007 0.31585 -0.31357
 C356 C 0.50543 0.33672 -0.26881
 N357 N 0.52892 0.35602 -0.22694
 N358 N 0.52582 0.37649 -0.18929
 C359 C 0.49911 0.37841 -0.19236
 N360 N 0.47555 0.35896 -0.23385
 N361 N 0.47861 0.33843 -0.27130
 C362 C 0.49624 0.40249 -0.15598
 C363 C 0.51901 0.42263 -0.11080
 H364 H 0.53315 0.31797 -0.31519
 H365 H 0.47619 0.40541 -0.16785
 H366 H 0.46290 0.29152 -0.35217
 H367 H 0.53826 0.41897 -0.09560
 C368 C 0.71139 0.20306 -0.36267
 C369 C 0.70433 0.17347 -0.34365
 C370 C 0.68062 0.15676 -0.29141
 N371 N 0.66834 0.12594 -0.28441
 N372 N 0.64506 0.11031 -0.24110
 C373 C 0.63324 0.12495 -0.20322
 N374 N 0.64587 0.15581 -0.20941
 N375 N 0.66906 0.17140 -0.25281
 C376 C 0.60663 0.10794 -0.15755
 C377 C 0.59091 0.07604 -0.15449
 H378 H 0.71366 0.16131 -0.37234
 H379 H 0.59874 0.12082 -0.12698
 H380 H 0.70060 0.21439 -0.33598
 H381 H 0.59856 0.06306 -0.18542
 C382 C 1.15692 0.43025 -0.33652
 C383 C 1.16394 0.44797 -0.27785
 C384 C 1.14016 0.44789 -0.23278
 N385 N 1.14935 0.46309 -0.17281
 N386 N 1.12910 0.46656 -0.13428
 C387 C 1.09892 0.45517 -0.15442
 N388 N 1.08949 0.43955 -0.21411
 N389 N 1.10977 0.43592 -0.25258
 C390 C 1.07845 0.46289 -0.11464
 C391 C 1.04917 0.45768 -0.13711
 H392 H 1.18818 0.46402 -0.26601
 H393 H 1.08857 0.47660 -0.06935
 H394 H 1.13326 0.41217 -0.34642
 H395 H 1.03801 0.44317 -0.18077
 C396 C 0.51596 0.69696 -0.36565
 C397 C 0.48750 0.67296 -0.34260
 C398 C 0.48532 0.65013 -0.29207
 N399 N 0.45698 0.62968 -0.26664
 N400 N 0.45419 0.60784 -0.22333
 C401 C 0.47962 0.60551 -0.20416
 N402 N 0.50805 0.62611 -0.22927
 N403 N 0.51087 0.64806 -0.27232
 C404 C 0.47587 0.58009 -0.15957
 C405 C 0.49972 0.57274 -0.15135
 H406 H 0.46570 0.67053 -0.36250
 H407 H 0.45319 0.56548 -0.13722
 H408 H 0.53766 0.70033 -0.34299
 H409 H 0.52189 0.58662 -0.17643
 C410 C 0.28513 -0.18723 -0.36022
 C411 C 0.29948 -0.15530 -0.36209
 C412 C 0.32274 -0.13688 -0.30980
 N413 N 0.34642 -0.10837 -0.32466
 N414 N 0.36879 -0.09260 -0.27884
 C415 C 0.36807 -0.10472 -0.21634
 N416 N 0.34405 -0.13291 -0.20113
 N417 N 0.32192 -0.14876 -0.24707
 C418 C 0.39292 -0.08848 -0.16556
 C419 C 0.42239 -0.06435 -0.18206
 H420 H 0.29628 -0.14390 -0.40605
 H421 H 0.38857 -0.09749 -0.11416
 H422 H 0.29147 -0.19825 -0.32019
 H423 H 0.42750 -0.05619 -0.23403
 C424 C 0.51961 -0.19287 0.34672
 C425 C 0.53787 -0.16099 0.34714
 C426 C 0.53303 -0.14237 0.29485
 N427 N 0.54010 -0.11295 0.30792
 N428 N 0.53397 -0.09677 0.26189
 C429 C 0.52079 -0.10941 0.20096
 N430 N 0.51429 -0.13859 0.18758
 N431 N 0.52014 -0.15481 0.23370
 C432 C 0.51298 -0.09262 0.14959
 C433 C 0.51101 -0.06622 0.16381
 H434 H 0.55360 -0.14963 0.38939
 H435 H 0.50648 -0.10275 0.09941
 H436 H 0.50150 -0.20366 0.30830
 H437 H 0.51604 -0.05664 0.21460
 C438 C 0.28957 0.47105 0.39411
 C439 C 0.29230 0.45018 0.35171
 C440 C 0.32134 0.45905 0.31378
 N441 N 0.32224 0.44041 0.26480
 N442 N 0.34867 0.44816 0.23142
 C443 C 0.37524 0.47470 0.24629
 N444 N 0.37436 0.49317 0.29553
 N445 N 0.34793 0.48554 0.32850
 C446 C 0.40480 0.48373 0.21072
 C447 C 0.40642 0.46953 0.15130
 H448 H 0.27318 0.42688 0.34736
 H449 H 0.42583 0.50318 0.23041
 H450 H 0.30840 0.49460 0.39591
 H451 H 0.38532 0.45118 0.12897
 C452 C 1.18583 0.70358 0.34117
 C453 C 1.15687 0.69907 0.31840
 C454 C 1.13858 0.67493 0.26827
 N455 N 1.10725 0.66372 0.26177
 N456 N 1.09038 0.64043 0.21966
 C457 C 1.10432 0.62772 0.18220
 N458 N 1.13569 0.63934 0.18778
 N459 N 1.15248 0.66243 0.23009
 C460 C 1.08624 0.60072 0.13890
 C461 C 1.05372 0.58340 0.14048
 H462 H 1.14648 0.71161 0.34149
 H463 H 1.09930 0.59269 0.10897
 H464 H 1.19489 0.68927 0.32130
 H465 H 1.04035 0.59096 0.17067
 C466 C 0.52066 0.20274 0.36584
 C467 C 0.49703 0.17915 0.32824
 C468 C 0.50358 0.16165 0.27731
 N469 N 0.47951 0.13719 0.24660
 N470 N 0.48494 0.12047 0.20178
 C471 C 0.51467 0.12767 0.18578
 N472 N 0.53879 0.15235 0.21595
 N473 N 0.53334 0.16904 0.26096
 C474 C 0.52083 0.10841 0.13888
 C475 C 0.49677 0.08030 0.11643
 H476 H 0.47282 0.17273 0.33747
 H477 H 0.54480 0.11542 0.12549
 H478 H 0.54487 0.20905 0.35715
 H479 H 0.47295 0.07274 0.13198
 C480 C 0.72523 0.56596 0.37564
 C481 C 0.69433 0.54219 0.37592
 C482 C 0.66970 0.54126 0.33147
 N483 N 0.63940 0.52091 0.34513
 N484 N 0.61653 0.51893 0.30482
 C485 C 0.62314 0.53715 0.24906
 N486 N 0.65347 0.55750 0.23522
 N487 N 0.67638 0.55965 0.27590
 C488 C 0.59822 0.53382 0.20209
 C489 C 0.56665 0.51657 0.21856
 H490 H 0.68731 0.52386 0.41298
 H491 H 0.60490 0.54454 0.15247
 H492 H 0.73220 0.58569 0.34272
 H493 H 0.55972 0.50727 0.26929
 C494 C 0.79750 0.28605 0.30188
 C495 C 0.82625 0.28969 0.28149
 C496 C 0.84478 0.31279 0.22999
 N497 N 0.87624 0.32453 0.22799
 N498 N 0.89364 0.34803 0.18701
 C499 C 0.88015 0.36047 0.14629
 N500 N 0.84863 0.34815 0.14691
 N501 N 0.83127 0.32480 0.18812
 C502 C 0.89904 0.38853 0.10679
 C503 C 0.93109 0.40657 0.11741
 H504 H 0.83703 0.27853 0.30975
 H505 H 0.88686 0.39695 0.07429
 H506 H 0.78787 0.29894 0.27635
 H507 H 0.94339 0.39844 0.15034
   
