data_POSCAR
  _audit_creation_date              2014-09-24
  _audit_creation_method            'ToBaCCo'
  _symmetry_space_group_name_H-M    'P1'
  _symmetry_Int_Tables_number       1
  _symmetry_cell_setting            triclinic
  loop_
  _symmetry_equiv_pos_as_xyz
 x,y,z
_cell_length_a 34.9985
_cell_length_b 12.4221
_cell_length_c 10.2369
_cell_angle_alpha 80.494800
_cell_angle_beta 92.742600
_cell_angle_gamma 85.775800
loop_
  _atom_site_label
  _atom_site_type_symbol
  _atom_site_fract_x
  _atom_site_fract_y
  _atom_site_fract_z
C1 C 0.71428 0.26585 0.56174
 C2 C 0.71266 0.23934 0.43180
 C3 C 0.74722 0.21710 0.37378
 C4 C 0.78375 0.22903 0.43101
 C5 C 0.78530 0.26658 0.55612
 C6 C 0.75056 0.28148 0.61865
 H7 H 0.75181 0.30470 0.71640
 H8 H 0.74521 0.19263 0.27691
 C9 C 0.21836 0.74180 0.57403
 C10 C 0.22005 0.70517 0.45052
 C11 C 0.25370 0.71490 0.38230
 C12 C 0.28514 0.76221 0.43301
 C13 C 0.28374 0.79808 0.55816
 C14 C 0.24943 0.79062 0.62415
 H15 H 0.24754 0.81600 0.72021
 H16 H 0.25482 0.69037 0.28558
 C17 C 0.28394 0.23260 -0.55695
 C18 C 0.27960 0.31480 -0.47670
 C19 C 0.24449 0.33379 -0.42067
 C20 C 0.21382 0.26832 -0.43417
 C21 C 0.21799 0.18645 -0.51692
 C22 C 0.25361 0.16686 -0.57067
 H23 H 0.25669 0.10553 -0.63446
 H24 H 0.24229 0.39580 -0.35754
 C25 C -0.22178 0.75411 -0.59170
 C26 C -0.21507 0.78874 -0.46789
 C27 C -0.24368 0.78452 -0.37689
 C28 C -0.28000 0.75089 -0.40756
 C29 C -0.28646 0.71310 -0.53067
 C30 C -0.25795 0.72003 -0.62297
 H31 H -0.26282 0.68995 -0.71552
 H32 H -0.23828 0.81537 -0.28514
 N33 N 0.03674 0.74282 0.14650
 N34 N 0.06932 0.68006 0.15290
 N35 N -0.04399 0.83051 0.21539
 N36 N -0.07635 0.82193 0.27567
 N37 N -0.04459 0.77963 0.11252
 N38 N -0.07780 0.73720 0.09819
 N39 N 0.03608 0.79659 0.24688
 N40 N 0.06760 0.77081 0.32436
 C41 C 0.08775 0.69719 0.26604
 C42 C -0.09682 0.76272 0.20226
 N43 N -0.03738 1.14862 0.16450
 N44 N -0.06866 1.21497 0.16628
 N45 N 0.04109 1.02259 0.27593
 N46 N 0.07233 0.99739 0.35585
 N47 N 0.04336 1.11670 0.19705
 N48 N 0.07603 1.15843 0.22270
 N49 N -0.03950 1.05626 0.24643
 N50 N -0.07202 1.05775 0.30601
 Mn51 Mn -0.00157 0.92612 0.24757
 C52 C -0.08941 1.15817 0.25827
 C53 C 0.09329 1.08387 0.32349
 N54 N -0.03915 0.83987 -0.16922
 N55 N -0.07261 0.80318 -0.19836
 N56 N 0.04630 0.89542 -0.21167
 N57 N 0.07926 0.89088 -0.26886
 N58 N 0.04184 0.80213 -0.13471
 N59 N 0.07154 0.73086 -0.13827
 N60 N -0.03402 0.92996 -0.25129
 N61 N -0.06330 0.95635 -0.33911
 Mn62 Mn -0.00146 0.78950 -0.01130
 C63 C -0.08690 0.87688 -0.30547
 C64 C 0.09440 0.78761 -0.22234
 N65 N 0.04870 1.17733 -0.08645
 N66 N 0.07888 1.23591 -0.08696
 N67 N -0.03057 1.15342 -0.22014
 N68 N -0.06250 1.17374 -0.29659
 N69 N -0.03251 1.20701 -0.11957
 N70 N -0.06607 1.26482 -0.12571
 N71 N 0.04966 1.11949 -0.18278
 N72 N 0.08030 1.13545 -0.25049
 Mn73 Mn 0.00552 1.16414 0.03901
 Mn74 Mn 0.00805 1.02491 -0.21742
 Cl75 Cl 0.00261 0.97620 0.01474
 C76 C 0.09818 1.20768 -0.18974
 C77 C -0.08400 1.24399 -0.23783
 N78 N 0.44944 0.38176 0.18366
 N79 N 0.41949 0.36435 0.25466
 N80 N 0.52980 0.28734 0.11758
 N81 N 0.56185 0.22356 0.12265
 N82 N 0.52921 0.33806 0.22046
 N83 N 0.56059 0.30817 0.29851
 N84 N 0.44938 0.32580 0.08538
 N85 N 0.41934 0.26662 0.08835
 C86 C 0.40102 0.29312 0.19399
 C87 C 0.58035 0.23486 0.23792
 N88 N 0.53923 0.44235 -0.24667
 N89 N 0.57168 0.43749 -0.30732
 N90 N 0.45524 0.38891 -0.19792
 N91 N 0.42214 0.34984 -0.22401
 N92 N 0.45850 0.48253 -0.27650
 N93 N 0.42738 0.51026 -0.35679
 N94 N 0.53601 0.35050 -0.16471
 N95 N 0.56658 0.28161 -0.16583
 Mn96 Mn 0.49259 0.33676 -0.04043
 C97 C 0.58802 0.33613 -0.25729
 C98 C 0.40547 0.42581 -0.32422
 N99 N 0.53623 0.56202 0.25288
 N100 N 0.56603 0.53324 0.33836
 N101 N 0.46065 0.69678 0.13991
 N102 N 0.43129 0.76933 0.14256
 N103 N 0.45559 0.60376 0.21632
 N104 N 0.42234 0.60968 0.27163
 N105 N 0.54141 0.65295 0.17212
 N106 N 0.57529 0.68770 0.19954
 Mn107 Mn 0.49253 0.47132 0.21963
 C108 C 0.58996 0.61209 0.30400
 C109 C 0.40785 0.71362 0.22497
 N110 N 0.46577 0.70660 -0.24367
 N111 N 0.43435 0.73495 -0.32118
 N112 N 0.54632 0.71709 -0.10820
 N113 N 0.57865 0.76443 -0.09739
 N114 N 0.54562 0.66697 -0.21158
 N115 N 0.57716 0.68052 -0.27571
 N116 N 0.46530 0.75797 -0.14115
 N117 N 0.43287 0.82110 -0.14584
 Mn118 Mn 0.50234 0.57488 -0.24615
 Mn119 Mn 0.50353 0.70761 0.01593
 Cl120 Cl 0.49780 0.52244 -0.01288
 C121 C 0.41439 0.80729 -0.26039
 C122 C 0.59716 0.74205 -0.20367
 N123 N 0.35739 0.14817 0.23805
 N124 N 0.32713 0.12835 0.30894
 C125 C 0.31765 0.21889 0.36181
 C126 C 0.34263 0.29584 0.31727
 N127 N 0.36695 0.24853 0.24222
 H128 H 0.34313 0.37923 0.33468
 N129 N -0.16368 0.75361 0.12791
 N130 N -0.19772 0.75517 0.17988
 C131 C -0.19126 0.74806 0.31244
 C132 C -0.15201 0.73837 0.33951
 N133 N -0.13601 0.74401 0.22280
 H134 H -0.13603 0.72934 0.43399
 N135 N 0.63524 0.55552 0.49179
 N136 N 0.66892 0.57842 0.53900
 C137 C 0.68206 0.65416 0.44573
 C138 C 0.65547 0.67569 0.33788
 N139 N 0.62643 0.61340 0.37251
 H140 H 0.65562 0.73681 0.24932
 N141 N 0.15793 0.99923 0.37886
 N142 N 0.19202 1.02464 0.42011
 C143 C 0.18768 1.12924 0.44131
 C144 C 0.14984 1.16860 0.40607
 N145 N 0.13235 1.08432 0.37014
 H146 H 0.13646 1.25013 0.40543
 N147 N 0.65182 0.25549 -0.17863
 N148 N 0.68608 0.23862 -0.22453
 C149 C 0.68279 0.27223 -0.35751
 C150 C 0.64502 0.31357 -0.39045
 N151 N 0.62680 0.30030 -0.27669
 H152 H 0.63207 0.35246 -0.48598
 N153 N 0.14118 0.63782 -0.24315
 N154 N 0.17452 0.62225 -0.29613
 C155 C 0.18559 0.72238 -0.34277
 C156 C 0.15807 0.80010 -0.31724
 N157 N 0.13074 0.74379 -0.25623
 H158 H 0.15682 0.88807 -0.34753
 N159 N 0.35056 0.88698 -0.22240
 N160 N 0.31467 0.88361 -0.26903
 C161 C 0.31605 0.83213 -0.37573
 C162 C 0.35427 0.80406 -0.39149
 N163 N 0.37467 0.83972 -0.29546
 H164 H 0.36633 0.75035 -0.45417
 N165 N -0.14465 1.35390 -0.23579
 N166 N -0.17995 1.36146 -0.29137
 C167 C -0.18109 1.28543 -0.37210
 C168 C -0.14551 1.22772 -0.35858
 N169 N -0.12352 1.27488 -0.27661
 H170 H -0.13674 1.15495 -0.39822
 N171 N 0.66307 0.76987 -0.13605
 N172 N 0.69701 0.76915 -0.18875
 C173 C 0.69075 0.76297 -0.31873
 C174 C 0.65148 0.76645 -0.34422
 N175 N 0.63557 0.76715 -0.22837
 H176 H 0.63533 0.76761 -0.43709
 N177 N 0.14429 1.34738 -0.22169
 N178 N 0.17484 1.36667 -0.29125
 C179 C 0.18262 1.27964 -0.35277
 C180 C 0.15643 1.20464 -0.31326
 N181 N 0.13292 1.25037 -0.23443
 H182 H 0.15486 1.12271 -0.33478
 N183 N 0.34345 0.51457 -0.41514
 N184 N 0.30932 0.48820 -0.45511
 C185 C 0.31146 0.37804 -0.44110
 C186 C 0.34771 0.33732 -0.38825
 N187 N 0.36683 0.42529 -0.37557
 H188 H 0.35918 0.25262 -0.36359
 N189 N -0.13625 0.95314 -0.47482
 N190 N -0.17072 0.93413 -0.51958
 C191 C -0.18083 0.84484 -0.43962
 C192 C -0.15146 0.80933 -0.34330
 N193 N -0.12407 0.87891 -0.37028
 H194 H -0.14934 0.73737 -0.26679
 N195 N 0.36281 0.86543 0.25244
 N196 N 0.32978 0.88188 0.30700
 C197 C 0.31728 0.78229 0.34688
 C198 C 0.34349 0.70412 0.31434
 N199 N 0.37168 0.75935 0.25779
 H200 H 0.34346 0.61601 0.33716
 N201 N -0.15445 1.12106 0.21504
 N202 N -0.18818 1.13521 0.26460
 C203 C -0.18501 1.20364 0.35402
 C204 C -0.14761 1.23532 0.35121
 N205 N -0.12971 1.18057 0.26520
 H206 H -0.13436 1.29275 0.40373
 N207 N 0.64293 0.25786 0.16111
 N208 N 0.67759 0.26813 0.21150
 C209 C 0.67775 0.23599 0.34421
 C210 C 0.64192 0.20100 0.37240
 N211 N 0.62101 0.21821 0.25591
 H212 H 0.63147 0.16816 0.46721
 N213 N 0.15037 0.59863 0.24738
 N214 N 0.18633 0.59899 0.29543
 C215 C 0.18582 0.66831 0.38445
 C216 C 0.14858 0.71107 0.38740
 N217 N 0.12739 0.66518 0.30275
 H218 H 0.13810 0.77653 0.43711
   
