data_POSCAR
  _audit_creation_date              2014-09-24
  _audit_creation_method            'ToBaCCo'
  _symmetry_space_group_name_H-M    'P1'
  _symmetry_Int_Tables_number       1
  _symmetry_cell_setting            triclinic
  loop_
  _symmetry_equiv_pos_as_xyz
 x,y,z
_cell_length_a 60.5203
_cell_length_b 60.7201
_cell_length_c 60.5754
_cell_angle_alpha 90.000500
_cell_angle_beta 89.970800
_cell_angle_gamma 89.977500
loop_
  _atom_site_label
  _atom_site_type_symbol
  _atom_site_fract_x
  _atom_site_fract_y
  _atom_site_fract_z
N1 N 0.15346 0.16886 0.21514
 N2 N 0.16884 0.15360 0.21488
 C3 C 0.16553 0.13979 0.23198
 C4 C 0.14699 0.14673 0.24367
 C5 C 0.13985 0.16532 0.23234
 H6 H 0.17590 0.12577 0.23556
 H7 H 0.12581 0.17562 0.23614
 Cu8 Cu 0.19163 0.15353 0.19211
 Cu9 Cu 0.15199 0.19223 0.19314
 Cu10 Cu 0.19229 0.19189 0.15233
 N11 N 0.21433 0.15344 0.16923
 N12 N 0.21440 0.16853 0.15369
 C13 C 0.23162 0.16496 0.14009
 C14 C 0.24317 0.14655 0.14739
 C15 C 0.23157 0.13973 0.16603
 H16 H 0.23534 0.17518 0.12598
 H17 H 0.23533 0.12589 0.17657
 N18 N 0.16857 0.21422 0.15376
 N19 N 0.15334 0.21441 0.16935
 C20 C 0.13975 0.23166 0.16598
 C21 C 0.14671 0.24298 0.14735
 C22 C 0.16506 0.23136 0.14009
 H23 H 0.12583 0.23567 0.17638
 H24 H 0.17520 0.23511 0.12591
 H25 H 0.16724 0.17492 0.16828
 H26 H 0.18523 0.19270 0.18578
 N27 N -0.15380 0.83117 0.21457
 N28 N -0.16886 0.84675 0.21401
 C29 C -0.16558 0.86052 0.23115
 C30 C -0.14739 0.85322 0.24307
 C31 C -0.14042 0.83450 0.23197
 H32 H -0.17568 0.87477 0.23465
 H33 H -0.12663 0.82400 0.23611
 Cu34 Cu -0.19124 0.84687 0.19089
 Cu35 Cu -0.15237 0.80765 0.19269
 Cu36 Cu -0.19267 0.80800 0.15183
 N37 N -0.21430 0.84689 0.16844
 N38 N -0.21466 0.83150 0.15320
 C39 C -0.23207 0.83484 0.13983
 C40 C -0.24345 0.85342 0.14696
 C41 C -0.23156 0.86056 0.16529
 H42 H -0.23604 0.82435 0.12599
 H43 H -0.23516 0.87458 0.17566
 N44 N -0.16903 0.78562 0.15338
 N45 N -0.15382 0.78542 0.16898
 C46 C -0.14024 0.76817 0.16561
 C47 C -0.14718 0.75687 0.14698
 C48 C -0.16552 0.76848 0.13971
 H49 H -0.12631 0.76419 0.17599
 H50 H -0.17562 0.76475 0.12551
 H51 H -0.16733 0.82458 0.16748
 H52 H -0.18568 0.80751 0.18529
 N53 N -0.15366 0.16910 -0.21458
 N54 N -0.16910 0.15389 -0.21439
 C55 C -0.16575 0.14008 -0.23148
 C56 C -0.14720 0.14700 -0.24307
 C57 C -0.14002 0.16551 -0.23175
 H58 H -0.17605 0.12603 -0.23517
 H59 H -0.12593 0.17571 -0.23562
 Cu60 Cu -0.19189 0.15387 -0.19163
 Cu61 Cu -0.15225 0.19248 -0.19259
 Cu62 Cu -0.19284 0.19244 -0.15205
 N63 N -0.21467 0.15383 -0.16885
 N64 N -0.21488 0.16902 -0.15341
 C65 C -0.23204 0.16540 -0.13977
 C66 C -0.24342 0.14683 -0.14694
 C67 C -0.23175 0.13997 -0.16552
 H68 H -0.23582 0.17565 -0.12570
 H69 H -0.23532 0.12596 -0.17590
 N70 N -0.16912 0.21474 -0.15349
 N71 N -0.15370 0.21474 -0.16889
 C72 C -0.14002 0.23189 -0.16543
 C73 C -0.14709 0.24333 -0.14692
 C74 C -0.16562 0.23190 -0.13983
 H75 H -0.12593 0.23572 -0.17567
 H76 H -0.17585 0.23575 -0.12574
 H77 H -0.16774 0.17531 -0.16762
 H78 H -0.18552 0.19305 -0.18538
 N79 N 0.15356 0.83120 -0.21442
 N80 N 0.16913 0.84626 -0.21438
 C81 C 0.16589 0.85998 -0.23157
 C82 C 0.14726 0.85314 -0.24306
 C83 C 0.13993 0.83477 -0.23158
 H84 H 0.17631 0.87391 -0.23538
 H85 H 0.12575 0.82466 -0.23535
 Cu86 Cu 0.19188 0.84638 -0.19157
 Cu87 Cu 0.15203 0.80793 -0.19232
 Cu88 Cu 0.19256 0.80798 -0.15179
 N89 N 0.21471 0.84629 -0.16883
 N90 N 0.21474 0.83124 -0.15327
 C91 C 0.23192 0.83482 -0.13964
 C92 C 0.24347 0.85323 -0.14693
 C93 C 0.23191 0.86003 -0.16560
 H94 H 0.23559 0.82464 -0.12549
 H95 H 0.23562 0.87393 -0.17609
 N96 N 0.16875 0.78577 -0.15313
 N97 N 0.15336 0.78576 -0.16854
 C98 C 0.13977 0.76852 -0.16517
 C99 C 0.14688 0.75702 -0.14672
 C100 C 0.16534 0.76852 -0.13956
 H101 H 0.12577 0.76461 -0.17549
 H102 H 0.17564 0.76459 -0.12555
 H103 H 0.16759 0.82515 -0.16752
 H104 H 0.18532 0.80724 -0.18517
 N105 N 0.16881 1.15351 0.78555
 N106 N 0.15366 1.16903 0.78559
 C107 C 0.13996 1.16580 0.76837
 C108 C 0.14688 1.14725 0.75686
 C109 C 0.16528 1.13994 0.76836
 H110 H 0.12604 1.17625 0.76449
 H111 H 0.17545 1.12582 0.76459
 Cu112 Cu 0.15367 1.19189 0.80820
 Cu113 Cu 0.19213 1.15203 0.80761
 Cu114 Cu 0.19210 1.19245 0.84812
 N115 N 0.15364 1.21447 0.83110
 N116 N 0.16877 1.21450 0.84665
 C117 C 0.16524 1.23169 0.86023
 C118 C 0.14684 1.24317 0.85289
 C119 C 0.13994 1.23167 0.83431
 H120 H 0.17541 1.23546 0.87437
 H121 H 0.12604 1.23555 0.82383
 N122 N 0.21433 1.16874 0.84676
 N123 N 0.21434 1.15339 0.83135
 C124 C 0.23160 1.13981 0.83475
 C125 C 0.24310 1.14691 0.85320
 C126 C 0.23160 1.16533 0.86034
 H127 H 0.23552 1.12583 0.82444
 H128 H 0.23553 1.17560 0.87435
 H129 H 0.17485 1.16770 0.83235
 H130 H 0.19292 1.18530 0.81473
 N131 N 0.83153 0.84625 0.78575
 N132 N 0.84660 0.83069 0.78574
 C133 C 0.86036 0.83390 0.76853
 C134 C 0.85352 0.85250 0.75708
 C135 C 0.83512 0.85984 0.76859
 H136 H 0.87429 0.82345 0.76467
 H137 H 0.82498 0.87400 0.76485
 Cu138 Cu 0.84656 0.80793 0.80841
 Cu139 Cu 0.80815 0.84770 0.80781
 Cu140 Cu 0.80777 0.80698 0.84804
 N141 N 0.84644 0.78523 0.83111
 N142 N 0.83116 0.78503 0.84652
 C143 C 0.83473 0.76791 0.86013
 C144 C 0.85331 0.75663 0.85295
 C145 C 0.86030 0.76817 0.83444
 H146 H 0.82449 0.76408 0.87422
 H147 H 0.87442 0.76450 0.82417
 N148 N 0.78560 0.83072 0.84668
 N149 N 0.78581 0.84628 0.83148
 C150 C 0.76866 0.85995 0.83499
 C151 C 0.75702 0.85273 0.85332
 C152 C 0.76832 0.83412 0.86026
 H153 H 0.76493 0.87411 0.82487
 H154 H 0.76430 0.82376 0.87418
 H155 H 0.82519 0.83175 0.83282
 H156 H 0.80727 0.81435 0.81485
 N157 N 0.16887 0.84592 1.21438
 N158 N 0.15357 0.83059 1.21416
 C159 C 0.13972 0.83391 1.23125
 C160 C 0.14670 0.85235 1.24285
 C161 C 0.16529 0.85950 1.23155
 H162 H 0.12564 0.82361 1.23496
 H163 H 0.17555 0.87353 1.23541
 Cu164 Cu 0.15357 0.80779 1.19155
 Cu165 Cu 0.19229 0.84733 1.19238
 Cu166 Cu 0.19199 0.80722 1.15158
 N167 N 0.15353 0.78530 1.16865
 N168 N 0.16863 0.78526 1.15307
 C169 C 0.16511 0.76809 1.13951
 C170 C 0.14673 0.75662 1.14691
 C171 C 0.13984 0.76811 1.16550
 H172 H 0.17529 0.76429 1.12537
 H173 H 0.12596 0.76423 1.17602
 N174 N 0.21430 0.83080 1.15303
 N175 N 0.21449 0.84596 1.16862
 C176 C 0.23177 0.85950 1.16521
 C177 C 0.24308 0.85257 1.14657
 C178 C 0.23146 0.83428 1.13932
 H179 H 0.23577 0.87339 1.17559
 H180 H 0.23521 0.82418 1.12514
 H181 H 0.17488 0.83200 1.16754
 H182 H 0.19284 0.81407 1.18496
 N183 N 0.83131 1.15393 1.21422
 N184 N 0.84641 1.16947 1.21419
 C185 C 0.86020 1.16623 1.23135
 C186 C 0.85336 1.14764 1.24281
 C187 C 0.83494 1.14032 1.23135
 H188 H 0.87416 1.17663 1.23516
 H189 H 0.82481 1.12616 1.23510
 Cu190 Cu 0.84636 1.19218 1.19148
 Cu191 Cu 0.80796 1.15243 1.19215
 Cu192 Cu 0.80792 1.19286 1.15162
 N193 N 0.84631 1.21487 1.16878
 N194 N 0.83122 1.21490 1.15320
 C195 C 0.83477 1.23204 1.13962
 C196 C 0.85316 1.24349 1.14697
 C197 C 0.86004 1.23203 1.16557
 H198 H 0.82462 1.23581 1.12545
 H199 H 0.87400 1.23585 1.17600
 N200 N 0.78571 1.16916 1.15300
 N201 N 0.78572 1.15380 1.16841
 C202 C 0.76846 1.14024 1.16501
 C203 C 0.75695 1.14736 1.14655
 C204 C 0.76844 1.16577 1.13942
 H205 H 0.76456 1.12626 1.17530
 H206 H 0.76452 1.17605 1.12541
 H207 H 0.82518 1.16810 1.16727
 H208 H 0.80712 1.18572 1.18490
 N209 N 0.52330 1.03898 0.97636
 N210 N 0.54019 1.05248 0.97368
 N211 N 0.47683 1.02367 0.96101
 N212 N 0.45995 1.02633 0.94750
 N213 N 0.47680 1.03895 0.97634
 N214 N 0.45991 1.05242 0.97368
 N215 N 0.52334 1.02369 0.96104
 N216 N 0.54024 1.02637 0.94753
 C217 C 0.55062 1.04442 0.95560
 C218 C 0.44954 1.04435 0.95561
 N219 N 0.47676 0.96098 0.97631
 N220 N 0.45986 0.94749 0.97362
 N221 N 0.52329 0.97627 0.96104
 N222 N 0.54020 0.97360 0.94755
 N223 N 0.52326 0.96099 0.97636
 N224 N 0.54015 0.94750 0.97372
 N225 N 0.47677 0.97626 0.96099
 N226 N 0.45988 0.97359 0.94746
 Mn227 Mn 0.50006 0.99998 0.96074
 C228 C 0.44947 0.95555 0.95554
 C229 C 0.55057 0.95556 0.95566
 N230 N 0.47664 1.03897 1.02386
 N231 N 0.45973 1.05245 1.02655
 N232 N 0.52317 1.02371 1.03919
 N233 N 0.54008 1.02638 1.05268
 N234 N 0.52315 1.03899 1.02387
 N235 N 0.54003 1.05247 1.02650
 N236 N 0.47665 1.02368 1.03918
 N237 N 0.45974 1.02635 1.05270
 Mn238 Mn 0.49997 1.03924 1.00011
 C239 C 0.44932 1.04439 1.04464
 C240 C 0.55044 1.04442 1.04456
 N241 N 0.52328 0.96100 1.02385
 N242 N 0.54018 0.94752 1.02653
 N243 N 0.47676 0.97626 1.03915
 N244 N 0.45984 0.97357 1.05263
 N245 N 0.47680 0.96099 1.02381
 N246 N 0.45993 0.94749 1.02643
 N247 N 0.52326 0.97629 1.03918
 N248 N 0.54015 0.97362 1.05269
 Mn249 Mn 0.50002 0.96072 1.00008
 Mn250 Mn 0.49996 0.99998 1.03945
 Cl251 Cl 0.50000 0.99998 1.00010
 C252 C 0.55057 0.95558 1.04461
 C253 C 0.44950 0.95553 1.04450
 N254 N 0.02365 0.47684 0.03929
 N255 N 0.02627 0.45997 0.05278
 N256 N 0.03900 0.52318 0.02399
 N257 N 0.05246 0.54007 0.02662
 N258 N 0.02365 0.52318 0.03930
 N259 N 0.02624 0.54006 0.05277
 N260 N 0.03900 0.47682 0.02397
 N261 N 0.05248 0.45993 0.02663
 C262 C 0.04435 0.44956 0.04469
 C263 C 0.04431 0.55045 0.04467
 N264 N 0.02371 0.52326 -0.03885
 N265 N 0.02633 0.54016 -0.05230
 N266 N 0.03904 0.47686 -0.02356
 N267 N 0.05251 0.45997 -0.02621
 N268 N 0.02371 0.47689 -0.03888
 N269 N 0.02633 0.46002 -0.05237
 N270 N 0.03905 0.52324 -0.02353
 N271 N 0.05251 0.54014 -0.02614
 Mn272 Mn 0.03930 0.50003 0.00022
 C273 C 0.04439 0.55055 -0.04419
 C274 C 0.04438 0.44961 -0.04428
 N275 N -0.02389 0.52325 0.03928
 N276 N -0.02652 0.54012 0.05275
 N277 N -0.03922 0.47692 0.02393
 N278 N -0.05270 0.46005 0.02655
 N279 N -0.02389 0.47692 0.03925
 N280 N -0.02652 0.46004 0.05272
 N281 N -0.03922 0.52326 0.02395
 N282 N -0.05270 0.54015 0.02658
 Mn283 Mn -0.00012 0.50005 0.03955
 C284 C -0.04459 0.55052 0.04465
 C285 C -0.04458 0.44967 0.04460
 N286 N -0.02385 0.47691 -0.03889
 N287 N -0.02648 0.46004 -0.05237
 N288 N -0.03919 0.52327 -0.02355
 N289 N -0.05266 0.54015 -0.02618
 N290 N -0.02383 0.52326 -0.03885
 N291 N -0.02644 0.54014 -0.05232
 N292 N -0.03920 0.47691 -0.02357
 N293 N -0.05269 0.46004 -0.02622
 Mn294 Mn -0.00006 0.50008 -0.03914
 Mn295 Mn -0.03949 0.50009 0.00019
 Cl296 Cl -0.00009 0.50006 0.00020
 C297 C -0.04456 0.44967 -0.04428
 C298 C -0.04451 0.55053 -0.04422
 N299 N 0.96096 -0.02362 0.47666
 N300 N 0.94744 -0.02628 0.45978
 N301 N 0.97635 -0.03888 0.52310
 N302 N 0.97372 -0.05237 0.53997
 N303 N 0.96100 -0.02360 0.52314
 N304 N 0.94750 -0.02629 0.54005
 N305 N 0.97629 -0.03892 0.47666
 N306 N 0.97363 -0.05239 0.45978
 C307 C 0.95554 -0.04432 0.44940
 C308 C 0.95564 -0.04433 0.55041
 N309 N 1.03923 -0.02364 0.52299
 N310 N 1.05275 -0.02629 0.53987
 N311 N 1.02382 -0.03895 0.47658
 N312 N 1.02642 -0.05246 0.45972
 N313 N 1.03917 -0.02369 0.47652
 N314 N 1.05264 -0.02639 0.45959
 N315 N 1.02389 -0.03890 0.52302
 N316 N 1.02654 -0.05236 0.53992
 Mn317 Mn 1.00009 -0.03918 0.49984
 C318 C 1.04464 -0.04430 0.55029
 C319 C 1.04449 -0.04444 0.44926
 N320 N 0.96102 0.02382 0.52305
 N321 N 0.94753 0.02648 0.53996
 N322 N 0.97633 0.03905 0.47657
 N323 N 0.97369 0.05253 0.45969
 N324 N 0.96097 0.02379 0.47658
 N325 N 0.94746 0.02647 0.45969
 N326 N 0.97636 0.03909 0.52302
 N327 N 0.97372 0.05257 0.53990
 Mn328 Mn 0.96070 0.00010 0.49986
 C329 C 0.95564 0.04452 0.55032
 C330 C 0.95560 0.04450 0.44930
 N331 N 1.03919 0.02373 0.47647
 N332 N 1.05270 0.02638 0.45957
 N333 N 1.02390 0.03906 0.52294
 N334 N 1.02654 0.05254 0.53982
 N335 N 1.03925 0.02378 0.52294
 N336 N 1.05275 0.02644 0.53984
 N337 N 1.02386 0.03902 0.47649
 N338 N 1.02652 0.05250 0.45961
 Mn339 Mn 1.03949 0.00005 0.49973
 Mn340 Mn 1.00011 0.03933 0.49976
 Cl341 Cl 1.00010 0.00007 0.49980
 C342 C 1.04460 0.04442 0.44920
 C343 C 1.04462 0.04448 0.55022
 C344 C 1.10911 0.13680 0.29142
 C345 C 1.11850 0.11796 0.30076
 C346 C 1.13732 0.10862 0.29121
 C347 C 1.14676 0.11807 0.27238
 C348 C 1.13751 0.13712 0.26271
 C349 C 1.11847 0.14631 0.27260
 C350 C 1.10880 0.10824 0.32015
 C351 C 1.10063 0.10013 0.33638
 C352 C 1.09103 0.09064 0.35537
 C353 C 1.08284 0.08254 0.37159
 C354 C 1.07310 0.07285 0.39097
 C355 C 1.08252 0.05402 0.40042
 C356 C 1.07317 0.04467 0.41934
 C357 C 1.05430 0.05410 0.42904
 C358 C 1.04486 0.07294 0.41938
 C359 C 1.05423 0.08226 0.40046
 H360 H 1.09450 0.14417 0.29869
 H361 H 1.14473 0.09401 0.29833
 H362 H 1.16130 0.11027 0.26557
 H363 H 1.11060 0.16085 0.26599
 H364 H 1.09710 0.04659 0.39319
 H365 H 1.08074 0.03012 0.42639
 H366 H 1.03029 0.08050 0.42647
 H367 H 1.04680 0.09682 0.39327
 C368 C 0.89074 -0.13686 0.29194
 C369 C 0.88163 -0.11778 0.30110
 C370 C 0.86302 -0.10815 0.29139
 C371 C 0.85354 -0.11756 0.27257
 C372 C 0.86257 -0.13678 0.26316
 C373 C 0.88131 -0.14630 0.27313
 C374 C 0.89138 -0.10809 0.32046
 C375 C 0.89957 -0.09999 0.33667
 C376 C 0.90916 -0.09050 0.35564
 C377 C 0.91734 -0.08239 0.37184
 C378 C 0.92707 -0.07271 0.39121
 C379 C 0.91766 -0.05388 0.40066
 C380 C 0.92699 -0.04454 0.41957
 C381 C 0.94585 -0.05398 0.42925
 C382 C 0.95530 -0.07281 0.41959
 C383 C 0.94593 -0.08212 0.40067
 H384 H 0.90517 -0.14445 0.29932
 H385 H 0.85584 -0.09335 0.29836
 H386 H 0.83918 -0.10968 0.26549
 H387 H 0.88883 -0.16104 0.26651
 H388 H 0.90307 -0.04644 0.39344
 H389 H 0.91942 -0.02999 0.42663
 H390 H 0.96987 -0.08038 0.42666
 H391 H 0.95337 -0.09669 0.39347
 C392 C 0.89113 0.13673 0.70823
 C393 C 0.88172 0.11792 0.69882
 C394 C 0.86287 0.10857 0.70834
 C395 C 0.85346 0.11797 0.72721
 C396 C 0.86278 0.13693 0.73687
 C397 C 0.88176 0.14617 0.72708
 C398 C 0.89143 0.10823 0.67942
 C399 C 0.89961 0.10014 0.66318
 C400 C 0.90922 0.09067 0.64419
 C401 C 0.91743 0.08257 0.62797
 C402 C 0.92717 0.07290 0.60858
 C403 C 0.91777 0.05407 0.59913
 C404 C 0.92711 0.04474 0.58021
 C405 C 0.94596 0.05418 0.57049
 C406 C 0.95539 0.07301 0.58015
 C407 C 0.94603 0.08232 0.59909
 H408 H 0.90573 0.14412 0.70098
 H409 H 0.85545 0.09399 0.70118
 H410 H 0.83890 0.11031 0.73413
 H411 H 0.88950 0.16070 0.73388
 H412 H 0.90320 0.04663 0.60636
 H413 H 0.91955 0.03019 0.57315
 H414 H 0.96996 0.08058 0.57305
 H415 H 0.95345 0.09688 0.60628
 C416 C 1.10890 -0.13655 0.70828
 C417 C 1.11838 -0.11781 0.69880
 C418 C 1.13729 -0.10853 0.70825
 C419 C 1.14670 -0.11794 0.72712
 C420 C 1.13731 -0.13681 0.73685
 C421 C 1.11826 -0.14600 0.72714
 C422 C 1.10869 -0.10810 0.67940
 C423 C 1.10053 -0.09999 0.66316
 C424 C 1.09096 -0.09049 0.64416
 C425 C 1.08279 -0.08237 0.62794
 C426 C 1.07307 -0.07268 0.60855
 C427 C 1.08251 -0.05388 0.59908
 C428 C 1.07319 -0.04454 0.58014
 C429 C 1.05432 -0.05396 0.57046
 C430 C 1.04486 -0.07276 0.58015
 C431 C 1.05420 -0.08207 0.59908
 H432 H 1.09425 -0.14388 0.70110
 H433 H 1.14477 -0.09400 0.70104
 H434 H 1.16130 -0.11033 0.73399
 H435 H 1.11047 -0.16047 0.73400
 H436 H 1.09710 -0.04646 0.60629
 H437 H 1.08078 -0.03001 0.57307
 H438 H 1.03028 -0.08031 0.57307
 H439 H 1.04675 -0.09661 0.60628
 C440 C 0.29101 1.13657 1.10950
 C441 C 0.30051 1.11784 1.11897
 C442 C 0.29105 1.10863 1.13790
 C443 C 0.27216 1.11806 1.14733
 C444 C 0.26231 1.13698 1.13797
 C445 C 0.27213 1.14606 1.11885
 C446 C 0.31996 1.10810 1.10924
 C447 C 0.33623 1.10001 1.10102
 C448 C 0.35527 1.09054 1.09135
 C449 C 0.37153 1.08246 1.08310
 C450 C 0.39096 1.07279 1.07329
 C451 C 0.40049 1.05395 1.08264
 C452 C 0.41943 1.04463 1.07325
 C453 C 0.42912 1.05407 1.05439
 C454 C 0.41940 1.07292 1.04502
 C455 C 0.40044 1.08221 1.05443
 H456 H 0.29818 1.14387 1.09484
 H457 H 0.29827 1.09410 1.14539
 H458 H 0.26543 1.11035 1.16194
 H459 H 0.26541 1.16052 1.11091
 H460 H 0.39330 1.04649 1.09721
 H461 H 0.42652 1.03008 1.08078
 H462 H 0.42646 1.08050 1.03045
 H463 H 0.39322 1.09678 1.04704
 C464 C 0.29125 0.86323 0.89097
 C465 C 0.30074 0.88196 0.88149
 C466 C 0.29127 0.89118 0.86257
 C467 C 0.27240 0.88174 0.85315
 C468 C 0.26257 0.86282 0.86252
 C469 C 0.27238 0.85374 0.88163
 C470 C 0.32017 0.89171 0.89120
 C471 C 0.33643 0.89982 0.89938
 C472 C 0.35547 0.90931 0.90900
 C473 C 0.37171 0.91742 0.91721
 C474 C 0.39114 0.92712 0.92697
 C475 C 0.40064 0.94595 0.91760
 C476 C 0.41958 0.95528 0.92695
 C477 C 0.42928 0.94586 0.94581
 C478 C 0.41957 0.92703 0.95522
 C479 C 0.40063 0.91772 0.94583
 H480 H 0.29843 0.85593 0.90563
 H481 H 0.29848 0.90570 0.85508
 H482 H 0.26567 0.88945 0.83855
 H483 H 0.26567 0.83927 0.88956
 H484 H 0.39344 0.95339 0.90302
 H485 H 0.42666 0.96982 0.91940
 H486 H 0.42664 0.91946 0.96978
 H487 H 0.39342 0.90316 0.95326
 C488 C 0.70847 0.86299 1.10938
 C489 C 0.69919 0.88195 1.11860
 C490 C 0.70884 0.89142 1.13729
 C491 C 0.72771 0.88201 1.14673
 C492 C 0.73736 0.86288 1.13760
 C493 C 0.72733 0.85352 1.11874
 C494 C 0.67978 0.89168 1.10886
 C495 C 0.66354 0.89980 1.10067
 C496 C 0.64453 0.90931 1.09107
 C497 C 0.62829 0.91743 1.08288
 C498 C 0.60887 0.92713 1.07313
 C499 C 0.59938 0.94596 1.08253
 C500 C 0.58044 0.95531 1.07318
 C501 C 0.57075 0.94589 1.05432
 C502 C 0.58045 0.92705 1.04491
 C503 C 0.59939 0.91773 1.05428
 H504 H 0.70114 0.85551 1.09489
 H505 H 0.70178 0.90613 1.14457
 H506 H 0.73459 0.88992 1.16115
 H507 H 0.73388 0.83888 1.11100
 H508 H 0.60659 0.95339 1.09710
 H509 H 0.57337 0.96985 1.08074
 H510 H 0.57338 0.91949 1.03034
 H511 H 0.60660 0.90317 1.04685
 C512 C 0.70889 1.10875 0.86263
 C513 C 0.69932 1.11804 0.88147
 C514 C 0.70872 1.13683 0.89089
 C515 C 0.72759 1.14634 0.88156
 C516 C 0.73750 1.13720 0.86252
 C517 C 0.72778 1.11820 0.85323
 C518 C 0.67988 1.10828 0.89117
 C519 C 0.66363 1.10017 0.89936
 C520 C 0.64460 1.09068 0.90900
 C521 C 0.62836 1.08258 0.91723
 C522 C 0.60894 1.07288 0.92701
 C523 C 0.59943 1.08229 0.94587
 C524 C 0.58049 1.07298 0.95526
 C525 C 0.57081 1.05413 0.94588
 C526 C 0.58053 1.04469 0.92702
 C527 C 0.59946 1.05404 0.91765
 H528 H 0.70175 1.09418 0.85518
 H529 H 0.70145 1.14418 0.90549
 H530 H 0.73422 1.16086 0.88945
 H531 H 0.73458 1.11044 0.83868
 H532 H 0.60662 1.09686 0.95327
 H533 H 0.57340 1.08055 0.96982
 H534 H 0.57347 1.03014 0.91948
 H535 H 0.60668 1.04659 0.90308
 C536 C 0.10849 0.29180 0.13745
 C537 C 0.11779 0.30115 0.11850
 C538 C 0.13653 0.29157 0.10899
 C539 C 0.14595 0.27272 0.11834
 C540 C 0.13674 0.26310 0.13741
 C541 C 0.11787 0.27294 0.14685
 C542 C 0.10809 0.32053 0.10880
 C543 C 0.09997 0.33675 0.10064
 C544 C 0.09046 0.35574 0.09107
 C545 C 0.08235 0.37195 0.08290
 C546 C 0.07267 0.39132 0.07316
 C547 C 0.08215 0.40076 0.05432
 C548 C 0.07286 0.41968 0.04496
 C549 C 0.05400 0.42940 0.05438
 C550 C 0.04450 0.41975 0.07323
 C551 C 0.05381 0.40083 0.08256
 H552 H 0.09397 0.29907 0.14496
 H553 H 0.14388 0.29867 0.09431
 H554 H 0.16042 0.26578 0.11053
 H555 H 0.11022 0.26617 0.16147
 H556 H 0.09673 0.39354 0.04689
 H557 H 0.08048 0.42673 0.03040
 H558 H 0.02992 0.42684 0.08079
 H559 H 0.04632 0.39366 0.09713
 C560 C -0.10865 0.29188 -0.13682
 C561 C -0.11803 0.30133 -0.11797
 C562 C -0.13688 0.29188 -0.10855
 C563 C -0.14632 0.27306 -0.11792
 C564 C -0.13704 0.26336 -0.13692
 C565 C -0.11805 0.27305 -0.14623
 C566 C -0.10833 0.32071 -0.10828
 C567 C -0.10021 0.33692 -0.10015
 C568 C -0.09071 0.35590 -0.09060
 C569 C -0.08258 0.37210 -0.08244
 C570 C -0.07290 0.39146 -0.07272
 C571 C -0.08236 0.40090 -0.05386
 C572 C -0.07307 0.41981 -0.04451
 C573 C -0.05421 0.42951 -0.05396
 C574 C -0.04473 0.41985 -0.07281
 C575 C -0.05404 0.40095 -0.08213
 H576 H -0.09404 0.29906 -0.14426
 H577 H -0.14429 0.29907 -0.09394
 H578 H -0.16087 0.26622 -0.11018
 H579 H -0.11034 0.26620 -0.16079
 H580 H -0.09694 0.39369 -0.04642
 H581 H -0.08067 0.42686 -0.02994
 H582 H -0.03016 0.42694 -0.08038
 H583 H -0.04657 0.39377 -0.09671
 C584 C 0.13685 0.70826 -0.10855
 C585 C 0.11800 0.69882 -0.11796
 C586 C 0.10862 0.70829 -0.13680
 C587 C 0.11800 0.72714 -0.14619
 C588 C 0.13696 0.73687 -0.13684
 C589 C 0.14627 0.72712 -0.11789
 C590 C 0.10827 0.67946 -0.10825
 C591 C 0.10013 0.66327 -0.10010
 C592 C 0.09060 0.64431 -0.09053
 C593 C 0.08246 0.62812 -0.08236
 C594 C 0.07276 0.60876 -0.07262
 C595 C 0.05390 0.59929 -0.08202
 C596 C 0.04457 0.58039 -0.07269
 C597 C 0.05404 0.57072 -0.05385
 C598 C 0.07291 0.58041 -0.04442
 C599 C 0.08221 0.59931 -0.05378
 H600 H 0.14426 0.70107 -0.09396
 H601 H 0.09403 0.70111 -0.14424
 H602 H 0.11029 0.73400 -0.16074
 H603 H 0.16082 0.73396 -0.11016
 H604 H 0.04643 0.60648 -0.09659
 H605 H 0.02999 0.57332 -0.08025
 H606 H 0.08051 0.57335 -0.02986
 H607 H 0.09680 0.60651 -0.04635
 C608 C -0.10890 0.70817 0.13707
 C609 C -0.11817 0.69883 0.11812
 C610 C -0.13690 0.70838 0.10859
 C611 C -0.14635 0.72720 0.11795
 C612 C -0.13718 0.73680 0.13703
 C613 C -0.11831 0.72699 0.14648
 C614 C -0.10845 0.67947 0.10844
 C615 C -0.10031 0.66327 0.10033
 C616 C -0.09078 0.64430 0.09081
 C617 C -0.08265 0.62809 0.08269
 C618 C -0.07295 0.60873 0.07300
 C619 C -0.08239 0.59929 0.05415
 C620 C -0.07308 0.58038 0.04482
 C621 C -0.05424 0.57067 0.05429
 C622 C -0.04478 0.58034 0.07314
 C623 C -0.05411 0.59925 0.08244
 H624 H -0.09438 0.70090 0.14459
 H625 H -0.14421 0.70128 0.09390
 H626 H -0.16082 0.73413 0.11013
 H627 H -0.11070 0.73376 0.16111
 H628 H -0.09696 0.60652 0.04669
 H629 H -0.08066 0.57332 0.03026
 H630 H -0.03022 0.57325 0.08073
 H631 H -0.04667 0.60645 0.09702
 C632 C 1.10854 0.13730 0.70812
 C633 C 1.11787 0.11841 0.69872
 C634 C 1.13665 0.10896 0.70824
 C635 C 1.14609 0.11832 0.72709
 C636 C 1.13686 0.13734 0.73675
 C637 C 1.11795 0.14670 0.72698
 C638 C 1.10817 0.10871 0.67932
 C639 C 1.10009 0.10053 0.66309
 C640 C 1.09063 0.09092 0.64410
 C641 C 1.08256 0.08272 0.62787
 C642 C 1.07291 0.07297 0.60849
 C643 C 1.08240 0.05416 0.59906
 C644 C 1.07313 0.04478 0.58013
 C645 C 1.05426 0.05417 0.57039
 C646 C 1.04475 0.07298 0.58003
 C647 C 1.05405 0.08233 0.59896
 H648 H 1.09399 0.14475 0.70087
 H649 H 1.14401 0.09433 0.70110
 H650 H 1.16059 0.11055 0.73399
 H651 H 1.11031 0.16128 0.73381
 H652 H 1.09698 0.04676 0.60632
 H653 H 1.08075 0.03025 0.57309
 H654 H 1.03018 0.08051 0.57292
 H655 H 1.04656 0.09688 0.60613
 C656 C 0.86380 -0.10922 0.70846
 C657 C 0.88257 -0.11869 0.69891
 C658 C 0.89187 -0.13759 0.70829
 C659 C 0.88246 -0.14699 0.72716
 C660 C 0.86356 -0.13759 0.73697
 C661 C 0.85436 -0.11857 0.72732
 C662 C 0.89227 -0.10897 0.67951
 C663 C 0.90034 -0.10075 0.66327
 C664 C 0.90974 -0.09107 0.64428
 C665 C 0.91779 -0.08282 0.62806
 C666 C 0.92740 -0.07300 0.60867
 C667 C 0.94627 -0.08231 0.59908
 C668 C 0.95554 -0.07291 0.58016
 C669 C 0.94601 -0.05408 0.57058
 C670 C 0.92714 -0.04474 0.58037
 C671 C 0.91789 -0.05417 0.59930
 H672 H 0.85646 -0.09458 0.70133
 H673 H 0.90641 -0.14507 0.70102
 H674 H 0.89007 -0.16159 0.73398
 H675 H 0.83986 -0.11078 0.73423
 H676 H 0.95378 -0.09687 0.60620
 H677 H 0.97012 -0.08041 0.57300
 H678 H 0.91950 -0.03020 0.57337
 H679 H 0.90330 -0.04682 0.60659
 C680 C 1.10812 -0.13759 0.29139
 C681 C 1.11750 -0.11880 0.30088
 C682 C 1.13637 -0.10942 0.29146
 C683 C 1.14586 -0.11877 0.27263
 C684 C 1.13659 -0.13771 0.26289
 C685 C 1.11757 -0.14700 0.27255
 C686 C 1.10779 -0.10909 0.32026
 C687 C 1.09973 -0.10088 0.33648
 C688 C 1.09032 -0.09122 0.35546
 C689 C 1.08229 -0.08295 0.37167
 C690 C 1.07268 -0.07313 0.39104
 C691 C 1.08219 -0.05430 0.40038
 C692 C 1.07295 -0.04485 0.41930
 C693 C 1.05409 -0.05419 0.42910
 C694 C 1.04456 -0.07302 0.41955
 C695 C 1.05383 -0.08243 0.40063
 H696 H 1.09350 -0.14499 0.29857
 H697 H 1.14377 -0.09485 0.29868
 H698 H 1.16043 -0.11106 0.26582
 H699 H 1.10990 -0.16152 0.26564
 H700 H 1.09678 -0.04695 0.39307
 H701 H 1.08059 -0.03031 0.42628
 H702 H 1.02999 -0.08051 0.42671
 H703 H 1.04633 -0.09700 0.39352
 C704 C 0.86368 0.10937 0.29141
 C705 C 0.88245 0.11883 0.30093
 C706 C 0.89175 0.13771 0.29153
 C707 C 0.88233 0.14711 0.27266
 C708 C 0.86343 0.13772 0.26289
 C709 C 0.85423 0.11871 0.27256
 C710 C 0.89216 0.10911 0.32031
 C711 C 0.90022 0.10089 0.33653
 C712 C 0.90964 0.09121 0.35550
 C713 C 0.91769 0.08295 0.37171
 C714 C 0.92732 0.07314 0.39108
 C715 C 0.94620 0.08244 0.40062
 C716 C 0.95548 0.07304 0.41953
 C717 C 0.94596 0.05423 0.42914
 C718 C 0.92708 0.04490 0.41939
 C719 C 0.91781 0.05432 0.40047
 H720 H 0.85633 0.09474 0.29856
 H721 H 0.90630 0.14518 0.29877
 H722 H 0.88995 0.16169 0.26582
 H723 H 0.83972 0.11094 0.26568
 H724 H 0.95370 0.09699 0.39347
 H725 H 0.97007 0.08053 0.42665
 H726 H 0.91944 0.03037 0.42641
 H727 H 0.90322 0.04697 0.39321
 C728 C 0.13654 0.29174 -0.10877
 C729 C 0.11776 0.30125 -0.11824
 C730 C 0.10847 0.29185 -0.13716
 C731 C 0.11790 0.27302 -0.14658
 C732 C 0.13681 0.26327 -0.13719
 C733 C 0.14601 0.27292 -0.11813
 C734 C 0.10804 0.32063 -0.10853
 C735 C 0.09994 0.33684 -0.10035
 C736 C 0.09046 0.35581 -0.09074
 C737 C 0.08236 0.37202 -0.08254
 C738 C 0.07269 0.39139 -0.07278
 C739 C 0.05384 0.40091 -0.08216
 C740 C 0.04453 0.41982 -0.07281
 C741 C 0.05402 0.42945 -0.05396
 C742 C 0.07286 0.41971 -0.04454
 C743 C 0.08215 0.40080 -0.05391
 H744 H 0.14389 0.29888 -0.09411
 H745 H 0.09392 0.29908 -0.14465
 H746 H 0.11027 0.26620 -0.16119
 H747 H 0.16051 0.26604 -0.11034
 H748 H 0.04636 0.39376 -0.09674
 H749 H 0.02997 0.42692 -0.08037
 H750 H 0.08046 0.42674 -0.02997
 H751 H 0.09672 0.39356 -0.04649
 C752 C -0.10851 0.29210 0.13712
 C753 C -0.11783 0.30150 0.11823
 C754 C -0.13660 0.29204 0.10872
 C755 C -0.14604 0.27322 0.11805
 C756 C -0.13682 0.26355 0.13708
 C757 C -0.11791 0.27327 0.14650
 C758 C -0.10814 0.32085 0.10856
 C759 C -0.10005 0.33704 0.10041
 C760 C -0.09060 0.35599 0.09084
 C761 C -0.08251 0.37217 0.08268
 C762 C -0.07286 0.39151 0.07297
 C763 C -0.08232 0.40093 0.05412
 C764 C -0.07304 0.41984 0.04478
 C765 C -0.05420 0.42953 0.05424
 C766 C -0.04471 0.41988 0.07308
 C767 C -0.05401 0.40098 0.08239
 H768 H -0.09396 0.29931 0.14461
 H769 H -0.14395 0.29921 0.09408
 H770 H -0.16055 0.26636 0.11025
 H771 H -0.11028 0.26642 0.16110
 H772 H -0.09690 0.39371 0.04669
 H773 H -0.08065 0.42689 0.03023
 H774 H -0.03015 0.42697 0.08065
 H775 H -0.04655 0.39379 0.09696
 C776 C -0.13649 0.70809 -0.10876
 C777 C -0.11763 0.69869 -0.11817
 C778 C -0.10820 0.70816 -0.13699
 C779 C -0.11760 0.72699 -0.14639
 C780 C -0.13661 0.73663 -0.13708
 C781 C -0.14593 0.72691 -0.11811
 C782 C -0.10795 0.67934 -0.10847
 C783 C -0.09988 0.66314 -0.10029
 C784 C -0.09046 0.64420 -0.09067
 C785 C -0.08240 0.62802 -0.08246
 C786 C -0.07276 0.60868 -0.07270
 C787 C -0.05389 0.59920 -0.08208
 C788 C -0.04460 0.58030 -0.07273
 C789 C -0.05413 0.57067 -0.05389
 C790 C -0.07301 0.58038 -0.04448
 C791 C -0.08228 0.59928 -0.05386
 H792 H -0.14393 0.70088 -0.09418
 H793 H -0.09357 0.70099 -0.14440
 H794 H -0.10989 0.73388 -0.16093
 H795 H -0.16051 0.73371 -0.11039
 H796 H -0.04639 0.60637 -0.09665
 H797 H -0.03002 0.57321 -0.08027
 H798 H -0.08065 0.57334 -0.02993
 H799 H -0.09688 0.60652 -0.04647
 C800 C 0.10840 0.70800 0.13718
 C801 C 0.11768 0.69860 0.11825
 C802 C 0.13644 0.70806 0.10870
 C803 C 0.14591 0.72687 0.11802
 C804 C 0.13673 0.73654 0.13707
 C805 C 0.11783 0.72682 0.14654
 C806 C 0.10795 0.67926 0.10860
 C807 C 0.09983 0.66308 0.10047
 C808 C 0.09034 0.64413 0.09092
 C809 C 0.08225 0.62795 0.08277
 C810 C 0.07258 0.60861 0.07305
 C811 C 0.08206 0.59919 0.05421
 C812 C 0.07278 0.58029 0.04486
 C813 C 0.05392 0.57059 0.05432
 C814 C 0.04442 0.58025 0.07316
 C815 C 0.05373 0.59915 0.08248
 H816 H 0.09385 0.70079 0.14470
 H817 H 0.14376 0.70090 0.09403
 H818 H 0.16040 0.73373 0.11018
 H819 H 0.11023 0.73367 0.16116
 H820 H 0.09664 0.60641 0.04677
 H821 H 0.08039 0.57323 0.03030
 H822 H 0.02985 0.57317 0.08074
 H823 H 0.04626 0.60634 0.09705
 C824 C 0.29187 1.13688 0.89140
 C825 C 0.30130 1.11807 0.88200
 C826 C 0.29185 1.10870 0.86316
 C827 C 0.27298 1.11808 0.85375
 C828 C 0.26326 1.13701 0.86309
 C829 C 0.27301 1.14630 0.88204
 C830 C 0.32065 1.10835 0.89170
 C831 C 0.33686 1.10019 0.89983
 C832 C 0.35582 1.09065 0.90935
 C833 C 0.37201 1.08249 0.91749
 C834 C 0.39136 1.07278 0.92719
 C835 C 0.40081 1.05396 0.91775
 C836 C 0.41973 1.04460 0.92707
 C837 C 0.42940 1.05402 0.94593
 C838 C 0.41973 1.07284 0.95539
 C839 C 0.40082 1.08217 0.94604
 H840 H 0.29909 1.14425 0.90601
 H841 H 0.29904 1.09412 0.85575
 H842 H 0.26611 1.11039 0.83920
 H843 H 0.26616 1.16082 0.88976
 H844 H 0.39360 1.04656 0.90316
 H845 H 0.42680 1.03007 0.91950
 H846 H 0.42681 1.08039 0.96996
 H847 H 0.39361 1.09673 0.95348
 C848 C 0.29165 0.86276 1.10812
 C849 C 0.30118 0.88146 1.11763
 C850 C 0.29182 0.89072 1.13658
 C851 C 0.27297 0.88134 1.14601
 C852 C 0.26317 0.86251 1.13659
 C853 C 0.27280 0.85334 1.11751
 C854 C 0.32054 0.89117 1.10795
 C855 C 0.33676 0.89935 1.09986
 C856 C 0.35572 0.90896 1.09042
 C857 C 0.37193 0.91717 1.08235
 C858 C 0.39129 0.92694 1.07273
 C859 C 0.40066 0.94576 1.08223
 C860 C 0.41958 0.95518 1.07297
 C861 C 0.42935 0.94581 1.05411
 C862 C 0.41976 0.92699 1.04460
 C863 C 0.40084 0.91760 1.05388
 H864 H 0.29879 0.85546 1.09343
 H865 H 0.29908 0.90521 1.14407
 H866 H 0.26618 0.88895 1.16064
 H867 H 0.26588 0.83889 1.10972
 H868 H 0.39337 0.95312 1.09681
 H869 H 0.42659 0.96972 1.08058
 H870 H 0.42691 0.91948 1.03003
 H871 H 0.39370 0.90305 1.04641
 C872 C 0.70817 1.13733 1.10834
 C873 C 0.69876 1.11851 1.11774
 C874 C 0.70824 1.10915 1.13657
 C875 C 0.72710 1.11853 1.14597
 C876 C 0.73680 1.13745 1.13665
 C877 C 0.72704 1.14675 1.11770
 C878 C 0.67940 1.10878 1.10806
 C879 C 0.66319 1.10059 1.09998
 C880 C 0.64423 1.09097 1.09052
 C881 C 0.62802 1.08276 1.08245
 C882 C 0.60866 1.07299 1.07282
 C883 C 0.59927 1.05417 1.08230
 C884 C 0.58035 1.04476 1.07304
 C885 C 0.57060 1.05413 1.05419
 C886 C 0.58021 1.07296 1.04469
 C887 C 0.59913 1.08233 1.05398
 H888 H 0.70095 1.14471 1.09374
 H889 H 0.70107 1.09457 1.14398
 H890 H 0.73399 1.11083 1.16051
 H891 H 0.73388 1.16128 1.10998
 H892 H 0.60655 1.04680 1.09688
 H893 H 0.57333 1.03022 1.08065
 H894 H 0.57308 1.08047 1.03012
 H895 H 0.60628 1.09689 1.04650
 C896 C 0.70849 0.89113 0.86353
 C897 C 0.69891 0.88165 0.88226
 C898 C 0.70823 0.86274 0.89155
 C899 C 0.72709 0.85331 0.88216
 C900 C 0.73693 0.86269 0.86330
 C901 C 0.72735 0.88175 0.85410
 C902 C 0.67954 0.89136 0.89195
 C903 C 0.66332 0.89953 0.90006
 C904 C 0.64435 0.90910 0.90954
 C905 C 0.62814 0.91728 0.91765
 C906 C 0.60878 0.92703 0.92732
 C907 C 0.59926 0.91765 0.94616
 C908 C 0.58034 0.92702 0.95549
 C909 C 0.57072 0.94585 0.94601
 C910 C 0.58046 0.95525 0.92717
 C911 C 0.59938 0.94586 0.91787
 H912 H 0.70139 0.90580 0.85621
 H913 H 0.70092 0.85527 0.90607
 H914 H 0.73385 0.83869 0.88979
 H915 H 0.73431 0.88952 0.83964
 H916 H 0.60643 0.90308 0.95361
 H917 H 0.57321 0.91948 0.97005
 H918 H 0.57343 0.96980 0.91958
 H919 H 0.60665 0.95325 0.90329
   
