data_POSCAR
  _audit_creation_date              2014-09-24
  _audit_creation_method            'ToBaCCo'
  _symmetry_space_group_name_H-M    'P1'
  _symmetry_Int_Tables_number       1
  _symmetry_cell_setting            triclinic
  loop_
  _symmetry_equiv_pos_as_xyz
 x,y,z
_cell_length_a 58.7791
_cell_length_b 58.9798
_cell_length_c 52.0623
_cell_angle_alpha 90.141000
_cell_angle_beta 89.936300
_cell_angle_gamma 120.049800
loop_
  _atom_site_label
  _atom_site_type_symbol
  _atom_site_fract_x
  _atom_site_fract_y
  _atom_site_fract_z
O1 O 0.03498 0.49574 0.00816
 O2 O 0.00308 0.52294 -0.03205
 O3 O 0.03654 0.54044 0.00621
 O4 O 0.00179 0.47848 -0.02991
 O5 O -0.03165 0.46446 -0.00318
 O6 O 0.00381 0.52567 0.03393
 O7 O -0.02944 0.50935 -0.00416
 O8 O 0.00170 0.48049 0.03525
 Cu9 Cu 0.02242 0.51091 -0.01461
 Cu10 Cu -0.01715 0.49352 0.01827
 C11 C 0.02386 0.48349 0.02861
 C12 C -0.01875 0.52058 -0.02517
 C13 C 0.02628 0.54353 0.02645
 C14 C -0.02118 0.46104 -0.02311
 O15 O 0.53277 0.49691 -0.00352
 O16 O 0.47211 0.46954 0.03524
 O17 O 0.48846 0.45295 -0.00322
 O18 O 0.51640 0.51328 0.03525
 O19 O 0.50077 0.53046 0.00772
 O20 O 0.47111 0.46911 -0.02988
 O21 O 0.45601 0.48693 0.00853
 O22 O 0.51560 0.51254 -0.03106
 Cu23 Cu 0.50413 0.48153 0.01864
 Cu24 Cu 0.48425 0.50147 -0.01387
 C25 C 0.53427 0.50891 -0.02425
 C26 C 0.45384 0.47392 0.02869
 C27 C 0.47509 0.45063 -0.02323
 C28 C 0.51319 0.53210 0.02826
 O29 O 0.50142 1.03346 -0.00907
 O30 O 0.52715 0.99986 0.03054
 O31 O 0.54502 1.03210 -0.00838
 O32 O 0.48373 1.00096 0.02950
 O33 O 0.46712 0.96722 0.00298
 O34 O 0.52741 0.99916 -0.03577
 O35 O 0.51106 0.96680 0.00319
 O36 O 0.48356 0.99972 -0.03558
 Cu37 Cu 0.51609 1.01998 0.01330
 Cu38 Cu 0.49564 0.97989 -0.01900
 C39 C 0.48805 1.02238 -0.02907
 C40 C 0.52329 0.97749 0.02385
 C41 C 0.54655 1.02118 -0.02890
 C42 C 0.46508 0.97852 0.02292
 O43 O 1.03554 0.54569 0.49424
 O44 O 1.00038 0.48551 0.53280
 O45 O 1.03423 0.50109 0.49509
 O46 O 1.00176 0.53029 0.53202
 O47 O 0.96913 0.51413 0.50411
 O48 O 1.00150 0.48484 0.46737
 O49 O 0.96761 0.46972 0.50503
 O50 O 1.00290 0.52967 0.46635
 Cu51 Cu 1.02125 0.51725 0.51632
 Cu52 Cu 0.98208 0.49802 0.48286
 C53 C 1.02533 0.54789 0.47357
 C54 C 0.97779 0.46749 0.52570
 C55 C 1.02356 0.48811 0.47475
 C56 C 0.97967 0.52685 0.52457
 O57 O 0.51989 0.51828 0.46815
 O58 O 0.49320 0.45926 0.50815
 O59 O 0.47546 0.47480 0.47034
 O60 O 0.53750 0.50287 0.50664
 O61 O 0.52243 0.52083 0.53402
 O62 O 0.46050 0.49292 0.49764
 O63 O 0.47790 0.47685 0.53567
 O64 O 0.50518 0.53645 0.49569
 Cu65 Cu 0.50808 0.48708 0.48557
 Cu66 Cu 0.48999 0.50854 0.51853
 C67 C 0.51685 0.53733 0.47483
 C68 C 0.48112 0.45794 0.52882
 C69 C 0.45745 0.47929 0.47764
 C70 C 0.54045 0.51638 0.52671
 O71 O 0.50975 -0.03137 0.49333
 O72 O 0.48180 0.00141 0.53186
 O73 O 0.46572 -0.03114 0.49318
 O74 O 0.52569 0.00098 0.53238
 O75 O 0.54337 0.03404 0.50519
 O76 O 0.48240 0.00253 0.46677
 O77 O 0.49968 0.03511 0.50544
 O78 O 0.52600 0.00169 0.46611
 Cu79 Cu 0.49407 -0.01837 0.51537
 Cu80 Cu 0.51463 0.02171 0.48322
 C81 C 0.52217 -0.02065 0.47279
 C82 C 0.48625 0.02404 0.52539
 C83 C 0.46372 -0.01995 0.47317
 C84 C 0.54472 0.02307 0.52567
 C85 C 0.28576 0.43685 0.24179
 C86 C 0.28579 0.43704 0.26815
 C87 C 0.25998 0.42759 0.27575
 N88 N 0.24421 0.42155 0.25497
 C89 C 0.25994 0.42729 0.23419
 C90 C 0.25109 0.42364 0.30146
 C91 C 0.22564 0.41842 0.30831
 C92 C 0.21387 0.40896 0.33197
 C93 C 0.19070 0.40944 0.33193
 C94 C 0.18900 0.41919 0.30824
 N95 N 0.21028 0.42444 0.29391
 C96 C 0.16949 0.42535 0.30128
 C97 C 0.16506 0.42967 0.27555
 C98 C 0.14962 0.44008 0.26786
 C99 C 0.14959 0.43989 0.24151
 C100 C 0.16500 0.42936 0.23400
 N101 N 0.17436 0.42304 0.25483
 C102 C 0.16938 0.42468 0.20834
 C103 C 0.18888 0.41842 0.20153
 C104 C 0.19053 0.40832 0.17797
 C105 C 0.21369 0.40783 0.17801
 C106 C 0.22553 0.41764 0.20161
 N107 N 0.21020 0.42388 0.21588
 C108 C 0.25100 0.42296 0.20850
 H109 H 0.30285 0.44320 0.22966
 H110 H 0.30289 0.44357 0.28028
 H111 H 0.21572 0.43460 0.23288
 H112 H 0.22145 0.40287 0.34783
 H113 H 0.17696 0.40380 0.34774
 H114 H 0.13957 0.44725 0.27993
 H115 H 0.13951 0.44688 0.22932
 H116 H 0.22124 0.40151 0.16226
 H117 H 0.21576 0.43492 0.27680
 H118 H 0.17675 0.40245 0.16217
 C119 C 0.58360 0.72013 0.23663
 C120 C 0.58370 0.72036 0.26299
 C121 C 0.57451 0.73690 0.27048
 N122 N 0.56898 0.74690 0.24965
 C123 C 0.57436 0.73654 0.22894
 C124 C 0.56843 0.74026 0.29594
 C125 C 0.56370 0.76072 0.30287
 C126 C 0.55148 0.76173 0.32530
 C127 C 0.55187 0.78526 0.32515
 C128 C 0.56433 0.79795 0.30263
 N129 N 0.57150 0.78288 0.28919
 C130 C 0.56987 0.82330 0.29543
 C131 C 0.57618 0.83233 0.26988
 C132 C 0.58614 0.85807 0.26215
 C133 C 0.58610 0.85786 0.23579
 C134 C 0.57611 0.83200 0.22835
 N135 N 0.57022 0.81646 0.24920
 C136 C 0.56970 0.82257 0.20290
 C137 C 0.56408 0.79708 0.19601
 C138 C 0.55148 0.78402 0.17365
 C139 C 0.55102 0.76046 0.17380
 C140 C 0.56336 0.75981 0.19625
 N141 N 0.57129 0.78221 0.20965
 C142 C 0.56809 0.73944 0.20344
 H143 H 0.58914 0.70874 0.22451
 H144 H 0.58932 0.70919 0.27525
 H145 H 0.58319 0.78810 0.22593
 H146 H 0.54304 0.74702 0.34019
 H147 H 0.54380 0.79214 0.33990
 H148 H 0.59227 0.87511 0.27424
 H149 H 0.59218 0.87471 0.22350
 H150 H 0.54247 0.74550 0.15909
 H151 H 0.58331 0.78851 0.27285
 H152 H 0.54335 0.79068 0.15879
 C153 C 0.15686 0.71593 0.23549
 C154 C 0.15680 0.71609 0.26185
 C155 C 0.17276 0.74192 0.26937
 N156 N 0.18247 0.75753 0.24854
 C157 C 0.17287 0.74167 0.22781
 C158 C 0.17730 0.75098 0.29503
 C159 C 0.19716 0.77655 0.30186
 C160 C 0.19899 0.78838 0.32541
 C161 C 0.22240 0.81175 0.32538
 C162 C 0.23420 0.81351 0.30182
 N163 N 0.21861 0.79207 0.28754
 C164 C 0.25985 0.83327 0.29497
 C165 C 0.26883 0.83769 0.26930
 C166 C 0.29474 0.85345 0.26174
 C167 C 0.29480 0.85330 0.23538
 C168 C 0.26892 0.83744 0.22774
 N169 N 0.25308 0.82801 0.24849
 C170 C 0.26007 0.83269 0.20203
 C171 C 0.23447 0.81285 0.19514
 C172 C 0.22281 0.81078 0.17144
 C173 C 0.19940 0.78741 0.17145
 C174 C 0.19743 0.77588 0.19515
 N175 N 0.21880 0.79159 0.20952
 C176 C 0.17755 0.75040 0.20208
 H177 H 0.14645 0.69878 0.22340
 H178 H 0.14633 0.69909 0.27403
 H179 H 0.22407 0.78641 0.22664
 H180 H 0.18516 0.78072 0.34117
 H181 H 0.23013 0.82560 0.34113
 H182 H 0.31187 0.86383 0.27390
 H183 H 0.31198 0.86354 0.22327
 H184 H 0.18567 0.77954 0.15561
 H185 H 0.22398 0.78667 0.27056
 H186 H 0.23062 0.82442 0.15560
 C187 C 0.71986 0.58165 0.74039
 C188 C 0.71911 0.57964 0.76665
 C189 C 0.73803 0.57329 0.77353
 N190 N 0.75055 0.57177 0.75238
 C191 C 0.73953 0.57694 0.73210
 C192 C 0.74161 0.56639 0.79858
 C193 C 0.76280 0.56258 0.80526
 C194 C 0.76381 0.54989 0.82724
 C195 C 0.78771 0.55098 0.82710
 C196 C 0.80070 0.56430 0.80502
 N197 N 0.78543 0.57143 0.79186
 C198 C 0.82637 0.57020 0.79804
 C199 C 0.83648 0.57767 0.77289
 C200 C 0.86217 0.58586 0.76572
 C201 C 0.86306 0.58776 0.73946
 C202 C 0.83800 0.58117 0.73146
 N203 N 0.82179 0.57494 0.75192
 C204 C 0.82979 0.57822 0.70560
 C205 C 0.80513 0.57469 0.69786
 C206 C 0.79504 0.56809 0.67315
 C207 C 0.77121 0.56710 0.67331
 C208 C 0.76728 0.57311 0.69810
 N209 N 0.78832 0.57827 0.71280
 C210 C 0.74511 0.57472 0.70614
 H211 H 0.70707 0.58569 0.72876
 H212 H 0.70569 0.58195 0.77916
 H213 H 0.79202 0.58597 0.73127
 H214 H 0.74880 0.54060 0.84183
 H215 H 0.79462 0.54269 0.84155
 H216 H 0.87846 0.58942 0.77804
 H217 H 0.88013 0.59298 0.72765
 H218 H 0.75840 0.56265 0.65687
 H219 H 0.79115 0.58380 0.77602
 H220 H 0.80395 0.56456 0.65656
 C221 C 0.44074 0.14990 0.73591
 C222 C 0.44068 0.14949 0.76225
 C223 C 0.43011 0.16470 0.77027
 N224 N 0.42365 0.17431 0.74974
 C225 C 0.43024 0.16538 0.72871
 C226 C 0.42552 0.16867 0.79609
 C227 C 0.41895 0.18777 0.80340
 C228 C 0.40875 0.18887 0.82710
 C229 C 0.40790 0.21177 0.82757
 C230 C 0.41767 0.22403 0.80417
 N231 N 0.42418 0.20918 0.78950
 C232 C 0.42277 0.24945 0.79784
 C233 C 0.42734 0.25891 0.77236
 C234 C 0.43704 0.28482 0.76538
 C235 C 0.43750 0.28544 0.73903
 C236 C 0.42803 0.25989 0.73081
 N237 N 0.42175 0.24369 0.75121
 C238 C 0.42426 0.25161 0.70490
 C239 C 0.41906 0.22639 0.69745
 C240 C 0.40970 0.21513 0.67355
 C241 C 0.41015 0.19203 0.67305
 C242 C 0.41978 0.18983 0.69666
 N243 N 0.42500 0.21077 0.71146
 C244 C 0.42585 0.17020 0.70314
 H245 H 0.44791 0.14008 0.72350
 H246 H 0.44777 0.13928 0.77411
 H247 H 0.43539 0.21587 0.72865
 H248 H 0.40302 0.17489 0.84263
 H249 H 0.40141 0.21888 0.84355
 H250 H 0.44335 0.30157 0.77792
 H251 H 0.44423 0.30277 0.72733
 H252 H 0.40457 0.17865 0.65695
 H253 H 0.43495 0.21507 0.77254
 H254 H 0.40369 0.22302 0.65791
 C255 C 0.85989 0.28880 0.76405
 C256 C 0.85991 0.28935 0.73772
 C257 C 0.83624 0.26821 0.72979
 N258 N 0.82173 0.25490 0.75042
 C259 C 0.83621 0.26734 0.77140
 C260 C 0.82733 0.26313 0.70407
 C261 C 0.80351 0.24083 0.69642
 C262 C 0.79118 0.23807 0.67297
 C263 C 0.76915 0.21360 0.67276
 C264 C 0.76885 0.20180 0.69586
 N265 N 0.78996 0.21849 0.71011
 C266 C 0.74997 0.17587 0.70283
 C267 C 0.74754 0.16637 0.72814
 C268 C 0.73278 0.14027 0.73516
 C269 C 0.73279 0.13970 0.76150
 C270 C 0.74752 0.16549 0.76965
 N271 N 0.75662 0.18174 0.74923
 C272 C 0.74995 0.17392 0.79542
 C273 C 0.76873 0.19961 0.80328
 C274 C 0.76893 0.21052 0.82696
 C275 C 0.79095 0.23497 0.82756
 C276 C 0.80338 0.23865 0.80400
 N277 N 0.78987 0.21686 0.78944
 C278 C 0.82726 0.26120 0.79703
 H279 H 0.87527 0.30308 0.77632
 H280 H 0.87530 0.30412 0.72586
 H281 H 0.79616 0.21300 0.77215
 H282 H 0.79726 0.25219 0.65755
 H283 H 0.75507 0.20548 0.65723
 H284 H 0.72263 0.12345 0.72262
 H285 H 0.72266 0.12236 0.77331
 H286 H 0.79696 0.24845 0.84359
 H287 H 0.79616 0.21396 0.72705
 H288 H 0.75478 0.20181 0.84236
 C289 C 0.06444 0.45690 0.07805
 C290 C 0.07637 0.47094 0.05551
 C291 C 0.06293 0.47899 0.03920
 C292 C 0.03726 0.47330 0.04508
 C293 C 0.02507 0.45875 0.06730
 C294 C 0.03849 0.45056 0.08357
 C295 C 0.07944 0.44987 0.09609
 N296 N 0.06755 0.43422 0.11667
 N297 N 0.08136 0.42887 0.13340
 C298 C 0.10766 0.43903 0.13029
 N299 N 0.11948 0.45452 0.10962
 N300 N 0.10567 0.45979 0.09287
 C301 C 0.12334 0.43422 0.14952
 C302 C 0.15097 0.44892 0.14897
 C303 C 0.16582 0.44552 0.16787
 C304 C 0.15341 0.42719 0.18758
 C305 C 0.12588 0.41198 0.18785
 C306 C 0.11096 0.41555 0.16907
 H307 H 0.09627 0.47605 0.05057
 H308 H 0.07289 0.49013 0.02222
 H309 H 0.00528 0.45400 0.07232
 H310 H 0.02871 0.43976 0.10076
 H311 H 0.16116 0.46351 0.13425
 H312 H 0.18705 0.45750 0.16739
 H313 H 0.11596 0.39763 0.20283
 H314 H 0.08974 0.40382 0.16998
 C315 C 0.53795 0.59868 0.07806
 C316 C 0.53194 0.60009 0.05220
 C317 C 0.52438 0.57866 0.03576
 C318 C 0.52315 0.55562 0.04478
 C319 C 0.53015 0.55466 0.07037
 C320 C 0.53727 0.57586 0.08687
 C321 C 0.54365 0.62023 0.09621
 N322 N 0.53981 0.61537 0.12179
 N323 N 0.54396 0.63436 0.13824
 C324 C 0.55232 0.65907 0.12986
 N325 N 0.55641 0.66405 0.10428
 N326 N 0.55203 0.64497 0.08776
 C327 C 0.55632 0.67986 0.14830
 C328 C 0.57344 0.70643 0.14269
 C329 C 0.57747 0.72584 0.16061
 C330 C 0.56407 0.71902 0.18420
 C331 C 0.54655 0.69251 0.18951
 C332 C 0.54294 0.67313 0.17190
 H333 H 0.53224 0.61741 0.04490
 H334 H 0.51915 0.57998 0.01610
 H335 H 0.52935 0.53718 0.07793
 H336 H 0.54199 0.57425 0.10664
 H337 H 0.58405 0.71216 0.12467
 H338 H 0.59108 0.74618 0.15613
 H339 H 0.53570 0.68681 0.20741
 H340 H 0.52940 0.65285 0.17664
 C341 C 0.39706 0.93769 0.07148
 C342 C 0.41617 0.96381 0.07682
 C343 C 0.43800 0.97732 0.06076
 C344 C 0.44110 0.96505 0.03894
 C345 C 0.42158 0.93922 0.03318
 C346 C 0.39986 0.92569 0.04929
 C347 C 0.37496 0.92262 0.08946
 N348 N 0.35919 0.89635 0.08654
 N349 N 0.34013 0.88249 0.10334
 C350 C 0.33595 0.89431 0.12376
 N351 N 0.35153 0.92064 0.12655
 N352 N 0.37067 0.93450 0.10978
 C353 C 0.31554 0.87862 0.14308
 C354 C 0.30876 0.89090 0.16240
 C355 C 0.29034 0.87601 0.18125
 C356 C 0.27858 0.84862 0.18128
 C357 C 0.28501 0.83630 0.16182
 C358 C 0.30321 0.85112 0.14285
 H359 H 0.41462 0.97366 0.09375
 H360 H 0.45266 0.99723 0.06569
 H361 H 0.42334 0.92920 0.01650
 H362 H 0.38545 0.90566 0.04449
 H363 H 0.31779 0.91202 0.16306
 H364 H 0.28550 0.88585 0.19604
 H365 H 0.27621 0.81518 0.16157
 H366 H 0.30800 0.84102 0.12832
 C367 C 0.93698 0.55144 0.57340
 C368 C 0.92443 0.53417 0.55281
 C369 C 0.93859 0.52707 0.53636
 C370 C 0.96554 0.53676 0.54034
 C371 C 0.97829 0.55462 0.56048
 C372 C 0.96417 0.56206 0.57673
 C373 C 0.92137 0.55696 0.59206
 N374 N 0.93287 0.57833 0.60766
 N375 N 0.91875 0.58248 0.62514
 C376 C 0.89264 0.56527 0.62789
 N377 N 0.88117 0.54399 0.61224
 N378 N 0.89522 0.53997 0.59465
 C379 C 0.87698 0.56900 0.64794
 C380 C 0.85410 0.54724 0.65745
 C381 C 0.83915 0.55039 0.67643
 C382 C 0.84645 0.57539 0.68588
 C383 C 0.86923 0.59724 0.67646
 C384 C 0.88458 0.59404 0.65778
 H385 H 0.90353 0.52581 0.54964
 H386 H 0.92818 0.51325 0.52104
 H387 H 0.99907 0.56247 0.56395
 H388 H 0.97436 0.57537 0.59247
 H389 H 0.84789 0.52770 0.65042
 H390 H 0.82167 0.53333 0.68361
 H391 H 0.87510 0.61666 0.68362
 H392 H 0.90210 0.61113 0.65075
 C393 C 0.45562 0.39066 0.57772
 C394 C 0.46964 0.39322 0.55500
 C395 C 0.47735 0.41476 0.53892
 C396 C 0.47138 0.43438 0.54521
 C397 C 0.45691 0.43163 0.56766
 C398 C 0.44903 0.40994 0.58371
 C399 C 0.44885 0.36849 0.59541
 N400 N 0.43290 0.36400 0.61598
 N401 N 0.42769 0.34461 0.63230
 C402 C 0.43829 0.32897 0.62878
 N403 N 0.45410 0.33339 0.60813
 N404 N 0.45923 0.35269 0.59179
 C405 C 0.43359 0.30817 0.64751
 C406 C 0.44896 0.29602 0.64678
 C407 C 0.44561 0.27743 0.66521
 C408 C 0.42667 0.27039 0.68459
 C409 C 0.41078 0.28193 0.68499
 C410 C 0.41431 0.30076 0.66672
 H411 H 0.47493 0.37869 0.54971
 H412 H 0.48845 0.41624 0.52177
 H413 H 0.45196 0.44639 0.57300
 H414 H 0.43826 0.40858 0.60107
 H415 H 0.46403 0.30129 0.63232
 H416 H 0.45813 0.26883 0.66462
 H417 H 0.39594 0.27662 0.69972
 H418 H 0.40204 0.30962 0.66773
 C419 C 0.61110 0.06407 0.57610
 C420 C 0.61269 0.07208 0.55043
 C421 C 0.59133 0.05850 0.53379
 C422 C 0.56816 0.03642 0.54240
 C423 C 0.56701 0.02789 0.56779
 C424 C 0.58815 0.04165 0.58448
 C425 C 0.63254 0.07961 0.59452
 N426 N 0.62746 0.07779 0.62010
 N427 N 0.64628 0.09246 0.63682
 C428 C 0.67105 0.10945 0.62870
 N429 N 0.67628 0.11111 0.60312
 N430 N 0.65735 0.09656 0.58634
 C431 C 0.69152 0.12631 0.64743
 C432 C 0.71836 0.13666 0.64201
 C433 C 0.73746 0.15248 0.66006
 C434 C 0.73001 0.15862 0.68355
 C435 C 0.70321 0.14852 0.68876
 C436 C 0.68417 0.13232 0.67103
 H437 H 0.63010 0.08932 0.54345
 H438 H 0.59280 0.06549 0.51430
 H439 H 0.54945 0.01098 0.57504
 H440 H 0.58639 0.03488 0.60409
 H441 H 0.72455 0.13226 0.62398
 H442 H 0.75804 0.16003 0.65570
 H443 H 0.69703 0.15323 0.70663
 H444 H 0.66367 0.12485 0.67566
 C445 C 0.46144 0.06391 0.92294
 C446 C 0.47696 0.07595 0.94476
 C447 C 0.48515 0.06228 0.96056
 C448 C 0.47811 0.03627 0.95489
 C449 C 0.46220 0.02403 0.93335
 C450 C 0.45389 0.03768 0.91758
 C451 C 0.45398 0.07895 0.90549
 N452 N 0.43732 0.06707 0.88548
 N453 N 0.43147 0.08087 0.86928
 C454 C 0.44209 0.10714 0.87236
 N455 N 0.45860 0.11896 0.89246
 N456 N 0.46438 0.10517 0.90868
 C457 C 0.43666 0.12277 0.85366
 C458 C 0.45121 0.15030 0.85442
 C459 C 0.44723 0.16511 0.83596
 C460 C 0.42851 0.15273 0.81647
 C461 C 0.41342 0.12528 0.81603
 C462 C 0.41753 0.11042 0.83439
 H463 H 0.48306 0.09607 0.94954
 H464 H 0.49737 0.07228 0.97702
 H465 H 0.45638 0.00399 0.92849
 H466 H 0.44194 0.02780 0.90094
 H467 H 0.46611 0.16047 0.86895
 H468 H 0.45911 0.18627 0.83657
 H469 H 0.39877 0.11540 0.80122
 H470 H 0.40589 0.08927 0.83332
 C471 C 0.59999 0.53143 0.92510
 C472 C 0.57670 0.52984 0.91616
 C473 C 0.55575 0.52338 0.93287
 C474 C 0.55743 0.51792 0.95882
 C475 C 0.58086 0.51989 0.96791
 C476 C 0.60206 0.52684 0.95124
 C477 C 0.62149 0.53690 0.90691
 N478 N 0.64666 0.54692 0.91513
 N479 N 0.66582 0.55152 0.89856
 C480 C 0.66049 0.54601 0.87318
 N481 N 0.63532 0.53593 0.86502
 N482 N 0.61624 0.53156 0.88152
 C483 C 0.68151 0.55078 0.85464
 C484 C 0.67521 0.53677 0.83140
 C485 C 0.69480 0.54151 0.81351
 C486 C 0.72100 0.56080 0.81821
 C487 C 0.72742 0.57466 0.84153
 C488 C 0.70786 0.56955 0.85971
 H489 H 0.57458 0.53345 0.89616
 H490 H 0.53792 0.52192 0.92526
 H491 H 0.58272 0.51583 0.98783
 H492 H 0.61977 0.52787 0.95864
 H493 H 0.65513 0.52199 0.82709
 H494 H 0.68949 0.53032 0.79581
 H495 H 0.74754 0.58955 0.84554
 H496 H 0.71326 0.58066 0.87745
 C497 C 0.93473 0.39509 0.92907
 C498 C 0.92323 0.39921 0.95091
 C499 C 0.93805 0.42038 0.96730
 C500 C 0.96464 0.43833 0.96189
 C501 C 0.97627 0.43370 0.94032
 C502 C 0.96153 0.41220 0.92425
 C503 C 0.91856 0.37386 0.91074
 N504 N 0.92980 0.36428 0.89444
 N505 N 0.91530 0.34592 0.87722
 C506 C 0.88903 0.33661 0.87542
 N507 N 0.87780 0.34614 0.89176
 N508 N 0.89225 0.36432 0.90913
 C509 C 0.87307 0.31700 0.85566
 C510 C 0.84957 0.31508 0.84682
 C511 C 0.83480 0.29708 0.82765
 C512 C 0.84293 0.28026 0.81745
 C513 C 0.86624 0.28194 0.82634
 C514 C 0.88133 0.30034 0.84514
 H515 H 0.90266 0.38618 0.95522
 H516 H 0.92834 0.42312 0.98372
 H517 H 0.99669 0.44689 0.93554
 H518 H 0.97092 0.40952 0.90754
 H519 H 0.84285 0.32783 0.85440
 H520 H 0.81696 0.29615 0.82079
 H521 H 0.87280 0.26915 0.81854
 H522 H 0.89933 0.30137 0.85162
 C523 C 0.54481 0.93642 0.42204
 C524 C 0.54456 0.95886 0.41349
 C525 C 0.53812 0.97327 0.43027
 C526 C 0.53140 0.96537 0.45592
 C527 C 0.53219 0.94325 0.46467
 C528 C 0.53907 0.92903 0.44794
 C529 C 0.54982 0.92025 0.40364
 N530 N 0.55770 0.90339 0.41180
 N531 N 0.56145 0.88841 0.39507
 C532 C 0.55720 0.88952 0.36957
 N533 N 0.54935 0.90638 0.36146
 N534 N 0.54582 0.92149 0.37813
 C535 C 0.56049 0.87242 0.35091
 C536 C 0.54701 0.86626 0.32737
 C537 C 0.54987 0.85010 0.30962
 C538 C 0.56673 0.84023 0.31474
 C539 C 0.58027 0.84638 0.33825
 C540 C 0.57699 0.86215 0.35630
 H541 H 0.54908 0.96515 0.39369
 H542 H 0.53763 0.99018 0.42291
 H543 H 0.52716 0.93673 0.48436
 H544 H 0.53906 0.91179 0.45506
 H545 H 0.53395 0.87364 0.32279
 H546 H 0.53893 0.84531 0.29179
 H547 H 0.59338 0.83898 0.34258
 H548 H 0.58767 0.86665 0.37427
 C549 C 0.38840 0.45326 0.43079
 C550 C 0.39247 0.46902 0.45255
 C551 C 0.41450 0.47686 0.46816
 C552 C 0.43306 0.46923 0.46231
 C553 C 0.42866 0.45292 0.44095
 C554 C 0.40654 0.44495 0.42541
 C555 C 0.36605 0.44654 0.41322
 N556 N 0.36076 0.42970 0.39329
 N557 N 0.34149 0.42471 0.37679
 C558 C 0.32674 0.43641 0.37946
 N559 N 0.33189 0.45307 0.39951
 N560 N 0.35110 0.45800 0.41605
 C561 C 0.30626 0.43201 0.36032
 C562 C 0.29447 0.44770 0.36053
 C563 C 0.27632 0.44468 0.34162
 C564 C 0.26943 0.42579 0.32222
 C565 C 0.28060 0.40962 0.32231
 C566 C 0.29894 0.41277 0.34111
 H567 H 0.37884 0.47567 0.45734
 H568 H 0.41730 0.48941 0.48449
 H569 H 0.44255 0.44663 0.43597
 H570 H 0.40401 0.43279 0.40883
 H571 H 0.29966 0.46273 0.37499
 H572 H 0.26795 0.45739 0.34183
 H573 H 0.27539 0.39482 0.30757
 H574 H 0.30754 0.40028 0.34045
 C575 C 0.06904 0.61509 0.42495
 C576 C 0.04261 0.59683 0.41953
 C577 C 0.02827 0.57526 0.43555
 C578 C 0.03997 0.57155 0.45746
 C579 C 0.06617 0.59018 0.46327
 C580 C 0.08056 0.61165 0.44716
 C581 C 0.08478 0.63702 0.40708
 N582 N 0.11121 0.65211 0.41006
 N583 N 0.12556 0.67106 0.39338
 C584 C 0.11410 0.67581 0.37305
 N585 N 0.08763 0.66089 0.37021
 N586 N 0.07328 0.64187 0.38685
 C587 C 0.13025 0.69611 0.35385
 C588 C 0.11830 0.70301 0.33435
 C589 C 0.13356 0.72124 0.31556
 C590 C 0.16102 0.73273 0.31578
 C591 C 0.17303 0.72624 0.33545
 C592 C 0.15783 0.70819 0.35435
 H593 H 0.03311 0.59886 0.40259
 H594 H 0.00809 0.56130 0.43058
 H595 H 0.07577 0.58791 0.48000
 H596 H 0.10083 0.62539 0.45200
 H597 H 0.09714 0.69418 0.33347
 H598 H 0.12396 0.72614 0.30061
 H599 H 0.19420 0.73486 0.33589
 H600 H 0.16769 0.70333 0.36904
 C601 C 0.93890 0.54343 0.92375
 C602 C 0.93248 0.53955 0.94999
 C603 C 0.94661 0.53269 0.96679
 C604 C 0.96769 0.53003 0.95774
 C605 C 0.97472 0.53492 0.93171
 C606 C 0.96036 0.54136 0.91486
 C607 C 0.92264 0.54839 0.90546
 N608 N 0.92260 0.54289 0.88012
 N609 N 0.90733 0.54637 0.86363
 C610 C 0.89158 0.55566 0.87176
 N611 N 0.89176 0.56140 0.89708
 N612 N 0.90689 0.55770 0.91363
 C613 C 0.87442 0.55911 0.85333
 C614 C 0.86524 0.57655 0.85855
 C615 C 0.84964 0.58020 0.84062
 C616 C 0.84265 0.56619 0.81739
 C617 C 0.85123 0.54826 0.81250
 C618 C 0.86720 0.54497 0.83014
 H619 H 0.91602 0.54098 0.95739
 H620 H 0.94078 0.52908 0.98678
 H621 H 0.99082 0.53295 0.92414
 H622 H 0.96590 0.54442 0.89478
 H623 H 0.87052 0.58771 0.87626
 H624 H 0.84313 0.59406 0.84477
 H625 H 0.84574 0.53698 0.79485
 H626 H 0.87371 0.53117 0.82571
 C627 C 0.44913 0.38376 0.92920
 C628 C 0.44272 0.40311 0.92318
 C629 C 0.45075 0.42492 0.93914
 C630 C 0.46531 0.42786 0.96163
 C631 C 0.47081 0.40792 0.96808
 C632 C 0.46292 0.38624 0.95203
 C633 C 0.44263 0.36178 0.91126
 N634 N 0.45316 0.34609 0.91464
 N635 N 0.44857 0.32723 0.89782
 C636 C 0.43318 0.32318 0.87691
 N637 N 0.42238 0.33866 0.87367
 N638 N 0.42705 0.35760 0.89046
 C639 C 0.42929 0.30312 0.85751
 C640 C 0.41057 0.29623 0.83782
 C641 C 0.40796 0.27831 0.81879
 C642 C 0.42420 0.26718 0.81892
 C643 C 0.44257 0.27366 0.83878
 C644 C 0.44500 0.29134 0.85795
 H645 H 0.43207 0.40178 0.90576
 H646 H 0.44595 0.43971 0.93352
 H647 H 0.48181 0.40926 0.98526
 H648 H 0.46800 0.37159 0.95737
 H649 H 0.39807 0.30483 0.83700
 H650 H 0.39356 0.27341 0.80369
 H651 H 0.45535 0.26535 0.83916
 H652 H 0.45967 0.29625 0.87277
 C653 C 0.61252 0.06084 0.92216
 C654 C 0.61259 0.07097 0.94662
 C655 C 0.59103 0.05770 0.96305
 C656 C 0.56909 0.03372 0.95554
 C657 C 0.56973 0.02308 0.93147
 C658 C 0.59104 0.03662 0.91491
 C659 C 0.63388 0.07605 0.90364
 N660 N 0.62905 0.07275 0.87802
 N661 N 0.64771 0.08732 0.86114
 C662 C 0.67207 0.10564 0.86919
 N663 N 0.67707 0.10874 0.89482
 N664 N 0.65829 0.09432 0.91173
 C665 C 0.69222 0.12259 0.85034
 C666 C 0.71914 0.13323 0.85551
 C667 C 0.73798 0.14944 0.83750
 C668 C 0.73020 0.15581 0.81437
 C669 C 0.70329 0.14530 0.80939
 C670 C 0.68450 0.12860 0.82702
 H671 H 0.62889 0.08965 0.95267
 H672 H 0.59143 0.06649 0.98146
 H673 H 0.55339 0.00465 0.92494
 H674 H 0.59057 0.02824 0.89625
 H675 H 0.72557 0.12879 0.87332
 H676 H 0.75863 0.15726 0.84168
 H677 H 0.69683 0.15017 0.79183
 H678 H 0.66390 0.12088 0.82265
 C679 C 0.06393 0.46012 0.42886
 C680 C 0.03848 0.45454 0.42220
 C681 C 0.02494 0.46335 0.43756
 C682 C 0.03646 0.47786 0.46011
 C683 C 0.06162 0.48263 0.46718
 C684 C 0.07520 0.47398 0.45168
 C685 C 0.07907 0.45251 0.41158
 N686 N 0.10521 0.46225 0.41529
 N687 N 0.11915 0.45655 0.39904
 C688 C 0.10753 0.44079 0.37841
 N689 N 0.08132 0.43079 0.37486
 N690 N 0.06739 0.43657 0.39107
 C691 C 0.12332 0.43560 0.35959
 C692 C 0.11101 0.41662 0.34021
 C693 C 0.12597 0.41280 0.32164
 C694 C 0.15350 0.42807 0.32193
 C695 C 0.16586 0.44666 0.34152
 C696 C 0.15094 0.45031 0.36023
 H697 H 0.02920 0.44388 0.40475
 H698 H 0.00558 0.45910 0.43147
 H699 H 0.07118 0.49359 0.48442
 H700 H 0.09471 0.47846 0.45748
 H701 H 0.08979 0.40486 0.33924
 H702 H 0.11610 0.39824 0.30676
 H703 H 0.18708 0.45868 0.34202
 H704 H 0.16107 0.46512 0.37483
 C705 C 0.54010 0.60227 0.42343
 C706 C 0.53515 0.60460 0.44944
 C707 C 0.52803 0.58368 0.46636
 C708 C 0.52619 0.56024 0.45766
 C709 C 0.53208 0.55832 0.43187
 C710 C 0.53876 0.57901 0.41491
 C711 C 0.54546 0.62337 0.40492
 N712 N 0.54093 0.61786 0.37948
 N713 N 0.54483 0.63647 0.36272
 C714 C 0.55360 0.66144 0.37066
 N715 N 0.55838 0.66706 0.39609
 N716 N 0.55426 0.64836 0.41291
 C717 C 0.55737 0.68183 0.35191
 C718 C 0.57453 0.70852 0.35709
 C719 C 0.57832 0.72755 0.33891
 C720 C 0.56464 0.72024 0.31547
 C721 C 0.54709 0.69361 0.31058
 C722 C 0.54371 0.67460 0.32846
 H723 H 0.53598 0.62227 0.45654
 H724 H 0.52367 0.58574 0.48616
 H725 H 0.53077 0.54049 0.42456
 H726 H 0.54264 0.57669 0.39503
 H727 H 0.58536 0.71463 0.37498
 H728 H 0.59195 0.74798 0.34306
 H729 H 0.53604 0.68754 0.29279
 H730 H 0.53013 0.65423 0.32404
 C731 C 0.39690 0.93967 0.42519
 C732 C 0.41655 0.96539 0.41931
 C733 C 0.43838 0.97897 0.43537
 C734 C 0.44103 0.96719 0.45782
 C735 C 0.42083 0.94175 0.46407
 C736 C 0.39914 0.92817 0.44793
 C737 C 0.37477 0.92446 0.40725
 N738 N 0.35860 0.89832 0.41063
 N739 N 0.33950 0.88430 0.39390
 C740 C 0.33567 0.89582 0.37308
 N741 N 0.35165 0.92202 0.36982
 N742 N 0.37083 0.93604 0.38652
 C743 C 0.31523 0.87991 0.35383
 C744 C 0.30862 0.89197 0.33423
 C745 C 0.29020 0.87686 0.31543
 C746 C 0.27828 0.84944 0.31572
 C747 C 0.28451 0.83735 0.33548
 C748 C 0.30269 0.85240 0.35442
 H749 H 0.41541 0.97486 0.40196
 H750 H 0.45337 0.99855 0.42990
 H751 H 0.42196 0.93196 0.48121
 H752 H 0.38427 0.90846 0.45316
 H753 H 0.31780 0.91309 0.33330
 H754 H 0.28551 0.88653 0.30041
 H755 H 0.27558 0.81623 0.33599
 H756 H 0.30734 0.84246 0.36918
 C757 C 0.54523 0.93450 0.07501
 C758 C 0.54513 0.95710 0.08343
 C759 C 0.53892 0.97152 0.06651
 C760 C 0.53227 0.96346 0.04086
 C761 C 0.53290 0.94117 0.03225
 C762 C 0.53955 0.92695 0.04912
 C763 C 0.55002 0.91838 0.09357
 N764 N 0.55779 0.90135 0.08559
 N765 N 0.56141 0.88647 0.10247
 C766 C 0.55713 0.88785 0.12794
 N767 N 0.54937 0.90488 0.13585
 N768 N 0.54598 0.91988 0.11904
 C769 C 0.56033 0.87092 0.14677
 C770 C 0.54688 0.86511 0.17031
 C771 C 0.54972 0.84918 0.18827
 C772 C 0.56653 0.83919 0.18335
 C773 C 0.58003 0.84496 0.15983
 C774 C 0.57677 0.86051 0.14158
 H775 H 0.54961 0.96353 0.10321
 H776 H 0.53856 0.98856 0.07377
 H777 H 0.52791 0.93453 0.01257
 H778 H 0.53941 0.90958 0.04211
 H779 H 0.53386 0.87261 0.17475
 H780 H 0.53882 0.84468 0.20611
 H781 H 0.59310 0.83746 0.15565
 H782 H 0.58742 0.86474 0.12361
 C783 C 0.38663 0.44971 0.07791
 C784 C 0.40521 0.44197 0.08324
 C785 C 0.42677 0.44935 0.06700
 C786 C 0.43014 0.46449 0.04500
 C787 C 0.41115 0.47155 0.03929
 C788 C 0.38970 0.46431 0.05557
 C789 C 0.36478 0.44358 0.09599
 N790 N 0.34955 0.45469 0.09297
 N791 N 0.33068 0.45021 0.10979
 C792 C 0.32616 0.43437 0.13034
 N793 N 0.34122 0.42303 0.13324
 N794 N 0.36016 0.42757 0.11645
 C795 C 0.30593 0.43040 0.14965
 C796 C 0.29882 0.41156 0.16915
 C797 C 0.28056 0.40871 0.18796
 C798 C 0.26930 0.42481 0.18777
 C799 C 0.27605 0.44334 0.16813
 C800 C 0.29409 0.44603 0.14920
 H801 H 0.40345 0.43070 0.10027
 H802 H 0.44102 0.44354 0.07190
 H803 H 0.41312 0.48318 0.02248
 H804 H 0.37571 0.47048 0.05077
 H805 H 0.30746 0.39911 0.16999
 H806 H 0.27547 0.39419 0.20290
 H807 H 0.26763 0.45600 0.16771
 H808 H 0.29914 0.46077 0.13452
 C809 C 0.06986 0.61240 0.07328
 C810 C 0.08155 0.60806 0.05165
 C811 C 0.06719 0.58607 0.03605
 C812 C 0.04087 0.56782 0.04181
 C813 C 0.02900 0.57246 0.06307
 C814 C 0.04330 0.59453 0.07857
 C815 C 0.08555 0.63477 0.09078
 N816 N 0.07395 0.64025 0.11054
 N817 N 0.08823 0.65958 0.12697
 C818 C 0.11475 0.67422 0.12439
 N819 N 0.12633 0.66887 0.10451
 N820 N 0.11204 0.64960 0.08804
 C821 C 0.13082 0.69481 0.14345
 C822 C 0.15840 0.70681 0.14318
 C823 C 0.17350 0.72509 0.16202
 C824 C 0.16139 0.73190 0.18139
 C825 C 0.13394 0.72050 0.18137
 C826 C 0.11878 0.70205 0.16264
 H827 H 0.10192 0.62148 0.04693
 H828 H 0.07692 0.58307 0.01981
 H829 H 0.00872 0.55882 0.06798
 H830 H 0.03366 0.59726 0.09505
 H831 H 0.16833 0.70169 0.12873
 H832 H 0.19467 0.73365 0.16176
 H833 H 0.12427 0.72565 0.19609
 H834 H 0.09762 0.69330 0.16334
 C835 C 0.45981 0.06569 0.57370
 C836 C 0.47536 0.07773 0.55193
 C837 C 0.48342 0.06400 0.53597
 C838 C 0.47626 0.03794 0.54146
 C839 C 0.46029 0.02571 0.56294
 C840 C 0.45209 0.03941 0.57885
 C841 C 0.45256 0.08080 0.59139
 N842 N 0.43574 0.06888 0.61125
 N843 N 0.43011 0.08271 0.62772
 C844 C 0.44112 0.10906 0.62506
 N845 N 0.45778 0.12093 0.60510
 N846 N 0.46334 0.10710 0.58860
 C847 C 0.43596 0.12468 0.64411
 C848 C 0.45097 0.15221 0.64393
 C849 C 0.44731 0.16693 0.66283
 C850 C 0.42844 0.15448 0.68216
 C851 C 0.41288 0.12707 0.68198
 C852 C 0.41667 0.11229 0.66321
 H853 H 0.48157 0.09790 0.54731
 H854 H 0.49569 0.07400 0.51956
 H855 H 0.45439 0.00563 0.56767
 H856 H 0.44013 0.02953 0.59546
 H857 H 0.46601 0.16241 0.62955
 H858 H 0.45956 0.18807 0.66270
 H859 H 0.39812 0.11712 0.69668
 H860 H 0.40467 0.09115 0.66382
 C861 C 0.60838 0.54159 0.57484
 C862 C 0.59259 0.55314 0.57729
 C863 C 0.57083 0.54540 0.56126
 C864 C 0.56467 0.52625 0.54222
 C865 C 0.58109 0.51549 0.53910
 C866 C 0.60260 0.52294 0.55536
 C867 C 0.62989 0.54785 0.59329
 N868 N 0.63909 0.53104 0.59657
 N869 N 0.65750 0.53584 0.61402
 C870 C 0.66762 0.55773 0.62884
 N871 N 0.65867 0.57474 0.62539
 N872 N 0.64008 0.56983 0.60804
 C873 C 0.68746 0.56243 0.64876
 C874 C 0.70419 0.58775 0.65848
 C875 C 0.72307 0.59192 0.67712
 C876 C 0.72512 0.57077 0.68658
 C877 C 0.70818 0.54548 0.67722
 C878 C 0.68969 0.54137 0.65832
 H879 H 0.59652 0.56754 0.59214
 H880 H 0.55858 0.55411 0.56405
 H881 H 0.57683 0.50066 0.52463
 H882 H 0.61450 0.51381 0.55287
 H883 H 0.70293 0.60434 0.65143
 H884 H 0.73605 0.61156 0.68420
 H885 H 0.70950 0.52896 0.68443
 H886 H 0.67695 0.52162 0.65140
 C887 C 0.93322 0.40159 0.57540
 C888 C 0.96067 0.41682 0.57799
 C889 C 0.97528 0.43803 0.56160
 C890 C 0.96278 0.44412 0.54203
 C891 C 0.93545 0.42836 0.53895
 C892 C 0.92082 0.40746 0.55558
 C893 C 0.91745 0.38027 0.59377
 N894 N 0.89146 0.37168 0.59700
 N895 N 0.87732 0.35307 0.61405
 C896 C 0.88854 0.34213 0.62846
 N897 N 0.91450 0.35057 0.62510
 N898 N 0.92870 0.36935 0.60818
 C899 C 0.87284 0.32175 0.64766
 C900 C 0.88109 0.30452 0.65655
 C901 C 0.86612 0.28524 0.67464
 C902 C 0.84291 0.28316 0.68442
 C903 C 0.83478 0.30050 0.67586
 C904 C 0.84946 0.31945 0.65743
 H905 H 0.97078 0.41281 0.59312
 H906 H 0.99632 0.44981 0.56439
 H907 H 0.92525 0.43261 0.52410
 H908 H 0.89972 0.39598 0.55299
 H909 H 0.89898 0.30579 0.64934
 H910 H 0.87268 0.27205 0.68120
 H911 H 0.81701 0.29925 0.68340
 H912 H 0.84271 0.33256 0.65112
   
