data_POSCAR
  _audit_creation_date              2014-09-24
  _audit_creation_method            'ToBaCCo'
  _symmetry_space_group_name_H-M    'P1'
  _symmetry_Int_Tables_number       1
  _symmetry_cell_setting            triclinic
  loop_
  _symmetry_equiv_pos_as_xyz
 x,y,z
_cell_length_a 38.9069
_cell_length_b 37.1337
_cell_length_c 7.4028
_cell_angle_alpha 90.169500
_cell_angle_beta 90.519800
_cell_angle_gamma 90.072900
loop_
  _atom_site_label
  _atom_site_type_symbol
  _atom_site_fract_x
  _atom_site_fract_y
  _atom_site_fract_z
C1 C 0.17391 0.21757 0.26339
 C2 C 0.15726 0.25104 0.25108
 C3 C 0.17522 0.28350 0.25987
 C4 C 0.21135 0.28325 0.27773
 C5 C 0.22911 0.24991 0.28731
 C6 C 0.21046 0.21693 0.28138
 C7 C 0.22916 0.18450 0.28349
 C8 C 0.26476 0.18427 0.30178
 C9 C 0.28388 0.21646 0.30505
 C10 C 0.26568 0.24968 0.30043
 C11 C 0.23009 0.31555 0.28711
 C12 C 0.26567 0.31532 0.30162
 C13 C 0.28394 0.28277 0.30977
 C14 C 0.32007 0.28254 0.32629
 C15 C 0.33758 0.24987 0.33497
 C16 C 0.32044 0.21663 0.32223
 H17 H 0.21675 0.15864 0.26880
 H18 H 0.27689 0.15827 0.31413
 H19 H 0.21742 0.34146 0.28362
 H20 H 0.27872 0.34106 0.30609
 H21 H 0.12944 0.25202 0.23961
 H22 H 0.36542 0.25054 0.34597
 C23 C 0.67383 0.21644 0.18920
 C24 C 0.65676 0.24980 0.19056
 C25 C 0.67463 0.28246 0.19534
 C26 C 0.71089 0.28250 0.18939
 C27 C 0.72886 0.24933 0.18257
 C28 C 0.71046 0.21619 0.18132
 C29 C 0.72916 0.18398 0.16051
 C30 C 0.76488 0.18398 0.15681
 C31 C 0.78352 0.21632 0.16436
 C32 C 0.76539 0.24935 0.17457
 C33 C 0.72959 0.31494 0.18531
 C34 C 0.76529 0.31491 0.17797
 C35 C 0.78371 0.28244 0.17387
 C36 C 0.82000 0.28215 0.16460
 C37 C 0.83751 0.24935 0.15995
 C38 C 0.81985 0.21658 0.15978
 H39 H 0.71649 0.15829 0.14327
 H40 H 0.77772 0.15825 0.14524
 H41 H 0.71676 0.34077 0.18511
 H42 H 0.77830 0.34066 0.17400
 H43 H 0.62899 0.25058 0.20243
 H44 H 0.86536 0.24935 0.15295
 C45 C 0.67980 0.71766 0.70504
 C46 C 0.66207 0.75035 0.69595
 C47 C 0.67950 0.78317 0.68391
 C48 C 0.71587 0.78365 0.68396
 C49 C 0.73427 0.75086 0.69966
 C50 C 0.71618 0.71771 0.71000
 C51 C 0.73489 0.68555 0.72743
 C52 C 0.77063 0.68578 0.72905
 C53 C 0.78905 0.71823 0.71621
 C54 C 0.77082 0.75117 0.70412
 C55 C 0.73429 0.81601 0.66835
 C56 C 0.77003 0.81625 0.66996
 C57 C 0.78902 0.78437 0.69596
 C58 C 0.82568 0.78445 0.70363
 C59 C 0.84296 0.75120 0.70759
 C60 C 0.82528 0.71855 0.71633
 H61 H 0.72208 0.65983 0.74100
 H62 H 0.78372 0.66017 0.74086
 H63 H 0.72125 0.84156 0.65344
 H64 H 0.78254 0.84182 0.64721
 H65 H 0.63419 0.75017 0.69109
 H66 H 0.87080 0.75051 0.71715
 C67 C 0.18213 0.71631 0.91379
 C68 C 0.16588 0.74942 0.94579
 C69 C 0.18233 0.78259 0.91782
 C70 C 0.21770 0.78270 0.87079
 C71 C 0.23530 0.74948 0.84754
 C72 C 0.21758 0.71625 0.86880
 C73 C 0.23646 0.68397 0.85789
 C74 C 0.27115 0.68402 0.81506
 C75 C 0.28892 0.71643 0.78853
 C76 C 0.27102 0.74948 0.80709
 C77 C 0.23665 0.81498 0.85965
 C78 C 0.27122 0.81494 0.81423
 C79 C 0.28892 0.78253 0.78716
 C80 C 0.32412 0.78226 0.74116
 C81 C 0.34107 0.74946 0.71801
 C82 C 0.32421 0.71669 0.74442
 H83 H 0.22491 0.65817 0.88687
 H84 H 0.28399 0.65827 0.80511
 H85 H 0.22526 0.84081 0.88959
 H86 H 0.28408 0.84068 0.80327
 H87 H 0.13855 0.74945 0.97393
 H88 H 0.36808 0.74944 0.68264
 O89 O 1.03587 0.04064 -0.03422
 O90 O 0.97158 -0.02491 -0.19427
 O91 O 0.96970 0.04131 -0.07886
 O92 O 1.03808 -0.02563 -0.14979
 O93 O 1.03169 -0.04373 0.13219
 O94 O 0.96325 0.02305 0.20284
 O95 O 0.96535 -0.04328 0.08722
 O96 O 1.02977 0.02266 0.24800
 Cu97 Cu 1.00451 0.00987 -0.14172
 Cu98 Cu 0.99684 -0.01241 0.19539
 C99 C 1.04355 0.04307 0.13196
 C100 C 0.95765 -0.04538 -0.07922
 C101 C 0.95504 0.04363 0.07292
 C102 C 1.04632 -0.04614 -0.01968
 O103 O 0.53499 0.45698 0.57295
 O104 O 0.46937 0.52278 0.71290
 O105 O 0.46840 0.45681 0.59295
 O106 O 0.53628 0.52275 0.69948
 O107 O 0.53326 0.54220 0.41779
 O108 O 0.46529 0.47610 0.31099
 O109 O 0.46665 0.54203 0.43083
 O110 O 0.53206 0.47650 0.29145
 Cu111 Cu 0.50263 0.48766 0.67232
 Cu112 Cu 0.49905 0.51138 0.33487
 C113 C 0.54440 0.45537 0.40958
 C114 C 0.45698 0.54368 0.59355
 C115 C 0.45545 0.45515 0.43552
 C116 C 0.54606 0.54388 0.57573
 O117 O -0.03528 0.54285 0.07003
 O118 O 0.02974 0.47706 0.21939
 O119 O 0.03118 0.54327 0.10582
 O120 O -0.03700 0.47684 0.18928
 O121 O -0.03244 0.45833 -0.09362
 O122 O 0.03589 0.52496 -0.17738
 O123 O 0.03411 0.45870 -0.06381
 O124 O -0.03087 0.52439 -0.21297
 Cu125 Cu -0.00336 0.51213 0.17387
 Cu126 Cu 0.00212 0.48950 -0.16483
 C127 C -0.04393 0.54498 -0.09508
 C128 C 0.04287 0.45658 0.10103
 C129 C 0.04502 0.54548 -0.04804
 C130 C -0.04607 0.45611 0.06091
 O131 O 0.53083 1.02296 0.25529
 O132 O 0.46531 0.95696 0.39119
 O133 O 0.46398 1.02282 0.27005
 O134 O 0.53200 0.95696 0.37625
 O135 O 0.53491 0.97629 0.65877
 O136 O 0.46699 1.04199 0.55285
 O137 O 0.46805 0.97622 0.67378
 O138 O 0.53358 1.04226 0.53782
 Cu139 Cu 0.49777 0.98773 0.29533
 Cu140 Cu 0.50120 1.01135 0.63364
 C141 C 0.54309 1.04405 0.37479
 C142 C 0.45569 0.95525 0.55404
 C143 C 0.45413 1.04373 0.39519
 C144 C 0.54477 0.95527 0.53415
 C145 C 1.10939 0.12577 0.23346
 C146 C 1.13403 0.12834 0.37193
 C147 C 1.15564 0.15853 0.38269
 C148 C 1.15313 0.18630 0.25336
 C149 C 1.12755 0.18357 0.11790
 C150 C 1.10616 0.15351 0.10744
 C151 C 1.08719 0.09492 0.21577
 C152 C 1.06763 0.07038 0.18601
 H153 H 1.13640 0.10720 0.47177
 H154 H 1.17372 0.16056 0.49449
 H155 H 1.12468 0.20435 0.01637
 H156 H 1.08711 0.15185 -0.00005
 C157 C 0.61622 0.62363 0.66489
 C158 C 0.64039 0.63101 0.53088
 C159 C 0.66180 0.66111 0.54677
 C160 C 0.65929 0.68407 0.69711
 C161 C 0.63528 0.67637 0.83213
 C162 C 0.61389 0.64619 0.81625
 C163 C 0.59227 0.59444 0.64032
 C164 C 0.57153 0.57082 0.61415
 H165 H 0.64213 0.61398 0.41216
 H166 H 0.67978 0.66702 0.44002
 H167 H 0.63279 0.69401 0.94808
 H168 H 0.59505 0.64092 0.91975
 C169 C -0.11631 0.37575 0.12249
 C170 C -0.12357 0.35466 -0.03032
 C171 C -0.14492 0.32457 -0.01658
 C172 C -0.15937 0.31541 0.14998
 C173 C -0.15250 0.33683 0.30267
 C174 C -0.13098 0.36693 0.28894
 C175 C -0.09247 0.40523 0.10824
 C176 C -0.07168 0.42901 0.09009
 H177 H -0.11226 0.36112 -0.15949
 H178 H -0.14989 0.30816 -0.13529
 H179 H -0.16327 0.32983 0.43235
 H180 H -0.12535 0.38292 0.40827
 C181 C 0.38683 0.87561 0.66155
 C182 C 0.37581 0.85492 0.51350
 C183 C 0.35470 0.82497 0.53952
 C184 C 0.34424 0.81556 0.71387
 C185 C 0.35494 0.83658 0.86208
 C186 C 0.37617 0.86655 0.83594
 C187 C 0.41042 0.90490 0.63330
 C188 C 0.43081 0.92847 0.60182
 H189 H 0.38407 0.86155 0.37826
 H190 H 0.34686 0.80882 0.42419
 H191 H 0.34737 0.82934 0.99768
 H192 H 0.38473 0.88221 0.95164
 C193 C -0.11198 0.62517 -0.20823
 C194 C -0.12221 0.64581 -0.05952
 C195 C -0.14322 0.67585 -0.08441
 C196 C -0.15421 0.68549 -0.25848
 C197 C -0.14436 0.66458 -0.40753
 C198 C -0.12328 0.63443 -0.38233
 C199 C -0.08866 0.59562 -0.18024
 C200 C -0.06850 0.57187 -0.14705
 H201 H -0.11344 0.63899 0.07529
 H202 H -0.15052 0.69194 0.03131
 H203 H -0.15257 0.67191 -0.54279
 H204 H -0.11539 0.61872 -0.49824
 C205 C 0.38495 1.12491 0.33526
 C206 C 0.38827 1.15192 0.46607
 C207 C 0.36670 1.18184 0.46208
 C208 C 0.34084 1.18513 0.32852
 C209 C 0.33795 1.15791 0.19568
 C210 C 0.35980 1.12792 0.19967
 C211 C 0.40806 1.09471 0.34229
 C212 C 0.42858 1.07066 0.35997
 H213 H 0.40772 1.14993 0.57132
 H214 H 0.36982 1.20218 0.56625
 H215 H 0.31959 1.16038 0.08549
 H216 H 0.35735 1.10738 0.09608
 C217 C 1.11707 -0.12636 -0.06019
 C218 C 1.11665 -0.15192 0.07795
 C219 C 1.13865 -0.18152 0.07218
 C220 C 1.16201 -0.18586 -0.07084
 C221 C 1.16213 -0.15987 -0.20965
 C222 C 1.13990 -0.13028 -0.20380
 C223 C 1.09313 -0.09690 -0.05504
 C224 C 1.07217 -0.07316 -0.04334
 H225 H 1.09903 -0.14918 0.18975
 H226 H 1.13772 -0.20086 0.18138
 H227 H 1.17842 -0.16315 -0.32644
 H228 H 1.14010 -0.11086 -0.31268
 C229 C 0.61221 0.37587 0.28238
 C230 C 0.63666 0.36556 0.41219
 C231 C 0.65757 0.33564 0.38173
 C232 C 0.65435 0.31582 0.22053
 C233 C 0.63000 0.32641 0.09005
 C234 C 0.60908 0.35639 0.12070
 C235 C 0.58894 0.40493 0.32083
 C236 C 0.56890 0.42847 0.35839
 H237 H 0.63902 0.38017 0.53863
 H238 H 0.67578 0.32743 0.48523
 H239 H 0.62694 0.31116 -0.03403
 H240 H 0.59003 0.36393 0.02014
 C241 C 0.88925 -0.12394 -0.22011
 C242 C 0.85845 -0.12698 -0.12544
 C243 C 0.83691 -0.15665 -0.15417
 C244 C 0.84570 -0.18377 -0.27937
 C245 C 0.87685 -0.18018 -0.37414
 C246 C 0.89828 -0.15045 -0.34536
 C247 C 0.91284 -0.09518 -0.17825
 C248 C 0.93310 -0.07194 -0.13685
 H249 H 0.85160 -0.10703 -0.02495
 H250 H 0.81425 -0.15923 -0.07123
 H251 H 0.88460 -0.20034 -0.47170
 H252 H 0.92227 -0.14855 -0.41788
 C253 C 0.38421 0.37610 0.35809
 C254 C 0.38365 0.35507 0.20079
 C255 C 0.36207 0.32502 0.18888
 C256 C 0.34081 0.31590 0.33400
 C257 C 0.34108 0.33731 0.49046
 C258 C 0.36271 0.36732 0.50237
 C259 C 0.40853 0.40508 0.37717
 C260 C 0.42962 0.42849 0.39944
 H261 H 0.40041 0.36142 0.08921
 H262 H 0.36228 0.30853 0.06787
 H263 H 0.32509 0.33032 0.60414
 H264 H 0.36322 0.38320 0.62538
 C265 C 0.11623 0.62541 -0.08375
 C266 C 0.11538 0.65043 0.05752
 C267 C 0.13757 0.67995 0.05826
 C268 C 0.16157 0.68479 -0.08127
 C269 C 0.16215 0.65931 -0.22333
 C270 C 0.13969 0.62981 -0.22413
 C271 C 0.09218 0.59594 -0.08395
 C272 C 0.07107 0.57227 -0.07379
 H273 H 0.09728 0.64730 0.16678
 H274 H 0.13628 0.69882 0.16991
 H275 H 0.17899 0.66298 -0.33763
 H276 H 0.14024 0.61082 -0.33554
 C277 C 0.61060 1.12448 0.25719
 C278 C 0.64100 1.12807 0.35800
 C279 C 0.66225 1.15803 0.33368
 C280 C 0.65363 1.18484 0.20638
 C281 C 0.62266 1.18097 0.10731
 C282 C 0.60153 1.15095 0.13166
 C283 C 0.58751 1.09502 0.29176
 C284 C 0.56756 1.07118 0.32605
 H285 H 0.64786 1.10817 0.45879
 H286 H 0.68472 1.16093 0.42004
 H287 H 0.61499 1.20097 0.00869
 H288 H 0.57783 1.14866 0.05445
 C289 C 0.11229 0.37754 0.21053
 C290 C 0.13537 0.36857 0.07338
 C291 C 0.15662 0.33847 0.09160
 C292 C 0.15500 0.31714 0.24738
 C293 C 0.13218 0.32648 0.38568
 C294 C 0.11094 0.35663 0.36740
 C295 C 0.08834 0.40654 0.18328
 C296 C 0.06776 0.42997 0.15174
 H297 H 0.13634 0.38431 -0.04950
 H298 H 0.17377 0.33129 -0.01714
 H299 H 0.13044 0.31007 0.50599
 H300 H 0.09295 0.36314 0.47338
 C301 C 0.61516 0.87594 0.62323
 C302 C 0.63526 0.86412 0.47865
 C303 C 0.65686 0.83434 0.49955
 C304 C 0.65859 0.81621 0.66547
 C305 C 0.63860 0.82828 0.81036
 C306 C 0.61704 0.85810 0.78944
 C307 C 0.59114 0.90496 0.59741
 C308 C 0.57033 0.92845 0.57148
 H309 H 0.63373 0.87749 0.34896
 H310 H 0.67177 0.82500 0.38579
 H311 H 0.63943 0.81431 0.93857
 H312 H 0.60139 0.86684 0.90164
 C313 C 0.88397 0.12324 0.12995
 C314 C 0.86391 0.13334 -0.01965
 C315 C 0.84227 0.16328 -0.00877
 C316 C 0.84051 0.18326 0.15203
 C317 C 0.86034 0.17283 0.30221
 C318 C 0.88193 0.14286 0.29133
 C319 C 0.90817 0.09418 0.11415
 C320 C 0.92920 0.07063 0.09755
 H321 H 0.86552 0.11851 -0.14556
 H322 H 0.82739 0.17131 -0.12627
 H323 H 0.85944 0.18825 0.42655
 H324 H 0.89753 0.13544 0.40737
 C325 C 0.38762 0.62327 0.68840
 C326 C 0.37763 0.64300 0.53574
 C327 C 0.35631 0.67299 0.55384
 C328 C 0.34461 0.68338 0.72474
 C329 C 0.35426 0.66330 0.87746
 C330 C 0.37571 0.63330 0.85928
 C331 C 0.41140 0.59393 0.66798
 C332 C 0.43196 0.57033 0.64057
 H333 H 0.38682 0.63557 0.40301
 H334 H 0.34926 0.68839 0.43517
 H335 H 0.34569 0.67129 1.01044
 H336 H 0.38347 0.61835 0.97821
   
