data_POSCAR
  _audit_creation_date              2014-09-24
  _audit_creation_method            'ToBaCCo'
  _symmetry_space_group_name_H-M    'P1'
  _symmetry_Int_Tables_number       1
  _symmetry_cell_setting            triclinic
  loop_
  _symmetry_equiv_pos_as_xyz
 x,y,z
_cell_length_a 17.7161
_cell_length_b 18.0623
_cell_length_c 17.9699
_cell_angle_alpha 90.361200
_cell_angle_beta 94.028400
_cell_angle_gamma 91.279100
loop_
  _atom_site_label
  _atom_site_type_symbol
  _atom_site_fract_x
  _atom_site_fract_y
  _atom_site_fract_z
C1 C 0.62387 0.69438 -0.01067
 C2 C 0.64458 0.62106 -0.02400
 C3 C 0.58739 0.56526 -0.02869
 C4 C 0.51270 0.58007 -0.01227
 C5 C 0.49453 0.65363 0.00373
 C6 C 0.54854 0.71172 0.00220
 C7 C 0.45430 0.51859 -0.01137
 C8 C 0.37653 0.53255 -0.02467
 C9 C 0.32169 0.47581 -0.02044
 C10 C 0.34540 0.40259 -0.00942
 C11 C 0.42262 0.38658 0.00148
 C12 C 0.47598 0.44518 0.00362
 H13 H 0.66732 0.73724 -0.01101
 H14 H 0.59985 0.51034 -0.04709
 H15 H 0.43798 0.66638 0.01817
 H16 H 0.35769 0.58775 -0.03795
 H17 H 0.30390 0.35820 -0.00920
 H18 H 0.53480 0.43267 0.01685
 C19 C -0.00875 0.59861 0.35325
 C20 C 0.00310 0.61711 0.42976
 C21 C 0.00272 0.55961 0.48209
 C22 C -0.01393 0.48563 0.46046
 C23 C -0.02740 0.46942 0.38334
 C24 C -0.02195 0.52462 0.32865
 C25 C -0.01523 0.42555 0.51834
 C26 C 0.00143 0.35220 0.49963
 C27 C -0.00032 0.29508 0.55198
 C28 C -0.01576 0.31193 0.62576
 C29 C -0.02966 0.38480 0.64750
 C30 C -0.03190 0.44083 0.59281
 H31 H -0.00868 0.64188 0.31304
 H32 H 0.01580 0.57307 0.54040
 H33 H -0.04196 0.41339 0.36513
 H34 H 0.01664 0.33865 0.44399
 H35 H -0.01791 0.26848 0.66674
 H36 H -0.04841 0.49578 0.60781
 C37 C 0.69286 -0.00074 0.68468
 C38 C 0.61980 0.02178 0.69872
 C39 C 0.56340 0.02193 0.63989
 C40 C 0.57646 -0.00756 0.57020
 C41 C 0.64913 -0.03230 0.55747
 C42 C 0.70934 -0.02552 0.61323
 C43 C 0.51460 -0.00983 0.50994
 C44 C 0.53153 0.00788 0.43738
 C45 C 0.47263 0.00622 0.37352
 C46 C 0.39493 -0.01420 0.39601
 C47 C 0.37952 -0.02723 0.47032
 C48 C 0.43941 -0.02704 0.52562
 H49 H 0.73716 0.00195 0.72951
 H50 H 0.50899 0.04566 0.64756
 H51 H 0.65728 -0.05734 0.50405
 H52 H 0.58880 0.02363 0.42562
 H53 H 0.35055 -0.01914 0.35176
 H54 H 0.42697 -0.04013 0.58230
 O55 O 0.45009 0.02476 -0.10696
 O56 O 0.40363 0.01839 0.08741
 O57 O 0.39457 0.11877 -0.01628
 O58 O 0.46765 -0.06999 -0.00118
 O59 O 0.58247 -0.02451 0.02966
 O60 O 0.50836 0.16412 0.01854
 O61 O 0.52267 0.06177 0.12234
 O62 O 0.56480 0.07006 -0.07493
 Cu63 Cu 0.41776 0.01922 -0.01254
 Cu64 Cu 0.55541 0.07367 0.02727
 C65 C 0.51524 0.04575 -0.12410
 C66 C 0.45549 0.03573 0.14278
 C67 C 0.43908 0.17367 -0.00131
 C68 C 0.53770 -0.07939 0.01576
 O69 O -0.11982 0.57777 0.96276
 O70 O 0.08445 0.53652 0.97403
 O71 O -0.02127 0.54361 0.86681
 O72 O -0.01121 0.58013 1.06833
 O73 O -0.04039 0.46355 1.09184
 O74 O -0.04571 0.42528 0.88666
 O75 O 0.05625 0.41990 0.99872
 O76 O -0.14566 0.45953 0.98173
 Cu77 Cu -0.01447 0.57117 0.96593
 Cu78 Cu -0.04684 0.43040 0.99159
 C79 C -0.16744 0.52508 0.97060
 C80 C 0.10478 0.47078 0.98883
 C81 C -0.03376 0.47833 0.84207
 C82 C -0.02387 0.52932 1.11457
 O83 O 0.00756 -0.11884 0.40047
 O84 O 0.01180 0.07189 0.47227
 O85 O 0.10995 -0.01292 0.41778
 O86 O -0.09007 -0.03178 0.45378
 O87 O -0.05908 -0.06771 0.56899
 O88 O 0.14379 -0.05643 0.52947
 O89 O 0.04721 0.03243 0.58517
 O90 O 0.03586 -0.16043 0.51405
 Cu91 Cu 0.00696 -0.01932 0.42464
 Cu92 Cu 0.04556 -0.06782 0.56068
 C93 C 0.01945 -0.17227 0.44491
 C94 C 0.02974 0.08485 0.54088
 C95 C 0.16098 -0.03064 0.46698
 C96 C -0.10887 -0.05049 0.51789
 C97 C -0.27810 0.60644 0.96909
 C98 C -0.24915 0.53831 0.96873
 H99 H -0.23874 0.65331 0.96894
 H100 H -0.28446 0.48931 0.97312
 C101 C 0.24034 0.49522 0.97183
 C102 C 0.18505 0.45150 0.99568
 H103 H 0.22582 0.54847 0.94802
 H104 H 0.19772 0.39903 1.02163
 C105 C 0.01466 -0.30915 0.45663
 C106 C 0.01266 -0.24809 0.41400
 H107 H 0.02370 -0.30103 0.51648
 H108 H 0.00261 -0.25114 0.35423
 C109 C 0.00963 0.21814 0.52565
 C110 C 0.02834 0.16114 0.57020
 H111 H 0.00018 0.20809 0.46614
 H112 H 0.04143 0.16958 0.62937
 C113 C 0.60288 0.04315 -0.22463
 C114 C 0.53253 0.03786 -0.20194
 H115 H 0.64976 0.05671 -0.18447
 H116 H 0.48584 0.01887 -0.23972
 C117 C 0.49207 0.02430 0.28562
 C118 C 0.43692 0.02278 0.23235
 H119 H 0.48203 0.01519 0.32961
 H120 H 0.44758 0.02966 0.18903
 C121 C 0.52376 -0.21522 0.01106
 C122 C 0.56873 -0.15430 0.01674
 H123 H 0.46326 -0.20757 0.01218
 H124 H 0.62963 -0.15758 0.02109
 C125 C 0.45017 0.30979 0.01162
 C126 C 0.40889 0.24878 -0.00845
 H127 H 0.50821 0.30347 0.03363
 H128 H 0.35168 0.25278 -0.03287
 C129 C -0.21469 -0.04021 0.59981
 C130 C -0.18972 -0.04947 0.53149
 H131 H -0.17282 -0.03747 0.64686
 H132 H -0.22766 -0.04689 0.48195
 C133 C 0.30057 -0.04150 0.49141
 C134 C 0.24007 -0.01886 0.44916
 H135 H 0.29222 -0.06881 0.54383
 H136 H 0.24754 0.01179 0.39866
 C137 C -0.02975 0.50382 1.25167
 C138 C -0.01812 0.55011 1.19465
 H139 H -0.04378 0.44642 1.23779
 H140 H -0.00120 0.60712 1.20470
 C141 C -0.04134 0.39921 0.72785
 C142 C -0.03176 0.46596 0.76068
 H143 H -0.05268 0.35188 0.76250
 H144 H -0.01733 0.51365 0.72803
   
