data_POSCAR
  _audit_creation_date              2014-09-24
  _audit_creation_method            'ToBaCCo'
  _symmetry_space_group_name_H-M    'P1'
  _symmetry_Int_Tables_number       1
  _symmetry_cell_setting            triclinic
  loop_
  _symmetry_equiv_pos_as_xyz
 x,y,z
_cell_length_a 37.3976
_cell_length_b 37.4048
_cell_length_c 14.3259
_cell_angle_alpha 90.001200
_cell_angle_beta 89.907200
_cell_angle_gamma 119.947500
loop_
  _atom_site_label
  _atom_site_type_symbol
  _atom_site_fract_x
  _atom_site_fract_y
  _atom_site_fract_z
C1 C 0.12622 0.44746 0.49584
 C2 C 0.14567 0.44863 0.41205
 C3 C 0.18254 0.44749 0.41266
 C4 C 0.19995 0.44370 0.49781
 C5 C 0.17882 0.44193 0.58190
 C6 C 0.14294 0.44490 0.58058
 C7 C 0.24026 0.44319 0.49915
 C8 C 0.26134 0.44656 0.58424
 C9 C 0.29890 0.44680 0.58467
 C10 C 0.31685 0.44512 0.50098
 C11 C 0.29770 0.44292 0.41641
 C12 C 0.25930 0.44087 0.41507
 H13 H 0.09847 0.44996 0.49524
 H14 H 0.19735 0.45062 0.34619
 H15 H 0.18974 0.43884 0.64930
 H16 H 0.25003 0.45006 0.65082
 H17 H 0.34678 0.44698 0.50149
 H18 H 0.24552 0.43810 0.34758
 C19 C 0.55092 -0.32227 0.49670
 C20 C 0.54975 -0.30398 0.41303
 C21 C 0.55081 -0.26601 0.41385
 C22 C 0.55456 -0.24486 0.49909
 C23 C 0.55633 -0.26422 0.58306
 C24 C 0.55343 -0.30304 0.58154
 C25 C 0.55507 -0.20405 0.50062
 C26 C 0.55164 -0.18637 0.58580
 C27 C 0.55144 -0.14903 0.58638
 C28 C 0.55322 -0.12936 0.50276
 C29 C 0.55549 -0.14628 0.41812
 C30 C 0.55750 -0.18264 0.41663
 H31 H 0.54851 -0.35247 0.49593
 H32 H 0.54768 -0.25432 0.34747
 H33 H 0.55941 -0.25023 0.65050
 H34 H 0.54807 -0.20121 0.65232
 H35 H 0.55142 -0.10127 0.50339
 H36 H 0.56036 -0.19361 0.34908
 C37 C 1.32055 0.87271 0.49839
 C38 C 1.30273 0.85336 0.41440
 C39 C 1.26488 0.81637 0.41456
 C40 C 1.24335 0.79885 0.49945
 C41 C 1.26224 0.81992 0.58370
 C42 C 1.30094 0.85583 0.58276
 C43 C 1.20268 0.75849 0.50036
 C44 C 1.18496 0.73703 0.58519
 C45 C 1.14769 0.69943 0.58525
 C46 C 1.12823 0.68182 0.50122
 C47 C 1.14528 0.70137 0.41691
 C48 C 1.18148 0.73983 0.41609
 H49 H 1.35067 0.90052 0.49845
 H50 H 1.25358 0.80157 0.34804
 H51 H 1.24803 0.80899 0.65098
 H52 H 1.19982 0.74818 0.65170
 H53 H 1.10022 0.65186 0.50105
 H54 H 1.19253 0.75401 0.34885
 C55 C 0.87170 0.55408 0.49726
 C56 C 0.85221 0.55261 0.41365
 C57 C 0.81503 0.55310 0.41425
 C58 C 0.79729 0.55650 0.49943
 C59 C 0.81846 0.55856 0.58346
 C60 C 0.85471 0.55630 0.58193
 C61 C 0.75665 0.55636 0.50080
 C62 C 0.73532 0.55262 0.58590
 C63 C 0.69743 0.55177 0.58631
 C64 C 0.67948 0.55324 0.50244
 C65 C 0.69894 0.55581 0.41793
 C66 C 0.73760 0.55844 0.41671
 H67 H 0.89969 0.55209 0.49659
 H68 H 0.80035 0.54979 0.34769
 H69 H 0.80739 0.56132 0.65100
 H70 H 0.74679 0.54930 0.65237
 H71 H 0.64935 0.55095 0.50257
 H72 H 0.75159 0.56148 0.34926
 C73 C 0.44734 0.31881 0.50053
 C74 C 0.44865 0.30053 0.41710
 C75 C 0.44810 0.26285 0.41809
 C76 C 0.44479 0.24193 0.50346
 C77 C 0.44292 0.26129 0.58738
 C78 C 0.44525 0.29985 0.58553
 C79 C 0.44482 0.20138 0.50504
 C80 C 0.44850 0.18384 0.59017
 C81 C 0.44926 0.14674 0.59065
 C82 C 0.44776 0.12724 0.50683
 C83 C 0.44521 0.14406 0.42231
 C84 C 0.44266 0.18012 0.42103
 H85 H 0.44935 0.34881 0.49923
 H86 H 0.45130 0.25132 0.35159
 H87 H 0.44022 0.24751 0.65496
 H88 H 0.45182 0.19867 0.65661
 H89 H 0.44996 0.09935 0.50699
 H90 H 0.43961 0.19098 0.35355
 C91 C 0.68231 0.12903 0.49970
 C92 C 0.70029 0.14847 0.41590
 C93 C 0.73788 0.18567 0.41611
 C94 C 0.75898 0.20347 0.50111
 C95 C 0.73990 0.18234 0.58535
 C96 C 0.70147 0.14607 0.58419
 C97 C 0.79940 0.24411 0.50206
 C98 C 0.81703 0.26543 0.58697
 C99 C 0.85402 0.30331 0.58699
 C100 C 0.87336 0.32125 0.50292
 C101 C 0.85644 0.30180 0.41859
 C102 C 0.82046 0.26317 0.41775
 H103 H 0.65239 0.10102 0.49932
 H104 H 0.74922 0.20029 0.34941
 H105 H 0.75369 0.19347 0.65278
 H106 H 0.80234 0.25394 0.65361
 H107 H 0.90119 0.35136 0.50275
 H108 H 0.80949 0.24918 0.35041
 N109 N 0.95744 0.54393 0.09945
 N110 N 0.93102 0.55615 0.12352
 N111 N 1.04417 0.56176 0.16164
 N112 N 1.06928 0.58232 0.23074
 N113 N 1.04409 0.58733 0.09884
 N114 N 1.06898 0.62604 0.12443
 N115 N 0.95739 0.51817 0.16187
 N116 N 0.93086 0.51191 0.22916
 C117 C 0.91406 0.53497 0.20345
 C118 C 1.08518 0.62216 0.20567
 N119 N 1.04425 0.45924 0.09909
 N120 N 1.07015 0.44648 0.12396
 N121 N 0.95760 0.44150 0.16242
 N122 N 0.93252 0.42102 0.23182
 N123 N 0.95762 0.41587 0.09971
 N124 N 0.93269 0.37719 0.12565
 N125 N 1.04437 0.48511 0.16136
 N126 N 1.07046 0.49094 0.22912
 Mn127 Mn 1.00088 0.50163 0.16216
 C128 C 1.08695 0.46752 0.20401
 C129 C 0.91656 0.38116 0.20702
 N130 N 1.04421 0.58713 -0.10369
 N131 N 1.07055 0.62569 -0.12816
 N132 N 0.95736 0.51843 -0.16561
 N133 N 0.93190 0.51362 -0.23416
 N134 N 0.95754 0.54413 -0.10283
 N135 N 0.93235 0.55771 -0.12779
 N136 N 1.04415 0.56133 -0.16607
 N137 N 1.07053 0.58147 -0.23364
 Mn138 Mn 1.00083 0.56601 -0.00207
 C139 C 1.08737 0.62135 -0.20822
 C140 C 0.91590 0.53748 -0.20869
 N141 N 0.95715 0.41578 -0.10278
 N142 N 0.93092 0.37717 -0.12693
 N143 N 1.04379 0.48439 -0.16645
 N144 N 1.06867 0.48873 -0.23614
 N145 N 1.04380 0.45878 -0.10366
 N146 N 1.06851 0.44475 -0.12993
 N147 N 0.95702 0.44148 -0.16515
 N148 N 0.93061 0.42123 -0.23238
 Mn149 Mn 1.00072 0.43705 -0.00191
 Mn150 Mn 1.00057 0.50141 -0.16617
 Cl151 Cl 1.00077 0.50153 -0.00200
 C152 C 0.91394 0.38137 -0.20674
 C153 C 1.08451 0.46468 -0.21152
 N154 N 0.45706 0.41320 0.10058
 N155 N 0.44495 0.37468 0.12529
 N156 N 0.43828 0.48152 0.16271
 N157 N 0.41752 0.48613 0.23151
 N158 N 0.41289 0.45574 0.10003
 N159 N 0.37410 0.44187 0.12535
 N160 N 0.48268 0.43909 0.16281
 N161 N 0.48896 0.41908 0.23052
 C162 C 0.46608 0.37917 0.20533
 C163 C 0.37773 0.46204 0.20633
 N164 N 0.54023 0.58455 0.09965
 N165 N 0.55264 0.62311 0.12452
 N166 N 0.55888 0.51630 0.16286
 N167 N 0.57952 0.51195 0.23211
 N168 N 0.58437 0.54200 0.09997
 N169 N 0.62312 0.55606 0.12564
 N170 N 0.51447 0.55872 0.16201
 N171 N 0.50838 0.57882 0.22985
 Mn172 Mn 0.49858 0.49891 0.16293
 C173 C 0.53151 0.61873 0.20468
 C174 C 0.61935 0.53609 0.20704
 N175 N 0.41309 0.45592 -0.10229
 N176 N 0.37443 0.44357 -0.12602
 N177 N 0.48242 0.43860 -0.16480
 N178 N 0.48734 0.41813 -0.23372
 N179 N 0.45687 0.41297 -0.10191
 N180 N 0.44349 0.37429 -0.12724
 N181 N 0.43870 0.48173 -0.16486
 N182 N 0.41834 0.48789 -0.23191
 Mn183 Mn 0.43461 0.43408 -0.00090
 C184 C 0.37851 0.46470 -0.20590
 C185 C 0.46372 0.37827 -0.20843
 N186 N 0.58447 0.54152 -0.10256
 N187 N 0.62316 0.55421 -0.12699
 N188 N 0.51521 0.55869 -0.16571
 N189 N 0.51059 0.57904 -0.23531
 N190 N 0.54068 0.58445 -0.10308
 N191 N 0.55433 0.62308 -0.12935
 N192 N 0.55891 0.51556 -0.16479
 N193 N 0.57935 0.50962 -0.23218
 Mn194 Mn 0.56280 0.56350 -0.00151
 Mn195 Mn 0.49881 0.49864 -0.16540
 Cl196 Cl 0.49871 0.49879 -0.00122
 C197 C 0.61917 0.53308 -0.20681
 C198 C 0.53431 0.61895 -0.21078
 N199 N 0.41521 -0.04367 0.10316
 N200 N 0.37660 -0.06986 0.12768
 N201 N 0.48393 0.04291 0.16624
 N202 N 0.48845 0.06791 0.23565
 N203 N 0.45831 0.04295 0.10362
 N204 N 0.44448 0.06784 0.12965
 N205 N 0.44093 -0.04384 0.16534
 N206 N 0.42069 -0.07024 0.23278
 C207 C 0.38083 -0.08686 0.20749
 C208 C 0.46451 0.08387 0.21097
 N209 N 0.58656 0.04317 0.10262
 N210 N 0.62516 0.06962 0.12641
 N211 N 0.51782 -0.04361 0.16520
 N212 N 0.51306 -0.06901 0.23394
 N213 N 0.54346 -0.04347 0.10222
 N214 N 0.55708 -0.06863 0.12727
 N215 N 0.56084 0.04315 0.16524
 N216 N 0.58105 0.06965 0.23238
 Mn217 Mn 0.50088 -0.00035 0.16587
 C218 C 0.62090 0.08651 0.20637
 C219 C 0.53690 -0.08501 0.20842
 N220 N 0.45871 0.04354 -0.09892
 N221 N 0.44632 0.06982 -0.12295
 N222 N 0.44080 -0.04309 -0.16238
 N223 N 0.42025 -0.06813 -0.23160
 N224 N 0.41522 -0.04310 -0.09937
 N225 N 0.37650 -0.06800 -0.12491
 N226 N 0.48452 0.04367 -0.16149
 N227 N 0.49065 0.07013 -0.22874
 Mn228 Mn 0.43649 -0.00007 0.00212
 C229 C 0.46748 0.08683 -0.20291
 C230 C 0.38039 -0.08408 -0.20637
 N231 N 0.54317 -0.04348 -0.10011
 N232 N 0.55522 -0.07004 -0.12406
 N233 N 0.56116 0.04335 -0.16239
 N234 N 0.58176 0.06883 -0.23108
 N235 N 0.58668 0.04317 -0.09970
 N236 N 0.62541 0.06839 -0.12490
 N237 N 0.51745 -0.04343 -0.16243
 N238 N 0.51106 -0.07001 -0.22953
 Mn239 Mn 0.56534 -0.00015 0.00125
 Mn240 Mn 0.50098 0.00012 -0.16256
 Cl241 Cl 0.50092 -0.00011 0.00167
 C242 C 0.53400 -0.08696 -0.20381
 C243 C 0.62158 0.08485 -0.20582
 C244 C 1.12912 0.45371 0.33179
 C245 C 1.11142 0.45926 0.26804
 C246 C 0.54485 0.67450 0.33265
 C247 C 0.53949 0.65135 0.26880
 C248 C 0.32461 -0.12979 0.33447
 C249 C 0.34802 -0.11176 0.27110
 C250 C 0.87022 0.54771 0.32912
 C251 C 0.88871 0.54257 0.26640
 C252 C 0.45344 0.32314 0.33218
 C253 C 0.45851 0.34649 0.26896
 C254 C 0.67740 0.13041 0.33156
 C255 C 0.65380 0.11189 0.26905
 C256 C 0.45422 0.12993 -0.32935
 C257 C 0.45958 0.11184 -0.26613
 C258 C 0.67558 0.54670 -0.33367
 C259 C 0.65210 0.54120 -0.27032
 C260 C 0.87089 0.32511 -0.33317
 C261 C 0.88898 0.34853 -0.27000
 C262 C 0.54652 -0.13101 -0.32916
 C263 C 0.54144 -0.11244 -0.26659
 C264 C 0.32184 0.45180 -0.33097
 C265 C 0.34552 0.45701 -0.26850
 C266 C 1.13067 0.67754 -0.33493
 C267 C 1.11247 0.65412 -0.27170
 C268 C 0.87353 0.55220 -0.33418
 C269 C 0.89169 0.54646 -0.27186
 C270 C 0.44921 0.32164 -0.33509
 C271 C 0.45483 0.34527 -0.27215
 C272 C 0.67861 0.12727 -0.33172
 C273 C 0.65474 0.10909 -0.26922
 C274 C 1.12548 0.44915 -0.33964
 C275 C 1.10795 0.45517 -0.27611
 C276 C 0.54931 0.67528 -0.33878
 C277 C 0.54349 0.65179 -0.27534
 C278 C 0.32361 -0.12566 -0.33293
 C279 C 0.34735 -0.10784 -0.27014
 C280 C 0.55157 -0.12736 0.33416
 C281 C 0.54590 -0.10919 0.27171
 C282 C 0.32062 0.44702 0.33237
 C283 C 0.34452 0.45285 0.26982
 C284 C 1.12674 0.67881 0.33249
 C285 C 1.10892 0.65517 0.26955
 C286 C 0.44937 0.12542 0.33809
 C287 C 0.45525 0.10759 0.27513
 C288 C 0.67616 0.55154 0.33373
 C289 C 0.65241 0.54553 0.27091
 C290 C 0.87498 0.32451 0.33419
 C291 C 0.89280 0.34819 0.27117
   
