data_POSCAR
  _audit_creation_date              2014-09-24
  _audit_creation_method            'ToBaCCo'
  _symmetry_space_group_name_H-M    'P1'
  _symmetry_Int_Tables_number       1
  _symmetry_cell_setting            triclinic
  loop_
  _symmetry_equiv_pos_as_xyz
 x,y,z
_cell_length_a 37.3241
_cell_length_b 37.3213
_cell_length_c 37.3235
_cell_angle_alpha 89.760200
_cell_angle_beta 90.000600
_cell_angle_gamma 90.001100
loop_
  _atom_site_label
  _atom_site_type_symbol
  _atom_site_fract_x
  _atom_site_fract_y
  _atom_site_fract_z
N1 N 0.22500 0.22381 0.22386
 N2 N -0.22429 0.77448 0.22551
 N3 N -0.22424 0.22536 -0.22539
 N4 N 0.22512 0.77603 -0.22392
 N5 N 0.22206 1.22281 0.77719
 N6 N 0.77816 0.77894 0.77898
 N7 N 0.22212 0.77704 1.22295
 N8 N 0.77827 1.22092 1.22099
 N9 N 0.53851 1.06353 0.96129
 N10 N 0.56391 1.08737 0.95504
 N11 N 0.46317 1.03868 0.93647
 N12 N 0.43753 1.04472 0.91283
 N13 N 0.46317 1.06352 0.96130
 N14 N 0.43753 1.08716 0.95526
 N15 N 0.53851 1.03869 0.93645
 N16 N 0.56391 1.04493 0.91261
 C17 C 0.57963 1.07513 0.92484
 C18 C 0.42169 1.07482 0.92517
 N19 N 0.46320 0.93652 0.96156
 N20 N 0.43774 0.91275 0.95546
 N21 N 0.53855 0.96146 0.93663
 N22 N 0.56420 0.95553 0.91303
 N23 N 0.53855 0.93652 0.96157
 N24 N 0.56420 0.91292 0.95564
 N25 N 0.46320 0.96145 0.93662
 N26 N 0.43774 0.95536 0.91285
 Mn27 Mn 0.50086 1.00007 0.93616
 C28 C 0.42199 0.92513 0.92524
 C29 C 0.58005 0.92539 0.92550
 N30 N 0.46321 1.06337 1.03852
 N31 N 0.43775 1.08713 1.04461
 N32 N 0.53856 1.03841 1.06345
 N33 N 0.56422 1.04434 1.08705
 N34 N 0.53856 1.06335 1.03851
 N35 N 0.56422 1.08695 1.04443
 N36 N 0.46321 1.03843 1.06346
 N37 N 0.43774 1.04452 1.08722
 Mn38 Mn 0.50086 1.06383 0.99991
 C39 C 0.42199 1.07475 1.07483
 C40 C 0.58007 1.07448 1.07458
 N41 N 0.53851 0.93635 1.03879
 N42 N 0.56390 0.91250 1.04504
 N43 N 0.46316 0.96121 1.06361
 N44 N 0.43753 0.95516 1.08726
 N45 N 0.46316 0.93637 1.03878
 N46 N 0.43752 0.91273 1.04483
 N47 N 0.53851 0.96119 1.06363
 N48 N 0.56390 0.95494 1.08747
 Mn49 Mn 0.50085 0.93606 1.00018
 Mn50 Mn 0.50086 0.99981 1.06392
 Cl51 Cl 0.50086 0.99994 1.00004
 C52 C 0.57962 0.92473 1.07524
 C53 C 0.42168 0.92506 1.07493
 N54 N 0.03792 0.46175 0.06333
 N55 N 0.04415 0.43616 0.08705
 N56 N 0.06278 0.53733 0.03879
 N57 N 0.08640 0.56293 0.04489
 N58 N 0.03790 0.53710 0.06368
 N59 N 0.04389 0.56254 0.08742
 N60 N 0.06280 0.46199 0.03844
 N61 N 0.08666 0.43656 0.04451
 C62 C 0.07439 0.42057 0.07467
 C63 C 0.07401 0.57850 0.07509
 N64 N 0.03792 0.53822 -0.06331
 N65 N 0.04416 0.56381 -0.08704
 N66 N 0.06278 0.46265 -0.03877
 N67 N 0.08640 0.43705 -0.04486
 N68 N 0.03791 0.46287 -0.06367
 N69 N 0.04389 0.43742 -0.08740
 N70 N 0.06280 0.53799 -0.03842
 N71 N 0.08666 0.56341 -0.04450
 Mn72 Mn 0.06317 0.49999 0.00001
 C73 C 0.07440 0.57939 -0.07467
 C74 C 0.07401 0.42147 -0.07506
 N75 N -0.03932 0.53706 0.06369
 N76 N -0.04542 0.56232 0.08758
 N77 N -0.06419 0.46193 0.03843
 N78 N -0.08781 0.43622 0.04431
 N79 N -0.03930 0.46170 0.06331
 N80 N -0.04528 0.43585 0.08681
 N81 N -0.06421 0.53729 0.03882
 N82 N -0.08796 0.56272 0.04507
 Mn83 Mn -0.00070 0.49940 0.06389
 C84 C -0.07561 0.57820 0.07534
 C85 C -0.07540 0.42011 0.07435
 N86 N -0.03931 0.46291 -0.06368
 N87 N -0.04541 0.43764 -0.08756
 N88 N -0.06420 0.53803 -0.03842
 N89 N -0.08783 0.56372 -0.04430
 N90 N -0.03930 0.53826 -0.06330
 N91 N -0.04529 0.56411 -0.08681
 N92 N -0.06420 0.46267 -0.03880
 N93 N -0.08795 0.43723 -0.04506
 Mn94 Mn -0.00070 0.50057 -0.06387
 Mn95 Mn -0.06459 0.49998 0.00001
 Cl96 Cl -0.00071 0.49998 0.00001
 C97 C -0.07559 0.42175 -0.07532
 C98 C -0.07542 0.57984 -0.07435
 N99 N 0.93581 -0.03887 0.46272
 N100 N 0.91207 -0.04513 0.43729
 N101 N 0.96071 -0.06337 0.53831
 N102 N 0.95473 -0.08688 0.56415
 N103 N 0.93582 -0.03849 0.53808
 N104 N 0.91219 -0.04437 0.56377
 N105 N 0.96070 -0.06375 0.46296
 N106 N 0.95460 -0.08764 0.43769
 C107 C 0.92441 -0.07539 0.42181
 C108 C 0.92460 -0.07441 0.57989
 N109 N 1.06281 -0.03849 0.53803
 N110 N 1.08667 -0.04458 0.56345
 N111 N 1.03792 -0.06374 0.46292
 N112 N 1.04391 -0.08748 0.43748
 N113 N 1.06280 -0.03884 0.46269
 N114 N 1.08642 -0.04494 0.43710
 N115 N 1.03794 -0.06338 0.53827
 N116 N 1.04417 -0.08711 0.56385
 Mn117 Mn 0.99932 -0.06394 0.50062
 C118 C 1.07441 -0.07474 0.57944
 C119 C 1.07402 -0.07514 0.42152
 N120 N 0.93581 0.03875 0.53734
 N121 N 0.91207 0.04501 0.56277
 N122 N 0.96072 0.06325 0.46176
 N123 N 0.95475 0.08675 0.43590
 N124 N 0.93583 0.03837 0.46198
 N125 N 0.91221 0.04425 0.43628
 N126 N 0.96071 0.06363 0.53710
 N127 N 0.95461 0.08751 0.56237
 Mn128 Mn 0.93543 -0.00006 0.50003
 C129 C 0.92442 0.07527 0.57826
 C130 C 0.92462 0.07429 0.42016
 N131 N 1.06282 0.03837 0.46203
 N132 N 1.08668 0.04444 0.43661
 N133 N 1.03792 0.06362 0.53715
 N134 N 1.04391 0.08735 0.56259
 N135 N 1.06280 0.03872 0.53737
 N136 N 1.08642 0.04481 0.56297
 N137 N 1.03794 0.06326 0.46180
 N138 N 1.04418 0.08698 0.43621
 Mn139 Mn 1.06319 -0.00006 0.50003
 Mn140 Mn 0.99932 0.06382 0.49945
 Cl141 Cl 0.99931 -0.00006 0.50003
 C142 C 1.07441 0.07460 0.42062
 C143 C 1.07403 0.07501 0.57855
 C144 C 1.11336 0.15753 0.31719
 C145 C 1.14564 0.18218 0.32564
 C146 C 1.16626 0.16530 0.29434
 C147 C 1.13430 0.14095 0.28545
 C148 C 1.12932 0.12885 0.34215
 C149 C 1.14993 0.11193 0.31086
 C150 C 1.16128 0.15321 0.35098
 C151 C 1.18220 0.13661 0.31930
 C152 C 1.18716 0.18600 0.26831
 C153 C 1.20466 0.20344 0.24743
 C154 C 1.10918 0.10898 0.36942
 C155 C 1.09306 0.09307 0.39247
 H156 H 1.08482 0.16590 0.31663
 H157 H 1.14411 0.21129 0.33143
 H158 H 1.12346 0.13616 0.25819
 H159 H 1.15144 0.08281 0.30510
 H160 H 1.17216 0.15804 0.37821
 H161 H 1.21073 0.12824 0.31988
 C162 C 0.83587 -0.11697 0.32525
 C163 C 0.85079 -0.12999 0.28880
 C164 C 0.83402 -0.16695 0.29583
 C165 C 0.81879 -0.15424 0.33184
 C166 C 0.87032 -0.13016 0.34357
 C167 C 0.85352 -0.16712 0.35054
 C168 C 0.88559 -0.14284 0.30756
 C169 C 0.86847 -0.18013 0.31415
 C170 C 0.81339 -0.18778 0.26984
 C171 C 0.79602 -0.20523 0.24901
 C172 C 0.89011 -0.11008 0.37078
 C173 C 0.90598 -0.09401 0.39377
 H174 H 0.82269 -0.09078 0.33011
 H175 H 0.84942 -0.11498 0.26310
 H176 H 0.79110 -0.15915 0.34155
 H177 H 0.85486 -0.18217 0.37622
 H178 H 0.91329 -0.13792 0.29790
 H179 H 0.88164 -0.20633 0.30929
 C180 C 0.85070 0.16536 0.64865
 C181 C 0.81794 0.15121 0.66983
 C182 C 0.83406 0.16681 0.70427
 C183 C 0.86654 0.18127 0.68347
 C184 C 0.87035 0.13002 0.65652
 C185 C 0.88652 0.14561 0.69095
 C186 C 0.83787 0.11556 0.67732
 C187 C 0.85369 0.13147 0.71220
 C188 C 0.81344 0.18764 0.73027
 C189 C 0.79607 0.20508 0.75110
 C190 C 0.89014 0.10996 0.62930
 C191 C 0.90600 0.09388 0.60631
 H192 H 0.84968 0.17909 0.62222
 H193 H 0.78952 0.15373 0.66142
 H194 H 0.87810 0.20852 0.68629
 H195 H 0.91495 0.14307 0.69932
 H196 H 0.82631 0.08831 0.67449
 H197 H 0.85468 0.11779 0.73865
 C198 C 1.12201 -0.12851 0.69836
 C199 C 1.12592 -0.16986 0.69924
 C200 C 1.16634 -0.16546 0.70564
 C201 C 1.16279 -0.12445 0.70520
 C202 C 1.12936 -0.12901 0.65786
 C203 C 1.16978 -0.12462 0.66428
 C204 C 1.13295 -0.17001 0.65834
 C205 C 1.17365 -0.16592 0.66514
 C206 C 1.18727 -0.18617 0.73165
 C207 C 1.20478 -0.20360 0.75252
 C208 C 1.10920 -0.10913 0.63062
 C209 C 1.09306 -0.09321 0.60758
 H210 H 1.10054 -0.11289 0.71169
 H211 H 1.10813 -0.18870 0.71392
 H212 H 1.17530 -0.10596 0.72477
 H213 H 1.18760 -0.10580 0.64960
 H214 H 1.12045 -0.18853 0.63878
 H215 H 1.19511 -0.18152 0.65176
 C216 C 0.31472 1.15318 1.11209
 C217 C 0.28644 1.13663 1.13770
 C218 C 0.29552 1.16546 1.16552
 C219 C 0.32335 1.18233 1.14024
 C220 C 0.34344 1.12900 1.12907
 C221 C 0.35245 1.15785 1.15690
 C222 C 0.31562 1.11211 1.15435
 C223 C 0.32425 1.14128 1.18248
 C224 C 0.26945 1.18615 1.18621
 C225 C 0.24856 1.20354 1.20359
 C226 C 0.37075 1.10912 1.10920
 C227 C 0.39383 1.09320 1.09328
 H228 H 0.31111 1.15784 1.08292
 H229 H 0.25899 1.12815 1.13006
 H230 H 0.32624 1.21142 1.13466
 H231 H 0.37988 1.16637 1.16459
 H232 H 0.31275 1.08301 1.15992
 H233 H 0.32789 1.13661 1.21164
 C234 C 0.34561 0.83040 0.86378
 C235 C 0.30547 0.82695 0.87375
 C236 C 0.29561 0.83438 0.83445
 C237 C 0.33535 0.83753 0.82420
 C238 C 0.34349 0.87086 0.87094
 C239 C 0.33361 0.87827 0.83164
 C240 C 0.30375 0.86775 0.88124
 C241 C 0.29344 0.87484 0.84159
 C242 C 0.26956 0.81369 0.81375
 C243 C 0.24868 0.79630 0.79636
 C244 C 0.37078 0.89074 0.89084
 C245 C 0.39385 0.90667 0.90677
 H246 H 0.36735 0.81235 0.87312
 H247 H 0.29360 0.80562 0.89082
 H248 H 0.34807 0.82488 0.80053
 H249 H 0.34548 0.89960 0.81455
 H250 H 0.29108 0.88041 0.90493
 H251 H 0.27168 0.89286 0.83222
 C252 C 0.69813 0.87805 1.13031
 C253 C 0.69820 0.87341 1.17161
 C254 C 0.70541 0.83319 1.16679
 C255 C 0.70578 0.83748 1.12583
 C256 C 0.65777 0.86997 1.13000
 C257 C 0.66500 0.82975 1.12520
 C258 C 0.65743 0.86566 1.17096
 C259 C 0.66505 0.82516 1.16644
 C260 C 0.73136 0.81235 1.18764
 C261 C 0.75219 0.79486 1.20513
 C262 C 0.63061 0.89003 1.10994
 C263 C 0.60765 0.90611 1.09387
 H264 H 0.71141 0.90003 1.11522
 H265 H 0.71215 0.89112 1.19094
 H266 H 0.72597 0.82564 1.10753
 H267 H 0.65105 0.81203 1.10588
 H268 H 0.63726 0.87748 1.18930
 H269 H 0.65172 0.80320 1.18152
 C270 C 0.64893 1.15419 0.83799
 C271 C 0.67386 1.18332 0.85369
 C272 C 0.70547 1.16665 0.83333
 C273 C 0.68091 1.13781 0.81734
 C274 C 0.65781 1.12987 0.87010
 C275 C 0.68941 1.11317 0.84976
 C276 C 0.68236 1.15871 0.88611
 C277 C 0.71442 1.14234 0.86543
 C278 C 0.73142 1.18749 0.81248
 C279 C 0.75225 1.20498 0.79499
 C280 C 0.63064 1.10982 0.89016
 C281 C 0.60767 1.09375 0.90622
 H282 H 0.62171 1.15885 0.82692
 H283 H 0.66776 1.21239 0.85507
 H284 H 0.68060 1.12945 0.78883
 H285 H 0.69549 1.08409 0.84838
 H286 H 0.68266 1.16706 0.91462
 H287 H 0.74165 1.13772 0.87646
 C288 C 0.14929 0.31038 0.11205
 C289 C 0.18203 0.31873 0.13614
 C290 C 0.16625 0.29428 0.16535
 C291 C 0.13383 0.28548 0.14160
 C292 C 0.12930 0.34210 0.12891
 C293 C 0.11350 0.31765 0.15812
 C294 C 0.16173 0.35084 0.15267
 C295 C 0.14624 0.32601 0.18217
 C296 C 0.18716 0.26825 0.18606
 C297 C 0.20466 0.24737 0.20349
 C298 C 0.10916 0.36937 0.10905
 C299 C 0.09304 0.39242 0.09313
 H300 H 0.15030 0.30426 0.08299
 H301 H 0.21044 0.31888 0.12734
 H302 H 0.12261 0.25829 0.13730
 H303 H 0.08509 0.31752 0.16692
 H304 H 0.17299 0.37801 0.15702
 H305 H 0.14522 0.33216 0.21123
 C306 C -0.16999 0.33641 -0.12573
 C307 C -0.17385 0.33612 -0.16703
 C308 C -0.16595 0.29573 -0.16686
 C309 C -0.16239 0.29559 -0.12585
 C310 C -0.12967 0.34349 -0.13008
 C311 C -0.12172 0.30309 -0.12987
 C312 C -0.13326 0.34358 -0.17108
 C313 C -0.12563 0.30278 -0.17122
 C314 C -0.18657 0.26973 -0.18768
 C315 C -0.20394 0.24888 -0.20512
 C316 C -0.10988 0.37071 -0.11001
 C317 C -0.09402 0.39370 -0.09393
 H318 H -0.18801 0.35053 -0.10680
 H319 H -0.19551 0.34943 -0.18253
 H320 H -0.17460 0.27555 -0.10750
 H321 H -0.10005 0.28983 -0.11435
 H322 H -0.12106 0.36361 -0.18947
 H323 H -0.10764 0.28866 -0.19017
 C324 C 0.13319 0.65810 -0.16993
 C325 C 0.12598 0.69898 -0.17001
 C326 C 0.16634 0.70558 -0.16540
 C327 C 0.17384 0.66511 -0.16562
 C328 C 0.12936 0.65780 -0.12894
 C329 C 0.16973 0.66442 -0.12435
 C330 C 0.12182 0.69827 -0.12868
 C331 C 0.16254 0.70532 -0.12442
 C332 C 0.18727 0.73159 -0.18611
 C333 C 0.20478 0.75246 -0.20355
 C334 C 0.10920 0.63056 -0.10907
 C335 C 0.09306 0.60752 -0.09314
 H336 H 0.12089 0.63840 -0.18843
 H337 H 0.10824 0.71349 -0.18902
 H338 H 0.19545 0.65175 -0.18103
 H339 H 0.18749 0.64992 -0.10535
 H340 H 0.10020 0.71158 -0.11326
 H341 H 0.17486 0.72504 -0.10595
 C342 C -0.13000 0.69680 0.12188
 C343 C -0.17125 0.69696 0.12678
 C344 C -0.16599 0.70416 0.16694
 C345 C -0.12508 0.70444 0.16239
 C346 C -0.12970 0.65643 0.13012
 C347 C -0.12445 0.66365 0.17028
 C348 C -0.17061 0.65619 0.13469
 C349 C -0.16565 0.66379 0.17513
 C350 C -0.18661 0.73015 0.18778
 C351 C -0.20398 0.75098 0.20522
 C352 C -0.10991 0.62922 0.11004
 C353 C -0.09404 0.60624 0.09396
 H354 H -0.11512 0.71005 0.09975
 H355 H -0.19073 0.71096 0.10914
 H356 H -0.10661 0.72459 0.17403
 H357 H -0.10499 0.64966 0.18794
 H358 H -0.18912 0.63605 0.12308
 H359 H -0.18052 0.65049 0.19724
 C360 C 1.16313 0.14852 0.65054
 C361 C 1.14869 0.18114 0.67156
 C362 C 1.16390 0.16482 0.70623
 C363 C 1.17863 0.13248 0.68559
 C364 C 1.12772 0.12879 0.65780
 C365 C 1.14291 0.11242 0.69246
 C366 C 1.11298 0.16113 0.67844
 C367 C 1.12849 0.14511 0.71355
 C368 C 1.18447 0.18531 0.73255
 C369 C 1.20181 0.20259 0.75357
 C370 C 1.10802 0.10913 0.63020
 C371 C 1.09227 0.09336 0.60691
 H372 H 1.17717 0.14972 0.62435
 H373 H 1.15129 0.20962 0.66325
 H374 H 1.20585 0.12092 0.68883
 H375 H 1.14030 0.08394 0.70073
 H376 H 1.08576 0.17269 0.67519
 H377 H 1.11449 0.14394 0.73977
 C378 C 0.85303 -0.16430 0.65355
 C379 C 0.86864 -0.17796 0.68953
 C380 C 0.83511 -0.16394 0.70881
 C381 C 0.81923 -0.15057 0.67320
 C382 C 0.87106 -0.12787 0.65993
 C383 C 0.83753 -0.11384 0.67920
 C384 C 0.88699 -0.14122 0.69552
 C385 C 0.85311 -0.12752 0.71525
 C386 C 0.81464 -0.18449 0.73534
 C387 C 0.79733 -0.20185 0.75650
 C388 C 0.89065 -0.10824 0.63206
 C389 C 0.90635 -0.09256 0.60854
 H390 H 0.85319 -0.17922 0.62788
 H391 H 0.88121 -0.20455 0.69407
 H392 H 0.79114 -0.15463 0.66430
 H393 H 0.82495 -0.08726 0.67465
 H394 H 0.91508 -0.13714 0.70438
 H395 H 0.85291 -0.11263 0.74094
 C396 C 1.12159 -0.12591 0.30169
 C397 C 1.16272 -0.12388 0.29609
 C398 C 1.16395 -0.16496 0.29389
 C399 C 1.12317 -0.16733 0.29904
 C400 C 1.12775 -0.12893 0.34230
 C401 C 1.12900 -0.17000 0.34006
 C402 C 1.16852 -0.12658 0.33712
 C403 C 1.17005 -0.16794 0.33450
 C404 C 1.18453 -0.18546 0.26758
 C405 C 1.20187 -0.20274 0.24657
 C406 C 1.10803 -0.10926 0.36989
 C407 C 1.09227 -0.09349 0.39317
 H408 H 1.10144 -0.10839 0.28852
 H409 H 1.17681 -0.10516 0.27771
 H410 H 1.10476 -0.18432 0.28308
 H411 H 1.11492 -0.18876 0.35844
 H412 H 1.18696 -0.10961 0.35307
 H413 H 1.19019 -0.18543 0.34773
 C414 C 0.83790 0.15075 0.34778
 C415 C 0.85366 0.18077 0.32378
 C416 C 0.83521 0.16381 0.29119
 C417 C 0.81916 0.13407 0.31482
 C418 C 0.87112 0.12774 0.34009
 C419 C 0.85269 0.11073 0.30751
 C420 C 0.88719 0.15747 0.31646
 C421 C 0.86843 0.14082 0.28342
 C422 C 0.81475 0.18436 0.26465
 C423 C 0.79744 0.20172 0.24348
 C424 C 0.89070 0.10811 0.36797
 C425 C 0.90639 0.09243 0.39150
 H426 H 0.82554 0.15464 0.37454
 H427 H 0.85384 0.20979 0.33018
 H428 H 0.79096 0.12467 0.31385
 H429 H 0.85251 0.08171 0.30113
 H430 H 0.91539 0.16688 0.31744
 H431 H 0.88074 0.13697 0.25664
 C432 C 0.12951 0.34037 -0.16989
 C433 C 0.17047 0.33435 -0.16732
 C434 C 0.16390 0.29378 -0.16484
 C435 C 0.12322 0.29939 -0.16771
 C436 C 0.12771 0.34221 -0.12882
 C437 C 0.12109 0.30165 -0.12629
 C438 C 0.16839 0.33658 -0.12596
 C439 C 0.16212 0.29559 -0.12376
 C440 C 0.18448 0.26746 -0.18532
 C441 C 0.20181 0.24644 -0.20260
 C442 C 0.10801 0.36981 -0.10916
 C443 C 0.09225 0.39310 -0.09340
 H444 H 0.11589 0.35908 -0.18866
 H445 H 0.19099 0.34753 -0.18440
 H446 H 0.10488 0.28379 -0.18511
 H447 H 0.10056 0.28852 -0.10919
 H448 H 0.18676 0.35216 -0.10858
 H449 H 0.17576 0.27686 -0.10503
 C450 C -0.15677 0.31472 0.11124
 C451 C -0.13980 0.28304 0.13223
 C452 C -0.16481 0.29113 0.16387
 C453 C -0.18208 0.32234 0.14320
 C454 C -0.12890 0.34003 0.12779
 C455 C -0.15393 0.34804 0.15944
 C456 C -0.11159 0.30882 0.14845
 C457 C -0.13694 0.31645 0.18040
 C458 C -0.18527 0.26458 0.18442
 C459 C -0.20257 0.24341 0.20178
 C460 C -0.10933 0.36791 0.10817
 C461 C -0.09364 0.39145 0.09249
 H462 H -0.16470 0.31431 0.08258
 H463 H -0.13423 0.25600 0.12128
 H464 H -0.21129 0.32762 0.14126
 H465 H -0.15955 0.37506 0.17043
 H466 H -0.08238 0.30357 0.15038
 H467 H -0.12900 0.31687 0.20906
 C468 C -0.16980 0.66472 -0.12610
 C469 C -0.16434 0.70573 -0.12284
 C470 C -0.16490 0.70875 -0.16391
 C471 C -0.17066 0.66815 -0.16744
 C472 C -0.12896 0.65987 -0.12782
 C473 C -0.12955 0.66292 -0.16888
 C474 C -0.12315 0.70046 -0.12424
 C475 C -0.12406 0.70392 -0.16565
 C476 C -0.18537 0.73528 -0.18446
 C477 C -0.20267 0.75645 -0.20181
 C478 C -0.10937 0.63200 -0.10818
 C479 C -0.09367 0.60849 -0.09250
 H480 H -0.18841 0.64831 -0.10963
 H481 H -0.17888 0.72365 -0.10415
 H482 H -0.19041 0.65514 -0.18542
 H483 H -0.11503 0.64501 -0.18761
 H484 H -0.10338 0.71342 -0.10624
 H485 H -0.10548 0.72035 -0.18214
 C486 C 0.12385 0.69837 0.12356
 C487 C 0.12289 0.70303 0.16482
 C488 C 0.16394 0.70611 0.16495
 C489 C 0.16525 0.70190 0.12404
 C490 C 0.12774 0.65771 0.12890
 C491 C 0.16879 0.66082 0.12905
 C492 C 0.12645 0.66195 0.16980
 C493 C 0.16778 0.66544 0.17024
 C494 C 0.18452 0.73241 0.18545
 C495 C 0.20186 0.75342 0.20273
 C496 C 0.10803 0.63013 0.10923
 C497 C 0.09226 0.60685 0.09344
 H498 H 0.10556 0.71159 0.10414
 H499 H 0.10426 0.72069 0.17975
 H500 H 0.18143 0.71863 0.10546
 H501 H 0.18745 0.64317 0.11414
 H502 H 0.11028 0.64523 0.18841
 H503 H 0.18606 0.65217 0.18964
 C504 C 0.31535 1.15490 0.88830
 C505 C 0.32332 1.18187 0.85766
 C506 C 0.29337 1.16467 0.83532
 C507 C 0.28495 1.13801 0.86564
 C508 C 0.34205 1.12856 0.87144
 C509 C 0.31211 1.11133 0.84912
 C510 C 0.35040 1.15524 0.84111
 C511 C 0.32008 1.13833 0.81849
 C512 C 0.26691 1.18522 0.81478
 C513 C 0.24579 1.20255 0.79745
 C514 C 0.36979 1.10887 0.89112
 C515 C 0.39319 1.09311 0.90688
 H516 H 0.31371 1.16149 0.91723
 H517 H 0.32764 1.21110 0.86095
 H518 H 0.25772 1.13116 0.87549
 H519 H 0.30781 1.08209 0.84583
 H520 H 0.37760 1.16212 0.83123
 H521 H 0.32173 1.13173 0.78957
 C522 C 0.33600 0.83073 1.12553
 C523 C 0.33393 0.82816 1.16689
 C524 C 0.29342 0.83518 1.16481
 C525 C 0.29507 0.83746 1.12374
 C526 C 0.34207 0.87131 1.12868
 C527 C 0.30157 0.87839 1.12656
 C528 C 0.34039 0.86902 1.16976
 C529 C 0.29947 0.87577 1.16798
 C530 C 0.26697 0.81463 1.18537
 C531 C 0.24586 0.79730 1.20269
 C532 C 0.36980 0.89100 1.10899
 C533 C 0.39319 0.90677 1.09322
 H534 H 0.35131 0.81242 1.10787
 H535 H 0.34696 0.80729 1.18369
 H536 H 0.27613 0.82424 1.10505
 H537 H 0.28859 0.89927 1.10974
 H538 H 0.35932 0.88220 1.18848
 H539 H 0.28414 0.89405 1.18566
 C540 C 0.67590 1.11576 1.16395
 C541 C 0.71366 1.12575 1.14979
 C542 C 0.70841 1.16395 1.16404
 C543 C 0.67109 1.15426 1.17850
 C544 C 0.65976 1.12797 1.12806
 C545 C 0.65457 1.16617 1.14233
 C546 C 0.69707 1.13763 1.11354
 C547 C 0.69227 1.17616 1.12814
 C548 C 0.73482 1.18444 1.18453
 C549 C 0.75589 1.20176 1.20184
 C550 C 0.63201 1.10837 1.10846
 C551 C 0.60860 1.09268 1.09277
 H552 H 0.66887 1.09071 1.17847
 H553 H 0.73828 1.10937 1.15310
 H554 H 0.66068 1.16131 1.20542
 H555 H 0.62997 1.18259 1.13906
 H556 H 0.70743 1.13057 1.08661
 H557 H 0.69930 1.20122 1.11364
 C558 C 0.66356 0.87264 0.83100
 C559 C 0.70462 0.87690 0.83537
 C560 C 0.70833 0.83590 0.83597
 C561 C 0.66768 0.83137 0.83130
 C562 C 0.65970 0.87189 0.87198
 C563 C 0.66344 0.83089 0.87256
 C564 C 0.70034 0.87647 0.87670
 C565 C 0.70450 0.83513 0.87695
 C566 C 0.73473 0.81541 0.81547
 C567 C 0.75579 0.79810 0.79815
 C568 C 0.63197 0.89149 0.89160
 C569 C 0.60857 0.90718 0.90729
 H570 H 0.64643 0.88827 0.81231
 H571 H 0.72186 0.89558 0.81985
 H572 H 0.65453 0.81260 0.81242
 H573 H 0.64622 0.81218 0.88806
 H574 H 0.71345 0.89525 0.89560
 H575 H 0.72164 0.81947 0.89561
   
