data_POSCAR
  _audit_creation_date              2014-09-24
  _audit_creation_method            'ToBaCCo'
  _symmetry_space_group_name_H-M    'P1'
  _symmetry_Int_Tables_number       1
  _symmetry_cell_setting            triclinic
  loop_
  _symmetry_equiv_pos_as_xyz
 x,y,z
_cell_length_a 33.1469
_cell_length_b 34.7338
_cell_length_c 31.1797
_cell_angle_alpha 92.227100
_cell_angle_beta 89.979900
_cell_angle_gamma 93.258500
loop_
  _atom_site_label
  _atom_site_type_symbol
  _atom_site_fract_x
  _atom_site_fract_y
  _atom_site_fract_z
C1 C 0.28276 0.44663 0.98748
 C2 C 0.25124 0.44344 1.02346
 C3 C 0.22903 0.47524 1.02873
 C4 C 0.24001 0.50713 0.99694
 C5 C 0.25855 0.45506 0.94766
 C6 C 0.23569 0.48634 0.95234
 C7 C 0.30764 0.48388 0.99858
 C8 C 0.28571 0.51552 1.00361
 H9 H 0.24748 0.41873 1.04351
 H10 H 0.22203 0.53305 1.00098
 H11 H 0.25742 0.43594 0.91935
 H12 H 0.34014 0.48489 1.00293
 C13 C 0.72252 0.55739 0.00559
 C14 C 0.75351 0.55621 0.04198
 C15 C 0.77528 0.52394 0.04018
 C16 C 0.76432 0.49598 0.00174
 C17 C 0.74724 0.55319 -0.03553
 C18 C 0.76952 0.52135 -0.03766
 C19 C 0.69714 0.51964 0.00808
 C20 C 0.71853 0.48757 0.00597
 H21 H 0.75781 0.57876 0.06679
 H22 H 0.78188 0.46966 0.00017
 H23 H 0.74885 0.57502 -0.05946
 H24 H 0.66452 0.51850 0.01126
 C25 C 0.05138 0.21676 0.49422
 C26 C 0.04962 0.24182 0.45819
 C27 C 0.01480 0.26462 0.45828
 C28 C -0.01243 0.25724 0.49448
 C29 C 0.04817 0.24370 0.53422
 C30 C 0.01486 0.26518 0.53435
 C31 C 0.01158 0.19251 0.49278
 C32 C -0.02183 0.21320 0.49277
 H33 H 0.07388 0.24491 0.43506
 H34 H -0.03998 0.27403 0.49482
 H35 H 0.07169 0.24774 0.55833
 H36 H 0.01000 0.16121 0.49110
 C37 C 0.94414 0.78070 0.49973
 C38 C 0.95055 0.75582 0.45880
 C39 C 0.98438 0.73505 0.45979
 C40 C 1.00941 0.74219 0.50138
 C41 C 0.94474 0.75227 0.53606
 C42 C 0.97884 0.73204 0.53710
 C43 C 0.98302 0.80584 0.50529
 C44 C 1.01709 0.78622 0.50617
 H45 H 0.92820 0.75200 0.43345
 H46 H 1.03739 0.72611 0.50227
 H47 H 0.91967 0.74762 0.55790
 H48 H 0.98349 0.83709 0.50809
 C49 C 0.49715 0.05768 0.21061
 C50 C 0.45908 0.05285 0.23806
 C51 C 0.45813 0.02130 0.26283
 C52 C 0.49565 -0.00276 0.25747
 C53 C 0.53214 0.05825 0.24280
 C54 C 0.53164 0.02651 0.26733
 C55 C 0.49948 0.02168 0.18617
 C56 C 0.49841 -0.01169 0.21149
 H57 H 0.43571 0.07344 0.23874
 H58 H 0.49505 -0.02844 0.27763
 H59 H 0.55546 0.08134 0.24546
 H60 H 0.50182 0.02028 0.15145
 C61 C 0.49678 -0.05649 0.79338
 C62 C 0.45884 -0.05298 0.76636
 C63 C 0.46057 -0.02223 0.74052
 C64 C 0.50044 0.00263 0.74432
 C65 C 0.53146 -0.05696 0.76085
 C66 C 0.53363 -0.02592 0.73529
 C67 C 0.50317 -0.01768 0.81784
 C68 C 0.50502 0.01327 0.79241
 H69 H 0.43341 -0.07398 0.76674
 H70 H 0.50202 0.02798 0.72364
 H71 H 0.55293 -0.07932 0.75897
 H72 H 0.50637 -0.01509 0.85244
 C73 C 0.27846 0.02254 0.42539
 H74 H 0.25718 0.04471 0.42971
 C75 C 0.30540 0.02442 0.39120
 H76 H 0.30381 0.04785 0.36946
 C77 C 0.30778 -0.03329 0.44978
 H78 H 0.30894 -0.05520 0.47341
 C79 C 0.33565 -0.03233 0.41608
 H80 H 0.35801 -0.05385 0.41379
 N81 N 0.28011 -0.00592 0.45394
 C82 C 0.21992 0.06890 0.53274
 H83 H 0.24203 0.06785 0.55807
 C84 C 0.19604 0.10079 0.53082
 H85 H 0.20009 0.12407 0.55481
 C86 C 0.18714 0.03959 0.47130
 H87 H 0.18373 0.01544 0.44835
 C88 C 0.16305 0.07096 0.46788
 H89 H 0.14094 0.07045 0.44228
 Zn90 Zn 0.24699 -0.00454 0.50330
 N91 N 0.21531 0.03930 0.50293
 C92 C 0.31225 0.02539 0.55453
 N93 N 0.28173 -0.00249 0.55155
 C94 C 0.27793 -0.03065 0.58059
 C95 C 0.30550 -0.03163 0.61416
 C96 C 0.34079 0.02535 0.58758
 C97 C 0.21180 -0.07919 0.47611
 C98 C 0.18367 -0.11069 0.47894
 C99 C 0.15480 -0.07894 0.54108
 C100 C 0.18319 -0.04822 0.53696
 N101 N 0.21101 -0.04883 0.50500
 H102 H 0.31499 0.04708 0.53056
 H103 H 0.25422 -0.05315 0.57722
 H104 H 0.30207 -0.05477 0.63639
 H105 H 0.36529 0.04735 0.58898
 H106 H 0.23388 -0.07889 0.45060
 H107 H 0.18427 -0.13433 0.45532
 H108 H 0.13286 -0.07740 0.56672
 H109 H 0.18309 -0.02359 0.55930
 C110 C 0.16729 0.10218 0.49786
 C111 C 0.33495 -0.00283 0.38653
 C112 C 0.15446 -0.11067 0.51165
 C113 C 0.33782 -0.00373 0.61769
 C114 C 0.68992 0.03060 0.55428
 H115 H 0.69049 0.05424 0.53266
 C116 C 0.66090 0.02835 0.58679
 H117 H 0.63958 0.05074 0.59030
 C118 C 0.71562 -0.02841 0.57425
 H119 H 0.73583 -0.05131 0.56840
 C120 C 0.68731 -0.03174 0.60712
 H121 H 0.68691 -0.05690 0.62659
 N122 N 0.71633 0.00229 0.54846
 C123 C 0.81222 0.04770 0.46549
 H124 H 0.81133 0.02401 0.44186
 C125 C 0.84016 0.07880 0.46138
 H126 H 0.86083 0.07842 0.43450
 C127 C 0.78632 0.07608 0.52930
 H128 H 0.76539 0.07468 0.55585
 C129 C 0.81415 0.10787 0.52658
 H130 H 0.81446 0.13063 0.55133
 Zn131 Zn 0.74953 0.00265 0.49914
 N132 N 0.78584 0.04691 0.49881
 C133 C 0.71618 0.03300 0.42533
 N134 N 0.71418 0.00267 0.45165
 C135 C 0.68443 -0.02584 0.44724
 C136 C 0.65484 -0.02430 0.41549
 C137 C 0.68740 0.03564 0.39322
 C138 C 0.80763 -0.04418 0.52950
 C139 C 0.83124 -0.07604 0.53133
 C140 C 0.80060 -0.10138 0.46505
 C141 C 0.77703 -0.06916 0.46482
 N142 N 0.78071 -0.04156 0.49703
 H143 H 0.73923 0.05598 0.43001
 H144 H 0.68307 -0.04923 0.46922
 H145 H 0.63099 -0.04690 0.41296
 H146 H 0.68937 0.06045 0.37318
 H147 H 0.81034 -0.02156 0.55435
 H148 H 0.85232 -0.07742 0.55766
 H149 H 0.79737 -0.12305 0.43918
 H150 H 0.75599 -0.06619 0.43886
 C151 C 0.84165 0.10946 0.49224
 C152 C 0.65896 -0.00351 0.61329
 C153 C 0.82794 -0.10524 0.49885
 C154 C 0.65584 0.00707 0.38832
 C155 C 0.47841 0.19859 1.02209
 H156 H 0.45807 0.19570 0.99487
 C157 C 0.47419 0.17291 1.05517
 H158 H 0.45043 0.15020 1.05306
 C159 C 0.53483 0.23125 1.05682
 H160 H 0.55889 0.25355 1.05689
 C161 C 0.53190 0.20596 1.09054
 H162 H 0.55364 0.20935 1.11650
 N163 N 0.50809 0.22724 1.02365
 C164 C 0.46048 0.31060 0.93938
 H165 H 0.48381 0.31289 0.91520
 C166 C 0.42746 0.33382 0.93801
 H167 H 0.42561 0.35384 0.91241
 C168 C 0.43573 0.28302 1.00324
 H169 H 0.43960 0.26423 1.02950
 C170 C 0.40225 0.30555 1.00305
 H171 H 0.38063 0.30327 1.02899
 Zn172 Zn 0.51184 0.25887 0.97596
 N173 N 0.46412 0.28599 0.97182
 C174 C 0.49151 0.21996 0.89570
 N175 N 0.51893 0.22524 0.92816
 C176 C 0.54999 0.20171 0.93181
 C177 C 0.55308 0.16995 0.90369
 C178 C 0.49366 0.18852 0.86648
 C179 C 0.55286 0.32119 1.01639
 C180 C 0.58346 0.34963 1.02443
 C181 C 0.62006 0.32441 0.96344
 C182 C 0.58861 0.29621 0.95664
 N183 N 0.55592 0.29521 0.98308
 H184 H 0.46654 0.23854 0.89403
 H185 H 0.57091 0.20627 0.95839
 H186 H 0.57692 0.15048 0.90853
 H187 H 0.47035 0.18332 0.84229
 H188 H 0.52638 0.31979 1.03670
 H189 H 0.57998 0.37015 1.05102
 H190 H 0.64552 0.32530 0.94168
 H191 H 0.59013 0.27553 0.92997
 C192 C 0.39809 0.33188 0.97056
 C193 C 0.50131 0.17626 1.08988
 C194 C 0.61750 0.35181 0.99755
 C195 C 0.52385 0.16225 0.87150
 C196 C 0.45847 0.79815 -0.02156
 H197 H 0.43691 0.79945 0.00445
 C198 C 0.45724 0.82409 -0.05447
 H199 H 0.43428 0.84506 -0.05365
 C200 C 0.51577 0.77033 -0.05265
 H201 H 0.53935 0.75025 -0.05113
 C202 C 0.51571 0.79580 -0.08619
 H203 H 0.53902 0.79449 -0.11046
 N204 N 0.48747 0.77204 -0.02113
 C205 C 0.44156 0.68466 0.06562
 H206 H 0.46583 0.68558 0.08890
 C207 C 0.41026 0.65613 0.06725
 H208 H 0.41064 0.63524 0.09213
 C209 C 0.41316 0.70931 0.00332
 H210 H 0.41513 0.72914 -0.02251
 C211 C 0.38105 0.68150 0.00400
 H212 H 0.35866 0.68041 -0.02136
 Zn213 Zn 0.49021 0.74254 0.02833
 N214 N 0.44293 0.70996 0.03345
 C215 C 0.47097 0.78102 0.10859
 N216 N 0.49662 0.77868 0.07459
 C217 C 0.52683 0.80600 0.06865
 C218 C 0.53091 0.83844 0.09606
 C219 C 0.47436 0.81305 0.13739
 C220 C 0.53599 0.68457 -0.00766
 C221 C 0.56909 0.66182 -0.01285
 C222 C 0.59951 0.69396 0.05028
 C223 C 0.56593 0.71641 0.05401
 N224 N 0.53528 0.71165 0.02491
 H225 H 0.44678 0.75918 0.11218
 H226 H 0.54649 0.80346 0.04110
 H227 H 0.55396 0.86082 0.08956
 H228 H 0.45263 0.81584 0.16311
 H229 H 0.51094 0.68107 -0.02998
 H230 H 0.56902 0.64057 -0.03919
 H231 H 0.62362 0.69819 0.07370
 H232 H 0.56442 0.73756 0.08020
 C233 C 0.38003 0.65369 0.03548
 C234 C 0.48652 0.82352 -0.08704
 C235 C 0.60150 0.66643 0.01630
 C236 C 0.50378 0.84275 0.13012
 C237 C 1.05184 0.46009 0.19484
 H238 H 1.02913 0.43672 0.19782
 C239 C 1.08229 0.45697 0.16432
 H240 H 1.08294 0.43093 0.14414
 C241 C 1.07739 0.52288 0.21677
 H242 H 1.07479 0.54874 0.23676
 C243 C 1.10797 0.52134 0.18575
 H244 H 1.12925 0.54589 0.18261
 N245 N 1.05020 0.49236 0.22075
 C246 C 0.97060 0.44067 0.31803
 H247 H 0.94499 0.45861 0.31750
 C248 C 0.97021 0.40918 0.34493
 H249 H 0.94404 0.40305 0.36484
 C250 C 1.03617 0.42746 0.29354
 H251 H 1.06245 0.43518 0.27460
 C252 C 1.03694 0.39574 0.31956
 H253 H 1.06373 0.37931 0.31955
 Zn254 Zn 1.00463 0.49290 0.25755
 N255 N 1.00318 0.44901 0.29272
 C256 C 0.93037 0.46388 0.21512
 N257 N 0.96005 0.49251 0.21950
 C258 C 0.96075 0.52380 0.19459
 C259 C 0.92984 0.52839 0.16542
 C260 C 0.89914 0.46686 0.18523
 C261 C 1.03684 0.54950 0.31945
 C262 C 1.03621 0.58304 0.34599
 C263 C 0.96944 0.59312 0.31933
 C264 C 0.97118 0.55943 0.29381
 N265 N 1.00475 0.53863 0.29361
 H266 H 0.93094 0.43880 0.23453
 H267 H 0.98519 0.54569 0.19811
 H268 H 0.93070 0.55394 0.14652
 H269 H 0.87542 0.44416 0.18210
 H270 H 1.06294 0.53216 0.31941
 H271 H 1.06204 0.59130 0.36624
 H272 H 0.94224 0.60894 0.31871
 H273 H 0.94522 0.54972 0.27461
 C274 C 1.00375 0.38615 0.34586
 C275 C 1.11068 0.48793 0.15921
 C276 C 1.00219 0.60548 0.34590
 C277 C 0.89845 0.49983 0.16053
 C278 C -0.05160 0.47538 0.80413
 H279 H -0.03108 0.45223 0.80349
 C280 C -0.08346 0.47540 0.83363
 H281 H -0.08733 0.45199 0.85547
 C282 C -0.07056 0.53460 0.77728
 H283 H -0.06486 0.55832 0.75636
 C284 C -0.10282 0.53564 0.80592
 H285 H -0.12175 0.56004 0.80597
 N286 N -0.04586 0.50464 0.77657
 C287 C 0.02947 0.45676 0.67496
 H288 H 0.05370 0.47899 0.67537
 C289 C 0.03170 0.42420 0.64766
 H290 H 0.05780 0.42152 0.62708
 C291 C -0.03394 0.43335 0.70143
 H292 H -0.05948 0.43715 0.72241
 C293 C -0.03348 0.40072 0.67358
 H294 H -0.05852 0.37929 0.67365
 Zn295 Zn -0.00044 0.50489 0.73936
 N296 N -0.00234 0.46021 0.70211
 C297 C 0.07124 0.47650 0.77239
 N298 N 0.04655 0.50646 0.77467
 C299 C 0.05331 0.53619 0.80405
 C300 C 0.08607 0.53649 0.83253
 C301 C 0.10448 0.47593 0.79964
 C302 C -0.03325 0.54977 0.67795
 C303 C -0.03645 0.58047 0.65090
 C304 C 0.02965 0.60558 0.67450
 C305 C 0.03116 0.57476 0.70207
 N306 N -0.00031 0.54789 0.70360
 H307 H 0.06476 0.45233 0.75025
 H308 H 0.03281 0.55935 0.80583
 H309 H 0.09075 0.56013 0.85599
 H310 H 0.12328 0.45145 0.79729
 H311 H -0.05742 0.52755 0.67910
 H312 H -0.06326 0.58171 0.63128
 H313 H 0.05473 0.62692 0.67374
 H314 H 0.05748 0.57223 0.72201
 C315 C 0.00009 0.39559 0.64695
 C316 C -0.10955 0.50592 0.83484
 C317 C -0.00480 0.60892 0.64898
 C318 C 0.11216 0.50598 0.83051
 N319 N 0.09056 0.16571 0.45923
 C320 C 0.08650 0.19087 0.49317
 N321 N 0.11064 0.18800 0.52800
 N322 N 0.13731 0.16070 0.52902
 C323 C 0.14063 0.13493 0.49542
 N324 N 0.11708 0.13840 0.46031
 N325 N 0.69230 0.61437 0.04175
 C326 C 0.69553 0.59074 0.00632
 N327 N 0.66900 0.59348 -0.02641
 N328 N 0.64001 0.61839 -0.02369
 C329 C 0.63615 0.64149 0.01199
 N330 N 0.66328 0.63942 0.04442
 N331 N 0.90118 -0.17258 0.53652
 C332 C 0.90836 -0.19435 0.50052
 N333 N 0.88728 -0.18813 0.46428
 N334 N 0.86054 -0.16083 0.46402
 C335 C 0.85419 -0.13838 0.49984
 N336 N 0.87465 -0.14527 0.53621
 N337 N 0.33659 0.41402 0.94791
 C338 C 0.30957 0.41342 0.98066
 N339 N 0.31046 0.38477 1.00897
 N340 N 0.33772 0.35811 1.00494
 C341 C 0.36522 0.35907 0.97255
 N342 N 0.36378 0.38737 0.94388
 N343 N 0.93272 0.16513 0.45681
 C344 C 0.93820 0.19293 0.48833
 N345 N 0.91031 0.19498 0.52014
 N346 N 0.87850 0.16956 0.52063
 C347 C 0.87362 0.14105 0.48951
 N348 N 0.90101 0.13997 0.45721
 N349 N 0.33785 0.55412 0.04349
 C350 C 0.30554 0.55305 0.01668
 N351 N 0.29566 0.58610 -0.00154
 N352 N 0.31824 0.61875 0.00584
 C353 C 0.35121 0.61957 0.03199
 N354 N 0.36008 0.58670 0.05115
 N355 N 0.08747 -0.19755 0.48472
 C356 C 0.05638 -0.19253 0.51238
 N357 N 0.05906 -0.16227 0.54123
 N358 N 0.09111 -0.13752 0.54206
 C359 C 0.12175 -0.14156 0.51370
 N360 N 0.11962 -0.17250 0.48540
 N361 N 0.66492 0.44544 1.03445
 C362 C 0.69758 0.44939 1.00851
 N363 N 0.70579 0.41987 0.98064
 N364 N 0.68132 0.38795 0.97814
 C365 C 0.64791 0.38449 1.00343
 N366 N 0.64076 0.41362 1.03214
 N367 N 0.52773 0.11880 1.18192
 C368 C 0.49679 0.09144 1.18193
 N369 N 0.46658 0.09313 1.15283
 N370 N 0.46757 0.12068 1.12435
 C371 C 0.49880 0.14767 1.12377
 N372 N 0.52867 0.14643 1.15343
 N373 N -0.04920 0.68358 0.58588
 C374 C -0.01629 0.70084 0.56718
 N375 N 0.02074 0.68812 0.57585
 N376 N 0.02464 0.65929 0.60236
 C377 C -0.00841 0.64179 0.62072
 N378 N -0.04536 0.65454 0.61192
 N379 N 0.52042 0.88251 -0.17786
 C380 C 0.49326 0.91035 -0.17701
 N381 N 0.46319 0.90880 -0.14747
 N382 N 0.46061 0.88077 -0.11954
 C383 C 0.48796 0.85311 -0.11999
 N384 N 0.51782 0.85445 -0.14988
 N385 N 0.97885 0.31725 0.43145
 C386 C 1.01040 0.29387 0.42898
 N387 N 1.03889 0.30044 0.39841
 N388 N 1.03632 0.32931 0.37187
 C389 C 1.00512 0.35299 0.37457
 N390 N 0.97624 0.34618 0.40478
 N391 N 0.49379 0.91889 0.21521
 C392 C 0.50030 0.95134 0.19249
 N393 N 0.50827 0.94745 0.14994
 N394 N 0.50987 0.91282 0.13073
 C395 C 0.50310 0.88046 0.15312
 N396 N 0.49481 0.88400 0.19575
 N397 N -0.02654 0.31255 0.57244
 C398 C 0.01005 0.29768 0.56548
 N399 N 0.04291 0.31473 0.58593
 N400 N 0.03951 0.34563 0.61198
 C401 C 0.00303 0.36054 0.61902
 N402 N -0.03005 0.34324 0.59903
 N403 N 0.49707 0.08341 0.79156
 C404 C 0.51237 0.05276 0.81038
 N405 N 0.53303 0.05872 0.84777
 N406 N 0.53785 0.09387 0.86605
 C407 C 0.52195 0.12450 0.84792
 N408 N 0.50151 0.11865 0.81019
 N409 N 1.02263 0.68008 0.43275
 C410 C 0.99151 0.70342 0.42798
 N411 N 0.96497 0.69515 0.39534
 N412 N 0.96899 0.66457 0.36894
 C413 C 0.99971 0.64085 0.37397
 N414 N 1.02673 0.64947 0.40621
 N415 N 1.18612 0.51397 0.07617
 C416 C 1.19830 0.47883 0.06267
 N417 N 1.18203 0.44694 0.08142
 N418 N 1.15440 0.44999 0.11216
 C419 C 1.14223 0.48508 0.12582
 N420 N 1.15871 0.51706 0.10728
 N421 N 0.56801 0.01195 0.67934
 C422 C 0.56610 -0.01976 0.70355
 N423 N 0.59507 -0.04561 0.69845
 N424 N 0.62466 -0.04014 0.67014
 C425 C 0.62665 -0.00853 0.64578
 N426 N 0.59767 0.01743 0.65094
 N427 N -0.17492 0.48625 0.92896
 C428 C -0.20079 0.51515 0.92774
 N429 N -0.19729 0.54001 0.89525
 N430 N -0.16885 0.53650 0.86549
 C431 C -0.14259 0.50798 0.86685
 N432 N -0.14640 0.48270 0.89906
 N433 N 0.42688 -0.01593 0.32125
 C434 C 0.42515 0.01305 0.29341
 N435 N 0.39308 0.03561 0.29532
 N436 N 0.36413 0.02986 0.32425
 C437 C 0.36594 0.00129 0.35254
 N438 N 0.39782 -0.02169 0.35030
 N439 N 0.20369 0.47352 0.88197
 C440 C 0.20568 0.49483 0.91939
 N441 N 0.17773 0.52145 0.92685
 N442 N 0.14859 0.52598 0.89818
 C443 C 0.14622 0.50396 0.86109
 N444 N 0.17465 0.47796 0.85351
 N445 N 0.59507 0.04747 0.30377
 C446 C 0.56369 0.02086 0.29883
 N447 N 0.56281 -0.01084 0.32304
 N448 N 0.59218 -0.01554 0.35128
 C449 C 0.62358 0.01121 0.35625
 N450 N 0.62435 0.04276 0.33188
 N451 N 0.81816 0.48093 0.07883
 C452 C 0.80678 0.51715 0.07192
 N453 N 0.82506 0.54728 0.09475
 N454 N 0.85394 0.54153 0.12303
 C455 C 0.86536 0.50538 0.13008
 N456 N 0.84679 0.47511 0.10757
 N457 N 0.39378 -0.03901 0.70907
 C458 C 0.42793 -0.01554 0.71006
 N459 N 0.43192 0.01290 0.68142
 N460 N 0.40300 0.01730 0.65256
 C461 C 0.36900 -0.00656 0.65128
 N462 N 0.36497 -0.03462 0.68032
   
