data_POSCAR
  _audit_creation_date              2014-09-24
  _audit_creation_method            'ToBaCCo'
  _symmetry_space_group_name_H-M    'P1'
  _symmetry_Int_Tables_number       1
  _symmetry_cell_setting            triclinic
  loop_
  _symmetry_equiv_pos_as_xyz
 x,y,z
_cell_length_a 39.1374
_cell_length_b 39.2345
_cell_length_c 39.4057
_cell_angle_alpha 89.998000
_cell_angle_beta 90.008500
_cell_angle_gamma 89.999000
loop_
  _atom_site_label
  _atom_site_type_symbol
  _atom_site_fract_x
  _atom_site_fract_y
  _atom_site_fract_z
N1 N 0.30435 0.23627 0.20926
 N2 N 0.28977 0.26314 0.19546
 C3 C 0.30793 0.27276 0.16803
 C4 C 0.33508 0.25064 0.16464
 C5 C 0.33220 0.22782 0.19106
 H6 H 0.30198 0.29415 0.15176
 H7 H 0.34907 0.20670 0.19659
 Cu8 Cu 0.24880 0.28265 0.21546
 Cu9 Cu 0.28619 0.21419 0.24982
 Cu10 Cu 0.21363 0.25037 0.28585
 N11 N 0.20867 0.30356 0.23572
 N12 N 0.19513 0.29072 0.26350
 C13 C 0.16800 0.30971 0.27264
 C14 C 0.16455 0.33568 0.24938
 C15 C 0.19063 0.33125 0.22630
 H16 H 0.15201 0.30500 0.29453
 H17 H 0.19600 0.34702 0.20443
 N18 N 0.23624 0.20948 0.30448
 N19 N 0.26382 0.19572 0.29079
 C20 C 0.27292 0.16819 0.30914
 C21 C 0.25001 0.16467 0.33542
 C22 C 0.22711 0.19107 0.33189
 H23 H 0.29452 0.15184 0.30384
 H24 H 0.20544 0.19635 0.34808
 H25 H 0.23598 0.22889 0.24363
 H26 H 0.26345 0.25728 0.26995
 N27 N 0.69482 -0.23635 0.20880
 N28 N 0.70894 -0.26368 0.19542
 C29 C 0.69075 -0.27324 0.16795
 C30 C 0.66409 -0.25060 0.16415
 C31 C 0.66725 -0.22753 0.19032
 H32 H 0.69641 -0.29491 0.15194
 H33 H 0.65083 -0.20596 0.19549
 Cu34 Cu 0.74958 -0.28390 0.21557
 Cu35 Cu 0.71319 -0.21419 0.24915
 Cu36 Cu 0.78569 -0.25035 0.28510
 N37 N 0.79020 -0.30418 0.23573
 N38 N 0.80417 -0.29086 0.26307
 C39 C 0.83165 -0.30949 0.27195
 C40 C 0.83488 -0.33575 0.24896
 C41 C 0.80831 -0.33185 0.22630
 H42 H 0.84804 -0.30431 0.29346
 H43 H 0.80268 -0.34792 0.20471
 N44 N 0.76325 -0.20934 0.30368
 N45 N 0.73567 -0.19558 0.28999
 C46 C 0.72651 -0.16810 0.30841
 C47 C 0.74939 -0.16460 0.33473
 C48 C 0.77232 -0.19097 0.33114
 H49 H 0.70483 -0.15184 0.30318
 H50 H 0.79393 -0.19632 0.34740
 H51 H 0.76312 -0.22950 0.24238
 H52 H 0.73565 -0.25706 0.26958
 N53 N 0.69583 0.23645 0.79060
 N54 N 0.71041 0.26332 0.80442
 C55 C 0.69221 0.27290 0.83185
 C56 C 0.66506 0.25076 0.83522
 C57 C 0.66797 0.22797 0.80879
 H58 H 0.69814 0.29428 0.84814
 H59 H 0.65112 0.20684 0.80324
 Cu60 Cu 0.75146 0.28285 0.78443
 Cu61 Cu 0.71398 0.21435 0.75006
 Cu62 Cu 0.78657 0.25057 0.71406
 N63 N 0.79166 0.30386 0.76414
 N64 N 0.80520 0.29101 0.73636
 C65 C 0.83237 0.30999 0.72721
 C66 C 0.83586 0.33599 0.75050
 C67 C 0.80973 0.33155 0.77359
 H68 H 0.84833 0.30524 0.70530
 H69 H 0.80433 0.34729 0.79548
 N70 N 0.76393 0.20963 0.69539
 N71 N 0.73634 0.19587 0.70909
 C72 C 0.72721 0.16834 0.69075
 C73 C 0.75010 0.16478 0.66445
 C74 C 0.77302 0.19118 0.66797
 H75 H 0.70560 0.15201 0.69607
 H76 H 0.79468 0.19643 0.65177
 H77 H 0.76407 0.22897 0.75631
 H78 H 0.73661 0.25738 0.73001
 N79 N 0.30477 -0.23638 0.79092
 N80 N 0.29072 -0.26377 0.80423
 C81 C 0.30878 -0.27315 0.83184
 C82 C 0.33538 -0.25044 0.83576
 C83 C 0.33222 -0.22745 0.80951
 H84 H 0.30308 -0.29474 0.84792
 H85 H 0.34866 -0.20590 0.80435
 Cu86 Cu 0.25010 -0.28406 0.78405
 Cu87 Cu 0.28644 -0.21427 0.75052
 Cu88 Cu 0.21393 -0.25047 0.71456
 N89 N 0.20942 -0.30436 0.76391
 N90 N 0.19537 -0.29098 0.73663
 C91 C 0.16778 -0.30954 0.72784
 C92 C 0.16451 -0.33579 0.75088
 C93 C 0.19117 -0.33191 0.77346
 H94 H 0.15142 -0.30436 0.70633
 H95 H 0.19676 -0.34789 0.79513
 N96 N 0.23646 -0.20951 0.69592
 N97 N 0.26405 -0.19574 0.70961
 C98 C 0.27319 -0.16824 0.69123
 C99 C 0.25031 -0.16471 0.66492
 C100 C 0.22738 -0.19110 0.66847
 H101 H 0.29483 -0.15193 0.69651
 H102 H 0.20574 -0.19639 0.65225
 H103 H 0.23658 -0.22971 0.75729
 H104 H 0.26406 -0.25714 0.72996
 N105 N 0.69577 -0.23635 0.79064
 N106 N 0.70988 -0.26370 0.80399
 C107 C 0.69180 -0.27316 0.83153
 C108 C 0.66518 -0.25050 0.83542
 C109 C 0.66831 -0.22746 0.80923
 H110 H 0.69750 -0.29479 0.84756
 H111 H 0.65188 -0.20589 0.80411
 Cu112 Cu 0.75051 -0.28384 0.78381
 Cu113 Cu 0.71407 -0.21418 0.75027
 Cu114 Cu 0.78652 -0.25037 0.71421
 N115 N 0.79101 -0.30421 0.76360
 N116 N 0.80497 -0.29088 0.73626
 C117 C 0.83249 -0.30947 0.72740
 C118 C 0.83573 -0.33570 0.75042
 C119 C 0.80917 -0.33182 0.77307
 H120 H 0.84887 -0.30430 0.70588
 H121 H 0.80358 -0.34783 0.79470
 N122 N 0.76402 -0.20939 0.69568
 N123 N 0.73646 -0.19562 0.70941
 C124 C 0.72725 -0.16817 0.69099
 C125 C 0.75007 -0.16469 0.66464
 C126 C 0.77302 -0.19105 0.66818
 H127 H 0.70558 -0.15191 0.69625
 H128 H 0.79459 -0.19639 0.65188
 H129 H 0.73656 -0.25704 0.72981
 H130 H 0.76412 -0.22946 0.75700
 N131 N 0.30466 0.23619 0.79045
 N132 N 0.29058 0.26353 0.80377
 C133 C 0.30871 0.27307 0.83127
 C134 C 0.33533 0.25043 0.83512
 C135 C 0.33218 0.22735 0.80897
 H136 H 0.30305 0.29473 0.84728
 H137 H 0.34863 0.20580 0.80384
 Cu138 Cu 0.24997 0.28362 0.78366
 Cu139 Cu 0.28629 0.21401 0.75013
 Cu140 Cu 0.21381 0.25016 0.71412
 N141 N 0.20950 0.30396 0.76350
 N142 N 0.19548 0.29065 0.73621
 C143 C 0.16800 0.30926 0.72736
 C144 C 0.16481 0.33550 0.75036
 C145 C 0.19139 0.33160 0.77297
 H146 H 0.15159 0.30413 0.70587
 H147 H 0.19701 0.34766 0.79456
 N148 N 0.23626 0.20919 0.69563
 N149 N 0.26383 0.19542 0.70933
 C150 C 0.27297 0.16794 0.69093
 C151 C 0.25008 0.16446 0.66463
 C152 C 0.22716 0.19083 0.66818
 H153 H 0.29464 0.15166 0.69616
 H154 H 0.20556 0.19618 0.65192
 H155 H 0.26373 0.25692 0.72959
 H156 H 0.23622 0.22938 0.75683
 N157 N 0.30496 -0.23645 0.20971
 N158 N 0.29135 -0.26428 0.19685
 C159 C 0.30935 -0.27373 0.16925
 C160 C 0.33550 -0.25061 0.16492
 C161 C 0.33212 -0.22730 0.19084
 H162 H 0.30391 -0.29562 0.15349
 H163 H 0.34817 -0.20537 0.19558
 Cu164 Cu 0.25120 -0.28455 0.21759
 Cu165 Cu 0.28647 -0.21407 0.24993
 Cu166 Cu 0.21383 -0.25014 0.28584
 N167 N 0.21024 -0.30453 0.23695
 N168 N 0.19569 -0.29071 0.26373
 C169 C 0.16781 -0.30891 0.27212
 C170 C 0.16490 -0.33534 0.24933
 C171 C 0.19200 -0.33200 0.22730
 H172 H 0.15095 -0.30337 0.29315
 H173 H 0.19787 -0.34829 0.20595
 N174 N 0.23625 -0.20915 0.30431
 N175 N 0.26387 -0.19541 0.29067
 C176 C 0.27303 -0.16797 0.30912
 C177 C 0.25011 -0.16450 0.33538
 C178 C 0.22715 -0.19082 0.33177
 H179 H 0.29475 -0.15175 0.30396
 H180 H 0.20554 -0.19618 0.34801
 H181 H 0.26392 -0.25652 0.27125
 H182 H 0.23652 -0.22994 0.24302
 N183 N 0.69532 0.23608 0.20939
 N184 N 0.70937 0.26347 0.19610
 C185 C 0.69132 0.27293 0.16854
 C186 C 0.66467 0.25033 0.16469
 C187 C 0.66780 0.22728 0.19086
 H188 H 0.69697 0.29461 0.15256
 H189 H 0.65130 0.20576 0.19601
 Cu190 Cu 0.74987 0.28366 0.21624
 Cu191 Cu 0.71361 0.21401 0.24978
 Cu192 Cu 0.78605 0.25013 0.28581
 N193 N 0.79036 0.30384 0.23638
 N194 N 0.80442 0.29047 0.26364
 C195 C 0.83188 0.30910 0.27249
 C196 C 0.83507 0.33528 0.24946
 C197 C 0.80855 0.33136 0.22685
 H198 H 0.84827 0.30404 0.29402
 H199 H 0.80292 0.34745 0.20528
 N200 N 0.76358 0.20923 0.30435
 N201 N 0.73601 0.19546 0.29065
 C202 C 0.72690 0.16795 0.30901
 C203 C 0.74980 0.16447 0.33531
 C204 C 0.77271 0.19084 0.33177
 H205 H 0.70527 0.15164 0.30374
 H206 H 0.79434 0.19617 0.34800
 H207 H 0.73607 0.25703 0.27047
 H208 H 0.76358 0.22957 0.24318
 O209 O 0.22177 0.03309 0.46700
 O210 O 0.22191 -0.03328 0.53317
 O211 O 0.22182 0.03310 0.53309
 O212 O 0.22182 -0.03328 0.46704
 O213 O 0.27833 -0.03322 0.46700
 O214 O 0.27833 0.03315 0.53304
 O215 O 0.27842 -0.03322 0.53312
 O216 O 0.27828 0.03314 0.46695
 Cu217 Cu 0.21612 -0.00010 0.50008
 Cu218 Cu 0.28405 -0.00004 0.50002
 C219 C 0.25001 0.04431 0.45580
 C220 C 0.25019 -0.04444 0.54434
 C221 C 0.25008 0.04431 0.54422
 C222 C 0.25007 -0.04443 0.45586
 O223 O 0.77806 0.03300 0.53290
 O224 O 0.77787 -0.03338 0.46669
 O225 O 0.77803 0.03300 0.46679
 O226 O 0.77803 -0.03340 0.53285
 O227 O 0.72152 -0.03332 0.53293
 O228 O 0.72152 0.03308 0.46685
 O229 O 0.72137 -0.03329 0.46677
 O230 O 0.72155 0.03308 0.53296
 Cu231 Cu 0.78370 -0.00021 0.49980
 Cu232 Cu 0.71579 -0.00011 0.49989
 C233 C 0.74984 0.04425 0.54410
 C234 C 0.74959 -0.04451 0.45552
 C235 C 0.74978 0.04423 0.45566
 C236 C 0.74977 -0.04455 0.54407
 O237 O 0.46673 0.22259 0.03300
 O238 O 0.53326 0.22256 -0.03315
 O239 O 0.53327 0.22261 0.03296
 O240 O 0.46671 0.22259 -0.03309
 O241 O 0.46673 0.27896 -0.03309
 O242 O 0.53324 0.27898 0.03291
 O243 O 0.53324 0.27893 -0.03315
 O244 O 0.46675 0.27896 0.03296
 Cu245 Cu 0.49999 0.21687 -0.00007
 Cu246 Cu 0.49999 0.28465 -0.00010
 C247 C 0.45553 0.25079 0.04415
 C248 C 0.54447 0.25075 -0.04432
 C249 C 0.54446 0.25081 0.04410
 C250 C 0.45549 0.25078 -0.04423
 O251 O 0.53390 0.77745 0.03358
 O252 O 0.46729 0.77742 -0.03257
 O253 O 0.46733 0.77744 0.03354
 O254 O 0.53386 0.77746 -0.03254
 O255 O 0.53388 0.72109 -0.03254
 O256 O 0.46737 0.72107 0.03353
 O257 O 0.46733 0.72106 -0.03256
 O258 O 0.53390 0.72108 0.03356
 Cu259 Cu 0.50060 0.78314 0.00050
 Cu260 Cu 0.50062 0.71539 0.00050
 C261 C 0.54513 0.74926 0.04474
 C262 C 0.45607 0.74923 -0.04373
 C263 C 0.45612 0.74924 0.04468
 C264 C 0.54509 0.74928 -0.04370
 O265 O 0.03257 0.46750 0.22104
 O266 O -0.03401 0.53385 0.22082
 O267 O 0.03253 0.53372 0.22101
 O268 O -0.03383 0.46747 0.22096
 O269 O -0.03393 0.46755 0.27710
 O270 O 0.03246 0.53382 0.27715
 O271 O -0.03412 0.53394 0.27695
 O272 O 0.03249 0.46756 0.27718
 Cu273 Cu -0.00070 0.50065 0.21528
 Cu274 Cu -0.00081 0.50075 0.28280
 C275 C 0.04377 0.45635 0.24914
 C276 C -0.04532 0.54509 0.24884
 C277 C 0.04375 0.54488 0.24907
 C278 C -0.04503 0.45630 0.24903
 O279 O 0.03311 0.53369 0.77898
 O280 O -0.03360 0.46722 0.77884
 O281 O 0.03292 0.46733 0.77893
 O282 O -0.03358 0.53371 0.77893
 O283 O -0.03354 0.53378 0.72281
 O284 O 0.03298 0.46738 0.72280
 O285 O -0.03357 0.46727 0.72273
 O286 O 0.03317 0.53377 0.72287
 Cu287 Cu -0.00032 0.50051 0.78457
 Cu288 Cu -0.00026 0.50058 0.71714
 C289 C 0.04448 0.54490 0.75096
 C290 C -0.04481 0.45597 0.75077
 C291 C 0.04417 0.45616 0.75087
 C292 C -0.04480 0.54494 0.75088
 C293 C 0.36089 0.25098 0.13874
 C294 C 0.38256 0.25106 0.11702
 C295 C 0.40795 0.25098 0.09161
 C296 C 0.42966 0.25087 0.06992
 C297 C 0.63975 0.74919 0.13952
 C298 C 0.61811 0.74913 0.11772
 C299 C 0.59272 0.74916 0.09226
 C300 C 0.57101 0.74922 0.07055
 C301 C 0.63921 0.25106 -0.13888
 C302 C 0.61751 0.25107 -0.11718
 C303 C 0.59207 0.25093 -0.09178
 C304 C 0.57034 0.25081 -0.07011
 C305 C 0.36118 0.74928 -0.13828
 C306 C 0.38289 0.74918 -0.11656
 C307 C 0.40836 0.74917 -0.09116
 C308 C 0.43013 0.74919 -0.06950
 C309 C 0.13883 0.36178 0.24917
 C310 C 0.11712 0.38354 0.24911
 C311 C 0.09158 0.40892 0.24914
 C312 C 0.06974 0.43057 0.24917
 C313 C 0.14003 0.63950 0.75114
 C314 C 0.11825 0.61769 0.75120
 C315 C 0.09260 0.59226 0.75115
 C316 C 0.07065 0.57063 0.75106
 C317 C -0.14062 0.63965 0.24866
 C318 C -0.11881 0.61792 0.24857
 C319 C -0.09321 0.59253 0.24862
 C320 C -0.07134 0.57087 0.24872
 C321 C -0.13975 0.36077 0.75071
 C322 C -0.11802 0.38263 0.75078
 C323 C -0.09250 0.40818 0.75078
 C324 C -0.07073 0.42998 0.75076
 C325 C 0.24999 0.13881 0.36123
 C326 C 0.24997 0.11713 0.38290
 C327 C 0.24996 0.09177 0.40831
 C328 C 0.24996 0.07010 0.43000
 C329 C 0.75006 0.13888 0.63865
 C330 C 0.75001 0.11717 0.61699
 C331 C 0.74994 0.09176 0.59159
 C332 C 0.74990 0.07007 0.56991
 C333 C 0.25033 -0.13886 0.63908
 C334 C 0.25032 -0.11719 0.61737
 C335 C 0.25029 -0.09184 0.59192
 C336 C 0.25025 -0.07021 0.57019
 C337 C 0.74934 -0.13880 0.36063
 C338 C 0.74936 -0.11718 0.38238
 C339 C 0.74943 -0.09187 0.40787
 C340 C 0.74950 -0.07026 0.42964
 C341 C 0.63953 0.74929 -0.13852
 C342 C 0.61796 0.74923 -0.11669
 C343 C 0.59264 0.74925 -0.09120
 C344 C 0.57095 0.74927 -0.06949
 C345 C 0.36100 0.25070 -0.13887
 C346 C 0.38259 0.25080 -0.11709
 C347 C 0.40792 0.25083 -0.09164
 C348 C 0.42962 0.25081 -0.06996
 C349 C 0.36119 0.74917 0.13892
 C350 C 0.38288 0.74911 0.11724
 C351 C 0.40838 0.74914 0.09194
 C352 C 0.43019 0.74920 0.07037
 C353 C 0.63899 0.25066 0.13871
 C354 C 0.61736 0.25082 0.11697
 C355 C 0.59196 0.25090 0.09158
 C356 C 0.57026 0.25088 0.06989
 C357 C -0.13981 0.63969 0.75072
 C358 C -0.11807 0.61792 0.75088
 C359 C -0.09254 0.59249 0.75093
 C360 C -0.07075 0.57078 0.75091
 C361 C -0.13925 0.36128 0.24914
 C362 C -0.11765 0.38310 0.24902
 C363 C -0.09239 0.40863 0.24901
 C364 C -0.07077 0.43043 0.24902
 C365 C 0.13902 0.36150 0.75069
 C366 C 0.11730 0.38324 0.75084
 C367 C 0.09183 0.40865 0.75090
 C368 C 0.07006 0.43035 0.75090
 C369 C 0.13902 0.63884 0.24892
 C370 C 0.11723 0.61723 0.24883
 C371 C 0.09166 0.59200 0.24891
 C372 C 0.06977 0.57048 0.24902
 C373 C 0.74995 -0.13891 0.63876
 C374 C 0.74987 -0.11728 0.61704
 C375 C 0.74981 -0.09195 0.59160
 C376 C 0.74978 -0.07032 0.56988
 C377 C 0.25014 -0.13876 0.36126
 C378 C 0.25013 -0.11715 0.38298
 C379 C 0.25010 -0.09184 0.40839
 C380 C 0.25008 -0.07021 0.43008
 C381 C 0.74978 0.13867 0.36114
 C382 C 0.74977 0.11703 0.38282
 C383 C 0.74978 0.09169 0.40822
 C384 C 0.74979 0.07003 0.42989
 C385 C 0.25011 0.13869 0.63878
 C386 C 0.25011 0.11707 0.61708
 C387 C 0.25009 0.09175 0.59167
 C388 C 0.25008 0.07010 0.56999
   
