data_POSCAR
  _audit_creation_date              2014-09-24
  _audit_creation_method            'ToBaCCo'
  _symmetry_space_group_name_H-M    'P1'
  _symmetry_Int_Tables_number       1
  _symmetry_cell_setting            triclinic
  loop_
  _symmetry_equiv_pos_as_xyz
 x,y,z
_cell_length_a 28.9641
_cell_length_b 28.9404
_cell_length_c 49.3392
_cell_angle_alpha 89.872100
_cell_angle_beta 90.601300
_cell_angle_gamma 89.991700
loop_
  _atom_site_label
  _atom_site_type_symbol
  _atom_site_fract_x
  _atom_site_fract_y
  _atom_site_fract_z
C1 C 0.00091 0.35435 1.01402
 C2 C -0.00176 0.35443 0.98628
 C3 C -0.00242 0.40038 0.97818
 N4 N -0.00042 0.42819 1.00013
 C5 C 0.00158 0.40024 1.02209
 C6 C -0.00329 0.41538 0.95089
 C7 C -0.00166 0.46212 0.94237
 C8 C 0.00478 0.47600 0.91574
 C9 C 0.00543 0.52343 0.91569
 C10 C -0.00073 0.53759 0.94230
 N11 N -0.00579 0.49990 0.95834
 C12 C -0.00147 0.58444 0.95074
 C13 C -0.00153 0.59935 0.97808
 C14 C -0.00117 0.64527 0.98620
 C15 C 0.00025 0.64518 1.01395
 C16 C 0.00064 0.59921 1.02208
 N17 N -0.00044 0.57143 1.00009
 C18 C 0.00060 0.58414 1.04944
 C19 C -0.00012 0.53724 1.05790
 C20 C -0.00624 0.52291 1.08453
 C21 C -0.00558 0.47548 1.08449
 C22 C 0.00084 0.46177 1.05787
 N23 N 0.00493 0.49964 1.04188
 C24 C 0.00247 0.41508 1.04938
 H25 H 0.00188 0.32387 1.02677
 H26 H -0.00274 0.32404 0.97354
 H27 H 0.01401 0.49982 1.02166
 H28 H 0.00926 0.45422 0.89816
 H29 H 0.01041 0.54505 0.89802
 H30 H -0.00163 0.67576 0.97345
 H31 H 0.00070 0.67560 1.02668
 H32 H -0.01003 0.45360 1.10209
 H33 H -0.01490 0.49995 0.97856
 H34 H -0.01121 0.54442 1.10218
 C35 C 0.64642 0.00503 0.51279
 C36 C 0.64563 0.00197 0.48508
 C37 C 0.59949 0.00164 0.47712
 N38 N 0.57230 0.00424 0.49917
 C39 C 0.60079 0.00626 0.52101
 C40 C 0.58370 0.00052 0.44985
 C41 C 0.53664 0.00227 0.44160
 C42 C 0.52172 0.00865 0.41500
 C43 C 0.47433 0.00918 0.41529
 C44 C 0.46124 0.00305 0.44203
 N45 N 0.49945 -0.00189 0.45786
 C46 C 0.41479 0.00212 0.45075
 C47 C 0.40072 0.00229 0.47811
 C48 C 0.35510 0.00235 0.48642
 C49 C 0.35598 0.00421 0.51417
 C50 C 0.40211 0.00519 0.52202
 N51 N 0.42924 0.00403 0.49992
 C52 C 0.41793 0.00579 0.54923
 C53 C 0.46493 0.00557 0.55749
 C54 C 0.47984 0.00020 0.58414
 C55 C 0.52725 0.00084 0.58391
 C56 C 0.54029 0.00651 0.55712
 N57 N 0.50204 0.01020 0.54123
 C58 C 0.58670 0.00771 0.54837
 H59 H 0.67720 0.00589 0.52541
 H60 H 0.67568 0.00051 0.47225
 H61 H 0.50134 0.01862 0.52084
 H62 H 0.54282 0.01310 0.39720
 H63 H 0.45207 0.01405 0.39776
 H64 H 0.32429 0.00139 0.47382
 H65 H 0.32598 0.00458 0.52707
 H66 H 0.54956 -0.00318 0.60149
 H67 H 0.50008 -0.01111 0.47814
 H68 H 0.45879 -0.00433 0.60195
 C69 C 0.08910 0.00151 0.26177
 H70 H 0.09210 0.00172 0.23993
 C71 C 0.12879 0.00322 0.27810
 H72 H 0.16253 0.00458 0.26886
 C73 C 0.04153 -0.00008 0.30060
 H74 H 0.00755 -0.00064 0.30935
 C75 C 0.08027 0.00163 0.31763
 H76 H 0.07595 0.00185 0.33942
 N77 N 0.04658 -0.00082 0.27320
 C78 C -0.04293 -0.06581 0.21259
 H79 H -0.07110 -0.04126 0.21209
 C80 C -0.04431 -0.10470 0.19591
 H81 H -0.07355 -0.11014 0.18242
 C82 C 0.02988 -0.08859 0.23058
 H83 H 0.05856 -0.08244 0.24424
 C84 C 0.02986 -0.12795 0.21422
 H85 H 0.05875 -0.15170 0.21514
 Zn86 Zn -0.00591 -0.00313 0.24997
 N87 N -0.00578 -0.05800 0.22907
 C88 C -0.00287 0.04417 0.19954
 N89 N -0.00375 0.04935 0.22695
 C90 C -0.00155 0.09195 0.23854
 C91 C 0.00026 0.13161 0.22235
 C92 C -0.00105 0.08286 0.18265
 C93 C -0.06833 -0.04039 0.28687
 C94 C -0.10716 -0.04195 0.30338
 C95 C -0.13067 0.03226 0.28540
 C96 C -0.09136 0.03245 0.26921
 N97 N -0.06068 -0.00315 0.27063
 H98 H -0.00332 0.01013 0.19067
 H99 H -0.00143 0.09506 0.26039
 H100 H 0.00159 0.16542 0.23170
 H101 H -0.00065 0.07843 0.16085
 H102 H -0.04371 -0.06851 0.28731
 H103 H -0.11247 -0.07128 0.31667
 H104 H -0.15450 0.06109 0.28455
 H105 H -0.08533 0.06121 0.25574
 C106 C -0.00736 -0.13579 0.19655
 C107 C 0.12427 0.00304 0.30629
 C108 C -0.13835 -0.00508 0.30282
 C109 C 0.00030 0.12694 0.19414
 C110 C 0.00138 0.09370 0.76175
 H111 H 0.00137 0.09701 0.73990
 C112 C -0.00049 0.13320 0.77796
 H113 H -0.00178 0.16710 0.76862
 C114 C 0.00254 0.04556 0.80072
 H115 H 0.00296 0.01143 0.80957
 C116 C 0.00066 0.08409 0.81763
 H117 H 0.00017 0.07945 0.83943
 N118 N 0.00354 0.05098 0.77332
 C119 C 0.06844 -0.03816 0.71344
 H120 H 0.04384 -0.06629 0.71295
 C121 C 0.10727 -0.03949 0.69694
 H122 H 0.11262 -0.06865 0.68360
 C123 C 0.09135 0.03452 0.73119
 H124 H 0.08525 0.06313 0.74469
 C125 C 0.13066 0.03455 0.71501
 H126 H 0.15444 0.06341 0.71589
 Zn127 Zn 0.00582 -0.00127 0.75027
 N128 N 0.06071 -0.00109 0.72971
 C129 C -0.04126 0.00242 0.69954
 N130 N -0.04652 0.00133 0.72692
 C131 C -0.08912 0.00353 0.73825
 C132 C -0.12869 0.00552 0.72181
 C133 C -0.07986 0.00442 0.68241
 C134 C 0.04262 -0.06434 0.78766
 C135 C 0.04389 -0.10338 0.80433
 C136 C -0.03020 -0.12640 0.78587
 C137 C -0.03012 -0.08689 0.76953
 N138 N 0.00556 -0.05634 0.77112
 H139 H -0.00721 0.00197 0.69087
 H140 H -0.09230 0.00347 0.76007
 H141 H -0.16250 0.00680 0.73096
 H142 H -0.07536 0.00495 0.66063
 H143 H 0.07080 -0.03981 0.78823
 H144 H 0.07306 -0.10896 0.81786
 H145 H -0.05910 -0.15011 0.78489
 H146 H -0.05872 -0.08059 0.75582
 C147 C 0.13840 -0.00258 0.69754
 C148 C -0.00064 0.12828 0.80616
 C149 C 0.00693 -0.13443 0.80360
 C150 C -0.12394 0.00573 0.69363
 C151 C -0.00064 -0.38245 0.06912
 C152 C -0.00180 -0.35246 0.08603
 C153 C -0.00323 -0.31580 0.10563
 C154 C -0.00064 -0.32569 0.13343
 C155 C -0.00182 -0.28973 0.15234
 C156 C -0.00562 -0.24382 0.14350
 C157 C -0.00830 -0.23401 0.11571
 C158 C -0.00711 -0.26990 0.09683
 C159 C -0.00643 -0.20658 0.16277
 C160 C -0.00696 -0.17468 0.17843
 H161 H 0.00237 -0.36108 0.14044
 H162 H 0.00032 -0.29769 0.17378
 H163 H -0.01120 -0.19864 0.10865
 H164 H -0.00913 -0.26189 0.07539
 C165 C 0.00292 0.37953 0.07015
 C166 C 0.00338 0.34912 0.08689
 C167 C 0.00398 0.31178 0.10617
 C168 C -0.00794 0.31950 0.13324
 C169 C -0.00808 0.28270 0.15172
 C170 C 0.00372 0.23813 0.14315
 C171 C 0.01584 0.23054 0.11612
 C172 C 0.01597 0.26726 0.09768
 C173 C 0.00270 0.19987 0.16181
 C174 C 0.00170 0.16703 0.17687
 H175 H -0.01733 0.35380 0.14000
 H176 H -0.01760 0.28893 0.17257
 H177 H 0.02493 0.19620 0.10927
 H178 H 0.02516 0.26090 0.07678
 C179 C 0.38321 0.00450 0.57020
 C180 C 0.35358 0.00329 0.58716
 C181 C 0.31726 0.00175 0.60680
 C182 C 0.32727 0.00720 0.63446
 C183 C 0.29161 0.00597 0.65338
 C184 C 0.24588 -0.00073 0.64468
 C185 C 0.23597 -0.00628 0.61703
 C186 C 0.27157 -0.00504 0.59814
 C187 C 0.20890 -0.00153 0.66393
 C188 C 0.17716 -0.00208 0.67954
 H189 H 0.36250 0.01249 0.64136
 H190 H 0.29964 0.01035 0.67472
 H191 H 0.20074 -0.01144 0.61008
 H192 H 0.26346 -0.00928 0.57680
 C193 C -0.37725 0.00826 0.56900
 C194 C -0.34654 0.00873 0.58568
 C195 C -0.30898 0.00927 0.60498
 C196 C -0.26410 0.01842 0.59614
 C197 C -0.22726 0.01832 0.61466
 C198 C -0.23509 0.00907 0.64211
 C199 C -0.28002 0.00008 0.65099
 C200 C -0.31693 0.00019 0.63245
 C201 C -0.19678 0.00814 0.66091
 C202 C -0.16396 0.00717 0.67612
 H203 H -0.25758 0.02542 0.57494
 H204 H -0.19265 0.02523 0.60756
 H205 H -0.28644 -0.00720 0.67217
 H206 H -0.35152 -0.00698 0.63947
 C207 C -0.00023 -0.38203 0.93104
 C208 C 0.00094 -0.35192 0.91412
 C209 C 0.00239 -0.31512 0.89452
 C210 C 0.00030 -0.32483 0.86672
 C211 C 0.00154 -0.28874 0.84780
 C212 C 0.00488 -0.24286 0.85664
 C213 C 0.00704 -0.23323 0.88444
 C214 C 0.00580 -0.26926 0.90332
 C215 C 0.00579 -0.20548 0.83737
 C216 C 0.00641 -0.17347 0.82171
 H217 H -0.00234 -0.36019 0.85970
 H218 H -0.00019 -0.29657 0.82635
 H219 H 0.00959 -0.19789 0.89150
 H220 H 0.00742 -0.26138 0.92477
 C221 C -0.00369 0.37996 0.93013
 C222 C -0.00410 0.34965 0.91341
 C223 C -0.00463 0.31244 0.89413
 C224 C 0.00715 0.32039 0.86704
 C225 C 0.00735 0.28372 0.84858
 C226 C -0.00424 0.23905 0.85717
 C227 C -0.01621 0.23122 0.88423
 C228 C -0.01640 0.26782 0.90266
 C229 C -0.00315 0.20092 0.83852
 C230 C -0.00211 0.16821 0.82345
 H231 H 0.01638 0.35477 0.86026
 H232 H 0.01676 0.29013 0.82771
 H233 H -0.02514 0.19681 0.89110
 H234 H -0.02549 0.26129 0.92357
 C235 C -0.38345 -0.00042 0.43000
 C236 C -0.35384 -0.00137 0.41301
 C237 C -0.31752 -0.00261 0.39338
 C238 C -0.32714 0.00571 0.36590
 C239 C -0.29143 0.00487 0.34700
 C240 C -0.24603 -0.00431 0.35554
 C241 C -0.23652 -0.01274 0.38301
 C242 C -0.27216 -0.01189 0.40187
 C243 C -0.20897 -0.00466 0.33635
 C244 C -0.17717 -0.00491 0.32078
 H245 H -0.36211 0.01296 0.35913
 H246 H -0.29915 0.01150 0.32582
 H247 H -0.20154 -0.01982 0.38984
 H248 H -0.26435 -0.01833 0.42307
 C249 C 0.37871 0.00301 0.43014
 C250 C 0.34789 0.00378 0.41353
 C251 C 0.31013 0.00467 0.39437
 C252 C 0.26510 0.01176 0.40356
 C253 C 0.22807 0.01205 0.38517
 C254 C 0.23586 0.00525 0.35750
 C255 C 0.28093 -0.00167 0.34826
 C256 C 0.31803 -0.00196 0.36667
 C257 C 0.19739 0.00476 0.33881
 C258 C 0.16443 0.00412 0.32369
 H259 H 0.25861 0.01687 0.42493
 H260 H 0.19336 0.01736 0.39254
 H261 H 0.28733 -0.00704 0.32690
 H262 H 0.35273 -0.00751 0.35937
   
