data_POSCAR
  _audit_creation_date              2014-09-24
  _audit_creation_method            'ToBaCCo'
  _symmetry_space_group_name_H-M    'P1'
  _symmetry_Int_Tables_number       1
  _symmetry_cell_setting            triclinic
  loop_
  _symmetry_equiv_pos_as_xyz
 x,y,z
_cell_length_a 37.9504
_cell_length_b 37.8996
_cell_length_c 37.9908
_cell_angle_alpha 89.984900
_cell_angle_beta 89.973100
_cell_angle_gamma 89.971700
loop_
  _atom_site_label
  _atom_site_type_symbol
  _atom_site_fract_x
  _atom_site_fract_y
  _atom_site_fract_z
N1 N 0.25033 0.24996 0.24989
 N2 N 0.74962 -0.24993 0.24985
 N3 N 0.75000 0.24990 0.74994
 N4 N 0.25008 -0.24985 0.75025
 N5 N 0.74976 -0.24988 0.75016
 N6 N 0.25036 0.24989 0.75017
 N7 N 0.25005 -0.24991 0.25006
 N8 N 0.74988 0.24993 0.24980
 O9 O 0.22138 0.03445 0.46578
 O10 O 0.22131 -0.03426 0.53437
 O11 O 0.22138 0.03446 0.53435
 O12 O 0.22130 -0.03427 0.46581
 O13 O 0.27958 -0.03437 0.46578
 O14 O 0.27966 0.03436 0.53432
 O15 O 0.27958 -0.03436 0.53434
 O16 O 0.27966 0.03436 0.46575
 Cu17 Cu 0.21546 0.00010 0.50008
 Cu18 Cu 0.28550 -0.00001 0.50005
 C19 C 0.25053 0.04600 0.45419
 C20 C 0.25043 -0.04591 0.54594
 C21 C 0.25053 0.04601 0.54590
 C22 C 0.25043 -0.04592 0.45423
 O23 O 0.77864 0.03429 0.53416
 O24 O 0.77857 -0.03443 0.46562
 O25 O 0.77861 0.03429 0.46560
 O26 O 0.77859 -0.03443 0.53419
 O27 O 0.72032 -0.03436 0.53424
 O28 O 0.72034 0.03435 0.46565
 O29 O 0.72029 -0.03437 0.46567
 O30 O 0.72036 0.03436 0.53421
 Cu31 Cu 0.78448 -0.00008 0.49989
 Cu32 Cu 0.71445 0.00000 0.49995
 C33 C 0.74951 0.04593 0.54575
 C34 C 0.74942 -0.04600 0.45408
 C35 C 0.74948 0.04592 0.45405
 C36 C 0.74945 -0.04599 0.54579
 O37 O 0.46588 0.22046 0.03424
 O38 O 0.53452 0.22045 -0.03435
 O39 O 0.53452 0.22047 0.03421
 O40 O 0.46589 0.22044 -0.03432
 O41 O 0.46585 0.27880 -0.03436
 O42 O 0.53448 0.27882 0.03417
 O43 O 0.53448 0.27880 -0.03439
 O44 O 0.46585 0.27881 0.03421
 Cu45 Cu 0.50020 0.21457 -0.00006
 Cu46 Cu 0.50016 0.28470 -0.00009
 C47 C 0.45428 0.24964 0.04580
 C48 C 0.54608 0.24963 -0.04595
 C49 C 0.54608 0.24965 0.04576
 C50 C 0.45429 0.24961 -0.04591
 O51 O 0.53416 0.77936 0.03431
 O52 O 0.46552 0.77938 -0.03422
 O53 O 0.46552 0.77938 0.03435
 O54 O 0.53415 0.77937 -0.03425
 O55 O 0.53417 0.72102 -0.03424
 O56 O 0.46555 0.72102 0.03436
 O57 O 0.46555 0.72102 -0.03420
 O58 O 0.53417 0.72101 0.03432
 Cu59 Cu 0.49984 0.78526 0.00005
 Cu60 Cu 0.49986 0.71513 0.00006
 C61 C 0.54575 0.75018 0.04588
 C62 C 0.45395 0.75020 -0.04578
 C63 C 0.45395 0.75020 0.04593
 C64 C 0.54575 0.75019 -0.04582
 O65 O 0.03434 0.46567 0.22058
 O66 O -0.03434 0.53438 0.22056
 O67 O 0.03429 0.53439 0.22061
 O68 O -0.03430 0.46566 0.22054
 O69 O -0.03436 0.46562 0.27876
 O70 O 0.03423 0.53436 0.27882
 O71 O -0.03440 0.53435 0.27877
 O72 O 0.03428 0.46563 0.27879
 Cu73 Cu 0.00001 0.50003 0.21470
 Cu74 Cu -0.00007 0.49998 0.28466
 C75 C 0.04590 0.45405 0.24969
 C76 C -0.04596 0.54596 0.24966
 C77 C 0.04584 0.54598 0.24972
 C78 C -0.04591 0.45404 0.24964
 O79 O 0.03432 0.53435 0.77946
 O80 O -0.03428 0.46562 0.77939
 O81 O 0.03436 0.46563 0.77945
 O82 O -0.03432 0.53435 0.77940
 O83 O -0.03423 0.53437 0.72119
 O84 O 0.03444 0.46565 0.72124
 O85 O -0.03419 0.46565 0.72118
 O86 O 0.03440 0.53437 0.72125
 Cu87 Cu 0.00001 0.49999 0.78530
 Cu88 Cu 0.00011 0.50001 0.71534
 C89 C 0.04594 0.54596 0.75037
 C90 C -0.04581 0.45403 0.75027
 C91 C 0.04599 0.45404 0.75036
 C92 C -0.04586 0.54596 0.75028
 C93 C 0.31384 0.21807 0.18102
 C94 C 0.32958 0.24977 0.17053
 C95 C 0.31919 0.28155 0.18621
 C96 C 0.29317 0.28162 0.21227
 C97 C 0.27723 0.24990 0.22296
 C98 C 0.28782 0.21811 0.20707
 C99 C 0.35637 0.24971 0.14371
 C100 C 0.37882 0.24967 0.12125
 C101 C 0.40511 0.24964 0.09496
 C102 C 0.42755 0.24964 0.07251
 H103 H 0.32165 0.19333 0.16902
 H104 H 0.33123 0.30623 0.17834
 H105 H 0.28562 0.30638 0.22433
 H106 H 0.27572 0.19339 0.21469
 C107 C 0.70554 0.74328 0.16162
 C108 C 0.67041 0.75016 0.17055
 C109 C 0.66139 0.75702 0.20562
 C110 C 0.68739 0.75700 0.23167
 C111 C 0.72274 0.75011 0.22294
 C112 C 0.73156 0.74326 0.18764
 C113 C 0.64362 0.75016 0.14374
 C114 C 0.62119 0.75015 0.12129
 C115 C 0.59492 0.75015 0.09501
 C116 C 0.57247 0.75017 0.07257
 H117 H 0.71281 0.73799 0.13455
 H118 H 0.63428 0.76232 0.21283
 H119 H 0.67995 0.76208 0.25872
 H120 H 0.75865 0.73815 0.18027
 C121 C 0.68116 0.28152 -0.18637
 C122 C 0.67078 0.24975 -0.17069
 C123 C 0.68652 0.21803 -0.18116
 C124 C 0.71254 0.21806 -0.20722
 C125 C 0.72312 0.24985 -0.22312
 C126 C 0.70717 0.28159 -0.21244
 C127 C 0.64399 0.24970 -0.14386
 C128 C 0.62154 0.24965 -0.12140
 C129 C 0.59526 0.24962 -0.09511
 C130 C 0.57281 0.24961 -0.07266
 H131 H 0.66911 0.30621 -0.17851
 H132 H 0.67873 0.19330 -0.16915
 H133 H 0.72465 0.19335 -0.21484
 H134 H 0.71471 0.30634 -0.22451
 C135 C 0.33830 0.75707 -0.20551
 C136 C 0.32929 0.75019 -0.17043
 C137 C 0.29416 0.74331 -0.16151
 C138 C 0.26814 0.74331 -0.18753
 C139 C 0.27696 0.75017 -0.22283
 C140 C 0.31230 0.75706 -0.23156
 C141 C 0.35607 0.75017 -0.14363
 C142 C 0.37850 0.75017 -0.12117
 C143 C 0.40478 0.75018 -0.09489
 C144 C 0.42723 0.75020 -0.07246
 H145 H 0.36541 0.76236 -0.21272
 H146 H 0.28689 0.73801 -0.13444
 H147 H 0.24106 0.73820 -0.18016
 H148 H 0.31974 0.76215 -0.25861
 C149 C 0.18671 0.31902 0.28141
 C150 C 0.17087 0.32928 0.24975
 C151 C 0.18124 0.31340 0.21813
 C152 C 0.20733 0.28735 0.21815
 C153 C 0.22338 0.27689 0.24984
 C154 C 0.21281 0.29298 0.28147
 C155 C 0.14400 0.35609 0.24970
 C156 C 0.12149 0.37854 0.24968
 C157 C 0.09514 0.40484 0.24968
 C158 C 0.07265 0.42730 0.24968
 H159 H 0.17893 0.33118 0.30602
 H160 H 0.16911 0.32110 0.19348
 H161 H 0.21486 0.27513 0.19352
 H162 H 0.22499 0.28553 0.30615
 C163 C 0.20579 0.66182 0.75735
 C164 C 0.17070 0.67082 0.75035
 C165 C 0.16178 0.70597 0.74332
 C166 C 0.18783 0.73203 0.74330
 C167 C 0.22314 0.72323 0.75030
 C168 C 0.23186 0.68786 0.75733
 C169 C 0.14387 0.64399 0.75035
 C170 C 0.12140 0.62152 0.75036
 C171 C 0.09511 0.59520 0.75039
 C172 C 0.07266 0.57272 0.75039
 H173 H 0.21299 0.63469 0.76277
 H174 H 0.13470 0.71323 0.73792
 H175 H 0.18047 0.75913 0.73808
 H176 H 0.25892 0.68043 0.76252
 C177 C -0.20599 0.66176 0.24274
 C178 C -0.17091 0.67075 0.24973
 C179 C -0.16203 0.70590 0.25675
 C180 C -0.18811 0.73196 0.25679
 C181 C -0.22341 0.72316 0.24981
 C182 C -0.23210 0.68779 0.24278
 C183 C -0.14404 0.64394 0.24967
 C184 C -0.12154 0.62148 0.24965
 C185 C -0.09520 0.59518 0.24964
 C186 C -0.07271 0.57271 0.24965
 H187 H -0.21316 0.63463 0.23733
 H188 H -0.13495 0.71316 0.26213
 H189 H -0.18077 0.75906 0.26200
 H190 H -0.25915 0.68036 0.23760
 C191 C -0.18641 0.31893 0.71839
 C192 C -0.17058 0.32918 0.75005
 C193 C -0.18093 0.31329 0.78167
 C194 C -0.20700 0.28725 0.78166
 C195 C -0.22305 0.27680 0.74998
 C196 C -0.21249 0.29290 0.71833
 C197 C -0.14374 0.35599 0.75009
 C198 C -0.12126 0.37846 0.75013
 C199 C -0.09497 0.40478 0.75018
 C200 C -0.07252 0.42727 0.75023
 H201 H -0.17863 0.33109 0.69377
 H202 H -0.16881 0.32099 0.80632
 H203 H -0.21452 0.27503 0.80630
 H204 H -0.22467 0.28546 0.69366
 C205 C 0.21877 0.18104 0.31358
 C206 C 0.25047 0.17073 0.32934
 C207 C 0.28214 0.18653 0.31891
 C208 C 0.28211 0.21255 0.29283
 C209 C 0.25038 0.22307 0.27685
 C210 C 0.21870 0.20706 0.28748
 C211 C 0.25051 0.14394 0.35620
 C212 C 0.25054 0.12149 0.37869
 C213 C 0.25056 0.09520 0.40500
 C214 C 0.25055 0.07274 0.42746
 H215 H 0.19412 0.16895 0.32141
 H216 H 0.30682 0.17878 0.33098
 H217 H 0.30678 0.22471 0.28525
 H218 H 0.19399 0.21455 0.27536
 C219 C 0.78150 0.18097 0.68623
 C220 C 0.74977 0.17070 0.67049
 C221 C 0.71812 0.18655 0.68094
 C222 C 0.71818 0.21256 0.70702
 C223 C 0.74992 0.22303 0.72297
 C224 C 0.78159 0.20698 0.71232
 C225 C 0.74969 0.14390 0.64365
 C226 C 0.74963 0.12145 0.62119
 C227 C 0.74958 0.09515 0.59490
 C228 C 0.74954 0.07268 0.57245
 H229 H 0.80613 0.16884 0.67838
 H230 H 0.69343 0.17884 0.66890
 H231 H 0.69352 0.22475 0.71461
 H232 H 0.80631 0.21443 0.72442
 C233 C 0.25716 -0.16158 0.70584
 C234 C 0.25025 -0.17063 0.67079
 C235 C 0.24329 -0.20580 0.66194
 C236 C 0.24324 -0.23183 0.68802
 C237 C 0.25015 -0.22297 0.72329
 C238 C 0.25711 -0.18758 0.73194
 C239 C 0.25027 -0.14384 0.64393
 C240 C 0.25031 -0.12140 0.62144
 C241 C 0.25036 -0.09512 0.59512
 C242 C 0.25040 -0.07265 0.57266
 H243 H 0.26253 -0.13444 0.71299
 H244 H 0.23796 -0.21310 0.63489
 H245 H 0.23807 -0.25894 0.68070
 H246 H 0.26224 -0.18012 0.75896
 C247 C 0.75642 -0.20588 0.33814
 C248 C 0.74943 -0.17071 0.32927
 C249 C 0.74249 -0.16166 0.29423
 C250 C 0.74255 -0.18766 0.26813
 C251 C 0.74954 -0.22304 0.27680
 C252 C 0.75647 -0.23190 0.31207
 C253 C 0.74940 -0.14392 0.35612
 C254 C 0.74938 -0.12148 0.37860
 C255 C 0.74938 -0.09520 0.40491
 C256 C 0.74940 -0.07274 0.42736
 H257 H 0.76177 -0.21318 0.36519
 H258 H 0.73711 -0.13451 0.28707
 H259 H 0.73740 -0.18019 0.24111
 H260 H 0.76167 -0.25902 0.31940
 C261 C 0.66149 0.75701 -0.20561
 C262 C 0.67047 0.75016 -0.17053
 C263 C 0.70560 0.74330 -0.16160
 C264 C 0.73165 0.74329 -0.18763
 C265 C 0.72285 0.75014 -0.22292
 C266 C 0.68751 0.75700 -0.23166
 C267 C 0.64366 0.75014 -0.14373
 C268 C 0.62121 0.75015 -0.12127
 C269 C 0.59492 0.75017 -0.09498
 C270 C 0.57247 0.75019 -0.07253
 H271 H 0.63437 0.76229 -0.21282
 H272 H 0.71285 0.73802 -0.13453
 H273 H 0.75873 0.73820 -0.18025
 H274 H 0.68009 0.76208 -0.25871
 C275 C 0.33861 0.24289 -0.20564
 C276 C 0.32962 0.24973 -0.17056
 C277 C 0.29449 0.25662 -0.16161
 C278 C 0.26846 0.25667 -0.18762
 C279 C 0.27726 0.24984 -0.22293
 C280 C 0.31260 0.24295 -0.23168
 C281 C 0.35641 0.24966 -0.14376
 C282 C 0.37885 0.24962 -0.12131
 C283 C 0.40512 0.24960 -0.09504
 C284 C 0.42757 0.24960 -0.07260
 H285 H 0.36572 0.23758 -0.21287
 H286 H 0.28723 0.26188 -0.13453
 H287 H 0.24138 0.26178 -0.18023
 H288 H 0.32003 0.23788 -0.25873
 C289 C 0.33828 0.75699 0.20575
 C290 C 0.32927 0.75015 0.17068
 C291 C 0.29414 0.74330 0.16178
 C292 C 0.26812 0.74329 0.18783
 C293 C 0.27693 0.75012 0.22312
 C294 C 0.31228 0.75698 0.23183
 C295 C 0.35606 0.75014 0.14385
 C296 C 0.37849 0.75014 0.12139
 C297 C 0.40477 0.75017 0.09509
 C298 C 0.42723 0.75019 0.07264
 H299 H 0.36539 0.76227 0.21294
 H300 H 0.28687 0.73803 0.13472
 H301 H 0.24103 0.73821 0.18048
 H302 H 0.31972 0.76204 0.25887
 C303 C 0.70583 0.25670 0.16153
 C304 C 0.67071 0.24981 0.17045
 C305 C 0.66168 0.24298 0.20553
 C306 C 0.68766 0.24302 0.23160
 C307 C 0.72301 0.24990 0.22287
 C308 C 0.73184 0.25674 0.18758
 C309 C 0.64394 0.24975 0.14362
 C310 C 0.62152 0.24971 0.12116
 C311 C 0.59525 0.24968 0.09488
 C312 C 0.57280 0.24966 0.07244
 H313 H 0.71312 0.26196 0.13446
 H314 H 0.63457 0.23767 0.21272
 H315 H 0.68021 0.23795 0.25864
 H316 H 0.75893 0.26184 0.18021
 C317 C -0.20583 0.66181 0.75729
 C318 C -0.17076 0.67081 0.75026
 C319 C -0.16188 0.70596 0.74322
 C320 C -0.18797 0.73201 0.74319
 C321 C -0.22327 0.72320 0.75021
 C322 C -0.23195 0.68784 0.75726
 C323 C -0.14389 0.64399 0.75025
 C324 C -0.12140 0.62152 0.75026
 C325 C -0.09508 0.59520 0.75025
 C326 C -0.07261 0.57272 0.75026
 H327 H -0.21300 0.63468 0.76272
 H328 H -0.13481 0.71322 0.73780
 H329 H -0.18063 0.75911 0.73796
 H330 H -0.25899 0.68040 0.76248
 C331 C -0.20582 0.33825 0.24266
 C332 C -0.17073 0.32925 0.24967
 C333 C -0.16182 0.29411 0.25673
 C334 C -0.18788 0.26805 0.25677
 C335 C -0.22318 0.27685 0.24976
 C336 C -0.23190 0.31222 0.24271
 C337 C -0.14389 0.35606 0.24963
 C338 C -0.12141 0.37852 0.24960
 C339 C -0.09510 0.40482 0.24960
 C340 C -0.07263 0.42729 0.24961
 H341 H -0.21301 0.36537 0.23722
 H342 H -0.13474 0.28684 0.26213
 H343 H -0.18052 0.24095 0.26201
 H344 H -0.25895 0.31964 0.23750
 C345 C 0.20598 0.33820 0.75734
 C346 C 0.17090 0.32922 0.75035
 C347 C 0.16202 0.29407 0.74331
 C348 C 0.18810 0.26801 0.74326
 C349 C 0.22340 0.27681 0.75024
 C350 C 0.23209 0.31217 0.75729
 C351 C 0.14404 0.35604 0.75036
 C352 C 0.12154 0.37850 0.75037
 C353 C 0.09521 0.40481 0.75036
 C354 C 0.07273 0.42728 0.75037
 H355 H 0.21316 0.36533 0.76276
 H356 H 0.13494 0.28682 0.73792
 H357 H 0.18075 0.24092 0.73803
 H358 H 0.25913 0.31959 0.76247
 C359 C 0.20572 0.66180 0.24294
 C360 C 0.17063 0.67080 0.24995
 C361 C 0.16173 0.70594 0.25702
 C362 C 0.18779 0.73199 0.25706
 C363 C 0.22310 0.72318 0.25004
 C364 C 0.23181 0.68782 0.24298
 C365 C 0.14378 0.64400 0.24989
 C366 C 0.12130 0.62154 0.24983
 C367 C 0.09500 0.59522 0.24978
 C368 C 0.07255 0.57274 0.24975
 H369 H 0.21290 0.63467 0.23749
 H370 H 0.13465 0.71321 0.26243
 H371 H 0.18044 0.75909 0.26231
 H372 H 0.25886 0.68038 0.23776
 C373 C 0.74260 -0.16163 0.70573
 C374 C 0.74955 -0.17068 0.67068
 C375 C 0.75656 -0.20584 0.66184
 C376 C 0.75663 -0.23187 0.68792
 C377 C 0.74968 -0.22301 0.72319
 C378 C 0.74266 -0.18762 0.73184
 C379 C 0.74950 -0.14390 0.64382
 C380 C 0.74947 -0.12146 0.62132
 C381 C 0.74945 -0.09518 0.59500
 C382 C 0.74945 -0.07272 0.57252
 H383 H 0.73720 -0.13448 0.71287
 H384 H 0.76192 -0.21315 0.63479
 H385 H 0.76184 -0.25898 0.68061
 H386 H 0.73751 -0.18015 0.75886
 C387 C 0.24325 -0.20585 0.33835
 C388 C 0.25023 -0.17069 0.32948
 C389 C 0.25715 -0.16164 0.29442
 C390 C 0.25710 -0.18764 0.26833
 C391 C 0.25011 -0.22302 0.27701
 C392 C 0.24319 -0.23188 0.31229
 C393 C 0.25026 -0.14390 0.35632
 C394 C 0.25030 -0.12145 0.37879
 C395 C 0.25035 -0.09515 0.40509
 C396 C 0.25039 -0.07268 0.42753
 H397 H 0.23791 -0.21315 0.36541
 H398 H 0.26253 -0.13450 0.28726
 H399 H 0.26224 -0.18018 0.24130
 H400 H 0.23801 -0.25899 0.31962
 C401 C 0.74277 0.16165 0.29418
 C402 C 0.74967 0.17068 0.32924
 C403 C 0.75664 0.20584 0.33810
 C404 C 0.75671 0.23188 0.31203
 C405 C 0.74981 0.22304 0.27676
 C406 C 0.74284 0.18766 0.26809
 C407 C 0.74960 0.14389 0.35609
 C408 C 0.74955 0.12144 0.37857
 C409 C 0.74951 0.09514 0.40487
 C410 C 0.74949 0.07267 0.42733
 H411 H 0.73739 0.13451 0.28703
 H412 H 0.76197 0.21313 0.36515
 H413 H 0.76189 0.25899 0.31935
 H414 H 0.73771 0.18020 0.24106
 C415 C 0.25747 0.16164 0.70575
 C416 C 0.25053 0.17071 0.67071
 C417 C 0.24355 0.20588 0.66186
 C418 C 0.24350 0.23190 0.68794
 C419 C 0.25043 0.22302 0.72321
 C420 C 0.25743 0.18763 0.73186
 C421 C 0.25055 0.14393 0.64386
 C422 C 0.25057 0.12149 0.62138
 C423 C 0.25057 0.09521 0.59507
 C424 C 0.25056 0.07275 0.57261
 H425 H 0.26286 0.13449 0.71290
 H426 H 0.23819 0.21320 0.63482
 H427 H 0.23831 0.25902 0.68063
 H428 H 0.26257 0.18015 0.75888
   
