data_POSCAR
  _audit_creation_date              2014-09-24
  _audit_creation_method            'ToBaCCo'
  _symmetry_space_group_name_H-M    'P1'
  _symmetry_Int_Tables_number       1
  _symmetry_cell_setting            triclinic
  loop_
  _symmetry_equiv_pos_as_xyz
 x,y,z
_cell_length_a 13.9786
_cell_length_b 14.1713
_cell_length_c 17.0073
_cell_angle_alpha 89.744500
_cell_angle_beta 89.797800
_cell_angle_gamma 90.562200
loop_
  _atom_site_label
  _atom_site_type_symbol
  _atom_site_fract_x
  _atom_site_fract_y
  _atom_site_fract_z
B1 B 0.31105 0.21829 0.32733
 B2 B 0.19418 0.19056 0.31501
 B3 B 0.22514 0.30205 0.33515
 B4 B 0.33082 0.32722 0.29029
 B5 B 0.36244 0.22912 0.23902
 B6 B 0.27716 0.14383 0.25517
 B7 B 0.19261 0.29269 0.18059
 B8 B 0.30777 0.31823 0.19305
 B9 B 0.27728 0.20613 0.17162
 B10 B 0.17165 0.18183 0.21726
 B11 B 0.14044 0.27970 0.26796
 B12 B 0.22569 0.36494 0.25301
 B13 B 0.71577 0.78548 0.16884
 B14 B 0.69470 0.67553 0.20264
 B15 B 0.80709 0.70412 0.18019
 B16 B 0.82604 0.81926 0.20653
 B17 B 0.72298 0.85767 0.24773
 B18 B 0.64045 0.76723 0.24380
 B19 B 0.78993 0.71033 0.33751
 B20 B 0.81345 0.81914 0.30707
 B21 B 0.69818 0.79160 0.32709
 B22 B 0.68093 0.67727 0.30148
 B23 B 0.78377 0.63897 0.26029
 B24 B 0.86617 0.72826 0.26309
 B25 B 0.71199 0.20665 0.82958
 B26 B 0.69311 0.32300 0.81269
 B27 B 0.80422 0.29093 0.82548
 B28 B 0.81876 0.18222 0.78599
 B29 B 0.71314 0.15207 0.74313
 B30 B 0.63308 0.24055 0.76066
 B31 B 0.78147 0.31274 0.66963
 B32 B 0.80232 0.19914 0.68828
 B33 B 0.68811 0.23252 0.67266
 B34 B 0.67442 0.33986 0.71363
 B35 B 0.77975 0.36918 0.75422
 B36 B 0.85934 0.28167 0.73926
 B37 B 0.28154 0.78813 0.83591
 B38 B 0.30007 0.67851 0.80844
 B39 B 0.18964 0.70625 0.82421
 B40 B 0.17300 0.81951 0.79624
 B41 B 0.27731 0.85815 0.75553
 B42 B 0.35911 0.76869 0.76411
 B43 B 0.21274 0.71007 0.66845
 B44 B 0.18790 0.81697 0.69769
 B45 B 0.30355 0.79097 0.67877
 B46 B 0.31994 0.67744 0.70852
 B47 B 0.21558 0.63974 0.74671
 B48 B 0.13413 0.72684 0.74067
 B49 B 0.20077 0.28268 0.82235
 B50 B 0.31404 0.31397 0.79858
 B51 B 0.29341 0.20590 0.82838
 B52 B 0.18595 0.16885 0.79171
 B53 B 0.14271 0.25905 0.73753
 B54 B 0.22232 0.35152 0.74294
 B55 B 0.31201 0.20342 0.67078
 B56 B 0.20241 0.17157 0.69113
 B57 B 0.21757 0.28169 0.66326
 B58 B 0.32655 0.31735 0.69934
 B59 B 0.36976 0.22627 0.75413
 B60 B 0.29044 0.13514 0.75029
 B61 B 0.80733 0.71965 0.82576
 B62 B 0.69251 0.69474 0.81284
 B63 B 0.72294 0.80548 0.83210
 B64 B 0.82856 0.82851 0.78590
 B65 B 0.86081 0.72985 0.73638
 B66 B 0.77540 0.64423 0.75383
 B67 B 0.69171 0.78854 0.67650
 B68 B 0.80437 0.81676 0.68708
 B69 B 0.77768 0.70365 0.66839
 B70 B 0.67108 0.68063 0.71495
 B71 B 0.63892 0.78073 0.76397
 B72 B 0.72318 0.86465 0.74800
 B73 B 0.20963 0.70587 0.32524
 B74 B 0.19490 0.81907 0.29861
 B75 B 0.30421 0.78346 0.32239
 B76 B 0.32021 0.67165 0.28985
 B77 B 0.21833 0.64060 0.24375
 B78 B 0.13925 0.73277 0.24989
 B79 B 0.29705 0.79228 0.16600
 B80 B 0.31316 0.68079 0.18960
 B81 B 0.20218 0.71423 0.16710
 B82 B 0.18730 0.82576 0.19945
 B83 B 0.28951 0.85708 0.24606
 B84 B 0.36807 0.76581 0.24076
 B85 B 0.79914 0.28394 0.17171
 B86 B 0.68381 0.30798 0.19009
 B87 B 0.71365 0.19650 0.16674
 B88 B 0.82198 0.17432 0.20762
 B89 B 0.85562 0.27204 0.25871
 B90 B 0.76970 0.35611 0.24721
 B91 B 0.69049 0.20405 0.32535
 B92 B 0.80509 0.18153 0.30680
 B93 B 0.77604 0.29421 0.33159
 B94 B 0.66709 0.31542 0.28984
 B95 B 0.63356 0.21756 0.23911
 B96 B 0.71971 0.13360 0.24968
 O97 O 0.39660 1.18152 0.06757
 O98 O 0.59830 0.78373 0.04469
 O99 O 0.30772 0.89043 0.05204
 O100 O 0.69600 1.08334 0.04838
 O101 O 0.44619 0.85061 0.09525
 O102 O 0.56855 1.14408 0.09721
 O103 O 0.63699 0.92194 0.09030
 O104 O 0.29976 1.06293 0.08676
 C105 C 0.32352 1.14710 0.10035
 C106 C 0.65204 0.83233 0.09435
 C107 C 0.35582 0.84484 0.09866
 C108 C 0.65817 1.13850 0.09792
 O109 O 0.61009 1.18215 -0.05028
 O110 O 0.41423 0.80979 -0.05608
 O111 O 0.30218 1.10028 -0.06201
 O112 O 0.72556 0.91498 -0.04567
 O113 O 0.58424 0.87256 -0.09136
 O114 O 0.43355 1.18273 -0.08251
 O115 O 0.64293 1.05258 -0.10248
 O116 O 0.32460 0.92940 -0.09229
 Co117 Co 0.50136 1.15414 0.00701
 Co118 Co 0.51401 0.87209 0.00274
 Co119 Co 0.32539 0.99685 -0.00357
 Co120 Co 0.62920 0.98754 -0.00615
 O121 O 0.48181 1.01062 -0.00091
 C122 C 0.65473 1.14109 -0.10250
 C123 C 0.34283 0.84312 -0.09605
 C124 C 0.34653 1.16375 -0.09766
 C125 C 0.67619 0.86311 -0.09545
 O126 O 0.92128 0.63292 0.59371
 O127 O 1.06921 0.31034 0.57730
 O128 O 0.85542 0.45572 0.59977
 O129 O 1.16373 0.57278 0.59524
 O130 O 0.88780 0.32321 0.55132
 O131 O 1.09105 0.70091 0.55484
 O132 O 1.19423 0.40352 0.56550
 O133 O 0.77907 0.59367 0.54511
 C134 C 0.82833 0.64428 0.59597
 C135 C 1.15648 0.33080 0.59330
 C136 C 0.84205 0.36868 0.60117
 C137 C 1.15579 0.66064 0.59803
 O138 O 1.05975 0.65064 0.40412
 O139 O 0.92418 0.35477 0.40010
 O140 O 0.86451 0.57276 0.40775
 O141 O 1.20095 0.44084 0.41875
 O142 O 1.09952 0.32330 0.42927
 O143 O 0.90347 0.70547 0.45542
 O144 O 1.19546 0.61287 0.44853
 O145 O 0.79817 0.41580 0.45034
 Co146 Co 0.99647 0.63097 0.50055
 Co147 Co 0.99539 0.34524 0.48986
 Co148 Co 0.86915 0.51380 0.50335
 Co149 Co 1.17077 0.50651 0.50613
 O150 O 1.01407 0.48980 0.49770
 C151 C 1.14980 0.65489 0.39771
 C152 C 0.83404 0.35786 0.40081
 C153 C 0.85216 0.66115 0.40677
 C154 C 1.17641 0.35780 0.40321
 O155 O 1.11807 0.43688 0.12529
 O156 O 1.11028 0.55857 -0.13651
 O157 O 1.12259 0.32902 -0.04283
 O158 O 1.12125 0.68010 0.03844
 O159 O 1.07062 0.39342 -0.14637
 O160 O 1.07776 0.59960 0.13861
 O161 O 1.05538 0.68754 -0.09224
 O162 O 1.05785 0.30727 0.09064
 C163 C 1.12381 0.34891 0.12343
 C164 C 1.12021 0.64588 -0.12533
 C165 C 1.13037 0.33955 -0.11549
 C166 C 1.13304 0.66016 0.10813
 O167 O 0.88638 0.55781 0.13249
 O168 O 0.87979 0.43373 -0.12011
 O169 O 0.87852 0.33133 0.03976
 O170 O 0.87935 0.67802 -0.04174
 O171 O 0.92224 0.59833 -0.14223
 O172 O 0.92958 0.39413 0.14378
 O173 O 0.94356 0.68797 0.09258
 O174 O 0.94361 0.30594 -0.09062
 Co175 Co 1.00266 0.49700 0.12298
 Co176 Co 0.99605 0.49529 -0.12374
 Co177 Co 1.00101 0.34031 -0.00055
 Co178 Co 0.99989 0.66302 -0.00030
 O179 O 1.00147 0.49995 -0.00038
 C180 C 0.87736 0.64552 0.12548
 C181 C 0.87443 0.34579 -0.11868
 C182 C 0.86977 0.34124 0.11170
 C183 C 0.87121 0.66201 -0.11309
 O184 O 0.63416 0.92661 0.60984
 O185 O 0.56152 1.08524 0.35237
 O186 O 0.61188 0.81842 0.45164
 O187 O 0.55517 1.23096 0.56602
 O188 O 0.56378 0.90679 0.35206
 O189 O 0.62091 1.09637 0.60027
 O190 O 0.62239 1.14619 0.45573
 O191 O 0.55484 0.80318 0.59118
 C192 C 0.62795 0.84005 0.61621
 C193 C 0.62319 1.13994 0.38316
 C194 C 0.62242 0.84546 0.38210
 C195 C 0.61718 1.18594 0.60942
 O196 O 0.43644 1.08515 0.64598
 O197 O 0.36654 0.91957 0.38978
 O198 O 0.38126 0.82119 0.54990
 O199 O 0.45230 1.20437 0.42017
 O200 O 0.37280 1.08052 0.39580
 O201 O 0.43787 0.90634 0.64952
 O202 O 0.38656 1.15193 0.54332
 O203 O 0.44021 0.79673 0.40936
 Co204 Co 0.52909 1.00218 0.61619
 Co205 Co 0.46872 0.99707 0.38042
 Co206 Co 0.49628 0.82997 0.49981
 Co207 Co 0.50597 1.13781 0.50298
 O208 O 0.49621 0.99000 0.49599
 C209 C 0.38002 1.14249 0.61473
 C210 C 0.36867 0.83358 0.38370
 C211 C 0.37655 0.84520 0.62101
 C212 C 0.38108 1.16754 0.38748
 O213 O 1.18088 1.06486 0.41566
 O214 O 0.82275 1.09019 0.57823
 O215 O 0.91392 1.05148 0.33448
 O216 O 1.10421 1.04668 0.66372
 O217 O 0.85441 1.11719 0.43690
 O218 O 1.17600 1.09261 0.55942
 O219 O 0.94840 1.12449 0.64602
 O220 O 1.05203 1.11951 0.38368
 C221 C 1.13891 1.12576 0.37810
 C222 C 0.86303 1.13868 0.63037
 C223 C 0.86189 1.11405 0.36305
 C224 C 1.15764 1.10171 0.63178
 O225 O 1.16244 0.90721 0.57955
 O226 O 0.82428 0.93715 0.41092
 O227 O 1.08711 0.95562 0.31646
 O228 O 0.87518 0.96131 0.65496
 O229 O 0.82871 0.89608 0.55245
 O230 O 1.13514 0.88503 0.42734
 O231 O 1.03749 0.88716 0.65598
 O232 O 0.95732 0.87916 0.38431
 Co233 Co 1.14300 0.98789 0.49690
 Co234 Co 0.85034 1.00984 0.49649
 Co235 Co 1.00931 0.99832 0.39245
 Co236 Co 0.99080 1.00447 0.64099
 O237 O 0.99439 1.00200 0.51036
 C238 C 1.12402 0.87263 0.64023
 C239 C 0.86990 0.87998 0.37169
 C240 C 1.13950 0.89176 0.35125
 C241 C 0.84345 0.89059 0.62521
 O242 O 0.67242 0.59252 -0.07108
 O243 O 0.32250 0.56289 0.08421
 O244 O 0.39199 0.55017 -0.16308
 O245 O 0.58035 0.54397 0.18731
 O246 O 0.31744 0.59376 -0.06004
 O247 O 0.63945 0.60776 0.07632
 O248 O 0.45673 0.62341 0.11557
 O249 O 0.54745 0.62824 -0.14051
 C250 C 0.63296 0.64053 -0.12484
 C251 C 0.36826 0.62212 0.12390
 C252 C 0.34085 0.60661 -0.13143
 C253 C 0.63899 0.60324 0.15225
 O254 O 0.67676 0.43022 0.08852
 O255 O 0.33158 0.40907 -0.08604
 O256 O 0.62200 0.46737 -0.15404
 O257 O 0.40742 0.45307 0.16311
 O258 O 0.35787 0.37877 0.06118
 O259 O 0.66030 0.39630 -0.05220
 O260 O 0.54461 0.38320 0.12008
 O261 O 0.46000 0.39126 -0.15862
 Co262 Co 0.64103 0.50614 0.00784
 Co263 Co 0.34863 0.48594 -0.00029
 Co264 Co 0.50530 0.50911 -0.14021
 Co265 Co 0.50659 0.50504 0.10847
 O266 O 0.49422 0.50316 -0.01038
 C267 C 0.63075 0.37362 0.12767
 C268 C 0.37357 0.37370 -0.14447
 C269 C 0.65245 0.39560 -0.12551
 C270 C 0.36009 0.38635 0.13497
   
