data_POSCAR
  _audit_creation_date              2014-09-24
  _audit_creation_method            'ToBaCCo'
  _symmetry_space_group_name_H-M    'P1'
  _symmetry_Int_Tables_number       1
  _symmetry_cell_setting            triclinic
  loop_
  _symmetry_equiv_pos_as_xyz
 x,y,z
_cell_length_a 53.2099
_cell_length_b 52.1548
_cell_length_c 52.5556
_cell_angle_alpha 90.085600
_cell_angle_beta 89.837300
_cell_angle_gamma 121.106400
loop_
  _atom_site_label
  _atom_site_type_symbol
  _atom_site_fract_x
  _atom_site_fract_y
  _atom_site_fract_z
C1 C 0.00098 0.48763 1.32182
 C2 C 0.02757 0.50301 1.30824
 C3 C 0.02632 0.50455 1.28154
 C4 C -0.00051 0.48819 1.26825
 C5 C -0.02654 0.47146 1.28266
 C6 C -0.02634 0.47274 1.30945
 C7 C -0.00148 0.48918 1.23955
 C8 C -0.02769 0.48207 1.22678
 C9 C -0.02886 0.48298 1.20017
 C10 C -0.00314 0.49305 1.18600
 C11 C 0.02340 0.50110 1.19801
 C12 C 0.02384 0.49796 1.22453
 H13 H 0.00155 0.48751 1.34238
 H14 H 0.04653 0.51761 1.27116
 H15 H -0.04729 0.45865 1.27310
 H16 H -0.04742 0.47644 1.23715
 H17 H -0.00385 0.49416 1.16544
 H18 H 0.04430 0.50303 1.23312
 C19 C 0.50875 0.50870 1.32053
 C20 C 0.49127 0.51777 1.30793
 C21 C 0.49044 0.51676 1.28112
 C22 C 0.50759 0.50840 1.26687
 C23 C 0.52553 0.50049 1.28026
 C24 C 0.52558 0.49940 1.30702
 C25 C 0.50618 0.50708 1.23821
 C26 C 0.51481 0.48951 1.22450
 C27 C 0.51350 0.48797 1.19786
 C28 C 0.50159 0.50248 1.18467
 C29 C 0.49205 0.51938 1.19767
 C30 C 0.49549 0.52261 1.22419
 H31 H 0.50912 0.50869 1.34105
 H32 H 0.47497 0.52088 1.27152
 H33 H 0.54059 0.49626 1.26996
 H34 H 0.52202 0.47621 1.23421
 H35 H 0.50019 0.50111 1.16409
 H36 H 0.48914 0.53683 1.23360
 C37 C 0.49836 0.99502 1.31356
 C38 C 0.48205 0.96895 1.29924
 C39 C 0.48257 0.97066 1.27269
 C40 C 0.50062 0.99807 1.26001
 C41 C 0.51823 1.02387 1.27496
 C42 C 0.51623 1.02302 1.30181
 C43 C 0.49985 0.99990 1.23145
 C44 C 0.50783 1.02715 1.21915
 C45 C 0.50614 1.02872 1.19260
 C46 C 0.49456 1.00244 1.17817
 C47 C 0.48610 0.97501 1.18984
 C48 C 0.48988 0.97411 1.21618
 H49 H 0.49797 0.99296 1.33408
 H50 H 0.46805 0.95042 1.26232
 H51 H 0.53240 1.04497 1.26568
 H52 H 0.51477 1.04737 1.22991
 H53 H 0.49285 1.00340 1.15769
 H54 H 0.48429 0.95292 1.22456
 C55 C 0.99513 0.50307 0.68034
 C56 C 0.96943 0.48638 0.69460
 C57 C 0.97124 0.48469 0.72105
 C58 C 0.99831 0.50169 0.73378
 C59 C 1.02378 0.51947 0.71895
 C60 C 1.02283 0.51909 0.69208
 C61 C 1.00005 0.50045 0.76231
 C62 C 1.02653 0.50740 0.77444
 C63 C 1.02826 0.50631 0.80101
 C64 C 1.00290 0.49644 0.81567
 C65 C 0.97617 0.48871 0.80421
 C66 C 0.97512 0.49178 0.77776
 H67 H 0.99315 0.50400 0.65991
 H68 H 0.95123 0.47028 0.73141
 H69 H 1.04464 0.53259 0.72830
 H70 H 1.04599 0.51314 0.76355
 H71 H 1.00408 0.49542 0.83619
 H72 H 0.95455 0.48688 0.76949
 C73 C 0.49327 0.49338 0.68077
 C74 C 0.50528 0.47882 0.69379
 C75 C 0.50690 0.48042 0.72043
 C76 C 0.49885 0.49835 0.73425
 C77 C 0.48812 0.51395 0.72046
 C78 C 0.48435 0.51068 0.69398
 C79 C 0.50174 0.50073 0.76276
 C80 C 0.48546 0.50979 0.77759
 C81 C 0.48908 0.51307 0.80409
 C82 C 0.50761 0.50528 0.81622
 C83 C 0.52311 0.49509 0.80214
 C84 C 0.52092 0.49393 0.77554
 H85 H 0.49169 0.49206 0.66021
 H86 H 0.51422 0.46717 0.73006
 H87 H 0.48231 0.52852 0.73000
 H88 H 0.47009 0.51470 0.76882
 H89 H 0.50933 0.50638 0.83678
 H90 H 0.53472 0.48802 0.76511
 C91 C 0.50149 0.00379 0.68607
 C92 C 0.51257 0.02994 0.70052
 C93 C 0.51521 0.02858 0.72688
 C94 C 0.50860 0.00165 0.73901
 C95 C 0.49886 -0.02417 0.72372
 C96 C 0.49375 -0.02384 0.69735
 C97 C 0.51038 0.00031 0.76757
 C98 C 0.49314 -0.02691 0.78091
 C99 C 0.49272 -0.02810 0.80776
 C100 C 0.50905 -0.00101 0.82121
 C101 C 0.52615 0.02627 0.80853
 C102 C 0.52777 0.02661 0.78192
 H103 H 0.50042 0.00556 0.66563
 H104 H 0.52181 0.04871 0.73768
 H105 H 0.49389 -0.04490 0.73256
 H106 H 0.47830 -0.04703 0.77059
 H107 H 0.50964 -0.00085 0.84180
 H108 H 0.54192 0.04781 0.77265
 O109 O 0.37398 0.65278 0.97933
 O110 O 0.37164 0.70077 0.97018
 C111 C 0.35776 0.71402 0.96566
 O112 O 0.33503 0.70862 0.97811
 O113 O 0.28754 0.65665 0.97002
 C114 C 0.27422 0.62864 0.96604
 O115 O 0.27873 0.61103 0.97931
 O116 O 0.32893 0.61434 0.97166
 C117 C 0.35628 0.62919 0.96712
 O118 O 0.37259 0.66188 1.02963
 O119 O 0.37240 0.71097 1.02064
 C120 C 0.35390 0.71467 1.03295
 O121 O 0.32655 0.69966 1.02848
 O122 O 0.27755 0.64884 1.02052
 C123 C 0.27358 0.62660 1.03369
 O124 O 0.28801 0.61375 1.02992
 O125 O 0.33711 0.61473 1.02229
 C126 C 0.35950 0.63412 1.03459
 Cr127 Cr 0.37103 0.68071 0.99994
 Cr128 Cr 0.30748 0.67764 0.99930
 Cr129 Cr 0.30898 0.61513 1.00077
 O130 O 0.32918 0.65783 1.00005
 O131 O 0.63158 0.34221 0.96727
 O132 O 0.62762 0.29103 0.97658
 C133 C 0.64633 0.28606 0.96628
 O134 O 0.67308 0.29973 0.97288
 O135 O 0.72223 0.34926 0.98330
 C136 C 0.72804 0.37238 0.97042
 O137 O 0.71467 0.38646 0.97368
 O138 O 0.66652 0.38807 0.97863
 C139 C 0.64563 0.37034 0.96412
 O140 O 0.62522 0.34919 1.01734
 O141 O 0.62363 0.29913 1.02654
 C142 C 0.63637 0.28529 1.03315
 O143 O 0.66016 0.29003 1.02301
 O144 O 0.70847 0.34020 1.03336
 C145 C 0.72283 0.36807 1.03780
 O146 O 0.71996 0.38667 1.02446
 O147 O 0.67005 0.38481 1.02946
 C148 C 0.64231 0.37104 1.03163
 Cr149 Cr 0.62863 0.32122 0.99705
 Cr150 Cr 0.69022 0.32064 1.00304
 Cr151 Cr 0.69196 0.38486 1.00152
 O152 O 0.67026 0.34215 1.00054
 O153 O 0.66521 0.37583 0.52874
 O154 O 0.71455 0.37675 0.52358
 C155 C 0.71754 0.35759 0.53588
 O156 O 0.70356 0.33000 0.53032
 O157 O 0.65437 0.28079 0.52025
 C158 C 0.63091 0.27643 0.53083
 O159 O 0.61807 0.29025 0.52436
 O160 O 0.62034 0.34085 0.51630
 C161 C 0.63748 0.36240 0.53076
 O162 O 0.66232 0.38047 0.47798
 O163 O 0.71026 0.37842 0.47285
 C164 C 0.72246 0.36343 0.46823
 O165 O 0.71600 0.33947 0.48001
 O166 O 0.66641 0.29089 0.46990
 C167 C 0.63970 0.27794 0.46343
 O168 O 0.62146 0.28324 0.47414
 O169 O 0.62643 0.33521 0.46607
 C170 C 0.64105 0.36346 0.46348
 Cr171 Cr 0.68721 0.37618 0.50070
 Cr172 Cr 0.68431 0.31117 0.50006
 Cr173 Cr 0.62324 0.31319 0.49533
 O174 O 0.66497 0.33346 0.49869
 O175 O 0.33131 0.62259 0.53232
 O176 O 0.28154 0.61990 0.52369
 C177 C 0.27743 0.63859 0.53569
 O178 O 0.29188 0.66638 0.53093
 O179 O 0.34029 0.71687 0.52131
 C180 C 0.36328 0.72230 0.53331
 O181 O 0.37672 0.70857 0.52883
 O182 O 0.37690 0.65895 0.52262
 C183 C 0.35879 0.63664 0.53609
 O184 O 0.33882 0.61870 0.48224
 O185 O 0.29072 0.61921 0.47351
 C186 C 0.27714 0.63264 0.46842
 O187 O 0.28147 0.65581 0.48044
 O188 O 0.33080 0.70517 0.47121
 C189 C 0.35788 0.71913 0.46576
 O190 O 0.37645 0.71544 0.47787
 O191 O 0.37436 0.66468 0.47165
 C192 C 0.36081 0.63653 0.46869
 Cr193 Cr 0.31142 0.62176 0.50290
 Cr194 Cr 0.31192 0.68525 0.50101
 Cr195 Cr 0.37450 0.68608 0.50029
 O196 O 0.33264 0.66442 0.50141
 C197 C 0.44495 0.54970 0.35098
 C198 C 0.44924 0.52722 0.36072
 C199 C 0.46410 0.51648 0.34655
 C200 C 0.47487 0.52760 0.32191
 C201 C 0.46950 0.54946 0.31190
 C202 C 0.45506 0.56057 0.32636
 C203 C 0.43059 0.56208 0.36678
 N204 N 0.43398 0.58918 0.36142
 N205 N 0.42204 0.60076 0.37637
 C206 C 0.40607 0.58561 0.39719
 N207 N 0.40248 0.55841 0.40236
 N208 N 0.41455 0.54694 0.38754
 C209 C 0.39348 0.59865 0.41440
 C210 C 0.37193 0.58044 0.43230
 C211 C 0.36095 0.59271 0.44946
 C212 C 0.37146 0.62359 0.44937
 C213 C 0.39270 0.64181 0.43122
 C214 C 0.40347 0.62943 0.41380
 H215 H 0.44148 0.51815 0.37957
 H216 H 0.46622 0.49872 0.35483
 H217 H 0.47779 0.55936 0.29339
 H218 H 0.45202 0.57787 0.31829
 H219 H 0.36362 0.55663 0.43318
 H220 H 0.34461 0.57801 0.46318
 H221 H 0.40116 0.66567 0.43059
 H222 H 0.42010 0.64407 0.40026
 C223 C 0.43603 0.88614 0.34051
 C224 C 0.43103 0.90954 0.34594
 C225 C 0.44547 0.93622 0.33212
 C226 C 0.46475 0.93979 0.31230
 C227 C 0.46889 0.91603 0.30615
 C228 C 0.45485 0.88951 0.32029
 C229 C 0.42275 0.85905 0.35668
 N230 N 0.43491 0.84171 0.35808
 N231 N 0.42398 0.81836 0.37385
 C232 C 0.40034 0.81131 0.38872
 N233 N 0.38799 0.82843 0.38705
 N234 N 0.39902 0.85187 0.37144
 C235 C 0.38893 0.78632 0.40715
 C236 C 0.36070 0.77436 0.41754
 C237 C 0.35042 0.75202 0.43606
 C238 C 0.36829 0.74139 0.44491
 C239 C 0.39636 0.75296 0.43423
 C240 C 0.40650 0.77506 0.41539
 H241 H 0.41671 0.90765 0.36144
 H242 H 0.44191 0.95427 0.33709
 H243 H 0.48381 0.91842 0.29101
 H244 H 0.45900 0.87179 0.31559
 H245 H 0.34657 0.78244 0.41148
 H246 H 0.32869 0.74361 0.44391
 H247 H 0.41057 0.74510 0.44056
 H248 H 0.42839 0.78389 0.40778
 C249 C 0.10829 0.54260 0.34879
 C250 C 0.10610 0.55607 0.32647
 C251 C 0.07980 0.54288 0.31271
 C252 C 0.05473 0.51632 0.32141
 C253 C 0.05737 0.50302 0.34384
 C254 C 0.08377 0.51581 0.35712
 C255 C 0.13566 0.55645 0.36384
 N256 N 0.14132 0.53938 0.37952
 N257 N 0.16507 0.55180 0.39420
 C258 C 0.18405 0.58186 0.39399
 N259 N 0.17853 0.59897 0.37818
 N260 N 0.15485 0.58649 0.36331
 C261 C 0.20935 0.59559 0.41158
 C262 C 0.22247 0.62580 0.41874
 C263 C 0.24472 0.63797 0.43702
 C264 C 0.25463 0.62030 0.44819
 C265 C 0.24219 0.59039 0.44037
 C266 C 0.21964 0.57811 0.42242
 H267 H 0.12474 0.57680 0.31964
 H268 H 0.07893 0.55446 0.29599
 H269 H 0.03936 0.48196 0.35083
 H270 H 0.08480 0.50482 0.37423
 H271 H 0.21494 0.63980 0.41078
 H272 H 0.25404 0.66116 0.44255
 H273 H 0.24934 0.57620 0.44863
 H274 H 0.21007 0.55480 0.41719
 C275 C 0.56898 0.46269 0.34758
 C276 C 0.55849 0.45290 0.32287
 C277 C 0.54526 0.46576 0.30916
 C278 C 0.54146 0.48835 0.32005
 C279 C 0.55275 0.49848 0.34471
 C280 C 0.56647 0.48600 0.35813
 C281 C 0.58175 0.44825 0.36268
 N282 N 0.59877 0.46237 0.38321
 N283 N 0.60934 0.44905 0.39750
 C284 C 0.60320 0.42094 0.39199
 N285 N 0.58623 0.40678 0.37140
 N286 N 0.57580 0.42021 0.35698
 C287 C 0.61411 0.40596 0.40874
 C288 C 0.60131 0.37466 0.40850
 C289 C 0.61035 0.36067 0.42590
 C290 C 0.63257 0.37777 0.44365
 C291 C 0.64599 0.40913 0.44317
 C292 C 0.63679 0.42300 0.42605
 H293 H 0.56021 0.43502 0.31418
 H294 H 0.53648 0.45655 0.29058
 H295 H 0.55178 0.51666 0.35363
 H296 H 0.57460 0.49427 0.37708
 H297 H 0.58374 0.36092 0.39539
 H298 H 0.59962 0.33649 0.42572
 H299 H 0.66322 0.42308 0.45649
 H300 H 0.64730 0.44715 0.42661
 C301 C 0.55752 0.10292 0.34616
 C302 C 0.57047 0.10144 0.32334
 C303 C 0.55710 0.07524 0.30864
 C304 C 0.53070 0.04958 0.31670
 C305 C 0.51831 0.05133 0.33998
 C306 C 0.53140 0.07756 0.35430
 C307 C 0.57056 0.13069 0.36149
 N308 N 0.55370 0.13478 0.37848
 N309 N 0.56510 0.15929 0.39279
 C310 C 0.59391 0.18078 0.39084
 N311 N 0.61087 0.17680 0.37379
 N312 N 0.59938 0.15228 0.35930
 C313 C 0.60634 0.20735 0.40766
 C314 C 0.63673 0.22518 0.41191
 C315 C 0.64782 0.24863 0.42962
 C316 C 0.62873 0.25483 0.44320
 C317 C 0.59848 0.23766 0.43813
 C318 C 0.58745 0.21418 0.42069
 H319 H 0.59073 0.12066 0.31665
 H320 H 0.56819 0.07505 0.29143
 H321 H 0.49754 0.03299 0.34677
 H322 H 0.52082 0.07794 0.37182
 H323 H 0.65184 0.22045 0.40216
 H324 H 0.67125 0.26152 0.43301
 H325 H 0.58311 0.24183 0.44812
 H326 H 0.56395 0.20110 0.41768
 C327 C 0.89439 0.43871 0.35200
 C328 C 0.92048 0.46389 0.36034
 C329 C 0.94646 0.47454 0.34663
 C330 C 0.94720 0.46066 0.32375
 C331 C 0.92073 0.43540 0.31536
 C332 C 0.89479 0.42438 0.32950
 C333 C 0.86711 0.42761 0.36698
 N334 N 0.84495 0.39858 0.36547
 N335 N 0.82102 0.38848 0.37991
 C336 C 0.81817 0.40707 0.39624
 N337 N 0.84016 0.43617 0.39747
 N338 N 0.86416 0.44619 0.38321
 C339 C 0.79238 0.39565 0.41328
 C340 C 0.78520 0.41545 0.42472
 C341 C 0.76192 0.40490 0.44204
 C342 C 0.74573 0.37443 0.44861
 C343 C 0.75259 0.35457 0.43684
 C344 C 0.77550 0.36503 0.41919
 H345 H 0.92089 0.47545 0.37762
 H346 H 0.96563 0.49471 0.35353
 H347 H 0.92004 0.42329 0.29840
 H348 H 0.87496 0.40479 0.32268
 H349 H 0.79773 0.43916 0.42043
 H350 H 0.75714 0.42071 0.45082
 H351 H 0.74032 0.33091 0.44139
 H352 H 0.78053 0.34924 0.41075
 C353 C 0.54983 0.44498 1.15395
 C354 C 0.52170 0.43975 1.14847
 C355 C 0.50958 0.45311 1.16309
 C356 C 0.52520 0.47176 1.18365
 C357 C 0.55288 0.47622 1.18969
 C358 C 0.56514 0.46307 1.17493
 C359 C 0.56347 0.43252 1.13729
 N360 N 0.59239 0.44179 1.13944
 N361 N 0.60487 0.43151 1.12370
 C362 C 0.58891 0.41146 1.10518
 N363 N 0.55996 0.40203 1.10319
 N364 N 0.54752 0.41237 1.11886
 C365 C 0.60279 0.40060 1.08706
 C366 C 0.58540 0.37759 1.06980
 C367 C 0.59828 0.36790 1.05209
 C368 C 0.62894 0.38104 1.05105
 C369 C 0.64638 0.40385 1.06848
 C370 C 0.63344 0.41348 1.08635
 H371 H 0.50925 0.42588 1.13251
 H372 H 0.48807 0.44907 1.15820
 H373 H 0.56547 0.49069 1.20533
 H374 H 0.58678 0.46745 1.17974
 H375 H 0.56174 0.36708 1.06985
 H376 H 0.58413 0.35023 1.03900
 H377 H 0.67005 0.41438 1.06825
 H378 H 0.64748 0.43128 1.09936
 C379 C 0.89024 0.45108 1.15939
 C380 C 0.89177 0.43456 1.17981
 C381 C 0.91780 0.44542 1.19358
 C382 C 0.94290 0.47284 1.18702
 C383 C 0.94123 0.48966 1.16698
 C384 C 0.91513 0.47899 1.15341
 C385 C 0.86330 0.43886 1.14375
 N386 N 0.86001 0.45659 1.12687
 N387 N 0.83651 0.44538 1.11192
 C388 C 0.81530 0.41594 1.11311
 N389 N 0.81846 0.39821 1.13012
 N390 N 0.84194 0.40946 1.14516
 C391 C 0.79004 0.40336 1.09538
 C392 C 0.77142 0.37222 1.09246
 C393 C 0.74907 0.36061 1.07421
 C394 C 0.74477 0.37989 1.05861
 C395 C 0.76275 0.41099 1.06221
 C396 C 0.78512 0.42255 1.08029
 H397 H 0.87297 0.41305 1.18498
 H398 H 0.91860 0.43193 1.20885
 H399 H 0.96021 0.51099 1.16170
 H400 H 0.91472 0.49231 1.13782
 H401 H 0.77460 0.35681 1.10380
 H402 H 0.73556 0.33655 1.07198
 H403 H 0.76003 0.42654 1.05063
 H404 H 0.79887 0.44663 1.08215
 C405 C 0.54169 0.11243 1.15271
 C406 C 0.55726 0.10923 1.17278
 C407 C 0.54521 0.08235 1.18627
 C408 C 0.51747 0.05799 1.17981
 C409 C 0.50155 0.06137 1.16019
 C410 C 0.51345 0.08840 1.14687
 C411 C 0.55545 0.14009 1.13717
 N412 N 0.53914 0.14605 1.12111
 N413 N 0.55184 0.17019 1.10621
 C414 C 0.58139 0.18926 1.10663
 N415 N 0.59765 0.18340 1.12282
 N416 N 0.58494 0.15938 1.13782
 C417 C 0.59572 0.21506 1.08899
 C418 C 0.62591 0.22896 1.08375
 C419 C 0.63916 0.25201 1.06585
 C420 C 0.62262 0.26199 1.05307
 C421 C 0.59262 0.24873 1.05886
 C422 C 0.57926 0.22534 1.07649
 H423 H 0.57899 0.12735 1.17783
 H424 H 0.55802 0.08024 1.20120
 H425 H 0.48001 0.04299 1.15499
 H426 H 0.50089 0.09015 1.13152
 H427 H 0.63920 0.22153 1.09301
 H428 H 0.66235 0.26192 1.06191
 H429 H 0.57929 0.25589 1.04928
 H430 H 0.55600 0.21518 1.08021
 C431 C 0.44887 0.55613 1.15509
 C432 C 0.47091 0.57408 1.17274
 C433 C 0.48482 0.56220 1.18692
 C434 C 0.47720 0.53232 1.18342
 C435 C 0.45507 0.51441 1.16595
 C436 C 0.44100 0.52610 1.15204
 C437 C 0.43434 0.56841 1.13947
 N438 N 0.41027 0.54976 1.12549
 N439 N 0.39766 0.56053 1.11062
 C440 C 0.40859 0.59044 1.10899
 N441 N 0.43258 0.60916 1.12311
 N442 N 0.44516 0.59836 1.13809
 C443 C 0.39515 0.60215 1.09134
 C444 C 0.40851 0.63302 1.08654
 C445 C 0.39666 0.64358 1.06851
 C446 C 0.37117 0.62349 1.05496
 C447 C 0.35739 0.59274 1.06037
 C448 C 0.36923 0.58222 1.07828
 H449 H 0.47743 0.59727 1.17557
 H450 H 0.50189 0.57647 1.20024
 H451 H 0.44850 0.49118 1.16314
 H452 H 0.42416 0.51161 1.13864
 H453 H 0.42848 0.64899 1.09628
 H454 H 0.40778 0.66742 1.06487
 H455 H 0.33765 0.57661 1.05042
 H456 H 0.35821 0.55833 1.08159
 C457 C 0.10272 0.54002 1.15315
 C458 C 0.08239 0.54936 1.15024
 C459 C 0.05678 0.53659 1.16478
 C460 C 0.05082 0.51424 1.18275
 C461 C 0.07119 0.50501 1.18597
 C462 C 0.09684 0.51766 1.17119
 C463 C 0.12963 0.55359 1.13718
 N464 N 0.14731 0.54193 1.13640
 N465 N 0.17099 0.55392 1.12139
 C466 C 0.17799 0.57813 1.10664
 N467 N 0.16039 0.58984 1.10762
 N468 N 0.13676 0.57784 1.12252
 C469 C 0.20367 0.59119 1.08920
 C470 C 0.21140 0.61741 1.07554
 C471 C 0.23443 0.62911 1.05802
 C472 C 0.25041 0.61490 1.05359
 C473 C 0.24322 0.58905 1.06768
 C474 C 0.22010 0.57733 1.08532
 H475 H 0.08613 0.56649 1.13656
 H476 H 0.04168 0.54444 1.16216
 H477 H 0.06706 0.48773 1.19964
 H478 H 0.11206 0.50999 1.17393
 H479 H 0.19942 0.62885 1.07812
 H480 H 0.23940 0.64913 1.04766
 H481 H 0.25512 0.57758 1.06476
 H482 H 0.21476 0.55712 1.09555
 C483 C 0.44399 0.89309 1.14664
 C484 C 0.43537 0.91426 1.14393
 C485 C 0.44942 0.94102 1.15768
 C486 C 0.47219 0.94707 1.17463
 C487 C 0.48083 0.92594 1.17743
 C488 C 0.46699 0.89929 1.16345
 C489 C 0.42922 0.86487 1.13183
 N490 N 0.44120 0.84741 1.12992
 N491 N 0.42831 0.82248 1.11600
 C492 C 0.40280 0.81384 1.10355
 N493 N 0.39067 0.83114 1.10567
 N494 N 0.40363 0.85615 1.11948
 C495 C 0.38925 0.78693 1.08706
 C496 C 0.36057 0.77492 1.07772
 C497 C 0.34859 0.75071 1.06082
 C498 C 0.36521 0.73830 1.05268
 C499 C 0.39359 0.74981 1.06254
 C500 C 0.40540 0.77372 1.07965
 H501 H 0.41783 0.91027 1.13109
 H502 H 0.44212 0.95680 1.15540
 H503 H 0.49844 0.93016 1.19029
 H504 H 0.47416 0.88344 1.16598
 H505 H 0.34749 0.78448 1.08319
 H506 H 0.32668 0.74234 1.05351
 H507 H 0.40687 0.74058 1.05677
 H508 H 0.42753 0.78238 1.08649
 C509 C 0.54311 0.43710 0.65013
 C510 C 0.51501 0.43172 0.64421
 C511 C 0.50241 0.44474 0.65866
 C512 C 0.51750 0.46315 0.67949
 C513 C 0.54522 0.46789 0.68584
 C514 C 0.55795 0.45510 0.67127
 C515 C 0.55717 0.42475 0.63388
 N516 N 0.58611 0.43424 0.63646
 N517 N 0.59893 0.42386 0.62122
 C518 C 0.58330 0.40349 0.60281
 N519 N 0.55434 0.39389 0.60037
 N520 N 0.54157 0.40432 0.61553
 C521 C 0.59748 0.39240 0.58529
 C522 C 0.58027 0.36884 0.56844
 C523 C 0.59334 0.35895 0.55115
 C524 C 0.62404 0.37243 0.55009
 C525 C 0.64134 0.39573 0.56719
 C526 C 0.62818 0.40556 0.58467
 H527 H 0.50295 0.41794 0.62807
 H528 H 0.48091 0.44054 0.65348
 H529 H 0.55747 0.48226 0.70165
 H530 H 0.57956 0.45962 0.67641
 H531 H 0.55658 0.35805 0.56846
 H532 H 0.57927 0.34089 0.53834
 H533 H 0.66503 0.40654 0.56691
 H534 H 0.64208 0.42379 0.59739
 C535 C 0.54394 0.11205 0.65908
 C536 C 0.56093 0.11013 0.67859
 C537 C 0.55015 0.08387 0.69285
 C538 C 0.52233 0.05890 0.68767
 C539 C 0.50491 0.06115 0.66881
 C540 C 0.51553 0.08752 0.65476
 C541 C 0.55648 0.13868 0.64228
 N542 N 0.53907 0.14322 0.62636
 N543 N 0.55065 0.16611 0.61009
 C544 C 0.58015 0.18528 0.60894
 N545 N 0.59752 0.18089 0.62502
 N546 N 0.58594 0.15812 0.64137
 C547 C 0.59325 0.20957 0.58975
 C548 C 0.62311 0.22314 0.58332
 C549 C 0.63527 0.24488 0.56426
 C550 C 0.61797 0.25389 0.55142
 C551 C 0.58827 0.24087 0.55824
 C552 C 0.57598 0.21874 0.57707
 H553 H 0.58283 0.12869 0.68250
 H554 H 0.56406 0.08264 0.70719
 H555 H 0.48328 0.04225 0.66462
 H556 H 0.50187 0.08827 0.63990
 H557 H 0.63701 0.21653 0.59265
 H558 H 0.65828 0.25466 0.55957
 H559 H 0.57439 0.24735 0.54867
 H560 H 0.55293 0.20878 0.58166
 C561 C 0.88666 0.44424 0.65534
 C562 C 0.89307 0.42755 0.67232
 C563 C 0.91976 0.44124 0.68553
 C564 C 0.94062 0.47168 0.68164
 C565 C 0.93409 0.48834 0.66488
 C566 C 0.90739 0.47485 0.65200
 C567 C 0.85896 0.43006 0.64062
 N568 N 0.85073 0.44735 0.62820
 N569 N 0.82672 0.43502 0.61387
 C570 C 0.80986 0.40484 0.61122
 N571 N 0.81790 0.38744 0.62382
 N572 N 0.84193 0.39981 0.63829
 C573 C 0.78426 0.39165 0.59384
 C574 C 0.76939 0.36110 0.58729
 C575 C 0.74701 0.34964 0.56903
 C576 C 0.73909 0.36852 0.55698
 C577 C 0.75321 0.39874 0.56434
 C578 C 0.77546 0.41013 0.58249
 H579 H 0.87751 0.40396 0.67535
 H580 H 0.92439 0.42796 0.69835
 H581 H 0.94972 0.51192 0.66180
 H582 H 0.90325 0.48839 0.63907
 H583 H 0.77557 0.34623 0.59571
 H584 H 0.73651 0.32623 0.56384
 H585 H 0.74752 0.41390 0.55567
 H586 H 0.78618 0.43369 0.58722
 C587 C 0.44416 0.55133 0.65268
 C588 C 0.46735 0.56851 0.66961
 C589 C 0.48029 0.55532 0.68332
 C590 C 0.47059 0.52488 0.67999
 C591 C 0.44748 0.50775 0.66308
 C592 C 0.43427 0.52077 0.64971
 C593 C 0.43057 0.56509 0.63780
 N594 N 0.40403 0.54765 0.62661
 N595 N 0.39213 0.55976 0.61244
 C596 C 0.40632 0.58982 0.60874
 N597 N 0.43282 0.60732 0.62003
 N598 N 0.44466 0.59521 0.63435
 C599 C 0.39366 0.60290 0.59179
 C600 C 0.41126 0.63192 0.58184
 C601 C 0.39980 0.64319 0.56416
 C602 C 0.37040 0.62581 0.55629
 C603 C 0.35253 0.59725 0.56699
 C604 C 0.36407 0.58587 0.58442
 H605 H 0.47540 0.59210 0.67235
 H606 H 0.49817 0.56898 0.69620
 H607 H 0.43948 0.48416 0.66037
 H608 H 0.41655 0.50694 0.63675
 H609 H 0.43415 0.64560 0.58713
 H610 H 0.41409 0.66534 0.55637
 H611 H 0.32980 0.58327 0.56134
 H612 H 0.34987 0.56352 0.59186
 C613 C 0.45303 0.89652 0.65243
 C614 C 0.44983 0.92085 0.64639
 C615 C 0.46337 0.94687 0.66100
 C616 C 0.48051 0.94953 0.68246
 C617 C 0.48335 0.92476 0.68863
 C618 C 0.47002 0.89876 0.67366
 C619 C 0.43863 0.86919 0.63641
 N620 N 0.44627 0.84808 0.63797
 N621 N 0.43372 0.82405 0.62288
 C622 C 0.41292 0.82010 0.60573
 N623 N 0.40517 0.84110 0.60437
 N624 N 0.41777 0.86512 0.61934
 C625 C 0.39942 0.79399 0.58828
 C626 C 0.37516 0.78815 0.57331
 C627 C 0.36316 0.76456 0.55589
 C628 C 0.37520 0.74628 0.55284
 C629 C 0.39914 0.75174 0.56813
 C630 C 0.41106 0.77529 0.58573
 H631 H 0.43678 0.91989 0.63023
 H632 H 0.45911 0.96436 0.65587
 H633 H 0.49682 0.92562 0.70436
 H634 H 0.47298 0.88039 0.67878
 H635 H 0.36551 0.80197 0.57487
 H636 H 0.34470 0.76099 0.54449
 H637 H 0.40888 0.73801 0.56634
 H638 H 0.42974 0.77917 0.59696
 C639 C 0.10153 0.55884 0.64805
 C640 C 0.10097 0.57125 0.67160
 C641 C 0.07513 0.55856 0.68607
 C642 C 0.04893 0.53332 0.67716
 C643 C 0.04972 0.52164 0.65309
 C644 C 0.07558 0.53406 0.63893
 C645 C 0.12899 0.57102 0.63308
 N646 N 0.13131 0.55419 0.61456
 N647 N 0.15575 0.56486 0.60084
 C648 C 0.17892 0.59289 0.60495
 N649 N 0.17667 0.60980 0.62349
 N650 N 0.15222 0.59903 0.63737
 C651 C 0.20557 0.60476 0.58890
 C652 C 0.22600 0.63567 0.58742
 C653 C 0.24982 0.64676 0.57059
 C654 C 0.25385 0.62710 0.55515
 C655 C 0.23401 0.59613 0.55741
 C656 C 0.21011 0.58513 0.57398
 H657 H 0.12062 0.59053 0.67905
 H658 H 0.07576 0.56928 0.70388
 H659 H 0.03083 0.50172 0.64552
 H660 H 0.07524 0.52396 0.62081
 H661 H 0.22310 0.65137 0.59868
 H662 H 0.26478 0.67073 0.56936
 H663 H 0.23642 0.58033 0.54585
 H664 H 0.19495 0.56117 0.57483
 C665 C 0.44657 0.54933 0.84866
 C666 C 0.47656 0.55969 0.85182
 C667 C 0.49015 0.54779 0.83737
 C668 C 0.47417 0.52539 0.81925
 C669 C 0.44426 0.51515 0.81580
 C670 C 0.43053 0.52689 0.83049
 C671 C 0.43238 0.56189 0.86449
 N672 N 0.40271 0.54890 0.86523
 N673 N 0.39020 0.55996 0.88011
 C674 C 0.40687 0.58453 0.89476
 N675 N 0.43651 0.59757 0.89383
 N676 N 0.44897 0.58648 0.87906
 C677 C 0.39331 0.59655 0.91204
 C678 C 0.41112 0.62349 0.92517
 C679 C 0.39894 0.63427 0.94255
 C680 C 0.36857 0.61836 0.94738
 C681 C 0.35057 0.59174 0.93383
 C682 C 0.36282 0.58097 0.91629
 H683 H 0.48961 0.57690 0.86564
 H684 H 0.51331 0.55633 0.84018
 H685 H 0.43143 0.49776 0.80204
 H686 H 0.40741 0.51846 0.82756
 H687 H 0.43466 0.63622 0.92226
 H688 H 0.41349 0.65492 0.95252
 H689 H 0.32709 0.57898 0.93705
 H690 H 0.34847 0.56015 0.90647
 C691 C 0.10923 0.53904 0.84169
 C692 C 0.10756 0.55531 0.82112
 C693 C 0.08160 0.54403 0.80719
 C694 C 0.05671 0.51644 0.81372
 C695 C 0.05865 0.49971 0.83371
 C696 C 0.08467 0.51081 0.84745
 C697 C 0.13577 0.55202 0.85792
 N698 N 0.13897 0.53495 0.87558
 N699 N 0.16192 0.54695 0.89122
 C700 C 0.18260 0.57657 0.88996
 N701 N 0.17955 0.59362 0.87214
 N702 N 0.15663 0.58158 0.85643
 C703 C 0.20721 0.59009 0.90836
 C704 C 0.22532 0.62137 0.91058
 C705 C 0.24734 0.63398 0.92908
 C706 C 0.25185 0.61558 0.94564
 C707 C 0.23419 0.58432 0.94296
 C708 C 0.21211 0.57175 0.92462
 H709 H 0.12612 0.57704 0.81610
 H710 H 0.08059 0.55744 0.79196
 H711 H 0.03983 0.47825 0.83896
 H712 H 0.08520 0.49764 0.86312
 H713 H 0.22213 0.63615 0.89837
 H714 H 0.26063 0.65813 0.93056
 H715 H 0.23707 0.56946 0.95534
 H716 H 0.19868 0.54759 0.92337
 C717 C 0.44546 0.88982 0.84873
 C718 C 0.44910 0.91643 0.85887
 C719 C 0.46432 0.94324 0.84536
 C720 C 0.47606 0.94431 0.82097
 C721 C 0.47134 0.91718 0.81051
 C722 C 0.45660 0.89042 0.82437
 C723 C 0.43055 0.86190 0.86392
 N724 N 0.43530 0.83908 0.85932
 N725 N 0.42286 0.81464 0.87392
 C726 C 0.40500 0.81197 0.89358
 N727 N 0.40006 0.83466 0.89795
 N728 N 0.41263 0.85913 0.88351
 C729 C 0.39182 0.78547 0.91055
 C730 C 0.36832 0.77978 0.92656
 C731 C 0.35688 0.75612 0.94386
 C732 C 0.36882 0.73763 0.94582
 C733 C 0.39194 0.74285 0.92943
 C734 C 0.40322 0.76645 0.91184
 H735 H 0.44058 0.91669 0.87754
 H736 H 0.46597 0.96292 0.85394
 H737 H 0.48034 0.91669 0.79215
 H738 H 0.45404 0.87021 0.81603
 H739 H 0.35887 0.79384 0.92594
 H740 H 0.33905 0.75278 0.95614
 H741 H 0.40156 0.72896 0.93040
 H742 H 0.42137 0.77029 0.89977
 C743 C 0.56977 0.46106 0.84296
 C744 C 0.55194 0.44531 0.82210
 C745 C 0.53759 0.45690 0.80836
 C746 C 0.54053 0.48434 0.81533
 C747 C 0.55886 0.50044 0.83579
 C748 C 0.57347 0.48901 0.84938
 C749 C 0.58340 0.44789 0.85861
 N750 N 0.60391 0.46464 0.87636
 N751 N 0.61514 0.45247 0.89131
 C752 C 0.60627 0.42302 0.88924
 N753 N 0.58590 0.40630 0.87135
 N754 N 0.57475 0.41850 0.85632
 C755 C 0.61765 0.40930 0.90693
 C756 C 0.60440 0.37801 0.90863
 C757 C 0.61384 0.36522 0.92679
 C758 C 0.63684 0.38347 0.94352
 C759 C 0.65070 0.41475 0.94117
 C760 C 0.64118 0.42749 0.92317
 H761 H 0.54872 0.42380 0.81659
 H762 H 0.52337 0.44391 0.79278
 H763 H 0.56167 0.52176 0.84141
 H764 H 0.58705 0.50174 0.86534
 H765 H 0.58622 0.36336 0.89638
 H766 H 0.60276 0.34105 0.92804
 H767 H 0.66857 0.42953 0.95364
 H768 H 0.65204 0.45166 0.92227
 C769 C 0.89834 0.45257 0.85068
 C770 C 0.90420 0.47460 0.83231
 C771 C 0.92937 0.48632 0.81702
 C772 C 0.94924 0.47642 0.81999
 C773 C 0.94329 0.45436 0.83826
 C774 C 0.91815 0.44254 0.85336
 C775 C 0.87197 0.44013 0.86720
 N776 N 0.86504 0.41668 0.88284
 N777 N 0.84178 0.40568 0.89813
 C778 C 0.82440 0.41765 0.89851
 N779 N 0.83122 0.44107 0.88281
 N780 N 0.85451 0.45206 0.86743
 C781 C 0.79898 0.40566 0.91614
 C782 C 0.78264 0.41977 0.91887
 C783 C 0.75940 0.40887 0.93630
 C784 C 0.75196 0.38358 0.95129
 C785 C 0.76802 0.36924 0.94820
 C786 C 0.79123 0.38015 0.93089
 H787 H 0.88938 0.48279 0.82974
 H788 H 0.93354 0.50343 0.80316
 H789 H 0.95803 0.44602 0.84070
 H790 H 0.91437 0.42560 0.86727
 H791 H 0.78802 0.43946 0.90780
 H792 H 0.74743 0.42041 0.93816
 H793 H 0.76289 0.34967 0.95935
 H794 H 0.80321 0.36861 0.92923
 C795 C 0.56613 0.10859 0.85133
 C796 C 0.58257 0.10390 0.83288
 C797 C 0.56975 0.07722 0.81881
 C798 C 0.54044 0.05462 0.82327
 C799 C 0.52417 0.05931 0.84179
 C800 C 0.53678 0.08596 0.85555
 C801 C 0.57908 0.13673 0.86627
 N802 N 0.56142 0.14344 0.87972
 N803 N 0.57267 0.16819 0.89375
 C804 C 0.60213 0.18734 0.89504
 N805 N 0.61990 0.18076 0.88149
 N806 N 0.60860 0.15599 0.86733
 C807 C 0.61429 0.21417 0.91164
 C808 C 0.64436 0.23097 0.91759
 C809 C 0.65506 0.25485 0.93486
 C810 C 0.63591 0.26249 0.94641
 C811 C 0.60606 0.24629 0.93972
 C812 C 0.59540 0.22246 0.92264
 H813 H 0.60521 0.12094 0.82915
 H814 H 0.58276 0.07410 0.80466
 H815 H 0.50142 0.04243 0.84537
 H816 H 0.52348 0.08873 0.86964
 H817 H 0.65950 0.22520 0.90943
 H818 H 0.67819 0.26691 0.93954
 H819 H 0.59066 0.25158 0.94811
 H820 H 0.57217 0.21023 0.91835
   
