data_POSCAR
  _audit_creation_date              2014-09-24
  _audit_creation_method            'ToBaCCo'
  _symmetry_space_group_name_H-M    'P1'
  _symmetry_Int_Tables_number       1
  _symmetry_cell_setting            triclinic
  loop_
  _symmetry_equiv_pos_as_xyz
 x,y,z
_cell_length_a 25.0316
_cell_length_b 25.0886
_cell_length_c 25.4329
_cell_angle_alpha 90.606400
_cell_angle_beta 92.302800
_cell_angle_gamma 90.136400
loop_
  _atom_site_label
  _atom_site_type_symbol
  _atom_site_fract_x
  _atom_site_fract_y
  _atom_site_fract_z
C1 C -0.01047 0.49547 0.24912
 C2 C 0.01841 0.49684 0.75343
 C3 C 0.24323 0.00511 0.51237
 C4 C 0.76305 0.00553 0.49771
 C5 C 0.49553 0.25625 0.99288
 C6 C 0.48978 0.74176 1.00180
 B7 B 1.00229 1.05110 0.03903
 B8 B 0.99880 1.05309 -0.02867
 B9 B 1.05478 1.02631 0.00356
 B10 B 1.03318 0.99260 0.05791
 B11 B 0.96474 0.99784 0.05877
 B12 B 0.94327 1.03490 0.00475
 B13 B 0.99048 0.94181 -0.03240
 B14 B 0.99337 0.93988 0.03520
 B15 B 0.93759 0.96645 0.00281
 B16 B 0.95913 0.99997 -0.05114
 B17 B 1.02740 0.99535 -0.05259
 B18 B 1.04905 0.95829 0.00169
 B19 B 0.56030 0.50579 0.46320
 B20 B 0.56198 0.50179 0.53018
 B21 B 0.53822 0.56049 0.49958
 B22 B 0.50372 0.54040 0.44241
 B23 B 0.50401 0.47226 0.43786
 B24 B 0.53892 0.44796 0.49230
 B25 B 0.44980 0.50144 0.52830
 B26 B 0.44824 0.50463 0.45999
 B27 B 0.47053 0.44746 0.49082
 B28 B 0.50628 0.46624 0.54803
 B29 B 0.50602 0.53482 0.55281
 B30 B 0.46923 0.55915 0.49673
 C31 C 0.93699 1.43320 0.18535
 C32 C 0.93195 1.38414 0.15905
 C33 C 0.97725 1.35339 0.15053
 C34 C 1.02808 1.37555 0.16222
 C35 C 1.03299 1.42445 0.18877
 C36 C 0.98724 1.45055 0.20669
 N37 N 0.97102 1.29914 0.13301
 N38 N 1.01172 1.26961 0.12801
 C39 C 1.00886 1.21491 0.11200
 C40 C 1.05396 1.19246 0.09138
 C41 C 1.05273 1.14061 0.07190
 C42 C 1.00708 1.10767 0.07333
 C43 C 0.96294 1.13009 0.09887
 C44 C 0.96324 1.18324 0.11698
 H45 H 0.90095 1.45478 0.19413
 H46 H 0.89256 1.36878 0.14807
 H47 H 1.06404 1.35410 0.15299
 H48 H 1.07271 1.43994 0.19747
 H49 H 1.08999 1.21610 0.08842
 H50 H 1.08852 1.12835 0.05552
 H51 H 0.92706 1.10789 0.10327
 H52 H 0.92798 1.19948 0.13445
 C53 C 0.92607 0.57262 0.21805
 C54 C 0.91912 0.62307 0.19584
 C55 C 0.96069 0.64719 0.16971
 C56 C 1.00818 0.61859 0.16293
 C57 C 1.01543 0.56868 0.18583
 C58 C 0.97620 0.54667 0.21755
 N59 N 0.95466 0.70077 0.15118
 N60 N 0.98838 0.72023 0.12057
 C61 C 0.98679 0.77365 0.10159
 C62 C 1.01562 0.78486 0.05772
 C63 C 1.01743 0.83622 0.03827
 C64 C 0.99136 0.87973 0.06201
 C65 C 0.96323 0.86750 0.10780
 C66 C 0.96037 0.81520 0.12698
 H67 H 0.89227 0.55490 0.23644
 H68 H 0.88141 0.64358 0.19939
 H69 H 1.04052 0.63551 0.14150
 H70 H 1.05318 0.54846 0.18134
 H71 H 1.03712 0.75335 0.03827
 H72 H 1.04158 0.84074 0.00497
 H73 H 0.94381 0.89784 0.12963
 H74 H 0.93868 0.80756 0.16210
 C75 C 1.02801 1.39661 -0.25083
 C76 C 1.02985 1.34586 -0.22960
 C77 C 1.02321 1.33871 -0.17612
 C78 C 1.01515 1.38345 -0.14349
 C79 C 1.01436 1.43496 -0.16464
 C80 C 1.02177 1.44241 -0.21876
 N81 N 1.02295 1.28534 -0.15690
 N82 N 1.00769 1.27393 -0.11135
 C83 C 1.00636 1.22012 -0.09329
 C84 C 0.98011 1.20943 -0.04765
 C85 C 0.97609 1.15744 -0.02981
 C86 C 1.00001 1.11349 -0.05520
 C87 C 1.02520 1.12549 -0.10253
 C88 C 1.02840 1.17768 -0.12133
 H89 H 1.03185 1.40041 -0.29290
 H90 H 1.03525 1.31170 -0.25523
 H91 H 1.00909 1.37857 -0.10191
 H92 H 1.00651 1.46832 -0.13887
 H93 H 0.96131 1.24147 -0.02636
 H94 H 0.95189 1.15272 0.00337
 H95 H 1.04141 1.09515 -0.12652
 H96 H 1.04804 1.18469 -0.15779
 C97 C 1.05952 0.55475 -0.17010
 C98 C 1.06468 0.60388 -0.14317
 C99 C 1.03084 0.64644 -0.15682
 C100 C 0.99329 0.64005 -0.19850
 C101 C 0.98898 0.59219 -0.22582
 C102 C 1.02019 0.54738 -0.21103
 N103 N 1.03498 0.69673 -0.12980
 N104 N 0.99384 0.72639 -0.12878
 C105 C 0.99390 0.77891 -0.10695
 C106 C 1.03716 0.81349 -0.11127
 C107 C 1.03391 0.86590 -0.09231
 C108 C 0.98853 0.88507 -0.06640
 C109 C 0.94531 0.84908 -0.06462
 C110 C 0.94748 0.79760 -0.08527
 H111 H 1.08695 0.52291 -0.15977
 H112 H 1.09487 0.60872 -0.11179
 H113 H 0.96819 0.67295 -0.21127
 H114 H 0.96168 0.59145 -0.25986
 H115 H 1.07289 0.80037 -0.13019
 H116 H 1.06773 0.89059 -0.09797
 H117 H 0.90914 0.85894 -0.04734
 H118 H 0.91301 0.77162 -0.08315
 C119 C 1.16542 0.96435 0.45443
 C120 C 1.13802 0.95676 0.40546
 C121 C 1.15196 0.98635 0.36156
 C122 C 1.19343 1.02366 0.36740
 C123 C 1.22091 1.03083 0.41551
 C124 C 1.20694 1.00255 0.46104
 N125 N 1.12576 0.97702 0.31087
 N126 N 1.13721 1.00571 0.27175
 C127 C 1.11426 0.99910 0.21956
 C128 C 1.12450 1.03768 0.18234
 C129 C 1.10166 1.03389 0.13145
 C130 C 1.06815 0.99107 0.11485
 C131 C 1.06072 0.95127 0.15296
 C132 C 1.08280 0.95517 0.20439
 H133 H 1.15534 0.93905 0.48680
 H134 H 1.10673 0.92695 0.40151
 H135 H 1.20621 1.04626 0.33410
 H136 H 1.25499 1.05725 0.41524
 H137 H 1.14956 1.07164 0.19311
 H138 H 1.11085 1.06539 0.10589
 H139 H 1.03748 0.91693 0.14460
 H140 H 1.07501 0.92398 0.23219
 C141 C 1.24752 1.01796 -0.38866
 C142 C 1.22593 1.02172 -0.33931
 C143 C 1.17086 1.02036 -0.33416
 C144 C 1.13699 1.01866 -0.37972
 C145 C 1.15871 1.01685 -0.42998
 C146 C 1.21464 1.01414 -0.43519
 N147 N 1.15144 1.01924 -0.28197
 N148 N 1.10534 1.00196 -0.27135
 C149 C 1.08864 0.99974 -0.21804
 C150 C 1.04270 0.97144 -0.20709
 C151 C 1.02612 0.96760 -0.15548
 C152 C 1.05299 0.99404 -0.11240
 C153 C 1.10134 1.01976 -0.12457
 C154 C 1.11872 1.02290 -0.17611
 H155 H 1.29062 1.01622 -0.39051
 H156 H 1.25244 1.02337 -0.30460
 H157 H 1.09401 1.01878 -0.37643
 H158 H 1.13152 1.01673 -0.46399
 H159 H 1.01986 0.95151 -0.23862
 H160 H 0.99157 0.94318 -0.15048
 H161 H 1.12734 1.03648 -0.09481
 H162 H 1.15579 1.04353 -0.18300
 C163 C 0.83725 1.05103 0.44518
 C164 C 0.86528 1.05711 0.39881
 C165 C 0.84785 1.03071 0.35239
 C166 C 0.80026 1.00117 0.35215
 C167 C 0.77298 0.99476 0.39801
 C168 C 0.79323 1.01574 0.44667
 N169 N 0.87830 1.03334 0.30583
 N170 N 0.86203 1.00772 0.26475
 C171 C 0.88862 1.00607 0.21617
 C172 C 0.86301 0.98013 0.17372
 C173 C 0.88633 0.97778 0.12505
 C174 C 0.93692 1.00042 0.11663
 C175 C 0.96212 1.02670 0.16077
 C176 C 0.93851 1.02953 0.20971
 H177 H 0.85082 1.07281 0.48019
 H178 H 0.90072 1.08197 0.39920
 H179 H 0.78411 0.98231 0.31645
 H180 H 0.73589 0.97257 0.39485
 H181 H 0.82387 0.96255 0.17805
 H182 H 0.86209 0.96076 0.09423
 H183 H 0.99944 1.04738 0.15799
 H184 H 0.95902 1.05036 0.24213
 C185 C 0.85426 0.99060 -0.44948
 C186 C 0.88194 0.98868 -0.40046
 C187 C 0.85377 0.98654 -0.35407
 C188 C 0.79797 0.98360 -0.35703
 C189 C 0.77060 0.98721 -0.40510
 C190 C 0.79790 0.99394 -0.45217
 N191 N 0.88121 0.99075 -0.30389
 N192 N 0.85778 0.97637 -0.26292
 C193 C 0.88029 0.98456 -0.21131
 C194 C 0.86932 0.94804 -0.17268
 C195 C 0.89153 0.95465 -0.12208
 C196 C 0.92360 0.99919 -0.10718
 C197 C 0.93055 1.03748 -0.14667
 C198 C 0.91012 1.03006 -0.19808
 H199 H 0.87738 0.99035 -0.48436
 H200 H 0.92523 0.98936 -0.39861
 H201 H 0.77514 0.98146 -0.32184
 H202 H 0.72736 0.98807 -0.40522
 H203 H 0.84512 0.91316 -0.18228
 H204 H 0.88372 0.92341 -0.09576
 H205 H 0.95319 1.07255 -0.13957
 H206 H 0.91751 1.05987 -0.22743
 C207 C 1.39563 1.25269 -0.02477
 C208 C 1.34622 1.22773 -0.02876
 C209 C 1.34204 1.17318 -0.02114
 C210 C 1.38861 1.14287 -0.01137
 C211 C 1.43910 1.16780 -0.00892
 C212 C 1.44325 1.22348 -0.01523
 N213 N 1.28940 1.15111 -0.02119
 N214 N 1.27870 1.10545 -0.00319
 C215 C 1.22445 1.08723 -0.00234
 C216 C 1.21290 1.04144 0.02521
 C217 C 1.16013 1.02444 0.02900
 C218 C 1.11649 1.05090 0.00341
 C219 C 1.12942 1.09879 -0.02216
 C220 C 1.18215 1.11646 -0.02537
 H221 H 1.39696 1.29563 -0.02875
 H222 H 1.31059 1.25143 -0.03589
 H223 H 1.38589 1.10036 -0.00508
 H224 H 1.47410 1.14389 0.00001
 H225 H 1.24480 1.01949 0.04515
 H226 H 1.15446 0.99101 0.05400
 H227 H 1.09935 1.12448 -0.03798
 H228 H 1.18961 1.15343 -0.04543
 C229 C 0.58408 1.23236 0.04403
 C230 C 0.63291 1.20626 0.04870
 C231 C 0.64966 1.17283 0.00878
 C232 C 0.61558 1.16365 -0.03569
 C233 C 0.56490 1.18802 -0.03947
 C234 C 0.54788 1.22317 0.00041
 N235 N 0.70181 1.14979 0.01504
 N236 N 0.73173 1.13985 -0.02311
 C237 C 0.78430 1.11804 -0.01395
 C238 C 0.80039 1.09620 0.03457
 C239 C 0.85119 1.07367 0.04194
 C240 C 0.88841 1.07213 0.00167
 C241 C 0.87204 1.09782 -0.04571
 C242 C 0.82094 1.11952 -0.05366
 H243 H 0.57642 1.26098 0.07476
 H244 H 0.65916 1.21418 0.08281
 H245 H 0.62797 1.13763 -0.06714
 H246 H 0.53949 1.18058 -0.07422
 H247 H 0.77325 1.09530 0.06664
 H248 H 0.85968 1.05734 0.07953
 H249 H 0.89786 1.10058 -0.07788
 H250 H 0.80990 1.13740 -0.09109
 C251 C 1.44087 0.83308 0.00680
 C252 C 1.39344 0.86243 0.00459
 C253 C 1.34583 0.83849 -0.01371
 C254 C 1.34640 0.78658 -0.03375
 C255 C 1.39390 0.75785 -0.03371
 C256 C 1.44245 0.77977 -0.01249
 N257 N 1.29660 0.86651 -0.01099
 N258 N 1.25679 0.84579 0.01089
 C259 C 1.20594 0.87149 0.00870
 C260 C 1.17107 0.86669 0.04986
 C261 C 1.12163 0.89289 0.04752
 C262 C 1.10413 0.92215 0.00266
 C263 C 1.14044 0.92505 -0.03815
 C264 C 1.19013 0.90070 -0.03535
 H265 H 1.47474 0.85110 0.02782
 H266 H 1.39307 0.90256 0.02068
 H267 H 1.30962 0.76788 -0.04840
 H268 H 1.39108 0.71705 -0.04712
 H269 H 1.18281 0.84409 0.08445
 H270 H 1.09766 0.88998 0.08133
 H271 H 1.13212 0.94648 -0.07279
 H272 H 1.21625 0.90445 -0.06806
 C273 C 0.58350 0.75493 0.05024
 C274 C 0.63378 0.77901 0.05538
 C275 C 0.64676 0.82182 0.02398
 C276 C 0.60803 0.84173 -0.01189
 C277 C 0.55766 0.81756 -0.01733
 C278 C 0.54396 0.77258 0.01282
 N279 N 0.70020 0.84245 0.02760
 N280 N 0.71433 0.88293 0.00182
 C281 C 0.76832 0.90209 0.00366
 C282 C 0.77980 0.94916 -0.02178
 C283 C 0.83222 0.96782 -0.02287
 C284 C 0.87598 0.94080 0.00186
 C285 C 0.86297 0.89195 0.02587
 C286 C 0.81036 0.87318 0.02731
 H287 H 0.57757 0.72201 0.07586
 H288 H 0.66328 0.76345 0.08348
 H289 H 0.61707 0.87500 -0.03682
 H290 H 0.52988 0.83332 -0.04690
 H291 H 0.74805 0.97112 -0.04194
 H292 H 0.83769 1.00204 -0.04666
 H293 H 0.89291 0.86576 0.04091
 H294 H 0.80288 0.83528 0.04565
 C295 C 0.92830 0.43251 0.30061
 C296 C 0.88237 0.42587 0.32916
 C297 C 0.85893 0.46979 0.35300
 C298 C 0.88618 0.51890 0.35438
 C299 C 0.93203 0.52547 0.32557
 C300 C 0.94932 0.48408 0.29245
 N301 N 0.80574 0.46502 0.37107
 N302 N 0.78229 0.50493 0.39070
 C303 C 0.72817 0.50345 0.40621
 C304 C 0.71201 0.54173 0.44168
 C305 C 0.66008 0.54158 0.45863
 C306 C 0.62014 0.50635 0.43772
 C307 C 0.63825 0.46641 0.40299
 C308 C 0.69129 0.46514 0.38704
 H309 H 0.94486 0.39762 0.28206
 H310 H 0.86341 0.38708 0.33022
 H311 H 0.87033 0.55304 0.37488
 H312 H 0.95052 0.56449 0.32487
 H313 H 0.74070 0.57004 0.45870
 H314 H 0.65330 0.56645 0.49234
 H315 H 0.61266 0.43477 0.38899
 H316 H 0.70341 0.43421 0.36006
 C317 C 0.06473 0.55156 0.29571
 C318 C 0.11485 0.55662 0.32142
 C319 C 0.14594 0.51162 0.33194
 C320 C 0.12445 0.46094 0.32091
 C321 C 0.07314 0.45574 0.29728
 C322 C 0.04432 0.50102 0.27965
 N323 N 0.19778 0.51815 0.35687
 N324 N 0.23831 0.49221 0.34209
 C325 C 0.28919 0.49790 0.36957
 C326 C 0.33642 0.48868 0.34367
 C327 C 0.38616 0.49388 0.37072
 C328 C 0.39059 0.50583 0.42542
 C329 C 0.34180 0.51617 0.44959
 C330 C 0.29243 0.51270 0.42255
 H331 H 0.04217 0.58762 0.28840
 H332 H 0.13000 0.59587 0.33218
 H333 H 0.14689 0.42557 0.33164
 H334 H 0.05674 0.41611 0.29115
 H335 H 0.33487 0.47877 0.30209
 H336 H 0.42048 0.49096 0.34719
 H337 H 0.33960 0.52602 0.48980
 H338 H 0.25645 0.52022 0.44369
 C339 C 0.91775 0.49462 0.75669
 C340 C 0.86617 0.49604 0.73482
 C341 C 0.85739 0.49349 0.68058
 C342 C 0.90122 0.48804 0.64790
 C343 C 0.95372 0.48774 0.66990
 C344 C 0.96278 0.49321 0.72481
 N345 N 0.80339 0.49724 0.66053
 N346 N 0.78869 0.48336 0.61402
 C347 C 0.73398 0.48794 0.59605
 C348 C 0.71571 0.45728 0.55360
 C349 C 0.66244 0.45998 0.53592
 C350 C 0.62427 0.49499 0.55817
 C351 C 0.64462 0.52463 0.60220
 C352 C 0.69789 0.52122 0.62100
 H353 H 0.92281 0.49705 0.79914
 H354 H 0.83270 0.49936 0.76036
 H355 H 0.89495 0.48502 0.60562
 H356 H 0.98660 0.48327 0.64398
 H357 H 0.74293 0.43108 0.53374
 H358 H 0.65389 0.43652 0.50140
 H359 H 0.61976 0.54638 0.62665
 H360 H 0.71062 0.54432 0.65549
 C361 C 0.06930 0.54306 0.67964
 C362 C 0.11690 0.55366 0.65402
 C363 C 0.16385 0.52591 0.66782
 C364 C 0.16314 0.48895 0.70854
 C365 C 0.11650 0.47900 0.73433
 C366 C 0.06765 0.50387 0.71912
 N367 N 0.21191 0.53396 0.64004
 N368 N 0.24677 0.49711 0.64035
 C369 C 0.29607 0.50005 0.61441
 C370 C 0.31250 0.45525 0.58731
 C371 C 0.36032 0.45551 0.56155
 C372 C 0.39546 0.49958 0.56337
 C373 C 0.37919 0.54361 0.59428
 C374 C 0.32972 0.54451 0.61846
 H375 H 0.03407 0.56620 0.66931
 H376 H 0.11705 0.58316 0.62327
 H377 H 0.19922 0.46827 0.72131
 H378 H 0.11976 0.45244 0.76750
 H379 H 0.28723 0.42010 0.58488
 H380 H 0.36788 0.42030 0.54041
 H381 H 0.40361 0.57911 0.59799
 H382 H 0.31819 0.57936 0.64071
 C383 C 0.43759 0.73356 0.08818
 C384 C 0.42920 0.71045 0.13661
 C385 C 0.45879 0.66640 0.15266
 C386 C 0.49351 0.64218 0.11775
 C387 C 0.50020 0.66377 0.06791
 C388 C 0.47447 0.71174 0.05274
 N389 N 0.45654 0.65011 0.20608
 N390 N 0.49856 0.63476 0.23108
 C391 C 0.49867 0.61900 0.28485
 C392 C 0.45159 0.61339 0.31216
 C393 C 0.45360 0.59271 0.36304
 C394 C 0.50217 0.57518 0.38747
 C395 C 0.54910 0.58792 0.36117
 C396 C 0.54735 0.60830 0.31049
 H397 H 0.41575 0.76973 0.08038
 H398 H 0.40217 0.72926 0.16332
 H399 H 0.51644 0.60748 0.12959
 H400 H 0.52882 0.64522 0.04274
 H401 H 0.41328 0.62403 0.29404
 H402 H 0.41660 0.59145 0.38304
 H403 H 0.58765 0.57528 0.37517
 H404 H 0.58419 0.61332 0.29012
 C405 C 0.46953 0.65297 0.94964
 C406 C 0.46941 0.62226 0.90314
 C407 C 0.49571 0.64036 0.85926
 C408 C 0.52324 0.68897 0.86298
 C409 C 0.52297 0.71977 0.90880
 C410 C 0.49621 0.70302 0.95375
 N411 N 0.49193 0.61098 0.81040
 N412 N 0.51632 0.62754 0.77070
 C413 C 0.51376 0.60268 0.71975
 C414 C 0.54604 0.62279 0.68153
 C415 C 0.54442 0.60100 0.63091
 C416 C 0.50854 0.56005 0.61443
 C417 C 0.47887 0.53797 0.65568
 C418 C 0.48060 0.55925 0.70697
 H419 H 0.44569 0.63862 0.98106
 H420 H 0.44731 0.58510 0.90084
 H421 H 0.54375 0.70438 0.82966
 H422 H 0.54294 0.75745 0.90698
 H423 H 0.57402 0.65470 0.69143
 H424 H 0.57564 0.61420 0.60661
 H425 H 0.45386 0.50351 0.64955
 H426 H 0.45618 0.54165 0.73642
 C427 C 0.47389 0.25472 0.08946
 C428 C 0.46611 0.27685 0.13872
 C429 C 0.47058 0.33147 0.14678
 C430 C 0.47966 0.36462 0.10357
 C431 C 0.48538 0.34243 0.05286
 C432 C 0.48487 0.28655 0.04530
 N433 N 0.46904 0.35079 0.19993
 N434 N 0.48911 0.39526 0.21478
 C435 C 0.49095 0.41194 0.26898
 C436 C 0.52447 0.45380 0.28399
 C437 C 0.53093 0.46875 0.33668
 C438 C 0.50194 0.44572 0.37715
 C439 C 0.47032 0.40092 0.36118
 C440 C 0.46462 0.38441 0.30818
 H441 H 0.47311 0.21168 0.08612
 H442 H 0.45920 0.25088 0.17153
 H443 H 0.48232 0.40741 0.10902
 H444 H 0.49065 0.36917 0.02056
 H445 H 0.54776 0.47360 0.25493
 H446 H 0.56165 0.49665 0.34492
 H447 H 0.45220 0.37610 0.38882
 H448 H 0.44028 0.34978 0.29813
 C449 C 0.54070 0.33181 0.93994
 C450 C 0.54852 0.35899 0.89245
 C451 C 0.52008 0.34392 0.84580
 C452 C 0.48528 0.30041 0.84707
 C453 C 0.47792 0.27342 0.89356
 C454 C 0.50294 0.28996 0.94222
 N455 N 0.52752 0.37135 0.79707
 N456 N 0.49749 0.36057 0.75653
 C457 C 0.50205 0.38459 0.70590
 C458 C 0.46209 0.37507 0.66710
 C459 C 0.46426 0.39870 0.61760
 C460 C 0.50704 0.43189 0.60387
 C461 C 0.54740 0.43970 0.64397
 C462 C 0.54517 0.41685 0.69385
 H463 H 0.56472 0.34302 0.97465
 H464 H 0.57703 0.39148 0.89199
 H465 H 0.46431 0.28615 0.81158
 H466 H 0.45295 0.23827 0.89010
 H467 H 0.42831 0.34997 0.67559
 H468 H 0.43143 0.39053 0.59099
 H469 H 0.58002 0.46543 0.63892
 H470 H 0.57683 0.42507 0.72309
 C471 C 0.75772 0.90684 0.47718
 C472 C 0.73244 0.85762 0.47439
 C473 C 0.67944 0.85260 0.48799
 C474 C 0.65093 0.89804 0.50323
 C475 C 0.67593 0.94830 0.50464
 C476 C 0.72996 0.95350 0.49129
 N477 N 0.65688 0.80029 0.48655
 N478 N 0.61443 0.78724 0.50905
 C479 C 0.59589 0.73316 0.50573
 C480 C 0.55612 0.71586 0.53801
 C481 C 0.53933 0.66264 0.53588
 C482 C 0.56305 0.62309 0.50347
 C483 C 0.59923 0.64427 0.46776
 C484 C 0.61671 0.69705 0.46986
 H485 H 0.79971 0.90867 0.46853
 H486 H 0.75484 0.82273 0.46307
 H487 H 0.60976 0.89463 0.51428
 H488 H 0.65356 0.98222 0.51817
 H489 H 0.53732 0.74370 0.56428
 H490 H 0.50497 0.65352 0.55840
 H491 H 0.61454 0.62207 0.43644
 H492 H 0.64575 0.70986 0.44215
 C493 C 0.74817 0.09549 0.54515
 C494 C 0.72192 0.14375 0.55092
 C495 C 0.67952 0.15718 0.51680
 C496 C 0.66225 0.12080 0.47716
 C497 C 0.68762 0.07129 0.47221
 C498 C 0.73067 0.05713 0.50676
 N499 N 0.65757 0.20947 0.52133
 N500 N 0.62986 0.23037 0.48413
 C501 C 0.60972 0.28349 0.48765
 C502 C 0.58839 0.30652 0.44228
 C503 C 0.56928 0.35844 0.44320
 C504 C 0.56927 0.38960 0.48976
 C505 C 0.59220 0.36550 0.53556
 C506 C 0.61242 0.31346 0.53453
 H507 H 0.78340 0.08962 0.57034
 H508 H 0.73644 0.17207 0.58065
 H509 H 0.62974 0.13088 0.44974
 H510 H 0.67440 0.04444 0.44071
 H511 H 0.58702 0.28418 0.40555
 H512 H 0.55516 0.37240 0.40628
 H513 H 0.59483 0.38650 0.57253
 H514 H 0.62951 0.29662 0.57040
 C515 C 0.25546 0.90979 0.54927
 C516 C 0.27564 0.85823 0.54678
 C517 C 0.31177 0.84411 0.50896
 C518 C 0.32775 0.88265 0.47296
 C519 C 0.30719 0.93466 0.47509
 C520 C 0.27154 0.94995 0.51423
 N521 N 0.33091 0.79030 0.50824
 N522 N 0.36707 0.77466 0.47802
 C523 C 0.38680 0.72106 0.47891
 C524 C 0.43372 0.70987 0.45426
 C525 C 0.45693 0.65968 0.45858
 C526 C 0.43543 0.61743 0.48857
 C527 C 0.38403 0.62872 0.50719
 C528 C 0.36100 0.67970 0.50432
 H529 H 0.22554 0.91681 0.57797
 H530 H 0.26235 0.82871 0.57420
 H531 H 0.35521 0.87236 0.44268
 H532 H 0.31840 0.96285 0.44552
 H533 H 0.45372 0.74083 0.43304
 H534 H 0.49406 0.65654 0.43945
 H535 H 0.35916 0.59958 0.52292
 H536 H 0.32261 0.68645 0.52137
 C537 C 0.33731 0.05205 0.51491
 C538 C 0.36812 0.09869 0.51162
 C539 C 0.34352 0.14831 0.50389
 C540 C 0.28762 0.15119 0.50188
 C541 C 0.25697 0.10518 0.50611
 C542 C 0.28094 0.05430 0.51036
 N543 N 0.37550 0.19558 0.50009
 N544 N 0.35560 0.23898 0.48261
 C545 C 0.38552 0.28774 0.48125
 C546 C 0.36310 0.33190 0.45599
 C547 C 0.38949 0.38122 0.45768
 C548 C 0.43932 0.38877 0.48560
 C549 C 0.46083 0.34275 0.51022
 C550 C 0.43504 0.29338 0.50786
 H551 H 0.35793 0.01486 0.52177
 H552 H 0.41130 0.09612 0.51480
 H553 H 0.26751 0.18913 0.49746
 H554 H 0.21383 0.10891 0.50443
 H555 H 0.32450 0.32836 0.43542
 H556 H 0.36928 0.41281 0.43769
 H557 H 0.49577 0.34459 0.53550
 H558 H 0.45286 0.26019 0.52897
   
