data_POSCAR
  _audit_creation_date              2014-09-24
  _audit_creation_method            'ToBaCCo'
  _symmetry_space_group_name_H-M    'P1'
  _symmetry_Int_Tables_number       1
  _symmetry_cell_setting            triclinic
  loop_
  _symmetry_equiv_pos_as_xyz
 x,y,z
_cell_length_a 20.8175
_cell_length_b 14.4057
_cell_length_c 14.8797
_cell_angle_alpha 89.845100
_cell_angle_beta 90.948400
_cell_angle_gamma 91.494300
loop_
  _atom_site_label
  _atom_site_type_symbol
  _atom_site_fract_x
  _atom_site_fract_y
  _atom_site_fract_z
C1 C 0.17924 0.16397 0.24970
 C2 C 0.17585 0.26037 0.23601
 C3 C 0.22678 0.31812 0.26956
 C4 C 0.28236 0.27934 0.30813
 C5 C 0.28804 0.18217 0.30749
 C6 C 0.23527 0.12590 0.28386
 H7 H 0.23925 0.05094 0.28665
 H8 H 0.22435 0.39283 0.26305
 C9 C 0.78725 0.30957 0.16487
 C10 C 0.79587 0.21523 0.18623
 C11 C 0.75653 0.17197 0.24860
 C12 C 0.70732 0.21807 0.28988
 C13 C 0.69925 0.31469 0.27220
 C14 C 0.73925 0.35875 0.20852
 H15 H 0.73161 0.43076 0.19106
 H16 H 0.76192 0.09838 0.26142
 C17 C 0.71346 0.70491 0.71409
 C18 C 0.70502 0.80083 0.69809
 C19 C 0.75345 0.86489 0.72368
 C20 C 0.81009 0.83592 0.76490
 C21 C 0.81767 0.74167 0.78663
 C22 C 0.76890 0.67671 0.76080
 H23 H 0.77421 0.60382 0.77651
 H24 H 0.74863 0.93762 0.70654
 C25 C 0.28562 0.80185 0.68301
 C26 C 0.29495 0.70642 0.69850
 C27 C 0.25921 0.66040 0.76635
 C28 C 0.21408 0.70901 0.81671
 C29 C 0.20316 0.80317 0.79640
 C30 C 0.23879 0.84761 0.72997
 H31 H 0.23241 0.92112 0.71804
 H32 H 0.26817 0.58841 0.78223
 O33 O 1.03200 -0.13584 -0.00973
 O34 O 0.91502 0.03317 0.06587
 O35 O 0.92404 -0.07636 -0.07212
 O36 O 1.01586 -0.03626 0.13553
 O37 O 1.07016 0.07953 0.07178
 O38 O 0.97801 0.03833 -0.13811
 O39 O 0.96879 0.14792 -0.00039
 O40 O 1.08558 -0.02001 -0.07432
 Cu41 Cu 0.96631 -0.06544 0.03641
 Cu42 Cu 1.03163 0.07247 -0.04197
 C43 C 1.07810 -0.10596 -0.05751
 C44 C 0.92265 0.11903 0.04732
 C45 C 0.93555 -0.02654 -0.14057
 C46 C 1.05675 0.03010 0.14023
 O47 O 0.57327 0.37304 0.51816
 O48 O 0.44373 0.47268 0.64686
 O49 O 0.44803 0.34858 0.51867
 O50 O 0.56745 0.51198 0.62613
 O51 O 0.55041 0.60956 0.51400
 O52 O 0.42986 0.45130 0.41144
 O53 O 0.42821 0.57596 0.53930
 O54 O 0.55614 0.46891 0.40467
 Cu55 Cu 0.50946 0.41677 0.58820
 Cu56 Cu 0.48934 0.53620 0.45661
 C57 C 0.58736 0.40319 0.44087
 C58 C 0.41424 0.54183 0.61602
 C59 C 0.41819 0.37293 0.44723
 C60 C 0.57974 0.58853 0.58610
 O61 O -0.05247 0.62688 -0.03033
 O62 O 0.03767 0.49506 0.14152
 O63 O 0.06855 0.62422 0.02973
 O64 O -0.08124 0.48879 0.07503
 O65 O -0.05447 0.39041 -0.03080
 O66 O 0.09399 0.52594 -0.07675
 O67 O 0.06392 0.39301 0.03886
 O68 O -0.02688 0.52506 -0.13366
 Cu69 Cu -0.00927 0.56883 0.06411
 Cu70 Cu 0.02244 0.44838 -0.06038
 C71 C -0.05750 0.59594 -0.11016
 C72 C 0.06734 0.42313 0.11934
 C73 C 0.10708 0.59742 -0.02971
 C74 C -0.09427 0.41831 0.02610
 O75 O 0.42886 1.09822 0.44721
 O76 O 0.54539 1.01216 0.61630
 O77 O 0.54410 1.14077 0.49523
 O78 O 0.42317 0.97362 0.57650
 O79 O 0.45249 0.86813 0.47902
 O80 O 0.57805 1.03345 0.40246
 O81 O 0.57216 0.90224 0.52175
 O82 O 0.46380 0.99454 0.35152
 Cu83 Cu 0.48133 1.06551 0.54455
 Cu84 Cu 0.51945 0.93827 0.42939
 C85 C 0.42976 1.06348 0.36878
 C86 C 0.57919 0.94303 0.59668
 C87 C 0.58112 1.11567 0.43376
 C88 C 0.41680 0.89327 0.54229
 N89 N 1.13031 0.10766 0.23425
 N90 N 1.08613 0.05003 0.22504
 N91 N 0.66722 0.63528 0.68324
 N92 N 0.62697 0.65322 0.62065
 N93 N -0.18287 0.34668 0.09634
 N94 N -0.15654 0.37445 0.02744
 N95 N 0.32923 0.85923 0.63250
 N96 N 0.37072 0.82936 0.57875
 N97 N -0.12840 0.71270 -0.15956
 N98 N -0.10329 0.63417 -0.17188
 N99 N 0.34412 1.14410 0.30657
 N100 N 0.39479 1.10386 0.29665
 N101 N 1.15924 -0.14058 -0.15619
 N102 N 1.12038 -0.16995 -0.09691
 N103 N 0.64967 0.36779 0.31240
 N104 N 0.63867 0.35992 0.39583
 N105 N 0.85754 -0.10349 -0.22651
 N106 N 0.90097 -0.04399 -0.22214
 N107 N 0.33182 0.33943 0.34631
 N108 N 0.37008 0.31189 0.40816
 N109 N 0.18944 0.67213 -0.11049
 N110 N 0.16771 0.64517 -0.03808
 N111 N 0.66243 1.15807 0.33527
 N112 N 0.62529 1.18184 0.39715
 N113 N 0.12610 0.29721 0.17885
 N114 N 0.10938 0.38136 0.18420
 N115 N 0.65082 0.83237 0.64748
 N116 N 0.62775 0.91251 0.65765
 N117 N 0.84064 0.15711 0.14300
 N118 N 0.88017 0.18420 0.08387
 N119 N 0.34281 0.66025 0.64794
 N120 N 0.36558 0.58208 0.66929
   
