data_POSCAR
  _audit_creation_date              2014-09-24
  _audit_creation_method            'ToBaCCo'
  _symmetry_space_group_name_H-M    'P1'
  _symmetry_Int_Tables_number       1
  _symmetry_cell_setting            triclinic
  loop_
  _symmetry_equiv_pos_as_xyz
 x,y,z
_cell_length_a 31.9621
_cell_length_b 32.0380
_cell_length_c 32.0088
_cell_angle_alpha 82.941700
_cell_angle_beta 97.102300
_cell_angle_gamma 95.689600
loop_
  _atom_site_label
  _atom_site_type_symbol
  _atom_site_fract_x
  _atom_site_fract_y
  _atom_site_fract_z
C1 C 0.59162 0.54117 -0.00210
 C2 C 0.58222 0.58250 -0.00002
 C3 C 0.54081 0.59191 0.00206
 C4 C 0.50753 0.55925 0.00212
 C5 C 0.51666 0.51713 0.00000
 C6 C 0.55886 0.50800 -0.00213
 C7 C 0.56711 0.46599 -0.00421
 C8 C 0.53464 0.43365 -0.00423
 C9 C 0.49263 0.44199 -0.00214
 C10 C 0.48351 0.48408 0.00002
 C11 C 0.46545 0.56751 0.00422
 C12 C 0.43301 0.53514 0.00426
 C13 C 0.44129 0.49316 0.00219
 C14 C 0.40858 0.45993 0.00220
 C15 C 0.41805 0.41863 0.00004
 C16 C 0.45946 0.40935 -0.00213
 H17 H 0.59887 0.45776 -0.00587
 H18 H 0.54280 0.40194 -0.00589
 H19 H 0.45722 0.59920 0.00587
 H20 H 0.40124 0.54334 0.00594
 H21 H 0.60757 0.60777 -0.00004
 H22 H 0.39286 0.39325 0.00004
 C23 C -0.00193 0.59173 0.45730
 C24 C 0.00038 0.58260 0.41614
 C25 C 0.00246 0.54118 0.40748
 C26 C 0.00223 0.50771 0.44078
 C27 C -0.00009 0.51669 0.48273
 C28 C -0.00217 0.55887 0.49104
 C29 C -0.00444 0.56706 0.53285
 C30 C -0.00466 0.53445 0.56588
 C31 C -0.00264 0.49241 0.55837
 C32 C -0.00034 0.48343 0.51643
 C33 C 0.00425 0.46559 0.43334
 C34 C 0.00399 0.43300 0.46640
 C35 C 0.00172 0.44123 0.50817
 C36 C 0.00145 0.40840 0.54197
 C37 C -0.00082 0.41763 0.58311
 C38 C -0.00285 0.45905 0.59165
 H39 H -0.00606 0.59885 0.54040
 H40 H -0.00645 0.54252 0.59744
 H41 H 0.00604 0.45746 0.40180
 H42 H 0.00560 0.40120 0.45888
 H43 H 0.00055 0.60817 0.39050
 H44 H -0.00100 0.39220 0.60886
 C45 C 0.54171 0.00237 0.59251
 C46 C 0.58324 0.00033 0.58394
 C47 C 0.59249 -0.00193 0.54277
 C48 C 0.55950 -0.00219 0.50892
 C49 C 0.51719 -0.00013 0.51722
 C50 C 0.50819 0.00216 0.55917
 C51 C 0.46596 0.00417 0.56658
 C52 C 0.43329 0.00395 0.53352
 C53 C 0.44152 0.00170 0.49175
 C54 C 0.48382 -0.00037 0.48350
 C55 C 0.56762 -0.00444 0.46704
 C56 C 0.53490 -0.00467 0.43402
 C57 C 0.49278 -0.00267 0.44155
 C58 C 0.45931 -0.00288 0.40827
 C59 C 0.41781 -0.00082 0.41680
 C60 C 0.40859 0.00146 0.45794
 H61 H 0.45781 0.00594 0.59812
 H62 H 0.40142 0.00556 0.54103
 H63 H 0.59946 -0.00605 0.45942
 H64 H 0.54295 -0.00645 0.40245
 H65 H 0.60879 0.00050 0.60973
 H66 H 0.39230 -0.00099 0.39105
 O67 O 0.46932 -0.00133 -0.06426
 O68 O 0.46173 -0.00950 0.05039
 O69 O 0.46191 0.05199 -0.01071
 O70 O 0.46912 -0.06283 -0.00313
 O71 O 0.53881 -0.05283 0.00908
 O72 O 0.53159 0.06199 0.00150
 O73 O 0.53143 0.00050 0.06261
 O74 O 0.53901 0.00867 -0.05204
 Cu75 Cu 0.45849 -0.00642 -0.00816
 Cu76 Cu 0.54224 0.00558 0.00651
 C77 C 0.50548 0.00485 -0.07749
 C78 C 0.49527 -0.00568 0.07583
 C79 C 0.49550 0.07635 -0.00568
 C80 C 0.50522 -0.07719 0.00407
 O81 O -0.05235 0.53873 0.99088
 O82 O 0.06273 0.53144 0.99850
 O83 O 0.00106 0.53130 0.93736
 O84 O 0.00930 0.53885 1.05204
 O85 O -0.00077 0.46934 1.06418
 O86 O -0.00901 0.46178 0.94951
 O87 O 0.05266 0.46193 1.01064
 O88 O -0.06243 0.46921 1.00302
 Cu89 Cu 0.00620 0.54209 0.99348
 Cu90 Cu -0.00589 0.45855 1.00806
 C91 C -0.07680 0.50523 0.99584
 C92 C 0.07710 0.49542 1.00565
 C93 C -0.00517 0.49523 0.92410
 C94 C 0.00545 0.50540 1.07745
 O95 O -0.01067 -0.05067 0.46077
 O96 O -0.00376 0.06335 0.46968
 O97 O 0.04992 0.00977 0.46075
 O98 O -0.06436 0.00289 0.46977
 O99 O -0.05134 -0.00996 0.53942
 O100 O 0.06292 -0.00307 0.53040
 O101 O 0.00925 0.05051 0.53933
 O102 O 0.00234 -0.06353 0.53042
 Cu103 Cu -0.00853 0.00763 0.45821
 Cu104 Cu 0.00710 -0.00780 0.54193
 C105 C -0.00516 -0.07633 0.49406
 C106 C 0.00376 0.07616 0.50603
 C107 C 0.07569 0.00435 0.49403
 C108 C -0.07712 -0.00453 0.50615
 C109 C -0.28665 0.52355 0.99330
 N110 N -0.26765 0.49239 1.01907
 N111 N -0.22665 0.48810 1.01865
 C112 C -0.20341 0.51483 0.99244
 N113 N -0.22243 0.54596 0.96664
 N114 N -0.26342 0.55025 0.96707
 C115 C -0.33045 0.52908 0.99470
 C116 C -0.36707 0.53437 0.99611
 C117 C -0.15896 0.51106 0.99297
 C118 C -0.12150 0.50824 0.99395
 C119 C 0.28688 0.47727 1.00735
 N120 N 0.26362 0.45007 1.03314
 N121 N 0.22265 0.45431 1.03377
 C122 C 0.20368 0.48588 1.00863
 N123 N 0.22695 0.51312 0.98288
 N124 N 0.26793 0.50888 0.98225
 C125 C 0.33067 0.47183 1.00574
 C126 C 0.36728 0.46663 1.00416
 C127 C 0.15925 0.48962 1.00829
 C128 C 0.12180 0.49241 1.00744
 C129 C -0.00684 -0.28455 0.47382
 N130 N -0.02655 -0.25831 0.44272
 N131 N -0.02715 -0.21757 0.44718
 C132 C -0.00806 -0.20186 0.48287
 N133 N 0.01162 -0.22812 0.51400
 N134 N 0.01221 -0.26886 0.50954
 C135 C -0.00536 -0.32816 0.46854
 C136 C -0.00388 -0.36468 0.46369
 C137 C -0.00769 -0.15778 0.48714
 C138 C -0.00685 -0.12063 0.49043
 C139 C 0.00601 0.28456 0.52576
 N140 N 0.02552 0.25830 0.55700
 N141 N 0.02597 0.21752 0.55269
 C142 C 0.00695 0.20176 0.51699
 N143 N -0.01252 0.22803 0.48572
 N144 N -0.01298 0.26882 0.49004
 C145 C 0.00467 0.32822 0.53090
 C146 C 0.00330 0.36478 0.53566
 C147 C 0.00645 0.15765 0.51285
 C148 C 0.00552 0.12048 0.50963
 C149 C 0.52431 0.00742 -0.28640
 N150 N 0.55242 0.03113 -0.26183
 N151 N 0.54805 0.03164 -0.22103
 C152 C 0.51543 0.00847 -0.20358
 N153 N 0.48727 -0.01519 -0.22816
 N154 N 0.49164 -0.01571 -0.26897
 C155 C 0.52982 0.00589 -0.32997
 C156 C 0.53505 0.00433 -0.36640
 C157 C 0.51153 0.00792 -0.15933
 C158 C 0.50861 0.00688 -0.12202
 C159 C 0.47680 -0.00813 0.28481
 N160 N 0.50946 0.01492 0.26730
 N161 N 0.51373 0.01438 0.22648
 C162 C 0.48548 -0.00923 0.20194
 N163 N 0.45285 -0.03233 0.21947
 N164 N 0.44858 -0.03179 0.26029
 C165 C 0.47140 -0.00658 0.32840
 C166 C 0.46628 -0.00500 0.36485
 C167 C 0.48928 -0.00872 0.15768
 C168 C 0.49216 -0.00770 0.12037
 C169 C 0.52330 -0.28660 0.00663
 N170 N 0.49211 -0.26762 -0.01919
 N171 N 0.48787 -0.22670 -0.01877
 C172 C 0.51469 -0.20353 0.00747
 N173 N 0.54584 -0.22253 0.03332
 N174 N 0.55008 -0.26344 0.03290
 C175 C 0.52877 -0.33032 0.00525
 C176 C 0.53403 -0.36686 0.00384
 C177 C 0.51097 -0.15918 0.00694
 C178 C 0.50819 -0.12180 0.00596
 C179 C 0.47731 0.28563 -0.00734
 N180 N 0.50863 0.26660 0.01825
 N181 N 0.51289 0.22572 0.01762
 C182 C 0.48598 0.20263 -0.00862
 N183 N 0.45470 0.22167 -0.03424
 N184 N 0.45044 0.26255 -0.03361
 C185 C 0.47184 0.32931 -0.00575
 C186 C 0.46661 0.36582 -0.00419
 C187 C 0.48972 0.15830 -0.00829
 C188 C 0.49251 0.12094 -0.00745
 C189 C -0.28582 -0.00651 0.52657
 N190 N -0.25931 -0.02559 0.55791
 N191 N -0.21847 -0.02611 0.55342
 C192 C -0.20293 -0.00759 0.51746
 N193 N -0.22945 0.01145 0.48610
 N194 N -0.27029 0.01197 0.49058
 C195 C -0.32953 -0.00512 0.53187
 C196 C -0.36614 -0.00371 0.53673
 C197 C -0.15875 -0.00714 0.51315
 C198 C -0.12152 -0.00625 0.50982
 C199 C 0.28450 0.00623 0.47415
 N200 N 0.26881 -0.01238 0.51001
 N201 N 0.22794 -0.01184 0.51435
 C202 C 0.20155 0.00734 0.48296
 N203 N 0.21725 0.02598 0.44713
 N204 N 0.25812 0.02544 0.44279
 C205 C 0.32825 0.00480 0.46900
 C206 C 0.36488 0.00337 0.46425
 C207 C 0.15734 0.00693 0.48713
 C208 C 0.12010 0.00606 0.49039
 C209 C 0.00775 0.52399 1.28639
 N210 N 0.03129 0.55225 1.26184
 N211 N 0.03188 0.54794 1.22104
 C212 C 0.00895 0.51523 1.20355
 N213 N -0.01455 0.48693 1.22811
 N214 N -0.01513 0.49124 1.26892
 C215 C 0.00613 0.52942 1.32996
 C216 C 0.00450 0.53459 1.36639
 C217 C 0.00847 0.51140 1.15930
 C218 C 0.00746 0.50851 1.12198
 C219 C -0.00794 0.47665 0.71511
 N220 N 0.01541 0.50911 0.73265
 N221 N 0.01494 0.51342 0.77347
 C222 C -0.00890 0.48541 0.79798
 N223 N -0.03228 0.45299 0.78041
 N224 N -0.03181 0.44868 0.73959
 C225 C -0.00645 0.47121 0.67151
 C226 C -0.00493 0.46605 0.63507
 C227 C -0.00832 0.48924 0.84224
 C228 C -0.00724 0.49213 0.87956
   
