data_POSCAR
  _audit_creation_date              2014-09-24
  _audit_creation_method            'ToBaCCo'
  _symmetry_space_group_name_H-M    'P1'
  _symmetry_Int_Tables_number       1
  _symmetry_cell_setting            triclinic
  loop_
  _symmetry_equiv_pos_as_xyz
 x,y,z
_cell_length_a 69.9516
_cell_length_b 69.9645
_cell_length_c 21.0779
_cell_angle_alpha 89.995600
_cell_angle_beta 90.061000
_cell_angle_gamma 120.013300
loop_
  _atom_site_label
  _atom_site_type_symbol
  _atom_site_fract_x
  _atom_site_fract_y
  _atom_site_fract_z
C1 C 0.24481 0.49038 0.53075
 C2 C 0.24482 0.49015 0.46601
 C3 C 0.22740 0.49128 0.42852
 C4 C 0.26216 0.48855 0.42973
 C5 C 0.26352 0.49180 0.56811
 C6 C 0.22598 0.48895 0.56713
 C7 C 0.21541 0.47518 0.38282
 C8 C 0.19835 0.47546 0.34914
 C9 C 0.19264 0.49204 0.35986
 C10 C 0.20556 0.50861 0.40507
 C11 C 0.22265 0.50824 0.43838
 C12 C 0.26648 0.47129 0.44114
 C13 C 0.28349 0.47049 0.40888
 C14 C 0.29632 0.48678 0.36402
 C15 C 0.29149 0.50365 0.35130
 C16 C 0.27451 0.50447 0.38374
 C17 C 0.28526 0.50883 0.55727
 C18 C 0.30284 0.50933 0.59026
 C19 C 0.29900 0.49296 0.63530
 C20 C 0.27714 0.47634 0.64749
 C21 C 0.25958 0.47582 0.61433
 C22 C 0.22965 0.50516 0.61229
 C23 C 0.21193 0.50450 0.64476
 C24 C 0.19020 0.48750 0.63291
 C25 C 0.18664 0.47093 0.58892
 C26 C 0.20438 0.47158 0.55662
 H27 H 0.21882 0.46188 0.37458
 H28 H 0.18901 0.46166 0.31777
 H29 H 0.20346 0.52266 0.41365
 H30 H 0.23223 0.52128 0.47208
 H31 H 0.25678 0.45856 0.47545
 H32 H 0.28654 0.45706 0.41878
 H33 H 0.27135 0.51785 0.37411
 H34 H 0.28861 0.52160 0.52276
 H35 H 0.31945 0.52257 0.58070
 H36 H 0.27366 0.46339 0.68145
 H37 H 0.24292 0.46259 0.62352
 H38 H 0.24622 0.51864 0.62123
 H39 H 0.21517 0.51759 0.67798
 H40 H 0.17014 0.45740 0.57971
 H41 H 0.20126 0.45864 0.52296
 H42 H 0.30120 0.51653 0.31740
 C43 C 0.50979 -0.24531 0.53217
 C44 C 0.50971 -0.24523 0.46743
 C45 C 0.50836 -0.26389 0.43009
 C46 C 0.51118 -0.22636 0.43103
 C47 C 0.50854 -0.22795 0.56950
 C48 C 0.51139 -0.26263 0.56859
 C49 C 0.52441 -0.25988 0.38407
 C50 C 0.52393 -0.27740 0.35084
 C51 C 0.50729 -0.29927 0.36274
 C52 C 0.49085 -0.30317 0.40759
 C53 C 0.49132 -0.28563 0.44067
 C54 C 0.52850 -0.20477 0.44189
 C55 C 0.52917 -0.18700 0.40969
 C56 C 0.51266 -0.19052 0.36545
 C57 C 0.49573 -0.21224 0.35322
 C58 C 0.49505 -0.23000 0.38559
 C59 C 0.49145 -0.22328 0.55920
 C60 C 0.49107 -0.20617 0.59226
 C61 C 0.50762 -0.19356 0.63684
 C62 C 0.52431 -0.19875 0.64847
 C63 C 0.52471 -0.21582 0.61525
 C64 C 0.49551 -0.27495 0.61450
 C65 C 0.49633 -0.29189 0.64723
 C66 C 0.51320 -0.29697 0.63508
 C67 C 0.52948 -0.28389 0.58987
 C68 C 0.52863 -0.26693 0.55749
 H69 H 0.53765 -0.24322 0.37507
 H70 H 0.53693 -0.27387 0.31703
 H71 H 0.47759 -0.31978 0.41693
 H72 H 0.47850 -0.28903 0.47501
 H73 H 0.54139 -0.20168 0.47576
 H74 H 0.54265 -0.17051 0.41919
 H75 H 0.48161 -0.24656 0.37639
 H76 H 0.47853 -0.23277 0.52508
 H77 H 0.47777 -0.20285 0.58313
 H78 H 0.53740 -0.18922 0.68208
 H79 H 0.53799 -0.21921 0.62403
 H80 H 0.48207 -0.27186 0.62374
 H81 H 0.48295 -0.30159 0.67960
 H82 H 0.54346 -0.28608 0.58048
 H83 H 0.54144 -0.25713 0.52350
 H84 H 0.48269 -0.21546 0.31977
 C85 C 1.24560 0.75466 0.53287
 C86 C 1.24584 0.75482 0.46814
 C87 C 1.26319 0.77378 0.43182
 C88 C 1.22864 0.73610 0.43073
 C89 C 1.22661 0.73731 0.56913
 C90 C 1.26424 0.77193 0.57036
 C91 C 1.26745 0.79530 0.44293
 C92 C 1.28429 0.81314 0.41022
 C93 C 1.29728 0.80996 0.36464
 C94 C 1.29229 0.78803 0.35265
 C95 C 1.27547 0.77026 0.38569
 C96 C 1.21648 0.73997 0.38467
 C97 C 1.19949 0.72236 0.35156
 C98 C 1.19444 0.70055 0.36364
 C99 C 1.20711 0.69681 0.40844
 C100 C 1.22413 0.71443 0.44140
 C101 C 1.23011 0.72509 0.61557
 C102 C 1.21232 0.70826 0.64849
 C103 C 1.19038 0.70318 0.63605
 C104 C 1.18722 0.71611 0.59016
 C105 C 1.20507 0.73297 0.55758
 C106 C 1.28591 0.77651 0.56008
 C107 C 1.30349 0.79354 0.59317
 C108 C 1.29988 0.80639 0.63823
 C109 C 1.27780 0.80098 0.64965
 C110 C 1.26029 0.78399 0.61625
 H111 H 1.25768 0.79831 0.47707
 H112 H 1.28641 0.82927 0.41961
 H113 H 1.30195 0.78437 0.32006
 H114 H 1.27243 0.75374 0.37641
 H115 H 1.21976 0.75658 0.37562
 H116 H 1.18990 0.72575 0.31775
 H117 H 1.23366 0.71117 0.47579
 H118 H 1.24664 0.72820 0.62518
 H119 H 1.21598 0.69866 0.68135
 H120 H 1.17107 0.71392 0.58042
 H121 H 1.20207 0.74268 0.52319
 H122 H 1.28924 0.76692 0.52611
 H123 H 1.31978 0.79598 0.58433
 H124 H 1.27381 0.81049 0.68187
 H125 H 1.24365 0.78068 0.62484
 H126 H 1.20389 0.68024 0.41789
 C127 C 0.75497 0.50999 0.53355
 C128 C 0.75485 0.50983 0.46881
 C129 C 0.77218 0.50841 0.43182
 C130 C 0.73751 0.51131 0.43209
 C131 C 0.73630 0.50872 0.57062
 C132 C 0.77391 0.51170 0.57025
 C133 C 0.78425 0.52437 0.38560
 C134 C 0.80130 0.52382 0.35269
 C135 C 0.80651 0.50719 0.36511
 C136 C 0.79395 0.49085 0.41017
 C137 C 0.77686 0.49138 0.44292
 C138 C 0.73328 0.52867 0.44260
 C139 C 0.71625 0.52938 0.41003
 C140 C 0.70329 0.51288 0.36575
 C141 C 0.70804 0.49590 0.35389
 C142 C 0.72504 0.49518 0.38664
 C143 C 0.71460 0.49168 0.56019
 C144 C 0.69705 0.49121 0.59309
 C145 C 0.70069 0.50769 0.63817
 C146 C 0.72279 0.52434 0.64964
 C147 C 0.74027 0.52478 0.61641
 C148 C 0.77037 0.49593 0.61653
 C149 C 0.78815 0.49688 0.64961
 C150 C 0.81008 0.51377 0.63745
 C151 C 0.81326 0.52994 0.59184
 C152 C 0.79543 0.52896 0.55910
 H153 H 0.78084 0.53760 0.37619
 H154 H 0.81079 0.53675 0.31870
 H155 H 0.79729 0.47760 0.41992
 H156 H 0.76742 0.47863 0.47743
 H157 H 0.74306 0.54156 0.47648
 H158 H 0.71328 0.54290 0.41925
 H159 H 0.72813 0.48171 0.37769
 H160 H 0.71124 0.47873 0.52631
 H161 H 0.68074 0.47738 0.58415
 H162 H 0.72681 0.53786 0.68182
 H163 H 0.75693 0.53810 0.62513
 H164 H 0.75384 0.48247 0.62582
 H165 H 0.78449 0.48358 0.68228
 H166 H 0.82941 0.54394 0.58239
 H167 H 0.79843 0.54169 0.52483
 H168 H 0.69824 0.48287 0.32044
 C169 C 0.49002 0.24503 0.53262
 C170 C 0.48953 0.24471 0.46790
 C171 C 0.49036 0.26314 0.43058
 C172 C 0.48788 0.22578 0.43141
 C173 C 0.49156 0.22778 0.56977
 C174 C 0.48871 0.26247 0.56927
 C175 C 0.47385 0.25879 0.38573
 C176 C 0.47391 0.27605 0.35226
 C177 C 0.49061 0.29802 0.36267
 C178 C 0.50749 0.30227 0.40636
 C179 C 0.50742 0.28498 0.43979
 C180 C 0.47069 0.20419 0.44302
 C181 C 0.46982 0.18639 0.41041
 C182 C 0.48597 0.18988 0.36502
 C183 C 0.50277 0.21160 0.35216
 C184 C 0.50366 0.22939 0.38494
 C185 C 0.50846 0.22301 0.55837
 C186 C 0.50910 0.20600 0.59124
 C187 C 0.49293 0.19335 0.63725
 C188 C 0.47645 0.19894 0.64971
 C189 C 0.47584 0.21590 0.61651
 C190 C 0.50508 0.27508 0.61377
 C191 C 0.50448 0.29209 0.64679
 C192 C 0.48731 0.29688 0.63661
 C193 C 0.47054 0.28350 0.59283
 C194 C 0.47123 0.26652 0.55993
 H195 H 0.46066 0.24203 0.37753
 H196 H 0.46090 0.27222 0.31812
 H197 H 0.52050 0.31901 0.41574
 H198 H 0.52053 0.28865 0.47343
 H199 H 0.45807 0.20112 0.47772
 H200 H 0.45644 0.16990 0.42045
 H201 H 0.51698 0.24594 0.37514
 H202 H 0.52116 0.23244 0.52371
 H203 H 0.52280 0.20341 0.58149
 H204 H 0.46315 0.18959 0.68265
 H205 H 0.46262 0.21933 0.62598
 H206 H 0.51852 0.27194 0.62242
 H207 H 0.51727 0.30091 0.68168
 H208 H 0.45727 0.28657 0.58111
 H209 H 0.45824 0.25674 0.52628
 H210 H 0.51554 0.21480 0.31786
 C211 C 0.75508 0.24540 0.53302
 C212 C 0.75525 0.24512 0.46831
 C213 C 0.73669 0.22750 0.43133
 C214 C 0.77415 0.26229 0.43152
 C215 C 0.77244 0.26423 0.56985
 C216 C 0.73770 0.22673 0.57002
 C217 C 0.74087 0.21522 0.38651
 C218 C 0.72347 0.19798 0.35344
 C219 C 0.70155 0.19279 0.36420
 C220 C 0.69748 0.20554 0.40783
 C221 C 0.71490 0.22280 0.44086
 C222 C 0.79574 0.26664 0.44299
 C223 C 0.81352 0.28351 0.41024
 C224 C 0.81003 0.29618 0.36484
 C225 C 0.78831 0.29131 0.35207
 C226 C 0.77053 0.27446 0.38499
 C227 C 0.77723 0.28590 0.55819
 C228 C 0.79430 0.30359 0.59091
 C229 C 0.80696 0.30011 0.63703
 C230 C 0.80137 0.27804 0.64970
 C231 C 0.78435 0.26043 0.61665
 C232 C 0.72522 0.23063 0.61478
 C233 C 0.70830 0.21309 0.64818
 C234 C 0.70368 0.19133 0.63781
 C235 C 0.71662 0.18755 0.59413
 C236 C 0.73354 0.20511 0.56078
 H237 H 0.75758 0.21872 0.37806
 H238 H 0.72718 0.18872 0.31933
 H239 H 0.68078 0.20188 0.41747
 H240 H 0.71136 0.23233 0.47448
 H241 H 0.79881 0.25708 0.47774
 H242 H 0.83002 0.28659 0.42021
 H243 H 0.75398 0.27127 0.37530
 H244 H 0.76778 0.28914 0.52348
 H245 H 0.79690 0.31988 0.58097
 H246 H 0.81073 0.27413 0.68273
 H247 H 0.78090 0.24380 0.62633
 H248 H 0.72834 0.24723 0.62299
 H249 H 0.69886 0.21655 0.68229
 H250 H 0.71338 0.17098 0.58478
 H251 H 0.74325 0.20182 0.52720
 H252 H 0.78511 0.30089 0.31776
 N253 N 1.02331 0.47776 0.06726
 N254 N 1.03992 0.47407 0.07522
 N255 N 0.97686 0.46762 0.11189
 N256 N 0.96059 0.45648 0.15231
 N257 N 0.97684 0.45455 0.06714
 N258 N 0.96056 0.43414 0.07582
 N259 N 1.02330 0.49082 0.11200
 N260 N 1.03989 0.49639 0.15165
 C261 C 1.05004 0.48583 0.12795
 C262 C 0.95060 0.43571 0.12891
 N263 N 0.97691 0.52233 0.07077
 N264 N 0.96031 0.52596 0.07987
 N265 N 1.02334 0.53199 0.11422
 N266 N 1.04000 0.54258 0.15395
 N267 N 1.02339 0.54551 0.07089
 N268 N 1.04008 0.56569 0.07990
 N269 N 0.97689 0.50881 0.11406
 N270 N 0.96029 0.50286 0.15383
 Mn271 Mn 1.00009 0.49981 0.11377
 C272 C 0.95016 0.51368 0.13174
 C273 C 1.05022 0.56351 0.13178
 N274 N 0.97678 0.45523 -0.06955
 N275 N 0.96014 0.43502 -0.07876
 N276 N 1.02328 0.49188 -0.11277
 N277 N 1.03958 0.49741 -0.15335
 N278 N 1.02324 0.47837 -0.06943
 N279 N 1.03951 0.47432 -0.07927
 N280 N 0.97682 0.46875 -0.11287
 N281 N 0.96021 0.45813 -0.15277
 Mn282 Mn 1.00004 0.46625 -0.00116
 C283 C 0.95002 0.43719 -0.13072
 C284 C 1.04952 0.48637 -0.13156
 N285 N 1.02340 0.54621 -0.06581
 N286 N 1.03971 0.56662 -0.07449
 N287 N 0.97694 0.50998 -0.11069
 N288 N 0.96063 0.50484 -0.15109
 N289 N 0.97696 0.52305 -0.06592
 N290 N 0.96067 0.52717 -0.07458
 N291 N 1.02338 0.53313 -0.11055
 N292 N 1.03967 0.54425 -0.15093
 Mn293 Mn 1.00017 0.53450 0.00252
 Mn294 Mn 1.00011 0.50094 -0.11245
 Cl295 Cl 1.00010 0.50038 0.00066
 C296 C 1.04968 0.56504 -0.12756
 C297 C 0.95067 0.51563 -0.12768
 N298 N 0.49078 0.46767 -0.11362
 N299 N 0.49618 0.45671 -0.15392
 N300 N 0.45436 0.47777 -0.06973
 N301 N 0.43413 0.47419 -0.07841
 N302 N 0.46771 0.49104 -0.11366
 N303 N 0.45695 0.49688 -0.15345
 N304 N 0.47745 0.45440 -0.06966
 N305 N 0.47341 0.43405 -0.07878
 C306 C 0.48526 0.43584 -0.13132
 C307 C 0.43609 0.48625 -0.13070
 N308 N 0.46760 0.49087 0.11118
 N309 N 0.45665 0.49619 0.15174
 N310 N 0.47745 0.45433 0.06702
 N311 N 0.47368 0.43403 0.07559
 N312 N 0.49075 0.46759 0.11115
 N313 N 0.49641 0.45669 0.15097
 N314 N 0.45432 0.47764 0.06699
 N315 N 0.43396 0.47359 0.07621
 Mn316 Mn 0.46567 0.46581 -0.00135
 C317 C 0.43578 0.48534 0.12903
 C318 C 0.48565 0.43586 0.12800
 N319 N 0.50899 0.53214 -0.11337
 N320 N 0.50370 0.54314 -0.15388
 N321 N 0.54537 0.52203 -0.06909
 N322 N 0.56561 0.52564 -0.07754
 N323 N 0.53206 0.50877 -0.11322
 N324 N 0.54287 0.50300 -0.15293
 N325 N 0.52227 0.54537 -0.06918
 N326 N 0.52639 0.56575 -0.07835
 Mn327 Mn 0.49989 0.49991 -0.11420
 C328 C 0.51463 0.56400 -0.13114
 C329 C 0.56371 0.51364 -0.12990
 N330 N 0.53199 0.50874 0.11155
 N331 N 0.54290 0.50333 0.15211
 N332 N 0.52215 0.54532 0.06754
 N333 N 0.52583 0.56558 0.07615
 N334 N 0.50883 0.53201 0.11145
 N335 N 0.50306 0.54283 0.15117
 N336 N 0.54530 0.52202 0.06761
 N337 N 0.56565 0.52604 0.07699
 Mn338 Mn 0.49979 0.49980 0.11206
 Mn339 Mn 0.53399 0.53391 -0.00078
 Cl340 Cl 0.49984 0.49986 -0.00107
 C341 C 0.56379 0.51421 0.12965
 C342 C 0.51379 0.56368 0.12839
 N343 N 0.45420 -0.02321 0.06585
 N344 N 0.43378 -0.03948 0.07462
 N345 N 0.49057 0.02318 0.11073
 N346 N 0.49572 0.03941 0.15136
 N347 N 0.47747 0.02322 0.06610
 N348 N 0.47334 0.03948 0.07509
 N349 N 0.46731 -0.02325 0.11045
 N350 N 0.45619 -0.03955 0.15082
 C351 C 0.43538 -0.04950 0.12759
 C352 C 0.48491 0.04940 0.12823
 N353 N 0.54520 0.02317 0.06898
 N354 N 0.56546 0.03971 0.07819
 N355 N 0.50849 -0.02329 0.11222
 N356 N 0.50297 -0.03962 0.15275
 N357 N 0.52193 -0.02328 0.06871
 N358 N 0.52594 -0.03959 0.07839
 N359 N 0.53175 0.02316 0.11245
 N360 N 0.54247 0.03970 0.15246
 Mn361 Mn 0.49953 -0.00005 0.11219
 C362 C 0.56340 0.04982 0.13030
 C363 C 0.51394 -0.04960 0.13075
 N364 N 0.47805 0.02336 -0.07059
 N365 N 0.47449 0.04001 -0.07948
 N366 N 0.46821 -0.02309 -0.11434
 N367 N 0.45754 -0.03974 -0.15401
 N368 N 0.45476 -0.02312 -0.07086
 N369 N 0.43456 -0.03979 -0.07970
 N370 N 0.49151 0.02336 -0.11403
 N371 N 0.49748 0.04000 -0.15370
 Mn372 Mn 0.46590 0.00006 -0.00241
 C373 C 0.48674 0.05017 -0.13138
 C374 C 0.43664 -0.04993 -0.13165
 N375 N 0.52241 -0.02326 -0.06799
 N376 N 0.52605 -0.03989 -0.07619
 N377 N 0.53264 0.02326 -0.11230
 N378 N 0.54374 0.03966 -0.15237
 N379 N 0.54573 0.02320 -0.06769
 N380 N 0.56612 0.03955 -0.07612
 N381 N 0.50932 -0.02318 -0.11259
 N382 N 0.50369 -0.03972 -0.15239
 Mn383 Mn 0.53404 -0.00005 0.00052
 Mn384 Mn 0.50042 0.00009 -0.11405
 Cl385 Cl 0.49997 0.00001 -0.00092
 C386 C 0.51424 -0.04994 -0.12891
 C387 C 0.56452 0.04962 -0.12895
 C388 C 1.14852 0.47924 0.24078
 C389 C 1.13876 0.49079 0.26557
 C390 C 1.14716 0.50306 0.32105
 C391 C 1.16513 0.50370 0.35210
 C392 C 1.17531 0.49191 0.32855
 C393 C 1.16648 0.47975 0.27153
 C394 C 1.11992 0.48980 0.23463
 C395 C 1.10403 0.48889 0.20926
 C396 C 1.08531 0.48779 0.18021
 C397 C 1.06925 0.48686 0.15601
 H398 H 1.14229 0.46986 0.19729
 H399 H 1.13956 0.51192 0.34107
 H400 H 1.16990 0.51255 0.39656
 H401 H 1.17379 0.47125 0.24796
 C402 C 0.51339 0.66617 0.23401
 C403 C 0.50856 0.64700 0.26757
 C404 C 0.50300 0.64527 0.33190
 C405 C 0.50238 0.66265 0.36269
 C406 C 0.50736 0.68205 0.32950
 C407 C 0.51280 0.68359 0.26473
 C408 C 0.50958 0.62923 0.23635
 C409 C 0.51052 0.61431 0.21074
 C410 C 0.51167 0.59678 0.18139
 C411 C 0.51266 0.58173 0.15688
 H412 H 0.51768 0.66767 0.18416
 H413 H 0.49931 0.63054 0.35840
 H414 H 0.49845 0.66109 0.41278
 H415 H 0.51647 0.69819 0.23774
 C416 C 0.34306 -0.13264 0.32835
 C417 C 0.35023 -0.13567 0.26937
 C418 C 0.33982 -0.15658 0.24147
 C419 C 0.32237 -0.17445 0.27246
 C420 C 0.31485 -0.17182 0.33243
 C421 C 0.32561 -0.15043 0.35955
 C422 C 0.36839 -0.11733 0.23781
 C423 C 0.38366 -0.10190 0.21183
 C424 C 0.40162 -0.08375 0.18193
 C425 C 0.41700 -0.06817 0.15687
 H426 H 0.35115 -0.11653 0.35070
 H427 H 0.34513 -0.15907 0.19546
 H428 H 0.31441 -0.19007 0.24768
 H429 H 0.32138 -0.14732 0.40625
 C430 C 0.84721 0.51304 0.23690
 C431 C 0.86153 0.50827 0.27083
 C432 C 0.85769 0.50283 0.33523
 C433 C 0.83969 0.50228 0.36575
 C434 C 0.82527 0.50719 0.33219
 C435 C 0.82919 0.51251 0.26734
 C436 C 0.88035 0.50926 0.23988
 C437 C 0.89622 0.51019 0.21441
 C438 C 0.91492 0.51138 0.18510
 C439 C 0.93097 0.51243 0.16051
 H440 H 0.85000 0.51723 0.18700
 H441 H 0.86872 0.49920 0.36202
 H442 H 0.83730 0.49844 0.41589
 H443 H 0.81825 0.51612 0.24007
 C444 C 0.50928 0.35193 0.27483
 C445 C 0.48925 0.35158 0.26670
 C446 C 0.46968 0.33369 0.28942
 C447 C 0.47011 0.31623 0.32030
 C448 C 0.49017 0.31644 0.32893
 C449 C 0.50976 0.33448 0.30576
 C450 C 0.48875 0.36968 0.23578
 C451 C 0.48817 0.38482 0.21035
 C452 C 0.48736 0.40255 0.18110
 C453 C 0.48660 0.41773 0.15660
 H454 H 0.52453 0.36569 0.25735
 H455 H 0.45409 0.33330 0.28364
 H456 H 0.45480 0.30275 0.33841
 H457 H 0.52541 0.33500 0.31102
 C458 C 0.66555 0.13607 0.29192
 C459 C 0.64763 0.13775 0.26941
 C460 C 0.64736 0.15748 0.27740
 C461 C 0.66492 0.17544 0.30797
 C462 C 0.68300 0.17388 0.33090
 C463 C 0.68312 0.15399 0.32244
 C464 C 0.62946 0.11914 0.23868
 C465 C 0.61428 0.10341 0.21331
 C466 C 0.59655 0.08485 0.18400
 C467 C 0.58142 0.06891 0.15931
 H468 H 0.66589 0.12085 0.28623
 H469 H 0.63358 0.15897 0.26006
 H470 H 0.66446 0.19060 0.31312
 H471 H 0.69663 0.15216 0.34038
 C472 C 0.50247 0.14612 -0.32805
 C473 C 0.49219 0.13904 -0.26913
 C474 C 0.48253 0.15013 -0.24048
 C475 C 0.48292 0.16810 -0.27080
 C476 C 0.49304 0.17545 -0.33086
 C477 C 0.50296 0.16409 -0.35858
 C478 C 0.49126 0.12018 -0.23858
 C479 C 0.49033 0.10427 -0.21339
 C480 C 0.48913 0.08551 -0.18435
 C481 C 0.48805 0.06942 -0.15995
 H482 H 0.50987 0.13752 -0.35095
 H483 H 0.47468 0.14491 -0.19451
 H484 H 0.47584 0.17652 -0.24552
 H485 H 0.51026 0.16821 -0.40532
 C486 C 0.66822 0.51865 -0.23981
 C487 C 0.64732 0.50863 -0.26775
 C488 C 0.64391 0.49798 -0.32616
 C489 C 0.66135 0.49745 -0.35686
 C490 C 0.68276 0.50770 -0.32982
 C491 C 0.68574 0.51823 -0.27029
 C492 C 0.62942 0.50954 -0.23701
 C493 C 0.61442 0.51041 -0.21171
 C494 C 0.59683 0.51152 -0.18264
 C495 C 0.58175 0.51249 -0.15829
 H496 H 0.67100 0.52680 -0.19423
 H497 H 0.62780 0.49030 -0.34853
 H498 H 0.65800 0.48984 -0.40321
 H499 H 0.70137 0.52558 -0.24553
 C500 C 0.85420 0.35693 -0.32841
 C501 C 0.86127 0.35376 -0.26937
 C502 C 0.85019 0.33302 -0.24063
 C503 C 0.83223 0.31542 -0.27095
 C504 C 0.82488 0.31814 -0.33112
 C505 C 0.83623 0.33940 -0.35895
 C506 C 0.88011 0.37172 -0.23876
 C507 C 0.89601 0.38672 -0.21345
 C508 C 0.91473 0.40428 -0.18422
 C509 C 0.93081 0.41928 -0.15960
 H510 H 0.86279 0.37291 -0.35138
 H511 H 0.85541 0.33043 -0.19456
 H512 H 0.82381 0.29994 -0.24560
 H513 H 0.83211 0.34254 -0.40577
 C514 C 0.51399 -0.15278 -0.23444
 C515 C 0.50906 -0.13850 -0.26790
 C516 C 0.50335 -0.14238 -0.33217
 C517 C 0.50269 -0.16040 -0.36300
 C518 C 0.50776 -0.17478 -0.32990
 C519 C 0.51336 -0.17080 -0.26519
 C520 C 0.51010 -0.11970 -0.23664
 C521 C 0.51105 -0.10384 -0.21101
 C522 C 0.51220 -0.08515 -0.18168
 C523 C 0.51316 -0.06912 -0.15724
 H524 H 0.51838 -0.14995 -0.18464
 H525 H 0.49959 -0.13139 -0.35860
 H526 H 0.49865 -0.16282 -0.41304
 H527 H 0.51709 -0.18171 -0.23827
 C528 C 0.35448 0.49719 -0.33426
 C529 C 0.35283 0.49172 -0.26986
 C530 C 0.33374 0.48698 -0.23613
 C531 C 0.31629 0.48756 -0.26674
 C532 C 0.31773 0.49291 -0.33158
 C533 C 0.33706 0.49780 -0.36495
 C534 C 0.37063 0.49068 -0.23875
 C535 C 0.38555 0.48971 -0.21318
 C536 C 0.40307 0.48851 -0.18382
 C537 C 0.41809 0.48746 -0.15928
 H538 H 0.36915 0.50081 -0.36090
 H539 H 0.33230 0.48276 -0.18623
 H540 H 0.30173 0.48397 -0.23961
 H541 H 0.33855 0.50166 -0.41509
 C542 C 1.15681 0.66067 -0.24080
 C543 C 1.13595 0.65018 -0.26904
 C544 C 1.13298 0.65728 -0.32825
 C545 C 1.15079 0.67475 -0.35934
 C546 C 1.17214 0.68559 -0.33187
 C547 C 1.17471 0.67814 -0.27168
 C548 C 1.11758 0.63202 -0.23756
 C549 C 1.10214 0.61675 -0.21164
 C550 C 1.08397 0.59879 -0.18180
 C551 C 1.06837 0.58341 -0.15679
 H552 H 1.15926 0.65542 -0.19462
 H553 H 1.11691 0.64913 -0.35085
 H554 H 1.14774 0.67892 -0.40620
 H555 H 1.19029 0.68616 -0.24666
 C556 C 0.84363 0.50459 -0.23984
 C557 C 0.86446 0.51492 -0.26815
 C558 C 0.86741 0.52505 -0.32719
 C559 C 0.84962 0.52483 -0.35810
 C560 C 0.82830 0.51435 -0.33058
 C561 C 0.82575 0.50426 -0.27054
 C562 C 0.88279 0.51498 -0.23693
 C563 C 0.89822 0.51505 -0.21124
 C564 C 0.91639 0.51518 -0.18167
 C565 C 0.93199 0.51534 -0.15682
 H566 H 0.84120 0.49683 -0.19377
 H567 H 0.88347 0.53295 -0.34982
 H568 H 0.85265 0.53210 -0.40488
 H569 H 0.81019 0.49674 -0.24551
 C570 C 0.46697 0.33250 -0.29120
 C571 C 0.48667 0.35043 -0.26959
 C572 C 0.50653 0.35058 -0.27812
 C573 C 0.50677 0.33294 -0.30845
 C574 C 0.48704 0.31465 -0.33128
 C575 C 0.46709 0.31482 -0.32167
 C576 C 0.48652 0.36877 -0.23925
 C577 C 0.48636 0.38417 -0.21417
 C578 C 0.48610 0.40221 -0.18511
 C579 C 0.48578 0.41758 -0.16048
 H580 H 0.45144 0.33213 -0.28431
 H581 H 0.52193 0.36450 -0.26199
 H582 H 0.52271 0.33438 -0.31621
 H583 H 0.45130 0.30104 -0.33540
 C584 C 0.66995 0.13718 -0.27436
 C585 C 0.64984 0.13669 -0.26654
 C586 C 0.64740 0.15414 -0.28923
 C587 C 0.66496 0.17199 -0.31990
 C588 C 0.68521 0.17260 -0.32835
 C589 C 0.68753 0.15501 -0.30507
 C590 C 0.63161 0.11813 -0.23605
 C591 C 0.61627 0.10253 -0.21095
 C592 C 0.59827 0.08419 -0.18201
 C593 C 0.58287 0.06845 -0.15762
 H594 H 0.67202 0.12376 -0.25687
 H595 H 0.63188 0.15388 -0.28365
 H596 H 0.66257 0.18512 -0.33807
 H597 H 0.70299 0.15513 -0.31018
 C598 C 1.13405 0.48172 -0.33763
 C599 C 1.13555 0.48727 -0.27334
 C600 C 1.15485 0.49278 -0.23947
 C601 C 1.17262 0.49279 -0.26981
 C602 C 1.17128 0.48725 -0.33448
 C603 C 1.15178 0.48170 -0.36805
 C604 C 1.11727 0.48731 -0.24224
 C605 C 1.10188 0.48728 -0.21652
 C606 C 1.08376 0.48713 -0.18671
 C607 C 1.06818 0.48687 -0.16146
 H608 H 1.11920 0.47748 -0.36434
 H609 H 1.15616 0.49704 -0.18962
 H610 H 1.18732 0.49690 -0.24256
 H611 H 1.15037 0.47768 -0.41807
 C612 C 0.52421 0.65677 -0.33045
 C613 C 0.51395 0.64947 -0.27162
 C614 C 0.50362 0.65994 -0.24318
 C615 C 0.50342 0.67760 -0.27352
 C616 C 0.51364 0.68527 -0.33333
 C617 C 0.52411 0.67444 -0.36100
 C618 C 0.51395 0.63113 -0.24067
 C619 C 0.51398 0.61574 -0.21511
 C620 C 0.51408 0.59770 -0.18556
 C621 C 0.51427 0.58230 -0.16059
 H622 H 0.53211 0.64864 -0.35317
 H623 H 0.49579 0.65452 -0.19726
 H624 H 0.49590 0.68561 -0.24837
 H625 H 0.53147 0.67879 -0.40764
 C626 C 0.33246 -0.15004 -0.24008
 C627 C 0.35330 -0.13914 -0.26824
 C628 C 0.35664 -0.14645 -0.32658
 C629 C 0.33919 -0.16448 -0.35707
 C630 C 0.31783 -0.17566 -0.32985
 C631 C 0.31492 -0.16806 -0.27035
 C632 C 0.37118 -0.12021 -0.23785
 C633 C 0.38616 -0.10423 -0.21288
 C634 C 0.40371 -0.08540 -0.18416
 C635 C 0.41873 -0.06924 -0.16001
 H636 H 0.32974 -0.14461 -0.19454
 H637 H 0.37271 -0.13799 -0.34910
 H638 H 0.34248 -0.16879 -0.40342
 H639 H 0.29934 -0.17634 -0.24548
 C640 C 0.51833 -0.13440 0.33647
 C641 C 0.51293 -0.13578 0.27206
 C642 C 0.50755 -0.15499 0.23797
 C643 C 0.50752 -0.17280 0.26820
 C644 C 0.51292 -0.17158 0.33297
 C645 C 0.51833 -0.15216 0.36677
 C646 C 0.51291 -0.11747 0.24107
 C647 C 0.51296 -0.10205 0.21543
 C648 C 0.51313 -0.08389 0.18572
 C649 C 0.51341 -0.06829 0.16054
 H650 H 0.52246 -0.11962 0.36334
 H651 H 0.50340 -0.15621 0.18804
 H652 H 0.50352 -0.18742 0.24078
 H653 H 0.52224 -0.15085 0.41687
 C654 C 0.34672 0.48104 0.33478
 C655 C 0.35053 0.48616 0.27019
 C656 C 0.33655 0.49134 0.23606
 C657 C 0.31885 0.49147 0.26642
 C658 C 0.31491 0.48638 0.33138
 C659 C 0.32903 0.48114 0.36522
 C660 C 0.36882 0.48614 0.23910
 C661 C 0.38417 0.48609 0.21340
 C662 C 0.40216 0.48595 0.18369
 C663 C 0.41752 0.48574 0.15860
 H664 H 0.35749 0.47707 0.36168
 H665 H 0.33932 0.49527 0.18599
 H666 H 0.30812 0.49532 0.23898
 H667 H 0.32662 0.47747 0.41546
 C668 C 1.14329 0.64497 0.33400
 C669 C 1.13933 0.64656 0.26968
 C670 C 1.15356 0.66564 0.23568
 C671 C 1.17163 0.68315 0.26600
 C672 C 1.17567 0.68177 0.33078
 C673 C 1.16135 0.66244 0.36439
 C674 C 1.12043 0.62875 0.23895
 C675 C 1.10448 0.61383 0.21371
 C676 C 1.08567 0.59634 0.18470
 C677 C 1.06952 0.58138 0.16034
 H678 H 1.13232 0.63031 0.36082
 H679 H 1.15066 0.66702 0.18583
 H680 H 1.18250 0.69771 0.23872
 H681 H 1.16383 0.66101 0.41450
 C682 C 0.48029 0.13382 0.33478
 C683 C 0.48525 0.13516 0.27007
 C684 C 0.49027 0.15431 0.23617
 C685 C 0.49042 0.17210 0.26689
 C686 C 0.48550 0.17092 0.33198
 C687 C 0.48040 0.15156 0.36558
 C688 C 0.48527 0.11692 0.23867
 C689 C 0.48529 0.10157 0.21277
 C690 C 0.48525 0.08351 0.18290
 C691 C 0.48515 0.06800 0.15775
 H692 H 0.47644 0.11910 0.36152
 H693 H 0.49409 0.15550 0.18601
 H694 H 0.49416 0.18668 0.23962
 H695 H 0.47687 0.15029 0.41590
 C696 C 0.66284 0.50781 0.23757
 C697 C 0.64901 0.51328 0.27130
 C698 C 0.65298 0.51872 0.33569
 C699 C 0.67069 0.51868 0.36633
 C700 C 0.68467 0.51318 0.33289
 C701 C 0.68055 0.50774 0.26813
 C702 C 0.63071 0.51327 0.24002
 C703 C 0.61536 0.51333 0.21422
 C704 C 0.59737 0.51349 0.18444
 C705 C 0.58202 0.51374 0.15929
 H706 H 0.65994 0.50363 0.18766
 H707 H 0.64233 0.52291 0.36229
 H708 H 0.67323 0.52262 0.41641
 H709 H 0.69117 0.50368 0.24099
 C710 C 0.86613 0.34652 0.33460
 C711 C 0.86475 0.35016 0.26991
 C712 C 0.84557 0.33606 0.23600
 C713 C 0.82778 0.31842 0.26671
 C714 C 0.82899 0.31466 0.33179
 C715 C 0.84839 0.32889 0.36539
 C716 C 0.88300 0.36843 0.23855
 C717 C 0.89836 0.38381 0.21276
 C718 C 0.91644 0.40186 0.18308
 C719 C 0.93198 0.41731 0.15814
 H720 H 0.88088 0.35738 0.36134
 H721 H 0.84435 0.33870 0.18586
 H722 H 0.81317 0.30761 0.23945
 H723 H 0.84969 0.32662 0.41570
   
