data_POSCAR
  _audit_creation_date              2014-09-24
  _audit_creation_method            'ToBaCCo'
  _symmetry_space_group_name_H-M    'P1'
  _symmetry_Int_Tables_number       1
  _symmetry_cell_setting            triclinic
  loop_
  _symmetry_equiv_pos_as_xyz
 x,y,z
_cell_length_a 23.8497
_cell_length_b 22.7273
_cell_length_c 21.9913
_cell_angle_alpha 88.360000
_cell_angle_beta 90.018500
_cell_angle_gamma 93.103800
loop_
  _atom_site_label
  _atom_site_type_symbol
  _atom_site_fract_x
  _atom_site_fract_y
  _atom_site_fract_z
C1 C 0.33856 0.35063 0.20022
 H2 H 0.34364 0.35567 0.24872
 C3 C 0.37323 0.38405 0.15974
 H4 H 0.40537 0.41426 0.17759
 C5 C 0.29274 0.30193 0.11863
 H6 H 0.26227 0.26894 0.10288
 C7 C 0.32716 0.33373 0.07660
 H8 H 0.32270 0.32517 0.02858
 N9 N 0.29904 0.31086 0.17918
 C10 C 0.18415 0.28831 0.33347
 H11 H 0.18295 0.24107 0.34152
 C12 C 0.15361 0.32353 0.37099
 H13 H 0.13020 0.30257 0.40849
 C14 C 0.21731 0.37228 0.27518
 H15 H 0.24121 0.39123 0.23713
 C16 C 0.18736 0.40905 0.31135
 H17 H 0.18908 0.45601 0.30101
 Zn18 Zn 0.25734 0.26417 0.23768
 N19 N 0.21585 0.31314 0.28719
 C20 C 0.31158 0.21861 0.34518
 N21 N 0.31045 0.22220 0.28331
 C22 C 0.34765 0.19386 0.24941
 C23 C 0.38625 0.15805 0.27732
 C24 C 0.34944 0.18276 0.37512
 C25 C 0.16531 0.22857 0.16268
 C26 C 0.13100 0.18847 0.13029
 C27 C 0.18192 0.10917 0.17516
 C28 C 0.21471 0.15052 0.20698
 N29 N 0.20709 0.20913 0.19900
 H30 H 0.28276 0.24269 0.37146
 H31 H 0.34624 0.19795 0.20031
 H32 H 0.41464 0.13483 0.24932
 H33 H 0.34939 0.18043 0.42429
 H34 H 0.15983 0.27538 0.15738
 H35 H 0.09969 0.20503 0.09960
 H36 H 0.18989 0.06284 0.18064
 H37 H 0.24700 0.13549 0.23709
 C38 C 0.15474 0.38493 0.35976
 C39 C 0.36786 0.37542 0.09701
 C40 C 0.13989 0.12786 0.13577
 C41 C 0.38666 0.15091 0.34080
 C42 C 0.85768 0.78078 0.21789
 H43 H 0.87116 0.74372 0.24446
 C44 C 0.89591 0.80959 0.17782
 H45 H 0.93779 0.79364 0.17447
 C46 C 0.78744 0.84546 0.18881
 H47 H 0.74450 0.85813 0.19145
 C48 C 0.82545 0.87770 0.15024
 H49 H 0.81074 0.91465 0.12378
 N50 N 0.80411 0.79810 0.22229
 C51 C 0.66834 0.76219 0.35711
 H52 H 0.66814 0.71459 0.35712
 C53 C 0.62970 0.78971 0.39286
 H54 H 0.59993 0.76320 0.42064
 C55 C 0.70779 0.85470 0.32133
 H56 H 0.73907 0.87997 0.29471
 C57 C 0.66882 0.88402 0.35518
 H58 H 0.67049 0.93175 0.35417
 Zn59 Zn 0.75310 0.75024 0.27334
 N60 N 0.70614 0.79473 0.32197
 C61 C 0.80270 0.71298 0.38515
 N62 N 0.79597 0.70099 0.32521
 C63 C 0.82121 0.65507 0.30033
 C64 C 0.85562 0.61998 0.33549
 C65 C 0.83679 0.67875 0.42215
 C66 C 0.68140 0.72552 0.17308
 C67 C 0.64867 0.68962 0.13463
 C68 C 0.66333 0.60686 0.20301
 C69 C 0.69481 0.64438 0.24052
 N70 N 0.70502 0.70212 0.22404
 H71 H 0.78252 0.74980 0.40408
 H72 H 0.81527 0.64624 0.25262
 H73 H 0.87435 0.58331 0.31447
 H74 H 0.84224 0.68915 0.46962
 H75 H 0.68904 0.77171 0.16136
 H76 H 0.63231 0.70842 0.09292
 H77 H 0.65755 0.56049 0.21563
 H78 H 0.71167 0.62697 0.28248
 C79 C 0.62885 0.85123 0.39102
 C80 C 0.88051 0.85914 0.14371
 C81 C 0.64041 0.62918 0.14905
 C82 C 0.86472 0.63239 0.39708
 C83 C 0.82057 0.33028 0.71100
 H84 H 0.82658 0.33455 0.75947
 C85 C 0.85482 0.36387 0.67029
 H86 H 0.88753 0.39347 0.68799
 C87 C 0.77338 0.28270 0.62956
 H88 H 0.74281 0.24987 0.61381
 C89 C 0.80711 0.31485 0.58732
 H90 H 0.80191 0.30674 0.53929
 N91 N 0.78070 0.29084 0.69013
 C92 C 0.65834 0.25968 0.83590
 H93 H 0.65649 0.21207 0.84014
 C94 C 0.62151 0.29195 0.86933
 H95 H 0.59154 0.26916 0.89997
 C96 C 0.69794 0.34748 0.78886
 H97 H 0.72619 0.36899 0.75592
 C98 C 0.66263 0.38140 0.82197
 H99 H 0.66439 0.42870 0.81410
 Zn100 Zn 0.74033 0.24230 0.74792
 N101 N 0.69566 0.28783 0.79678
 C102 C 0.79319 0.19593 0.85520
 N103 N 0.79392 0.20203 0.79355
 C104 C 0.83383 0.17784 0.75977
 C105 C 0.87431 0.14450 0.78750
 C106 C 0.83297 0.16246 0.88519
 C107 C 0.64983 0.20677 0.67357
 C108 C 0.61682 0.16760 0.63909
 C109 C 0.67068 0.08804 0.67883
 C110 C 0.70248 0.12863 0.71254
 N111 N 0.69265 0.18696 0.70797
 H112 H 0.76122 0.21603 0.88112
 H113 H 0.83345 0.18362 0.71078
 H114 H 0.90500 0.12516 0.75887
 H115 H 0.82998 0.15780 0.93407
 H116 H 0.64278 0.25341 0.67117
 H117 H 0.58499 0.18493 0.60961
 H118 H 0.68027 0.04198 0.68139
 H119 H 0.73586 0.11349 0.74115
 C120 C 0.62397 0.35355 0.86293
 C121 C 0.84844 0.35586 0.60752
 C122 C 0.62782 0.10739 0.64089
 C123 C 0.87427 0.13542 0.85107
 C124 C 0.31399 0.84134 0.72045
 H125 H 0.31761 0.85315 0.76765
 C126 C 0.34796 0.87128 0.67638
 H127 H 0.37759 0.90597 0.69047
 C128 C 0.27432 0.77840 0.64601
 H129 H 0.24732 0.74083 0.63429
 C130 C 0.30771 0.80669 0.60079
 H131 H 0.30507 0.79116 0.55470
 N132 N 0.27797 0.79583 0.70466
 C133 C 0.16208 0.76517 0.85988
 H134 H 0.16481 0.71803 0.86623
 C135 C 0.12869 0.79589 0.89890
 H136 H 0.10571 0.77220 0.93525
 C137 C 0.18893 0.85335 0.80489
 H138 H 0.21252 0.87560 0.76828
 C139 C 0.15531 0.88568 0.84227
 H140 H 0.15433 0.93285 0.83451
 Zn141 Zn 0.23905 0.74920 0.76629
 N142 N 0.19226 0.79427 0.81474
 C143 C 0.29589 0.71803 0.87679
 N144 N 0.29470 0.71428 0.81514
 C145 C 0.33476 0.68616 0.78516
 C146 C 0.37676 0.65823 0.81725
 C147 C 0.33689 0.69020 0.91080
 C148 C 0.15089 0.70744 0.69180
 C149 C 0.12140 0.66697 0.65535
 C150 C 0.17724 0.59032 0.69767
 C151 C 0.20565 0.63223 0.73323
 N152 N 0.19334 0.68989 0.72822
 H153 H 0.26502 0.74224 0.89993
 H154 H 0.33381 0.68518 0.73601
 H155 H 0.40809 0.63713 0.79144
 H156 H 0.33648 0.69265 0.95992
 H157 H 0.14202 0.75362 0.68863
 H158 H 0.09020 0.68303 0.62430
 H159 H 0.18907 0.54497 0.70058
 H160 H 0.23887 0.61885 0.76308
 C161 C 0.12474 0.85681 0.89015
 C162 C 0.34525 0.85358 0.61557
 C163 C 0.13532 0.60755 0.65715
 C164 C 0.37745 0.65874 0.88131
 C165 C 0.02590 -0.02978 -0.04402
 C166 C 0.06220 0.01105 -0.00370
 C167 C 0.03248 0.04484 0.03372
 C168 C -0.03141 0.03508 0.02709
 C169 C -0.01046 -0.06516 -0.00242
 C170 C -0.04259 -0.03159 0.03752
 C171 C -0.01055 0.00875 -0.07761
 C172 C -0.04237 0.04557 -0.04083
 H173 H 0.10758 0.01429 -0.00678
 H174 H -0.05577 0.06252 0.05748
 H175 H -0.01595 -0.11263 -0.00498
 H176 H -0.01551 0.00616 -0.12634
 C177 C 0.04340 0.44996 0.46324
 C178 C 0.07554 0.48924 0.50837
 C179 C 0.04257 0.52662 0.53788
 C180 C -0.01963 0.52128 0.51912
 C181 C -0.00384 0.41874 0.50080
 C182 C -0.03699 0.45588 0.52993
 C183 C 0.01382 0.49259 0.42051
 C184 C -0.01960 0.52976 0.44923
 H185 H 0.12051 0.48845 0.51453
 H186 H -0.04603 0.55123 0.54407
 H187 H -0.00856 0.37123 0.50638
 H188 H 0.01733 0.49161 0.37142
 C189 C 0.52340 -0.03897 0.44743
 C190 C 0.55756 -0.00203 0.49277
 C191 C 0.52599 0.03099 0.52883
 C192 C 0.46291 0.02450 0.51571
 C193 C 0.47977 -0.07535 0.48622
 C194 C 0.44823 -0.04202 0.52242
 C195 C 0.48922 0.00553 0.41178
 C196 C 0.45770 0.03919 0.44743
 H197 H 0.60301 -0.00047 0.49385
 H198 H 0.43723 0.05176 0.54493
 H199 H 0.47686 -0.12303 0.48728
 H200 H 0.48850 0.00781 0.36258
 C201 C 0.55897 0.47804 -0.04917
 C202 C 0.58845 0.52188 -0.00684
 C203 C 0.55320 0.55727 0.02177
 C204 C 0.49110 0.54619 0.00450
 C205 C 0.51487 0.44459 -0.00886
 C206 C 0.47883 0.48003 0.01859
 C207 C 0.52548 0.51570 -0.09314
 C208 C 0.48974 0.55138 -0.06571
 H209 H 0.63346 0.52415 0.00031
 H210 H 0.46246 0.57449 0.02861
 H211 H 0.51426 0.39747 0.00004
 H212 H 0.52813 0.51231 -0.14210
 C213 C 0.08963 -0.11091 -0.06783
 C214 C 0.06090 -0.06460 -0.08636
 H215 H 0.08537 -0.12729 -0.02121
 H216 H 0.06454 -0.04947 -0.13345
 C217 C 0.12275 0.42520 0.39675
 C218 C 0.07820 0.40725 0.43072
 H219 H 0.13433 0.47198 0.39337
 H220 H 0.06362 0.36136 0.43184
 C221 C 0.58752 -0.11974 0.42836
 C222 C 0.56033 -0.07334 0.40733
 H223 H 0.57851 -0.13771 0.47369
 H224 H 0.56891 -0.05636 0.36152
 C225 C 0.58443 0.38774 -0.10292
 C226 C 0.59938 0.44072 -0.08111
 H227 H 0.54264 0.36815 -0.09469
 H228 H 0.64155 0.45952 -0.08909
 C229 C -0.08705 0.10034 -0.12449
 C230 C -0.08056 0.08610 -0.06242
 H231 H -0.05846 0.08184 -0.15595
 H232 H -0.10447 0.10733 -0.02852
 C233 C -0.09827 0.59688 0.43606
 C234 C -0.05458 0.56984 0.41343
 H235 H -0.10760 0.59348 0.48415
 H236 H -0.04475 0.57538 0.36549
 C237 C 0.42623 0.10969 0.36831
 C238 C 0.42004 0.08420 0.42386
 H239 H 0.46065 0.09794 0.33985
 H240 H 0.38636 0.09577 0.45336
 C241 C 0.41906 0.62735 -0.08116
 C242 C 0.45047 0.58550 -0.10285
 H243 H 0.42230 0.63813 -0.03368
 H244 H 0.44705 0.57397 -0.15005
 C245 C -0.07999 -0.11363 0.10303
 C246 C -0.08170 -0.05564 0.08016
 H247 H -0.04323 -0.13759 0.09277
 H248 H -0.11067 -0.02643 0.09982
 C249 C -0.11178 0.38387 0.56278
 C250 C -0.08261 0.43491 0.57154
 H251 H -0.10566 0.36067 0.52111
 H252 H -0.09184 0.46177 0.60975
 C253 C 0.38367 -0.12074 0.56758
 C254 C 0.40766 -0.06612 0.56894
 H255 H 0.39116 -0.14774 0.52895
 H256 H 0.39664 -0.03705 0.60464
 C257 C 0.40778 0.40416 0.05270
 C258 C 0.43425 0.45692 0.06066
 H259 H 0.41577 0.38051 0.01174
 H260 H 0.42293 0.48394 0.09800
 C261 C 0.11007 0.08343 0.09780
 C262 C 0.05878 0.08926 0.07425
 H263 H 0.13125 0.04330 0.09014
 H264 H 0.03464 0.12627 0.08604
 C265 C 0.11096 0.56348 0.61460
 C266 C 0.06362 0.56993 0.58267
 H267 H 0.13327 0.52361 0.60987
 H268 H 0.03803 0.60681 0.59046
 C269 C 0.59949 0.06454 0.60026
 C270 C 0.54981 0.07226 0.57373
 H271 H 0.62086 0.02465 0.59205
 H272 H 0.52518 0.10884 0.58561
 C273 C 0.61391 0.58726 0.10624
 C274 C 0.57321 0.60041 0.06691
 H275 H 0.62870 0.54295 0.10758
 H276 H 0.55359 0.64218 0.06858
   
