data_POSCAR
  _audit_creation_date              2014-09-24
  _audit_creation_method            'ToBaCCo'
  _symmetry_space_group_name_H-M    'P1'
  _symmetry_Int_Tables_number       1
  _symmetry_cell_setting            triclinic
  loop_
  _symmetry_equiv_pos_as_xyz
 x,y,z
_cell_length_a 33.7062
_cell_length_b 33.7063
_cell_length_c 32.2910
_cell_angle_alpha 89.952900
_cell_angle_beta 89.953300
_cell_angle_gamma 89.998000
loop_
  _atom_site_label
  _atom_site_type_symbol
  _atom_site_fract_x
  _atom_site_fract_y
  _atom_site_fract_z
C1 C -0.08457 0.31007 0.03751
 C2 C -0.10499 0.30954 -0.00014
 C3 C -0.08471 0.30996 -0.03791
 C4 C -0.04275 0.31145 -0.03844
 C5 C -0.02165 0.31216 -0.00041
 C6 C -0.04261 0.31159 0.03776
 C7 C -0.02102 0.31182 0.07505
 C8 C 0.02027 0.31186 0.07490
 C9 C 0.04160 0.31167 0.03748
 C10 C 0.02051 0.31219 -0.00054
 C11 C -0.02132 0.31152 -0.07586
 C12 C 0.01997 0.31151 -0.07598
 C13 C 0.04152 0.31146 -0.03868
 C14 C 0.08349 0.30996 -0.03834
 C15 C 0.10383 0.30962 -0.00065
 C16 C 0.08348 0.31021 0.03702
 H17 H -0.03595 0.31170 0.10476
 H18 H 0.03539 0.31176 0.10448
 H19 H -0.03637 0.31129 -0.10547
 H20 H 0.03494 0.31128 -0.10566
 H21 H -0.13718 0.30753 -0.00004
 H22 H 0.13600 0.30760 -0.00053
 C23 C 0.41554 0.81213 0.53742
 C24 C 0.39525 0.81152 0.49974
 C25 C 0.41564 0.81203 0.46208
 C26 C 0.45753 0.81370 0.46170
 C27 C 0.47850 0.81445 0.49980
 C28 C 0.45742 0.81375 0.53786
 C29 C 0.47879 0.81390 0.57524
 C30 C 0.52011 0.81400 0.57528
 C31 C 0.54159 0.81396 0.53793
 C32 C 0.52061 0.81458 0.49983
 C33 C 0.47900 0.81385 0.42435
 C34 C 0.52032 0.81400 0.42439
 C35 C 0.54169 0.81399 0.46178
 C36 C 0.58358 0.81261 0.46221
 C37 C 0.60388 0.81213 0.49990
 C38 C 0.58348 0.81254 0.53756
 H39 H 0.46369 0.81366 0.60485
 H40 H 0.53512 0.81382 0.60491
 H41 H 0.46398 0.81357 0.39473
 H42 H 0.53542 0.81384 0.39478
 H43 H 0.36311 0.80932 0.49972
 H44 H 0.63603 0.81011 0.49991
 C45 C 0.91718 0.68865 -0.03795
 C46 C 0.89673 0.68906 -0.00033
 C47 C 0.91696 0.68858 0.03737
 C48 C 0.95885 0.68716 0.03788
 C49 C 0.98001 0.68658 -0.00013
 C50 C 0.95908 0.68721 -0.03825
 C51 C 0.98057 0.68715 -0.07556
 C52 C 1.02187 0.68723 -0.07548
 C53 C 1.04329 0.68740 -0.03807
 C54 C 1.02216 0.68670 -0.00002
 C55 C 0.98012 0.68709 0.07531
 C56 C 1.02142 0.68721 0.07545
 C57 C 1.04306 0.68741 0.03814
 C58 C 1.08502 0.68904 0.03785
 C59 C 1.10547 0.68955 0.00019
 C60 C 1.08524 0.68901 -0.03757
 H61 H 0.96558 0.68732 -0.10520
 H62 H 1.03694 0.68745 -0.10511
 H63 H 0.96495 0.68724 0.10488
 H64 H 1.03631 0.68743 0.10514
 H65 H 0.86458 0.69111 -0.00041
 H66 H 1.13766 0.69166 0.00026
 C67 C 0.58434 0.18850 0.53785
 C68 C 0.60464 0.18903 0.50014
 C69 C 0.58426 0.18861 0.46251
 C70 C 0.54236 0.18712 0.46220
 C71 C 0.52138 0.18646 0.50033
 C72 C 0.54245 0.18706 0.53835
 C73 C 0.52107 0.18700 0.57577
 C74 C 0.47975 0.18707 0.57587
 C75 C 0.45828 0.18718 0.53855
 C76 C 0.47926 0.18649 0.50043
 C77 C 0.52089 0.18705 0.42488
 C78 C 0.47957 0.18704 0.42498
 C79 C 0.45819 0.18713 0.46240
 C80 C 0.41630 0.18862 0.46289
 C81 C 0.39600 0.18918 0.50061
 C82 C 0.41639 0.18872 0.53824
 H83 H 0.53617 0.18718 0.60535
 H84 H 0.46473 0.18730 0.60552
 H85 H 0.53591 0.18727 0.39523
 H86 H 0.46448 0.18725 0.39540
 H87 H 0.63679 0.19108 0.50007
 H88 H 0.36386 0.19126 0.50067
 C89 C 0.69008 -0.08446 0.03726
 C90 C 0.69060 -0.10487 -0.00040
 C91 C 0.69011 -0.08459 -0.03816
 C92 C 0.68857 -0.04263 -0.03868
 C93 C 0.68786 -0.02153 -0.00064
 C94 C 0.68850 -0.04250 0.03752
 C95 C 0.68826 -0.02092 0.07482
 C96 C 0.68815 0.02037 0.07468
 C97 C 0.68829 0.04171 0.03726
 C98 C 0.68778 0.02063 -0.00077
 C99 C 0.68845 -0.02119 -0.07610
 C100 C 0.68841 0.02011 -0.07621
 C101 C 0.68846 0.04164 -0.03890
 C102 C 0.68991 0.08362 -0.03856
 C103 C 0.69024 0.10395 -0.00086
 C104 C 0.68968 0.08359 0.03681
 H105 H 0.68842 -0.03586 0.10452
 H106 H 0.68824 0.03548 0.10426
 H107 H 0.68868 -0.03623 -0.10571
 H108 H 0.68861 0.03508 -0.10589
 H109 H 0.69265 -0.13706 -0.00031
 H110 H 0.69222 0.13612 -0.00074
 C111 C 0.18779 0.58335 0.53800
 C112 C 0.18829 0.60375 0.50034
 C113 C 0.18773 0.58346 0.46265
 C114 C 0.18619 0.54157 0.46221
 C115 C 0.18551 0.52049 0.50027
 C116 C 0.18620 0.54146 0.53837
 C117 C 0.18606 0.51998 0.57571
 C118 C 0.18598 0.47866 0.57567
 C119 C 0.18605 0.45730 0.53828
 C120 C 0.18546 0.47838 0.50023
 C121 C 0.18610 0.52021 0.42483
 C122 C 0.18609 0.47889 0.42479
 C123 C 0.18614 0.45741 0.46213
 C124 C 0.18764 0.41552 0.46250
 C125 C 0.18805 0.39512 0.50016
 C126 C 0.18750 0.41541 0.53784
 H127 H 0.18629 0.53499 0.60534
 H128 H 0.18614 0.46356 0.60528
 H129 H 0.18633 0.53530 0.39522
 H130 H 0.18632 0.46387 0.39516
 H131 H 0.19042 0.63589 0.50035
 H132 H 0.19013 0.36297 0.50014
 C133 C 0.31110 1.08512 0.03811
 C134 C 0.31058 1.10558 0.00045
 C135 C 0.31105 1.08535 -0.03732
 C136 C 0.31262 1.04340 -0.03783
 C137 C 0.31332 1.02226 0.00021
 C138 C 0.31267 1.04316 0.03838
 C139 C 0.31286 1.02151 0.07568
 C140 C 0.31291 0.98020 0.07553
 C141 C 0.31279 0.95895 0.03810
 C142 C 0.31338 0.98011 0.00009
 C143 C 0.31274 1.02199 -0.07525
 C144 C 0.31277 0.98069 -0.07534
 C145 C 0.31271 0.95919 -0.03803
 C146 C 0.31123 0.91729 -0.03774
 C147 C 0.31079 0.89684 -0.00013
 C148 C 0.31131 0.91706 0.03758
 H149 H 0.31268 1.03639 0.10538
 H150 H 0.31276 0.96503 0.10509
 H151 H 0.31251 1.03707 -0.10487
 H152 H 0.31256 0.96571 -0.10498
 H153 H 0.30850 1.13777 0.00053
 H154 H 0.30871 0.86469 -0.00020
 C155 C 0.81170 0.41618 0.46245
 C156 C 0.81122 0.39587 0.50017
 C157 C 0.81160 0.41626 0.53781
 C158 C 0.81297 0.45816 0.53811
 C159 C 0.81359 0.47914 0.49999
 C160 C 0.81304 0.45808 0.46196
 C161 C 0.81306 0.47946 0.42455
 C162 C 0.81289 0.52078 0.42445
 C163 C 0.81272 0.54224 0.46177
 C164 C 0.81345 0.52126 0.49990
 C165 C 0.81298 0.47963 0.57543
 C166 C 0.81288 0.52095 0.57534
 C167 C 0.81274 0.54232 0.53792
 C168 C 0.81113 0.58421 0.53743
 C169 C 0.81055 0.60451 0.49972
 C170 C 0.81107 0.58413 0.46209
 H171 H 0.81291 0.46437 0.39496
 H172 H 0.81262 0.53581 0.39481
 H173 H 0.81280 0.46461 0.60508
 H174 H 0.81262 0.53604 0.60492
 H175 H 0.80925 0.36372 0.50023
 H176 H 0.80838 0.63665 0.49966
 O177 O 0.23524 0.28900 0.20008
 O178 O 0.30830 0.25337 0.27628
 O179 O 0.28978 0.23477 0.20001
 O180 O 0.25377 0.30763 0.27626
 O181 O 0.21024 0.26385 0.29953
 O182 O 0.24624 0.19099 0.22327
 O183 O 0.26477 0.20959 0.29954
 O184 O 0.19171 0.24522 0.22334
 Cu185 Cu 0.27617 0.27560 0.23582
 Cu186 Cu 0.22386 0.22299 0.26377
 C187 C 0.20132 0.27278 0.19851
 C188 C 0.29868 0.22583 0.30114
 C189 C 0.27371 0.20077 0.19840
 C190 C 0.22626 0.29787 0.30110
 O191 O 0.75411 0.80922 0.22264
 O192 O 0.78933 0.73613 0.29913
 O193 O 0.80829 0.75463 0.22300
 O194 O 0.73522 0.79081 0.29893
 O195 O 0.69147 0.74732 0.27569
 O196 O 0.76454 0.71115 0.19973
 O197 O 0.74558 0.69265 0.27586
 O198 O 0.71035 0.76574 0.19939
 Cu199 Cu 0.77614 0.77710 0.26327
 Cu200 Cu 0.72355 0.72485 0.23533
 C201 C 0.72666 0.79962 0.19773
 C202 C 0.77309 0.70221 0.30071
 C203 C 0.79860 0.72711 0.19823
 C204 C 0.70120 0.77480 0.30051
 O205 O 0.80914 0.24593 0.22290
 O206 O 0.73606 0.21036 0.29928
 O207 O 0.75468 0.19164 0.22310
 O208 O 0.79056 0.26464 0.29917
 O209 O 0.74699 0.30833 0.27588
 O210 O 0.71111 0.23533 0.19981
 O211 O 0.69249 0.25405 0.27599
 O212 O 0.76557 0.28963 0.19962
 Cu213 Cu 0.77701 0.22375 0.26347
 Cu214 Cu 0.72466 0.27625 0.23548
 C215 C 0.79950 0.27341 0.19799
 C216 C 0.70210 0.22654 0.30086
 C217 C 0.72719 0.20134 0.19827
 C218 C 0.77446 0.29862 0.30074
 O219 O 0.28897 0.76462 0.20000
 O220 O 0.25305 0.69149 0.27609
 O221 O 0.23462 0.71019 0.19979
 O222 O 0.30748 0.74586 0.27614
 O223 O 0.26378 0.78945 0.29938
 O224 O 0.19092 0.75379 0.22300
 O225 O 0.20934 0.73509 0.29930
 O226 O 0.24528 0.80822 0.22324
 Cu227 Cu 0.27542 0.72363 0.23567
 Cu228 Cu 0.22290 0.77602 0.26357
 C229 C 0.27287 0.79861 0.19847
 C230 C 0.22550 0.70113 0.30091
 C231 C 0.20066 0.72634 0.19813
 C232 C 0.29777 0.77336 0.30095
 O233 O 0.79037 0.26438 0.70098
 O234 O 0.75482 0.19095 0.77699
 O235 O 0.73613 0.20985 0.70086
 O236 O 0.80900 0.24554 0.77718
 O237 O 0.76522 0.28896 0.80059
 O238 O 0.69235 0.25327 0.72430
 O239 O 0.71104 0.23436 0.80042
 O240 O 0.74659 0.30780 0.72439
 Cu241 Cu 0.77700 0.22331 0.73664
 Cu242 Cu 0.72439 0.27548 0.76478
 C243 C 0.77412 0.29830 0.69949
 C244 C 0.72728 0.20043 0.80188
 C245 C 0.70211 0.22588 0.69936
 C246 C 0.79923 0.27290 0.80213
 O247 O 0.30765 0.74630 0.72378
 O248 O 0.23505 0.71041 0.80041
 O249 O 0.25345 0.69170 0.72412
 O250 O 0.28913 0.76510 0.79992
 O251 O 0.24523 0.80849 0.77667
 O252 O 0.20954 0.73508 0.70090
 O253 O 0.19114 0.75380 0.77719
 O254 O 0.26374 0.78968 0.70052
 Cu255 Cu 0.27574 0.72399 0.76439
 Cu256 Cu 0.22297 0.77612 0.73648
 C257 C 0.29780 0.77373 0.69890
 C258 C 0.20103 0.72641 0.80210
 C259 C 0.22583 0.70119 0.69935
 C260 C 0.27288 0.79903 0.80140
 O261 O 0.28913 0.23528 0.80089
 O262 O 0.25294 0.30783 0.72440
 O263 O 0.23423 0.28916 0.80061
 O264 O 0.30776 0.25386 0.72460
 O265 O 0.26453 0.20982 0.70141
 O266 O 0.19102 0.24512 0.77740
 O267 O 0.20972 0.26379 0.70119
 O268 O 0.24590 0.19123 0.77770
 Cu269 Cu 0.27538 0.27597 0.76496
 Cu270 Cu 0.22344 0.22304 0.73708
 C271 C 0.27326 0.20119 0.80256
 C272 C 0.22557 0.29789 0.69955
 C273 C 0.20039 0.27276 0.80217
 C274 C 0.29837 0.22623 0.69982
 O275 O 0.73524 0.79066 0.70047
 O276 O 0.80856 0.75471 0.77626
 O277 O 0.78956 0.73618 0.70020
 O278 O 0.75417 0.80910 0.77667
 O279 O 0.71059 0.76546 0.80011
 O280 O 0.74598 0.69254 0.72367
 O281 O 0.76499 0.71108 0.79973
 O282 O 0.69166 0.74701 0.72391
 Cu283 Cu 0.77626 0.77708 0.73604
 Cu284 Cu 0.72390 0.72464 0.76422
 C285 C 0.70126 0.77454 0.69903
 C286 C 0.79899 0.72716 0.80111
 C287 C 0.77342 0.70221 0.69872
 C288 C 0.72678 0.79940 0.80167
 C289 C 0.30684 0.10688 0.07359
 C290 C 0.30163 0.12699 0.10397
 C291 C 0.29372 0.15164 0.13831
 C292 C 0.28543 0.17360 0.16647
 C293 C 0.80667 0.60742 0.57475
 C294 C 0.80137 0.62780 0.60490
 C295 C 0.79339 0.65273 0.63898
 C296 C 0.78509 0.67489 0.66694
 C297 C 0.69426 0.89373 0.07275
 C298 C 0.69936 0.87356 0.10315
 C299 C 0.70711 0.84887 0.13753
 C300 C 0.71521 0.82686 0.16573
 C301 C 0.19193 0.39220 0.57520
 C302 C 0.19724 0.37188 0.60542
 C303 C 0.20528 0.34707 0.63961
 C304 C 0.21370 0.32504 0.66767
 C305 C 0.89362 0.30593 0.07301
 C306 C 0.87345 0.30084 0.10342
 C307 C 0.84875 0.29308 0.13781
 C308 C 0.82674 0.28494 0.16601
 C309 C 0.39234 0.80758 0.57477
 C310 C 0.37198 0.80218 0.60495
 C311 C 0.34710 0.79405 0.63906
 C312 C 0.32501 0.78559 0.66707
 C313 C 0.10678 0.69333 0.07332
 C314 C 0.12690 0.69856 0.10370
 C315 C 0.15154 0.70647 0.13803
 C316 C 0.17349 0.71472 0.16619
 C317 C 0.60755 0.19285 0.57518
 C318 C 0.62790 0.19805 0.60538
 C319 C 0.65276 0.20594 0.63952
 C320 C 0.67485 0.21421 0.66754
 C321 C 0.69421 0.10553 0.92603
 C322 C 0.69945 0.12584 0.89576
 C323 C 0.70737 0.15078 0.86161
 C324 C 0.71563 0.17298 0.83362
 C325 C 0.19218 0.60665 0.42527
 C326 C 0.19746 0.62696 0.39503
 C327 C 0.20544 0.65177 0.36081
 C328 C 0.21377 0.67385 0.33274
 C329 C 0.30664 0.89420 0.92487
 C330 C 0.30123 0.87382 0.89475
 C331 C 0.29310 0.84879 0.86078
 C332 C 0.28468 0.82652 0.83296
 C333 C 0.80740 0.39299 0.42510
 C334 C 0.80223 0.37269 0.39487
 C335 C 0.79437 0.34790 0.36065
 C336 C 0.78613 0.32586 0.33258
 C337 C 0.10540 0.30566 0.92625
 C338 C 0.12572 0.30044 0.89599
 C339 C 0.15068 0.29255 0.86186
 C340 C 0.17291 0.28433 0.83389
 C341 C 0.60678 0.80821 0.42484
 C342 C 0.62708 0.80294 0.39459
 C343 C 0.65188 0.79495 0.36038
 C344 C 0.67393 0.78659 0.33232
 C345 C 0.89408 0.69323 0.92466
 C346 C 0.87371 0.69866 0.89452
 C347 C 0.84871 0.70682 0.86053
 C348 C 0.82646 0.71529 0.83269
 C349 C 0.39311 0.19297 0.42554
 C350 C 0.37281 0.19815 0.39530
 C351 C 0.34800 0.20600 0.36108
 C352 C 0.32594 0.21422 0.33300
 C353 C 0.69428 0.89349 0.92647
 C354 C 0.69939 0.87328 0.89614
 C355 C 0.70714 0.84858 0.86181
 C356 C 0.71528 0.82659 0.83364
 C357 C 0.19226 0.39240 0.42512
 C358 C 0.19772 0.37209 0.39493
 C359 C 0.20590 0.34724 0.36083
 C360 C 0.21438 0.32514 0.33286
 C361 C 0.30674 0.10730 0.92732
 C362 C 0.30147 0.12751 0.89700
 C363 C 0.29346 0.15218 0.86269
 C364 C 0.28508 0.17411 0.83453
 C365 C 0.80650 0.60727 0.42469
 C366 C 0.80112 0.62765 0.39451
 C367 C 0.79307 0.65262 0.36043
 C368 C 0.78474 0.67482 0.33248
 C369 C 0.10718 0.69327 0.92705
 C370 C 0.12737 0.69849 0.89670
 C371 C 0.15202 0.70641 0.86234
 C372 C 0.17394 0.71471 0.83413
 C373 C 0.60739 0.19313 0.42508
 C374 C 0.62772 0.19848 0.39486
 C375 C 0.65262 0.20650 0.36070
 C376 C 0.67477 0.21484 0.33268
 C377 C 0.89335 0.30574 0.92674
 C378 C 0.87313 0.30058 0.89644
 C379 C 0.84841 0.29274 0.86216
 C380 C 0.82642 0.28452 0.83404
 C381 C 0.39252 0.80736 0.42472
 C382 C 0.37217 0.80187 0.39459
 C383 C 0.34724 0.79367 0.36056
 C384 C 0.32509 0.78519 0.33266
 C385 C 0.30679 0.89376 0.07487
 C386 C 0.30139 0.87330 0.10497
 C387 C 0.29324 0.84826 0.13896
 C388 C 0.28476 0.82602 0.16683
 C389 C 0.80716 0.39311 0.57524
 C390 C 0.80190 0.37278 0.60548
 C391 C 0.79398 0.34788 0.63967
 C392 C 0.78573 0.32572 0.66770
 C393 C 0.69400 0.10677 0.07417
 C394 C 0.69922 0.12710 0.10437
 C395 C 0.70714 0.15196 0.13851
 C396 C 0.71545 0.17405 0.16651
 C397 C 0.19235 0.60646 0.57539
 C398 C 0.19773 0.62676 0.60559
 C399 C 0.20578 0.65164 0.63970
 C400 C 0.21413 0.67379 0.66766
 C401 C 0.89367 0.69309 0.07466
 C402 C 0.87322 0.69849 0.10476
 C403 C 0.84820 0.70665 0.13875
 C404 C 0.82598 0.71516 0.16661
 C405 C 0.39325 0.19321 0.57567
 C406 C 0.37292 0.19850 0.60590
 C407 C 0.34801 0.20644 0.64006
 C408 C 0.32582 0.21468 0.66806
 C409 C 0.10667 0.30588 0.07438
 C410 C 0.12701 0.30066 0.10458
 C411 C 0.15189 0.29275 0.13872
 C412 C 0.17401 0.28446 0.16672
 C413 C 0.60660 0.80803 0.57496
 C414 C 0.62691 0.80269 0.60517
 C415 C 0.65177 0.79465 0.63932
 C416 C 0.67389 0.78629 0.66730
   
