data_POSCAR
  _audit_creation_date              2014-09-24
  _audit_creation_method            'ToBaCCo'
  _symmetry_space_group_name_H-M    'P1'
  _symmetry_Int_Tables_number       1
  _symmetry_cell_setting            triclinic
  loop_
  _symmetry_equiv_pos_as_xyz
 x,y,z
_cell_length_a 29.9183
_cell_length_b 32.4443
_cell_length_c 29.7764
_cell_angle_alpha 88.487500
_cell_angle_beta 91.557600
_cell_angle_gamma 91.899700
loop_
  _atom_site_label
  _atom_site_type_symbol
  _atom_site_fract_x
  _atom_site_fract_y
  _atom_site_fract_z
N1 N 0.12978 0.16106 0.24178
 N2 N 0.15964 0.13349 0.23371
 C3 C 0.15793 0.10329 0.26511
 C4 C 0.12483 0.11139 0.29461
 C5 C 0.10682 0.14822 0.27861
 H6 H 0.17989 0.07741 0.26669
 H7 H 0.08114 0.16542 0.29391
 Cu8 Cu 0.20101 0.13886 0.18488
 Cu9 Cu 0.12946 0.21281 0.20486
 Cu10 Cu 0.23865 0.23540 0.17196
 N11 N 0.25520 0.15146 0.15283
 N12 N 0.27197 0.18939 0.15089
 C13 C 0.31321 0.18907 0.13401
 C14 C 0.32208 0.14878 0.12402
 C15 C 0.28438 0.12569 0.13597
 H16 H 0.33513 0.21602 0.12979
 H17 H 0.27975 0.09249 0.13545
 N18 N 0.19188 0.27700 0.17218
 N19 N 0.14949 0.26800 0.18091
 C20 C 0.12466 0.30022 0.16730
 C21 C 0.15307 0.33093 0.14987
 C22 C 0.19526 0.31533 0.15396
 H23 H 0.08855 0.30059 0.16818
 H24 H 0.22559 0.32929 0.14057
 H25 H 0.17849 0.20527 0.15512
 H26 H 0.19451 0.20743 0.21606
 N27 N -0.12932 0.82088 0.23140
 N28 N -0.15006 0.85510 0.22099
 C29 C -0.14998 0.87908 0.25716
 C30 C -0.12899 0.85843 0.29245
 C31 C -0.11619 0.82153 0.27510
 H32 H -0.16619 0.90833 0.25837
 H33 H -0.09887 0.79704 0.29288
 Cu34 Cu -0.18148 0.86277 0.16356
 Cu35 Cu -0.12180 0.77908 0.18601
 Cu36 Cu -0.21496 0.77380 0.11527
 N37 N -0.23011 0.86085 0.11928
 N38 N -0.24529 0.82561 0.10300
 C39 C -0.28437 0.83184 0.08074
 C40 C -0.29391 0.87320 0.08319
 C41 C -0.25839 0.89087 0.10723
 H42 H -0.30528 0.80777 0.06576
 H43 H -0.25547 0.92218 0.11885
 N44 N -0.17117 0.72916 0.12092
 N45 N -0.13415 0.73240 0.14597
 C46 C -0.10880 0.69967 0.13921
 C47 C -0.13138 0.67424 0.10904
 C48 C -0.17087 0.69366 0.09835
 H49 H -0.07655 0.69455 0.15531
 H50 H -0.19656 0.68346 0.07452
 H51 H -0.15405 0.80290 0.12670
 H52 H -0.18764 0.78859 0.17726
 N53 N -0.10731 0.16957 -0.24905
 N54 N -0.11679 0.13192 -0.23407
 C55 C -0.10067 0.10452 -0.26200
 C56 C -0.08120 0.12612 -0.29729
 C57 C -0.08559 0.16738 -0.28789
 H58 H -0.10881 0.07179 -0.26051
 H59 H -0.07795 0.19355 -0.30994
 Cu60 Cu -0.16297 0.12224 -0.19095
 Cu61 Cu -0.13232 0.21762 -0.22165
 Cu62 Cu -0.19774 0.19788 -0.12804
 N63 N -0.22180 0.11956 -0.16602
 N64 N -0.23590 0.14810 -0.13973
 C65 C -0.27842 0.13794 -0.12841
 C66 C -0.29136 0.10182 -0.15016
 C67 C -0.25460 0.09119 -0.17350
 H68 H -0.29885 0.15628 -0.10774
 H69 H -0.25184 0.06482 -0.19466
 N70 N -0.16809 0.25251 -0.14062
 N71 N -0.14621 0.26029 -0.17808
 C72 C -0.13144 0.29987 -0.17872
 C73 C -0.14367 0.31779 -0.13960
 C74 C -0.16672 0.28691 -0.11587
 H75 H -0.11135 0.31425 -0.20481
 H76 H -0.18166 0.28938 -0.08342
 H77 H -0.13616 0.18757 -0.15982
 H78 H -0.18920 0.19264 -0.19335
 N79 N 0.14628 0.80568 -0.27342
 N80 N 0.15366 0.84311 -0.25850
 C81 C 0.14651 0.87091 -0.29183
 C82 C 0.13479 0.84989 -0.33009
 C83 C 0.13462 0.80843 -0.31748
 H84 H 0.15234 0.90384 -0.28908
 H85 H 0.12710 0.78240 -0.33868
 Cu86 Cu 0.18168 0.85235 -0.20075
 Cu87 Cu 0.15274 0.75756 -0.23281
 Cu88 Cu 0.23024 0.77375 -0.14534
 N89 N 0.23034 0.86160 -0.15851
 N90 N 0.25141 0.83127 -0.13793
 C91 C 0.28899 0.84697 -0.11760
 C92 C 0.29164 0.88902 -0.12773
 C93 C 0.25364 0.89711 -0.15296
 H94 H 0.31421 0.82877 -0.10049
 H95 H 0.24543 0.92610 -0.16951
 N96 N 0.20253 0.71878 -0.15872
 N97 N 0.17158 0.71302 -0.19072
 C98 C 0.15339 0.67462 -0.18610
 C99 C 0.17445 0.65511 -0.15000
 C100 C 0.20554 0.68379 -0.13364
 H101 H 0.12539 0.66251 -0.20595
 H102 H 0.22594 0.68053 -0.10329
 H103 H 0.16551 0.78366 -0.16945
 H104 H 0.21124 0.78520 -0.21119
 N105 N 0.15333 1.13777 0.74140
 N106 N 0.12680 1.16935 0.73841
 C107 C 0.10095 1.16666 0.70084
 C108 C 0.11109 1.13101 0.67955
 C109 C 0.14416 1.11311 0.70632
 H110 H 0.07629 1.18874 0.69008
 H111 H 0.16147 1.08522 0.69979
 Cu112 Cu 0.12729 1.21034 0.78480
 Cu113 Cu 0.20047 1.13439 0.78882
 Cu114 Cu 0.23031 1.23300 0.82350
 N115 N 0.13873 1.25650 0.82409
 N116 N 0.17991 1.26651 0.83712
 C117 C 0.17994 1.30194 0.85945
 C118 C 0.13631 1.31411 0.86157
 C119 C 0.11081 1.28466 0.83881
 H120 H 0.20955 1.31778 0.87291
 H121 H 0.07521 1.28490 0.83149
 N122 N 0.27084 1.18640 0.82908
 N123 N 0.25831 1.14804 0.81990
 C124 C 0.29102 1.12276 0.83407
 C125 C 0.32585 1.14668 0.85237
 C126 C 0.31206 1.18675 0.84834
 H127 H 0.28965 1.08957 0.83123
 H128 H 0.32968 1.21390 0.86090
 H129 H 0.18794 1.18311 0.83212
 H130 H 0.20563 1.19453 0.77349
 N131 N 0.82195 0.84473 0.75759
 N132 N 0.85111 0.81533 0.76172
 C133 C 0.87381 0.81337 0.72362
 C134 C 0.85866 0.84350 0.69400
 C135 C 0.82585 0.86320 0.71661
 H136 H 0.90037 0.79234 0.71833
 H137 H 0.80638 0.88884 0.70429
 Cu138 Cu 0.85949 0.78383 0.81729
 Cu139 Cu 0.78143 0.85477 0.80669
 Cu140 Cu 0.76454 0.76498 0.87140
 N141 N 0.85607 0.74272 0.86530
 N142 N 0.81815 0.73401 0.88527
 C143 C 0.82301 0.70020 0.91188
 C144 C 0.86649 0.68759 0.90870
 C145 C 0.88665 0.71534 0.87904
 H146 H 0.79637 0.68483 0.93038
 H147 H 0.91974 0.71366 0.86559
 N148 N 0.72212 0.81041 0.86852
 N149 N 0.73016 0.84573 0.84661
 C150 C 0.69810 0.87216 0.85586
 C151 C 0.66823 0.85222 0.88439
 C152 C 0.68423 0.81315 0.89155
 H153 H 0.69654 0.90351 0.84275
 H154 H 0.67053 0.78925 0.91368
 H155 H 0.80399 0.81706 0.86142
 H156 H 0.77895 0.79322 0.80989
 N157 N 0.15082 0.85120 1.26171
 N158 N 0.12509 0.81767 1.25919
 C159 C 0.09495 0.81734 1.29188
 C160 C 0.10158 0.85310 1.31536
 C161 C 0.13704 0.87413 1.29536
 H162 H 0.06991 0.79314 1.29782
 H163 H 0.15238 0.90325 1.30533
 Cu164 Cu 0.13288 0.77778 1.21353
 Cu165 Cu 0.20112 0.86108 1.22219
 Cu166 Cu 0.22563 0.78063 1.15302
 N167 N 0.15233 0.72948 1.18453
 N168 N 0.18964 0.73001 1.16219
 C169 C 0.19467 0.69255 1.14506
 C170 C 0.15837 0.66764 1.15725
 C171 C 0.13211 0.69198 1.18220
 H172 H 0.22136 0.68471 1.12335
 H173 H 0.10015 0.68345 1.19649
 N174 N 0.26425 0.83088 1.15870
 N175 N 0.25598 0.86031 1.18690
 C176 C 0.29027 0.88820 1.18669
 C177 C 0.32088 0.87631 1.15617
 C178 C 0.30345 0.84001 1.13876
 H179 H 0.29284 0.91529 1.20712
 H180 H 0.31905 0.82091 1.11486
 H181 H 0.18158 0.82500 1.16878
 H182 H 0.21131 0.79875 1.21653
 N183 N 0.77934 1.18333 1.29325
 N184 N 0.81916 1.20174 1.29326
 C185 C 0.84533 1.18444 1.32554
 C186 C 0.82005 1.15424 1.34737
 C187 C 0.77830 1.15447 1.32643
 H188 H 0.87982 1.19342 1.33298
 H189 H 0.74980 1.13425 1.33377
 Cu190 Cu 0.83182 1.24784 1.25275
 Cu191 Cu 0.73285 1.19671 1.24866
 Cu192 Cu 0.76913 1.25882 1.15915
 N193 N 0.83728 1.29681 1.21465
 N194 N 0.81413 1.30012 1.17665
 C195 C 0.82925 1.33347 1.15320
 C196 C 0.86310 1.35221 1.17846
 C197 C 0.86720 1.32846 1.21732
 H198 H 0.81771 1.34238 1.11971
 H199 H 0.89228 1.33227 1.24386
 N200 N 0.71327 1.22567 1.15712
 N201 N 0.69943 1.20171 1.19083
 C202 C 0.66310 1.17940 1.17691
 C203 C 0.65356 1.19055 1.13265
 C204 C 0.68566 1.22013 1.12134
 H205 H 0.64652 1.15524 1.19660
 H206 H 0.69045 1.23433 1.08847
 H207 H 0.78142 1.20834 1.20328
 H208 H 0.75500 1.25499 1.22488
 O209 O 0.52173 0.95478 0.93622
 O210 O 0.47020 0.98216 1.09450
 O211 O 0.59864 1.00244 1.03656
 O212 O 0.43650 0.95604 0.96121
 O213 O 0.54973 0.97102 1.07752
 O214 O 0.45374 0.99020 0.90361
 O215 O 0.43293 0.95431 1.04006
 O216 O 0.58576 0.97786 0.96054
 C217 C 0.56219 0.94923 0.94383
 C218 C 0.44187 0.95630 1.08076
 C219 C 0.58608 0.97073 1.05828
 C220 C 0.42902 0.96348 0.92086
 O221 O 0.48204 1.05983 0.92619
 O222 O 0.56217 1.05359 1.07521
 O223 O 0.56097 1.05455 0.93413
 O224 O 0.41884 1.03593 1.04346
 O225 O 0.47932 1.06001 1.08054
 O226 O 0.53386 1.01613 0.88156
 O227 O 0.41988 1.03952 0.95831
 O228 O 0.56665 1.07710 1.00812
 Co229 Co 0.50409 1.00773 0.93382
 Co230 Co 0.51497 1.01603 1.07462
 Co231 Co 0.57224 1.02640 0.98639
 Co232 Co 0.43328 0.99781 1.00042
 O233 O 0.50367 1.01056 1.00213
 C234 C 0.44135 1.06503 0.93326
 C235 C 0.56947 1.08333 1.04877
 C236 C 0.56566 1.04124 0.89524
 C237 C 0.43817 1.06157 1.07006
 O238 O 0.07240 0.47699 0.06352
 O239 O 0.04654 0.54136 -0.09201
 O240 O 0.02646 0.41166 -0.04268
 O241 O 0.07647 0.54891 0.04584
 O242 O 0.04846 0.46351 -0.08879
 O243 O 0.04073 0.53424 0.10701
 O244 O 0.08415 0.54443 -0.03126
 O245 O 0.04065 0.41890 0.04235
 C246 C 0.07276 0.43834 0.06170
 C247 C 0.08304 0.54871 -0.07231
 C248 C 0.05018 0.42626 -0.07505
 C249 C 0.07246 0.55553 0.08714
 O250 O -0.03635 0.52526 0.06455
 O251 O -0.03686 0.45934 -0.08949
 O252 O -0.04698 0.43978 0.04901
 O253 O 0.00182 0.58044 -0.04624
 O254 O -0.04122 0.53416 -0.07703
 O255 O -0.00123 0.46274 0.09817
 O256 O -0.00728 0.57925 0.03387
 O257 O -0.05946 0.42986 -0.02867
 Co258 Co 0.01846 0.50341 0.06072
 Co259 Co 0.00479 0.49976 -0.07928
 Co260 Co -0.00766 0.43109 0.00440
 Co261 Co 0.03620 0.55771 -0.00018
 O262 O 0.01012 0.49521 -0.00612
 C263 C -0.03878 0.56243 0.05490
 C264 C -0.06333 0.43532 -0.06975
 C265 C -0.03567 0.44247 0.08927
 C266 C -0.03609 0.56922 -0.06154
 O267 O 1.07252 0.00705 0.44819
 O268 O 0.90535 0.03060 0.54001
 O269 O 0.94117 0.05285 0.43086
 O270 O 1.02667 0.01328 0.58109
 O271 O 0.88537 0.01968 0.45900
 O272 O 1.04971 0.03956 0.51915
 O273 O 0.94752 -0.00087 0.58964
 O274 O 1.02030 0.04656 0.43095
 C275 C 1.05954 0.03689 0.42547
 C276 C 0.92664 0.03070 0.57669
 C277 C 0.90098 0.05110 0.44002
 C278 C 1.04563 0.04249 0.56026
 O279 O 1.09403 -0.02809 0.52562
 O280 O 0.89232 -0.05787 0.46738
 O281 O 1.01068 -0.03558 0.40887
 O282 O 0.95998 -0.07821 0.55404
 O283 O 0.89794 -0.04955 0.55333
 O284 O 1.04175 -0.06233 0.47001
 O285 O 1.03689 -0.06415 0.55081
 O286 O 0.92699 -0.02809 0.40897
 Co287 Co 1.04295 -0.01198 0.49704
 Co288 Co 0.90283 -0.01389 0.50464
 Co289 Co 0.97516 0.00726 0.42605
 Co290 Co 0.99116 -0.03046 0.56302
 O291 O 0.97546 -0.00998 0.49557
 C292 C 1.07877 -0.05714 0.55256
 C293 C 0.90128 -0.05652 0.42580
 C294 C 1.03178 -0.06440 0.42883
 C295 C 0.92025 -0.08016 0.56323
 N296 N 1.12578 0.03830 0.38211
 N297 N 1.14350 0.05668 0.34651
 C298 C 1.11607 0.08693 0.33292
 C299 C 1.08035 0.08662 0.36196
 N300 N 1.08792 0.05541 0.39203
 H301 H 1.05109 0.10540 0.36007
 N302 N 0.88046 -0.12819 0.41099
 N303 N 0.87439 -0.15241 0.37596
 C304 C 0.87597 -0.12763 0.33893
 C305 C 0.88299 -0.08755 0.35224
 N306 N 0.88553 -0.08914 0.39741
 H307 H 0.88783 -0.06016 0.33113
 N308 N 0.92368 0.10443 0.58691
 N309 N 0.92361 0.13122 0.61969
 C310 C 0.92677 0.10917 0.65859
 C311 C 0.92893 0.06793 0.64868
 N312 N 0.92655 0.06640 0.60368
 H313 H 0.92961 0.04157 0.67173
 N314 N 1.11213 -0.12379 0.55500
 N315 N 1.12463 -0.15113 0.58637
 C316 C 1.12633 -0.13114 0.62546
 C317 C 1.11512 -0.09081 0.61704
 N318 N 1.10703 -0.08722 0.57265
 H319 H 1.10906 -0.06750 0.64133
 N320 N 0.43105 1.13250 1.09195
 N321 N 0.40014 1.15730 1.10556
 C322 C 0.36192 1.13429 1.10860
 C323 C 0.37015 1.09463 1.09603
 N324 N 0.41365 1.09493 1.08604
 H325 H 0.34715 1.06819 1.09456
 N326 N 0.36734 0.97250 0.86868
 N327 N 0.32914 0.95407 0.85636
 C328 C 0.32702 0.91732 0.87855
 C329 C 0.36530 0.91371 0.90530
 N330 N 0.38947 0.94891 0.89787
 H331 H 0.37427 0.88876 0.92831
 N332 N 0.59706 0.89757 1.05095
 N333 N 0.62910 0.87049 1.05599
 C334 C 0.66623 0.89163 1.07007
 C335 C 0.65612 0.93278 1.07296
 N336 N 0.61261 0.93494 1.06103
 H337 H 0.67765 0.95832 1.08372
 N338 N 0.61788 1.03259 0.83558
 N339 N 0.65767 1.04754 0.82364
 C340 C 0.66775 1.07997 0.85001
 C341 C 0.63267 1.08478 0.87817
 N342 N 0.60242 1.05446 0.86828
 H343 H 0.63074 1.10609 0.90539
 N344 N 0.14730 0.43044 0.09604
 N345 N 0.16946 0.40249 0.12026
 C346 C 0.14138 0.36939 0.12570
 C347 C 0.10161 0.37757 0.10346
 N348 N 0.10675 0.41578 0.08523
 H349 H 0.07173 0.35790 0.10106
 N350 N -0.10694 0.42271 -0.13786
 N351 N -0.12848 0.39166 -0.15781
 C352 C -0.13193 0.36050 -0.12715
 C353 C -0.11170 0.37359 -0.08739
 N354 N -0.09644 0.41262 -0.09562
 H355 H -0.10385 0.35499 -0.05767
 N356 N 0.16151 0.56809 -0.07639
 N357 N 0.18715 0.59685 -0.09610
 C358 C 0.16139 0.61578 -0.12762
 C359 C 0.11902 0.59735 -0.12695
 N360 N 0.12053 0.56781 -0.09436
 H361 H 0.08901 0.60778 -0.14427
 N362 N -0.11774 0.57302 0.06803
 N363 N -0.14363 0.60252 0.08144
 C364 C -0.11637 0.63514 0.09152
 C365 C -0.07297 0.62489 0.08348
 N366 N -0.07532 0.58597 0.06890
 H367 H -0.04272 0.64379 0.08776
 N368 N 1.06232 0.11602 0.57008
 N369 N 1.07881 0.14068 0.60177
 C370 C 1.09145 0.11619 0.63690
 C371 C 1.08191 0.07584 0.62602
 N372 N 1.06384 0.07706 0.58417
 H373 H 1.08678 0.04834 0.64674
 N374 N 0.92257 -0.14941 0.59517
 N375 N 0.90713 -0.17056 0.63037
 C376 C 0.87727 -0.14680 0.64962
 C377 C 0.87441 -0.11042 0.62469
 N378 N 0.90332 -0.11333 0.59108
 H379 H 0.85682 -0.08307 0.63283
 N380 N 1.04124 -0.13731 0.41561
 N381 N 1.05921 -0.16053 0.38534
 C382 C 1.07671 -0.13440 0.35397
 C383 C 1.06867 -0.09466 0.36540
 N384 N 1.04644 -0.09788 0.40384
 H385 H 1.07849 -0.06621 0.34797
 N386 N 0.82829 0.08082 0.43682
 N387 N 0.80510 0.10759 0.41237
 C388 C 0.83403 0.12650 0.38414
 C389 C 0.87597 0.11070 0.39207
 N390 N 0.87071 0.08204 0.42514
 H391 H 0.90601 0.11671 0.37319
 N392 N 0.12405 0.41647 -0.10272
 N393 N 0.14832 0.38733 -0.11907
 C394 C 0.12191 0.35293 -0.12047
 C395 C 0.08058 0.36164 -0.10403
 N396 N 0.08353 0.40167 -0.09334
 H397 H 0.05140 0.34128 -0.10064
 N398 N -0.05037 0.42846 0.16766
 N399 N -0.07703 0.40488 0.19289
 C400 C -0.10612 0.38560 0.16454
 C401 C -0.09665 0.39792 0.12107
 N402 N -0.06149 0.42451 0.12463
 H403 H -0.11160 0.38661 0.09006
 N404 N -0.11428 0.58448 -0.05500
 N405 N -0.14134 0.61568 -0.06144
 C406 C -0.11558 0.64848 -0.07445
 C407 C -0.07172 0.63661 -0.07545
 N408 N -0.07254 0.59647 -0.06324
 H409 H -0.04262 0.65460 -0.08616
 N410 N 0.15033 0.57351 0.10011
 N411 N 0.17485 0.60392 0.11785
 C412 C 0.14672 0.62655 0.14076
 C413 C 0.10421 0.60884 0.13705
 N414 N 0.10800 0.57583 0.11140
 H415 H 0.07307 0.62153 0.14701
 N416 N 0.43627 1.13366 0.89803
 N417 N 0.40613 1.15626 0.87619
 C418 C 0.36785 1.13308 0.87395
 C419 C 0.37520 1.09579 0.89561
 N420 N 0.41814 1.09749 0.91029
 H421 H 0.35183 1.06988 0.90002
 N422 N 0.42177 0.93688 1.15670
 N423 N 0.38940 0.91655 1.17816
 C424 C 0.36378 0.89740 1.14668
 C425 C 0.38138 0.90658 1.10504
 N426 N 0.41756 0.93146 1.11285
 H427 H 0.36715 0.89900 1.07235
 N428 N 0.59163 1.15521 1.03736
 N429 N 0.61389 1.18491 1.05889
 C430 C 0.62237 1.17023 1.10092
 C431 C 0.60446 1.13061 1.10468
 N432 N 0.58585 1.12240 1.06418
 H433 H 0.60817 1.10873 1.13252
 N434 N 0.56375 0.87494 0.93178
 N435 N 0.59167 0.84798 0.91639
 C436 C 0.62909 0.86961 0.90470
 C437 C 0.62359 0.91040 0.91383
 N438 N 0.58260 0.91242 0.93073
 H439 H 0.64680 0.93623 0.90817
   
