data_POSCAR
  _audit_creation_date              2014-09-24
  _audit_creation_method            'ToBaCCo'
  _symmetry_space_group_name_H-M    'P1'
  _symmetry_Int_Tables_number       1
  _symmetry_cell_setting            triclinic
  loop_
  _symmetry_equiv_pos_as_xyz
 x,y,z
_cell_length_a 57.1291
_cell_length_b 56.8574
_cell_length_c 57.0474
_cell_angle_alpha 89.956900
_cell_angle_beta 89.962800
_cell_angle_gamma 90.137300
loop_
  _atom_site_label
  _atom_site_type_symbol
  _atom_site_fract_x
  _atom_site_fract_y
  _atom_site_fract_z
N1 N 0.59569 0.66059 0.61349
 N2 N 0.58729 0.65177 0.63310
 C3 C 0.56881 0.66471 0.64003
 C4 C 0.56539 0.68239 0.62376
 C5 C 0.58267 0.67923 0.60712
 H6 H 0.55862 0.66160 0.65571
 H7 H 0.58586 0.69005 0.59184
 Cu8 Cu 0.60167 0.62436 0.64748
 Cu9 Cu 0.62387 0.64837 0.59857
 Cu10 Cu 0.65155 0.60172 0.62633
 N11 N 0.61606 0.59695 0.66185
 N12 N 0.63623 0.58895 0.65415
 C13 C 0.64291 0.57063 0.66751
 C14 C 0.62585 0.56679 0.68431
 C15 C 0.60901 0.58376 0.68019
 H16 H 0.65871 0.56054 0.66490
 H17 H 0.59302 0.58638 0.68998
 N18 N 0.66394 0.61687 0.59777
 N19 N 0.65268 0.63369 0.58649
 C20 C 0.66462 0.63914 0.56684
 C21 C 0.68442 0.62532 0.56592
 C22 C 0.68354 0.61147 0.58579
 H23 H 0.65954 0.65240 0.55425
 H24 H 0.69599 0.59809 0.59077
 H25 H 0.62136 0.61426 0.61097
 H26 H 0.63854 0.63549 0.62904
 N27 N 0.90309 0.33722 0.11531
 N28 N 0.91162 0.34617 0.13477
 C29 C 0.93027 0.33340 0.14156
 C30 C 0.93371 0.31573 0.12527
 C31 C 0.91620 0.31869 0.10882
 H32 H 0.94080 0.33687 0.15693
 H33 H 0.91311 0.30805 0.09341
 Cu34 Cu 0.89798 0.37431 0.14847
 Cu35 Cu 0.87527 0.34982 0.10009
 Cu36 Cu 0.85057 0.39966 0.12488
 N37 N 0.88435 0.40245 0.16217
 N38 N 0.86546 0.41195 0.15308
 C39 C 0.85928 0.43077 0.16595
 C40 C 0.87531 0.43333 0.18388
 C41 C 0.89103 0.41513 0.18097
 H42 H 0.84441 0.44196 0.16239
 H43 H 0.90605 0.41137 0.19187
 N44 N 0.83811 0.38454 0.09640
 N45 N 0.84711 0.36519 0.08735
 C46 C 0.83422 0.35871 0.06866
 C47 C 0.81651 0.37490 0.06569
 C48 C 0.81949 0.39107 0.08348
 H49 H 0.83752 0.34346 0.05785
 H50 H 0.80865 0.40625 0.08688
 H51 H 0.88012 0.38411 0.11098
 H52 H 0.86086 0.36518 0.12954
 N53 N 0.40298 0.16241 -0.11495
 N54 N 0.41201 0.15295 -0.13393
 C55 C 0.43076 0.16570 -0.14065
 C56 C 0.43374 0.18385 -0.12484
 C57 C 0.41588 0.18123 -0.10872
 H58 H 0.44163 0.16195 -0.15571
 H59 H 0.41244 0.19234 -0.09373
 Cu60 Cu 0.39872 0.12457 -0.14757
 Cu61 Cu 0.37483 0.15006 -0.10012
 Cu62 Cu 0.34991 0.10037 -0.12498
 N63 N 0.38445 0.09677 -0.16141
 N64 N 0.36500 0.08778 -0.15286
 C65 C 0.35852 0.06923 -0.16600
 C66 C 0.37492 0.06633 -0.18356
 C67 C 0.39116 0.08403 -0.18014
 H68 H 0.34320 0.05846 -0.16290
 H69 H 0.40653 0.08747 -0.19067
 N70 N 0.33724 0.11568 -0.09675
 N71 N 0.34637 0.13497 -0.08766
 C72 C 0.33346 0.14151 -0.06901
 C73 C 0.31559 0.12540 -0.06611
 C74 C 0.31851 0.10922 -0.08389
 H75 H 0.33691 0.15668 -0.05812
 H76 H 0.30761 0.09403 -0.08729
 H77 H 0.37946 0.11556 -0.11052
 H78 H 0.36123 0.13459 -0.12998
 N79 N 0.09860 0.83600 0.38334
 N80 N 0.08718 0.84776 0.36713
 C81 C 0.06716 0.83627 0.36202
 C82 C 0.06625 0.81605 0.37554
 C83 C 0.08647 0.81642 0.38884
 H84 H 0.05452 0.84180 0.34907
 H85 H 0.09185 0.80354 0.40171
 Cu86 Cu 0.10038 0.87613 0.35324
 Cu87 Cu 0.12826 0.84701 0.39612
 Cu88 Cu 0.14955 0.90010 0.37527
 N89 N 0.11479 0.90372 0.33902
 N90 N 0.13425 0.91272 0.34751
 C91 C 0.14072 0.93123 0.33428
 C92 C 0.12436 0.93409 0.31672
 C93 C 0.10810 0.91639 0.32022
 H94 H 0.15606 0.94200 0.33734
 H95 H 0.09275 0.91293 0.30970
 N96 N 0.16255 0.88421 0.40301
 N97 N 0.15491 0.86362 0.41056
 C98 C 0.16775 0.85705 0.42924
 C99 C 0.18413 0.87439 0.43365
 C100 C 0.18032 0.89137 0.41678
 H101 H 0.16528 0.84098 0.43908
 H102 H 0.19003 0.90757 0.41456
 H103 H 0.12123 0.88210 0.38972
 H104 H 0.13948 0.86659 0.36728
 C105 C 0.10700 0.14335 0.12507
 C106 C 0.10712 0.12592 0.14251
 C107 C 0.12436 0.10836 0.14265
 C108 C 0.14164 0.10841 0.12513
 C109 C 0.14179 0.12573 0.10757
 C110 C 0.12437 0.14312 0.10765
 H111 H 0.09374 0.12600 0.15598
 H112 H 0.15501 0.09493 0.12517
 H113 H 0.12435 0.15654 0.09415
 C114 C 0.39274 0.85737 0.62490
 C115 C 0.39257 0.87489 0.64224
 C116 C 0.37530 0.89243 0.64229
 C117 C 0.35805 0.89230 0.62477
 C118 C 0.35794 0.87492 0.60728
 C119 C 0.37536 0.85752 0.60748
 H120 H 0.40592 0.87488 0.65571
 H121 H 0.34467 0.90577 0.62473
 H122 H 0.37539 0.84405 0.59406
 C123 C 0.89377 0.64217 0.37574
 C124 C 0.87554 0.64288 0.39221
 C125 C 0.85738 0.62623 0.39155
 C126 C 0.85729 0.60908 0.37386
 C127 C 0.87569 0.60780 0.35755
 C128 C 0.89403 0.62428 0.35881
 H129 H 0.87549 0.65643 0.40557
 H130 H 0.84328 0.59620 0.37333
 H131 H 0.90810 0.62372 0.34607
 C132 C 0.60794 0.35797 -0.12546
 C133 C 0.62540 0.35804 -0.10816
 C134 C 0.64290 0.37543 -0.10800
 C135 C 0.64278 0.39290 -0.12542
 C136 C 0.62542 0.39311 -0.14286
 C137 C 0.60807 0.37556 -0.14275
 H138 H 0.62537 0.34452 -0.09476
 H139 H 0.65622 0.40637 -0.12542
 H140 H 0.59465 0.37561 -0.15615
 C141 C -0.01490 0.26533 0.12523
 N142 N -0.01728 0.28020 0.14369
 N143 N -0.03386 0.29664 0.14365
 C144 C -0.04884 0.29865 0.12528
 N145 N -0.04650 0.28368 0.10688
 N146 N -0.02976 0.26742 0.10680
 C147 C 0.00340 0.24727 0.12520
 N148 N 0.00981 0.23658 0.10492
 N149 N 0.02645 0.22020 0.10487
 C150 C 0.03711 0.21374 0.12514
 N151 N 0.03062 0.22436 0.14543
 N152 N 0.01416 0.24092 0.14545
 C153 C 0.05527 0.19554 0.12512
 N154 N 0.06184 0.18498 0.14541
 N155 N 0.07820 0.16833 0.14538
 C156 C 0.08878 0.16177 0.12508
 N157 N 0.08227 0.17244 0.10481
 N158 N 0.06574 0.18893 0.10481
 C159 C 0.51434 0.73497 0.62470
 N160 N 0.52684 0.73059 0.60494
 N161 N 0.54318 0.71392 0.60470
 C162 C 0.54745 0.70085 0.62415
 N163 N 0.53491 0.70516 0.64390
 N164 N 0.51871 0.72199 0.64420
 C165 C 0.49629 0.75331 0.62486
 N166 N 0.48723 0.76126 0.64538
 N167 N 0.47086 0.77793 0.64545
 C168 C 0.46281 0.78708 0.62500
 N169 N 0.47181 0.77905 0.60449
 N170 N 0.48833 0.76255 0.60442
 C171 C 0.44465 0.80530 0.62501
 N172 N 0.43323 0.81094 0.60493
 N173 N 0.41667 0.82740 0.60493
 C174 C 0.41104 0.83899 0.62495
 N175 N 0.42256 0.83339 0.64501
 N176 N 0.43898 0.81678 0.64507
 C177 C 1.01537 0.76489 0.37513
 N178 N 1.01219 0.78533 0.36324
 N179 N 1.02874 0.80190 0.36325
 C180 C 1.04890 0.79878 0.37548
 N181 N 1.05193 0.77841 0.38754
 N182 N 1.03555 0.76171 0.38722
 C183 C 0.99729 0.74654 0.37496
 N184 N 1.00315 0.72361 0.37791
 N185 N 0.98674 0.70692 0.37780
 C186 C 0.96384 0.71261 0.37510
 N187 N 0.95796 0.73556 0.37228
 N188 N 0.97441 0.75222 0.37203
 C189 C 0.94573 0.69429 0.37534
 N190 N 0.92338 0.69959 0.38142
 N191 N 0.90695 0.68293 0.38182
 C192 C 0.91218 0.66042 0.37588
 N193 N 0.93451 0.65517 0.36963
 N194 N 0.95102 0.67177 0.36955
 C195 C 0.48577 0.23566 -0.12521
 N196 N 0.47275 0.23169 -0.10568
 N197 N 0.45610 0.21524 -0.10561
 C198 C 0.45205 0.20201 -0.12499
 N199 N 0.46515 0.20588 -0.14448
 N200 N 0.48164 0.22249 -0.14462
 C201 C 0.50402 0.25387 -0.12528
 N202 N 0.51337 0.26161 -0.14577
 N203 N 0.52984 0.27825 -0.14582
 C204 C 0.53770 0.28757 -0.12537
 N205 N 0.52842 0.27974 -0.10489
 N206 N 0.51180 0.26326 -0.10485
 C207 C 0.55590 0.30582 -0.12541
 N208 N 0.56724 0.31160 -0.10532
 N209 N 0.58384 0.32809 -0.10537
 C210 C 0.58958 0.33959 -0.12546
 N211 N 0.57813 0.33384 -0.14553
 N212 N 0.56168 0.31720 -0.14553
 C213 C 0.12420 -0.01414 0.26464
 N214 N 0.10463 -0.02700 0.26907
 N215 N 0.10470 -0.04361 0.28557
 C216 C 0.12429 -0.04779 0.29836
 N217 N 0.14381 -0.03486 0.29400
 N218 N 0.14380 -0.01842 0.27736
 C219 C 0.12418 0.00412 0.24644
 N220 N 0.14462 0.01337 0.23848
 N221 N 0.14464 0.02990 0.22193
 C222 C 0.12419 0.03795 0.21288
 N223 N 0.10373 0.02879 0.22091
 N224 N 0.10373 0.01209 0.23732
 C225 C 0.12422 0.05622 0.19469
 N226 N 0.10420 0.06770 0.18904
 N227 N 0.10427 0.08435 0.17260
 C228 C 0.12431 0.09000 0.16104
 N229 N 0.14430 0.07841 0.16666
 N230 N 0.14428 0.06190 0.18324
 C231 C 0.62541 0.51561 -0.26484
 N232 N 0.64439 0.51866 -0.27885
 N233 N 0.64446 0.53517 -0.29542
 C234 C 0.62566 0.54943 -0.29844
 N235 N 0.60671 0.54644 -0.28435
 N236 N 0.60654 0.52974 -0.26793
 C237 C 0.62536 0.49737 -0.24662
 N238 N 0.60497 0.49008 -0.23673
 N239 N 0.60495 0.47344 -0.22027
 C240 C 0.62534 0.46368 -0.21293
 N241 N 0.64574 0.47106 -0.22274
 N242 N 0.64573 0.48752 -0.23937
 C243 C 0.62535 0.44543 -0.19473
 N244 N 0.64548 0.43951 -0.18359
 N245 N 0.64548 0.42298 -0.16703
 C246 C 0.62539 0.41158 -0.16112
 N247 N 0.60528 0.41748 -0.17236
 N248 N 0.60524 0.43416 -0.18877
 C249 C 0.37516 1.01470 0.76432
 N250 N 0.39477 1.02742 0.76891
 N251 N 0.39467 1.04397 0.78543
 C252 C 0.37503 1.04824 0.79810
 N253 N 0.35544 1.03546 0.79359
 N254 N 0.35547 1.01906 0.77691
 C255 C 0.37520 0.99653 0.74606
 N256 N 0.35475 0.98747 0.73792
 N257 N 0.35478 0.97103 0.72129
 C258 C 0.37524 0.96290 0.71236
 N259 N 0.39569 0.97187 0.72059
 N260 N 0.39567 0.98847 0.73707
 C261 C 0.37527 0.94468 0.69415
 N262 N 0.39529 0.93313 0.68863
 N263 N 0.39528 0.91647 0.67222
 C264 C 0.37529 0.91085 0.66058
 N265 N 0.35530 0.92252 0.66607
 N266 N 0.35527 0.93905 0.68261
 C267 C 0.87575 0.48530 0.23568
 N268 N 0.89501 0.47189 0.23184
 N269 N 0.89486 0.45524 0.21541
 C270 C 0.87551 0.45156 0.20209
 N271 N 0.85630 0.46505 0.20585
 N272 N 0.85638 0.48154 0.22242
 C273 C 0.87581 0.50355 0.25387
 N274 N 0.85544 0.51338 0.26116
 N275 N 0.85544 0.52987 0.27773
 C276 C 0.87583 0.53730 0.28746
 N277 N 0.89623 0.52755 0.28010
 N278 N 0.89621 0.51090 0.26367
 C279 C 0.87582 0.55556 0.30565
 N280 N 0.89605 0.56629 0.31212
 N281 N 0.89599 0.58294 0.32854
 C282 C 0.87574 0.58937 0.33926
 N283 N 0.85554 0.57852 0.33280
 N284 N 0.85556 0.56200 0.31625
 C285 C 0.26378 0.12551 -0.01435
 N286 N 0.26795 0.10587 -0.02719
 N287 N 0.28438 0.10587 -0.04377
 C288 C 0.29739 0.12544 -0.04795
 N289 N 0.29329 0.14505 -0.03504
 N290 N 0.27671 0.14512 -0.01861
 C291 C 0.24561 0.12554 0.00385
 N292 N 0.23775 0.14610 0.01299
 N293 N 0.22116 0.14613 0.02943
 C294 C 0.21200 0.12560 0.03746
 N295 N 0.21994 0.10504 0.02839
 N296 N 0.23637 0.10502 0.01180
 C297 C 0.19380 0.12563 0.05563
 N298 N 0.18808 0.10551 0.06712
 N299 N 0.17162 0.10556 0.08368
 C300 C 0.16010 0.12568 0.08923
 N301 N 0.16579 0.14578 0.07762
 N302 N 0.18239 0.14577 0.06121
 C303 C 0.73578 0.62513 0.51371
 N304 N 0.74061 0.61684 0.53550
 N305 N 0.72418 0.61674 0.55210
 C306 C 0.70246 0.62523 0.54759
 N307 N 0.69768 0.63366 0.52585
 N308 N 0.71401 0.63346 0.50916
 C309 C 0.75384 0.62519 0.49541
 N310 N 0.74780 0.62598 0.47241
 N311 N 0.76420 0.62602 0.45579
 C312 C 0.78724 0.62559 0.46159
 N313 N 0.79328 0.62492 0.48460
 N314 N 0.77687 0.62456 0.50120
 C315 C 0.80533 0.62594 0.44333
 N316 N 0.82748 0.63289 0.44847
 N317 N 0.84393 0.63325 0.43191
 C318 C 0.83892 0.62642 0.40966
 N319 N 0.81677 0.61935 0.40456
 N320 N 0.80024 0.61927 0.42106
 C321 C 0.76469 0.37495 0.01398
 N322 N 0.76905 0.39458 0.02680
 N323 N 0.78548 0.39453 0.04336
 C324 C 0.79831 0.37490 0.04754
 N325 N 0.79404 0.35530 0.03465
 N326 N 0.77744 0.35528 0.01825
 C327 C 0.74652 0.37500 -0.00419
 N328 N 0.73848 0.35448 -0.01336
 N329 N 0.72192 0.35454 -0.02979
 C330 C 0.71295 0.37512 -0.03780
 N331 N 0.72105 0.39563 -0.02871
 N332 N 0.73746 0.39557 -0.01212
 C333 C 0.69480 0.37519 -0.05601
 N334 N 0.68926 0.39537 -0.06744
 N335 N 0.67286 0.39542 -0.08403
 C336 C 0.66122 0.37534 -0.08968
 N337 N 0.66673 0.35519 -0.07814
 N338 N 0.68327 0.35509 -0.06169
 C339 C 0.23566 0.87477 0.48570
 N340 N 0.23067 0.89465 0.47350
 N341 N 0.21426 0.89452 0.45691
 C342 C 0.20210 0.87457 0.45207
 N343 N 0.20699 0.85473 0.46434
 N344 N 0.22354 0.85480 0.48080
 C345 C 0.25393 0.87483 0.50380
 N346 N 0.26229 0.85430 0.51256
 N347 N 0.27898 0.85434 0.52887
 C348 C 0.28777 0.87492 0.53715
 N349 N 0.27934 0.89546 0.52846
 N350 N 0.26279 0.89541 0.51201
 C351 C 0.30604 0.87495 0.55526
 N352 N 0.31153 0.89503 0.56691
 N353 N 0.32797 0.89499 0.58347
 C354 C 0.33967 0.87494 0.58889
 N355 N 0.33422 0.85490 0.57712
 N356 N 0.31765 0.85488 0.56070
   
