data_POSCAR
  _audit_creation_date              2014-09-24
  _audit_creation_method            'ToBaCCo'
  _symmetry_space_group_name_H-M    'P1'
  _symmetry_Int_Tables_number       1
  _symmetry_cell_setting            triclinic
  loop_
  _symmetry_equiv_pos_as_xyz
 x,y,z
_cell_length_a 50.4856
_cell_length_b 51.2454
_cell_length_c 48.8146
_cell_angle_alpha 89.160800
_cell_angle_beta 88.785400
_cell_angle_gamma 89.964900
loop_
  _atom_site_label
  _atom_site_type_symbol
  _atom_site_fract_x
  _atom_site_fract_y
  _atom_site_fract_z
C1 C 0.28797 0.28298 0.24087
 H2 H 0.28816 0.28200 0.26302
 C3 C 0.30538 0.29969 0.22661
 H4 H 0.31910 0.31138 0.23796
 C5 C 0.27012 0.26845 0.19927
 H6 H 0.25651 0.25612 0.18866
 C7 C 0.28718 0.28491 0.18418
 H8 H 0.28607 0.28541 0.16205
 N9 N 0.27048 0.26814 0.22713
 C10 C 0.20428 0.25552 0.28468
 H11 H 0.20304 0.23444 0.28490
 C12 C 0.18645 0.27010 0.30051
 H13 H 0.17168 0.26007 0.31316
 C14 C 0.22526 0.29414 0.26808
 H15 H 0.24009 0.30351 0.25508
 C16 C 0.20791 0.30945 0.28362
 H17 H 0.20963 0.33049 0.28238
 Zn18 Zn 0.24713 0.24673 0.24840
 N19 N 0.22345 0.26766 0.26921
 C20 C 0.26490 0.22658 0.29947
 N21 N 0.26821 0.22591 0.27176
 C22 C 0.28738 0.21095 0.25989
 C23 C 0.30370 0.19528 0.27599
 C24 C 0.28080 0.21124 0.31635
 C25 C 0.20925 0.23729 0.20852
 C26 C 0.19358 0.22247 0.19136
 C27 C 0.21324 0.18340 0.21034
 C28 C 0.22852 0.19896 0.22712
 N29 N 0.22657 0.22541 0.22565
 H30 H 0.25008 0.23913 0.30859
 H31 H 0.28983 0.21107 0.23782
 H32 H 0.31844 0.18308 0.26608
 H33 H 0.27799 0.21219 0.33837
 H34 H 0.20778 0.25836 0.20807
 H35 H 0.18035 0.23233 0.17744
 H36 H 0.21497 0.16237 0.21195
 H37 H 0.24177 0.18980 0.24142
 C38 C 0.18829 0.29745 0.30027
 C39 C 0.30495 0.30102 0.19786
 C40 C 0.19559 0.19513 0.19202
 C41 C 0.30045 0.19521 0.30464
 C42 C 0.79117 0.78240 0.24210
 H43 H 0.79148 0.78202 0.26426
 C44 C 0.80813 0.79914 0.22730
 H45 H 0.82177 0.81078 0.23873
 C46 C 0.77380 0.76610 0.20115
 H47 H 0.76043 0.75316 0.19100
 C48 C 0.79052 0.78241 0.18546
 H49 H 0.78862 0.78206 0.16346
 N50 N 0.77404 0.76677 0.22895
 C51 C 0.70821 0.75455 0.28712
 H52 H 0.70699 0.73347 0.28734
 C53 C 0.69039 0.76911 0.30298
 H54 H 0.67561 0.75909 0.31562
 C55 C 0.72917 0.79318 0.27052
 H56 H 0.74395 0.80258 0.25750
 C57 C 0.71189 0.80847 0.28617
 H58 H 0.71365 0.82952 0.28507
 Zn59 Zn 0.75099 0.74561 0.25091
 N60 N 0.72736 0.76670 0.27162
 C61 C 0.76911 0.72624 0.30216
 N62 N 0.77233 0.72524 0.27446
 C63 C 0.79132 0.70998 0.26271
 C64 C 0.80744 0.69423 0.27894
 C65 C 0.78483 0.71083 0.31916
 C66 C 0.71297 0.73506 0.21137
 C67 C 0.69696 0.71970 0.19507
 C68 C 0.71628 0.68122 0.21571
 C69 C 0.73192 0.69731 0.23156
 N70 N 0.73027 0.72371 0.22890
 H71 H 0.75440 0.73899 0.31116
 H72 H 0.79367 0.70980 0.24063
 H73 H 0.82196 0.68170 0.26912
 H74 H 0.78203 0.71197 0.34117
 H75 H 0.71171 0.75612 0.21000
 H76 H 0.68369 0.72911 0.18087
 H77 H 0.71770 0.66027 0.21840
 H78 H 0.74513 0.68860 0.24620
 C79 C 0.69229 0.79645 0.30281
 C80 C 0.80793 0.79975 0.19835
 C81 C 0.69857 0.69236 0.19705
 C82 C 0.80418 0.69438 0.30759
 C83 C 0.78862 0.28181 0.74198
 H84 H 0.78897 0.28175 0.76413
 C85 C 0.80721 0.29647 0.72678
 H86 H 0.82195 0.30755 0.73742
 C87 C 0.76941 0.26672 0.70128
 H88 H 0.75489 0.25487 0.69137
 C89 C 0.78760 0.28108 0.68529
 H90 H 0.78643 0.28052 0.66319
 N91 N 0.76997 0.26762 0.72910
 C92 C 0.70312 0.25946 0.78668
 H93 H 0.70039 0.23853 0.78636
 C94 C 0.68601 0.27487 0.80241
 H95 H 0.67029 0.26562 0.81444
 C96 C 0.72714 0.29685 0.77149
 H97 H 0.74291 0.30542 0.75908
 C98 C 0.71058 0.31299 0.78704
 H99 H 0.71381 0.33388 0.78645
 Zn100 Zn 0.74549 0.24812 0.75108
 N101 N 0.72338 0.27057 0.77188
 C102 C 0.76168 0.22680 0.80213
 N103 N 0.76526 0.22613 0.77453
 C104 C 0.78372 0.21030 0.76291
 C105 C 0.79913 0.19384 0.77913
 C106 C 0.77652 0.21061 0.81920
 C107 C 0.70653 0.24099 0.71192
 C108 C 0.68967 0.22723 0.69503
 C109 C 0.70689 0.18697 0.71387
 C110 C 0.72348 0.20151 0.73034
 N111 N 0.72327 0.22802 0.72881
 H112 H 0.74753 0.24016 0.81110
 H113 H 0.78626 0.21025 0.74085
 H114 H 0.81241 0.18081 0.76840
 H115 H 0.77346 0.21299 0.84098
 H116 H 0.70650 0.26211 0.71140
 H117 H 0.67698 0.23795 0.68125
 H118 H 0.70722 0.16588 0.71555
 H119 H 0.73637 0.19154 0.74443
 C120 C 0.68974 0.30201 0.80284
 C121 C 0.80677 0.29633 0.69801
 C122 C 0.68979 0.19981 0.69577
 C123 C 0.79583 0.19341 0.80808
 C124 C 0.28996 0.78483 0.73665
 H125 H 0.29145 0.78502 0.75872
 C126 C 0.30743 0.79972 0.72032
 H127 H 0.32245 0.81123 0.73004
 C128 C 0.26912 0.76873 0.69728
 H129 H 0.25444 0.75635 0.68832
 C130 C 0.28617 0.78334 0.68018
 H131 H 0.28396 0.78244 0.65820
 N132 N 0.27109 0.76996 0.72498
 C133 C 0.20820 0.75973 0.78679
 H134 H 0.20655 0.73868 0.78703
 C135 C 0.19113 0.77460 0.80313
 H136 H 0.17652 0.76483 0.81620
 C137 C 0.22940 0.79797 0.76945
 H138 H 0.24401 0.80704 0.75596
 C139 C 0.21283 0.81359 0.78560
 H140 H 0.21491 0.83460 0.78437
 Zn141 Zn 0.24878 0.74977 0.74865
 N142 N 0.22700 0.77153 0.77056
 C143 C 0.26973 0.73067 0.79871
 N144 N 0.27100 0.72910 0.77093
 C145 C 0.28911 0.71356 0.75814
 C146 C 0.30658 0.69840 0.77343
 C147 C 0.28683 0.71584 0.81480
 C148 C 0.20791 0.74040 0.71223
 C149 C 0.19043 0.72567 0.69697
 C150 C 0.21016 0.68645 0.71555
 C151 C 0.22730 0.70193 0.73041
 N152 N 0.22611 0.72840 0.72824
 H153 H 0.25568 0.74363 0.80848
 H154 H 0.28992 0.71297 0.73600
 H155 H 0.32057 0.68585 0.76286
 H156 H 0.28573 0.71759 0.83687
 H157 H 0.20712 0.76149 0.71122
 H158 H 0.17648 0.73562 0.68390
 H159 H 0.21125 0.66543 0.71777
 H160 H 0.24136 0.69274 0.74384
 C161 C 0.19339 0.80191 0.80273
 C162 C 0.30562 0.79916 0.69166
 C163 C 0.19147 0.69829 0.69843
 C164 C 0.30557 0.69941 0.80217
 C165 C 0.03276 0.04498 0.00913
 H166 H 0.03290 0.04701 -0.01297
 C167 C 0.04711 0.06242 0.02475
 H168 H 0.05812 0.07798 0.01450
 C169 C 0.01753 0.02262 0.04926
 H170 H 0.00581 0.00723 0.05876
 C171 C 0.03158 0.03963 0.06568
 H172 H 0.03089 0.03679 0.08770
 N173 N 0.01865 0.02536 0.02150
 C174 C 0.01302 -0.03688 -0.03802
 H175 H -0.00818 -0.03995 -0.03776
 C176 C 0.02952 -0.05264 -0.05406
 H177 H 0.02084 -0.06767 -0.06639
 C178 C 0.05004 -0.01344 -0.02227
 H179 H 0.05803 0.00154 -0.00952
 C180 C 0.06724 -0.02864 -0.03814
 H181 H 0.08836 -0.02516 -0.03742
 Zn182 Zn -0.00029 0.00263 -0.00123
 N183 N 0.02344 -0.01757 -0.02275
 C184 C -0.02021 0.02171 -0.05176
 N185 N -0.02184 0.02357 -0.02401
 C186 C -0.03819 0.04121 -0.01177
 C187 C -0.05410 0.05758 -0.02756
 C188 C -0.03580 0.03766 -0.06833
 C189 C -0.00864 -0.03906 0.03561
 C190 C -0.02309 -0.05734 0.05127
 C191 C -0.06346 -0.03802 0.03466
 C192 C -0.04824 -0.02018 0.01923
 N193 N -0.02134 -0.02084 0.02018
 H194 H -0.00677 0.00793 -0.06116
 H195 H -0.03874 0.04260 0.01032
 H196 H -0.06673 0.07169 -0.01741
 H197 H -0.03453 0.03556 -0.09035
 H198 H 0.01279 -0.03937 0.03571
 H199 H -0.01263 -0.07148 0.06371
 H200 H -0.08484 -0.03734 0.03344
 H201 H -0.05798 -0.00599 0.00634
 C202 C 0.05701 -0.04850 -0.05436
 C203 C 0.04675 0.05979 0.05344
 C204 C -0.05089 -0.05692 0.05097
 C205 C -0.05307 0.05591 -0.05627
 C206 C 0.03999 0.53955 0.51052
 H207 H 0.04013 0.54056 0.48837
 C208 C 0.05624 0.55614 0.52514
 H209 H 0.06869 0.57006 0.51405
 C210 C 0.02302 0.52053 0.55179
 H211 H 0.00987 0.50683 0.56215
 C212 C 0.03897 0.53673 0.56723
 H213 H 0.03828 0.53484 0.58935
 N214 N 0.02414 0.52190 0.52394
 C215 C 0.01310 0.45895 0.46606
 H216 H -0.00830 0.45801 0.46567
 C217 C 0.02834 0.44147 0.45069
 H218 H 0.01849 0.42699 0.43860
 C219 C 0.05184 0.47851 0.48306
 H220 H 0.06097 0.49272 0.49594
 C221 C 0.06782 0.46145 0.46801
 H222 H 0.08914 0.46319 0.46907
 Zn223 Zn 0.00313 0.49991 0.50236
 N224 N 0.02500 0.47718 0.48160
 C225 C -0.01509 0.51973 0.45132
 N226 N -0.01693 0.52175 0.47905
 C227 C -0.03240 0.54028 0.49102
 C228 C -0.04732 0.55734 0.47500
 C229 C -0.02964 0.53645 0.43450
 C230 C -0.00801 0.46118 0.54198
 C231 C -0.02364 0.44524 0.55921
 C232 C -0.06264 0.46539 0.54038
 C233 C -0.04626 0.48099 0.52355
 N234 N -0.01946 0.47891 0.52494
 H235 H -0.00226 0.50528 0.44215
 H236 H -0.03308 0.54178 0.51311
 H237 H -0.05937 0.57206 0.48493
 H238 H -0.02822 0.53430 0.41249
 H239 H 0.01335 0.45966 0.54237
 H240 H -0.01409 0.43173 0.57311
 H241 H -0.08393 0.46724 0.53884
 H242 H -0.05504 0.49462 0.50932
 C243 C 0.05611 0.44262 0.45150
 C244 C 0.05603 0.55471 0.55391
 C245 C -0.05137 0.44734 0.55866
 C246 C -0.04610 0.55551 0.44632
 C247 C 0.53953 0.04247 0.50856
 H248 H 0.54027 0.04472 0.48649
 C249 C 0.55530 0.05821 0.52469
 H250 H 0.56841 0.07237 0.51484
 C251 C 0.52174 0.02099 0.54813
 H252 H 0.50835 0.00679 0.55728
 C253 C 0.53724 0.03623 0.56501
 H254 H 0.53561 0.03352 0.58702
 N255 N 0.52351 0.02399 0.52042
 C256 C 0.51401 -0.03662 0.45952
 H257 H 0.49264 -0.03801 0.45917
 C258 C 0.52959 -0.05316 0.44335
 H259 H 0.52006 -0.06710 0.43033
 C260 C 0.55237 -0.01661 0.47687
 H261 H 0.56123 -0.00269 0.49029
 C262 C 0.56867 -0.03262 0.46092
 H263 H 0.58997 -0.03079 0.46223
 Zn264 Zn 0.50316 0.00305 0.49706
 N265 N 0.52555 -0.01860 0.47561
 C266 C 0.48565 0.02462 0.44654
 N267 N 0.48356 0.02584 0.47432
 C268 C 0.46787 0.04394 0.48673
 C269 C 0.45287 0.06126 0.47109
 C270 C 0.47104 0.04162 0.43011
 C271 C 0.49093 -0.03747 0.53442
 C272 C 0.47480 -0.05376 0.55077
 C273 C 0.43642 -0.03236 0.53203
 C274 C 0.45329 -0.01646 0.51611
 N275 N 0.48002 -0.01892 0.51796
 H276 H 0.49861 0.01046 0.43704
 H277 H 0.46696 0.04479 0.50886
 H278 H 0.44054 0.07556 0.48136
 H279 H 0.47257 0.04001 0.40804
 H280 H 0.51226 -0.03929 0.53518
 H281 H 0.48391 -0.06785 0.56436
 H282 H 0.41520 -0.03010 0.53024
 H283 H 0.44493 -0.00217 0.50231
 C284 C 0.55731 -0.05112 0.44379
 C285 C 0.55447 0.05499 0.55331
 C286 C 0.44712 -0.05114 0.54990
 C287 C 0.45424 0.06014 0.44236
 C288 C 0.53404 0.54684 0.01087
 H289 H 0.53399 0.54870 -0.01124
 C290 C 0.54874 0.56424 0.02619
 H291 H 0.56027 0.57928 0.01569
 C292 C 0.51919 0.52474 0.05131
 H293 H 0.50731 0.50962 0.06109
 C294 C 0.53367 0.54166 0.06743
 H295 H 0.53278 0.53933 0.08951
 N296 N 0.51995 0.52735 0.02354
 C297 C 0.51298 0.46575 -0.03657
 H298 H 0.49172 0.46300 -0.03612
 C299 C 0.52906 0.44999 -0.05304
 H300 H 0.52001 0.43529 -0.06551
 C301 C 0.55051 0.48837 -0.02082
 H302 H 0.55886 0.50301 -0.00788
 C303 C 0.56733 0.47313 -0.03709
 H304 H 0.58852 0.47624 -0.03648
 Zn305 Zn 0.50058 0.50466 0.00113
 N306 N 0.52384 0.48465 -0.02108
 C307 C 0.47954 0.52436 -0.04870
 N308 N 0.47836 0.52561 -0.02088
 C309 C 0.46157 0.54236 -0.00790
 C310 C 0.44447 0.55815 -0.02295
 C311 C 0.46282 0.53985 -0.06455
 C312 C 0.49287 0.46337 0.03887
 C313 C 0.47861 0.44512 0.05477
 C314 C 0.43811 0.46285 0.03668
 C315 C 0.45314 0.48076 0.02118
 N316 N 0.48000 0.48093 0.02277
 H317 H 0.49337 0.51132 -0.05868
 H318 H 0.46137 0.54327 0.01423
 H319 H 0.43126 0.57136 -0.01223
 H320 H 0.46365 0.53817 -0.08664
 H321 H 0.51428 0.46363 0.03939
 H322 H 0.48920 0.43164 0.06784
 H323 H 0.41678 0.46286 0.03486
 H324 H 0.44327 0.49429 0.00765
 C325 C 0.55663 0.45365 -0.05350
 C326 C 0.54882 0.56166 0.05487
 C327 C 0.45081 0.44477 0.05387
 C328 C 0.44484 0.55690 -0.05167
 C329 C 0.14839 -0.18769 -0.17757
 C330 C 0.13159 -0.17242 -0.16128
 C331 C 0.14147 -0.15098 -0.14710
 C332 C 0.16877 -0.14541 -0.14924
 C333 C 0.18554 -0.16060 -0.16566
 C334 C 0.17553 -0.18189 -0.18000
 C335 C 0.12279 -0.13561 -0.12981
 C336 C 0.12786 -0.11143 -0.12107
 C337 C 0.10912 -0.09596 -0.10396
 C338 C 0.11301 -0.06890 -0.10244
 C339 C 0.09612 -0.05350 -0.08638
 C340 C 0.07494 -0.06486 -0.07140
 C341 C 0.07111 -0.09195 -0.07267
 C342 C 0.08809 -0.10739 -0.08861
 H343 H 0.14008 -0.20386 -0.18854
 H344 H 0.11072 -0.17729 -0.15989
 H345 H 0.17750 -0.12973 -0.13794
 H346 H 0.20648 -0.15602 -0.16673
 H347 H 0.10369 -0.14436 -0.12526
 H348 H 0.14604 -0.10182 -0.12759
 H349 H 0.12911 -0.05957 -0.11386
 H350 H 0.09945 -0.03264 -0.08595
 H351 H 0.05527 -0.10129 -0.06089
 H352 H 0.08485 -0.12824 -0.08830
 C353 C 0.14295 0.30727 0.31972
 C354 C 0.12581 0.32256 0.33565
 C355 C 0.13541 0.34408 0.34986
 C356 C 0.16249 0.35036 0.34736
 C357 C 0.17959 0.33515 0.33137
 C358 C 0.17004 0.31342 0.31739
 C359 C 0.11656 0.36010 0.36617
 C360 C 0.12393 0.37426 0.38762
 C361 C 0.10550 0.39084 0.40379
 C362 C 0.11235 0.39746 0.43051
 C363 C 0.09617 0.41393 0.44611
 C364 C 0.07283 0.42439 0.43523
 C365 C 0.06591 0.41775 0.40847
 C366 C 0.08209 0.40122 0.39286
 H367 H 0.13494 0.29088 0.30886
 H368 H 0.10498 0.31751 0.33695
 H369 H 0.17053 0.36726 0.35728
 H370 H 0.20038 0.34031 0.33007
 H371 H 0.09587 0.35922 0.36092
 H372 H 0.14415 0.37302 0.39445
 H373 H 0.13032 0.38985 0.43937
 H374 H 0.10189 0.41838 0.46678
 H375 H 0.04835 0.42590 0.39930
 H376 H 0.07654 0.39729 0.37205
 C377 C 0.64696 -0.19338 0.32199
 C378 C 0.62992 -0.17807 0.33801
 C379 C 0.63963 -0.15666 0.35238
 C380 C 0.66698 -0.15128 0.35087
 C381 C 0.68396 -0.16647 0.33472
 C382 C 0.67414 -0.18760 0.32002
 C383 C 0.62077 -0.14100 0.36918
 C384 C 0.62579 -0.11655 0.37714
 C385 C 0.60732 -0.10047 0.39397
 C386 C 0.61276 -0.07372 0.39628
 C387 C 0.59650 -0.05773 0.41233
 C388 C 0.57434 -0.06811 0.42650
 C389 C 0.56877 -0.09484 0.42426
 C390 C 0.58515 -0.11092 0.40834
 H391 H 0.63882 -0.20949 0.31079
 H392 H 0.60902 -0.18283 0.33898
 H393 H 0.67558 -0.13571 0.36245
 H394 H 0.70492 -0.16196 0.33409
 H395 H 0.60176 -0.14979 0.37400
 H396 H 0.64401 -0.10720 0.37032
 H397 H 0.62971 -0.06511 0.38559
 H398 H 0.60114 -0.03715 0.41346
 H399 H 0.55206 -0.10343 0.43534
 H400 H 0.58051 -0.13147 0.40791
 C401 C 0.64462 0.31429 -0.17901
 C402 C 0.62805 0.32996 -0.16290
 C403 C 0.63848 0.35047 -0.14771
 C404 C 0.66605 0.35473 -0.14869
 C405 C 0.68259 0.33913 -0.16492
 C406 C 0.67207 0.31875 -0.18024
 C407 C 0.62007 0.36621 -0.13051
 C408 C 0.62595 0.38995 -0.12108
 C409 C 0.60754 0.40568 -0.10386
 C410 C 0.61211 0.43261 -0.10193
 C411 C 0.59560 0.44818 -0.08565
 C412 C 0.57414 0.43714 -0.07084
 C413 C 0.56965 0.41017 -0.07253
 C414 C 0.58623 0.39455 -0.08870
 H415 H 0.63591 0.29885 -0.19075
 H416 H 0.60695 0.32610 -0.16240
 H417 H 0.67512 0.36964 -0.13658
 H418 H 0.70374 0.34267 -0.16502
 H419 H 0.60054 0.35816 -0.12656
 H420 H 0.64458 0.39899 -0.12705
 H421 H 0.62846 0.44169 -0.11319
 H422 H 0.59944 0.46895 -0.08491
 H423 H 0.55359 0.40103 -0.06087
 H424 H 0.58251 0.37379 -0.08872
 C425 C -0.19766 0.17083 -0.14822
 C426 C -0.18265 0.15438 -0.13157
 C427 C -0.15866 0.14392 -0.14112
 C428 C -0.15022 0.14971 -0.16809
 C429 C -0.16522 0.16602 -0.18493
 C430 C -0.18940 0.17724 -0.17548
 C431 C -0.14355 0.12641 -0.12271
 C432 C -0.11717 0.12331 -0.12476
 C433 C -0.10152 0.10590 -0.10661
 C434 C -0.07531 0.10005 -0.11454
 C435 C -0.05962 0.08388 -0.09827
 C436 C -0.06974 0.07319 -0.07353
 C437 C -0.09587 0.07921 -0.06539
 C438 C -0.11157 0.09544 -0.08163
 H439 H -0.21644 0.17717 -0.13966
 H440 H -0.18989 0.14977 -0.11101
 H441 H -0.13212 0.14148 -0.17650
 H442 H -0.15672 0.17048 -0.20493
 H443 H -0.15480 0.11634 -0.10674
 H444 H -0.10622 0.13397 -0.14060
 H445 H -0.06691 0.10800 -0.13349
 H446 H -0.03941 0.08003 -0.10492
 H447 H -0.10432 0.07117 -0.04652
 H448 H -0.13135 0.09981 -0.07419
 C449 C -0.19065 0.66448 0.34832
 C450 C -0.17531 0.64811 0.36473
 C451 C -0.14830 0.64424 0.35866
 C452 C -0.13700 0.65693 0.33544
 C453 C -0.15237 0.67333 0.31902
 C454 C -0.17936 0.67730 0.32526
 C455 C -0.13311 0.62626 0.37659
 C456 C -0.10656 0.62573 0.37757
 C457 C -0.09172 0.60755 0.39553
 C458 C -0.06549 0.60120 0.38821
 C459 C -0.05073 0.58424 0.40458
 C460 C -0.06179 0.57347 0.42886
 C461 C -0.08792 0.58012 0.43644
 C462 C -0.10272 0.59702 0.42003
 H463 H -0.21149 0.66675 0.35342
 H464 H -0.18462 0.63840 0.38229
 H465 H -0.11651 0.65403 0.32944
 H466 H -0.14304 0.68302 0.30148
 H467 H -0.14457 0.61303 0.38960
 H468 H -0.09488 0.63868 0.36449
 H469 H -0.05644 0.60928 0.36964
 H470 H -0.03050 0.57985 0.39843
 H471 H -0.09702 0.57208 0.45499
 H472 H -0.12253 0.60205 0.42693
 C473 C 0.30648 0.16534 0.34525
 C474 C 0.32232 0.14942 0.36164
 C475 C 0.34944 0.14637 0.35554
 C476 C 0.36033 0.15937 0.33231
 C477 C 0.34447 0.17530 0.31592
 C478 C 0.31737 0.17848 0.32220
 C479 C 0.36521 0.12889 0.37344
 C480 C 0.39175 0.12939 0.37456
 C481 C 0.40720 0.11161 0.39240
 C482 C 0.43364 0.10621 0.38506
 C483 C 0.44891 0.08952 0.40122
 C484 C 0.43814 0.07808 0.42530
 C485 C 0.41181 0.08386 0.43295
 C486 C 0.39651 0.10049 0.41675
 H487 H 0.28559 0.16701 0.35039
 H488 H 0.31333 0.13944 0.37920
 H489 H 0.38090 0.15706 0.32629
 H490 H 0.35349 0.18527 0.29838
 H491 H 0.35420 0.11515 0.38628
 H492 H 0.40296 0.14288 0.36165
 H493 H 0.44246 0.11477 0.36661
 H494 H 0.46927 0.08579 0.39502
 H495 H 0.40293 0.07529 0.45135
 H496 H 0.37652 0.10481 0.42366
 C497 C 0.35074 0.68076 -0.18949
 C498 C 0.36818 0.66593 -0.17376
 C499 C 0.35939 0.65341 -0.14947
 C500 C 0.33278 0.65652 -0.14091
 C501 C 0.31535 0.67138 -0.15664
 C502 C 0.32410 0.68360 -0.18114
 C503 C 0.37876 0.63802 -0.13346
 C504 C 0.37186 0.61918 -0.11529
 C505 C 0.39125 0.60374 -0.09936
 C506 C 0.38260 0.59153 -0.07486
 C507 C 0.40001 0.57651 -0.05930
 C508 C 0.42646 0.57313 -0.06807
 C509 C 0.43509 0.58510 -0.09276
 C510 C 0.41769 0.60018 -0.10830
 H511 H 0.35823 0.69032 -0.20801
 H512 H 0.38862 0.66414 -0.18068
 H513 H 0.32531 0.64796 -0.12191
 H514 H 0.29492 0.67312 -0.14970
 H515 H 0.39949 0.64235 -0.13726
 H516 H 0.35115 0.61484 -0.11145
 H517 H 0.36228 0.59369 -0.06766
 H518 H 0.39263 0.56717 -0.04062
 H519 H 0.45538 0.58293 -0.10001
 H520 H 0.42500 0.60853 -0.12747
 C521 C -0.16673 -0.15907 0.19426
 C522 C -0.15124 -0.14143 0.17885
 C523 C -0.14379 -0.14674 0.15172
 C524 C -0.15247 -0.17004 0.14007
 C525 C -0.16811 -0.18770 0.15537
 C526 C -0.17566 -0.18262 0.18285
 C527 C -0.12804 -0.12700 0.13596
 C528 C -0.11251 -0.13274 0.11423
 C529 C -0.09691 -0.11283 0.09857
 C530 C -0.07401 -0.12063 0.08409
 C531 C -0.05896 -0.10249 0.06881
 C532 C -0.06671 -0.07616 0.06741
 C533 C -0.08983 -0.06840 0.08161
 C534 C -0.10481 -0.08651 0.09698
 H535 H -0.17259 -0.15335 0.21473
 H536 H -0.14517 -0.12339 0.18819
 H537 H -0.14766 -0.17461 0.11899
 H538 H -0.17349 -0.20565 0.14557
 H539 H -0.12844 -0.10722 0.14343
 H540 H -0.11000 -0.15289 0.10836
 H541 H -0.06768 -0.14083 0.08469
 H542 H -0.04148 -0.10914 0.05773
 H543 H -0.09626 -0.04824 0.08097
 H544 H -0.12277 -0.07987 0.10715
 C545 C -0.16275 0.30212 0.65704
 C546 C -0.14515 0.31718 0.64100
 C547 C -0.13849 0.34258 0.64870
 C548 C -0.14924 0.35235 0.67335
 C549 C -0.16685 0.33728 0.68940
 C550 C -0.17397 0.31207 0.68133
 C551 C -0.12000 0.35794 0.63078
 C552 C -0.11891 0.38411 0.63060
 C553 C -0.10117 0.39963 0.61200
 C554 C -0.10742 0.42592 0.60690
 C555 C -0.09133 0.44135 0.58959
 C556 C -0.06845 0.43087 0.57707
 C557 C -0.06195 0.40465 0.58246
 C558 C -0.07803 0.38920 0.59980
 H559 H -0.16742 0.28258 0.65052
 H560 H -0.13689 0.30903 0.62232
 H561 H -0.14397 0.37148 0.68055
 H562 H -0.17520 0.34555 0.70795
 H563 H -0.10810 0.34716 0.61613
 H564 H -0.13259 0.39492 0.64348
 H565 H -0.12493 0.43455 0.61627
 H566 H -0.09663 0.46161 0.58630
 H567 H -0.04451 0.39596 0.57305
 H568 H -0.07199 0.36929 0.60381
 C569 C 0.33432 -0.19530 0.64930
 C570 C 0.35144 -0.18043 0.63249
 C571 C 0.35844 -0.15498 0.63970
 C572 C 0.34842 -0.14490 0.66453
 C573 C 0.33129 -0.15977 0.68131
 C574 C 0.32395 -0.18511 0.67386
 C575 C 0.37671 -0.13995 0.62122
 C576 C 0.37818 -0.11379 0.62091
 C577 C 0.39608 -0.09856 0.60223
 C578 C 0.39039 -0.07209 0.59746
 C579 C 0.40684 -0.05679 0.58039
 C580 C 0.42952 -0.06758 0.56778
 C581 C 0.43539 -0.09403 0.57272
 C582 C 0.41894 -0.10935 0.58983
 H583 H 0.32947 -0.21493 0.64321
 H584 H 0.35913 -0.18880 0.61369
 H585 H 0.35398 -0.12573 0.67135
 H586 H 0.32357 -0.15131 0.70005
 H587 H 0.38826 -0.15096 0.60648
 H588 H 0.36482 -0.10275 0.63392
 H589 H 0.37312 -0.06318 0.60699
 H590 H 0.40202 -0.03637 0.57745
 H591 H 0.45266 -0.10295 0.56323
 H592 H 0.42455 -0.12943 0.59357
 C593 C 0.32701 0.34467 0.19214
 C594 C 0.34303 0.36228 0.17728
 C595 C 0.35512 0.35509 0.15236
 C596 C 0.35059 0.32985 0.14243
 C597 C 0.33456 0.31222 0.15732
 C598 C 0.32254 0.31945 0.18232
 C599 C 0.37118 0.37485 0.13694
 C600 C 0.38924 0.36898 0.11741
 C601 C 0.40485 0.38897 0.10182
 C602 C 0.42882 0.38158 0.08905
 C603 C 0.44385 0.39968 0.07369
 C604 C 0.43512 0.42558 0.07056
 C605 C 0.41103 0.43295 0.08317
 C606 C 0.39599 0.41486 0.09850
 H607 H 0.31766 0.35103 0.21106
 H608 H 0.34590 0.38167 0.18526
 H609 H 0.35886 0.32371 0.12296
 H610 H 0.33161 0.29289 0.14926
 H611 H 0.36855 0.39498 0.14281
 H612 H 0.39372 0.34875 0.11326
 H613 H 0.43595 0.36171 0.09097
 H614 H 0.46209 0.39326 0.06385
 H615 H 0.40381 0.45278 0.08127
 H616 H 0.37725 0.42122 0.10722
 C617 C 0.19054 0.15684 0.16111
 C618 C 0.17540 0.14145 0.14399
 C619 C 0.14878 0.14757 0.13924
 C620 C 0.13773 0.16987 0.15154
 C621 C 0.15290 0.18530 0.16865
 C622 C 0.17945 0.17889 0.17373
 C623 C 0.13360 0.13064 0.12082
 C624 C 0.10706 0.12905 0.12127
 C625 C 0.09208 0.11145 0.10335
 C626 C 0.06644 0.10369 0.11160
 C627 C 0.05171 0.08699 0.09544
 C628 C 0.06223 0.07783 0.07048
 C629 C 0.08771 0.08599 0.06194
 C630 C 0.10245 0.10268 0.07811
 H631 H 0.21107 0.15165 0.16419
 H632 H 0.18451 0.12459 0.13453
 H633 H 0.11755 0.17576 0.14777
 H634 H 0.14376 0.20211 0.17814
 H635 H 0.14499 0.11797 0.10750
 H636 H 0.09572 0.13985 0.13637
 H637 H 0.05784 0.11042 0.13076
 H638 H 0.03195 0.08146 0.10235
 H639 H 0.09642 0.07921 0.04288
 H640 H 0.12176 0.10885 0.07054
 C641 C 0.14659 0.68967 0.67919
 C642 C 0.12941 0.67448 0.66399
 C643 C 0.13839 0.65160 0.65136
 C644 C 0.16491 0.64390 0.65475
 C645 C 0.18209 0.65910 0.66992
 C646 C 0.17316 0.68218 0.68228
 C647 C 0.11933 0.63596 0.63569
 C648 C 0.12671 0.61894 0.61633
 C649 C 0.10781 0.60317 0.60060
 C650 C 0.11662 0.59221 0.57585
 C651 C 0.09979 0.57670 0.56062
 C652 C 0.07372 0.57164 0.56988
 C653 C 0.06490 0.58248 0.59474
 C654 C 0.08175 0.59797 0.61001
 H655 H 0.13895 0.70708 0.68886
 H656 H 0.10902 0.68070 0.66202
 H657 H 0.17247 0.62598 0.64616
 H658 H 0.20247 0.65285 0.67180
 H659 H 0.09850 0.63965 0.63955
 H660 H 0.14747 0.61708 0.61075
 H661 H 0.13666 0.59562 0.56827
 H662 H 0.10737 0.56826 0.54182
 H663 H 0.04489 0.57907 0.60237
 H664 H 0.07434 0.60534 0.62934
 C665 C 0.64635 0.19320 0.67258
 C666 C 0.62997 0.17895 0.65558
 C667 C 0.63898 0.15576 0.64363
 C668 C 0.66503 0.14739 0.64849
 C669 C 0.68145 0.16168 0.66541
 C670 C 0.67228 0.18469 0.67776
 C671 C 0.62102 0.14126 0.62565
 C672 C 0.62291 0.11546 0.62181
 C673 C 0.60484 0.10071 0.60420
 C674 C 0.60128 0.07393 0.60938
 C675 C 0.58476 0.05917 0.59302
 C676 C 0.57168 0.07084 0.57086
 C677 C 0.57547 0.09760 0.56544
 C678 C 0.59189 0.11241 0.58191
 H679 H 0.63859 0.21071 0.68196
 H680 H 0.61005 0.18591 0.65201
 H681 H 0.67304 0.13014 0.63885
 H682 H 0.70152 0.15494 0.66843
 H683 H 0.60492 0.15207 0.61658
 H684 H 0.63738 0.10428 0.63310
 H685 H 0.61126 0.06438 0.62621
 H686 H 0.58258 0.03850 0.59743
 H687 H 0.56561 0.10712 0.54853
 H688 H 0.59474 0.13283 0.57676
 C689 C 0.69202 0.65233 0.16894
 C690 C 0.67610 0.63614 0.15345
 C691 C 0.64968 0.64280 0.14840
 C692 C 0.63935 0.66598 0.15949
 C693 C 0.65527 0.68217 0.17505
 C694 C 0.68178 0.67551 0.18001
 C695 C 0.63338 0.62459 0.13252
 C696 C 0.61175 0.63189 0.11886
 C697 C 0.59580 0.61347 0.10284
 C698 C 0.58110 0.62317 0.08085
 C699 C 0.56587 0.60640 0.06524
 C700 C 0.56476 0.57957 0.07156
 C701 C 0.57908 0.56993 0.09392
 C702 C 0.59439 0.58667 0.10944
 H703 H 0.71244 0.64678 0.17208
 H704 H 0.68452 0.61835 0.14527
 H705 H 0.61884 0.67139 0.15685
 H706 H 0.64662 0.69960 0.18377
 H707 H 0.64034 0.60467 0.13105
 H708 H 0.60620 0.65228 0.11802
 H709 H 0.58157 0.64378 0.07557
 H710 H 0.55471 0.61447 0.04842
 H711 H 0.57868 0.54934 0.09923
 H712 H 0.60476 0.57858 0.12677
   
