data_POSCAR
  _audit_creation_date              2014-09-24
  _audit_creation_method            'ToBaCCo'
  _symmetry_space_group_name_H-M    'P1'
  _symmetry_Int_Tables_number       1
  _symmetry_cell_setting            triclinic
  loop_
  _symmetry_equiv_pos_as_xyz
 x,y,z
_cell_length_a 37.2732
_cell_length_b 36.3434
_cell_length_c 37.9257
_cell_angle_alpha 90.307200
_cell_angle_beta 90.141100
_cell_angle_gamma 89.106600
loop_
  _atom_site_label
  _atom_site_type_symbol
  _atom_site_fract_x
  _atom_site_fract_y
  _atom_site_fract_z
C1 C 0.16961 0.11976 0.18224
 C2 C 0.15317 0.10606 0.21264
 C3 C 0.11948 0.11992 0.22421
 C4 C 0.10137 0.14564 0.20261
 C5 C 0.11771 0.15985 0.17261
 C6 C 0.15212 0.14734 0.16255
 C7 C 0.20409 0.10754 0.17249
 C8 C 0.22214 0.12300 0.14343
 C9 C 0.20413 0.15119 0.12430
 C10 C 0.16948 0.16341 0.13365
 C11 C 0.15249 0.19262 0.11561
 C12 C 0.11826 0.20552 0.12600
 C13 C 0.10082 0.18829 0.15399
 H14 H 0.16769 0.08566 0.22806
 H15 H 0.07485 0.15589 0.20895
 H16 H 0.21684 0.08706 0.18897
 H17 H 0.21703 0.16407 0.10206
 H18 H 0.16629 0.20606 0.09422
 H19 H 0.07514 0.19883 0.16320
 C20 C -0.19343 0.85647 0.20263
 C21 C -0.17463 0.86537 0.23378
 C22 C -0.14482 0.84393 0.24550
 C23 C -0.13438 0.81326 0.22453
 C24 C -0.15291 0.80408 0.19354
 C25 C -0.18250 0.82562 0.18255
 C26 C -0.22310 0.87795 0.19148
 C27 C -0.24242 0.86908 0.16034
 C28 C -0.23075 0.83776 0.14079
 C29 C -0.20121 0.81613 0.15157
 C30 C -0.19031 0.78491 0.13187
 C31 C -0.16058 0.76316 0.14258
 C32 C -0.14215 0.77329 0.17353
 H33 H -0.18357 0.88917 0.24890
 H34 H -0.11198 0.79574 0.23166
 H35 H -0.23053 0.90141 0.20754
 H36 H -0.24467 0.82978 0.11689
 H37 H -0.20554 0.77742 0.10868
 H38 H -0.11916 0.75711 0.18224
 C39 C -0.19642 0.15477 -0.20984
 C40 C -0.18069 0.14089 -0.24062
 C41 C -0.15190 0.15876 -0.25666
 C42 C -0.13759 0.19022 -0.24023
 C43 C -0.15293 0.20439 -0.20886
 C44 C -0.18266 0.18657 -0.19386
 C45 C -0.22633 0.13746 -0.19550
 C46 C -0.24360 0.15150 -0.16506
 C47 C -0.22901 0.18316 -0.14890
 C48 C -0.19883 0.20059 -0.16302
 C49 C -0.18498 0.23215 -0.14691
 C50 C -0.15576 0.25085 -0.16170
 C51 C -0.13965 0.23639 -0.19257
 H52 H -0.19104 0.11582 -0.25208
 H53 H -0.11516 0.20401 -0.25222
 H54 H -0.23644 0.11393 -0.20956
 H55 H -0.24120 0.19469 -0.12531
 H56 H -0.19700 0.24177 -0.12255
 H57 H -0.11715 0.25034 -0.20425
 C58 C 0.19001 0.86137 -0.19130
 C59 C 0.16865 0.87442 -0.21939
 C60 C 0.13793 0.85516 -0.23074
 C61 C 0.12845 0.82330 -0.21229
 C62 C 0.15019 0.80947 -0.18526
 C63 C 0.18117 0.82822 -0.17467
 C64 C 0.22066 0.88035 -0.18041
 C65 C 0.24342 0.86612 -0.15378
 C66 C 0.23444 0.83248 -0.13773
 C67 C 0.20361 0.81329 -0.14809
 C68 C 0.19533 0.77885 -0.13331
 C69 C 0.16513 0.75956 -0.14526
 C70 C 0.14218 0.77580 -0.17015
 H71 H 0.17641 0.89935 -0.23276
 H72 H 0.10600 0.80690 -0.22060
 H73 H 0.22632 0.90640 -0.19270
 H74 H 0.25175 0.82087 -0.11752
 H75 H 0.21284 0.76656 -0.11363
 H76 H 0.11822 0.76156 -0.17852
 C77 C 0.11768 1.16888 0.81543
 C78 C 0.10069 1.15098 0.78733
 C79 C 0.11647 1.11962 0.77110
 C80 C 0.14838 1.10495 0.78594
 C81 C 0.16542 1.12248 0.81425
 C82 C 0.15036 1.15495 0.82862
 C83 C 0.10321 1.20178 0.82904
 C84 C 0.12157 1.22218 0.85507
 C85 C 0.15392 1.20711 0.86873
 C86 C 0.16845 1.17401 0.85551
 C87 C 0.20172 1.16065 0.86763
 C88 C 0.21736 1.12845 0.85315
 C89 C 0.19828 1.10895 0.82714
 H90 H 0.07657 1.16372 0.77702
 H91 H 0.16096 1.08052 0.77465
 H92 H 0.07771 1.21098 0.81860
 H93 H 0.16878 1.22169 0.88889
 H94 H 0.21593 1.17609 0.88765
 H95 H 0.20886 1.08347 0.81631
 C96 C 0.84182 0.80502 0.79992
 C97 C 0.85654 0.82223 0.76998
 C98 C 0.84035 0.85440 0.75521
 C99 C 0.80813 0.86786 0.77070
 C100 C 0.79330 0.85129 0.80039
 C101 C 0.81030 0.82009 0.81514
 C102 C 0.85764 0.77286 0.81488
 C103 C 0.84177 0.75554 0.84438
 C104 C 0.81165 0.77285 0.85995
 C105 C 0.79564 0.80405 0.84535
 C106 C 0.76466 0.81901 0.86077
 C107 C 0.74651 0.84901 0.84548
 C108 C 0.76134 0.86539 0.81543
 H109 H 0.88090 0.81074 0.75858
 H110 H 0.79329 0.89070 0.75954
 H111 H 0.88142 0.76077 0.80285
 H112 H 0.80056 0.76281 0.88433
 H113 H 0.75484 0.80701 0.88488
 H114 H 0.74790 0.88896 0.80362
 C115 C 0.17103 0.79865 1.19492
 C116 C 0.15878 0.81211 1.22757
 C117 C 0.17484 0.84279 1.24367
 C118 C 0.20346 0.86007 1.22631
 C119 C 0.21631 0.84665 1.19395
 C120 C 0.19971 0.81617 1.17806
 C121 C 0.15566 0.76742 1.17924
 C122 C 0.16879 0.75325 1.14686
 C123 C 0.19585 0.77283 1.12948
 C124 C 0.21180 0.80325 1.14517
 C125 C 0.24048 0.82020 1.12851
 C126 C 0.25891 0.84889 1.14510
 C127 C 0.24595 0.86278 1.17746
 H128 H 0.13692 0.79838 1.24062
 H129 H 0.21565 0.88431 1.23745
 H130 H 0.13434 0.75353 1.19297
 H131 H 0.20484 0.76508 1.10341
 H132 H 0.24867 0.81042 1.10271
 H133 H 0.25948 0.88542 1.19027
 C134 C 0.85035 1.19852 1.21450
 C135 C 0.86423 1.17903 1.24382
 C136 C 0.84521 1.14948 1.25896
 C137 C 0.81294 1.13892 1.24248
 C138 C 0.79866 1.15842 1.21397
 C139 C 0.81705 1.18846 1.20004
 C140 C 0.86898 1.22805 1.19953
 C141 C 0.85434 1.24807 1.17075
 C142 C 0.82080 1.23763 1.15712
 C143 C 0.80217 1.20810 1.17139
 C144 C 0.76870 1.19800 1.15753
 C145 C 0.75008 1.16823 1.17176
 C146 C 0.76584 1.14809 1.19938
 H147 H 0.88950 1.18755 1.25519
 H148 H 0.79838 1.11519 1.25101
 H149 H 0.89497 1.23480 1.21023
 H150 H 0.80891 1.25264 1.13530
 H151 H 0.75704 1.21344 1.13585
 H152 H 0.75280 1.12399 1.20961
 N153 N 0.54017 1.06941 1.05817
 N154 N 0.56777 1.07591 1.07888
 N155 N 0.46239 1.09214 1.03856
 N156 N 0.43205 1.11100 1.04142
 N157 N 0.46481 1.06690 1.06315
 N158 N 0.43581 1.06786 1.08323
 N159 N 0.53757 1.09435 1.03334
 N160 N 0.56375 1.11829 1.03616
 C161 C 0.58227 1.10630 1.06473
 C162 C 0.41586 1.09587 1.06954
 N163 N 0.45622 1.06490 0.93875
 N164 N 0.42590 1.06611 0.92084
 N165 N 0.53176 1.09332 0.95800
 N166 N 0.55943 1.11501 0.95397
 N167 N 0.53166 1.06740 0.93376
 N168 N 0.55959 1.07073 0.91263
 N169 N 0.45657 1.09070 0.96311
 N170 N 0.42631 1.11007 0.96253
 Mn171 Mn 0.49707 1.09305 0.99824
 C172 C 0.40764 1.09451 0.93583
 C173 C 0.57642 1.10082 0.92544
 N174 N 0.46918 0.98811 1.06407
 N175 N 0.44259 0.98486 1.08660
 N176 N 0.54342 0.96410 1.03415
 N177 N 0.57067 0.94084 1.03727
 N178 N 0.54459 0.98964 1.05877
 N179 N 0.57290 0.98415 1.07946
 N180 N 0.46827 0.96201 1.04004
 N181 N 0.44107 0.94000 1.04583
 Mn182 Mn 0.50481 1.02856 1.06151
 C183 C 0.42542 0.95467 1.07500
 C184 C 0.58900 0.95358 1.06550
 N185 N 0.53466 0.98846 0.93410
 N186 N 0.56090 0.98537 0.91099
 N187 N 0.46225 0.96080 0.96429
 N188 N 0.43560 0.93742 0.96278
 N189 N 0.45925 0.98546 0.93922
 N190 N 0.43038 0.97923 0.91978
 N191 N 0.53746 0.96287 0.95829
 N192 N 0.56559 0.94128 0.95199
 Mn193 Mn 0.49541 1.02659 0.93598
 Mn194 Mn 0.50287 0.96202 0.99920
 Cl195 Cl 0.50008 1.02749 0.99874
 C196 C 0.57988 0.95580 0.92243
 C197 C 0.41590 0.94911 0.93490
 N198 N -0.02190 0.46512 -0.06701
 N199 N -0.02330 0.43788 -0.09018
 N200 N -0.04926 0.54228 -0.04173
 N201 N -0.07122 0.57006 -0.04953
 N202 N -0.02105 0.54257 -0.06247
 N203 N -0.02279 0.57052 -0.08446
 N204 N -0.05004 0.46479 -0.04619
 N205 N -0.07140 0.43749 -0.05484
 C206 C -0.05439 0.42094 -0.08234
 C207 C -0.05411 0.58754 -0.07610
 N208 N -0.03706 0.53403 0.06195
 N209 N -0.04365 0.55989 0.08559
 N210 N -0.05946 0.45956 0.02960
 N211 N -0.08293 0.43256 0.03128
 N212 N -0.03689 0.45732 0.05620
 N213 N -0.04436 0.42934 0.07663
 N214 N -0.05868 0.53764 0.03470
 N215 N -0.08053 0.56642 0.03921
 Mn216 Mn -0.05498 0.50120 -0.00598
 C217 C -0.07077 0.57993 0.07126
 C218 C -0.07294 0.41395 0.06086
 N219 N 0.05554 0.54066 -0.05282
 N220 N 0.06382 0.56926 -0.07239
 N221 N 0.07697 0.46195 -0.03033
 N222 N 0.09675 0.43153 -0.03155
 N223 N 0.05486 0.46341 -0.05729
 N224 N 0.05895 0.43408 -0.07755
 N225 N 0.07625 0.53913 -0.02484
 N226 N 0.09879 0.56670 -0.02420
 Mn227 Mn 0.01690 0.50291 -0.06032
 C228 C 0.09074 0.58523 -0.05401
 C229 C 0.08541 0.41468 -0.06134
 N230 N 0.03984 0.45465 0.06469
 N231 N 0.04111 0.42304 0.08188
 N232 N 0.06681 0.53382 0.04969
 N233 N 0.08742 0.56168 0.05778
 N234 N 0.03930 0.53243 0.07111
 N235 N 0.04030 0.55961 0.09437
 N236 N 0.06794 0.45746 0.04419
 N237 N 0.08937 0.42860 0.04724
 Mn238 Mn 0.00124 0.49448 0.06387
 Mn239 Mn 0.07228 0.49820 0.00970
 Cl240 Cl 0.00869 0.49923 0.00178
 C241 C 0.07250 0.40746 0.07085
 C242 C 0.07064 0.57742 0.08569
 N243 N 0.95616 0.03383 0.54145
 N244 N 0.93539 0.04285 0.56840
 N245 N 0.97876 0.05594 0.46584
 N246 N 0.97622 0.07839 0.43879
 N247 N 0.95109 0.03406 0.46714
 N248 N 0.92882 0.04127 0.44070
 N249 N 0.98369 0.05587 0.53979
 N250 N 0.98271 0.08010 0.56586
 C251 C 0.95250 0.07155 0.58353
 C252 C 0.94499 0.06911 0.42333
 N253 N 1.07740 0.01823 0.45940
 N254 N 1.09597 0.01789 0.42995
 N255 N 1.05981 0.04636 0.53460
 N256 N 1.06303 0.06416 0.56472
 N257 N 1.08232 0.01826 0.53321
 N258 N 1.10171 0.01650 0.56240
 N259 N 1.05496 0.04635 0.46039
 N260 N 1.05746 0.06588 0.43125
 Mn261 Mn 1.01939 0.05151 0.50012
 C262 C 1.08346 0.04787 0.41280
 C263 C 1.08956 0.04562 0.58152
 N264 N 0.94311 -0.04503 0.46756
 N265 N 0.91994 -0.04522 0.44123
 N266 N 0.97085 -0.07409 0.53954
 N267 N 0.96616 -0.09712 0.56582
 N268 N 0.94851 -0.04585 0.54197
 N269 N 0.92799 -0.04910 0.57027
 N270 N 0.96542 -0.07332 0.46525
 N271 N 0.95789 -0.09347 0.43707
 Mn272 Mn 0.94917 -0.00573 0.50464
 C273 C 0.92925 -0.07565 0.42249
 C274 C 0.93942 -0.08133 0.58489
 N275 N 1.07515 -0.06000 0.53206
 N276 N 1.09690 -0.06259 0.55915
 N277 N 1.04263 -0.08234 0.46024
 N278 N 1.04355 -0.10510 0.43288
 N279 N 1.06981 -0.05984 0.45915
 N280 N 1.09013 -0.06682 0.43151
 N281 N 1.04788 -0.08214 0.53535
 N282 N 1.05026 -0.09991 0.56580
 Mn283 Mn 1.07643 -0.02086 0.49591
 Mn284 Mn 1.00663 -0.07858 0.50006
 Cl285 Cl 1.01274 -0.01348 0.50021
 C286 C 1.08146 -0.08757 0.57995
 C287 C 1.07346 -0.09498 0.41530
 C288 C 1.11472 0.07430 0.30965
 C289 C 1.08474 0.09148 0.32513
 N290 N 1.06556 0.11671 0.30659
 C291 C 1.07514 0.12600 0.27332
 C292 C 1.10596 0.10944 0.25756
 N293 N 1.12455 0.08375 0.27665
 N294 N 1.13396 0.04889 0.32805
 C295 C 1.12450 0.03996 0.36143
 C296 C 1.09467 0.05751 0.37717
 N297 N 1.07540 0.08286 0.35855
 H298 H 1.05906 0.14690 0.26059
 H299 H 1.14022 0.01950 0.37553
 C300 C 0.87775 -0.10645 0.32728
 C301 C 0.90715 -0.12681 0.34011
 N302 N 0.91920 -0.15646 0.32162
 C303 C 0.90331 -0.16687 0.29089
 C304 C 0.87338 -0.14663 0.27745
 N305 N 0.86176 -0.11676 0.29660
 N306 N 0.86564 -0.07666 0.34568
 C307 C 0.88165 -0.06633 0.37638
 C308 C 0.91121 -0.08671 0.38943
 N309 N 0.92324 -0.11660 0.37082
 H310 H 0.91455 -0.19074 0.27786
 H311 H 0.87140 -0.04238 0.39039
 C312 C 0.91225 0.12845 0.67298
 C313 C 0.88934 0.10957 0.64992
 N314 N 0.85363 0.10950 0.65622
 C315 C 0.83971 0.12658 0.68509
 C316 C 0.86260 0.14393 0.70953
 N317 N 0.89847 0.14497 0.70242
 N318 N 0.94796 0.12916 0.66588
 C319 C 0.96173 0.11164 0.63694
 C320 C 0.93885 0.09185 0.61447
 N321 N 0.90314 0.09148 0.62157
 H322 H 0.81098 0.12627 0.68897
 H323 H 0.99029 0.11249 0.63193
 C324 C 1.12323 -0.10635 0.68182
 C325 C 1.09007 -0.12118 0.67209
 N326 N 1.07171 -0.14118 0.69587
 C327 C 1.08548 -0.14808 0.72846
 C328 C 1.11974 -0.13461 0.73792
 N329 N 1.13703 -0.11327 0.71419
 N330 N 1.14188 -0.08640 0.65834
 C331 C 1.12894 -0.08063 0.62540
 C332 C 1.09578 -0.09558 0.61528
 N333 N 1.07690 -0.11545 0.63904
 H334 H 1.06932 -0.16352 0.74654
 H335 H 1.14451 -0.06440 0.60733
 C336 C 0.30971 1.12378 1.09952
 C337 C 0.32786 1.09408 1.11527
 N338 N 0.31069 1.07371 1.13962
 C339 C 0.27633 1.08181 1.14933
 C340 C 0.25775 1.11217 1.13398
 N341 N 0.27548 1.13195 1.10915
 N342 N 0.32659 1.14407 1.07486
 C343 C 0.36088 1.13591 1.06517
 C344 C 0.37926 1.10610 1.08088
 N345 N 0.36218 1.08581 1.10566
 H346 H 0.26417 1.06393 1.16827
 H347 H 0.37356 1.15245 1.04524
 C348 C 0.32139 0.89576 0.90118
 C349 C 0.33764 0.92199 0.87970
 N350 N 0.32335 0.92936 0.84753
 C351 C 0.29343 0.91198 0.83591
 C352 C 0.27648 0.88595 0.85758
 N353 N 0.29137 0.87854 0.88973
 N354 N 0.33603 0.88769 0.93305
 C355 C 0.36626 0.90460 0.94442
 C356 C 0.38266 0.93105 0.92307
 N357 N 0.36779 0.93916 0.89110
 H358 H 0.28369 0.91812 0.80973
 H359 H 0.37730 0.89750 0.96996
 C360 C 0.68150 0.89788 1.10461
 C361 C 0.66749 0.92856 1.12265
 N362 N 0.68356 0.93959 1.15298
 C363 C 0.71289 0.92138 1.16619
 C364 C 0.72725 0.89008 1.14825
 N365 N 0.71060 0.87969 1.11773
 N366 N 0.66571 0.88648 1.07433
 C367 C 0.63630 0.90429 1.06128
 C368 C 0.62176 0.93502 1.07930
 N369 N 0.63789 0.94654 1.10971
 H370 H 0.72414 0.93165 1.19043
 H371 H 0.62432 0.89435 1.03708
 C372 C 0.67457 1.14132 0.88734
 C373 C 0.66045 1.10861 0.87390
 N374 N 0.67877 1.08966 0.84874
 C375 C 0.71032 1.10212 0.83586
 C376 C 0.72456 1.13574 0.84851
 N377 N 0.70596 1.15395 0.87442
 N378 N 0.65651 1.16017 0.91283
 C379 C 0.62484 1.14776 0.92546
 C380 C 0.61041 1.11507 0.91183
 N381 N 0.62872 1.09619 0.88633
 H382 H 0.72371 1.08515 0.81644
 H383 H 0.61107 1.16333 0.94588
 C384 C 0.11298 0.30176 0.09481
 C385 C 0.07584 0.30902 0.09542
 N386 N 0.05303 0.28138 0.10269
 C387 C 0.06570 0.24707 0.11040
 C388 C 0.10304 0.24015 0.11156
 N389 N 0.12565 0.26775 0.10314
 N390 N 0.13587 0.32908 0.08686
 C391 C 0.12330 0.36343 0.07951
 C392 C 0.08623 0.37101 0.08079
 N393 N 0.06325 0.34353 0.08862
 H394 H 0.04678 0.22569 0.11620
 H395 H 0.14212 0.38470 0.07292
 C396 C -0.09396 0.32622 -0.13428
 C397 C -0.11607 0.34770 -0.11219
 N398 N -0.15074 0.33821 -0.10755
 C399 C -0.16430 0.30786 -0.12349
 C400 C -0.14206 0.28525 -0.14489
 N401 N -0.10734 0.29552 -0.14997
 N402 N -0.05943 0.33634 -0.13949
 C403 C -0.04603 0.36689 -0.12351
 C404 C -0.06803 0.38815 -0.10089
 N405 N -0.10262 0.37789 -0.09588
 H406 H -0.19235 0.30200 -0.11970
 H407 H -0.01839 0.37421 -0.12803
 C408 C 0.14216 0.68175 -0.08678
 C409 C 0.12805 0.65678 -0.11144
 N410 N 0.13024 0.66402 -0.14631
 C411 C 0.14477 0.69575 -0.15773
 C412 C 0.15675 0.72210 -0.13316
 N413 N 0.15583 0.71411 -0.09811
 N414 N 0.14040 0.67391 -0.05186
 C415 C 0.12476 0.64250 -0.04055
 C416 C 0.10932 0.61839 -0.06522
 N417 N 0.11161 0.62605 -0.10012
 H418 H 0.14566 0.70103 -0.18577
 H419 H 0.12350 0.63693 -0.01257
 C420 C -0.11376 0.67391 0.12344
 C421 C -0.12297 0.66686 0.08821
 N422 N -0.14474 0.69120 0.07100
 C423 C -0.15768 0.72218 0.08739
 C424 C -0.14847 0.72937 0.12291
 N425 N -0.12664 0.70463 0.13971
 N426 N -0.09158 0.65029 0.14078
 C427 C -0.07793 0.61988 0.12447
 C428 C -0.08685 0.61248 0.08908
 N429 N -0.10940 0.63624 0.07170
 H430 H -0.17422 0.74113 0.07242
 H431 H -0.06016 0.60169 0.13909
 C432 C 1.11593 0.07032 0.68686
 C433 C 1.08438 0.08396 0.67135
 N434 N 1.06200 0.10612 0.69018
 C435 C 1.07034 0.11662 0.72355
 C436 C 1.10338 0.10516 0.73883
 N437 N 1.12469 0.08132 0.71993
 N438 N 1.13806 0.04759 0.66803
 C439 C 1.13015 0.03837 0.63407
 C440 C 1.09914 0.05325 0.61819
 N441 N 1.07685 0.07539 0.63744
 H442 H 1.05101 0.13370 0.73730
 H443 H 1.14817 0.02032 0.61949
 C444 C 0.89705 -0.12976 0.67732
 C445 C 0.88453 -0.09530 0.66574
 N446 N 0.85867 -0.07743 0.68439
 C447 C 0.84416 -0.09252 0.71370
 C448 C 0.85569 -0.12792 0.72533
 N449 N 0.88251 -0.14512 0.70661
 N450 N 0.92331 -0.14749 0.65884
 C451 C 0.93745 -0.13237 0.62928
 C452 C 0.92471 -0.09789 0.61734
 N453 N 0.89849 -0.08014 0.63611
 H454 H 0.82464 -0.07600 0.72778
 H455 H 0.95831 -0.14727 0.61514
 C456 C 1.11366 -0.13934 0.31990
 C457 C 1.13465 -0.11685 0.34151
 N458 N 1.16853 -0.10876 0.33171
 C459 C 1.18240 -0.12167 0.30089
 C460 C 1.16118 -0.14337 0.27827
 N461 N 1.12729 -0.15190 0.28881
 N462 N 1.07994 -0.14798 0.33028
 C463 C 1.06623 -0.13486 0.36127
 C464 C 1.08708 -0.11169 0.38254
 N465 N 1.12085 -0.10340 0.37204
 H466 H 1.20986 -0.11529 0.29470
 H467 H 1.03921 -0.14188 0.36884
 C468 C 0.90531 0.12165 0.33148
 C469 C 0.88447 0.09614 0.34959
 N470 N 0.85100 0.08895 0.33796
 C471 C 0.83732 0.10569 0.30886
 C472 C 0.85821 0.13117 0.28973
 N473 N 0.89180 0.13845 0.30225
 N474 N 0.93870 0.12931 0.34351
 C475 C 0.95207 0.11266 0.37289
 C476 C 0.93117 0.08704 0.39115
 N477 N 0.89776 0.07938 0.37890
 H478 H 0.81000 0.09946 0.30215
 H479 H 0.97879 0.11936 0.38184
 C480 C 0.11721 0.30836 -0.09453
 C481 C 0.08884 0.32722 -0.11102
 N482 N 0.07108 0.31105 -0.13795
 C483 C 0.08036 0.27677 -0.14943
 C484 C 0.10927 0.25734 -0.13325
 N485 N 0.12672 0.27424 -0.10605
 N486 N 0.13497 0.32457 -0.06742
 C487 C 0.12553 0.35896 -0.05613
 C488 C 0.09721 0.37798 -0.07290
 N489 N 0.07954 0.36152 -0.09996
 H490 H 0.06559 0.26614 -0.17157
 H491 H 0.13996 0.37126 -0.03437
 C492 C -0.12253 0.32149 0.10616
 C493 C -0.09450 0.33949 0.12328
 N494 N -0.08325 0.32764 0.15537
 C495 C -0.09871 0.29842 0.17128
 C496 C -0.12687 0.27979 0.15425
 N497 N -0.13794 0.29220 0.12194
 N498 N -0.13416 0.33386 0.07424
 C499 C -0.11894 0.36356 0.05870
 C500 C -0.09072 0.38162 0.07585
 N501 N -0.07926 0.36893 0.10778
 H502 H -0.08937 0.29070 0.19720
 H503 H -0.12869 0.37286 0.03332
 C504 C -0.09566 0.68077 -0.13017
 C505 C -0.11731 0.66003 -0.10773
 N506 N -0.15221 0.66951 -0.10363
 C507 C -0.16641 0.69948 -0.11989
 C508 C -0.14457 0.72211 -0.14110
 N509 N -0.10969 0.71124 -0.14637
 N510 N -0.06077 0.67047 -0.13472
 C511 C -0.04669 0.64056 -0.11775
 C512 C -0.06833 0.62015 -0.09482
 N513 N -0.10324 0.63048 -0.09055
 H514 H -0.19484 0.70456 -0.11674
 H515 H -0.01881 0.63299 -0.12189
 C516 C 0.11056 0.67423 0.13187
 C517 C 0.12873 0.65579 0.10459
 N518 N 0.15989 0.66904 0.09227
 C519 C 0.17374 0.70042 0.10550
 C520 C 0.15539 0.72012 0.13252
 N521 N 0.12431 0.70580 0.14526
 N522 N 0.07936 0.66037 0.14425
 C523 C 0.06559 0.62891 0.13034
 C524 C 0.08392 0.61070 0.10281
 N525 N 0.11507 0.62470 0.09079
 H526 H 0.19949 0.70844 0.09551
 H527 H 0.04063 0.61844 0.14044
 C528 C 0.30205 1.12288 0.90537
 C529 C 0.32297 1.09823 0.88534
 N530 N 0.30935 1.08348 0.85540
 C531 C 0.27557 1.09215 0.84446
 C532 C 0.25401 1.11665 0.86461
 N533 N 0.26821 1.13140 0.89463
 N534 N 0.31607 1.13828 0.93496
 C535 C 0.35020 1.13005 0.94540
 C536 C 0.37110 1.10515 0.92538
 N537 N 0.35684 1.08981 0.89584
 H538 H 0.26650 1.08061 0.81980
 H539 H 0.36074 1.14252 0.96916
 C540 C 0.33221 0.91289 1.12194
 C541 C 0.35287 0.89134 1.09853
 N542 N 0.34323 0.85634 1.09140
 C543 C 0.31355 0.84190 1.10621
 C544 C 0.29192 0.86367 1.12894
 N545 N 0.30223 0.89867 1.13649
 N546 N 0.34255 0.94763 1.12980
 C547 C 0.37262 0.96177 1.11524
 C548 C 0.39304 0.94030 1.09145
 N549 N 0.38257 0.90556 1.08366
 H550 H 0.30753 0.81348 1.10062
 H551 H 0.38026 0.98958 1.12187
 C552 C 0.67544 1.15233 1.10832
 C553 C 0.65172 1.13203 1.12895
 N554 N 0.65906 1.12619 1.16344
 C555 C 0.68967 1.13883 1.17820
 C556 C 0.71476 1.15741 1.15727
 N557 N 0.70655 1.16429 1.12283
 N558 N 0.66737 1.15885 1.07392
 C559 C 0.63682 1.14549 1.05918
 C560 C 0.61388 1.12397 1.07962
 N561 N 0.62187 1.11802 1.11408
 H562 H 0.69416 1.13422 1.20601
 H563 H 0.63110 1.15062 1.03163
 C564 C 0.67259 0.91358 0.87199
 C565 C 0.65158 0.89116 0.89348
 N566 N 0.66071 0.85525 0.89755
 C567 C 0.69036 0.84075 0.88171
 C568 C 0.71259 0.86341 0.86130
 N569 N 0.70265 0.89932 0.85663
 N570 N 0.66266 0.94928 0.86703
 C571 C 0.63271 0.96356 0.88272
 C572 C 0.61212 0.94128 0.90484
 N573 N 0.62211 0.90554 0.90964
 H574 H 0.69605 0.81173 0.88494
 H575 H 0.62536 0.99211 0.87838
   
