data_POSCAR
  _audit_creation_date              2014-09-24
  _audit_creation_method            'ToBaCCo'
  _symmetry_space_group_name_H-M    'P1'
  _symmetry_Int_Tables_number       1
  _symmetry_cell_setting            triclinic
  loop_
  _symmetry_equiv_pos_as_xyz
 x,y,z
_cell_length_a 49.0104
_cell_length_b 49.2681
_cell_length_c 49.4293
_cell_angle_alpha 85.518600
_cell_angle_beta 93.390300
_cell_angle_gamma 86.811000
loop_
  _atom_site_label
  _atom_site_type_symbol
  _atom_site_fract_x
  _atom_site_fract_y
  _atom_site_fract_z
C1 C 0.21101 0.53509 1.05620
 H2 H 0.21281 0.55345 1.04307
 C3 C 0.19259 0.53505 1.07667
 H4 H 0.18174 0.55420 1.07940
 C5 C 0.22436 0.48869 1.06814
 H6 H 0.23620 0.47042 1.06415
 C7 C 0.20575 0.48749 1.08849
 H8 H 0.20384 0.46779 1.09916
 N9 N 0.22638 0.51215 1.05228
 C10 C 0.28825 0.54288 0.99971
 H11 H 0.28575 0.52944 0.98356
 C12 C 0.30840 0.56178 0.99875
 H13 H 0.32139 0.56271 0.98177
 C14 C 0.27532 0.55673 1.04222
 H15 H 0.26290 0.55419 1.05946
 C16 C 0.29539 0.57582 1.04217
 H17 H 0.29778 0.58828 1.05916
 Zn18 Zn 0.24752 0.51247 1.02151
 N19 N 0.27210 0.54079 1.02112
 C20 C 0.22246 0.53803 0.97138
 N21 N 0.22248 0.51667 0.99058
 C22 C 0.20370 0.49748 0.98892
 C23 C 0.18447 0.49876 0.96685
 C24 C 0.20342 0.54020 0.94898
 C25 C 0.28928 0.47432 1.04199
 C26 C 0.30828 0.45216 1.04164
 C27 C 0.28525 0.44050 0.99993
 C28 C 0.26685 0.46300 1.00096
 N29 N 0.26931 0.47951 1.02167
 H30 H 0.23708 0.55347 0.97341
 H31 H 0.20382 0.48103 1.00477
 H32 H 0.16967 0.48328 0.96596
 H33 H 0.20387 0.55711 0.93367
 H34 H 0.29103 0.48804 1.05797
 H35 H 0.32472 0.44917 1.05738
 H36 H 0.28305 0.42777 0.98315
 H37 H 0.25122 0.46770 0.98470
 C38 C 0.31232 0.57843 1.02027
 C39 C 0.18883 0.51077 1.09296
 C40 C 0.30672 0.43516 1.02012
 C41 C 0.18426 0.52023 0.94642
 C42 C 0.79104 0.50652 -0.05288
 H43 H 0.78885 0.52189 -0.03856
 C44 C 0.81047 0.50889 -0.07234
 H45 H 0.82316 0.52620 -0.07281
 C46 C 0.77843 0.46433 -0.06825
 H47 H 0.76669 0.44649 -0.06596
 C48 C 0.79770 0.46584 -0.08797
 H49 H 0.79994 0.44946 -0.10120
 N50 N 0.77538 0.48459 -0.05126
 C51 C 0.71095 0.51272 -0.00091
 H52 H 0.71246 0.49571 0.01444
 C53 C 0.69145 0.53416 0.00061
 H54 H 0.67791 0.53338 0.01715
 C55 C 0.72607 0.53359 -0.04173
 H56 H 0.73924 0.53300 -0.05846
 C57 C 0.70668 0.55545 -0.04109
 H58 H 0.70546 0.57182 -0.05714
 Zn59 Zn 0.75226 0.48169 -0.02187
 N60 N 0.72795 0.51290 -0.02166
 C61 C 0.77585 0.49656 0.02863
 N62 N 0.77574 0.47750 0.01015
 C63 C 0.79427 0.45572 0.01264
 C64 C 0.81435 0.45278 0.03407
 C65 C 0.79544 0.49428 0.05053
 C66 C 0.71542 0.44873 -0.04743
 C67 C 0.69604 0.42910 -0.04870
 C68 C 0.70598 0.41673 -0.00076
 C69 C 0.72591 0.43594 -0.00066
 N70 N 0.73001 0.45167 -0.02372
 H71 H 0.76143 0.51410 0.02593
 H72 H 0.79388 0.44104 -0.00253
 H73 H 0.82925 0.43558 0.03548
 H74 H 0.79581 0.51009 0.06457
 H75 H 0.71843 0.46208 -0.06530
 H76 H 0.68525 0.42696 -0.06807
 H77 H 0.70212 0.40574 0.01829
 H78 H 0.73704 0.43932 0.01821
 C79 C 0.68909 0.55590 -0.01966
 C80 C 0.81418 0.48825 -0.09006
 C81 C 0.69036 0.41324 -0.02497
 C82 C 0.81532 0.47243 0.05315
 C83 C -0.03638 0.28183 0.47692
 H84 H -0.05494 0.27285 0.48297
 C85 C -0.03751 0.30145 0.45479
 H86 H -0.05744 0.30712 0.44488
 C87 C 0.01097 0.28677 0.48521
 H88 H 0.02975 0.28123 0.49751
 C89 C 0.01102 0.30584 0.46287
 H90 H 0.03060 0.31325 0.45808
 N91 N -0.01240 0.27504 0.49168
 C92 C -0.05842 0.22916 0.54591
 H93 H -0.05448 0.24113 0.56298
 C94 C -0.07950 0.21112 0.54638
 H95 H -0.09201 0.20967 0.56371
 C96 C -0.04625 0.21558 0.50304
 H97 H -0.03273 0.21702 0.48653
 C98 C -0.06709 0.19750 0.50259
 H99 H -0.06936 0.18495 0.48566
 Zn100 Zn -0.01100 0.25152 0.52390
 N101 N -0.04222 0.23084 0.52449
 C102 C -0.03043 0.29305 0.55393
 N103 N -0.00908 0.27439 0.55299
 C104 C 0.01361 0.27445 0.57023
 C105 C 0.01537 0.29382 0.58935
 C106 C -0.02937 0.31301 0.57246
 C107 C 0.03145 0.22098 0.50169
 C108 C 0.05259 0.20080 0.50172
 C109 C 0.04912 0.19126 0.55000
 C110 C 0.02751 0.21113 0.54887
 N111 N 0.01960 0.22603 0.52511
 H112 H -0.04794 0.29299 0.53954
 H113 H 0.03087 0.26024 0.56858
 H114 H 0.03364 0.29342 0.60283
 H115 H -0.04617 0.32830 0.57193
 H116 H 0.02388 0.23192 0.48270
 H117 H 0.06086 0.19664 0.48256
 H118 H 0.05552 0.18042 0.56941
 H119 H 0.01697 0.21463 0.56701
 C120 C -0.08385 0.19482 0.52460
 C121 C -0.01361 0.31436 0.44734
 C122 C 0.06193 0.18564 0.52614
 C123 C -0.00608 0.31384 0.59032
 C124 C 0.99337 0.71150 0.50347
 H125 H 0.97717 0.71166 0.48760
 C126 C 0.99440 0.69205 0.52561
 H127 H 0.97904 0.67710 0.52647
 C128 C 1.03349 0.73041 0.52101
 H129 H 1.04884 0.74522 0.51896
 C130 C 1.03539 0.71118 0.54352
 H131 H 1.05202 0.71164 0.55887
 N132 N 1.01248 0.73041 0.50173
 C133 C 0.97089 0.79792 0.45073
 H134 H 0.98453 0.79962 0.43433
 C135 C 0.94961 0.81774 0.45211
 H136 H 0.94716 0.83467 0.43666
 C137 C 0.95929 0.77502 0.49203
 H138 H 0.96365 0.75894 0.50806
 C139 C 0.93761 0.79420 0.49405
 H140 H 0.92508 0.79208 0.51133
 Zn141 Zn 1.00857 0.75556 0.47057
 N142 N 0.97566 0.77744 0.47080
 C143 C 0.98446 0.73108 0.42582
 N144 N 1.00836 0.73470 0.44010
 C145 C 1.03195 0.72063 0.43529
 C146 C 1.03221 0.70216 0.41533
 C147 C 0.98356 0.71195 0.40637
 C148 C 1.03826 0.79641 0.49124
 C149 C 1.05676 0.81689 0.49166
 C150 C 1.07271 0.80332 0.44911
 C151 C 1.05367 0.78323 0.44937
 N152 N 1.03703 0.78005 0.47035
 H153 H 0.96577 0.74189 0.43059
 H154 H 1.05054 0.72328 0.44747
 H155 H 1.05151 0.69176 0.41172
 H156 H 0.96391 0.70828 0.39663
 H157 H 1.02437 0.79387 0.50735
 H158 H 1.05733 0.82982 0.50839
 H159 H 1.08544 0.80598 0.43203
 H160 H 1.05165 0.77091 0.43233
 C161 C 0.93302 0.81641 0.47436
 C162 C 1.01553 0.69178 0.54610
 C163 C 1.07414 0.82066 0.47029
 C164 C 1.00760 0.69672 0.40115
 C165 C 0.46139 -0.03714 0.29217
 H166 H 0.47661 -0.05405 0.29380
 C167 C 0.44109 -0.03622 0.31079
 H168 H 0.44102 -0.05250 0.32680
 C169 C 0.44453 0.00559 0.27052
 H170 H 0.44653 0.02244 0.25562
 C171 C 0.42373 0.00721 0.28854
 H172 H 0.40944 0.02492 0.28650
 N173 N 0.46279 -0.01642 0.27254
 C174 C 0.51667 -0.05362 0.21681
 H175 H 0.53259 -0.03927 0.21696
 C176 C 0.51832 -0.07532 0.20037
 H177 H 0.53553 -0.07664 0.18774
 C178 C 0.47404 -0.06695 0.23167
 H179 H 0.45663 -0.06332 0.24360
 C180 C 0.47462 -0.08877 0.21520
 H181 H 0.45785 -0.10212 0.21582
 Zn182 Zn 0.49336 -0.01789 0.25083
 N183 N 0.49482 -0.04982 0.23200
 C184 C 0.54337 -0.03838 0.27984
 N185 N 0.52458 -0.01691 0.27498
 C186 C 0.52608 0.00556 0.28916
 C187 C 0.54696 0.00701 0.30933
 C188 C 0.56467 -0.03777 0.29983
 C189 C 0.46819 0.01713 0.20808
 C190 C 0.46616 0.03830 0.18749
 C191 C 0.51340 0.04680 0.19845
 C192 C 0.51413 0.02619 0.21964
 N193 N 0.49167 0.01191 0.22408
 H194 H 0.54146 -0.05632 0.26880
 H195 H 0.51054 0.02211 0.28522
 H196 H 0.54720 0.02475 0.32094
 H197 H 0.57937 -0.05508 0.30351
 H198 H 0.45086 0.00490 0.21148
 H199 H 0.44667 0.04259 0.17615
 H200 H 0.53203 0.05685 0.19476
 H201 H 0.53295 0.02101 0.23194
 C202 C 0.49684 -0.09322 0.19878
 C203 C 0.42204 -0.01367 0.30931
 C204 C 0.48909 0.05336 0.18197
 C205 C 0.56648 -0.01497 0.31511
 C206 C 0.54525 -0.01256 0.71838
 H207 H 0.53160 -0.02902 0.72034
 C208 C 0.56574 -0.01340 0.69997
 H209 H 0.56764 -0.03064 0.68776
 C210 C 0.55777 0.03088 0.73051
 H211 H 0.55403 0.04846 0.74183
 C212 C 0.57852 0.03088 0.71232
 H213 H 0.59102 0.04828 0.71031
 N214 N 0.54142 0.00951 0.73289
 C215 C 0.48706 -0.02143 0.79303
 H216 H 0.46909 -0.00802 0.78719
 C217 C 0.48607 -0.04198 0.81390
 H218 H 0.46673 -0.04460 0.82288
 C219 C 0.53348 -0.03412 0.78728
 H220 H 0.55203 -0.03059 0.77707
 C221 C 0.53380 -0.05419 0.80898
 H222 H 0.55293 -0.06556 0.81521
 Zn223 Zn 0.50984 0.01128 0.75287
 N224 N 0.51029 -0.01824 0.77979
 C225 C 0.46303 -0.01079 0.72781
 N226 N 0.47951 0.01056 0.72728
 C227 C 0.47620 0.03101 0.70702
 C228 C 0.45544 0.03070 0.68646
 C229 C 0.44190 -0.01180 0.70781
 C230 C 0.52848 0.04490 0.79127
 C231 C 0.52791 0.06639 0.80801
 C232 C 0.48592 0.08464 0.78353
 C233 C 0.48723 0.06265 0.76730
 N234 N 0.50826 0.04329 0.77154
 H235 H 0.46660 -0.02752 0.74326
 H236 H 0.49010 0.04733 0.70659
 H237 H 0.45364 0.04685 0.67018
 H238 H 0.42893 -0.02888 0.70882
 H239 H 0.54471 0.02896 0.79448
 H240 H 0.54368 0.06657 0.82427
 H241 H 0.46893 0.09976 0.77999
 H242 H 0.47108 0.06074 0.75186
 C243 C 0.50980 -0.05850 0.82274
 C244 C 0.58234 0.00878 0.69633
 C245 C 0.50624 0.08649 0.80452
 C246 C 0.43801 0.00900 0.68659
 C247 C 0.22157 -0.02144 0.48578
 C248 C 0.23540 0.00057 0.49500
 C249 C 0.22049 0.02305 0.50375
 C250 C 0.19171 0.02411 0.50258
 C251 C 0.17820 0.00187 0.49317
 C252 C 0.19290 -0.02115 0.48520
 C253 C 0.26552 0.00013 0.49538
 C254 C 0.27871 -0.00152 0.47107
 C255 C 0.30736 -0.00146 0.47110
 C256 C 0.32266 -0.00062 0.49592
 C257 C 0.30977 0.00061 0.52047
 C258 C 0.28106 0.00142 0.51996
 H259 H 0.23320 -0.03886 0.47928
 H260 H 0.23144 0.03971 0.51127
 H261 H 0.26656 -0.00200 0.45209
 H262 H 0.27077 0.00224 0.53871
 H263 H 0.15608 0.00230 0.49220
 H264 H 0.34478 -0.00091 0.49614
 C265 C 0.78129 -0.01850 0.50171
 C266 C 0.76507 0.00449 0.50724
 C267 C 0.77744 0.02857 0.51288
 C268 C 0.80596 0.02998 0.51262
 C269 C 0.82200 0.00673 0.50713
 C270 C 0.80990 -0.01772 0.50192
 C271 C 0.73511 0.00329 0.50718
 C272 C 0.72169 0.00676 0.53104
 C273 C 0.69317 0.00532 0.53123
 C274 C 0.67815 0.00099 0.50698
 C275 C 0.69133 -0.00229 0.48283
 C276 C 0.71995 -0.00143 0.48325
 H277 H 0.77155 -0.03720 0.49804
 H278 H 0.76478 0.04621 0.51733
 H279 H 0.73354 0.01047 0.54946
 H280 H 0.73052 -0.00434 0.46496
 H281 H 0.84394 0.00788 0.50625
 H282 H 0.65611 0.00016 0.50692
 C283 C 0.51959 0.27760 0.99027
 C284 C 0.49536 0.26463 0.99509
 C285 C 0.47182 0.28000 1.00093
 C286 C 0.47237 0.30835 1.00208
 C287 C 0.49716 0.32083 0.99869
 C288 C 0.52087 0.30582 0.99232
 C289 C 0.49468 0.23492 0.99370
 C290 C 0.49140 0.21800 1.01732
 C291 C 0.49218 0.18945 1.01663
 C292 C 0.49551 0.17841 0.99152
 C293 C 0.49708 0.19522 0.96744
 C294 C 0.49740 0.22352 0.96882
 H295 H 0.53732 0.26554 0.98491
 H296 H 0.45293 0.26997 1.00356
 H297 H 0.48839 0.22729 1.03614
 H298 H 0.49890 0.23680 0.95049
 H299 H 0.49788 0.34240 1.00121
 H300 H 0.49725 0.15654 0.99051
 C301 C 0.52767 0.71481 0.00132
 C302 C 0.50408 0.72976 0.00773
 C303 C 0.47996 0.71649 0.01201
 C304 C 0.47919 0.68830 0.00978
 C305 C 0.50305 0.67349 0.00358
 C306 C 0.52743 0.68653 -0.00059
 C307 C 0.50473 0.75932 0.01014
 C308 C 0.50667 0.77715 -0.01314
 C309 C 0.50745 0.80549 -0.01119
 C310 C 0.50659 0.81534 0.01477
 C311 C 0.50364 0.79778 0.03801
 C312 C 0.50296 0.76969 0.03563
 H313 H 0.54621 0.72525 -0.00207
 H314 H 0.46184 0.72815 0.01711
 H315 H 0.50677 0.76875 -0.03272
 H316 H 0.50080 0.75593 0.05348
 H317 H 0.50265 0.65169 0.00208
 H318 H 0.50843 0.83679 0.01727
 C319 C 0.98988 0.52323 0.27479
 C320 C 0.98792 0.49772 0.26426
 C321 C 0.98323 0.47471 0.28154
 C322 C 0.97973 0.47710 0.30928
 C323 C 0.97951 0.50318 0.31895
 C324 C 0.98585 0.52617 0.30235
 C325 C 0.99217 0.49466 0.23539
 C326 C 1.01829 0.49692 0.22562
 C327 C 1.02266 0.49252 0.19850
 C328 C 1.00055 0.48666 0.18102
 C329 C 0.97396 0.48561 0.19017
 C330 C 0.97010 0.48911 0.21769
 H331 H 0.99505 0.54051 0.26156
 H332 H 0.98360 0.45489 0.27347
 H333 H 1.03530 0.50137 0.23927
 H334 H 0.94985 0.48837 0.22529
 H335 H 0.97499 0.50548 0.33984
 H336 H 1.00411 0.48333 0.16008
 C337 C 0.01182 0.53371 0.71494
 C338 C 0.00791 0.50984 0.73126
 C339 C 0.00573 0.48504 0.71940
 C340 C 0.00754 0.48385 0.69123
 C341 C 0.01090 0.50808 0.67508
 C342 C 0.01316 0.53305 0.68670
 C343 C 0.00646 0.51070 0.76087
 C344 C -0.01807 0.50562 0.77309
 C345 C -0.01951 0.50612 0.80134
 C346 C 0.00398 0.51153 0.81723
 C347 C 0.02872 0.51645 0.80528
 C348 C 0.02973 0.51620 0.77696
 H349 H 0.01376 0.55275 0.72428
 H350 H 0.00341 0.46661 0.73230
 H351 H -0.03592 0.50116 0.76060
 H352 H 0.04864 0.52005 0.76742
 H353 H 0.01109 0.50766 0.65322
 H354 H 0.00305 0.51169 0.83906
 C355 C 0.12322 0.11917 0.52395
 C356 C 0.12334 0.14275 0.50596
 C357 C 0.10423 0.16464 0.50739
 C358 C 0.08393 0.16336 0.52635
 C359 C 0.08426 0.14007 0.54479
 C360 C 0.10384 0.11850 0.54385
 C361 C 0.14209 0.09488 0.52090
 C362 C 0.13370 0.06837 0.52705
 C363 C 0.15034 0.04554 0.52231
 C364 C 0.17554 0.04846 0.51051
 C365 C 0.18437 0.07491 0.50512
 C366 C 0.16800 0.09779 0.51052
 H367 H 0.10525 0.18243 0.49328
 H368 H 0.06891 0.13796 0.55954
 H369 H 0.14312 0.02555 0.52752
 H370 H 0.20355 0.07807 0.49591
 H371 H 0.10342 0.10110 0.55857
 H372 H 0.11384 0.06505 0.53472
 H373 H 0.13762 0.14411 0.49011
 H374 H 0.17559 0.11776 0.50613
 C375 C 0.62422 0.61792 -0.01574
 C376 C 0.63020 0.60800 -0.04077
 C377 C 0.65180 0.58847 -0.04223
 C378 C 0.66774 0.57834 -0.01866
 C379 C 0.66223 0.58884 0.00621
 C380 C 0.64075 0.60841 0.00765
 C381 C 0.60000 0.63699 -0.01362
 C382 C 0.60136 0.65848 0.00343
 C383 C 0.57797 0.67503 0.00708
 C384 C 0.55269 0.67038 -0.00615
 C385 C 0.55150 0.64939 -0.02380
 C386 C 0.57490 0.63290 -0.02752
 H387 H 0.65543 0.58064 -0.06165
 H388 H 0.67437 0.58166 0.02466
 H389 H 0.57949 0.69092 0.02095
 H390 H 0.53238 0.64554 -0.03454
 H391 H 0.63652 0.61544 0.02728
 H392 H 0.62048 0.66231 0.01419
 H393 H 0.61799 0.61515 -0.05918
 H394 H 0.57312 0.61637 -0.04060
 C395 C 0.87729 -0.11498 0.48550
 C396 C 0.88025 -0.12388 0.45942
 C397 C 0.89771 -0.14659 0.45581
 C398 C 0.91267 -0.16086 0.47817
 C399 C 0.90918 -0.15226 0.50428
 C400 C 0.89164 -0.12973 0.50790
 C401 C 0.85997 -0.08999 0.48937
 C402 C 0.86848 -0.07196 0.50844
 C403 C 0.85227 -0.04859 0.51242
 C404 C 0.82721 -0.04248 0.49727
 C405 C 0.81876 -0.06036 0.47802
 C406 C 0.83494 -0.08387 0.47413
 H407 H 0.89967 -0.15282 0.43546
 H408 H 0.92064 -0.16244 0.52195
 H409 H 0.85925 -0.03547 0.52766
 H410 H 0.79971 -0.05610 0.46580
 H411 H 0.88947 -0.12374 0.52832
 H412 H 0.88784 -0.07579 0.52021
 H413 H 0.86964 -0.11288 0.44170
 H414 H 0.82768 -0.09742 0.45944
 C415 C 0.37346 0.37588 1.01280
 C416 C 0.36020 0.39031 0.98962
 C417 C 0.33813 0.40892 0.99199
 C418 C 0.32856 0.41346 1.01761
 C419 C 0.34114 0.39824 1.04074
 C420 C 0.36336 0.37965 1.03836
 C421 C 0.39859 0.35818 1.01029
 C422 C 0.40350 0.33306 1.02588
 C423 C 0.42741 0.31675 1.02334
 C424 C 0.44693 0.32535 1.00529
 C425 C 0.44192 0.35044 0.98975
 C426 C 0.41815 0.36667 0.99229
 H427 H 0.32922 0.42048 0.97377
 H428 H 0.33406 0.40098 1.06074
 H429 H 0.43077 0.29758 1.03568
 H430 H 0.45631 0.35747 0.97534
 H431 H 0.37321 0.36893 1.05662
 H432 H 0.38872 0.32590 1.03981
 H433 H 0.36717 0.38754 0.96958
 H434 H 0.41524 0.38608 0.98030
 C435 C 0.86144 0.12944 0.52481
 C436 C 0.86310 0.14712 0.50131
 C437 C 0.87998 0.16904 0.50156
 C438 C 0.89558 0.17381 0.52532
 C439 C 0.89298 0.15689 0.54915
 C440 C 0.87613 0.13490 0.54889
 C441 C 0.84596 0.10443 0.52359
 C442 C 0.85719 0.07943 0.53628
 C443 C 0.84390 0.05540 0.53322
 C444 C 0.81906 0.05579 0.51742
 C445 C 0.80740 0.08090 0.50541
 C446 C 0.82072 0.10495 0.50843
 H447 H 0.88132 0.18192 0.48297
 H448 H 0.90489 0.15992 0.56771
 H449 H 0.85321 0.03641 0.54300
 H450 H 0.78837 0.08184 0.49297
 H451 H 0.87500 0.12184 0.56740
 H452 H 0.87674 0.07828 0.54785
 H453 H 0.85223 0.14336 0.48238
 H454 H 0.81143 0.12394 0.49863
 C455 C 0.38019 0.63036 0.01937
 C456 C 0.36292 0.62900 -0.00416
 C457 C 0.34052 0.61265 -0.00371
 C458 C 0.33482 0.59739 0.02031
 C459 C 0.35161 0.59937 0.04403
 C460 C 0.37410 0.61562 0.04355
 C461 C 0.40515 0.64606 0.01829
 C462 C 0.43013 0.63486 0.03095
 C463 C 0.45405 0.64878 0.02857
 C464 C 0.45351 0.67426 0.01358
 C465 C 0.42842 0.68578 0.00147
 C466 C 0.40450 0.67178 0.00372
 H467 H 0.32778 0.61172 -0.02224
 H468 H 0.34788 0.58768 0.06278
 H469 H 0.47304 0.63955 0.03837
 H470 H 0.42743 0.70531 -0.01035
 H471 H 0.38690 0.61649 0.06205
 H472 H 0.43134 0.61497 0.04209
 H473 H 0.36721 0.63993 -0.02315
 H474 H 0.38550 0.68101 -0.00604
 C475 C 0.12770 -0.11303 0.46892
 C476 C 0.10022 -0.10894 0.47502
 C477 C 0.08293 -0.13050 0.47544
 C478 C 0.09267 -0.15659 0.46956
 C479 C 0.12004 -0.16066 0.46304
 C480 C 0.13748 -0.13910 0.46293
 C481 C 0.14609 -0.09021 0.46989
 C482 C 0.17200 -0.09399 0.48384
 C483 C 0.18783 -0.07170 0.48776
 C484 C 0.17809 -0.04523 0.47767
 C485 C 0.15288 -0.04178 0.46233
 C486 C 0.13701 -0.06400 0.45858
 H487 H 0.06184 -0.12674 0.48022
 H488 H 0.12805 -0.18062 0.45852
 H489 H 0.20705 -0.07499 0.49986
 H490 H 0.14510 -0.02174 0.45376
 H491 H 0.15857 -0.14274 0.45809
 H492 H 0.17940 -0.11396 0.49292
 H493 H 0.09222 -0.08915 0.48004
 H494 H 0.11733 -0.06063 0.44730
 C495 C 0.62070 0.36275 0.97763
 C496 C 0.62153 0.38451 0.95756
 C497 C 0.64409 0.40055 0.95657
 C498 C 0.66710 0.39479 0.97497
 C499 C 0.66690 0.37208 0.99411
 C500 C 0.64391 0.35654 0.99567
 C501 C 0.59531 0.34754 0.98040
 C502 C 0.59652 0.32004 0.99083
 C503 C 0.57252 0.30646 0.99466
 C504 C 0.54664 0.31981 0.98761
 C505 C 0.54553 0.34701 0.97639
 C506 C 0.56940 0.36076 0.97328
 H507 H 0.64290 0.41798 0.94175
 H508 H 0.68434 0.36638 1.00825
 H509 H 0.57434 0.28564 1.00362
 H510 H 0.52616 0.35789 0.96998
 H511 H 0.64418 0.34015 1.01159
 H512 H 0.61598 0.30888 0.99612
 H513 H 0.60455 0.38957 0.94270
 H514 H 0.56730 0.38202 0.96573
 C515 C 0.48681 0.11470 1.11353
 C516 C 0.46799 0.09413 1.11443
 C517 C 0.46893 0.07431 1.13628
 C518 C 0.48789 0.07498 1.15874
 C519 C 0.50595 0.09626 1.15840
 C520 C 0.50576 0.11547 1.13598
 C521 C 0.48717 0.13453 1.08900
 C522 C 0.49727 0.16060 1.09086
 C523 C 0.49891 0.17839 1.06757
 C524 C 0.48967 0.17104 1.04179
 C525 C 0.47853 0.14546 1.04015
 C526 C 0.47788 0.12733 1.06318
 H527 H 0.45492 0.05821 1.13504
 H528 H 0.52045 0.09824 1.17537
 H529 H 0.50791 0.19769 1.06989
 H530 H 0.47033 0.13915 1.02099
 H531 H 0.52094 0.13057 1.13622
 H532 H 0.50405 0.16743 1.11026
 H533 H 0.45241 0.09304 1.09820
 H534 H 0.47047 0.10742 1.06037
 C535 C 0.01865 0.62885 0.61206
 C536 C 0.04281 0.63658 0.60038
 C537 C 0.04196 0.65749 0.57945
 C538 C 0.01689 0.67102 0.56967
 C539 C -0.00714 0.66379 0.58187
 C540 C -0.00628 0.64297 0.60283
 C541 C 0.01907 0.60518 0.63268
 C542 C 0.00241 0.60577 0.65486
 C543 C 0.00110 0.58262 0.67290
 C544 C 0.01632 0.55835 0.66906
 C545 C 0.03363 0.55805 0.64739
 C546 C 0.03500 0.58119 0.62942
 H547 H 0.06079 0.66250 0.57035
 H548 H -0.02671 0.67409 0.57502
 H549 H -0.01253 0.58343 0.68932
 H550 H 0.04586 0.53974 0.64413
 H551 H -0.02528 0.63734 0.61120
 H552 H -0.00987 0.62405 0.65807
 H553 H 0.06236 0.62625 0.60725
 H554 H 0.04784 0.57998 0.61241
 C555 C 0.50925 0.88201 -0.10751
 C556 C 0.52874 0.87923 -0.12710
 C557 C 0.52860 0.89799 -0.14992
 C558 C 0.50958 0.92071 -0.15343
 C559 C 0.49034 0.92355 -0.13362
 C560 C 0.48975 0.90424 -0.11153
 C561 C 0.50928 0.86223 -0.08287
 C562 C 0.49841 0.87038 -0.05884
 C563 C 0.49731 0.85193 -0.03613
 C564 C 0.50833 0.82492 -0.03597
 C565 C 0.51987 0.81685 -0.05974
 C566 C 0.51991 0.83507 -0.08296
 H567 H 0.54347 0.89445 -0.16475
 H568 H 0.47570 0.94088 -0.13469
 H569 H 0.48745 0.85910 -0.01881
 H570 H 0.52904 0.79648 -0.06056
 H571 H 0.47374 0.90699 -0.09769
 H572 H 0.49072 0.89114 -0.05723
 H573 H 0.54445 0.86278 -0.12483
 H574 H 0.52810 0.82758 -0.10099
 C575 C 0.98272 0.38068 0.38545
 C576 C 0.96162 0.36260 0.38668
 C577 C 0.96308 0.34041 0.40636
 C578 C 0.98556 0.33575 0.42590
 C579 C 1.00696 0.35381 0.42381
 C580 C 1.00567 0.37550 0.40383
 C581 C 0.98073 0.40540 0.36587
 C582 C 0.99183 0.42956 0.37352
 C583 C 0.99132 0.45254 0.35521
 C584 C 0.97895 0.45250 0.32879
 C585 C 0.96716 0.42858 0.32123
 C586 C 0.96815 0.40525 0.33952
 H587 H 0.94646 0.32696 0.40562
 H588 H 1.02452 0.35250 0.43816
 H589 H 1.00126 0.47020 0.36175
 H590 H 0.95723 0.42781 0.30118
 H591 H 1.02274 0.38852 0.40313
 H592 H 1.00108 0.43081 0.39379
 H593 H 0.94362 0.36585 0.37278
 H594 H 0.95951 0.38697 0.33283
 C595 C 0.49718 0.85002 0.13814
 C596 C 0.52187 0.85743 0.15041
 C597 C 0.52183 0.87528 0.17103
 C598 C 0.49701 0.88619 0.18014
 C599 C 0.47231 0.87707 0.16884
 C600 C 0.47244 0.85947 0.14800
 C601 C 0.49722 0.83467 0.11351
 C602 C 0.48004 0.84404 0.09056
 C603 C 0.48181 0.83158 0.06629
 C604 C 0.50059 0.80932 0.06450
 C605 C 0.51708 0.79920 0.08769
 C606 C 0.51558 0.81194 0.11197
 H607 H 0.54147 0.88030 0.17980
 H608 H 0.45257 0.88491 0.17444
 H609 H 0.46874 0.83960 0.04871
 H610 H 0.53175 0.78209 0.08673
 H611 H 0.45309 0.85387 0.13897
 H612 H 0.46595 0.86169 0.09106
 H613 H 0.54127 0.85034 0.14327
 H614 H 0.52897 0.80428 0.12943
 C615 C 0.00111 0.38254 0.63902
 C616 C -0.02427 0.37104 0.63479
 C617 C -0.02648 0.34824 0.61978
 C618 C -0.00343 0.33651 0.60841
 C619 C 0.02207 0.34760 0.61330
 C620 C 0.02433 0.37015 0.62855
 C621 C 0.00322 0.40803 0.65317
 C622 C 0.02099 0.42785 0.64431
 C623 C 0.02262 0.45213 0.65692
 C624 C 0.00626 0.45748 0.67854
 C625 C -0.01139 0.43761 0.68760
 C626 C -0.01284 0.41314 0.67510
 H627 H -0.04637 0.34001 0.61684
 H628 H 0.04024 0.33944 0.60463
 H629 H 0.03680 0.46672 0.64971
 H630 H -0.02445 0.44114 0.70404
 H631 H 0.04431 0.37808 0.63184
 H632 H 0.03335 0.42490 0.62722
 H633 H -0.04264 0.38012 0.64235
 H634 H -0.02651 0.39821 0.68269
 C635 C 0.50003 0.14263 0.86673
 C636 C 0.52550 0.13614 0.85645
 C637 C 0.52739 0.11897 0.83533
 C638 C 0.50389 0.10782 0.82409
 C639 C 0.47827 0.11554 0.83340
 C640 C 0.47636 0.13281 0.85439
 C641 C 0.49837 0.15754 0.89165
 C642 C 0.48080 0.14909 0.91170
 C643 C 0.48022 0.16165 0.93597
 C644 C 0.49732 0.18290 0.94097
 C645 C 0.51453 0.19184 0.92076
 C646 C 0.51511 0.17922 0.89634
 H647 H 0.54739 0.11383 0.82829
 H648 H 0.45976 0.10723 0.82539
 H649 H 0.46639 0.15461 0.95094
 H650 H 0.52797 0.20814 0.92408
 H651 H 0.45637 0.13786 0.86150
 H652 H 0.46796 0.13220 0.90898
 H653 H 0.54414 0.14326 0.86556
 H654 H 0.52871 0.18634 0.88120
 C655 C 1.00205 0.62749 0.35263
 C656 C 1.02340 0.62846 0.37275
 C657 C 1.02537 0.65095 0.38801
 C658 C 1.00668 0.67379 0.38303
 C659 C 0.98631 0.67356 0.36169
 C660 C 0.98384 0.65060 0.34689
 C661 C 0.99808 0.60185 0.33906
 C662 C 0.98717 0.60224 0.31201
 C663 C 0.98304 0.57782 0.29996
 C664 C 0.98999 0.55248 0.31459
 C665 C 1.00134 0.55225 0.34141
 C666 C 1.00488 0.57645 0.35357
 H667 H 1.04111 0.64974 0.40440
 H668 H 0.97190 0.69090 0.35664
 H669 H 0.97413 0.57883 0.27931
 H670 H 1.00771 0.53327 0.35320
 H671 H 0.96709 0.65069 0.33161
 H672 H 0.98195 0.62137 0.30006
 H673 H 1.03841 0.61152 0.37724
 H674 H 1.01269 0.57507 0.37460
 C675 C 1.12403 0.50445 0.14688
 C676 C 1.14623 0.48511 0.14945
 C677 C 1.16804 0.48771 0.13260
 C678 C 1.16799 0.50944 0.11203
 C679 C 1.14566 0.52922 0.11037
 C680 C 1.12423 0.52680 0.12764
 C681 C 1.09972 0.50046 0.16276
 C682 C 1.08832 0.52177 0.17660
 C683 C 1.06382 0.51873 0.18937
 C684 C 1.05009 0.49458 0.18793
 C685 C 1.06180 0.47308 0.17464
 C686 C 1.08656 0.47589 0.16239
 H687 H 1.18491 0.47258 0.13629
 H688 H 1.14338 0.54595 0.09482
 H689 H 1.05500 0.53560 0.19940
 H690 H 1.05149 0.45429 0.17335
 H691 H 1.10706 0.54181 0.12505
 H692 H 1.09817 0.54088 0.17713
 H693 H 1.14666 0.46787 0.16452
 H694 H 1.09485 0.45930 0.15162
 C695 C 0.63520 0.01045 0.62967
 C696 C 0.63365 -0.01360 0.64666
 C697 C 0.61718 -0.01398 0.66882
 C698 C 0.60193 0.00969 0.67451
 C699 C 0.60420 0.03394 0.65802
 C700 C 0.62064 0.03431 0.63587
 C701 C 0.65086 0.01030 0.60485
 C702 C 0.63993 0.02414 0.58031
 C703 C 0.65387 0.02291 0.55655
 C704 C 0.67907 0.00782 0.55677
 C705 C 0.69028 -0.00559 0.58141
 C706 C 0.67631 -0.00440 0.60518
 H707 H 0.61607 -0.03290 0.68130
 H708 H 0.59249 0.05245 0.66164
 H709 H 0.64486 0.03371 0.53795
 H710 H 0.70956 -0.01757 0.58216
 H711 H 0.62169 0.05323 0.62337
 H712 H 0.62023 0.03539 0.57930
 H713 H 0.64445 -0.03237 0.64231
 H714 H 0.68537 -0.01506 0.62383
 C715 C -0.11894 0.49236 0.85724
 C716 C -0.12494 0.46739 0.87066
 C717 C -0.14712 0.46592 0.88712
 C718 C -0.16376 0.48940 0.89059
 C719 C -0.15824 0.51421 0.87654
 C720 C -0.13611 0.51566 0.86000
 C721 C -0.09397 0.49443 0.84175
 C722 C -0.09444 0.51059 0.81697
 C723 C -0.07042 0.51380 0.80341
 C724 C -0.04542 0.50109 0.81448
 C725 C -0.04509 0.48443 0.83891
 C726 C -0.06908 0.48111 0.85237
 H727 H -0.15067 0.44656 0.89786
 H728 H -0.17087 0.53259 0.87860
 H729 H -0.07122 0.52687 0.78468
 H730 H -0.02618 0.47413 0.84775
 H731 H -0.13188 0.53523 0.85010
 H732 H -0.11337 0.52090 0.80818
 H733 H -0.11225 0.44903 0.86869
 H734 H -0.06798 0.46874 0.87155
 C735 C 0.36676 -0.00654 0.37348
 C736 C 0.37242 -0.03192 0.36319
 C737 C 0.38970 -0.03416 0.34184
 C738 C 0.40180 -0.01110 0.33038
 C739 C 0.39545 0.01439 0.34016
 C740 C 0.37805 0.01665 0.36133
 C741 C 0.35048 -0.00443 0.39775
 C742 C 0.35830 0.01280 0.41783
 C743 C 0.34394 0.01410 0.44126
 C744 C 0.32152 -0.00196 0.44539
 C745 C 0.31333 -0.01887 0.42514
 C746 C 0.32768 -0.02011 0.40157
 H747 H 0.39383 -0.05403 0.33454
 H748 H 0.40462 0.03255 0.33210
 H749 H 0.35050 0.02767 0.45625
 H750 H 0.29622 -0.03160 0.42781
 H751 H 0.37375 0.03658 0.36846
 H752 H 0.37597 0.02487 0.41577
 H753 H 0.36423 -0.05023 0.37221
 H754 H 0.32095 -0.03336 0.38635
 C755 C 0.12267 0.52377 0.88013
 C756 C 0.12939 0.54763 0.89222
 C757 C 0.14986 0.54666 0.91330
 C758 C 0.16387 0.52177 0.92284
 C759 C 0.15759 0.49806 0.91030
 C760 C 0.13726 0.49906 0.88917
 C761 C 0.09953 0.52419 0.85928
 C762 C 0.10143 0.50860 0.83675
 C763 C 0.07871 0.50691 0.81861
 C764 C 0.05359 0.52066 0.82270
 C765 C 0.05199 0.53706 0.84464
 C766 C 0.07472 0.53884 0.86271
 H767 H 0.15417 0.56523 0.92268
 H768 H 0.16828 0.47866 0.91700
 H769 H 0.08051 0.49400 0.80197
 H770 H 0.03296 0.54813 0.84811
 H771 H 0.13237 0.48028 0.88048
 H772 H 0.12038 0.49733 0.83343
 H773 H 0.11864 0.56701 0.88553
 H774 H 0.07254 0.55085 0.87998
 C775 C 0.62474 -0.01273 0.38369
 C776 C 0.61826 0.01066 0.36581
 C777 C 0.59996 0.00975 0.34316
 C778 C 0.58764 -0.01455 0.33788
 C779 C 0.59467 -0.03811 0.35536
 C780 C 0.61303 -0.03722 0.37797
 C781 C 0.64274 -0.01125 0.40875
 C782 C 0.63655 -0.02502 0.43342
 C783 C 0.65257 -0.02252 0.45733
 C784 C 0.67513 -0.00611 0.45717
 C785 C 0.68164 0.00725 0.43241
 C786 C 0.66565 0.00469 0.40848
 H787 H 0.59525 0.02818 0.32991
 H788 H 0.58535 -0.05709 0.35205
 H789 H 0.64723 -0.03338 0.47599
 H790 H 0.69874 0.02024 0.43163
 H791 H 0.61788 -0.05569 0.39113
 H792 H 0.61888 -0.03722 0.43443
 H793 H 0.62670 0.02991 0.36974
 H794 H 0.67118 0.01530 0.38976
 C795 C 0.88218 0.47296 0.11357
 C796 C 0.88697 0.46670 0.08696
 C797 C 0.86517 0.46575 0.06763
 C798 C 0.83810 0.47129 0.07442
 C799 C 0.83323 0.47702 0.10119
 C800 C 0.85508 0.47766 0.12065
 C801 C 0.90553 0.47586 0.13337
 C802 C 0.90595 0.46389 0.16014
 C803 C 0.92821 0.46678 0.17859
 C804 C 0.95032 0.48198 0.17070
 C805 C 0.94957 0.49419 0.14395
 C806 C 0.92756 0.49102 0.12549
 H807 H 0.86955 0.46155 0.04709
 H808 H 0.81255 0.48122 0.10698
 H809 H 0.92823 0.45685 0.19892
 H810 H 0.96581 0.50666 0.13732
 H811 H 0.85087 0.48268 0.14100
 H812 H 0.88926 0.45196 0.16664
 H813 H 0.90766 0.46279 0.08104
 H814 H 0.92750 0.50089 0.10512
 C815 C 0.37872 0.00414 0.61934
 C816 C 0.38339 0.02936 0.62970
 C817 C 0.40222 0.03093 0.65183
 C818 C 0.41685 0.00732 0.66405
 C819 C 0.41171 -0.01795 0.65401
 C820 C 0.39281 -0.01953 0.63202
 C821 C 0.36024 0.00258 0.59464
 C822 C 0.36747 -0.01500 0.57482
 C823 C 0.35080 -0.01595 0.55110
 C824 C 0.32656 0.00079 0.54645
 C825 C 0.31902 0.01808 0.56642
 C826 C 0.33571 0.01899 0.59027
 H827 H 0.40543 0.05066 0.65929
 H828 H 0.42283 -0.03651 0.66266
 H829 H 0.35696 -0.02980 0.53631
 H830 H 0.30054 0.03134 0.56334
 H831 H 0.38940 -0.03933 0.62481
 H832 H 0.38637 -0.02764 0.57734
 H833 H 0.37306 0.04801 0.62025
 H834 H 0.32942 0.03252 0.60529
   
