data_POSCAR
  _audit_creation_date              2014-09-24
  _audit_creation_method            'ToBaCCo'
  _symmetry_space_group_name_H-M    'P1'
  _symmetry_Int_Tables_number       1
  _symmetry_cell_setting            triclinic
  loop_
  _symmetry_equiv_pos_as_xyz
 x,y,z
_cell_length_a 42.3759
_cell_length_b 42.6064
_cell_length_c 51.7850
_cell_angle_alpha 90.003800
_cell_angle_beta 89.939500
_cell_angle_gamma 119.688100
loop_
  _atom_site_label
  _atom_site_type_symbol
  _atom_site_fract_x
  _atom_site_fract_y
  _atom_site_fract_z
O1 O 0.03596 0.53967 1.27560
 O2 O -0.03360 0.50914 1.22453
 O3 O -0.03439 0.51011 1.27478
 O4 O 0.03688 0.53945 1.22528
 O5 O 0.03217 0.48554 1.22567
 O6 O -0.03870 0.45636 1.27582
 O7 O -0.03847 0.45521 1.22556
 O8 O 0.03156 0.48588 1.27602
 Cu9 Cu 0.00171 0.53000 1.24996
 Cu10 Cu -0.00381 0.46536 1.25079
 C11 C 0.04557 0.51793 1.28462
 C12 C -0.04811 0.47681 1.21631
 C13 C -0.04864 0.47830 1.28390
 C14 C 0.04668 0.51757 1.21690
 O15 O 0.46442 0.50357 1.26913
 O16 O 0.49919 0.46784 1.21835
 O17 O 0.49566 0.46415 1.26851
 O18 O 0.46658 0.50597 1.21883
 O19 O 0.51990 0.55571 1.22073
 O20 O 0.54899 0.51386 1.27071
 O21 O 0.55254 0.51751 1.22059
 O22 O 0.51777 0.55317 1.27102
 Cu23 Cu 0.47610 0.48043 1.24349
 Cu24 Cu 0.54013 0.54005 1.24594
 C25 C 0.48520 0.53451 1.27888
 C26 C 0.53195 0.48661 1.21085
 C27 C 0.52726 0.48180 1.27816
 C28 C 0.48819 0.53792 1.21120
 O29 O 0.51724 0.96367 1.27973
 O30 O 0.55105 1.03289 1.22895
 O31 O 0.55433 1.03412 1.27927
 O32 O 0.51213 0.96291 1.22962
 O33 O 0.46158 0.96554 1.23267
 O34 O 0.50399 1.03715 1.28136
 O35 O 0.50047 1.03559 1.23099
 O36 O 0.46698 0.96673 1.28279
 Cu37 Cu 0.53873 0.99813 1.25419
 Cu38 Cu 0.47825 1.00160 1.25726
 C39 C 0.48637 0.95316 1.29002
 C40 C 0.53154 1.04586 1.22103
 C41 C 0.53631 1.04795 1.28881
 C42 C 0.47957 0.95209 1.22265
 O43 O 0.96199 0.50374 0.72573
 O44 O 1.03332 0.54209 0.77578
 O45 O 1.03261 0.54216 0.72541
 O46 O 0.96269 0.50615 0.77593
 O47 O 0.96507 0.45562 0.77695
 O48 O 1.03493 0.49164 0.72560
 O49 O 1.03563 0.49150 0.77596
 O50 O 0.96419 0.45311 0.72665
 Cu51 Cu 0.99745 0.52860 0.75063
 Cu52 Cu 1.00021 0.46793 0.75130
 C53 C 0.95079 0.47172 0.71771
 C54 C 1.04657 0.52316 0.78449
 C55 C 1.04580 0.52323 0.71670
 C56 C 0.95194 0.47489 0.78520
 O57 O 0.49301 0.45818 0.72634
 O58 O 0.45049 0.48722 0.77597
 O59 O 0.45681 0.49244 0.72583
 O60 O 0.48664 0.45218 0.77641
 O61 O 0.53782 0.50379 0.78060
 O62 O 0.50809 0.54403 0.72982
 O63 O 0.50174 0.53882 0.77990
 O64 O 0.54431 0.50969 0.73059
 Cu65 Cu 0.46659 0.46732 0.75084
 Cu66 Cu 0.52809 0.52924 0.75574
 C67 C 0.52586 0.47909 0.71982
 C68 C 0.46883 0.51815 0.78633
 C69 C 0.47748 0.52501 0.71896
 C70 C 0.51742 0.47099 0.78707
 O71 O 0.54106 0.03478 0.72000
 O72 O 0.50693 -0.03543 0.76985
 O73 O 0.50492 -0.03564 0.71971
 O74 O 0.53995 0.03473 0.77037
 O75 O 0.48782 0.03455 0.77020
 O76 O 0.45271 -0.03609 0.72064
 O77 O 0.45486 -0.03548 0.77085
 O78 O 0.48885 0.03445 0.71991
 Cu79 Cu 0.52846 -0.00029 0.74490
 Cu80 Cu 0.46585 -0.00066 0.74536
 C81 C 0.52098 0.04667 0.71134
 C82 C 0.47525 -0.04739 0.77903
 C83 C 0.47249 -0.04821 0.71166
 C84 C 0.51967 0.04653 0.77902
 O85 O 0.38661 0.66763 0.97644
 O86 O 0.38516 0.72760 0.96990
 C87 C 0.36844 0.74504 0.96650
 O88 O 0.34237 0.74102 0.98093
 O89 O 0.28176 0.68135 0.97232
 C90 C 0.26477 0.64816 0.96628
 O91 O 0.26949 0.62445 0.97790
 O92 O 0.32999 0.62463 0.96814
 C93 C 0.36371 0.64088 0.96324
 O94 O 0.38650 0.67633 1.02785
 O95 O 0.38908 0.73829 1.02142
 C96 C 0.36739 0.74266 1.03599
 O97 O 0.33341 0.72656 1.03213
 O98 O 0.27119 0.66867 1.02343
 C99 C 0.26581 0.64026 1.03520
 O100 O 0.28185 0.62294 1.02903
 O101 O 0.34112 0.62082 1.01924
 C102 C 0.36910 0.64259 1.03213
 Cr103 Cr 0.38488 0.70155 0.99893
 Cr104 Cr 0.30814 0.70340 1.00213
 Cr105 Cr 0.30660 0.62516 0.99862
 O106 O 0.33314 0.67662 0.99989
 O107 O 0.61580 0.32500 0.96798
 O108 O 0.61171 0.26267 0.97623
 C109 C 0.63522 0.25704 0.96505
 O110 O 0.66817 0.27232 0.97196
 O111 O 0.72919 0.33047 0.98205
 C112 C 0.73565 0.35826 0.96886
 O113 O 0.71955 0.37619 0.97287
 O114 O 0.66030 0.38003 0.97818
 C115 C 0.63363 0.35877 0.96410
 O116 O 0.60965 0.33348 1.01917
 O117 O 0.60835 0.27259 1.02759
 C118 C 0.62450 0.25552 1.03412
 O119 O 0.65313 0.25991 1.02288
 O120 O 0.71281 0.31956 1.03293
 C121 C 0.73023 0.35299 1.03799
 O122 O 0.72701 0.37630 1.02464
 O123 O 0.66568 0.37627 1.02980
 C124 C 0.63153 0.36009 1.03306
 Cr125 Cr 0.61337 0.29935 0.99784
 Cr126 Cr 0.68985 0.29661 1.00239
 Cr127 Cr 0.69211 0.37521 1.00134
 O128 O 0.66508 0.32368 1.00051
 O129 O 0.66633 0.39247 0.52846
 O130 O 0.72738 0.39239 0.52238
 C131 C 0.73069 0.36972 0.53639
 O132 O 0.71321 0.33604 0.53207
 O133 O 0.65300 0.27602 0.52284
 C134 C 0.62452 0.27195 0.53416
 O135 O 0.60875 0.28947 0.52783
 O136 O 0.61009 0.35009 0.51805
 C137 C 0.63225 0.37635 0.53206
 O138 O 0.65933 0.39473 0.47682
 O139 O 0.71832 0.39056 0.47086
 C140 C 0.73442 0.37254 0.46716
 O141 O 0.72840 0.34532 0.48090
 O142 O 0.66701 0.28669 0.47169
 C143 C 0.63369 0.27100 0.46557
 O144 O 0.61080 0.27729 0.47697
 O145 O 0.61522 0.33934 0.46710
 C146 C 0.63301 0.37298 0.46271
 Cr147 Cr 0.69182 0.39061 0.49963
 Cr148 Cr 0.68948 0.31205 0.50180
 Cr149 Cr 0.61317 0.31498 0.49756
 O150 O 0.66482 0.33914 0.49966
 O151 O 0.34032 0.60410 0.51855
 O152 O 0.28157 0.60631 0.52952
 C153 C 0.26562 0.62343 0.53639
 O154 O 0.27071 0.65211 0.52511
 O155 O 0.33320 0.71032 0.53268
 C156 C 0.36725 0.72649 0.53615
 O157 O 0.38865 0.72150 0.52169
 O158 O 0.38607 0.65940 0.52692
 C159 C 0.36844 0.62572 0.53135
 O160 O 0.32775 0.60850 0.46783
 O161 O 0.26761 0.60800 0.47877
 C162 C 0.26252 0.63173 0.46757
 O163 O 0.27958 0.66483 0.47375
 O164 O 0.34040 0.72452 0.48148
 C165 C 0.36689 0.72940 0.46714
 O166 O 0.38367 0.71191 0.47004
 O167 O 0.38480 0.65145 0.47507
 C168 C 0.36118 0.62480 0.46210
 Cr169 Cr 0.30535 0.60873 0.49872
 Cr170 Cr 0.30693 0.68691 0.50315
 Cr171 Cr 0.38381 0.68509 0.49849
 O172 O 0.33200 0.66022 0.50012
 C173 C 0.49529 0.58205 0.30975
 C174 C 0.48278 0.59525 0.32963
 C175 C 0.44714 0.57494 0.33897
 C176 C 0.42383 0.54132 0.32744
 C177 C 0.43632 0.52803 0.30756
 C178 C 0.47232 0.54809 0.29852
 C179 C 0.43555 0.59020 0.36038
 C180 C 0.40673 0.57043 0.37561
 C181 C 0.39590 0.58579 0.39732
 C182 C 0.35960 0.56746 0.40557
 C183 C 0.34828 0.58033 0.42637
 C184 C 0.37317 0.61170 0.43967
 C185 C 0.40963 0.62998 0.43153
 C186 C 0.42092 0.61716 0.41062
 H187 H 0.52313 0.59851 0.30334
 H188 H 0.50124 0.62135 0.33796
 H189 H 0.39579 0.52524 0.33333
 H190 H 0.41761 0.50197 0.29929
 H191 H 0.45207 0.61890 0.36388
 H192 H 0.38987 0.54178 0.37218
 H193 H 0.33986 0.54308 0.39581
 H194 H 0.32002 0.56546 0.43215
 H195 H 0.42955 0.65408 0.44145
 H196 H 0.44938 0.63144 0.40543
 C197 C 0.49479 0.91064 0.31680
 C198 C 0.48231 0.88377 0.33571
 C199 C 0.44883 0.87217 0.34797
 C200 C 0.42759 0.88767 0.34055
 C201 C 0.43995 0.91447 0.32147
 C202 C 0.47379 0.92641 0.30933
 C203 C 0.43679 0.84318 0.36767
 C204 C 0.41340 0.83841 0.38679
 C205 C 0.40209 0.80999 0.40698
 C206 C 0.37086 0.80113 0.42161
 C207 C 0.35936 0.77497 0.44107
 C208 C 0.37897 0.75708 0.44645
 C209 C 0.41040 0.76609 0.43195
 C210 C 0.42197 0.79234 0.41257
 H211 H 0.52092 0.91883 0.30795
 H212 H 0.49908 0.87211 0.34091
 H213 H 0.40112 0.87871 0.34898
 H214 H 0.42280 0.92566 0.31619
 H215 H 0.44862 0.82585 0.36642
 H216 H 0.40180 0.85599 0.38792
 H217 H 0.35516 0.81443 0.41792
 H218 H 0.33505 0.76875 0.45186
 H219 H 0.42637 0.75312 0.43576
 H220 H 0.44686 0.79900 0.40251
 C221 C 0.08325 0.50578 0.31598
 C222 C 0.10849 0.51669 0.33607
 C223 C 0.12386 0.55171 0.34629
 C224 C 0.11412 0.57605 0.33545
 C225 C 0.08887 0.56513 0.31534
 C226 C 0.07298 0.52982 0.30549
 C227 C 0.15035 0.56179 0.36773
 C228 C 0.15840 0.58916 0.38410
 C229 C 0.18486 0.59903 0.40551
 C230 C 0.20195 0.63459 0.41485
 C231 C 0.22707 0.64518 0.43499
 C232 C 0.23538 0.62025 0.44650
 C233 C 0.21775 0.58443 0.43749
 C234 C 0.19271 0.57388 0.41725
 H235 H 0.07165 0.47842 0.30877
 H236 H 0.11574 0.49751 0.34386
 H237 H 0.12622 0.60367 0.34205
 H238 H 0.08180 0.58441 0.30750
 H239 H 0.16320 0.54548 0.37016
 H240 H 0.14577 0.60566 0.38172
 H241 H 0.19613 0.65439 0.40633
 H242 H 0.24000 0.67295 0.44151
 H243 H 0.22332 0.56448 0.44603
 H244 H 0.17921 0.54591 0.41124
 C245 C 0.51562 0.42890 0.30584
 C246 C 0.52619 0.41309 0.32513
 C247 C 0.55981 0.43300 0.33753
 C248 C 0.58328 0.46884 0.32965
 C249 C 0.57277 0.48461 0.31029
 C250 C 0.53872 0.46491 0.29831
 C251 C 0.56964 0.41532 0.35816
 C252 C 0.59230 0.43371 0.37755
 C253 C 0.60213 0.41678 0.39879
 C254 C 0.63256 0.43904 0.41394
 C255 C 0.64267 0.42480 0.43454
 C256 C 0.62241 0.38784 0.44061
 C257 C 0.59186 0.36546 0.42551
 C258 C 0.58169 0.37974 0.40490
 H259 H 0.48929 0.41289 0.29687
 H260 H 0.50779 0.38534 0.33065
 H261 H 0.60998 0.48466 0.33807
 H262 H 0.59135 0.51229 0.30473
 H263 H 0.55681 0.38620 0.35747
 H264 H 0.60447 0.46282 0.37812
 H265 H 0.64868 0.46766 0.40980
 H266 H 0.66637 0.44285 0.44574
 H267 H 0.57550 0.33692 0.42979
 H268 H 0.55745 0.36167 0.39431
 C269 C 0.58755 0.08751 0.31667
 C270 C 0.60258 0.11421 0.33575
 C271 C 0.58238 0.12894 0.34652
 C272 C 0.54711 0.11722 0.33720
 C273 C 0.53205 0.09059 0.31818
 C274 C 0.55191 0.07512 0.30772
 C275 C 0.59915 0.15706 0.36683
 C276 C 0.57947 0.16291 0.38455
 C277 C 0.59487 0.19117 0.40488
 C278 C 0.57113 0.19984 0.41790
 C279 C 0.58377 0.22583 0.43742
 C280 C 0.62058 0.24376 0.44457
 C281 C 0.64445 0.23507 0.43164
 C282 C 0.63178 0.20902 0.41204
 H283 H 0.60388 0.07654 0.30905
 H284 H 0.62998 0.12309 0.34236
 H285 H 0.53113 0.12891 0.34416
 H286 H 0.50474 0.08228 0.31165
 H287 H 0.62846 0.17272 0.36714
 H288 H 0.55019 0.14631 0.38425
 H289 H 0.54257 0.18649 0.41291
 H290 H 0.56456 0.23175 0.44696
 H291 H 0.67295 0.24822 0.43677
 H292 H 0.65097 0.20271 0.40304
 C293 C 0.90986 0.48985 0.31180
 C294 C 0.88378 0.47944 0.33130
 C295 C 0.87082 0.44616 0.34392
 C296 C 0.88368 0.42288 0.33607
 C297 C 0.90964 0.43320 0.31645
 C298 C 0.92322 0.46691 0.30423
 C299 C 0.84339 0.43644 0.36464
 C300 C 0.83946 0.41405 0.38416
 C301 C 0.81246 0.40438 0.40526
 C302 C 0.80350 0.37350 0.42009
 C303 C 0.77833 0.36324 0.44022
 C304 C 0.76162 0.38380 0.44611
 C305 C 0.77093 0.41502 0.43152
 C306 C 0.79617 0.42533 0.41141
 H307 H 0.91959 0.51591 0.30266
 H308 H 0.87403 0.49768 0.33680
 H309 H 0.87343 0.39647 0.34470
 H310 H 0.91916 0.41480 0.31091
 H311 H 0.82670 0.44907 0.36384
 H312 H 0.85658 0.40185 0.38482
 H313 H 0.81583 0.35703 0.41595
 H314 H 0.77184 0.33905 0.45107
 H315 H 0.75882 0.43167 0.43569
 H316 H 0.80309 0.45000 0.40116
 C317 C 0.58328 0.49176 1.18377
 C318 C 0.59711 0.47843 1.16489
 C319 C 0.57438 0.44577 1.15223
 C320 C 0.53746 0.42619 1.15928
 C321 C 0.52364 0.43945 1.17829
 C322 C 0.54638 0.47244 1.19069
 C323 C 0.59056 0.43277 1.13247
 C324 C 0.57153 0.41028 1.11318
 C325 C 0.58791 0.39797 1.09301
 C326 C 0.56505 0.36692 1.07869
 C327 C 0.57912 0.35454 1.05929
 C328 C 0.61649 0.37309 1.05365
 C329 C 0.63937 0.40438 1.06780
 C330 C 0.62528 0.41682 1.08715
 H331 H 0.60161 0.51716 1.19304
 H332 H 0.62569 0.49389 1.16000
 H333 H 0.51926 0.40034 1.15060
 H334 H 0.49514 0.42378 1.18334
 H335 H 0.61949 0.44302 1.13382
 H336 H 0.54258 0.40015 1.11193
 H337 H 0.53614 0.35205 1.08262
 H338 H 0.56069 0.33037 1.04874
 H339 H 0.66822 0.41957 1.06379
 H340 H 0.64381 0.44157 1.09696
 C341 C 0.91469 0.48851 1.18588
 C342 C 0.88843 0.47657 1.16640
 C343 C 0.87205 0.44085 1.15738
 C344 C 0.88195 0.41697 1.16877
 C345 C 0.90830 0.42890 1.18814
 C346 C 0.92520 0.46488 1.19693
 C347 C 0.84444 0.42961 1.13655
 C348 C 0.83409 0.40017 1.12182
 C349 C 0.80669 0.38899 1.10095
 C350 C 0.78823 0.35256 1.09351
 C351 C 0.76304 0.34082 1.07338
 C352 C 0.75602 0.36539 1.05995
 C353 C 0.77455 0.40194 1.06736
 C354 C 0.79965 0.41366 1.08762
 H355 H 0.92683 0.51636 1.19213
 H356 H 0.88111 0.49547 1.15818
 H357 H 0.86920 0.38888 1.16323
 H358 H 0.91521 0.40967 1.19631
 H359 H 0.83265 0.44670 1.13317
 H360 H 0.84564 0.38289 1.12509
 H361 H 0.79333 0.33305 1.10332
 H362 H 0.74940 0.31250 1.06815
 H363 H 0.76994 0.42161 1.05733
 H364 H 0.81408 0.44215 1.09223
 C365 C 0.57979 0.08461 1.18925
 C366 C 0.59250 0.10922 1.16881
 C367 C 0.57090 0.12247 1.15826
 C368 C 0.53640 0.11116 1.16912
 C369 C 0.52368 0.08652 1.18966
 C370 C 0.54515 0.07279 1.19983
 C371 C 0.58588 0.14831 1.13636
 C372 C 0.56571 0.15555 1.12006
 C373 C 0.58138 0.18087 1.09795
 C374 C 0.56278 0.19806 1.08854
 C375 C 0.57665 0.22216 1.06779
 C376 C 0.60931 0.22929 1.05574
 C377 C 0.62755 0.21147 1.06481
 C378 C 0.61373 0.18747 1.08562
 H379 H 0.59713 0.07472 1.19667
 H380 H 0.61927 0.11764 1.16101
 H381 H 0.51924 0.12146 1.16218
 H382 H 0.49697 0.07815 1.19751
 H383 H 0.61496 0.16138 1.13343
 H384 H 0.53670 0.14311 1.12293
 H385 H 0.53762 0.19316 1.09749
 H386 H 0.56178 0.23527 1.06126
 H387 H 0.65261 0.21609 1.05587
 H388 H 0.62822 0.17378 1.09164
 C389 C 0.49926 0.58999 1.18266
 C390 C 0.48795 0.60522 1.16340
 C391 C 0.45368 0.58507 1.15187
 C392 C 0.43043 0.54960 1.16053
 C393 C 0.44168 0.53441 1.17981
 C394 C 0.47629 0.55434 1.19099
 C395 C 0.44274 0.60222 1.13151
 C396 C 0.41855 0.58329 1.11301
 C397 C 0.40681 0.59964 1.09251
 C398 C 0.37496 0.57706 1.07875
 C399 C 0.36270 0.59093 1.05919
 C400 C 0.38217 0.62781 1.05281
 C401 C 0.41427 0.65043 1.06639
 C402 C 0.42657 0.63653 1.08593
 H403 H 0.52601 0.60613 1.19099
 H404 H 0.50620 0.63273 1.15728
 H405 H 0.40329 0.53364 1.15285
 H406 H 0.42317 0.50702 1.18599
 H407 H 0.45571 0.63136 1.13182
 H408 H 0.40625 0.55417 1.11278
 H409 H 0.35931 0.54852 1.08327
 H410 H 0.33789 0.57271 1.04912
 H411 H 0.43011 0.67892 1.06181
 H412 H 0.45182 0.65482 1.09538
 C413 C 0.08618 0.50590 1.18675
 C414 C 0.11248 0.51727 1.16727
 C415 C 0.12788 0.55234 1.15710
 C416 C 0.11731 0.57630 1.16744
 C417 C 0.09109 0.56497 1.18690
 C418 C 0.07502 0.52957 1.19665
 C419 C 0.15536 0.56330 1.13624
 C420 C 0.16098 0.58891 1.11882
 C421 C 0.18835 0.60110 1.09776
 C422 C 0.19654 0.63308 1.08463
 C423 C 0.22171 0.64579 1.06446
 C424 C 0.23930 0.62672 1.05678
 C425 C 0.23110 0.59459 1.06980
 C426 C 0.20584 0.58182 1.09002
 H427 H 0.07448 0.47852 1.19395
 H428 H 0.12046 0.49844 1.15986
 H429 H 0.12955 0.60399 1.16088
 H430 H 0.08345 0.58403 1.19432
 H431 H 0.17055 0.54912 1.13518
 H432 H 0.14475 0.60205 1.11992
 H433 H 0.18344 0.64843 1.09006
 H434 H 0.22732 0.67063 1.05488
 H435 H 0.24400 0.57912 1.06427
 H436 H 0.19989 0.55664 1.09907
 C437 C 0.42565 0.90991 1.19615
 C438 C 0.40962 0.88405 1.17668
 C439 C 0.43007 0.87194 1.16292
 C440 C 0.46672 0.88531 1.16966
 C441 C 0.48272 0.91106 1.18924
 C442 C 0.46245 0.92390 1.20253
 C443 C 0.41207 0.84504 1.14205
 C444 C 0.43008 0.84225 1.12166
 C445 C 0.41269 0.81616 1.10019
 C446 C 0.43497 0.80917 1.08390
 C447 C 0.42026 0.78534 1.06315
 C448 C 0.38278 0.76800 1.05803
 C449 C 0.36039 0.77512 1.07419
 C450 C 0.37515 0.79903 1.09498
 H451 H 0.40919 0.91903 1.20613
 H452 H 0.38127 0.87389 1.17207
 H453 H 0.48304 0.87570 1.16013
 H454 H 0.51103 0.92106 1.19386
 H455 H 0.38294 0.82798 1.14343
 H456 H 0.45918 0.85987 1.12043
 H457 H 0.46396 0.82212 1.08731
 H458 H 0.43835 0.78053 1.05112
 H459 H 0.33145 0.76241 1.07068
 H460 H 0.35702 0.80435 1.10648
 C461 C 0.57946 0.48984 0.69284
 C462 C 0.59492 0.47997 0.67282
 C463 C 0.57382 0.44835 0.65856
 C464 C 0.53712 0.42601 0.66536
 C465 C 0.52169 0.43578 0.68546
 C466 C 0.54259 0.46799 0.69926
 C467 C 0.59112 0.43919 0.63720
 C468 C 0.57260 0.41969 0.61659
 C469 C 0.58906 0.40986 0.59498
 C470 C 0.56593 0.38131 0.57874
 C471 C 0.57990 0.37067 0.55823
 C472 C 0.61746 0.38855 0.55332
 C473 C 0.64064 0.41761 0.56926
 C474 C 0.62664 0.42827 0.58981
 H475 H 0.59637 0.51472 0.70319
 H476 H 0.62335 0.49740 0.66816
 H477 H 0.52030 0.40074 0.65547
 H478 H 0.49330 0.41819 0.69008
 H479 H 0.62009 0.44965 0.63852
 H480 H 0.54369 0.40988 0.61544
 H481 H 0.53688 0.36684 0.58211
 H482 H 0.56121 0.34821 0.54633
 H483 H 0.66969 0.43214 0.56590
 H484 H 0.64541 0.45116 0.60125
 C485 C 0.57081 0.08808 0.68159
 C486 C 0.58470 0.11467 0.66250
 C487 C 0.56359 0.12871 0.65232
 C488 C 0.52821 0.11590 0.66206
 C489 C 0.51428 0.08921 0.68121
 C490 C 0.53541 0.07494 0.69112
 C491 C 0.58000 0.15686 0.63200
 C492 C 0.56104 0.16631 0.61619
 C493 C 0.57828 0.19366 0.59549
 C494 C 0.56100 0.21265 0.58710
 C495 C 0.57613 0.23828 0.56737
 C496 C 0.60873 0.24517 0.55535
 C497 C 0.62582 0.22583 0.56355
 C498 C 0.61074 0.20029 0.58333
 H499 H 0.58789 0.07778 0.68884
 H500 H 0.61206 0.12414 0.65551
 H501 H 0.51128 0.12660 0.65536
 H502 H 0.48702 0.07987 0.68833
 H503 H 0.60920 0.16988 0.62981
 H504 H 0.53194 0.15414 0.61836
 H505 H 0.53580 0.20779 0.59596
 H506 H 0.56213 0.25255 0.56145
 H507 H 0.65077 0.23021 0.55457
 H508 H 0.62422 0.18529 0.58857
 C509 C 0.90801 0.41976 0.69000
 C510 C 0.88103 0.40473 0.67110
 C511 C 0.86771 0.42548 0.65934
 C512 C 0.88123 0.46145 0.66743
 C513 C 0.90814 0.47646 0.68643
 C514 C 0.92199 0.45585 0.69781
 C515 C 0.83932 0.40842 0.63919
 C516 C 0.83465 0.42726 0.62027
 C517 C 0.80707 0.41101 0.59945
 C518 C 0.79984 0.43414 0.58445
 C519 C 0.77492 0.42068 0.56418
 C520 C 0.75660 0.38361 0.55828
 C521 C 0.76370 0.36031 0.57327
 C522 C 0.78875 0.37381 0.59357
 H523 H 0.91790 0.40304 0.69849
 H524 H 0.87084 0.37688 0.66542
 H525 H 0.87077 0.47797 0.65951
 H526 H 0.91807 0.50422 0.69220
 H527 H 0.82273 0.37935 0.63982
 H528 H 0.85200 0.45631 0.61973
 H529 H 0.81359 0.46288 0.58840
 H530 H 0.77013 0.43946 0.55308
 H531 H 0.75023 0.33165 0.56913
 H532 H 0.79398 0.35498 0.60409
 C533 C 0.48787 0.57698 0.69055
 C534 C 0.47744 0.59142 0.67019
 C535 C 0.44519 0.56986 0.65654
 C536 C 0.42291 0.53370 0.66422
 C537 C 0.43327 0.51930 0.68463
 C538 C 0.46599 0.54068 0.69790
 C539 C 0.43532 0.58629 0.63499
 C540 C 0.41392 0.56710 0.61525
 C541 C 0.40351 0.58307 0.59366
 C542 C 0.37281 0.56025 0.57891
 C543 C 0.36163 0.57396 0.55855
 C544 C 0.38109 0.61091 0.55231
 C545 C 0.41229 0.63368 0.56672
 C546 C 0.42349 0.61996 0.58709
 H547 H 0.51316 0.59425 0.70045
 H548 H 0.49489 0.61945 0.66487
 H549 H 0.39720 0.51653 0.65485
 H550 H 0.41563 0.49132 0.68995
 H551 H 0.44675 0.61528 0.63548
 H552 H 0.40286 0.53812 0.61485
 H553 H 0.35710 0.53169 0.58336
 H554 H 0.33750 0.55560 0.54785
 H555 H 0.42811 0.66223 0.56232
 H556 H 0.44801 0.63836 0.59730
 C557 C 0.42191 0.90954 0.68472
 C558 C 0.40733 0.88190 0.66643
 C559 C 0.42862 0.86857 0.65550
 C560 C 0.46487 0.88305 0.66364
 C561 C 0.47949 0.91060 0.68214
 C562 C 0.45822 0.92432 0.69291
 C563 C 0.41154 0.83904 0.63628
 C564 C 0.43014 0.83314 0.61774
 C565 C 0.41284 0.80481 0.59756
 C566 C 0.43476 0.79491 0.58334
 C567 C 0.41999 0.76925 0.56360
 C568 C 0.38284 0.75294 0.55755
 C569 C 0.36084 0.76279 0.57178
 C570 C 0.37562 0.78854 0.59142
 H571 H 0.40446 0.91910 0.69253
 H572 H 0.37927 0.87106 0.66062
 H573 H 0.48184 0.87274 0.65622
 H574 H 0.50744 0.92100 0.68804
 H575 H 0.38233 0.82254 0.63722
 H576 H 0.45939 0.84990 0.61695
 H577 H 0.46352 0.80714 0.58748
 H578 H 0.43774 0.76232 0.55301
 H579 H 0.33219 0.75105 0.56745
 H580 H 0.35777 0.79605 0.60113
 C581 C 0.08427 0.57223 0.68717
 C582 C 0.11037 0.58629 0.66761
 C583 C 0.12520 0.56598 0.65731
 C584 C 0.11382 0.53131 0.66747
 C585 C 0.08764 0.51716 0.68707
 C586 C 0.07235 0.53736 0.69715
 C587 C 0.15279 0.58243 0.63647
 C588 C 0.16181 0.56347 0.62033
 C589 C 0.18892 0.58019 0.59928
 C590 C 0.20631 0.56170 0.59004
 C591 C 0.23143 0.57591 0.56986
 C592 C 0.23949 0.60888 0.55819
 C593 C 0.22189 0.62733 0.56730
 C594 C 0.19683 0.61314 0.58758
 H595 H 0.07341 0.58883 0.69438
 H596 H 0.11880 0.61315 0.66033
 H597 H 0.12530 0.51510 0.66076
 H598 H 0.07953 0.49038 0.69436
 H599 H 0.16567 0.61144 0.63425
 H600 H 0.14934 0.53452 0.62251
 H601 H 0.20051 0.53615 0.59854
 H602 H 0.24433 0.56086 0.56329
 H603 H 0.22725 0.65263 0.55863
 H604 H 0.18317 0.62769 0.59353
 C605 C 0.41577 0.50773 0.81398
 C606 C 0.39994 0.51944 0.83259
 C607 C 0.41987 0.55382 0.84377
 C608 C 0.45576 0.57673 0.83539
 C609 C 0.47157 0.56503 0.81683
 C610 C 0.45184 0.53035 0.80599
 C611 C 0.40217 0.56520 0.86355
 C612 C 0.42098 0.58998 0.88171
 C613 C 0.40464 0.60243 0.90183
 C614 C 0.42797 0.63347 0.91597
 C615 C 0.41459 0.64610 0.93560
 C616 C 0.37739 0.62790 0.94173
 C617 C 0.35385 0.59689 0.92753
 C618 C 0.36728 0.58419 0.90783
 H619 H 0.39975 0.48093 0.80589
 H620 H 0.37214 0.50142 0.83847
 H621 H 0.47162 0.60395 0.84272
 H622 H 0.49925 0.58333 0.81086
 H623 H 0.37287 0.55201 0.86318
 H624 H 0.45025 0.60213 0.88211
 H625 H 0.45684 0.64806 0.91186
 H626 H 0.43356 0.67009 0.94609
 H627 H 0.32507 0.58211 0.93186
 H628 H 0.34829 0.55977 0.89789
 C629 C 0.08909 0.51667 0.81465
 C630 C 0.11493 0.52980 0.83434
 C631 C 0.12693 0.56417 0.84496
 C632 C 0.11301 0.58562 0.83492
 C633 C 0.08710 0.57244 0.81516
 C634 C 0.07469 0.53773 0.80493
 C635 C 0.15410 0.57630 0.86611
 C636 C 0.16132 0.60374 0.88221
 C637 C 0.18783 0.61437 0.90366
 C638 C 0.20503 0.65018 0.91248
 C639 C 0.23003 0.66121 0.93275
 C640 C 0.23803 0.63645 0.94491
 C641 C 0.22031 0.60040 0.93637
 C642 C 0.19543 0.58944 0.91604
 H643 H 0.08024 0.48985 0.80715
 H644 H 0.12532 0.51278 0.84152
 H645 H 0.12218 0.61267 0.84191
 H646 H 0.07674 0.58945 0.80794
 H647 H 0.16829 0.56126 0.86867
 H648 H 0.14795 0.61952 0.87970
 H649 H 0.19936 0.66981 0.90347
 H650 H 0.24304 0.68915 0.93890
 H651 H 0.22560 0.58056 0.94542
 H652 H 0.18177 0.56129 0.91046
 C653 C 0.48281 0.90819 0.80607
 C654 C 0.47137 0.88260 0.82583
 C655 C 0.43959 0.87343 0.83977
 C656 C 0.41866 0.88950 0.83296
 C657 C 0.42996 0.91494 0.81300
 C658 C 0.46236 0.92481 0.79953
 C659 C 0.42905 0.84665 0.86088
 C660 C 0.40963 0.84616 0.88149
 C661 C 0.39999 0.82018 0.90314
 C662 C 0.37066 0.81388 0.91909
 C663 C 0.36055 0.78969 0.93973
 C664 C 0.37979 0.77139 0.94502
 C665 C 0.40959 0.77816 0.92934
 C666 C 0.41972 0.80240 0.90871
 H667 H 0.50776 0.91498 0.79593
 H668 H 0.48776 0.87034 0.83053
 H669 H 0.39335 0.88220 0.84271
 H670 H 0.41349 0.92708 0.80827
 H671 H 0.43881 0.82758 0.85952
 H672 H 0.40006 0.86542 0.88272
 H673 H 0.35523 0.82746 0.91541
 H674 H 0.33748 0.78518 0.95144
 H675 H 0.42521 0.76479 0.93303
 H676 H 0.44335 0.80741 0.89756
 C677 C 0.50783 0.41796 0.81392
 C678 C 0.51956 0.40224 0.83251
 C679 C 0.55318 0.42264 0.84488
 C680 C 0.57524 0.45913 0.83784
 C681 C 0.56352 0.47485 0.81920
 C682 C 0.52966 0.45447 0.80706
 C683 C 0.56452 0.40456 0.86432
 C684 C 0.58865 0.42232 0.88314
 C685 C 0.59987 0.40465 0.90306
 C686 C 0.63113 0.42640 0.91767
 C687 C 0.64235 0.41148 0.93719
 C688 C 0.62243 0.37433 0.94272
 C689 C 0.59119 0.35244 0.92807
 C690 C 0.57991 0.36738 0.90855
 H691 H 0.48168 0.40143 0.80485
 H692 H 0.50217 0.37402 0.83737
 H693 H 0.60186 0.47554 0.84621
 H694 H 0.58116 0.50294 0.81417
 H695 H 0.55169 0.37548 0.86311
 H696 H 0.60100 0.45140 0.88431
 H697 H 0.64696 0.45517 0.91400
 H698 H 0.66653 0.42918 0.94808
 H699 H 0.57503 0.32376 0.93194
 H700 H 0.55513 0.34961 0.89840
 C701 C 0.90683 0.48081 0.81295
 C702 C 0.88083 0.46837 0.83258
 C703 C 0.87170 0.43626 0.84583
 C704 C 0.88855 0.41623 0.83853
 C705 C 0.91446 0.42859 0.81872
 C706 C 0.92404 0.46115 0.80583
 C707 C 0.84398 0.42448 0.86656
 C708 C 0.84167 0.40290 0.88621
 C709 C 0.81453 0.39229 0.90734
 C710 C 0.80558 0.36099 0.92165
 C711 C 0.78016 0.35001 0.94170
 C712 C 0.76328 0.37029 0.94803
 C713 C 0.77275 0.40201 0.93402
 C714 C 0.79818 0.41301 0.91402
 H715 H 0.91339 0.50589 0.80332
 H716 H 0.86805 0.48415 0.83765
 H717 H 0.88145 0.39077 0.84770
 H718 H 0.92706 0.41270 0.81355
 H719 H 0.82543 0.43500 0.86570
 H720 H 0.86010 0.39223 0.88701
 H721 H 0.81803 0.34475 0.91712
 H722 H 0.77358 0.32547 0.95212
 H723 H 0.76058 0.41850 0.93855
 H724 H 0.80527 0.43805 0.90423
 C725 C 0.51033 0.08711 0.80918
 C726 C 0.52200 0.11225 0.82925
 C727 C 0.55624 0.12481 0.84055
 C728 C 0.57915 0.11239 0.83075
 C729 C 0.56745 0.08721 0.81061
 C730 C 0.53280 0.07408 0.79975
 C731 C 0.56691 0.15108 0.86210
 C732 C 0.59280 0.15684 0.87938
 C733 C 0.60274 0.18267 0.90112
 C734 C 0.63776 0.19760 0.91154
 C735 C 0.64828 0.22178 0.93218
 C736 C 0.62378 0.23127 0.94317
 C737 C 0.58847 0.21591 0.93300
 C738 C 0.57801 0.19182 0.91222
 H739 H 0.48352 0.07770 0.80118
 H740 H 0.50394 0.12157 0.83623
 H741 H 0.60623 0.12225 0.83824
 H742 H 0.58553 0.07795 0.80360
 H743 H 0.55211 0.16562 0.86395
 H744 H 0.60791 0.14263 0.87760
 H745 H 0.65720 0.19074 0.90352
 H746 H 0.67565 0.23293 0.93959
 H747 H 0.56886 0.22244 0.94111
 H748 H 0.55037 0.17997 0.90532
   
