data_POSCAR
  _audit_creation_date              2014-09-24
  _audit_creation_method            'ToBaCCo'
  _symmetry_space_group_name_H-M    'P1'
  _symmetry_Int_Tables_number       1
  _symmetry_cell_setting            triclinic
  loop_
  _symmetry_equiv_pos_as_xyz
 x,y,z
_cell_length_a 36.8382
_cell_length_b 36.9260
_cell_length_c 12.4820
_cell_angle_alpha 90.032300
_cell_angle_beta 90.026900
_cell_angle_gamma 120.003300
loop_
  _atom_site_label
  _atom_site_type_symbol
  _atom_site_fract_x
  _atom_site_fract_y
  _atom_site_fract_z
C1 C 0.17373 0.50224 0.59630
 C2 C 0.15515 0.50225 0.49858
 C3 C 0.17368 0.50246 0.40071
 C4 C 0.21234 0.50307 0.39963
 C5 C 0.23176 0.50332 0.49848
 C6 C 0.21241 0.50291 0.59734
 C7 C 0.23208 0.50286 0.69398
 C8 C 0.26995 0.50296 0.69387
 C9 C 0.28953 0.50308 0.59713
 C10 C 0.27032 0.50338 0.49842
 C11 C 0.23194 0.50313 0.30293
 C12 C 0.26973 0.50315 0.30291
 C13 C 0.28930 0.50314 0.39955
 C14 C 0.32727 0.50258 0.40030
 C15 C 0.34595 0.50255 0.49759
 C16 C 0.32769 0.50260 0.59564
 H17 H 0.21821 0.50266 0.77061
 H18 H 0.28378 0.50283 0.77034
 H19 H 0.21806 0.50305 0.22635
 H20 H 0.28351 0.50308 0.22636
 H21 H 0.12521 0.50141 0.49871
 H22 H 0.37507 0.50178 0.49671
 C23 C 0.49824 -0.32730 0.40376
 C24 C 0.49902 -0.34550 0.50108
 C25 C 0.49879 -0.32732 0.59919
 C26 C 0.49735 -0.28979 0.60104
 C27 C 0.49635 -0.27102 0.50250
 C28 C 0.49684 -0.28981 0.40337
 C29 C 0.49623 -0.27052 0.30693
 C30 C 0.49538 -0.23325 0.30743
 C31 C 0.49504 -0.21407 0.40438
 C32 C 0.49539 -0.23311 0.50300
 C33 C 0.49718 -0.27039 0.69800
 C34 C 0.49627 -0.23310 0.69844
 C35 C 0.49547 -0.21389 0.60197
 C36 C 0.49507 -0.17580 0.60072
 C37 C 0.49438 -0.15780 0.50315
 C38 C 0.49471 -0.17610 0.40590
 H39 H 0.49651 -0.28411 0.23025
 H40 H 0.49502 -0.21948 0.23113
 H41 H 0.49784 -0.28394 0.77439
 H42 H 0.49627 -0.21931 0.77504
 H43 H 0.50037 -0.37424 0.50021
 H44 H 0.49452 -0.12827 0.50263
 C45 C 1.17526 0.67262 0.40211
 C46 C 1.15638 0.65419 0.49934
 C47 C 1.17486 0.67226 0.59748
 C48 C 1.21385 0.70995 0.59911
 C49 C 1.23353 0.72889 0.50043
 C50 C 1.21412 0.71015 0.40146
 C51 C 1.23386 0.72954 0.30488
 C52 C 1.27199 0.76691 0.30505
 C53 C 1.29173 0.78616 0.40187
 C54 C 1.27241 0.76692 0.50063
 C55 C 1.23353 0.72934 0.69593
 C56 C 1.27170 0.76675 0.69614
 C57 C 1.29157 0.78606 0.59954
 C58 C 1.32998 0.82423 0.59828
 C59 C 1.34874 0.84245 0.50100
 C60 C 1.33015 0.82433 0.40343
 H61 H 1.21985 0.71595 0.22827
 H62 H 1.28595 0.78071 0.22864
 H63 H 1.21944 0.71571 0.77237
 H64 H 1.28558 0.78053 0.77272
 H65 H 1.12626 0.62539 0.49837
 H66 H 1.37814 0.87209 0.50123
 C67 C 0.67074 0.49517 0.59795
 C68 C 0.65222 0.49486 0.50026
 C69 C 0.67064 0.49463 0.40312
 C70 C 0.70861 0.49408 0.40197
 C71 C 0.72775 0.49396 0.50084
 C72 C 0.70881 0.49458 0.59962
 C73 C 0.72858 0.49490 0.69634
 C74 C 0.76639 0.49480 0.69629
 C75 C 0.78574 0.49441 0.59952
 C76 C 0.76619 0.49390 0.50078
 C77 C 0.72804 0.49399 0.30523
 C78 C 0.76585 0.49397 0.30518
 C79 C 0.78539 0.49402 0.40188
 C80 C 0.82388 0.49450 0.40297
 C81 C 0.84248 0.49455 0.50005
 C82 C 0.82431 0.49482 0.59772
 H83 H 0.71490 0.49529 0.77281
 H84 H 0.78048 0.49512 0.77271
 H85 H 0.71413 0.49401 0.22879
 H86 H 0.77973 0.49398 0.22873
 H87 H 0.62310 0.49566 0.49956
 H88 H 0.87237 0.49527 0.49932
 C89 C 0.50078 0.17464 0.59851
 C90 C 0.50034 0.15586 0.50106
 C91 C 0.50094 0.17447 0.40330
 C92 C 0.50238 0.21335 0.40174
 C93 C 0.50309 0.23300 0.50033
 C94 C 0.50224 0.21357 0.59933
 C95 C 0.50260 0.23339 0.69580
 C96 C 0.50355 0.27161 0.69536
 C97 C 0.50422 0.29131 0.59838
 C98 C 0.50410 0.27188 0.49985
 C99 C 0.50282 0.23290 0.30477
 C100 C 0.50373 0.27107 0.30429
 C101 C 0.50430 0.29096 0.40076
 C102 C 0.50472 0.32933 0.40147
 C103 C 0.50527 0.34824 0.49838
 C104 C 0.50468 0.32980 0.59621
 H105 H 0.50204 0.21937 0.77242
 H106 H 0.50370 0.28567 0.77165
 H107 H 0.50236 0.21872 0.22845
 H108 H 0.50395 0.28494 0.22769
 H109 H 0.49896 0.12577 0.50128
 H110 H 0.50518 0.37766 0.49738
 C111 C 0.67302 0.17434 0.40342
 C112 C 0.65491 0.15568 0.50111
 C113 C 0.67323 0.17445 0.59869
 C114 C 0.71080 0.21336 0.59972
 C115 C 0.72948 0.23286 0.50085
 C116 C 0.71054 0.21326 0.40213
 C117 C 0.72971 0.23291 0.30531
 C118 C 0.76703 0.27111 0.30510
 C119 C 0.78637 0.29093 0.40169
 C120 C 0.76743 0.27175 0.50065
 C121 C 0.73028 0.23311 0.69633
 C122 C 0.76766 0.27132 0.69615
 C123 C 0.78678 0.29110 0.59931
 C124 C 0.82492 0.32958 0.59745
 C125 C 0.84282 0.34813 0.49969
 C126 C 0.82439 0.32932 0.40264
 H127 H 0.71599 0.21878 0.22889
 H128 H 0.78071 0.28505 0.22858
 H129 H 0.71676 0.21905 0.77286
 H130 H 0.78157 0.28530 0.77255
 H131 H 0.62614 0.12559 0.50119
 H132 H 0.87240 0.37755 0.49886
 O133 O 0.94231 0.40986 0.19643
 O134 O 0.89535 0.41832 0.09366
 C135 C 0.90464 0.40089 0.17072
 O136 O 1.05886 0.59395 0.18875
 O137 O 1.10584 0.58379 0.09083
 C138 C 1.09654 0.60261 0.16447
 O139 O 0.94234 0.53200 0.19816
 O140 O 0.89530 0.47756 0.09311
 C141 C 0.90461 0.50383 0.17129
 O142 O 1.05880 0.46509 0.18963
 O143 O 1.10578 0.52258 0.09296
 C144 C 1.09648 0.49436 0.16642
 Zr145 Zr 1.00059 0.45472 0.13096
 O146 O 1.00357 0.45226 0.29996
 O147 O 0.99924 0.39714 0.11394
 Zr148 Zr 1.00045 0.54679 0.12899
 O149 O 1.00290 0.55540 0.29672
 O150 O 0.99599 0.60147 0.11054
 O151 O 0.96372 0.48238 0.15192
 O152 O 1.03632 0.51866 0.15068
 O153 O 1.05882 0.46459 -0.19377
 O154 O 1.10579 0.52218 -0.09719
 C155 C 1.09649 0.49383 -0.17025
 O156 O 0.94201 0.53218 -0.20368
 O157 O 0.89518 0.47735 -0.09962
 C158 C 0.90433 0.50382 -0.17710
 O159 O 1.05888 0.59356 -0.19620
 O160 O 1.10586 0.58346 -0.09787
 C161 C 1.09661 0.60227 -0.17172
 O162 O 0.94223 0.40959 -0.20219
 O163 O 0.89528 0.41796 -0.09928
 C164 C 0.90453 0.40046 -0.17627
 Zr165 Zr 1.00047 0.45400 -0.13541
 O166 O 1.00395 0.45034 -0.30383
 O167 O 0.99650 0.39497 -0.12055
 Zr168 Zr 1.00041 0.54612 -0.13730
 O169 O 1.00398 0.55217 -0.30603
 O170 O 0.99604 0.60104 -0.12522
 Zr171 Zr 0.93737 0.46884 -0.00319
 Zr172 Zr 1.06365 0.53193 -0.00301
 O173 O 1.03623 0.51788 -0.15688
 O174 O 0.96356 0.48159 -0.15840
 O175 O 1.03892 0.46660 -0.00199
 O176 O 0.96296 0.53416 -0.00416
 O177 O 0.96309 0.42919 -0.00208
 O178 O 1.03883 0.57261 -0.00417
 H179 H 1.05375 0.52736 0.21637
 H180 H 0.94319 0.54501 -0.00417
 H181 H 1.05366 0.52646 -0.22249
 H182 H 0.94356 0.39857 -0.00188
 H183 H 1.02427 0.62481 0.09284
 H184 H 1.02351 0.62392 -0.10022
 H185 H 0.98758 0.52368 -0.33614
 H186 H 0.98939 0.46423 -0.33484
 H187 H 1.02323 0.39968 -0.08931
 H188 H 0.99858 0.38692 0.18768
 H189 H 0.98606 0.46326 0.32940
 H190 H 1.00038 0.52982 0.32891
 O191 O 0.59033 0.53232 0.19658
 O192 O 0.58179 0.47706 0.09344
 C193 C 0.59923 0.50365 0.17082
 O194 O 0.40596 0.46501 0.18710
 O195 O 0.41639 0.52218 0.08951
 C196 C 0.39741 0.49405 0.16291
 O197 O 0.46770 0.41037 0.19651
 O198 O 0.52231 0.41784 0.09193
 C199 C 0.49588 0.40082 0.16979
 O200 O 0.53535 0.59370 0.18917
 O201 O 0.47785 0.58329 0.09198
 C202 C 0.50615 0.60220 0.16553
 Zr203 Zr 0.54557 0.54584 0.13076
 O204 O 0.54780 0.55109 0.29982
 O205 O 0.60344 0.60198 0.11467
 Zr206 Zr 0.45314 0.45378 0.12754
 O207 O 0.44438 0.44743 0.29518
 O208 O 0.39823 0.39476 0.10831
 O209 O 0.51766 0.48136 0.15113
 O210 O 0.48148 0.51770 0.14982
 O211 O 0.53626 0.59469 -0.19325
 O212 O 0.47845 0.58392 -0.09726
 C213 C 0.50703 0.60314 -0.16969
 O214 O 0.46799 0.41042 -0.20547
 O215 O 0.52274 0.41819 -0.10082
 C216 C 0.49628 0.40103 -0.17867
 O217 O 0.40668 0.46580 -0.19797
 O218 O 0.41687 0.52271 -0.09925
 C219 C 0.39801 0.49475 -0.17337
 O220 O 0.59116 0.53304 -0.20182
 O221 O 0.58239 0.47758 -0.09943
 C222 C 0.60012 0.50441 -0.17603
 Zr223 Zr 0.54655 0.54673 -0.13569
 O224 O 0.55000 0.55380 -0.30414
 O225 O 0.60582 0.60168 -0.12074
 Zr226 Zr 0.45407 0.45471 -0.13877
 O227 O 0.44810 0.45236 -0.30753
 O228 O 0.39893 0.39547 -0.12737
 Zr229 Zr 0.53132 0.46872 -0.00394
 Zr230 Zr 0.46839 0.53190 -0.00392
 O231 O 0.48255 0.51873 -0.15779
 O232 O 0.51877 0.48233 -0.15920
 O233 O 0.53390 0.57239 -0.00217
 O234 O 0.46582 0.42908 -0.00568
 O235 O 0.57120 0.53401 -0.00216
 O236 O 0.42747 0.46650 -0.00577
 H237 H 0.47277 0.52643 0.21541
 H238 H 0.45486 0.39849 -0.00598
 H239 H 0.47406 0.52772 -0.22331
 H240 H 0.60188 0.54509 -0.00160
 H241 H 0.37491 0.39975 0.09049
 H242 H 0.37601 0.40004 -0.10261
 H243 H 0.47672 0.46496 -0.33735
 H244 H 0.53717 0.52542 -0.33526
 H245 H 0.60127 0.62354 -0.08812
 H246 H 0.61357 0.61145 0.18857
 H247 H 0.53676 0.52259 0.32902
 H248 H 0.46992 0.47057 0.32767
 O249 O 0.53217 -0.05859 0.19893
 O250 O 0.47649 -0.10549 0.09680
 C251 C 0.50339 -0.09616 0.17357
 O252 O 0.46402 0.05757 0.19298
 O253 O 0.52098 0.10440 0.09449
 C254 C 0.49289 0.09518 0.16824
 O255 O 0.40979 -0.05875 0.20296
 O256 O 0.41704 -0.10566 0.09726
 C257 C 0.40022 -0.09640 0.17595
 O258 O 0.59347 0.05765 0.19099
 O259 O 0.58244 0.10439 0.09485
 C260 C 0.60179 0.09521 0.16747
 Zr261 Zr 0.54534 -0.00051 0.13354
 O262 O 0.55130 0.00271 0.30245
 O263 O 0.60161 -0.00197 0.11568
 Zr264 Zr 0.45286 -0.00076 0.13343
 O265 O 0.44732 0.00181 0.30134
 O266 O 0.39346 -0.00537 0.11662
 O267 O 0.48081 -0.03733 0.15541
 O268 O 0.51702 0.03512 0.15418
 O269 O 0.59329 0.05763 -0.19038
 O270 O 0.58244 0.10439 -0.09371
 C271 C 0.60174 0.09521 -0.16639
 O272 O 0.40953 -0.05889 -0.20176
 O273 O 0.41692 -0.10572 -0.09615
 C274 C 0.39998 -0.09650 -0.17460
 O275 O 0.46387 0.05754 -0.19202
 O276 O 0.52086 0.10439 -0.09333
 C277 C 0.49271 0.09518 -0.16703
 O278 O 0.53211 -0.05887 -0.19820
 O279 O 0.47649 -0.10565 -0.09605
 C280 C 0.50341 -0.09647 -0.17267
 Zr281 Zr 0.54520 -0.00066 -0.13320
 O282 O 0.55007 0.00290 -0.30228
 O283 O 0.60059 -0.00448 -0.12288
 Zr284 Zr 0.45277 -0.00082 -0.13272
 O285 O 0.44708 0.00153 -0.30065
 O286 O 0.39339 -0.00538 -0.11603
 Zr287 Zr 0.46765 -0.06365 0.00030
 Zr288 Zr 0.53060 0.06228 0.00039
 O289 O 0.51690 0.03504 -0.15351
 O290 O 0.48064 -0.03750 -0.15491
 O291 O 0.57133 0.03761 0.00028
 O292 O 0.42764 -0.03826 0.00036
 O293 O 0.53313 -0.03786 0.00031
 O294 O 0.46499 0.03752 0.00040
 H295 H 0.52597 0.05266 0.21962
 H296 H 0.39703 -0.05814 0.00045
 H297 H 0.52583 0.05265 -0.21872
 H298 H 0.54442 -0.05723 0.00038
 H299 H 0.39821 0.02270 0.09772
 H300 H 0.39816 0.02266 -0.09661
 H301 H 0.47080 -0.00011 -0.33214
 H302 H 0.52189 -0.01640 -0.33159
 H303 H 0.62210 0.02109 -0.08615
 H304 H 0.61140 -0.00253 0.18927
 H305 H 0.52290 -0.01496 0.33241
 H306 H 0.47045 -0.00087 0.33290
 C307 C 1.15183 0.50050 0.30982
 C308 C 1.12882 0.49806 0.23771
 C309 C 0.50026 0.65182 0.30753
 C310 C 0.50265 0.63104 0.23613
 C311 C 0.35022 -0.15330 0.31396
 C312 C 0.37139 -0.12930 0.24469
 C313 C 0.84743 0.49696 0.30834
 C314 C 0.87163 0.49983 0.23962
 C315 C 0.50243 0.35040 0.30669
 C316 C 0.49971 0.37177 0.23797
 C317 C 0.65196 0.15112 0.30784
 C318 C 0.63094 0.12770 0.23714
 C319 C 0.49850 0.15143 -0.30594
 C320 C 0.49604 0.12782 -0.23587
 C321 C 0.65072 0.49771 -0.31272
 C322 C 0.62937 0.50058 -0.24391
 C323 C 0.84741 0.34982 -0.31328
 C324 C 0.87153 0.37125 -0.24437
 C325 C 0.49721 -0.15347 -0.30970
 C326 C 0.49977 -0.12943 -0.24070
 C327 C 0.34784 0.50066 -0.31405
 C328 C 0.36888 0.49828 -0.24313
 C329 C 1.15269 0.65227 -0.31227
 C330 C 1.12924 0.63133 -0.24143
 C331 C 0.84688 0.49724 -0.31311
 C332 C 0.87118 0.50002 -0.24461
 C333 C 0.50257 0.35016 -0.31478
 C334 C 0.49998 0.37173 -0.24628
 C335 C 0.65222 0.15128 -0.30575
 C336 C 0.63107 0.12778 -0.23544
 C337 C 1.15189 0.50005 -0.31288
 C338 C 1.12883 0.49748 -0.24099
 C339 C 0.50111 0.65290 -0.31057
 C340 C 0.50365 0.63216 -0.23947
 C341 C 0.34990 -0.15347 -0.31214
 C342 C 0.37107 -0.12944 -0.24295
 C343 C 0.49689 -0.15276 0.31127
 C344 C 0.49957 -0.12887 0.24215
 C345 C 0.34801 0.50033 0.30435
 C346 C 0.36866 0.49773 0.23309
 C347 C 1.15224 0.65196 0.30607
 C348 C 1.12897 0.63134 0.23476
 C349 C 0.49876 0.15121 0.30797
 C350 C 0.49632 0.12771 0.23758
 C351 C 0.64949 0.49692 0.30836
 C352 C 0.62818 0.49968 0.23933
 C353 C 0.84771 0.35047 0.30784
 C354 C 0.87174 0.37184 0.23896
   
