data_POSCAR
  _audit_creation_date              2014-09-24
  _audit_creation_method            'ToBaCCo'
  _symmetry_space_group_name_H-M    'P1'
  _symmetry_Int_Tables_number       1
  _symmetry_cell_setting            triclinic
  loop_
  _symmetry_equiv_pos_as_xyz
 x,y,z
_cell_length_a 58.5655
_cell_length_b 57.4203
_cell_length_c 58.6564
_cell_angle_alpha 90.006700
_cell_angle_beta 90.214000
_cell_angle_gamma 90.250700
loop_
  _atom_site_label
  _atom_site_type_symbol
  _atom_site_fract_x
  _atom_site_fract_y
  _atom_site_fract_z
N1 N 0.60032 0.66178 0.61489
 N2 N 0.58905 0.64954 0.63012
 C3 C 0.57003 0.66111 0.63602
 C4 C 0.56938 0.68180 0.62391
 C5 C 0.58893 0.68165 0.61071
 H6 H 0.55768 0.65502 0.64833
 H7 H 0.59417 0.69474 0.59853
 Cu8 Cu 0.60009 0.61965 0.64093
 Cu9 Cu 0.62809 0.65035 0.60067
 Cu10 Cu 0.65165 0.60062 0.62393
 N11 N 0.61590 0.59470 0.65678
 N12 N 0.63596 0.58730 0.65009
 C13 C 0.64280 0.56995 0.66388
 C14 C 0.62610 0.56615 0.68028
 C15 C 0.60927 0.58235 0.67512
 H16 H 0.65877 0.56086 0.66193
 H17 H 0.59334 0.58511 0.68391
 N18 N 0.66485 0.61674 0.59741
 N19 N 0.65600 0.63584 0.58865
 C20 C 0.66856 0.64245 0.57057
 C21 C 0.68620 0.62672 0.56774
 C22 C 0.68327 0.61067 0.58514
 H23 H 0.66480 0.65731 0.55994
 H24 H 0.69373 0.59563 0.58860
 H25 H 0.62389 0.61518 0.60720
 H26 H 0.63784 0.63313 0.63008
 N27 N 0.90385 0.33982 0.11293
 N28 N 0.91181 0.34837 0.13215
 C29 C 0.93039 0.33621 0.13848
 C30 C 0.93438 0.31896 0.12234
 C31 C 0.91707 0.32197 0.10633
 H32 H 0.94011 0.33965 0.15380
 H33 H 0.91394 0.31177 0.09116
 Cu34 Cu 0.89684 0.37431 0.14723
 Cu35 Cu 0.87634 0.35173 0.09838
 Cu36 Cu 0.84880 0.39735 0.12541
 N37 N 0.88200 0.40082 0.16145
 N38 N 0.86298 0.40944 0.15310
 C39 C 0.85637 0.42752 0.16607
 C40 C 0.87217 0.43052 0.18347
 C41 C 0.88820 0.41323 0.17997
 H42 H 0.84148 0.43805 0.16274
 H43 H 0.90323 0.40990 0.19019
 N44 N 0.83729 0.38284 0.09714
 N45 N 0.84820 0.36604 0.08643
 C46 C 0.83660 0.36048 0.06731
 C47 C 0.81737 0.37431 0.06599
 C48 C 0.81833 0.38824 0.08521
 H49 H 0.84153 0.34708 0.05537
 H50 H 0.80630 0.40161 0.08991
 H51 H 0.87875 0.38519 0.11131
 H52 H 0.86132 0.36383 0.12787
 N53 N 0.40041 0.16223 -0.11379
 N54 N 0.40984 0.15247 -0.13169
 C55 C 0.42861 0.16471 -0.13751
 C56 C 0.43091 0.18325 -0.12260
 C57 C 0.41267 0.18117 -0.10780
 H58 H 0.43962 0.16069 -0.15171
 H59 H 0.40884 0.19236 -0.09351
 Cu60 Cu 0.39639 0.12499 -0.14584
 Cu61 Cu 0.37338 0.14928 -0.09919
 Cu62 Cu 0.34950 0.09987 -0.12377
 N63 N 0.38263 0.09751 -0.15970
 N64 N 0.36467 0.08740 -0.15059
 C65 C 0.35906 0.06847 -0.16297
 C66 C 0.37416 0.06678 -0.18097
 C67 C 0.38885 0.08554 -0.17840
 H68 H 0.34482 0.05700 -0.15939
 H69 H 0.40318 0.08986 -0.18918
 N70 N 0.33666 0.11510 -0.09661
 N71 N 0.34605 0.13360 -0.08695
 C72 C 0.33376 0.13944 -0.06846
 C73 C 0.31563 0.12407 -0.06655
 C74 C 0.31797 0.10892 -0.08470
 H75 H 0.33746 0.15403 -0.05738
 H76 H 0.30702 0.09426 -0.08869
 H77 H 0.37823 0.11533 -0.10971
 H78 H 0.35987 0.13403 -0.12819
 N79 N 0.09805 0.83883 0.38608
 N80 N 0.09051 0.84699 0.36655
 C81 C 0.07238 0.83424 0.35975
 C82 C 0.06820 0.81705 0.37593
 C83 C 0.08497 0.82065 0.39241
 H84 H 0.06291 0.83742 0.34423
 H85 H 0.08774 0.81077 0.40783
 Cu86 Cu 0.10504 0.87385 0.35240
 Cu87 Cu 0.12465 0.85194 0.40165
 Cu88 Cu 0.15079 0.89958 0.37604
 N89 N 0.11934 0.90085 0.33827
 N90 N 0.13691 0.91119 0.34803
 C91 C 0.14284 0.93000 0.33570
 C92 C 0.12834 0.93147 0.31709
 C93 C 0.11367 0.91263 0.31922
 H94 H 0.15674 0.94171 0.33991
 H95 H 0.09956 0.90827 0.30806
 N96 N 0.16218 0.88525 0.40439
 N97 N 0.15186 0.86760 0.41453
 C98 C 0.16360 0.86200 0.43353
 C99 C 0.18234 0.87664 0.43528
 C100 C 0.18090 0.89113 0.41652
 H101 H 0.15928 0.84788 0.44493
 H102 H 0.19263 0.90499 0.41213
 H103 H 0.12119 0.88529 0.38909
 H104 H 0.14022 0.86528 0.37294
 C105 C 0.10764 0.14263 0.12445
 C106 C 0.12376 0.14162 0.10682
 C107 C 0.14095 0.12462 0.10677
 C108 C 0.14145 0.10808 0.12445
 C109 C 0.12529 0.10856 0.14213
 C110 C 0.10863 0.12611 0.14207
 H111 H 0.12259 0.15387 0.09283
 H112 H 0.15448 0.09479 0.12447
 H113 H 0.09667 0.12728 0.15606
 C114 C 0.39310 0.85700 0.62492
 C115 C 0.39283 0.87417 0.64201
 C116 C 0.37596 0.89150 0.64228
 C117 C 0.35916 0.89146 0.62510
 C118 C 0.35904 0.87447 0.60784
 C119 C 0.37612 0.85734 0.60792
 H120 H 0.40582 0.87402 0.65516
 H121 H 0.34608 0.90471 0.62517
 H122 H 0.37620 0.84420 0.59469
 C123 C 0.89196 0.64213 0.37467
 C124 C 0.87512 0.64213 0.39167
 C125 C 0.85772 0.62522 0.39181
 C126 C 0.85727 0.60815 0.37464
 C127 C 0.87402 0.60777 0.35754
 C128 C 0.89128 0.62485 0.35772
 H129 H 0.87555 0.65533 0.40485
 H130 H 0.84387 0.59510 0.37463
 H131 H 0.90426 0.62469 0.34462
 C132 C 0.60782 0.35942 -0.12479
 C133 C 0.60791 0.37689 -0.14157
 C134 C 0.62563 0.39340 -0.14265
 C135 C 0.64330 0.39254 -0.12644
 C136 C 0.64336 0.37556 -0.10917
 C137 C 0.62560 0.35900 -0.10861
 H138 H 0.59388 0.37799 -0.15360
 H139 H 0.65732 0.40483 -0.12761
 H140 H 0.62563 0.34574 -0.09551
 C141 C -0.01385 0.26729 0.12297
 C142 C -0.01549 0.28349 0.14080
 C143 C -0.03241 0.30058 0.14055
 C144 C -0.04827 0.30194 0.12245
 C145 C -0.04642 0.28567 0.10453
 C146 C -0.02946 0.26864 0.10480
 C147 C 0.00401 0.24898 0.12335
 C148 C -0.00104 0.22621 0.11606
 C149 C 0.01575 0.20899 0.11638
 C150 C 0.03798 0.21413 0.12403
 C151 C 0.04302 0.23689 0.13136
 C152 C 0.02624 0.25412 0.13102
 C153 C 0.05585 0.19583 0.12427
 C154 C 0.07838 0.20112 0.11784
 C155 C 0.09517 0.18390 0.11795
 C156 C 0.08981 0.16097 0.12446
 C157 C 0.06729 0.15568 0.13093
 C158 C 0.05051 0.17291 0.13085
 H159 H -0.00390 0.28274 0.15521
 H160 H -0.03298 0.31250 0.15480
 H161 H -0.05794 0.28593 0.09010
 H162 H -0.02842 0.25664 0.09060
 H163 H -0.01806 0.22161 0.11031
 H164 H 0.01138 0.19170 0.11037
 H165 H 0.05991 0.24135 0.13759
 H166 H 0.03075 0.27154 0.13653
 H167 H 0.08300 0.21854 0.11244
 H168 H 0.11241 0.18860 0.11313
 H169 H 0.06257 0.13813 0.13582
 H170 H 0.03339 0.16832 0.13615
 C171 C 0.51684 0.73410 0.62483
 C172 C 0.53936 0.73989 0.61865
 C173 C 0.55639 0.72291 0.61830
 C174 C 0.55139 0.69981 0.62443
 C175 C 0.52901 0.69402 0.63087
 C176 C 0.51190 0.71091 0.63091
 C177 C 0.49859 0.75210 0.62484
 C178 C 0.48109 0.75154 0.64118
 C179 C 0.46386 0.76830 0.64104
 C180 C 0.46382 0.78627 0.62476
 C181 C 0.48140 0.78691 0.60849
 C182 C 0.49846 0.76997 0.60844
 C183 C 0.44560 0.80430 0.62478
 C184 C 0.43737 0.81370 0.60420
 C185 C 0.42047 0.83081 0.60424
 C186 C 0.41111 0.83877 0.62485
 C187 C 0.41918 0.82921 0.64542
 C188 C 0.43630 0.81233 0.64539
 H189 H 0.54395 0.75762 0.61434
 H190 H 0.57355 0.72796 0.61353
 H191 H 0.52457 0.67631 0.63541
 H192 H 0.49471 0.70567 0.63533
 H193 H 0.48077 0.73826 0.65427
 H194 H 0.45044 0.76700 0.65362
 H195 H 0.48216 0.80065 0.59589
 H196 H 0.51143 0.77079 0.59537
 H197 H 0.44384 0.80773 0.58797
 H198 H 0.41493 0.83798 0.58809
 H199 H 0.41216 0.83462 0.66161
 H200 H 0.44240 0.80579 0.66160
 C201 C 1.01613 0.76520 0.37519
 C202 C 1.01849 0.78081 0.35691
 C203 C 1.03557 0.79789 0.35715
 C204 C 1.05089 0.79983 0.37568
 C205 C 1.04842 0.78406 0.39395
 C206 C 1.03128 0.76705 0.39370
 C207 C 0.99792 0.74707 0.37495
 C208 C 1.00226 0.72458 0.38333
 C209 C 0.98511 0.70757 0.38322
 C210 C 0.96323 0.71263 0.37467
 C211 C 0.95892 0.73510 0.36622
 C212 C 0.97605 0.75212 0.36639
 C213 C 0.94497 0.69456 0.37463
 C214 C 0.92232 0.70046 0.37989
 C215 C 0.90515 0.68348 0.37986
 C216 C 0.91023 0.66018 0.37464
 C217 C 0.93287 0.65428 0.36939
 C218 C 0.95003 0.67126 0.36936
 H219 H 1.00731 0.77963 0.34221
 H220 H 1.03667 0.80936 0.34259
 H221 H 1.05953 0.78475 0.40869
 H222 H 1.02970 0.75554 0.40823
 H223 H 1.01900 0.72002 0.38979
 H224 H 0.98893 0.69053 0.39009
 H225 H 0.94234 0.73949 0.35927
 H226 H 0.97206 0.76934 0.36004
 H227 H 0.91789 0.71818 0.38429
 H228 H 0.88783 0.68866 0.38371
 H229 H 0.93740 0.63644 0.36553
 H230 H 0.96725 0.66618 0.36497
 C231 C 0.48350 0.23590 -0.12255
 C232 C 0.48789 0.21337 -0.13087
 C233 C 0.47077 0.19635 -0.13103
 C234 C 0.44897 0.20131 -0.12249
 C235 C 0.44457 0.22365 -0.11391
 C236 C 0.46157 0.24082 -0.11413
 C237 C 0.50167 0.25417 -0.12277
 C238 C 0.50298 0.27103 -0.10540
 C239 C 0.51992 0.28826 -0.10574
 C240 C 0.53624 0.28890 -0.12327
 C241 C 0.53504 0.27191 -0.14052
 C242 C 0.51789 0.25493 -0.14039
 C243 C 0.55441 0.30716 -0.12359
 C244 C 0.56245 0.31621 -0.14437
 C245 C 0.57975 0.33302 -0.14472
 C246 C 0.58927 0.34157 -0.12431
 C247 C 0.58104 0.33275 -0.10351
 C248 C 0.56398 0.31565 -0.10317
 H249 H 0.50467 0.20871 -0.13700
 H250 H 0.47473 0.17917 -0.13746
 H251 H 0.42783 0.22802 -0.10746
 H252 H 0.45735 0.25805 -0.10802
 H253 H 0.49105 0.27085 -0.09136
 H254 H 0.52004 0.30121 -0.09234
 H255 H 0.54749 0.27155 -0.15411
 H256 H 0.51726 0.24253 -0.15427
 H257 H 0.55527 0.31045 -0.16045
 H258 H 0.58585 0.33910 -0.16108
 H259 H 0.58764 0.33915 -0.08742
 H260 H 0.55851 0.30891 -0.08684
 C261 C 0.12761 -0.01556 0.26511
 C262 C 0.11955 -0.03820 0.26042
 C263 C 0.11963 -0.05535 0.27734
 C264 C 0.12814 -0.05038 0.29921
 C265 C 0.13639 -0.02790 0.30391
 C266 C 0.13595 -0.01063 0.28713
 C267 C 0.12730 0.00282 0.24716
 C268 C 0.14461 0.01985 0.24620
 C269 C 0.14421 0.03720 0.22951
 C270 C 0.12667 0.03782 0.21307
 C271 C 0.10945 0.02068 0.21393
 C272 C 0.10966 0.00354 0.23084
 C273 C 0.12635 0.05618 0.19510
 C274 C 0.10556 0.06522 0.18701
 C275 C 0.10525 0.08210 0.16987
 C276 C 0.12572 0.09071 0.16057
 C277 C 0.14652 0.08192 0.16889
 C278 C 0.14683 0.06476 0.18579
 H279 H 0.11345 -0.04283 0.24357
 H280 H 0.11342 -0.07262 0.27316
 H281 H 0.14276 -0.02348 0.32072
 H282 H 0.14183 0.00668 0.29157
 H283 H 0.15867 0.01970 0.25823
 H284 H 0.15758 0.05027 0.22965
 H285 H 0.09585 0.02032 0.20139
 H286 H 0.09583 -0.00901 0.23120
 H287 H 0.08945 0.05937 0.19400
 H288 H 0.08888 0.08819 0.16370
 H289 H 0.16265 0.08836 0.16245
 H290 H 0.16317 0.05803 0.19132
 C291 C 0.62620 0.51573 -0.26664
 C292 C 0.64464 0.51746 -0.28175
 C293 C 0.64468 0.53409 -0.29914
 C294 C 0.62619 0.54951 -0.30197
 C295 C 0.60777 0.54774 -0.28663
 C296 C 0.60780 0.53111 -0.26923
 C297 C 0.62610 0.49785 -0.24834
 C298 C 0.61811 0.50324 -0.22640
 C299 C 0.61804 0.48637 -0.20922
 C300 C 0.62592 0.46372 -0.21359
 C301 C 0.63390 0.45834 -0.23552
 C302 C 0.63399 0.47520 -0.25269
 C303 C 0.62579 0.44575 -0.19537
 C304 C 0.61941 0.42267 -0.20033
 C305 C 0.61937 0.40572 -0.18324
 C306 C 0.62570 0.41145 -0.16079
 C307 C 0.63208 0.43453 -0.15581
 C308 C 0.63211 0.45150 -0.17291
 H309 H 0.65924 0.50608 -0.27999
 H310 H 0.65933 0.53464 -0.31026
 H311 H 0.59312 0.55905 -0.28792
 H312 H 0.59320 0.53003 -0.25800
 H313 H 0.61213 0.52059 -0.22245
 H314 H 0.61157 0.49099 -0.19256
 H315 H 0.64031 0.44113 -0.23937
 H316 H 0.64002 0.47043 -0.26948
 H317 H 0.61422 0.41774 -0.21740
 H318 H 0.61460 0.38804 -0.18767
 H319 H 0.63682 0.43954 -0.13863
 H320 H 0.63734 0.46907 -0.16860
 C321 C 0.37505 1.01450 0.76641
 C322 C 0.38295 1.03726 0.76205
 C323 C 0.38288 1.05416 0.77920
 C324 C 0.37450 1.04884 0.80097
 C325 C 0.36642 1.02625 0.80537
 C326 C 0.36691 1.00921 0.78837
 C327 C 0.37526 0.99642 0.74817
 C328 C 0.35814 0.97919 0.74714
 C329 C 0.35841 0.96213 0.73016
 C330 C 0.37556 0.96205 0.71344
 C331 C 0.39258 0.97939 0.71435
 C332 C 0.39255 0.99620 0.73158
 C333 C 0.37568 0.94400 0.69517
 C334 C 0.39638 0.93547 0.68647
 C335 C 0.39647 0.91866 0.66924
 C336 C 0.37587 0.90961 0.66049
 C337 C 0.35518 0.91800 0.66931
 C338 C 0.35508 0.93511 0.68625
 H339 H 0.38888 1.04220 0.74527
 H340 H 0.38895 1.07153 0.77527
 H341 H 0.36013 1.02161 0.82211
 H342 H 0.36117 0.99181 0.79259
 H343 H 0.34432 0.97894 0.75934
 H344 H 0.34521 0.94887 0.73031
 H345 H 0.40589 0.98018 0.70162
 H346 H 0.40624 1.00891 0.73196
 H347 H 0.41260 0.94158 0.69310
 H348 H 0.41274 0.91294 0.66265
 H349 H 0.33897 0.91122 0.66330
 H350 H 0.33879 0.94148 0.69219
 C351 C 0.87235 0.48331 0.23570
 C352 C 0.89245 0.47128 0.23034
 C353 C 0.89236 0.45405 0.21350
 C354 C 0.87220 0.44860 0.20153
 C355 C 0.85209 0.46068 0.20689
 C356 C 0.85215 0.47778 0.22385
 C357 C 0.87247 0.50162 0.25355
 C358 C 0.85475 0.50283 0.26959
 C359 C 0.85493 0.52001 0.28647
 C360 C 0.87274 0.53646 0.28755
 C361 C 0.89041 0.53531 0.27145
 C362 C 0.89032 0.51802 0.25468
 C363 C 0.87293 0.55474 0.30544
 C364 C 0.87868 0.57785 0.29999
 C365 C 0.87891 0.59506 0.31684
 C366 C 0.87353 0.58951 0.33956
 C367 C 0.86779 0.56636 0.34497
 C368 C 0.86742 0.54919 0.32809
 H369 H 0.90822 0.47503 0.23934
 H370 H 0.90819 0.44523 0.20972
 H371 H 0.83623 0.45683 0.19813
 H372 H 0.83645 0.48692 0.22750
 H373 H 0.84088 0.49030 0.26924
 H374 H 0.84101 0.52060 0.29855
 H375 H 0.90445 0.54763 0.27200
 H376 H 0.90409 0.51763 0.24242
 H377 H 0.88267 0.58268 0.28261
 H378 H 0.88301 0.61278 0.31202
 H379 H 0.86394 0.56143 0.36236
 H380 H 0.86323 0.53145 0.33283
 C381 C 0.26326 0.12370 -0.01520
 C382 C 0.25877 0.11507 -0.03724
 C383 C 0.27585 0.11497 -0.05383
 C384 C 0.29766 0.12388 -0.04891
 C385 C 0.30218 0.13265 -0.02702
 C386 C 0.28526 0.13236 -0.01029
 C387 C 0.24509 0.12374 0.00254
 C388 C 0.24404 0.14169 0.01882
 C389 C 0.22715 0.14166 0.03557
 C390 C 0.21056 0.12389 0.03630
 C391 C 0.21149 0.10603 0.01992
 C392 C 0.22861 0.10586 0.00339
 C393 C 0.19244 0.12400 0.05409
 C394 C 0.18412 0.10303 0.06336
 C395 C 0.16724 0.10318 0.08015
 C396 C 0.15847 0.12432 0.08840
 C397 C 0.16680 0.14528 0.07914
 C398 C 0.18339 0.14511 0.06210
 H399 H 0.24196 0.10871 -0.04186
 H400 H 0.27181 0.10836 -0.07067
 H401 H 0.31895 0.13935 -0.02267
 H402 H 0.28956 0.13866 0.00658
 H403 H 0.25616 0.15597 0.01854
 H404 H 0.22728 0.15551 0.04808
 H405 H 0.19885 0.09222 0.01968
 H406 H 0.22902 0.09153 -0.00860
 H407 H 0.19085 0.08642 0.05790
 H408 H 0.16101 0.08667 0.08656
 H409 H 0.16074 0.16192 0.08525
 H410 H 0.18902 0.16161 0.05513
 C411 C 0.73760 0.62651 0.51521
 C412 C 0.73425 0.60688 0.52911
 C413 C 0.71765 0.60697 0.54616
 C414 C 0.70396 0.62670 0.54972
 C415 C 0.70735 0.64634 0.53580
 C416 C 0.72397 0.64625 0.51875
 C417 C 0.75525 0.62637 0.49707
 C418 C 0.75081 0.63642 0.47566
 C419 C 0.76739 0.63620 0.45859
 C420 C 0.78880 0.62596 0.46253
 C421 C 0.79325 0.61594 0.48395
 C422 C 0.77666 0.61613 0.50101
 C423 C 0.80645 0.62575 0.44440
 C424 C 0.82952 0.62993 0.44977
 C425 C 0.84612 0.62974 0.43272
 C426 C 0.84005 0.62536 0.40991
 C427 C 0.81699 0.62116 0.40454
 C428 C 0.80038 0.62136 0.42158
 H429 H 0.74424 0.59128 0.52659
 H430 H 0.71541 0.59141 0.55630
 H431 H 0.69735 0.66195 0.53816
 H432 H 0.72636 0.66177 0.50855
 H433 H 0.73440 0.64422 0.47202
 H434 H 0.76353 0.64428 0.44235
 H435 H 0.80948 0.60770 0.48744
 H436 H 0.78069 0.60847 0.51740
 H437 H 0.83472 0.63360 0.46714
 H438 H 0.86377 0.63280 0.43744
 H439 H 0.81175 0.61795 0.38709
 H440 H 0.78279 0.61782 0.41693
 C441 C 0.76584 0.37423 0.01338
 C442 C 0.76066 0.38164 0.03563
 C443 C 0.77742 0.38181 0.05265
 C444 C 0.79966 0.37424 0.04793
 C445 C 0.80486 0.36662 0.02581
 C446 C 0.78820 0.36677 0.00869
 C447 C 0.74806 0.37436 -0.00485
 C448 C 0.74760 0.35699 -0.02177
 C449 C 0.73100 0.35723 -0.03895
 C450 C 0.71423 0.37468 -0.03953
 C451 C 0.71461 0.39196 -0.02253
 C452 C 0.73137 0.39189 -0.00553
 C453 C 0.69637 0.37485 -0.05769
 C454 C 0.68816 0.39600 -0.06651
 C455 C 0.67103 0.39620 -0.08316
 C456 C 0.66186 0.37525 -0.09168
 C457 C 0.67031 0.35409 -0.08311
 C458 C 0.68723 0.35389 -0.06624
 H459 H 0.74355 0.38703 0.04003
 H460 H 0.77282 0.38748 0.06962
 H461 H 0.82193 0.36097 0.02159
 H462 H 0.79297 0.36139 -0.00831
 H463 H 0.75994 0.34301 -0.02164
 H464 H 0.73147 0.34382 -0.05190
 H465 H 0.70179 0.40547 -0.02217
 H466 H 0.73135 0.40575 0.00698
 H467 H 0.69502 0.41249 -0.06066
 H468 H 0.66477 0.41284 -0.08911
 H469 H 0.66395 0.33760 -0.08951
 H470 H 0.69290 0.33726 -0.05969
 C471 C 0.23506 0.87578 0.48667
 C472 C 0.23976 0.88357 0.46441
 C473 C 0.22258 0.88405 0.44782
 C474 C 0.20041 0.87637 0.45295
 C475 C 0.19568 0.86835 0.47504
 C476 C 0.21275 0.86824 0.49177
 C477 C 0.25334 0.87554 0.50442
 C478 C 0.25389 0.85803 0.52119
 C479 C 0.27096 0.85791 0.53791
 C480 C 0.28816 0.87508 0.53814
 C481 C 0.28770 0.89248 0.52127
 C482 C 0.27044 0.89282 0.50477
 C483 C 0.30643 0.87490 0.55590
 C484 C 0.31547 0.89588 0.56451
 C485 C 0.33266 0.89573 0.58109
 C486 C 0.34103 0.87460 0.58982
 C487 C 0.33193 0.85362 0.58130
 C488 C 0.31499 0.85376 0.56445
 H489 H 0.25680 0.88900 0.45964
 H490 H 0.22681 0.89000 0.43084
 H491 H 0.17866 0.86255 0.47953
 H492 H 0.20833 0.86257 0.50878
 H493 H 0.24125 0.84423 0.52132
 H494 H 0.27049 0.84443 0.55079
 H495 H 0.30081 0.90580 0.52063
 H496 H 0.27043 0.90680 0.49240
 H497 H 0.30912 0.91251 0.55864
 H498 H 0.33948 0.91224 0.58694
 H499 H 0.33769 0.83701 0.58781
 H500 H 0.30875 0.83724 0.55802
   
