data_POSCAR
  _audit_creation_date              2014-09-24
  _audit_creation_method            'ToBaCCo'
  _symmetry_space_group_name_H-M    'P1'
  _symmetry_Int_Tables_number       1
  _symmetry_cell_setting            triclinic
  loop_
  _symmetry_equiv_pos_as_xyz
 x,y,z
_cell_length_a 29.1279
_cell_length_b 28.7965
_cell_length_c 23.5451
_cell_angle_alpha 89.724100
_cell_angle_beta 90.107000
_cell_angle_gamma 84.507700
loop_
  _atom_site_label
  _atom_site_type_symbol
  _atom_site_fract_x
  _atom_site_fract_y
  _atom_site_fract_z
O1 O -0.03104 0.28377 0.04266
 O2 O 0.05123 0.28669 -0.07552
 O3 O -0.03592 0.28167 -0.06610
 O4 O 0.05931 0.28946 0.03669
 O5 O 0.07006 0.21249 0.03796
 O6 O -0.02293 0.20469 -0.06393
 O7 O 0.06358 0.20979 -0.07376
 O8 O -0.01880 0.20684 0.04423
 Cu9 Cu 0.01049 0.29339 -0.01497
 Cu10 Cu 0.02498 0.20074 -0.01286
 C11 C -0.04043 0.24440 0.06158
 C12 C 0.06928 0.24878 -0.09660
 C13 C -0.04541 0.24157 -0.08219
 C14 C 0.08069 0.25173 0.05469
 O15 O 0.52733 0.79985 0.47365
 O16 O 0.43470 0.79378 0.58154
 O17 O 0.52647 0.79323 0.58450
 O18 O 0.43614 0.80137 0.47146
 O19 O 0.44426 0.72454 0.46454
 O20 O 0.53129 0.71648 0.57727
 O21 O 0.44171 0.71705 0.57327
 O22 O 0.53337 0.72294 0.46821
 Cu23 Cu 0.48058 0.80489 0.52866
 Cu24 Cu 0.48834 0.71276 0.52031
 C25 C 0.54646 0.76190 0.45341
 C26 C 0.42172 0.75404 0.59419
 C27 C 0.54481 0.75299 0.59895
 C28 C 0.42453 0.76384 0.44967
 O29 O 0.94895 0.67697 -0.01414
 O30 O 1.03063 0.72043 0.08654
 O31 O 0.94171 0.71869 0.08347
 O32 O 1.03811 0.68276 -0.01175
 O33 O 1.03058 0.75156 -0.05448
 O34 O 0.93220 0.78709 0.03999
 O35 O 1.02207 0.78972 0.04506
 O36 O 0.94061 0.74513 -0.05829
 Cu37 Cu 0.99043 0.69278 0.04003
 Cu38 Cu 0.98029 0.77534 -0.01127
 C39 C 0.93076 0.70326 -0.05299
 C40 C 1.04092 0.76214 0.08250
 C41 C 0.92044 0.75905 0.07784
 C42 C 1.05161 0.71121 -0.04798
 O43 O 0.47242 0.21414 0.43421
 O44 O 0.56530 0.20481 0.54144
 O45 O 0.47427 0.20715 0.54402
 O46 O 0.56207 0.21571 0.43177
 O47 O 0.55411 0.29244 0.44076
 O48 O 0.46891 0.28390 0.55250
 O49 O 0.55813 0.28161 0.54928
 O50 O 0.46549 0.29084 0.44372
 Cu51 Cu 0.51928 0.20254 0.48723
 Cu52 Cu 0.51103 0.29482 0.49762
 C53 C 0.45288 0.25416 0.42139
 C54 C 0.57809 0.24200 0.56246
 C55 C 0.45597 0.24468 0.56613
 C56 C 0.57301 0.25592 0.41768
 O57 O 0.71802 0.03713 -0.06849
 O58 O 0.68771 -0.02792 0.05803
 O59 O 0.70911 0.05601 0.03819
 O60 O 0.70627 -0.05121 -0.04815
 O61 O 0.78043 -0.06767 -0.02965
 O62 O 0.78292 0.03598 0.05645
 O63 O 0.76144 -0.04610 0.07749
 O64 O 0.79206 0.02036 -0.04942
 Cu65 Cu 0.69772 0.00482 -0.00728
 Cu66 Cu 0.78651 -0.01717 0.01483
 C67 C 0.76002 0.04182 -0.07889
 C68 C 0.71911 -0.04634 0.09047
 C69 C 0.74704 0.06390 0.06169
 C70 C 0.74375 -0.07739 -0.05355
 O71 O 0.20826 0.45565 0.54588
 O72 O 0.20297 0.55388 0.44251
 O73 O 0.20699 0.46126 0.43461
 O74 O 0.20379 0.54784 0.55245
 O75 O 0.27989 0.54411 0.55044
 O76 O 0.28302 0.45844 0.43595
 O77 O 0.27915 0.54866 0.44168
 O78 O 0.28426 0.45374 0.54543
 Cu79 Cu 0.19770 0.50489 0.49380
 Cu80 Cu 0.28902 0.50073 0.49327
 C81 C 0.24765 0.43789 0.56265
 C82 C 0.24058 0.56849 0.42587
 C83 C 0.24621 0.44465 0.41620
 C84 C 0.24162 0.56135 0.57023
 O85 O 0.32613 1.03587 0.03775
 O86 O 0.28140 0.94142 -0.04298
 O87 O 0.31023 1.02043 -0.06946
 O88 O 0.28972 0.95847 0.06356
 O89 O 0.21993 0.99576 0.06787
 O90 O 0.24018 1.05720 -0.06567
 O91 O 0.21086 0.97710 -0.03951
 O92 O 0.25655 1.07358 0.04174
 Cu93 Cu 0.30902 0.98585 -0.00271
 Cu94 Cu 0.22493 1.02983 0.00200
 C95 C 0.29950 1.07091 0.05288
 C96 C 0.23885 0.94293 -0.05538
 C97 C 0.27837 1.04835 -0.09085
 C98 C 0.25051 0.96554 0.08720
 O99 O 0.78842 0.53939 0.54893
 O100 O 0.79594 0.45326 0.43251
 O101 O 0.78918 0.54561 0.43891
 O102 O 0.79472 0.44777 0.54303
 O103 O 0.71863 0.45103 0.54074
 O104 O 0.71320 0.54694 0.43823
 O105 O 0.71982 0.45675 0.43148
 O106 O 0.71240 0.54101 0.54685
 Cu107 Cu 0.79991 0.49624 0.49080
 Cu108 Cu 0.70849 0.49902 0.48900
 C109 C 0.74887 0.55519 0.56690
 C110 C 0.75868 0.43987 0.41318
 C111 C 0.74978 0.56353 0.42229
 C112 C 0.75713 0.43273 0.55904
 C113 C 0.21321 0.22298 0.07343
 C114 C 0.25098 0.19091 0.07351
 C115 C 0.27271 0.19491 0.12529
 N116 N 0.24978 0.22922 0.15634
 C117 C 0.21264 0.24577 0.12530
 C118 C 0.31490 0.16953 0.14093
 C119 C 0.34042 0.17952 0.18964
 C120 C 0.38633 0.16335 0.19820
 C121 C 0.39925 0.18078 0.24947
 C122 C 0.36080 0.20682 0.27086
 N123 N 0.32484 0.20522 0.23478
 C124 C 0.35980 0.23025 0.32318
 C125 C 0.32242 0.26150 0.34099
 C126 C 0.31535 0.27650 0.39633
 C127 C 0.27846 0.30975 0.39503
 C128 C 0.26424 0.31394 0.33890
 N129 N 0.29109 0.28428 0.30591
 C130 C 0.22913 0.34732 0.31874
 C131 C 0.20586 0.34208 0.26673
 C132 C 0.17159 0.37376 0.24468
 C133 C 0.15664 0.35471 0.19494
 C134 C 0.18291 0.31243 0.18756
 N135 N 0.21211 0.30468 0.23190
 C136 C 0.17846 0.28198 0.14140
 H137 H 0.19018 0.22996 0.03768
 H138 H 0.26202 0.16909 0.03796
 H139 H 0.23196 0.27366 0.24027
 H140 H 0.40846 0.14175 0.17001
 H141 H 0.43313 0.17512 0.26870
 H142 H 0.33471 0.26467 0.43377
 H143 H 0.26364 0.32854 0.43132
 H144 H 0.12995 0.37045 0.16696
 H145 H 0.29090 0.21743 0.24314
 H146 H 0.15834 0.40678 0.26291
 C147 C 0.78994 0.87805 0.17992
 C148 C 0.82548 0.84348 0.17419
 C149 C 0.80914 0.80255 0.19330
 N150 N 0.76488 0.81111 0.21063
 C151 C 0.75300 0.85718 0.20202
 C152 C 0.83370 0.75762 0.19261
 C153 C 0.82144 0.72079 0.22741
 C154 C 0.83961 0.67468 0.22243
 C155 C 0.82168 0.65038 0.26644
 C156 C 0.79319 0.68241 0.29685
 N157 N 0.79357 0.72530 0.27323
 C158 C 0.76925 0.67198 0.34645
 C159 C 0.73508 0.70370 0.37096
 C160 C 0.71849 0.70035 0.42576
 C161 C 0.68281 0.73467 0.43111
 C162 C 0.67884 0.75777 0.37936
 N163 N 0.71092 0.73890 0.34265
 C164 C 0.64387 0.79334 0.36521
 C165 C 0.64789 0.82365 0.31873
 C166 C 0.61254 0.85474 0.29813
 C167 C 0.63089 0.87903 0.25442
 C168 C 0.67686 0.86186 0.24960
 N169 N 0.68707 0.82848 0.28931
 C170 C 0.70862 0.87994 0.21230
 H171 H 0.79196 0.91465 0.17113
 H172 H 0.85982 0.84877 0.15982
 H173 H 0.71999 0.81365 0.29955
 H174 H 0.86370 0.66016 0.19077
 H175 H 0.82900 0.61349 0.27529
 H176 H 0.73082 0.67573 0.45846
 H177 H 0.66232 0.74185 0.46887
 H178 H 0.61262 0.90656 0.22942
 H179 H 0.77953 0.75656 0.29069
 H180 H 0.57738 0.85970 0.31337
 C181 C 0.79034 0.19262 0.07119
 C182 C 0.82742 0.21828 0.07544
 C183 C 0.82418 0.24013 0.12783
 N184 N 0.78591 0.22902 0.15520
 C185 C 0.76552 0.19939 0.12108
 C186 C 0.85518 0.27157 0.14760
 C187 C 0.84626 0.30096 0.19479
 C188 C 0.86764 0.34115 0.20452
 C189 C 0.84861 0.36078 0.25342
 C190 C 0.81687 0.33147 0.27255
 N191 N 0.81618 0.29469 0.23714
 C192 C 0.79038 0.33881 0.32225
 C193 C 0.75683 0.30947 0.33971
 C194 C 0.73932 0.30807 0.39425
 C195 C 0.70443 0.27945 0.39252
 C196 C 0.70157 0.26453 0.33683
 N197 N 0.73402 0.28257 0.30489
 C198 C 0.66894 0.23504 0.31682
 C199 C 0.67259 0.21157 0.26440
 C200 C 0.64571 0.17644 0.24924
 C201 C 0.66207 0.15957 0.19780
 C202 C 0.69813 0.18526 0.18281
 N203 N 0.70351 0.21766 0.22286
 C204 C 0.72621 0.17604 0.13472
 H205 H 0.78237 0.17175 0.03502
 H206 H 0.85284 0.22146 0.04260
 H207 H 0.72603 0.24321 0.22079
 H208 H 0.89346 0.35539 0.17835
 H209 H 0.85725 0.39284 0.27278
 H210 H 0.75068 0.32567 0.43149
 H211 H 0.68415 0.27023 0.42856
 H212 H 0.64962 0.13081 0.17480
 H213 H 0.79915 0.26512 0.24399
 H214 H 0.61835 0.16314 0.27371
 C215 C 0.26542 0.70169 0.42409
 C216 C 0.29565 0.73510 0.42802
 C217 C 0.29213 0.76025 0.37764
 N218 N 0.26005 0.74376 0.34360
 C219 C 0.24399 0.70763 0.37163
 C220 C 0.32027 0.79598 0.36303
 C221 C 0.31177 0.82591 0.31568
 C222 C 0.34191 0.85708 0.29713
 C223 C 0.32279 0.87806 0.24884
 C224 C 0.28150 0.85907 0.23914
 N225 N 0.27443 0.82816 0.28092
 C226 C 0.25323 0.86986 0.19107
 C227 C 0.21565 0.84502 0.17425
 C228 C 0.19582 0.84828 0.12060
 C229 C 0.16338 0.81697 0.11889
 C230 C 0.16399 0.79538 0.17163
 N231 N 0.19615 0.81254 0.20528
 C232 C 0.13624 0.75943 0.18719
 C233 C 0.14523 0.73003 0.23497
 C234 C 0.11747 0.69574 0.25124
 C235 C 0.13880 0.67248 0.29671
 C236 C 0.17867 0.69353 0.30740
 N237 N 0.18269 0.72817 0.26923
 C238 C 0.20978 0.67990 0.35166
 H239 H 0.25908 0.67678 0.45699
 H240 H 0.31729 0.74042 0.46431
 H241 H 0.21139 0.74620 0.26347
 H242 H 0.37477 0.86329 0.31572
 H243 H 0.33819 0.90355 0.22294
 H244 H 0.20531 0.86900 0.08482
 H245 H 0.14393 0.80955 0.08146
 H246 H 0.12616 0.64367 0.31970
 H247 H 0.24481 0.81156 0.28694
 H248 H 0.08540 0.68787 0.23187
 C249 C 0.80066 0.16864 0.89041
 C250 C 0.82808 0.20454 0.89320
 C251 C 0.82700 0.22528 0.83995
 N252 N 0.79919 0.20351 0.80494
 C253 C 0.78338 0.16845 0.83551
 C254 C 0.85320 0.26247 0.82466
 C255 C 0.84511 0.29060 0.77579
 C256 C 0.87204 0.32555 0.75958
 C257 C 0.85310 0.34483 0.71016
 C258 C 0.81560 0.32064 0.69726
 N259 N 0.81038 0.28837 0.73817
 C260 C 0.78820 0.32859 0.64806
 C261 C 0.75739 0.29704 0.62828
 C262 C 0.73849 0.29800 0.57416
 C263 C 0.70991 0.26299 0.57221
 C264 C 0.71240 0.24159 0.62506
 N265 N 0.74189 0.26200 0.65894
 C266 C 0.68420 0.20682 0.64224
 C267 C 0.69297 0.17788 0.69024
 C268 C 0.66399 0.14555 0.70874
 C269 C 0.68355 0.12539 0.75725
 C270 C 0.72358 0.14648 0.76742
 N271 N 0.72981 0.17748 0.72540
 C272 C 0.75123 0.13795 0.81639
 H273 H 0.79286 0.14688 0.92597
 H274 H 0.84568 0.21492 0.93090
 H275 H 0.75857 0.19548 0.71927
 H276 H 0.90228 0.33597 0.78103
 H277 H 0.86614 0.37265 0.68573
 H278 H 0.74505 0.32090 0.53917
 H279 H 0.68967 0.25421 0.53591
 H280 H 0.66900 0.09942 0.78329
 H281 H 0.78304 0.26821 0.74271
 H282 H 0.63177 0.13777 0.68970
 C283 C 0.15052 0.77809 0.91455
 C284 C 0.17687 0.81531 0.91410
 C285 C 0.20496 0.81022 0.86669
 N286 N 0.19631 0.77115 0.83828
 C287 C 0.16279 0.75151 0.86701
 C288 C 0.24178 0.83767 0.85441
 C289 C 0.27419 0.82701 0.81060
 C290 C 0.31667 0.84500 0.80765
 C291 C 0.33802 0.82757 0.75913
 C292 C 0.30786 0.79979 0.73351
 N293 N 0.26874 0.80003 0.76470
 C294 C 0.31670 0.77652 0.68157
 C295 C 0.28745 0.74482 0.65906
 C296 C 0.28768 0.73036 0.60306
 C297 C 0.25712 0.69709 0.59954
 C298 C 0.23953 0.69219 0.65361
 N299 N 0.25794 0.72155 0.68992
 C300 C 0.21019 0.65817 0.66975
 C301 C 0.18732 0.65910 0.72247
 C302 C 0.16701 0.62165 0.74486
 C303 C 0.14995 0.63543 0.79712
 C304 C 0.15998 0.68116 0.80511
 N305 N 0.18207 0.69569 0.75874
 C306 C 0.14715 0.70740 0.85427
 H307 H 0.12644 0.77102 0.94757
 H308 H 0.17688 0.84142 0.94694
 H309 H 0.19002 0.72941 0.75036
 H310 H 0.33100 0.86813 0.83761
 H311 H 0.37178 0.83473 0.74425
 H312 H 0.30763 0.74265 0.56835
 H313 H 0.24897 0.67853 0.56157
 H314 H 0.13220 0.61399 0.82609
 H315 H 0.23850 0.78636 0.75272
 H316 H 0.16543 0.58764 0.72597
 C317 C 0.28465 0.30206 0.57361
 C318 C 0.32084 0.26800 0.57380
 C319 C 0.32157 0.24744 0.62711
 N320 N 0.28727 0.26770 0.65956
 C321 C 0.26471 0.30117 0.62693
 C322 C 0.35565 0.21290 0.64633
 C323 C 0.34896 0.18390 0.69315
 C324 C 0.38283 0.15281 0.71695
 C325 C 0.36162 0.12875 0.75851
 C326 C 0.31557 0.14629 0.75906
 N327 N 0.30807 0.17966 0.71887
 C328 C 0.28140 0.12764 0.79197
 C329 C 0.23697 0.15114 0.80098
 C330 C 0.19961 0.13123 0.82378
 C331 C 0.16312 0.16540 0.82355
 C332 C 0.17934 0.20500 0.80046
 N333 N 0.22460 0.19640 0.78736
 C334 C 0.15228 0.24785 0.79077
 C335 C 0.16742 0.28486 0.75873
 C336 C 0.14555 0.32982 0.75778
 C337 C 0.16688 0.35406 0.71640
 C338 C 0.20066 0.32295 0.69292
 N339 N 0.20071 0.28087 0.71890
 C340 C 0.22809 0.33281 0.64600
 H341 H 0.27406 0.32452 0.53806
 H342 H 0.34378 0.25915 0.53859
 H343 H 0.21776 0.24967 0.70523
 H344 H 0.41874 0.14730 0.70472
 H345 H 0.37800 0.10093 0.78474
 H346 H 0.19813 0.09551 0.83739
 H347 H 0.12838 0.16110 0.83738
 H348 H 0.15771 0.38998 0.70389
 H349 H 0.27597 0.19406 0.70496
 H350 H 0.11659 0.34339 0.78349
 C351 C 0.68020 0.72483 0.60784
 C352 C 0.71586 0.69067 0.60161
 C353 C 0.73545 0.68305 0.65487
 N354 N 0.71314 0.71144 0.69339
 C355 C 0.67926 0.73699 0.66469
 C356 C 0.77076 0.64755 0.66780
 C357 C 0.79694 0.64628 0.71809
 C358 C 0.82679 0.60850 0.73503
 C359 C 0.84578 0.62058 0.78564
 C360 C 0.82685 0.66541 0.79834
 N361 N 0.79770 0.68120 0.75623
 C362 C 0.83788 0.68961 0.84788
 C363 C 0.81115 0.73018 0.86783
 C364 C 0.81647 0.75087 0.92010
 C365 C 0.78269 0.78721 0.92389
 C366 C 0.75733 0.78805 0.87389
 N367 N 0.77425 0.75239 0.84039
 C368 C 0.71849 0.82068 0.86157
 C369 C 0.68579 0.81465 0.81853
 C370 C 0.64229 0.83876 0.81562
 C371 C 0.62127 0.82369 0.76737
 C372 C 0.65293 0.79156 0.74170
 N373 N 0.69220 0.78655 0.77302
 C374 C 0.64580 0.76954 0.68937
 H375 H 0.65783 0.73939 0.57421
 H376 H 0.72622 0.67346 0.56232
 H377 H 0.72325 0.76873 0.76149
 H378 H 0.83390 0.57553 0.71335
 H379 H 0.87038 0.59850 0.81066
 H380 H 0.84020 0.74010 0.95392
 H381 H 0.77633 0.80874 0.96108
 H382 H 0.58700 0.83563 0.75237
 H383 H 0.78249 0.71496 0.75087
 H384 H 0.62714 0.86426 0.84545
 N385 N 0.31729 0.10494 0.07909
 N386 N 0.33705 0.13566 0.10265
 N387 N 0.74428 0.59104 0.60830
 N388 N 0.77857 0.60902 0.62952
 N389 N 0.70740 0.93703 0.13952
 N390 N 0.69405 0.92413 0.18615
 N391 N 0.25232 0.39754 0.59822
 N392 N 0.21870 0.37665 0.61659
 N393 N 0.92203 0.24143 0.09973
 N394 N 0.89586 0.27713 0.11489
 N395 N 0.38249 0.74986 0.62946
 N396 N 0.35817 0.78434 0.65116
 N397 N 0.07571 0.77750 0.11881
 N398 N 0.09866 0.74842 0.15137
 N399 N 0.61733 0.24057 0.59855
 N400 N 0.64231 0.20325 0.61108
 N401 N 0.77156 0.07451 0.87897
 N402 N 0.74032 0.10056 0.85319
 N403 N 0.24075 0.60962 0.39212
 N404 N 0.20475 0.63647 0.38025
 N405 N 0.22288 0.90640 0.91083
 N406 N 0.25225 0.87476 0.89163
 N407 N 0.75920 0.40286 0.37349
 N408 N 0.79558 0.37956 0.35568
 N409 N 0.08951 0.24990 0.85411
 N410 N 0.10438 0.25253 0.80540
 N411 N 0.58498 0.76155 0.41599
 N412 N 0.60211 0.79799 0.39829
 N413 N 0.90159 0.68635 0.91224
 N414 N 0.87542 0.66696 0.88091
 N415 N 0.41494 0.25863 0.38305
 N416 N 0.40006 0.22375 0.35859
 N417 N 0.74618 0.88150 0.91305
 N418 N 0.71143 0.86278 0.89439
 N419 N 0.25083 0.40758 0.37586
 N420 N 0.21787 0.38859 0.35249
 N421 N 0.28467 0.06634 0.85919
 N422 N 0.29246 0.08050 0.81109
 N423 N 0.74505 0.60518 0.38905
 N424 N 0.77873 0.62673 0.37232
 N425 N 0.08837 0.69844 0.92218
 N426 N 0.12327 0.68278 0.89657
 N427 N 0.60856 0.26103 0.37746
 N428 N 0.63087 0.22675 0.35291
 N429 N 0.91744 0.23672 0.87986
 N430 N 0.89179 0.27109 0.85977
 N431 N 0.38679 0.76421 0.41086
 N432 N 0.36099 0.80062 0.39666
 N433 N 0.23885 0.93632 0.13286
 N434 N 0.26765 0.90416 0.15231
 N435 N 0.75693 0.39337 0.59596
 N436 N 0.79302 0.37018 0.61530
 N437 N 0.75072 0.10470 0.09422
 N438 N 0.71766 0.13608 0.10174
 N439 N 0.24225 0.59809 0.61068
 N440 N 0.20623 0.61882 0.63307
 N441 N 0.88245 0.77297 0.11409
 N442 N 0.87205 0.74683 0.15487
 N443 N 0.41739 0.24440 0.60295
 N444 N 0.39897 0.20777 0.61699
 N445 N 0.11870 0.25195 0.09251
 N446 N 0.13691 0.28824 0.10808
 N447 N 0.58363 0.74733 0.63638
 N448 N 0.60284 0.78047 0.65939
   
