data_POSCAR
  _audit_creation_date              2014-09-24
  _audit_creation_method            'ToBaCCo'
  _symmetry_space_group_name_H-M    'P1'
  _symmetry_Int_Tables_number       1
  _symmetry_cell_setting            triclinic
  loop_
  _symmetry_equiv_pos_as_xyz
 x,y,z
_cell_length_a 27.0415
_cell_length_b 27.0376
_cell_length_c 45.8288
_cell_angle_alpha 90.794700
_cell_angle_beta 89.564300
_cell_angle_gamma 90.182400
loop_
  _atom_site_label
  _atom_site_type_symbol
  _atom_site_fract_x
  _atom_site_fract_y
  _atom_site_fract_z
O1 O -0.04075 0.45351 1.02863
 O2 O -0.04152 0.54768 0.97131
 O3 O -0.04112 0.45126 0.97182
 O4 O -0.04132 0.54994 1.02803
 O5 O 0.04047 0.55061 1.02754
 O6 O 0.04067 0.45190 0.97132
 O7 O 0.04026 0.54832 0.97082
 O8 O 0.04103 0.45419 1.02812
 Cu9 Cu -0.04943 0.50050 1.00000
 Cu10 Cu 0.04886 0.50129 0.99940
 C11 C 0.00028 0.43788 1.03800
 C12 C -0.00074 0.56406 0.96147
 C13 C -0.00019 0.43485 0.96212
 C14 C -0.00047 0.56709 1.03717
 O15 O 0.45175 0.03920 0.52850
 O16 O 0.55036 0.04078 0.47259
 O17 O 0.45393 0.04144 0.47177
 O18 O 0.54819 0.03874 0.52931
 O19 O 0.54751 -0.04304 0.52756
 O20 O 0.45323 -0.04034 0.47001
 O21 O 0.54964 -0.04099 0.47085
 O22 O 0.45110 -0.04258 0.52673
 Cu23 Cu 0.50112 0.04829 0.50072
 Cu24 Cu 0.50030 -0.04999 0.49861
 C25 C 0.43467 -0.00198 0.53697
 C26 C 0.56677 0.00014 0.46236
 C27 C 0.43755 0.00101 0.46125
 C28 C 0.56390 -0.00260 0.53807
 C29 C 0.00275 0.00739 0.25042
 C30 C -0.00297 -0.00696 0.75028
 C31 C -0.00061 -0.39357 0.05849
 C32 C -0.00082 -0.35993 0.07603
 C33 C -0.00119 -0.31914 0.09654
 C34 C -0.02610 -0.27556 0.08976
 C35 C -0.02587 -0.23546 0.10933
 C36 C -0.00066 -0.23842 0.13600
 C37 C 0.02403 -0.28254 0.14271
 C38 C 0.02378 -0.32261 0.12307
 C39 C 0.00018 -0.19548 0.15656
 C40 C -0.00472 -0.20239 0.18683
 C41 C -0.00413 -0.16180 0.20609
 C42 C 0.00143 -0.11388 0.19536
 C43 C 0.00646 -0.10665 0.16532
 C44 C 0.00585 -0.14713 0.14603
 C45 C 0.00186 -0.07198 0.21505
 C46 C 0.00225 -0.03639 0.23122
 H47 H -0.04564 -0.27252 0.06932
 H48 H -0.04579 -0.20229 0.10372
 H49 H 0.04425 -0.28575 0.16289
 H50 H 0.04333 -0.35613 0.12848
 H51 H -0.00972 -0.23908 0.19557
 H52 H -0.00819 -0.16778 0.22932
 H53 H 0.01094 -0.06972 0.15679
 H54 H 0.01042 -0.14065 0.12291
 C55 C 0.00061 0.40063 0.05998
 C56 C 0.00097 0.36890 0.07819
 C57 C 0.00144 0.33048 0.09961
 C58 C 0.04370 0.30145 0.10299
 C59 C 0.04378 0.26314 0.12316
 C60 C 0.00148 0.25330 0.14022
 C61 C -0.04068 0.28301 0.13685
 C62 C -0.04066 0.32133 0.11667
 C63 C 0.00105 0.21155 0.16096
 C64 C -0.04090 0.18093 0.16350
 C65 C -0.04080 0.14069 0.18232
 C66 C 0.00113 0.13054 0.19888
 C67 C 0.04287 0.16104 0.19674
 C68 C 0.04287 0.20130 0.17792
 C69 C 0.00173 0.08804 0.21742
 C70 C 0.00221 0.05191 0.23255
 H71 H 0.07643 0.30808 0.08981
 H72 H 0.07657 0.24052 0.12495
 H73 H -0.07359 0.27676 0.14991
 H74 H -0.07356 0.34363 0.11425
 H75 H -0.07340 0.18741 0.15045
 H76 H -0.07322 0.11716 0.18370
 H77 H 0.07552 0.15351 0.20948
 H78 H 0.07549 0.22453 0.17671
 C79 C 0.39553 -0.00267 0.55826
 C80 C 0.36215 -0.00344 0.57584
 C81 C 0.32175 -0.00457 0.59645
 C82 C 0.27469 -0.01935 0.58725
 C83 C 0.23525 -0.02041 0.60712
 C84 C 0.24237 -0.00666 0.63652
 C85 C 0.28985 0.00816 0.64556
 C86 C 0.32927 0.00916 0.62564
 C87 C 0.20031 -0.00751 0.65754
 C88 C 0.19427 0.03071 0.67842
 C89 C 0.15397 0.03043 0.69773
 C90 C 0.11930 -0.00806 0.69647
 C91 C 0.12522 -0.04646 0.67598
 C92 C 0.16544 -0.04624 0.65664
 C93 C 0.07704 -0.00768 0.71574
 C94 C 0.04117 -0.00736 0.73154
 H95 H 0.26841 -0.02988 0.56468
 H96 H 0.19903 -0.03129 0.59938
 H97 H 0.29662 0.01842 0.66811
 H98 H 0.36560 0.02056 0.63301
 H99 H 0.22014 0.06133 0.67943
 H100 H 0.14961 0.06045 0.71343
 H101 H 0.09863 -0.07648 0.67486
 H102 H 0.16942 -0.07652 0.64111
 C103 C -0.39857 -0.00363 0.55999
 C104 C -0.36649 -0.00447 0.57810
 C105 C -0.32760 -0.00548 0.59935
 C106 C -0.30889 0.03878 0.61105
 C107 C -0.27000 0.03792 0.63097
 C108 C -0.24922 -0.00731 0.63939
 C109 C -0.26863 -0.05163 0.62770
 C110 C -0.30755 -0.05067 0.60781
 C111 C -0.20682 -0.00818 0.65979
 C112 C -0.16724 -0.04100 0.65489
 C113 C -0.12678 -0.04110 0.67368
 C114 C -0.12532 -0.00849 0.69763
 C115 C -0.16462 0.02409 0.70284
 C116 C -0.20513 0.02428 0.68405
 C117 C -0.08302 -0.00792 0.71649
 C118 C -0.04712 -0.00747 0.73195
 H119 H -0.32399 0.07399 0.60454
 H120 H -0.25546 0.07267 0.63927
 H121 H -0.25386 -0.08704 0.63403
 H122 H -0.32180 -0.08516 0.59890
 H123 H -0.16709 -0.06593 0.63619
 H124 H -0.09644 -0.06630 0.66938
 H125 H -0.16387 0.04945 0.72134
 H126 H -0.23528 0.04956 0.68860
 C127 C -0.00098 -0.40042 0.94085
 C128 C -0.00110 -0.36837 0.92282
 C129 C -0.00116 -0.32952 0.90167
 C130 C 0.04150 -0.30115 0.89714
 C131 C 0.04116 -0.26244 0.87723
 C132 C -0.00198 -0.25154 0.86161
 C133 C -0.04458 -0.28054 0.86617
 C134 C -0.04414 -0.31926 0.88608
 C135 C -0.00271 -0.20955 0.84105
 C136 C -0.04404 -0.17814 0.83990
 C137 C -0.04427 -0.13791 0.82107
 C138 C -0.00330 -0.12855 0.80313
 C139 C 0.03784 -0.15975 0.80394
 C140 C 0.03817 -0.20000 0.82277
 C141 C -0.00316 -0.08639 0.78431
 C142 C -0.00306 -0.05070 0.76881
 H143 H 0.07490 -0.30862 0.90920
 H144 H 0.07432 -0.24039 0.87452
 H145 H -0.07816 -0.27347 0.85422
 H146 H -0.07736 -0.34103 0.88941
 H147 H -0.07577 -0.18408 0.85398
 H148 H -0.07622 -0.11386 0.82070
 H149 H 0.06972 -0.15286 0.79011
 H150 H 0.07027 -0.22383 0.82290
 C151 C -0.00013 0.39590 0.94056
 C152 C -0.00011 0.36277 0.92268
 C153 C -0.00009 0.32277 0.90163
 C154 C 0.04101 0.29167 0.89903
 C155 C 0.04065 0.25202 0.87913
 C156 C -0.00094 0.24289 0.86156
 C157 C -0.04197 0.27459 0.86420
 C158 C -0.04150 0.31425 0.88411
 C159 C -0.00177 0.20001 0.84095
 C160 C -0.04478 0.17100 0.83786
 C161 C -0.04518 0.12989 0.81903
 C162 C -0.00270 0.11724 0.80301
 C163 C 0.04013 0.14605 0.80574
 C164 C 0.04063 0.18718 0.82458
 C165 C -0.00281 0.07415 0.78424
 C166 C -0.00289 0.03770 0.76877
 H167 H 0.07318 0.29779 0.91258
 H168 H 0.07252 0.22791 0.87791
 H169 H -0.07427 0.26890 0.85073
 H170 H -0.07350 0.33815 0.88591
 H171 H -0.07778 0.17949 0.85046
 H172 H -0.07847 0.10770 0.81717
 H173 H 0.07320 0.13661 0.79341
 H174 H 0.07409 0.20912 0.82620
 C175 C -0.39617 0.00064 0.44223
 C176 C -0.36278 0.00091 0.42465
 C177 C -0.32234 0.00101 0.40406
 C178 C -0.28289 -0.03171 0.40745
 C179 C -0.24303 -0.03115 0.38786
 C180 C -0.24208 0.00225 0.36458
 C181 C -0.28210 0.03479 0.36123
 C182 C -0.32194 0.03418 0.38088
 C183 C -0.19929 0.00339 0.34409
 C184 C -0.20651 0.00925 0.31395
 C185 C -0.16608 0.01019 0.29473
 C186 C -0.11800 0.00537 0.30539
 C187 C -0.11044 -0.00036 0.33531
 C188 C -0.15076 -0.00134 0.35455
 C189 C -0.07629 0.00622 0.28572
 C190 C -0.04086 0.00681 0.26958
 H191 H -0.28288 -0.05761 0.42528
 H192 H -0.21315 -0.05713 0.39079
 H193 H -0.28218 0.06131 0.34375
 H194 H -0.35222 0.05979 0.37811
 H195 H -0.24342 0.01242 0.30520
 H196 H -0.17234 0.01453 0.27159
 H197 H -0.07335 -0.00395 0.34380
 H198 H -0.14393 -0.00517 0.37766
 C199 C 0.40003 0.00209 0.43933
 C200 C 0.36795 0.00304 0.42122
 C201 C 0.32902 0.00424 0.40000
 C202 C 0.29737 0.04501 0.39902
 C203 C 0.25854 0.04564 0.37907
 C204 C 0.25081 0.00539 0.35983
 C205 C 0.28313 -0.03525 0.36081
 C206 C 0.32196 -0.03579 0.38078
 C207 C 0.20857 0.00540 0.33929
 C208 C 0.18043 -0.03781 0.33458
 C209 C 0.13974 -0.03743 0.31596
 C210 C 0.12666 0.00605 0.30176
 C211 C 0.15466 0.04911 0.30607
 C212 C 0.19536 0.04883 0.32471
 C213 C 0.08380 0.00671 0.28337
 C214 C 0.04744 0.00711 0.26829
 H215 H 0.30237 0.07609 0.41390
 H216 H 0.23391 0.07714 0.37914
 H217 H 0.27851 -0.06651 0.34605
 H218 H 0.34628 -0.06752 0.38134
 H219 H 0.18921 -0.07162 0.34579
 H220 H 0.11815 -0.07090 0.31289
 H221 H 0.14487 0.08296 0.29516
 H222 H 0.21664 0.08251 0.32761
   
