data_POSCAR
  _audit_creation_date              2014-09-24
  _audit_creation_method            'ToBaCCo'
  _symmetry_space_group_name_H-M    'P1'
  _symmetry_Int_Tables_number       1
  _symmetry_cell_setting            triclinic
  loop_
  _symmetry_equiv_pos_as_xyz
 x,y,z
_cell_length_a 35.8048
_cell_length_b 35.8101
_cell_length_c 21.7800
_cell_angle_alpha 89.776900
_cell_angle_beta 90.048500
_cell_angle_gamma 89.568100
loop_
  _atom_site_label
  _atom_site_type_symbol
  _atom_site_fract_x
  _atom_site_fract_y
  _atom_site_fract_z
O1 O 0.29894 0.21033 0.21247
 O2 O 0.23715 0.28325 0.14982
 O3 O 0.30162 0.28287 0.20931
 O4 O 0.23450 0.21007 0.16340
 O5 O 0.20009 0.22500 0.24368
 O6 O 0.27339 0.28723 0.29904
 O7 O 0.21259 0.29327 0.24132
 O8 O 0.26761 0.21292 0.29961
 Cu9 Cu 0.27083 0.24655 0.17445
 Cu10 Cu 0.23643 0.25371 0.28070
 C11 C 0.29307 0.19842 0.26640
 C12 C 0.21464 0.30093 0.18440
 C13 C 0.29937 0.29686 0.26287
 C14 C 0.20475 0.20649 0.19465
 O15 O 0.80695 0.27026 0.27278
 O16 O 0.73742 0.20140 0.32393
 O17 O 0.79761 0.20084 0.26492
 O18 O 0.74415 0.27578 0.34131
 O19 O 0.71385 0.28891 0.25552
 O20 O 0.76348 0.21071 0.18191
 O21 O 0.69945 0.22176 0.25126
 O22 O 0.77125 0.28494 0.19325
 Cu23 Cu 0.77404 0.23710 0.31036
 Cu24 Cu 0.73450 0.25068 0.21062
 C25 C 0.80112 0.28882 0.22378
 C26 C 0.70570 0.20110 0.29775
 C27 C 0.78964 0.19326 0.20966
 C28 C 0.72024 0.29530 0.31180
 O29 O 0.77177 0.78629 0.80812
 O30 O 0.70507 0.71717 0.75119
 O31 O 0.76877 0.71402 0.80933
 O32 O 0.70966 0.78989 0.74577
 O33 O 0.74101 0.78693 0.65880
 O34 O 0.79870 0.71064 0.72117
 O35 O 0.73499 0.71472 0.66278
 O36 O 0.80290 0.78314 0.72092
 Cu37 Cu 0.73564 0.75212 0.78728
 Cu38 Cu 0.77246 0.74847 0.68218
 C39 C 0.79890 0.79638 0.77464
 C40 C 0.70839 0.70425 0.69728
 C41 C 0.79418 0.69948 0.77609
 C42 C 0.71540 0.80146 0.69130
 O43 O 0.22530 0.71068 0.81540
 O44 O 0.29227 0.78013 0.76129
 O45 O 0.22663 0.78300 0.81061
 O46 O 0.29022 0.70749 0.76065
 O47 O 0.26368 0.70845 0.66922
 O48 O 0.19924 0.78239 0.71998
 O49 O 0.26520 0.78112 0.67029
 O50 O 0.19837 0.70993 0.72433
 Cu51 Cu 0.26133 0.74513 0.79603
 Cu52 Cu 0.22898 0.74529 0.68677
 C53 C 0.20005 0.69874 0.77979
 C54 C 0.29010 0.79290 0.70699
 C55 C 0.20187 0.79559 0.77385
 C56 C 0.28816 0.69548 0.70588
 C57 C 1.02467 0.06791 0.14990
 C58 C 0.98654 0.06610 0.15582
 C59 C 0.97347 0.04720 0.10482
 N60 N 1.00222 0.03838 0.06727
 C61 C 1.03356 0.05133 0.09431
 C62 C 0.93550 0.04123 0.09033
 C63 C 0.92403 0.01518 0.04558
 C64 C 0.88810 0.01222 0.02216
 C65 C 0.88796 -0.01849 -0.01561
 C66 C 0.92364 -0.03374 -0.01368
 N67 N 0.94540 -0.01308 0.02373
 C68 C 0.93461 -0.06747 -0.04228
 C69 C 0.97238 -0.07823 -0.04863
 C70 C 0.98483 -0.11360 -0.06472
 C71 C 1.02299 -0.11160 -0.06935
 C72 C 1.03242 -0.07499 -0.05639
 N73 N 1.00147 -0.05466 -0.04379
 C74 C 1.06860 -0.05995 -0.06030
 C75 C 1.07666 -0.02363 -0.03996
 C76 C 1.10659 -0.00246 -0.05948
 C77 C 1.10617 0.02962 -0.02484
 C78 C 1.07665 0.02650 0.01620
 N79 N 1.05835 -0.00575 0.00562
 C80 C 1.06927 0.05075 0.06616
 H81 H 1.04348 0.08038 0.18270
 H82 H 0.97052 0.07743 0.19354
 H83 H 1.03777 -0.01740 0.03339
 H84 H 0.86415 0.02975 0.03205
 H85 H 0.86407 -0.02880 -0.04063
 H86 H 0.96817 -0.13826 -0.07226
 H87 H 1.04155 -0.13441 -0.08138
 H88 H 1.12596 0.05219 -0.02860
 H89 H 0.97198 -0.02033 0.03923
 H90 H 1.12667 -0.00953 -0.09476
 C91 C 0.51621 0.61032 0.55997
 C92 C 0.47815 0.60765 0.56373
 C93 C 0.46876 0.57278 0.54110
 N94 N 0.49998 0.55418 0.52382
 C95 C 0.52907 0.57697 0.53541
 C96 C 0.43165 0.55973 0.53497
 C97 C 0.42147 0.52579 0.50601
 C98 C 0.38497 0.51582 0.49276
 C99 C 0.38652 0.48229 0.46254
 C100 C 0.42390 0.47210 0.45863
 N101 N 0.44496 0.49854 0.48614
 C102 C 0.43704 0.43901 0.42966
 C103 C 0.47520 0.43056 0.41876
 C104 C 0.48812 0.39795 0.39163
 C105 C 0.52611 0.40100 0.38721
 C106 C 0.53541 0.43520 0.41241
 N107 N 0.50425 0.45310 0.43176
 C108 C 0.57241 0.44829 0.41873
 C109 C 0.58259 0.48124 0.45014
 C110 C 0.61897 0.49019 0.46583
 C111 C 0.61746 0.52354 0.49650
 C112 C 0.58023 0.53455 0.49819
 N113 N 0.55919 0.50874 0.46917
 C114 C 0.56721 0.56805 0.52566
 H115 H 0.53246 0.63429 0.57346
 H116 H 0.45952 0.62931 0.58028
 H117 H 0.53113 0.51130 0.45832
 H118 H 0.35965 0.53127 0.50283
 H119 H 0.36266 0.46741 0.44481
 H120 H 0.47202 0.37420 0.37672
 H121 H 0.54479 0.38002 0.36858
 H122 H 0.64123 0.53788 0.51573
 H123 H 0.47337 0.49695 0.49440
 H124 H 0.64411 0.47416 0.45695
 C125 C -0.02847 0.61310 -0.05356
 C126 C 0.00981 0.61437 -0.05393
 C127 C 0.02233 0.57926 -0.03611
 N128 N -0.00693 0.55656 -0.02518
 C129 C -0.03803 0.57722 -0.03569
 C130 C 0.06018 0.56808 -0.03321
 C131 C 0.07208 0.53408 -0.00615
 C132 C 0.10749 0.51867 -0.01257
 C133 C 0.10887 0.48758 0.02457
 C134 C 0.07414 0.48462 0.05234
 N135 N 0.05199 0.51325 0.03363
 C136 C 0.06465 0.45771 0.09732
 C137 C 0.02762 0.45159 0.11714
 C138 C 0.01750 0.42915 0.16630
 C139 C -0.02076 0.42828 0.16688
 C140 C -0.03283 0.44952 0.11724
 N141 N -0.00320 0.46381 0.08705
 C142 C -0.07033 0.45284 0.09727
 C143 C -0.08167 0.47892 0.05171
 C144 C -0.11547 0.47815 0.02053
 C145 C -0.11683 0.50954 -0.01606
 C146 C -0.08370 0.52845 -0.00669
 N147 N -0.06244 0.50967 0.03468
 C148 C -0.07482 0.56330 -0.03335
 H149 H -0.04709 0.63597 -0.06537
 H150 H 0.02649 0.63838 -0.06600
 H151 H -0.03824 0.51954 0.05527
 H152 H 0.13023 0.52908 -0.04035
 H153 H 0.13306 0.46972 0.03107
 H154 H 0.03563 0.41451 0.19818
 H155 H -0.03767 0.41316 0.19962
 H156 H -0.13966 0.51756 -0.04606
 H157 H 0.02636 0.52068 0.05249
 H158 H -0.13707 0.45728 0.02396
 C159 C 0.51498 0.89571 0.58451
 C160 C 0.47718 0.89333 0.57518
 C161 C 0.46497 0.92882 0.55877
 N162 N 0.49397 0.95273 0.55761
 C163 C 0.52454 0.93254 0.57320
 C164 C 0.42732 0.93948 0.54989
 C165 C 0.41696 0.97469 0.52575
 C166 C 0.38171 0.99068 0.53019
 C167 C 0.38290 1.02394 0.49840
 C168 C 0.41886 1.02725 0.47532
 N169 N 0.43932 0.99698 0.49193
 C170 C 0.43101 1.05571 0.43509
 C171 C 0.46871 1.05957 0.41758
 C172 C 0.48125 1.07836 0.36599
 C173 C 0.51957 1.07717 0.36827
 C174 C 0.52920 1.05932 0.42277
 N175 N 0.49797 1.04813 0.45225
 C176 C 0.56562 1.05636 0.44822
 C177 C 0.57263 1.03213 0.49867
 C178 C 0.60260 1.03441 0.53893
 C179 C 0.60131 1.00323 0.57610
 C180 C 0.57026 0.98316 0.55822
 N181 N 0.55279 1.00104 0.51141
 C182 C 0.56044 0.94768 0.58125
 H183 H 0.53328 0.87298 0.59828
 H184 H 0.46056 0.86841 0.58045
 H185 H 0.53145 0.99017 0.48447
 H186 H 0.35757 0.97944 0.55351
 H187 H 0.35960 1.04295 0.49177
 H188 H 0.46471 1.09118 0.32998
 H189 H 0.53802 1.08862 0.33383
 H190 H 0.62117 0.99595 0.61177
 H191 H 0.46570 0.98991 0.47548
 H192 H 0.62358 1.05597 0.54083
 C193 C 1.13889 0.19278 0.18158
 C194 C 1.17667 0.18267 0.17433
 C195 C 1.18570 0.14848 0.14622
 C196 C 1.15725 0.12420 0.12772
 C197 C 1.11963 0.13621 0.12986
 C198 C 1.11072 0.17059 0.15689
 C199 C 1.09149 0.11322 0.10641
 C200 C 1.09957 0.07623 0.08854
 C201 C 1.13688 0.06355 0.09232
 C202 C 1.16559 0.08774 0.10891
 H203 H 1.21469 0.13979 0.14237
 H204 H 1.08192 0.17986 0.16036
 H205 H 1.06321 0.12400 0.10328
 H206 H 1.19415 0.07753 0.10901
 H207 H 1.13123 0.21897 0.20312
 H208 H 1.14405 0.03491 0.08138
 C209 C 0.65751 0.65818 0.71625
 C210 C 0.68082 0.67699 0.67463
 C211 C 0.67707 0.67007 0.61141
 C212 C 0.65009 0.64499 0.59001
 C213 C 0.62700 0.62606 0.63243
 C214 C 0.63102 0.63277 0.69539
 C215 C 0.60016 0.60089 0.61115
 C216 C 0.59564 0.59487 0.54796
 C217 C 0.61842 0.61395 0.50606
 C218 C 0.64558 0.63870 0.52690
 H219 H 0.69466 0.68463 0.57883
 H220 H 0.61352 0.61856 0.72849
 H221 H 0.58261 0.58606 0.64350
 H222 H 0.66293 0.65302 0.49372
 H223 H 0.65990 0.66296 0.76516
 H224 H 0.61520 0.60947 0.45719
 C225 C -0.13666 0.30083 0.17820
 C226 C -0.17055 0.31474 0.20110
 C227 C -0.17809 0.35321 0.19900
 C228 C -0.15171 0.37785 0.17425
 C229 C -0.11806 0.36355 0.14939
 C230 C -0.11072 0.32503 0.15184
 C231 C -0.09224 0.38801 0.12279
 C232 C -0.09863 0.42681 0.12336
 C233 C -0.13176 0.44078 0.14947
 C234 C -0.15832 0.41650 0.17393
 H235 H -0.20434 0.36383 0.21688
 H236 H -0.08496 0.31365 0.13342
 H237 H -0.06687 0.37698 0.10238
 H238 H -0.18382 0.42796 0.19318
 H239 H -0.13076 0.27111 0.17927
 H240 H -0.13707 0.47059 0.15076
 C241 C 0.34246 0.83654 0.72930
 C242 C 0.31695 0.82169 0.68691
 C243 C 0.31755 0.83443 0.62572
 C244 C 0.34367 0.86125 0.60703
 C245 C 0.36927 0.87571 0.65017
 C246 C 0.36829 0.86334 0.71116
 C247 C 0.39580 0.90193 0.63148
 C248 C 0.39759 0.91346 0.56994
 C249 C 0.37183 0.89946 0.52742
 C250 C 0.34497 0.87358 0.54583
 H251 H 0.29807 0.82324 0.59256
 H252 H 0.38770 0.87417 0.74475
 H253 H 0.41555 0.91296 0.66441
 H254 H 0.32557 0.86287 0.51212
 H255 H 0.34255 0.82740 0.77675
 H256 H 0.37292 0.90820 0.47979
 C257 C -0.15374 0.65567 -0.23644
 C258 C -0.18206 0.67161 -0.19973
 C259 C -0.18506 0.66006 -0.13793
 C260 C -0.15940 0.63434 -0.11281
 C261 C -0.13066 0.61940 -0.15001
 C262 C -0.12844 0.62981 -0.21188
 C263 C -0.10401 0.59506 -0.12435
 C264 C -0.10526 0.58599 -0.06164
 C265 C -0.13441 0.60010 -0.02525
 C266 C -0.16137 0.62402 -0.05067
 H267 H -0.20665 0.67176 -0.10873
 H268 H -0.10664 0.61851 -0.24105
 H269 H -0.08158 0.58399 -0.15253
 H270 H -0.18325 0.63509 -0.02144
 H271 H -0.15063 0.66356 -0.28422
 H272 H -0.13571 0.59328 0.02319
 C273 C 0.32956 1.13988 0.24967
 C274 C 0.31637 1.16747 0.29008
 C275 C 0.32719 1.16629 0.35200
 C276 C 0.35203 1.13849 0.37293
 C277 C 0.36504 1.11071 0.33190
 C278 C 0.35329 1.11145 0.27055
 C279 C 0.39017 1.08315 0.35261
 C280 C 0.40346 1.08384 0.41314
 C281 C 0.39062 1.11156 0.45351
 C282 C 0.36481 1.13848 0.43377
 H283 H 0.31746 1.18780 0.38317
 H284 H 0.36305 1.09050 0.23846
 H285 H 0.39999 1.06162 0.32156
 H286 H 0.35531 1.15959 0.46578
 H287 H 0.32142 1.14033 0.20175
 H288 H 0.40065 1.11225 0.50042
 C289 C 1.14824 -0.16346 -0.24629
 C290 C 1.17703 -0.17618 -0.20703
 C291 C 1.17989 -0.16060 -0.14788
 C292 C 1.15395 -0.13377 -0.12778
 C293 C 1.12462 -0.12215 -0.16712
 C294 C 1.12231 -0.13681 -0.22647
 C295 C 1.09758 -0.09677 -0.14587
 C296 C 1.09932 -0.08324 -0.08557
 C297 C 1.12923 -0.09385 -0.04751
 C298 C 1.15637 -0.11894 -0.06842
 H299 H 1.20194 -0.16966 -0.11694
 H300 H 1.10010 -0.12809 -0.25730
 H301 H 1.07455 -0.08838 -0.17535
 H302 H 1.17875 -0.12736 -0.03773
 H303 H 1.14521 -0.17455 -0.29221
 H304 H 1.13088 -0.08354 -0.00090
 C305 C 0.69477 0.32521 0.40712
 C306 C 0.69847 0.32489 0.34290
 C307 C 0.67886 0.35152 0.30766
 C308 C 0.65460 0.37709 0.33570
 C309 C 0.64982 0.37625 0.40014
 C310 C 0.67055 0.35065 0.43554
 C311 C 0.62367 0.40034 0.42765
 C312 C 0.60260 0.42522 0.39134
 C313 C 0.60835 0.42662 0.32774
 C314 C 0.63418 0.40274 0.30005
 H315 H 0.68175 0.35178 0.25810
 H316 H 0.66740 0.34974 0.48499
 H317 H 0.61900 0.39925 0.47680
 H318 H 0.63762 0.40379 0.25065
 H319 H 0.70958 0.30493 0.43520
 H320 H 0.59210 0.44566 0.29944
 C321 C 0.85376 -0.16133 -0.23957
 C322 C 0.82620 -0.17653 -0.20115
 C323 C 0.82519 -0.16613 -0.13892
 C324 C 0.85157 -0.14127 -0.11519
 C325 C 0.87916 -0.12619 -0.15427
 C326 C 0.87991 -0.13626 -0.21640
 C327 C 0.90574 -0.10160 -0.13040
 C328 C 0.90544 -0.09234 -0.06777
 C329 C 0.87793 -0.10741 -0.02930
 C330 C 0.85108 -0.13156 -0.05286
 H331 H 0.80421 -0.17774 -0.10865
 H332 H 0.90089 -0.12498 -0.24696
 H333 H 0.92695 -0.08993 -0.16019
 H334 H 0.83018 -0.14294 -0.02224
 H335 H 0.85511 -0.16881 -0.28764
 H336 H 0.87749 -0.10064 0.01913
 C337 C 0.34949 0.34375 0.24129
 C338 C 0.32695 0.32470 0.28370
 C339 C 0.33062 0.33259 0.34665
 C340 C 0.35648 0.35904 0.36708
 C341 C 0.37862 0.37846 0.32398
 C342 C 0.37493 0.37060 0.26122
 C343 C 0.40429 0.40512 0.34451
 C344 C 0.40878 0.41182 0.40765
 C345 C 0.38686 0.39220 0.45008
 C346 C 0.36071 0.36620 0.42997
 H347 H 0.31364 0.31786 0.37991
 H348 H 0.39179 0.38511 0.22758
 H349 H 0.42124 0.42027 0.31170
 H350 H 0.34403 0.35147 0.46361
 H351 H 0.34712 0.33823 0.19260
 H352 H 0.39011 0.39705 0.49884
 C353 C 0.14473 0.65680 -0.23444
 C354 C 0.17201 0.67230 -0.19592
 C355 C 0.17166 0.66344 -0.13292
 C356 C 0.14430 0.63989 -0.10853
 C357 C 0.11690 0.62453 -0.14758
 C358 C 0.11747 0.63303 -0.21051
 C359 C 0.08940 0.60111 -0.12287
 C360 C 0.08897 0.59309 -0.05967
 C361 C 0.11625 0.60853 -0.02132
 C362 C 0.14375 0.63170 -0.04554
 H363 H 0.19238 0.67528 -0.10250
 H364 H 0.09669 0.62151 -0.24112
 H365 H 0.06837 0.58906 -0.15251
 H366 H 0.16452 0.64330 -0.01499
 H367 H 0.14432 0.66320 -0.28307
 H368 H 0.11618 0.60255 0.02747
 C369 C 0.63979 1.19158 0.31840
 C370 C 0.67707 1.17898 0.32156
 C371 C 0.68504 1.14466 0.35068
 C372 C 0.65596 1.12283 0.37453
 C373 C 0.61925 1.13743 0.37606
 C374 C 0.61143 1.17184 0.34782
 C375 C 0.59074 1.11693 0.40423
 C376 C 0.59691 1.07969 0.42309
 C377 C 0.63318 1.06453 0.41695
 C378 C 0.66267 1.08635 0.39544
 H379 H 0.71350 1.13405 0.35182
 H380 H 0.58323 1.18305 0.34723
 H381 H 0.56348 1.12976 0.40988
 H382 H 0.69045 1.07422 0.39308
 H383 H 0.63286 1.21796 0.29645
 H384 H 0.63886 1.03573 0.42933
 C385 C 0.17867 0.32724 0.09603
 C386 C 0.18958 0.32961 0.15785
 C387 C 0.17476 0.35823 0.19471
 C388 C 0.14879 0.38384 0.17034
 C389 C 0.13690 0.38025 0.10871
 C390 C 0.15231 0.35215 0.07178
 C391 C 0.10950 0.40455 0.08526
 C392 C 0.09458 0.43304 0.12205
 C393 C 0.10745 0.43736 0.18244
 C394 C 0.13412 0.41270 0.20667
 H395 H 0.18329 0.36043 0.24234
 H396 H 0.14369 0.34919 0.02435
 H397 H 0.09960 0.40135 0.03852
 H398 H 0.14311 0.41606 0.25383
 H399 H 0.18962 0.30529 0.06691
 H400 H 0.09620 0.45939 0.21110
 C401 C 0.69839 0.84426 0.60444
 C402 C 0.69186 0.83166 0.66473
 C403 C 0.66211 0.84732 0.69832
 C404 C 0.63852 0.87429 0.67135
 C405 C 0.64495 0.88604 0.61020
 C406 C 0.67522 0.87123 0.57750
 C407 C 0.62031 0.91151 0.58211
 C408 C 0.58901 0.92491 0.61402
 C409 C 0.58334 0.91402 0.67528
 C410 C 0.60800 0.88898 0.70385
 H411 H 0.65678 0.83797 0.74487
 H412 H 0.68060 0.87999 0.53067
 H413 H 0.62453 0.91977 0.53467
 H414 H 0.60267 0.88041 0.75077
 H415 H 0.72118 0.83288 0.57756
 H416 H 0.55924 0.92420 0.70034
 C417 C 0.81862 0.16864 0.11368
 C418 C 0.81216 0.16498 0.17699
 C419 C 0.82984 0.13593 0.20978
 C420 C 0.85451 0.11137 0.17999
 C421 C 0.86222 0.11641 0.11685
 C422 C 0.84371 0.14474 0.08392
 C423 C 0.88870 0.09339 0.08798
 C424 C 0.90673 0.06469 0.12094
 C425 C 0.89773 0.05880 0.18288
 C426 C 0.87213 0.08224 0.21244
 H427 H 0.82475 0.13278 0.25859
 H428 H 0.84906 0.14878 0.03540
 H429 H 0.89548 0.09776 0.03999
 H430 H 0.86628 0.07774 0.26070
 H431 H 0.80543 0.19097 0.08770
 H432 H 0.91118 0.03649 0.20857
 C433 C 0.33682 0.64616 0.72590
 C434 C 0.31493 0.66678 0.68403
 C435 C 0.31964 0.66071 0.62071
 C436 C 0.34635 0.63500 0.59941
 C437 C 0.36820 0.61440 0.64195
 C438 C 0.36304 0.62001 0.70506
 C439 C 0.39529 0.58907 0.62057
 C440 C 0.40122 0.58465 0.55728
 C441 C 0.37959 0.60536 0.51537
 C442 C 0.35210 0.63010 0.53624
 H443 H 0.30319 0.67666 0.58789
 H444 H 0.37960 0.60452 0.73829
 H445 H 0.41235 0.57336 0.65288
 H446 H 0.33574 0.64581 0.50302
 H447 H 0.33369 0.65029 0.77487
 H448 H 0.38421 0.60244 0.46648
   
