data_POSCAR
  _audit_creation_date              2014-09-24
  _audit_creation_method            'ToBaCCo'
  _symmetry_space_group_name_H-M    'P1'
  _symmetry_Int_Tables_number       1
  _symmetry_cell_setting            triclinic
  loop_
  _symmetry_equiv_pos_as_xyz
 x,y,z
_cell_length_a 21.8141
_cell_length_b 21.8080
_cell_length_c 21.8076
_cell_angle_alpha 89.637600
_cell_angle_beta 90.463200
_cell_angle_gamma 89.586300
loop_
  _atom_site_label
  _atom_site_type_symbol
  _atom_site_fract_x
  _atom_site_fract_y
  _atom_site_fract_z
O1 O 0.58747 0.49960 0.05879
 O2 O 0.41981 0.49908 0.04236
 O3 O 0.50435 0.41541 0.05651
 O4 O 0.50385 0.58350 0.03832
 O5 O 0.51350 0.57272 -0.06175
 O6 O 0.51332 0.40546 -0.04373
 O7 O 0.42875 0.48913 -0.05780
 O8 O 0.59735 0.48911 -0.04130
 Cu9 Cu 0.50293 0.50055 0.05902
 Cu10 Cu 0.51414 0.48819 -0.06119
 C11 C 0.62105 0.49405 0.01189
 C12 C 0.39540 0.49385 -0.01039
 C13 C 0.50896 0.38182 0.00932
 C14 C 0.50855 0.60672 -0.01505
 O15 O -0.05999 0.58714 0.51256
 O16 O -0.04328 0.41959 0.51186
 O17 O -0.03892 0.50375 0.59588
 O18 O -0.05716 0.50414 0.42757
 O19 O 0.04304 0.51321 0.41798
 O20 O 0.06109 0.51376 0.58504
 O21 O 0.05691 0.42871 0.50229
 O22 O 0.03998 0.59740 0.50213
 Cu23 Cu -0.05986 0.50267 0.51294
 Cu24 Cu 0.06026 0.51420 0.50076
 C25 C -0.01321 0.62104 0.50748
 C26 C 0.00953 0.39540 0.50722
 C27 C 0.01448 0.50874 0.61901
 C28 C -0.00992 0.50876 0.39409
 O29 O 0.49523 0.03893 0.58474
 O30 O 0.49538 0.05568 0.41626
 O31 O 0.41224 0.05937 0.50023
 O32 O 0.57945 0.04133 0.50046
 O33 O 0.56962 -0.05883 0.49074
 O34 O 0.40154 -0.04077 0.49084
 O35 O 0.48517 -0.04450 0.40690
 O36 O 0.48521 -0.06112 0.57469
 Cu37 Cu 0.49664 0.05884 0.50149
 Cu38 Cu 0.48438 -0.06137 0.48997
 C39 C 0.49024 -0.01422 0.60855
 C40 C 0.49015 0.00836 0.38289
 C41 C 0.37834 0.01264 0.49518
 C42 C 0.60319 -0.01164 0.49540
 C43 C 0.49908 -0.12061 -0.12220
 C44 C 0.49430 -0.05864 -0.13956
 C45 C 0.48991 -0.01438 -0.09307
 C46 C 0.49945 -0.03010 -0.03072
 C47 C 0.50892 -0.09249 -0.01574
 C48 C 0.50400 -0.13845 -0.06037
 C49 C 0.49960 0.01823 0.01846
 C50 C 0.48924 0.00279 0.08058
 C51 C 0.49290 0.04716 0.12704
 C52 C 0.49971 0.10874 0.10980
 C53 C 0.50638 0.12636 0.04832
 C54 C 0.51017 0.08033 0.00366
 H55 H 0.49902 -0.15551 -0.15737
 H56 H 0.47810 0.03203 -0.10538
 H57 H 0.52120 -0.10526 0.03045
 H58 H 0.47779 -0.04351 0.09255
 H59 H 0.49977 0.14369 0.14494
 H60 H 0.52204 0.09256 -0.04244
 C61 C -0.10766 0.50016 1.11912
 C62 C -0.12404 0.49355 1.05722
 C63 C -0.07698 0.48920 1.01380
 C64 C -0.01510 0.49981 1.02998
 C65 C -0.00091 0.50980 1.09236
 C66 C -0.04630 0.50621 1.13778
 C67 C 0.03405 0.50069 0.98168
 C68 C 0.09670 0.49191 0.99685
 C69 C 0.14251 0.49590 0.95178
 C70 C 0.12422 0.50033 0.89007
 C71 C 0.06227 0.50526 0.87306
 C72 C 0.01839 0.51037 0.91947
 H73 H -0.14334 0.50056 1.15345
 H74 H -0.08836 0.47699 0.96754
 H75 H 0.04519 0.52108 1.10524
 H76 H 0.10969 0.48108 1.04332
 H77 H 0.15883 0.50012 0.85468
 H78 H -0.02780 0.52299 0.90710
 C79 C -0.12214 -0.11134 0.50086
 C80 C -0.06004 -0.12786 0.50530
 C81 C -0.01649 -0.08093 0.50986
 C82 C -0.03292 -0.01872 0.50045
 C83 C -0.09565 -0.00430 0.49210
 C84 C -0.14091 -0.04978 0.49664
 C85 C 0.01541 0.03045 0.49933
 C86 C 0.00064 0.09289 0.50904
 C87 C 0.04577 0.13873 0.50560
 C88 C 0.10725 0.12044 0.49981
 C89 C 0.12396 0.05862 0.49348
 C90 C 0.07728 0.01494 0.48865
 H91 H -0.15649 -0.14702 0.50083
 H92 H 0.02998 -0.09290 0.52176
 H93 H -0.10917 0.04196 0.48106
 H94 H -0.04563 0.10554 0.51983
 H95 H 0.14278 0.15496 0.50023
 H96 H 0.08895 -0.03106 0.47584
 C97 C -0.31048 0.49336 1.02055
 C98 C -0.28695 0.55109 1.05257
 C99 C -0.22541 0.55084 1.06270
 C100 C -0.19212 0.49269 1.04026
 C101 C -0.22615 0.43919 1.07082
 C102 C -0.28776 0.43962 1.06066
 C103 C -0.27247 0.48898 0.96165
 C104 C -0.21068 0.48881 0.97168
 H105 H -0.31608 0.58951 1.06517
 H106 H -0.20217 0.58925 1.08389
 H107 H -0.20344 0.40345 1.09764
 H108 H -0.31755 0.40438 1.07888
 H109 H -0.29215 0.48757 0.91582
 H110 H -0.17948 0.48793 0.93340
 C111 C 0.33016 0.49407 0.98281
 C112 C 0.29341 0.49800 1.04285
 C113 C 0.23143 0.49880 1.03440
 C114 C 0.21115 0.49515 0.96646
 C115 C 0.24469 0.54917 0.93586
 C116 C 0.30652 0.54840 0.94408
 C117 C 0.30539 0.43677 0.95066
 C118 C 0.24350 0.43738 0.94213
 H119 H 0.31398 0.50184 1.08815
 H120 H 0.20104 0.50465 1.07295
 H121 H 0.22147 0.58580 0.91073
 H122 H 0.33574 0.58409 0.92576
 H123 H 0.33399 0.39852 0.93646
 H124 H 0.21945 0.39965 0.92067
 C125 C -0.02175 -0.31403 0.50703
 C126 C 0.03667 -0.27517 0.50149
 C127 C 0.02577 -0.21352 0.50056
 C128 C -0.04284 -0.19584 0.50584
 C129 C -0.07339 -0.23078 0.45266
 C130 C -0.06267 -0.29222 0.45348
 C131 C -0.05339 -0.29019 0.56499
 C132 C -0.06442 -0.22872 0.56428
 H133 H 0.08247 -0.29411 0.49621
 H134 H 0.06282 -0.18167 0.49294
 H135 H -0.10018 -0.20876 0.41646
 H136 H -0.08056 -0.32232 0.41823
 H137 H -0.06544 -0.31910 0.60374
 H138 H -0.08589 -0.20531 0.60238
 C139 C 0.01648 0.32660 0.50733
 C140 C 0.05557 0.30201 0.56100
 C141 C 0.06328 0.24000 0.56095
 C142 C 0.03152 0.20747 0.50699
 C143 C -0.03620 0.22847 0.51084
 C144 C -0.04383 0.29055 0.51115
 C145 C 0.04771 0.30234 0.44954
 C146 C 0.05539 0.24042 0.44924
 H147 H 0.07490 0.33085 0.59653
 H148 H 0.08910 0.21604 0.59661
 H149 H -0.07557 0.19864 0.51178
 H150 H -0.08894 0.31177 0.51286
 H151 H 0.06163 0.33131 0.41152
 H152 H 0.07582 0.21671 0.41074
 C153 C 0.49111 -0.02241 -0.32636
 C154 C 0.54486 -0.06301 -0.30443
 C155 C 0.54614 -0.07312 -0.24286
 C156 C 0.49321 -0.04232 -0.20786
 C157 C 0.49823 0.02612 -0.22625
 C158 C 0.49683 0.03640 -0.28799
 C159 C 0.43342 -0.05400 -0.30188
 C160 C 0.43461 -0.06441 -0.24027
 H161 H 0.57986 -0.08120 -0.33457
 H162 H 0.58248 -0.09967 -0.22080
 H163 H 0.50603 0.06354 -0.19482
 H164 H 0.50189 0.08206 -0.30733
 H165 H 0.39454 -0.06652 -0.33047
 H166 H 0.39675 -0.08580 -0.21646
 C167 C 0.49020 0.01566 0.31427
 C168 C 0.54860 0.04613 0.29064
 C169 C 0.54916 0.05447 0.22885
 C170 C 0.49105 0.03197 0.19544
 C171 C 0.48592 -0.03593 0.21558
 C172 C 0.48535 -0.04422 0.27758
 C173 C 0.43728 0.05591 0.28997
 C174 C 0.43760 0.06427 0.22810
 H175 H 0.58683 0.05902 0.31991
 H176 H 0.58811 0.07442 0.20553
 H177 H 0.48415 -0.07494 0.18526
 H178 H 0.48266 -0.08949 0.29832
 H179 H 0.40202 0.07549 0.31890
 H180 H 0.40243 0.09091 0.20430
 C181 C 0.50744 -0.32489 -0.02416
 C182 C 0.56554 -0.30025 -0.05464
 C183 C 0.56424 -0.23868 -0.06519
 C184 C 0.50502 -0.20667 -0.04432
 C185 C 0.45289 -0.24202 -0.07617
 C186 C 0.45440 -0.30355 -0.06590
 C187 C 0.50031 -0.28667 0.03438
 C188 C 0.49866 -0.22500 0.02403
 H189 H 0.60466 -0.32876 -0.06641
 H190 H 0.60230 -0.21467 -0.08600
 H191 H 0.41694 -0.22028 -0.10351
 H192 H 0.42008 -0.33410 -0.08473
 H193 H 0.49410 -0.30620 0.07979
 H194 H 0.48931 -0.19365 0.06115
 C195 C 0.50887 0.31337 0.01691
 C196 C 0.56251 0.28907 0.05619
 C197 C 0.56218 0.22722 0.06463
 C198 C 0.50802 0.19470 0.03333
 C199 C 0.45044 0.22816 0.05692
 C200 C 0.45101 0.28993 0.04851
 C201 C 0.51239 0.27671 -0.04303
 C202 C 0.51178 0.21479 -0.03470
 H203 H 0.59819 0.31797 0.07511
 H204 H 0.59773 0.20336 0.09070
 H205 H 0.41183 0.20491 0.07760
 H206 H 0.41313 0.31929 0.06209
 H207 H 0.51378 0.29738 -0.08840
 H208 H 0.51191 0.18456 -0.07382
 C209 C -0.32824 -0.01918 0.49555
 C210 C -0.29169 0.04072 0.50071
 C211 C -0.22975 0.03237 0.50141
 C212 C -0.20948 -0.03547 0.49632
 C213 C -0.24292 -0.06720 0.54976
 C214 C -0.30475 -0.05897 0.54908
 C215 C -0.30370 -0.05020 0.43767
 C216 C -0.24183 -0.05871 0.43808
 H217 H -0.31246 0.08575 0.50587
 H218 H -0.19944 0.07077 0.50871
 H219 H -0.21970 -0.09303 0.58589
 H220 H -0.33409 -0.07799 0.58427
 H221 H -0.33249 -0.06376 0.39931
 H222 H -0.21784 -0.07955 0.39999
 C223 C 0.31008 0.02170 0.49434
 C224 C 0.27190 -0.03718 0.49164
 C225 C 0.21023 -0.02697 0.49130
 C226 C 0.19194 0.04177 0.49320
 C227 C 0.22531 0.06570 0.55073
 C228 C 0.28681 0.05536 0.55122
 C229 C 0.28750 0.06044 0.43956
 C230 C 0.22594 0.07081 0.43890
 H231 H 0.29137 -0.08312 0.49210
 H232 H 0.17896 -0.06522 0.49257
 H233 H 0.20220 0.08795 0.58857
 H234 H 0.31605 0.06886 0.58927
 H235 H 0.31734 0.07768 0.40388
 H236 H 0.20328 0.09684 0.40255
 C237 C -0.01712 0.50860 1.32545
 C238 C 0.04321 0.51160 1.28946
 C239 C 0.03556 0.51098 1.22745
 C240 C -0.03223 0.50775 1.20645
 C241 C -0.05672 0.45040 1.23964
 C242 C -0.04898 0.45096 1.30155
 C243 C -0.05567 0.56252 1.30061
 C244 C -0.06343 0.56218 1.23862
 H245 H 0.08838 0.51262 1.31066
 H246 H 0.07502 0.51074 1.19775
 H247 H -0.07755 0.41197 1.21613
 H248 H -0.06328 0.41325 1.33073
 H249 H -0.07467 0.59834 1.32926
 H250 H -0.08897 0.59789 1.21444
 C251 C 0.02393 0.50791 0.68722
 C252 C 0.05504 0.56598 0.71130
 C253 C 0.06623 0.56496 0.77274
 C254 C 0.04530 0.50601 0.80514
 C255 C -0.02329 0.49998 0.78748
 C256 C -0.03427 0.50135 0.72589
 C257 C 0.06548 0.45469 0.70839
 C258 C 0.07639 0.45346 0.76979
 H259 H 0.06671 0.60493 0.68252
 H260 H 0.08749 0.60306 0.79640
 H261 H -0.06013 0.49108 0.81922
 H262 H -0.07990 0.49536 0.70674
 H263 H 0.08361 0.42000 0.67784
 H264 H 0.10359 0.41738 0.79148
   
