data_POSCAR
  _audit_creation_date              2014-09-24
  _audit_creation_method            'ToBaCCo'
  _symmetry_space_group_name_H-M    'P1'
  _symmetry_Int_Tables_number       1
  _symmetry_cell_setting            triclinic
  loop_
  _symmetry_equiv_pos_as_xyz
 x,y,z
_cell_length_a 46.9594
_cell_length_b 33.2891
_cell_length_c 20.9412
_cell_angle_alpha 89.648400
_cell_angle_beta 90.283800
_cell_angle_gamma 88.713300
loop_
  _atom_site_label
  _atom_site_type_symbol
  _atom_site_fract_x
  _atom_site_fract_y
  _atom_site_fract_z
C1 C 0.65884 0.20935 0.57009
 C2 C 0.64048 0.21378 0.51720
 C3 C 0.65015 0.20860 0.45450
 C4 C 0.67858 0.19541 0.44395
 C5 C 0.69682 0.18704 0.49681
 C6 C 0.68685 0.19368 0.55994
 C7 C 0.70497 0.18349 0.61143
 C8 C 0.73233 0.16828 0.60153
 C9 C 0.74304 0.16233 0.53953
 C10 C 0.72534 0.17295 0.48647
 C11 C 0.68946 0.19127 0.38194
 C12 C 0.71746 0.17872 0.37176
 C13 C 0.73602 0.16973 0.42316
 C14 C 0.76445 0.15578 0.41302
 C15 C 0.78142 0.14543 0.46636
 C16 C 0.77138 0.14807 0.52923
 H17 H 0.69808 0.18615 0.66043
 H18 H 0.74503 0.16225 0.64376
 H19 H 0.67658 0.19783 0.34012
 H20 H 0.72394 0.17545 0.32265
 H21 H 0.61888 0.22484 0.52372
 H22 H 0.80308 0.13487 0.45871
 C23 C 0.21891 0.81970 0.57009
 C24 C 0.20249 0.82503 0.51466
 C25 C 0.21277 0.81382 0.45459
 C26 C 0.24018 0.79562 0.44978
 C27 C 0.25696 0.78912 0.50575
 C28 C 0.24631 0.80133 0.56606
 C29 C 0.26321 0.79456 0.62072
 C30 C 0.29003 0.77602 0.61649
 C31 C 0.30124 0.76358 0.55725
 C32 C 0.28467 0.77113 0.50117
 C33 C 0.25166 0.78505 0.39025
 C34 C 0.27889 0.76822 0.38563
 C35 C 0.29571 0.76083 0.44039
 C36 C 0.32352 0.74424 0.43550
 C37 C 0.33986 0.73770 0.49076
 C38 C 0.32895 0.74550 0.55211
 H39 H 0.25578 0.80346 0.66751
 H40 H 0.30212 0.77277 0.66031
 H41 H 0.23995 0.79031 0.34629
 H42 H 0.28675 0.76163 0.33828
 H43 H 0.18153 0.83918 0.51819
 H44 H 0.36033 0.72246 0.48551
 C45 C 0.27610 0.36418 -0.55514
 C46 C 0.28967 0.36995 -0.49671
 C47 C 0.28096 0.35045 -0.44103
 C48 C 0.25761 0.32439 -0.44375
 C49 C 0.24350 0.31804 -0.50287
 C50 C 0.25302 0.33769 -0.55903
 C51 C 0.23854 0.33157 -0.61677
 C52 C 0.21513 0.30674 -0.61958
 C53 C 0.20491 0.28736 -0.56450
 C54 C 0.21917 0.29326 -0.50532
 C55 C 0.24723 0.30598 -0.38838
 C56 C 0.22324 0.28239 -0.39044
 C57 C 0.20871 0.27553 -0.44824
 C58 C 0.18299 0.25388 -0.44991
 C59 C 0.16880 0.24981 -0.50858
 C60 C 0.17972 0.26464 -0.56618
 H61 H 0.24482 0.34657 -0.66027
 H62 H 0.20443 0.30446 -0.66520
 H63 H 0.25690 0.31072 -0.34213
 H64 H 0.21586 0.27092 -0.34529
 H65 H 0.30781 0.38954 -0.49506
 H66 H 0.15056 0.23053 -0.51052
 C67 C -0.26212 0.64617 -0.42626
 C68 C -0.27471 0.63420 -0.48394
 C69 C -0.26437 0.64583 -0.54419
 C70 C -0.23970 0.67009 -0.54646
 C71 C -0.22617 0.68185 -0.48877
 C72 C -0.23723 0.66958 -0.42876
 C73 C -0.22245 0.67993 -0.37273
 C74 C -0.19872 0.70383 -0.37485
 C75 C -0.18808 0.71773 -0.43314
 C76 C -0.20148 0.70621 -0.49092
 C77 C -0.22760 0.68215 -0.60476
 C78 C -0.20414 0.70684 -0.60677
 C79 C -0.19058 0.71957 -0.55060
 C80 C -0.16730 0.74647 -0.55188
 C81 C -0.15485 0.75749 -0.49339
 C82 C -0.16466 0.74345 -0.43474
 H83 H -0.22857 0.66933 -0.32606
 H84 H -0.18891 0.71141 -0.32980
 H85 H -0.23579 0.67268 -0.65031
 H86 H -0.19714 0.71570 -0.65363
 H87 H -0.29493 0.61952 -0.48153
 H88 H -0.13607 0.77578 -0.49282
 N89 N 0.02171 1.09108 -0.07040
 N90 N 0.03706 1.12264 -0.08394
 N91 N -0.03124 1.04874 -0.12174
 N92 N -0.04987 1.04975 -0.16925
 N93 N -0.03664 1.07800 -0.08157
 N94 N -0.05856 1.10031 -0.10130
 N95 N 0.02789 1.06126 -0.10914
 N96 N 0.04779 1.07182 -0.15001
 C97 C 0.05353 1.11001 -0.13286
 C98 C -0.06686 1.08191 -0.15537
 N99 N -0.02132 0.93773 -0.06255
 N100 N -0.04044 0.90976 -0.07310
 N101 N 0.03749 0.97469 -0.09745
 N102 N 0.05847 0.96692 -0.13776
 N103 N 0.03770 0.94798 -0.05091
 N104 N 0.05867 0.92144 -0.05849
 N105 N -0.02154 0.96403 -0.10964
 N106 N -0.04099 0.95537 -0.15244
 Mn107 Mn 0.00338 1.01215 -0.11012
 C108 C -0.05243 0.92149 -0.12960
 C109 C 0.07176 0.93402 -0.11205
 N110 N -0.04254 1.08348 0.05548
 N111 N -0.06887 1.09859 0.05261
 N112 N 0.01934 1.07103 0.11174
 N113 N 0.03695 1.08455 0.15571
 N114 N 0.01620 1.09728 0.06514
 N115 N 0.03126 1.12947 0.07616
 N116 N -0.03981 1.05805 0.10342
 N117 N -0.06412 1.05463 0.13363
 Mn118 Mn -0.01049 1.08779 -0.00785
 C119 C -0.08184 1.08045 0.10245
 C120 C 0.04439 1.12085 0.13222
 N121 N 0.03280 0.95442 0.08596
 N122 N 0.05544 0.93289 0.10445
 N123 N -0.03006 0.97380 0.11586
 N124 N -0.05037 0.96630 0.15698
 N125 N -0.02640 0.94363 0.07643
 N126 N -0.04394 0.91426 0.09076
 N127 N 0.02885 0.98536 0.12383
 N128 N 0.04853 0.98585 0.16876
 Mn129 Mn 0.00560 0.94534 0.01226
 Mn130 Mn -0.00524 1.02216 0.11426
 Cl131 Cl -0.00163 1.01677 0.00205
 C132 C 0.06499 0.95315 0.15607
 C133 C -0.05896 0.92935 0.14080
 N134 N 0.46742 0.44788 -0.07831
 N135 N 0.44201 0.43554 -0.09559
 N136 N 0.53263 0.44218 -0.09546
 N137 N 0.55084 0.42256 -0.13251
 N138 N 0.52254 0.41801 -0.05169
 N139 N 0.53322 0.38128 -0.05842
 N140 N 0.47732 0.47311 -0.12070
 N141 N 0.45896 0.47878 -0.16791
 C142 C 0.43714 0.45508 -0.15163
 C143 C 0.55127 0.38477 -0.10807
 N144 N 0.55767 0.55067 -0.05270
 N145 N 0.58376 0.56468 -0.05805
 N146 N 0.49827 0.55377 -0.12027
 N147 N 0.48164 0.56769 -0.16684
 N148 N 0.50274 0.58194 -0.07792
 N149 N 0.48966 0.61588 -0.09498
 N150 N 0.55358 0.52224 -0.09479
 N151 N 0.57672 0.51531 -0.12840
 Mn152 Mn 0.51545 0.49791 -0.10848
 C153 C 0.59536 0.54172 -0.10505
 C154 C 0.47653 0.60647 -0.15037
 N155 N 0.51145 0.42406 0.08400
 N156 N 0.52315 0.39009 0.10605
 N157 N 0.45850 0.48165 0.09833
 N158 N 0.43565 0.48290 0.13506
 N159 N 0.45617 0.45334 0.05533
 N160 N 0.43174 0.43502 0.06110
 N161 N 0.51361 0.45265 0.12656
 N162 N 0.52675 0.43929 0.17821
 Mn163 Mn 0.48944 0.43542 0.00236
 C164 C 0.53273 0.40051 0.16484
 C165 C 0.41897 0.45407 0.11022
 N166 N 0.49145 0.58772 0.05722
 N167 N 0.47922 0.62379 0.06167
 N168 N 0.53482 0.53239 0.12670
 N169 N 0.55159 0.52811 0.17701
 N170 N 0.54630 0.55614 0.08409
 N171 N 0.57114 0.56905 0.10483
 N172 N 0.47983 0.56266 0.09763
 N173 N 0.45931 0.58068 0.12999
 Mn174 Mn 0.52481 0.56959 0.00272
 Mn175 Mn 0.49653 0.50752 0.11269
 Cl176 Cl 0.50660 0.50260 0.00235
 C177 C 0.45896 0.61863 0.10670
 C178 C 0.57410 0.55103 0.16289
 C179 C 0.28641 0.38847 0.39086
 C180 C 0.30042 0.37100 0.33929
 C181 C 0.31942 0.39443 0.29834
 N182 N 0.33193 0.37698 0.24698
 N183 N 0.35086 0.39686 0.21252
 C184 C 0.35813 0.43484 0.22832
 N185 N 0.34553 0.45236 0.27951
 N186 N 0.32649 0.43257 0.31377
 C187 C 0.38071 0.45573 0.19364
 C188 C 0.39255 0.43962 0.13846
 H189 H 0.29950 0.33883 0.33235
 H190 H 0.38920 0.48289 0.21377
 H191 H 0.28846 0.42041 0.39886
 H192 H 0.38335 0.41323 0.11738
 C193 C -0.15602 0.76221 0.39059
 C194 C -0.14287 0.79952 0.38805
 C195 C -0.12966 0.81641 0.33062
 N196 N -0.12404 0.85611 0.32955
 N197 N -0.11051 0.87228 0.28047
 C198 C -0.10181 0.84944 0.23044
 N199 N -0.10747 0.80955 0.23127
 N200 N -0.12126 0.79331 0.28045
 C201 C -0.08490 0.86751 0.17868
 C202 C -0.08074 0.90885 0.17802
 H203 H -0.14377 0.81910 0.42912
 H204 H -0.07406 0.84830 0.14458
 H205 H -0.15852 0.74669 0.34592
 H206 H -0.09203 0.92745 0.21227
 C207 C 0.71985 0.63606 0.40004
 C208 C 0.70078 0.60430 0.39695
 C209 C 0.68102 0.59827 0.34313
 N210 N 0.66280 0.56729 0.34568
 N211 N 0.64363 0.56215 0.29960
 C212 C 0.64188 0.58778 0.24896
 N213 N 0.66031 0.61861 0.24594
 N214 N 0.67950 0.62384 0.29225
 C215 C 0.61972 0.58303 0.19936
 C216 C 0.59815 0.55535 0.20730
 H217 H 0.70004 0.58242 0.43528
 H218 H 0.61961 0.60261 0.15787
 H219 H 0.72189 0.65392 0.35721
 H220 H 0.59795 0.53682 0.24997
 C221 C 0.16650 1.25337 0.37611
 C222 C 0.13738 1.24598 0.37217
 C223 C 0.12494 1.22091 0.32256
 N224 N 0.09710 1.22626 0.30661
 N225 N 0.08439 1.20063 0.26779
 C226 C 0.09891 1.16818 0.24466
 N227 N 0.12675 1.16265 0.26083
 N228 N 0.13959 1.18869 0.29892
 C229 C 0.08424 1.13842 0.20573
 C230 C 0.06151 1.14996 0.16657
 H231 H 0.12316 1.25747 0.40869
 H232 H 0.09153 1.10732 0.20724
 H233 H 0.17913 1.24936 0.33344
 H234 H 0.05658 1.18160 0.15925
 C235 C 0.65048 0.22542 -0.37026
 C236 C 0.62222 0.23279 -0.35235
 C237 C 0.61468 0.26194 -0.30246
 N238 N 0.58886 0.26063 -0.27386
 N239 N 0.58066 0.28927 -0.23332
 C240 C 0.59780 0.32061 -0.22062
 N241 N 0.62361 0.32195 -0.24927
 N242 N 0.63196 0.29303 -0.28921
 C243 C 0.58772 0.35431 -0.18099
 C244 C 0.56545 0.35007 -0.13814
 H245 H 0.60499 0.21786 -0.37638
 H246 H 0.59744 0.38328 -0.18699
 H247 H 0.66674 0.23516 -0.33740
 H248 H 0.55745 0.32048 -0.12778
 C249 C 0.20737 0.83659 -0.36989
 C250 C 0.18000 0.82766 -0.34976
 C251 C 0.16418 0.85248 -0.30357
 N252 N 0.14152 0.83706 -0.27278
 N253 N 0.12526 0.86018 -0.23542
 C254 C 0.13077 0.89979 -0.22830
 N255 N 0.15337 0.91531 -0.25934
 N256 N 0.16987 0.89202 -0.29607
 C257 C 0.11155 0.92600 -0.19094
 C258 C 0.09437 0.91032 -0.14338
 H259 H 0.16907 0.80290 -0.37170
 H260 H 0.11067 0.95791 -0.20138
 H261 H 0.21963 0.85861 -0.34446
 H262 H 0.09721 0.87915 -0.12908
 C263 C 0.34451 0.73143 -0.39378
 C264 C 0.37413 0.72565 -0.39328
 C265 C 0.38917 0.70137 -0.34425
 N266 N 0.41701 0.70804 -0.33129
 N267 N 0.43166 0.68399 -0.29133
 C268 C 0.41915 0.65188 -0.26378
 N269 N 0.39134 0.64507 -0.27699
 N270 N 0.37656 0.66949 -0.31622
 C271 C 0.43573 0.62347 -0.22338
 C272 C 0.45930 0.63536 -0.18826
 H273 H 0.38693 0.73940 -0.42993
 H274 H 0.42875 0.59275 -0.21967
 H275 H 0.33326 0.72382 -0.35056
 H276 H 0.46436 0.66690 -0.18575
 C277 C -0.21052 1.13513 -0.42016
 C278 C -0.18096 1.13890 -0.42195
 C279 C -0.16223 1.12259 -0.37151
 N280 N -0.13807 1.14195 -0.35611
 N281 N -0.12018 1.12667 -0.31235
 C282 C -0.12554 1.09110 -0.28327
 N283 N -0.14955 1.07144 -0.29920
 N284 N -0.16771 1.08708 -0.34226
 C285 C -0.10517 1.07356 -0.23704
 C286 C -0.08947 1.09802 -0.19725
 H287 H -0.17131 1.15712 -0.45862
 H288 H -0.10293 1.04117 -0.23321
 H289 H -0.21948 1.12319 -0.37673
 H290 H -0.09429 1.12997 -0.19570
 C291 C 0.72413 0.63767 -0.36773
 C292 C 0.70643 0.60497 -0.35851
 C293 C 0.69010 0.59909 -0.29955
 N294 N 0.67839 0.56297 -0.28802
 N295 N 0.66206 0.55753 -0.23711
 C296 C 0.65664 0.58803 -0.19576
 N297 N 0.66847 0.62421 -0.20710
 N298 N 0.68502 0.62960 -0.25795
 C299 C 0.63600 0.58300 -0.14351
 C300 C 0.62355 0.54595 -0.13352
 H301 H 0.70523 0.58174 -0.39431
 H302 H 0.62789 0.60936 -0.11890
 H303 H 0.72736 0.65685 -0.32703
 H304 H 0.63165 0.52005 -0.15931
 C305 C 0.17191 1.23424 -0.39564
 C306 C 0.14277 1.22829 -0.38787
 C307 C 0.13122 1.20265 -0.33760
 N308 N 0.10452 1.21020 -0.31585
 N309 N 0.09270 1.18555 -0.27391
 C310 C 0.10694 1.15202 -0.25300
 N311 N 0.13361 1.14422 -0.27512
 N312 N 0.14563 1.16925 -0.31646
 C313 C 0.09302 1.12374 -0.20970
 C314 C 0.07166 1.13720 -0.16884
 H315 H 0.12754 1.24427 -0.41826
 H316 H 0.09928 1.09224 -0.21050
 H317 H 0.18594 1.22390 -0.35761
 H318 H 0.06762 1.16918 -0.16368
 C319 C 0.29709 0.35748 -0.38123
 C320 C 0.30678 0.39553 -0.36609
 C321 C 0.32744 0.40235 -0.31481
 N322 N 0.34020 0.43838 -0.31118
 N323 N 0.36052 0.44447 -0.26808
 C324 C 0.36875 0.41479 -0.22677
 N325 N 0.35562 0.37893 -0.22956
 N326 N 0.33538 0.37275 -0.27302
 C327 C 0.39243 0.42050 -0.18198
 C328 C 0.41153 0.45135 -0.19100
 H329 H 0.30060 0.42099 -0.39591
 H330 H 0.39621 0.39838 -0.14456
 H331 H 0.30248 0.33217 -0.35042
 H332 H 0.40871 0.47204 -0.23078
 C333 C -0.14997 0.75668 -0.37583
 C334 C -0.14568 0.79732 -0.36509
 C335 C -0.13017 0.81276 -0.30958
 N336 N -0.12866 0.85301 -0.30193
 N337 N -0.11354 0.86816 -0.25434
 C338 C -0.09924 0.84375 -0.21236
 N339 N -0.10099 0.80333 -0.21948
 N340 N -0.11623 0.78809 -0.26722
 C341 C -0.08045 0.86105 -0.16330
 C342 C -0.07578 0.90221 -0.16344
 H343 H -0.15403 0.81908 -0.39948
 H344 H -0.06821 0.84130 -0.13175
 H345 H -0.14323 0.73459 -0.34039
 H346 H -0.08727 0.92122 -0.19740
 C347 C 0.33476 0.72879 0.37419
 C348 C 0.36251 0.73557 0.35426
 C349 C 0.37516 0.71358 0.30029
 N350 N 0.40101 0.72381 0.27727
 N351 N 0.41365 0.70188 0.23199
 C352 C 0.40092 0.66882 0.20841
 N353 N 0.37503 0.65879 0.23116
 N354 N 0.36232 0.68085 0.27600
 C355 C 0.41595 0.64117 0.16517
 C356 C 0.44075 0.65086 0.13290
 H357 H 0.37563 0.75615 0.38062
 H358 H 0.40819 0.61081 0.16213
 H359 H 0.32107 0.71035 0.34537
 H360 H 0.44765 0.68164 0.13030
 C361 C -0.22338 1.15280 0.35146
 C362 C -0.20295 1.12320 0.33681
 C363 C -0.18651 1.12229 0.27749
 N364 N -0.17369 1.08727 0.26001
 N365 N -0.15566 1.08617 0.21134
 C366 C -0.14944 1.12010 0.17842
 N367 N -0.16257 1.15522 0.19534
 N368 N -0.18090 1.15628 0.24391
 C369 C -0.12609 1.11939 0.13144
 C370 C -0.11213 1.08314 0.11786
 H371 H -0.19912 1.09843 0.36978
 H372 H -0.11703 1.14747 0.11613
 H373 H -0.23050 1.17263 0.31325
 H374 H -0.12124 1.05545 0.13479
 C375 C 0.63083 0.22109 0.40116
 C376 C 0.61543 0.25723 0.40463
 C377 C 0.59870 0.27485 0.35183
 N378 N 0.58513 0.31054 0.36142
 N379 N 0.57104 0.32887 0.31408
 C380 C 0.56995 0.31239 0.25502
 N381 N 0.58323 0.27626 0.24538
 N382 N 0.59743 0.25778 0.29303
 C383 C 0.55550 0.33452 0.20240
 C384 C 0.54663 0.37417 0.21218
 H385 H 0.61698 0.27519 0.44743
 H386 H 0.55278 0.32051 0.15630
 H387 H 0.63017 0.20367 0.35775
 H388 H 0.55053 0.38793 0.25804
 C389 C 0.19463 0.82279 0.39780
 C390 C 0.18162 0.86054 0.39011
 C391 C 0.16229 0.87130 0.33707
 N392 N 0.15102 0.90908 0.33407
 N393 N 0.13261 0.91955 0.28815
 C394 C 0.12470 0.89267 0.24328
 N395 N 0.13613 0.85484 0.24588
 N396 N 0.15462 0.84431 0.29199
 C397 C 0.10310 0.90395 0.19458
 C398 C 0.08938 0.94146 0.19653
 H399 H 0.18569 0.88356 0.42517
 H400 H 0.09680 0.88200 0.15957
 H401 H 0.19200 0.80009 0.36158
 H402 H 0.09538 0.96280 0.23275
   
