data_POSCAR
  _audit_creation_date              2014-09-24
  _audit_creation_method            'ToBaCCo'
  _symmetry_space_group_name_H-M    'P1'
  _symmetry_Int_Tables_number       1
  _symmetry_cell_setting            triclinic
  loop_
  _symmetry_equiv_pos_as_xyz
 x,y,z
_cell_length_a 51.9156
_cell_length_b 51.3288
_cell_length_c 50.4910
_cell_angle_alpha 89.882500
_cell_angle_beta 89.769000
_cell_angle_gamma 90.831200
loop_
  _atom_site_label
  _atom_site_type_symbol
  _atom_site_fract_x
  _atom_site_fract_y
  _atom_site_fract_z
N1 N 0.59550 0.66792 0.61361
 N2 N 0.58362 0.65541 0.63295
 C3 C 0.56240 0.66862 0.63986
 C4 C 0.56095 0.69064 0.62408
 C5 C 0.58234 0.68955 0.60767
 H6 H 0.54916 0.66284 0.65544
 H7 H 0.58770 0.70322 0.59222
 Cu8 Cu 0.59706 0.62330 0.64769
 Cu9 Cu 0.62660 0.65484 0.59703
 Cu10 Cu 0.65215 0.59865 0.62346
 N11 N 0.61290 0.59276 0.66328
 N12 N 0.63432 0.58321 0.65370
 C13 C 0.64108 0.56242 0.66822
 C14 C 0.62295 0.55861 0.68824
 C15 C 0.60533 0.57840 0.68434
 H16 H 0.65813 0.55119 0.66446
 H17 H 0.58830 0.58227 0.69595
 N18 N 0.66750 0.61704 0.59288
 N19 N 0.65788 0.63855 0.58289
 C20 C 0.67249 0.64625 0.56211
 C21 C 0.69233 0.62874 0.55880
 C22 C 0.68846 0.61049 0.57875
 H23 H 0.66882 0.66331 0.55023
 H24 H 0.69989 0.59350 0.58259
 H25 H 0.62051 0.61606 0.60641
 H26 H 0.63940 0.63604 0.63065
 N27 N 0.90526 0.33146 0.11313
 N28 N 0.91539 0.34203 0.13441
 C29 C 0.93613 0.32830 0.14162
 C30 C 0.93927 0.30787 0.12391
 C31 C 0.91915 0.31065 0.10608
 H32 H 0.94799 0.33298 0.15852
 H33 H 0.91477 0.29857 0.08916
 Cu34 Cu 0.90055 0.37279 0.15061
 Cu35 Cu 0.87482 0.34540 0.09608
 Cu36 Cu 0.84868 0.40088 0.12366
 N37 N 0.88599 0.40436 0.16540
 N38 N 0.86574 0.41520 0.15475
 C39 C 0.85962 0.43654 0.16872
 C40 C 0.87698 0.43937 0.18935
 C41 C 0.89347 0.41851 0.18654
 H42 H 0.84365 0.44898 0.16409
 H43 H 0.90968 0.41388 0.19894
 N44 N 0.83414 0.38354 0.09222
 N45 N 0.84406 0.36241 0.08171
 C46 C 0.82984 0.35529 0.06060
 C47 C 0.80994 0.37277 0.05759
 C48 C 0.81338 0.39041 0.07808
 H49 H 0.83372 0.33855 0.04837
 H50 H 0.80166 0.40708 0.08244
 H51 H 0.88107 0.38340 0.10817
 H52 H 0.85947 0.36267 0.12940
 N53 N 0.40417 0.16676 -0.11343
 N54 N 0.41567 0.15490 -0.13316
 C55 C 0.43728 0.16831 -0.13969
 C56 C 0.43936 0.18981 -0.12326
 C57 C 0.41795 0.18817 -0.10686
 H58 H 0.45033 0.16308 -0.15548
 H59 H 0.41293 0.20139 -0.09108
 Cu60 Cu 0.40082 0.12348 -0.14868
 Cu61 Cu 0.37247 0.15331 -0.09734
 Cu62 Cu 0.34634 0.09669 -0.12421
 N63 N 0.38601 0.09180 -0.16371
 N64 N 0.36464 0.08149 -0.15407
 C65 C 0.35831 0.06014 -0.16815
 C66 C 0.37670 0.05677 -0.18782
 C67 C 0.39400 0.07731 -0.18430
 H68 H 0.34139 0.04817 -0.16442
 H69 H 0.41108 0.08153 -0.19590
 N70 N 0.33071 0.11500 -0.09398
 N71 N 0.34059 0.13658 -0.08383
 C72 C 0.32572 0.14414 -0.06341
 C73 C 0.30545 0.12648 -0.06045
 C74 C 0.30932 0.10828 -0.08028
 H75 H 0.32955 0.16118 -0.05147
 H76 H 0.29755 0.09126 -0.08438
 H77 H 0.37806 0.11475 -0.10723
 H78 H 0.35874 0.13459 -0.13071
 N79 N 0.09540 0.83413 0.38755
 N80 N 0.08189 0.84871 0.37154
 C81 C 0.06021 0.83576 0.36472
 C82 C 0.06004 0.81151 0.37707
 C83 C 0.08288 0.81129 0.39136
 H84 H 0.04588 0.84348 0.35151
 H85 H 0.08980 0.79597 0.40407
 Cu86 Cu 0.09382 0.88317 0.36073
 Cu87 Cu 0.12756 0.84638 0.40326
 Cu88 Cu 0.15323 0.90387 0.37822
 N89 N 0.11097 0.91217 0.34285
 N90 N 0.13413 0.92020 0.34972
 C91 C 0.14135 0.94028 0.33407
 C92 C 0.12166 0.94514 0.31631
 C93 C 0.10267 0.92682 0.32255
 H94 H 0.15974 0.95030 0.33535
 H95 H 0.08418 0.92423 0.31309
 N96 N 0.16946 0.88429 0.40712
 N97 N 0.15978 0.86226 0.41657
 C98 C 0.17480 0.85394 0.43646
 C99 C 0.19499 0.87161 0.43978
 C100 C 0.19090 0.89058 0.42073
 H101 H 0.17104 0.83648 0.44789
 H102 H 0.20237 0.90798 0.41727
 H103 H 0.12286 0.88608 0.39844
 H104 H 0.13687 0.86785 0.36978
 C105 C 0.10918 0.14812 0.11356
 C106 C 0.13125 0.13714 0.10232
 C107 C 0.14202 0.11537 0.11372
 C108 C 0.13094 0.10432 0.13657
 C109 C 0.10919 0.11514 0.14766
 C110 C 0.09826 0.13723 0.13609
 C111 C 0.09461 0.16927 0.10677
 N112 N 0.07510 0.17153 0.12464
 C113 C 0.07725 0.15195 0.14265
 C114 C 0.10274 0.10048 0.16961
 N115 N 0.12007 0.08102 0.17217
 C116 C 0.13738 0.08328 0.15198
 C117 C 0.16318 0.10901 0.09871
 N118 N 0.16556 0.12640 0.07846
 C119 C 0.14606 0.14369 0.08058
 H120 H 0.09824 0.18227 0.09022
 H121 H 0.06430 0.14840 0.15916
 H122 H 0.08683 0.10404 0.18297
 H123 H 0.15336 0.07040 0.14850
 H124 H 0.17610 0.09310 0.10256
 H125 H 0.14263 0.15969 0.06712
 C126 C 0.38948 0.84976 0.61436
 C127 C 0.36727 0.86043 0.60322
 C128 C 0.35661 0.88247 0.61417
 C129 C 0.36790 0.89409 0.63648
 C130 C 0.38984 0.88366 0.64740
 C131 C 0.40075 0.86136 0.63623
 C132 C 0.40401 0.82847 0.60792
 N133 N 0.42390 0.82695 0.62525
 C134 C 0.42205 0.84704 0.64262
 C135 C 0.39647 0.89886 0.66881
 N136 N 0.37902 0.91823 0.67121
 C137 C 0.36150 0.91543 0.65143
 C138 C 0.33543 0.88860 0.59924
 N139 N 0.33296 0.87083 0.57944
 C140 C 0.35237 0.85348 0.58181
 H141 H 0.40056 0.81526 0.59158
 H142 H 0.43505 0.85078 0.65893
 H143 H 0.41254 0.89569 0.68195
 H144 H 0.34537 0.92810 0.64796
 H145 H 0.32266 0.90472 0.60273
 H146 H 0.35576 0.83727 0.56864
 C147 C 0.88811 0.64981 0.38371
 C148 C 0.86557 0.63897 0.39480
 C149 C 0.85510 0.61628 0.38447
 C150 C 0.86692 0.60418 0.36282
 C151 C 0.88920 0.61478 0.35194
 C152 C 0.89992 0.63773 0.36251
 C153 C 0.90256 0.67167 0.38968
 N154 N 0.92293 0.67308 0.37274
 C155 C 0.92148 0.65236 0.35607
 C156 C 0.89621 0.59907 0.33114
 N157 N 0.87868 0.57924 0.32907
 C158 C 0.86074 0.58224 0.34848
 C159 C 0.83353 0.61012 0.39924
 N160 N 0.83065 0.62848 0.41835
 C161 C 0.85018 0.64625 0.41569
 H162 H 0.89872 0.68535 0.40545
 H163 H 0.93497 0.64837 0.34023
 H164 H 0.91257 0.60225 0.31811
 H165 H 0.84440 0.56936 0.35206
 H166 H 0.82080 0.59353 0.39613
 H167 H 0.85334 0.66297 0.42836
 C168 C 0.61324 0.35154 -0.11461
 C169 C 0.63582 0.36248 -0.10393
 C170 C 0.64639 0.38494 -0.11485
 C171 C 0.63461 0.39672 -0.13667
 C172 C 0.61232 0.38599 -0.14715
 C173 C 0.60152 0.36328 -0.13599
 C174 C 0.59867 0.32984 -0.10805
 N175 N 0.57832 0.32822 -0.12485
 C176 C 0.57993 0.34863 -0.14200
 C177 C 0.60531 0.40137 -0.16819
 N178 N 0.62283 0.42119 -0.17081
 C179 C 0.64079 0.41845 -0.15150
 C180 C 0.66804 0.39121 -0.10046
 N181 N 0.67089 0.37312 -0.08101
 C182 C 0.65124 0.35544 -0.08307
 H183 H 0.60241 0.31644 -0.09199
 H184 H 0.56654 0.35240 -0.15789
 H185 H 0.58892 0.39800 -0.18098
 H186 H 0.65711 0.43140 -0.14827
 H187 H 0.68088 0.40764 -0.10409
 H188 H 0.64804 0.33891 -0.07006
 C189 C -0.00291 0.25006 0.12419
 C190 C -0.02192 0.25015 0.10450
 C191 C -0.04094 0.26913 0.10439
 C192 C -0.04150 0.28866 0.12399
 C193 C -0.02230 0.28845 0.14369
 C194 C -0.00333 0.26941 0.14377
 C195 C 0.01726 0.22983 0.12431
 C196 C 0.02503 0.21830 0.14819
 C197 C 0.04395 0.19921 0.14830
 C198 C 0.05558 0.19123 0.12453
 C199 C 0.04784 0.20281 0.10065
 C200 C 0.02888 0.22186 0.10053
 H201 H -0.05514 0.26821 0.08883
 H202 H -0.02166 0.30292 0.15920
 H203 H 0.04966 0.19091 0.16705
 H204 H 0.05620 0.19692 0.08198
 H205 H 0.01127 0.27006 0.15903
 H206 H 0.01626 0.22384 0.16680
 H207 H -0.02231 0.23527 0.08933
 H208 H 0.02349 0.23056 0.08184
 C209 C 0.50233 0.74912 0.62494
 C210 C 0.49726 0.72417 0.63535
 C211 C 0.51634 0.70524 0.63525
 C212 C 0.54082 0.71079 0.62447
 C213 C 0.54585 0.73574 0.61397
 C214 C 0.52684 0.75475 0.61434
 C215 C 0.48209 0.76919 0.62507
 C216 C 0.48791 0.79485 0.63291
 C217 C 0.46880 0.81374 0.63312
 C218 C 0.44355 0.80744 0.62521
 C219 C 0.43778 0.78181 0.61724
 C220 C 0.45682 0.76284 0.61731
 H221 H 0.51178 0.68617 0.64331
 H222 H 0.56454 0.74071 0.60569
 H223 H 0.47383 0.83339 0.63911
 H224 H 0.41844 0.77637 0.61129
 H225 H 0.53119 0.77378 0.60600
 H226 H 0.50720 0.80021 0.63916
 H227 H 0.47858 0.71938 0.64383
 H228 H 0.45187 0.74326 0.61099
 C229 C 1.00208 0.75238 0.37371
 C230 C 1.02544 0.74783 0.38664
 C231 C 1.04452 0.76728 0.38780
 C232 C 1.04087 0.79176 0.37572
 C233 C 1.01744 0.79601 0.36243
 C234 C 0.99826 0.77663 0.36162
 C235 C 0.98163 0.73197 0.37309
 C236 C 0.95601 0.73817 0.37912
 C237 C 0.93678 0.71884 0.37907
 C238 C 0.94273 0.69300 0.37264
 C239 C 0.96830 0.68685 0.36631
 C240 C 0.98761 0.70612 0.36672
 H241 H 1.06213 0.76281 0.39809
 H242 H 1.01349 0.81437 0.35288
 H243 H 0.91718 0.72412 0.38379
 H244 H 0.97342 0.66705 0.36150
 H245 H 0.98046 0.78054 0.35133
 H246 H 0.95094 0.75792 0.38428
 H247 H 1.02879 0.72932 0.39627
 H248 H 1.00719 0.70088 0.36184
 C249 C 0.49898 0.24901 -0.12362
 C250 C 0.47472 0.25404 -0.11250
 C251 C 0.45542 0.23477 -0.11223
 C252 C 0.45989 0.21015 -0.12333
 C253 C 0.48415 0.20517 -0.13454
 C254 C 0.50353 0.22436 -0.13456
 C255 C 0.51945 0.26944 -0.12389
 C256 C 0.54483 0.26341 -0.11683
 C257 C 0.56410 0.28271 -0.11699
 C258 C 0.55844 0.30837 -0.12450
 C259 C 0.53308 0.31436 -0.13169
 C260 C 0.51375 0.29513 -0.13125
 H261 H 0.43691 0.23931 -0.10360
 H262 H 0.48829 0.18636 -0.14307
 H263 H 0.58351 0.27751 -0.11160
 H264 H 0.52814 0.33401 -0.13731
 H265 H 0.52200 0.22003 -0.14344
 H266 H 0.54969 0.24381 -0.11090
 H267 H 0.47077 0.27282 -0.10376
 H268 H 0.49439 0.30026 -0.13697
 C269 C 0.12063 0.00345 0.25463
 C270 C 0.10146 -0.01613 0.25584
 C271 C 0.10175 -0.03500 0.27584
 C272 C 0.12121 -0.03473 0.29514
 C273 C 0.14032 -0.01504 0.29395
 C274 C 0.14003 0.00379 0.27394
 C275 C 0.12044 0.02341 0.23330
 C276 C 0.14352 0.03147 0.22093
 C277 C 0.14339 0.05028 0.20089
 C278 C 0.12018 0.06153 0.19278
 C279 C 0.09709 0.05346 0.20515
 C280 C 0.09722 0.03460 0.22516
 H281 H 0.08683 -0.04991 0.27589
 H282 H 0.15546 -0.01394 0.30856
 H283 H 0.16152 0.05626 0.19199
 H284 H 0.07887 0.06152 0.19918
 H285 H 0.15484 0.01887 0.27380
 H286 H 0.16169 0.02302 0.22656
 H287 H 0.08645 -0.01712 0.24103
 H288 H 0.07915 0.02898 0.23448
 C289 C 0.62245 0.50044 -0.25168
 C290 C 0.64185 0.50111 -0.27112
 C291 C 0.64200 0.52019 -0.29090
 C292 C 0.62269 0.53921 -0.29186
 C293 C 0.60318 0.53834 -0.27232
 C294 C 0.60310 0.51925 -0.25254
 C295 C 0.62247 0.48020 -0.23059
 C296 C 0.59934 0.46820 -0.22217
 C297 C 0.59944 0.44896 -0.20254
 C298 C 0.62267 0.44126 -0.19085
 C299 C 0.64577 0.45338 -0.19920
 C300 C 0.64567 0.47261 -0.21881
 H301 H 0.65736 0.51970 -0.30538
 H302 H 0.58791 0.55242 -0.27196
 H303 H 0.58127 0.44026 -0.19638
 H304 H 0.66403 0.44775 -0.19086
 H305 H 0.58805 0.51946 -0.23763
 H306 H 0.58116 0.47342 -0.23103
 H307 H 0.65681 0.48663 -0.27128
 H308 H 0.66379 0.48170 -0.22462
 C309 C 0.37826 0.99703 0.75211
 C310 C 0.39702 1.01701 0.75238
 C311 C 0.39659 1.03631 0.77187
 C312 C 0.37738 1.03608 0.79162
 C313 C 0.35871 1.01593 0.79138
 C314 C 0.35914 0.99668 0.77186
 C315 C 0.37851 0.97672 0.73121
 C316 C 0.35541 0.96812 0.71949
 C317 C 0.35559 0.94903 0.69981
 C318 C 0.37888 0.93804 0.69142
 C319 C 0.40199 0.94664 0.70314
 C320 C 0.40181 0.96579 0.72278
 H321 H 0.41126 1.05145 0.77119
 H322 H 0.34370 1.01485 0.80625
 H323 H 0.33744 0.94264 0.69141
 H324 H 0.42026 0.93877 0.69693
 H325 H 0.34463 0.98132 0.77241
 H326 H 0.33717 0.97636 0.72535
 H327 H 0.41183 1.01799 0.73722
 H328 H 0.41990 0.97185 0.73160
 C329 C 0.87836 0.49920 0.24939
 C330 C 0.89707 0.47970 0.24912
 C331 C 0.89669 0.46035 0.22967
 C332 C 0.87759 0.46005 0.20996
 C333 C 0.85897 0.47969 0.21022
 C334 C 0.85935 0.49899 0.22968
 C335 C 0.87855 0.51963 0.27018
 C336 C 0.85538 0.52780 0.28176
 C337 C 0.85545 0.54722 0.30110
 C338 C 0.87870 0.55896 0.30933
 C339 C 0.90189 0.55072 0.29782
 C340 C 0.90183 0.53125 0.27849
 H341 H 0.91136 0.44564 0.23026
 H342 H 0.84399 0.48032 0.19545
 H343 H 0.83723 0.55329 0.30931
 H344 H 0.92013 0.55917 0.30390
 H345 H 0.84489 0.51398 0.22911
 H346 H 0.83716 0.51903 0.27600
 H347 H 0.91181 0.47917 0.26422
 H348 H 0.91997 0.52554 0.26977
 C349 C 0.24494 0.12685 -0.00147
 C350 C 0.24580 0.10714 -0.02069
 C351 C 0.26530 0.10708 -0.03985
 C352 C 0.28450 0.12672 -0.04025
 C353 C 0.28352 0.14650 -0.02103
 C354 C 0.26398 0.14656 -0.00190
 C355 C 0.22436 0.12674 0.01906
 C356 C 0.21260 0.15005 0.02673
 C357 C 0.19331 0.14994 0.04612
 C358 C 0.18536 0.12652 0.05834
 C359 C 0.19712 0.10321 0.05064
 C360 C 0.21637 0.10332 0.03121
 H361 H 0.26519 0.09155 -0.05427
 H362 H 0.29786 0.16196 -0.02053
 H363 H 0.18485 0.16825 0.05178
 H364 H 0.19126 0.08481 0.05943
 H365 H 0.26404 0.16185 0.01285
 H366 H 0.21815 0.16838 0.01754
 H367 H 0.23119 0.09187 -0.02111
 H368 H 0.22524 0.08507 0.02594
 C369 C 0.75170 0.62932 0.49864
 C370 C 0.73213 0.64792 0.49825
 C371 C 0.71294 0.64781 0.51776
 C372 C 0.71288 0.62911 0.53819
 C373 C 0.73263 0.61063 0.53861
 C374 C 0.75176 0.61072 0.51907
 C375 C 0.77192 0.62918 0.47775
 C376 C 0.78023 0.60555 0.46689
 C377 C 0.79936 0.60534 0.44737
 C378 C 0.81069 0.62876 0.43829
 C379 C 0.80234 0.65240 0.44912
 C380 C 0.78313 0.65262 0.46859
 H381 H 0.69809 0.66230 0.51658
 H382 H 0.73352 0.59604 0.55403
 H383 H 0.80555 0.58679 0.43966
 H384 H 0.81048 0.67078 0.44236
 H385 H 0.76682 0.59638 0.52014
 H386 H 0.77176 0.58719 0.47333
 H387 H 0.73139 0.66232 0.48257
 H388 H 0.77728 0.67112 0.47675
 C389 C 0.75058 0.37264 -0.00211
 C390 C 0.75103 0.39166 0.01784
 C391 C 0.77022 0.39168 0.03717
 C392 C 0.78949 0.37268 0.03704
 C393 C 0.78897 0.35363 0.01703
 C394 C 0.76974 0.35360 -0.00227
 C395 C 0.73018 0.37270 -0.02265
 C396 C 0.71853 0.34926 -0.03103
 C397 C 0.69914 0.34938 -0.05016
 C398 C 0.69102 0.37294 -0.06141
 C399 C 0.70277 0.39636 -0.05310
 C400 C 0.72210 0.39624 -0.03394
 H401 H 0.76974 0.40663 0.05220
 H402 H 0.80342 0.33871 0.01608
 H403 H 0.69069 0.33100 -0.05633
 H404 H 0.69679 0.41485 -0.06114
 H405 H 0.77009 0.33887 -0.01759
 H406 H 0.72417 0.33083 -0.02253
 H407 H 0.73632 0.40637 0.01873
 H408 H 0.73090 0.41459 -0.02810
 C409 C 0.25486 0.87037 0.49888
 C410 C 0.25489 0.88964 0.47910
 C411 C 0.23565 0.88991 0.45984
 C412 C 0.21582 0.87093 0.45991
 C413 C 0.21596 0.85150 0.47961
 C414 C 0.23526 0.85122 0.49884
 C415 C 0.27506 0.87042 0.51963
 C416 C 0.28618 0.84703 0.52801
 C417 C 0.30517 0.84715 0.54757
 C418 C 0.31339 0.87066 0.55925
 C419 C 0.30221 0.89404 0.55088
 C420 C 0.28330 0.89393 0.53128
 H421 H 0.23646 0.90506 0.44496
 H422 H 0.20108 0.83658 0.48050
 H423 H 0.31321 0.82880 0.55376
 H424 H 0.30831 0.91250 0.55924
 H425 H 0.23455 0.83628 0.51401
 H426 H 0.28040 0.82863 0.51924
 H427 H 0.26997 0.90443 0.47836
 H428 H 0.27490 0.91224 0.52544
   
