data_POSCAR
  _audit_creation_date              2014-09-24
  _audit_creation_method            'ToBaCCo'
  _symmetry_space_group_name_H-M    'P1'
  _symmetry_Int_Tables_number       1
  _symmetry_cell_setting            triclinic
  loop_
  _symmetry_equiv_pos_as_xyz
 x,y,z
_cell_length_a 79.9267
_cell_length_b 79.9595
_cell_length_c 23.3099
_cell_angle_alpha 89.991300
_cell_angle_beta 90.046200
_cell_angle_gamma 120.073000
loop_
  _atom_site_label
  _atom_site_type_symbol
  _atom_site_fract_x
  _atom_site_fract_y
  _atom_site_fract_z
C1 C 0.24882 0.49778 0.52768
 C2 C 0.24917 0.49901 0.46919
 C3 C 0.23417 0.50091 0.43655
 C4 C 0.26447 0.49822 0.43496
 C5 C 0.26499 0.49817 0.56028
 C6 C 0.23245 0.49620 0.56218
 C7 C 0.22495 0.48877 0.38976
 C8 C 0.21031 0.48979 0.36002
 C9 C 0.20413 0.50291 0.37658
 C10 C 0.21407 0.51549 0.42303
 C11 C 0.22902 0.51470 0.45169
 C12 C 0.26841 0.48310 0.44239
 C13 C 0.28315 0.48276 0.41113
 C14 C 0.29401 0.49734 0.37086
 C15 C 0.28961 0.51213 0.36229
 C16 C 0.27499 0.51256 0.39401
 C17 C 0.28398 0.51361 0.55425
 C18 C 0.29911 0.51367 0.58455
 C19 C 0.29548 0.49832 0.62152
 C20 C 0.27639 0.48306 0.62817
 C21 C 0.26127 0.48305 0.59808
 C22 C 0.23613 0.50910 0.60759
 C23 C 0.22089 0.50837 0.63889
 C24 C 0.20162 0.49468 0.62546
 C25 C 0.19800 0.48137 0.58104
 C26 C 0.21327 0.48201 0.55006
 H27 H 0.22870 0.47802 0.37715
 H28 H 0.20312 0.47917 0.32663
 H29 H 0.21116 0.52674 0.43619
 H30 H 0.23651 0.52482 0.48615
 H31 H 0.26018 0.47163 0.47280
 H32 H 0.28623 0.47125 0.41926
 H33 H 0.27202 0.52421 0.38705
 H34 H 0.28708 0.52555 0.52588
 H35 H 0.31369 0.52556 0.57837
 H36 H 0.27314 0.47119 0.65701
 H37 H 0.24668 0.47111 0.60363
 H38 H 0.25082 0.52001 0.61812
 H39 H 0.22422 0.51854 0.67366
 H40 H 0.18334 0.47072 0.56931
 H41 H 0.21013 0.47165 0.51595
 H42 H 0.29738 0.52335 0.33079
 C43 C 0.50144 -0.24860 0.52939
 C44 C 0.50162 -0.24850 0.47090
 C45 C 0.50128 -0.26452 0.43777
 C46 C 0.50224 -0.23242 0.43711
 C47 C 0.50033 -0.23343 0.56298
 C48 C 0.50268 -0.26378 0.56271
 C49 C 0.51624 -0.26058 0.39911
 C50 C 0.51641 -0.27558 0.36893
 C51 C 0.50147 -0.29478 0.37634
 C52 C 0.48624 -0.29864 0.41414
 C53 C 0.48615 -0.28363 0.44456
 C54 C 0.51649 -0.21313 0.44731
 C55 C 0.51659 -0.19816 0.41611
 C56 C 0.50264 -0.20219 0.37329
 C57 C 0.48875 -0.22158 0.36209
 C58 C 0.48857 -0.23652 0.39365
 C59 C 0.48507 -0.22972 0.55490
 C60 C 0.48468 -0.21483 0.58523
 C61 C 0.49951 -0.20345 0.62422
 C62 C 0.51449 -0.20754 0.63322
 C63 C 0.51482 -0.22247 0.60312
 C64 C 0.48821 -0.27501 0.60231
 C65 C 0.48895 -0.28963 0.63305
 C66 C 0.50436 -0.29336 0.62541
 C67 C 0.51909 -0.28153 0.58611
 C68 C 0.51826 -0.26695 0.55546
 H69 H 0.52796 -0.24590 0.39305
 H70 H 0.52817 -0.27216 0.33947
 H71 H 0.47460 -0.31330 0.42091
 H72 H 0.47434 -0.28690 0.47368
 H73 H 0.52747 -0.20966 0.47972
 H74 H 0.52741 -0.18341 0.42619
 H75 H 0.47759 -0.25131 0.38457
 H76 H 0.47362 -0.23821 0.52463
 H77 H 0.47302 -0.21195 0.57727
 H78 H 0.52593 -0.19921 0.66366
 H79 H 0.52662 -0.22522 0.61024
 H80 H 0.47604 -0.27277 0.60841
 H81 H 0.47684 -0.29846 0.66070
 H82 H 0.53176 -0.28288 0.58004
 H83 H 0.52986 -0.25804 0.52615
 H84 H 0.47806 -0.22524 0.32863
 C85 C 1.24948 0.74924 0.53155
 C86 C 1.24904 0.75031 0.47314
 C87 C 1.26500 0.76646 0.44060
 C88 C 1.23260 0.73543 0.43883
 C89 C 1.23470 0.73226 0.56438
 C90 C 1.26458 0.76545 0.56558
 C91 C 1.26076 0.77639 0.39878
 C92 C 1.27558 0.79148 0.36767
 C93 C 1.29517 0.79728 0.37817
 C94 C 1.29922 0.78695 0.41979
 C95 C 1.28433 0.77155 0.44962
 C96 C 1.21345 0.73033 0.45145
 C97 C 1.19811 0.71565 0.42065
 C98 C 1.20164 0.70602 0.37588
 C99 C 1.22090 0.71172 0.36197
 C100 C 1.23620 0.72627 0.39311
 C101 C 1.22952 0.71333 0.54873
 C102 C 1.21466 0.69752 0.57744
 C103 C 1.20495 0.70020 0.62408
 C104 C 1.21101 0.71935 0.64127
 C105 C 1.22558 0.73510 0.61164
 C106 C 1.27848 0.76310 0.59525
 C107 C 1.29338 0.77862 0.62483
 C108 C 1.29431 0.79673 0.62727
 C109 C 1.27969 0.79862 0.59898
 C110 C 1.26518 0.78323 0.56791
 H111 H 1.24593 0.77263 0.39072
 H112 H 1.27157 0.79912 0.33738
 H113 H 1.31385 0.79009 0.42778
 H114 H 1.28794 0.76347 0.47948
 H115 H 1.21037 0.73750 0.48583
 H116 H 1.18348 0.71156 0.43277
 H117 H 1.25089 0.73016 0.38220
 H118 H 1.23686 0.71075 0.51377
 H119 H 1.21131 0.68323 0.56393
 H120 H 1.20385 0.72243 0.67556
 H121 H 1.22933 0.74957 0.62469
 H122 H 1.27805 0.74934 0.59433
 H123 H 1.30374 0.77610 0.64742
 H124 H 1.27991 0.81226 0.59808
 H125 H 1.25446 0.78521 0.54524
 H126 H 1.22416 0.70492 0.32694
 C127 C 0.75087 0.50127 0.52992
 C128 C 0.75095 0.50142 0.47144
 C129 C 0.76721 0.50244 0.43763
 C130 C 0.73467 0.50062 0.43844
 C131 C 0.73555 0.50227 0.56313
 C132 C 0.76612 0.50026 0.56343
 C133 C 0.78640 0.51693 0.44808
 C134 C 0.80155 0.51749 0.41666
 C135 C 0.79781 0.50377 0.37339
 C136 C 0.77851 0.48963 0.36200
 C137 C 0.76339 0.48899 0.39376
 C138 C 0.73815 0.51556 0.40022
 C139 C 0.72283 0.51540 0.37087
 C140 C 0.70379 0.50016 0.37871
 C141 C 0.70042 0.48493 0.41585
 C142 C 0.71574 0.48515 0.44544
 C143 C 0.72430 0.48768 0.60239
 C144 C 0.70931 0.48803 0.63214
 C145 C 0.70519 0.50314 0.62375
 C146 C 0.71710 0.51806 0.58509
 C147 C 0.73206 0.51763 0.55546
 C148 C 0.76968 0.48494 0.55595
 C149 C 0.78457 0.48452 0.58624
 C150 C 0.79640 0.49953 0.62476
 C151 C 0.79228 0.51463 0.63271
 C152 C 0.77726 0.51487 0.60280
 H153 H 0.78966 0.52776 0.48077
 H154 H 0.81623 0.52849 0.42688
 H155 H 0.77507 0.47910 0.32821
 H156 H 0.74868 0.47784 0.38448
 H157 H 0.75269 0.52753 0.39403
 H158 H 0.72587 0.52717 0.34189
 H159 H 0.71283 0.47338 0.47428
 H160 H 0.72678 0.47567 0.60879
 H161 H 0.70048 0.47581 0.65945
 H162 H 0.71548 0.53055 0.57862
 H163 H 0.74097 0.52932 0.52640
 H164 H 0.76109 0.47343 0.52596
 H165 H 0.78724 0.47282 0.57689
 H166 H 0.80016 0.52608 0.66342
 H167 H 0.77453 0.52669 0.60970
 H168 H 0.68589 0.47307 0.42293
 C169 C 0.50123 0.25115 0.53048
 C170 C 0.50003 0.25070 0.47199
 C171 C 0.50060 0.26692 0.43921
 C172 C 0.49819 0.23415 0.43788
 C173 C 0.50303 0.23620 0.56372
 C174 C 0.50039 0.26653 0.56409
 C175 C 0.48538 0.26342 0.40203
 C176 C 0.48541 0.27868 0.37275
 C177 C 0.50081 0.29770 0.37957
 C178 C 0.51630 0.30110 0.41568
 C179 C 0.51620 0.28583 0.44519
 C180 C 0.48397 0.21507 0.45080
 C181 C 0.48321 0.19961 0.42061
 C182 C 0.49640 0.20293 0.37609
 C183 C 0.51006 0.22211 0.36167
 C184 C 0.51094 0.23754 0.39225
 C185 C 0.51670 0.23084 0.54890
 C186 C 0.51737 0.21594 0.57822
 C187 C 0.50481 0.20638 0.62467
 C188 C 0.49179 0.21263 0.64101
 C189 C 0.49087 0.22723 0.61075
 C190 C 0.51494 0.27756 0.60378
 C191 C 0.51455 0.29238 0.63444
 C192 C 0.49948 0.29659 0.62642
 C193 C 0.48464 0.28494 0.58716
 C194 C 0.48505 0.27008 0.55692
 H195 H 0.47329 0.24890 0.39658
 H196 H 0.47343 0.27561 0.34456
 H197 H 0.52830 0.31561 0.42199
 H198 H 0.52821 0.28877 0.47315
 H199 H 0.47372 0.21215 0.48504
 H200 H 0.47258 0.18504 0.43312
 H201 H 0.52185 0.25215 0.38106
 H202 H 0.52677 0.23807 0.51415
 H203 H 0.52828 0.21246 0.56535
 H204 H 0.48143 0.20559 0.67514
 H205 H 0.48024 0.23116 0.62318
 H206 H 0.52675 0.27480 0.61072
 H207 H 0.52589 0.30001 0.66565
 H208 H 0.47298 0.28762 0.57726
 H209 H 0.47346 0.26149 0.52712
 H210 H 0.52012 0.22521 0.32677
 C211 C 0.74985 0.24874 0.53075
 C212 C 0.75002 0.24842 0.47228
 C213 C 0.73467 0.23206 0.43887
 C214 C 0.76559 0.26453 0.43901
 C215 C 0.76629 0.26395 0.56404
 C216 C 0.73343 0.23370 0.56434
 C217 C 0.72973 0.21289 0.45048
 C218 C 0.71465 0.19760 0.42067
 C219 C 0.70445 0.20117 0.37773
 C220 C 0.70995 0.22045 0.36476
 C221 C 0.72490 0.23571 0.39501
 C222 C 0.77681 0.26081 0.40055
 C223 C 0.79196 0.27596 0.37059
 C224 C 0.79597 0.29507 0.37802
 C225 C 0.78437 0.29868 0.41551
 C226 C 0.76930 0.28354 0.44572
 C227 C 0.76310 0.27518 0.60368
 C228 C 0.77847 0.28967 0.63486
 C229 C 0.79758 0.29325 0.62768
 C230 C 0.80045 0.28147 0.58816
 C231 C 0.78503 0.26703 0.55703
 C232 C 0.71450 0.23002 0.55545
 C233 C 0.69906 0.21512 0.58527
 C234 C 0.70230 0.20369 0.62454
 C235 C 0.72134 0.20780 0.63449
 C236 C 0.73677 0.22275 0.60490
 H237 H 0.73738 0.20975 0.48321
 H238 H 0.71074 0.18297 0.43212
 H239 H 0.70272 0.22375 0.33110
 H240 H 0.72864 0.25040 0.38483
 H241 H 0.77405 0.24621 0.39456
 H242 H 0.80049 0.27273 0.34137
 H243 H 0.76061 0.28664 0.47470
 H244 H 0.74870 0.27301 0.60959
 H245 H 0.77522 0.29849 0.66260
 H246 H 0.81444 0.28270 0.58233
 H247 H 0.78769 0.25812 0.52769
 H248 H 0.71169 0.23850 0.52481
 H249 H 0.68453 0.21221 0.57661
 H250 H 0.72428 0.19942 0.66516
 H251 H 0.75129 0.22548 0.61260
 H252 H 0.78720 0.31327 0.42231
 O253 O 1.02648 0.54358 0.09958
 O254 O 1.04786 0.53826 0.04845
 C255 C 1.04391 0.54772 0.08609
 O256 O 0.97264 0.45681 0.10619
 O257 O 0.95143 0.46144 0.05162
 C258 C 0.95524 0.45230 0.09073
 O259 O 1.02694 0.48592 0.11213
 O260 O 1.04807 0.51025 0.05283
 C261 C 1.04430 0.49848 0.09541
 O262 O 0.97232 0.51772 0.09245
 O263 O 0.95123 0.48997 0.04455
 C264 C 0.95496 0.50418 0.07893
 Zr265 Zr 0.99953 0.52152 0.06778
 O266 O 0.99748 0.52300 0.15796
 O267 O 1.00037 0.54813 0.05599
 Zr268 Zr 0.99978 0.47945 0.07733
 O269 O 0.99747 0.47999 0.16771
 O270 O 1.00214 0.45428 0.08272
 O271 O 1.01690 0.50939 0.08394
 O272 O 0.98289 0.49222 0.08298
 O273 O 0.97248 0.51438 -0.10471
 O274 O 0.95131 0.48820 -0.05097
 C275 C 0.95510 0.50128 -0.08968
 O276 O 1.02686 0.48185 -0.09816
 O277 O 1.04806 0.50866 -0.04688
 C278 C 1.04423 0.49524 -0.08440
 O279 O 0.97274 0.45334 -0.09302
 O280 O 0.95143 0.45938 -0.04433
 C281 C 0.95532 0.44917 -0.07924
 O282 O 1.02684 0.53989 -0.11081
 O283 O 1.04801 0.53675 -0.05152
 C284 C 1.04421 0.54475 -0.09406
 Zr285 Zr 0.99970 0.51893 -0.07644
 O286 O 0.99747 0.51612 -0.16685
 O287 O 1.00150 0.54621 -0.08171
 Zr288 Zr 0.99982 0.47681 -0.06731
 O289 O 0.99773 0.47404 -0.15774
 O290 O 1.00205 0.45158 -0.06079
 Zr291 Zr 1.02862 0.51373 0.00058
 Zr292 Zr 0.97098 0.48463 0.00011
 O293 O 0.98298 0.48923 -0.08262
 O294 O 1.01704 0.50637 -0.08301
 O295 O 0.98232 0.51470 -0.00512
 O296 O 1.01665 0.48357 0.00574
 O297 O 1.01653 0.53178 -0.00473
 O298 O 0.98256 0.46611 0.00561
 H299 H 0.97418 0.48850 0.11663
 H300 H 1.02541 0.47818 0.00783
 H301 H 0.97424 0.48424 -0.11624
 H302 H 1.02524 0.54597 -0.00666
 H303 H 0.99132 0.44402 0.06046
 H304 H 0.99099 0.44207 -0.03763
 H305 H 1.00833 0.48612 -0.17418
 H306 H 1.00834 0.51457 -0.18045
 H307 H 0.99236 0.54624 -0.05313
 H308 H 1.00018 0.55300 0.09494
 H309 H 1.00715 0.52022 0.17505
 H310 H 1.00827 0.49244 0.18145
 O311 O 0.54314 0.51638 0.10463
 O312 O 0.53847 0.49051 0.05003
 C313 C 0.54736 0.50323 0.08998
 O314 O 0.45624 0.48413 0.09841
 O315 O 0.46194 0.51083 0.04650
 C316 C 0.45208 0.49729 0.08343
 O317 O 0.48478 0.45852 0.10559
 O318 O 0.51041 0.46287 0.05066
 C319 C 0.49778 0.45413 0.09087
 O320 O 0.51766 0.54526 0.09888
 O321 O 0.49082 0.53953 0.04754
 C322 C 0.50443 0.54938 0.08438
 Zr323 Zr 0.52178 0.52222 0.07201
 O324 O 0.52077 0.52347 0.16257
 O325 O 0.54936 0.54753 0.07142
 Zr326 Zr 0.47932 0.47997 0.07214
 O327 O 0.47817 0.48123 0.16267
 O328 O 0.45395 0.45244 0.07186
 O329 O 0.50911 0.49246 0.08358
 O330 O 0.49220 0.50951 0.08236
 O331 O 0.51758 0.54498 -0.10058
 O332 O 0.49108 0.53977 -0.04849
 C333 C 0.50459 0.54939 -0.08576
 O334 O 0.48503 0.45816 -0.10436
 O335 O 0.51089 0.46288 -0.04949
 C336 C 0.49814 0.45391 -0.08933
 O337 O 0.45636 0.48388 -0.09999
 O338 O 0.46204 0.51075 -0.04895
 C339 C 0.45222 0.49711 -0.08573
 O340 O 0.54300 0.51631 -0.10593
 O341 O 0.53868 0.49090 -0.04995
 C342 C 0.54743 0.50340 -0.09049
 Zr343 Zr 0.52171 0.52204 -0.07290
 O344 O 0.52081 0.52325 -0.16350
 O345 O 0.54930 0.54734 -0.07191
 Zr346 Zr 0.47934 0.47970 -0.07268
 O347 O 0.47826 0.48065 -0.16332
 O348 O 0.45395 0.45219 -0.07224
 Zr349 Zr 0.51488 0.48657 0.00002
 Zr350 Zr 0.48627 0.51541 -0.00082
 O351 O 0.49217 0.50926 -0.08363
 O352 O 0.50911 0.49224 -0.08385
 O353 O 0.51646 0.53408 -0.00067
 O354 O 0.48466 0.46836 0.00003
 O355 O 0.53319 0.51676 -0.00029
 O356 O 0.46747 0.48522 -0.00056
 H357 H 0.48780 0.51388 0.11593
 H358 H 0.47921 0.45417 0.00024
 H359 H 0.48783 0.51362 -0.11738
 H360 H 0.54737 0.52213 -0.00025
 H361 H 0.44415 0.45346 0.04855
 H362 H 0.44412 0.45331 -0.04946
 H363 H 0.49036 0.48179 -0.17829
 H364 H 0.51853 0.51071 -0.17846
 H365 H 0.54814 0.55730 -0.04996
 H366 H 0.54829 0.55735 0.04842
 H367 H 0.51926 0.51125 0.17781
 H368 H 0.49046 0.48289 0.17791
 O369 O 0.48231 0.02667 0.10535
 O370 O 0.50824 0.04787 0.05118
 C371 C 0.49547 0.04404 0.09093
 O372 O 0.51376 -0.02823 0.09886
 O373 O 0.48706 -0.04908 0.04636
 C374 C 0.50054 -0.04551 0.08355
 O375 O 0.54005 0.02614 0.10595
 O376 O 0.53607 0.04780 0.05150
 C377 C 0.54469 0.04365 0.09152
 O378 O 0.45346 -0.02713 0.09920
 O379 O 0.45842 -0.04841 0.04621
 C380 C 0.44896 -0.04452 0.08404
 Zr381 Zr 0.47627 -0.00019 0.07046
 O382 O 0.47313 -0.00087 0.16062
 O383 O 0.45052 0.00075 0.05907
 Zr384 Zr 0.51833 -0.00085 0.07292
 O385 O 0.51670 -0.00311 0.16348
 O386 O 0.54564 0.00089 0.07474
 O387 O 0.50604 0.01658 0.08374
 O388 O 0.48870 -0.01729 0.08191
 O389 O 0.45444 -0.02668 -0.10378
 O390 O 0.45863 -0.04834 -0.04960
 C391 C 0.44965 -0.04413 -0.08825
 O392 O 0.54098 0.02697 -0.10285
 O393 O 0.53649 0.04823 -0.04794
 C394 C 0.54539 0.04438 -0.08774
 O395 O 0.51471 -0.02752 -0.09949
 O396 O 0.48746 -0.04864 -0.04974
 C397 C 0.50122 -0.04489 -0.08592
 O398 O 0.48372 0.02757 -0.10764
 O399 O 0.50873 0.04827 -0.04947
 C400 C 0.49665 0.04480 -0.09106
 Zr401 Zr 0.47713 0.00030 -0.07391
 O402 O 0.47583 -0.00142 -0.16453
 O403 O 0.45186 0.00258 -0.07194
 Zr404 Zr 0.51914 -0.00031 -0.07182
 O405 O 0.51862 -0.00219 -0.16248
 O406 O 0.54650 0.00151 -0.07020
 Zr407 Zr 0.51253 0.02852 0.00053
 Zr408 Zr 0.48300 -0.02903 -0.00132
 O409 O 0.48962 -0.01673 -0.08390
 O410 O 0.50703 0.01723 -0.08356
 O411 O 0.46460 -0.01725 -0.00231
 O412 O 0.53041 0.01619 0.00122
 O413 O 0.48241 0.01707 -0.00124
 O414 O 0.51315 -0.01789 0.00012
 H415 H 0.48419 -0.02613 0.11533
 H416 H 0.54463 0.02481 0.00182
 H417 H 0.48539 -0.02529 -0.11798
 H418 H 0.47730 0.02609 -0.00143
 H419 H 0.54478 -0.00954 0.04993
 H420 H 0.54510 -0.00965 -0.04795
 H421 H 0.51783 0.00894 -0.17770
 H422 H 0.48889 0.00778 -0.17910
 H423 H 0.44203 -0.00848 -0.04941
 H424 H 0.44579 0.00102 0.09812
 H425 H 0.48302 -0.00346 0.17689
 H426 H 0.51574 0.00799 0.17825
 C427 C 1.15718 0.50303 0.29373
 C428 C 1.16241 0.51018 0.34965
 C429 C 1.17820 0.51053 0.37677
 C430 C 1.18908 0.50325 0.34931
 C431 C 1.18351 0.49609 0.29269
 C432 C 1.16800 0.49618 0.26539
 C433 C 1.14047 0.50263 0.26500
 N434 N 1.13918 0.50220 0.20688
 N435 N 1.12412 0.50174 0.18086
 C436 C 1.10962 0.50150 0.21188
 N437 N 1.11086 0.50185 0.27004
 N438 N 1.12602 0.50249 0.29607
 C439 C 1.09288 0.50087 0.18269
 C440 C 1.07506 0.49374 0.21103
 C441 C 1.05917 0.49277 0.18264
 C442 C 1.06092 0.49930 0.12582
 C443 C 1.07881 0.50666 0.09782
 C444 C 1.09456 0.50727 0.12576
 H445 H 1.15428 0.51554 0.37265
 H446 H 1.18087 0.51550 0.42072
 H447 H 1.19158 0.49122 0.26740
 H448 H 1.16438 0.49070 0.22196
 H449 H 1.07334 0.48864 0.25486
 H450 H 1.04557 0.48711 0.20530
 H451 H 1.08058 0.51171 0.05390
 H452 H 1.10811 0.51292 0.10289
 C453 C 0.50273 0.65890 0.28564
 C454 C 0.48546 0.65945 0.28998
 C455 C 0.48502 0.67443 0.31955
 C456 C 0.50187 0.68927 0.34507
 C457 C 0.51914 0.68878 0.34064
 C458 C 0.51956 0.67373 0.31141
 C459 C 0.50319 0.64294 0.25464
 N460 N 0.51919 0.64111 0.25615
 N461 N 0.51957 0.62671 0.22862
 C462 C 0.50398 0.61355 0.19825
 N463 N 0.48800 0.61541 0.19661
 N464 N 0.48761 0.62978 0.22426
 C465 C 0.50433 0.59740 0.16809
 C466 C 0.48907 0.58508 0.13160
 C467 C 0.48923 0.56966 0.10393
 C468 C 0.50460 0.56611 0.11235
 C469 C 0.51993 0.57851 0.14851
 C470 C 0.51983 0.59400 0.17592
 H471 H 0.47222 0.64826 0.27069
 H472 H 0.47155 0.67455 0.32185
 H473 H 0.53229 0.69991 0.36047
 H474 H 0.53310 0.67377 0.30897
 H475 H 0.47694 0.58730 0.12441
 H476 H 0.47718 0.56041 0.07637
 H477 H 0.53203 0.57623 0.15583
 H478 H 0.53182 0.60320 0.20373
 C479 C 0.34059 -0.15552 0.28803
 C480 C 0.34344 -0.15983 0.34421
 C481 C 0.32864 -0.17549 0.37351
 C482 C 0.31030 -0.18703 0.34796
 C483 C 0.30754 -0.18237 0.29157
 C484 C 0.32256 -0.16701 0.26183
 C485 C 0.35635 -0.13904 0.25709
 N486 N 0.35751 -0.13917 0.19897
 N487 N 0.37186 -0.12436 0.17122
 C488 C 0.38547 -0.10875 0.20047
 N489 N 0.38424 -0.10858 0.25855
 N490 N 0.37002 -0.12347 0.28632
 C491 C 0.40140 -0.09230 0.16991
 C492 C 0.41010 -0.07364 0.19349
 C493 C 0.42528 -0.05807 0.16498
 C494 C 0.43236 -0.06091 0.11290
 C495 C 0.42375 -0.07964 0.08960
 C496 C 0.40824 -0.09513 0.11743
 H497 H 0.35722 -0.15116 0.36547
 H498 H 0.33145 -0.17792 0.41724
 H499 H 0.29404 -0.19103 0.26904
 H500 H 0.32000 -0.16399 0.21842
 H501 H 0.40505 -0.07106 0.23382
 H502 H 0.43170 -0.04386 0.18430
 H503 H 0.42900 -0.08233 0.04987
 H504 H 0.40188 -0.10940 0.09856
 C505 C 0.84464 0.50465 0.27863
 C506 C 0.84544 0.52200 0.29445
 C507 C 0.83023 0.52174 0.32485
 C508 C 0.81393 0.50412 0.34052
 C509 C 0.81317 0.48677 0.32476
 C510 C 0.82829 0.48704 0.29400
 C511 C 0.86080 0.50488 0.24673
 N512 N 0.85885 0.48838 0.22379
 N513 N 0.87343 0.48852 0.19574
 C514 C 0.89061 0.50515 0.18956
 N515 N 0.89255 0.52166 0.21243
 N516 N 0.87794 0.52154 0.24031
 C517 C 0.90696 0.50518 0.15952
 C518 C 0.92566 0.52141 0.16215
 C519 C 0.94121 0.52116 0.13559
 C520 C 0.93839 0.50474 0.10534
 C521 C 0.91964 0.48864 0.10181
 C522 C 0.90413 0.48883 0.12879
 H523 H 0.85776 0.53583 0.28299
 H524 H 0.83117 0.53536 0.33549
 H525 H 0.80100 0.47295 0.33698
 H526 H 0.82726 0.47340 0.28291
 H527 H 0.92836 0.53424 0.18549
 H528 H 0.95545 0.53383 0.13897
 H529 H 0.91696 0.47574 0.07896
 H530 H 0.88991 0.47611 0.12569
 C531 C 0.50013 0.34505 0.29329
 C532 C 0.51713 0.34393 0.29524
 C533 C 0.51737 0.32859 0.32328
 C534 C 0.50059 0.31396 0.34964
 C535 C 0.48358 0.31503 0.34756
 C536 C 0.48336 0.33042 0.31987
 C537 C 0.49986 0.36134 0.26373
 N538 N 0.48418 0.36366 0.26732
 N539 N 0.48392 0.37828 0.24072
 C540 C 0.49932 0.39118 0.20925
 N541 N 0.51500 0.38885 0.20563
 N542 N 0.51527 0.37427 0.23236
 C543 C 0.49898 0.40737 0.17930
 C544 C 0.51383 0.41923 0.14108
 C545 C 0.51342 0.43436 0.11237
 C546 C 0.49820 0.43809 0.12148
 C547 C 0.48340 0.42632 0.15997
 C548 C 0.48375 0.41110 0.18839
 H549 H 0.53030 0.35493 0.27524
 H550 H 0.53063 0.32804 0.32378
 H551 H 0.47049 0.30408 0.36810
 H552 H 0.47002 0.33082 0.31923
 H553 H 0.52577 0.41678 0.13297
 H554 H 0.52508 0.44316 0.08311
 H555 H 0.47145 0.42876 0.16794
 H556 H 0.47209 0.40228 0.21763
 C557 C 0.65635 0.15375 0.29074
 C558 C 0.65593 0.17067 0.30419
 C559 C 0.67150 0.18600 0.33232
 C560 C 0.68797 0.18489 0.34723
 C561 C 0.68844 0.16801 0.33336
 C562 C 0.67278 0.15259 0.30567
 C563 C 0.63971 0.13740 0.26150
 N564 N 0.63830 0.11977 0.25834
 N565 N 0.62330 0.10506 0.23230
 C566 C 0.60912 0.10737 0.20812
 N567 N 0.61056 0.12501 0.21117
 N568 N 0.62551 0.13970 0.23743
 C569 C 0.59249 0.09103 0.17884
 C570 C 0.57999 0.09425 0.14410
 C571 C 0.56449 0.07888 0.11578
 C572 C 0.56099 0.05990 0.12205
 C573 C 0.57338 0.05666 0.15726
 C574 C 0.58900 0.07206 0.18509
 H575 H 0.64344 0.17199 0.29368
 H576 H 0.67048 0.19862 0.34327
 H577 H 0.70100 0.16677 0.34333
 H578 H 0.67364 0.13983 0.29556
 H579 H 0.58228 0.10868 0.13824
 H580 H 0.55523 0.08189 0.08903
 H581 H 0.57114 0.04224 0.16289
 H582 H 0.59830 0.06906 0.21169
 C583 C 0.50419 0.15892 -0.29011
 C584 C 0.49917 0.17106 -0.26063
 C585 C 0.49938 0.18664 -0.28847
 C586 C 0.50500 0.19081 -0.34655
 C587 C 0.51047 0.17874 -0.37540
 C588 C 0.50985 0.16292 -0.34774
 C589 C 0.50334 0.14206 -0.26095
 N590 N 0.50163 0.12684 -0.29166
 N591 N 0.50054 0.11154 -0.26529
 C592 C 0.50126 0.11090 -0.20716
 N593 N 0.50307 0.12616 -0.17649
 N594 N 0.50401 0.14139 -0.20282
 C595 C 0.50008 0.09394 -0.17771
 C596 C 0.50713 0.09565 -0.12154
 C597 C 0.50611 0.07970 -0.09365
 C598 C 0.49769 0.06160 -0.12094
 C599 C 0.49047 0.05982 -0.17694
 C600 C 0.49182 0.07588 -0.20526
 H601 H 0.49483 0.16839 -0.21603
 H602 H 0.49574 0.19574 -0.26335
 H603 H 0.51434 0.18079 -0.42035
 H604 H 0.51381 0.15380 -0.37160
 H605 H 0.51365 0.10938 -0.09928
 H606 H 0.51175 0.08150 -0.05041
 H607 H 0.48400 0.04608 -0.19912
 H608 H 0.48619 0.07411 -0.24847
 C609 C 0.65794 0.50307 -0.29036
 C610 C 0.66663 0.49307 -0.26728
 C611 C 0.68216 0.49315 -0.29512
 C612 C 0.68954 0.50324 -0.34729
 C613 C 0.68066 0.51330 -0.36995
 C614 C 0.66518 0.51321 -0.34193
 C615 C 0.64142 0.50293 -0.26091
 N616 N 0.63401 0.51385 -0.28076
 N617 N 0.61919 0.51375 -0.25436
 C618 C 0.61110 0.50270 -0.20701
 N619 N 0.61849 0.49175 -0.18719
 N620 N 0.63333 0.49187 -0.21355
 C621 C 0.59466 0.50269 -0.17750
 C622 C 0.58534 0.49020 -0.13112
 C623 C 0.56995 0.49034 -0.10309
 C624 C 0.56357 0.50304 -0.12064
 C625 C 0.57285 0.51548 -0.16715
 C626 C 0.58818 0.51528 -0.19528
 H627 H 0.66157 0.48527 -0.22722
 H628 H 0.68869 0.48580 -0.27394
 H629 H 0.68496 0.52067 -0.41077
 H630 H 0.65871 0.52094 -0.36130
 H631 H 0.58992 0.48027 -0.11636
 H632 H 0.56314 0.48055 -0.06745
 H633 H 0.56829 0.52542 -0.18193
 H634 H 0.59501 0.52511 -0.23082
 C635 C 0.84479 0.33831 -0.27951
 C636 C 0.82585 0.32997 -0.25839
 C637 C 0.81040 0.31515 -0.28850
 C638 C 0.81334 0.30818 -0.34113
 C639 C 0.83252 0.31670 -0.36179
 C640 C 0.84793 0.33146 -0.33145
 C641 C 0.86115 0.35419 -0.24790
 N642 N 0.87966 0.36099 -0.26537
 N643 N 0.89436 0.37540 -0.23750
 C644 C 0.89121 0.38368 -0.19098
 N645 N 0.87270 0.37686 -0.17341
 N646 N 0.85799 0.36240 -0.20123
 C647 C 0.90759 0.40001 -0.16082
 C648 C 0.90427 0.41009 -0.11699
 C649 C 0.91975 0.42590 -0.09002
 C650 C 0.93891 0.43195 -0.10609
 C651 C 0.94222 0.42166 -0.14922
 C652 C 0.92676 0.40592 -0.17633
 H653 H 0.82292 0.33475 -0.21811
 H654 H 0.79630 0.30882 -0.26873
 H655 H 0.83583 0.31272 -0.40275
 H656 H 0.86232 0.33770 -0.34937
 H657 H 0.88970 0.40593 -0.10393
 H658 H 0.91667 0.43346 -0.05685
 H659 H 0.95678 0.42591 -0.16271
 H660 H 0.92986 0.39847 -0.20973
 C661 C 0.49999 -0.15595 -0.28686
 C662 C 0.51702 -0.15391 -0.31110
 C663 C 0.51683 -0.16934 -0.33979
 C664 C 0.49960 -0.18714 -0.34520
 C665 C 0.48255 -0.18919 -0.32132
 C666 C 0.48275 -0.17378 -0.29226
 C667 C 0.50026 -0.13956 -0.25625
 N668 N 0.48445 -0.14198 -0.22732
 N669 N 0.48473 -0.12723 -0.19988
 C670 C 0.50081 -0.10942 -0.20028
 N671 N 0.51661 -0.10700 -0.22923
 N672 N 0.51635 -0.12176 -0.25655
 C673 C 0.50108 -0.09295 -0.17019
 C674 C 0.51682 -0.07409 -0.17655
 C675 C 0.51692 -0.05851 -0.14902
 C676 C 0.50133 -0.06143 -0.11420
 C677 C 0.48568 -0.08032 -0.10732
 C678 C 0.48553 -0.09588 -0.13512
 H679 H 0.53055 -0.14039 -0.30784
 H680 H 0.53015 -0.16727 -0.35842
 H681 H 0.46909 -0.20279 -0.32445
 H682 H 0.46937 -0.17586 -0.27417
 H683 H 0.52903 -0.07130 -0.20324
 H684 H 0.52923 -0.04417 -0.15514
 H685 H 0.47342 -0.08310 -0.08088
 H686 H 0.47320 -0.11021 -0.12910
 C687 C 0.34213 0.49767 -0.28758
 C688 C 0.32755 0.48083 -0.31402
 C689 C 0.31242 0.48105 -0.34334
 C690 C 0.31155 0.49813 -0.34718
 C691 C 0.32612 0.51500 -0.32097
 C692 C 0.34122 0.51476 -0.29133
 C693 C 0.35819 0.49742 -0.25648
 N694 N 0.37125 0.51306 -0.22614
 N695 N 0.38572 0.51284 -0.19843
 C696 C 0.38777 0.49698 -0.19996
 N697 N 0.37470 0.48133 -0.23028
 N698 N 0.36021 0.48154 -0.25788
 C699 C 0.40402 0.49682 -0.16975
 C700 C 0.40742 0.48131 -0.17688
 C701 C 0.42298 0.48134 -0.14939
 C702 C 0.43545 0.49684 -0.11386
 C703 C 0.43192 0.51224 -0.10618
 C704 C 0.41642 0.51225 -0.13392
 H705 H 0.32780 0.46743 -0.31205
 H706 H 0.30150 0.46790 -0.36372
 H707 H 0.32571 0.52832 -0.32278
 H708 H 0.35219 0.52799 -0.27150
 H709 H 0.39817 0.46918 -0.20416
 H710 H 0.42525 0.46922 -0.15612
 H711 H 0.44125 0.52443 -0.07919
 H712 H 0.41420 0.52440 -0.12731
 C713 C 1.15750 0.65269 -0.29251
 C714 C 1.16164 0.65132 -0.35021
 C715 C 1.17746 0.66674 -0.37730
 C716 C 1.18939 0.68420 -0.34777
 C717 C 1.18509 0.68536 -0.28963
 C718 C 1.16951 0.66979 -0.26240
 C719 C 1.14070 0.63646 -0.26380
 N720 N 1.13994 0.63506 -0.20570
 N721 N 1.12479 0.62056 -0.17967
 C722 C 1.10969 0.60693 -0.21061
 N723 N 1.11041 0.60836 -0.26874
 N724 N 1.12564 0.62279 -0.29481
 C725 C 1.09287 0.59091 -0.18135
 C726 C 1.07487 0.58063 -0.20910
 C727 C 1.05895 0.56573 -0.18069
 C728 C 1.06083 0.56060 -0.12440
 C729 C 1.07889 0.57076 -0.09696
 C730 C 1.09467 0.58584 -0.12493
 H731 H 1.15263 0.63830 -0.37455
 H732 H 1.17962 0.66513 -0.42232
 H733 H 1.19409 0.69803 -0.26400
 H734 H 1.16675 0.67125 -0.21773
 H735 H 1.07303 0.58427 -0.25251
 H736 H 1.04522 0.55809 -0.20295
 H737 H 1.08078 0.56721 -0.05347
 H738 H 1.10836 0.59342 -0.10248
 C739 C 0.84355 0.49983 -0.28832
 C740 C 0.82739 0.48234 -0.30529
 C741 C 0.81195 0.48219 -0.33397
 C742 C 0.81204 0.49957 -0.34595
 C743 C 0.82834 0.51707 -0.32818
 C744 C 0.84385 0.51717 -0.30018
 C745 C 0.86004 0.50002 -0.25860
 N746 N 0.87712 0.51676 -0.25232
 N747 N 0.89199 0.51696 -0.22583
 C748 C 0.89039 0.50045 -0.20425
 N749 N 0.87330 0.48371 -0.21040
 N750 N 0.85845 0.48349 -0.23713
 C751 C 0.90694 0.50069 -0.17476
 C752 C 0.90428 0.48468 -0.14254
 C753 C 0.91988 0.48493 -0.11462
 C754 C 0.93856 0.50113 -0.11880
 C755 C 0.94124 0.51711 -0.15119
 C756 C 0.92559 0.51693 -0.17860
 H757 H 0.82666 0.46869 -0.29658
 H758 H 0.79965 0.46827 -0.34453
 H759 H 0.82972 0.53093 -0.33789
 H760 H 0.85612 0.53093 -0.28790
 H761 H 0.89010 0.47196 -0.13856
 H762 H 0.91733 0.47234 -0.09019
 H763 H 0.95543 0.52983 -0.15509
 H764 H 0.92816 0.52949 -0.20320
 C765 C 0.49915 0.34336 -0.28597
 C766 C 0.48191 0.32775 -0.30681
 C767 C 0.48196 0.31236 -0.33496
 C768 C 0.49933 0.31206 -0.34366
 C769 C 0.51658 0.32785 -0.32206
 C770 C 0.51645 0.34317 -0.29365
 C771 C 0.49906 0.35978 -0.25675
 N772 N 0.51514 0.37364 -0.22978
 N773 N 0.51506 0.38843 -0.20373
 C774 C 0.49893 0.39004 -0.20373
 N775 N 0.48287 0.37620 -0.23075
 N776 N 0.48293 0.36138 -0.25664
 C777 C 0.49883 0.40650 -0.17484
 C778 C 0.48310 0.40958 -0.18165
 C779 C 0.48294 0.42504 -0.15428
 C780 C 0.49844 0.43771 -0.11909
 C781 C 0.51419 0.43465 -0.11231
 C782 C 0.51441 0.41927 -0.14003
 H783 H 0.46825 0.32729 -0.30091
 H784 H 0.46810 0.30044 -0.34784
 H785 H 0.53051 0.32905 -0.32895
 H786 H 0.53005 0.35507 -0.27860
 H787 H 0.47088 0.40006 -0.20828
 H788 H 0.47057 0.42696 -0.16033
 H789 H 0.52642 0.44420 -0.08572
 H790 H 0.52676 0.41732 -0.13382
 C791 C 0.65467 0.15581 -0.28961
 C792 C 0.66980 0.15389 -0.31322
 C793 C 0.68526 0.16945 -0.34084
 C794 C 0.68589 0.18727 -0.34582
 C795 C 0.67074 0.18920 -0.32259
 C796 C 0.65533 0.17366 -0.29456
 C797 C 0.63836 0.13929 -0.25998
 N798 N 0.62494 0.14161 -0.23093
 N799 N 0.61036 0.12676 -0.20405
 C800 C 0.60855 0.10894 -0.20520
 N801 N 0.62195 0.10661 -0.23436
 N802 N 0.63655 0.12147 -0.26110
 C803 C 0.59236 0.09241 -0.17520
 C804 C 0.58917 0.07357 -0.18229
 C805 C 0.57391 0.05797 -0.15404
 C806 C 0.56157 0.06087 -0.11772
 C807 C 0.56478 0.07972 -0.11053
 C808 C 0.57996 0.09529 -0.13908
 H809 H 0.66977 0.14036 -0.31024
 H810 H 0.69662 0.16748 -0.35902
 H811 H 0.67095 0.20282 -0.32545
 H812 H 0.64391 0.17564 -0.27692
 H813 H 0.59842 0.07082 -0.20989
 H814 H 0.57186 0.04365 -0.16047
 H815 H 0.55548 0.08246 -0.08309
 H816 H 0.58200 0.10961 -0.13258
 C817 C 1.15449 0.49451 -0.28378
 C818 C 1.17129 0.51200 -0.29718
 C819 C 1.18652 0.51202 -0.32660
 C820 C 1.18540 0.49456 -0.34295
 C821 C 1.16862 0.47706 -0.32932
 C822 C 1.15332 0.47704 -0.30023
 C823 C 1.13825 0.49454 -0.25321
 N824 N 1.12082 0.47811 -0.24866
 N825 N 1.10617 0.47819 -0.22173
 C826 C 1.10835 0.49469 -0.19801
 N827 N 1.12580 0.51110 -0.20238
 N828 N 1.14043 0.51104 -0.22949
 C829 C 1.09199 0.49481 -0.16848
 C830 C 1.09496 0.51092 -0.13615
 C831 C 1.07950 0.51102 -0.10855
 C832 C 1.06068 0.49509 -0.11308
 C833 C 1.05771 0.47900 -0.14547
 C834 C 1.07319 0.47882 -0.17264
 H835 H 1.17262 0.52572 -0.28555
 H836 H 1.19906 0.52577 -0.33735
 H837 H 1.16739 0.46335 -0.34054
 H838 H 1.14063 0.46331 -0.29030
 H839 H 1.10927 0.52345 -0.13196
 H840 H 1.08228 0.52368 -0.08406
 H841 H 1.04341 0.46645 -0.14968
 H842 H 1.07038 0.46620 -0.19730
 C843 C 0.50563 0.66075 -0.28445
 C844 C 0.49532 0.66926 -0.26248
 C845 C 0.49498 0.68436 -0.29169
 C846 C 0.50493 0.69147 -0.34420
 C847 C 0.51535 0.68281 -0.36566
 C848 C 0.51569 0.66775 -0.33625
 C849 C 0.50578 0.64456 -0.25381
 N850 N 0.51701 0.63737 -0.27257
 N851 N 0.51703 0.62272 -0.24545
 C852 C 0.50581 0.61460 -0.19843
 N853 N 0.49459 0.62180 -0.17960
 N854 N 0.49460 0.63648 -0.20668
 C855 C 0.50569 0.59812 -0.16877
 C856 C 0.49277 0.58851 -0.12345
 C857 C 0.49246 0.57276 -0.09633
 C858 C 0.50511 0.56629 -0.11373
 C859 C 0.51813 0.57602 -0.15866
 C860 C 0.51839 0.59171 -0.18591
 H861 H 0.48758 0.66438 -0.22227
 H862 H 0.48740 0.69078 -0.27134
 H863 H 0.52266 0.68691 -0.40658
 H864 H 0.52364 0.66141 -0.35478
 H865 H 0.48278 0.59305 -0.10914
 H866 H 0.48227 0.56563 -0.06175
 H867 H 0.52807 0.57144 -0.17322
 H868 H 0.52856 0.59879 -0.22053
 C869 C 0.34026 -0.15552 -0.28593
 C870 C 0.34334 -0.16948 -0.31245
 C871 C 0.32816 -0.18538 -0.33994
 C872 C 0.30957 -0.18742 -0.34335
 C873 C 0.30673 -0.17311 -0.31707
 C874 C 0.32181 -0.15757 -0.28795
 C875 C 0.35631 -0.13884 -0.25659
 N876 N 0.35309 -0.13144 -0.20814
 N877 N 0.36764 -0.11648 -0.18142
 C878 C 0.38590 -0.10819 -0.20261
 N879 N 0.38908 -0.11551 -0.25128
 N880 N 0.37458 -0.13063 -0.27755
 C881 C 0.40202 -0.09160 -0.17325
 C882 C 0.41715 -0.07691 -0.20516
 C883 C 0.43245 -0.06118 -0.17738
 C884 C 0.43314 -0.06024 -0.11731
 C885 C 0.41814 -0.07495 -0.08531
 C886 C 0.40252 -0.09038 -0.11309
 H887 H 0.35749 -0.16818 -0.31148
 H888 H 0.33137 -0.19553 -0.36078
 H889 H 0.29268 -0.17421 -0.31677
 H890 H 0.31910 -0.14696 -0.26767
 H891 H 0.41702 -0.07750 -0.25159
 H892 H 0.44397 -0.04995 -0.20269
 H893 H 0.41839 -0.07433 -0.03892
 H894 H 0.39105 -0.10157 -0.08760
 C895 C 0.50215 -0.15580 0.27986
 C896 C 0.51973 -0.15466 0.29494
 C897 C 0.51990 -0.16974 0.32481
 C898 C 0.50250 -0.18626 0.34070
 C899 C 0.48492 -0.18740 0.32555
 C900 C 0.48475 -0.17239 0.29530
 C901 C 0.50198 -0.13970 0.24883
 N902 N 0.48533 -0.14186 0.22631
 N903 N 0.48515 -0.12729 0.19910
 C904 C 0.50161 -0.10993 0.19344
 N905 N 0.51826 -0.10779 0.21588
 N906 N 0.51845 -0.12237 0.24289
 C907 C 0.50139 -0.09356 0.16428
 C908 C 0.51743 -0.07479 0.16814
 C909 C 0.51714 -0.05925 0.14188
 C910 C 0.50086 -0.06210 0.11066
 C911 C 0.48489 -0.08090 0.10615
 C912 C 0.48512 -0.09644 0.13292
 H913 H 0.53341 -0.14215 0.28339
 H914 H 0.53369 -0.16852 0.33491
 H915 H 0.47125 -0.19975 0.33793
 H916 H 0.47095 -0.17369 0.28473
 H917 H 0.53019 -0.07204 0.19202
 H918 H 0.52972 -0.04497 0.14597
 H919 H 0.47210 -0.08358 0.08251
 H920 H 0.47254 -0.11072 0.12895
 C921 C 0.34066 0.49698 0.27854
 C922 C 0.34219 0.51449 0.29639
 C923 C 0.32708 0.51459 0.32618
 C924 C 0.30998 0.49721 0.33841
 C925 C 0.30838 0.47972 0.31998
 C926 C 0.32356 0.47960 0.29064
 C927 C 0.35686 0.49686 0.24803
 N928 N 0.35719 0.48016 0.24106
 N929 N 0.37190 0.48011 0.21441
 C930 C 0.38687 0.49673 0.19336
 N931 N 0.38649 0.51341 0.20010
 N932 N 0.37182 0.51348 0.22697
 C933 C 0.40335 0.49672 0.16432
 C934 C 0.41691 0.51298 0.13329
 C935 C 0.43259 0.51307 0.10652
 C936 C 0.43520 0.49698 0.11067
 C937 C 0.42163 0.48071 0.14159
 C938 C 0.40583 0.48054 0.16786
 H939 H 0.35521 0.52813 0.28814
 H940 H 0.32896 0.52831 0.34057
 H941 H 0.29530 0.46608 0.32774
 H942 H 0.32185 0.46587 0.27711
 H943 H 0.41540 0.52566 0.12954
 H944 H 0.44280 0.52586 0.08314
 H945 H 0.42318 0.46805 0.14541
 H946 H 0.39569 0.46780 0.19152
 C947 C 1.15427 0.65889 0.28585
 C948 C 1.17116 0.65832 0.29855
 C949 C 1.18647 0.67358 0.32770
 C950 C 1.18535 0.68988 0.34447
 C951 C 1.16849 0.69050 0.33150
 C952 C 1.15310 0.67516 0.30269
 C953 C 1.13795 0.64257 0.25551
 N954 N 1.12047 0.64147 0.25148
 N955 N 1.10577 0.62669 0.22467
 C956 C 1.10794 0.61243 0.20057
 N957 N 1.12544 0.61357 0.20444
 N958 N 1.14012 0.62830 0.23143
 C959 C 1.09157 0.59593 0.17099
 C960 C 1.09458 0.58288 0.13835
 C961 C 1.07913 0.56730 0.11057
 C962 C 1.06029 0.56431 0.11518
 C963 C 1.05727 0.57732 0.14793
 C964 C 1.07274 0.59300 0.17530
 H965 H 1.17249 0.64595 0.28660
 H966 H 1.19908 0.67245 0.33793
 H967 H 1.16725 0.70295 0.34305
 H968 H 1.14034 0.67613 0.29328
 H969 H 1.10890 0.58473 0.13402
 H970 H 1.08196 0.55751 0.08583
 H971 H 1.04295 0.57547 0.15221
 H972 H 1.06990 0.60274 0.20020
 C973 C 0.49605 0.15512 0.28903
 C974 C 0.51355 0.17210 0.30096
 C975 C 0.51364 0.18755 0.32914
 C976 C 0.49621 0.18650 0.34561
 C977 C 0.47868 0.16955 0.33334
 C978 C 0.47861 0.15401 0.30558
 C979 C 0.49601 0.13866 0.25976
 N980 N 0.47973 0.12102 0.25787
 N981 N 0.47974 0.10620 0.23187
 C982 C 0.49601 0.10839 0.20646
 N983 N 0.51228 0.12604 0.20822
 N984 N 0.51229 0.14085 0.23443
 C985 C 0.49600 0.09192 0.17738
 C986 C 0.51144 0.09493 0.14169
 C987 C 0.51128 0.07940 0.11365
 C988 C 0.49578 0.06048 0.12117
 C989 C 0.48043 0.05745 0.15727
 C990 C 0.48050 0.07300 0.18483
 H991 H 0.52725 0.17338 0.28921
 H992 H 0.52741 0.20022 0.33889
 H993 H 0.46499 0.16835 0.34463
 H994 H 0.46486 0.14119 0.29669
 H995 H 0.52358 0.10932 0.13488
 H996 H 0.52333 0.08225 0.08610
 H997 H 0.46823 0.04308 0.16385
 H998 H 0.46841 0.07016 0.21217
 C999 C 0.65635 0.50070 0.29254
 C1000 C 0.65733 0.48364 0.29527
 C1001 C 0.67270 0.48344 0.32333
 C1002 C 0.68748 0.50032 0.34886
 C1003 C 0.68654 0.51737 0.34604
 C1004 C 0.67113 0.51756 0.31836
 C1005 C 0.64005 0.50095 0.26296
 N1006 N 0.63783 0.51669 0.26616
 N1007 N 0.62323 0.51696 0.23950
 C1008 C 0.61023 0.50152 0.20835
 N1009 N 0.61245 0.48577 0.20511
 N1010 N 0.62703 0.48548 0.23191
 C1011 C 0.59406 0.50189 0.17835
 C1012 C 0.58215 0.48703 0.14015
 C1013 C 0.56704 0.48749 0.11142
 C1014 C 0.56338 0.50276 0.12051
 C1015 C 0.57522 0.51755 0.15898
 C1016 C 0.59041 0.51715 0.18741
 H1017 H 0.64620 0.47040 0.27589
 H1018 H 0.67315 0.47013 0.32446
 H1019 H 0.69762 0.53054 0.36597
 H1020 H 0.67084 0.53095 0.31711
 H1021 H 0.58456 0.47507 0.13207
 H1022 H 0.55820 0.47584 0.08216
 H1023 H 0.57283 0.52954 0.16694
 H1024 H 0.59927 0.52881 0.21664
 C1025 C 0.84373 0.34209 0.28970
 C1026 C 0.84582 0.32733 0.31538
 C1027 C 0.83029 0.31203 0.34368
 C1028 C 0.81235 0.31120 0.34729
 C1029 C 0.81023 0.32594 0.32176
 C1030 C 0.82572 0.34118 0.29309
 C1031 C 0.86023 0.35835 0.25979
 N1032 N 0.85774 0.37138 0.22910
 N1033 N 0.87258 0.38600 0.20235
 C1034 C 0.89058 0.38825 0.20526
 N1035 N 0.89307 0.37523 0.23599
 N1036 N 0.87822 0.36058 0.26261
 C1037 C 0.90713 0.40458 0.17574
 C1038 C 0.92610 0.40836 0.18488
 C1039 C 0.94172 0.42385 0.15741
 C1040 C 0.93872 0.43586 0.11985
 C1041 C 0.91973 0.43201 0.11045
 C1042 C 0.90413 0.41660 0.13821
 H1043 H 0.85947 0.32756 0.31361
 H1044 H 0.83240 0.30097 0.36354
 H1045 H 0.79650 0.32557 0.32345
 H1046 H 0.82359 0.35230 0.27382
 H1047 H 0.92894 0.39942 0.21357
 H1048 H 0.95614 0.42637 0.16551
 H1049 H 0.91688 0.44097 0.08185
 H1050 H 0.88971 0.41409 0.13005
   
