data_POSCAR
  _audit_creation_date              2014-09-24
  _audit_creation_method            'ToBaCCo'
  _symmetry_space_group_name_H-M    'P1'
  _symmetry_Int_Tables_number       1
  _symmetry_cell_setting            triclinic
  loop_
  _symmetry_equiv_pos_as_xyz
 x,y,z
_cell_length_a 47.5182
_cell_length_b 26.3460
_cell_length_c 20.1595
_cell_angle_alpha 89.024600
_cell_angle_beta 90.616900
_cell_angle_gamma 91.168600
loop_
  _atom_site_label
  _atom_site_type_symbol
  _atom_site_fract_x
  _atom_site_fract_y
  _atom_site_fract_z
O1 O 0.76505 0.20511 0.54685
 O2 O 0.71883 0.25548 0.41327
 O3 O 0.76840 0.21687 0.41968
 O4 O 0.71289 0.23749 0.54060
 O5 O 0.72933 0.31527 0.55726
 O6 O 0.78597 0.29375 0.43724
 O7 O 0.73616 0.33253 0.43128
 O8 O 0.78106 0.28302 0.56488
 Cu9 Cu 0.73942 0.22099 0.47886
 Cu10 Cu 0.75978 0.31382 0.49972
 C11 C 0.78139 0.23579 0.57755
 C12 C 0.72001 0.30275 0.39922
 C13 C 0.78673 0.25146 0.40783
 C14 C 0.71129 0.27995 0.56875
 O15 O 0.21185 0.72257 0.43576
 O16 O 0.25708 0.67245 0.56846
 O17 O 0.20735 0.71145 0.56379
 O18 O 0.26355 0.68997 0.44244
 O19 O 0.28033 0.76748 0.45955
 O20 O 0.22493 0.78843 0.58065
 O21 O 0.27452 0.74939 0.58645
 O22 O 0.22831 0.80030 0.45295
 Cu23 Cu 0.23324 0.69147 0.50053
 Cu24 Cu 0.25382 0.78414 0.52121
 C25 C 0.21183 0.76972 0.42246
 C26 C 0.27343 0.70204 0.60033
 C27 C 0.20678 0.75374 0.59321
 C28 C 0.28175 0.72507 0.43116
 O29 O 0.27562 0.25905 -0.57981
 O30 O 0.22722 0.21792 -0.44595
 O31 O 0.27675 0.26278 -0.45168
 O32 O 0.22495 0.21910 -0.57635
 O33 O 0.24370 0.14314 -0.57404
 O34 O 0.29598 0.18715 -0.44993
 O35 O 0.24648 0.14233 -0.44450
 O36 O 0.29411 0.18280 -0.57806
 Cu37 Cu 0.24905 0.24722 -0.51357
 Cu38 Cu 0.27182 0.15621 -0.51125
 C39 C 0.29334 0.22780 -0.60121
 C40 C 0.22883 0.17299 -0.42225
 C41 C 0.29551 0.23276 -0.43049
 C42 C 0.22564 0.17388 -0.59709
 O43 O -0.22889 0.80503 -0.54815
 O44 O -0.28367 0.76671 -0.42632
 O45 O -0.23464 0.81542 -0.42416
 O46 O -0.28112 0.77588 -0.55867
 O47 O -0.26634 0.69706 -0.54975
 O48 O -0.21830 0.73768 -0.41315
 O49 O -0.26648 0.68954 -0.42158
 O50 O -0.21281 0.72707 -0.54199
 Cu51 Cu -0.25924 0.79714 -0.48931
 Cu52 Cu -0.23913 0.70531 -0.48153
 C53 C -0.21109 0.77209 -0.56467
 C54 C -0.28412 0.72142 -0.40282
 C55 C -0.21867 0.78397 -0.39542
 C56 C -0.28232 0.73011 -0.57657
 O57 O -0.03651 0.92804 0.13447
 O58 O -0.06889 0.95490 0.05686
 C59 C -0.06219 0.93230 0.11200
 O60 O 0.03073 1.11959 0.09333
 O61 O 0.06537 1.07381 0.04518
 C62 C 0.05695 1.11019 0.08216
 O63 O -0.04676 1.09556 0.09602
 O64 O -0.07472 1.03460 0.03897
 C65 C -0.07254 1.07403 0.08222
 O66 O 0.04292 0.94008 0.13184
 O67 O 0.07130 0.98836 0.06316
 C68 C 0.06740 0.95765 0.11315
 Zr69 Zr 0.00227 0.95293 0.09104
 O70 O 0.00303 0.95608 0.19577
 O71 O 0.00603 0.87326 0.09733
 Zr72 Zr -0.00602 1.07922 0.06236
 O73 O -0.00565 1.09860 0.16375
 O74 O -0.01241 1.15541 0.03294
 O75 O -0.02665 1.01141 0.08846
 O76 O 0.02201 1.02364 0.09037
 O77 O 0.04611 0.91349 -0.09725
 O78 O 0.07285 0.97580 -0.04752
 C79 C 0.07006 0.93535 -0.08291
 O80 O -0.04456 1.06902 -0.14599
 O81 O -0.07281 1.02238 -0.07516
 C82 C -0.06893 1.05087 -0.12735
 O83 O 0.03329 1.09497 -0.13771
 O84 O 0.06683 1.06189 -0.06733
 C85 C 0.05913 1.08996 -0.11768
 O86 O -0.03153 0.89633 -0.10856
 O87 O -0.06651 0.93970 -0.05797
 C88 C -0.05771 0.90425 -0.09623
 Zr89 Zr 0.00479 0.93447 -0.07310
 O90 O 0.00947 0.92151 -0.17566
 O91 O 0.00745 0.85567 -0.05180
 Zr92 Zr -0.00415 1.06034 -0.10158
 O93 O 0.00013 1.05036 -0.20492
 O94 O -0.01250 1.13833 -0.11705
 Zr95 Zr -0.04231 0.99568 -0.00754
 Zr96 Zr 0.04098 1.01770 -0.00300
 O97 O 0.02463 1.00248 -0.09834
 O98 O -0.02427 0.98925 -0.10186
 O99 O 0.02936 0.94080 0.01258
 O100 O -0.03039 1.07219 -0.02239
 O101 O -0.02044 0.92811 0.00980
 O102 O 0.01952 1.08602 -0.02043
 H103 H 0.03368 1.03108 0.13015
 H104 H -0.04544 1.09733 -0.02886
 H105 H 0.03759 1.00133 -0.13647
 H106 H -0.03154 0.89618 0.01605
 H107 H -0.01191 1.17533 0.07417
 H108 H 0.00124 1.15780 -0.08979
 H109 H -0.01355 1.02364 -0.21860
 H110 H -0.00561 0.94012 -0.19918
 H111 H 0.02343 0.85094 -0.02056
 H112 H 0.00535 0.86432 0.14521
 H113 H 0.00066 0.99202 0.20716
 H114 H -0.01446 1.06968 0.18828
 O115 O 0.45441 0.40812 0.09662
 O116 O 0.42634 0.46258 0.03708
 C117 C 0.43000 0.42558 0.07917
 O118 O 0.54040 0.57764 0.12984
 O119 O 0.57026 0.53371 0.06398
 C120 C 0.56538 0.56344 0.11269
 O121 O 0.46116 0.57888 0.12909
 O122 O 0.42902 0.54365 0.05100
 C123 C 0.43394 0.57011 0.10745
 O124 O 0.53287 0.39553 0.09709
 O125 O 0.56680 0.44711 0.04928
 C126 C 0.55887 0.40819 0.08539
 Zr127 Zr 0.49539 0.43134 0.06666
 O128 O 0.49646 0.41959 0.17082
 O129 O 0.48912 0.35243 0.05278
 Zr130 Zr 0.50019 0.55853 0.08798
 O131 O 0.49956 0.55489 0.19280
 O132 O 0.50214 0.63867 0.08966
 O133 O 0.47267 0.49583 0.08755
 O134 O 0.52191 0.49123 0.09199
 O135 O 0.53774 0.42243 -0.13328
 O136 O 0.56884 0.46111 -0.06145
 C137 C 0.56305 0.43225 -0.11119
 O138 O 0.46521 0.60715 -0.11582
 O139 O 0.43147 0.55798 -0.06348
 C140 C 0.43925 0.59449 -0.10375
 O141 O 0.54329 0.60431 -0.10141
 O142 O 0.57197 0.54816 -0.04641
 C143 C 0.56786 0.58730 -0.08516
 O144 O 0.45889 0.43257 -0.14406
 O145 O 0.42854 0.47423 -0.07698
 C146 C 0.43381 0.44586 -0.12704
 Zr147 Zr 0.49858 0.44927 -0.09936
 O148 O 0.50313 0.45953 -0.20310
 O149 O 0.49303 0.36992 -0.11063
 Zr150 Zr 0.50279 0.57657 -0.07704
 O151 O 0.50753 0.59091 -0.17994
 O152 O 0.50266 0.65557 -0.05931
 Zr153 Zr 0.45755 0.50739 -0.01015
 Zr154 Zr 0.54113 0.50008 -0.00119
 O155 O 0.52514 0.51229 -0.09783
 O156 O 0.47603 0.51646 -0.10419
 O157 O 0.52178 0.42827 -0.01532
 O158 O 0.47700 0.57864 0.00477
 O159 O 0.47226 0.43318 -0.02044
 O160 O 0.52714 0.57495 0.00961
 H161 H 0.53383 0.48536 0.13187
 H162 H 0.46486 0.60856 0.00890
 H163 H 0.53825 0.51566 -0.13561
 H164 H 0.45840 0.40494 -0.02628
 H165 H 0.50182 0.64782 0.13709
 H166 H 0.51875 0.66350 -0.02937
 H167 H 0.49415 0.56796 -0.20316
 H168 H 0.48846 0.48319 -0.21857
 H169 H 0.50911 0.35322 -0.08834
 H170 H 0.50437 0.34096 0.02396
 H171 H 0.48169 0.44075 0.18985
 H172 H 0.50234 0.51904 0.20584
 C173 C 0.31277 0.24244 0.35058
 C174 C 0.31468 0.29170 0.32403
 C175 C 0.33777 0.30895 0.27971
 C176 C 0.33409 0.35233 0.23950
 C177 C 0.35591 0.37101 0.19933
 C178 C 0.38199 0.34656 0.19879
 C179 C 0.38567 0.30341 0.23938
 C180 C 0.36391 0.28481 0.27950
 C181 C 0.40637 0.36620 0.16027
 C182 C 0.40465 0.40297 0.10983
 H183 H 0.29880 0.31886 0.33634
 H184 H 0.31433 0.37211 0.23962
 H185 H 0.35235 0.40524 0.17045
 H186 H 0.40567 0.28437 0.24083
 H187 H 0.36809 0.25251 0.31162
 H188 H 0.42685 0.35127 0.17306
 H189 H 0.32731 0.21413 0.33463
 H190 H 0.38450 0.41712 0.09350
 C191 C -0.18756 0.78543 0.39104
 C192 C -0.18197 0.83476 0.36802
 C193 C -0.15655 0.84849 0.32904
 C194 C -0.15727 0.89055 0.28557
 C195 C -0.13364 0.90463 0.24833
 C196 C -0.10866 0.87696 0.25402
 C197 C -0.10759 0.83600 0.29916
 C198 C -0.13131 0.82168 0.33615
 C199 C -0.08348 0.89088 0.21440
 C200 C -0.08602 0.91224 0.15101
 H201 H -0.19697 0.86411 0.37760
 H202 H -0.17625 0.91240 0.28006
 H203 H -0.13489 0.93768 0.21589
 H204 H -0.08846 0.81471 0.30529
 H205 H -0.12959 0.79022 0.37104
 H206 H -0.06279 0.88291 0.23464
 H207 H -0.17368 0.75521 0.37791
 H208 H -0.10683 0.91648 0.12930
 C209 C 0.69657 0.71620 0.37278
 C210 C 0.68869 0.66613 0.35953
 C211 C 0.66341 0.65302 0.31910
 C212 C 0.66199 0.60633 0.28681
 C213 C 0.63808 0.59239 0.24982
 C214 C 0.61496 0.62492 0.24467
 C215 C 0.61607 0.67099 0.27841
 C216 C 0.64004 0.68504 0.31511
 C217 C 0.58930 0.61119 0.20594
 C218 C 0.59031 0.58010 0.15090
 H219 H 0.70114 0.63556 0.38016
 H220 H 0.67946 0.58060 0.29012
 H221 H 0.63760 0.55571 0.22646
 H222 H 0.59839 0.69631 0.27612
 H223 H 0.63985 0.72046 0.34142
 H224 H 0.56948 0.62765 0.21930
 H225 H 0.68527 0.74693 0.34903
 H226 H 0.61045 0.56686 0.13451
 C227 C 0.20671 1.15729 0.35406
 C228 C 0.18666 1.18906 0.32463
 C229 C 0.16662 1.17279 0.27166
 C230 C 0.14293 1.20242 0.25800
 C231 C 0.12329 1.18814 0.20917
 C232 C 0.12701 1.14375 0.17272
 C233 C 0.15113 1.11503 0.18498
 C234 C 0.17074 1.12929 0.23369
 C235 C 0.10627 1.12505 0.12282
 C236 C 0.07833 1.14057 0.11815
 H237 H 0.18499 1.22747 0.34242
 H238 H 0.13948 1.23657 0.28569
 H239 H 0.10540 1.21211 0.20040
 H240 H 0.15467 1.08090 0.15727
 H241 H 0.18910 1.10623 0.24060
 H242 H 0.11244 1.09323 0.09328
 H243 H 0.20796 1.11820 0.33911
 H244 H 0.07093 1.17080 0.14866
 C245 C 0.68771 0.28797 -0.38615
 C246 C 0.68320 0.33474 -0.35712
 C247 C 0.65819 0.34567 -0.31685
 C248 C 0.65940 0.38751 -0.27481
 C249 C 0.63603 0.40042 -0.23768
 C250 C 0.61081 0.37160 -0.24181
 C251 C 0.60939 0.33033 -0.28479
 C252 C 0.63283 0.31730 -0.32185
 C253 C 0.58548 0.38528 -0.20432
 C254 C 0.58740 0.41145 -0.14491
 H255 H 0.69884 0.36485 -0.36382
 H256 H 0.67848 0.41054 -0.27094
 H257 H 0.63767 0.43377 -0.20720
 H258 H 0.59006 0.30815 -0.28979
 H259 H 0.63066 0.28585 -0.35536
 H260 H 0.56494 0.37435 -0.22387
 H261 H 0.67332 0.25633 -0.37718
 H262 H 0.60790 0.41921 -0.12296
 C263 C 0.18467 0.76270 -0.35801
 C264 C 0.18402 0.80805 -0.32297
 C265 C 0.16163 0.82176 -0.27621
 C266 C 0.16524 0.86641 -0.23974
 C267 C 0.14406 0.88297 -0.19824
 C268 C 0.11867 0.85498 -0.19206
 C269 C 0.11522 0.80992 -0.22773
 C270 C 0.13639 0.79340 -0.26934
 C271 C 0.09462 0.87287 -0.15306
 C272 C 0.09578 0.91422 -0.11049
 H273 H 0.20093 0.83567 -0.33069
 H274 H 0.18438 0.88921 -0.24430
 H275 H 0.14758 0.91833 -0.17287
 H276 H 0.09581 0.78777 -0.22431
 H277 H 0.13239 0.75921 -0.29693
 H278 H 0.07454 0.85348 -0.16038
 H279 H 0.16895 0.73306 -0.35026
 H280 H 0.11554 0.93325 -0.09910
 C281 C 0.29022 0.68123 -0.34956
 C282 C 0.30913 0.70990 -0.31131
 C283 C 0.32831 0.68651 -0.26159
 C284 C 0.35350 0.71211 -0.24507
 C285 C 0.37307 0.68965 -0.20211
 C286 C 0.36781 0.64088 -0.17481
 C287 C 0.34188 0.61662 -0.18812
 C288 C 0.32228 0.63912 -0.23099
 C289 C 0.38897 0.61401 -0.13354
 C290 C 0.41777 0.62407 -0.13917
 H291 H 0.31152 0.75028 -0.32155
 H292 H 0.35837 0.74914 -0.26670
 H293 H 0.39224 0.71066 -0.19070
 H294 H 0.33705 0.57956 -0.16652
 H295 H 0.30255 0.61915 -0.23992
 H296 H 0.38188 0.58261 -0.10211
 H297 H 0.28878 0.64051 -0.34191
 H298 H 0.42527 0.65313 -0.17355
 C299 C -0.19795 1.21743 -0.37345
 C300 C -0.19180 1.16623 -0.36476
 C301 C -0.16675 1.14936 -0.32666
 C302 C -0.16686 1.10089 -0.29680
 C303 C -0.14322 1.08385 -0.26158
 C304 C -0.11888 1.11496 -0.25619
 C305 C -0.11854 1.16278 -0.28776
 C306 C -0.14218 1.17992 -0.32249
 C307 C -0.09338 1.09871 -0.21933
 C308 C -0.09414 1.06350 -0.16687
 H309 H -0.20540 1.13773 -0.38731
 H310 H -0.18533 1.07627 -0.30055
 H311 H -0.14397 1.04607 -0.23980
 H312 H -0.09993 1.18715 -0.28530
 H313 H -0.14088 1.21667 -0.34719
 H314 H -0.07361 1.11795 -0.23086
 H315 H -0.18559 1.24581 -0.34723
 H316 H -0.11401 1.04634 -0.15179
 C317 C 0.69592 0.70536 -0.35664
 C318 C 0.67610 0.73701 -0.32988
 C319 C 0.65369 0.71461 -0.28866
 C320 C 0.65660 0.71174 -0.21938
 C321 C 0.63578 0.68724 -0.18111
 C322 C 0.61182 0.66581 -0.21205
 C323 C 0.60895 0.66939 -0.28130
 C324 C 0.62985 0.69317 -0.31939
 C325 C 0.58869 0.64181 -0.17402
 C326 C 0.59235 0.61326 -0.11559
 H327 H 0.67575 0.77712 -0.34245
 H328 H 0.67501 0.72808 -0.19514
 H329 H 0.63815 0.68589 -0.12764
 H330 H 0.59064 0.65311 -0.30608
 H331 H 0.62757 0.69450 -0.37292
 H332 H 0.56788 0.64321 -0.19652
 H333 H 0.69563 0.66569 -0.34125
 H334 H 0.61322 0.60673 -0.09561
 C335 C 0.21022 1.15515 -0.36851
 C336 C 0.19049 1.18608 -0.33941
 C337 C 0.17072 1.16749 -0.28751
 C338 C 0.14578 1.19384 -0.27784
 C339 C 0.12595 1.17614 -0.23175
 C340 C 0.13073 1.13157 -0.19416
 C341 C 0.15629 1.10668 -0.20136
 C342 C 0.17611 1.12437 -0.24748
 C343 C 0.10947 1.10967 -0.14809
 C344 C 0.08070 1.11733 -0.15686
 H345 H 0.18831 1.22461 -0.35813
 H346 H 0.14136 1.22775 -0.30690
 H347 H 0.10698 1.19756 -0.22578
 H348 H 0.16069 1.07279 -0.17215
 H349 H 0.19555 1.10413 -0.25123
 H350 H 0.11639 1.08290 -0.11021
 H351 H 0.21182 1.11580 -0.35309
 H352 H 0.07332 1.14093 -0.19762
 C353 C 0.31755 0.25090 -0.38423
 C354 C 0.31947 0.30155 -0.36482
 C355 C 0.34312 0.32300 -0.32490
 C356 C 0.33963 0.36962 -0.29359
 C357 C 0.36173 0.39215 -0.25753
 C358 C 0.38794 0.36840 -0.25213
 C359 C 0.39157 0.32225 -0.28437
 C360 C 0.36946 0.29969 -0.32028
 C361 C 0.41211 0.39086 -0.21503
 C362 C 0.40944 0.42696 -0.16571
 H363 H 0.30282 0.32698 -0.37975
 H364 H 0.31972 0.38886 -0.29732
 H365 H 0.35828 0.42853 -0.23532
 H366 H 0.41166 0.30355 -0.28186
 H367 H 0.37343 0.26471 -0.34548
 H368 H 0.43280 0.37617 -0.22448
 H369 H 0.33293 0.22389 -0.36698
 H370 H 0.38887 0.43988 -0.15205
 C371 C -0.20076 0.80296 -0.34133
 C372 C -0.18335 0.77266 -0.30215
 C373 C -0.16520 0.79517 -0.24979
 C374 C -0.13911 0.77369 -0.23492
 C375 C -0.12036 0.79756 -0.19091
 C376 C -0.12744 0.84355 -0.16116
 C377 C -0.15433 0.86292 -0.17238
 C378 C -0.17309 0.83896 -0.21606
 C379 C -0.10711 0.87323 -0.12050
 C380 C -0.07817 0.87033 -0.12905
 H381 H -0.18137 0.73284 -0.31348
 H382 H -0.13281 0.73940 -0.25914
 H383 H -0.10030 0.78013 -0.18109
 H384 H -0.16051 0.89766 -0.14902
 H385 H -0.19358 0.85529 -0.22392
 H386 H -0.11513 0.90174 -0.08795
 H387 H -0.20120 0.84339 -0.33293
 H388 H -0.06989 0.84392 -0.16398
 C389 C 0.30539 0.71681 0.38636
 C390 C 0.30873 0.67134 0.35319
 C391 C 0.33401 0.66040 0.31392
 C392 C 0.33180 0.62477 0.26317
 C393 C 0.35542 0.61211 0.22668
 C394 C 0.38195 0.63438 0.24094
 C395 C 0.38421 0.66972 0.29208
 C396 C 0.36050 0.68275 0.32818
 C397 C 0.40749 0.62033 0.20457
 C398 C 0.40575 0.59015 0.14890
 H399 H 0.29199 0.64282 0.35525
 H400 H 0.31170 0.60665 0.25169
 H401 H 0.35291 0.58435 0.18797
 H402 H 0.40442 0.68703 0.30449
 H403 H 0.36320 0.70922 0.36830
 H404 H 0.42796 0.63365 0.22202
 H405 H 0.32088 0.74722 0.38064
 H406 H 0.42059 0.58138 0.13073
 C407 C -0.19186 1.24297 0.36277
 C408 C -0.19039 1.19740 0.32834
 C409 C -0.16715 1.18443 0.28378
 C410 C -0.17143 1.14456 0.23923
 C411 C -0.14964 1.12901 0.19880
 C412 C -0.12296 1.15287 0.20267
 C413 C -0.11868 1.19293 0.24685
 C414 C -0.14051 1.20860 0.28713
 C415 C -0.09896 1.13553 0.16366
 C416 C -0.10138 1.09573 0.11958
 H417 H -0.20735 1.16952 0.33371
 H418 H -0.19168 1.12505 0.23614
 H419 H -0.15364 1.09778 0.16548
 H420 H -0.09823 1.21150 0.25106
 H421 H -0.13605 1.23849 0.32198
 H422 H -0.07842 1.15335 0.17188
 H423 H -0.17622 1.27279 0.35471
 H424 H -0.08731 1.08459 0.10072
 C425 C 0.70265 0.32450 0.34567
 C426 C 0.68585 0.29510 0.30345
 C427 C 0.66757 0.31789 0.25138
 C428 C 0.64390 0.29031 0.22882
 C429 C 0.62507 0.31217 0.18341
 C430 C 0.62961 0.36223 0.15972
 C431 C 0.65418 0.38855 0.17912
 C432 C 0.67302 0.36668 0.22432
 C433 C 0.60891 0.38878 0.11683
 C434 C 0.58025 0.37640 0.11757
 H435 H 0.68473 0.25434 0.31152
 H436 H 0.63960 0.25220 0.24763
 H437 H 0.60699 0.28978 0.16748
 H438 H 0.65843 0.42677 0.16065
 H439 H 0.69172 0.38831 0.23789
 H440 H 0.61592 0.42249 0.08970
 H441 H 0.70295 0.36543 0.34063
 H442 H 0.57268 0.34467 0.14757
 C443 C 0.19152 0.78800 0.37253
 C444 C 0.18678 0.83929 0.35958
 C445 C 0.16258 0.85634 0.31851
 C446 C 0.16423 0.90313 0.28438
 C447 C 0.14135 0.92036 0.24644
 C448 C 0.11626 0.89109 0.24245
 C449 C 0.11446 0.84493 0.27796
 C450 C 0.13731 0.82766 0.31548
 C451 C 0.09127 0.90785 0.20396
 C452 C 0.09259 0.94276 0.15124
 H453 H 0.20104 0.86766 0.38021
 H454 H 0.18328 0.92633 0.28699
 H455 H 0.14329 0.95692 0.22157
 H456 H 0.09525 0.82209 0.27666
 H457 H 0.13481 0.79241 0.34329
 H458 H 0.07114 0.89005 0.21584
 H459 H 0.17862 0.75957 0.34785
 H460 H 0.11266 0.95880 0.13587
   
