data_POSCAR
  _audit_creation_date              2014-09-24
  _audit_creation_method            'ToBaCCo'
  _symmetry_space_group_name_H-M    'P1'
  _symmetry_Int_Tables_number       1
  _symmetry_cell_setting            triclinic
  loop_
  _symmetry_equiv_pos_as_xyz
 x,y,z
_cell_length_a 25.4771
_cell_length_b 24.2486
_cell_length_c 26.2935
_cell_angle_alpha 89.851500
_cell_angle_beta 90.371500
_cell_angle_gamma 86.161600
loop_
  _atom_site_label
  _atom_site_type_symbol
  _atom_site_fract_x
  _atom_site_fract_y
  _atom_site_fract_z
C1 C 1.21313 0.23859 0.20950
 C2 C 1.26428 0.25398 0.18476
 C3 C 1.30362 0.26248 0.21824
 C4 C 1.28826 0.25484 0.27415
 C5 C 1.22837 0.18852 0.24310
 C6 C 1.26731 0.19707 0.27705
 C7 C 1.19933 0.28555 0.24721
 C8 C 1.23844 0.29401 0.28154
 H9 H 1.26852 0.25888 0.14404
 H10 H 1.32081 0.26097 0.30130
 H11 H 1.20622 0.15191 0.24417
 H12 H 1.16067 0.30691 0.24902
 C13 C 0.69838 -0.26237 0.19711
 C14 C 0.74413 -0.23246 0.17492
 C15 C 0.78477 -0.22783 0.20830
 C16 C 0.77624 -0.25515 0.26061
 C17 C 0.72295 -0.31830 0.21541
 C18 C 0.76310 -0.31482 0.24921
 C19 C 0.68349 -0.23129 0.24588
 C20 C 0.72411 -0.22709 0.27898
 H21 H 0.74195 -0.21169 0.13837
 H22 H 0.80963 -0.25281 0.28757
 H23 H 0.70686 -0.35712 0.20569
 H24 H 0.64430 -0.21280 0.25284
 C25 C 0.69271 0.22763 -0.28759
 C26 C 0.71694 0.24848 -0.33315
 C27 C 0.75813 0.28427 -0.32284
 C28 C 0.76597 0.29363 -0.26845
 C29 C 0.73617 0.20167 -0.25760
 C30 C 0.77676 0.23819 -0.24650
 C31 C 0.67437 0.27653 -0.25917
 C32 C 0.71464 0.31272 -0.24773
 H33 H 0.70725 0.23522 -0.37112
 H34 H 0.79691 0.32248 -0.26123
 H35 H 0.73688 0.15963 -0.24332
 H36 H 0.63468 0.28322 -0.24469
 C37 C 1.19597 -0.27056 -0.30425
 C38 C 1.24692 -0.25004 -0.32529
 C39 C 1.28500 -0.24494 -0.28943
 C40 C 1.26820 -0.26075 -0.23516
 C41 C 1.21286 -0.32469 -0.27676
 C42 C 1.25078 -0.31991 -0.24064
 C43 C 1.17949 -0.23006 -0.26208
 C44 C 1.21667 -0.22516 -0.22542
 H45 H 1.25249 -0.24113 -0.36521
 H46 H 1.29877 -0.25644 -0.20553
 H47 H 1.19634 -0.36340 -0.28586
 H48 H 1.14015 -0.21033 -0.25956
 C49 C 0.24072 0.20668 0.79473
 C50 C 0.28663 0.23145 0.81497
 C51 C 0.31198 0.26521 0.77924
 C52 C 0.28569 0.26891 0.72952
 C53 C 0.20456 0.25583 0.77557
 C54 C 0.22832 0.28837 0.74133
 C55 C 0.25940 0.17648 0.74643
 C56 C 0.28239 0.20891 0.71230
 H57 H 0.30029 0.22524 0.85382
 H58 H 0.30410 0.29536 0.70112
 H59 H 0.16519 0.26564 0.78964
 H60 H 0.25400 0.13316 0.73947
 C61 C 0.69503 0.73494 0.80123
 C62 C 0.74165 0.75473 0.82555
 C63 C 0.78490 0.75930 0.79148
 C64 C 0.77292 0.74175 0.73915
 C65 C 0.68316 0.77216 0.75857
 C66 C 0.72613 0.77630 0.72436
 C67 C 0.71245 0.68235 0.77796
 C68 C 0.75432 0.68603 0.74237
 H69 H 0.74217 0.76936 0.86447
 H70 H 0.80597 0.74373 0.71236
 H71 H 0.64489 0.79345 0.75209
 H72 H 0.69114 0.64552 0.78203
 C73 C 0.70172 0.22441 0.28794
 C74 C 0.73596 0.23794 0.33337
 C75 C 0.77553 0.27091 0.32198
 C76 C 0.77572 0.28910 0.26569
 C77 C 0.68149 0.28037 0.26620
 C78 C 0.71978 0.31390 0.25346
 C79 C 0.74069 0.20011 0.24801
 C80 C 0.77898 0.23446 0.23577
 H81 H 0.73121 0.21978 0.37055
 H82 H 0.80742 0.31672 0.25654
 H83 H 0.64064 0.28962 0.25562
 H84 H 0.73519 0.16209 0.22772
 C85 C 0.19677 0.72869 0.30210
 C86 C 0.24801 0.74880 0.32360
 C87 C 0.28560 0.75510 0.28791
 C88 C 0.26811 0.74081 0.23341
 C89 C 0.17960 0.77052 0.26063
 C90 C 0.21654 0.77699 0.22438
 C91 C 0.21336 0.67560 0.27355
 C92 C 0.25081 0.68145 0.23770
 H93 H 0.25393 0.75711 0.36362
 H94 H 0.29841 0.74576 0.20406
 H95 H 0.14069 0.79147 0.25918
 H96 H 0.19703 0.63664 0.28194
 N97 N 1.05074 0.07511 0.07981
 N98 N 1.07997 0.09595 0.11614
 N99 N 0.93732 0.11235 0.04485
 N100 N 0.90589 0.15610 0.05563
 N101 N 0.94020 0.07765 0.08344
 N102 N 0.91021 0.09698 0.12121
 N103 N 1.04709 0.10909 0.04072
 N104 N 1.07360 0.15285 0.04912
 C105 C 1.09466 0.14404 0.09562
 C106 C 0.88836 0.14553 0.10281
 N107 N 0.93522 0.06540 -0.09927
 N108 N 0.90792 0.08304 -0.13999
 N109 N 1.04403 0.10079 -0.06722
 N110 N 1.08371 0.13214 -0.07461
 N111 N 1.04611 0.05912 -0.09898
 N112 N 1.08771 0.06042 -0.12851
 N113 N 0.93389 0.10433 -0.06446
 N114 N 0.90597 0.14860 -0.08063
 Mn115 Mn 0.99034 0.10648 -0.01157
 C116 C 0.88876 0.13458 -0.12700
 C117 C 1.11019 0.10667 -0.11323
 N118 N 0.94469 -0.04173 0.09137
 N119 N 0.91850 -0.05292 0.13278
 N120 N 1.05323 -0.08683 0.05408
 N121 N 1.09218 -0.12445 0.06222
 N122 N 1.05472 -0.04646 0.08724
 N123 N 1.09400 -0.05666 0.11991
 N124 N 0.94241 -0.08213 0.05812
 N125 N 0.91427 -0.12155 0.07662
 Mn126 Mn 0.99783 0.01605 0.08586
 C127 C 0.89878 -0.10206 0.12281
 C128 C 1.11731 -0.10517 0.10316
 N129 N 1.04873 -0.05988 -0.09215
 N130 N 1.08722 -0.07297 -0.12438
 N131 N 0.93928 -0.09095 -0.05421
 N132 N 0.91421 -0.13469 -0.06858
 N133 N 0.93839 -0.05446 -0.09156
 N134 N 0.91294 -0.07261 -0.13128
 N135 N 1.05025 -0.09484 -0.05392
 N136 N 1.09046 -0.13170 -0.05825
 Mn137 Mn 0.99213 0.00254 -0.09578
 Mn138 Mn 0.99585 -0.08904 0.00111
 Cl139 Cl 0.99361 0.00886 -0.00500
 C140 C 1.11317 -0.11753 -0.10229
 C141 C 0.89665 -0.12178 -0.11626
 N142 N 1.07337 0.45328 0.42269
 N143 N 1.10944 0.44574 0.38690
 N144 N 0.98320 0.38202 0.45489
 N145 N 0.95512 0.33838 0.45226
 N146 N 0.97124 0.41590 0.41693
 N147 N 0.93421 0.39636 0.38775
 N148 N 1.08506 0.42050 0.46167
 N149 N 1.12988 0.39137 0.45397
 C150 C 1.14513 0.40822 0.40770
 C151 C 0.92511 0.34754 0.41008
 N152 N 0.95837 0.42613 0.59713
 N153 N 0.91529 0.41172 0.62008
 N154 N 1.07626 0.42542 0.57105
 N155 N 1.11645 0.39554 0.59144
 N156 N 1.06016 0.46539 0.60202
 N157 N 1.08936 0.46401 0.64368
 N158 N 0.97423 0.38852 0.56373
 N159 N 0.94224 0.34802 0.56281
 Mn160 Mn 1.02987 0.40378 0.51281
 C161 C 0.90632 0.36249 0.59875
 C162 C 1.12493 0.42102 0.63620
 N163 N 0.92717 0.52696 0.40853
 N164 N 0.89882 0.52656 0.36658
 N165 N 1.00815 0.60531 0.44732
 N166 N 1.03018 0.65241 0.44135
 N167 N 1.02806 0.56767 0.41571
 N168 N 1.06432 0.58869 0.38701
 N169 N 0.90838 0.56584 0.43963
 N170 N 0.86786 0.59428 0.41798
 Mn171 Mn 1.00029 0.49109 0.41553
 C172 C 0.86169 0.56799 0.37306
 C173 C 1.06502 0.64160 0.40378
 N174 N 1.01513 0.57760 0.59203
 N175 N 1.05060 0.59958 0.62120
 N176 N 0.90010 0.57232 0.55236
 N177 N 0.85690 0.60235 0.56567
 N178 N 0.91412 0.53698 0.58886
 N179 N 0.88019 0.54051 0.62634
 N180 N 1.00029 0.61171 0.55500
 N181 N 1.02488 0.65767 0.55792
 Mn182 Mn 0.98719 0.50165 0.59531
 Mn183 Mn 0.95356 0.58897 0.49851
 Cl184 Cl 0.99271 0.49638 0.50548
 C185 C 1.05579 0.64967 0.59944
 C186 C 0.84448 0.58058 0.61132
 N187 N 0.56472 0.06614 0.55770
 N188 N 0.59357 0.10477 0.57663
 N189 N 0.57136 -0.05803 0.58853
 N190 N 0.59387 -0.09447 0.62047
 N191 N 0.60518 -0.04364 0.55436
 N192 N 0.65148 -0.07017 0.56158
 N193 N 0.53038 0.05194 0.59176
 N194 N 0.53445 0.08105 0.63354
 C195 C 0.57314 0.11439 0.62348
 C196 C 0.64363 -0.10173 0.60279
 N197 N 0.42873 -0.10339 0.55500
 N198 N 0.39885 -0.14195 0.57209
 N199 N 0.42603 0.01665 0.59075
 N200 N 0.41030 0.05966 0.61852
 N201 N 0.39206 0.00890 0.55414
 N202 N 0.35272 0.04729 0.55540
 N203 N 0.46561 -0.09419 0.58860
 N204 N 0.46206 -0.12676 0.62849
 Mn205 Mn 0.49839 -0.02127 0.59005
 C206 C 0.42106 -0.15707 0.61738
 C207 C 0.36455 0.07797 0.59630
 N208 N 0.60485 -0.04185 0.44677
 N209 N 0.65015 -0.07063 0.44125
 N210 N 0.53021 0.05558 0.41066
 N211 N 0.53543 0.08495 0.36908
 N212 N 0.56515 0.06807 0.44522
 N213 N 0.59561 0.10546 0.42668
 N214 N 0.57083 -0.05494 0.41188
 N215 N 0.59226 -0.09288 0.38117
 Mn216 Mn 0.58508 0.01276 0.50103
 C217 C 0.64159 -0.10214 0.40024
 C218 C 0.57556 0.11644 0.37962
 N219 N 0.39124 0.00898 0.44535
 N220 N 0.34614 0.03779 0.43807
 N221 N 0.46465 -0.09084 0.41011
 N222 N 0.46102 -0.12268 0.36981
 N223 N 0.42874 -0.10187 0.44380
 N224 N 0.39945 -0.14084 0.42638
 N225 N 0.42527 0.02049 0.41033
 N226 N 0.40440 0.05801 0.37832
 Mn227 Mn 0.40978 -0.04704 0.49964
 Mn228 Mn 0.49780 -0.01765 0.41049
 Cl229 Cl 0.49776 -0.01830 0.50022
 C230 C 0.35509 0.06832 0.39636
 C231 C 0.42102 -0.15436 0.38080
 N232 N 0.40799 0.57241 -0.05387
 N233 N 0.38648 0.60377 -0.09076
 N234 N 0.38824 0.52467 0.05339
 N235 N 0.35296 0.52206 0.08945
 N236 N 0.40835 0.57315 0.05319
 N237 N 0.38679 0.60512 0.08923
 N238 N 0.38767 0.52404 -0.05321
 N239 N 0.35230 0.52092 -0.08960
 C240 C 0.35206 0.57068 -0.11281
 C241 C 0.35257 0.57224 0.11161
 N242 N 0.47376 0.38441 0.05537
 N243 N 0.47647 0.34714 0.09241
 N244 N 0.42649 0.41028 -0.05190
 N245 N 0.39700 0.39438 -0.08968
 N246 N 0.47332 0.38416 -0.05278
 N247 N 0.47721 0.35023 -0.09220
 N248 N 0.42700 0.41073 0.05422
 N249 N 0.39648 0.39172 0.08950
 Mn250 Mn 0.40703 0.46737 0.00065
 C251 C 0.42783 0.35262 0.11338
 C252 C 0.42901 0.35721 -0.11451
 N253 N 0.51531 0.60820 0.05225
 N254 N 0.51777 0.65475 0.07802
 N255 N 0.56091 0.57913 -0.05340
 N256 N 0.59484 0.60443 -0.08103
 N257 N 0.51509 0.60765 -0.05297
 N258 N 0.51763 0.65405 -0.07919
 N259 N 0.56122 0.57988 0.05323
 N260 N 0.59523 0.60554 0.08072
 Mn261 Mn 0.46128 0.59080 -0.00036
 C262 C 0.56758 0.65148 0.09639
 C263 C 0.56732 0.65043 -0.09732
 N264 N 0.58001 0.41794 -0.05266
 N265 N 0.60048 0.38670 -0.08972
 N266 N 0.60121 0.46678 0.05434
 N267 N 0.63684 0.47027 0.09056
 N268 N 0.58074 0.41855 0.05535
 N269 N 0.60182 0.38789 0.09296
 N270 N 0.60082 0.46597 -0.05225
 N271 N 0.63632 0.46868 -0.08826
 Mn272 Mn 0.52725 0.40035 0.00135
 Mn273 Mn 0.58112 0.52288 0.00048
 Cl274 Cl 0.49422 0.49534 0.00056
 C275 C 0.63541 0.41923 -0.11161
 C276 C 0.63666 0.42102 0.11459
 C277 C 1.17099 0.22851 0.17103
 C278 C 1.15106 0.26831 0.13737
 C279 C 1.11930 0.24155 0.10545
 C280 C 1.12186 0.18739 0.12209
 O281 O 1.15318 0.17917 0.16201
 H282 H 1.16023 0.31120 0.13540
 H283 H 1.09746 0.25920 0.07321
 C284 C 1.15342 0.72334 0.65693
 C285 C 1.13530 0.76404 0.62320
 C286 C 1.09587 0.74165 0.59658
 C287 C 1.09272 0.68938 0.61665
 O288 O 1.12741 0.67816 0.65316
 H289 H 1.14919 0.80497 0.61879
 H290 H 1.07211 0.76108 0.56641
 C291 C 0.65149 0.19177 0.70246
 C292 C 0.61974 0.17149 0.73965
 C293 C 0.58470 0.14167 0.71431
 C294 C 0.59795 0.14533 0.66370
 O295 O 0.63843 0.17544 0.65626
 H296 H 0.62185 0.17816 0.78029
 H297 H 0.55396 0.11878 0.73083
 C298 C 0.65200 0.73277 0.16237
 C299 C 0.61557 0.77525 0.14897
 C300 C 0.57670 0.75046 0.12325
 C301 C 0.59303 0.69517 0.12276
 O302 O 0.63840 0.68451 0.14602
 H303 H 0.61656 0.81862 0.15825
 H304 H 0.54140 0.77021 0.10637
 C305 C 0.82658 -0.18968 0.19894
 C306 C 0.85208 -0.16320 0.23730
 C307 C 0.88218 -0.12700 0.21340
 C308 C 0.87348 -0.13431 0.16216
 O309 O 0.83957 -0.17225 0.15303
 H310 H 0.84760 -0.16776 0.27794
 H311 H 0.90734 -0.09830 0.23120
 C312 C 0.79280 0.30097 0.63968
 C313 C 0.79210 0.28432 0.58934
 C314 C 0.83505 0.30494 0.56789
 C315 C 0.85837 0.33340 0.60611
 O316 O 0.83295 0.33142 0.64971
 H317 H 0.76486 0.25882 0.57034
 H318 H 0.84779 0.30016 0.52889
 C319 C 0.33718 -0.22651 0.69710
 C320 C 0.38050 -0.22871 0.72897
 C321 C 0.41885 -0.20531 0.70204
 C322 C 0.39620 -0.19084 0.65570
 O323 O 0.34673 -0.20373 0.65252
 H324 H 0.38377 -0.24454 0.76742
 H325 H 0.45811 -0.19795 0.71519
 C326 C 0.35437 0.28117 0.20081
 C327 C 0.40288 0.26807 0.22293
 C328 C 0.43838 0.29193 0.19222
 C329 C 0.40845 0.31842 0.15444
 O330 O 0.35776 0.31179 0.15954
 H331 H 0.41140 0.24326 0.25662
 H332 H 0.48063 0.29096 0.19720
 C333 C 0.81963 0.22290 -0.21451
 C334 C 0.85713 0.25810 -0.19887
 C335 C 0.88821 0.22842 -0.16524
 C336 C 0.86834 0.17711 -0.16312
 O337 O 0.82671 0.17327 -0.19292
 H338 H 0.86110 0.30086 -0.20883
 H339 H 0.92108 0.24278 -0.14387
 C340 C 0.78649 0.63611 0.27658
 C341 C 0.78382 0.58252 0.25949
 C342 C 0.80968 0.55023 0.29506
 C343 C 0.82573 0.58613 0.33163
 O344 O 0.81208 0.63849 0.32055
 H345 H 0.76639 0.56853 0.22460
 H346 H 0.81732 0.50580 0.29386
 C347 C 0.27719 0.16015 0.32060
 C348 C 0.23809 0.14440 0.35245
 C349 C 0.26276 0.10893 0.38636
 C350 C 0.31485 0.10546 0.37216
 O351 O 0.32397 0.13677 0.33238
 H352 H 0.19657 0.15709 0.35074
 H353 H 0.24482 0.08710 0.41696
 C354 C 0.27283 0.63268 -0.21002
 C355 C 0.25772 0.57918 -0.21480
 C356 C 0.28618 0.54923 -0.17932
 C357 C 0.31672 0.58627 -0.15551
 O358 O 0.30892 0.63705 -0.17394
 H359 H 0.22912 0.56341 -0.24056
 H360 H 0.28456 0.50554 -0.17140
 C361 C 1.20380 -0.19508 -0.17790
 C362 C 1.22810 -0.20608 -0.13160
 C363 C 1.19805 -0.17675 -0.09686
 C364 C 1.15830 -0.14936 -0.12469
 O365 O 1.16153 -0.16048 -0.17374
 H366 H 1.26151 -0.23476 -0.12356
 H367 H 1.20338 -0.17673 -0.05599
 C368 C 1.22964 0.33046 0.32624
 C369 C 1.26270 0.33077 0.36808
 C370 C 1.23622 0.36275 0.40333
 C371 C 1.18942 0.38044 0.38030
 O372 O 1.18507 0.36080 0.33365
 H373 H 1.30018 0.30793 0.37379
 H374 H 1.24848 0.37028 0.44204
 C375 C 0.71737 -0.19466 0.32562
 C376 C 0.75551 -0.18692 0.36194
 C377 C 0.73183 -0.15127 0.39623
 C378 C 0.68138 -0.14038 0.37788
 O379 O 0.67253 -0.16657 0.33539
 H380 H 0.79573 -0.20421 0.36312
 H381 H 0.74935 -0.13458 0.42997
 C382 C 0.70624 0.35546 -0.21235
 C383 C 0.74069 0.39556 -0.20138
 C384 C 0.71748 0.42618 -0.16322
 C385 C 0.67125 0.40196 -0.15304
 O386 O 0.66406 0.35946 -0.18294
 H387 H 0.77806 0.40222 -0.21883
 H388 H 0.73310 0.46104 -0.14405
 C389 C 1.21671 0.16731 -0.16911
 C390 C 1.24345 0.11962 -0.15113
 C391 C 1.20672 0.09076 -0.12737
 C392 C 1.16061 0.12327 -0.13193
 O393 O 1.16621 0.16974 -0.15720
 H394 H 1.28437 0.10642 -0.15704
 H395 H 1.21251 0.05051 -0.10954
 C396 C 1.15529 0.72066 0.34121
 C397 C 1.13506 0.76135 0.37346
 C398 C 1.09841 0.73680 0.40165
 C399 C 1.09900 0.68312 0.38425
 O400 O 1.13338 0.67316 0.34767
 H401 H 1.14578 0.80370 0.37587
 H402 H 1.07399 0.75574 0.43120
 C403 C 0.65715 0.18891 0.29969
 C404 C 0.62109 0.17446 0.26358
 C405 C 0.58492 0.14706 0.28949
 C406 C 0.60159 0.14654 0.33951
 O407 O 0.64553 0.17186 0.34600
 H408 H 0.62094 0.18378 0.22330
 H409 H 0.55078 0.12885 0.27370
 C410 C 0.65125 0.73055 -0.16526
 C411 C 0.61695 0.77378 -0.14923
 C412 C 0.57842 0.74954 -0.12288
 C413 C 0.59278 0.69382 -0.12417
 O414 O 0.63671 0.68238 -0.14912
 H415 H 0.61917 0.81743 -0.15689
 H416 H 0.54486 0.76996 -0.10407
 C417 C 0.82959 -0.21279 -0.19450
 C418 C 0.87059 -0.20264 -0.22674
 C419 C 0.90164 -0.16926 -0.20027
 C420 C 0.87830 -0.16176 -0.15352
 O421 O 0.83456 -0.18816 -0.14962
 H422 H 0.87686 -0.21585 -0.26557
 H423 H 0.93654 -0.15101 -0.21396
 C424 C 0.81883 0.27939 0.35854
 C425 C 0.83133 0.24416 0.39888
 C426 C 0.87337 0.26474 0.42223
 C427 C 0.88371 0.31120 0.39488
 O428 O 0.85094 0.32026 0.35579
 H429 H 0.81267 0.20716 0.40973
 H430 H 0.89393 0.24806 0.45560
 C431 C 0.33760 -0.22558 0.30140
 C432 C 0.38028 -0.22625 0.26931
 C433 C 0.41845 -0.20190 0.29605
 C434 C 0.39636 -0.18844 0.34249
 O435 O 0.34740 -0.20284 0.34593
 H436 H 0.38323 -0.24163 0.23080
 H437 H 0.45717 -0.19328 0.28271
 C438 C 0.35645 0.29286 -0.20691
 C439 C 0.38942 0.31881 -0.23949
 C440 C 0.42543 0.34189 -0.20867
 C441 C 0.41154 0.32862 -0.15984
 O442 O 0.36984 0.29917 -0.15871
 H443 H 0.38731 0.32160 -0.28052
 H444 H 0.45569 0.36851 -0.22018
 C445 C 1.20505 -0.18785 0.17906
 C446 C 1.23356 -0.19090 0.13459
 C447 C 1.20543 -0.15768 0.10082
 C448 C 1.16249 -0.13589 0.12737
 O449 O 1.16183 -0.15441 0.17469
 H450 H 1.26880 -0.21667 0.12657
 H451 H 1.21394 -0.15180 0.06097
 C452 C 1.20338 0.34079 0.72238
 C453 C 1.19728 0.38789 0.75141
 C454 C 1.16909 0.42538 0.72165
 C455 C 1.16014 0.39821 0.67669
 O456 O 1.18099 0.34670 0.67695
 H457 H 1.21065 0.39357 0.79008
 H458 H 1.15508 0.46692 0.73208
 C459 C 0.72071 -0.19106 0.68079
 C460 C 0.75887 -0.18325 0.64474
 C461 C 0.73495 -0.14815 0.60965
 C462 C 0.68439 -0.13772 0.62709
 O463 O 0.67574 -0.16344 0.66989
 H464 H 0.79913 -0.20041 0.64377
 H465 H 0.75219 -0.13208 0.57563
 C466 C 0.70822 0.35971 0.21734
 C467 C 0.73829 0.40431 0.21095
 C468 C 0.71452 0.43427 0.17212
 C469 C 0.67226 0.40514 0.15730
 O470 O 0.66828 0.36001 0.18474
 H471 H 0.77330 0.41370 0.23186
 H472 H 0.72708 0.47221 0.15582
 C473 C 0.81310 0.22545 0.19109
 C474 C 0.82625 0.26766 0.15938
 C475 C 0.85496 0.24268 0.12152
 C476 C 0.85787 0.18710 0.13316
 O477 O 0.83225 0.17624 0.17535
 H478 H 0.81516 0.31135 0.16281
 H479 H 0.87243 0.26265 0.08953
 C480 C 0.76739 0.64383 0.70697
 C481 C 0.74577 0.59290 0.70623
 C482 C 0.76873 0.56507 0.66661
 C483 C 0.80213 0.60071 0.64526
 O484 O 0.80205 0.64840 0.66990
 H485 H 0.71789 0.57653 0.73211
 H486 H 0.76409 0.52247 0.65627
 C487 C 0.30208 0.18611 0.66424
 C488 C 0.28737 0.20568 0.61663
 C489 C 0.30782 0.16648 0.58356
 C490 C 0.33379 0.12693 0.61396
 O491 O 0.33022 0.13860 0.66268
 H492 H 0.26285 0.24258 0.60745
 H493 H 0.30463 0.16685 0.54250
 C494 C 0.27294 0.63444 0.20712
 C495 C 0.25797 0.58086 0.21181
 C496 C 0.28661 0.55105 0.17700
 C497 C 0.31714 0.58817 0.15356
 O498 O 0.30917 0.63897 0.17161
 H499 H 0.22942 0.56482 0.23717
 H500 H 0.28515 0.50734 0.16928
   
