data_POSCAR
  _audit_creation_date              2014-09-24
  _audit_creation_method            'ToBaCCo'
  _symmetry_space_group_name_H-M    'P1'
  _symmetry_Int_Tables_number       1
  _symmetry_cell_setting            triclinic
  loop_
  _symmetry_equiv_pos_as_xyz
 x,y,z
_cell_length_a 24.8319
_cell_length_b 25.4173
_cell_length_c 63.8317
_cell_angle_alpha 92.357600
_cell_angle_beta 89.832700
_cell_angle_gamma 120.059200
loop_
  _atom_site_label
  _atom_site_type_symbol
  _atom_site_fract_x
  _atom_site_fract_y
  _atom_site_fract_z
C1 C 0.00055 0.02933 0.51873
 C2 C -0.05164 -0.01449 0.50308
 C3 C -0.03532 -0.04774 0.48972
 C4 C 0.03206 -0.03379 0.49356
 C5 C 0.01819 -0.01209 0.52992
 C6 C 0.03446 -0.04522 0.51695
 C7 C 0.05580 0.06777 0.50503
 C8 C 0.07257 0.03549 0.49187
 H9 H -0.09867 -0.02286 0.50386
 H10 H 0.04820 -0.05885 0.48318
 H11 H 0.01192 -0.01931 0.54658
 H12 H 0.07718 0.11683 0.50482
 C13 C 0.94228 -0.07804 0.18175
 C14 C 0.99424 -0.08262 0.16988
 C15 C 1.03149 -0.03244 0.15879
 C16 C 1.01298 0.01722 0.16049
 C17 C 0.97454 -0.02169 0.19433
 C18 C 1.01425 0.03150 0.18305
 C19 C 0.90763 -0.06609 0.16457
 C20 C 0.94400 -0.01663 0.15339
 H21 H 1.00119 -0.12129 0.16988
 H22 H 1.04095 0.05612 0.15056
 H23 H 0.97548 -0.02290 0.21123
 H24 H 0.85848 -0.09591 0.16107
 C25 C 0.05217 1.04229 0.84902
 C26 C 0.06004 1.09655 0.83656
 C27 C 0.01301 1.08162 0.82215
 C28 C -0.03758 1.01365 0.82180
 C29 C -0.01209 1.01719 0.85865
 C30 C -0.05895 1.00260 0.84464
 C31 C 0.04475 0.99471 0.83219
 C32 C -0.00153 0.97968 0.81792
 H33 H 0.09671 1.14287 0.83973
 H34 H -0.07630 0.99913 0.81030
 H35 H -0.01841 1.01894 0.87543
 H36 H 0.07515 0.97556 0.83139
 O37 O 0.43096 -0.01152 -0.01771
 O38 O 0.54511 -0.01814 0.01769
 O39 O 0.43786 -0.02349 0.02243
 O40 O 0.52903 -0.02150 -0.02265
 O41 O 0.58396 0.07874 -0.02019
 O42 O 0.48902 0.07678 0.02525
 O43 O 0.59693 0.08211 0.02059
 O44 O 0.48551 0.08872 -0.01492
 Cu45 Cu 0.48045 -0.02849 -0.00023
 Cu46 Cu 0.54428 0.09148 0.00305
 C47 C 0.43938 0.04023 -0.02249
 C48 C 0.59101 0.03140 0.02507
 C49 C 0.44655 0.02557 0.03142
 C50 C 0.57178 0.02826 -0.02930
 O51 O -0.06218 0.52293 0.64413
 O52 O -0.06729 0.43163 0.68883
 O53 O -0.07239 0.53167 0.68469
 O54 O -0.07074 0.41762 0.64823
 O55 O 0.03183 0.46582 0.65001
 O56 O 0.03019 0.58257 0.68619
 O57 O 0.03526 0.48315 0.69059
 O58 O 0.04036 0.57076 0.64601
 Cu59 Cu -0.07833 0.47121 0.66640
 Cu60 Cu 0.04450 0.53042 0.66847
 C61 C -0.00938 0.56228 0.63735
 C62 C -0.01622 0.44168 0.69716
 C63 C -0.02183 0.57712 0.69146
 C64 C -0.01962 0.42184 0.64282
 O65 O 0.42619 0.43755 0.35533
 O66 O 0.53136 0.54767 0.31729
 O67 O 0.42292 0.45008 0.31519
 O68 O 0.52830 0.54404 0.35806
 O69 O 0.58142 0.49607 0.35470
 O70 O 0.47230 0.39844 0.31160
 O71 O 0.58085 0.49604 0.31411
 O72 O 0.47870 0.38896 0.35213
 Cu73 Cu 0.47226 0.49980 0.33691
 Cu74 Cu 0.53307 0.43964 0.33296
 C75 C 0.43452 0.39388 0.36006
 C76 C 0.57391 0.54000 0.30906
 C77 C 0.42935 0.40866 0.30588
 C78 C 0.57363 0.53765 0.36350
 C79 C -0.02180 0.15447 0.56118
 C80 C 0.02909 0.14574 0.56314
 C81 C 0.03455 0.10425 0.54966
 C82 C -0.01113 0.07001 0.53400
 C83 C -0.06252 0.07900 0.53219
 C84 C -0.06780 0.12089 0.54577
 C85 C -0.02487 0.19957 0.57467
 C86 C -0.02499 0.23823 0.58621
 C87 C -0.02351 0.28478 0.60019
 C88 C 0.03353 0.33277 0.60792
 C89 C 0.03508 0.37762 0.62178
 C90 C -0.02055 0.37489 0.62807
 C91 C -0.07762 0.32650 0.62015
 C92 C -0.07903 0.28178 0.60631
 H93 H 0.06524 0.17181 0.57489
 H94 H 0.07540 0.09963 0.55119
 H95 H -0.09782 0.05548 0.52008
 H96 H -0.10716 0.12783 0.54402
 H97 H 0.07680 0.33541 0.60329
 H98 H 0.07970 0.41424 0.62759
 H99 H -0.12132 0.32303 0.62466
 H100 H -0.12341 0.24480 0.60045
 C101 C 0.81454 0.78010 0.22182
 C102 C 0.80688 0.82934 0.21754
 C103 C 0.84782 0.87368 0.20436
 C104 C 0.89736 0.86973 0.19503
 C105 C 0.90441 0.81950 0.19932
 C106 C 0.86312 0.77498 0.21264
 C107 C 0.77334 0.73644 0.23623
 C108 C 0.73827 0.70148 0.24860
 C109 C 0.69644 0.66079 0.26361
 C110 C 0.65023 0.67058 0.27238
 C111 C 0.61013 0.63141 0.28722
 C112 C 0.61595 0.58203 0.29344
 C113 C 0.66257 0.57268 0.28449
 C114 C 0.70249 0.61180 0.26969
 H115 H 0.76969 0.83398 0.22464
 H116 H 0.84144 0.91202 0.20164
 H117 H 0.94197 0.81458 0.19291
 H118 H 0.86959 0.73705 0.21600
 H119 H 0.64531 0.70854 0.26779
 H120 H 0.57473 0.63978 0.29381
 H121 H 0.66834 0.53508 0.28891
 H122 H 0.73816 0.60391 0.26304
 C123 C 0.19091 0.05933 -0.10585
 C124 C 0.13347 0.00593 -0.10823
 C125 C 0.08933 0.00204 -0.12254
 C126 C 0.10134 0.05166 -0.13474
 C127 C 0.15939 0.10562 -0.13215
 C128 C 0.20385 0.10933 -0.11774
 C129 C 0.23645 0.06092 -0.09159
 C130 C 0.27265 0.05896 -0.07957
 C131 C 0.31438 0.05427 -0.06520
 C132 C 0.30406 -0.00310 -0.06010
 C133 C 0.34447 -0.00796 -0.04612
 C134 C 0.39572 0.04464 -0.03707
 C135 C 0.40551 0.10209 -0.04228
 C136 C 0.36509 0.10680 -0.05624
 H137 H 0.12306 -0.03318 -0.09922
 H138 H 0.04566 -0.04048 -0.12437
 H139 H 0.17156 0.14448 -0.14142
 H140 H 0.24854 0.15081 -0.11609
 H141 H 0.26481 -0.04408 -0.06695
 H142 H 0.33570 -0.05277 -0.04245
 H143 H 0.44453 0.14351 -0.03560
 H144 H 0.37343 0.15139 -0.06006
 C145 C 0.03246 0.80718 0.54692
 C146 C -0.00641 0.79560 0.52943
 C147 C -0.00257 0.84400 0.51856
 C148 C 0.04018 0.90432 0.52508
 C149 C 0.08081 0.91551 0.54209
 C150 C 0.07709 0.86716 0.55290
 C151 C 0.02277 0.75860 0.56004
 C152 C 0.01491 0.71981 0.57191
 C153 C 0.00723 0.67617 0.58701
 C154 C 0.05976 0.67664 0.59503
 C155 C 0.05389 0.63863 0.61109
 C156 C -0.00477 0.59947 0.61945
 C157 C -0.05769 0.59809 0.61095
 C158 C -0.05163 0.63646 0.59485
 H159 H -0.04167 0.74942 0.52483
 H160 H -0.03608 0.83433 0.50613
 H161 H 0.11335 0.96176 0.54757
 H162 H 0.10710 0.87668 0.56651
 H163 H 0.10554 0.70741 0.58918
 H164 H 0.09558 0.64068 0.61719
 H165 H -0.10341 0.56849 0.61705
 H166 H -0.09258 0.63607 0.58884
 C167 C 0.15546 0.18605 0.21693
 C168 C 0.15859 0.18189 0.19511
 C169 C 0.10956 0.13389 0.18348
 C170 C 0.05760 0.08759 0.19363
 C171 C 0.05270 0.09706 0.21541
 C172 C 0.10135 0.14512 0.22689
 C173 C 0.20825 0.22963 0.22951
 C174 C 0.25086 0.26366 0.24113
 C175 C 0.29926 0.30250 0.25607
 C176 C 0.34332 0.28722 0.26264
 C177 C 0.38663 0.32217 0.27864
 C178 C 0.38593 0.37254 0.28831
 C179 C 0.34214 0.38802 0.28128
 C180 C 0.29919 0.35323 0.26532
 H181 H 0.19971 0.21456 0.18713
 H182 H 0.11502 0.13269 0.16677
 H183 H 0.01192 0.06717 0.22402
 H184 H 0.09745 0.14915 0.24372
 H185 H 0.34339 0.24764 0.25569
 H186 H 0.41975 0.30916 0.28368
 H187 H 0.34045 0.42667 0.28830
 H188 H 0.26505 0.36521 0.26048
 C189 C 0.78746 -0.00014 -0.12479
 C190 C 0.82145 0.04461 -0.13908
 C191 C 0.86853 0.04262 -0.15052
 C192 C 0.88184 -0.00427 -0.14784
 C193 C 0.84566 -0.05057 -0.13421
 C194 C 0.79852 -0.04862 -0.12279
 C195 C 0.74663 0.00722 -0.11047
 C196 C 0.71419 0.01329 -0.09764
 C197 C 0.67637 0.01884 -0.08157
 C198 C 0.69462 0.07511 -0.07118
 C199 C 0.66011 0.07890 -0.05435
 C200 C 0.60724 0.02625 -0.04770
 C201 C 0.58880 -0.02976 -0.05856
 C202 C 0.62311 -0.03336 -0.07533
 H203 H 0.81398 0.08283 -0.14051
 H204 H 0.89773 0.08036 -0.16007
 H205 H 0.85628 -0.08626 -0.13155
 H206 H 0.77292 -0.08317 -0.11161
 H207 H 0.73610 0.11578 -0.07581
 H208 H 0.67545 0.12260 -0.04632
 H209 H 0.54817 -0.07117 -0.05395
 H210 H 0.60875 -0.07716 -0.08317
 C211 C 0.18195 -0.01141 0.11996
 C212 C 0.12667 -0.06771 0.12007
 C213 C 0.07794 -0.07525 0.13305
 C214 C 0.08395 -0.02636 0.14596
 C215 C 0.14004 0.02943 0.14604
 C216 C 0.18866 0.03692 0.13312
 C217 C 0.23122 -0.00264 0.10602
 C218 C 0.27191 0.00450 0.09411
 C219 C 0.31902 0.01132 0.07948
 C220 C 0.32008 -0.04034 0.07171
 C221 C 0.36280 -0.03516 0.05652
 C222 C 0.40530 0.02194 0.04881
 C223 C 0.40511 0.07401 0.05708
 C224 C 0.36203 0.06864 0.07231
 H225 H 0.12094 -0.10549 0.10993
 H226 H 0.03508 -0.11867 0.13259
 H227 H 0.14667 0.06718 0.15622
 H228 H 0.23131 0.08055 0.13330
 H229 H 0.28708 -0.08490 0.07712
 H230 H 0.36174 -0.07619 0.05057
 H231 H 0.43708 0.11851 0.05142
 H232 H 0.36153 0.10898 0.07820
 C233 C 0.83432 0.80934 0.44660
 C234 C 0.82312 0.85571 0.45375
 C235 C 0.86578 0.90271 0.46740
 C236 C 0.92034 0.90391 0.47430
 C237 C 0.93156 0.85760 0.46645
 C238 C 0.88887 0.81078 0.45285
 C239 C 0.78977 0.76002 0.43300
 C240 C 0.75217 0.71880 0.42164
 C241 C 0.70636 0.67055 0.40801
 C242 C 0.64927 0.66728 0.40441
 C243 C 0.60556 0.62281 0.39041
 C244 C 0.61821 0.58071 0.37974
 C245 C 0.67511 0.58321 0.38384
 C246 C 0.71900 0.62802 0.39788
 H247 H 0.78125 0.85544 0.44883
 H248 H 0.85582 0.93806 0.47239
 H249 H 0.97244 0.85594 0.47098
 H250 H 0.89824 0.77530 0.44734
 H251 H 0.63890 0.69982 0.41217
 H252 H 0.56221 0.62217 0.38768
 H253 H 0.68631 0.55163 0.37582
 H254 H 0.76311 0.63012 0.40057
 C255 C 0.00156 0.21053 0.78304
 C256 C 0.05934 0.22271 0.79102
 C257 C 0.06331 0.18108 0.80373
 C258 C 0.00940 0.12653 0.80868
 C259 C -0.04831 0.11494 0.80038
 C260 C -0.05211 0.15657 0.78776
 C261 C -0.00289 0.25245 0.76962
 C262 C -0.00694 0.28685 0.75811
 C263 C -0.01078 0.32768 0.74399
 C264 C 0.04341 0.38076 0.73887
 C265 C 0.04106 0.41864 0.72411
 C266 C -0.01566 0.40402 0.71419
 C267 C -0.07031 0.35140 0.71984
 C268 C -0.06780 0.31338 0.73463
 H269 H 0.10138 0.26417 0.78731
 H270 H 0.10879 0.19135 0.80931
 H271 H -0.09122 0.07419 0.80370
 H272 H -0.09708 0.14653 0.78162
 H273 H 0.08778 0.39229 0.74598
 H274 H 0.08403 0.45884 0.72018
 H275 H -0.11460 0.33879 0.71245
 H276 H -0.11007 0.27229 0.73846
 C277 C 0.85323 0.01920 0.10382
 C278 C 0.89570 0.06740 0.11723
 C279 C 0.92868 0.05686 0.13274
 C280 C 0.91853 -0.00209 0.13506
 C281 C 0.87826 -0.04931 0.12086
 C282 C 0.84589 -0.03870 0.10537
 C283 C 0.81292 0.02675 0.08963
 C284 C 0.77623 0.02951 0.07805
 C285 C 0.73027 0.03012 0.06453
 C286 C 0.73470 0.08526 0.05967
 C287 C 0.68922 0.08555 0.04690
 C288 C 0.63852 0.03057 0.03883
 C289 C 0.63445 -0.02467 0.04381
 C290 C 0.68005 -0.02482 0.05659
 H291 H 0.90161 0.11242 0.11618
 H292 H 0.95935 0.09376 0.14359
 H293 H 0.87034 -0.09500 0.12219
 H294 H 0.81331 -0.07627 0.09509
 H295 H 0.77320 0.12803 0.06578
 H296 H 0.69383 0.12891 0.04336
 H297 H 0.59613 -0.06771 0.03783
 H298 H 0.67606 -0.06782 0.06033
 C299 C 0.20245 0.13719 0.44499
 C300 C 0.21535 0.15680 0.46610
 C301 C 0.17488 0.12158 0.48152
 C302 C 0.12081 0.06616 0.47604
 C303 C 0.10983 0.04489 0.45495
 C304 C 0.15040 0.08050 0.43945
 C305 C 0.24057 0.17765 0.42920
 C306 C 0.27296 0.21376 0.41659
 C307 C 0.31247 0.25838 0.40206
 C308 C 0.30248 0.30620 0.39731
 C309 C 0.34216 0.35061 0.38369
 C310 C 0.39244 0.34771 0.37470
 C311 C 0.40194 0.29936 0.37958
 C312 C 0.36228 0.25513 0.39316
 H313 H 0.25554 0.20042 0.47059
 H314 H 0.18461 0.13869 0.49770
 H315 H 0.06817 0.00265 0.45033
 H316 H 0.13995 0.06490 0.42314
 H317 H 0.26419 0.30932 0.40420
 H318 H 0.33352 0.38712 0.38022
 H319 H 0.44011 0.29564 0.37292
 H320 H 0.37066 0.21854 0.39680
 C321 C -0.02558 0.84935 0.76888
 C322 C -0.07803 0.84529 0.77875
 C323 C -0.07095 0.88969 0.79405
 C324 C -0.01131 0.93780 0.79971
 C325 C 0.04054 0.94285 0.78902
 C326 C 0.03341 0.89895 0.77374
 C327 C -0.03048 0.80118 0.75490
 C328 C -0.03104 0.76167 0.74361
 C329 C -0.02891 0.71529 0.73050
 C330 C -0.08398 0.66353 0.72348
 C331 C -0.08159 0.61836 0.71094
 C332 C -0.02397 0.62433 0.70526
 C333 C 0.03115 0.67643 0.71249
 C334 C 0.02862 0.72156 0.72503
 H335 H -0.12395 0.80696 0.77512
 H336 H -0.11145 0.88486 0.80216
 H337 H 0.08693 0.98004 0.79290
 H338 H 0.07426 0.90270 0.76619
 H339 H -0.12875 0.65808 0.72768
 H340 H -0.12493 0.57887 0.70563
 H341 H 0.07619 0.68248 0.70837
 H342 H 0.07157 0.76140 0.73045
   
