data_POSCAR
  _audit_creation_date              2014-09-24
  _audit_creation_method            'ToBaCCo'
  _symmetry_space_group_name_H-M    'P1'
  _symmetry_Int_Tables_number       1
  _symmetry_cell_setting            triclinic
  loop_
  _symmetry_equiv_pos_as_xyz
 x,y,z
_cell_length_a 34.2086
_cell_length_b 34.3197
_cell_length_c 34.1923
_cell_angle_alpha 90.089300
_cell_angle_beta 90.146900
_cell_angle_gamma 90.094500
loop_
  _atom_site_label
  _atom_site_type_symbol
  _atom_site_fract_x
  _atom_site_fract_y
  _atom_site_fract_z
C1 C 0.51858 0.99989 -0.50117
 C2 C 0.47886 0.99976 -0.50118
 C3 C 0.45579 1.00111 -0.53795
 C4 C 0.45598 0.99830 -0.46441
 C5 C 0.54164 1.00100 -0.46437
 C6 C 0.54149 0.99889 -0.53794
 C7 C 0.46006 1.03202 -0.56452
 C8 C 0.43595 1.03427 -0.59756
 C9 C 0.40730 1.00571 -0.60418
 C10 C 0.40330 0.97465 -0.57795
 C11 C 0.42732 0.97245 -0.54500
 C12 C 0.42747 1.02682 -0.45737
 C13 C 0.40374 1.02455 -0.42434
 C14 C 0.40805 0.99363 -0.39808
 C15 C 0.43664 0.96521 -0.40466
 C16 C 0.46049 0.96746 -0.43777
 C17 C 0.57016 0.97240 -0.45767
 C18 C 0.59408 0.97438 -0.42462
 C19 C 0.58994 1.00509 -0.39801
 C20 C 0.56133 1.03358 -0.40426
 C21 C 0.53729 1.03161 -0.43738
 C22 C 0.53710 0.96823 -0.56492
 C23 C 0.56111 0.96630 -0.59794
 C24 C 0.58971 0.99488 -0.60410
 C25 C 0.59385 1.02565 -0.57753
 C26 C 0.56997 1.02759 -0.54459
 H27 H 0.48137 1.05479 -0.55916
 H28 H 0.43925 1.05864 -0.61743
 H29 H 0.38120 0.95240 -0.58251
 H30 H 0.42346 0.94855 -0.52469
 H31 H 0.42340 1.05064 -0.47772
 H32 H 0.38159 1.04658 -0.41961
 H33 H 0.48181 0.94479 -0.44310
 H34 H 0.57410 0.94874 -0.47829
 H35 H 0.61624 0.95231 -0.42016
 H36 H 0.55810 1.05763 -0.38396
 H37 H 0.51596 1.05435 -0.44244
 H38 H 0.51580 0.94542 -0.55990
 H39 H 0.55788 0.94220 -0.61820
 H40 H 0.61602 1.04779 -0.58193
 H41 H 0.57395 1.05129 -0.52398
 H42 H 0.43999 0.94100 -0.38464
 C43 C -0.47927 1.50089 0.00016
 C44 C -0.51902 1.50079 0.00025
 C45 C -0.54201 1.46408 0.00146
 C46 C -0.54210 1.53738 -0.00096
 C47 C -0.45627 1.53761 0.00101
 C48 C -0.45623 1.46427 -0.00082
 C49 C -0.57063 1.45721 -0.02725
 C50 C -0.59461 1.42435 -0.02513
 C51 C -0.59045 1.39806 0.00582
 C52 C -0.56172 1.40445 0.03441
 C53 C -0.53762 1.43739 0.03231
 C54 C -0.53804 1.56400 -0.03190
 C55 C -0.56237 1.59669 -0.03412
 C56 C -0.59099 1.60291 -0.00554
 C57 C -0.59478 1.57672 0.02554
 C58 C -0.57057 1.54411 0.02777
 C59 C -0.46041 1.56464 0.03165
 C60 C -0.43627 1.59758 0.03346
 C61 C -0.40771 1.60365 0.00475
 C62 C -0.40383 1.57699 -0.02604
 C63 C -0.42787 1.54414 -0.02782
 C64 C -0.42756 1.45783 0.02789
 C65 C -0.40354 1.42506 0.02598
 C66 C -0.40773 1.39842 -0.00477
 C67 C -0.43650 1.40440 -0.03337
 C68 C -0.46063 1.43726 -0.03147
 H69 H -0.57464 1.47758 -0.05109
 H70 H -0.61685 1.41980 -0.04730
 H71 H -0.55845 1.38442 0.05865
 H72 H -0.51622 1.44256 0.05514
 H73 H -0.51678 1.55893 -0.05474
 H74 H -0.55940 1.61664 -0.05846
 H75 H -0.57432 1.52378 0.05168
 H76 H -0.48164 1.55973 0.05457
 H77 H -0.43942 1.61783 0.05759
 H78 H -0.38178 1.58120 -0.04836
 H79 H -0.42406 1.52351 -0.05151
 H80 H -0.42354 1.47846 0.05158
 H81 H -0.38127 1.42082 0.04815
 H82 H -0.43979 1.38410 -0.05745
 H83 H -0.48206 1.44210 -0.05431
 H84 H -0.61694 1.58113 0.04769
 C85 C 0.00048 0.49935 0.52077
 C86 C 0.00037 0.49935 0.48097
 C87 C 0.00115 0.46268 0.45780
 C88 C -0.00053 0.53603 0.45794
 C89 C 0.00129 0.53603 0.54392
 C90 C -0.00024 0.46267 0.54382
 C91 C 0.03184 0.43577 0.46177
 C92 C 0.03367 0.40306 0.43729
 C93 C 0.00492 0.39707 0.40857
 C94 C -0.02593 0.42359 0.40490
 C95 C -0.02773 0.45621 0.42927
 C96 C 0.02821 0.54253 0.42942
 C97 C 0.02628 0.57519 0.40522
 C98 C -0.00451 0.60170 0.40903
 C99 C -0.03311 0.59570 0.43770
 C100 C -0.03119 0.56295 0.46202
 C101 C -0.02748 0.54238 0.57243
 C102 C -0.02568 0.57508 0.59671
 C103 C 0.00506 0.60180 0.59298
 C104 C 0.03371 0.59592 0.56430
 C105 C 0.03188 0.56313 0.53991
 C106 C -0.03085 0.43558 0.53972
 C107 C -0.03261 0.40283 0.56405
 C108 C -0.00388 0.39698 0.59278
 C109 C 0.02690 0.42369 0.59659
 C110 C 0.02863 0.45634 0.57236
 H111 H 0.05481 0.44063 0.48308
 H112 H 0.05787 0.38293 0.44031
 H113 H -0.04830 0.41947 0.38275
 H114 H -0.05146 0.47675 0.42557
 H115 H 0.05190 0.52198 0.42561
 H116 H 0.04846 0.57942 0.38305
 H117 H -0.05406 0.55808 0.48331
 H118 H -0.05113 0.52170 0.57615
 H119 H -0.04796 0.57911 0.61883
 H120 H 0.05781 0.61621 0.56124
 H121 H 0.05477 0.55837 0.51862
 H122 H -0.05382 0.44031 0.51840
 H123 H -0.05675 0.38255 0.56093
 H124 H 0.04926 0.41968 0.61874
 H125 H 0.05230 0.47702 0.57616
 H126 H -0.05723 0.61589 0.44073
 O127 O -0.10046 1.00156 -0.05271
 O128 O 0.10055 0.99839 -0.05246
 O129 O -0.00134 1.05254 -0.10065
 O130 O 0.00131 0.94721 -0.10058
 O131 O 0.00129 0.89956 -0.05292
 O132 O -0.00120 1.10041 -0.05305
 O133 O 0.05296 0.99827 -0.10047
 O134 O -0.05300 1.00145 -0.10061
 Zr135 Zr 0.00002 0.99995 -0.06876
 O136 O 0.03533 0.96463 -0.03525
 O137 O -0.03521 1.03543 -0.03540
 C138 C -0.08896 1.00233 -0.08876
 C139 C 0.08895 0.99742 -0.08853
 C140 C -0.00206 1.08852 -0.08909
 C141 C 0.00206 0.91128 -0.08897
 H142 H 0.05217 1.05184 -0.05191
 O143 O 0.03541 1.03530 -0.03522
 H144 H -0.05208 0.94813 -0.05197
 O145 O -0.03528 0.96474 -0.03527
 O146 O 0.10070 1.00171 0.05296
 O147 O -0.10032 0.99874 0.05270
 O148 O 0.05337 1.10048 0.00163
 O149 O 0.05293 0.89967 -0.00131
 O150 O -0.05316 0.89973 0.00162
 O151 O -0.05272 1.10053 -0.00150
 O152 O 0.00179 1.05296 0.10083
 O153 O -0.00131 0.94765 0.10089
 O154 O 0.00186 1.10063 0.05319
 O155 O -0.00150 0.89978 0.05329
 O156 O 0.10077 1.05262 0.00169
 O157 O -0.10031 1.05271 -0.00152
 O158 O -0.10053 0.94760 0.00151
 O159 O 0.10053 0.94748 -0.00125
 O160 O 0.05323 1.00186 0.10085
 O161 O -0.05274 0.99878 0.10072
 Zr162 Zr 0.06871 1.00007 0.00021
 Zr163 Zr -0.06848 1.00014 0.00003
 Zr164 Zr 0.00026 1.06891 0.00008
 Zr165 Zr -0.00004 0.93129 0.00017
 Zr166 Zr 0.00021 1.00024 0.06900
 O167 O -0.03527 0.96481 0.03555
 O168 O 0.03558 1.03554 0.03559
 C169 C 0.08920 1.00268 0.08900
 C170 C -0.08874 0.99794 0.08878
 C171 C 0.08933 1.08859 0.00249
 C172 C 0.08894 0.91153 -0.00213
 C173 C -0.08911 0.91163 0.00238
 C174 C -0.08873 1.08866 -0.00235
 C175 C 0.00267 1.08889 0.08924
 C176 C -0.00222 0.91167 0.08933
 H177 H -0.05171 1.05211 0.05209
 O178 O -0.03503 1.03549 0.03543
 H179 H 0.05209 0.94829 0.05228
 O180 O 0.03536 0.96485 0.03556
 C181 C 0.38318 1.00860 0.36629
 C182 C 0.35995 1.01065 0.33983
 C183 C 0.33107 1.01224 0.30927
 C184 C 0.32946 0.98282 0.28094
 C185 C 0.29973 0.98283 0.25284
 C186 C 0.27113 1.01226 0.25281
 C187 C 0.27336 1.04204 0.28106
 C188 C 0.30314 1.04198 0.30912
 C189 C 0.23862 1.01135 0.22401
 C190 C 0.20023 1.02040 0.23559
 C191 C 0.16947 1.01873 0.20865
 C192 C 0.17669 1.00802 0.16985
 C193 C 0.21478 0.99916 0.15800
 C194 C 0.24557 1.00078 0.18488
 C195 C 0.14513 1.00613 0.14207
 C196 C 0.11920 1.00451 0.11823
 H197 H 0.35075 0.95947 0.28102
 H198 H 0.29850 0.95925 0.23179
 H199 H 0.25207 1.06535 0.28147
 H200 H 0.30407 1.06482 0.33101
 H201 H 0.19388 1.02810 0.26563
 H202 H 0.14007 1.02559 0.21812
 H203 H 0.22068 0.99099 0.12796
 H204 H 0.27485 0.99411 0.17499
 C205 C -0.38379 0.99200 0.36348
 C206 C -0.36042 0.99032 0.33724
 C207 C -0.33139 0.98912 0.30695
 C208 C -0.30534 0.95780 0.30482
 C209 C -0.27540 0.95789 0.27708
 C210 C -0.27113 0.98939 0.25115
 C211 C -0.29784 1.02047 0.25316
 C212 C -0.32772 1.02033 0.28094
 C213 C -0.23849 0.99027 0.22266
 C214 C -0.24459 1.00396 0.18438
 C215 C -0.21367 1.00545 0.15781
 C216 C -0.17629 0.99333 0.16913
 C217 C -0.16992 0.97953 0.20708
 C218 C -0.20081 0.97799 0.23371
 C219 C -0.14464 0.99494 0.14161
 C220 C -0.11869 0.99634 0.11791
 H221 H -0.30786 0.93356 0.32492
 H222 H -0.25561 0.93333 0.27590
 H223 H -0.29500 1.04536 0.23394
 H224 H -0.34753 1.04488 0.28258
 H225 H -0.27334 1.01317 0.17487
 H226 H -0.21892 1.01602 0.12842
 H227 H -0.14106 0.97012 0.21613
 H228 H -0.19509 0.96782 0.26313
 C229 C -0.38360 1.00794 -0.36541
 C230 C -0.36030 1.00959 -0.33899
 C231 C -0.33136 1.01071 -0.30845
 C232 C -0.30638 1.04285 -0.30492
 C233 C -0.27653 1.04281 -0.27693
 C234 C -0.27127 1.01053 -0.25216
 C235 C -0.29692 0.97859 -0.25558
 C236 C -0.32672 0.97870 -0.28360
 C237 C -0.23871 1.00975 -0.22342
 C238 C -0.24444 0.99439 -0.18575
 C239 C -0.21355 0.99299 -0.15898
 C240 C -0.17656 1.00686 -0.16949
 C241 C -0.17056 1.02234 -0.20683
 C242 C -0.20143 1.02380 -0.23365
 C243 C -0.14493 1.00530 -0.14179
 C244 C -0.11897 1.00393 -0.11798
 H245 H -0.30967 1.06773 -0.32411
 H246 H -0.25757 1.06801 -0.27465
 H247 H -0.29330 0.95312 -0.23730
 H248 H -0.34570 0.95352 -0.28634
 H249 H -0.27290 0.98381 -0.17686
 H250 H -0.21853 0.98111 -0.13007
 H251 H -0.14202 1.03312 -0.21525
 H252 H -0.19597 1.03529 -0.26261
 C253 C 0.38181 0.99053 -0.36547
 C254 C 0.35868 0.98868 -0.33903
 C255 C 0.32995 0.98736 -0.30846
 C256 C 0.32749 1.01788 -0.28142
 C257 C 0.29789 1.01800 -0.25333
 C258 C 0.27028 0.98759 -0.25203
 C259 C 0.27337 0.95674 -0.27899
 C260 C 0.30301 0.95668 -0.30704
 C261 C 0.23790 0.98856 -0.22325
 C262 C 0.19978 0.97764 -0.23438
 C263 C 0.16912 0.97936 -0.20749
 C264 C 0.17617 0.99198 -0.16920
 C265 C 0.21400 1.00271 -0.15778
 C266 C 0.24469 1.00104 -0.18461
 C267 C 0.14471 0.99390 -0.14147
 C268 C 0.11886 0.99555 -0.11769
 H269 H 0.34800 1.04195 -0.28250
 H270 H 0.29598 1.04240 -0.23331
 H271 H 0.25286 0.93269 -0.27838
 H272 H 0.30461 0.93297 -0.32793
 H273 H 0.19354 0.96842 -0.26405
 H274 H 0.13992 0.97103 -0.21661
 H275 H 0.21978 1.01236 -0.12814
 H276 H 0.27378 1.00917 -0.17506
 C277 C 0.38300 1.36565 0.00880
 C278 C 0.35963 1.33938 0.01054
 C279 C 0.33063 1.30899 0.01177
 C280 C 0.33046 1.27967 -0.01671
 C281 C 0.30076 1.25163 -0.01710
 C282 C 0.27077 1.25262 0.01098
 C283 C 0.27156 1.28187 0.03986
 C284 C 0.30128 1.30989 0.04018
 C285 C 0.23833 1.22381 0.00963
 C286 C 0.22343 1.20753 0.04429
 C287 C 0.19268 1.18067 0.04290
 C288 C 0.17638 1.16979 0.00691
 C289 C 0.19095 1.18583 -0.02771
 C290 C 0.22171 1.21267 -0.02640
 C291 C 0.14515 1.14168 0.00542
 C292 C 0.11937 1.11773 0.00408
 H293 H 0.35299 1.27876 -0.03890
 H294 H 0.30126 1.22917 -0.03937
 H295 H 0.24865 1.28371 0.06157
 H296 H 0.30096 1.33266 0.06217
 H297 H 0.23589 1.21519 0.07242
 H298 H 0.18174 1.16826 0.06987
 H299 H 0.17853 1.17762 -0.05572
 H300 H 0.23212 1.22510 -0.05353
 C301 C 0.38211 0.63493 -0.00876
 C302 C 0.35845 0.66085 -0.01077
 C303 C 0.32910 0.69079 -0.01243
 C304 C 0.33245 0.72402 0.01112
 C305 C 0.30273 0.75194 0.01124
 C306 C 0.26917 0.74691 -0.01215
 C307 C 0.26635 0.71365 -0.03612
 C308 C 0.29611 0.68579 -0.03621
 C309 C 0.23692 0.77580 -0.01096
 C310 C 0.19767 0.76341 -0.01095
 C311 C 0.16731 0.79058 -0.00922
 C312 C 0.17575 0.83045 -0.00750
 C313 C 0.21467 0.84308 -0.00763
 C314 C 0.24508 0.81597 -0.00932
 C315 C 0.14457 0.85847 -0.00552
 C316 C 0.11886 0.88238 -0.00390
 H317 H 0.35773 0.72802 0.02987
 H318 H 0.30555 0.77698 0.03035
 H319 H 0.24114 0.70920 -0.05483
 H320 H 0.29318 0.66013 -0.05449
 H321 H 0.19045 0.73269 -0.01163
 H322 H 0.13728 0.78049 -0.00904
 H323 H 0.22152 0.87389 -0.00643
 H324 H 0.27495 0.82643 -0.00975
 C325 C -0.38256 0.63436 0.00731
 C326 C -0.35930 0.66075 0.00890
 C327 C -0.33045 0.69129 0.00998
 C328 C -0.30588 0.69537 0.04252
 C329 C -0.27621 0.72344 0.04254
 C330 C -0.27070 0.74779 0.00992
 C331 C -0.29592 0.74380 -0.02243
 C332 C -0.32554 0.71570 -0.02239
 C333 C -0.23834 0.77669 0.00927
 C334 C -0.24411 0.81396 -0.00683
 C335 C -0.21342 0.84086 -0.00809
 C336 C -0.17658 0.83093 0.00667
 C337 C -0.17055 0.79402 0.02289
 C338 C -0.20121 0.76705 0.02420
 C339 C -0.14510 0.85875 0.00522
 C340 C -0.11919 0.88255 0.00393
 H341 H -0.30935 0.67655 0.06769
 H342 H -0.25760 0.72615 0.06807
 H343 H -0.29212 0.76173 -0.04817
 H344 H -0.34419 0.71257 -0.04786
 H345 H -0.27245 0.82242 -0.01811
 H346 H -0.21845 0.86943 -0.02056
 H347 H -0.14212 0.78601 0.03435
 H348 H -0.19569 0.73844 0.03628
 C349 C -0.38120 1.36606 -0.00754
 C350 C -0.35789 1.33980 -0.00916
 C351 C -0.32903 1.30937 -0.01032
 C352 C -0.30309 1.30691 -0.04180
 C353 C -0.27349 1.27886 -0.04181
 C354 C -0.26944 1.25290 -0.01024
 C355 C -0.29601 1.25529 0.02103
 C356 C -0.32555 1.28338 0.02098
 C357 C -0.23721 1.22395 -0.00953
 C358 C -0.24376 1.18592 0.00433
 C359 C -0.21324 1.15892 0.00563
 C360 C -0.17578 1.16954 -0.00685
 C361 C -0.16897 1.20723 -0.02082
 C362 C -0.19946 1.23428 -0.02218
 C363 C -0.14446 1.14164 -0.00532
 C364 C -0.11867 1.11779 -0.00396
 H365 H -0.30546 1.32696 -0.06614
 H366 H -0.25383 1.27742 -0.06653
 H367 H -0.29335 1.23609 0.04599
 H368 H -0.34528 1.28524 0.04565
 H369 H -0.27257 1.17694 0.01381
 H370 H -0.21886 1.12976 0.01636
 H371 H -0.14007 1.21576 -0.03050
 H372 H -0.19336 1.26347 -0.03249
 C373 C 0.00750 1.36661 0.38308
 C374 C 0.00909 1.34043 0.35954
 C375 C 0.01016 1.31007 0.33042
 C376 C -0.02147 1.28446 0.32633
 C377 C -0.02153 1.25641 0.29663
 C378 C 0.01007 1.25364 0.27048
 C379 C 0.04194 1.27924 0.27512
 C380 C 0.04194 1.30726 0.30488
 C381 C 0.00942 1.22463 0.23813
 C382 C 0.02297 1.23467 0.20062
 C383 C 0.02172 1.20756 0.17003
 C384 C 0.00694 1.17008 0.17650
 C385 C -0.00645 1.15976 0.21372
 C386 C -0.00525 1.18681 0.24433
 C387 C 0.00553 1.14209 0.14508
 C388 C 0.00424 1.11815 0.11924
 H389 H -0.04638 1.28658 0.34573
 H390 H -0.04673 1.23751 0.29354
 H391 H 0.06692 1.27752 0.25581
 H392 H 0.06655 1.32700 0.30769
 H393 H 0.03393 1.26368 0.19475
 H394 H 0.03211 1.21589 0.14133
 H395 H -0.01781 1.13077 0.21911
 H396 H -0.01544 1.17801 0.27295
 C397 C -0.00638 1.36646 -0.38187
 C398 C -0.00793 1.34023 -0.35846
 C399 C -0.00899 1.30981 -0.32950
 C400 C -0.04115 1.30631 -0.30453
 C401 C -0.04119 1.27823 -0.27491
 C402 C -0.00897 1.25326 -0.26984
 C403 C 0.02302 1.25672 -0.29542
 C404 C 0.02300 1.28484 -0.32499
 C405 C -0.00838 1.22421 -0.23762
 C406 C 0.00705 1.18670 -0.24374
 C407 C 0.00818 1.15963 -0.21324
 C408 C -0.00604 1.16960 -0.17621
 C409 C -0.02157 1.20676 -0.16983
 C410 C -0.02276 1.23390 -0.20031
 C411 C -0.00472 1.14159 -0.14490
 C412 C -0.00351 1.11769 -0.11910
 H413 H -0.06604 1.32554 -0.30768
 H414 H -0.06646 1.27597 -0.25605
 H415 H 0.04848 1.23833 -0.29199
 H416 H 0.04820 1.28749 -0.34394
 H417 H 0.01788 1.17817 -0.27221
 H418 H 0.02012 1.13089 -0.21856
 H419 H -0.03261 1.21483 -0.14128
 H420 H -0.03432 1.26267 -0.19449
 C421 C 0.00763 0.63236 -0.38162
 C422 C 0.00924 0.65862 -0.35816
 C423 C 0.01037 0.68904 -0.32910
 C424 C -0.01794 0.71842 -0.32926
 C425 C -0.01831 0.74660 -0.29966
 C426 C 0.00965 0.74572 -0.26939
 C427 C 0.03833 0.71636 -0.26980
 C428 C 0.03862 0.68820 -0.29942
 C429 C 0.00844 0.77481 -0.23714
 C430 C 0.04318 0.79095 -0.22198
 C431 C 0.04193 0.81810 -0.19145
 C432 C 0.00601 0.82944 -0.17560
 C433 C -0.02869 0.81353 -0.19044
 C434 C -0.02752 0.78641 -0.22098
 C435 C 0.00467 0.85782 -0.14455
 C436 C 0.00348 0.88196 -0.11890
 H437 H -0.04001 0.71932 -0.35203
 H438 H -0.04043 0.76911 -0.30049
 H439 H 0.05995 0.71457 -0.24669
 H440 H 0.06049 0.66541 -0.29882
 H441 H 0.07128 0.78297 -0.23407
 H442 H 0.06897 0.83037 -0.18032
 H443 H -0.05666 0.82207 -0.17839
 H444 H -0.05473 0.77412 -0.23158
 C445 C -0.00731 0.63392 0.38224
 C446 C -0.00894 0.66005 0.35873
 C447 C -0.01011 0.69037 0.32966
 C448 C -0.04065 0.69154 0.30238
 C449 C -0.04064 0.71958 0.27273
 C450 C -0.00998 0.74684 0.26993
 C451 C 0.02034 0.74570 0.29781
 C452 C 0.02028 0.71762 0.32741
 C453 C -0.00925 0.77588 0.23771
 C454 C 0.00302 0.81442 0.24477
 C455 C 0.00429 0.84153 0.21431
 C456 C -0.00663 0.83055 0.17638
 C457 C -0.01900 0.79234 0.16905
 C458 C -0.02033 0.76517 0.19948
 C459 C -0.00512 0.85858 0.14510
 C460 C -0.00379 0.88250 0.11932
 H461 H -0.06428 0.67054 0.30377
 H462 H -0.06466 0.72000 0.25205
 H463 H 0.04462 0.76591 0.29618
 H464 H 0.04424 0.71679 0.34818
 H465 H 0.01125 0.82371 0.27393
 H466 H 0.01377 0.87108 0.22036
 H467 H -0.02746 0.78350 0.13979
 H468 H -0.02938 0.73562 0.19296
   
