data_POSCAR
  _audit_creation_date              2014-09-24
  _audit_creation_method            'ToBaCCo'
  _symmetry_space_group_name_H-M    'P1'
  _symmetry_Int_Tables_number       1
  _symmetry_cell_setting            triclinic
  loop_
  _symmetry_equiv_pos_as_xyz
 x,y,z
_cell_length_a 25.2641
_cell_length_b 24.8623
_cell_length_c 24.6749
_cell_angle_alpha 90.428700
_cell_angle_beta 89.182600
_cell_angle_gamma 89.817100
loop_
  _atom_site_label
  _atom_site_type_symbol
  _atom_site_fract_x
  _atom_site_fract_y
  _atom_site_fract_z
N1 N 0.19556 1.20382 0.21406
 N2 N 0.80252 0.82017 0.19916
 N3 N 0.78631 1.21576 -0.19158
 N4 N 0.22272 0.77531 -0.22258
 C5 C 0.56744 1.07824 -0.00941
 H6 H 0.56068 1.08146 0.03389
 C7 C 0.60763 1.10812 -0.03398
 H8 H 0.63167 1.13472 -0.00966
 C9 C 0.54655 1.03713 -0.09344
 H10 H 0.52428 1.00779 -0.11606
 C11 C 0.58645 1.06628 -0.11968
 H12 H 0.59397 1.06012 -0.16260
 N13 N 0.53789 1.04356 -0.03919
 C14 C 0.41220 1.01255 0.07917
 H15 H 0.41678 0.96948 0.08313
 C16 C 0.37272 1.03954 0.10877
 H17 H 0.34678 1.01733 0.13576
 C18 C 0.43869 1.09386 0.03713
 H19 H 0.46345 1.11450 0.00797
 C20 C 0.39948 1.12239 0.06575
 H21 H 0.39442 1.16509 0.05903
 Zn22 Zn 0.49134 0.99880 0.00065
 N23 N 0.44408 1.03988 0.04414
 C24 C 0.54238 0.96625 0.09710
 N25 N 0.53583 0.95594 0.04337
 C26 C 0.56741 0.92027 0.01607
 C27 C 0.60860 0.89439 0.04245
 C28 C 0.58365 0.94166 0.12496
 C29 C 0.42392 0.97934 -0.08671
 C30 C 0.39067 0.94931 -0.11990
 C31 C 0.40748 0.87164 -0.06440
 C32 C 0.44164 0.90277 -0.03322
 N33 N 0.44957 0.95548 -0.04515
 H34 H 0.51776 0.99593 0.11754
 H35 H 0.56204 0.91384 -0.02691
 H36 H 0.63461 0.86740 0.01988
 H37 H 0.59029 0.95199 0.16703
 H38 H 0.42917 1.02186 -0.09395
 H39 H 0.37106 0.96874 -0.15327
 H40 H 0.40021 0.83021 -0.05338
 H41 H 0.46050 0.88526 0.00155
 C42 C 0.36573 1.09486 0.10144
 C43 C 0.61799 1.10142 -0.08949
 C44 C 0.38233 0.89462 -0.10908
 C45 C 0.61824 0.90674 0.09691
 C46 C -0.02191 0.57250 1.09507
 H47 H 0.00927 0.55150 1.11569
 C48 C -0.04784 0.61524 1.12130
 H49 H -0.03791 0.62538 1.16269
 C50 C -0.07083 0.58755 1.01534
 H51 H -0.07893 0.57698 0.97368
 C52 C -0.09696 0.63120 1.03968
 H53 H -0.12542 0.65402 1.01674
 N54 N -0.03433 0.55895 1.04324
 C55 C 0.08563 0.43336 1.02812
 H56 H 0.09876 0.44225 0.98727
 C57 C 0.11327 0.39574 1.05856
 H58 H 0.14763 0.37579 1.04088
 C59 C 0.02200 0.44441 1.09877
 H60 H -0.01516 0.46126 1.11312
 C61 C 0.04914 0.40798 1.13112
 H62 H 0.03346 0.39829 1.17093
 Zn63 Zn 0.00352 0.50516 1.00374
 N64 N 0.04159 0.45788 1.04905
 C65 C 0.09875 0.55681 0.97507
 N66 N 0.05019 0.54243 0.95686
 C67 C 0.03223 0.55988 0.90834
 C68 C 0.06378 0.59290 0.87578
 C69 C 0.13182 0.58920 0.94352
 C70 C -0.09426 0.45584 0.97978
 C71 C -0.12732 0.41997 0.95267
 C72 C -0.05445 0.39758 0.89195
 C73 C -0.02269 0.43352 0.92044
 N74 N -0.04304 0.46194 0.96323
 H75 H 0.11127 0.54429 1.01476
 H76 H -0.00730 0.54957 0.89570
 H77 H 0.04837 0.60801 0.83808
 H78 H 0.17014 0.60087 0.95874
 H79 H -0.10904 0.47765 1.01495
 H80 H -0.16778 0.41459 0.96664
 H81 H -0.03771 0.37451 0.85844
 H82 H 0.01854 0.43812 0.90906
 C83 C 0.09577 0.38359 1.11128
 C84 C -0.08497 0.64587 1.09306
 C85 C -0.10732 0.39049 0.90822
 C86 C 0.11432 0.60775 0.89328
 C87 C 1.06882 -0.01897 0.59393
 H88 H 1.07175 0.02443 0.59373
 C89 C 1.10097 -0.04905 0.62794
 H90 H 1.12902 -0.02891 0.65388
 C91 C 1.02816 -0.09840 0.56102
 H92 H 0.99912 -0.11741 0.53559
 C93 C 1.05923 -0.12998 0.59478
 H94 H 1.05456 -0.17327 0.59476
 N95 N 1.03398 -0.04398 0.56066
 C96 C 1.00695 0.07080 0.43134
 H97 H 0.96412 0.07133 0.43229
 C98 C 1.03445 0.09946 0.39163
 H99 H 1.01286 0.12245 0.36203
 C100 C 1.08747 0.03854 0.46747
 H101 H 1.10794 0.01356 0.49605
 C102 C 1.11658 0.06699 0.42861
 H103 H 1.15938 0.06440 0.42780
 Zn104 Zn 0.99153 -0.00023 0.51619
 N105 N 1.03362 0.04117 0.46826
 C106 C 0.95460 0.09930 0.56035
 N107 N 0.95042 0.04478 0.56233
 C108 C 0.91834 0.02042 0.59937
 C109 C 0.88815 0.05117 0.63593
 C110 C 0.92510 0.13160 0.59625
 C111 C 0.97224 -0.07678 0.43620
 C112 C 0.94309 -0.10472 0.39765
 C113 C 0.86364 -0.06156 0.43254
 C114 C 0.89427 -0.03482 0.47094
 N115 N 0.94761 -0.04261 0.47178
 H116 H 0.98129 0.11781 0.53148
 H117 H 0.91654 -0.02302 0.60061
 H118 H 0.86308 0.03138 0.66559
 H119 H 0.92879 0.17495 0.59459
 H120 H 1.01486 -0.08103 0.43685
 H121 H 0.96327 -0.13074 0.36858
 H122 H 0.82146 -0.05393 0.43092
 H123 H 0.87570 -0.00624 0.49844
 C124 C 1.08980 0.09759 0.39017
 C125 C 1.09636 -0.10514 0.62818
 C126 C 0.88828 -0.09671 0.39530
 C127 C 0.89115 0.10743 0.63425
 C128 C 0.09312 0.29970 1.16469
 C129 C 0.11708 0.25660 1.19029
 C130 C 0.17236 0.25320 1.19423
 C131 C 0.20349 0.29746 1.17685
 C132 C 0.17886 0.34213 1.15176
 C133 C 0.12335 0.34197 1.14351
 C134 C 0.21062 0.38626 1.13712
 N135 N 0.26339 0.38512 1.14616
 N136 N 0.28646 0.34322 1.16951
 C137 C 0.25834 0.29962 1.18542
 H138 H 0.05062 0.29889 1.15948
 H139 H 0.09237 0.22377 1.20403
 H140 H 0.19397 0.42216 1.11971
 H141 H 0.27903 0.26811 1.20615
 C142 C -0.16671 0.69405 1.12135
 C143 C -0.19381 0.73638 1.14641
 C144 C -0.16667 0.77907 1.17088
 C145 C -0.11033 0.78003 1.16731
 C146 C -0.08273 0.73706 1.14091
 C147 C -0.11133 0.69310 1.11903
 C148 C -0.02727 0.74047 1.13561
 N149 N -0.00128 0.78331 1.15638
 N150 N -0.02697 0.82340 1.18132
 C151 C -0.08039 0.82343 1.18715
 H152 H -0.18924 0.66113 1.10438
 H153 H -0.23662 0.73496 1.14839
 H154 H -0.00424 0.71017 1.11428
 H155 H -0.09849 0.85833 1.20563
 C156 C -0.15589 0.30470 0.91184
 C157 C -0.18242 0.26203 0.88782
 C158 C -0.19427 0.26212 0.83215
 C159 C -0.18280 0.30949 0.80187
 C160 C -0.15475 0.35251 0.82637
 C161 C -0.14018 0.34922 0.88142
 C162 C -0.14350 0.39835 0.79525
 N163 N -0.16062 0.40143 0.74356
 N164 N -0.18860 0.36205 0.72115
 C165 C -0.20072 0.31658 0.74860
 H166 H -0.14551 0.30192 0.95420
 H167 H -0.19083 0.22708 0.91239
 H168 H -0.12223 0.43221 0.81183
 H169 H -0.22543 0.28720 0.72891
 C170 C 0.16131 0.69461 0.88880
 C171 C 0.18764 0.73527 0.86114
 C172 C 0.19978 0.73009 0.80572
 C173 C 0.18665 0.68178 0.77831
 C174 C 0.16026 0.63997 0.80666
 C175 C 0.14635 0.64717 0.86217
 C176 C 0.14969 0.59186 0.77854
 N177 N 0.16371 0.58672 0.72550
 N178 N 0.18797 0.62618 0.69883
 C179 C 0.20004 0.67343 0.72344
 H180 H 0.15099 0.70101 0.93114
 H181 H 0.19690 0.77200 0.88277
 H182 H 0.13116 0.55800 0.79832
 H183 H 0.22079 0.70353 0.70012
 C184 C 1.11876 0.10359 0.29455
 C185 C 1.14488 0.12894 0.25181
 C186 C 1.17171 0.17744 0.26008
 C187 C 1.17334 0.20014 0.31278
 C188 C 1.14691 0.17427 0.35639
 C189 C 1.11929 0.12575 0.34688
 C190 C 1.14859 0.19832 0.40808
 N191 N 1.17581 0.24469 0.41538
 N192 N 1.20132 0.26851 0.37454
 C193 C 1.20107 0.24779 0.32354
 H194 H 1.09773 0.06648 0.28676
 H195 H 1.14329 0.11134 0.21159
 H196 H 1.12856 0.18074 0.44265
 H197 H 1.22281 0.26851 0.29210
 C198 C 1.10717 -0.15904 0.71089
 C199 C 1.13755 -0.18829 0.74699
 C200 C 1.19168 -0.19761 0.73688
 C201 C 1.21499 -0.17794 0.68830
 C202 C 1.18416 -0.14744 0.65195
 C203 C 1.13000 -0.13770 0.66382
 C204 C 1.20851 -0.12830 0.60429
 N205 N 1.26017 -0.13963 0.59370
 N206 N 1.28890 -0.16899 0.62737
 C207 C 1.26804 -0.18868 0.67409
 H208 H 1.06569 -0.15197 0.72030
 H209 H 1.11892 -0.20263 0.78390
 H210 H 1.18689 -0.10487 0.57516
 H211 H 1.29290 -0.21330 0.69899
 C212 C 0.83790 -0.08592 0.31127
 C213 C 0.81659 -0.10608 0.26365
 C214 C 0.81491 -0.16167 0.25341
 C215 C 0.83004 -0.19753 0.29501
 C216 C 0.85291 -0.17690 0.34306
 C217 C 0.85825 -0.12066 0.35021
 C218 C 0.86905 -0.21339 0.38286
 N219 N 0.86144 -0.26688 0.37539
 N220 N 0.83852 -0.28615 0.33107
 C221 C 0.82227 -0.25333 0.29087
 H222 H 0.84130 -0.04275 0.31639
 H223 H 0.80459 -0.07792 0.23289
 H224 H 0.88674 -0.19984 0.42018
 H225 H 0.80205 -0.27115 0.25703
 C226 C 0.88943 0.17289 0.71000
 C227 C 0.86390 0.20038 0.75216
 C228 C 0.80868 0.19619 0.76059
 C229 C 0.77864 0.16839 0.72056
 C230 C 0.80505 0.13965 0.67811
 C231 C 0.86100 0.14058 0.67419
 C232 C 0.77436 0.11221 0.63969
 N233 N 0.72083 0.11476 0.64277
 N234 N 0.69598 0.14341 0.68119
 C235 C 0.72294 0.17074 0.71964
 H236 H 0.93221 0.17476 0.70691
 H237 H 0.88828 0.22163 0.78095
 H238 H 0.79232 0.08985 0.60645
 H239 H 0.70046 0.19546 0.74777
 C240 C 0.32424 1.13486 0.18365
 C241 C 0.28256 1.16050 0.21096
 C242 C 0.23632 1.17510 0.18384
 C243 C 0.23101 1.16059 0.12838
 C244 C 0.27394 1.13543 0.10034
 C245 C 0.32088 1.12295 0.12834
 C246 C 0.26785 1.12199 0.04528
 N247 N 0.22134 1.13199 0.02055
 N248 N 0.18046 1.15395 0.04727
 C249 C 0.18355 1.16811 0.10030
 H250 H 0.35960 1.12460 0.20570
 H251 H 0.28666 1.17024 0.25354
 H252 H 0.29932 1.10304 0.02183
 H253 H 0.14834 1.18342 0.12002
 C254 C 0.66219 1.18510 -0.11842
 C255 C 0.70403 1.21321 -0.14189
 C256 C 0.74886 1.18626 -0.16333
 C257 C 0.75285 1.12942 -0.15583
 C258 C 0.70953 1.10082 -0.13278
 C259 C 0.66362 1.12904 -0.11500
 C260 C 0.71452 1.04486 -0.12597
 N261 N 0.76042 1.01963 -0.13972
 N262 N 0.80188 1.04663 -0.15898
 C263 C 0.79996 1.10051 -0.16673
 H264 H 0.62782 1.20724 -0.10370
 H265 H 0.70026 1.25640 -0.14592
 H266 H 0.68289 1.02100 -0.10877
 H267 H 0.83599 1.12010 -0.17932
 C268 C 0.29343 0.88488 -0.14894
 C269 C 0.25476 0.85640 -0.17647
 C270 C 0.26497 0.80461 -0.19685
 C271 C 0.31592 0.78180 -0.19052
 C272 C 0.35604 0.81154 -0.16407
 C273 C 0.34409 0.86305 -0.14166
 C274 C 0.40719 0.78905 -0.16235
 N275 N 0.41656 0.73942 -0.18361
 N276 N 0.37851 0.71102 -0.20709
 C277 C 0.32861 0.73056 -0.21139
 H278 H 0.28325 0.92400 -0.13212
 H279 H 0.21586 0.87421 -0.18051
 H280 H 0.44007 0.81065 -0.14525
 H281 H 0.29972 0.70629 -0.23202
 C282 C 0.66183 0.85276 0.16782
 C283 C 0.70656 0.83160 0.19249
 C284 C 0.75739 0.84339 0.17272
 C285 C 0.76341 0.87865 0.12830
 C286 C 0.71806 0.90080 0.10360
 C287 C 0.66683 0.88663 0.12292
 C288 C 0.72570 0.93770 0.06116
 N289 N 0.77537 0.95032 0.04421
 N290 N 0.81788 0.92902 0.06710
 C291 C 0.81358 0.89385 0.10863
 H292 H 0.62298 0.84211 0.18341
 H293 H 0.70170 0.80513 0.22685
 H294 H 0.69286 0.95734 0.04179
 H295 H 0.84938 0.87882 0.12619
   
