data_POSCAR
  _audit_creation_date              2014-09-24
  _audit_creation_method            'ToBaCCo'
  _symmetry_space_group_name_H-M    'P1'
  _symmetry_Int_Tables_number       1
  _symmetry_cell_setting            triclinic
  loop_
  _symmetry_equiv_pos_as_xyz
 x,y,z
_cell_length_a 12.0837
_cell_length_b 15.9440
_cell_length_c 7.3458
_cell_angle_alpha 90.000000
_cell_angle_beta 90.000000
_cell_angle_gamma 90.000000
loop_
  _atom_site_label
  _atom_site_type_symbol
  _atom_site_fract_x
  _atom_site_fract_y
  _atom_site_fract_z
O1 O 0.29946 0.32598 0.47255
 O2 O 0.10864 0.16770 0.28825
 O3 O 0.29504 0.16009 0.45185
 O4 O 0.11163 0.33048 0.30067
 O5 O 0.20148 0.33327 0.03908
 O6 O 0.39437 0.17125 0.20161
 O7 O 0.20441 0.16807 0.03243
 O8 O 0.38814 0.33299 0.21013
 Cu9 Cu 0.19543 0.24594 0.40554
 Cu10 Cu 0.30535 0.25157 0.09361
 C11 C 0.37471 0.35747 0.37284
 C12 C 0.12560 0.13973 0.12928
 C13 C 0.37614 0.13661 0.35397
 C14 C 0.12558 0.36081 0.14272
 O15 O 0.88837 0.33048 0.30067
 O16 O 0.70496 0.16009 0.45185
 O17 O 0.89136 0.16770 0.28825
 O18 O 0.70054 0.32598 0.47255
 O19 O 0.61185 0.33299 0.21013
 O20 O 0.79559 0.16807 0.03243
 O21 O 0.60563 0.17125 0.20161
 O22 O 0.79852 0.33327 0.03908
 Cu23 Cu 0.80457 0.24594 0.40554
 Cu24 Cu 0.69465 0.25157 0.09361
 C25 C 0.87442 0.36081 0.14272
 C26 C 0.62386 0.13661 0.35397
 C27 C 0.87440 0.13973 0.12928
 C28 C 0.62529 0.35747 0.37284
 O29 O 0.70441 0.83193 0.53243
 O30 O 0.88814 0.66701 0.71013
 O31 O 0.70148 0.66673 0.53908
 O32 O 0.89437 0.82875 0.70161
 O33 O 0.79504 0.83991 0.95185
 O34 O 0.61163 0.66952 0.80067
 O35 O 0.79946 0.67402 0.97255
 O36 O 0.60864 0.83230 0.78825
 Cu37 Cu 0.80535 0.74843 0.59361
 Cu38 Cu 0.69543 0.75406 0.90554
 C39 C 0.62560 0.86027 0.62928
 C40 C 0.87471 0.64253 0.87284
 C41 C 0.62558 0.63919 0.64272
 C42 C 0.87614 0.86339 0.85397
 O43 O 0.39136 0.83230 0.78825
 O44 O 0.20054 0.67402 0.97255
 O45 O 0.38837 0.66952 0.80067
 O46 O 0.20496 0.83991 0.95185
 O47 O 0.10563 0.82875 0.70161
 O48 O 0.29852 0.66673 0.53908
 O49 O 0.11185 0.66701 0.71013
 O50 O 0.29559 0.83193 0.53243
 Cu51 Cu 0.30457 0.75406 0.90554
 Cu52 Cu 0.19465 0.74843 0.59361
 C53 C 0.37440 0.86027 0.62928
 C54 C 0.12529 0.64253 0.87284
 C55 C 0.37442 0.63919 0.64272
 C56 C 0.12386 0.86339 0.85397
 C57 C 1.05841 0.06944 0.05970
 C58 C 0.94159 0.06944 0.05970
 C59 C 0.88501 -0.00011 -0.01026
 C60 C 0.94104 -0.06879 -0.08756
 C61 C 1.05896 -0.06879 -0.08756
 C62 C 1.11499 -0.00011 -0.01026
 H63 H 1.20486 0.00012 -0.00737
 H64 H 0.79514 0.00012 -0.00737
 C65 C 0.55849 0.56731 0.58140
 C66 C 0.44150 0.56731 0.58140
 C67 C 0.38482 0.49716 0.51358
 C68 C 0.44153 0.42753 0.44382
 C69 C 0.55846 0.42753 0.44382
 C70 C 0.61518 0.49716 0.51358
 H71 H 0.70501 0.49723 0.51287
 H72 H 0.29499 0.49723 0.51287
 C73 C -0.05850 0.43269 0.08140
 C74 C 0.05849 0.43269 0.08140
 C75 C 0.11518 0.50284 0.01358
 C76 C 0.05846 0.57247 -0.05618
 C77 C -0.05847 0.57247 -0.05618
 C78 C -0.11518 0.50284 0.01358
 H79 H -0.20501 0.50277 0.01287
 H80 H 0.20501 0.50277 0.01287
 C81 C 0.44159 0.93056 0.55970
 C82 C 0.55841 0.93056 0.55970
 C83 C 0.61499 1.00011 0.48974
 C84 C 0.55896 1.06879 0.41244
 C85 C 0.44104 1.06879 0.41244
 C86 C 0.38501 1.00011 0.48974
 H87 H 0.29514 0.99988 0.49263
 H88 H 0.70486 0.99988 0.49263
   
