data_POSCAR
  _audit_creation_date              2014-09-24
  _audit_creation_method            'ToBaCCo'
  _symmetry_space_group_name_H-M    'P1'
  _symmetry_Int_Tables_number       1
  _symmetry_cell_setting            triclinic
  loop_
  _symmetry_equiv_pos_as_xyz
 x,y,z
_cell_length_a 25.5243
_cell_length_b 25.5242
_cell_length_c 47.3047
_cell_angle_alpha 90.000000
_cell_angle_beta 90.000000
_cell_angle_gamma 120.002500
loop_
  _atom_site_label
  _atom_site_type_symbol
  _atom_site_fract_x
  _atom_site_fract_y
  _atom_site_fract_z
Zn1 Zn 0.96145 0.03972 1.01257
 Zn2 Zn 1.07827 0.03857 1.01257
 Zn3 Zn 0.96029 -0.07826 1.01257
 Zn4 Zn 1.00001 0.00001 0.96125
 O5 O 1.00001 0.00001 0.99980
 O6 O 1.00947 0.10427 1.03390
 O7 O 1.09480 -0.00945 1.03391
 O8 O 0.89575 -0.09478 1.03391
 O9 O 1.09566 0.10305 1.03407
 O10 O 0.89697 -0.00738 1.03407
 O11 O 1.00739 -0.09564 1.03407
 O12 O 0.96330 -0.07438 0.94656
 O13 O 1.13302 0.06613 0.98450
 O14 O 0.93311 -0.13301 0.98450
 O15 O 1.07440 0.03769 0.94656
 O16 O 0.96233 0.03671 0.94656
 O17 O 0.93389 0.06690 0.98449
 C18 C 1.06415 0.12643 1.04162
 C19 C 1.06228 -0.06413 1.04162
 C20 C 0.87358 -0.06227 1.04162
 C21 C 0.93708 -0.12641 0.95785
 C22 C 1.12643 0.06350 0.95785
 C23 C 0.93652 0.06293 0.95784
 Zn24 Zn 0.03856 0.96030 0.51257
 Zn25 Zn -0.07826 0.96145 0.51257
 Zn26 Zn 0.03972 1.07828 0.51257
 Zn27 Zn 0.00000 1.00001 0.46125
 O28 O 0.00001 1.00001 0.49980
 O29 O -0.00946 0.89575 0.53390
 O30 O -0.09478 1.00947 0.53391
 O31 O 0.10427 1.09480 0.53391
 O32 O -0.09564 0.89697 0.53407
 O33 O 0.10304 1.00740 0.53407
 O34 O -0.00737 1.09566 0.53407
 O35 O 0.03671 1.07440 0.44656
 O36 O -0.13301 0.93389 0.48450
 O37 O 0.06690 1.13303 0.48450
 O38 O -0.07439 0.96233 0.44656
 O39 O 0.03768 0.96331 0.44656
 O40 O 0.06612 0.93312 0.48449
 C41 C -0.06414 0.87358 0.54162
 C42 C -0.06227 1.06415 0.54162
 C43 C 0.12643 1.06229 0.54162
 C44 C 0.06294 1.12643 0.45785
 C45 C -0.12641 0.93652 0.45785
 C46 C 0.06349 0.93708 0.45784
 O47 O 0.24475 0.58098 0.28245
 O48 O 0.24229 0.68066 0.27365
 C49 C 0.27996 0.72692 0.28755
 O50 O 0.33622 0.75527 0.28245
 O51 O 0.43836 0.75773 0.27366
 C52 C 0.44694 0.72006 0.28755
 O53 O 0.41903 0.66380 0.28245
 O54 O 0.31935 0.56166 0.27365
 C55 C 0.27309 0.55307 0.28755
 O56 O 0.24214 0.56169 0.22626
 O57 O 0.24473 0.66402 0.21746
 C58 C 0.27304 0.72033 0.21245
 O59 O 0.31953 0.75788 0.22626
 O60 O 0.41928 0.75529 0.21747
 C61 C 0.44728 0.72699 0.21246
 O62 O 0.43833 0.68049 0.22627
 O63 O 0.33599 0.58074 0.21747
 C64 C 0.27969 0.55274 0.21246
 Cr65 Cr 0.24686 0.62352 0.24995
 Cr66 Cr 0.37665 0.75316 0.24995
 Cr67 Cr 0.37649 0.62338 0.24995
 O68 O 0.33333 0.66668 0.24992
 O69 O 0.75527 0.41904 0.78245
 O70 O 0.75772 0.31935 0.77365
 C71 C 0.72005 0.27309 0.78755
 O72 O 0.66380 0.24475 0.78245
 O73 O 0.56165 0.24229 0.77366
 C74 C 0.55307 0.27996 0.78755
 O75 O 0.58098 0.33621 0.78245
 O76 O 0.68066 0.43836 0.77365
 C77 C 0.72692 0.44695 0.78755
 O78 O 0.75787 0.43833 0.72626
 O79 O 0.75529 0.33600 0.71747
 C80 C 0.72698 0.27969 0.71245
 O81 O 0.68048 0.24214 0.72626
 O82 O 0.58073 0.24472 0.71747
 C83 C 0.55273 0.27303 0.71246
 O84 O 0.56168 0.31953 0.72627
 O85 O 0.66402 0.41928 0.71747
 C86 C 0.72033 0.44728 0.71246
 Cr87 Cr 0.75315 0.37650 0.74995
 Cr88 Cr 0.62337 0.24686 0.74995
 Cr89 Cr 0.62352 0.37664 0.74995
 O90 O 0.66668 0.33333 0.74992
 N91 N 0.17405 0.25213 0.08595
 C92 C 0.14117 0.27749 0.09471
 N93 N 0.08315 0.25355 0.08582
 N94 N 0.05871 0.20567 0.06870
 C95 C 0.09148 0.18007 0.05994
 N96 N 0.14963 0.20425 0.06884
 C97 C 0.16678 0.32779 0.11389
 C98 C 0.18770 0.36935 0.13040
 C99 C 0.21172 0.41786 0.15056
 N100 N 0.17408 0.43110 0.16514
 N101 N 0.19592 0.47464 0.18461
 C102 C 0.25617 0.50643 0.19018
 N103 N 0.29382 0.49322 0.17546
 N104 N 0.27194 0.44964 0.15599
 N105 N 0.74789 0.92194 0.08595
 C106 C 0.72253 0.86370 0.09471
 N107 N 0.74646 0.82961 0.08582
 N108 N 0.79434 0.85306 0.06871
 C109 C 0.81995 0.91142 0.05994
 N110 N 0.79577 0.94540 0.06884
 C111 C 0.67222 0.83902 0.11389
 C112 C 0.63067 0.81839 0.13040
 C113 C 0.58216 0.79389 0.15057
 N114 N 0.56892 0.74302 0.16514
 N115 N 0.52538 0.72132 0.18461
 C116 C 0.49359 0.74978 0.19018
 N117 N 0.50681 0.80064 0.17547
 N118 N 0.55039 0.82235 0.15599
 N119 N 0.07807 0.82597 0.08596
 C120 C 0.13631 0.85885 0.09472
 N121 N 0.17040 0.91687 0.08583
 N122 N 0.14695 0.94131 0.06871
 C123 C 0.08859 0.90854 0.05994
 N124 N 0.05461 0.85039 0.06884
 C125 C 0.16100 0.83324 0.11390
 C126 C 0.18163 0.81231 0.13041
 C127 C 0.20613 0.78829 0.15057
 N128 N 0.25701 0.82594 0.16514
 N129 N 0.27870 0.80409 0.18461
 C130 C 0.25024 0.74385 0.19018
 N131 N 0.19938 0.70619 0.17546
 N132 N 0.17767 0.72807 0.15599
 N133 N 0.82596 0.74789 0.58596
 C134 C 0.85885 0.72253 0.59471
 N135 N 0.91687 0.74647 0.58582
 N136 N 0.94130 0.79435 0.56870
 C137 C 0.90854 0.81995 0.55994
 N138 N 0.85038 0.79577 0.56884
 C139 C 0.83323 0.67222 0.61389
 C140 C 0.81231 0.63067 0.63040
 C141 C 0.78829 0.58216 0.65056
 N142 N 0.82593 0.56892 0.66514
 N143 N 0.80409 0.52538 0.68461
 C144 C 0.74384 0.49359 0.69018
 N145 N 0.70619 0.50680 0.67547
 N146 N 0.72807 0.55038 0.65599
 N147 N 0.25355 0.17041 0.58582
 C148 C 0.27748 0.13632 0.59471
 N149 N 0.25213 0.07808 0.58595
 N150 N 0.20424 0.05462 0.56884
 C151 C 0.18007 0.08859 0.55994
 N152 N 0.20567 0.14696 0.56871
 C153 C 0.32779 0.16100 0.61389
 C154 C 0.36934 0.18163 0.63040
 C155 C 0.41786 0.20613 0.65057
 N156 N 0.44962 0.17767 0.65599
 N157 N 0.49321 0.19938 0.67547
 C158 C 0.50642 0.25024 0.69018
 N159 N 0.47464 0.27870 0.68461
 N160 N 0.43110 0.25700 0.66514
 N161 N 0.92194 0.17405 0.58596
 C162 C 0.86370 0.14117 0.59472
 N163 N 0.82961 0.08314 0.58583
 N164 N 0.85306 0.05871 0.56871
 C165 C 0.91143 0.09148 0.55994
 N166 N 0.94540 0.14963 0.56884
 C167 C 0.83901 0.16678 0.61390
 C168 C 0.81838 0.18770 0.63041
 C169 C 0.79389 0.21172 0.65057
 N170 N 0.74301 0.17408 0.66514
 N171 N 0.72131 0.19593 0.68461
 C172 C 0.74977 0.25617 0.69018
 N173 N 0.80063 0.29382 0.67546
 N174 N 0.82234 0.27195 0.65599
 N175 N 0.22138 0.11321 0.89404
 C176 C 0.27794 0.14139 0.90508
 N177 N 0.28491 0.14399 0.93357
 N178 N 0.23666 0.11916 0.95049
 C179 C 0.17991 0.09088 0.93945
 N180 N 0.17320 0.08841 0.91092
 C181 C 0.32947 0.16760 0.88665
 C182 C 0.37150 0.18872 0.87041
 C183 C 0.42003 0.21266 0.85028
 N184 N 0.45153 0.27281 0.84467
 N185 N 0.49456 0.29448 0.82492
 C186 C 0.50737 0.25668 0.81009
 N187 N 0.47586 0.19652 0.81586
 N188 N 0.43289 0.17488 0.83559
 N189 N 0.85910 0.71510 0.93357
 C190 C 0.86348 0.72208 0.90508
 N191 N 0.89186 0.77864 0.89404
 N192 N 0.91523 0.82682 0.91092
 C193 C 0.91099 0.82011 0.93945
 N194 N 0.88251 0.76336 0.95049
 C195 C 0.83816 0.67054 0.88665
 C196 C 0.81725 0.62851 0.87041
 C197 C 0.79267 0.57999 0.85028
 N198 N 0.74202 0.56712 0.83559
 N199 N 0.72069 0.52415 0.81586
 C200 C 0.74935 0.49265 0.81009
 N201 N 0.79996 0.50546 0.82492
 N202 N 0.82131 0.54849 0.84466
 N203 N 0.88680 0.10816 0.89403
 C204 C 0.85862 0.13653 0.90507
 N205 N 0.85602 0.14091 0.93356
 N206 N 0.88086 0.11750 0.95048
 C207 C 0.90914 0.08903 0.93944
 N208 N 0.91161 0.08479 0.91092
 C209 C 0.83241 0.16185 0.88664
 C210 C 0.81129 0.18277 0.87041
 C211 C 0.78735 0.20735 0.85027
 N212 N 0.82513 0.25799 0.83559
 N213 N 0.80349 0.27933 0.81585
 C214 C 0.74333 0.25067 0.81008
 N215 N 0.70553 0.20005 0.82491
 N216 N 0.72720 0.17870 0.84466
 N217 N 0.77864 0.88681 0.39404
 C218 C 0.72208 0.85863 0.40508
 N219 N 0.71510 0.85603 0.43357
 N220 N 0.76335 0.88086 0.45049
 C221 C 0.82011 0.90914 0.43945
 N222 N 0.82681 0.91162 0.41092
 C223 C 0.67054 0.83242 0.38665
 C224 C 0.62851 0.81130 0.37042
 C225 C 0.57998 0.78736 0.35028
 N226 N 0.56712 0.82514 0.33559
 N227 N 0.52415 0.80350 0.31586
 C228 C 0.49264 0.74334 0.31009
 N229 N 0.50546 0.70554 0.32492
 N230 N 0.54848 0.72721 0.34467
 N231 N 0.14091 0.28491 0.43357
 C232 C 0.13653 0.27794 0.40508
 N233 N 0.10816 0.22138 0.39404
 N234 N 0.08479 0.17320 0.41092
 C235 C 0.08903 0.17991 0.43945
 N236 N 0.11750 0.23666 0.45049
 C237 C 0.16185 0.32947 0.38665
 C238 C 0.18277 0.37151 0.37041
 C239 C 0.20735 0.42003 0.35028
 N240 N 0.25799 0.43290 0.33559
 N241 N 0.27933 0.47587 0.31586
 C242 C 0.25067 0.50737 0.31009
 N243 N 0.20005 0.49455 0.32492
 N244 N 0.17870 0.45153 0.34466
 N245 N 0.14399 0.85911 0.43356
 C246 C 0.14139 0.86348 0.40507
 N247 N 0.11321 0.89186 0.39403
 N248 N 0.08840 0.91523 0.41092
 C249 C 0.09088 0.91099 0.43944
 N250 N 0.11915 0.88252 0.45048
 C251 C 0.16760 0.83816 0.38664
 C252 C 0.18872 0.81725 0.37041
 C253 C 0.21266 0.79267 0.35027
 N254 N 0.17488 0.74202 0.33559
 N255 N 0.19652 0.72068 0.31585
 C256 C 0.25668 0.74935 0.31008
 N257 N 0.29448 0.79996 0.32491
 N258 N 0.27281 0.82132 0.34466
   
