data_POSCAR
  _audit_creation_date              2014-09-24
  _audit_creation_method            'ToBaCCo'
  _symmetry_space_group_name_H-M    'P1'
  _symmetry_Int_Tables_number       1
  _symmetry_cell_setting            triclinic
  loop_
  _symmetry_equiv_pos_as_xyz
 x,y,z
_cell_length_a 40.8568
_cell_length_b 40.5481
_cell_length_c 42.5812
_cell_angle_alpha 90.096700
_cell_angle_beta 90.082600
_cell_angle_gamma 120.781700
loop_
  _atom_site_label
  _atom_site_type_symbol
  _atom_site_fract_x
  _atom_site_fract_y
  _atom_site_fract_z
C1 C -0.00218 0.49145 1.33569
 C2 C 0.03338 0.51433 1.32118
 C3 C 0.03410 0.52140 1.28869
 C4 C 0.00058 0.50279 1.27022
 C5 C -0.03440 0.47936 1.28580
 C6 C -0.03647 0.47474 1.31862
 C7 C 0.00202 0.50634 1.23482
 C8 C -0.03133 0.49569 1.21722
 C9 C -0.03134 0.49485 1.18428
 C10 C 0.00319 0.50830 1.16838
 C11 C 0.03723 0.52104 1.18504
 C12 C 0.03625 0.51890 1.21801
 H13 H -0.00315 0.48969 1.36104
 H14 H 0.06117 0.53998 1.27772
 H15 H -0.06030 0.46279 1.27250
 H16 H -0.05787 0.48786 1.22867
 H17 H 0.00352 0.50854 1.14294
 H18 H 0.06240 0.52615 1.22997
 C19 C 0.49476 0.49624 1.33655
 C20 C 0.47408 0.50964 1.31990
 C21 C 0.47468 0.50876 1.28686
 C22 C 0.49734 0.49752 1.27034
 C23 C 0.51812 0.48481 1.28799
 C24 C 0.51665 0.48337 1.32108
 C25 C 0.49978 0.49992 1.23493
 C26 C 0.51318 0.47955 1.21743
 C27 C 0.51741 0.48355 1.18469
 C28 C 0.50532 0.50563 1.16877
 C29 C 0.49022 0.52477 1.18518
 C30 C 0.48908 0.52309 1.21814
 H31 H 0.49401 0.49601 1.36188
 H32 H 0.45594 0.51539 1.27413
 H33 H 0.53744 0.47811 1.27633
 H34 H 0.52094 0.46077 1.22884
 H35 H 0.50655 0.50680 1.14335
 H36 H 0.48019 0.54058 1.23026
 C37 C 0.49997 0.99458 1.33075
 C38 C 0.48041 0.96100 1.31296
 C39 C 0.48068 0.96327 1.28021
 C40 C 0.50348 0.99863 1.26474
 C41 C 0.52461 1.03201 1.28341
 C42 C 0.52122 1.03073 1.31644
 C43 C 0.50448 1.00070 1.22942
 C44 C 0.51553 1.03551 1.21371
 C45 C 0.51644 1.03752 1.18084
 C46 C 0.50377 1.00399 1.16318
 C47 C 0.49190 0.96887 1.17801
 C48 C 0.49369 0.96770 1.21089
 H49 H 0.49914 0.99205 1.35609
 H50 H 0.46326 0.93703 1.26726
 H51 H 0.54232 1.05934 1.27229
 H52 H 0.52294 1.06141 1.22654
 H53 H 0.50419 1.00541 1.13776
 H54 H 0.48597 0.94061 1.22166
 C55 C 0.99955 0.49865 0.66570
 C56 C 0.96524 0.47763 0.68204
 C57 C 0.96576 0.47721 0.71491
 C58 C 0.99976 0.50046 0.73188
 C59 C 1.03368 0.52307 0.71466
 C60 C 1.03443 0.52095 0.68158
 C61 C 0.99987 0.50097 0.76728
 C62 C 1.03371 0.51252 0.78455
 C63 C 1.03409 0.51426 0.81748
 C64 C 0.99984 0.50137 0.83355
 C65 C 0.96562 0.48828 0.81725
 C66 C 0.96604 0.48967 0.78432
 H67 H 0.99854 0.49841 0.64029
 H68 H 0.93920 0.45903 0.72687
 H69 H 1.05990 0.54123 0.72704
 H70 H 1.06016 0.52061 0.77281
 H71 H 0.99979 0.50143 0.85901
 H72 H 0.93957 0.48128 0.77238
 C73 C 0.50843 0.50738 0.66315
 C74 C 0.52110 0.48581 0.67914
 C75 C 0.51756 0.48248 0.71195
 C76 C 0.50424 0.50294 0.72939
 C77 C 0.49316 0.52566 0.71261
 C78 C 0.49337 0.52648 0.67969
 C79 C 0.50183 0.50073 0.76469
 C80 C 0.47899 0.51170 0.78136
 C81 C 0.47833 0.51189 0.81430
 C82 C 0.49836 0.49803 0.83098
 C83 C 0.51989 0.48531 0.81511
 C84 C 0.52252 0.48793 0.78227
 H85 H 0.50900 0.50803 0.63772
 H86 H 0.52566 0.46401 0.72344
 H87 H 0.48438 0.54325 0.72472
 H88 H 0.46105 0.51987 0.76916
 H89 H 0.49733 0.49724 0.85640
 H90 H 0.54150 0.48049 0.77096
 C91 C 0.50089 -0.00017 0.66800
 C92 C 0.51281 0.03400 0.68452
 C93 C 0.51141 0.03336 0.71739
 C94 C 0.50004 -0.00075 0.73436
 C95 C 0.48826 -0.03484 0.71701
 C96 C 0.48768 -0.03523 0.68381
 C97 C 0.50069 -0.00052 0.76984
 C98 C 0.47899 -0.03461 0.78736
 C99 C 0.47884 -0.03440 0.82057
 C100 C 0.49993 0.00117 0.83618
 C101 C 0.52164 0.03531 0.81945
 C102 C 0.52271 0.03411 0.78662
 H103 H 0.50087 0.00078 0.64261
 H104 H 0.51879 0.05982 0.72930
 H105 H 0.48130 -0.06097 0.72913
 H106 H 0.46031 -0.06126 0.77536
 H107 H 0.50059 0.00261 0.86157
 H108 H 0.54139 0.06064 0.77457
 O109 O 0.38621 0.66355 0.95985
 O110 O 0.38886 0.72854 0.96950
 C111 C 0.36395 0.73397 0.95648
 O112 O 0.32906 0.71541 0.96400
 O113 O 0.26614 0.65112 0.97655
 C114 C 0.26024 0.62172 0.96090
 O115 O 0.27862 0.60473 0.96572
 O116 O 0.34201 0.60445 0.97394
 C117 C 0.36918 0.62749 0.95627
 O118 O 0.39343 0.65584 1.02221
 O119 O 0.39298 0.71935 1.03183
 C120 C 0.37567 0.73692 1.03870
 O121 O 0.34465 0.72957 1.02555
 O122 O 0.28305 0.66448 1.03851
 C123 C 0.26460 0.62881 1.04403
 O124 O 0.26933 0.60503 1.02815
 O125 O 0.33519 0.60954 1.03633
 C126 C 0.37113 0.62777 1.03973
 Cr127 Cr 0.38830 0.69072 0.99595
 Cr128 Cr 0.30673 0.68907 1.00110
 Cr129 Cr 0.30734 0.60804 1.00099
 O130 O 0.33417 0.66275 0.99930
 O131 O 0.61338 0.33648 0.96283
 O132 O 0.61218 0.27255 0.97228
 C133 C 0.63635 0.26654 0.95874
 O134 O 0.67142 0.28439 0.96593
 O135 O 0.73468 0.34983 0.97543
 C136 C 0.74003 0.37902 0.95988
 O137 O 0.72192 0.39618 0.96526
 O138 O 0.65865 0.39612 0.97463
 C139 C 0.63036 0.37232 0.95823
 O140 O 0.60950 0.34547 1.02548
 O141 O 0.61085 0.28260 1.03459
 C142 C 0.62953 0.26660 1.04186
 O143 O 0.66034 0.27413 1.02837
 O144 O 0.72226 0.33994 1.03803
 C145 C 0.74005 0.37576 1.04306
 O146 O 0.73370 0.39853 1.02743
 O147 O 0.66801 0.39392 1.03678
 C148 C 0.63235 0.37485 1.04163
 Cr149 Cr 0.61364 0.31045 0.99887
 Cr150 Cr 0.69609 0.31314 1.00187
 Cr151 Cr 0.69450 0.39396 1.00102
 O152 O 0.66803 0.33903 1.00060
 O153 O 0.66897 0.38774 0.53560
 O154 O 0.73209 0.38685 0.52663
 C155 C 0.73600 0.36224 0.54201
 O156 O 0.71641 0.32660 0.53625
 O157 O 0.65231 0.26357 0.52501
 C158 C 0.62274 0.25829 0.53930
 O159 O 0.60600 0.27650 0.53267
 O160 O 0.60932 0.34190 0.52401
 C161 C 0.63327 0.37057 0.54025
 O162 O 0.66098 0.39155 0.47347
 O163 O 0.72174 0.38684 0.46409
 C164 C 0.73799 0.36783 0.45877
 O165 O 0.73050 0.33794 0.47418
 O166 O 0.66491 0.27605 0.46275
 C167 C 0.62979 0.25977 0.45596
 O168 O 0.60690 0.26701 0.47025
 O169 O 0.61248 0.33356 0.46130
 C170 C 0.63166 0.36960 0.45720
 Cr171 Cr 0.69481 0.38607 0.49991
 Cr172 Cr 0.69002 0.30218 0.49949
 Cr173 Cr 0.61083 0.30577 0.49710
 O174 O 0.66515 0.33128 0.49891
 O175 O 0.33407 0.61361 0.53877
 O176 O 0.26879 0.60999 0.53005
 C177 C 0.26358 0.63425 0.54461
 O178 O 0.28180 0.66967 0.53813
 O179 O 0.34447 0.73359 0.52588
 C180 C 0.37517 0.74046 0.53942
 O181 O 0.39287 0.72328 0.53248
 O182 O 0.39234 0.65899 0.52405
 C183 C 0.37003 0.63125 0.54173
 O184 O 0.34045 0.60679 0.47658
 O185 O 0.27739 0.60755 0.46792
 C186 C 0.25990 0.62514 0.46174
 O187 O 0.26659 0.65570 0.47592
 O188 O 0.33010 0.71879 0.46362
 C189 C 0.36490 0.73593 0.45598
 O190 O 0.38924 0.73086 0.47026
 O191 O 0.38533 0.66527 0.46164
 C192 C 0.36773 0.62908 0.45867
 Cr193 Cr 0.30626 0.61163 0.50325
 Cr194 Cr 0.30681 0.69342 0.50087
 Cr195 Cr 0.38783 0.69353 0.49725
 O196 O 0.33361 0.66630 0.50054
 C197 C 0.42150 0.55960 0.37093
 C198 C 0.43410 0.57198 0.34025
 C199 C 0.45012 0.55450 0.32289
 C200 C 0.45429 0.52490 0.33607
 C201 C 0.43964 0.51251 0.36656
 N202 N 0.42394 0.52983 0.38278
 C203 C 0.40614 0.57813 0.39120
 N204 N 0.38135 0.55703 0.41438
 C205 C 0.36790 0.57245 0.43538
 C206 C 0.38019 0.61173 0.43434
 C207 C 0.40564 0.63408 0.41054
 C208 C 0.41854 0.61738 0.38885
 H209 H 0.46119 0.56597 0.29985
 H210 H 0.43981 0.48856 0.37751
 H211 H 0.34844 0.55412 0.45339
 H212 H 0.41593 0.66451 0.40894
 H213 H 0.43187 0.59504 0.32975
 H214 H 0.43903 0.63535 0.37128
 C215 C 0.42423 0.85582 0.36392
 C216 C 0.40407 0.86215 0.34021
 C217 C 0.42251 0.89612 0.32279
 C218 C 0.46070 0.92356 0.32915
 C219 C 0.48004 0.91550 0.35224
 N220 N 0.46159 0.88241 0.36879
 C221 C 0.40656 0.82191 0.38465
 N222 N 0.42996 0.81271 0.40009
 C223 C 0.41703 0.78451 0.42191
 C224 C 0.37831 0.76405 0.43002
 C225 C 0.35337 0.77241 0.41395
 C226 C 0.36736 0.80130 0.39124
 H227 H 0.40680 0.90139 0.30497
 H228 H 0.50973 0.93571 0.35737
 H229 H 0.43732 0.77897 0.43350
 H230 H 0.32329 0.75738 0.41949
 H231 H 0.37457 0.84135 0.33511
 H232 H 0.34788 0.80832 0.38013
 C233 C 0.13372 0.55926 0.37583
 C234 C 0.10212 0.52354 0.38330
 C235 C 0.06916 0.50891 0.36527
 C236 C 0.06732 0.52938 0.33923
 C237 C 0.10026 0.56493 0.33224
 N238 N 0.13183 0.57904 0.35079
 C239 C 0.16812 0.57627 0.39577
 N240 N 0.18595 0.61422 0.40335
 C241 C 0.21584 0.63068 0.42374
 C242 C 0.22938 0.60856 0.43774
 C243 C 0.21224 0.56972 0.42928
 C244 C 0.18155 0.55347 0.40847
 H245 H 0.04555 0.48082 0.37134
 H246 H 0.10049 0.58257 0.31313
 H247 H 0.22865 0.66088 0.42929
 H248 H 0.22184 0.55163 0.43941
 H249 H 0.10254 0.50734 0.40333
 H250 H 0.16825 0.52331 0.40255
 C251 C 0.57333 0.43943 0.37435
 C252 C 0.56943 0.46932 0.38653
 C253 C 0.55123 0.48413 0.36886
 C254 C 0.53694 0.46969 0.33860
 C255 C 0.54255 0.44026 0.32699
 N256 N 0.55965 0.42565 0.34510
 C257 C 0.59088 0.42208 0.39345
 N258 N 0.57528 0.38326 0.39368
 C259 C 0.58843 0.36575 0.41298
 C260 C 0.61892 0.38766 0.43365
 C261 C 0.63621 0.42781 0.43272
 C262 C 0.62228 0.44502 0.41280
 H263 H 0.54954 0.50778 0.37882
 H264 H 0.53156 0.42733 0.30425
 H265 H 0.57453 0.33476 0.41265
 H266 H 0.65995 0.44604 0.44799
 H267 H 0.57965 0.48070 0.40984
 H268 H 0.63572 0.47599 0.41279
 C269 C 0.56704 0.13193 0.37108
 C270 C 0.53410 0.09865 0.38097
 C271 C 0.51949 0.06535 0.36315
 C272 C 0.53727 0.06464 0.33499
 C273 C 0.57052 0.09898 0.32601
 N274 N 0.58459 0.13108 0.34423
 C275 C 0.58314 0.16728 0.39009
 N276 N 0.62149 0.18908 0.39457
 C277 C 0.63733 0.21978 0.41442
 C278 C 0.61403 0.22968 0.43135
 C279 C 0.57461 0.20855 0.42579
 C280 C 0.55914 0.17745 0.40526
 H281 H 0.49312 0.04073 0.37100
 H282 H 0.58631 0.10018 0.30526
 H283 H 0.66792 0.23563 0.41767
 H284 H 0.55550 0.21529 0.43798
 H285 H 0.51982 0.09820 0.40252
 H286 H 0.52859 0.16112 0.40168
 C287 C 0.86038 0.42280 0.36960
 C288 C 0.86195 0.43901 0.34018
 C289 C 0.89548 0.45468 0.32259
 C290 C 0.92793 0.45494 0.33440
 C291 C 0.92411 0.43661 0.36344
 N292 N 0.89111 0.42137 0.37988
 C293 C 0.82671 0.40765 0.39027
 N294 N 0.82075 0.38005 0.41144
 C295 C 0.79214 0.36637 0.43279
 C296 C 0.76782 0.38130 0.43429
 C297 C 0.77331 0.40975 0.41263
 C298 C 0.80259 0.42289 0.39050
 H299 H 0.89638 0.46859 0.30067
 H300 H 0.94702 0.43374 0.37310
 H301 H 0.78910 0.34451 0.44906
 H302 H 0.75525 0.42210 0.41299
 H303 H 0.83775 0.43989 0.33087
 H304 H 0.80705 0.44561 0.37461
 C305 C 0.56712 0.43138 1.13074
 C306 C 0.53912 0.40929 1.15313
 C307 C 0.52316 0.42631 1.17120
 C308 C 0.53484 0.46507 1.16681
 C309 C 0.56341 0.48626 1.14468
 N310 N 0.57866 0.46917 1.12753
 C311 C 0.58406 0.41482 1.11000
 N312 N 0.61986 0.43817 1.09867
 C313 C 0.63639 0.42571 1.07782
 C314 C 0.61616 0.38789 1.06642
 C315 C 0.57930 0.36324 1.07797
 C316 C 0.56324 0.37649 1.09983
 H317 H 0.50124 0.40909 1.18813
 H318 H 0.57360 0.51641 1.14102
 H319 H 0.66479 0.44574 1.06943
 H320 H 0.56267 0.33384 1.06977
 H321 H 0.52979 0.37935 1.15680
 H322 H 0.53436 0.35732 1.10764
 C323 C 0.86534 0.44239 1.13058
 C324 C 0.86701 0.42551 1.15884
 C325 C 0.90041 0.44318 1.17667
 C326 C 0.93219 0.47766 1.16656
 C327 C 0.92898 0.49416 1.13864
 N328 N 0.89613 0.47639 1.12164
 C329 C 0.83131 0.42415 1.10995
 N330 N 0.82507 0.44669 1.09015
 C331 C 0.79556 0.43198 1.06944
 C332 C 0.77046 0.39211 1.06727
 C333 C 0.77626 0.36829 1.08754
 C334 C 0.80653 0.38415 1.10890
 H335 H 0.90170 0.42935 1.19799
 H336 H 0.95260 0.52101 1.13025
 H337 H 0.79236 0.45147 1.05417
 H338 H 0.75779 0.33740 1.08657
 H339 H 0.84290 0.39903 1.16721
 H340 H 0.81107 0.36508 1.12357
 C341 C 0.56574 0.14292 1.13035
 C342 C 0.58453 0.14010 1.15691
 C343 C 0.56769 0.10611 1.17412
 C344 C 0.53236 0.07496 1.16481
 C345 C 0.51390 0.07941 1.13879
 N346 N 0.53081 0.11284 1.12243
 C347 C 0.58353 0.17703 1.10993
 N348 N 0.56090 0.18715 1.09434
 C349 C 0.57516 0.21660 1.07348
 C350 C 0.61424 0.23695 1.06654
 C351 C 0.63810 0.22709 1.08245
 C352 C 0.62292 0.19735 1.10429
 H353 H 0.58282 0.10369 1.19405
 H354 H 0.48637 0.05614 1.13119
 H355 H 0.55577 0.22315 1.06155
 H356 H 0.66840 0.24206 1.07773
 H357 H 0.61202 0.16374 1.16417
 H358 H 0.64161 0.18942 1.11565
 C359 C 0.43878 0.57513 1.13073
 C360 C 0.42150 0.55596 1.15880
 C361 C 0.43897 0.54072 1.17709
 C362 C 0.47372 0.54464 1.16771
 C363 C 0.49086 0.56549 1.14024
 N364 N 0.47318 0.57985 1.12269
 C365 C 0.42037 0.58948 1.10909
 N366 N 0.44245 0.61766 1.08829
 C367 C 0.42753 0.63090 1.06657
 C368 C 0.38793 0.61510 1.06444
 C369 C 0.36462 0.58608 1.08571
 C370 C 0.38064 0.57323 1.10799
 H371 H 0.42463 0.52476 1.19804
 H372 H 0.51801 0.56989 1.13245
 H373 H 0.44665 0.65324 1.05062
 H374 H 0.33393 0.57290 1.08488
 H375 H 0.39473 0.55246 1.16660
 H376 H 0.36184 0.54996 1.12334
 C377 C 0.14110 0.56861 1.13272
 C378 C 0.14006 0.58661 1.16063
 C379 C 0.10646 0.57057 1.17810
 C380 C 0.07388 0.53673 1.16790
 C381 C 0.07649 0.51904 1.14042
 N382 N 0.10949 0.53517 1.12381
 C383 C 0.17517 0.58512 1.11224
 N384 N 0.17978 0.56131 1.09256
 C385 C 0.20885 0.57444 1.07160
 C386 C 0.23513 0.61397 1.06895
 C387 C 0.23116 0.63906 1.08921
 C388 C 0.20137 0.62480 1.11088
 H389 H 0.10565 0.58513 1.19918
 H390 H 0.05226 0.49253 1.13204
 H391 H 0.21064 0.55401 1.05640
 H392 H 0.25062 0.66977 1.08790
 H393 H 0.16479 0.61269 1.16898
 H394 H 0.19820 0.64488 1.12544
 C395 C 0.44507 0.86591 1.12323
 C396 C 0.47079 0.87181 1.14760
 C397 C 0.48637 0.90548 1.16546
 C398 C 0.47645 0.93322 1.15908
 C399 C 0.45053 0.92607 1.13468
 N400 N 0.43565 0.89309 1.11775
 C401 C 0.42725 0.83100 1.10337
 N402 N 0.39441 0.82160 1.08793
 C403 C 0.37694 0.79116 1.06804
 C404 C 0.39294 0.76827 1.06221
 C405 C 0.42668 0.77720 1.07807
 C406 C 0.44391 0.80847 1.09864
 H407 H 0.50629 0.90993 1.18410
 H408 H 0.44160 0.94639 1.12936
 H409 H 0.35104 0.78550 1.05632
 H410 H 0.44016 0.76048 1.07417
 H411 H 0.47839 0.85060 1.15328
 H412 H 0.47051 0.81544 1.10976
 C413 C 0.57025 0.43183 0.62684
 C414 C 0.54293 0.41077 0.64996
 C415 C 0.52697 0.42835 0.66724
 C416 C 0.53801 0.46670 0.66142
 C417 C 0.56582 0.48688 0.63848
 N418 N 0.58110 0.46924 0.62208
 C419 C 0.58697 0.41432 0.60694
 N420 N 0.62265 0.43698 0.59510
 C421 C 0.63877 0.42331 0.57495
 C422 C 0.61817 0.38496 0.56483
 C423 C 0.58150 0.36105 0.57699
 C424 C 0.56590 0.37552 0.59812
 H425 H 0.50563 0.41185 0.68479
 H426 H 0.57553 0.51671 0.63371
 H427 H 0.66702 0.44276 0.56596
 H428 H 0.56460 0.33129 0.56975
 H429 H 0.53415 0.38119 0.65485
 H430 H 0.53710 0.35685 0.60635
 C431 C 0.55963 0.13715 0.63063
 C432 C 0.57893 0.13602 0.65755
 C433 C 0.56293 0.10282 0.67581
 C434 C 0.52792 0.07069 0.66722
 C435 C 0.50889 0.07348 0.64079
 N436 N 0.52498 0.10617 0.62339
 C437 C 0.57689 0.17039 0.60909
 N438 N 0.55407 0.17999 0.59307
 C439 C 0.56813 0.20884 0.57155
 C440 C 0.60715 0.22903 0.56438
 C441 C 0.63111 0.21959 0.58066
 C442 C 0.61619 0.19056 0.60313
 H443 H 0.57849 0.10176 0.69603
 H444 H 0.48154 0.04948 0.63372
 H445 H 0.54869 0.21510 0.55934
 H446 H 0.66139 0.23446 0.57582
 H447 H 0.60622 0.16037 0.66429
 H448 H 0.63505 0.18309 0.61481
 C449 C 0.86108 0.42167 0.62948
 C450 C 0.86631 0.40178 0.65416
 C451 C 0.90017 0.41992 0.67159
 C452 C 0.92874 0.45763 0.66440
 C453 C 0.92203 0.47660 0.63998
 N454 N 0.88895 0.45847 0.62348
 C455 C 0.82652 0.40448 0.60945
 N456 N 0.81911 0.42855 0.59278
 C457 C 0.78969 0.41567 0.57215
 C458 C 0.76579 0.37616 0.56671
 C459 C 0.77244 0.35065 0.58399
 C460 C 0.80271 0.36464 0.60536
 H461 H 0.90424 0.40437 0.69036
 H462 H 0.94297 0.50598 0.63412
 H463 H 0.78573 0.43647 0.55946
 H464 H 0.75485 0.31994 0.58046
 H465 H 0.84459 0.37282 0.66025
 H466 H 0.80803 0.34443 0.61749
 C467 C 0.43914 0.57578 0.62801
 C468 C 0.42270 0.55597 0.65600
 C469 C 0.44090 0.54069 0.67314
 C470 C 0.47556 0.54526 0.66270
 C471 C 0.49165 0.56629 0.63514
 N472 N 0.47329 0.58079 0.61874
 C473 C 0.42026 0.59088 0.60790
 N474 N 0.44199 0.62002 0.58779
 C475 C 0.42669 0.63409 0.56729
 C476 C 0.38704 0.61816 0.56576
 C477 C 0.36406 0.58826 0.58646
 C478 C 0.38050 0.57455 0.60752
 H479 H 0.42734 0.52445 0.69418
 H480 H 0.51863 0.57101 0.62654
 H481 H 0.44555 0.65712 0.55174
 H482 H 0.33335 0.57494 0.58596
 H483 H 0.39614 0.55221 0.66468
 H484 H 0.36204 0.55057 0.62241
 C485 C 0.44086 0.86321 0.62954
 C486 C 0.42691 0.86181 0.65984
 C487 C 0.44349 0.89494 0.67843
 C488 C 0.47335 0.93000 0.66660
 C489 C 0.48707 0.92944 0.63630
 N490 N 0.47088 0.89663 0.61899
 C491 C 0.42311 0.82965 0.60833
 N492 N 0.44565 0.82282 0.58916
 C493 C 0.43097 0.79378 0.56775
 C494 C 0.39138 0.77049 0.56394
 C495 C 0.36761 0.77713 0.58334
 C496 C 0.38336 0.80639 0.60582
 H497 H 0.43116 0.89337 0.70125
 H498 H 0.51114 0.95479 0.62640
 H499 H 0.45020 0.78969 0.55304
 H500 H 0.33692 0.75972 0.58108
 H501 H 0.40326 0.83545 0.66898
 H502 H 0.36471 0.81164 0.62029
 C503 C 0.13746 0.57511 0.63007
 C504 C 0.13535 0.59167 0.65835
 C505 C 0.10146 0.57397 0.67557
 C506 C 0.06920 0.53994 0.66454
 C507 C 0.07304 0.52460 0.63594
 N508 N 0.10644 0.54206 0.62002
 C509 C 0.17232 0.59173 0.61075
 N510 N 0.17761 0.56773 0.59191
 C511 C 0.20736 0.58059 0.57177
 C512 C 0.23367 0.62006 0.56904
 C513 C 0.22912 0.64542 0.58853
 C514 C 0.19860 0.63137 0.60953
 H515 H 0.10048 0.58800 0.69686
 H516 H 0.05025 0.49772 0.62669
 H517 H 0.20958 0.55994 0.55717
 H518 H 0.24866 0.67611 0.58710
 H519 H 0.15965 0.61769 0.66736
 H520 H 0.19488 0.65144 0.62361
 C521 C 0.42567 0.56225 0.86682
 C522 C 0.44495 0.57967 0.83887
 C523 C 0.46119 0.56264 0.82130
 C524 C 0.45816 0.52822 0.83134
 C525 C 0.43739 0.51099 0.85875
 N526 N 0.42199 0.52822 0.87556
 C527 C 0.40999 0.58007 0.88763
 N528 N 0.38184 0.55728 0.90808
 C529 C 0.36759 0.57163 0.92936
 C530 C 0.38235 0.61138 0.93145
 C531 C 0.41117 0.63542 0.91042
 C532 C 0.42503 0.61994 0.88852
 H533 H 0.47706 0.57697 0.80033
 H534 H 0.43374 0.48408 0.86700
 H535 H 0.34542 0.55197 0.94513
 H536 H 0.42354 0.66626 0.91127
 H537 H 0.44768 0.60617 0.83059
 H538 H 0.44820 0.63927 0.87339
 C539 C 0.13635 0.55985 0.87204
 C540 C 0.13072 0.53501 0.84681
 C541 C 0.09760 0.52034 0.82860
 C542 C 0.07019 0.53032 0.83550
 C543 C 0.07740 0.55590 0.86038
 N544 N 0.10972 0.56975 0.87770
 C545 C 0.17003 0.57583 0.89302
 N546 N 0.17838 0.60722 0.91067
 C547 C 0.20736 0.62272 0.93183
 C548 C 0.22984 0.60614 0.93668
 C549 C 0.22197 0.57386 0.91860
 C550 C 0.19215 0.55862 0.89680
 H551 H 0.09311 0.50074 0.80954
 H552 H 0.05737 0.56497 0.86607
 H553 H 0.21231 0.64761 0.94518
 H554 H 0.23846 0.56002 0.92163
 H555 H 0.15153 0.52710 0.84092
 H556 H 0.18598 0.53305 0.88394
 C557 C 0.42143 0.86319 0.87344
 C558 C 0.42400 0.89673 0.88510
 C559 C 0.44266 0.93046 0.86762
 C560 C 0.45823 0.93100 0.83794
 C561 C 0.45370 0.89606 0.82677
 N562 N 0.43646 0.86384 0.84481
 C563 C 0.40431 0.82792 0.89259
 N564 N 0.42292 0.80826 0.89593
 C565 C 0.41005 0.77746 0.91540
 C566 C 0.37646 0.76473 0.93273
 C567 C 0.35616 0.78379 0.92863
 C568 C 0.37016 0.81555 0.90885
 H569 H 0.44380 0.95577 0.87719
 H570 H 0.46575 0.89468 0.80455
 H571 H 0.42635 0.76332 0.91770
 H572 H 0.33021 0.77504 0.94163
 H573 H 0.41253 0.89712 0.90792
 H574 H 0.35469 0.83054 0.90649
 C575 C 0.57100 0.43467 0.86902
 C576 C 0.55236 0.41728 0.84074
 C577 C 0.53645 0.43433 0.82276
 C578 C 0.53906 0.46855 0.83286
 C579 C 0.55884 0.48555 0.86077
 N580 N 0.57411 0.46844 0.87787
 C581 C 0.58709 0.41740 0.88985
 N582 N 0.61561 0.44077 0.90991
 C583 C 0.63051 0.42709 0.93114
 C584 C 0.61606 0.38745 0.93358
 C585 C 0.58679 0.36276 0.91299
 C586 C 0.57227 0.37759 0.89108
 H587 H 0.52134 0.42030 0.80135
 H588 H 0.56203 0.51228 0.86908
 H589 H 0.65300 0.44723 0.94657
 H590 H 0.57469 0.33198 0.91415
 H591 H 0.55010 0.39095 0.83248
 H592 H 0.54886 0.35791 0.87617
 C593 C 0.86288 0.44135 0.87076
 C594 C 0.86847 0.46637 0.84578
 C595 C 0.90180 0.48154 0.82793
 C596 C 0.92943 0.47190 0.83497
 C597 C 0.92227 0.44616 0.85960
 N598 N 0.88975 0.43181 0.87655
 C599 C 0.82906 0.42491 0.89143
 N600 N 0.82081 0.39335 0.90866
 C601 C 0.79198 0.37765 0.92981
 C602 C 0.76963 0.39428 0.93515
 C603 C 0.77725 0.42660 0.91738
 C604 C 0.80689 0.44201 0.89553
 H605 H 0.90626 0.50123 0.80902
 H606 H 0.94248 0.43734 0.86535
 H607 H 0.78719 0.35271 0.94289
 H608 H 0.76085 0.44048 0.92079
 H609 H 0.84747 0.47402 0.83983
 H610 H 0.81298 0.46769 0.88299
 C611 C 0.57647 0.14074 0.87122
 C612 C 0.55533 0.13757 0.84417
 C613 C 0.53840 0.10354 0.82678
 C614 C 0.54221 0.07259 0.83636
 C615 C 0.56446 0.07730 0.86303
 N616 N 0.58085 0.11080 0.87953
 C617 C 0.59288 0.17522 0.89156
 N618 N 0.62579 0.18614 0.90756
 C619 C 0.64110 0.21622 0.92804
 C620 C 0.62236 0.23647 0.93416
 C621 C 0.58848 0.22576 0.91784
 C622 C 0.57383 0.19542 0.89639
 H623 H 0.52143 0.10100 0.80635
 H624 H 0.56852 0.05426 0.87088
 H625 H 0.66711 0.22335 0.94036
 H626 H 0.57307 0.24055 0.92194
 H627 H 0.55182 0.16103 0.83656
 H628 H 0.54711 0.18697 0.88471
   
