data_POSCAR
  _audit_creation_date              2014-09-24
  _audit_creation_method            'ToBaCCo'
  _symmetry_space_group_name_H-M    'P1'
  _symmetry_Int_Tables_number       1
  _symmetry_cell_setting            triclinic
  loop_
  _symmetry_equiv_pos_as_xyz
 x,y,z
_cell_length_a 24.6552
_cell_length_b 24.7149
_cell_length_c 24.7967
_cell_angle_alpha 90.117900
_cell_angle_beta 89.884400
_cell_angle_gamma 89.861100
loop_
  _atom_site_label
  _atom_site_type_symbol
  _atom_site_fract_x
  _atom_site_fract_y
  _atom_site_fract_z
N1 N 0.21161 1.21219 0.21298
 N2 N 0.78070 0.78400 0.21654
 N3 N 0.79775 1.20775 -0.20210
 N4 N 0.21703 0.78651 -0.21927
 C5 C 0.58494 1.07483 -0.01290
 H6 H 0.58474 1.07150 0.03060
 C7 C 0.62392 1.10659 -0.03845
 H8 H 0.65405 1.12668 -0.01395
 C9 C 0.54868 1.04805 -0.09714
 H10 H 0.52049 1.02367 -0.11989
 C11 C 0.58690 1.07952 -0.12440
 H12 H 0.58775 1.07816 -0.16799
 N13 N 0.54823 1.04655 -0.04234
 C14 C 0.41415 1.01385 0.06726
 H15 H 0.41411 0.97008 0.06635
 C16 C 0.37424 1.04163 0.09621
 H17 H 0.34480 1.01845 0.11876
 C18 C 0.45408 1.09641 0.03988
 H19 H 0.48496 1.11765 0.01744
 C20 C 0.41484 1.12582 0.06825
 H21 H 0.41727 1.16952 0.06847
 Zn22 Zn 0.50097 1.00052 -0.00381
 N23 N 0.45269 1.04143 0.03945
 C24 C 0.54053 0.95438 0.09373
 N25 N 0.54491 0.95495 0.03908
 C26 C 0.58406 0.92599 0.01329
 C27 C 0.62039 0.89427 0.04255
 C28 C 0.57602 0.92308 0.12463
 C29 C 0.42099 0.98656 -0.08173
 C30 C 0.38433 0.95854 -0.11412
 C31 C 0.42390 0.87459 -0.08364
 C32 C 0.45978 0.90427 -0.05170
 N33 N 0.45780 0.95925 -0.05146
 H34 H 0.51053 0.97935 0.11364
 H35 H 0.58767 0.92848 -0.03012
 H36 H 0.65221 0.87288 0.02115
 H37 H 0.57276 0.92539 0.16802
 H38 H 0.41913 1.03024 -0.07941
 H39 H 0.35398 0.98127 -0.13601
 H40 H 0.42484 0.83095 -0.08097
 H41 H 0.48787 0.88322 -0.02573
 C42 C 0.37270 1.09856 0.09521
 C43 C 0.62480 1.11028 -0.09508
 C44 C 0.38580 0.90164 -0.11620
 C45 C 0.61630 0.89160 0.09909
 C46 C -0.01398 0.58611 1.07413
 H47 H 0.02989 0.58684 1.07384
 C48 C -0.04275 0.62311 1.10567
 H49 H -0.02031 0.65277 1.12867
 C50 C -0.09574 0.54907 1.04060
 H51 H -0.11620 0.52141 1.01375
 C52 C -0.12620 0.58523 1.07185
 H53 H -0.16988 0.58497 1.06797
 N54 N -0.04065 0.54966 1.04292
 C55 C 0.07959 0.42285 1.01865
 H56 H 0.08400 0.42463 0.97527
 C57 C 0.10757 0.38365 1.04794
 H58 H 0.13459 0.35635 1.02670
 C59 C 0.03907 0.45683 1.09851
 H60 H 0.01173 0.48500 1.11797
 C61 C 0.06592 0.41787 1.12937
 H62 H 0.06016 0.41831 1.17257
 Zn63 Zn 0.00324 0.50373 1.00004
 N64 N 0.04574 0.45807 1.04409
 C65 C 0.10217 0.55054 0.96409
 N66 N 0.04749 0.54905 0.95731
 C67 C 0.02217 0.58306 0.92249
 C68 C 0.05193 0.62097 0.89326
 C69 C 0.13350 0.58816 0.93594
 C70 C -0.07296 0.42288 0.98311
 C71 C -0.10080 0.38285 0.95488
 C72 C -0.05871 0.41399 0.87268
 C73 C -0.03207 0.45395 0.90247
 N74 N -0.03908 0.45715 0.95679
 H75 H 0.12154 0.52347 0.99229
 H76 H -0.02143 0.58117 0.91804
 H77 H 0.03084 0.64737 0.86548
 H78 H 0.17688 0.58756 0.94173
 H79 H -0.07745 0.42600 1.02641
 H80 H -0.12790 0.35642 0.97683
 H81 H -0.05263 0.41276 0.82952
 H82 H -0.00451 0.48120 0.88233
 C83 C 0.09910 0.37897 1.10388
 C84 C -0.09982 0.62217 1.10619
 C85 C -0.09202 0.37616 0.89918
 C86 C 0.10823 0.62553 0.90124
 C87 C 1.07128 -0.01528 0.58125
 H88 H 1.07379 0.02839 0.57971
 C89 C 1.10080 -0.04379 0.61981
 H90 H 1.12721 -0.02149 0.64657
 C91 C 1.03454 -0.09672 0.54682
 H92 H 1.00813 -0.11715 0.51871
 C93 C 1.06318 -0.12687 0.58502
 H94 H 1.05967 -0.17047 0.58432
 N95 N 1.03868 -0.04189 0.54602
 C96 C 1.01314 0.07779 0.41967
 H97 H 0.96943 0.08145 0.42128
 C98 C 1.04243 0.10621 0.38082
 H99 H 1.02078 0.13291 0.35379
 C100 C 1.09388 0.03875 0.45364
 H101 H 1.11375 0.01174 0.48156
 C102 C 1.12476 0.06617 0.41516
 H103 H 1.16832 0.06123 0.41571
 Zn104 Zn 0.99539 0.00134 0.50025
 N105 N 1.03903 0.04445 0.45473
 C106 C 0.95295 0.09910 0.54627
 N107 N 0.95139 0.04410 0.54603
 C108 C 0.92137 0.01644 0.58267
 C109 C 0.89113 0.04401 0.62151
 C110 C 0.92295 0.12843 0.58437
 C111 C 0.97827 -0.07479 0.41904
 C112 C 0.94916 -0.10373 0.38044
 C113 C 0.86647 -0.06480 0.41569
 C114 C 0.89718 -0.03684 0.45392
 N115 N 0.95210 -0.04179 0.45446
 H116 H 0.97880 0.12029 0.51819
 H117 H 0.92223 -0.02733 0.58258
 H118 H 0.86951 0.02080 0.65159
 H119 H 0.92686 0.17197 0.58508
 H120 H 1.02202 -0.07795 0.42034
 H121 H 0.97102 -0.13025 0.35322
 H122 H 0.82283 -0.06059 0.41675
 H123 H 0.87711 -0.01023 0.48228
 C124 C 1.09889 0.09876 0.37639
 C125 C 1.09530 -0.10031 0.62376
 C126 C 0.89256 -0.09722 0.37668
 C127 C 0.89075 0.10093 0.62243
 C128 C 0.17819 0.25583 1.18623
 C129 C 0.21186 0.30732 1.17672
 C130 C 0.18562 0.34701 1.14922
 C131 C 0.12666 0.33357 1.13518
 C132 C 0.12898 0.27945 1.10437
 C133 C 0.15535 0.23923 1.13080
 C134 C 0.12744 0.27826 1.21646
 C135 C 0.10059 0.31810 1.18948
 H136 H 0.25308 0.31221 1.19120
 H137 H 0.20451 0.38559 1.14023
 H138 H 0.10837 0.27209 1.06643
 H139 H 0.15710 0.19843 1.11478
 H140 H 0.11006 0.26292 1.25331
 H141 H 0.06217 0.33374 1.20415
 C142 C -0.18500 0.74110 1.18938
 C143 C -0.13244 0.72161 1.21826
 C144 C -0.10504 0.68192 1.19145
 C145 C -0.13154 0.66449 1.13808
 C146 C -0.18932 0.64834 1.15528
 C147 C -0.21656 0.68782 1.18257
 C148 C -0.16509 0.75690 1.13259
 C149 C -0.13812 0.71703 1.10598
 H150 H -0.11690 0.73558 1.25641
 H151 H -0.06911 0.66310 1.20836
 H152 H -0.20602 0.60804 1.15071
 H153 H -0.25637 0.68109 1.20005
 H154 H -0.17025 0.79677 1.11518
 H155 H -0.12119 0.72301 1.06599
 C156 C -0.17089 0.25028 0.82054
 C157 C -0.20417 0.30277 0.82740
 C158 C -0.17802 0.34318 0.85385
 C159 C -0.11935 0.32975 0.86918
 C160 C -0.12207 0.27694 0.90189
 C161 C -0.14797 0.23578 0.87656
 C162 C -0.11916 0.27094 0.79019
 C163 C -0.09264 0.31185 0.81589
 H164 H -0.24502 0.30780 0.81186
 H165 H -0.19665 0.38241 0.86088
 H166 H -0.10149 0.27085 0.94005
 H167 H -0.14953 0.19540 0.89363
 H168 H -0.10063 0.25377 0.75456
 H169 H -0.05386 0.32645 0.80133
 C170 C 0.19064 0.74434 0.81605
 C171 C 0.22306 0.72200 0.86505
 C172 C 0.19627 0.68358 0.89397
 C173 C 0.13988 0.66926 0.87149
 C174 C 0.11038 0.72420 0.86994
 C175 C 0.13666 0.76307 0.84156
 C176 C 0.17779 0.69252 0.78405
 C177 C 0.15045 0.65423 0.81237
 H178 H 0.26150 0.73646 0.87981
 H179 H 0.21271 0.66846 0.93154
 H180 H 0.07331 0.73289 0.89205
 H181 H 0.12151 0.80423 0.83969
 H182 H 0.19000 0.68637 0.74239
 H183 H 0.13932 0.61556 0.79480
 C184 C 1.18365 0.17865 0.25560
 C185 C 1.21235 0.12639 0.27603
 C186 C 1.18433 0.09934 0.31491
 C187 C 1.13071 0.12676 0.33167
 C188 C 1.14694 0.18460 0.34698
 C189 C 1.17540 0.21099 0.30812
 C190 C 1.12706 0.15837 0.23873
 C191 C 1.09967 0.13180 0.27808
 H192 H 1.24919 0.10867 0.26039
 H193 H 1.19797 0.06029 0.32951
 H194 H 1.13865 0.20258 0.38613
 H195 H 1.19144 0.25139 0.31430
 H196 H 1.11098 0.16173 0.19823
 H197 H 1.06098 0.11257 0.27013
 C198 C 1.18113 -0.18520 0.74025
 C199 C 1.16253 -0.12833 0.75818
 C200 C 1.13408 -0.10066 0.72035
 C201 C 1.12553 -0.13182 0.66718
 C202 C 1.18228 -0.14919 0.64863
 C203 C 1.21055 -0.17781 0.68597
 C204 C 1.12716 -0.21290 0.72296
 C205 C 1.09829 -0.18465 0.68558
 H206 H 1.16800 -0.11243 0.79858
 H207 H 1.11537 -0.06195 0.72960
 H208 H 1.19816 -0.14142 0.60852
 H209 H 1.25043 -0.19455 0.67755
 H210 H 1.10959 -0.24902 0.73987
 H211 H 1.05819 -0.19749 0.67305
 C212 C 0.80823 -0.18092 0.25822
 C213 C 0.81795 -0.21218 0.31096
 C214 C 0.84626 -0.18451 0.34900
 C215 C 0.86083 -0.12654 0.33277
 C216 C 0.89127 -0.13163 0.27869
 C217 C 0.86402 -0.15946 0.24011
 C218 C 0.77849 -0.12904 0.27853
 C219 C 0.80632 -0.10071 0.31666
 H220 H 0.80297 -0.25286 0.31788
 H221 H 0.85548 -0.20165 0.38821
 H222 H 0.92932 -0.11149 0.26986
 H223 H 0.87947 -0.16291 0.19928
 H224 H 0.74110 -0.11241 0.26324
 H225 H 0.79195 -0.06175 0.33103
 C226 C 0.81805 0.17882 0.75250
 C227 C 0.87441 0.15381 0.76305
 C228 C 0.89764 0.13000 0.71947
 C229 C 0.86254 0.13056 0.66855
 C230 C 0.80843 0.10533 0.68612
 C231 C 0.78509 0.12981 0.72960
 C232 C 0.82367 0.21490 0.70203
 C233 C 0.84774 0.19035 0.65895
 H234 H 0.89404 0.15396 0.80218
 H235 H 0.93707 0.11046 0.72161
 H236 H 0.78893 0.07206 0.66519
 H237 H 0.74689 0.11424 0.74404
 H238 H 0.80749 0.25573 0.69973
 H239 H 0.85072 0.21047 0.62024
 C240 C 0.25339 1.18374 0.17833
 C241 C 0.23483 1.12813 0.15701
 C242 C 0.27354 1.10021 0.12955
 C243 C 0.32819 1.12992 0.12461
 C244 C 0.31249 1.18422 0.09863
 C245 C 0.27430 1.21271 0.12659
 C246 C 0.30617 1.17351 0.20980
 C247 C 0.34437 1.14469 0.18242
 H248 H 0.19359 1.11334 0.16005
 H249 H 0.26406 1.06257 0.10911
 H250 H 0.32771 1.19812 0.05999
 H251 H 0.25940 1.25009 0.10980
 H252 H 0.31298 1.18846 0.25041
 H253 H 0.38358 1.13497 0.19978
 C254 C 0.75352 1.18616 -0.17221
 C255 C 0.70044 1.18608 -0.20507
 C256 C 0.65791 1.16125 -0.18044
 C257 C 0.67070 1.13996 -0.12354
 C258 C 0.72050 1.10333 -0.12999
 C259 C 0.76363 1.12734 -0.15390
 C260 C 0.73493 1.21449 -0.11865
 C261 C 0.69194 1.19035 -0.09400
 H262 H 0.69625 1.20618 -0.24374
 H263 H 0.61771 1.16141 -0.19814
 H264 H 0.72253 1.06229 -0.11455
 H265 H 0.80230 1.10668 -0.15809
 H266 H 0.75173 1.25034 -0.10028
 H267 H 0.67361 1.20725 -0.05786
 C268 C 0.26196 0.81959 -0.19430
 C269 C 0.28250 0.87062 -0.22488
 C270 C 0.32386 0.89698 -0.19978
 C271 C 0.34188 0.87086 -0.14647
 C272 C 0.28991 0.86698 -0.11269
 C273 C 0.24836 0.84122 -0.13750
 C274 C 0.31443 0.78618 -0.18850
 C275 C 0.35564 0.81229 -0.16301
 H276 H 0.26793 0.88580 -0.26293
 H277 H 0.34332 0.93199 -0.21765
 H278 H 0.28557 0.88483 -0.07286
 H279 H 0.20880 0.83800 -0.11870
 H280 H 0.31938 0.74596 -0.20552
 H281 H 0.39561 0.79422 -0.15975
 C282 C 0.73689 0.81023 0.18301
 C283 C 0.75289 0.86588 0.16009
 C284 C 0.71233 0.89201 0.13393
 C285 C 0.65893 0.86048 0.13095
 C286 C 0.67461 0.80553 0.10615
 C287 C 0.71497 0.77917 0.13291
 C288 C 0.68488 0.81946 0.21627
 C289 C 0.64470 0.84618 0.18975
 H290 H 0.79326 0.88291 0.16295
 H291 H 0.71829 0.93128 0.11530
 H292 H 0.65474 0.78796 0.07127
 H293 H 0.72836 0.74025 0.11826
 H294 H 0.67931 0.80365 0.25672
 H295 H 0.60497 0.85139 0.20784
   
