data_POSCAR
  _audit_creation_date              2014-09-24
  _audit_creation_method            'ToBaCCo'
  _symmetry_space_group_name_H-M    'P1'
  _symmetry_Int_Tables_number       1
  _symmetry_cell_setting            triclinic
  loop_
  _symmetry_equiv_pos_as_xyz
 x,y,z
_cell_length_a 22.9524
_cell_length_b 23.5020
_cell_length_c 59.7284
_cell_angle_alpha 87.143700
_cell_angle_beta 96.035100
_cell_angle_gamma 119.349500
loop_
  _atom_site_label
  _atom_site_type_symbol
  _atom_site_fract_x
  _atom_site_fract_y
  _atom_site_fract_z
C1 C 0.05883 0.17234 0.52404
 H2 H 0.10535 0.18311 0.51749
 C3 C 0.05864 0.21477 0.53940
 H4 H 0.10503 0.25877 0.54426
 C5 C -0.05755 0.10069 0.52605
 H6 H -0.10216 0.05536 0.52107
 C7 C -0.05998 0.14197 0.54162
 H8 H -0.10674 0.12801 0.54865
 N9 N 0.00166 0.11613 0.51795
 C10 C 0.04179 -0.04318 0.51083
 H11 H 0.02739 -0.05567 0.49317
 C12 C 0.04900 -0.08736 0.52589
 H13 H 0.04114 -0.13337 0.51970
 C14 C 0.06354 0.02904 0.54078
 H15 H 0.06634 0.07291 0.54680
 C16 C 0.07268 -0.01285 0.55628
 H17 H 0.08260 -0.00041 0.57401
 Zn18 Zn 0.01226 0.05906 0.49974
 N19 N 0.04630 0.01244 0.51862
 C20 C 0.12396 0.10333 0.47314
 N21 N 0.07201 0.11115 0.47833
 C22 C 0.06049 0.15856 0.46849
 C23 C 0.10076 0.19942 0.45232
 C24 C 0.16568 0.14330 0.45689
 C25 C -0.10602 -0.06251 0.49397
 C26 C -0.15537 -0.11527 0.48101
 C27 C -0.13620 -0.04289 0.44922
 C28 C -0.08629 0.00791 0.46270
 N29 N -0.07039 -0.00309 0.48441
 H30 H 0.13248 0.06565 0.48135
 H31 H 0.01949 0.16441 0.47320
 H32 H 0.09058 0.23688 0.44477
 H33 H 0.20578 0.13550 0.45247
 H34 H -0.09352 -0.07005 0.51143
 H35 H -0.18172 -0.16149 0.48949
 H36 H -0.14207 -0.03150 0.43167
 H37 H -0.05746 0.05519 0.45524
 C38 C 0.06272 -0.07303 0.54902
 C39 C -0.00085 0.19911 0.54883
 C40 C -0.16969 -0.10738 0.45776
 C41 C 0.15366 0.19162 0.44608
 C42 C 1.16825 -0.00226 0.15807
 H43 H 1.18615 0.03859 0.16934
 C44 C 1.21018 -0.00038 0.14249
 H45 H 1.26026 0.04108 0.14241
 C46 C 1.08009 -0.10277 0.14313
 H47 H 1.02828 -0.14093 0.14285
 C48 C 1.12068 -0.10284 0.12716
 H49 H 1.09994 -0.14153 0.11474
 N50 N 1.10387 -0.05195 0.15775
 C51 C 0.91482 -0.09238 0.15152
 H52 H 0.90358 -0.13090 0.16375
 C53 C 0.86574 -0.09989 0.13432
 H54 H 0.81687 -0.14327 0.13386
 C55 C 0.99293 0.00831 0.13624
 H56 H 1.04344 0.04906 0.13664
 C57 C 0.94468 0.00310 0.11879
 H58 H 0.95802 0.04035 0.10590
 Zn59 Zn 1.04362 -0.04002 0.17381
 N60 N 0.97718 -0.03912 0.15220
 C61 C 1.08858 0.09312 0.18757
 N62 N 1.09283 0.03754 0.19098
 C63 C 1.13374 0.03259 0.20820
 C64 C 1.17380 0.08505 0.22256
 C65 C 1.12820 0.14731 0.20164
 C66 C 1.00242 -0.16192 0.19879
 C67 C 0.96409 -0.20676 0.21487
 C68 C 0.92176 -0.13442 0.22268
 C69 C 0.96081 -0.09129 0.20680
 N70 N 0.99919 -0.10589 0.19497
 H71 H 1.05476 0.09559 0.17404
 H72 H 1.13527 -0.01259 0.21069
 H73 H 1.20518 0.07933 0.23633
 H74 H 1.12511 0.19160 0.19864
 H75 H 1.03387 -0.17208 0.18928
 H76 H 0.96593 -0.25175 0.21769
 H77 H 0.89140 -0.12166 0.23181
 H78 H 0.95983 -0.04606 0.20352
 C79 C 0.88062 -0.05230 0.11754
 C80 C 1.18575 -0.04973 0.12624
 C81 C 0.92227 -0.19339 0.22671
 C82 C 1.17193 0.14367 0.21932
 C83 C 0.02890 0.97641 0.86854
 H84 H -0.02230 0.93716 0.86863
 C85 C 0.07762 0.97836 0.88485
 H86 H 0.06331 0.94099 0.89772
 C87 C 0.10921 1.07233 0.85136
 H88 H 0.12093 1.10802 0.83800
 C89 C 0.16000 1.07636 0.86758
 H90 H 0.21105 1.11544 0.86670
 N91 N 0.04545 1.02207 0.85201
 C92 C -0.15994 0.93918 0.84656
 H93 H -0.17251 0.89910 0.83544
 C94 C -0.20695 0.93488 0.86077
 H95 H -0.25592 0.89171 0.85981
 C96 C -0.08053 1.04305 0.86149
 H97 H -0.02967 1.08298 0.86300
 C98 C -0.12608 1.04191 0.87530
 H99 H -0.10851 1.08202 0.88697
 Zn100 Zn -0.02740 1.00447 0.83039
 N101 N -0.09822 0.99318 0.84707
 C102 C -0.09997 0.90078 0.79818
 N103 N -0.04724 0.92784 0.81430
 C104 C 0.00028 0.90873 0.81667
 C105 C -0.00103 0.86490 0.80155
 C106 C -0.10297 0.85672 0.78250
 C107 C -0.00421 1.13122 0.81514
 C108 C -0.00843 1.17387 0.79867
 C109 C -0.01546 1.10107 0.77016
 C110 C -0.01069 1.06017 0.78711
 N111 N -0.00902 1.07375 0.80914
 H112 H -0.13646 0.91758 0.79627
 H113 H 0.04243 0.93101 0.82924
 H114 H 0.03921 0.85297 0.80312
 H115 H -0.14234 0.83934 0.76877
 H116 H -0.00076 1.14289 0.83259
 H117 H -0.00892 1.21723 0.80373
 H118 H -0.02019 1.08763 0.75271
 H119 H -0.01156 1.01600 0.78246
 C120 C -0.19071 0.98728 0.87532
 C121 C 0.14436 1.02795 0.88428
 C122 C -0.01739 1.15721 0.77587
 C123 C -0.05122 0.84074 0.78356
 C124 C 0.59531 -0.07019 -0.02280
 C125 C 0.63372 -0.06830 -0.00280
 C126 C 0.61492 -0.06230 0.01812
 C127 C 0.55368 -0.06221 0.01924
 C128 C 0.51493 -0.06279 -0.00097
 C129 C 0.53652 -0.06545 -0.02210
 C130 C 0.49889 -0.06320 -0.04193
 C131 C 0.44160 -0.05752 -0.04103
 C132 C 0.41852 -0.05618 -0.02027
 C133 C 0.45484 -0.05999 -0.00006
 C134 C 0.52989 -0.06219 0.03999
 C135 C 0.46956 -0.06204 0.04088
 C136 C 0.43133 -0.06077 0.02106
 C137 C 0.37073 -0.05914 0.02175
 C138 C 0.33722 -0.05227 0.00173
 C139 C 0.36038 -0.05051 -0.01916
 H140 H 0.51388 -0.06503 -0.05835
 H141 H 0.41531 -0.05463 -0.05681
 H142 H 0.55729 -0.06322 0.05576
 H143 H 0.45374 -0.06179 0.05730
 H144 H 0.68043 -0.06890 -0.00359
 H145 H 0.29132 -0.05001 0.00235
 C146 C -0.04706 0.40154 0.64204
 C147 C -0.04748 0.37096 0.66274
 C148 C -0.05056 0.39694 0.68288
 C149 C -0.05639 0.45430 0.68221
 C150 C -0.05327 0.48744 0.66144
 C151 C -0.04724 0.46165 0.64137
 C152 C -0.03928 0.49763 0.62133
 C153 C -0.03787 0.55751 0.62094
 C154 C -0.04637 0.58289 0.64040
 C155 C -0.05492 0.54714 0.66081
 C156 C -0.06576 0.47912 0.70164
 C157 C -0.06948 0.53660 0.70088
 C158 C -0.06349 0.57173 0.68070
 C159 C -0.06418 0.63165 0.67998
 C160 C -0.05353 0.66731 0.65993
 C161 C -0.04445 0.64402 0.64022
 H162 H -0.03218 0.48069 0.60586
 H163 H -0.02974 0.58377 0.60516
 H164 H -0.07092 0.45398 0.71759
 H165 H -0.07597 0.55380 0.71641
 H166 H -0.04423 0.32639 0.66317
 H167 H -0.05250 0.71400 0.65965
 C168 C 0.41925 0.38651 0.31654
 C169 C 0.38654 0.36458 0.33615
 C170 C 0.41203 0.40058 0.35618
 C171 C 0.47112 0.46212 0.35641
 C172 C 0.50635 0.48397 0.33684
 C173 C 0.48078 0.44560 0.31690
 C174 C 0.51659 0.46800 0.29776
 C175 C 0.57683 0.52639 0.29824
 C176 C 0.60220 0.56607 0.31757
 C177 C 0.56650 0.54498 0.33704
 C178 C 0.49454 0.50335 0.37533
 C179 C 0.55212 0.56424 0.37523
 C180 C 0.58969 0.58559 0.35644
 C181 C 0.64849 0.64735 0.35611
 C182 C 0.68440 0.66606 0.33703
 C183 C 0.66205 0.62667 0.31784
 H184 H 0.49857 0.44057 0.28219
 H185 H 0.60289 0.54049 0.28314
 H186 H 0.46751 0.48967 0.39021
 H187 H 0.56657 0.59438 0.39007
 H188 H 0.34072 0.31788 0.33587
 H189 H 0.72932 0.71339 0.33679
 C190 C 0.05401 0.26350 0.58422
 C191 C 0.00058 0.24025 0.56714
 C192 C -0.05087 0.25608 0.56789
 C193 C -0.04883 0.29470 0.58550
 C194 C 0.00520 0.31747 0.60257
 C195 C 0.05637 0.30179 0.60173
 C196 C 0.00660 0.35449 0.62048
 C197 C -0.04544 0.36892 0.62170
 C198 C -0.09864 0.34690 0.60462
 C199 C -0.10017 0.31034 0.58656
 H200 H -0.09208 0.23873 0.55474
 H201 H 0.09791 0.31858 0.61474
 H202 H 0.04746 0.37110 0.63376
 H203 H -0.14202 0.29332 0.57367
 H204 H 0.09366 0.25109 0.58424
 H205 H -0.13966 0.35688 0.60555
 C206 C 0.90494 0.73480 0.26075
 C207 C 0.87883 0.76064 0.24335
 C208 C 0.81231 0.74819 0.24316
 C209 C 0.77363 0.71412 0.26082
 C210 C 0.80124 0.69087 0.27887
 C211 C 0.86638 0.70011 0.27841
 C212 C 0.76389 0.66066 0.29731
 C213 C 0.69952 0.65342 0.29774
 C214 C 0.67209 0.67538 0.27952
 C215 C 0.70872 0.70526 0.26114
 H216 H 0.79153 0.76728 0.22960
 H217 H 0.88823 0.68234 0.29203
 H218 H 0.78509 0.64392 0.31148
 H219 H 0.68693 0.72283 0.24742
 H220 H 0.95616 0.74408 0.26124
 H221 H 0.62267 0.67039 0.27978
 C222 C 0.24309 0.08362 -0.08688
 C223 C 0.19643 0.02717 -0.09900
 C224 C 0.19616 -0.03206 -0.09399
 C225 C 0.23941 -0.03585 -0.07636
 C226 C 0.28444 0.02062 -0.06362
 C227 C 0.28677 0.08037 -0.06928
 C228 C 0.32508 0.01585 -0.04517
 C229 C 0.32116 -0.04453 -0.03947
 C230 C 0.27744 -0.09997 -0.05246
 C231 C 0.23690 -0.09568 -0.07084
 H232 H 0.16103 -0.07565 -0.10352
 H233 H 0.32120 0.12419 -0.05977
 H234 H 0.35890 0.05856 -0.03502
 H235 H 0.20271 -0.13933 -0.08047
 H236 H 0.24397 0.12965 -0.09044
 H237 H 0.27403 -0.14674 -0.04811
 C238 C 0.10705 0.89417 0.58448
 C239 C 0.05870 0.87712 0.56590
 C240 C 0.00196 0.81453 0.56493
 C241 C -0.00811 0.77066 0.58285
 C242 C 0.04009 0.78899 0.60174
 C243 C 0.09813 0.85028 0.60217
 C244 C 0.02844 0.74656 0.62016
 C245 C -0.03091 0.68628 0.62002
 C246 C -0.07833 0.66813 0.60118
 C247 C -0.06683 0.70981 0.58265
 H248 H -0.03616 0.80144 0.55083
 H249 H 0.13562 0.86503 0.61648
 H250 H 0.06482 0.76072 0.63480
 H251 H -0.10443 0.69508 0.56837
 H252 H 0.15105 0.94216 0.58552
 H253 H -0.12457 0.62197 0.60098
 C254 C 0.18784 0.23605 0.24324
 C255 C 0.21411 0.19921 0.23495
 C256 C 0.27939 0.21232 0.24302
 C257 C 0.31635 0.25870 0.26004
 C258 C 0.28847 0.29386 0.26879
 C259 C 0.22481 0.28315 0.25996
 C260 C 0.32383 0.33752 0.28670
 C261 C 0.38635 0.34605 0.29605
 C262 C 0.41416 0.31170 0.28708
 C263 C 0.37968 0.26873 0.26905
 H264 H 0.30078 0.18513 0.23648
 H265 H 0.20278 0.30977 0.26647
 H266 H 0.30212 0.36364 0.29382
 H267 H 0.40165 0.24201 0.26257
 H268 H 0.13759 0.22664 0.23744
 H269 H 0.46192 0.31726 0.29437
 C270 C 0.76797 0.04300 -0.10243
 C271 C 0.76462 -0.01516 -0.10948
 C272 C 0.71930 -0.07462 -0.09970
 C273 C 0.68349 -0.07493 -0.08193
 C274 C 0.69023 -0.01559 -0.07453
 C275 C 0.73096 0.04266 -0.08533
 C276 C 0.65836 -0.01503 -0.05584
 C277 C 0.62106 -0.07283 -0.04414
 C278 C 0.61329 -0.13189 -0.05169
 C279 C 0.64375 -0.13310 -0.07062
 H280 H 0.71593 -0.12013 -0.10439
 H281 H 0.73583 0.08842 -0.08011
 H282 H 0.66473 0.03061 -0.04979
 H283 H 0.63805 -0.17909 -0.07596
 H284 H 0.79910 0.08939 -0.11023
 H285 H 0.58478 -0.17674 -0.04264
 C286 C 0.25436 0.01887 0.09575
 C287 C 0.22531 -0.04136 0.10705
 C288 C 0.23299 -0.09285 0.09955
 C289 C 0.26945 -0.08406 0.08095
 C290 C 0.29757 -0.02341 0.06957
 C291 C 0.28996 0.02772 0.07717
 C292 C 0.33201 -0.01512 0.05057
 C293 C 0.33943 -0.06638 0.04291
 C294 C 0.31256 -0.12611 0.05445
 C295 C 0.27779 -0.13494 0.07335
 H296 H 0.21095 -0.13934 0.10822
 H297 H 0.31108 0.07444 0.06864
 H298 H 0.35246 0.03086 0.04155
 H299 H 0.25678 -0.18170 0.08184
 H300 H 0.24828 0.05893 0.10103
 H301 H 0.31739 -0.16627 0.04852
 C302 C 0.77890 0.77648 0.44944
 C303 C 0.79003 0.84026 0.44380
 C304 C 0.76156 0.84824 0.42242
 C305 C 0.72896 0.79688 0.40680
 C306 C 0.72302 0.73531 0.41231
 C307 C 0.74656 0.72524 0.43386
 C308 C 0.69503 0.68546 0.39599
 C309 C 0.67187 0.69646 0.37436
 C310 C 0.67575 0.75716 0.36937
 C311 C 0.70391 0.80690 0.38542
 H312 H 0.76328 0.89404 0.41771
 H313 H 0.74191 0.67810 0.43848
 H314 H 0.69269 0.63886 0.39986
 H315 H 0.70757 0.85371 0.38092
 H316 H 0.79969 0.76604 0.46515
 H317 H 0.65816 0.76644 0.35277
 C318 C -0.08810 0.16070 0.74174
 C319 C -0.03448 0.19452 0.75818
 C320 C 0.00134 0.26314 0.75767
 C321 C -0.01483 0.29737 0.74040
 C322 C -0.06847 0.26253 0.72384
 C323 C -0.10521 0.19435 0.72482
 C324 C -0.08301 0.29614 0.70607
 C325 C -0.04338 0.36409 0.70409
 C326 C 0.00930 0.39856 0.72075
 C327 C 0.02288 0.36559 0.73893
 H328 H 0.04284 0.28957 0.77027
 H329 H -0.14649 0.16695 0.71227
 H330 H -0.12331 0.26919 0.69315
 H331 H 0.06439 0.39315 0.75138
 H332 H -0.11723 0.10792 0.74208
 H333 H 0.04147 0.45075 0.71924
 C334 C 0.79864 -0.12284 0.08662
 C335 C 0.83028 -0.06308 0.09826
 C336 C 0.81233 -0.01507 0.09177
 C337 C 0.76239 -0.02712 0.07401
 C338 C 0.73114 -0.08739 0.06234
 C339 C 0.74980 -0.13478 0.06873
 C340 C 0.68198 -0.09917 0.04439
 C341 C 0.66297 -0.05188 0.03814
 C342 C 0.69366 0.00759 0.04990
 C343 C 0.74299 0.01991 0.06772
 H344 H 0.83623 0.03090 0.10083
 H345 H 0.72644 -0.18115 0.05997
 H346 H 0.65865 -0.14488 0.03519
 H347 H 0.76627 0.06632 0.07645
 H348 H 0.81217 -0.16027 0.09131
 H349 H 0.68012 0.04489 0.04500
 C350 C 0.16256 0.24667 0.40866
 C351 C 0.19427 0.23268 0.42790
 C352 C 0.26432 0.25826 0.42958
 C353 C 0.30201 0.29705 0.41222
 C354 C 0.26924 0.31053 0.39299
 C355 C 0.19965 0.28535 0.39143
 C356 C 0.30628 0.34754 0.37535
 C357 C 0.37565 0.37057 0.37641
 C358 C 0.40812 0.35772 0.39565
 C359 C 0.37169 0.32174 0.41352
 H360 H 0.28943 0.24832 0.44440
 H361 H 0.17375 0.29489 0.37674
 H362 H 0.28093 0.35687 0.36044
 H363 H 0.39771 0.31182 0.42807
 H364 H 0.10862 0.22679 0.40676
 H365 H 0.46136 0.37397 0.39653
 C366 C 0.01888 0.83195 0.75621
 C367 C -0.04404 0.80646 0.76473
 C368 C -0.09894 0.75012 0.75479
 C369 C -0.09070 0.71941 0.73667
 C370 C -0.02707 0.74605 0.72826
 C371 C 0.02728 0.80216 0.73816
 C372 C -0.01883 0.71652 0.70993
 C373 C -0.07309 0.66027 0.69999
 C374 C -0.13602 0.63341 0.70847
 C375 C -0.14482 0.66279 0.72670
 H376 H -0.14759 0.73008 0.76126
 H377 H 0.07626 0.82327 0.73187
 H378 H 0.02968 0.73729 0.70328
 H379 H -0.19393 0.64154 0.73289
 H380 H 0.06162 0.87597 0.76329
 H381 H -0.17838 0.59016 0.70079
   
