data_POSCAR
  _audit_creation_date              2014-09-24
  _audit_creation_method            'ToBaCCo'
  _symmetry_space_group_name_H-M    'P1'
  _symmetry_Int_Tables_number       1
  _symmetry_cell_setting            triclinic
  loop_
  _symmetry_equiv_pos_as_xyz
 x,y,z
_cell_length_a 18.5260
_cell_length_b 18.5247
_cell_length_c 18.5423
_cell_angle_alpha 92.176400
_cell_angle_beta 87.806300
_cell_angle_gamma 92.630100
loop_
  _atom_site_label
  _atom_site_type_symbol
  _atom_site_fract_x
  _atom_site_fract_y
  _atom_site_fract_z
O1 O 0.57749 0.50822 0.07139
 O2 O 0.38194 0.50071 0.03826
 O3 O 0.47400 0.40891 0.07721
 O4 O 0.48301 0.60275 0.04171
 O5 O 0.50657 0.57781 -0.07415
 O6 O 0.49805 0.38300 -0.03840
 O7 O 0.40635 0.47513 -0.07733
 O8 O 0.60092 0.48313 -0.04446
 Cu9 Cu 0.47684 0.50779 0.06878
 Cu10 Cu 0.50546 0.47732 -0.07023
 C11 C 0.62216 0.49626 0.01904
 C12 C 0.36131 0.48674 -0.02551
 C13 C 0.48466 0.36326 0.02576
 C14 C 0.49550 0.62311 -0.02218
 O15 O -0.07009 0.59107 0.50782
 O16 O -0.03668 0.39599 0.50072
 O17 O -0.03964 0.49731 0.60229
 O18 O -0.07447 0.48940 0.40847
 O19 O 0.04130 0.51492 0.38298
 O20 O 0.07634 0.52242 0.57769
 O21 O 0.07910 0.42145 0.47554
 O22 O 0.04592 0.61594 0.48303
 Cu23 Cu -0.06683 0.49075 0.50741
 Cu24 Cu 0.07243 0.52088 0.47738
 C25 C -0.01780 0.63633 0.49591
 C26 C 0.02719 0.37587 0.48709
 C27 C 0.02409 0.51127 0.62284
 C28 C -0.02297 0.50194 0.36310
 O29 O 0.51531 0.04172 0.61774
 O30 O 0.52207 0.07408 0.42225
 O31 O 0.42191 0.07941 0.52510
 O32 O 0.61558 0.04357 0.51687
 O33 O 0.58921 -0.07247 0.49367
 O34 O 0.39494 -0.03638 0.50151
 O35 O 0.49545 -0.04189 0.39922
 O36 O 0.48827 -0.07402 0.59384
 Cu37 Cu 0.52109 0.07146 0.52273
 Cu38 Cu 0.48911 -0.06781 0.49465
 C39 C 0.50166 -0.02215 0.63857
 C40 C 0.51003 0.02144 0.37776
 C41 C 0.37571 0.02788 0.51446
 C42 C 0.63507 -0.02055 0.50470
 C43 C 0.50016 -0.14272 -0.13618
 C44 C 0.50372 -0.06993 -0.15293
 C45 C 0.50593 -0.01641 -0.09767
 C46 C 0.49981 -0.03450 -0.02398
 C47 C 0.49472 -0.10895 -0.00855
 C48 C 0.49686 -0.16232 -0.06423
 C49 C 0.49842 0.02364 0.03554
 C50 C 0.50858 0.00795 0.10871
 C51 C 0.50611 0.06252 0.16329
 C52 C 0.49731 0.13399 0.14562
 C53 C 0.48856 0.15100 0.07405
 C54 C 0.48681 0.09637 0.01997
 H55 H 0.49995 -0.18414 -0.17915
 H56 H 0.51284 0.03887 -0.11380
 H57 H 0.48853 -0.12685 0.04613
 H58 H 0.51872 -0.04598 0.12459
 H59 H 0.49717 0.17641 0.18762
 H60 H 0.47605 0.11225 -0.03379
 C61 C -0.14443 0.50021 1.13322
 C62 C -0.16305 0.49712 1.06098
 C63 C -0.10883 0.49528 1.00600
 C64 C -0.03458 0.50046 1.02256
 C65 C -0.01766 0.50640 1.09646
 C66 C -0.07192 0.50389 1.15091
 C67 C 0.02468 0.49962 0.96409
 C68 C 0.09734 0.48860 0.98076
 C69 C 0.15278 0.49092 0.92742
 C70 C 0.13665 0.49972 0.85561
 C71 C 0.06539 0.50801 0.83703
 C72 C 0.01005 0.50987 0.89078
 H73 H -0.18638 0.49981 1.17569
 H74 H -0.12592 0.48930 0.95104
 H75 H 0.03732 0.51344 1.11343
 H76 H 0.11253 0.47780 1.03473
 H77 H 0.17958 0.49993 0.81412
 H78 H -0.04370 0.51957 0.87409
 C79 C -0.13322 -0.13665 0.50012
 C80 C -0.06081 -0.15404 0.49643
 C81 C -0.00627 -0.09909 0.49441
 C82 C -0.02326 -0.02515 0.50032
 C83 C -0.09740 -0.00927 0.50615
 C84 C -0.15154 -0.06451 0.50393
 C85 C 0.03533 0.03449 0.50054
 C86 C 0.01939 0.10740 0.48989
 C87 C 0.07355 0.16273 0.49222
 C88 C 0.14530 0.14603 0.50106
 C89 C 0.16287 0.07450 0.50965
 C90 C 0.10835 0.01960 0.51148
 H91 H -0.17537 -0.17930 0.50005
 H92 H 0.04878 -0.11550 0.48773
 H93 H -0.11460 0.04550 0.51295
 H94 H -0.03460 0.12269 0.47939
 H95 H 0.18744 0.18867 0.50121
 H96 H 0.12438 -0.03419 0.52178
 C97 C -0.30193 0.49659 1.03208
 C98 C -0.23838 0.49647 1.04405
 C99 C 0.28990 0.48592 0.96072
 C100 C 0.22704 0.48692 0.94647
 C101 C -0.03058 -0.29216 0.49598
 C102 C -0.04316 -0.22892 0.49576
 C103 C 0.04164 0.30029 0.48651
 C104 C 0.05542 0.23731 0.48789
 C105 C 0.50259 -0.03594 -0.29014
 C106 C 0.50362 -0.05038 -0.22735
 C107 C 0.51124 0.03407 0.30178
 C108 C 0.51023 0.04579 0.23827
 C109 C 0.49611 -0.30123 -0.03600
 C110 C 0.49615 -0.23775 -0.04806
 C111 C 0.48342 0.28807 0.04114
 C112 C 0.48441 0.22534 0.05565
 C113 C -0.28964 -0.03483 0.50445
 C114 C -0.22651 -0.04757 0.50461
 C115 C 0.30042 0.04313 0.51527
 C116 C 0.23754 0.05705 0.51398
 C117 C -0.03838 0.50276 1.28806
 C118 C -0.05309 0.50374 1.22542
 C119 C 0.03752 0.51278 0.69854
 C120 C 0.04936 0.51195 0.76196
   
