data_POSCAR
  _audit_creation_date              2014-09-24
  _audit_creation_method            'ToBaCCo'
  _symmetry_space_group_name_H-M    'P1'
  _symmetry_Int_Tables_number       1
  _symmetry_cell_setting            triclinic
  loop_
  _symmetry_equiv_pos_as_xyz
 x,y,z
_cell_length_a 26.8573
_cell_length_b 29.1880
_cell_length_c 46.9302
_cell_angle_alpha 91.097500
_cell_angle_beta 88.848200
_cell_angle_gamma 83.284100
loop_
  _atom_site_label
  _atom_site_type_symbol
  _atom_site_fract_x
  _atom_site_fract_y
  _atom_site_fract_z
C1 C -0.05893 0.36804 0.98310
 C2 C -0.06446 0.36966 1.01222
 C3 C -0.03577 0.40294 1.02210
 N4 N -0.01380 0.42239 0.99998
 C5 C -0.02754 0.40075 0.97615
 C6 C -0.02799 0.41374 1.05108
 C7 C -0.01670 0.45825 1.05967
 C8 C 0.00086 0.46951 1.08625
 C9 C 0.00485 0.51593 1.08647
 C10 C -0.00988 0.53210 1.05996
 N11 N -0.02286 0.49669 1.04369
 C12 C -0.01137 0.57874 1.05172
 C13 C -0.01141 0.59133 1.02265
 C14 C -0.02378 0.63555 1.01261
 C15 C -0.01525 0.63322 0.98372
 C16 C 0.00023 0.58737 0.97678
 N17 N 0.00275 0.56184 1.00060
 C18 C 0.01510 0.57011 0.94919
 C19 C 0.02149 0.52261 0.94208
 C20 C 0.04331 0.50335 0.91691
 C21 C 0.03598 0.45743 0.91657
 C22 C 0.00982 0.45006 0.94152
 N23 N 0.00134 0.48986 0.95696
 C24 C -0.00963 0.40873 0.94841
 H25 H -0.07646 0.34570 0.96870
 H26 H -0.08733 0.34894 1.02469
 H27 H -0.02266 0.49564 0.97466
 H28 H 0.01072 0.44679 1.10371
 H29 H 0.01830 0.53530 1.10403
 H30 H -0.03779 0.66648 1.02467
 H31 H -0.02033 0.66214 0.96960
 H32 H 0.04755 0.43264 0.89959
 H33 H -0.03918 0.49944 1.02376
 H34 H 0.06126 0.52080 0.90011
 C35 C 0.65120 -0.00112 0.50619
 C36 C 0.64652 -0.00462 0.47723
 C37 C 0.59907 0.01656 0.47105
 N38 N 0.57408 0.03152 0.49541
 C39 C 0.60604 0.02093 0.51685
 C40 C 0.57958 0.02362 0.44342
 C41 C 0.52720 0.03166 0.43928
 C42 C 0.50484 0.05108 0.41524
 C43 C 0.45403 0.05089 0.41900
 C44 C 0.44658 0.03103 0.44511
 N45 N 0.49134 0.01992 0.45754
 C46 C 0.39952 0.02178 0.45629
 C47 C 0.39071 0.01653 0.48574
 C48 C 0.34677 0.00427 0.49784
 C49 C 0.35141 0.00789 0.52682
 C50 C 0.39831 0.02166 0.53153
 N51 N 0.42207 0.02720 0.50636
 C52 C 0.41657 0.03351 0.55840
 C53 C 0.46566 0.04506 0.56200
 C54 C 0.48196 0.06759 0.58573
 C55 C 0.53287 0.06812 0.58203
 C56 C 0.54634 0.04513 0.55639
 N57 N 0.50510 0.03167 0.54420
 C58 C 0.59586 0.03350 0.54571
 H59 H 0.68382 -0.01401 0.51809
 H60 H 0.67476 -0.02141 0.46254
 H61 H 0.50503 0.00948 0.52656
 H62 H 0.52307 0.06460 0.39698
 H63 H 0.42584 0.06426 0.40420
 H64 H 0.31426 -0.00540 0.48701
 H65 H 0.32279 0.00211 0.54243
 H66 H 0.55716 0.08311 0.59679
 H67 H 0.49747 0.00102 0.47601
 H68 H 0.45970 0.08172 0.60400
 C69 C 0.10702 0.02306 0.24880
 H70 H 0.10480 0.04165 0.22907
 C71 C 0.14950 0.02299 0.26555
 H72 H 0.17995 0.04176 0.25869
 C73 C 0.07041 -0.02453 0.28173
 H74 H 0.03950 -0.04329 0.28769
 C75 C 0.11170 -0.02488 0.29930
 H76 H 0.11254 -0.04452 0.31865
 N77 N 0.06857 -0.00039 0.25721
 C78 C -0.02504 -0.06596 0.19768
 H79 H -0.05754 -0.04051 0.19631
 C80 C -0.02187 -0.10642 0.18103
 H81 H -0.05227 -0.11192 0.16703
 C82 C 0.05566 -0.08801 0.21596
 H83 H 0.08619 -0.08041 0.22923
 C84 C 0.06081 -0.12839 0.19920
 H85 H 0.09519 -0.15177 0.19983
 Zn86 Zn 0.01038 -0.00050 0.23534
 N87 N 0.01330 -0.05761 0.21485
 C88 C 0.01426 0.03833 0.18072
 N89 N 0.00704 0.04846 0.20901
 C90 C -0.00205 0.09296 0.21862
 C91 C -0.00552 0.12928 0.19952
 C92 C 0.01135 0.07348 0.16088
 C93 C -0.08366 -0.01886 0.26030
 C94 C -0.12339 -0.01205 0.28023
 C95 C -0.08342 0.04913 0.30220
 C96 C -0.04485 0.04141 0.28173
 N97 N -0.04571 0.00817 0.26112
 H98 H 0.02269 0.00291 0.17341
 H99 H -0.00672 0.10052 0.24116
 H100 H -0.01279 0.16393 0.20826
 H101 H 0.01710 0.06432 0.13847
 H102 H -0.08313 -0.04620 0.24450
 H103 H -0.15235 -0.03467 0.27889
 H104 H -0.08145 0.07569 0.31846
 H105 H -0.01340 0.06128 0.28278
 C106 C 0.02171 -0.13802 0.18159
 C107 C 0.15170 -0.00052 0.29135
 C108 C -0.12371 0.02251 0.30168
 C109 C 0.00088 0.11981 0.17000
 C110 C -0.01024 0.07490 0.78036
 H111 H -0.01507 0.08071 0.75783
 C112 C -0.00965 0.11236 0.79930
 H113 H -0.01365 0.14669 0.79081
 C114 C 0.00277 0.02238 0.81811
 H115 H 0.00823 -0.01278 0.82528
 C116 C 0.00353 0.05875 0.83776
 H117 H 0.00927 0.05118 0.86005
 N118 N -0.00375 0.03102 0.78999
 C119 C 0.06918 -0.05964 0.72276
 H120 H 0.04313 -0.08503 0.72061
 C121 C 0.11249 -0.06312 0.70551
 H122 H 0.11950 -0.09127 0.69004
 C123 C 0.09153 0.00799 0.74541
 H124 H 0.08355 0.03547 0.76116
 C125 C 0.13522 0.00590 0.72855
 H126 H 0.16044 0.03166 0.73194
 Zn127 Zn -0.00219 -0.01877 0.76352
 N128 N 0.05899 -0.02395 0.74187
 C129 C -0.05071 -0.01005 0.71014
 N130 N -0.05768 -0.00698 0.73893
 C131 C -0.10414 0.00525 0.75070
 C132 C -0.14607 0.01210 0.73349
 C133 C -0.09146 -0.00290 0.69207
 C134 C 0.03418 -0.10626 0.78553
 C135 C 0.03170 -0.14630 0.80116
 C136 C -0.05495 -0.11987 0.81285
 C137 C -0.05065 -0.08037 0.79720
 N138 N -0.00671 -0.07426 0.78373
 H139 H -0.01359 -0.01835 0.70093
 H140 H -0.10877 0.01013 0.77350
 H141 H -0.18273 0.02104 0.74349
 H142 H -0.08396 -0.00714 0.66944
 H143 H 0.06921 -0.10047 0.77530
 H144 H 0.06514 -0.17061 0.80195
 H145 H -0.09049 -0.12361 0.82339
 H146 H -0.08247 -0.05440 0.79620
 C147 C 0.14558 -0.02954 0.70783
 C148 C -0.00264 0.10445 0.82852
 C149 C -0.01349 -0.15355 0.81527
 C150 C -0.14035 0.00786 0.70370
 C151 C -0.01264 -0.38724 0.07370
 C152 C 0.01208 -0.34782 0.07189
 C153 C 0.00706 -0.31171 0.09435
 N154 N 0.04134 -0.28118 0.09592
 N155 N 0.03625 -0.24719 0.11549
 C156 C -0.00363 -0.24220 0.13401
 N157 N -0.03813 -0.27253 0.13230
 N158 N -0.03277 -0.30682 0.11291
 C159 C -0.01077 -0.20357 0.15480
 C160 C 0.02869 -0.17927 0.16260
 H161 H 0.03745 -0.34405 0.05408
 H162 H -0.04763 -0.19460 0.16452
 H163 H -0.02919 -0.39403 0.09423
 H164 H 0.06643 -0.19172 0.15521
 C165 C -0.03092 0.38011 0.07227
 C166 C -0.01960 0.33256 0.06718
 C167 C -0.01938 0.29876 0.09007
 N168 N -0.00600 0.25334 0.08391
 N169 N -0.00463 0.22227 0.10438
 C170 C -0.01655 0.23546 0.13182
 N171 N -0.03004 0.28089 0.13798
 N172 N -0.03146 0.31198 0.11749
 C173 C -0.01459 0.20161 0.15478
 C174 C -0.00234 0.15426 0.14927
 H175 H -0.00698 0.31943 0.04623
 H176 H -0.02348 0.21504 0.17609
 H177 H -0.03776 0.39144 0.09423
 H178 H 0.00475 0.14320 0.12723
 C179 C 0.38226 0.03647 0.58364
 C180 C 0.36413 -0.00276 0.59428
 C181 C 0.32692 -0.00063 0.61783
 N182 N 0.30778 -0.03957 0.62580
 N183 N 0.27249 -0.03797 0.64628
 C184 C 0.25505 0.00267 0.65957
 N185 N 0.27449 0.04154 0.65175
 N186 N 0.30973 0.03996 0.63124
 C187 C 0.21465 0.00545 0.68142
 C188 C 0.18992 -0.03253 0.68829
 H189 H 0.37604 -0.03597 0.58409
 H190 H 0.20236 0.03902 0.69090
 H191 H 0.37251 0.06967 0.59426
 H192 H 0.20108 -0.06515 0.67723
 C193 C -0.36050 0.03613 0.56442
 C194 C -0.35860 0.01979 0.59216
 C195 C -0.31318 0.01965 0.60921
 N196 N -0.31466 0.00968 0.63732
 N197 N -0.27352 0.00881 0.65283
 C198 C -0.22934 0.01765 0.64073
 N199 N -0.22786 0.02739 0.61261
 N200 N -0.26902 0.02854 0.59716
 C201 C -0.18308 0.01529 0.65718
 C202 C -0.18351 0.01356 0.68696
 H203 H -0.39081 0.00608 0.60149
 H204 H -0.14854 0.01618 0.64514
 H205 H -0.32725 0.04810 0.55511
 H206 H -0.21976 0.01743 0.69790
 C207 C 0.02509 -0.39702 0.92673
 C208 C -0.01383 -0.36827 0.91497
 C209 C -0.00506 -0.33298 0.89411
 N210 N -0.04409 -0.30296 0.88566
 N211 N -0.03667 -0.26960 0.86763
 C212 C 0.01007 -0.26503 0.85733
 N213 N 0.04907 -0.29534 0.86558
 N214 N 0.04168 -0.32865 0.88368
 C215 C 0.01902 -0.22734 0.83811
 C216 C -0.01916 -0.19226 0.83198
 H217 H -0.05198 -0.37038 0.92235
 H218 H 0.05681 -0.22695 0.82993
 H219 H 0.06327 -0.39681 0.91891
 H220 H -0.05589 -0.19446 0.84152
 C221 C -0.01222 0.37349 0.92539
 C222 C 0.00260 0.32674 0.92952
 C223 C -0.00096 0.29132 0.90719
 N224 N 0.01337 0.24633 0.91273
 N225 N 0.00970 0.21364 0.89294
 C226 C -0.00852 0.22473 0.86686
 N227 N -0.02278 0.26976 0.86129
 N228 N -0.01912 0.30247 0.88110
 C229 C -0.01291 0.18895 0.84479
 C230 C 0.00014 0.14213 0.84989
 H231 H 0.01695 0.31562 0.94999
 H232 H -0.02742 0.20018 0.82446
 H233 H -0.02337 0.38504 0.90442
 H234 H 0.01257 0.13227 0.87096
 C235 C -0.38829 0.02235 0.41905
 C236 C -0.33987 0.03547 0.41926
 C237 C -0.30611 0.03004 0.39406
 N238 N -0.26168 0.04783 0.39459
 N239 N -0.22978 0.04181 0.37237
 C240 C -0.24100 0.01759 0.34883
 N241 N -0.28542 -0.00027 0.34831
 N242 N -0.31743 0.00588 0.37050
 C243 C -0.20532 0.00934 0.32452
 C244 C -0.16140 0.03079 0.32306
 H245 H -0.32643 0.05139 0.43819
 H246 H -0.21473 -0.01374 0.30774
 H247 H -0.40304 0.01414 0.39849
 H248 H -0.15613 0.05597 0.33968
 C249 C 0.35609 0.02150 0.43709
 C250 C 0.35986 0.00040 0.41008
 C251 C 0.31625 0.00034 0.39163
 N252 N 0.32296 -0.01047 0.36346
 N253 N 0.28371 -0.01042 0.34652
 C254 C 0.23629 0.00012 0.35722
 N255 N 0.22959 0.01050 0.38544
 N256 N 0.26883 0.01082 0.40231
 C257 C 0.19245 -0.00043 0.33905
 C258 C 0.19610 0.00012 0.30938
 H259 H 0.39584 -0.01580 0.40200
 H260 H 0.15596 0.00071 0.34946
 H261 H 0.31962 0.03680 0.44498
 H262 H 0.23186 0.00399 0.29916
   
