data_POSCAR
  _audit_creation_date              2014-09-24
  _audit_creation_method            'ToBaCCo'
  _symmetry_space_group_name_H-M    'P1'
  _symmetry_Int_Tables_number       1
  _symmetry_cell_setting            triclinic
  loop_
  _symmetry_equiv_pos_as_xyz
 x,y,z
_cell_length_a 27.5635
_cell_length_b 27.6078
_cell_length_c 70.9361
_cell_angle_alpha 83.805600
_cell_angle_beta 93.120400
_cell_angle_gamma 120.093600
loop_
  _atom_site_label
  _atom_site_type_symbol
  _atom_site_fract_x
  _atom_site_fract_y
  _atom_site_fract_z
C1 C 0.00057 0.11450 0.52288
 H2 H 0.04113 0.11750 0.52224
 C3 C -0.00711 0.14769 0.53450
 H4 H 0.02759 0.17630 0.54288
 C5 C -0.09439 0.07298 0.51289
 H6 H -0.12811 0.04382 0.50440
 C7 C -0.10393 0.10549 0.52441
 H8 H -0.14516 0.10113 0.52489
 N9 N -0.04289 0.07754 0.51259
 C10 C -0.00637 -0.05630 0.50664
 H11 H -0.00326 -0.05432 0.49141
 C12 C -0.00454 -0.09969 0.51824
 H13 H 0.00049 -0.13098 0.51196
 C14 C -0.02002 -0.02002 0.53344
 H15 H -0.02785 0.00987 0.53933
 C16 C -0.01830 -0.06250 0.54551
 H17 H -0.02410 -0.06461 0.56062
 Zn18 Zn -0.02616 0.03433 0.49804
 N19 N -0.01435 -0.01778 0.51438
 C20 C 0.08527 0.08052 0.48371
 N21 N 0.03854 0.08547 0.48368
 C22 C 0.03603 0.12855 0.47329
 C23 C 0.08102 0.16798 0.46189
 C24 C 0.13137 0.11918 0.47244
 C25 C -0.13442 -0.05126 0.48918
 C26 C -0.17591 -0.08872 0.47751
 C27 C -0.11680 -0.03565 0.45036
 C28 C -0.07650 0.00053 0.46252
 N29 N -0.08564 -0.00809 0.48156
 H30 H 0.08667 0.04645 0.49229
 H31 H -0.00147 0.13170 0.47369
 H32 H 0.07820 0.20157 0.45342
 H33 H 0.16814 0.11461 0.47223
 H34 H -0.14009 -0.05792 0.50440
 H35 H -0.21382 -0.12399 0.48379
 H36 H -0.10813 -0.02912 0.43528
 H37 H -0.03704 0.03401 0.45674
 C38 C -0.01118 -0.10306 0.53783
 C39 C -0.05986 0.14289 0.53540
 C40 C -0.16659 -0.08126 0.45792
 C41 C 0.12895 0.16306 0.46135
 C42 C 1.15862 0.06626 0.14208
 H43 H 1.16198 0.10704 0.14202
 C44 C 1.19452 0.05968 0.13087
 H45 H 1.22559 0.09545 0.12209
 C46 C 1.11342 -0.03039 0.15343
 H47 H 1.08176 -0.06523 0.16226
 C48 C 1.14857 -0.03884 0.14235
 H49 H 1.14371 -0.08034 0.14256
 N50 N 1.11854 0.02144 0.15283
 C51 C 0.98284 0.05721 0.15711
 H52 H 0.98060 0.05759 0.17227
 C53 C 0.94194 0.06005 0.14524
 H54 H 0.90837 0.06313 0.15122
 C55 C 1.02699 0.04888 0.13084
 H56 H 1.05888 0.04254 0.12530
 C57 C 0.98715 0.05174 0.11850
 H58 H 0.98904 0.04827 0.10352
 Zn59 Zn 1.07143 0.03617 0.16668
 N60 N 1.02394 0.05116 0.14978
 C61 C 1.11351 0.14479 0.17995
 N62 N 1.11863 0.09810 0.18052
 C63 C 1.15877 0.09340 0.19125
 C64 C 1.19471 0.13592 0.20246
 C65 C 1.14871 0.18843 0.19103
 C66 C 0.98285 -0.07353 0.17629
 C67 C 0.94201 -0.11727 0.18818
 C68 C 0.98739 -0.06361 0.21490
 C69 C 1.02717 -0.02091 0.20255
 N70 N 1.02401 -0.02631 0.18360
 H71 H 1.08181 0.14793 0.17113
 H72 H 1.16212 0.05599 0.19129
 H73 H 1.22582 0.13125 0.21124
 H74 H 1.14385 0.22506 0.19084
 H75 H 0.98052 -0.07620 0.16114
 H76 H 0.90838 -0.15397 0.18221
 H77 H 0.98937 -0.05820 0.22988
 H78 H 1.05911 0.01737 0.20807
 C79 C 0.94379 0.05651 0.12578
 C80 C 1.18918 0.00662 0.13087
 C81 C 0.94396 -0.11182 0.20763
 C82 C 1.18936 0.18362 0.20249
 C83 C 0.03564 0.90682 0.85993
 H84 H -0.00183 0.86612 0.85950
 C85 C 0.08060 0.91246 0.87137
 H86 H 0.07776 0.87605 0.87984
 C87 C 0.08486 1.00416 0.84953
 H88 H 0.08627 1.03963 0.84095
 C89 C 0.13092 1.01168 0.86085
 H90 H 0.16766 1.05307 0.86108
 N91 N 0.03816 0.95241 0.84954
 C92 C -0.13482 0.91592 0.84391
 H93 H -0.14043 0.91692 0.82869
 C94 C -0.17634 0.91183 0.85556
 H95 H -0.21424 0.90916 0.84929
 C96 C -0.07698 0.92210 0.87061
 H97 H -0.03753 0.92814 0.87643
 C98 C -0.11733 0.91792 0.88274
 H99 H -0.10882 0.92008 0.89782
 Zn100 Zn -0.02650 0.93876 0.83513
 N101 N -0.08605 0.92158 0.85156
 C102 C -0.09463 0.83183 0.82024
 N103 N -0.04315 0.87882 0.82057
 C104 C 0.00036 0.88540 0.81030
 C105 C -0.00726 0.84455 0.79868
 C106 C -0.10412 0.78978 0.80871
 C107 C -0.00675 1.04918 0.82653
 C108 C -0.00491 1.09441 0.81493
 C109 C -0.01852 1.04350 0.78766
 C110 C -0.02026 0.99929 0.79972
 N111 N -0.01467 1.00270 0.81879
 H112 H -0.12839 0.82721 0.82870
 H113 H 0.04091 0.92301 0.81098
 H114 H 0.02747 0.85070 0.79032
 H115 H -0.14534 0.75287 0.80820
 H116 H -0.00370 1.05030 0.84177
 H117 H 0.00007 1.13071 0.82121
 H118 H -0.02426 1.03983 0.77254
 H119 H -0.02803 0.96158 0.79383
 C120 C -0.16706 0.91368 0.87514
 C121 C 0.12848 0.96538 0.87194
 C122 C -0.01147 1.09116 0.79533
 C123 C -0.06000 0.79653 0.79775
 C124 C 0.61840 -0.02554 -0.01630
 C125 C 0.65011 -0.01742 0.00031
 C126 C 0.63208 -0.00924 0.01710
 C127 C 0.58033 -0.01040 0.01757
 C128 C 0.54838 -0.01730 0.00067
 C129 C 0.56777 -0.02427 -0.01640
 C130 C 0.53610 -0.02971 -0.03307
 C131 C 0.48647 -0.02796 -0.03301
 C132 C 0.46611 -0.02189 -0.01619
 C133 C 0.49698 -0.01719 0.00086
 C134 C 0.55969 -0.00486 0.03442
 C135 C 0.50845 -0.00638 0.03472
 C136 C 0.47654 -0.01233 0.01808
 C137 C 0.42472 -0.01350 0.01815
 C138 C 0.39536 -0.01687 0.00121
 C139 C 0.41567 -0.02039 -0.01590
 H140 H 0.54975 -0.03484 -0.04637
 H141 H 0.46387 -0.03193 -0.04625
 H142 H 0.58282 0.00021 0.04759
 H143 H 0.49425 -0.00233 0.04809
 H144 H 0.68947 -0.01743 0.00017
 H145 H 0.35607 -0.01671 0.00134
 C146 C -0.06487 0.36947 0.64936
 C147 C -0.06233 0.34114 0.66659
 C148 C -0.06006 0.36239 0.68382
 C149 C -0.06179 0.41261 0.68401
 C150 C -0.06308 0.44244 0.66657
 C151 C -0.06398 0.42113 0.64915
 C152 C -0.06370 0.45215 0.63203
 C153 C -0.06200 0.50344 0.63202
 C154 C -0.06173 0.52499 0.64913
 C155 C -0.06306 0.49386 0.66656
 C156 C -0.06207 0.43389 0.70112
 C157 C -0.06372 0.48351 0.70111
 C158 C -0.06396 0.51426 0.68399
 C159 C -0.06481 0.56506 0.68378
 C160 C -0.06223 0.59594 0.66655
 C161 C -0.05996 0.57697 0.64932
 H162 H -0.06418 0.43726 0.61847
 H163 H -0.06135 0.52591 0.61846
 H164 H -0.06144 0.41206 0.71468
 H165 H -0.06421 0.49791 0.71467
 H166 H -0.06172 0.30212 0.66659
 H167 H -0.06159 0.63559 0.66655
 C168 C 0.61922 0.64479 0.34984
 C169 C 0.65088 0.66842 0.33323
 C170 C 0.63276 0.64224 0.31642
 C171 C 0.58096 0.59164 0.31595
 C172 C 0.54906 0.56655 0.33284
 C173 C 0.56855 0.59288 0.34993
 C174 C 0.53692 0.56661 0.36660
 C175 C 0.48723 0.51522 0.36652
 C176 C 0.46678 0.48881 0.34969
 C177 C 0.49761 0.51503 0.33265
 C178 C 0.56023 0.56549 0.29908
 C179 C 0.50894 0.51576 0.29878
 C180 C 0.47708 0.48976 0.31541
 C181 C 0.42521 0.43910 0.31534
 C182 C 0.39590 0.41307 0.33227
 C183 C 0.41629 0.43686 0.34939
 H184 H 0.55064 0.58537 0.37990
 H185 H 0.46467 0.49654 0.37976
 H186 H 0.58332 0.58358 0.28591
 H187 H 0.49467 0.49754 0.28540
 H188 H 0.69028 0.70780 0.33338
 H189 H 0.35657 0.37361 0.33213
 C190 C -0.07529 0.23445 0.57359
 N191 N -0.03413 0.28855 0.57469
 N192 N -0.03355 0.31698 0.58882
 C193 C -0.07407 0.29213 0.60230
 N194 N -0.11535 0.23810 0.60116
 N195 N -0.11593 0.20967 0.58703
 C196 C -0.07270 0.20229 0.55948
 C197 C -0.06827 0.17512 0.54817
 C198 C -0.07106 0.32106 0.61833
 C199 C -0.06820 0.34397 0.63222
 C200 C 0.81908 0.77914 0.24440
 N201 N 0.82820 0.74801 0.25876
 N202 N 0.78959 0.71851 0.27218
 C203 C 0.74074 0.71933 0.27169
 N204 N 0.73153 0.75031 0.25730
 N205 N 0.77014 0.77980 0.24387
 C206 C 0.86254 0.81483 0.23091
 C207 C 0.89955 0.84701 0.22004
 C208 C 0.70112 0.69091 0.28690
 C209 C 0.66919 0.66824 0.30010
 C210 C 0.25062 -0.02249 -0.09056
 N211 N 0.28274 0.02482 -0.08173
 N212 N 0.31770 0.02552 -0.06789
 C213 C 0.32158 -0.02106 -0.06244
 N214 N 0.28960 -0.06831 -0.07132
 N215 N 0.25464 -0.06901 -0.08516
 C216 C 0.20977 -0.02475 -0.10440
 C217 C 0.17368 -0.02820 -0.11549
 C218 C 0.35607 -0.02142 -0.04660
 C219 C 0.38380 -0.02137 -0.03286
 C220 C -0.02526 0.76656 0.57465
 N221 N -0.07699 0.72171 0.57853
 N222 N -0.08406 0.68187 0.59230
 C223 C -0.03960 0.68568 0.60262
 N224 N 0.01216 0.73041 0.59869
 N225 N 0.01923 0.77026 0.58492
 C226 C -0.01859 0.81179 0.56099
 C227 C -0.01428 0.85042 0.55011
 C228 C -0.04770 0.64536 0.61845
 C229 C -0.05386 0.61320 0.63224
 C230 C 0.28725 0.29647 0.23990
 N231 N 0.33691 0.30028 0.24534
 N232 N 0.36656 0.33129 0.25931
 C233 C 0.34741 0.35942 0.26827
 N234 N 0.29786 0.35577 0.26278
 N235 N 0.26821 0.32475 0.24881
 C236 C 0.25319 0.25922 0.22602
 C237 C 0.22415 0.22589 0.21495
 C238 C 0.37695 0.38915 0.28428
 C239 C 0.40001 0.41262 0.29819
 C240 C 0.73382 -0.07323 -0.08907
 N241 N 0.70691 -0.11376 -0.07474
 N242 N 0.68103 -0.10517 -0.06123
 C243 C 0.68137 -0.05578 -0.06160
 N244 N 0.70810 -0.01533 -0.07597
 N245 N 0.73396 -0.02391 -0.08948
 C246 C 0.76639 -0.08016 -0.10253
 C247 C 0.79634 -0.08415 -0.11329
 C248 C 0.65752 -0.04493 -0.04622
 C249 C 0.63901 -0.03587 -0.03285
 C250 C 0.28699 -0.00842 0.09351
 N251 N 0.26801 -0.05588 0.08467
 N252 N 0.29763 -0.05731 0.07072
 C253 C 0.34710 -0.01133 0.06518
 N254 N 0.36619 0.03608 0.07407
 N255 N 0.33657 0.03750 0.08802
 C256 C 0.25296 -0.00519 0.10737
 C257 C 0.22393 -0.00088 0.11843
 C258 C 0.37659 -0.01161 0.04918
 C259 C 0.39960 -0.01210 0.03529
 C260 C 0.73537 0.80798 0.42261
 N261 N 0.70839 0.82161 0.40831
 N262 N 0.68234 0.78712 0.39481
 C263 C 0.68257 0.73801 0.39516
 N264 N 0.70936 0.72427 0.40950
 N265 N 0.73540 0.75876 0.42300
 C266 C 0.76814 0.84754 0.43605
 C267 C 0.79826 0.88151 0.44680
 C268 C 0.65856 0.70329 0.37977
 C269 C 0.63995 0.67572 0.36640
 C270 C -0.02550 0.20746 0.75851
 N271 N 0.01901 0.24832 0.74826
 N272 N 0.01197 0.28111 0.73448
 C273 C -0.03979 0.27401 0.73053
 N274 N -0.08428 0.23328 0.74082
 N275 N -0.07723 0.20050 0.75460
 C276 C -0.01885 0.16890 0.77216
 C277 C -0.01455 0.13458 0.78305
 C278 C -0.04787 0.30623 0.71469
 C279 C -0.05400 0.33224 0.70090
 C280 C 0.81871 0.04049 0.08907
 N281 N 0.76977 -0.00917 0.08961
 N282 N 0.73109 -0.01834 0.07620
 C283 C 0.74023 0.02185 0.06182
 N284 N 0.78908 0.07158 0.06131
 N285 N 0.82775 0.08075 0.07472
 C286 C 0.86225 0.04833 0.10254
 C287 C 0.89931 0.05321 0.11340
 C288 C 0.70054 0.01058 0.04662
 C289 C 0.66856 0.00127 0.03342
 C290 C 0.25123 0.27345 0.42397
 N291 N 0.25517 0.32397 0.41858
 N292 N 0.29016 0.35834 0.40476
 C293 C 0.32225 0.34321 0.39590
 N294 N 0.31844 0.29278 0.40134
 N295 N 0.28345 0.25840 0.41516
 C296 C 0.21033 0.23472 0.43777
 C297 C 0.17420 0.20198 0.44882
 C298 C 0.35674 0.37816 0.38008
 C299 C 0.38446 0.40591 0.36634
 C300 C -0.07530 0.68961 0.75954
 N301 N -0.11597 0.67363 0.74610
 N302 N -0.11537 0.64579 0.73198
 C303 C -0.07404 0.63317 0.73084
 N304 N -0.03348 0.64896 0.74432
 N305 N -0.03408 0.67680 0.75844
 C306 C -0.07275 0.72433 0.77366
 C307 C -0.06836 0.75591 0.78497
 C308 C -0.07102 0.60726 0.71480
 C309 C -0.06814 0.58722 0.70091
   
