data_POSCAR
  _audit_creation_date              2014-09-24
  _audit_creation_method            'ToBaCCo'
  _symmetry_space_group_name_H-M    'P1'
  _symmetry_Int_Tables_number       1
  _symmetry_cell_setting            triclinic
  loop_
  _symmetry_equiv_pos_as_xyz
 x,y,z
_cell_length_a 22.1154
_cell_length_b 22.4220
_cell_length_c 22.4410
_cell_angle_alpha 92.791000
_cell_angle_beta 94.506400
_cell_angle_gamma 97.302700
loop_
  _atom_site_label
  _atom_site_type_symbol
  _atom_site_fract_x
  _atom_site_fract_y
  _atom_site_fract_z
C1 C 0.53574 0.55978 -0.00545
 C2 C 0.55043 0.50074 -0.00057
 C3 C 0.50321 0.45438 0.00764
 C4 C 0.44124 0.46423 0.00380
 C5 C 0.42815 0.52360 -0.00482
 C6 C 0.47488 0.57234 -0.00557
 C7 C 0.39055 0.41307 0.00862
 C8 C 0.33189 0.42489 0.02262
 C9 C 0.28276 0.37842 0.02204
 C10 C 0.29377 0.31860 0.01414
 C11 C 0.35221 0.30469 0.00402
 C12 C 0.39963 0.35202 -0.00128
 H13 H 0.57184 0.59590 -0.00861
 H14 H 0.51547 0.41023 0.01605
 H15 H 0.38138 0.53296 -0.01016
 H16 H 0.32392 0.47012 0.03490
 H17 H 0.25641 0.28250 0.01563
 H18 H 0.44271 0.34066 -0.01469
 C19 C -0.01134 0.64749 0.36954
 C20 C 0.01010 0.66658 0.42926
 C21 C 0.01232 0.62299 0.47198
 C22 C -0.00700 0.56188 0.45633
 C23 C -0.02898 0.54415 0.39709
 C24 C -0.02985 0.58594 0.35276
 C25 C -0.00290 0.51600 0.50131
 C26 C 0.01477 0.46001 0.48522
 C27 C 0.01796 0.41571 0.52669
 C28 C 0.00359 0.42782 0.58570
 C29 C -0.01378 0.48409 0.60260
 C30 C -0.01682 0.52768 0.56018
 H31 H -0.01489 0.68028 0.33670
 H32 H 0.03026 0.63657 0.51765
 H33 H -0.04490 0.49700 0.38523
 H34 H 0.02692 0.45088 0.44012
 H35 H 0.00588 0.39392 0.61806
 H36 H -0.03120 0.57060 0.57295
 C37 C 0.70171 -0.01356 0.66318
 C38 C 0.64039 -0.02432 0.67574
 C39 C 0.59431 -0.02541 0.62851
 C40 C 0.60896 -0.01113 0.57017
 C41 C 0.67121 0.00189 0.55976
 C42 C 0.71819 -0.00130 0.60546
 C43 C 0.55960 -0.00822 0.52059
 C44 C 0.57019 -0.01784 0.45964
 C45 C 0.52467 -0.01301 0.41327
 C46 C 0.46715 0.00036 0.42841
 C47 C 0.45514 0.00921 0.48856
 C48 C 0.50153 0.00548 0.53391
 H49 H 0.73722 -0.01437 0.69927
 H50 H 0.54722 -0.03817 0.63699
 H51 H 0.68243 0.01574 0.51629
 H52 H 0.61364 -0.02995 0.44760
 H53 H 0.43160 0.00386 0.39354
 H54 H 0.49205 0.01475 0.57976
 O55 O 0.45396 -0.04993 -0.06877
 O56 O 0.43388 -0.05351 0.09254
 O57 O 0.43299 0.02895 0.01335
 O58 O 0.45606 -0.13236 0.00942
 O59 O 0.55504 -0.10475 0.03158
 O60 O 0.53228 0.05487 0.03476
 O61 O 0.53296 -0.02671 0.11460
 O62 O 0.55340 -0.02440 -0.04783
 Cu63 Cu 0.43429 -0.05435 0.00981
 Cu64 Cu 0.55324 -0.02253 0.03548
 C65 C 0.50712 -0.03680 -0.08587
 C66 C 0.47954 -0.04088 0.13106
 C67 C 0.47901 0.06933 0.02418
 C68 C 0.51000 -0.14570 0.01956
 O69 O -0.13075 0.57482 0.94945
 O70 O 0.03225 0.55499 0.96717
 O71 O -0.05393 0.53289 0.88132
 O72 O -0.04273 0.60180 1.03298
 O73 O -0.06751 0.51204 1.06733
 O74 O -0.07812 0.44231 0.91379
 O75 O 0.00765 0.46497 1.00098
 O76 O -0.15560 0.48471 0.98292
 Cu77 Cu -0.04655 0.57502 0.95409
 Cu78 Cu -0.07613 0.46688 0.99463
 C79 C -0.17083 0.53359 0.96395
 C80 C 0.04773 0.50654 0.98702
 C81 C -0.06666 0.47634 0.87135
 C82 C -0.05308 0.56874 1.07611
 O83 O 0.05604 -0.01215 0.39624
 O84 O 0.07131 0.14269 0.46220
 O85 O 0.14642 0.07492 0.41709
 O86 O -0.01837 0.05802 0.43453
 O87 O -0.00139 0.02719 0.52565
 O88 O 0.16411 0.04145 0.50692
 O89 O 0.09026 0.11072 0.55246
 O90 O 0.07233 -0.04432 0.48686
 Cu91 Cu 0.06267 0.06937 0.41846
 Cu92 Cu 0.08343 0.03049 0.52705
 C93 C 0.06046 -0.05484 0.43077
 C94 C 0.08200 0.15299 0.51852
 C95 C 0.18325 0.06040 0.45838
 C96 C -0.03803 0.04009 0.48302
 C97 C -0.38917 0.48652 0.99750
 C98 C -0.34253 0.52332 0.97874
 C99 C -0.28012 0.50667 0.97949
 C100 C -0.23520 0.54437 0.95968
 H101 H -0.34934 0.56617 0.96118
 H102 H -0.27052 0.46473 0.99792
 H103 H -0.38018 0.44209 1.00989
 H104 H -0.24548 0.58641 0.94190
 C105 C 0.21918 0.39077 1.02870
 C106 C 0.19864 0.44167 1.01207
 C107 C 0.13344 0.44923 1.01242
 C108 C 0.11305 0.49890 0.99241
 H109 H 0.22918 0.47696 0.99459
 H110 H 0.10169 0.41316 1.02718
 H111 H 0.18691 0.35482 1.04295
 H112 H 0.14521 0.53470 0.97774
 C113 C 0.02891 -0.27263 0.44867
 C114 C 0.03299 -0.22602 0.41328
 C115 C 0.04933 -0.16414 0.43943
 C116 C 0.05020 -0.11713 0.40505
 H117 H 0.02378 -0.23188 0.36527
 H118 H 0.05841 -0.15690 0.48761
 H119 H 0.04091 -0.26260 0.49628
 H120 H 0.04044 -0.12446 0.35696
 C121 C 0.03334 0.35676 0.50483
 C122 C 0.05529 0.31648 0.53961
 C123 C 0.06516 0.25799 0.51238
 C124 C 0.08204 0.21409 0.54537
 H125 H 0.06478 0.32567 0.58746
 H126 H 0.05484 0.24955 0.46442
 H127 H 0.02661 0.34622 0.45685
 H128 H 0.09141 0.22187 0.59346
 C129 C 0.62771 -0.03365 -0.26090
 C130 C 0.57375 -0.03032 -0.23850
 C131 C 0.56825 -0.03368 -0.17345
 C132 C 0.51398 -0.03550 -0.15072
 H133 H 0.53405 -0.02279 -0.26704
 H134 H 0.60924 -0.03431 -0.14372
 H135 H 0.66625 -0.04008 -0.22995
 H136 H 0.47288 -0.03681 -0.18072
 C137 C 0.53953 -0.01906 0.34962
 C138 C 0.49708 -0.03187 0.30302
 C139 C 0.51296 -0.03175 0.24012
 C140 C 0.46868 -0.04269 0.19512
 H141 H 0.44931 -0.04222 0.31066
 H142 H 0.56033 -0.02136 0.23069
 H143 H 0.58735 -0.01199 0.34082
 H144 H 0.42158 -0.05299 0.20559
 C145 C 0.45891 -0.36828 -0.00616
 C146 C 0.49916 -0.31772 0.00322
 C147 C 0.48020 -0.25675 0.00444
 C148 C 0.52260 -0.20871 0.01750
 H149 H 0.54739 -0.31975 0.01278
 H150 H 0.43252 -0.25119 -0.00512
 H151 H 0.41074 -0.36301 -0.01171
 H152 H 0.56998 -0.21563 0.02697
 C153 C 0.36107 0.24010 -0.00227
 C154 C 0.41451 0.21967 0.01138
 C155 C 0.41893 0.15432 0.00931
 C156 C 0.47195 0.13398 0.02479
 H157 H 0.45487 0.25091 0.02654
 H158 H 0.37844 0.12267 -0.00454
 H159 H 0.32084 0.20755 -0.01450
 H160 H 0.51228 0.16607 0.03803
 C161 C -0.21883 0.00720 0.59658
 C162 C -0.19512 0.01663 0.54411
 C163 C -0.12842 0.02232 0.54031
 C164 C -0.10425 0.03445 0.48886
 H165 H -0.22361 0.01935 0.50327
 H166 H -0.09884 0.01658 0.57992
 H167 H -0.18672 0.00464 0.63525
 H168 H -0.13396 0.04120 0.44966
 C169 C 0.39362 0.01920 0.50578
 C170 C 0.35289 0.04306 0.47013
 C171 C 0.28996 0.04515 0.48643
 C172 C 0.24845 0.06443 0.44806
 H173 H 0.36509 0.05978 0.42765
 H174 H 0.27672 0.02779 0.52844
 H175 H 0.38118 0.00560 0.54940
 H176 H 0.26208 0.08092 0.40584
 C177 C -0.04761 0.56352 1.29338
 C178 C -0.04451 0.59603 1.24500
 C179 C -0.05693 0.56620 1.18480
 C180 C -0.04712 0.59743 1.13670
 H181 H -0.02935 0.64385 1.24819
 H182 H -0.07146 0.51804 1.17989
 H183 H -0.06199 0.51542 1.28577
 H184 H -0.03232 0.64553 1.14197
 C185 C -0.02650 0.50094 0.66435
 C186 C -0.04305 0.46199 0.70522
 C187 C -0.05155 0.48564 0.76573
 C188 C -0.06592 0.45013 0.81001
 H189 H -0.04966 0.41385 0.69480
 H190 H -0.04337 0.53409 0.77479
 H191 H -0.02274 0.54879 0.67657
 H192 H -0.07409 0.40163 0.80177
   
