data_POSCAR
  _audit_creation_date              2014-09-24
  _audit_creation_method            'ToBaCCo'
  _symmetry_space_group_name_H-M    'P1'
  _symmetry_Int_Tables_number       1
  _symmetry_cell_setting            triclinic
  loop_
  _symmetry_equiv_pos_as_xyz
 x,y,z
_cell_length_a 51.8112
_cell_length_b 51.1621
_cell_length_c 45.2612
_cell_angle_alpha 90.166300
_cell_angle_beta 89.840200
_cell_angle_gamma 119.389000
loop_
  _atom_site_label
  _atom_site_type_symbol
  _atom_site_fract_x
  _atom_site_fract_y
  _atom_site_fract_z
C1 C -0.00807 0.51832 -0.00367
 C2 C -0.00836 0.49147 -0.00304
 C3 C 0.01171 0.48616 0.01631
 C4 C -0.02820 0.46596 -0.02239
 C5 C -0.02616 0.52422 -0.02545
 C6 C 0.01018 0.54296 0.01740
 C7 C 0.04255 0.50456 0.01466
 C8 C 0.06122 0.49830 0.03190
 C9 C 0.04928 0.47343 0.05109
 C10 C 0.01844 0.45490 0.05231
 C11 C -0.00016 0.46117 0.03509
 C12 C -0.01612 0.45244 -0.04051
 C13 C -0.03420 0.42898 -0.05940
 C14 C -0.06492 0.41845 -0.06084
 C15 C -0.07708 0.43159 -0.04175
 C16 C -0.05889 0.45489 -0.02263
 C17 C -0.04510 0.53482 -0.01566
 C18 C -0.06353 0.53868 -0.03561
 C19 C -0.06365 0.53161 -0.06559
 C20 C -0.04382 0.52220 -0.07564
 C21 C -0.02495 0.51895 -0.05581
 C22 C 0.00913 0.53769 0.04797
 C23 C 0.02721 0.56080 0.06733
 C24 C 0.04627 0.58979 0.05654
 C25 C 0.04625 0.59536 0.02621
 C26 C 0.02852 0.57215 0.00680
 H27 H 0.05217 0.52345 -0.00035
 H28 H 0.08485 0.51261 0.02950
 H29 H 0.00867 0.43550 0.06668
 H30 H -0.02390 0.44649 0.03638
 H31 H 0.00750 0.46044 -0.04042
 H32 H -0.02386 0.41946 -0.07336
 H33 H -0.06873 0.46451 -0.00817
 H34 H -0.04613 0.53942 0.00755
 H35 H -0.07834 0.54637 -0.02747
 H36 H -0.04271 0.51759 -0.09883
 H37 H -0.00977 0.51180 -0.06406
 H38 H -0.00564 0.51565 0.05684
 H39 H 0.02591 0.55602 0.09073
 H40 H 0.06047 0.61760 0.01744
 H41 H 0.02943 0.57687 -0.01661
 H42 H -0.10046 0.42426 -0.04098
 C43 C 0.54613 0.53741 0.01165
 C44 C 0.51955 0.51159 0.01328
 C45 C 0.51489 0.48417 -0.00278
 C46 C 0.49455 0.51036 0.03071
 C47 C 0.55446 0.56209 0.03328
 C48 C 0.56806 0.54197 -0.01183
 C49 C 0.49161 0.46978 -0.02305
 C50 C 0.48983 0.44658 -0.04102
 C51 C 0.51118 0.43718 -0.03869
 C52 C 0.53354 0.45073 -0.01734
 C53 C 0.53527 0.47380 0.00054
 C54 C 0.48681 0.53295 0.02748
 C55 C 0.46469 0.53306 0.04505
 C56 C 0.44930 0.51026 0.06578
 C57 C 0.45645 0.48710 0.06846
 C58 C 0.47880 0.48712 0.05094
 C59 C 0.55366 0.55647 0.06370
 C60 C 0.56208 0.57983 0.08403
 C61 C 0.57107 0.60907 0.07432
 C62 C 0.57241 0.61479 0.04383
 C63 C 0.56432 0.59148 0.02348
 C64 C 0.59787 0.55232 -0.00464
 C65 C 0.61833 0.55611 -0.02674
 C66 C 0.60924 0.54941 -0.05626
 C67 C 0.57963 0.54015 -0.06356
 C68 C 0.55929 0.53664 -0.04155
 H69 H 0.47570 0.47749 -0.02598
 H70 H 0.47246 0.43708 -0.05739
 H71 H 0.55021 0.44394 -0.01495
 H72 H 0.55320 0.48436 0.01631
 H73 H 0.49820 0.55078 0.01156
 H74 H 0.45961 0.55110 0.04246
 H75 H 0.48439 0.46947 0.05379
 H76 H 0.54668 0.53402 0.07164
 H77 H 0.56111 0.57497 0.10742
 H78 H 0.57999 0.63727 0.03566
 H79 H 0.56547 0.59629 0.00007
 H80 H 0.60518 0.55696 0.01811
 H81 H 0.64112 0.56362 -0.02069
 H82 H 0.57217 0.53591 -0.08627
 H83 H 0.53664 0.52970 -0.04771
 H84 H 0.44553 0.46945 0.08459
 C85 C 0.49056 1.00092 0.00452
 C86 C 0.51788 1.00319 0.00566
 C87 C 0.54345 1.02680 -0.01096
 C88 C 0.52265 0.98187 0.02391
 C89 C 0.46712 0.98173 0.02576
 C90 C 0.48300 1.01815 -0.01686
 C91 C 0.55910 1.01898 -0.03119
 C92 C 0.58045 1.04073 -0.04979
 C93 C 0.58675 1.07081 -0.04816
 C94 C 0.57204 1.07871 -0.02683
 C95 C 0.55080 1.05702 -0.00828
 C96 C 0.50577 0.95094 0.01859
 C97 C 0.50673 0.93045 0.03822
 C98 C 0.52478 0.94040 0.06342
 C99 C 0.54274 0.97152 0.06803
 C100 C 0.54175 0.99206 0.04828
 C101 C 0.47047 0.98913 0.05588
 C102 C 0.44786 0.97192 0.07581
 C103 C 0.42190 0.94673 0.06600
 C104 C 0.41862 0.93925 0.03581
 C105 C 0.44101 0.95687 0.01577
 C106 C 0.46789 1.03307 -0.00722
 C107 C 0.46117 1.04977 -0.02697
 C108 C 0.46987 1.05242 -0.05676
 C109 C 0.48392 1.03632 -0.06663
 C110 C 0.49007 1.01914 -0.04694
 H111 H 0.55373 0.99578 -0.03361
 H112 H 0.59089 1.03353 -0.06613
 H113 H 0.57647 1.10166 -0.02498
 H114 H 0.53926 1.06360 0.00748
 H115 H 0.49100 0.94267 -0.00022
 H116 H 0.49272 0.90669 0.03405
 H117 H 0.55477 1.01586 0.05281
 H118 H 0.49039 1.00852 0.06381
 H119 H 0.45069 0.97817 0.09895
 H120 H 0.39852 0.92032 0.02759
 H121 H 0.43805 0.95114 -0.00749
 H122 H 0.46174 1.03228 0.01579
 H123 H 0.44996 1.06145 -0.01864
 H124 H 0.48978 1.03621 -0.08953
 H125 H 0.50049 1.00668 -0.05519
 H126 H 0.55665 0.98024 0.08732
 C127 C 1.00438 0.48381 0.49583
 C128 C 1.00126 0.50870 0.49277
 C129 C 0.98195 0.51483 0.51270
 C130 C 1.01755 0.53133 0.46939
 C131 C 1.02791 0.48123 0.47934
 C132 C 0.98443 0.45840 0.51533
 C133 C 0.96274 0.52410 0.50080
 C134 C 0.94464 0.53007 0.51930
 C135 C 0.94511 0.52645 0.54993
 C136 C 0.96488 0.51797 0.56196
 C137 C 0.98340 0.51257 0.54351
 C138 C 1.01641 0.52254 0.43982
 C139 C 1.03339 0.54353 0.41836
 C140 C 1.05111 0.57401 0.42570
 C141 C 1.05104 0.58298 0.45521
 C142 C 1.03447 0.56179 0.47677
 C143 C 1.05759 0.50387 0.48149
 C144 C 1.07896 0.50408 0.46247
 C145 C 1.07128 0.48154 0.44096
 C146 C 1.04171 0.45768 0.44033
 C147 C 1.02036 0.45757 0.45942
 C148 C 0.99639 0.44701 0.53610
 C149 C 0.97788 0.42467 0.55594
 C150 C 0.94710 0.41335 0.55546
 C151 C 0.93502 0.42378 0.53370
 C152 C 0.95351 0.44595 0.51375
 H153 H 0.96156 0.52642 0.47714
 H154 H 0.92975 0.53688 0.50964
 H155 H 0.96634 0.51593 0.58562
 H156 H 0.99884 0.50661 0.55330
 H157 H 1.00280 0.49928 0.43345
 H158 H 1.03268 0.53580 0.39590
 H159 H 1.03549 0.56905 0.49945
 H160 H 1.06395 0.52212 0.49707
 H161 H 1.10144 0.52256 0.46402
 H162 H 1.03436 0.43939 0.42479
 H163 H 0.99758 0.43979 0.45760
 H164 H 1.02012 0.45603 0.53754
 H165 H 0.98771 0.41671 0.57218
 H166 H 0.91134 0.41478 0.53184
 H167 H 0.94372 0.45374 0.49730
 H168 H 1.06453 0.60597 0.46227
 C169 C 0.46713 0.45957 0.48838
 C170 C 0.49035 0.48764 0.49319
 C171 C 0.49453 0.51336 0.47477
 C172 C 0.51216 0.49366 0.51714
 C173 C 0.46317 0.43325 0.50568
 C174 C 0.44332 0.45418 0.46712
 C175 C 0.49926 0.51348 0.44421
 C176 C 0.50084 0.53663 0.42659
 C177 C 0.49753 0.55995 0.43927
 C178 C 0.49307 0.55988 0.46988
 C179 C 0.49199 0.53699 0.48756
 C180 C 0.54226 0.50542 0.51028
 C181 C 0.56229 0.50727 0.53198
 C182 C 0.55251 0.49755 0.56101
 C183 C 0.52264 0.48711 0.56806
 C184 C 0.50272 0.48557 0.54646
 C185 C 0.43681 0.41619 0.52151
 C186 C 0.43385 0.39327 0.54026
 C187 C 0.45727 0.38718 0.54366
 C188 C 0.48299 0.40303 0.52642
 C189 C 0.48582 0.42577 0.50743
 C190 C 0.42623 0.46833 0.47092
 C191 C 0.40325 0.46257 0.45139
 C192 C 0.39701 0.44260 0.42754
 C193 C 0.41366 0.42786 0.42433
 C194 C 0.43660 0.43355 0.44400
 H195 H 0.50115 0.49532 0.43399
 H196 H 0.50366 0.53568 0.40298
 H197 H 0.49030 0.57752 0.48010
 H198 H 0.48814 0.53712 0.51108
 H199 H 0.54996 0.51178 0.48779
 H200 H 0.58502 0.51495 0.52555
 H201 H 0.47966 0.47687 0.55232
 H202 H 0.41894 0.42139 0.52024
 H203 H 0.41370 0.38110 0.55304
 H204 H 0.50101 0.39809 0.52770
 H205 H 0.50599 0.43811 0.49471
 H206 H 0.43047 0.48352 0.48928
 H207 H 0.39020 0.47344 0.45547
 H208 H 0.40909 0.41212 0.40640
 H209 H 0.44927 0.42205 0.44108
 H210 H 0.51454 0.47955 0.59024
 C211 C 0.49929 -0.00491 0.51023
 C212 C 0.47272 -0.00551 0.50964
 C213 C 0.44937 -0.02475 0.48834
 C214 C 0.46617 0.01337 0.52998
 C215 C 0.52284 0.01460 0.53112
 C216 C 0.50618 -0.02394 0.49061
 C217 C 0.45348 -0.01928 0.45790
 C218 C 0.43213 -0.03876 0.43785
 C219 C 0.40635 -0.06443 0.44797
 C220 C 0.40242 -0.06948 0.47863
 C221 C 0.42347 -0.04961 0.49859
 C222 C 0.45840 0.03401 0.51845
 C223 C 0.45499 0.05389 0.53721
 C224 C 0.45971 0.05374 0.56770
 C225 C 0.46599 0.03206 0.57940
 C226 C 0.46877 0.01179 0.56072
 C227 C 0.52914 0.00171 0.55538
 C228 C 0.54967 0.01992 0.57656
 C229 C 0.56502 0.05115 0.57313
 C230 C 0.55950 0.06403 0.54825
 C231 C 0.53829 0.04583 0.52747
 C232 C 0.48859 -0.05526 0.49070
 C233 C 0.49578 -0.07295 0.47260
 C234 C 0.52110 -0.05958 0.45421
 C235 C 0.53889 -0.02816 0.45478
 C236 C 0.53153 -0.01058 0.47274
 H237 H 0.47349 -0.00018 0.44968
 H238 H 0.43673 -0.03405 0.41460
 H239 H 0.38296 -0.08892 0.48727
 H240 H 0.42005 -0.05417 0.52206
 H241 H 0.45591 0.03536 0.49484
 H242 H 0.44968 0.07012 0.52779
 H243 H 0.47355 -0.00475 0.57022
 H244 H 0.51733 -0.02239 0.55842
 H245 H 0.55355 0.00965 0.59568
 H246 H 0.57078 0.08815 0.54544
 H247 H 0.53361 0.05602 0.50879
 H248 H 0.46946 -0.06606 0.50508
 H249 H 0.48151 -0.09692 0.47375
 H250 H 0.55858 -0.01702 0.44113
 H251 H 0.54560 0.01356 0.47261
 H252 H 0.46868 0.03072 0.60296
 O253 O 0.20081 0.45088 0.20130
 O254 O 0.24343 0.44450 0.26403
 O255 O 0.19273 0.44319 0.25805
 O256 O 0.24880 0.44640 0.20674
 O257 O 0.27430 0.49574 0.21092
 O258 O 0.21708 0.49252 0.26283
 O259 O 0.26738 0.49392 0.26793
 O260 O 0.22638 0.50021 0.20568
 Cu261 Cu 0.21899 0.44134 0.23203
 Cu262 Cu 0.24867 0.50050 0.23710
 C263 C 0.20656 0.47695 0.19298
 C264 C 0.26261 0.46848 0.27668
 C265 C 0.19527 0.46698 0.26941
 C266 C 0.27117 0.47128 0.20023
 O267 O 0.56971 0.76610 0.23288
 O268 O 0.55713 0.80180 0.29842
 O269 O 0.56282 0.75426 0.28895
 O270 O 0.56749 0.81518 0.24260
 O271 O 0.51924 0.78962 0.23475
 O272 O 0.51449 0.72822 0.28169
 O273 O 0.50889 0.77542 0.29071
 O274 O 0.52137 0.74094 0.22530
 Cu275 Cu 0.56912 0.78693 0.26658
 Cu276 Cu 0.51116 0.75598 0.25745
 C277 C 0.54746 0.74756 0.21787
 C278 C 0.53070 0.79455 0.30559
 C279 C 0.53807 0.73087 0.29314
 C280 C 0.54438 0.81273 0.23049
 O281 O 0.24698 0.79848 0.21262
 O282 O 0.19489 0.76045 0.27378
 O283 O 0.24620 0.80917 0.26844
 O284 O 0.19570 0.74984 0.21735
 O285 O 0.21839 0.72381 0.22680
 O286 O 0.26824 0.78267 0.27857
 O287 O 0.21710 0.73382 0.28247
 O288 O 0.26947 0.77224 0.22198
 Cu289 Cu 0.21864 0.78209 0.24211
 Cu290 Cu 0.24569 0.75063 0.25345
 C291 C 0.26714 0.79189 0.20699
 C292 C 0.19692 0.74032 0.28824
 C293 C 0.26578 0.80599 0.28221
 C294 C 0.19845 0.72671 0.21342
 O295 O 0.78993 0.53014 0.70806
 O296 O 0.74036 0.53396 0.76448
 O297 O 0.78793 0.52895 0.76550
 O298 O 0.74352 0.53744 0.70686
 O299 O 0.71476 0.48826 0.70497
 O300 O 0.75996 0.47969 0.76312
 O301 O 0.71221 0.48470 0.76210
 O302 O 0.76136 0.48092 0.70599
 Cu303 Cu 0.76824 0.53759 0.73639
 Cu304 Cu 0.73421 0.47847 0.73378
 C305 C 0.78416 0.50471 0.69773
 C306 C 0.71782 0.50984 0.77284
 C307 C 0.78170 0.50291 0.77414
 C308 C 0.72145 0.51441 0.69613
 O309 O 0.46643 0.26092 0.73070
 O310 O 0.46544 0.21018 0.78912
 O311 O 0.46072 0.25902 0.78835
 O312 O 0.46808 0.21122 0.73192
 O313 O 0.51683 0.23768 0.73534
 O314 O 0.50939 0.28558 0.79230
 O315 O 0.51419 0.23707 0.79219
 O316 O 0.51510 0.28768 0.73474
 Cu317 Cu 0.46024 0.23281 0.75986
 Cu318 Cu 0.51874 0.26484 0.76407
 C319 C 0.49113 0.28268 0.72251
 C320 C 0.48991 0.21471 0.80000
 C321 C 0.48366 0.28036 0.79997
 C322 C 0.49363 0.21617 0.72409
 O323 O 0.75510 0.20474 0.71718
 O324 O 0.79680 0.25820 0.77692
 O325 O 0.75481 0.20231 0.77491
 O326 O 0.79847 0.25963 0.71933
 O327 O 0.76524 0.27479 0.71930
 O328 O 0.72250 0.21863 0.77671
 O329 O 0.76415 0.27414 0.77696
 O330 O 0.72162 0.21955 0.71937
 Cu331 Cu 0.77960 0.22964 0.74703
 Cu332 Cu 0.74011 0.24838 0.74807
 C333 C 0.73101 0.20292 0.70839
 C334 C 0.78747 0.27527 0.78703
 C335 C 0.73143 0.20085 0.78550
 C336 C 0.78923 0.27682 0.70964
 C337 C 0.06804 0.46560 0.06962
 C338 C 0.09741 0.48579 0.07674
 C339 C 0.11490 0.47788 0.09664
 N340 N 0.14245 0.49927 0.10470
 N341 N 0.15834 0.49293 0.12344
 C342 C 0.14735 0.46491 0.13481
 N343 N 0.11989 0.44337 0.12651
 N344 N 0.10394 0.44974 0.10777
 C345 C 0.16435 0.45827 0.15669
 C346 C 0.19045 0.48122 0.16857
 H347 H 0.10778 0.50863 0.06882
 H348 H 0.15539 0.43555 0.16478
 H349 H 0.05778 0.44338 0.07928
 H350 H 0.19863 0.50402 0.16100
 C351 C 0.57869 0.63301 0.09644
 C352 C 0.57274 0.65645 0.09190
 C353 C 0.57556 0.67720 0.11573
 N354 N 0.56005 0.69213 0.11420
 N355 N 0.56068 0.70949 0.13646
 C356 C 0.57710 0.71280 0.16096
 N357 N 0.59322 0.69847 0.16221
 N358 N 0.59235 0.68084 0.14004
 C359 C 0.57607 0.73013 0.18643
 C360 C 0.55129 0.73342 0.19128
 H361 H 0.56255 0.65764 0.07147
 H362 H 0.59344 0.73781 0.20288
 H363 H 0.58596 0.63024 0.11806
 H364 H 0.53280 0.72312 0.17609
 C365 C 0.39816 0.92940 0.08747
 C366 C 0.38015 0.89842 0.08544
 C367 C 0.35707 0.88167 0.10750
 N368 N 0.34661 0.85184 0.11112
 N369 N 0.32605 0.83658 0.13147
 C370 C 0.31499 0.85058 0.14868
 N371 N 0.32513 0.88031 0.14474
 N372 N 0.34589 0.89562 0.12461
 C373 C 0.29261 0.83422 0.17144
 C374 C 0.28827 0.80716 0.18294
 H375 H 0.38417 0.88599 0.06835
 H376 H 0.28058 0.84468 0.18068
 H377 H 0.39613 0.94113 0.10654
 H378 H 0.30191 0.79783 0.17536
 C379 C 0.92491 0.53169 0.56889
 C380 C 0.91155 0.51416 0.59371
 C381 C 0.88992 0.51781 0.61165
 N382 N 0.87171 0.49550 0.63013
 N383 N 0.85182 0.49830 0.64649
 C384 C 0.84955 0.52360 0.64514
 N385 N 0.86799 0.54610 0.62690
 N386 N 0.88774 0.54319 0.61032
 C387 C 0.82798 0.52695 0.66359
 C388 C 0.80430 0.50213 0.67663
 H389 H 0.91559 0.49587 0.59911
 H390 H 0.83071 0.54914 0.66689
 H391 H 0.91836 0.54777 0.56170
 H392 H 0.80062 0.47983 0.67163
 C393 C 0.45453 0.36500 0.56603
 C394 C 0.47893 0.36759 0.58145
 C395 C 0.47585 0.34854 0.60692
 N396 N 0.50014 0.35420 0.62291
 N397 N 0.49774 0.33777 0.64656
 C398 C 0.47095 0.31506 0.65515
 N399 N 0.44664 0.30930 0.63910
 N400 N 0.44903 0.32578 0.61543
 C401 C 0.46816 0.29664 0.68112
 C402 C 0.49267 0.30232 0.69825
 H403 H 0.50095 0.38550 0.57620
 H404 H 0.44661 0.27787 0.68639
 H405 H 0.43248 0.34825 0.57288
 H406 H 0.51419 0.32109 0.69286
 C407 C 0.58519 0.06991 0.59667
 C408 C 0.61218 0.09538 0.59075
 C409 C 0.63096 0.11445 0.61482
 N410 N 0.66060 0.13192 0.61084
 N411 N 0.67761 0.14955 0.63257
 C412 C 0.66546 0.15056 0.65890
 N413 N 0.63580 0.13335 0.66272
 N414 N 0.61888 0.11546 0.64116
 C415 C 0.68346 0.17087 0.68258
 C416 C 0.71376 0.18141 0.68511
 H417 H 0.62002 0.10087 0.56820
 H418 H 0.67226 0.17701 0.69917
 H419 H 0.57925 0.06259 0.61933
 H420 H 0.72468 0.17309 0.67047
 C421 C 0.46447 0.07123 0.92473
 C422 C 0.47767 0.08124 0.89708
 C423 C 0.47382 0.10350 0.88014
 N424 N 0.49477 0.12091 0.86021
 N425 N 0.49224 0.14185 0.84520
 C426 C 0.46854 0.14600 0.84935
 N427 N 0.44726 0.12823 0.86891
 N428 N 0.44995 0.10746 0.88421
 C429 C 0.46588 0.16912 0.83260
 C430 C 0.49101 0.19346 0.82088
 H431 H 0.49389 0.07559 0.88878
 H432 H 0.44421 0.16695 0.82937
 H433 H 0.45109 0.08050 0.93331
 H434 H 0.51266 0.19644 0.82624
 C435 C 0.63090 0.55216 0.92099
 C436 C 0.62253 0.53334 0.89639
 C437 C 0.64391 0.53456 0.87436
 N438 N 0.63529 0.51217 0.85423
 N439 N 0.65434 0.51259 0.83420
 C440 C 0.68268 0.53553 0.83345
 N441 N 0.69126 0.55812 0.85340
 N442 N 0.67223 0.55761 0.87358
 C443 C 0.70382 0.53591 0.81151
 C444 C 0.69743 0.51045 0.79498
 H445 H 0.59972 0.51587 0.89390
 H446 H 0.72497 0.55616 0.80892
 H447 H 0.65416 0.56763 0.92485
 H448 H 0.67690 0.48982 0.79880
 C449 C 0.91892 0.39656 0.91941
 C450 C 0.88870 0.38504 0.91366
 C451 C 0.87342 0.36258 0.89037
 N452 N 0.84556 0.35560 0.88237
 N453 N 0.83165 0.33591 0.86081
 C454 C 0.84502 0.32237 0.84650
 N455 N 0.87277 0.32911 0.85470
 N456 N 0.88675 0.34891 0.87619
 C457 C 0.82996 0.30091 0.82240
 C458 C 0.80326 0.29662 0.81090
 H459 H 0.87575 0.39329 0.92494
 H460 H 0.84031 0.28874 0.81322
 H461 H 0.93034 0.38767 0.90616
 H462 H 0.79345 0.30950 0.81960
 C463 C 0.52949 0.92393 0.43534
 C464 C 0.51310 0.89295 0.43064
 C465 C 0.52249 0.87758 0.40923
 N466 N 0.50340 0.84881 0.40149
 N467 N 0.51102 0.83484 0.38130
 C468 C 0.53810 0.84905 0.36821
 N469 N 0.55740 0.87769 0.37628
 N470 N 0.54972 0.89172 0.39638
 C471 C 0.54606 0.83426 0.34481
 C472 C 0.52454 0.80820 0.33126
 H473 H 0.49203 0.87937 0.44136
 H474 H 0.56866 0.84510 0.33673
 H475 H 0.54982 0.93628 0.42280
 H476 H 0.50168 0.79841 0.33839
 C477 C 0.37331 0.43651 0.40589
 C478 C 0.36285 0.45654 0.40084
 C479 C 0.34083 0.45177 0.37807
 N480 N 0.33392 0.47369 0.37302
 N481 N 0.31484 0.47058 0.35191
 C482 C 0.30181 0.44540 0.33501
 N483 N 0.30840 0.42322 0.34028
 N484 N 0.32762 0.42636 0.36143
 C485 C 0.28184 0.44285 0.31070
 C486 C 0.27989 0.46789 0.30196
 H487 H 0.37216 0.47753 0.41279
 H488 H 0.26996 0.42189 0.29873
 H489 H 0.36518 0.41659 0.39225
 H490 H 0.29301 0.48902 0.31335
 C491 C 0.06909 0.59385 0.40358
 C492 C 0.08532 0.62506 0.40640
 C493 C 0.10688 0.64351 0.38370
 N494 N 0.11634 0.67334 0.38191
 N495 N 0.13640 0.69022 0.36174
 C496 C 0.14793 0.67787 0.34292
 N497 N 0.13868 0.64814 0.34493
 N498 N 0.11845 0.63124 0.36487
 C499 C 0.17044 0.69597 0.32091
 C500 C 0.17529 0.72395 0.31164
 H501 H 0.08207 0.63651 0.42492
 H502 H 0.18249 0.68611 0.31044
 H503 H 0.07053 0.58427 0.38264
 H504 H 0.16173 0.73298 0.32020
 C505 C 0.91563 0.53451 0.91405
 C506 C 0.90218 0.51476 0.89052
 C507 C 0.88085 0.51702 0.87074
 N508 N 0.86388 0.49398 0.85228
 N509 N 0.84471 0.49580 0.83399
 C510 C 0.84193 0.52085 0.83337
 N511 N 0.85901 0.54395 0.85172
 N512 N 0.87803 0.54204 0.87016
 C513 C 0.82165 0.52370 0.81256
 C514 C 0.80014 0.49933 0.79670
 H515 H 0.90642 0.49623 0.88718
 H516 H 0.82378 0.54568 0.80964
 H517 H 0.90904 0.55113 0.91908
 H518 H 0.79686 0.47704 0.80074
 C519 C 0.51235 0.41497 0.94094
 C520 C 0.48946 0.39601 0.92204
 C521 C 0.49311 0.37623 0.90064
 N522 N 0.46968 0.35638 0.88430
 N523 N 0.47282 0.33879 0.86451
 C524 C 0.49956 0.34046 0.86020
 N525 N 0.52300 0.36035 0.87648
 N526 N 0.51984 0.37788 0.89633
 C527 C 0.50356 0.32150 0.83810
 C528 C 0.47986 0.29911 0.82241
 H529 H 0.46827 0.39530 0.92281
 H530 H 0.52574 0.32518 0.83425
 H531 H 0.53258 0.41363 0.94076
 H532 H 0.45759 0.29493 0.82682
 C533 C 0.60671 0.09416 0.93065
 C534 C 0.62669 0.09138 0.91188
 C535 C 0.64385 0.11422 0.88935
 N536 N 0.66478 0.11199 0.87317
 N537 N 0.68002 0.13215 0.85234
 C538 C 0.67479 0.15523 0.84681
 N539 N 0.65381 0.15740 0.86293
 N540 N 0.63865 0.13732 0.88382
 C541 C 0.69117 0.17757 0.82368
 C542 C 0.71481 0.17819 0.80827
 H543 H 0.63011 0.07223 0.91354
 H544 H 0.68472 0.19433 0.81904
 H545 H 0.60539 0.11463 0.92967
 H546 H 0.72189 0.16203 0.81350
 C547 C 0.09317 0.48455 0.42049
 C548 C 0.08873 0.46481 0.39710
 C549 C 0.11172 0.47084 0.37472
 N550 N 0.10658 0.45004 0.35356
 N551 N 0.12680 0.45510 0.33286
 C552 C 0.15294 0.48124 0.33238
 N553 N 0.15806 0.50216 0.35347
 N554 N 0.13783 0.49707 0.37425
 C555 C 0.17562 0.48667 0.30978
 C556 C 0.17232 0.46399 0.29045
 H557 H 0.06793 0.44439 0.39431
 H558 H 0.19569 0.50824 0.30925
 H559 H 0.11494 0.50416 0.42241
 H560 H 0.15269 0.44213 0.29200
 C561 C 0.49720 0.58372 0.42098
 C562 C 0.51368 0.59433 0.39504
 C563 C 0.51296 0.61778 0.37688
 N564 N 0.53487 0.63318 0.35700
 N565 N 0.53455 0.65443 0.34033
 C566 C 0.51212 0.66087 0.34267
 N567 N 0.48998 0.64521 0.36229
 N568 N 0.49045 0.62413 0.37918
 C569 C 0.51167 0.68440 0.32434
 C570 C 0.53741 0.70672 0.31121
 H571 H 0.52867 0.58627 0.38850
 H572 H 0.49114 0.68501 0.32228
 H573 H 0.48476 0.59424 0.42898
 H574 H 0.55830 0.70736 0.31537
 C575 C 0.38495 0.91425 0.42881
 C576 C 0.38331 0.91826 0.39844
 C577 C 0.36160 0.89399 0.37953
 N578 N 0.35372 0.90057 0.35318
 N579 N 0.33447 0.87876 0.33565
 C580 C 0.32265 0.84953 0.34367
 N581 N 0.33078 0.84294 0.36986
 N582 N 0.34978 0.86476 0.38754
 C583 C 0.30194 0.82520 0.32419
 C584 C 0.28599 0.83003 0.30220
 H585 H 0.39698 0.93983 0.38821
 H586 H 0.29839 0.80276 0.32792
 H587 H 0.36798 0.89340 0.43832
 H588 H 0.28763 0.85189 0.30014
 C589 C 0.52259 0.91758 0.08498
 C590 C 0.54217 0.92329 0.10839
 C591 C 0.53752 0.89997 0.13014
 N592 N 0.55850 0.90546 0.15082
 N593 N 0.55455 0.88462 0.17067
 C594 C 0.52938 0.85754 0.17070
 N595 N 0.50832 0.85212 0.15014
 N596 N 0.51231 0.87292 0.13024
 C597 C 0.52493 0.83405 0.19214
 C598 C 0.54742 0.83708 0.21105
 H599 H 0.56162 0.94507 0.11086
 H600 H 0.50394 0.81335 0.19206
 H601 H 0.50439 0.89494 0.08223
 H602 H 0.56875 0.85737 0.21035
 C603 C 0.42690 0.51215 0.08476
 C604 C 0.40397 0.48754 0.09904
 C605 C 0.38200 0.49024 0.11764
 N606 N 0.35849 0.46516 0.12849
 N607 N 0.33841 0.46709 0.14539
 C608 C 0.34107 0.49419 0.15219
 N609 N 0.36466 0.51933 0.14144
 N610 N 0.38474 0.51740 0.12445
 C611 C 0.31897 0.49642 0.17111
 C612 C 0.29341 0.47081 0.18034
 H613 H 0.40126 0.46537 0.09588
 H614 H 0.32287 0.51839 0.17786
 H615 H 0.42785 0.53373 0.08661
 H616 H 0.28950 0.44900 0.17294
 C617 C 0.06597 0.61466 0.07636
 C618 C 0.07836 0.61011 0.10182
 C619 C 0.09907 0.63506 0.12073
 N620 N 0.11469 0.63008 0.14184
 N621 N 0.13360 0.65238 0.15911
 C622 C 0.13750 0.68049 0.15604
 N623 N 0.12171 0.68544 0.13507
 N624 N 0.10291 0.66316 0.11767
 C625 C 0.15815 0.70527 0.17519
 C626 C 0.17827 0.70253 0.19352
 H627 H 0.07399 0.58774 0.10738
 H628 H 0.15779 0.72625 0.17448
 H629 H 0.07265 0.63739 0.06953
 H630 H 0.17951 0.68201 0.19318
 C631 C 0.45795 0.07625 0.58687
 C632 C 0.47680 0.08913 0.61097
 C633 C 0.47584 0.11216 0.62976
 N634 N 0.49830 0.12825 0.64889
 N635 N 0.49756 0.14885 0.66643
 C636 C 0.47421 0.15398 0.66560
 N637 N 0.45170 0.13778 0.64656
 N638 N 0.45254 0.11734 0.62887
 C639 C 0.47241 0.17571 0.68568
 C640 C 0.49656 0.19647 0.70217
 H641 H 0.49366 0.08302 0.61558
 H642 H 0.45135 0.17526 0.68756
 H643 H 0.44320 0.08462 0.58049
 H644 H 0.51809 0.19821 0.69910
 C645 C 0.57210 0.49579 0.58377
 C646 C 0.60296 0.51292 0.58322
 C647 C 0.62160 0.50859 0.60502
 N648 N 0.65086 0.52893 0.60714
 N649 N 0.66803 0.52504 0.62650
 C650 C 0.65662 0.50053 0.64430
 N651 N 0.62742 0.48008 0.64200
 N652 N 0.61021 0.48406 0.62278
 C653 C 0.67525 0.49585 0.66581
 C654 C 0.70355 0.51852 0.67335
 H655 H 0.61385 0.53034 0.56683
 H656 H 0.66590 0.47440 0.67696
 H657 H 0.56165 0.48043 0.60199
 H658 H 0.71225 0.54052 0.66346
 C659 C 0.92838 0.39061 0.57768
 C660 C 0.90064 0.38604 0.58671
 C661 C 0.88305 0.36422 0.60983
 N662 N 0.85705 0.36194 0.61904
 N663 N 0.84097 0.34241 0.64002
 C664 C 0.85030 0.32441 0.65256
 N665 N 0.87626 0.32666 0.64331
 N666 N 0.89234 0.34620 0.62237
 C667 C 0.83291 0.30257 0.67570
 C668 C 0.80632 0.29929 0.68684
 H669 H 0.89181 0.39949 0.57745
 H670 H 0.84143 0.28852 0.68422
 H671 H 0.93763 0.37828 0.58866
 H672 H 0.79773 0.31337 0.67860
   
