data_POSCAR
  _audit_creation_date              2014-09-24
  _audit_creation_method            'ToBaCCo'
  _symmetry_space_group_name_H-M    'P1'
  _symmetry_Int_Tables_number       1
  _symmetry_cell_setting            triclinic
  loop_
  _symmetry_equiv_pos_as_xyz
 x,y,z
_cell_length_a 33.0070
_cell_length_b 34.5424
_cell_length_c 34.2858
_cell_angle_alpha 67.551500
_cell_angle_beta 55.411500
_cell_angle_gamma 119.181900
loop_
  _atom_site_label
  _atom_site_type_symbol
  _atom_site_fract_x
  _atom_site_fract_y
  _atom_site_fract_z
O1 O 0.46125 0.43398 0.09798
 O2 O 0.33720 0.39936 0.09712
 O3 O 0.39263 0.36442 0.09027
 O4 O 0.40385 0.46765 0.10613
 O5 O 0.60606 0.63907 -0.08860
 O6 O 0.59404 0.53553 -0.10440
 O7 O 0.53839 0.57065 -0.09732
 O8 O 0.66234 0.60466 -0.09669
 Cu9 Cu 0.37974 0.40024 0.11637
 Cu10 Cu 0.61918 0.60357 -0.11516
 C11 C 0.58311 0.52517 0.00074
 C12 C 0.41657 0.47924 -0.00039
 C13 C 0.49192 0.43271 -0.01026
 C14 C 0.50614 0.57052 0.01202
 O15 O -0.11935 0.45862 0.59206
 O16 O -0.09439 0.36634 0.58934
 O17 O -0.11001 0.39759 0.65087
 O18 O -0.10396 0.42744 0.53108
 O19 O 0.10987 0.60072 0.34922
 O20 O 0.10373 0.57090 0.46908
 O21 O 0.11936 0.53971 0.40784
 O22 O 0.09422 0.63185 0.41066
 Cu23 Cu -0.12716 0.39614 0.60801
 Cu24 Cu 0.12701 0.60205 0.39210
 C25 C -0.01743 0.56053 0.50302
 C26 C 0.01736 0.43788 0.49681
 C27 C -0.00391 0.48017 0.58014
 C28 C 0.00367 0.51828 0.42000
 O29 O 0.57237 0.08583 0.47900
 O30 O 0.62869 0.09873 0.34138
 O31 O 0.53519 0.09147 0.42928
 O32 O 0.66508 0.09284 0.39172
 O33 O 0.46900 -0.08961 0.56674
 O34 O 0.33924 -0.09092 0.60413
 O35 O 0.43225 -0.08377 0.51673
 O36 O 0.37596 -0.09647 0.65409
 Cu37 Cu 0.61942 0.10993 0.39330
 Cu38 Cu 0.38494 -0.10796 0.60251
 C39 C 0.46505 -0.00753 0.59008
 C40 C 0.53954 0.00957 0.40574
 C41 C 0.41444 -0.00050 0.52342
 C42 C 0.58974 0.00236 0.47261
 C43 C 0.51426 -0.00242 -0.09566
 C44 C 0.54340 -0.02212 -0.10087
 C45 C 0.55442 -0.03287 -0.06633
 C46 C 0.54182 -0.01863 -0.03066
 C47 C 0.50610 -0.00395 -0.01965
 C48 C 0.48995 0.00219 -0.05026
 C49 C 0.44847 0.01141 -0.03337
 C50 C 0.42700 0.01787 0.00956
 C51 C 0.44810 0.01695 0.03542
 C52 C 0.48498 0.00329 0.02338
 C53 C 0.56169 -0.02063 -0.00374
 C54 C 0.54093 -0.01357 0.03857
 C55 C 0.50127 -0.00275 0.05388
 C56 C 0.47722 0.00206 0.09909
 C57 C 0.44725 0.02102 0.10502
 C58 C 0.43537 0.03107 0.07124
 H59 H 0.43315 0.01452 -0.05405
 H60 H 0.39610 0.02574 0.02017
 H61 H 0.59042 -0.03042 -0.01240
 H62 H 0.55471 -0.01814 0.06061
 H63 H 0.55562 -0.03098 -0.13043
 H64 H 0.43516 0.02999 0.13448
 C65 C 0.06756 0.50406 0.88611
 C66 C 0.11484 0.50544 0.87852
 C67 C 0.11496 0.50246 0.92032
 C68 C 0.07241 0.50327 0.96608
 C69 C 0.02265 0.50031 0.97585
 C70 C 0.01844 0.49908 0.93732
 C71 C -0.03306 0.49457 0.94944
 C72 C -0.07853 0.49205 0.99753
 C73 C -0.07235 0.49597 1.03364
 C74 C -0.02259 0.49892 1.02390
 C75 C 0.07904 0.50760 1.00179
 C76 C 0.03313 0.50466 1.05029
 C77 C -0.01845 0.50008 1.06250
 C78 C -0.06777 0.49494 1.11388
 C79 C -0.11586 0.49278 1.12218
 C80 C -0.11564 0.49609 1.08009
 H81 H -0.03830 0.49348 0.92134
 H82 H -0.11822 0.48741 1.00556
 H83 H 0.11911 0.51259 0.99342
 H84 H 0.03810 0.50541 1.07864
 H85 H 0.14963 0.50672 0.84172
 H86 H -0.15121 0.49100 1.15947
 C87 C -0.01220 -0.07248 0.46343
 C88 C -0.05773 -0.07911 0.46363
 C89 C -0.07615 -0.05163 0.47336
 C90 C -0.05776 -0.02445 0.49204
 C91 C -0.00926 -0.01521 0.48967
 C92 C 0.01758 -0.03587 0.47154
 C93 C 0.06894 -0.02326 0.46643
 C94 C 0.09086 0.00670 0.48113
 C95 C 0.05965 0.02289 0.50431
 C96 C 0.01108 0.01358 0.50675
 C97 C -0.08916 -0.00843 0.51542
 C98 C -0.06775 0.02107 0.53060
 C99 C -0.01599 0.03404 0.52509
 C100 C 0.01397 0.07084 0.53300
 C101 C 0.05986 0.07780 0.53244
 C102 C 0.07831 0.05034 0.52272
 H103 H 0.09077 -0.03825 0.45316
 H104 H 0.13296 0.01716 0.47382
 H105 H -0.13121 -0.01883 0.52270
 H106 H -0.09018 0.03554 0.54440
 H107 H -0.07688 -0.10412 0.45401
 H108 H 0.07938 0.10315 0.54170
 C109 C -0.23221 0.63746 0.89312
 C110 C -0.18531 0.64823 0.89287
 C111 C -0.27163 0.56090 0.99964
 C112 C -0.40567 0.46320 1.10711
 C113 C -0.45297 0.45199 1.10773
 C114 C -0.36677 0.53865 1.00060
 N115 N -0.22207 0.57078 0.99683
 N116 N -0.29619 0.49274 1.09088
 C117 C -0.24732 0.50023 1.08772
 C118 C -0.33517 0.40768 1.19384
 C119 C -0.29137 0.40828 1.19201
 C120 C -0.15940 0.50118 1.08382
 C121 C -0.07038 0.59616 0.97796
 C122 C -0.11409 0.59563 0.97994
 H123 H -0.16305 0.70595 0.80897
 H124 H -0.08165 0.72407 0.80912
 H125 H -0.47372 0.39501 1.19036
 H126 H -0.55710 0.37494 1.19203
 H127 H -0.43813 0.33368 1.27764
 H128 H -0.36065 0.33499 1.27425
 H129 H 0.03197 0.66875 0.89379
 H130 H -0.04485 0.66807 0.89744
 C131 C 0.23475 0.36588 1.10579
 C132 C 0.18835 0.35490 1.10534
 C133 C 0.27488 0.44371 0.99896
 C134 C 0.40912 0.54379 0.89223
 C135 C 0.45614 0.55528 0.89206
 C136 C 0.36956 0.46671 0.99910
 N137 N 0.22473 0.43238 1.00189
 N138 N 0.29848 0.51006 0.90803
 C139 C 0.24863 0.50094 0.91166
 C140 C 0.33581 0.59272 0.80578
 C141 C 0.29124 0.59103 0.80798
 C142 C 0.15908 0.49772 0.91633
 C143 C 0.07059 0.40325 1.02201
 C144 C 0.11511 0.40489 1.01966
 H145 H 0.16467 0.29555 1.19009
 H146 H 0.08460 0.27740 1.18841
 H147 H 0.47739 0.61356 0.80934
 H148 H 0.56047 0.63423 0.80798
 H149 H 0.43886 0.66703 0.72191
 H150 H 0.36010 0.66390 0.72588
 H151 H -0.03193 0.33032 1.10636
 H152 H 0.04626 0.33290 1.10207
 C153 C -0.15217 -0.48493 0.61042
 C154 C -0.16357 -0.45252 0.61697
 C155 C -0.05263 -0.34168 0.52259
 C156 C 0.07069 -0.26304 0.42105
 C157 C 0.08269 -0.29467 0.41316
 C158 C -0.02869 -0.40634 0.50816
 N159 N -0.06754 -0.31081 0.53112
 N160 N 0.02988 -0.21110 0.44771
 C161 C 0.01641 -0.17886 0.45425
 C162 C 0.12861 -0.06759 0.35907
 C163 C 0.11973 -0.03252 0.36123
 C164 C -0.00201 -0.10879 0.45953
 C165 C -0.11494 -0.22062 0.55530
 C166 C -0.10595 -0.25564 0.55286
 H167 H -0.24052 -0.57181 0.68590
 H168 H -0.25922 -0.51402 0.69595
 H169 H 0.15790 -0.17708 0.34770
 H170 H 0.17935 -0.23162 0.33301
 H171 H 0.22308 -0.00807 0.28326
 H172 H 0.20748 0.05366 0.28736
 H173 H -0.20986 -0.28074 0.63220
 H174 H -0.19418 -0.34224 0.62768
 C175 C 0.15205 0.48044 0.39239
 C176 C 0.16373 0.44834 0.38531
 C177 C 0.05369 0.33920 0.47564
 C178 C -0.06881 0.26228 0.57299
 C179 C -0.08106 0.29368 0.58123
 C180 C 0.02932 0.40319 0.49093
 N181 N 0.06860 0.30826 0.46733
 N182 N -0.02862 0.20897 0.54960
 C183 C -0.01516 0.17670 0.54315
 C184 C -0.12723 0.06557 0.63792
 C185 C -0.11812 0.03076 0.63526
 C186 C 0.00363 0.10702 0.53709
 C187 C 0.11629 0.21853 0.44204
 C188 C 0.10710 0.25332 0.44488
 H189 H 0.23925 0.56579 0.32060
 H190 H 0.25901 0.50887 0.30905
 H191 H -0.15490 0.17808 0.64254
 H192 H -0.17669 0.23257 0.65757
 H193 H -0.22178 0.00594 0.71383
 H194 H -0.20567 -0.05524 0.70869
 H195 H 0.21128 0.27871 0.36524
 H196 H 0.19522 0.33975 0.37048
 C197 C 0.32934 -0.11540 -0.23568
 C198 C 0.31800 -0.12027 -0.18721
 C199 C 0.42327 -0.02336 -0.25975
 C200 C 0.53759 0.07984 -0.38074
 C201 C 0.54882 0.08525 -0.42945
 C202 C 0.44679 -0.01248 -0.35841
 N203 N 0.41595 -0.03291 -0.21059
 N204 N 0.51337 0.05024 -0.27370
 C205 C 0.50704 0.03723 -0.22422
 C206 C 0.62092 0.13032 -0.30001
 C207 C 0.62238 0.11795 -0.25728
 C208 C 0.50932 0.01218 -0.13792
 C209 C 0.39352 -0.08033 -0.06051
 C210 C 0.39224 -0.06821 -0.10330
 H211 H 0.24769 -0.19254 -0.17745
 H212 H 0.22910 -0.20006 -0.09364
 H213 H 0.61979 0.15601 -0.43831
 H214 H 0.63991 0.16610 -0.52380
 H215 H 0.70977 0.21184 -0.39313
 H216 H 0.71226 0.19021 -0.31773
 H217 H 0.30537 -0.16185 0.03212
 H218 H 0.30283 -0.14147 -0.04279
 C219 C 0.67734 0.11655 0.22894
 C220 C 0.68839 0.12164 0.18045
 C221 C 0.58050 0.02525 0.25400
 C222 C 0.46388 -0.07788 0.37608
 C223 C 0.45311 -0.08334 0.42456
 C224 C 0.55812 0.01418 0.35207
 N225 N 0.58715 0.03532 0.20505
 N226 N 0.48592 -0.04679 0.27073
 C227 C 0.48844 -0.03594 0.22431
 C228 C 0.36988 -0.12648 0.30398
 C229 C 0.36650 -0.11478 0.26290
 C230 C 0.48229 -0.01243 0.14124
 C231 C 0.60182 0.07699 0.06071
 C232 C 0.60510 0.06572 0.10190
 H233 H 0.76058 0.19312 0.17048
 H234 H 0.77910 0.20140 0.08608
 H235 H 0.37961 -0.15371 0.43453
 H236 H 0.36058 -0.16353 0.51946
 H237 H 0.27949 -0.20502 0.39839
 H238 H 0.27359 -0.18469 0.32597
 H239 H 0.69184 0.15580 -0.03351
 H240 H 0.69801 0.13685 0.03856
 C241 C 0.38921 -0.46547 0.12651
 C242 C 0.38798 -0.42766 0.13145
 C243 C 0.50400 -0.31450 0.03114
 C244 C 0.62278 -0.23931 -0.07352
 C245 C 0.62422 -0.27671 -0.07940
 C246 C 0.50705 -0.39007 0.02008
 N247 N 0.49655 -0.27816 0.03512
 N248 N 0.59626 -0.17691 -0.05202
 C249 C 0.58325 -0.14373 -0.04772
 C250 C 0.69464 -0.03215 -0.14340
 C251 C 0.68531 0.00400 -0.14741
 C252 C 0.56462 -0.07103 -0.05644
 C253 C 0.45256 -0.18335 0.04177
 C254 C 0.46152 -0.21961 0.04642
 H255 H 0.29739 -0.55325 0.20464
 H256 H 0.29589 -0.48627 0.21243
 H257 H 0.71375 -0.15167 -0.15147
 H258 H 0.71655 -0.21689 -0.16219
 H259 H 0.78904 0.02726 -0.21638
 H260 H 0.77222 0.09055 -0.22248
 H261 H 0.35859 -0.24243 0.11330
 H262 H 0.37385 -0.30625 0.12151
 C263 C 0.60763 0.46811 -0.12474
 C264 C 0.60811 0.42999 -0.12966
 C265 C 0.49163 0.31669 -0.02908
 C266 C 0.37328 0.24178 0.07576
 C267 C 0.37266 0.27951 0.08158
 C268 C 0.49025 0.39297 -0.01816
 N269 N 0.49828 0.27986 -0.03285
 N270 N 0.39819 0.17877 0.05362
 C271 C 0.41061 0.14515 0.04961
 C272 C 0.29949 0.03438 0.14302
 C273 C 0.30745 -0.00287 0.14816
 C274 C 0.42667 0.07042 0.06022
 C275 C 0.53865 0.18206 -0.03571
 C276 C 0.53097 0.21933 -0.04135
 H277 H 0.69965 0.55591 -0.20300
 H278 H 0.70000 0.48852 -0.21091
 H279 H 0.28207 0.15408 0.15394
 H280 H 0.28062 0.21982 0.16455
 H281 H 0.20613 -0.02372 0.21362
 H282 H 0.22059 -0.08893 0.22180
 H283 H 0.63133 0.23958 -0.10434
 H284 H 0.61823 0.30514 -0.11431
 C285 C -0.22741 0.10486 0.36131
 C286 C -0.17560 0.10844 0.34613
 C287 C -0.25155 0.01237 0.42631
 C288 C -0.38082 -0.08818 0.52240
 C289 C -0.43293 -0.09194 0.53757
 C290 C -0.35643 0.00484 0.45693
 N291 N -0.19703 0.01851 0.41144
 N292 N -0.25915 -0.06478 0.48028
 C293 C -0.20416 -0.05692 0.46681
 C294 C -0.28100 -0.15315 0.55181
 C295 C -0.23608 -0.15036 0.54995
 C296 C -0.11423 -0.05133 0.46344
 C297 C -0.03322 0.04673 0.37305
 C298 C -0.07809 0.04392 0.37504
 H299 H -0.16714 0.18013 0.29926
 H300 H -0.07637 0.18616 0.27249
 H301 H -0.44158 -0.16363 0.58623
 H302 H -0.53308 -0.17051 0.61270
 H303 H -0.37778 -0.23113 0.62231
 H304 H -0.29827 -0.22602 0.61875
 H305 H 0.06200 0.12427 0.30459
 H306 H -0.01618 0.11968 0.30750
 C307 C 0.22998 -0.10393 0.63733
 C308 C 0.17803 -0.10768 0.65254
 C309 C 0.25526 -0.01099 0.57001
 C310 C 0.38592 0.09035 0.47160
 C311 C 0.43817 0.09430 0.45639
 C312 C 0.36042 -0.00312 0.53932
 N313 N 0.20038 -0.01757 0.58505
 N314 N 0.26299 0.06592 0.51501
 C315 C 0.20753 0.05745 0.52870
 C316 C 0.28429 0.15350 0.44324
 C317 C 0.23904 0.15009 0.44518
 C318 C 0.11706 0.05070 0.53206
 C319 C 0.03621 -0.04711 0.62276
 C320 C 0.08121 -0.04379 0.62096
 H321 H 0.16854 -0.17984 0.70137
 H322 H 0.07772 -0.18603 0.72797
 H323 H 0.44771 0.16628 0.40585
 H324 H 0.53941 0.17349 0.37938
 H325 H 0.38118 0.23173 0.37247
 H326 H 0.30079 0.22539 0.37645
 H327 H -0.05927 -0.12498 0.69168
 H328 H 0.01919 -0.11948 0.68907
 C329 C 0.12333 0.62278 1.25126
 C330 C 0.12419 0.62721 1.20846
 C331 C 0.00756 0.53713 1.28591
 C332 C -0.11114 0.44110 1.40792
 C333 C -0.11223 0.43576 1.45116
 C334 C 0.00505 0.52649 1.37334
 N335 N 0.01295 0.54563 1.23811
 N336 N -0.08867 0.46707 1.30267
 C337 C -0.08132 0.47699 1.25326
 C338 C -0.19646 0.38603 1.32931
 C339 C -0.19213 0.39250 1.28376
 C340 C -0.07224 0.49006 1.16136
 C341 C 0.04306 0.58185 1.08490
 C342 C 0.03879 0.57550 1.13033
 H343 H 0.21524 0.69422 1.18887
 H344 H 0.21611 0.70093 1.11453
 H345 H -0.20276 0.37006 1.46978
 H346 H -0.20498 0.36022 1.54569
 H347 H -0.28953 0.30973 1.42406
 H348 H -0.28190 0.32101 1.34382
 H349 H 0.13623 0.65756 0.99028
 H350 H 0.12915 0.64706 1.06963
 C351 C -0.12386 0.37511 0.74917
 C352 C -0.12500 0.37015 0.79231
 C353 C -0.00847 0.46109 0.71474
 C354 C 0.11025 0.55817 0.59245
 C355 C 0.11164 0.56366 0.54898
 C356 C -0.00544 0.47218 0.62684
 N357 N -0.01380 0.45258 0.76251
 N358 N 0.08777 0.53254 0.69754
 C359 C 0.08083 0.52272 0.74669
 C360 C 0.19567 0.61539 0.67023
 C361 C 0.19159 0.60877 0.71569
 C362 C 0.07227 0.50930 0.83838
 C363 C -0.04263 0.41608 0.91513
 C364 C -0.03867 0.42250 0.86985
 H365 H -0.21568 0.30349 0.81145
 H366 H -0.21699 0.29551 0.88652
 H367 H 0.20173 0.62989 0.53052
 H368 H 0.20445 0.63994 0.45427
 H369 H 0.28831 0.69312 0.57527
 H370 H 0.28102 0.68158 0.65537
 H371 H -0.13540 0.33906 1.00998
 H372 H -0.12889 0.34954 0.93099
   
