data_POSCAR
  _audit_creation_date              2014-09-24
  _audit_creation_method            'ToBaCCo'
  _symmetry_space_group_name_H-M    'P1'
  _symmetry_Int_Tables_number       1
  _symmetry_cell_setting            triclinic
  loop_
  _symmetry_equiv_pos_as_xyz
 x,y,z
_cell_length_a 50.4062
_cell_length_b 61.3337
_cell_length_c 50.7292
_cell_angle_alpha 90.057400
_cell_angle_beta 90.793900
_cell_angle_gamma 90.143100
loop_
  _atom_site_label
  _atom_site_type_symbol
  _atom_site_fract_x
  _atom_site_fract_y
  _atom_site_fract_z
C1 C 1.20899 0.26188 0.28685
 H2 H 1.20452 0.24464 0.28579
 C3 C 1.19358 0.27551 0.30252
 H4 H 1.17730 0.26865 0.31351
 C5 C 1.23563 0.29178 0.27388
 H6 H 1.25189 0.29817 0.26258
 C7 C 1.22118 0.30587 0.28979
 H8 H 1.22645 0.32299 0.29048
 N9 N 1.22946 0.27019 0.27274
 C10 C 1.24017 0.21926 0.21324
 H11 H 1.26146 0.21755 0.21398
 C12 C 1.22518 0.20582 0.19652
 H13 H 1.23521 0.19371 0.18478
 C14 C 1.20137 0.23729 0.22736
 H15 H 1.19215 0.24993 0.23881
 C16 C 1.18557 0.22400 0.21114
 H17 H 1.16430 0.22639 0.21070
 Zn18 Zn 1.25019 0.25163 0.25112
 N19 N 1.22814 0.23443 0.22853
 C20 C 1.29292 0.22335 0.26142
 N21 N 1.27145 0.23293 0.27243
 C22 C 1.26537 0.22932 0.29809
 C23 C 1.28067 0.21515 0.31350
 C24 C 1.30890 0.20916 0.27610
 C25 C 1.26534 0.27304 0.20465
 C26 C 1.28103 0.28637 0.18890
 C27 C 1.31167 0.29074 0.22560
 C28 C 1.29535 0.27735 0.24067
 N29 N 1.27265 0.26889 0.23004
 H30 H 1.29779 0.22683 0.24117
 H31 H 1.24851 0.23726 0.30670
 H32 H 1.27499 0.21255 0.33378
 H33 H 1.32574 0.20179 0.26653
 H34 H 1.24708 0.26629 0.19670
 H35 H 1.27467 0.28961 0.16881
 H36 H 1.32953 0.29747 0.23452
 H37 H 1.30060 0.27387 0.26098
 C38 C 1.19746 0.20792 0.19557
 C39 C 1.19977 0.29778 0.30422
 C40 C 1.30448 0.29553 0.19937
 C41 C 1.30283 0.20460 0.30260
 C42 C 0.71051 -0.23792 0.28726
 H43 H 0.70622 -0.25521 0.28663
 C44 C 0.69496 -0.22414 0.30260
 H45 H 0.67875 -0.23092 0.31376
 C46 C 0.73680 -0.20805 0.27354
 H47 H 0.75296 -0.20174 0.26205
 C48 C 0.72221 -0.19381 0.28911
 H49 H 0.72729 -0.17664 0.28936
 N50 N 0.73086 -0.22970 0.27292
 C51 C 0.74184 -0.28101 0.21392
 H52 H 0.76316 -0.28257 0.21452
 C53 C 0.72690 -0.29463 0.19740
 H54 H 0.73699 -0.30673 0.18568
 C55 C 0.70296 -0.26319 0.22815
 H56 H 0.69366 -0.25056 0.23957
 C57 C 0.68720 -0.27667 0.21213
 H58 H 0.66589 -0.27443 0.21180
 Zn59 Zn 0.75171 -0.24844 0.25165
 N60 N 0.72976 -0.26586 0.22919
 C61 C 0.79421 -0.27683 0.26227
 N62 N 0.77295 -0.26690 0.27328
 C63 C 0.76716 -0.26996 0.29914
 C64 C 0.78256 -0.28392 0.31474
 C65 C 0.81021 -0.29085 0.27718
 C66 C 0.76731 -0.22752 0.20498
 C67 C 0.78314 -0.21430 0.18924
 C68 C 0.81326 -0.20941 0.22627
 C69 C 0.79682 -0.22272 0.24132
 N70 N 0.77430 -0.23136 0.23053
 H71 H 0.79893 -0.27374 0.24190
 H72 H 0.75051 -0.26172 0.30775
 H73 H 0.77738 -0.28626 0.33519
 H74 H 0.82690 -0.29867 0.26789
 H75 H 0.74920 -0.23443 0.19690
 H76 H 0.77703 -0.21129 0.16903
 H77 H 0.83096 -0.20252 0.23533
 H78 H 0.80182 -0.22597 0.26175
 C79 C 0.69916 -0.29275 0.19660
 C80 C 0.70089 -0.20181 0.30373
 C81 C 0.80639 -0.20492 0.19989
 C82 C 0.80433 -0.29471 0.30375
 C83 C 0.70850 0.26282 -0.21439
 H84 H 0.70405 0.24556 -0.21514
 C85 C 0.69312 0.27662 -0.19888
 H86 H 0.67688 0.26988 -0.18774
 C87 C 0.73508 0.29259 -0.22787
 H88 H 0.75132 0.29885 -0.23929
 C89 C 0.72067 0.30683 -0.21214
 H90 H 0.72596 0.32396 -0.21172
 N91 N 0.72891 0.27098 -0.22871
 C92 C 0.73999 0.22023 -0.28857
 H93 H 0.76134 0.21896 -0.28822
 C94 C 0.72514 0.20659 -0.30516
 H95 H 0.73534 0.19476 -0.31718
 C96 C 0.70093 0.23736 -0.27364
 H97 H 0.69151 0.24970 -0.26188
 C98 C 0.68526 0.22384 -0.28973
 H99 H 0.66391 0.22579 -0.28978
 Zn100 Zn 0.74972 0.25230 -0.25017
 N101 N 0.72778 0.23503 -0.27289
 C102 C 0.79198 0.22350 -0.23975
 N103 N 0.77086 0.23358 -0.22867
 C104 C 0.76499 0.23039 -0.20286
 C105 C 0.78013 0.21612 -0.18739
 C106 C 0.80773 0.20919 -0.22498
 C107 C 0.76474 0.27439 -0.29623
 C108 C 0.78038 0.28792 -0.31178
 C109 C 0.81164 0.29111 -0.27538
 C110 C 0.79531 0.27753 -0.26056
 N111 N 0.77233 0.26957 -0.27111
 H112 H 0.79677 0.22668 -0.26009
 H113 H 0.74844 0.23872 -0.19417
 H114 H 0.77488 0.21368 -0.16698
 H115 H 0.82429 0.20125 -0.23434
 H116 H 0.74625 0.26801 -0.30410
 H117 H 0.77351 0.29154 -0.33162
 H118 H 0.82969 0.29729 -0.26623
 H119 H 0.80077 0.27355 -0.24044
 C120 C 0.69735 0.20808 -0.30562
 C121 C 0.69930 0.29891 -0.19754
 C122 C 0.80424 0.29676 -0.30144
 C123 C 0.80173 0.20517 -0.19847
 C124 C 1.20958 -0.23710 -0.21326
 H125 H 1.20522 -0.25437 -0.21404
 C126 C 1.19426 -0.22341 -0.19759
 H127 H 1.17812 -0.23024 -0.18637
 C128 C 1.23599 -0.20722 -0.22672
 H129 H 1.25218 -0.20089 -0.23817
 C130 C 1.22161 -0.19306 -0.21085
 H131 H 1.22684 -0.17593 -0.21035
 N132 N 1.22991 -0.22884 -0.22759
 C133 C 1.24130 -0.28014 -0.28655
 H134 H 1.26263 -0.28151 -0.28593
 C135 C 1.22655 -0.29386 -0.30313
 H136 H 1.23681 -0.30585 -0.31487
 C137 C 1.20218 -0.26266 -0.27234
 H138 H 1.19273 -0.25013 -0.26090
 C139 C 1.18661 -0.27623 -0.28843
 H140 H 1.16528 -0.27415 -0.28879
 Zn141 Zn 1.25082 -0.24752 -0.24888
 N142 N 1.22901 -0.26511 -0.27126
 C143 C 1.29353 -0.27576 -0.23803
 N144 N 1.27221 -0.26582 -0.22716
 C145 C 1.26631 -0.26881 -0.20132
 C146 C 1.28163 -0.28274 -0.18560
 C147 C 1.30947 -0.28974 -0.22300
 C148 C 1.26546 -0.22614 -0.29548
 C149 C 1.28099 -0.21287 -0.31144
 C150 C 1.31217 -0.20862 -0.27517
 C151 C 1.29601 -0.22197 -0.25987
 N152 N 1.27312 -0.23035 -0.27020
 H153 H 1.29832 -0.27273 -0.25841
 H154 H 1.24961 -0.26058 -0.19280
 H155 H 1.27635 -0.28503 -0.16517
 H156 H 1.32620 -0.29759 -0.23218
 H157 H 1.24706 -0.23282 -0.30316
 H158 H 1.27435 -0.20959 -0.33143
 H159 H 1.33019 -0.20195 -0.26650
 H160 H 1.30152 -0.22546 -0.23964
 C161 C 1.19879 -0.29218 -0.30398
 C162 C 1.20038 -0.20111 -0.19613
 C163 C 1.30464 -0.20379 -0.30130
 C164 C 1.30345 -0.29355 -0.19645
 C165 C 0.26108 0.22169 0.70594
 H166 H 0.24058 0.22522 0.70104
 C167 C 0.27602 0.20855 0.68927
 H168 H 0.26681 0.20209 0.67150
 C169 C 0.29768 0.22557 0.73541
 H170 H 0.30590 0.23207 0.75359
 C171 C 0.31333 0.21250 0.71935
 H172 H 0.33361 0.20917 0.72536
 N173 N 0.27204 0.22979 0.72856
 C174 C 0.21560 0.23551 0.79260
 H175 H 0.21699 0.25260 0.79774
 C176 C 0.19982 0.22159 0.80758
 H177 H 0.18931 0.22826 0.82421
 C178 C 0.22757 0.20636 0.76461
 H179 H 0.23852 0.20038 0.74797
 C180 C 0.21143 0.19202 0.77849
 H181 H 0.21040 0.17516 0.77217
 Zn182 Zn 0.25100 0.24664 0.75145
 N183 N 0.22934 0.22770 0.77173
 C184 C 0.20359 0.26910 0.73729
 N185 N 0.22934 0.26554 0.73086
 C186 C 0.24018 0.27530 0.70946
 C187 C 0.22516 0.28951 0.69385
 C188 C 0.18788 0.28328 0.72230
 C189 C 0.27516 0.26071 0.80007
 C190 C 0.29119 0.27422 0.81581
 C191 C 0.30543 0.29278 0.77650
 C192 C 0.28889 0.27913 0.76159
 N193 N 0.27381 0.26369 0.77349
 H194 H 0.19515 0.26107 0.75413
 H195 H 0.26050 0.27190 0.70435
 H196 H 0.23429 0.29714 0.67701
 H197 H 0.16751 0.28598 0.72792
 H198 H 0.26391 0.24785 0.80920
 H199 H 0.29170 0.27177 0.83694
 H200 H 0.31693 0.30515 0.76656
 H201 H 0.28803 0.28095 0.74043
 C202 C 0.19737 0.19946 0.80051
 C203 C 0.30249 0.20366 0.69600
 C204 C 0.30643 0.29064 0.80404
 C205 C 0.19866 0.29379 0.70030
 C206 C 0.76335 0.72636 0.70202
 H207 H 0.74499 0.73281 0.69404
 C208 C 0.77933 0.71328 0.68630
 H209 H 0.77309 0.70991 0.66620
 C210 C 0.79335 0.72259 0.73811
 H211 H 0.79847 0.72615 0.75845
 C212 C 0.80996 0.70947 0.72307
 H213 H 0.82791 0.70304 0.73205
 N214 N 0.77051 0.73065 0.72744
 C215 C 0.70581 0.73612 0.78324
 H216 H 0.70082 0.75324 0.78221
 C217 C 0.69045 0.72204 0.79845
 H218 H 0.67369 0.72863 0.80891
 C219 C 0.73380 0.70702 0.77089
 H220 H 0.75059 0.70112 0.76003
 C221 C 0.71956 0.69253 0.78648
 H222 H 0.72576 0.67564 0.78717
 Zn223 Zn 0.74764 0.74746 0.74856
 N224 N 0.72685 0.72840 0.76957
 C225 C 0.69908 0.76205 0.72449
 N226 N 0.72586 0.76486 0.72606
 C227 C 0.73818 0.78027 0.71133
 C228 C 0.72350 0.79406 0.69489
 C229 C 0.68356 0.77570 0.70855
 C230 C 0.76207 0.76923 0.79623
 C231 C 0.77736 0.78308 0.81222
 C232 C 0.80616 0.78959 0.77539
 C233 C 0.79024 0.77572 0.76009
 N234 N 0.76854 0.76598 0.77058
 H235 H 0.68962 0.74921 0.73546
 H236 H 0.75949 0.78194 0.71236
 H237 H 0.73377 0.80639 0.68364
 H238 H 0.66227 0.77337 0.70782
 H239 H 0.74497 0.76122 0.80438
 H240 H 0.77171 0.78553 0.83252
 H241 H 0.82326 0.79720 0.76654
 H242 H 0.79539 0.77256 0.73983
 C243 C 0.69734 0.69986 0.80043
 C244 C 0.80293 0.70452 0.69683
 C245 C 0.79971 0.79354 0.80181
 C246 C 0.69576 0.79208 0.69363
 C247 C 0.76003 0.21836 0.20905
 H248 H 0.73859 0.21753 0.20862
 C249 C 0.77466 0.20529 0.19209
 H250 H 0.76424 0.19437 0.17871
 C251 C 0.79945 0.23363 0.22721
 H252 H 0.80905 0.24498 0.24054
 C253 C 0.81489 0.22069 0.21074
 H254 H 0.83629 0.22208 0.21188
 N255 N 0.77253 0.23189 0.22648
 C256 C 0.71125 0.23716 0.28605
 H257 H 0.70735 0.25449 0.28598
 C258 C 0.69607 0.22328 0.30167
 H259 H 0.68039 0.23002 0.31355
 C260 C 0.73669 0.20733 0.27092
 H261 H 0.75269 0.20118 0.25910
 C262 C 0.72249 0.19298 0.28676
 H263 H 0.72746 0.17581 0.28668
 Zn264 Zn 0.75017 0.24814 0.24888
 N265 N 0.73062 0.22893 0.27051
 C266 C 0.70056 0.26292 0.22703
 N267 N 0.72747 0.26470 0.22660
 C268 C 0.73964 0.27857 0.20971
 C269 C 0.72468 0.29198 0.19305
 C270 C 0.68480 0.27621 0.21088
 C271 C 0.78961 0.25885 0.28691
 C272 C 0.80455 0.27260 0.30338
 C273 C 0.77728 0.30279 0.28903
 C274 C 0.76332 0.28859 0.27237
 N275 N 0.76989 0.26710 0.27132
 H276 H 0.69120 0.25130 0.23989
 H277 H 0.76107 0.27943 0.20951
 H278 H 0.73483 0.30318 0.18013
 H279 H 0.66342 0.27480 0.21179
 H280 H 0.79390 0.24158 0.28635
 H281 H 0.82047 0.26585 0.31535
 H282 H 0.77185 0.31986 0.28947
 H283 H 0.74704 0.29474 0.26050
 C284 C 0.70164 0.20089 0.30208
 C285 C 0.80250 0.20613 0.19303
 C286 C 0.79840 0.29488 0.30453
 C287 C 0.69686 0.29113 0.19378
 C288 C 0.26351 0.72653 0.20333
 H289 H 0.24525 0.73321 0.19540
 C290 C 0.27914 0.71314 0.18761
 H291 H 0.27275 0.70978 0.16755
 C292 C 0.29356 0.72243 0.23932
 H293 H 0.29883 0.72596 0.25963
 C294 C 0.30982 0.70900 0.22428
 H295 H 0.32765 0.70234 0.23322
 N296 N 0.27086 0.73081 0.22870
 C297 C 0.20702 0.73693 0.28562
 H298 H 0.20257 0.75418 0.28515
 C299 C 0.19165 0.72293 0.30096
 H300 H 0.17544 0.72951 0.31224
 C301 C 0.23354 0.70738 0.27164
 H302 H 0.24973 0.70126 0.26009
 C303 C 0.21915 0.69294 0.28719
 H304 H 0.22444 0.67584 0.28734
 Zn305 Zn 0.24838 0.74790 0.25001
 N306 N 0.22742 0.72898 0.27117
 C307 C 0.19977 0.76347 0.22685
 N308 N 0.22667 0.76556 0.22767
 C309 C 0.23916 0.78053 0.21242
 C310 C 0.22458 0.79457 0.19620
 C311 C 0.18437 0.77738 0.21111
 C312 C 0.26354 0.76994 0.29741
 C313 C 0.27891 0.78403 0.31302
 C314 C 0.30745 0.79001 0.27584
 C315 C 0.29140 0.77592 0.26096
 N316 N 0.26976 0.76635 0.27178
 H317 H 0.19012 0.75103 0.23831
 H318 H 0.26053 0.78166 0.21289
 H319 H 0.23502 0.80653 0.18453
 H320 H 0.16299 0.77562 0.21100
 H321 H 0.24651 0.76205 0.30584
 H322 H 0.27313 0.78663 0.33326
 H323 H 0.32442 0.79736 0.26641
 H324 H 0.29635 0.77250 0.24071
 C325 C 0.19783 0.70065 0.30198
 C326 C 0.30258 0.70405 0.19808
 C327 C 0.30126 0.79454 0.30233
 C328 C 0.19677 0.79332 0.19567
 N329 N 1.04550 0.02465 0.02788
 N330 N 1.06265 0.04066 0.03181
 N331 N 1.02868 -0.02117 0.04776
 N332 N 1.03330 -0.03675 0.06517
 N333 N 1.04700 -0.02110 0.02960
 N334 N 1.06464 -0.03655 0.03419
 N335 N 1.02728 0.02473 0.04612
 N336 N 1.03145 0.04088 0.06292
 C337 C 1.05349 0.05071 0.05361
 C338 C 1.05576 -0.04621 0.05638
 N339 N 0.95286 -0.02319 0.02929
 N340 N 0.93606 -0.03921 0.03402
 N341 N 0.97023 0.02348 0.04588
 N342 N 0.96587 0.03970 0.06237
 N343 N 0.95158 0.02261 0.02758
 N344 N 0.93391 0.03816 0.03119
 N345 N 0.97146 -0.02234 0.04764
 N346 N 0.96780 -0.03772 0.06542
 Mn347 Mn 0.99942 0.00117 0.04715
 C348 C 0.94573 -0.04816 0.05654
 C349 C 0.94322 0.04873 0.05287
 N350 N 1.04650 -0.02258 -0.02721
 N351 N 1.06471 -0.03761 -0.03114
 N352 N 1.02648 0.02192 -0.04749
 N353 N 1.03051 0.03681 -0.06578
 N354 N 1.04476 0.02323 -0.02886
 N355 N 1.06156 0.03922 -0.03379
 N356 N 1.02767 -0.02386 -0.04530
 N357 N 1.03244 -0.03991 -0.06192
 Mn358 Mn 1.04622 0.00108 0.00035
 C359 C 1.05554 -0.04838 -0.05271
 C360 C 1.05229 0.04757 -0.05681
 N361 N 0.95107 0.02106 -0.02931
 N362 N 0.93349 0.03652 -0.03413
 N363 N 0.97052 -0.02497 -0.04563
 N364 N 0.96607 -0.04087 -0.06268
 N365 N 0.95222 -0.02479 -0.02746
 N366 N 0.93483 -0.04060 -0.03163
 N367 N 0.96927 0.02081 -0.04759
 N368 N 0.96457 0.03607 -0.06536
 Mn369 Mn 0.95163 -0.00107 0.00003
 Mn370 Mn 0.99848 -0.00155 -0.04678
 Cl371 Cl 0.99893 -0.00010 0.00019
 C372 C 0.94226 0.04578 -0.05662
 C373 C 0.94388 -0.05056 -0.05355
 N374 N 1.04779 0.52237 0.53045
 N375 N 1.06527 0.53816 0.53429
 N376 N 1.02916 0.47693 0.54985
 N377 N 1.03357 0.46148 0.56748
 N378 N 1.04738 0.47658 0.53161
 N379 N 1.06470 0.46092 0.53630
 N380 N 1.02955 0.52281 0.54867
 N381 N 1.03402 0.53899 0.56534
 C382 C 1.05630 0.54843 0.55603
 C383 C 1.05573 0.45159 0.55864
 N384 N 0.95328 0.47705 0.53141
 N385 N 0.93582 0.46148 0.53601
 N386 N 0.97245 0.52306 0.54864
 N387 N 0.96837 0.53893 0.56570
 N388 N 0.95386 0.52292 0.53026
 N389 N 0.93661 0.53869 0.53429
 N390 N 0.97192 0.47724 0.54975
 N391 N 0.96764 0.46185 0.56736
 Mn392 Mn 1.00078 0.50000 0.54952
 C393 C 0.94513 0.45209 0.55842
 C394 C 0.94605 0.54860 0.55637
 N395 N 1.04684 0.47557 0.47485
 N396 N 1.06458 0.46025 0.47056
 N397 N 1.02850 0.52109 0.45531
 N398 N 1.03287 0.53644 0.43763
 N399 N 1.04722 0.52124 0.47358
 N400 N 1.06497 0.53650 0.46870
 N401 N 1.02808 0.47508 0.45663
 N402 N 1.03243 0.45924 0.43957
 Mn403 Mn 1.04757 0.49895 0.50263
 C404 C 1.05518 0.45008 0.44867
 C405 C 1.05563 0.54595 0.44636
 N406 N 0.95321 0.52186 0.47345
 N407 N 0.93611 0.53770 0.46877
 N408 N 0.97089 0.47535 0.45652
 N409 N 0.96605 0.45937 0.43966
 N410 N 0.95249 0.47609 0.47458
 N411 N 0.93450 0.46077 0.47036
 N412 N 0.97133 0.52126 0.45511
 N413 N 0.96705 0.53667 0.43742
 Mn414 Mn 0.95292 0.49949 0.50243
 Mn415 Mn 0.99969 0.49817 0.45558
 Cl416 Cl 1.00024 0.49915 0.50253
 C417 C 0.94511 0.54683 0.44631
 C418 C 0.94335 0.45038 0.44867
 N419 N 0.54631 0.02337 0.52742
 N420 N 0.56369 0.03916 0.53167
 N421 N 0.52818 -0.02242 0.54608
 N422 N 0.53242 -0.03827 0.56324
 N423 N 0.54652 -0.02242 0.52796
 N424 N 0.56382 -0.03817 0.53232
 N425 N 0.52794 0.02352 0.54551
 N426 N 0.53225 0.03950 0.56253
 C427 C 0.55455 0.04914 0.55353
 C428 C 0.55467 -0.04795 0.55430
 N429 N 0.45254 -0.02306 0.52717
 N430 N 0.43530 -0.03883 0.53163
 N431 N 0.47077 0.02313 0.54502
 N432 N 0.46640 0.03892 0.56210
 N433 N 0.45219 0.02279 0.52662
 N434 N 0.43464 0.03834 0.53069
 N435 N 0.47106 -0.02269 0.54564
 N436 N 0.46695 -0.03818 0.56316
 Mn437 Mn 0.49949 0.00039 0.54586
 C438 C 0.44467 -0.04817 0.55406
 C439 C 0.44389 0.04832 0.55280
 N440 N 0.54631 -0.02288 0.47117
 N441 N 0.56415 -0.03814 0.46695
 N442 N 0.52752 0.02272 0.45224
 N443 N 0.53210 0.03811 0.43465
 N444 N 0.54609 0.02277 0.47065
 N445 N 0.56394 0.03799 0.46599
 N446 N 0.52773 -0.02330 0.45277
 N447 N 0.53229 -0.03906 0.43565
 Mn448 Mn 0.54656 0.00021 0.49931
 C449 C 0.55500 -0.04820 0.44490
 C450 C 0.55481 0.04755 0.44364
 N451 N 0.45194 0.02231 0.46978
 N452 N 0.43450 0.03792 0.46518
 N453 N 0.47053 -0.02355 0.45211
 N454 N 0.46595 -0.03917 0.43469
 N455 N 0.45223 -0.02358 0.47029
 N456 N 0.43473 -0.03925 0.46577
 N457 N 0.47028 0.02226 0.45164
 N458 N 0.46579 0.03778 0.43415
 Mn459 Mn 0.45193 -0.00039 0.49846
 Mn460 Mn 0.49902 -0.00047 0.45189
 Cl461 Cl 0.49923 -0.00006 0.49887
 C462 C 0.44350 0.04747 0.44296
 C463 C 0.44367 -0.04889 0.44359
 N464 N 0.54725 0.52319 0.02984
 N465 N 0.56458 0.53902 0.03402
 N466 N 0.52916 0.47734 0.04822
 N467 N 0.53339 0.46133 0.06514
 N468 N 0.54739 0.47741 0.02998
 N469 N 0.56458 0.46154 0.03402
 N470 N 0.52898 0.52327 0.04804
 N471 N 0.53332 0.53923 0.06507
 C472 C 0.55553 0.54893 0.05595
 C473 C 0.55550 0.45162 0.05594
 N474 N 0.45341 0.47690 0.02978
 N475 N 0.43614 0.46114 0.03418
 N476 N 0.47177 0.52293 0.04797
 N477 N 0.46742 0.53851 0.06535
 N478 N 0.45312 0.52278 0.02964
 N479 N 0.43558 0.53827 0.03401
 N480 N 0.47202 0.47712 0.04814
 N481 N 0.46793 0.46154 0.06556
 Mn482 Mn 0.50050 0.50017 0.04839
 C483 C 0.44558 0.45166 0.05649
 C484 C 0.44488 0.54801 0.05627
 N485 N 0.54690 0.47731 -0.02683
 N486 N 0.56472 0.46209 -0.03138
 N487 N 0.52797 0.52308 -0.04514
 N488 N 0.53231 0.53862 -0.06258
 N489 N 0.54677 0.52297 -0.02696
 N490 N 0.56459 0.53820 -0.03170
 N491 N 0.52820 0.47704 -0.04510
 N492 N 0.53264 0.46145 -0.06247
 Mn493 Mn 0.54734 0.50022 0.00153
 C494 C 0.55542 0.45222 -0.05352
 C495 C 0.55515 0.54795 -0.05380
 N496 N 0.45254 0.52261 -0.02723
 N497 N 0.43511 0.53827 -0.03165
 N498 N 0.47106 0.47687 -0.04535
 N499 N 0.46687 0.46104 -0.06253
 N500 N 0.45285 0.47668 -0.02709
 N501 N 0.43579 0.46063 -0.03130
 N502 N 0.47083 0.52265 -0.04542
 N503 N 0.46633 0.53830 -0.06273
 Mn504 Mn 0.45267 0.49973 0.00127
 Mn505 Mn 0.49951 0.49992 -0.04554
 Cl506 Cl 0.49998 0.50002 0.00141
 C507 C 0.44409 0.54795 -0.05379
 C508 C 0.44490 0.45100 -0.05343
 C509 C 1.15164 0.16523 0.14886
 N510 N 1.14011 0.17759 0.16771
 N511 N 1.15459 0.19137 0.18230
 C512 C 1.18117 0.19323 0.17872
 N513 N 1.19262 0.18089 0.15978
 N514 N 1.17814 0.16720 0.14510
 C515 C 1.13598 0.14947 0.13335
 N516 N 1.14715 0.13853 0.11308
 N517 N 1.13331 0.12365 0.09954
 C518 C 1.10781 0.11909 0.10586
 N519 N 1.09658 0.13009 0.12607
 N520 N 1.11040 0.14505 0.13954
 C521 C 1.09306 0.10198 0.09163
 N522 N 1.06899 0.09516 0.10012
 N523 N 1.05618 0.07897 0.08782
 C524 C 1.06695 0.06911 0.06655
 N525 N 1.09088 0.07605 0.05792
 N526 N 1.10373 0.09216 0.07028
 C527 C 1.15372 0.66425 0.64978
 N528 N 1.14194 0.67672 0.66836
 N529 N 1.15618 0.69078 0.68280
 C530 C 1.18275 0.69282 0.67932
 N531 N 1.19445 0.68037 0.66064
 N532 N 1.18021 0.66639 0.64611
 C533 C 1.13831 0.64819 0.63447
 N534 N 1.14973 0.63699 0.61454
 N535 N 1.13608 0.62186 0.60121
 C536 C 1.11055 0.61731 0.60740
 N537 N 1.09908 0.62857 0.62727
 N538 N 1.11270 0.64378 0.64053
 C539 C 1.09593 0.59999 0.59342
 N540 N 1.07176 0.59337 0.60182
 N541 N 1.05898 0.57706 0.58974
 C542 C 1.06989 0.56686 0.56876
 N543 N 1.09395 0.57359 0.56022
 N544 N 1.10677 0.58983 0.57237
 C545 C 0.65206 0.16440 0.64845
 N546 N 0.67847 0.16676 0.64443
 N547 N 0.69277 0.18077 0.65885
 C548 C 0.68122 0.19306 0.67778
 N549 N 0.65472 0.19080 0.68163
 N550 N 0.64043 0.17670 0.66730
 C551 C 0.63660 0.14833 0.63318
 N552 N 0.61110 0.14370 0.63947
 N553 N 0.59745 0.12854 0.62617
 C554 C 0.60878 0.11752 0.60601
 N555 N 0.63420 0.12228 0.59961
 N556 N 0.64788 0.13736 0.61298
 C557 C 0.59414 0.10029 0.59184
 N558 N 0.60490 0.09044 0.57055
 N559 N 0.59208 0.07433 0.55814
 C560 C 0.56809 0.06742 0.56665
 N561 N 0.55725 0.07730 0.58789
 N562 N 0.57003 0.09348 0.60024
 C563 C 0.65352 0.66393 0.15061
 N564 N 0.64196 0.67634 0.16938
 N565 N 0.65638 0.69033 0.18375
 C566 C 0.68292 0.69235 0.18000
 N567 N 0.69439 0.67994 0.16113
 N568 N 0.67997 0.66605 0.14668
 C569 C 0.63793 0.64797 0.13532
 N570 N 0.64913 0.63696 0.11511
 N571 N 0.63535 0.62195 0.10174
 C572 C 0.60991 0.61730 0.10818
 N573 N 0.59866 0.62835 0.12834
 N574 N 0.61241 0.64346 0.14164
 C575 C 0.59519 0.60011 0.09406
 N576 N 0.57113 0.59329 0.10257
 N577 N 0.55832 0.57709 0.09028
 C578 C 0.56907 0.56723 0.06900
 N579 N 0.59301 0.57415 0.06038
 N580 N 0.60587 0.59027 0.07272
 C581 C 0.85212 -0.16196 0.15473
 N582 N 0.82964 -0.17103 0.14455
 N583 N 0.81532 -0.18484 0.15879
 C584 C 0.82287 -0.19012 0.18379
 N585 N 0.84548 -0.18110 0.19388
 N586 N 0.85983 -0.16729 0.17963
 C587 C 0.86733 -0.14613 0.13932
 N588 N 0.88975 -0.13688 0.14945
 N589 N 0.90302 -0.12198 0.13576
 C590 C 0.89431 -0.11577 0.11146
 N591 N 0.87196 -0.12509 0.10129
 N592 N 0.85872 -0.14001 0.11496
 C593 C 0.90829 -0.09875 0.09676
 N594 N 0.89861 -0.09168 0.07317
 N595 N 0.91073 -0.07571 0.06022
 C596 C 0.93299 -0.06625 0.07037
 N597 N 0.94279 -0.07338 0.09387
 N598 N 0.93064 -0.08934 0.10685
 C599 C 0.84872 0.33897 0.65539
 N600 N 0.85653 0.33317 0.68009
 N601 N 0.84212 0.31925 0.69412
 C602 C 0.81926 0.31051 0.68408
 N603 N 0.81169 0.31630 0.65919
 N604 N 0.82606 0.33024 0.64517
 C605 C 0.86409 0.35487 0.64020
 N606 N 0.85544 0.36148 0.61604
 N607 N 0.86893 0.37637 0.60257
 C608 C 0.89160 0.38518 0.61273
 N609 N 0.90033 0.37849 0.63683
 N610 N 0.88681 0.36361 0.65033
 C611 C 0.90600 0.40209 0.59821
 N612 N 0.92874 0.41086 0.60827
 N613 N 0.94138 0.42664 0.59544
 C614 C 0.93172 0.43424 0.57211
 N615 N 0.90905 0.42542 0.56198
 N616 N 0.89643 0.40963 0.57479
 C617 C 0.34983 -0.16096 0.65282
 N618 N 0.32685 -0.16958 0.64319
 N619 N 0.31268 -0.18334 0.65766
 C620 C 0.32088 -0.18901 0.68234
 N621 N 0.34397 -0.18042 0.69188
 N622 N 0.35817 -0.16667 0.67741
 C623 C 0.36498 -0.14524 0.63719
 N624 N 0.38793 -0.13653 0.64682
 N625 N 0.40124 -0.12177 0.63297
 C626 C 0.39207 -0.11516 0.60899
 N627 N 0.36919 -0.12394 0.59930
 N628 N 0.35589 -0.13872 0.61314
 C629 C 0.40624 -0.09831 0.59418
 N630 N 0.39638 -0.09085 0.57083
 N631 N 0.40879 -0.07502 0.55786
 C632 C 0.43150 -0.06612 0.56776
 N633 N 0.44145 -0.07366 0.59100
 N634 N 0.42904 -0.08946 0.60399
 C635 C 0.35010 0.33853 0.15412
 N636 N 0.32725 0.32989 0.14422
 N637 N 0.31295 0.31608 0.15849
 C638 C 0.32089 0.31038 0.18324
 N639 N 0.34385 0.31899 0.19306
 N640 N 0.35819 0.33279 0.17878
 C641 C 0.36539 0.35431 0.13870
 N642 N 0.38826 0.36300 0.14856
 N643 N 0.40167 0.37781 0.13488
 C644 C 0.39270 0.38449 0.11086
 N645 N 0.36990 0.37572 0.10095
 N646 N 0.35650 0.36090 0.11461
 C647 C 0.40697 0.40139 0.09622
 N648 N 0.39720 0.40896 0.07289
 N649 N 0.40967 0.42482 0.06005
 C650 C 0.43237 0.43366 0.07007
 N651 N 0.44223 0.42602 0.09330
 N652 N 0.42975 0.41018 0.10616
 C653 C 0.84617 0.16005 -0.15407
 N654 N 0.82439 0.16963 -0.14377
 N655 N 0.81043 0.18408 -0.15777
 C656 C 0.81765 0.18949 -0.18264
 N657 N 0.83952 0.17990 -0.19286
 N658 N 0.85351 0.16549 -0.17885
 C659 C 0.86124 0.14374 -0.13888
 N660 N 0.88333 0.13451 -0.14900
 N661 N 0.89669 0.11939 -0.13548
 C662 C 0.88842 0.11292 -0.11135
 N663 N 0.86636 0.12219 -0.10119
 N664 N 0.85303 0.13734 -0.11470
 C665 C 0.90279 0.09584 -0.09676
 N666 N 0.89368 0.08844 -0.07333
 N667 N 0.90637 0.07259 -0.06042
 C668 C 0.92864 0.06360 -0.07046
 N669 N 0.93783 0.07105 -0.09381
 N670 N 0.92511 0.08688 -0.10674
 C671 C 0.84956 0.66107 0.34862
 N672 N 0.82775 0.67061 0.35890
 N673 N 0.81354 0.68478 0.34475
 C674 C 0.82054 0.68995 0.31974
 N675 N 0.84244 0.68042 0.30954
 N676 N 0.85668 0.66627 0.32370
 C677 C 0.86480 0.64499 0.36395
 N678 N 0.88681 0.63565 0.35378
 N679 N 0.90024 0.62063 0.36740
 C680 C 0.89213 0.61438 0.39166
 N681 N 0.87017 0.62378 0.40186
 N682 N 0.85677 0.63882 0.38827
 C683 C 0.90642 0.59731 0.40629
 N684 N 0.89735 0.59011 0.42981
 N685 N 0.90984 0.57415 0.44270
 C686 C 0.93188 0.56486 0.43255
 N687 N 0.94105 0.57214 0.40912
 N688 N 0.92853 0.58807 0.39620
 C689 C 0.34681 0.16138 0.34574
 N690 N 0.35335 0.16616 0.32055
 N691 N 0.33907 0.18036 0.30651
 C692 C 0.31763 0.19044 0.31704
 N693 N 0.31131 0.18565 0.34239
 N694 N 0.32554 0.17141 0.35642
 C695 C 0.36212 0.14528 0.36097
 N696 N 0.35438 0.13926 0.38544
 N697 N 0.36788 0.12423 0.39897
 C698 C 0.38966 0.11471 0.38855
 N699 N 0.39748 0.12082 0.36414
 N700 N 0.38394 0.13581 0.35058
 C701 C 0.40412 0.09770 0.40313
 N702 N 0.42635 0.08868 0.39302
 N703 N 0.43907 0.07283 0.40589
 C704 C 0.42999 0.06541 0.42929
 N705 N 0.40782 0.07446 0.43946
 N706 N 0.39513 0.09035 0.42663
 C707 C 0.34830 0.66220 -0.15124
 N708 N 0.32624 0.67156 -0.14123
 N709 N 0.31216 0.68575 -0.15549
 C710 C 0.31953 0.69111 -0.18033
 N711 N 0.34167 0.68175 -0.19025
 N712 N 0.35579 0.66759 -0.17599
 C713 C 0.36344 0.64611 -0.13583
 N714 N 0.38578 0.63709 -0.14568
 N715 N 0.39916 0.62208 -0.13202
 C716 C 0.39066 0.61549 -0.10803
 N717 N 0.36836 0.62456 -0.09812
 N718 N 0.35500 0.63961 -0.11176
 C719 C 0.40498 0.59843 -0.09341
 N720 N 0.39562 0.59076 -0.07021
 N721 N 0.40822 0.57480 -0.05740
 C722 C 0.43064 0.56598 -0.06733
 N723 N 0.44007 0.57372 -0.09044
 N724 N 0.42746 0.58964 -0.10326
 C725 C 1.15633 -0.15856 -0.14925
 N726 N 1.18220 -0.15438 -0.15436
 N727 N 1.19616 -0.16792 -0.16925
 C728 C 1.18487 -0.18629 -0.17939
 N729 N 1.15903 -0.19056 -0.17407
 N730 N 1.14497 -0.17688 -0.15939
 C731 C 1.14088 -0.14324 -0.13343
 N732 N 1.11395 -0.14381 -0.13398
 N733 N 1.10001 -0.12935 -0.12032
 C734 C 1.11251 -0.11395 -0.10541
 N735 N 1.13943 -0.11353 -0.10466
 N736 N 1.15336 -0.12783 -0.11853
 C737 C 1.09730 -0.09757 -0.09095
 N738 N 1.10927 -0.08521 -0.07200
 N739 N 1.09577 -0.06980 -0.05948
 C740 C 1.06991 -0.06605 -0.06564
 N741 N 1.05790 -0.07841 -0.08456
 N742 N 1.07133 -0.09398 -0.09691
 C743 C 1.15532 0.34027 0.35081
 N744 N 1.18134 0.34427 0.34625
 N745 N 1.19543 0.33074 0.33146
 C746 C 1.18411 0.31256 0.32088
 N747 N 1.15811 0.30845 0.32564
 N748 N 1.14393 0.32213 0.34022
 C749 C 1.13980 0.35556 0.36660
 N750 N 1.11287 0.35534 0.36550
 N751 N 1.09892 0.36978 0.37922
 C752 C 1.11143 0.38477 0.39473
 N753 N 1.13834 0.38483 0.39600
 N754 N 1.15227 0.37057 0.38208
 C755 C 1.09630 0.40107 0.40941
 N756 N 1.10824 0.41282 0.42893
 N757 N 1.09492 0.42816 0.44173
 C758 C 1.06925 0.43247 0.43530
 N759 N 1.05725 0.42073 0.41580
 N760 N 1.07052 0.40521 0.40315
 C761 C 0.65598 -0.15878 0.34912
 N762 N 0.68201 -0.15478 0.34466
 N763 N 0.69625 -0.16849 0.33025
 C764 C 0.68508 -0.18685 0.32000
 N765 N 0.65906 -0.19095 0.32467
 N766 N 0.64473 -0.17710 0.33885
 C767 C 0.64031 -0.14330 0.36449
 N768 N 0.61338 -0.14352 0.36316
 N769 N 0.59932 -0.12893 0.37652
 C770 C 0.61170 -0.11377 0.39189
 N771 N 0.63860 -0.11370 0.39338
 N772 N 0.65265 -0.12811 0.37982
 C773 C 0.59645 -0.09735 0.40623
 N774 N 0.60823 -0.08551 0.42577
 N775 N 0.59480 -0.07011 0.43835
 C776 C 0.56919 -0.06581 0.43166
 N777 N 0.55736 -0.07763 0.41212
 N778 N 0.57073 -0.09321 0.39971
 C779 C 0.65506 0.34197 -0.15146
 N780 N 0.68109 0.34586 -0.15612
 N781 N 0.69510 0.33215 -0.17074
 C782 C 0.68371 0.31389 -0.18104
 N783 N 0.65770 0.30990 -0.17617
 N784 N 0.64359 0.32375 -0.16177
 C785 C 0.63963 0.35746 -0.13582
 N786 N 0.61269 0.35733 -0.13686
 N787 N 0.59885 0.37190 -0.12323
 C788 C 0.61145 0.38694 -0.10787
 N789 N 0.63837 0.38692 -0.10667
 N790 N 0.65220 0.37253 -0.12049
 C791 C 0.59642 0.40333 -0.09319
 N792 N 0.60842 0.41501 -0.07365
 N793 N 0.59516 0.43034 -0.06076
 C794 C 0.56949 0.43470 -0.06711
 N795 N 0.55743 0.42304 -0.08665
 N796 N 0.57064 0.40754 -0.09939
 C797 C 1.15075 0.15711 -0.15703
 N798 N 1.15571 0.17756 -0.14794
 N799 N 1.17055 0.19133 -0.16176
 C800 C 1.18135 0.18511 -0.18502
 N801 N 1.17639 0.16455 -0.19392
 N802 N 1.16127 0.15090 -0.18031
 C803 C 1.13459 0.14179 -0.14189
 N804 N 1.12287 0.12448 -0.15403
 N805 N 1.10866 0.11023 -0.14030
 C806 C 1.10595 0.11263 -0.11388
 N807 N 1.11772 0.12992 -0.10170
 N808 N 1.13166 0.14434 -0.11550
 C809 C 1.09117 0.09639 -0.09873
 N810 N 1.09571 0.09394 -0.07246
 N811 N 1.08317 0.07847 -0.05900
 C812 C 1.06541 0.06510 -0.07130
 N813 N 1.06064 0.06772 -0.09749
 N814 N 1.07342 0.08299 -0.11100
 C815 C 1.15400 0.65696 0.34778
 N816 N 1.18003 0.65332 0.34298
 N817 N 1.19390 0.66723 0.32844
 C818 C 1.18237 0.68546 0.31838
 N819 N 1.15635 0.68920 0.32338
 N820 N 1.14238 0.67514 0.33770
 C821 C 1.13876 0.64127 0.36338
 N822 N 1.11181 0.64111 0.36244
 N823 N 1.09815 0.62638 0.37606
 C824 C 1.11095 0.61145 0.39133
 N825 N 1.13787 0.61175 0.39242
 N826 N 1.15152 0.62631 0.37859
 C827 C 1.09613 0.59494 0.40609
 N828 N 1.10830 0.58348 0.42566
 N829 N 1.09520 0.56811 0.43871
 C830 C 1.06955 0.56345 0.43248
 N831 N 1.05733 0.57487 0.41289
 N832 N 1.07036 0.59043 0.40001
 C833 C 0.65659 0.15744 0.34693
 N834 N 0.64553 0.17599 0.33725
 N835 N 0.65993 0.18997 0.32328
 C836 C 0.68584 0.18579 0.31824
 N837 N 0.69682 0.16720 0.32789
 N838 N 0.68252 0.15336 0.34210
 C839 C 0.64083 0.14185 0.36212
 N840 N 0.65307 0.12652 0.37720
 N841 N 0.63892 0.11210 0.39072
 C842 C 0.61201 0.11231 0.38942
 N843 N 0.59973 0.12760 0.37427
 N844 N 0.61389 0.14220 0.36097
 C845 C 0.59665 0.09601 0.40392
 N846 N 0.57086 0.09187 0.39754
 N847 N 0.55737 0.07647 0.41023
 C848 C 0.56914 0.06487 0.42993
 N849 N 0.59481 0.06917 0.43645
 N850 N 0.60836 0.08437 0.42360
 C851 C 0.65413 0.65709 -0.15427
 N852 N 0.67759 0.65098 -0.16469
 N853 N 0.69141 0.66477 -0.17943
 C854 C 0.68255 0.68535 -0.18407
 N855 N 0.65909 0.69146 -0.17339
 N856 N 0.64506 0.67756 -0.15894
 C857 C 0.63896 0.64170 -0.13827
 N858 N 0.61235 0.64395 -0.13547
 N859 N 0.59861 0.62952 -0.12149
 C860 C 0.61107 0.61251 -0.10954
 N861 N 0.63770 0.61040 -0.11215
 N862 N 0.65136 0.62465 -0.12641
 C863 C 0.59613 0.59637 -0.09440
 N864 N 0.60875 0.58375 -0.07623
 N865 N 0.59551 0.56860 -0.06297
 C866 C 0.56924 0.56532 -0.06766
 N867 N 0.55657 0.57790 -0.08586
 N868 N 0.56976 0.59327 -0.09889
 C869 C 0.84547 -0.16321 -0.15205
 N870 N 0.85312 -0.16872 -0.17671
 N871 N 0.83867 -0.18253 -0.19127
 C872 C 0.81602 -0.19142 -0.18175
 N873 N 0.80848 -0.18595 -0.15699
 N874 N 0.82289 -0.17210 -0.14243
 C875 C 0.86105 -0.14752 -0.13633
 N876 N 0.85262 -0.14090 -0.11231
 N877 N 0.86641 -0.12618 -0.09843
 C878 C 0.88916 -0.11758 -0.10804
 N879 N 0.89765 -0.12430 -0.13198
 N880 N 0.88385 -0.13898 -0.14588
 C881 C 0.90391 -0.10079 -0.09324
 N882 N 0.92669 -0.09233 -0.10294
 N883 N 0.93962 -0.07654 -0.09006
 C884 C 0.93024 -0.06862 -0.06702
 N885 N 0.90754 -0.07714 -0.05721
 N886 N 0.89462 -0.09297 -0.07008
 C887 C 0.84246 0.33814 0.35195
 N888 N 0.85389 0.31987 0.34218
 N889 N 0.83979 0.30593 0.32743
 C890 C 0.81384 0.30986 0.32166
 N891 N 0.80248 0.32817 0.33145
 N892 N 0.81648 0.34197 0.34642
 C893 C 0.85799 0.35382 0.36774
 N894 N 0.84555 0.36914 0.38239
 N895 N 0.85953 0.38378 0.39619
 C896 C 0.88644 0.38380 0.39561
 N897 N 0.89890 0.36850 0.38092
 N898 N 0.88492 0.35370 0.36734
 C899 C 0.90166 0.40051 0.41006
 N900 N 0.92741 0.40459 0.40419
 N901 N 0.94081 0.42040 0.41661
 C902 C 0.92902 0.43252 0.43552
 N903 N 0.90338 0.42829 0.44158
 N904 N 0.88991 0.41264 0.42898
 C905 C 0.34554 -0.16241 0.34586
 N906 N 0.35214 -0.16720 0.32069
 N907 N 0.33776 -0.18134 0.30653
 C908 C 0.31615 -0.19135 0.31691
 N909 N 0.30975 -0.18655 0.34226
 N910 N 0.32410 -0.17236 0.35640
 C911 C 0.36103 -0.14637 0.36121
 N912 N 0.35331 -0.14031 0.38569
 N913 N 0.36700 -0.12535 0.39930
 C914 C 0.38895 -0.11596 0.38897
 N915 N 0.39673 -0.12210 0.36455
 N916 N 0.38301 -0.13701 0.35092
 C917 C 0.40365 -0.09902 0.40364
 N918 N 0.42601 -0.09010 0.39357
 N919 N 0.43894 -0.07431 0.40648
 C920 C 0.42996 -0.06684 0.42990
 N921 N 0.40767 -0.07580 0.44005
 N922 N 0.39477 -0.09163 0.42716
 C923 C 0.35172 0.33458 -0.15047
 N924 N 0.35580 0.33254 -0.17673
 N925 N 0.34160 0.31843 -0.19109
 C926 C 0.32285 0.30571 -0.17974
 N927 N 0.31896 0.30764 -0.15338
 N928 N 0.33307 0.32185 -0.13902
 C929 C 0.36670 0.35081 -0.13497
 N930 N 0.36015 0.35530 -0.10967
 N931 N 0.37317 0.37064 -0.09604
 C932 C 0.39329 0.38197 -0.10720
 N933 N 0.39995 0.37734 -0.13243
 N934 N 0.38686 0.36209 -0.14608
 C935 C 0.40717 0.39938 -0.09264
 N936 N 0.42852 0.40943 -0.10327
 N937 N 0.44070 0.42570 -0.09057
 C938 C 0.43191 0.43258 -0.06682
 N939 N 0.41062 0.42251 -0.05610
 N940 N 0.39849 0.40616 -0.06877
 C941 C 1.15237 -0.16187 0.15084
 N942 N 1.14047 -0.17438 0.16933
 N943 N 1.15447 -0.18882 0.18332
 C944 C 1.18094 -0.19124 0.17946
 N945 N 1.19275 -0.17873 0.16088
 N946 N 1.17874 -0.16437 0.14681
 C947 C 1.13720 -0.14548 0.13587
 N948 N 1.14868 -0.13436 0.11590
 N949 N 1.13523 -0.11910 0.10273
 C950 C 1.10984 -0.11430 0.10912
 N951 N 1.09832 -0.12545 0.12906
 N952 N 1.11174 -0.14080 0.14217
 C953 C 1.09537 -0.09699 0.09503
 N954 N 1.07126 -0.09022 0.10338
 N955 N 1.05853 -0.07411 0.09098
 C956 C 1.06941 -0.06426 0.06974
 N957 N 1.09342 -0.07111 0.06130
 N958 N 1.10620 -0.08715 0.07376
 C959 C 1.15339 0.33814 0.65565
 N960 N 1.14347 0.32916 0.67789
 N961 N 1.15775 0.31497 0.69195
 C962 C 1.18254 0.30923 0.68437
 N963 N 1.19237 0.31822 0.66205
 N964 N 1.17808 0.33238 0.64796
 C965 C 1.13794 0.35416 0.64044
 N966 N 1.14774 0.36276 0.61792
 N967 N 1.13404 0.37768 0.60441
 C968 C 1.11007 0.38457 0.61294
 N969 N 1.10022 0.37592 0.63542
 N970 N 1.11390 0.36097 0.64891
 C971 C 1.09542 0.40150 0.59842
 N972 N 1.07221 0.40942 0.60770
 N973 N 1.05937 0.42525 0.59489
 C974 C 1.06929 0.43369 0.57233
 N975 N 1.09240 0.42569 0.56298
 N976 N 1.10525 0.40989 0.57580
 C977 C 0.65092 -0.16387 0.64824
 N978 N 0.63908 -0.17653 0.66661
 N979 N 0.65323 -0.19076 0.68077
 C980 C 0.67979 -0.19278 0.67720
 N981 N 0.69155 -0.18013 0.65874
 N982 N 0.67739 -0.16600 0.64449
 C983 C 0.63563 -0.14766 0.63317
 N984 N 0.64710 -0.13648 0.61325
 N985 N 0.63360 -0.12127 0.60006
 C986 C 0.60816 -0.11659 0.60639
 N987 N 0.59664 -0.12781 0.62627
 N988 N 0.61012 -0.14311 0.63939
 C989 C 0.59372 -0.09925 0.59239
 N990 N 0.56967 -0.09240 0.60081
 N991 N 0.55708 -0.07614 0.58857
 C992 C 0.56804 -0.06623 0.56742
 N993 N 0.59198 -0.07317 0.55889
 N994 N 0.60462 -0.08935 0.57119
 C995 C 0.65153 0.33482 0.14834
 N996 N 0.67766 0.33184 0.14343
 N997 N 0.69195 0.31778 0.15766
 C998 C 0.68066 0.30608 0.17729
 N999 N 0.65442 0.30895 0.18201
 N1000 N 0.64014 0.32309 0.16786
 C1001 C 0.63616 0.35104 0.13338
 N1002 N 0.61105 0.35620 0.14041
 N1003 N 0.59756 0.37158 0.12744
 C1004 C 0.60868 0.38228 0.10692
 N1005 N 0.63371 0.37699 0.09978
 N1006 N 0.64722 0.36169 0.11281
 C1007 C 0.59429 0.39978 0.09317
 N1008 N 0.60494 0.40953 0.07175
 N1009 N 0.59238 0.42588 0.05971
 C1010 C 0.56878 0.43314 0.06874
 N1011 N 0.55805 0.42337 0.09011
 N1012 N 0.57058 0.40695 0.10209
 C1013 C 0.84701 0.16359 0.14629
 N1014 N 0.85889 0.17533 0.16587
 N1015 N 0.84485 0.18908 0.18044
 C1016 C 0.81837 0.19158 0.17610
 N1017 N 0.80657 0.17988 0.15640
 N1018 N 0.82061 0.16619 0.14176
 C1019 C 0.86219 0.14775 0.13091
 N1020 N 0.85056 0.13686 0.11048
 N1021 N 0.86399 0.12188 0.09715
 C1022 C 0.88952 0.11718 0.10382
 N1023 N 0.90119 0.12814 0.12417
 N1024 N 0.88779 0.14318 0.13745
 C1025 C 0.90393 0.09998 0.08988
 N1026 N 0.92828 0.09352 0.09851
 N1027 N 0.94091 0.07732 0.08653
 C1028 C 0.92970 0.06706 0.06542
 N1029 N 0.90545 0.07362 0.05665
 N1030 N 0.89276 0.08976 0.06870
 C1031 C 0.84938 0.66197 0.65196
 N1032 N 0.85731 0.66801 0.67659
 N1033 N 0.84272 0.68169 0.69072
 C1034 C 0.81963 0.68987 0.68080
 N1035 N 0.81184 0.68389 0.65607
 N1036 N 0.82641 0.67020 0.64194
 C1037 C 0.86493 0.64627 0.63674
 N1038 N 0.85619 0.63933 0.61272
 N1039 N 0.86980 0.62451 0.59930
 C1040 C 0.89267 0.61612 0.60938
 N1041 N 0.90150 0.62316 0.63333
 N1042 N 0.88787 0.63795 0.64678
 C1043 C 0.90712 0.59917 0.59505
 N1044 N 0.92993 0.59070 0.60520
 N1045 N 0.94253 0.57477 0.59268
 C1046 C 0.93277 0.56673 0.56956
 N1047 N 0.91005 0.57526 0.55932
 N1048 N 0.89746 0.59121 0.57184
 C1049 C 0.34720 0.16114 0.64937
 N1050 N 0.32225 0.16691 0.64185
 N1051 N 0.30815 0.18057 0.65649
 C1052 C 0.31845 0.18902 0.67922
 N1053 N 0.34350 0.18330 0.68659
 N1054 N 0.35759 0.16963 0.67197
 C1055 C 0.36243 0.14547 0.63378
 N1056 N 0.38684 0.13891 0.64211
 N1057 N 0.40033 0.12415 0.62849
 C1058 C 0.38992 0.11542 0.60601
 N1059 N 0.36557 0.12206 0.59759
 N1060 N 0.35206 0.13682 0.61124
 C1061 C 0.40440 0.09855 0.59157
 N1062 N 0.39403 0.08971 0.56913
 N1063 N 0.40679 0.07388 0.55656
 C1064 C 0.43034 0.06631 0.56600
 N1065 N 0.44078 0.07521 0.58835
 N1066 N 0.42805 0.09105 0.60090
 C1067 C 0.34809 0.66075 0.15321
 N1068 N 0.32516 0.66916 0.14328
 N1069 N 0.31089 0.68306 0.15742
 C1070 C 0.31893 0.68910 0.18205
 N1071 N 0.34195 0.68072 0.19189
 N1072 N 0.35625 0.66683 0.17775
 C1073 C 0.36342 0.64492 0.13792
 N1074 N 0.38640 0.63655 0.14781
 N1075 N 0.39992 0.62175 0.13427
 C1076 C 0.39096 0.61475 0.11035
 N1077 N 0.36803 0.62317 0.10041
 N1078 N 0.35452 0.63799 0.11395
 C1079 C 0.40543 0.59790 0.09581
 N1080 N 0.39576 0.59005 0.07255
 N1081 N 0.40847 0.57430 0.05978
 C1082 C 0.43134 0.56586 0.06981
 N1083 N 0.44110 0.57379 0.09298
 N1084 N 0.42837 0.58951 0.10576
   
