data_POSCAR
  _audit_creation_date              2014-09-24
  _audit_creation_method            'ToBaCCo'
  _symmetry_space_group_name_H-M    'P1'
  _symmetry_Int_Tables_number       1
  _symmetry_cell_setting            triclinic
  loop_
  _symmetry_equiv_pos_as_xyz
 x,y,z
_cell_length_a 28.3417
_cell_length_b 28.3877
_cell_length_c 66.2996
_cell_angle_alpha 86.509100
_cell_angle_beta 87.062600
_cell_angle_gamma 120.087700
loop_
  _atom_site_label
  _atom_site_type_symbol
  _atom_site_fract_x
  _atom_site_fract_y
  _atom_site_fract_z
C1 C -0.06784 0.00497 0.53889
 H2 H -0.06298 -0.02763 0.54572
 C3 C -0.07035 0.04199 0.55115
 H4 H -0.06900 0.03631 0.56736
 C5 C -0.07253 0.05374 0.50949
 H6 H -0.07122 0.05910 0.49313
 C7 C -0.07489 0.09196 0.52121
 H8 H -0.07569 0.12651 0.51374
 N9 N -0.06789 0.01199 0.51842
 C10 C 0.01225 -0.07485 0.51840
 H11 H 0.04769 -0.04203 0.50936
 C12 C 0.01743 -0.11379 0.53057
 H13 H 0.05724 -0.11017 0.53104
 C14 C -0.08282 -0.11978 0.52881
 H15 H -0.12187 -0.12200 0.52785
 C16 C -0.07950 -0.15929 0.54114
 H17 H -0.11641 -0.19215 0.54953
 Zn18 Zn -0.04919 -0.02897 0.50167
 N19 N -0.03733 -0.07835 0.51794
 C20 C 0.05816 0.06015 0.49370
 N21 N 0.01430 0.02258 0.48483
 C22 C 0.01262 0.02625 0.46436
 C23 C 0.05550 0.06979 0.45201
 C24 C 0.10200 0.10454 0.48188
 C25 C -0.15269 -0.07116 0.48474
 C26 C -0.19264 -0.10540 0.47258
 C27 C -0.13433 -0.14090 0.46256
 C28 C -0.09597 -0.10622 0.47488
 N29 N -0.10533 -0.07192 0.48547
 H30 H 0.05788 0.05698 0.51005
 H31 H -0.02298 -0.00317 0.45758
 H32 H 0.05293 0.07236 0.43578
 H33 H 0.13549 0.13526 0.48928
 H34 H -0.15942 -0.04374 0.49346
 H35 H -0.22826 -0.10106 0.47189
 H36 H -0.12506 -0.16888 0.45543
 H37 H -0.05840 -0.10690 0.47618
 C38 C -0.02887 -0.15652 0.54224
 C39 C -0.07214 0.08719 0.54228
 C40 C -0.18419 -0.14131 0.46086
 C41 C 0.10034 0.11041 0.46078
 C42 C 1.12775 0.09766 0.13730
 H43 H 1.12940 0.13657 0.13724
 C44 C 1.16813 0.09372 0.12594
 H45 H 1.20031 0.12974 0.11688
 C46 C 1.08315 0.00347 0.14917
 H47 H 1.05036 -0.03129 0.15851
 C48 C 1.12279 -0.00236 0.13795
 H49 H 1.12016 -0.04183 0.13874
 N50 N 1.08625 0.05293 0.14852
 C51 C 0.95328 0.08743 0.15491
 H52 H 0.94806 0.08731 0.17120
 C53 C 0.91482 0.08872 0.14284
 H54 H 0.88024 0.08986 0.14999
 C55 C 1.00197 0.08092 0.12611
 H56 H 1.03470 0.07582 0.11968
 C57 C 0.96470 0.08230 0.11350
 H58 H 0.97025 0.07981 0.09740
 Zn59 Zn 1.03647 0.06560 0.16393
 N60 N 0.99512 0.08245 0.14646
 C61 C 1.07800 0.17069 0.17919
 N62 N 1.07925 0.12338 0.17947
 C63 C 1.11434 0.11559 0.19048
 C64 C 1.15007 0.15613 0.20187
 C65 C 1.11310 0.21251 0.19050
 C66 C 0.94816 -0.04159 0.17270
 C67 C 0.90419 -0.08531 0.18470
 C68 C 0.93821 -0.03688 0.21419
 C69 C 0.98141 0.00586 0.20165
 N70 N 0.98525 0.00308 0.18128
 H71 H 1.05029 0.17625 0.17006
 H72 H 1.11463 0.07764 0.19029
 H73 H 1.17722 0.14870 0.21069
 H74 H 1.11217 0.25022 0.19003
 H75 H 0.95146 -0.04218 0.15639
 H76 H 0.87390 -0.11955 0.17749
 H77 H 0.93551 -0.03354 0.23034
 H78 H 1.01051 0.04211 0.20817
 C79 C 0.91945 0.08454 0.12191
 C80 C 1.16613 0.04328 0.12619
 C81 C 0.89819 -0.08273 0.20570
 C82 C 1.15004 0.20552 0.20191
 C83 C 0.06937 0.92422 0.86218
 H84 H 0.03214 0.88524 0.86197
 C85 C 0.10964 0.92844 0.87437
 H86 H 0.10325 0.89228 0.88340
 C87 C 0.12322 1.01813 0.85002
 H88 H 0.12833 1.05274 0.84036
 C89 C 0.16482 1.02419 0.86200
 H90 H 0.20152 1.06389 0.86170
 N91 N 0.07649 0.96872 0.85050
 C92 C -0.08888 0.93350 0.84219
 H93 H -0.08896 0.93311 0.82588
 C94 C -0.13302 0.93085 0.85368
 H95 H -0.16753 0.92586 0.84585
 C96 C -0.04294 0.94050 0.87162
 H97 H -0.00677 0.94675 0.87849
 C98 C -0.08620 0.93765 0.88372
 H99 H -0.08109 0.94240 0.89965
 Zn100 Zn 0.01889 0.95596 0.83441
 N101 N -0.04464 0.93916 0.85122
 C102 C -0.04108 0.85068 0.81956
 N103 N 0.00796 0.89781 0.81916
 C104 C 0.05338 0.90491 0.80826
 C105 C 0.05061 0.86396 0.79696
 C106 C -0.04574 0.80851 0.80838
 C107 C 0.03980 1.06272 0.82523
 C108 C 0.04180 1.10576 0.81305
 C109 C 0.03678 1.05757 0.78371
 C110 C 0.03474 1.01546 0.79642
 N111 N 0.03541 1.01834 0.81682
 H112 H -0.07642 0.84557 0.82863
 H113 H 0.09192 0.94268 0.80838
 H114 H 0.08715 0.87093 0.78814
 H115 H -0.08489 0.77101 0.80895
 H116 H 0.03896 1.06338 0.84154
 H117 H 0.04271 1.13953 0.82015
 H118 H 0.03516 1.05400 0.76756
 H119 H 0.03004 0.97943 0.79003
 C120 C -0.13195 0.93433 0.87485
 C121 C 0.15810 0.97894 0.87446
 C122 C 0.03887 1.10282 0.79204
 C123 C 0.00063 0.81488 0.79694
 O124 O 0.59664 0.04598 -0.02459
 O125 O 0.50909 0.06319 0.01402
 O126 O 0.60253 0.06566 0.01334
 O127 O 0.50628 0.04949 -0.02435
 O128 O 0.45964 -0.03990 -0.01581
 O129 O 0.55683 -0.02367 0.02198
 O130 O 0.46347 -0.02621 0.02253
 O131 O 0.55004 -0.04334 -0.01594
 Cu132 Cu 0.55835 0.06507 -0.00626
 Cu133 Cu 0.50294 -0.04226 0.00404
 C134 C 0.58803 -0.00180 -0.02670
 C135 C 0.47118 0.02111 0.02468
 C136 C 0.59621 0.02393 0.02398
 C137 C 0.46645 0.00234 -0.02634
 O138 O -0.06299 0.48761 0.65197
 O139 O -0.05388 0.39253 0.69002
 O140 O -0.05606 0.48325 0.69086
 O141 O -0.06686 0.39384 0.65145
 O142 O 0.02330 0.43896 0.64508
 O143 O 0.03415 0.52932 0.68462
 O144 O 0.03629 0.43856 0.68366
 O145 O 0.02721 0.53270 0.64571
 Cu146 Cu -0.06901 0.43468 0.67171
 Cu147 Cu 0.03930 0.48942 0.66414
 C148 C -0.01918 0.52649 0.64253
 C149 C -0.00704 0.39954 0.69318
 C150 C -0.00939 0.52162 0.69431
 C151 C -0.02381 0.40097 0.64168
 O152 O 0.50704 0.60786 0.31349
 O153 O 0.40453 0.50357 0.35286
 O154 O 0.49528 0.59714 0.35295
 O155 O 0.41317 0.51736 0.31335
 O156 O 0.45789 0.47211 0.31284
 O157 O 0.54069 0.55257 0.35250
 O158 O 0.45011 0.45919 0.35229
 O159 O 0.55152 0.56236 0.31311
 Cu160 Cu 0.45042 0.56096 0.33321
 Cu161 Cu 0.50453 0.50700 0.33264
 C162 C 0.54684 0.60269 0.30677
 C163 C 0.41012 0.46362 0.35914
 C164 C 0.53209 0.58874 0.35931
 C165 C 0.42139 0.48116 0.30646
 C166 C -0.09059 0.19933 0.56327
 C167 C -0.05378 0.21552 0.57821
 C168 C -0.02342 0.18971 0.58142
 C169 C -0.02974 0.14790 0.56979
 C170 C -0.06672 0.13106 0.55477
 C171 C -0.09696 0.15740 0.55156
 C172 C -0.04734 0.25791 0.59061
 C173 C -0.04133 0.29258 0.60153
 C174 C -0.03425 0.33197 0.61492
 C175 C -0.02882 0.36432 0.62686
 H176 H -0.11445 0.21894 0.56071
 H177 H 0.00527 0.20197 0.59290
 H178 H -0.00498 0.12932 0.57236
 H179 H -0.12591 0.14517 0.54018
 C180 C 0.77666 0.84810 0.24566
 C181 C 0.75511 0.79292 0.24271
 C182 C 0.78029 0.77814 0.22764
 C183 C 0.82692 0.81845 0.21558
 C184 C 0.84904 0.87406 0.21852
 C185 C 0.82322 0.88839 0.23367
 C186 C 0.70799 0.75163 0.25553
 C187 C 0.66921 0.71750 0.26666
 C188 C 0.62490 0.67774 0.28015
 C189 C 0.58836 0.64366 0.29209
 H190 H 0.75750 0.86001 0.25727
 H191 H 0.76409 0.73549 0.22530
 H192 H 0.84610 0.80612 0.20416
 H193 H 0.83859 0.93086 0.23606
 C194 C 0.22668 -0.04099 -0.08081
 C195 C 0.28195 -0.01110 -0.08828
 C196 C 0.29706 0.01679 -0.10779
 C197 C 0.25692 0.01432 -0.11986
 C198 C 0.20117 -0.01624 -0.11255
 C199 C 0.18657 -0.04356 -0.09283
 C200 C 0.32288 -0.00907 -0.07579
 C201 C 0.35640 -0.00760 -0.06497
 C202 C 0.39502 -0.00549 -0.05189
 C203 C 0.42771 -0.00274 -0.04039
 H204 H 0.21456 -0.06242 -0.06569
 H205 H 0.33977 0.04012 -0.11371
 H206 H 0.26938 0.03530 -0.13504
 H207 H 0.14409 -0.06672 -0.08666
 C208 C -0.05331 0.74151 0.58692
 C209 C -0.02245 0.71870 0.58004
 C210 C 0.00776 0.73776 0.56099
 C211 C 0.00656 0.77906 0.54877
 C212 C -0.02507 0.80162 0.55547
 C213 C -0.05462 0.78267 0.57475
 C214 C -0.02210 0.67577 0.59262
 C215 C -0.02227 0.64012 0.60353
 C216 C -0.02236 0.59915 0.61672
 C217 C -0.02166 0.56519 0.62833
 H218 H -0.07655 0.72733 0.60169
 H219 H 0.03185 0.72040 0.55553
 H220 H 0.02929 0.79244 0.53393
 H221 H -0.07866 0.79980 0.58046
 C222 C 0.20626 0.31557 0.23824
 C223 C 0.25967 0.32520 0.23898
 C224 C 0.27797 0.29791 0.22682
 C225 C 0.24272 0.26014 0.21435
 C226 C 0.18850 0.24900 0.21390
 C227 C 0.17087 0.27779 0.22571
 C228 C 0.29501 0.36094 0.25288
 C229 C 0.32469 0.38966 0.26478
 C230 C 0.35917 0.42217 0.27900
 C231 C 0.38805 0.44931 0.29140
 H232 H 0.19162 0.33637 0.24764
 H233 H 0.31923 0.30511 0.22724
 H234 H 0.25772 0.23924 0.20519
 H235 H 0.12925 0.26974 0.22579
 C236 C 0.75751 -0.03468 -0.11038
 C237 C 0.75028 -0.04747 -0.08936
 C238 C 0.77950 -0.06927 -0.08031
 C239 C 0.81702 -0.07684 -0.09210
 C240 C 0.82648 -0.06249 -0.11335
 C241 C 0.79492 -0.04228 -0.12228
 C242 C 0.71425 -0.03674 -0.07692
 C243 C 0.68490 -0.02757 -0.06609
 C244 C 0.65111 -0.01724 -0.05292
 C245 C 0.62239 -0.00937 -0.04121
 H246 H 0.73518 -0.01756 -0.11755
 H247 H 0.77368 -0.08003 -0.06405
 H248 H 0.83758 -0.09503 -0.08437
 H249 H 0.80095 -0.02898 -0.13830
 C250 C 0.30434 0.07823 0.10077
 C251 C 0.28994 0.03353 0.08956
 C252 C 0.23535 -0.00907 0.09089
 C253 C 0.19512 -0.00656 0.10314
 C254 C 0.20905 0.03877 0.11414
 C255 C 0.26424 0.08085 0.11299
 C256 C 0.33085 0.03220 0.07622
 C257 C 0.36468 0.03113 0.06478
 C258 C 0.40337 0.02928 0.05109
 C259 C 0.43522 0.02651 0.03915
 H260 H 0.34648 0.11135 0.09989
 H261 H 0.22374 -0.04381 0.08223
 H262 H 0.15296 -0.03929 0.10355
 H263 H 0.27637 0.11588 0.12152
 C264 C 0.68364 0.77574 0.43874
 C265 C 0.69944 0.75300 0.42359
 C266 C 0.75388 0.76626 0.42062
 C267 C 0.79249 0.80159 0.43280
 C268 C 0.77781 0.82489 0.44859
 C269 C 0.72213 0.81131 0.45104
 C270 C 0.66038 0.71639 0.41083
 C271 C 0.62924 0.68593 0.39968
 C272 C 0.59431 0.65088 0.38611
 C273 C 0.56549 0.62184 0.37411
 H274 H 0.64134 0.76555 0.44121
 H275 H 0.76680 0.74963 0.40866
 H276 H 0.83427 0.81205 0.42883
 H277 H 0.70654 0.82531 0.46305
 C278 C -0.00888 0.16690 0.75215
 C279 C 0.02148 0.22231 0.75520
 C280 C 0.05827 0.23903 0.77015
 C281 C 0.06447 0.20038 0.78206
 C282 C 0.03402 0.14452 0.77910
 C283 C -0.00274 0.12828 0.76400
 C284 C 0.01490 0.26169 0.74281
 C285 C 0.00901 0.29382 0.73206
 C286 C 0.00230 0.33081 0.71901
 C287 C -0.00267 0.36217 0.70746
 H288 H -0.03755 0.15347 0.74066
 H289 H 0.08214 0.28189 0.77259
 H290 H 0.09333 0.21418 0.79346
 H291 H -0.02759 0.08553 0.76159
 C292 C 0.80611 0.10050 0.10008
 C293 C 0.78962 0.06259 0.08563
 C294 C 0.81591 0.03259 0.08291
 C295 C 0.85836 0.04021 0.09458
 C296 C 0.87534 0.07813 0.10917
 C297 C 0.84866 0.10818 0.11183
 C298 C 0.74609 0.05439 0.07338
 C299 C 0.71023 0.04689 0.06271
 C300 C 0.66917 0.03800 0.04974
 C301 C 0.63515 0.03097 0.03822
 H302 H 0.78612 0.12408 0.10227
 H303 H 0.80341 0.00305 0.07180
 H304 H 0.87720 0.01559 0.09244
 H305 H 0.86100 0.13787 0.12285
 C306 C 0.23881 0.23036 0.43933
 C307 C 0.22358 0.25454 0.42390
 C308 C 0.16833 0.23179 0.42061
 C309 C 0.12844 0.18499 0.43260
 C310 C 0.14322 0.16006 0.44807
 C311 C 0.19887 0.18345 0.45140
 C312 C 0.26442 0.30180 0.41101
 C313 C 0.29796 0.34066 0.39976
 C314 C 0.33685 0.38507 0.38607
 C315 C 0.37012 0.42178 0.37398
 H316 H 0.28153 0.24751 0.44195
 H317 H 0.15606 0.25019 0.40872
 H318 H 0.08589 0.16865 0.42991
 H319 H 0.21153 0.16501 0.46311
 C320 C 0.03869 0.72047 0.77175
 C321 C -0.00547 0.69264 0.76021
 C322 C -0.04877 0.70315 0.76127
 C323 C -0.04749 0.74204 0.77357
 C324 C -0.00269 0.77108 0.78489
 C325 C 0.04008 0.75937 0.78402
 C326 C -0.00537 0.65477 0.74674
 C327 C -0.00511 0.62375 0.73517
 C328 C -0.00522 0.58796 0.72127
 C329 C -0.00629 0.55764 0.70911
 H330 H 0.07236 0.71258 0.77108
 H331 H -0.08308 0.68194 0.75234
 H332 H -0.08073 0.75053 0.77376
 H333 H 0.07473 0.78044 0.79279
   
