data_POSCAR
  _audit_creation_date              2014-09-24
  _audit_creation_method            'ToBaCCo'
  _symmetry_space_group_name_H-M    'P1'
  _symmetry_Int_Tables_number       1
  _symmetry_cell_setting            triclinic
  loop_
  _symmetry_equiv_pos_as_xyz
 x,y,z
_cell_length_a 40.5251
_cell_length_b 40.9047
_cell_length_c 23.0978
_cell_angle_alpha 89.976700
_cell_angle_beta 89.944100
_cell_angle_gamma 120.276400
loop_
  _atom_site_label
  _atom_site_type_symbol
  _atom_site_fract_x
  _atom_site_fract_y
  _atom_site_fract_z
C1 C 0.45973 0.88427 0.52867
 C2 C 0.45883 0.88426 0.46930
 C3 C 0.46832 0.92052 0.45253
 N4 N 0.47491 0.94260 0.49952
 C5 C 0.46997 0.92061 0.54607
 C6 C 0.46856 0.93201 0.39485
 C7 C 0.48091 0.96978 0.37841
 C8 C 0.47543 0.98049 0.32403
 C9 C 0.49400 1.01932 0.32364
 C10 C 0.51013 1.03154 0.37817
 N11 N 0.50212 1.00099 0.41104
 C12 C 0.53533 1.06987 0.39402
 C13 C 0.54713 1.08142 0.45199
 C14 C 0.57432 1.11778 0.46888
 C15 C 0.57528 1.11781 0.52810
 C16 C 0.54797 1.08176 0.54602
 N17 N 0.53083 1.05958 0.49939
 C18 C 0.53868 1.07023 0.60464
 C19 C 0.51513 1.03170 0.62103
 C20 C 0.49742 1.01963 0.67460
 C21 C 0.47876 0.98083 0.67452
 C22 C 0.48483 0.97000 0.62056
 N23 N 0.50718 1.00116 0.58822
 C24 C 0.47154 0.93210 0.60399
 H25 H 0.45307 0.86016 0.55586
 H26 H 0.45149 0.86017 0.44170
 H27 H 0.51969 1.00166 0.54868
 H28 H 0.46042 0.96227 0.28776
 H29 H 0.49628 1.03633 0.28637
 H30 H 0.59154 1.14212 0.44175
 H31 H 0.59399 1.14182 0.55480
 H32 H 0.46251 0.96273 0.71027
 H33 H 0.51458 1.00156 0.45052
 H34 H 0.49782 1.03698 0.71027
 C35 C -0.11820 0.43166 0.47131
 C36 C -0.11822 0.43256 0.53053
 C37 C -0.08173 0.46002 0.54746
 N38 N -0.05981 0.47655 0.50008
 C39 C -0.08203 0.45926 0.45342
 C40 C -0.07020 0.47168 0.60549
 C41 C -0.03165 0.49722 0.62134
 C42 C -0.01951 0.51318 0.67592
 C43 C 0.01971 0.53206 0.67555
 C44 C 0.03073 0.52692 0.62114
 N45 N -0.00067 0.50567 0.58843
 C46 C 0.06894 0.53948 0.60480
 C47 C 0.08067 0.53994 0.54712
 C48 C 0.11732 0.54950 0.53039
 C49 C 0.11735 0.54862 0.47102
 C50 C 0.08065 0.53832 0.45359
 N51 N 0.05840 0.53336 0.50011
 C52 C 0.06902 0.53657 0.39565
 C53 C 0.03073 0.52315 0.37912
 C54 C 0.01968 0.52898 0.32515
 C55 C -0.01951 0.51007 0.32502
 C56 C -0.03155 0.49247 0.37858
 N57 N -0.00065 0.50075 0.41143
 C58 C -0.07038 0.46855 0.39481
 H59 H -0.14225 0.41274 0.44460
 H60 H -0.14267 0.41509 0.55765
 H61 H -0.00100 0.48838 0.45091
 H62 H -0.03678 0.51058 0.71324
 H63 H 0.03799 0.54700 0.71189
 H64 H 0.14163 0.55680 0.55801
 H65 H 0.14173 0.55526 0.44384
 H66 H -0.03713 0.50936 0.28931
 H67 H -0.00103 0.49342 0.54895
 H68 H 0.03788 0.54519 0.28941
 C69 C 0.56180 0.44422 0.47019
 C70 C 0.56298 0.44500 0.52945
 C71 C 0.53634 0.45461 0.54788
 N72 N 0.51913 0.45996 0.50165
 C73 C 0.53486 0.45384 0.45417
 C74 C 0.52833 0.45826 0.60654
 C75 C 0.50554 0.47407 0.62301
 C76 C 0.48874 0.46943 0.67703
 C77 C 0.47093 0.49039 0.67711
 C78 C 0.47668 0.50700 0.62276
 N79 N 0.49802 0.49697 0.59015
 C80 C 0.46531 0.53343 0.60667
 C81 C 0.46564 0.54497 0.54874
 C82 C 0.45633 0.57182 0.53132
 C83 C 0.45583 0.57141 0.47195
 C84 C 0.46470 0.54427 0.45491
 N85 N 0.47038 0.52801 0.50186
 C86 C 0.46422 0.53274 0.39713
 C87 C 0.47510 0.50620 0.38051
 C88 C 0.46919 0.48994 0.32598
 C89 C 0.48601 0.46799 0.32596
 C90 C 0.50190 0.47153 0.38034
 N91 N 0.49523 0.49492 0.41326
 C92 C 0.52464 0.45585 0.39642
 H93 H 0.57923 0.43788 0.44208
 H94 H 0.58183 0.43966 0.55583
 H95 H 0.50781 0.50613 0.45295
 H96 H 0.48948 0.45286 0.71303
 H97 H 0.45607 0.49345 0.71374
 H98 H 0.44943 0.58913 0.55840
 H99 H 0.44870 0.58844 0.44460
 H100 H 0.48704 0.45183 0.28962
 H101 H 0.51064 0.50862 0.55055
 H102 H 0.45486 0.49391 0.28949
 O103 O 0.39293 0.65849 -0.04958
 O104 O 0.39224 0.72101 -0.06695
 C105 C 0.37449 0.73838 -0.07803
 O106 O 0.34550 0.73327 -0.04924
 O107 O 0.28236 0.66969 -0.06670
 C108 C 0.26442 0.63455 -0.07757
 O109 O 0.26930 0.61082 -0.04873
 O110 O 0.33341 0.61180 -0.06642
 C111 C 0.36883 0.62955 -0.07789
 O112 O 0.39167 0.66883 0.06576
 O113 O 0.39406 0.73304 0.04818
 C114 C 0.37045 0.73841 0.07705
 O115 O 0.33499 0.72123 0.06612
 O116 O 0.27013 0.65942 0.04868
 C117 C 0.26443 0.63050 0.07745
 O118 O 0.28144 0.61240 0.06635
 O119 O 0.34375 0.61030 0.04876
 C120 C 0.37308 0.63375 0.07724
 Cr121 Cr 0.39060 0.69428 -0.00061
 Cr122 Cr 0.30928 0.69485 -0.00029
 Cr123 Cr 0.30808 0.61344 -0.00006
 O124 O 0.33600 0.66752 -0.00034
 O125 O 0.60707 0.33906 -0.05057
 O126 O 0.61107 0.27868 -0.06873
 C127 C 0.62936 0.26168 -0.07827
 O128 O 0.65779 0.26706 -0.04788
 O129 O 0.71941 0.33246 -0.06695
 C130 C 0.73660 0.36779 -0.07681
 O131 O 0.73102 0.39067 -0.04669
 O132 O 0.66602 0.38781 -0.06550
 C133 C 0.63079 0.36878 -0.07778
 O134 O 0.60751 0.32797 0.06502
 O135 O 0.60854 0.26558 0.04673
 C136 C 0.63268 0.26167 0.07677
 O137 O 0.66831 0.28022 0.06670
 O138 O 0.73229 0.34354 0.04755
 C139 C 0.73595 0.37103 0.07803
 O140 O 0.71687 0.38725 0.06864
 O141 O 0.65372 0.38741 0.04887
 C142 C 0.62452 0.36301 0.07670
 Cr143 Cr 0.61056 0.30387 -0.00179
 Cr144 Cr 0.69337 0.30679 -0.00015
 Cr145 Cr 0.69099 0.38626 0.00127
 O146 O 0.66490 0.33234 -0.00034
 C147 C 0.42945 0.84805 -0.26270
 C148 C 0.46690 0.86257 -0.28342
 C149 C 0.48051 0.89006 -0.32724
 C150 C 0.45677 0.90263 -0.35035
 C151 C 0.41918 0.88750 -0.32987
 C152 C 0.40541 0.86033 -0.28559
 C153 C 0.41522 0.81964 -0.21588
 C154 C 0.37804 0.80565 -0.19443
 C155 C 0.36486 0.77909 -0.14926
 C156 C 0.38846 0.76625 -0.12595
 C157 C 0.42554 0.78031 -0.14854
 C158 C 0.43915 0.80721 -0.19323
 C159 C 0.36826 0.84539 -0.26341
 C160 C 0.35484 0.81858 -0.21848
 C161 C 0.48999 0.84941 -0.25970
 C162 C 0.47630 0.82211 -0.21548
 H163 H 0.34947 0.85465 -0.28069
 H164 H 0.32606 0.80792 -0.20241
 H165 H 0.51888 0.86033 -0.27540
 H166 H 0.49504 0.81275 -0.19834
 H167 H 0.50943 0.90179 -0.34342
 H168 H 0.40104 0.89734 -0.34798
 H169 H 0.33619 0.76825 -0.13255
 H170 H 0.44400 0.77075 -0.13083
 C171 C 0.15319 0.57999 -0.26126
 C172 C 0.12765 0.54091 -0.26670
 C173 C 0.10016 0.52784 -0.31077
 C174 C 0.09840 0.55358 -0.34917
 C175 C 0.12423 0.59260 -0.34349
 C176 C 0.15171 0.60602 -0.29936
 C177 C 0.18191 0.59393 -0.21461
 C178 C 0.20714 0.63300 -0.20873
 C179 C 0.23412 0.64614 -0.16389
 C180 C 0.23611 0.62048 -0.12524
 C181 C 0.21072 0.58133 -0.13220
 C182 C 0.18345 0.56792 -0.17664
 C183 C 0.17760 0.64488 -0.29232
 C184 C 0.20482 0.65815 -0.24772
 C185 C 0.13008 0.51577 -0.22789
 C186 C 0.15756 0.52904 -0.18368
 H187 H 0.17674 0.66522 -0.32142
 H188 H 0.22418 0.68837 -0.24368
 H189 H 0.11057 0.48557 -0.23169
 H190 H 0.15845 0.50869 -0.15463
 H191 H 0.08013 0.49779 -0.31543
 H192 H 0.12262 0.61228 -0.37318
 H193 H 0.25359 0.67631 -0.15924
 H194 H 0.21186 0.56129 -0.10272
 C195 C 0.42375 0.57476 -0.26249
 C196 C 0.45988 0.59885 -0.28683
 C197 C 0.47337 0.58512 -0.33105
 C198 C 0.45122 0.54741 -0.35008
 C199 C 0.41495 0.52370 -0.32549
 C200 C 0.40103 0.53729 -0.28173
 C201 C 0.40953 0.58895 -0.21566
 C202 C 0.37332 0.56494 -0.19162
 C203 C 0.35998 0.57851 -0.14697
 C204 C 0.38282 0.61564 -0.12576
 C205 C 0.41913 0.63931 -0.15039
 C206 C 0.43253 0.62617 -0.19560
 C207 C 0.36494 0.51413 -0.25664
 C208 C 0.35127 0.52776 -0.21245
 C209 C 0.48188 0.63605 -0.26604
 C210 C 0.46849 0.64944 -0.22107
 H211 H 0.34713 0.48520 -0.27121
 H212 H 0.32329 0.50896 -0.19423
 H213 H 0.50980 0.65490 -0.28443
 H214 H 0.48646 0.67824 -0.20609
 H215 H 0.50130 0.60338 -0.35000
 H216 H 0.39771 0.49478 -0.34058
 H217 H 0.33208 0.56000 -0.12820
 H218 H 0.43682 0.66801 -0.13471
 C219 C 0.57857 0.15236 -0.26258
 C220 C 0.58515 0.12187 -0.25875
 C221 C 0.57181 0.09470 -0.30291
 C222 C 0.55256 0.09816 -0.35136
 C223 C 0.54667 0.12933 -0.35465
 C224 C 0.55929 0.15627 -0.31015
 C225 C 0.59188 0.18060 -0.21562
 C226 C 0.58436 0.21052 -0.21861
 C227 C 0.59648 0.23690 -0.17332
 C228 C 0.61662 0.23385 -0.12590
 C229 C 0.62438 0.20395 -0.12403
 C230 C 0.61169 0.17699 -0.16849
 C231 C 0.55268 0.18684 -0.31193
 C232 C 0.56485 0.21342 -0.26681
 C233 C 0.60494 0.11913 -0.21081
 C234 C 0.61815 0.14634 -0.16657
 H235 H 0.53776 0.19013 -0.34834
 H236 H 0.55897 0.23644 -0.26971
 H237 H 0.61029 0.09579 -0.20747
 H238 H 0.63334 0.14321 -0.13038
 H239 H 0.57694 0.07116 -0.30021
 H240 H 0.53121 0.13190 -0.39101
 H241 H 0.59068 0.26002 -0.17525
 H242 H 0.63963 0.20128 -0.08749
 C243 C 0.84713 0.42763 -0.26187
 C244 C 0.86460 0.46623 -0.27600
 C245 C 0.89184 0.48073 -0.32056
 C246 C 0.90181 0.45694 -0.35055
 C247 C 0.88385 0.41825 -0.33592
 C248 C 0.85645 0.40344 -0.29165
 C249 C 0.81865 0.41227 -0.21479
 C250 C 0.80122 0.37370 -0.20063
 C251 C 0.77430 0.35927 -0.15565
 C252 C 0.76487 0.38316 -0.12465
 C253 C 0.78266 0.42182 -0.13964
 C254 C 0.80953 0.43650 -0.18470
 C255 C 0.83835 0.36498 -0.27631
 C256 C 0.81116 0.35035 -0.23161
 C257 C 0.85458 0.48954 -0.24512
 C258 C 0.82753 0.47494 -0.20020
 H259 H 0.84529 0.34604 -0.29899
 H260 H 0.79790 0.32054 -0.22110
 H261 H 0.86785 0.51936 -0.25562
 H262 H 0.82071 0.49392 -0.17736
 H263 H 0.90530 0.51045 -0.33207
 H264 H 0.89162 0.39989 -0.35863
 H265 H 0.76089 0.32950 -0.14464
 H266 H 0.77562 0.44051 -0.11636
 C267 C 0.57265 0.42040 -0.26091
 C268 C 0.58025 0.45788 -0.26032
 C269 C 0.56497 0.47007 -0.30402
 C270 C 0.54330 0.44546 -0.34934
 C271 C 0.53649 0.40805 -0.34964
 C272 C 0.55060 0.39522 -0.30501
 C273 C 0.58794 0.40721 -0.21425
 C274 C 0.57903 0.36927 -0.21346
 C275 C 0.59285 0.35667 -0.16813
 C276 C 0.61641 0.38209 -0.12519
 C277 C 0.62579 0.42017 -0.12721
 C278 C 0.61102 0.43276 -0.17116
 C279 C 0.54282 0.35764 -0.30327
 C280 C 0.55653 0.34480 -0.25800
 C281 C 0.60311 0.48249 -0.21615
 C282 C 0.61851 0.47023 -0.17260
 H283 H 0.52573 0.33790 -0.33693
 H284 H 0.54962 0.31552 -0.25802
 H285 H 0.60930 0.51153 -0.21541
 H286 H 0.63614 0.49015 -0.13949
 H287 H 0.57073 0.49900 -0.30376
 H288 H 0.51926 0.38869 -0.38366
 H289 H 0.58588 0.32737 -0.16661
 H290 H 0.64371 0.43961 -0.09375
 C291 C 0.84687 0.42638 0.26178
 C292 C 0.84210 0.44518 0.30904
 C293 C 0.86931 0.45867 0.35357
 C294 C 0.90155 0.45406 0.35064
 C295 C 0.90586 0.43531 0.30244
 C296 C 0.87848 0.42114 0.25825
 C297 C 0.81830 0.41205 0.21489
 C298 C 0.82277 0.39269 0.16812
 C299 C 0.79545 0.37895 0.12381
 C300 C 0.76426 0.38513 0.12546
 C301 C 0.76038 0.40488 0.17248
 C302 C 0.78717 0.41811 0.21763
 C303 C 0.88207 0.40180 0.21063
 C304 C 0.85458 0.38765 0.16645
 C305 C 0.81039 0.45040 0.31053
 C306 C 0.78347 0.43723 0.26548
 H307 H 0.90629 0.39750 0.20751
 H308 H 0.85837 0.37282 0.13053
 H309 H 0.80643 0.46494 0.34670
 H310 H 0.75953 0.44200 0.26820
 H311 H 0.86605 0.47374 0.38971
 H312 H 0.93023 0.43114 0.30001
 H313 H 0.79879 0.36401 0.08758
 H314 H 0.73631 0.40952 0.17425
 C315 C 0.57676 0.15212 0.26186
 C316 C 0.53787 0.13381 0.27679
 C317 C 0.52426 0.10671 0.32117
 C318 C 0.54922 0.09770 0.35021
 C319 C 0.58820 0.11650 0.33483
 C320 C 0.60213 0.14377 0.29069
 C321 C 0.59117 0.18044 0.21489
 C322 C 0.63003 0.19869 0.19987
 C323 C 0.64353 0.22541 0.15490
 C324 C 0.61842 0.23377 0.12478
 C325 C 0.57950 0.21520 0.14069
 C326 C 0.56575 0.18855 0.18573
 C327 C 0.64084 0.16270 0.27455
 C328 C 0.65457 0.18973 0.22994
 C329 C 0.51336 0.14287 0.24687
 C330 C 0.52706 0.16976 0.20207
 H331 H 0.66069 0.15652 0.29650
 H332 H 0.68462 0.20363 0.21878
 H333 H 0.48331 0.12896 0.25802
 H334 H 0.50718 0.17582 0.17995
 H335 H 0.49432 0.09259 0.33328
 H336 H 0.60747 0.10948 0.35683
 H337 H 0.67351 0.23944 0.14315
 H338 H 0.55988 0.22145 0.11813
 C339 C 0.56726 0.41584 0.26090
 C340 C 0.53941 0.38960 0.29896
 C341 C 0.52561 0.40278 0.34360
 C342 C 0.53942 0.44177 0.34974
 C343 C 0.56726 0.46768 0.31134
 C344 C 0.58140 0.45487 0.26683
 C345 C 0.58188 0.40221 0.21386
 C346 C 0.60986 0.42848 0.17610
 C347 C 0.62373 0.41543 0.13152
 C348 C 0.60963 0.37637 0.12417
 C349 C 0.58143 0.35038 0.16244
 C350 C 0.56756 0.36319 0.20751
 C351 C 0.60934 0.48027 0.22812
 C352 C 0.62339 0.46730 0.18357
 C353 C 0.52589 0.35079 0.29141
 C354 C 0.53968 0.33780 0.24641
 H355 H 0.62047 0.51043 0.23231
 H356 H 0.64497 0.48783 0.15465
 H357 H 0.50440 0.33027 0.32045
 H358 H 0.52843 0.30763 0.24205
 H359 H 0.50409 0.38294 0.37332
 H360 H 0.57783 0.49772 0.31639
 H361 H 0.64531 0.43574 0.10233
 H362 H 0.57048 0.32029 0.15744
 C363 C 0.15372 0.57736 0.26214
 C364 C 0.14153 0.60142 0.28472
 C365 C 0.11412 0.58809 0.32905
 C366 C 0.09870 0.55092 0.34989
 C367 C 0.11117 0.52715 0.32707
 C368 C 0.13888 0.54031 0.28320
 C369 C 0.18237 0.59113 0.21528
 C370 C 0.19470 0.56716 0.19295
 C371 C 0.22184 0.58033 0.14825
 C372 C 0.23627 0.61702 0.12535
 C373 C 0.22353 0.64067 0.14835
 C374 C 0.19671 0.62792 0.19351
 C375 C 0.15194 0.51718 0.25977
 C376 C 0.17946 0.53042 0.21551
 C377 C 0.15681 0.63817 0.26220
 C378 C 0.18387 0.65116 0.21726
 H379 H 0.14076 0.48859 0.27574
 H380 H 0.18875 0.51165 0.19861
 H381 H 0.14763 0.65698 0.27924
 H382 H 0.19479 0.67963 0.20094
 H383 H 0.10435 0.60625 0.34693
 H384 H 0.09921 0.49855 0.34353
 H385 H 0.23131 0.56183 0.13079
 H386 H 0.23464 0.66904 0.13139
 C387 C 0.42684 0.84838 0.26110
 C388 C 0.46636 0.87336 0.26645
 C389 C 0.47985 0.90062 0.31051
 C390 C 0.45409 0.90270 0.34898
 C391 C 0.41464 0.87742 0.34343
 C392 C 0.40080 0.85019 0.29930
 C393 C 0.41245 0.81995 0.21439
 C394 C 0.37294 0.79533 0.20857
 C395 C 0.35937 0.76866 0.16365
 C396 C 0.38503 0.76637 0.12484
 C397 C 0.42463 0.79113 0.13175
 C398 C 0.43847 0.81810 0.17628
 C399 C 0.36148 0.82488 0.29234
 C400 C 0.34778 0.79795 0.24769
 C401 C 0.49151 0.87062 0.22751
 C402 C 0.47780 0.84341 0.18326
 H403 H 0.34112 0.82600 0.32152
 H404 H 0.31723 0.77905 0.24369
 H405 H 0.52204 0.88970 0.23124
 H406 H 0.49817 0.84227 0.15411
 H407 H 0.51024 0.92025 0.31506
 H408 H 0.39493 0.87929 0.37316
 H409 H 0.32886 0.74966 0.15904
 H410 H 0.44466 0.78975 0.10215
 C411 C 0.42464 0.57678 0.26330
 C412 C 0.46198 0.59906 0.28466
 C413 C 0.47472 0.58455 0.32878
 C414 C 0.45026 0.54829 0.35153
 C415 C 0.41278 0.52652 0.33043
 C416 C 0.39987 0.54054 0.28586
 C417 C 0.41133 0.59155 0.21608
 C418 C 0.37427 0.56900 0.19400
 C419 C 0.36195 0.58294 0.14851
 C420 C 0.38628 0.61930 0.12543
 C421 C 0.42325 0.64168 0.14860
 C422 C 0.43600 0.62783 0.19368
 C423 C 0.36286 0.51898 0.26303
 C424 C 0.35031 0.53293 0.21777
 C425 C 0.48582 0.63523 0.26119
 C426 C 0.47301 0.64942 0.21658
 H427 H 0.34352 0.49099 0.28005
 H428 H 0.32163 0.51531 0.20118
 H429 H 0.51464 0.65270 0.27737
 H430 H 0.49232 0.67745 0.19966
 H431 H 0.50357 0.60120 0.34536
 H432 H 0.39408 0.49857 0.34821
 H433 H 0.33336 0.56558 0.13136
 H434 H 0.44227 0.66963 0.13110
   
