data_POSCAR
  _audit_creation_date              2014-09-24
  _audit_creation_method            'ToBaCCo'
  _symmetry_space_group_name_H-M    'P1'
  _symmetry_Int_Tables_number       1
  _symmetry_cell_setting            triclinic
  loop_
  _symmetry_equiv_pos_as_xyz
 x,y,z
_cell_length_a 55.6673
_cell_length_b 56.0169
_cell_length_c 56.3301
_cell_angle_alpha 89.963000
_cell_angle_beta 89.984700
_cell_angle_gamma 89.941500
loop_
  _atom_site_label
  _atom_site_type_symbol
  _atom_site_fract_x
  _atom_site_fract_y
  _atom_site_fract_z
C1 C 0.28629 0.37431 -0.00335
 C2 C 0.29269 0.36309 0.01783
 C3 C 0.31049 0.34541 0.01787
 C4 C 0.32304 0.33954 -0.00320
 C5 C 0.31664 0.35164 -0.02436
 C6 C 0.29797 0.36844 -0.02449
 C7 C 0.34251 0.32091 -0.00311
 C8 C 0.34897 0.30875 -0.02420
 C9 C 0.36744 0.29174 -0.02416
 C10 C 0.37888 0.28574 -0.00292
 C11 C 0.37241 0.29703 0.01820
 C12 C 0.35482 0.31492 0.01807
 H13 H 0.27212 0.38765 -0.00334
 H14 H 0.31416 0.33632 0.03441
 H15 H 0.32606 0.34830 -0.04082
 H16 H 0.33967 0.31213 -0.04072
 H17 H 0.39281 0.27216 -0.00277
 H18 H 0.35103 0.32401 0.03457
 C19 C 0.71354 0.62561 0.00376
 C20 C 0.70137 0.63190 0.02448
 C21 C 0.68276 0.64872 0.02363
 C22 C 0.67687 0.66046 0.00211
 C23 C 0.68997 0.65419 -0.01853
 C24 C 0.70770 0.63646 -0.01776
 C25 C 0.65734 0.67904 0.00119
 C26 C 0.64591 0.68496 -0.02050
 C27 C 0.62832 0.70285 -0.02143
 C28 C 0.62093 0.71416 -0.00060
 C29 C 0.63143 0.70820 0.02109
 C30 C 0.64991 0.69124 0.02196
 H31 H 0.72763 0.61222 0.00439
 H32 H 0.67301 0.65231 0.03983
 H33 H 0.68678 0.66299 -0.03532
 H34 H 0.65039 0.67579 -0.03679
 H35 H 0.60700 0.72774 -0.00123
 H36 H 0.65841 0.68797 0.03890
 C37 C 0.71366 0.38011 1.00325
 C38 C 0.70843 0.36926 0.98158
 C39 C 0.69185 0.35049 0.98058
 C40 C 0.67941 0.34304 1.00122
 C41 C 0.68455 0.35485 1.02286
 C42 C 0.70201 0.37277 1.02390
 C43 C 0.66140 0.32307 1.00030
 C44 C 0.65548 0.31002 1.02103
 C45 C 0.63809 0.29200 1.02040
 C46 C 0.62729 0.28584 0.99894
 C47 C 0.63330 0.29792 0.97813
 C48 C 0.64980 0.31678 0.97880
 H49 H 0.72693 0.39427 1.00405
 H50 H 0.68906 0.34177 0.96370
 H51 H 0.67513 0.35042 1.03905
 H52 H 0.66428 0.31357 1.03776
 H53 H 0.61406 0.27161 0.99840
 H54 H 0.65321 0.32646 0.96254
 C55 C 0.28410 0.62265 1.00125
 C56 C 0.29030 0.63382 0.98001
 C57 C 0.30744 0.65206 0.97990
 C58 C 0.31961 0.65856 1.00098
 C59 C 0.31336 0.64660 1.02227
 C60 C 0.29532 0.62918 1.02240
 C61 C 0.33860 0.67759 1.00067
 C62 C 0.34456 0.69040 1.02151
 C63 C 0.36254 0.70790 1.02111
 C64 C 0.37396 0.71363 0.99981
 C65 C 0.36804 0.70160 0.97898
 C66 C 0.35097 0.68330 0.97945
 H67 H 0.27048 0.60881 1.00133
 H68 H 0.31096 0.66105 0.96328
 H69 H 0.32242 0.65047 1.03880
 H70 H 0.33528 0.68712 1.03806
 H71 H 0.38754 0.72753 0.99940
 H72 H 0.34764 0.67365 0.96317
 C73 C -0.00464 0.28467 0.37764
 C74 C 0.01685 0.29578 0.37132
 C75 C 0.01685 0.31396 0.35421
 C76 C -0.00465 0.32048 0.34237
 C77 C -0.02605 0.30841 0.34865
 C78 C -0.02607 0.29112 0.36656
 C79 C -0.00485 0.33962 0.32363
 C80 C -0.02630 0.35201 0.31794
 C81 C -0.02666 0.36915 0.29982
 C82 C -0.00546 0.37509 0.28802
 C83 C 0.01602 0.36364 0.29377
 C84 C 0.01631 0.34565 0.31104
 H85 H -0.00468 0.27094 0.39124
 H86 H 0.03362 0.32291 0.35049
 H87 H -0.04283 0.31211 0.33973
 H88 H -0.04281 0.34861 0.32747
 H89 H -0.00563 0.38867 0.27425
 H90 H 0.03305 0.33641 0.31427
 C91 C 0.00558 0.71390 0.62128
 C92 C 0.02637 0.70169 0.62788
 C93 C 0.02533 0.68412 0.64554
 C94 C 0.00360 0.67941 0.65777
 C95 C -0.01712 0.69243 0.65109
 C96 C -0.01617 0.70913 0.63260
 C97 C 0.00264 0.66127 0.67743
 C98 C -0.01927 0.65024 0.68405
 C99 C -0.01999 0.63372 0.70276
 C100 C 0.00119 0.62716 0.71429
 C101 C 0.02301 0.63740 0.70773
 C102 C 0.02372 0.65475 0.68990
 H103 H 0.00635 0.72725 0.60733
 H104 H 0.04157 0.67429 0.64944
 H105 H -0.03404 0.69001 0.66019
 H106 H -0.03580 0.65415 0.67474
 H107 H 0.00076 0.61398 0.72843
 H108 H 0.04081 0.66305 0.68609
 C109 C 1.00738 0.71214 0.37539
 C110 C 0.98529 0.70658 0.36514
 C111 C 0.98392 0.68904 0.34749
 C112 C 1.00455 0.67587 0.34069
 C113 C 1.02666 0.68145 0.35184
 C114 C 1.02810 0.69989 0.36859
 C115 C 1.00305 0.65656 0.32217
 C116 C 1.02373 0.64902 0.30954
 C117 C 1.02232 0.63065 0.29271
 C118 C 1.00013 0.62043 0.28733
 C119 C 0.97941 0.62797 0.29906
 C120 C 0.98088 0.64542 0.31678
 H121 H 1.00840 0.72610 0.38871
 H122 H 0.96669 0.68605 0.33918
 H123 H 1.04285 0.67158 0.34783
 H124 H 1.04098 0.65736 0.31241
 H125 H 0.99892 0.60658 0.27390
 H126 H 0.96461 0.64998 0.32621
 C127 C 0.99654 0.28769 0.62458
 C128 C 0.97561 0.30002 0.63049
 C129 C 0.97640 0.31847 0.64725
 C130 C 0.99807 0.32403 0.65921
 C131 C 1.01892 0.31082 0.65330
 C132 C 1.01820 0.29321 0.63571
 C133 C 0.99893 0.34326 0.67778
 C134 C 1.02079 0.35480 0.68357
 C135 C 1.02162 0.37212 0.70150
 C136 C 1.00052 0.37903 0.71301
 C137 C 0.97869 0.36834 0.70719
 C138 C 0.97792 0.35020 0.69013
 H139 H 0.99597 0.27369 0.61127
 H140 H 0.96007 0.32833 0.65067
 H141 H 1.03578 0.31385 0.66231
 H142 H 1.03725 0.35058 0.67427
 H143 H 1.00106 0.39271 0.72664
 H144 H 0.96088 0.34155 0.68689
 C145 C 0.37535 0.00527 0.28492
 C146 C 0.36923 0.02622 0.29686
 C147 C 0.35260 0.02555 0.31553
 C148 C 0.34097 0.00394 0.32175
 C149 C 0.34699 -0.01691 0.30886
 C150 C 0.36451 -0.01632 0.29104
 C151 C 0.32273 0.00308 0.34142
 C152 C 0.31750 -0.01863 0.35323
 C153 C 0.29979 -0.01965 0.37084
 C154 C 0.28796 0.00114 0.37787
 C155 C 0.29328 0.02289 0.36700
 C156 C 0.31011 0.02383 0.34854
 H157 H 0.38862 0.00581 0.27079
 H158 H 0.34907 0.04191 0.32508
 H159 H 0.33813 -0.03372 0.31236
 H160 H 0.32702 -0.03491 0.34902
 H161 H 0.27448 0.00036 0.39177
 H162 H 0.31296 0.04077 0.33977
 C163 C 0.62415 -0.00302 0.71565
 C164 C 0.63513 0.01850 0.70960
 C165 C 0.65268 0.01904 0.69184
 C166 C 0.65859 -0.00178 0.67885
 C167 C 0.64687 -0.02335 0.68500
 C168 C 0.63019 -0.02400 0.70367
 C169 C 0.67674 -0.00085 0.65908
 C170 C 0.68917 -0.02161 0.65159
 C171 C 0.70596 -0.02048 0.63307
 C172 C 0.71138 0.00141 0.62254
 C173 C 0.69970 0.02214 0.62991
 C174 C 0.68205 0.02097 0.64753
 H175 H 0.61084 -0.00338 0.72974
 H176 H 0.66158 0.03584 0.68848
 H177 H 0.65036 -0.03967 0.67534
 H178 H 0.68625 -0.03865 0.66011
 H179 H 0.72484 0.00233 0.60863
 H180 H 0.67264 0.03725 0.65197
 C181 C 0.37613 0.99715 0.71438
 C182 C 0.36501 0.97589 0.70777
 C183 C 0.34733 0.97599 0.69012
 C184 C 0.34142 0.99729 0.67785
 C185 C 0.35333 1.01858 0.68457
 C186 C 0.37014 1.01850 0.70309
 C187 C 0.32311 0.99717 0.65821
 C188 C 0.31078 1.01827 0.65153
 C189 C 0.29393 1.01797 0.63301
 C190 C 0.28837 0.99651 0.62170
 C191 C 0.29993 0.97544 0.62829
 C192 C 0.31762 0.97582 0.64592
 H193 H 0.38954 0.99707 0.72836
 H194 H 0.33834 0.95936 0.68627
 H195 H 0.34993 1.03524 0.67550
 H196 H 0.31388 1.03494 0.66069
 H197 H 0.27492 0.99613 0.60775
 H198 H 0.32694 0.95933 0.64975
 C199 C 0.62452 1.00046 0.28391
 C200 C 0.63057 0.97912 0.29518
 C201 C 0.64739 0.97907 0.31366
 C202 C 0.65923 1.00038 0.32038
 C203 C 0.65324 1.02170 0.30823
 C204 C 0.63557 1.02177 0.29055
 C205 C 0.67762 1.00044 0.33986
 C206 C 0.68274 1.02158 0.35264
 C207 C 0.70048 1.02180 0.37023
 C208 C 0.71250 1.00080 0.37615
 C209 C 0.70734 0.97960 0.36425
 C210 C 0.69042 0.97944 0.34586
 H211 H 0.61110 1.00045 0.26992
 H212 H 0.65089 0.96240 0.32271
 H213 H 0.66225 1.03832 0.31222
 H214 H 0.67307 1.03797 0.34922
 H215 H 0.72600 1.00096 0.39005
 H216 H 0.68763 0.96295 0.33630
 O217 O 0.82755 0.86009 0.52034
 O218 O 0.86179 0.82706 0.47530
 O219 O 0.82827 0.85927 0.47423
 O220 O 0.86100 0.82779 0.52135
 O221 O 0.83359 0.79939 0.52146
 O222 O 0.80051 0.83120 0.47425
 O223 O 0.83432 0.79871 0.47521
 O224 O 0.79987 0.83195 0.52054
 Cu225 Cu 0.84738 0.84637 0.49780
 Cu226 Cu 0.81429 0.81247 0.49787
 C227 C 0.80784 0.85179 0.52814
 C228 C 0.85405 0.80720 0.46759
 C229 C 0.80876 0.85075 0.46622
 C230 C 0.85304 0.80815 0.52941
 O231 O 0.14178 0.17787 0.48098
 O232 O 0.17523 0.14234 0.52476
 O233 O 0.14249 0.17519 0.52687
 O234 O 0.17426 0.14449 0.47871
 O235 O 0.20281 0.17174 0.47955
 O236 O 0.17054 0.20296 0.52777
 O237 O 0.20359 0.16977 0.52582
 O238 O 0.17000 0.20546 0.48170
 Cu239 Cu 0.15565 0.15722 0.50269
 Cu240 Cu 0.18962 0.19023 0.50375
 C241 C 0.14994 0.19786 0.47404
 C242 C 0.19512 0.14991 0.53282
 C243 C 0.15087 0.19440 0.53546
 C244 C 0.19406 0.15263 0.47100
 O245 O 0.18994 0.84487 0.47387
 O246 O 0.15723 0.81123 0.51929
 O247 O 0.18977 0.84442 0.51969
 O248 O 0.15773 0.81131 0.47340
 O249 O 0.18607 0.78376 0.47332
 O250 O 0.21846 0.81722 0.51991
 O251 O 0.18544 0.78355 0.51943
 O252 O 0.21878 0.81783 0.47388
 Cu253 Cu 0.17083 0.83065 0.49654
 Cu254 Cu 0.20507 0.79781 0.49663
 C255 C 0.21012 0.83747 0.46639
 C256 C 0.16543 0.79152 0.52693
 C257 C 0.20975 0.83678 0.52749
 C258 C 0.16613 0.79172 0.46567
 O259 O 0.81135 0.15052 0.48146
 O260 O 0.84540 0.18578 0.52470
 O261 O 0.81208 0.15333 0.52717
 O262 O 0.84496 0.18231 0.47883
 O263 O 0.81769 0.21087 0.47721
 O264 O 0.78401 0.18112 0.52549
 O265 O 0.81788 0.21409 0.52340
 O266 O 0.78368 0.17869 0.47959
 Cu267 Cu 0.83122 0.16522 0.50326
 Cu268 Cu 0.79807 0.19911 0.50135
 C269 C 0.79161 0.15838 0.47325
 C270 C 0.83770 0.20607 0.53129
 C271 C 0.79217 0.16180 0.53423
 C272 C 0.83713 0.20155 0.46978
 O273 O 0.47604 0.84778 0.81923
 O274 O 0.52433 0.81511 0.84922
 O275 O 0.52253 0.84814 0.81671
 O276 O 0.47801 0.81432 0.85098
 O277 O 0.47683 0.78677 0.82303
 O278 O 0.52183 0.82074 0.78863
 O279 O 0.52332 0.78721 0.82161
 O280 O 0.47505 0.82063 0.79091
 Cu281 Cu 0.50038 0.83409 0.83678
 Cu282 Cu 0.49923 0.80111 0.80316
 C283 C 0.46733 0.83999 0.79992
 C284 C 0.53172 0.79534 0.84099
 C285 C 0.52963 0.84045 0.79670
 C286 C 0.46997 0.79466 0.84308
 O287 O 0.52561 0.17987 0.14543
 O288 O 0.47875 0.14990 0.18019
 O289 O 0.47917 0.18215 0.14676
 O290 O 0.52521 0.14776 0.17831
 O291 O 0.52757 0.17578 0.20571
 O292 O 0.48140 0.21067 0.17363
 O293 O 0.48089 0.17798 0.20753
 O294 O 0.52804 0.20821 0.17249
 Cu295 Cu 0.50183 0.16211 0.15999
 Cu296 Cu 0.50457 0.19602 0.19260
 C297 C 0.53488 0.19914 0.15295
 C298 C 0.47207 0.15849 0.19998
 C299 C 0.47272 0.20247 0.15442
 C300 C 0.53432 0.15578 0.19735
 O301 O 0.52646 0.14694 0.82263
 O302 O 0.47654 0.17765 0.85191
 O303 O 0.48010 0.14510 0.81926
 O304 O 0.52294 0.18079 0.85396
 O305 O 0.52345 0.20811 0.82575
 O306 O 0.47991 0.17265 0.79127
 O307 O 0.47680 0.20560 0.82431
 O308 O 0.52653 0.17386 0.79404
 Cu309 Cu 0.50149 0.15991 0.83973
 Cu310 Cu 0.50169 0.19283 0.80601
 C311 C 0.53485 0.15480 0.80320
 C312 C 0.46829 0.19698 0.84345
 C313 C 0.47279 0.15265 0.79924
 C314 C 0.53043 0.20064 0.84590
 O315 O 0.47283 0.82532 0.14321
 O316 O 0.51855 0.85725 0.17783
 O317 O 0.51949 0.82534 0.14431
 O318 O 0.47212 0.85801 0.17566
 O319 O 0.47095 0.83015 0.20334
 O320 O 0.51836 0.79682 0.17128
 O321 O 0.51758 0.82905 0.20516
 O322 O 0.47149 0.79714 0.17054
 Cu323 Cu 0.49592 0.84425 0.15751
 Cu324 Cu 0.49452 0.81041 0.19031
 C325 C 0.46428 0.80578 0.15093
 C326 C 0.52569 0.84882 0.19755
 C327 C 0.52694 0.80544 0.15218
 C328 C 0.46352 0.84990 0.19491
 O329 O 0.82508 0.48265 0.85737
 O330 O 0.85715 0.52729 0.82161
 O331 O 0.82574 0.52897 0.85584
 O332 O 0.85697 0.48111 0.82395
 O333 O 0.82819 0.48027 0.79705
 O334 O 0.79640 0.52818 0.82956
 O335 O 0.82815 0.52664 0.79495
 O336 O 0.79601 0.48165 0.83080
 Cu337 Cu 0.84411 0.50516 0.84235
 Cu338 Cu 0.80923 0.50418 0.81043
 C339 C 0.80508 0.47446 0.85023
 C340 C 0.84837 0.53438 0.80202
 C341 C 0.80562 0.53660 0.84843
 C342 C 0.84812 0.47256 0.80502
 O343 O 0.17544 0.47085 0.14349
 O344 O 0.14390 0.51828 0.17576
 O345 O 0.17776 0.51701 0.14396
 O346 O 0.14239 0.47194 0.17589
 O347 O 0.16994 0.47052 0.20398
 O348 O 0.20541 0.51593 0.17198
 O349 O 0.17120 0.51708 0.20410
 O350 O 0.20334 0.46958 0.17127
 Cu351 Cu 0.15711 0.49468 0.15701
 Cu352 Cu 0.19023 0.49318 0.19069
 C353 C 0.19485 0.46221 0.15163
 C354 C 0.15192 0.52571 0.19550
 C355 C 0.19775 0.52401 0.15230
 C356 C 0.15005 0.46351 0.19541
 O357 O 0.84528 0.47843 0.18878
 O358 O 0.81275 0.52464 0.15569
 O359 O 0.84552 0.52455 0.18857
 O360 O 0.81257 0.47853 0.15586
 O361 O 0.78404 0.47872 0.18304
 O362 O 0.81756 0.52484 0.21633
 O363 O 0.78431 0.52505 0.18296
 O364 O 0.81721 0.47851 0.21643
 Cu365 Cu 0.83183 0.50152 0.16951
 Cu366 Cu 0.79792 0.50182 0.20247
 C367 C 0.83710 0.47078 0.20841
 C368 C 0.79280 0.53250 0.16335
 C369 C 0.83751 0.53231 0.20821
 C370 C 0.79252 0.47100 0.16353
 O371 O 0.14905 0.47536 0.81702
 O372 O 0.17969 0.52109 0.85224
 O373 O 0.14744 0.52153 0.81940
 O374 O 0.18185 0.47499 0.85009
 O375 O 0.21036 0.47734 0.82299
 O376 O 0.17564 0.52417 0.79200
 O377 O 0.20821 0.52369 0.82517
 O378 O 0.17707 0.47781 0.78944
 Cu379 Cu 0.16170 0.49786 0.83739
 Cu380 Cu 0.19570 0.50085 0.80462
 C381 C 0.15745 0.46906 0.79703
 C382 C 0.19913 0.53028 0.84482
 C383 C 0.15560 0.53090 0.80052
 C384 C 0.20218 0.46850 0.84215
 C385 C 0.20998 0.41862 0.10259
 C386 C 0.23371 0.41258 0.10810
 C387 C 0.24432 0.42158 0.12878
 C388 C 0.23142 0.43710 0.14354
 C389 C 0.28113 0.37049 0.03948
 C390 C 0.19712 0.43415 0.11721
 C391 C 0.24756 0.39902 0.09125
 C392 C 0.25863 0.38877 0.07595
 C393 C 0.27102 0.37818 0.05679
 C394 C 0.20783 0.44393 0.13762
 H395 H 0.20163 0.41188 0.08656
 H396 H 0.26276 0.41717 0.13312
 H397 H 0.24016 0.44437 0.15911
 H398 H 0.17897 0.43896 0.11218
 C399 C 0.74134 0.56899 0.13797
 C400 C 0.75201 0.57826 0.11741
 C401 C 0.77632 0.57392 0.11289
 C402 C 0.78978 0.55976 0.12835
 C403 C 0.70885 0.62136 0.04662
 C404 C 0.75485 0.55485 0.15359
 C405 C 0.73803 0.59092 0.09994
 C406 C 0.72750 0.60097 0.08412
 C407 C 0.71668 0.61219 0.06438
 C408 C 0.77911 0.54971 0.14866
 H409 H 0.72250 0.57218 0.14160
 H410 H 0.78476 0.58096 0.09702
 H411 H 0.80841 0.55622 0.12406
 H412 H 0.74611 0.54729 0.16902
 C413 C 0.79015 0.43212 0.90056
 C414 C 0.76697 0.42476 0.89443
 C415 C 0.75651 0.43295 0.87334
 C416 C 0.76906 0.44877 0.85862
 C417 C 0.72006 0.37810 0.96051
 C418 C 0.80269 0.44794 0.88595
 C419 C 0.75350 0.41020 0.91075
 C420 C 0.74258 0.39893 0.92544
 C421 C 0.73022 0.38700 0.94381
 C422 C 0.79219 0.45667 0.86494
 H423 H 0.79837 0.42601 0.91691
 H424 H 0.73849 0.42749 0.86850
 H425 H 0.76048 0.45517 0.84258
 H426 H 0.82047 0.45360 0.89131
 C427 C 0.21197 0.57320 0.89501
 C428 C 0.23529 0.58069 0.88958
 C429 C 0.24648 0.57257 0.86882
 C430 C 0.23452 0.55660 0.85380
 C431 C 0.27939 0.62567 0.95835
 C432 C 0.20006 0.55723 0.88013
 C433 C 0.24816 0.59502 0.90648
 C434 C 0.25844 0.60596 0.92181
 C435 C 0.26994 0.61733 0.94101
 C436 C 0.21132 0.54847 0.85954
 H437 H 0.20321 0.57925 0.91111
 H438 H 0.26461 0.57812 0.86456
 H439 H 0.24366 0.55017 0.83808
 H440 H 0.18218 0.55142 0.88501
 C441 C 0.12754 0.25038 0.43743
 C442 C 0.10597 0.24123 0.42847
 C443 C 0.09944 0.21767 0.43353
 C444 C 0.11405 0.20343 0.44787
 C445 C 0.03874 0.28762 0.38233
 C446 C 0.14229 0.23610 0.45178
 C447 C 0.08970 0.25602 0.41504
 C448 C 0.07481 0.26731 0.40424
 C449 C 0.05598 0.27907 0.39214
 C450 C 0.13552 0.21254 0.45740
 H451 H 0.13274 0.26863 0.43369
 H452 H 0.08276 0.21040 0.42674
 H453 H 0.10831 0.18539 0.45179
 H454 H 0.15867 0.24366 0.45889
 C455 C 0.14060 0.73980 0.56299
 C456 C 0.11996 0.75024 0.57274
 C457 C 0.11521 0.77443 0.56876
 C458 C 0.13051 0.78799 0.55453
 C459 C 0.04881 0.70829 0.61697
 C460 C 0.15608 0.75343 0.54877
 C461 C 0.10259 0.73627 0.58560
 C462 C 0.08672 0.72593 0.59591
 C463 C 0.06679 0.71556 0.60748
 C464 C 0.15091 0.77757 0.54404
 H465 H 0.14441 0.72106 0.56589
 H466 H 0.09928 0.78270 0.57617
 H467 H 0.12604 0.80654 0.55133
 H468 H 0.17160 0.74489 0.54086
 C469 C 0.87647 0.75750 0.42741
 C470 C 0.89777 0.76747 0.41867
 C471 C 0.90415 0.79073 0.42512
 C472 C 0.88963 0.80381 0.44061
 C473 C 0.96413 0.71873 0.37359
 C474 C 0.86184 0.77060 0.44291
 C475 C 0.91412 0.75347 0.40456
 C476 C 0.92888 0.74213 0.39366
 C477 C 0.94735 0.72930 0.38215
 C478 C 0.86846 0.79379 0.44994
 H479 H 0.87144 0.73944 0.42267
 H480 H 0.92066 0.79859 0.41858
 H481 H 0.89523 0.82162 0.44559
 H482 H 0.84568 0.76238 0.44979
 C483 C 0.88846 0.22463 0.57189
 C484 C 0.88330 0.24877 0.57566
 C485 C 0.86241 0.25876 0.56598
 C486 C 0.84701 0.24471 0.55212
 C487 C 0.95334 0.29277 0.61966
 C488 C 0.87322 0.21063 0.55803
 C489 C 0.90040 0.26318 0.58839
 C490 C 0.91600 0.27397 0.59865
 C491 C 0.93559 0.28495 0.61019
 C492 C 0.85249 0.22057 0.54770
 H493 H 0.90459 0.21671 0.57925
 H494 H 0.85828 0.27746 0.56872
 H495 H 0.83123 0.25289 0.54435
 H496 H 0.87794 0.19212 0.55505
 C497 C 0.43566 0.13675 0.25276
 C498 C 0.42492 0.11627 0.24326
 C499 C 0.42837 0.11061 0.21932
 C500 C 0.44304 0.12485 0.20508
 C501 C 0.37991 0.04830 0.28908
 C502 C 0.45032 0.15114 0.23846
 C503 C 0.41170 0.09992 0.25805
 C504 C 0.40116 0.08486 0.26925
 C505 C 0.38941 0.06576 0.28079
 C506 C 0.45452 0.14506 0.21456
 H507 H 0.43320 0.14124 0.27130
 H508 H 0.42021 0.09478 0.21178
 H509 H 0.44583 0.11969 0.18676
 H510 H 0.45898 0.16654 0.24630
 C511 C 0.58058 0.10656 0.79038
 C512 C 0.58556 0.11061 0.76638
 C513 C 0.57542 0.13036 0.75484
 C514 C 0.55969 0.14554 0.76708
 C515 C 0.62746 0.04011 0.72119
 C516 C 0.56484 0.12158 0.80258
 C517 C 0.59903 0.09305 0.75331
 C518 C 0.60919 0.07722 0.74284
 C519 C 0.61972 0.05761 0.73103
 C520 C 0.55379 0.14093 0.79094
 H521 H 0.58820 0.09127 0.79946
 H522 H 0.57901 0.13356 0.73620
 H523 H 0.55142 0.16024 0.75763
 H524 H 0.56077 0.11760 0.82096
 C525 C 0.42234 0.88892 0.78692
 C526 C 0.41630 0.88412 0.76332
 C527 C 0.42575 0.86389 0.75206
 C528 C 0.44173 0.84889 0.76421
 C529 C 0.37273 0.95397 0.71875
 C530 C 0.43833 0.87407 0.79903
 C531 C 0.40230 0.90131 0.75028
 C532 C 0.39169 0.91690 0.73989
 C533 C 0.38072 0.93640 0.72828
 C534 C 0.44857 0.85414 0.78768
 H535 H 0.41526 0.90460 0.79577
 H536 H 0.42134 0.86011 0.73371
 H537 H 0.44934 0.83371 0.75498
 H538 H 0.44312 0.87857 0.81711
 C539 C 0.56354 0.86987 0.24952
 C540 C 0.57301 0.89113 0.24043
 C541 C 0.56802 0.89782 0.21702
 C542 C 0.55316 0.88369 0.20288
 C543 C 0.61957 0.95741 0.28695
 C544 C 0.54868 0.85561 0.23535
 C545 C 0.58668 0.90705 0.25521
 C546 C 0.59760 0.92170 0.26654
 C547 C 0.60975 0.94032 0.27834
 C548 C 0.54304 0.86259 0.21198
 H549 H 0.56721 0.86457 0.26766
 H550 H 0.57521 0.91428 0.20982
 H551 H 0.54924 0.88955 0.18497
 H552 H 0.54112 0.83949 0.24287
 C553 C 0.42782 0.24648 0.86620
 C554 C 0.41720 0.23531 0.88583
 C555 C 0.42186 0.21120 0.89033
 C556 C 0.43774 0.19851 0.87590
 C557 C 0.37484 0.28116 0.95531
 C558 C 0.44368 0.23374 0.85160
 C559 C 0.40359 0.24885 0.90288
 C560 C 0.39330 0.25957 0.91841
 C561 C 0.38265 0.27146 0.93783
 C562 C 0.44925 0.20977 0.85668
 H563 H 0.42449 0.26521 0.86266
 H564 H 0.41386 0.20240 0.90554
 H565 H 0.44154 0.18005 0.88024
 H566 H 0.45232 0.24291 0.83698
 C567 C 0.57519 0.77821 0.88960
 C568 C 0.57785 0.75370 0.88572
 C569 C 0.56709 0.74309 0.86588
 C570 C 0.55299 0.75688 0.85045
 C571 C 0.61885 0.71014 0.95745
 C572 C 0.56106 0.79194 0.87435
 C573 C 0.59001 0.73953 0.90336
 C574 C 0.59959 0.72890 0.91940
 C575 C 0.61020 0.71801 0.93944
 C576 C 0.54937 0.78135 0.85490
 H577 H 0.58338 0.78660 0.90491
 H578 H 0.56895 0.72410 0.86277
 H579 H 0.54411 0.74820 0.83570
 H580 H 0.55870 0.81073 0.87822
 C581 C 0.42120 0.79033 0.10130
 C582 C 0.41388 0.76737 0.10784
 C583 C 0.42218 0.75732 0.12907
 C584 C 0.43815 0.77003 0.14348
 C585 C 0.36971 0.71917 0.04132
 C586 C 0.43718 0.80302 0.11561
 C587 C 0.39960 0.75356 0.09160
 C588 C 0.38878 0.74232 0.07686
 C589 C 0.37766 0.72960 0.05828
 C590 C 0.44611 0.79289 0.13669
 H591 H 0.41502 0.79821 0.08482
 H592 H 0.41677 0.73947 0.13418
 H593 H 0.44470 0.76175 0.15960
 H594 H 0.44288 0.82059 0.10991
 C595 C 0.57796 0.24609 0.12964
 C596 C 0.58605 0.23524 0.10873
 C597 C 0.57837 0.21220 0.10299
 C598 C 0.56219 0.20025 0.11771
 C599 C 0.63063 0.28097 0.04066
 C600 C 0.56179 0.23411 0.14449
 C601 C 0.60043 0.24830 0.09197
 C602 C 0.61132 0.25891 0.07679
 C603 C 0.62253 0.27096 0.05782
 C604 C 0.55342 0.21121 0.13844
 H605 H 0.58364 0.26402 0.13415
 H606 H 0.58439 0.20370 0.08676
 H607 H 0.55619 0.18261 0.11258
 H608 H 0.55535 0.24302 0.16032
 C609 C 0.21163 0.09916 0.57421
 C610 C 0.23489 0.10553 0.58113
 C611 C 0.24488 0.12696 0.57299
 C612 C 0.23178 0.14176 0.55765
 C613 C 0.28296 0.03835 0.62538
 C614 C 0.19856 0.11385 0.55888
 C615 C 0.24888 0.08908 0.59511
 C616 C 0.26013 0.07417 0.60587
 C617 C 0.27273 0.05544 0.61713
 C618 C 0.20858 0.13518 0.55018
 H619 H 0.20377 0.08255 0.58027
 H620 H 0.26294 0.13199 0.57809
 H621 H 0.24000 0.15806 0.55127
 H622 H 0.18074 0.10827 0.55354
 C623 C 0.74042 0.13418 0.43581
 C624 C 0.75023 0.11252 0.42806
 C625 C 0.77382 0.10650 0.43416
 C626 C 0.78742 0.12173 0.44837
 C627 C 0.70745 0.04363 0.38177
 C628 C 0.75407 0.14956 0.45002
 C629 C 0.73617 0.09570 0.41470
 C630 C 0.72566 0.08035 0.40393
 C631 C 0.71499 0.06108 0.39179
 C632 C 0.77763 0.14331 0.45671
 H633 H 0.72214 0.13898 0.43122
 H634 H 0.78158 0.08977 0.42827
 H635 H 0.80549 0.11640 0.45312
 H636 H 0.74602 0.16602 0.45623
 C637 C 0.75750 0.87238 0.56885
 C638 C 0.76703 0.89373 0.57769
 C639 C 0.79017 0.90079 0.57105
 C640 C 0.80358 0.88688 0.55531
 C641 C 0.71778 0.95842 0.62425
 C642 C 0.77095 0.85836 0.55311
 C643 C 0.75269 0.90943 0.59217
 C644 C 0.74117 0.92374 0.60342
 C645 C 0.72827 0.94183 0.61535
 C646 C 0.79403 0.86564 0.54592
 H647 H 0.73953 0.86682 0.57374
 H648 H 0.79768 0.91734 0.57766
 H649 H 0.82130 0.89299 0.55021
 H650 H 0.76308 0.84212 0.54619
 C651 C 0.22617 0.88855 0.42553
 C652 C 0.25080 0.88496 0.42223
 C653 C 0.26190 0.86472 0.43191
 C654 C 0.24847 0.84852 0.44547
 C655 C 0.29267 0.95791 0.38117
 C656 C 0.21279 0.87252 0.43911
 C657 C 0.26455 0.90310 0.41026
 C658 C 0.27479 0.91947 0.40072
 C659 C 0.28520 0.93977 0.39002
 C660 C 0.22386 0.85256 0.44962
 H661 H 0.21739 0.90416 0.41815
 H662 H 0.28099 0.86181 0.42954
 H663 H 0.25752 0.83337 0.45343
 H664 H 0.19388 0.87612 0.44188
 C665 C 0.10876 0.42625 0.77780
 C666 C 0.11349 0.42394 0.75353
 C667 C 0.13373 0.43502 0.74370
 C668 C 0.14878 0.44895 0.75803
 C669 C 0.04286 0.38181 0.70871
 C670 C 0.12364 0.44020 0.79208
 C671 C 0.09635 0.41159 0.73885
 C672 C 0.08063 0.40175 0.72787
 C673 C 0.06082 0.39076 0.71668
 C674 C 0.14357 0.45208 0.78230
 H675 H 0.09313 0.41781 0.78560
 H676 H 0.13750 0.43343 0.72490
 H677 H 0.16394 0.45796 0.74997
 H678 H 0.11916 0.44217 0.81069
 C679 C 0.10377 0.57085 0.21102
 C680 C 0.10937 0.57618 0.23462
 C681 C 0.12977 0.56601 0.24513
 C682 C 0.14418 0.55012 0.23221
 C683 C 0.04240 0.62212 0.28170
 C684 C 0.11804 0.55496 0.19813
 C685 C 0.09295 0.59049 0.24835
 C686 C 0.07804 0.60156 0.25932
 C687 C 0.05934 0.61331 0.27162
 C688 C 0.13820 0.54410 0.20868
 H689 H 0.08796 0.57849 0.20273
 H690 H 0.13419 0.56988 0.26345
 H691 H 0.15954 0.54203 0.24084
 H692 H 0.11296 0.55080 0.18005
 C693 C 0.88728 0.42869 0.22566
 C694 C 0.88218 0.42439 0.24960
 C695 C 0.86134 0.43400 0.25976
 C696 C 0.84601 0.44840 0.24614
 C697 C 0.95240 0.37964 0.29278
 C698 C 0.87212 0.44309 0.21209
 C699 C 0.89935 0.41135 0.26367
 C700 C 0.91500 0.40093 0.27424
 C701 C 0.93464 0.38924 0.28505
 C702 C 0.85152 0.45345 0.22226
 H703 H 0.90337 0.42138 0.21761
 H704 H 0.85725 0.43086 0.27830
 H705 H 0.83034 0.45619 0.25449
 H706 H 0.87685 0.44656 0.19376
 C707 C 0.86957 0.57080 0.74911
 C708 C 0.89119 0.58008 0.75780
 C709 C 0.89804 0.57547 0.78126
 C710 C 0.88373 0.56117 0.79581
 C711 C 0.95892 0.62411 0.71051
 C712 C 0.85512 0.55651 0.76371
 C713 C 0.90734 0.59313 0.74262
 C714 C 0.92228 0.60350 0.73105
 C715 C 0.94135 0.61496 0.71909
 C716 C 0.86228 0.55123 0.78712
 H717 H 0.86414 0.57417 0.73095
 H718 H 0.91476 0.58250 0.78816
 H719 H 0.88975 0.55752 0.81373
 H720 H 0.83874 0.54907 0.75649
 C721 C 0.79110 0.58098 0.89700
 C722 C 0.76695 0.58606 0.89236
 C723 C 0.75581 0.57620 0.87234
 C724 C 0.76862 0.56076 0.85741
 C725 C 0.71965 0.62860 0.96094
 C726 C 0.80387 0.56553 0.88220
 C727 C 0.75330 0.59959 0.90941
 C728 C 0.74232 0.60989 0.92476
 C729 C 0.72992 0.62064 0.94383
 C730 C 0.79267 0.55488 0.86248
 H731 H 0.79987 0.58839 0.91250
 H732 H 0.73707 0.57988 0.86867
 H733 H 0.75948 0.55282 0.84241
 H734 H 0.82237 0.56146 0.88658
 C735 C 0.25530 0.43320 0.86576
 C736 C 0.24511 0.42244 0.88582
 C737 C 0.22062 0.42541 0.89052
 C738 C 0.20650 0.43968 0.87575
 C739 C 0.29033 0.37870 0.95490
 C740 C 0.24113 0.44746 0.85085
 C741 C 0.25970 0.40969 0.90271
 C742 C 0.27073 0.39950 0.91810
 C743 C 0.28209 0.38808 0.93742
 C744 C 0.21667 0.45123 0.85599
 H745 H 0.27427 0.43110 0.86201
 H746 H 0.21254 0.41721 0.90601
 H747 H 0.18772 0.44214 0.88019
 H748 H 0.24950 0.45619 0.83581
 C749 C 0.25038 0.56156 0.13121
 C750 C 0.24111 0.57110 0.11013
 C751 C 0.21740 0.56619 0.10356
 C752 C 0.20313 0.55137 0.11762
 C753 C 0.28740 0.61809 0.04409
 C754 C 0.23607 0.54673 0.14540
 C755 C 0.25596 0.58485 0.09431
 C756 C 0.26728 0.59587 0.07972
 C757 C 0.27897 0.60816 0.06115
 C758 C 0.21239 0.54121 0.13855
 H759 H 0.26875 0.56517 0.13641
 H760 H 0.21006 0.57343 0.08726
 H761 H 0.18499 0.54754 0.11186
 H762 H 0.24373 0.53914 0.16138
 C763 C 0.74069 0.43540 0.13786
 C764 C 0.75151 0.42557 0.11765
 C765 C 0.77601 0.42919 0.11352
 C766 C 0.78951 0.44322 0.12900
 C767 C 0.70907 0.38318 0.04621
 C768 C 0.75424 0.44942 0.15351
 C769 C 0.73757 0.41313 0.10006
 C770 C 0.72716 0.40324 0.08408
 C771 C 0.71660 0.39221 0.06414
 C772 C 0.77870 0.45387 0.14894
 H773 H 0.72171 0.43278 0.14118
 H774 H 0.78456 0.42170 0.09792
 H775 H 0.80829 0.44622 0.12500
 H776 H 0.74541 0.45746 0.16865
 C777 C 0.90192 0.79295 0.57359
 C778 C 0.89574 0.76963 0.57999
 C779 C 0.87481 0.75928 0.57084
 C780 C 0.86042 0.77205 0.55488
 C781 C 0.96256 0.72129 0.62454
 C782 C 0.88764 0.80570 0.55763
 C783 C 0.91213 0.75581 0.59419
 C784 C 0.92699 0.74458 0.60502
 C785 C 0.94564 0.73183 0.61628
 C786 C 0.86694 0.79526 0.54779
 H787 H 0.91816 0.80107 0.58044
 H788 H 0.86997 0.74116 0.57554
 H789 H 0.84461 0.76353 0.54761
 H790 H 0.89313 0.82354 0.55261
 C791 C 0.88613 0.21325 0.42479
 C792 C 0.88141 0.23691 0.41836
 C793 C 0.86120 0.24860 0.42756
 C794 C 0.84613 0.23684 0.44368
 C795 C 0.95189 0.28033 0.37448
 C796 C 0.87121 0.20154 0.44092
 C797 C 0.89875 0.24959 0.40426
 C798 C 0.91450 0.25971 0.39359
 C799 C 0.93418 0.27102 0.38255
 C800 C 0.85131 0.21334 0.45091
 H801 H 0.90180 0.20409 0.41790
 H802 H 0.85751 0.26699 0.42284
 H803 H 0.83097 0.24640 0.45109
 H804 H 0.87564 0.18342 0.44602
 C805 C 0.12883 0.24314 0.57682
 C806 C 0.10792 0.23270 0.58591
 C807 C 0.10202 0.20926 0.57973
 C808 C 0.11648 0.19654 0.56393
 C809 C 0.03967 0.28102 0.62827
 C810 C 0.14343 0.23039 0.56103
 C811 C 0.09115 0.24655 0.59962
 C812 C 0.07592 0.25777 0.60995
 C813 C 0.05687 0.27049 0.62056
 C814 C 0.13710 0.20711 0.55404
 H815 H 0.13346 0.26136 0.58135
 H816 H 0.08579 0.20106 0.58653
 H817 H 0.11115 0.17863 0.55899
 H818 H 0.15917 0.23902 0.55370
 C819 C 0.11629 0.77433 0.42360
 C820 C 0.12120 0.75015 0.41978
 C821 C 0.14192 0.73989 0.42955
 C822 C 0.15727 0.75367 0.44370
 C823 C 0.04958 0.70673 0.37797
 C824 C 0.13147 0.78805 0.43778
 C825 C 0.10380 0.73589 0.40733
 C826 C 0.08785 0.72522 0.39751
 C827 C 0.06777 0.71439 0.38669
 C828 C 0.15189 0.77778 0.44837
 H829 H 0.10028 0.78244 0.41618
 H830 H 0.14584 0.72115 0.42679
 H831 H 0.17281 0.74525 0.45170
 H832 H 0.12685 0.80656 0.44095
 C833 C 0.56584 0.86473 0.74486
 C834 C 0.57529 0.88563 0.75479
 C835 C 0.57089 0.89093 0.77866
 C836 C 0.55663 0.87583 0.79243
 C837 C 0.61998 0.95509 0.71086
 C838 C 0.55157 0.84949 0.75868
 C839 C 0.58835 0.90257 0.74055
 C840 C 0.59881 0.91802 0.72980
 C841 C 0.61049 0.93745 0.71877
 C842 C 0.54651 0.85510 0.78253
 H843 H 0.56905 0.86049 0.72637
 H844 H 0.57806 0.90707 0.78653
 H845 H 0.55315 0.88066 0.81072
 H846 H 0.54398 0.83370 0.75052
 C847 C 0.42306 0.87335 0.24389
 C848 C 0.41386 0.89403 0.23323
 C849 C 0.41969 0.89932 0.20967
 C850 C 0.43523 0.88450 0.19700
 C851 C 0.37179 0.96329 0.27997
 C852 C 0.43859 0.85838 0.23118
 C853 C 0.40033 0.91111 0.24684
 C854 C 0.39009 0.92660 0.25772
 C855 C 0.37952 0.94592 0.26992
 C856 C 0.44522 0.86409 0.20774
 H857 H 0.41881 0.86918 0.26219
 H858 H 0.41279 0.91535 0.20129
 H859 H 0.43987 0.88936 0.17897
 H860 H 0.44603 0.84282 0.23993
 C861 C 0.57763 0.10578 0.21168
 C862 C 0.58465 0.11161 0.23478
 C863 C 0.57618 0.13264 0.24532
 C864 C 0.56029 0.14751 0.23293
 C865 C 0.62827 0.04249 0.28014
 C866 C 0.56173 0.12050 0.19934
 C867 C 0.59873 0.09476 0.24812
 C868 C 0.60939 0.07938 0.25873
 C869 C 0.62036 0.06003 0.27053
 C870 C 0.55257 0.14134 0.20994
 H871 H 0.58395 0.08947 0.20342
 H872 H 0.58135 0.13721 0.26329
 H873 H 0.55353 0.16342 0.24156
 H874 H 0.55625 0.11529 0.18164
 C875 C 0.43562 0.12920 0.74776
 C876 C 0.42753 0.10743 0.75699
 C877 C 0.43344 0.10098 0.78027
 C878 C 0.44772 0.11595 0.79415
 C879 C 0.38125 0.04020 0.71129
 C880 C 0.44991 0.14427 0.76167
 C881 C 0.41407 0.09099 0.74256
 C882 C 0.40324 0.07608 0.73145
 C883 C 0.39110 0.05732 0.71982
 C884 C 0.45634 0.13766 0.78495
 H885 H 0.43121 0.13433 0.72974
 H886 H 0.42732 0.08415 0.78758
 H887 H 0.45229 0.11032 0.81198
 H888 H 0.45630 0.16084 0.75406
 C889 C 0.56684 0.75530 0.12958
 C890 C 0.57717 0.76604 0.10957
 C891 C 0.57213 0.78994 0.10440
 C892 C 0.55634 0.80290 0.11871
 C893 C 0.62261 0.71947 0.04237
 C894 C 0.55105 0.76830 0.14403
 C895 C 0.59133 0.75231 0.09308
 C896 C 0.60227 0.74142 0.07810
 C897 C 0.61388 0.72932 0.05934
 C898 C 0.54530 0.79213 0.13847
 H899 H 0.57048 0.73675 0.13366
 H900 H 0.57991 0.79841 0.08890
 H901 H 0.55240 0.82123 0.11397
 H902 H 0.54280 0.75951 0.15909
 C903 C 0.43791 0.25526 0.12972
 C904 C 0.42719 0.24495 0.10971
 C905 C 0.43005 0.22053 0.10537
 C906 C 0.44415 0.20659 0.12046
 C907 C 0.38340 0.28925 0.04004
 C908 C 0.45200 0.24127 0.14496
 C909 C 0.41451 0.25929 0.09256
 C910 C 0.40434 0.27008 0.07700
 C911 C 0.39287 0.28119 0.05755
 C912 C 0.45564 0.21686 0.14020
 H913 H 0.43588 0.27417 0.13320
 H914 H 0.42188 0.21236 0.08993
 H915 H 0.44651 0.18786 0.11631
 H916 H 0.46069 0.24970 0.15996
 C917 C 0.56994 0.22076 0.89677
 C918 C 0.57600 0.24395 0.88978
 C919 C 0.56794 0.25275 0.86791
 C920 C 0.55354 0.23848 0.85328
 C921 C 0.62244 0.29014 0.95626
 C922 C 0.55555 0.20653 0.88226
 C923 C 0.58958 0.25874 0.90579
 C924 C 0.60049 0.27004 0.92046
 C925 C 0.61265 0.28174 0.93911
 C926 C 0.54696 0.21529 0.86045
 H927 H 0.57603 0.21378 0.91368
 H928 H 0.57246 0.27070 0.86235
 H929 H 0.54718 0.24576 0.83662
 H930 H 0.55086 0.18878 0.88830
 C931 C 0.43268 0.74326 0.86695
 C932 C 0.42431 0.75298 0.88831
 C933 C 0.42980 0.77662 0.89414
 C934 C 0.44408 0.79035 0.87905
 C935 C 0.37915 0.70902 0.95712
 C936 C 0.44695 0.75704 0.85173
 C937 C 0.41117 0.73871 0.90511
 C938 C 0.40063 0.72795 0.92043
 C939 C 0.38883 0.71692 0.93968
 C940 C 0.45310 0.78063 0.85783
 H941 H 0.42858 0.72495 0.86231
 H942 H 0.42345 0.78430 0.91064
 H943 H 0.44841 0.80844 0.88426
 H944 H 0.45369 0.74904 0.83554
 C945 C 0.75891 0.87103 0.42490
 C946 C 0.76888 0.89191 0.41544
 C947 C 0.79229 0.89853 0.42158
 C948 C 0.80547 0.88475 0.43760
 C949 C 0.71939 0.95812 0.37167
 C950 C 0.77214 0.85713 0.44091
 C951 C 0.75458 0.90790 0.40129
 C952 C 0.74302 0.92256 0.39058
 C953 C 0.73001 0.94114 0.37957
 C954 C 0.79541 0.86411 0.44777
 H955 H 0.74072 0.86586 0.42042
 H956 H 0.80011 0.91475 0.41450
 H957 H 0.82336 0.89058 0.44242
 H958 H 0.76389 0.84134 0.44844
 C959 C 0.22572 0.88717 0.56916
 C960 C 0.25002 0.88264 0.57358
 C961 C 0.26083 0.86209 0.56426
 C962 C 0.24749 0.84650 0.54999
 C963 C 0.29259 0.95338 0.61740
 C964 C 0.21243 0.87172 0.55488
 C965 C 0.26383 0.90009 0.58639
 C966 C 0.27423 0.91591 0.59659
 C967 C 0.28490 0.93564 0.60801
 C968 C 0.22325 0.85143 0.54478
 H969 H 0.21718 0.90303 0.57625
 H970 H 0.27966 0.85846 0.56751
 H971 H 0.25635 0.83107 0.54239
 H972 H 0.19381 0.87601 0.55128
 C973 C 0.20950 0.10510 0.42577
 C974 C 0.23331 0.11081 0.42026
 C975 C 0.24390 0.13114 0.43023
 C976 C 0.23088 0.14534 0.44616
 C977 C 0.28144 0.04413 0.37542
 C978 C 0.19652 0.11918 0.44170
 C979 C 0.24726 0.09449 0.40611
 C980 C 0.25848 0.07965 0.39527
 C981 C 0.27110 0.06103 0.38388
 C982 C 0.20719 0.13922 0.45241
 H983 H 0.20117 0.08934 0.41827
 H984 H 0.26238 0.13562 0.42623
 H985 H 0.23960 0.16063 0.45413
 H986 H 0.17831 0.11400 0.44605
 C987 C 0.77499 0.11390 0.57818
 C988 C 0.75019 0.11736 0.58006
 C989 C 0.73938 0.13685 0.56871
 C990 C 0.75327 0.15230 0.55476
 C991 C 0.70700 0.04469 0.62000
 C992 C 0.78883 0.12915 0.56420
 C993 C 0.73599 0.09949 0.59189
 C994 C 0.72542 0.08322 0.60119
 C995 C 0.71468 0.06290 0.61151
 C996 C 0.77804 0.14818 0.55186
 H997 H 0.78354 0.09884 0.58684
 H998 H 0.72015 0.13963 0.56995
 H999 H 0.74445 0.16673 0.54536
 H1000 H 0.80786 0.12555 0.56240
 C1001 C 0.86326 0.56768 0.25969
 C1002 C 0.88391 0.57732 0.24921
 C1003 C 0.88826 0.57371 0.22502
 C1004 C 0.87259 0.55985 0.21151
 C1005 C 0.95662 0.61817 0.29191
 C1006 C 0.84742 0.55384 0.24612
 C1007 C 0.90177 0.58944 0.26319
 C1008 C 0.91801 0.59901 0.27365
 C1009 C 0.93833 0.60958 0.28430
 C1010 C 0.85223 0.54937 0.22199
 H1011 H 0.85977 0.57028 0.27843
 H1012 H 0.90420 0.58105 0.21673
 H1013 H 0.87678 0.55683 0.19298
 H1014 H 0.83195 0.54592 0.25471
 C1015 C 0.89635 0.42767 0.78935
 C1016 C 0.88998 0.42148 0.76615
 C1017 C 0.86903 0.43091 0.75606
 C1018 C 0.85482 0.44698 0.76896
 C1019 C 0.95717 0.37664 0.71870
 C1020 C 0.88229 0.44374 0.80220
 C1021 C 0.90628 0.40724 0.75227
 C1022 C 0.92121 0.39637 0.74118
 C1023 C 0.94005 0.38503 0.72880
 C1024 C 0.86160 0.45391 0.79202
 H1025 H 0.91260 0.42059 0.79728
 H1026 H 0.86404 0.42638 0.73803
 H1027 H 0.83902 0.45453 0.76064
 H1028 H 0.88796 0.44860 0.81994
 C1029 C 0.10576 0.57471 0.78684
 C1030 C 0.11223 0.58263 0.76419
 C1031 C 0.13354 0.57448 0.75375
 C1032 C 0.14809 0.55806 0.76578
 C1033 C 0.04464 0.62904 0.71896
 C1034 C 0.12018 0.55829 0.79884
 C1035 C 0.09578 0.59743 0.75111
 C1036 C 0.08076 0.60872 0.74057
 C1037 C 0.06185 0.62046 0.72871
 C1038 C 0.14133 0.54950 0.78831
 H1039 H 0.08922 0.58078 0.79501
 H1040 H 0.13859 0.58036 0.73612
 H1041 H 0.16426 0.55162 0.75722
 H1042 H 0.11451 0.55215 0.81619
 C1043 C 0.12706 0.42251 0.24403
 C1044 C 0.10554 0.41443 0.23402
 C1045 C 0.09920 0.42151 0.21104
 C1046 C 0.11398 0.43703 0.19829
 C1047 C 0.03768 0.37115 0.28199
 C1048 C 0.14195 0.43803 0.23126
 C1049 C 0.08886 0.40055 0.24781
 C1050 C 0.07378 0.38999 0.25900
 C1051 C 0.05487 0.37906 0.27164
 C1052 C 0.13536 0.44575 0.20838
 H1053 H 0.13205 0.41729 0.26188
 H1054 H 0.08250 0.41550 0.20319
 H1055 H 0.10841 0.44256 0.18071
 H1056 H 0.15829 0.44442 0.23951
   
