data_POSCAR
  _audit_creation_date              2014-09-24
  _audit_creation_method            'ToBaCCo'
  _symmetry_space_group_name_H-M    'P1'
  _symmetry_Int_Tables_number       1
  _symmetry_cell_setting            triclinic
  loop_
  _symmetry_equiv_pos_as_xyz
 x,y,z
_cell_length_a 42.8771
_cell_length_b 41.2515
_cell_length_c 22.3037
_cell_angle_alpha 90.137500
_cell_angle_beta 90.078600
_cell_angle_gamma 90.108100
loop_
  _atom_site_label
  _atom_site_type_symbol
  _atom_site_fract_x
  _atom_site_fract_y
  _atom_site_fract_z
O1 O 0.23815 0.28166 0.16465
 O2 O 0.29188 0.21790 0.21601
 O3 O 0.23731 0.21859 0.16388
 O4 O 0.29233 0.28102 0.21611
 O5 O 0.26835 0.28264 0.30348
 O6 O 0.21616 0.21666 0.25380
 O7 O 0.27043 0.21948 0.30581
 O8 O 0.21361 0.27952 0.25157
 Cu9 Cu 0.26723 0.24971 0.18130
 Cu10 Cu 0.23989 0.24963 0.28761
 C11 C 0.21640 0.29105 0.19910
 C12 C 0.29063 0.20808 0.26993
 C13 C 0.21740 0.20668 0.19987
 C14 C 0.28954 0.29285 0.26843
 O15 O 0.78710 0.28236 0.26546
 O16 O 0.73497 0.21864 0.32369
 O17 O 0.78947 0.21980 0.26958
 O18 O 0.73342 0.28158 0.31912
 O19 O 0.70989 0.27910 0.23122
 O20 O 0.76504 0.21583 0.18261
 O21 O 0.71137 0.21590 0.23598
 O22 O 0.76393 0.27872 0.17731
 Cu23 Cu 0.76355 0.25075 0.30336
 Cu24 Cu 0.73511 0.24714 0.19805
 C25 C 0.78462 0.29118 0.21113
 C26 C 0.71407 0.20644 0.28991
 C27 C 0.78700 0.20749 0.21754
 C28 C 0.71217 0.29109 0.28361
 O29 O 0.75956 0.78142 0.83536
 O30 O 0.70712 0.71773 0.77822
 O31 O 0.75989 0.71832 0.83737
 O32 O 0.70719 0.78043 0.77668
 O33 O 0.73239 0.77887 0.69057
 O34 O 0.78656 0.71841 0.75298
 O35 O 0.73420 0.71555 0.69415
 O36 O 0.78510 0.78119 0.74957
 Cu37 Cu 0.73088 0.74948 0.81550
 Cu38 Cu 0.76211 0.74846 0.71317
 C39 C 0.78127 0.79227 0.80225
 C40 C 0.71174 0.70575 0.72650
 C41 C 0.78254 0.70797 0.80599
 C42 C 0.71056 0.79008 0.72306
 O43 O 0.23478 0.71714 0.82052
 O44 O 0.28741 0.78217 0.77041
 O45 O 0.23311 0.78008 0.82246
 O46 O 0.28937 0.71956 0.76844
 O47 O 0.26545 0.71817 0.68071
 O48 O 0.21051 0.78061 0.73367
 O49 O 0.26504 0.78154 0.68131
 O50 O 0.21116 0.71767 0.73262
 Cu51 Cu 0.26343 0.74971 0.80433
 Cu52 Cu 0.23577 0.74953 0.69815
 C53 C 0.21372 0.70652 0.78544
 C54 C 0.28550 0.79275 0.71711
 C55 C 0.21210 0.79078 0.78747
 C56 C 0.28703 0.70855 0.71541
 C57 C 1.01964 0.07602 0.12208
 C58 C 0.98768 0.07703 0.12273
 C59 C 0.97747 0.05604 0.07817
 N60 N 1.00213 0.04198 0.05092
 C61 C 1.02794 0.05398 0.07792
 C62 C 0.94606 0.05199 0.06012
 C63 C 0.93649 0.02712 0.02025
 C64 C 0.90792 0.02600 -0.00900
 C65 C 0.90670 -0.00305 -0.03927
 C66 C 0.93467 -0.01873 -0.02822
 N67 N 0.95270 -0.00022 0.00807
 C68 C 0.94200 -0.05031 -0.04821
 C69 C 0.97277 -0.06238 -0.05004
 C70 C 0.98080 -0.09421 -0.06266
 C71 C 1.01278 -0.09532 -0.06361
 C72 C 1.02319 -0.06417 -0.05141
 N73 N 0.99870 -0.04404 -0.04339
 C74 C 1.05478 -0.05440 -0.05086
 C75 C 1.06480 -0.02380 -0.02945
 C76 C 1.09431 -0.01090 -0.03834
 C77 C 1.09554 0.01778 -0.00691
 C78 C 1.06663 0.02182 0.01995
 N79 N 1.04812 -0.00377 0.00628
 C80 C 1.05882 0.04733 0.05967
 H81 H 1.03489 0.09020 0.15058
 H82 H 0.97365 0.09188 0.15223
 H83 H 1.02677 -0.00913 0.02592
 H84 H 0.88967 0.04408 -0.00823
 H85 H 0.88736 -0.01172 -0.06616
 H86 H 0.96528 -0.11449 -0.07055
 H87 H 1.02675 -0.11665 -0.07228
 H88 H 1.11568 0.03351 -0.00361
 H89 H 0.97314 -0.00763 0.02909
 H90 H 1.11321 -0.02129 -0.06409
 C91 C 0.48377 0.56985 0.62950
 C92 C 0.51576 0.56911 0.63077
 C93 C 0.52507 0.55183 0.58054
 N94 N 0.49991 0.54186 0.54888
 C95 C 0.47464 0.55296 0.57860
 C96 C 0.55624 0.54786 0.56146
 C97 C 0.56458 0.52476 0.51736
 C98 C 0.59277 0.52396 0.48692
 C99 C 0.59258 0.49629 0.45237
 C100 C 0.56416 0.48116 0.46217
 N101 N 0.54722 0.49865 0.50173
 C102 C 0.55533 0.45083 0.43799
 C103 C 0.52398 0.44040 0.43557
 C104 C 0.51420 0.40952 0.41955
 C105 C 0.48222 0.41027 0.41826
 C106 C 0.47358 0.44152 0.43389
 N107 N 0.49911 0.45993 0.44429
 C108 C 0.44270 0.45326 0.43394
 C109 C 0.43440 0.48363 0.45834
 C110 C 0.40662 0.49964 0.44720
 C111 C 0.40702 0.52742 0.48155
 C112 C 0.43489 0.52735 0.51329
 N113 N 0.45143 0.50058 0.49875
 C114 C 0.44370 0.55048 0.55716
 H115 H 0.46894 0.58172 0.66204
 H116 H 0.53046 0.58027 0.66449
 H117 H 0.47159 0.49252 0.52002
 H118 H 0.61168 0.54131 0.48968
 H119 H 0.61129 0.48815 0.42351
 H120 H 0.52856 0.38868 0.40936
 H121 H 0.46707 0.39017 0.40675
 H122 H 0.38874 0.54544 0.48316
 H123 H 0.52665 0.49117 0.52225
 H124 H 0.38801 0.49209 0.41742
 C125 C -0.01644 0.59480 -0.05940
 C126 C 0.01551 0.59392 -0.06271
 C127 C 0.02420 0.56211 -0.05194
 N128 N -0.00129 0.54355 -0.04235
 C129 C -0.02615 0.56351 -0.04663
 C130 C 0.05504 0.55024 -0.05455
 C131 C 0.06335 0.51877 -0.03545
 C132 C 0.09108 0.50337 -0.04977
 C133 C 0.09127 0.47447 -0.01918
 C134 C 0.06373 0.47309 0.01331
 N135 N 0.04678 0.50015 0.00294
 C136 C 0.05581 0.44824 0.05428
 C137 C 0.02489 0.44326 0.07438
 C138 C 0.01600 0.42192 0.11920
 C139 C -0.01600 0.42202 0.12039
 C140 C -0.02557 0.44394 0.07719
 N141 N -0.00058 0.45673 0.04893
 C142 C -0.05685 0.44986 0.06101
 C143 C -0.06614 0.47590 0.02401
 C144 C -0.09578 0.47972 0.00006
 C145 C -0.09601 0.50907 -0.02900
 C146 C -0.06651 0.52240 -0.02198
 N147 N -0.04852 0.50213 0.01065
 C148 C -0.05756 0.55345 -0.04241
 H149 H -0.03085 0.61602 -0.06582
 H150 H 0.03057 0.61436 -0.07213
 H151 H -0.02675 0.50759 0.02858
 H152 H 0.10937 0.51214 -0.07895
 H153 H 0.10974 0.45664 -0.02043
 H154 H 0.03090 0.40742 0.14764
 H155 H -0.03052 0.40752 0.14959
 H156 H -0.11575 0.51954 -0.05217
 H157 H 0.02698 0.50732 0.02631
 H158 H -0.11543 0.46336 0.00392
 C159 C 0.51778 1.07913 0.38317
 C160 C 0.48583 1.07913 0.38126
 C161 C 0.47590 1.05495 0.41988
 N162 N 0.50076 1.04036 0.44555
 C163 C 0.52644 1.05483 0.42268
 C164 C 0.44433 1.04840 0.43368
 C165 C 0.43445 1.02315 0.47211
 C166 C 0.40459 1.02017 0.49539
 C167 C 0.40409 0.99213 0.52859
 C168 C 0.43357 0.97854 0.52432
 N169 N 0.45182 0.99746 0.48937
 C170 C 0.44230 0.94860 0.55013
 C171 C 0.47335 0.93727 0.55290
 C172 C 0.48187 0.90631 0.57045
 C173 C 0.51383 0.90547 0.57001
 C174 C 0.52382 0.93602 0.55260
 N175 N 0.49902 0.95543 0.54233
 C176 C 0.55538 0.94593 0.54981
 C177 C 0.56517 0.97617 0.52656
 C178 C 0.59488 0.98897 0.53344
 C179 C 0.59554 1.01765 0.50231
 C180 C 0.56611 1.02185 0.47756
 N181 N 0.54787 0.99623 0.49206
 C182 C 0.55754 1.04794 0.43978
 H183 H 0.53280 1.09558 0.35889
 H184 H 0.47158 1.09554 0.35524
 H185 H 0.52614 0.99094 0.47404
 H186 H 0.38510 1.03644 0.48910
 H187 H 0.38417 0.98269 0.55269
 H188 H 0.46665 0.88639 0.58238
 H189 H 0.52805 0.88475 0.58155
 H190 H 0.61562 1.03339 0.49813
 H191 H 0.47368 0.99145 0.47303
 H192 H 0.61423 0.97863 0.55802
 C193 C 1.15353 0.13609 0.14037
 C194 C 1.17384 0.15058 0.09916
 C195 C 1.19546 0.17354 0.11899
 C196 C 1.19654 0.18269 0.17979
 C197 C 1.17575 0.16741 0.21959
 N198 N 1.15520 0.14478 0.19921
 C199 C 1.12986 0.11231 0.12038
 N200 N 1.11903 0.11330 0.06296
 C201 C 1.09658 0.09271 0.04271
 C202 C 1.08400 0.06922 0.08098
 C203 C 1.09504 0.06739 0.14001
 C204 C 1.11777 0.08913 0.16009
 H205 H 1.21092 0.18447 0.08639
 H206 H 1.17572 0.17337 0.26688
 H207 H 1.08846 0.09471 -0.00311
 H208 H 1.08570 0.04947 0.17055
 H209 H 1.17312 0.14411 0.05209
 H210 H 1.12595 0.08773 0.20596
 C211 C 0.64888 0.63455 0.65821
 C212 C 0.68065 0.63236 0.64389
 C213 C 0.70133 0.65575 0.66594
 C214 C 0.69045 0.68059 0.70344
 C215 C 0.65860 0.68153 0.71752
 N216 N 0.63877 0.65908 0.69411
 C217 C 0.62597 0.61162 0.63319
 N218 N 0.59879 0.62328 0.61038
 C219 C 0.57659 0.60348 0.58673
 C220 C 0.58076 0.56972 0.58663
 C221 C 0.60850 0.55719 0.61068
 C222 C 0.63134 0.57810 0.63331
 H223 H 0.72579 0.65433 0.65411
 H224 H 0.64935 0.70056 0.74585
 H225 H 0.55562 0.61408 0.56817
 H226 H 0.61242 0.53127 0.61192
 H227 H 0.68919 0.61332 0.61476
 H228 H 0.65264 0.56821 0.65188
 C229 C -0.15034 0.35988 0.14082
 C230 C -0.17134 0.34425 0.10191
 C231 C -0.19290 0.32223 0.12498
 C232 C -0.19365 0.31568 0.18667
 C233 C -0.17271 0.33235 0.22420
 N234 N -0.15195 0.35376 0.20069
 C235 C -0.12656 0.38287 0.11855
 N236 N -0.11628 0.40702 0.15545
 C237 C -0.09419 0.42874 0.13808
 C238 C -0.08093 0.42650 0.08090
 C239 C -0.09073 0.40165 0.04242
 C240 C -0.11358 0.37980 0.06098
 H241 H -0.20875 0.31009 0.09442
 H242 H -0.17266 0.32824 0.27211
 H243 H -0.08688 0.44764 0.16883
 H244 H -0.08064 0.39924 -0.00186
 H245 H -0.17140 0.34913 0.05428
 H246 H -0.12042 0.36039 0.03100
 C247 C 0.35078 0.86394 0.65555
 C248 C 0.35338 0.85152 0.71400
 C249 C 0.33178 0.82874 0.73425
 C250 C 0.30767 0.81794 0.69655
 C251 C 0.30583 0.83091 0.63852
 N252 N 0.32716 0.85312 0.61975
 C253 C 0.37373 0.88724 0.63050
 N254 N 0.37555 0.89067 0.56981
 C255 C 0.39666 0.91062 0.54320
 C256 C 0.41774 0.92838 0.57829
 C257 C 0.41598 0.92594 0.64073
 C258 C 0.39391 0.90562 0.66710
 H259 H 0.33432 0.81917 0.77917
 H260 H 0.28768 0.82322 0.60784
 H261 H 0.39739 0.91217 0.49479
 H262 H 0.43184 0.93966 0.66892
 H263 H 0.37223 0.85840 0.74361
 H264 H 0.39280 0.90467 0.71544
 C265 C -0.15338 0.64134 -0.12159
 C266 C -0.17938 0.65095 -0.08758
 C267 C -0.20071 0.67291 -0.11164
 C268 C -0.19659 0.68522 -0.16984
 C269 C -0.17066 0.67438 -0.20280
 N270 N -0.15011 0.65320 -0.17815
 C271 C -0.12936 0.61856 -0.09876
 N272 N -0.10835 0.60612 -0.13842
 C273 C -0.08531 0.58547 -0.12156
 C274 C -0.08240 0.57621 -0.06148
 C275 C -0.10353 0.58866 -0.01962
 C276 C -0.12692 0.60996 -0.03787
 H277 H -0.22044 0.68017 -0.08448
 H278 H -0.16640 0.68292 -0.24792
 H279 H -0.06933 0.57621 -0.15498
 H280 H -0.10169 0.58206 0.02723
 H281 H -0.18371 0.64166 -0.04315
 H282 H -0.14234 0.61969 -0.00414
 C283 C 0.35498 1.13669 0.33299
 C284 C 0.35342 1.14361 0.27141
 C285 C 0.33243 1.16689 0.25077
 C286 C 0.31290 1.18325 0.29117
 C287 C 0.31525 1.17566 0.35235
 N288 N 0.33605 1.15309 0.37144
 C289 C 0.37741 1.11295 0.35764
 N290 N 0.38768 1.11679 0.41507
 C291 C 0.40865 1.09630 0.44051
 C292 C 0.42029 1.07001 0.40771
 C293 C 0.40972 1.06511 0.34900
 C294 C 0.38825 1.08649 0.32374
 H295 H 0.33153 1.17211 0.20324
 H296 H 0.30081 1.18785 0.38513
 H297 H 0.41642 1.10063 0.48603
 H298 H 0.41831 1.04489 0.32275
 H299 H 0.36867 1.13182 0.23954
 H300 H 0.38006 1.08207 0.27856
 C301 C 1.14645 -0.14237 -0.14642
 C302 C 1.14474 -0.15246 -0.20648
 C303 C 1.16664 -0.17440 -0.22873
 C304 C 1.19040 -0.18642 -0.19136
 C305 C 1.19143 -0.17534 -0.13165
 N306 N 1.16977 -0.15406 -0.11112
 C307 C 1.12322 -0.11959 -0.12091
 N308 N 1.10009 -0.10749 -0.15631
 C309 C 1.07810 -0.08675 -0.13502
 C310 C 1.07860 -0.07712 -0.07473
 C311 C 1.10213 -0.08917 -0.03737
 C312 C 1.12449 -0.11037 -0.06025
 H313 H 1.16475 -0.18207 -0.27508
 H314 H 1.20923 -0.18372 -0.10093
 H315 H 1.06028 -0.07775 -0.16506
 H316 H 1.10310 -0.08217 0.00943
 H317 H 1.12655 -0.14370 -0.23598
 H318 H 1.14247 -0.11948 -0.03067
 C319 C 0.64738 0.36253 0.34520
 C320 C 0.64509 0.35083 0.28615
 C321 C 0.66630 0.32765 0.26572
 C322 C 0.68985 0.31614 0.30387
 C323 C 0.69155 0.32875 0.36231
 N324 N 0.67056 0.35116 0.38120
 C325 C 0.62469 0.38632 0.36924
 N326 N 0.60164 0.39813 0.33330
 C327 C 0.57971 0.41917 0.35378
 C328 C 0.58002 0.42922 0.41388
 C329 C 0.60374 0.41783 0.45150
 C330 C 0.62612 0.39644 0.42940
 H331 H 0.66416 0.31864 0.22026
 H332 H 0.70934 0.32064 0.39328
 H333 H 0.56180 0.42773 0.32347
 H334 H 0.60461 0.42514 0.49815
 H335 H 0.62695 0.35924 0.25619
 H336 H 0.64406 0.38761 0.45937
 C337 C 0.84462 -0.13651 -0.12868
 C338 C 0.81748 -0.14424 -0.09630
 C339 C 0.79670 -0.16727 -0.11907
 C340 C 0.80252 -0.18238 -0.17434
 C341 C 0.82936 -0.17332 -0.20614
 N342 N 0.84943 -0.15109 -0.18275
 C343 C 0.86846 -0.11328 -0.10626
 N344 N 0.89076 -0.10263 -0.14505
 C345 C 0.91412 -0.08228 -0.12793
 C346 C 0.91610 -0.07164 -0.06838
 C347 C 0.89345 -0.08201 -0.02757
 C348 C 0.86969 -0.10292 -0.04610
 H349 H 0.77608 -0.17324 -0.09336
 H350 H 0.83471 -0.18424 -0.24906
 H351 H 0.93128 -0.07463 -0.16056
 H352 H 0.89454 -0.07434 0.01888
 H353 H 0.81195 -0.13275 -0.05409
 H354 H 0.85321 -0.11123 -0.01296
 C355 C 0.35310 0.36639 0.32798
 C356 C 0.35724 0.35180 0.27150
 C357 C 0.33630 0.32812 0.25197
 C358 C 0.31134 0.31855 0.28850
 C359 C 0.30799 0.33362 0.34461
 N360 N 0.32868 0.35670 0.36267
 C361 C 0.37530 0.39071 0.35253
 N362 N 0.37490 0.39693 0.41259
 C363 C 0.39539 0.41767 0.43919
 C364 C 0.41825 0.43320 0.40488
 C365 C 0.41866 0.42806 0.34287
 C366 C 0.39711 0.40708 0.31639
 H367 H 0.33996 0.31697 0.20854
 H368 H 0.28909 0.32697 0.37429
 H369 H 0.39444 0.42132 0.48723
 H370 H 0.43593 0.44002 0.31520
 H371 H 0.37672 0.35772 0.24289
 H372 H 0.39783 0.40394 0.26833
 C373 C 0.14858 0.63609 -0.15015
 C374 C 0.14613 0.64733 -0.20934
 C375 C 0.16764 0.66994 -0.23072
 C376 C 0.19165 0.68141 -0.19339
 C377 C 0.19359 0.66917 -0.13482
 N378 N 0.17228 0.64726 -0.11496
 C379 C 0.12538 0.61308 -0.12520
 N380 N 0.10096 0.60286 -0.15965
 C381 C 0.07855 0.58258 -0.13842
 C382 C 0.07985 0.57158 -0.07908
 C383 C 0.10488 0.58140 -0.04291
 C384 C 0.12769 0.60213 -0.06575
 H385 H 0.16525 0.67869 -0.27623
 H386 H 0.21174 0.67727 -0.10449
 H387 H 0.05960 0.57525 -0.16761
 H388 H 0.10653 0.57327 0.00313
 H389 H 0.12762 0.63904 -0.23871
 H390 H 0.14671 0.60969 -0.03696
 C391 C 0.65127 1.13648 0.35512
 C392 C 0.67238 1.15124 0.39480
 C393 C 0.69370 1.17401 0.37316
 C394 C 0.69362 1.18269 0.31216
 C395 C 0.67201 1.16719 0.27407
 N396 N 0.65185 1.14478 0.29613
 C397 C 0.62798 1.11272 0.37653
 N398 N 0.61840 1.11342 0.43475
 C399 C 0.59617 1.09290 0.45596
 C400 C 0.58251 1.06984 0.41781
 C401 C 0.59227 1.06835 0.35799
 C402 C 0.61481 1.08993 0.33703
 H403 H 0.70983 1.18518 0.40446
 H404 H 0.67105 1.17276 0.22669
 H405 H 0.58905 1.09463 0.50240
 H406 H 0.58207 1.05079 0.32751
 H407 H 0.67253 1.14510 0.44198
 H408 H 0.62195 1.08874 0.29052
 C409 C 0.15076 0.36062 0.13668
 C410 C 0.18226 0.36396 0.12100
 C411 C 0.20377 0.34101 0.14092
 C412 C 0.19401 0.31544 0.17773
 C413 C 0.16237 0.31324 0.19306
 N414 N 0.14169 0.33535 0.17172
 C415 C 0.12720 0.38363 0.11489
 N416 N 0.10038 0.37209 0.09006
 C417 C 0.07765 0.39215 0.06955
 C418 C 0.08086 0.42591 0.07525
 C419 C 0.10831 0.43822 0.10113
 C420 C 0.13170 0.41716 0.12031
 H421 H 0.22804 0.34340 0.12824
 H422 H 0.15401 0.29361 0.22091
 H423 H 0.05698 0.38176 0.04921
 H424 H 0.11154 0.46411 0.10651
 H425 H 0.18996 0.38371 0.09270
 H426 H 0.15275 0.42688 0.14041
 C427 C 0.64630 0.85878 0.65010
 C428 C 0.64413 0.84999 0.71071
 C429 C 0.66522 0.82778 0.73455
 C430 C 0.68863 0.81431 0.69835
 C431 C 0.69024 0.82398 0.63811
 N432 N 0.66930 0.84556 0.61581
 C433 C 0.62367 0.88172 0.62321
 N434 N 0.60161 0.89594 0.65844
 C435 C 0.57992 0.91664 0.63615
 C436 C 0.57947 0.92391 0.57484
 C437 C 0.60202 0.90987 0.53761
 C438 C 0.62420 0.88880 0.56161
 H439 H 0.66308 0.82106 0.78127
 H440 H 0.70790 0.81421 0.60857
 H441 H 0.56290 0.92725 0.66611
 H442 H 0.60227 0.91509 0.49004
 H443 H 0.62616 0.85991 0.73942
 H444 H 0.64134 0.87797 0.53216
 C445 C 0.85512 0.14130 0.15239
 C446 C 0.86424 0.16641 0.19107
 C447 C 0.84176 0.18747 0.21384
 C448 C 0.81045 0.18399 0.19681
 C449 C 0.80228 0.15851 0.15803
 N450 N 0.82451 0.13779 0.13749
 C451 C 0.87835 0.11889 0.12740
 N452 N 0.87397 0.08634 0.13249
 C453 C 0.89517 0.06465 0.11140
 C454 C 0.92231 0.07547 0.08237
 C455 C 0.92668 0.10895 0.07518
 C456 C 0.90500 0.13073 0.09846
 H457 H 0.84891 0.20698 0.24345
 H458 H 0.77828 0.15502 0.14430
 H459 H 0.89097 0.03899 0.11754
 H460 H 0.94706 0.11818 0.05216
 H461 H 0.88846 0.16951 0.20376
 H462 H 0.90876 0.15655 0.09332
 C463 C 0.35398 0.64123 0.64933
 C464 C 0.36314 0.66480 0.69120
 C465 C 0.34104 0.68633 0.71382
 C466 C 0.31010 0.68487 0.69364
 C467 C 0.30187 0.66092 0.65167
 N468 N 0.32368 0.63970 0.63123
 C469 C 0.37689 0.61840 0.62440
 N470 N 0.37059 0.58605 0.62399
 C471 C 0.39141 0.56395 0.60283
 C472 C 0.42019 0.57421 0.57947
 C473 C 0.42663 0.60757 0.57814
 C474 C 0.40525 0.62967 0.60128
 H475 H 0.34825 0.70455 0.74605
 H476 H 0.27812 0.65896 0.63551
 H477 H 0.38563 0.53842 0.60459
 H478 H 0.44837 0.61645 0.55964
 H479 H 0.38708 0.66632 0.70654
 H480 H 0.41060 0.65534 0.60049
   
