data_POSCAR
  _audit_creation_date              2014-09-24
  _audit_creation_method            'ToBaCCo'
  _symmetry_space_group_name_H-M    'P1'
  _symmetry_Int_Tables_number       1
  _symmetry_cell_setting            triclinic
  loop_
  _symmetry_equiv_pos_as_xyz
 x,y,z
_cell_length_a 33.6304
_cell_length_b 39.5998
_cell_length_c 34.6675
_cell_angle_alpha 90.028600
_cell_angle_beta 90.107100
_cell_angle_gamma 85.637700
loop_
  _atom_site_label
  _atom_site_type_symbol
  _atom_site_fract_x
  _atom_site_fract_y
  _atom_site_fract_z
C1 C 1.22479 0.22617 0.20482
 C2 C 1.25054 0.24905 0.18156
 C3 C 1.27303 0.26857 0.20405
 C4 C 1.26785 0.26337 0.24781
 C5 C 1.25391 0.20560 0.23127
 C6 C 1.27634 0.22496 0.25383
 C7 C 1.20006 0.25008 0.23181
 C8 C 1.22259 0.26952 0.25428
 H9 H 1.25000 0.25057 0.15027
 H10 H 1.28627 0.27919 0.26609
 H11 H 1.25527 0.17814 0.23336
 H12 H 1.16770 0.25144 0.23314
 C13 C 0.72580 -0.27462 0.20350
 C14 C 0.75135 -0.25169 0.18013
 C15 C 0.77367 -0.23203 0.20256
 C16 C 0.76857 -0.23711 0.24630
 C17 C 0.75503 -0.29501 0.23000
 C18 C 0.77728 -0.27542 0.25248
 C19 C 0.70092 -0.25076 0.23041
 C20 C 0.72336 -0.23120 0.25279
 H21 H 0.75068 -0.25016 0.14884
 H22 H 0.78690 -0.22113 0.26448
 H23 H 0.75626 -0.32243 0.23253
 H24 H 0.66857 -0.24974 0.23202
 C25 C 0.72634 0.22629 -0.29626
 C26 C 0.75037 0.24834 -0.31858
 C27 C 0.77392 0.26885 -0.29478
 C28 C 0.76894 0.26337 -0.25327
 C29 C 0.75429 0.20648 -0.27153
 C30 C 0.77775 0.22689 -0.24775
 C31 C 0.70237 0.24858 -0.27042
 C32 C 0.72595 0.26904 -0.24669
 H33 H 0.74938 0.25034 -0.34987
 H34 H 0.78733 0.27921 -0.23486
 H35 H 0.75551 0.17901 -0.26913
 H36 H 0.66997 0.24993 -0.26921
 C37 C 1.22596 -0.27352 -0.29595
 C38 C 1.25188 -0.25072 -0.31908
 C39 C 1.27422 -0.23126 -0.29640
 C40 C 1.26872 -0.23636 -0.25273
 C41 C 1.25485 -0.29412 -0.26931
 C42 C 1.27711 -0.27470 -0.24666
 C43 C 1.20106 -0.24959 -0.26918
 C44 C 1.22348 -0.23021 -0.24659
 H45 H 1.25162 -0.24925 -0.35038
 H46 H 1.28702 -0.22052 -0.23435
 H47 H 1.25619 -0.32157 -0.26717
 H48 H 1.16869 -0.24828 -0.26794
 C49 C 0.22709 0.22613 0.79731
 C50 C 0.25211 0.24725 0.81952
 C51 C 0.27565 0.26767 0.79597
 C52 C 0.26996 0.26327 0.75455
 C53 C 0.20212 0.25042 0.77076
 C54 C 0.22464 0.26984 0.74832
 C55 C 0.25539 0.20544 0.77013
 C56 C 0.27778 0.22488 0.74764
 H57 H 0.25159 0.24882 0.85082
 H58 H 0.28834 0.27908 0.73624
 H59 H 0.16974 0.25182 0.76946
 H60 H 0.25632 0.17803 0.76763
 C61 C 0.72550 0.72588 0.79602
 C62 C 0.74947 0.74791 0.81856
 C63 C 0.77318 0.76840 0.79496
 C64 C 0.76838 0.76289 0.75340
 C65 C 0.70170 0.74820 0.77001
 C66 C 0.72542 0.76862 0.74649
 C67 C 0.75354 0.70603 0.77149
 C68 C 0.77716 0.72639 0.74792
 H69 H 0.74836 0.74992 0.84984
 H70 H 0.78688 0.77869 0.73514
 H71 H 0.66929 0.74964 0.76860
 H72 H 0.75477 0.67856 0.76911
 C73 C 0.72584 0.22571 0.29626
 C74 C 0.75144 0.24863 0.31969
 C75 C 0.77374 0.26826 0.29731
 C76 C 0.76856 0.26318 0.25357
 C77 C 0.70092 0.24957 0.26931
 C78 C 0.72334 0.26910 0.24699
 C79 C 0.75501 0.20530 0.26980
 C80 C 0.77724 0.22487 0.24739
 H81 H 0.75084 0.25016 0.35099
 H82 H 0.78687 0.27914 0.23544
 H83 H 0.66858 0.25058 0.26762
 H84 H 0.75622 0.17787 0.26726
 C85 C 0.22529 0.72553 0.29523
 C86 C 0.25120 0.74846 0.31839
 C87 C 0.27350 0.76799 0.29582
 C88 C 0.26799 0.76275 0.25207
 C89 C 0.20034 0.74944 0.26832
 C90 C 0.22268 0.76888 0.24576
 C91 C 0.25421 0.70497 0.26868
 C92 C 0.27645 0.72432 0.24602
 H93 H 0.25081 0.75006 0.34968
 H94 H 0.28626 0.77856 0.23372
 H95 H 0.16796 0.75081 0.26715
 H96 H 0.25553 0.67752 0.26655
 N97 N 1.06781 0.02921 0.04010
 N98 N 1.09382 0.05208 0.04554
 N99 N 1.03892 -0.03934 0.06726
 N100 N 1.04743 -0.06166 0.09493
 N101 N 1.06662 -0.04165 0.04051
 N102 N 1.09468 -0.06558 0.04928
 N103 N 1.04010 0.03162 0.06678
 N104 N 1.04647 0.05624 0.09122
 C105 C 1.07993 0.06875 0.07735
 C106 C 1.08185 -0.07815 0.08288
 N107 N 0.92509 -0.03048 0.03981
 N108 N 0.89836 -0.05255 0.04643
 N109 N 0.95437 0.03827 0.06632
 N110 N 0.94857 0.06303 0.09162
 N111 N 0.92656 0.04052 0.03958
 N112 N 0.90098 0.06692 0.04604
 N113 N 0.95286 -0.03256 0.06662
 N114 N 0.94581 -0.05607 0.09217
 Mn115 Mn 0.99651 -0.00052 0.06713
 C116 C 0.91195 -0.06838 0.07898
 C117 C 0.91551 0.08079 0.07832
 N118 N 1.06668 -0.04174 -0.04268
 N119 N 1.09459 -0.06591 -0.05084
 N120 N 1.04042 0.03136 -0.06955
 N121 N 1.04680 0.05612 -0.09375
 N122 N 1.06794 0.02900 -0.04256
 N123 N 1.09378 0.05204 -0.04754
 N124 N 1.03918 -0.03954 -0.06974
 N125 N 1.04768 -0.06218 -0.09703
 Mn126 Mn 1.06760 -0.00638 -0.00118
 C127 C 1.08187 -0.07871 -0.08439
 C128 C 1.08005 0.06873 -0.07940
 N129 N 0.92665 0.04041 -0.04371
 N130 N 0.90100 0.06672 -0.05051
 N131 N 0.95304 -0.03289 -0.07030
 N132 N 0.94584 -0.05629 -0.09603
 N133 N 0.92516 -0.03069 -0.04371
 N134 N 0.89821 -0.05255 -0.05067
 N135 N 0.95458 0.03809 -0.07022
 N136 N 0.94877 0.06271 -0.09572
 Mn137 Mn 0.92537 0.00496 -0.00200
 Mn138 Mn 0.99679 -0.00077 -0.07036
 Cl139 Cl 0.99653 -0.00078 -0.00161
 C140 C 0.91555 0.08048 -0.08279
 C141 C 0.91176 -0.06843 -0.08319
 N142 N 1.06859 0.52869 0.54347
 N143 N 1.09422 0.55191 0.54838
 N144 N 1.03975 0.46017 0.57040
 N145 N 1.04840 0.43769 0.59784
 N146 N 1.06726 0.45795 0.54344
 N147 N 1.09531 0.43394 0.55184
 N148 N 1.04106 0.53104 0.57034
 N149 N 1.04720 0.55599 0.59440
 C150 C 1.08034 0.56868 0.58008
 C151 C 1.08268 0.42122 0.58542
 N152 N 0.92569 0.46931 0.54395
 N153 N 0.89866 0.44754 0.55080
 N154 N 0.95526 0.53797 0.57078
 N155 N 0.94938 0.56245 0.59646
 N156 N 0.92733 0.54038 0.54417
 N157 N 0.90163 0.56662 0.55107
 N158 N 0.95360 0.46701 0.57061
 N159 N 0.94634 0.44364 0.59629
 Mn160 Mn 0.99741 0.49902 0.57093
 C161 C 0.91220 0.43161 0.58334
 C162 C 0.91613 0.58024 0.58353
 N163 N 1.06713 0.45821 0.46022
 N164 N 1.09515 0.43427 0.45147
 N165 N 1.04080 0.53157 0.43405
 N166 N 1.04733 0.55611 0.40960
 N167 N 1.06853 0.52906 0.46081
 N168 N 1.09470 0.55179 0.45541
 N169 N 1.03944 0.46063 0.43337
 N170 N 1.04790 0.43836 0.40564
 Mn171 Mn 1.06821 0.49339 0.50200
 C172 C 1.08229 0.42180 0.41777
 C173 C 1.08089 0.56848 0.42354
 N174 N 0.92724 0.54063 0.46086
 N175 N 0.90161 0.56698 0.45428
 N176 N 0.95338 0.46756 0.43371
 N177 N 0.94632 0.44407 0.40811
 N178 N 0.92562 0.46964 0.46043
 N179 N 0.89887 0.44759 0.45370
 N180 N 0.95505 0.53838 0.43423
 N181 N 0.94920 0.56308 0.40887
 Mn182 Mn 0.92598 0.50501 0.50234
 Mn183 Mn 0.99712 0.49952 0.43346
 Cl184 Cl 0.99714 0.49913 0.50219
 C185 C 0.91610 0.58083 0.42203
 C186 C 0.91245 0.43178 0.42117
 N187 N 0.57185 0.02843 0.54212
 N188 N 0.59774 0.05148 0.54705
 N189 N 0.54309 -0.03992 0.57008
 N190 N 0.55172 -0.06210 0.59787
 N191 N 0.57062 -0.04243 0.54317
 N192 N 0.59868 -0.06635 0.55194
 N193 N 0.54428 0.03105 0.56893
 N194 N 0.55064 0.05599 0.59295
 C195 C 0.58396 0.06846 0.57870
 C196 C 0.58605 -0.07871 0.58573
 N197 N 0.42909 -0.03113 0.54313
 N198 N 0.40244 -0.05321 0.54992
 N199 N 0.45848 0.03777 0.56896
 N200 N 0.45255 0.06251 0.59428
 N201 N 0.43055 0.03983 0.54233
 N202 N 0.40479 0.06609 0.54887
 N203 N 0.45696 -0.03309 0.56985
 N204 N 0.45005 -0.05653 0.59552
 Mn205 Mn 0.50066 -0.00106 0.56985
 C206 C 0.41616 -0.06891 0.58248
 C207 C 0.41930 0.08010 0.58107
 N208 N 0.57021 -0.04310 0.45992
 N209 N 0.59809 -0.06728 0.45164
 N210 N 0.54375 0.02983 0.43265
 N211 N 0.54972 0.05459 0.40834
 N212 N 0.57147 0.02767 0.45944
 N213 N 0.59708 0.05085 0.45420
 N214 N 0.54249 -0.04103 0.43307
 N215 N 0.55077 -0.06378 0.40585
 Mn216 Mn 0.57139 -0.00744 0.50115
 C217 C 0.58507 -0.08025 0.41828
 C218 C 0.58296 0.06740 0.42239
 N219 N 0.43021 0.03917 0.45905
 N220 N 0.40443 0.06534 0.45204
 N221 N 0.45643 -0.03429 0.43296
 N222 N 0.44898 -0.05767 0.40732
 N223 N 0.42866 -0.03190 0.45965
 N224 N 0.40152 -0.05363 0.45285
 N225 N 0.45799 0.03665 0.43240
 N226 N 0.45193 0.06098 0.40658
 Mn227 Mn 0.42915 0.00401 0.50106
 Mn228 Mn 0.50015 -0.00223 0.43239
 Cl229 Cl 0.50030 -0.00179 0.50112
 C230 C 0.41874 0.07880 0.41948
 C231 C 0.41488 -0.06964 0.42032
 N232 N 0.57069 0.52764 0.03960
 N233 N 0.59631 0.55082 0.04487
 N234 N 0.54217 0.45890 0.06623
 N235 N 0.55058 0.43620 0.09348
 N236 N 0.56981 0.45684 0.03941
 N237 N 0.59776 0.43271 0.04772
 N238 N 0.54307 0.52979 0.06639
 N239 N 0.54913 0.55454 0.09073
 C240 C 0.58230 0.56737 0.07669
 C241 C 0.58488 0.41978 0.08109
 N242 N 0.42826 0.46747 0.03961
 N243 N 0.40124 0.44570 0.04653
 N244 N 0.45730 0.53627 0.06662
 N245 N 0.45113 0.56060 0.09244
 N246 N 0.42941 0.53858 0.03998
 N247 N 0.40342 0.56459 0.04700
 N248 N 0.45612 0.46530 0.06632
 N249 N 0.44884 0.44203 0.09210
 Mn250 Mn 0.49966 0.49754 0.06677
 C251 C 0.41477 0.42989 0.07914
 C252 C 0.41774 0.57820 0.07956
 N253 N 0.56993 0.45718 -0.04383
 N254 N 0.59812 0.43336 -0.05250
 N255 N 0.54314 0.53047 -0.06994
 N256 N 0.54936 0.55530 -0.09412
 N257 N 0.57078 0.52808 -0.04309
 N258 N 0.59658 0.55117 -0.04815
 N259 N 0.54230 0.45945 -0.07075
 N260 N 0.55099 0.43721 -0.09845
 Mn261 Mn 0.57065 0.49235 -0.00196
 C262 C 0.58546 0.42081 -0.08623
 C263 C 0.58267 0.56795 -0.07992
 N264 N 0.42953 0.53888 -0.04329
 N265 N 0.40402 0.56536 -0.04952
 N266 N 0.45611 0.46590 -0.07059
 N267 N 0.44909 0.44244 -0.09628
 N268 N 0.42834 0.46787 -0.04388
 N269 N 0.40166 0.44577 -0.05069
 N270 N 0.45734 0.53680 -0.06993
 N271 N 0.45159 0.56178 -0.09496
 Mn272 Mn 0.42840 0.50322 -0.00192
 Mn273 Mn 0.49967 0.49813 -0.07071
 Cl274 Cl 0.49956 0.49770 -0.00196
 C275 C 0.41854 0.57946 -0.08158
 C276 C 0.41525 0.43003 -0.08326
 C277 C 1.20055 0.20465 0.18147
 C278 C 1.18074 0.18587 0.16366
 C279 C 1.15791 0.16279 0.14413
 C280 C 1.13890 0.14225 0.12827
 C281 C 1.11737 0.11734 0.11036
 C282 C 1.09978 0.09545 0.09531
 C283 C 1.20176 0.70510 0.68070
 C284 C 1.18172 0.68646 0.66310
 C285 C 1.15851 0.66350 0.64408
 C286 C 1.13918 0.64294 0.62882
 C287 C 1.11745 0.61788 0.61174
 C288 C 1.09987 0.59574 0.59737
 C289 C 0.70352 0.20586 0.68139
 C290 C 0.68387 0.18703 0.66344
 C291 C 0.66126 0.16374 0.64395
 C292 C 0.64244 0.14296 0.62827
 C293 C 0.62113 0.11771 0.61073
 C294 C 0.60369 0.09551 0.59609
 C295 C 0.70172 0.70381 0.18022
 C296 C 0.68198 0.68504 0.16243
 C297 C 0.65925 0.66197 0.14294
 C298 C 0.64035 0.64138 0.12714
 C299 C 0.61906 0.61635 0.10937
 C300 C 0.60174 0.59429 0.09446
 C301 C 0.79711 -0.20673 0.18601
 C302 C 0.81586 -0.18564 0.17086
 C303 C 0.83701 -0.16100 0.15200
 C304 C 0.85455 -0.13996 0.13531
 C305 C 0.87467 -0.11523 0.11546
 C306 C 0.89169 -0.09397 0.09859
 C307 C 0.79586 0.29324 0.68984
 C308 C 0.81460 0.31457 0.67497
 C309 C 0.83593 0.33935 0.65634
 C310 C 0.85372 0.36040 0.63980
 C311 C 0.87424 0.38507 0.62002
 C312 C 0.89158 0.40620 0.60314
 C313 C 0.29838 -0.20634 0.68741
 C314 C 0.31782 -0.18551 0.67271
 C315 C 0.33979 -0.16112 0.65444
 C316 C 0.35795 -0.14023 0.63823
 C317 C 0.37864 -0.11564 0.61882
 C318 C 0.39592 -0.09445 0.60215
 C319 C 0.29696 0.29363 0.18747
 C320 C 0.31614 0.31446 0.17224
 C321 C 0.33786 0.33875 0.15321
 C322 C 0.35588 0.35945 0.13636
 C323 C 0.37659 0.38378 0.11626
 C324 C 0.39405 0.40469 0.09914
 C325 C 0.80118 0.21242 -0.21908
 C326 C 0.82069 0.19690 -0.19475
 C327 C 0.84219 0.17590 -0.16774
 C328 C 0.85966 0.15607 -0.14605
 C329 C 0.87938 0.13104 -0.12230
 C330 C 0.89590 0.10848 -0.10346
 C331 C 0.80211 0.70966 0.28280
 C332 C 0.82149 0.69463 0.30748
 C333 C 0.84282 0.67440 0.33519
 C334 C 0.86016 0.65520 0.35757
 C335 C 0.87976 0.63079 0.38203
 C336 C 0.89629 0.60859 0.40127
 C337 C 0.30194 0.20957 0.28339
 C338 C 0.32197 0.19398 0.30727
 C339 C 0.34401 0.17310 0.33400
 C340 C 0.36188 0.15347 0.35563
 C341 C 0.38200 0.12875 0.37948
 C342 C 0.39881 0.10648 0.39851
 C343 C 0.30250 0.71016 -0.21693
 C344 C 0.32244 0.69490 -0.19283
 C345 C 0.34440 0.67436 -0.16587
 C346 C 0.36220 0.65485 -0.14417
 C347 C 0.38218 0.63006 -0.12048
 C348 C 0.39884 0.60755 -0.10183
 C349 C 1.20543 -0.20671 -0.21900
 C350 C 1.18855 -0.18743 -0.19654
 C351 C 1.16718 -0.16510 -0.17108
 C352 C 1.14798 -0.14597 -0.15007
 C353 C 1.12487 -0.12327 -0.12637
 C354 C 1.10505 -0.10334 -0.10683
 C355 C 1.20461 0.29327 0.28181
 C356 C 1.18785 0.31276 0.30425
 C357 C 1.16669 0.33532 0.32977
 C358 C 1.14774 0.35459 0.35092
 C359 C 1.12493 0.37739 0.37495
 C360 C 1.10534 0.39730 0.39484
 C361 C 0.70549 -0.20797 0.28080
 C362 C 0.68904 -0.18886 0.30374
 C363 C 0.66834 -0.16667 0.32986
 C364 C 0.64978 -0.14761 0.35144
 C365 C 0.62736 -0.12492 0.37576
 C366 C 0.60799 -0.10495 0.39567
 C367 C 0.70884 0.29170 -0.22082
 C368 C 0.69204 0.31136 -0.19859
 C369 C 0.67070 0.33410 -0.17335
 C370 C 0.65156 0.35348 -0.15246
 C371 C 0.62850 0.37637 -0.12871
 C372 C 0.60871 0.39632 -0.10902
 C373 C 1.20277 0.20468 -0.17951
 C374 C 1.18263 0.18598 -0.16213
 C375 C 1.15925 0.16300 -0.14334
 C376 C 1.13974 0.14249 -0.12822
 C377 C 1.11773 0.11756 -0.11121
 C378 C 1.09989 0.09558 -0.09682
 C379 C 1.20125 0.70400 0.31870
 C380 C 1.18161 0.68522 0.33664
 C381 C 1.15895 0.66215 0.35635
 C382 C 1.14004 0.64166 0.37235
 C383 C 1.11856 0.61683 0.39042
 C384 C 1.10091 0.59504 0.40556
 C385 C 0.70179 0.20415 0.31946
 C386 C 0.68211 0.18536 0.33718
 C387 C 0.65946 0.16225 0.35657
 C388 C 0.64065 0.14160 0.37227
 C389 C 0.61948 0.11650 0.38992
 C390 C 0.60226 0.09437 0.40473
 C391 C 0.70252 0.70545 -0.18185
 C392 C 0.68274 0.68658 -0.16415
 C393 C 0.66000 0.66326 -0.14493
 C394 C 0.64110 0.64245 -0.12945
 C395 C 0.61973 0.61718 -0.11205
 C396 C 0.60230 0.59499 -0.09743
 C397 C 0.79515 -0.20724 -0.18950
 C398 C 0.81396 -0.18590 -0.17459
 C399 C 0.83539 -0.16106 -0.15600
 C400 C 0.85326 -0.13994 -0.13955
 C401 C 0.87385 -0.11518 -0.11987
 C402 C 0.89121 -0.09396 -0.10303
 C403 C 0.79725 0.29352 0.31392
 C404 C 0.81608 0.31459 0.32909
 C405 C 0.83732 0.33921 0.34797
 C406 C 0.85492 0.36023 0.36467
 C407 C 0.87511 0.38495 0.38457
 C408 C 0.89217 0.40620 0.40148
 C409 C 0.29731 -0.20675 0.31234
 C410 C 0.31639 -0.18577 0.32755
 C411 C 0.33797 -0.16130 0.34656
 C412 C 0.35592 -0.14045 0.36338
 C413 C 0.37658 -0.11597 0.38343
 C414 C 0.39406 -0.09495 0.40046
 C415 C 0.29800 0.29165 -0.18845
 C416 C 0.31713 0.31274 -0.17364
 C417 C 0.33886 0.33738 -0.15528
 C418 C 0.35691 0.35842 -0.13904
 C419 C 0.37759 0.38316 -0.11961
 C420 C 0.39491 0.40442 -0.10294
 C421 C 1.20447 -0.20730 0.21837
 C422 C 1.18758 -0.18772 0.19605
 C423 C 1.16633 -0.16503 0.17064
 C424 C 1.14734 -0.14566 0.14957
 C425 C 1.12451 -0.12274 0.12562
 C426 C 1.10492 -0.10274 0.10577
 C427 C 1.20665 0.29349 0.72074
 C428 C 1.18977 0.31285 0.69827
 C429 C 1.16835 0.33521 0.67275
 C430 C 1.14911 0.35431 0.65167
 C431 C 1.12592 0.37694 0.62780
 C432 C 1.10601 0.39676 0.60809
 C433 C 0.70846 -0.20859 0.72063
 C434 C 0.69179 -0.18880 0.69839
 C435 C 0.67065 -0.16590 0.67311
 C436 C 0.65167 -0.14639 0.65218
 C437 C 0.62880 -0.12335 0.62836
 C438 C 0.60916 -0.10330 0.60860
 C439 C 0.70547 0.29229 0.21891
 C440 C 0.68902 0.31135 0.19590
 C441 C 0.66833 0.33350 0.16970
 C442 C 0.64976 0.35253 0.14805
 C443 C 0.62732 0.37519 0.12367
 C444 C 0.60790 0.39512 0.10372
 C445 C 0.80199 0.20994 0.21711
 C446 C 0.82132 0.19490 0.19246
 C447 C 0.84256 0.17464 0.16479
 C448 C 0.85983 0.15540 0.14246
 C449 C 0.87934 0.13091 0.11809
 C450 C 0.89579 0.10864 0.09895
 C451 C 0.80080 0.71186 0.71949
 C452 C 0.82049 0.69632 0.69536
 C453 C 0.84220 0.67531 0.66853
 C454 C 0.85984 0.65552 0.64694
 C455 C 0.87974 0.63057 0.62321
 C456 C 0.89639 0.60812 0.60433
 C457 C 0.30296 0.20978 0.71773
 C458 C 0.32276 0.19454 0.69353
 C459 C 0.34463 0.17405 0.66644
 C460 C 0.36243 0.15468 0.64459
 C461 C 0.38251 0.13012 0.62064
 C462 C 0.39933 0.10787 0.60170
 C463 C 0.30172 0.70889 0.21626
 C464 C 0.32147 0.69326 0.19225
 C465 C 0.34322 0.67233 0.16538
 C466 C 0.36090 0.65271 0.14363
 C467 C 0.38089 0.62802 0.11966
 C468 C 0.39769 0.60580 0.10056
   
