data_POSCAR
  _audit_creation_date              2014-09-24
  _audit_creation_method            'ToBaCCo'
  _symmetry_space_group_name_H-M    'P1'
  _symmetry_Int_Tables_number       1
  _symmetry_cell_setting            triclinic
  loop_
  _symmetry_equiv_pos_as_xyz
 x,y,z
_cell_length_a 49.2659
_cell_length_b 23.4725
_cell_length_c 21.3935
_cell_angle_alpha 90.594000
_cell_angle_beta 89.519000
_cell_angle_gamma 89.945000
loop_
  _atom_site_label
  _atom_site_type_symbol
  _atom_site_fract_x
  _atom_site_fract_y
  _atom_site_fract_z
C1 C 0.69067 0.33516 0.51066
 C2 C 0.70318 0.31977 0.56693
 C3 C 0.72952 0.29646 0.56415
 C4 C 0.74195 0.28161 0.50625
 C5 C 0.72770 0.29394 0.45093
 C6 C 0.70253 0.32157 0.45268
 C7 C 0.76872 0.25033 0.50300
 C8 C 0.78440 0.24930 0.44716
 C9 C 0.80698 0.21312 0.44020
 C10 C 0.81602 0.18309 0.49251
 C11 C 0.80301 0.18916 0.55069
 C12 C 0.77857 0.21965 0.55470
 H13 H 0.67200 0.35930 0.51157
 H14 H 0.73970 0.28839 0.60769
 H15 H 0.73550 0.28089 0.40567
 H16 H 0.77875 0.27510 0.40780
 H17 H 0.83405 0.15698 0.48910
 H18 H 0.76776 0.21942 0.59879
 C19 C 0.18528 0.80568 0.50597
 C20 C 0.19809 0.79350 0.56291
 C21 C 0.22535 0.77544 0.56148
 C22 C 0.23876 0.76313 0.50422
 C23 C 0.22449 0.77205 0.44819
 C24 C 0.19818 0.79438 0.44861
 C25 C 0.26694 0.73853 0.50214
 C26 C 0.28325 0.74436 0.44809
 C27 C 0.30777 0.71502 0.44177
 C28 C 0.31779 0.68401 0.49206
 C29 C 0.30312 0.68061 0.54877
 C30 C 0.27738 0.70683 0.55246
 H31 H 0.16561 0.82601 0.50595
 H32 H 0.23569 0.76955 0.60534
 H33 H 0.23338 0.76065 0.40342
 H34 H 0.27681 0.77044 0.40958
 H35 H 0.33763 0.66515 0.48638
 H36 H 0.26539 0.70123 0.59451
 C37 C 0.30669 0.35214 -0.51909
 C38 C 0.29511 0.32193 -0.56896
 C39 C 0.27114 0.29124 -0.55902
 C40 C 0.25748 0.29352 -0.50075
 C41 C 0.26963 0.32415 -0.45118
 C42 C 0.29483 0.35109 -0.45920
 C43 C 0.23115 0.26260 -0.49175
 C44 C 0.22337 0.24131 -0.43276
 C45 C 0.19924 0.21011 -0.42492
 C46 C 0.18297 0.19926 -0.47756
 C47 C 0.19002 0.22101 -0.53626
 C48 C 0.21363 0.25361 -0.54264
 H49 H 0.32544 0.37497 -0.52692
 H50 H 0.26327 0.26568 -0.59716
 H51 H 0.25990 0.32641 -0.40571
 H52 H 0.23639 0.24743 -0.39277
 H53 H 0.16375 0.17752 -0.47263
 H54 H 0.21822 0.27182 -0.58778
 C55 C -0.19260 0.84247 -0.51426
 C56 C -0.20026 0.80742 -0.56481
 C57 C -0.22062 0.76658 -0.55520
 C58 C -0.23551 0.76448 -0.49856
 C59 C -0.22702 0.79980 -0.44850
 C60 C -0.20461 0.83617 -0.45496
 C61 C -0.26013 0.72690 -0.49288
 C62 C -0.27042 0.71015 -0.43397
 C63 C -0.29499 0.68033 -0.42912
 C64 C -0.30820 0.66211 -0.48356
 C65 C -0.29822 0.67702 -0.54269
 C66 C -0.27461 0.71003 -0.54681
 H67 H -0.17650 0.87302 -0.52008
 H68 H -0.22518 0.73737 -0.59308
 H69 H -0.23742 0.79917 -0.40387
 H70 H -0.26007 0.72147 -0.39130
 H71 H -0.32626 0.63619 -0.47931
 H72 H -0.26831 0.72396 -0.59268
 O73 O -0.04753 0.89964 0.09603
 O74 O -0.07064 0.95879 0.03034
 C75 C -0.06974 0.92146 0.07446
 O76 O 0.03742 1.08200 0.12516
 O77 O 0.06777 1.02273 0.07487
 C78 C 0.06164 1.06122 0.11637
 O79 O -0.03812 1.09206 0.10818
 O80 O -0.06602 1.05090 0.03518
 C81 C -0.06184 1.08261 0.08404
 O82 O 0.02703 0.87647 0.11311
 O83 O 0.06292 0.92515 0.07008
 C84 C 0.05275 0.88707 0.10708
 Zr85 Zr -0.00665 0.91717 0.07216
 O86 O -0.01093 0.91036 0.17035
 O87 O -0.01185 0.82859 0.05850
 Zr88 Zr 0.00056 1.06119 0.07956
 O89 O -0.00406 1.06853 0.17763
 O90 O 0.00439 1.15050 0.07230
 O91 O -0.02731 0.99434 0.08064
 O92 O 0.01918 0.98355 0.09501
 O93 O 0.04170 0.88257 -0.10349
 O94 O 0.07024 0.92839 -0.03532
 C95 C 0.06557 0.89259 -0.08047
 O96 O -0.02341 1.09817 -0.12247
 O97 O -0.05935 1.05244 -0.07582
 C98 C -0.04914 1.08730 -0.11631
 O99 O 0.05153 1.08685 -0.09318
 O100 O 0.07464 1.02454 -0.03094
 C101 C 0.07377 1.06479 -0.07186
 O102 O -0.03204 0.90579 -0.13434
 O103 O -0.06332 0.96081 -0.08135
 C104 C -0.05633 0.92597 -0.12612
 Zr105 Zr 0.00360 0.92021 -0.08237
 O106 O 0.01232 0.91430 -0.17915
 O107 O -0.00407 0.83145 -0.08092
 Zr108 Zr 0.01057 1.06424 -0.07520
 O109 O 0.01987 1.06970 -0.17171
 O110 O 0.01191 1.15416 -0.06685
 Zr111 Zr -0.03791 0.99987 -0.01445
 Zr112 Zr 0.04192 0.98141 0.01132
 O113 O 0.03075 0.98719 -0.08323
 O114 O -0.01554 0.99785 -0.09896
 O115 O 0.02211 0.90228 0.00214
 O116 O -0.01767 1.07831 -0.00475
 O117 O -0.02573 0.91404 -0.01332
 O118 O 0.03028 1.06789 0.01051
 H119 H 0.02852 0.97988 0.13560
 H120 H -0.02864 1.11364 -0.00688
 H121 H 0.04472 0.98531 -0.11675
 H122 H -0.03983 0.88441 -0.01919
 H123 H 0.00180 1.16585 0.11524
 H124 H 0.02683 1.16389 -0.03795
 H125 H 0.00653 1.04594 -0.19434
 H126 H 0.00607 0.95023 -0.19789
 H127 H 0.01022 0.81359 -0.05539
 H128 H -0.01559 0.81272 0.10043
 H129 H -0.02336 0.94113 0.18443
 H130 H -0.00588 1.02940 0.19359
 O131 O 0.45485 0.40402 0.09790
 O132 O 0.43024 0.45519 0.02722
 C133 C 0.43210 0.42080 0.07393
 O134 O 0.53185 0.60127 0.11961
 O135 O 0.56517 0.54470 0.07606
 C136 C 0.55680 0.58414 0.11464
 O137 O 0.45690 0.59741 0.09875
 O138 O 0.43114 0.54803 0.02766
 C139 C 0.43381 0.58294 0.07451
 O140 O 0.53026 0.39390 0.11783
 O141 O 0.56462 0.44705 0.07441
 C142 C 0.55556 0.40861 0.11250
 Zr143 Zr 0.49530 0.42665 0.07396
 O144 O 0.49084 0.42180 0.17228
 O145 O 0.49349 0.33708 0.06412
 Zr146 Zr 0.49669 0.57132 0.07413
 O147 O 0.49180 0.58015 0.17203
 O148 O 0.49681 0.66068 0.06323
 O149 O 0.47153 0.50010 0.07764
 O150 O 0.51816 0.49814 0.09451
 O151 O 0.54627 0.39291 -0.09772
 O152 O 0.57233 0.44574 -0.03026
 C153 C 0.56947 0.40781 -0.07422
 O154 O 0.47392 0.59384 -0.13306
 O155 O 0.43929 0.54642 -0.08368
 C156 C 0.44858 0.57967 -0.12683
 O157 O 0.54806 0.59825 -0.09742
 O158 O 0.57323 0.54368 -0.03098
 C159 C 0.57098 0.58183 -0.07407
 O160 O 0.47207 0.40168 -0.13226
 O161 O 0.43849 0.45424 -0.08404
 C162 C 0.44711 0.41873 -0.12657
 Zr163 Zr 0.50676 0.42494 -0.08011
 O164 O 0.51682 0.41780 -0.17622
 O165 O 0.50265 0.33529 -0.07510
 Zr166 Zr 0.50810 0.56973 -0.07996
 O167 O 0.51821 0.57540 -0.17593
 O168 O 0.50535 0.65970 -0.07431
 Zr169 Zr 0.46162 0.49983 -0.01809
 Zr170 Zr 0.54181 0.49664 0.01212
 O171 O 0.53131 0.49630 -0.08316
 O172 O 0.48487 0.49811 -0.10139
 O173 O 0.52516 0.41403 0.00601
 O174 O 0.47867 0.58176 -0.01179
 O175 O 0.47713 0.41659 -0.01202
 O176 O 0.52677 0.58050 0.00627
 H177 H 0.52706 0.49789 0.13585
 H178 H 0.46636 0.61483 -0.01658
 H179 H 0.54563 0.49544 -0.11591
 H180 H 0.46428 0.38442 -0.01682
 H181 H 0.49335 0.67705 0.10542
 H182 H 0.52035 0.67329 -0.04752
 H183 H 0.50944 0.54278 -0.19718
 H184 H 0.50670 0.44791 -0.19808
 H185 H 0.51703 0.32110 -0.04720
 H186 H 0.49001 0.32226 0.10662
 H187 H 0.47739 0.45100 0.18522
 H188 H 0.48248 0.54541 0.18646
 C189 C 0.30908 0.31909 0.36968
 C190 C 0.32264 0.36619 0.34543
 C191 C 0.34136 0.36314 0.29121
 C192 C 0.34626 0.41269 0.25687
 C193 C 0.36624 0.41336 0.21021
 C194 C 0.38206 0.36458 0.19769
 C195 C 0.37698 0.31481 0.23153
 C196 C 0.35660 0.31381 0.27749
 C197 C 0.40570 0.36695 0.15479
 C198 C 0.40649 0.40315 0.10360
 H199 H 0.31974 0.40735 0.36797
 H200 H 0.33507 0.45144 0.26733
 H201 H 0.37019 0.45296 0.18631
 H202 H 0.38922 0.27705 0.22333
 H203 H 0.35378 0.27536 0.30426
 H204 H 0.42350 0.34207 0.16611
 H205 H 0.30853 0.27954 0.34321
 H206 H 0.38802 0.42390 0.08877
 C207 C -0.18742 0.81044 0.37623
 C208 C -0.17193 0.85697 0.35662
 C209 C -0.15553 0.85649 0.29855
 C210 C -0.15014 0.90828 0.26884
 C211 C -0.13225 0.91038 0.21798
 C212 C -0.11903 0.86069 0.19653
 C213 C -0.12470 0.80874 0.22569
 C214 C -0.14300 0.80646 0.27594
 C215 C -0.09690 0.86348 0.14969
 C216 C -0.09555 0.90568 0.10439
 H217 H -0.17256 0.89658 0.38288
 H218 H -0.15927 0.94748 0.28607
 H219 H -0.12771 0.95142 0.19783
 H220 H -0.11438 0.77014 0.21063
 H221 H -0.14624 0.76613 0.29891
 H222 H -0.08016 0.83386 0.15407
 H223 H -0.19063 0.77600 0.34297
 H224 H -0.11323 0.93166 0.09518
 C225 C 0.68791 0.65928 0.39897
 C226 C 0.66009 0.64813 0.39659
 C227 C 0.64560 0.63196 0.33866
 C228 C 0.61750 0.64099 0.33641
 C229 C 0.60281 0.62603 0.28326
 C230 C 0.61593 0.60156 0.23081
 C231 C 0.64392 0.59082 0.23365
 C232 C 0.65871 0.60613 0.28692
 C233 C 0.60052 0.58411 0.17454
 C234 C 0.57602 0.60988 0.15872
 H235 H 0.64784 0.65542 0.43815
 H236 H 0.60683 0.65969 0.37609
 H237 H 0.58107 0.63251 0.28424
 H238 H 0.65436 0.57064 0.19452
 H239 H 0.68019 0.59665 0.28776
 H240 H 0.60818 0.54896 0.14628
 H241 H 0.69968 0.65895 0.35604
 H242 H 0.56910 0.64704 0.18462
 C243 C 0.17217 1.21239 0.40923
 C244 C 0.15753 1.16215 0.40032
 C245 C 0.13871 1.15331 0.34776
 C246 C 0.13462 1.09789 0.32468
 C247 C 0.11618 1.08769 0.27664
 C248 C 0.10110 1.13276 0.25149
 C249 C 0.10478 1.18806 0.27536
 C250 C 0.12363 1.19844 0.32269
 C251 C 0.08042 1.12221 0.20309
 C252 C 0.08364 1.07955 0.15787
 H253 H 0.16101 1.12673 0.43135
 H254 H 0.14570 1.06236 0.34399
 H255 H 0.11318 1.04428 0.26056
 H256 H 0.09304 1.22322 0.25734
 H257 H 0.12580 1.24140 0.34081
 H258 H 0.06239 1.14865 0.20305
 H259 H 0.17174 1.24491 0.37371
 H260 H 0.10275 1.05686 0.15433
 C261 C 0.68967 0.32519 -0.37475
 C262 C 0.66135 0.32947 -0.36948
 C263 C 0.64600 0.32860 -0.30983
 C264 C 0.65583 0.35305 -0.25416
 C265 C 0.63906 0.35643 -0.20075
 C266 C 0.61235 0.33496 -0.20237
 C267 C 0.60326 0.30837 -0.25733
 C268 C 0.61974 0.30578 -0.31047
 C269 C 0.59234 0.34264 -0.15079
 C270 C 0.59426 0.38377 -0.10337
 H271 H 0.64912 0.32648 -0.41110
 H272 H 0.67595 0.37146 -0.25255
 H273 H 0.64695 0.37662 -0.15906
 H274 H 0.58284 0.29146 -0.26009
 H275 H 0.61171 0.28662 -0.35274
 H276 H 0.57300 0.32125 -0.15641
 H277 H 0.70116 0.31923 -0.33234
 H278 H 0.61330 0.40496 -0.09411
 C279 C 0.18417 0.79802 -0.37935
 C280 C 0.15577 0.79738 -0.37490
 C281 C 0.14016 0.80012 -0.31570
 C282 C 0.14967 0.82849 -0.26201
 C283 C 0.13266 0.83561 -0.20957
 C284 C 0.10592 0.81422 -0.21013
 C285 C 0.09712 0.78372 -0.26290
 C286 C 0.11392 0.77715 -0.31512
 C287 C 0.08552 0.82665 -0.16047
 C288 C 0.08914 0.86503 -0.11095
 H289 H 0.14395 0.78937 -0.41645
 H290 H 0.16972 0.84729 -0.26138
 H291 H 0.14038 0.85915 -0.16990
 H292 H 0.07669 0.76675 -0.26484
 H293 H 0.10612 0.75506 -0.35590
 H294 H 0.06525 0.81016 -0.16798
 H295 H 0.19572 0.79617 -0.33654
 H296 H 0.10909 0.88072 -0.09920
 C297 C 0.31378 0.65436 -0.39753
 C298 C 0.33816 0.62341 -0.39684
 C299 C 0.35359 0.61069 -0.33955
 C300 C 0.38174 0.60311 -0.34552
 C301 C 0.39773 0.59423 -0.29310
 C302 C 0.38590 0.59241 -0.23321
 C303 C 0.35758 0.59718 -0.22724
 C304 C 0.34150 0.60675 -0.27990
 C305 C 0.40269 0.58306 -0.17724
 C306 C 0.42976 0.60054 -0.17434
 H307 H 0.34815 0.61175 -0.44017
 H308 H 0.39154 0.60512 -0.39098
 H309 H 0.41934 0.58815 -0.29982
 H310 H 0.34794 0.59431 -0.18169
 H311 H 0.31977 0.61054 -0.27367
 H312 H 0.39366 0.56117 -0.13791
 H313 H 0.30306 0.66103 -0.35370
 H314 H 0.43813 0.62668 -0.21116
 C315 C -0.18460 1.16576 -0.39201
 C316 C -0.15635 1.16354 -0.38586
 C317 C -0.14136 1.14525 -0.32978
 C318 C -0.11303 1.15118 -0.33078
 C319 C -0.09750 1.13537 -0.27972
 C320 C -0.10996 1.11358 -0.22570
 C321 C -0.13826 1.10615 -0.22504
 C322 C -0.15391 1.12201 -0.27649
 C323 C -0.09377 1.09551 -0.17129
 C324 C -0.06742 1.11506 -0.16045
 H325 H -0.14400 1.17934 -0.42401
 H326 H -0.10273 1.16799 -0.37156
 H327 H -0.07570 1.13927 -0.28368
 H328 H -0.14828 1.08823 -0.18451
 H329 H -0.17561 1.11567 -0.27417
 H330 H -0.10258 1.06451 -0.13995
 H331 H -0.19770 1.15592 -0.35282
 H332 H -0.05887 1.14837 -0.18902
 C333 C 0.69217 0.67168 -0.36719
 C334 C 0.66441 0.68170 -0.35940
 C335 C 0.64931 0.67683 -0.29976
 C336 C 0.65718 0.63971 -0.25200
 C337 C 0.64024 0.63152 -0.19978
 C338 C 0.61529 0.66073 -0.19450
 C339 C 0.60830 0.69963 -0.24106
 C340 C 0.62496 0.70721 -0.29319
 C341 C 0.59460 0.64878 -0.14564
 C342 C 0.59605 0.60515 -0.10185
 H343 H 0.65313 0.69691 -0.39922
 H344 H 0.67571 0.61513 -0.25620
 H345 H 0.64644 0.60112 -0.16511
 H346 H 0.58925 0.72268 -0.23846
 H347 H 0.61846 0.73606 -0.32935
 H348 H 0.57550 0.67140 -0.14942
 H349 H 0.70481 0.66397 -0.32700
 H350 H 0.61496 0.58347 -0.09290
 C351 C 0.19109 1.19384 -0.36445
 C352 C 0.17134 1.15246 -0.35285
 C353 C 0.15761 1.14646 -0.29176
 C354 C 0.14917 1.09233 -0.27258
 C355 C 0.13243 1.08634 -0.22002
 C356 C 0.12322 1.13468 -0.18675
 C357 C 0.13211 1.18877 -0.20514
 C358 C 0.14953 1.19463 -0.25671
 C359 C 0.10159 1.12963 -0.13894
 C360 C 0.09972 1.08277 -0.09971
 H361 H 0.16559 1.12288 -0.38955
 H362 H 0.15484 1.05476 -0.29952
 H363 H 0.12535 1.04418 -0.20789
 H364 H 0.12491 1.22658 -0.18071
 H365 H 0.15527 1.23697 -0.27143
 H366 H 0.08551 1.16117 -0.13844
 H367 H 0.20060 1.21420 -0.32452
 H368 H 0.11702 1.05464 -0.09520
 C369 C 0.30904 0.37500 -0.40386
 C370 C 0.33740 0.37800 -0.40157
 C371 C 0.35341 0.39215 -0.34519
 C372 C 0.38130 0.38001 -0.34681
 C373 C 0.39746 0.39028 -0.29479
 C374 C 0.38608 0.41281 -0.23937
 C375 C 0.35839 0.42720 -0.23833
 C376 C 0.34212 0.41684 -0.29065
 C377 C 0.40286 0.42423 -0.18347
 C378 C 0.42790 0.39788 -0.17364
 H379 H 0.34898 0.36387 -0.44200
 H380 H 0.39069 0.36206 -0.38856
 H381 H 0.41893 0.38125 -0.29889
 H382 H 0.34930 0.44612 -0.19676
 H383 H 0.32091 0.42850 -0.28805
 H384 H 0.39553 0.45540 -0.14968
 H385 H 0.29715 0.38360 -0.36212
 H386 H 0.43485 0.36420 -0.20472
 C387 C -0.19327 0.86496 -0.39863
 C388 C -0.16573 0.87940 -0.39512
 C389 C -0.15115 0.89832 -0.33821
 C390 C -0.12307 0.90717 -0.34385
 C391 C -0.10744 0.91961 -0.29160
 C392 C -0.11947 0.92331 -0.23200
 C393 C -0.14775 0.91800 -0.22634
 C394 C -0.16354 0.90519 -0.27898
 C395 C -0.10249 0.93258 -0.17610
 C396 C -0.07646 0.90928 -0.17303
 H397 H -0.15302 0.87177 -0.43576
 H398 H -0.11297 0.90322 -0.38888
 H399 H -0.08584 0.92600 -0.29798
 H400 H -0.15750 0.92189 -0.18092
 H401 H -0.18515 0.89967 -0.27253
 H402 H -0.11051 0.95756 -0.13731
 H403 H -0.20610 0.86866 -0.35757
 H404 H -0.06969 0.88025 -0.20965
 C405 C 0.32290 0.71643 0.38201
 C406 C 0.33387 0.66652 0.35647
 C407 C 0.35075 0.66459 0.29920
 C408 C 0.35248 0.61327 0.26527
 C409 C 0.37052 0.60767 0.21493
 C410 C 0.38749 0.65326 0.19814
 C411 C 0.38542 0.70494 0.23137
 C412 C 0.36704 0.71083 0.28119
 C413 C 0.40968 0.64548 0.15204
 C414 C 0.40887 0.60464 0.10434
 H415 H 0.32950 0.62647 0.37924
 H416 H 0.34035 0.57687 0.27881
 H417 H 0.37215 0.56668 0.19159
 H418 H 0.39861 0.74028 0.21986
 H419 H 0.36663 0.75053 0.30735
 H420 H 0.42810 0.66990 0.15889
 H421 H 0.32364 0.75573 0.35601
 H422 H 0.38986 0.58416 0.09265
 C423 C -0.17940 1.20914 0.38214
 C424 C -0.16300 1.16265 0.36530
 C425 C -0.14585 1.16085 0.30855
 C426 C -0.14185 1.10849 0.27772
 C427 C -0.12296 1.10353 0.22901
 C428 C -0.10720 1.15066 0.21125
 C429 C -0.11140 1.20326 0.24158
 C430 C -0.13089 1.20860 0.28934
 C431 C -0.08451 1.14361 0.16628
 C432 C -0.08603 1.10566 0.11598
 H433 H -0.16368 1.12424 0.39283
 H434 H -0.15289 1.07098 0.29247
 H435 H -0.11968 1.06207 0.20760
 H436 H -0.09920 1.23987 0.22916
 H437 H -0.13322 1.24914 0.31342
 H438 H -0.06572 1.16609 0.17527
 H439 H -0.18294 1.24154 0.34738
 H440 H -0.10555 1.08791 0.10333
 C441 C 0.68893 0.33573 0.39320
 C442 C 0.66071 0.33960 0.38865
 C443 C 0.64606 0.35473 0.33097
 C444 C 0.61830 0.34220 0.32780
 C445 C 0.60318 0.35735 0.27573
 C446 C 0.61553 0.38543 0.22513
 C447 C 0.64324 0.39890 0.22863
 C448 C 0.65845 0.38358 0.28092
 C449 C 0.59962 0.40442 0.17058
 C450 C 0.57452 0.38084 0.15514
 H451 H 0.64842 0.32832 0.42884
 H452 H 0.60812 0.32105 0.36619
 H453 H 0.58167 0.34838 0.27656
 H454 H 0.65310 0.42171 0.19099
 H455 H 0.67961 0.39569 0.28249
 H456 H 0.60738 0.43962 0.14341
 H457 H 0.70140 0.33977 0.35162
 H458 H 0.56713 0.34382 0.17966
 C459 C 0.18480 0.80653 0.38836
 C460 C 0.15661 0.80670 0.38191
 C461 C 0.14232 0.82203 0.32380
 C462 C 0.11483 0.80759 0.31853
 C463 C 0.09994 0.82370 0.26642
 C464 C 0.11228 0.85469 0.21791
 C465 C 0.13978 0.86943 0.22326
 C466 C 0.15472 0.85328 0.27557
 C467 C 0.09661 0.87613 0.16409
 C468 C 0.07104 0.85537 0.14792
 H469 H 0.14417 0.79316 0.42097
 H470 H 0.10466 0.78444 0.35548
 H471 H 0.07859 0.81330 0.26582
 H472 H 0.14965 0.89431 0.18726
 H473 H 0.17563 0.86685 0.27866
 H474 H 0.10488 0.91189 0.13858
 H475 H 0.19762 0.81289 0.34774
 H476 H 0.06275 0.81841 0.17093
   
