data_POSCAR
  _audit_creation_date              2014-09-24
  _audit_creation_method            'ToBaCCo'
  _symmetry_space_group_name_H-M    'P1'
  _symmetry_Int_Tables_number       1
  _symmetry_cell_setting            triclinic
  loop_
  _symmetry_equiv_pos_as_xyz
 x,y,z
_cell_length_a 56.0192
_cell_length_b 22.5561
_cell_length_c 23.2566
_cell_angle_alpha 91.568200
_cell_angle_beta 89.716700
_cell_angle_gamma 89.077300
loop_
  _atom_site_label
  _atom_site_type_symbol
  _atom_site_fract_x
  _atom_site_fract_y
  _atom_site_fract_z
C1 C 0.70494 0.29175 0.57024
 C2 C 0.69147 0.29444 0.51953
 C3 C 0.70224 0.29424 0.46528
 C4 C 0.72722 0.28568 0.46044
 C5 C 0.74131 0.28129 0.51075
 C6 C 0.73027 0.28566 0.56591
 C7 C 0.74480 0.28107 0.61480
 C8 C 0.76951 0.27639 0.61000
 C9 C 0.78087 0.27036 0.55603
 C10 C 0.76654 0.27278 0.50574
 C11 C 0.73839 0.28114 0.40635
 C12 C 0.76292 0.27369 0.40145
 C13 C 0.77736 0.26787 0.45033
 C14 C 0.80251 0.26127 0.44522
 C15 C 0.81634 0.26359 0.49524
 C16 C 0.80620 0.26568 0.55061
 H17 H 0.73737 0.28117 0.65773
 H18 H 0.77951 0.27824 0.64956
 H19 H 0.72828 0.28325 0.36694
 H20 H 0.77044 0.27390 0.35856
 H21 H 0.67229 0.30168 0.52236
 H22 H 0.83549 0.25665 0.49108
 C23 C 0.29503 0.68325 0.44176
 C24 C 0.30628 0.67426 0.49424
 C25 C 0.29373 0.67826 0.54651
 C26 C 0.26882 0.69108 0.54625
 C27 C 0.25728 0.70215 0.49330
 C28 C 0.27051 0.69873 0.44099
 C29 C 0.25901 0.71163 0.38923
 C30 C 0.23489 0.72626 0.38839
 C31 C 0.22131 0.72903 0.43934
 C32 C 0.23246 0.71674 0.49246
 C33 C 0.25515 0.69354 0.59712
 C34 C 0.23059 0.70468 0.59595
 C35 C 0.21883 0.71820 0.54440
 C36 C 0.19368 0.72956 0.54219
 C37 C 0.18325 0.74064 0.48858
 C38 C 0.19669 0.74259 0.43812
 H39 H 0.26857 0.71085 0.34867
 H40 H 0.22693 0.73452 0.34703
 H41 H 0.26317 0.68592 0.63848
 H42 H 0.22100 0.70174 0.63612
 H43 H 0.32517 0.66285 0.49430
 H44 H 0.16437 0.75192 0.48632
 C45 C 0.29316 0.30344 -0.54831
 C46 C 0.30481 0.30799 -0.49551
 C47 C 0.29237 0.30424 -0.44349
 C48 C 0.26747 0.29422 -0.44427
 C49 C 0.25537 0.28929 -0.49771
 C50 C 0.26828 0.29448 -0.54989
 C51 C 0.25593 0.29247 -0.60221
 C52 C 0.23132 0.28577 -0.60346
 C53 C 0.21806 0.27870 -0.55256
 C54 C 0.23023 0.28087 -0.49893
 C55 C 0.25434 0.28951 -0.39314
 C56 C 0.22976 0.28234 -0.39416
 C57 C 0.21728 0.27689 -0.44643
 C58 C 0.19203 0.27222 -0.44763
 C59 C 0.18038 0.27367 -0.50082
 C60 C 0.19278 0.27448 -0.55335
 H61 H 0.26515 0.29755 -0.64276
 H62 H 0.22279 0.28806 -0.64492
 H63 H 0.26286 0.29223 -0.35155
 H64 H 0.22063 0.28297 -0.35311
 H65 H 0.32384 0.31627 -0.49493
 H66 H 0.16118 0.26792 -0.50165
 C67 C -0.29151 0.67311 -0.44801
 C68 C -0.30340 0.66344 -0.50027
 C69 C -0.29339 0.67801 -0.55338
 C70 C -0.27037 0.70356 -0.55441
 C71 C -0.25754 0.71145 -0.50228
 C72 C -0.26801 0.69585 -0.44903
 C73 C -0.25421 0.70051 -0.39872
 C74 C -0.23138 0.72368 -0.39981
 C75 C -0.22132 0.74294 -0.45127
 C76 C -0.23428 0.73610 -0.50323
 C77 C -0.26060 0.72569 -0.60526
 C78 C -0.23810 0.75068 -0.60597
 C79 C -0.22414 0.75435 -0.55600
 C80 C -0.20109 0.77999 -0.55632
 C81 C -0.18904 0.78757 -0.50397
 C82 C -0.19847 0.76827 -0.45228
 H83 H -0.26077 0.68539 -0.35794
 H84 H -0.22170 0.72660 -0.35969
 H85 H -0.27051 0.72582 -0.64499
 H86 H -0.23207 0.76854 -0.64609
 H87 H -0.32124 0.64535 -0.49955
 H88 H -0.17123 0.80586 -0.50362
 O89 O -0.03430 0.91788 0.10974
 O90 O -0.05933 0.97357 0.05391
 C91 C -0.05521 0.93877 0.09624
 O92 O 0.03798 1.11102 0.09576
 O93 O 0.06260 1.04694 0.04443
 C94 C 0.05897 1.09022 0.08142
 O95 O -0.02845 1.12032 0.10224
 O96 O -0.05652 1.06958 0.05012
 C97 C -0.05037 1.10860 0.08909
 O98 O 0.03199 0.89465 0.09919
 O99 O 0.05984 0.94417 0.04690
 C100 C 0.05383 0.90553 0.08454
 Zr101 Zr -0.00039 0.93376 0.07247
 O102 O 0.00235 0.93185 0.16308
 O103 O -0.00460 0.84088 0.06644
 Zr104 Zr 0.00378 1.08353 0.06923
 O105 O 0.00665 1.08859 0.15997
 O106 O 0.00366 1.17723 0.06543
 O107 O -0.01927 1.01375 0.08308
 O108 O 0.02233 1.00492 0.08117
 O109 O 0.03224 0.88728 -0.10140
 O110 O 0.05974 0.94082 -0.05004
 C111 C 0.05413 0.90038 -0.08795
 O112 O -0.03028 1.10661 -0.10872
 O113 O -0.05744 1.06191 -0.05065
 C114 C -0.05206 1.09544 -0.09299
 O115 O 0.03712 1.10117 -0.10421
 O116 O 0.06227 1.04167 -0.05270
 C117 C 0.05826 1.08186 -0.09046
 O118 O -0.03471 0.90482 -0.10435
 O119 O -0.05942 0.96515 -0.04894
 C120 C -0.05572 0.92531 -0.08941
 Zr121 Zr -0.00062 0.92642 -0.07172
 O122 O 0.00129 0.91683 -0.16236
 O123 O -0.00515 0.83386 -0.06485
 Zr124 Zr 0.00293 1.07617 -0.07542
 O125 O 0.00552 1.07306 -0.16629
 O126 O 0.00224 1.17006 -0.07600
 Zr127 Zr -0.03408 1.01228 -0.00005
 Zr128 Zr 0.03699 0.99814 -0.00217
 O129 O 0.02170 0.99688 -0.08481
 O130 O -0.01999 1.00479 -0.08429
 O131 O 0.02070 0.91465 0.00010
 O132 O -0.01721 1.09480 -0.00266
 O133 O -0.02186 0.92373 0.00133
 O134 O 0.02503 1.08718 -0.00408
 H135 H 0.03308 1.00427 0.11485
 H136 H -0.02727 1.13131 -0.00350
 H137 H 0.03211 0.99338 -0.11934
 H138 H -0.03392 0.89212 0.00286
 H139 H 0.01791 1.18852 0.04324
 H140 H 0.01661 1.18407 -0.05550
 H141 H -0.00772 1.04850 -0.18093
 H142 H -0.00882 0.94864 -0.17832
 H143 H 0.00855 0.81824 -0.04287
 H144 H -0.00514 0.82720 0.10653
 H145 H -0.00596 0.96785 0.17861
 H146 H -0.00719 1.06793 0.17618
 O147 O 0.46210 0.41598 0.11511
 O148 O 0.43850 0.46494 0.05060
 C149 C 0.44159 0.43460 0.09665
 O150 O 0.53412 0.60771 0.09400
 O151 O 0.56037 0.54008 0.05261
 C152 C 0.55548 0.58592 0.08582
 O153 O 0.46757 0.61548 0.08999
 O154 O 0.44104 0.56003 0.03754
 C155 C 0.44602 0.60153 0.07515
 O156 O 0.52840 0.39638 0.11880
 O157 O 0.55758 0.43943 0.06515
 C158 C 0.55062 0.40633 0.10665
 Zr159 Zr 0.49669 0.43010 0.08175
 O160 O 0.49665 0.43850 0.17259
 O161 O 0.49309 0.33710 0.08435
 Zr162 Zr 0.50083 0.57835 0.06319
 O163 O 0.50111 0.59854 0.15254
 O164 O 0.50088 0.67006 0.04585
 O165 O 0.47751 0.51003 0.08074
 O166 O 0.51894 0.50220 0.08655
 O167 O 0.53345 0.36486 -0.08086
 O168 O 0.55993 0.42341 -0.03139
 C169 C 0.55499 0.37949 -0.06626
 O170 O 0.47268 0.58222 -0.12124
 O171 O 0.44359 0.54376 -0.06416
 C172 C 0.45047 0.57319 -0.10827
 O173 O 0.53924 0.57353 -0.10927
 O174 O 0.56253 0.52210 -0.04604
 C175 C 0.55971 0.55433 -0.09084
 O176 O 0.46738 0.38162 -0.09714
 O177 O 0.44090 0.44680 -0.05290
 C178 C 0.44598 0.40305 -0.08859
 Zr179 Zr 0.50021 0.40665 -0.06038
 O180 O 0.50460 0.38524 -0.14894
 O181 O 0.49511 0.31591 -0.04352
 Zr182 Zr 0.50436 0.55498 -0.07928
 O183 O 0.50876 0.54478 -0.16944
 O184 O 0.50455 0.64851 -0.08530
 Zr185 Zr 0.46481 0.49913 -0.00406
 Zr186 Zr 0.53610 0.48603 0.00686
 O187 O 0.52290 0.47512 -0.07745
 O188 O 0.48155 0.48280 -0.08456
 O189 O 0.51969 0.40329 0.01535
 O190 O 0.48183 0.58098 -0.01242
 O191 O 0.47699 0.41186 0.00884
 O192 O 0.52452 0.57405 -0.00619
 H193 H 0.52844 0.50557 0.12226
 H194 H 0.47174 0.61684 -0.01799
 H195 H 0.53383 0.46700 -0.11044
 H196 H 0.46492 0.38037 0.01144
 H197 H 0.51681 0.67948 0.03030
 H198 H 0.51998 0.66259 -0.07010
 H199 H 0.49723 0.51479 -0.18292
 H200 H 0.49632 0.41668 -0.17033
 H201 H 0.50864 0.30248 -0.01967
 H202 H 0.49174 0.32770 0.12559
 H203 H 0.48691 0.47412 0.18309
 H204 H 0.48972 0.57174 0.17080
 C205 C 0.33274 0.27068 0.32253
 C206 C 0.33935 0.32828 0.30604
 C207 C 0.32898 0.37748 0.33696
 C208 C 0.31322 0.36883 0.38290
 C209 C 0.30758 0.31167 0.39933
 C210 C 0.31713 0.26276 0.36865
 C211 C 0.33475 0.43512 0.32280
 C212 C 0.35163 0.44542 0.28062
 C213 C 0.36353 0.39813 0.25079
 C214 C 0.35643 0.33875 0.26153
 C215 C 0.36687 0.29197 0.22793
 C216 C 0.38447 0.30239 0.18726
 C217 C 0.39271 0.35952 0.17908
 C218 C 0.38240 0.40829 0.21079
 C219 C 0.39221 0.46497 0.20304
 C220 C 0.41114 0.47259 0.16512
 C221 C 0.42071 0.42475 0.13307
 C222 C 0.41164 0.36809 0.14029
 H223 H 0.33981 0.23078 0.30196
 H224 H 0.30577 0.40660 0.40713
 H225 H 0.31293 0.21825 0.38137
 H226 H 0.32643 0.47284 0.34534
 H227 H 0.35486 0.49132 0.27216
 H228 H 0.36177 0.24644 0.23180
 H229 H 0.39210 0.26501 0.16286
 H230 H 0.38642 0.50395 0.22734
 H231 H 0.41908 0.51577 0.16254
 H232 H 0.41962 0.33071 0.11651
 C233 C -0.17066 0.76904 0.30062
 C234 C -0.15814 0.82315 0.29970
 C235 C -0.16264 0.86494 0.34523
 C236 C -0.17746 0.85095 0.39147
 C237 C -0.18894 0.79620 0.39316
 C238 C -0.18577 0.75598 0.34653
 C239 C -0.15195 0.92021 0.34531
 C240 C -0.13617 0.93469 0.30206
 C241 C -0.12990 0.89362 0.25738
 C242 C -0.14099 0.83680 0.25620
 C243 C -0.13385 0.79480 0.21306
 C244 C -0.11604 0.80704 0.17347
 C245 C -0.10495 0.86194 0.17429
 C246 C -0.11221 0.90672 0.21514
 C247 C -0.10104 0.96250 0.21264
 C248 C -0.08277 0.97205 0.17334
 C249 C -0.07521 0.92708 0.13485
 C250 C -0.08638 0.87218 0.13490
 H251 H -0.16899 0.73549 0.26694
 H252 H -0.18009 0.88301 0.42669
 H253 H -0.19394 0.71278 0.34694
 H254 H -0.15561 0.95259 0.37967
 H255 H -0.12857 0.97809 0.30628
 H256 H -0.14114 0.75097 0.20981
 H257 H -0.11074 0.77284 0.14209
 H258 H -0.10584 0.99983 0.24036
 H259 H -0.07410 1.01462 0.17379
 H260 H -0.08054 0.83752 0.10452
 C261 C 0.68707 0.62455 0.30102
 C262 C 0.66311 0.64558 0.29952
 C263 C 0.65459 0.68001 0.34749
 C264 C 0.66902 0.68975 0.39573
 C265 C 0.69267 0.66856 0.39680
 C266 C 0.70157 0.63617 0.34874
 C267 C 0.63163 0.70452 0.34751
 C268 C 0.61671 0.69577 0.30088
 C269 C 0.62397 0.66054 0.25262
 C270 C 0.64726 0.63354 0.25255
 C271 C 0.65353 0.59385 0.20666
 C272 C 0.63734 0.57959 0.16342
 C273 C 0.61458 0.60557 0.16309
 C274 C 0.60810 0.64883 0.20593
 C275 C 0.58574 0.67801 0.20076
 C276 C 0.56946 0.65996 0.15911
 C277 C 0.57485 0.61253 0.12076
 C278 C 0.59792 0.58728 0.12129
 H279 H 0.69524 0.59954 0.26583
 H280 H 0.66201 0.71572 0.43219
 H281 H 0.71964 0.61827 0.34871
 H282 H 0.62506 0.73083 0.38415
 H283 H 0.59909 0.71521 0.30522
 H284 H 0.67054 0.57095 0.20421
 H285 H 0.64267 0.54751 0.13006
 H286 H 0.58018 0.71479 0.22847
 H287 H 0.55214 0.68198 0.15864
 H288 H 0.60262 0.55164 0.09089
 C289 C 0.14225 1.29029 0.34490
 C290 C 0.14705 1.24456 0.30340
 C291 C 0.16877 1.21196 0.30826
 C292 C 0.18467 1.22441 0.35357
 C293 C 0.17914 1.26842 0.39574
 C294 C 0.15783 1.30131 0.39023
 C295 C 0.17406 1.16539 0.26933
 C296 C 0.15779 1.14840 0.22729
 C297 C 0.13549 1.17789 0.22205
 C298 C 0.13049 1.22832 0.25920
 C299 C 0.10883 1.26000 0.25190
 C300 C 0.09179 1.24061 0.21309
 C301 C 0.09564 1.18928 0.17953
 C302 C 0.11773 1.15788 0.18208
 C303 C 0.12065 1.10668 0.14580
 C304 C 0.10199 1.08632 0.11110
 C305 C 0.07982 1.11597 0.11144
 C306 C 0.07710 1.16846 0.14452
 H307 H 0.12620 1.31712 0.34517
 H308 H 0.20054 1.19682 0.35825
 H309 H 0.15304 1.33580 0.42177
 H310 H 0.19073 1.14062 0.27238
 H311 H 0.16316 1.11130 0.19985
 H312 H 0.10426 1.30004 0.27594
 H313 H 0.07514 1.26553 0.21023
 H314 H 0.13686 1.08037 0.14422
 H315 H 0.10473 1.04601 0.08542
 H316 H 0.06017 1.19247 0.14448
 C317 C 0.68446 0.35090 -0.28601
 C318 C 0.66370 0.31736 -0.27625
 C319 C 0.65786 0.27319 -0.31814
 C320 C 0.67192 0.26427 -0.36776
 C321 C 0.69238 0.29785 -0.37697
 C322 C 0.69842 0.34132 -0.33549
 C323 C 0.63775 0.23861 -0.31108
 C324 C 0.62260 0.24820 -0.26439
 C325 C 0.62688 0.29332 -0.22263
 C326 C 0.64814 0.32737 -0.22770
 C327 C 0.65279 0.37113 -0.18480
 C328 C 0.63658 0.38397 -0.14069
 C329 C 0.61509 0.35393 -0.13740
 C330 C 0.61015 0.30708 -0.17725
 C331 C 0.58806 0.27802 -0.17156
 C332 C 0.57081 0.29871 -0.13213
 C333 C 0.57511 0.34802 -0.09607
 C334 C 0.59790 0.37293 -0.09644
 H335 H 0.69014 0.38595 -0.25713
 H336 H 0.66696 0.23056 -0.39950
 H337 H 0.71343 0.37001 -0.34250
 H338 H 0.63341 0.20424 -0.34265
 H339 H 0.60740 0.21971 -0.26293
 H340 H 0.66871 0.39723 -0.18449
 H341 H 0.64057 0.41935 -0.10990
 H342 H 0.58295 0.24092 -0.19860
 H343 H 0.55356 0.27769 -0.13200
 H344 H 0.60162 0.41080 -0.06834
 C345 C 0.13874 0.71512 -0.36917
 C346 C 0.14297 0.75390 -0.32166
 C347 C 0.16593 0.77925 -0.31727
 C348 C 0.18325 0.76874 -0.36067
 C349 C 0.17829 0.73255 -0.40916
 C350 C 0.15593 0.70532 -0.41201
 C351 C 0.17124 0.81679 -0.27065
 C352 C 0.15410 0.83131 -0.22900
 C353 C 0.13063 0.80950 -0.23268
 C354 C 0.12500 0.76982 -0.27961
 C355 C 0.10136 0.74927 -0.28420
 C356 C 0.08361 0.76850 -0.24592
 C357 C 0.08862 0.80816 -0.20083
 C358 C 0.11232 0.82786 -0.19235
 C359 C 0.11649 0.86638 -0.14453
 C360 C 0.09774 0.88732 -0.10943
 C361 C 0.07412 0.87063 -0.12022
 C362 C 0.06985 0.82953 -0.16512
 H363 H 0.12221 0.69221 -0.37533
 H364 H 0.19998 0.79223 -0.35849
 H365 H 0.15157 0.67633 -0.44828
 H366 H 0.18879 0.83600 -0.26671
 H367 H 0.15974 0.86139 -0.19520
 H368 H 0.09567 0.71940 -0.31809
 H369 H 0.06561 0.75274 -0.25230
 H370 H 0.13396 0.88198 -0.13328
 H371 H 0.10181 0.91827 -0.07455
 H372 H 0.05174 0.81562 -0.17368
 C373 C 0.31838 0.60920 -0.31865
 C374 C 0.33930 0.64246 -0.30873
 C375 C 0.34412 0.68923 -0.34636
 C376 C 0.32820 0.70293 -0.39056
 C377 C 0.30783 0.66900 -0.40042
 C378 C 0.30315 0.62184 -0.36438
 C379 C 0.36519 0.72093 -0.34100
 C380 C 0.38232 0.70523 -0.30104
 C381 C 0.37864 0.65824 -0.26335
 C382 C 0.35611 0.62920 -0.26460
 C383 C 0.35110 0.58845 -0.22139
 C384 C 0.36802 0.57407 -0.18037
 C385 C 0.39092 0.59734 -0.18237
 C386 C 0.39665 0.63956 -0.22407
 C387 C 0.42043 0.65977 -0.22597
 C388 C 0.43767 0.63874 -0.18809
 C389 C 0.43183 0.59745 -0.14656
 C390 C 0.40825 0.57771 -0.14345
 H391 H 0.31399 0.57121 -0.29375
 H392 H 0.33218 0.73863 -0.41926
 H393 H 0.28802 0.59358 -0.37269
 H394 H 0.36882 0.75723 -0.36922
 H395 H 0.39815 0.73175 -0.29981
 H396 H 0.33391 0.56811 -0.21725
 H397 H 0.36328 0.54347 -0.14737
 H398 H 0.42653 0.69012 -0.25766
 H399 H 0.45574 0.65464 -0.19176
 H400 H 0.40349 0.54545 -0.11186
 C401 C -0.13873 1.27820 -0.36119
 C402 C -0.14186 1.23405 -0.31998
 C403 C -0.16417 1.20528 -0.31865
 C404 C -0.18173 1.21723 -0.36002
 C405 C -0.17792 1.25930 -0.40250
 C406 C -0.15630 1.29006 -0.40165
 C407 C -0.16860 1.16339 -0.27709
 C408 C -0.15134 1.14902 -0.23687
 C409 C -0.12852 1.17482 -0.23764
 C410 C -0.12351 1.21691 -0.28084
 C411 C -0.10005 1.23847 -0.28514
 C412 C -0.08205 1.21943 -0.24887
 C413 C -0.08676 1.17952 -0.20576
 C414 C -0.11021 1.15809 -0.19821
 C415 C -0.11427 1.12054 -0.15154
 C416 C -0.09556 1.10241 -0.11641
 C417 C -0.07211 1.12047 -0.12656
 C418 C -0.06797 1.16016 -0.17070
 H419 H -0.12292 1.30459 -0.36339
 H420 H -0.19780 1.19104 -0.36103
 H421 H -0.15288 1.32372 -0.43291
 H422 H -0.18561 1.14121 -0.27574
 H423 H -0.15615 1.11549 -0.20703
 H424 H -0.09467 1.26852 -0.31778
 H425 H -0.06419 1.23609 -0.25482
 H426 H -0.13172 1.10474 -0.14063
 H427 H -0.09952 1.07316 -0.08163
 H428 H -0.05002 1.17552 -0.17839
 C429 C 0.67748 0.69878 -0.30705
 C430 C 0.66435 0.64600 -0.30182
 C431 C 0.66869 0.59983 -0.34330
 C432 C 0.68367 0.60871 -0.39071
 C433 C 0.69579 0.66217 -0.39674
 C434 C 0.69297 0.70646 -0.35354
 C435 C 0.65772 0.54526 -0.33803
 C436 C 0.64198 0.53563 -0.29316
 C437 C 0.63582 0.58125 -0.25267
 C438 C 0.64686 0.63770 -0.25764
 C439 C 0.63921 0.68467 -0.22016
 C440 C 0.62104 0.67727 -0.18010
 C441 C 0.61026 0.62245 -0.17437
 C442 C 0.61814 0.57305 -0.20908
 C443 C 0.60760 0.51759 -0.19938
 C444 C 0.58911 0.51253 -0.15972
 C445 C 0.58063 0.56190 -0.12795
 C446 C 0.59132 0.61682 -0.13479
 H447 H 0.67614 0.73504 -0.27601
 H448 H 0.68608 0.57354 -0.42311
 H449 H 0.70179 0.74860 -0.35723
 H450 H 0.66123 0.50952 -0.36922
 H451 H 0.63412 0.49239 -0.29311
 H452 H 0.64621 0.72874 -0.22243
 H453 H 0.61527 0.71511 -0.15353
 H454 H 0.61314 0.47715 -0.22163
 H455 H 0.58080 0.46991 -0.15509
 H456 H 0.58481 0.65501 -0.10970
 C457 C 0.14057 1.28319 -0.34608
 C458 C 0.14546 1.23691 -0.30780
 C459 C 0.16722 1.20459 -0.31538
 C460 C 0.18320 1.21834 -0.35973
 C461 C 0.17779 1.26360 -0.39819
 C462 C 0.15629 1.29566 -0.39050
 C463 C 0.17255 1.15728 -0.28000
 C464 C 0.15630 1.13942 -0.23883
 C465 C 0.13403 1.16880 -0.23090
 C466 C 0.12901 1.21997 -0.26420
 C467 C 0.10751 1.25196 -0.25353
 C468 C 0.09064 1.23231 -0.21508
 C469 C 0.09446 1.18025 -0.18549
 C470 C 0.11635 1.14821 -0.19171
 C471 C 0.11917 1.09587 -0.15980
 C472 C 0.10067 1.07547 -0.12531
 C473 C 0.07881 1.10633 -0.12151
 C474 C 0.07611 1.15946 -0.15064
 H475 H 0.12437 1.30947 -0.34446
 H476 H 0.19918 1.19118 -0.36652
 H477 H 0.15154 1.33089 -0.41930
 H478 H 0.18926 1.13273 -0.28514
 H479 H 0.16175 1.10201 -0.21399
 H480 H 0.10302 1.29263 -0.27437
 H481 H 0.07414 1.25765 -0.20938
 H482 H 0.13515 1.06868 -0.16169
 H483 H 0.10324 1.03428 -0.10311
 H484 H 0.05938 1.18424 -0.14730
 C485 C 0.31563 0.37427 -0.30522
 C486 C 0.33596 0.33835 -0.29377
 C487 C 0.34093 0.28948 -0.33193
 C488 C 0.32594 0.27709 -0.37873
 C489 C 0.30614 0.31350 -0.38970
 C490 C 0.30115 0.36218 -0.35277
 C491 C 0.36119 0.25405 -0.32420
 C492 C 0.37747 0.26777 -0.28131
 C493 C 0.37385 0.31713 -0.24344
 C494 C 0.35207 0.35070 -0.24748
 C495 C 0.34715 0.39533 -0.20512
 C496 C 0.36370 0.40959 -0.16282
 C497 C 0.38608 0.38167 -0.16222
 C498 C 0.39139 0.33443 -0.20199
 C499 C 0.41443 0.30802 -0.20008
 C500 C 0.43159 0.32901 -0.16179
 C501 C 0.42654 0.37687 -0.12370
 C502 C 0.40344 0.40186 -0.12305
 H503 H 0.31103 0.41347 -0.27977
 H504 H 0.33006 0.23998 -0.40796
 H505 H 0.28629 0.39184 -0.36161
 H506 H 0.36486 0.21608 -0.35266
 H507 H 0.39268 0.23820 -0.27862
 H508 H 0.33042 0.41957 -0.20302
 H509 H 0.35911 0.44378 -0.13093
 H510 H 0.42020 0.27265 -0.22918
 H511 H 0.44919 0.30844 -0.16337
 H512 H 0.39918 0.43868 -0.09367
 C513 C -0.14564 0.74422 -0.35619
 C514 C -0.14823 0.79090 -0.31449
 C515 C -0.16951 0.82593 -0.31551
 C516 C -0.18660 0.81650 -0.35879
 C517 C -0.18288 0.77230 -0.40131
 C518 C -0.16262 0.73564 -0.39904
 C519 C -0.17327 0.87142 -0.27458
 C520 C -0.15609 0.88443 -0.23349
 C521 C -0.13413 0.85277 -0.23212
 C522 C -0.13019 0.80505 -0.27317
 C523 C -0.10796 0.77458 -0.27305
 C524 C -0.08989 0.79128 -0.23580
 C525 C -0.09326 0.83823 -0.19637
 C526 C -0.11561 0.86860 -0.19254
 C527 C -0.11822 0.91426 -0.14981
 C528 C -0.09906 0.93092 -0.11506
 C529 C -0.07664 0.90309 -0.12167
 C530 C -0.07410 0.85571 -0.16152
 H531 H -0.13056 0.71406 -0.35780
 H532 H -0.20235 0.84497 -0.36083
 H533 H -0.15962 0.70112 -0.43172
 H534 H -0.18956 0.89803 -0.27488
 H535 H -0.16034 0.92105 -0.20439
 H536 H -0.10354 0.73839 -0.30248
 H537 H -0.07293 0.76751 -0.23845
 H538 H -0.13474 0.93831 -0.14217
 H539 H -0.10177 0.96674 -0.08369
 H540 H -0.05699 0.83291 -0.16635
 C541 C 0.31876 0.61992 0.29995
 C542 C 0.33817 0.65740 0.28831
 C543 C 0.34303 0.70365 0.32900
 C544 C 0.32869 0.71229 0.37830
 C545 C 0.30950 0.67516 0.38853
 C546 C 0.30474 0.62878 0.34936
 C547 C 0.36234 0.74066 0.32077
 C548 C 0.37773 0.73133 0.27436
 C549 C 0.37419 0.68477 0.23362
 C550 C 0.35338 0.64933 0.23895
 C551 C 0.34855 0.60694 0.19491
 C552 C 0.36442 0.59622 0.14962
 C553 C 0.38595 0.62623 0.14702
 C554 C 0.39105 0.67152 0.18845
 C555 C 0.41348 0.69926 0.18482
 C556 C 0.43069 0.67929 0.14500
 C557 C 0.42605 0.63206 0.10654
 C558 C 0.40303 0.60852 0.10527
 H559 H 0.31432 0.58237 0.27267
 H560 H 0.33255 0.74771 0.40919
 H561 H 0.29021 0.59894 0.35743
 H562 H 0.36592 0.77662 0.35125
 H563 H 0.39220 0.76194 0.27142
 H564 H 0.33252 0.58118 0.19414
 H565 H 0.36025 0.56213 0.11763
 H566 H 0.41895 0.73397 0.21435
 H567 H 0.44817 0.69915 0.14642
 H568 H 0.39913 0.57216 0.07550
 C569 C -0.17945 1.18395 0.30755
 C570 C -0.15744 1.21099 0.29505
 C571 C -0.15039 1.25898 0.33141
 C572 C -0.16422 1.27683 0.37933
 C573 C -0.18555 1.24828 0.39247
 C574 C -0.19311 1.20215 0.35548
 C575 C -0.12922 1.28828 0.32086
 C576 C -0.11411 1.26936 0.27657
 C577 C -0.11947 1.21956 0.24111
 C578 C -0.14182 1.19094 0.24928
 C579 C -0.14744 1.14226 0.21253
 C580 C -0.13135 1.12038 0.17123
 C581 C -0.10902 1.14584 0.16482
 C582 C -0.10287 1.19637 0.19896
 C583 C -0.07989 1.22012 0.19104
 C584 C -0.06341 1.19275 0.15366
 C585 C -0.06922 1.14142 0.12195
 C586 C -0.09242 1.11958 0.12593
 H587 H -0.18636 1.14746 0.28229
 H588 H -0.15826 1.31314 0.40698
 H589 H -0.20905 1.17769 0.36526
 H590 H -0.12399 1.32572 0.34793
 H591 H -0.09812 1.29460 0.27201
 H592 H -0.16406 1.11922 0.21509
 H593 H -0.13622 1.08201 0.14501
 H594 H -0.07363 1.25864 0.21431
 H595 H -0.04574 1.21132 0.15064
 H596 H -0.09717 1.08006 0.10124
 C597 C 0.67673 0.37355 0.33745
 C598 C 0.65657 0.33922 0.32287
 C599 C 0.65171 0.28950 0.35691
 C600 C 0.66694 0.27414 0.40218
 C601 C 0.68695 0.30819 0.41522
 C602 C 0.69147 0.35837 0.38310
 C603 C 0.63151 0.25579 0.34614
 C604 C 0.61550 0.27125 0.30348
 C605 C 0.61931 0.32072 0.26884
 C606 C 0.64074 0.35357 0.27696
 C607 C 0.64571 0.39935 0.23866
 C608 C 0.62976 0.41466 0.19589
 C609 C 0.60802 0.38604 0.19012
 C610 C 0.60242 0.33857 0.22635
 C611 C 0.57977 0.31227 0.21966
 C612 C 0.56338 0.33320 0.17971
 C613 C 0.56898 0.38043 0.14448
 C614 C 0.59158 0.40579 0.14911
 H615 H 0.68121 0.41342 0.31566
 H616 H 0.66311 0.23597 0.42786
 H617 H 0.70644 0.38636 0.39385
 H618 H 0.62780 0.21745 0.37166
 H619 H 0.60039 0.24274 0.29817
 H620 H 0.66207 0.42379 0.23997
 H621 H 0.63433 0.45011 0.16760
 H622 H 0.57377 0.27684 0.24595
 H623 H 0.54603 0.31281 0.17708
 H624 H 0.59603 0.44285 0.12255
 C625 C 0.17729 0.83580 0.31350
 C626 C 0.15777 0.80365 0.29079
 C627 C 0.15222 0.74915 0.31650
 C628 C 0.16549 0.72863 0.36312
 C629 C 0.18434 0.76163 0.38541
 C630 C 0.19022 0.81507 0.36023
 C631 C 0.13311 0.71589 0.29649
 C632 C 0.11847 0.73675 0.25341
 C633 C 0.12240 0.79210 0.22834
 C634 C 0.14305 0.82470 0.24524
 C635 C 0.14801 0.87764 0.21670
 C636 C 0.13250 0.90023 0.17603
 C637 C 0.11135 0.87142 0.16251
 C638 C 0.10610 0.81655 0.18784
 C639 C 0.08412 0.78988 0.17363
 C640 C 0.06776 0.81788 0.13814
 C641 C 0.07276 0.87281 0.11474
 C642 C 0.09494 0.89844 0.12547
 H643 H 0.18260 0.87795 0.29746
 H644 H 0.16084 0.68745 0.38311
 H645 H 0.20459 0.84150 0.37770
 H646 H 0.12909 0.67369 0.31525
 H647 H 0.10412 0.70813 0.24076
 H648 H 0.16381 0.90302 0.22493
 H649 H 0.13679 0.94172 0.15619
 H650 H 0.07846 0.74864 0.19102
 H651 H 0.05077 0.79698 0.13011
 H652 H 0.09886 0.94118 0.10778
   
