data_POSCAR
  _audit_creation_date              2014-09-24
  _audit_creation_method            'ToBaCCo'
  _symmetry_space_group_name_H-M    'P1'
  _symmetry_Int_Tables_number       1
  _symmetry_cell_setting            triclinic
  loop_
  _symmetry_equiv_pos_as_xyz
 x,y,z
_cell_length_a 50.7623
_cell_length_b 50.7605
_cell_length_c 50.7765
_cell_angle_alpha 89.997500
_cell_angle_beta 90.060400
_cell_angle_gamma 89.994800
loop_
  _atom_site_label
  _atom_site_type_symbol
  _atom_site_fract_x
  _atom_site_fract_y
  _atom_site_fract_z
C1 C 0.25042 1.07413 -0.00015
 C2 C 0.25422 1.06076 0.02360
 C3 C 0.25570 1.03318 0.02384
 C4 C 0.25195 1.01845 0.00047
 C5 C 0.24737 1.03244 -0.02319
 C6 C 0.24734 1.06004 -0.02358
 C7 C 0.25278 0.98882 0.00075
 C8 C 0.25823 0.97438 -0.02247
 C9 C 0.25815 0.94679 -0.02231
 C10 C 0.25405 0.93318 0.00118
 C11 C 0.24934 0.94695 0.02446
 C12 C 0.24803 0.97451 0.02421
 H13 H 0.24985 1.09552 -0.00040
 H14 H 0.25992 1.02351 0.04234
 H15 H 0.24366 1.02217 -0.04148
 H16 H 0.26268 0.98421 -0.04081
 H17 H 0.25447 0.91181 0.00133
 H18 H 0.24310 0.98442 0.04238
 C19 C 0.75054 0.56996 0.50167
 C20 C 0.75400 0.55598 0.52508
 C21 C 0.75508 0.52840 0.52469
 C22 C 0.75128 0.51427 0.50094
 C23 C 0.74704 0.52893 0.47761
 C24 C 0.74741 0.55651 0.47793
 C25 C 0.75172 0.48461 0.50048
 C26 C 0.75651 0.47065 0.47681
 C27 C 0.75607 0.44308 0.47627
 C28 C 0.75230 0.42892 0.49950
 C29 C 0.74828 0.44218 0.52321
 C30 C 0.74729 0.46975 0.52366
 H31 H 0.75028 0.59133 0.50194
 H32 H 0.75905 0.51836 0.54303
 H33 H 0.74329 0.51931 0.45900
 H34 H 0.76074 0.48084 0.45861
 H35 H 0.75248 0.40755 0.49912
 H36 H 0.74287 0.47923 0.54218
 C37 C 0.74851 0.99866 1.07259
 C38 C 0.74470 0.97528 1.05858
 C39 C 0.74378 0.97573 1.03098
 C40 C 0.74807 0.99941 1.01691
 C41 C 0.75264 1.02268 1.03157
 C42 C 0.75213 1.02238 1.05915
 C43 C 0.74784 0.99988 0.98728
 C44 C 0.74293 1.02351 0.97332
 C45 C 0.74355 1.02405 0.94575
 C46 C 0.74766 1.00084 0.93164
 C47 C 0.75184 0.97716 0.94493
 C48 C 0.75261 0.97672 0.97250
 H49 H 0.74867 0.99838 1.09398
 H50 H 0.73955 0.95750 1.02079
 H51 H 0.75677 1.04116 1.02183
 H52 H 0.73847 1.04166 0.98351
 H53 H 0.74764 1.00122 0.91027
 H54 H 0.75713 0.95824 0.98206
 C55 C 0.24751 0.50234 0.57166
 C56 C 0.24387 0.47874 0.55808
 C57 C 0.24295 0.47865 0.53052
 C58 C 0.24716 0.50207 0.51597
 C59 C 0.25148 0.52565 0.53022
 C60 C 0.25095 0.52583 0.55780
 C61 C 0.24714 0.50185 0.48631
 C62 C 0.24284 0.52522 0.47168
 C63 C 0.24350 0.52497 0.44410
 C64 C 0.24704 0.50129 0.43063
 C65 C 0.25066 0.47790 0.44457
 C66 C 0.25144 0.47822 0.47213
 H67 H 0.24770 0.50244 0.59302
 H68 H 0.23882 0.46017 0.52082
 H69 H 0.25547 0.54403 0.52027
 H70 H 0.23881 0.54375 0.48133
 H71 H 0.24699 0.50107 0.40926
 H72 H 0.25558 0.45989 0.48211
 C73 C 1.07258 0.25048 -0.00100
 C74 C 1.05898 0.25459 0.02254
 C75 C 1.03138 0.25551 0.02252
 C76 C 1.01690 0.25088 -0.00087
 C77 C 1.03114 0.24612 -0.02431
 C78 C 1.05872 0.24660 -0.02444
 C79 C 0.98727 0.25091 -0.00076
 C80 C 0.97272 0.25566 -0.02411
 C81 C 0.94510 0.25500 -0.02395
 C82 C 0.93162 0.25094 -0.00036
 C83 C 0.94553 0.24684 0.02296
 C84 C 0.97308 0.24613 0.02272
 H85 H 1.09397 0.25028 -0.00113
 H86 H 1.02150 0.25997 0.04084
 H87 H 1.02113 0.24183 -0.04261
 H88 H 0.98256 0.26005 -0.04247
 H89 H 0.91023 0.25096 -0.00011
 H90 H 0.98311 0.24167 0.04097
 C91 C 0.57107 0.75027 0.50021
 C92 C 0.55713 0.75416 0.52354
 C93 C 0.52957 0.75510 0.52316
 C94 C 0.51538 0.75070 0.49956
 C95 C 0.52999 0.74612 0.47626
 C96 C 0.55758 0.74662 0.47654
 C97 C 0.48572 0.75085 0.49928
 C98 C 0.47152 0.75520 0.47566
 C99 C 0.44393 0.75470 0.47542
 C100 C 0.43004 0.75127 0.49885
 C101 C 0.44356 0.74760 0.52249
 C102 C 0.47113 0.74666 0.52266
 H103 H 0.59244 0.75008 0.50048
 H104 H 0.51957 0.75942 0.54143
 H105 H 0.52029 0.74199 0.45776
 H106 H 0.48152 0.75914 0.45731
 H107 H 0.40866 0.75144 0.49870
 H108 H 0.48080 0.74252 0.54116
 C109 C 0.00120 0.74964 -0.07149
 C110 C 0.02439 0.74577 -0.05724
 C111 C 0.02369 0.74483 -0.02968
 C112 C -0.00010 0.74921 -0.01583
 C113 C -0.02324 0.75376 -0.03072
 C114 C -0.02266 0.75327 -0.05831
 C115 C -0.00074 0.74916 0.01380
 C116 C -0.02443 0.74438 0.02773
 C117 C -0.02496 0.74503 0.05534
 C118 C -0.00169 0.74907 0.06945
 C119 C 0.02198 0.75317 0.05616
 C120 C 0.02239 0.75393 0.02861
 H121 H 0.00177 0.74983 -0.09286
 H122 H 0.04184 0.74056 -0.01940
 H123 H -0.04182 0.75788 -0.02116
 H124 H -0.04255 0.73999 0.01742
 H125 H -0.00195 0.74902 0.09083
 H126 H 0.04089 0.75841 0.01910
 C127 C 0.50031 0.24917 0.42833
 C128 C 0.52406 0.24548 0.44169
 C129 C 0.52442 0.24438 0.46925
 C130 C 0.50111 0.24838 0.48401
 C131 C 0.47741 0.25284 0.46997
 C132 C 0.47696 0.25250 0.44240
 C133 C 0.50149 0.24788 0.51366
 C134 C 0.47816 0.24326 0.52822
 C135 C 0.47839 0.24363 0.55579
 C136 C 0.50203 0.24714 0.56933
 C137 C 0.52543 0.25098 0.55548
 C138 C 0.52513 0.25205 0.52791
 H139 H 0.50000 0.24946 0.40697
 H140 H 0.54299 0.24024 0.47879
 H141 H 0.45911 0.25675 0.48009
 H142 H 0.45965 0.23923 0.51851
 H143 H 0.50222 0.24691 0.59070
 H144 H 0.54344 0.25632 0.51796
 C145 C 1.06918 0.00094 0.25182
 C146 C 1.05494 0.02414 0.25574
 C147 C 1.02733 0.02340 0.25646
 C148 C 1.01350 -0.00040 0.25178
 C149 C 1.02844 -0.02346 0.24716
 C150 C 1.05599 -0.02284 0.24789
 C151 C 0.98386 -0.00116 0.25151
 C152 C 0.96991 -0.02500 0.25559
 C153 C 0.94230 -0.02563 0.25451
 C154 C 0.92817 -0.00231 0.25078
 C155 C 0.94148 0.02148 0.24739
 C156 C 0.96903 0.02200 0.24702
 H157 H 1.09056 0.00135 0.25179
 H158 H 1.01697 0.04149 0.26081
 H159 H 1.01903 -0.04205 0.24280
 H160 H 0.98019 -0.04318 0.25976
 H161 H 0.90679 -0.00263 0.25051
 H162 H 0.97854 0.04062 0.24304
 C163 C 0.56973 0.49995 0.75325
 C164 C 0.55579 0.52324 0.75750
 C165 C 0.52821 0.52295 0.75791
 C166 C 0.51408 0.49949 0.75270
 C167 C 0.52868 0.47624 0.74783
 C168 C 0.55626 0.47643 0.74875
 C169 C 0.48445 0.49931 0.75228
 C170 C 0.47014 0.47576 0.75648
 C171 C 0.44256 0.47560 0.75546
 C172 C 0.42879 0.49908 0.75156
 C173 C 0.44246 0.52265 0.74798
 C174 C 0.47004 0.52271 0.74765
 H175 H 0.59110 0.50014 0.75341
 H176 H 0.51812 0.54115 0.76244
 H177 H 0.51896 0.45789 0.74310
 H178 H 0.48010 0.45741 0.76072
 H179 H 0.40742 0.49900 0.75129
 H180 H 0.47991 0.54114 0.74362
 C181 C 0.99840 1.06956 0.74704
 C182 C 0.97507 1.05558 0.75109
 C183 C 0.97555 1.02796 0.75216
 C184 C 0.99925 1.01387 0.74776
 C185 C 1.02242 1.02856 0.74293
 C186 C 1.02205 1.05611 0.74331
 C187 C 0.99987 0.98422 0.74814
 C188 C 1.02368 0.97031 0.75255
 C189 C 1.02429 0.94269 0.75200
 C190 C 1.00096 0.92853 0.74853
 C191 C 0.97717 0.94180 0.74490
 C192 C 0.97667 0.96936 0.74399
 H193 H 0.99821 1.09094 0.74682
 H194 H 0.95737 1.01780 0.75661
 H195 H 1.04094 1.01895 0.73872
 H196 H 1.04188 0.98061 0.75657
 H197 H 1.00127 0.90714 0.74867
 H198 H 0.95806 0.97883 0.73987
 C199 C 0.49907 0.56934 0.24675
 C200 C 0.47554 0.55568 0.24289
 C201 C 0.47551 0.52809 0.24230
 C202 C 0.49894 0.51368 0.24691
 C203 C 0.52241 0.52801 0.25148
 C204 C 0.52253 0.55558 0.25072
 C205 C 0.49891 0.48405 0.24699
 C206 C 0.52231 0.46966 0.24227
 C207 C 0.52241 0.44209 0.24315
 C208 C 0.49897 0.42838 0.24736
 C209 C 0.47550 0.44210 0.25136
 C210 C 0.47552 0.46969 0.25185
 H211 H 0.49913 0.59071 0.24670
 H212 H 0.45712 0.51822 0.23809
 H213 H 0.54075 0.51809 0.25582
 H214 H 0.54062 0.47955 0.23777
 H215 H 0.49901 0.40700 0.24754
 H216 H 0.45719 0.47961 0.25621
 O217 O 0.24784 0.18234 0.21507
 O218 O 0.27587 0.17412 0.25176
 O219 O 0.17853 0.21431 0.25338
 O220 O 0.16901 0.24856 0.27892
 O221 O 0.21117 0.25191 0.18378
 O222 O 0.24801 0.28025 0.17678
 O223 O 0.24806 0.28610 0.32088
 O224 O 0.21677 0.25120 0.32707
 O225 O 0.31510 0.25079 0.28902
 O226 O 0.32334 0.22089 0.25180
 O227 O 0.28395 0.31820 0.25404
 O228 O 0.24638 0.32664 0.22387
 O229 O 0.24870 0.31795 0.28933
 O230 O 0.21842 0.32652 0.25190
 O231 O 0.31541 0.28626 0.25390
 O232 O 0.32311 0.24850 0.22331
 O233 O 0.28345 0.25147 0.32072
 O234 O 0.25145 0.22095 0.32837
 O235 O 0.24823 0.21441 0.18370
 O236 O 0.27702 0.25107 0.17678
 O237 O 0.17920 0.25146 0.21521
 O238 O 0.17325 0.28164 0.25264
 O239 O 0.20999 0.18237 0.25185
 O240 O 0.24815 0.17373 0.28053
 Zr241 Zr 0.24595 0.20309 0.25099
 O242 O 0.27057 0.22537 0.27591
 Zr243 Zr 0.20003 0.24968 0.25117
 O244 O 0.22269 0.27390 0.27626
 Zr245 Zr 0.24660 0.24981 0.20516
 O246 O 0.27120 0.27413 0.22803
 Zr247 Zr 0.24792 0.25070 0.29940
 O248 O 0.22279 0.22600 0.27682
 Zr249 Zr 0.29419 0.25068 0.25325
 O250 O 0.27175 0.22612 0.22810
 Zr251 Zr 0.24813 0.29728 0.25343
 O252 O 0.22331 0.27517 0.22819
 O253 O 0.22174 0.22527 0.22651
 O254 O 0.27268 0.27537 0.27795
 C255 C 0.24891 0.19024 0.19106
 C256 C 0.18598 0.19015 0.25341
 C257 C 0.18703 0.25261 0.19119
 C258 C 0.24867 0.31023 0.31338
 C259 C 0.30754 0.25139 0.31310
 C260 C 0.30799 0.31041 0.25427
 H261 H 0.28115 0.21334 0.28700
 H262 H 0.28218 0.28504 0.21624
 H263 H 0.21046 0.21414 0.21513
 H264 H 0.21089 0.28462 0.28743
 H265 H 0.20481 0.23652 0.32238
 H266 H 0.17563 0.25687 0.29524
 H267 H 0.32017 0.26338 0.21107
 H268 H 0.29094 0.23891 0.18302
 H269 H 0.23997 0.20630 0.32273
 H270 H 0.23281 0.17611 0.29230
 H271 H 0.26075 0.32319 0.21119
 H272 H 0.23621 0.29439 0.18320
 H273 H 0.29025 0.18072 0.24039
 H274 H 0.31914 0.20775 0.26556
 H275 H 0.17874 0.29430 0.23887
 H276 H 0.20576 0.32291 0.26625
 O277 O 0.74946 0.81576 0.21215
 O278 O 0.72160 0.82382 0.24885
 O279 O 0.81901 0.78389 0.25005
 O280 O 0.82880 0.74951 0.27533
 O281 O 0.78618 0.74654 0.18023
 O282 O 0.74935 0.71811 0.17331
 O283 O 0.75003 0.71166 0.31731
 O284 O 0.78128 0.74654 0.32364
 O285 O 0.68266 0.74691 0.28597
 O286 O 0.67426 0.77694 0.24877
 O287 O 0.71392 0.67968 0.25060
 O288 O 0.75127 0.67145 0.22026
 O289 O 0.74933 0.67980 0.28578
 O290 O 0.77953 0.67164 0.24811
 O291 O 0.68235 0.71152 0.25074
 O292 O 0.67433 0.74929 0.22028
 O293 O 0.71463 0.74624 0.31742
 O294 O 0.74659 0.77670 0.32519
 O295 O 0.74900 0.78401 0.18046
 O296 O 0.72019 0.74727 0.17357
 O297 O 0.81816 0.74691 0.21173
 O298 O 0.82448 0.71659 0.24895
 O299 O 0.78745 0.81574 0.24879
 O300 O 0.74934 0.82411 0.27760
 Zr301 Zr 0.75155 0.79490 0.24792
 O302 O 0.72712 0.77245 0.27278
 Zr303 Zr 0.79759 0.74847 0.24773
 O304 O 0.77516 0.72406 0.27277
 Zr305 Zr 0.75082 0.74846 0.20178
 O306 O 0.72641 0.72393 0.22469
 Zr307 Zr 0.75001 0.74712 0.29604
 O308 O 0.77494 0.77199 0.27355
 Zr309 Zr 0.70344 0.74717 0.25010
 O310 O 0.72570 0.77192 0.22498
 Zr311 Zr 0.74966 0.70070 0.24993
 O312 O 0.77426 0.72303 0.22469
 O313 O 0.77570 0.77294 0.22324
 O314 O 0.72519 0.72245 0.27462
 C315 C 0.74831 0.80812 0.18808
 C316 C 0.81149 0.80803 0.25024
 C317 C 0.81034 0.74585 0.18769
 C318 C 0.74944 0.68754 0.30984
 C319 C 0.69047 0.74629 0.31000
 C320 C 0.68986 0.68739 0.25100
 H321 H 0.71657 0.78441 0.28396
 H322 H 0.71540 0.71303 0.21290
 H323 H 0.78691 0.78415 0.21189
 H324 H 0.78705 0.71333 0.28387
 H325 H 0.79321 0.76124 0.31899
 H326 H 0.82229 0.74116 0.29166
 H327 H 0.67732 0.73452 0.20793
 H328 H 0.70630 0.75938 0.17993
 H329 H 0.75801 0.79140 0.31959
 H330 H 0.76477 0.82179 0.28928
 H331 H 0.73688 0.67498 0.20760
 H332 H 0.76120 0.70398 0.17966
 H333 H 0.70715 0.81722 0.23754
 H334 H 0.67843 0.78998 0.26264
 H335 H 0.81895 0.70397 0.23515
 H336 H 0.79214 0.67511 0.26256
 O337 O 0.74807 0.18244 0.78962
 O338 O 0.72086 0.17391 0.75256
 O339 O 0.81832 0.21307 0.75290
 O340 O 0.82879 0.24636 0.72634
 O341 O 0.78543 0.25220 0.82064
 O342 O 0.74753 0.28015 0.82752
 O343 O 0.75018 0.28411 0.68233
 O344 O 0.78111 0.24960 0.67661
 O345 O 0.68276 0.25065 0.71402
 O346 O 0.67347 0.22184 0.75217
 O347 O 0.71499 0.31868 0.74803
 O348 O 0.74734 0.32562 0.77941
 O349 O 0.74880 0.31674 0.71307
 O350 O 0.78271 0.32271 0.74707
 O351 O 0.68295 0.28721 0.74839
 O352 O 0.67387 0.25033 0.77965
 O353 O 0.71483 0.24952 0.68273
 O354 O 0.75106 0.21800 0.67652
 O355 O 0.74793 0.21482 0.82067
 O356 O 0.71899 0.25204 0.82636
 O357 O 0.81772 0.25108 0.78959
 O358 O 0.82428 0.28066 0.75168
 O359 O 0.78651 0.18142 0.75375
 O360 O 0.75038 0.17367 0.72381
 Zr361 Zr 0.75089 0.20274 0.75362
 O362 O 0.72659 0.22475 0.72819
 Zr363 Zr 0.79734 0.24883 0.75353
 O364 O 0.77527 0.27249 0.72746
 Zr365 Zr 0.75016 0.25006 0.79884
 O366 O 0.72650 0.27437 0.77498
 Zr367 Zr 0.75014 0.24910 0.70444
 O368 O 0.77476 0.22498 0.72800
 Zr369 Zr 0.70323 0.25098 0.75008
 O370 O 0.72503 0.22640 0.77583
 Zr371 Zr 0.75000 0.29677 0.74939
 O372 O 0.77406 0.27504 0.77582
 O373 O 0.77498 0.22499 0.77818
 O374 O 0.72552 0.27454 0.72510
 C375 C 0.74693 0.19058 0.81352
 C376 C 0.81065 0.18896 0.75312
 C377 C 0.80967 0.25264 0.81348
 C378 C 0.74921 0.30841 0.68922
 C379 C 0.69065 0.25024 0.69002
 C380 C 0.69082 0.31126 0.74768
 H381 H 0.71564 0.21261 0.71764
 H382 H 0.71578 0.28594 0.78640
 H383 H 0.78594 0.21395 0.78996
 H384 H 0.78726 0.28306 0.71631
 H385 H 0.79439 0.23667 0.68271
 H386 H 0.82316 0.25561 0.71015
 H387 H 0.67727 0.26521 0.79175
 H388 H 0.70535 0.23951 0.82025
 H389 H 0.73655 0.20566 0.68053
 H390 H 0.76317 0.17939 0.71026
 H391 H 0.76315 0.32359 0.79064
 H392 H 0.76081 0.29360 0.82286
 H393 H 0.70612 0.18095 0.76319
 H394 H 0.67724 0.20845 0.73853
 H395 H 0.81916 0.29334 0.76556
 H396 H 0.77588 0.34075 0.74394
 O397 O 0.25479 0.82010 0.78899
 O398 O 0.28195 0.82822 0.75171
 O399 O 0.18426 0.78916 0.75256
 O400 O 0.17415 0.75576 0.72576
 O401 O 0.21746 0.75062 0.82061
 O402 O 0.25426 0.72197 0.82689
 O403 O 0.25164 0.71698 0.68272
 O404 O 0.22073 0.75248 0.67720
 O405 O 0.31981 0.75119 0.71374
 O406 O 0.32889 0.78093 0.75105
 O407 O 0.28831 0.68415 0.74883
 O408 O 0.25121 0.67585 0.77946
 O409 O 0.25255 0.68495 0.71407
 O410 O 0.22276 0.67654 0.75193
 O411 O 0.32030 0.71555 0.74868
 O412 O 0.32888 0.75305 0.77938
 O413 O 0.28748 0.75113 0.68264
 O414 O 0.25585 0.78202 0.67547
 O415 O 0.25502 0.78793 0.82027
 O416 O 0.28354 0.75089 0.82661
 O417 O 0.18519 0.75137 0.78941
 O418 O 0.17801 0.72209 0.75179
 O419 O 0.21599 0.82085 0.75372
 O420 O 0.25322 0.82894 0.72348
 Zr421 Zr 0.25174 0.79959 0.75308
 O422 O 0.27571 0.77715 0.72770
 Zr423 Zr 0.20538 0.75355 0.75328
 O424 O 0.22726 0.72919 0.72774
 Zr425 Zr 0.25265 0.75258 0.79871
 O426 O 0.27658 0.72812 0.77529
 Zr427 Zr 0.25235 0.75226 0.70441
 O428 O 0.22788 0.77716 0.72745
 Zr429 Zr 0.29946 0.75141 0.74984
 O430 O 0.27768 0.77610 0.77545
 Zr431 Zr 0.25279 0.70542 0.75009
 O432 O 0.22868 0.72765 0.77582
 O433 O 0.22778 0.77749 0.77781
 O434 O 0.27717 0.72716 0.72532
 C435 C 0.25601 0.81211 0.81294
 C436 C 0.19186 0.81327 0.75297
 C437 C 0.19322 0.75002 0.81335
 C438 C 0.25214 0.69280 0.69006
 C439 C 0.31172 0.75082 0.68980
 C440 C 0.31246 0.69152 0.74828
 H441 H 0.28623 0.78912 0.71651
 H442 H 0.28762 0.71699 0.78684
 H443 H 0.21687 0.78856 0.78958
 H444 H 0.21514 0.71868 0.71669
 H445 H 0.20918 0.76742 0.68206
 H446 H 0.18022 0.74700 0.70947
 H447 H 0.32593 0.73817 0.79160
 H448 H 0.29748 0.76291 0.82019
 H449 H 0.24521 0.79707 0.68165
 H450 H 0.23729 0.82692 0.71242
 H451 H 0.26580 0.67907 0.79197
 H452 H 0.24224 0.70797 0.82054
 H453 H 0.29655 0.82139 0.76271
 H454 H 0.32479 0.79400 0.73720
 H455 H 0.18369 0.70901 0.76510
 H456 H 0.21002 0.68022 0.73764
 O457 O 0.24953 0.31675 0.71196
 O458 O 0.22101 0.32408 0.74824
 O459 O 0.31839 0.28416 0.75059
 O460 O 0.32751 0.24947 0.77577
 O461 O 0.28725 0.24809 0.67959
 O462 O 0.25057 0.21993 0.67115
 O463 O 0.24810 0.21067 0.81504
 O464 O 0.27905 0.24550 0.82270
 O465 O 0.18130 0.24618 0.78288
 O466 O 0.17363 0.27711 0.74631
 O467 O 0.21342 0.17993 0.74614
 O468 O 0.25180 0.17227 0.71731
 O469 O 0.24777 0.17937 0.78294
 O470 O 0.27900 0.17185 0.74602
 O471 O 0.18184 0.21176 0.74616
 O472 O 0.17447 0.25044 0.71707
 O473 O 0.21260 0.24521 0.81499
 O474 O 0.24424 0.27541 0.82411
 O475 O 0.25001 0.28564 0.67966
 O476 O 0.22146 0.24900 0.67132
 O477 O 0.31847 0.24772 0.71183
 O478 O 0.32400 0.21695 0.74861
 O479 O 0.28683 0.31601 0.74923
 O480 O 0.24819 0.32376 0.77755
 Zr481 Zr 0.25098 0.29518 0.74732
 O482 O 0.22601 0.27224 0.77116
 Zr483 Zr 0.29706 0.24878 0.74732
 O484 O 0.27409 0.22387 0.77132
 Zr485 Zr 0.25139 0.24966 0.70030
 O486 O 0.22650 0.22471 0.72214
 Zr487 Zr 0.24840 0.24648 0.79442
 O488 O 0.27381 0.27180 0.77303
 Zr489 Zr 0.20288 0.24740 0.74747
 O490 O 0.22569 0.27264 0.72335
 Zr491 Zr 0.24913 0.20094 0.74747
 O492 O 0.27429 0.22378 0.72325
 O493 O 0.27574 0.27372 0.72278
 O494 O 0.22404 0.22217 0.77202
 C495 C 0.24896 0.30958 0.68773
 C496 C 0.31084 0.30829 0.75099
 C497 C 0.31121 0.24710 0.68762
 C498 C 0.24756 0.18668 0.80714
 C499 C 0.18861 0.24527 0.80706
 C500 C 0.18936 0.18765 0.74568
 H501 H 0.21521 0.28397 0.78234
 H502 H 0.21584 0.21410 0.70978
 H503 H 0.28718 0.28513 0.71187
 H504 H 0.28572 0.21293 0.78249
 H505 H 0.29100 0.26036 0.81862
 H506 H 0.32070 0.24057 0.79168
 H507 H 0.17802 0.23629 0.70416
 H508 H 0.20750 0.26116 0.67745
 H509 H 0.25554 0.29037 0.81894
 H510 H 0.26346 0.32128 0.78943
 H511 H 0.23806 0.17628 0.70408
 H512 H 0.26242 0.20574 0.67737
 H513 H 0.20672 0.31762 0.73664
 H514 H 0.17749 0.28983 0.76056
 H515 H 0.31865 0.20442 0.73466
 H516 H 0.29123 0.17506 0.76084
 O517 O 0.74885 0.68093 0.71623
 O518 O 0.77765 0.67372 0.75245
 O519 O 0.68045 0.71414 0.75516
 O520 O 0.67177 0.74893 0.78033
 O521 O 0.71122 0.74973 0.68395
 O522 O 0.74793 0.77764 0.67504
 O523 O 0.75168 0.78765 0.81893
 O524 O 0.72066 0.75292 0.82691
 O525 O 0.81795 0.75158 0.78633
 O526 O 0.82527 0.72050 0.74998
 O527 O 0.78592 0.81780 0.74962
 O528 O 0.74730 0.82547 0.72091
 O529 O 0.75183 0.81864 0.78653
 O530 O 0.72045 0.82626 0.74984
 O531 O 0.81734 0.78581 0.74954
 O532 O 0.82418 0.74689 0.72051
 O533 O 0.78711 0.75296 0.81881
 O534 O 0.75540 0.72285 0.82821
 O535 O 0.74825 0.71206 0.68395
 O536 O 0.77684 0.74848 0.67514
 O537 O 0.68013 0.75040 0.71624
 O538 O 0.67517 0.78137 0.75297
 O539 O 0.71184 0.68212 0.75374
 O540 O 0.75061 0.67429 0.78191
 Zr541 Zr 0.74778 0.70273 0.75154
 O542 O 0.77307 0.72569 0.77512
 Zr543 Zr 0.70192 0.74939 0.75162
 O544 O 0.72526 0.77428 0.77537
 Zr545 Zr 0.74722 0.74809 0.70438
 O546 O 0.77243 0.77301 0.72587
 Zr547 Zr 0.75107 0.75170 0.79845
 O548 O 0.72534 0.72640 0.77730
 Zr549 Zr 0.79610 0.75029 0.75113
 O550 O 0.77298 0.72504 0.72731
 Zr551 Zr 0.75011 0.79697 0.75122
 O552 O 0.72461 0.77417 0.72730
 O553 O 0.72293 0.72423 0.72708
 O554 O 0.77532 0.77576 0.77570
 C555 C 0.74925 0.68812 0.69199
 C556 C 0.68788 0.68997 0.75560
 C557 C 0.68731 0.75087 0.69200
 C558 C 0.75220 0.81156 0.81079
 C559 C 0.81099 0.75272 0.81059
 C560 C 0.80994 0.80996 0.74905
 H561 H 0.78393 0.71396 0.78628
 H562 H 0.78303 0.78351 0.71339
 H563 H 0.71136 0.71285 0.71627
 H564 H 0.71379 0.78534 0.78655
 H565 H 0.70863 0.73808 0.82297
 H566 H 0.67877 0.75792 0.79613
 H567 H 0.82072 0.76112 0.70765
 H568 H 0.79083 0.73633 0.68122
 H569 H 0.74399 0.70793 0.82318
 H570 H 0.73547 0.67696 0.79386
 H571 H 0.76101 0.82144 0.70769
 H572 H 0.73624 0.79195 0.68127
 H573 H 0.79184 0.68003 0.74067
 H574 H 0.82139 0.70778 0.76421
 H575 H 0.68044 0.79379 0.73890
 H576 H 0.70821 0.82308 0.76464
 O577 O 0.24884 0.68226 0.28495
 O578 O 0.22044 0.67483 0.24828
 O579 O 0.31792 0.71394 0.24661
 O580 O 0.32793 0.74831 0.22158
 O581 O 0.28658 0.75106 0.31699
 O582 O 0.25009 0.77952 0.32481
 O583 O 0.24835 0.78719 0.18069
 O584 O 0.27911 0.75272 0.17321
 O585 O 0.18158 0.75222 0.21278
 O586 O 0.17345 0.72211 0.25030
 O587 O 0.21396 0.81889 0.24798
 O588 O 0.25176 0.82674 0.27789
 O589 O 0.24881 0.81878 0.21251
 O590 O 0.27965 0.82638 0.24980
 O591 O 0.18200 0.78746 0.24803
 O592 O 0.17408 0.74983 0.27847
 O593 O 0.21294 0.75254 0.18078
 O594 O 0.24893 0.72151 0.17254
 O595 O 0.24908 0.71379 0.31688
 O596 O 0.22069 0.75076 0.32452
 O597 O 0.31821 0.75065 0.28522
 O598 O 0.32404 0.78142 0.24842
 O599 O 0.28615 0.68225 0.24742
 O600 O 0.24917 0.67513 0.21897
 Zr601 Zr 0.25060 0.70353 0.24939
 O602 O 0.22580 0.72627 0.22513
 Zr603 Zr 0.29705 0.74961 0.24950
 O604 O 0.27445 0.77422 0.22478
 Zr605 Zr 0.25091 0.74953 0.29593
 O606 O 0.22642 0.77448 0.27356
 Zr607 Zr 0.24873 0.75150 0.20166
 O608 O 0.27380 0.72659 0.22385
 Zr609 Zr 0.20284 0.75164 0.24835
 O610 O 0.22527 0.72647 0.27289
 Zr611 Zr 0.24949 0.79761 0.24813
 O612 O 0.27422 0.77498 0.27300
 O613 O 0.27531 0.72505 0.27398
 O614 O 0.22446 0.77624 0.22362
 C615 C 0.24806 0.68975 0.30909
 C616 C 0.31023 0.68986 0.24601
 C617 C 0.31065 0.75164 0.30932
 C618 C 0.24828 0.81126 0.18840
 C619 C 0.18893 0.75274 0.18863
 C620 C 0.18981 0.81148 0.24777
 H621 H 0.21467 0.71444 0.21441
 H622 H 0.21571 0.78543 0.28556
 H623 H 0.28657 0.71361 0.28507
 H624 H 0.28622 0.78495 0.21359
 H625 H 0.29251 0.73964 0.17871
 H626 H 0.32194 0.75811 0.20584
 H627 H 0.17752 0.76442 0.29093
 H628 H 0.20661 0.73881 0.31824
 H629 H 0.23470 0.70886 0.17660
 H630 H 0.26103 0.68152 0.20488
 H631 H 0.23757 0.82324 0.29075
 H632 H 0.26170 0.79377 0.31832
 H633 H 0.20619 0.68135 0.25987
 H634 H 0.17685 0.70931 0.23601
 H635 H 0.31879 0.79386 0.26248
 H636 H 0.29199 0.82296 0.23513
 O637 O 0.75232 0.31952 0.28452
 O638 O 0.78079 0.32679 0.24803
 O639 O 0.68318 0.28755 0.24601
 O640 O 0.67345 0.25310 0.22087
 O641 O 0.71452 0.25072 0.31662
 O642 O 0.75110 0.22229 0.32455
 O643 O 0.75243 0.21393 0.18056
 O644 O 0.72164 0.24920 0.17336
 O645 O 0.81969 0.24918 0.21265
 O646 O 0.82772 0.27957 0.24955
 O647 O 0.78725 0.18274 0.24814
 O648 O 0.74949 0.17505 0.27814
 O649 O 0.75232 0.18264 0.21266
 O650 O 0.72164 0.17513 0.24998
 O651 O 0.81922 0.21418 0.24812
 O652 O 0.82692 0.25226 0.27845
 O653 O 0.78823 0.24819 0.18070
 O654 O 0.75673 0.27882 0.17190
 O655 O 0.75198 0.28801 0.31645
 O656 O 0.78037 0.25121 0.32438
 O657 O 0.68306 0.25094 0.28461
 O658 O 0.67704 0.22042 0.24757
 O659 O 0.71480 0.31933 0.24742
 O660 O 0.75329 0.32696 0.21891
 Zr661 Zr 0.75055 0.29818 0.24896
 O662 O 0.77519 0.27519 0.22476
 Zr663 Zr 0.70422 0.25204 0.24896
 O664 O 0.72679 0.22717 0.22458
 Zr665 Zr 0.75023 0.25224 0.29563
 O666 O 0.77481 0.22726 0.27346
 Zr667 Zr 0.75250 0.24972 0.20142
 O668 O 0.72743 0.27509 0.22322
 Zr669 Zr 0.79834 0.25001 0.24813
 O670 O 0.77587 0.27525 0.27257
 Zr671 Zr 0.75171 0.20396 0.24817
 O672 O 0.72691 0.22674 0.27273
 O673 O 0.72587 0.27665 0.27351
 O674 O 0.77675 0.22516 0.22359
 C675 C 0.75303 0.31204 0.30866
 C676 C 0.69076 0.31166 0.24573
 C677 C 0.69049 0.25003 0.30877
 C678 C 0.75262 0.18993 0.18848
 C679 C 0.81226 0.24822 0.18852
 C680 C 0.81139 0.19015 0.24795
 H681 H 0.78601 0.28692 0.21360
 H682 H 0.78554 0.21641 0.28554
 H683 H 0.71457 0.28805 0.28459
 H684 H 0.71498 0.21639 0.21345
 H685 H 0.70989 0.26417 0.17759
 H686 H 0.68019 0.24463 0.20469
 H687 H 0.82377 0.23750 0.29077
 H688 H 0.79449 0.26306 0.31805
 H689 H 0.74566 0.29386 0.17729
 H690 H 0.73798 0.32458 0.20708
 H691 H 0.76381 0.17854 0.29089
 H692 H 0.73937 0.20809 0.31816
 H693 H 0.79497 0.32027 0.25974
 H694 H 0.82384 0.29249 0.23549
 H695 H 0.68221 0.20788 0.26159
 H696 H 0.70923 0.17849 0.23532
 C697 C 0.25609 0.10371 0.08969
 N698 N 0.27562 0.12141 0.09406
 N699 N 0.27462 0.13749 0.11478
 C700 C 0.25403 0.13639 0.13176
 N701 N 0.23453 0.11865 0.12744
 N702 N 0.23553 0.10257 0.10671
 C703 C 0.25625 0.08763 0.06644
 C704 C 0.25570 0.07471 0.04651
 C705 C 0.25226 0.15472 0.15322
 C706 C 0.25070 0.17065 0.17077
 C707 C 0.75587 0.59920 0.59274
 N708 N 0.77659 0.61513 0.59832
 N709 N 0.77558 0.63158 0.61875
 C710 C 0.75382 0.63264 0.63420
 N711 N 0.73313 0.61666 0.62866
 N712 N 0.73414 0.60021 0.60823
 C713 C 0.75609 0.58302 0.56956
 C714 C 0.75560 0.57023 0.54956
 C715 C 0.75215 0.65153 0.65517
 C716 C 0.75074 0.66795 0.67226
 C717 C 0.74162 0.90868 0.10060
 N718 N 0.76208 0.89151 0.09968
 N719 N 0.76289 0.87087 0.11589
 C720 C 0.74328 0.86679 0.13355
 N721 N 0.72279 0.88392 0.13442
 N722 N 0.72198 0.90456 0.11821
 C723 C 0.74183 0.93201 0.08463
 C724 C 0.74276 0.95210 0.07200
 C725 C 0.74494 0.84554 0.15213
 C726 C 0.74647 0.82819 0.16827
 C727 C 0.24169 0.41123 0.60155
 N728 N 0.26209 0.39402 0.60013
 N729 N 0.26316 0.37328 0.61619
 C730 C 0.24388 0.36913 0.63419
 N731 N 0.22344 0.38630 0.63556
 N732 N 0.22238 0.40705 0.61950
 C733 C 0.24151 0.43450 0.58551
 C734 C 0.24210 0.45447 0.57266
 C735 C 0.24570 0.34763 0.65245
 C736 C 0.24726 0.33001 0.66829
 C737 C 0.73951 0.09168 0.90270
 N738 N 0.72030 0.09507 0.88442
 N739 N 0.72113 0.11547 0.86791
 C740 C 0.74121 0.13305 0.86913
 N741 N 0.76037 0.12971 0.88747
 N742 N 0.75954 0.10932 0.90398
 C743 C 0.73989 0.06852 0.91888
 C744 C 0.74104 0.04851 0.93163
 C745 C 0.74303 0.15393 0.85018
 C746 C 0.74476 0.17094 0.83370
 C747 C 0.24067 0.59131 0.39896
 N748 N 0.26070 0.60897 0.40005
 N749 N 0.26174 0.62894 0.38305
 C750 C 0.24283 0.63181 0.36438
 N751 N 0.22277 0.61420 0.36333
 N752 N 0.22173 0.59422 0.38033
 C753 C 0.24070 0.56866 0.41587
 C754 C 0.24149 0.54906 0.42926
 C755 C 0.24462 0.65255 0.34525
 C756 C 0.24622 0.66966 0.32887
 C757 C 0.26331 0.90181 0.91147
 N758 N 0.28053 0.88141 0.91044
 N759 N 0.27977 0.86439 0.89047
 C760 C 0.26170 0.86720 0.87098
 N761 N 0.24453 0.88765 0.87196
 N762 N 0.24529 0.90467 0.89193
 C763 C 0.26261 0.91872 0.93408
 C764 C 0.26113 0.93207 0.95366
 C765 C 0.25996 0.84808 0.85025
 C766 C 0.25823 0.83174 0.83312
 C767 C 0.75974 0.40026 0.40849
 N768 N 0.77928 0.38245 0.40464
 N769 N 0.77847 0.36609 0.38413
 C770 C 0.75806 0.36700 0.36688
 N771 N 0.73856 0.38486 0.37069
 N772 N 0.73938 0.40122 0.39120
 C773 C 0.75946 0.41632 0.43174
 C774 C 0.75842 0.42900 0.45178
 C775 C 0.75637 0.34826 0.34580
 C776 C 0.75484 0.33198 0.32858
 C777 C 0.10119 0.25835 0.08908
 N778 N 0.09915 0.23871 0.10709
 N779 N 0.11499 0.23816 0.12804
 C780 C 0.13337 0.25722 0.13161
 N781 N 0.13536 0.27690 0.11364
 N782 N 0.11952 0.27745 0.09269
 C783 C 0.08540 0.25789 0.06561
 C784 C 0.07271 0.25677 0.04554
 C785 C 0.15154 0.25576 0.15326
 C786 C 0.16740 0.25436 0.17089
 C787 C 0.59972 0.75716 0.59158
 N788 N 0.61643 0.77741 0.59653
 N789 N 0.63249 0.77661 0.61730
 C790 C 0.63235 0.75554 0.63372
 N791 N 0.61558 0.73532 0.62881
 N792 N 0.59952 0.73612 0.60805
 C793 C 0.58391 0.75706 0.56814
 C794 C 0.57133 0.75622 0.54802
 C795 C 0.65092 0.75391 0.65498
 C796 C 0.66718 0.75248 0.67223
 C797 C 0.09272 0.74285 0.90069
 N798 N 0.10937 0.76375 0.90125
 N799 N 0.13014 0.76464 0.88523
 C800 C 0.13488 0.74467 0.86814
 N801 N 0.11828 0.72374 0.86764
 N802 N 0.09751 0.72284 0.88365
 C803 C 0.06923 0.74292 0.91641
 C804 C 0.04903 0.74374 0.92885
 C805 C 0.15615 0.74644 0.84961
 C806 C 0.17342 0.74806 0.83340
 C807 C 0.59073 0.24317 0.39706
 N808 N 0.59448 0.22374 0.37912
 N809 N 0.61478 0.22474 0.36253
 C810 C 0.63192 0.24523 0.36334
 N811 N 0.62820 0.26463 0.38132
 N812 N 0.60790 0.26362 0.39791
 C813 C 0.56784 0.24307 0.41362
 C814 C 0.54813 0.24371 0.42683
 C815 C 0.65298 0.24694 0.34459
 C816 C 0.67030 0.24841 0.32843
 C817 C 0.90901 0.74057 0.09804
 N818 N 0.90574 0.72092 0.11584
 N819 N 0.88555 0.72142 0.13260
 C820 C 0.86805 0.74161 0.13212
 N821 N 0.87127 0.76121 0.11426
 N822 N 0.89146 0.76072 0.09750
 C823 C 0.93199 0.74125 0.08161
 C824 C 0.95191 0.74259 0.06875
 C825 C 0.84726 0.74293 0.15122
 C826 C 0.83021 0.74423 0.16769
 C827 C 0.41148 0.24043 0.59994
 N828 N 0.40832 0.22155 0.61856
 N829 N 0.38792 0.22246 0.63503
 C830 C 0.37010 0.24231 0.63342
 N831 N 0.37322 0.26116 0.61476
 N832 N 0.39362 0.26025 0.59828
 C833 C 0.43446 0.24057 0.58353
 C834 C 0.45424 0.24146 0.57046
 C835 C 0.34894 0.24399 0.65204
 C836 C 0.33153 0.24546 0.66809
 C837 C 0.90035 0.25926 0.91134
 N838 N 0.88079 0.27739 0.90979
 N839 N 0.86347 0.27664 0.89006
 C840 C 0.86512 0.25765 0.87134
 N841 N 0.88472 0.23955 0.87285
 N842 N 0.90204 0.24031 0.89258
 C843 C 0.91755 0.25870 0.93378
 C844 C 0.93104 0.25741 0.95329
 C845 C 0.84574 0.25609 0.85080
 C846 C 0.82929 0.25456 0.83373
 C847 C 0.40003 0.75787 0.40827
 N848 N 0.38260 0.77773 0.40432
 N849 N 0.36586 0.77690 0.38409
 C850 C 0.36601 0.75616 0.36726
 N851 N 0.38349 0.73634 0.37116
 N852 N 0.40023 0.73717 0.39139
 C853 C 0.41653 0.75770 0.43123
 C854 C 0.42953 0.75681 0.45108
 C855 C 0.34699 0.75459 0.34640
 C856 C 0.33058 0.75321 0.32928
 C857 C 0.09711 0.09065 0.25936
 N858 N 0.11449 0.09469 0.27926
 N859 N 0.13102 0.11508 0.27856
 C860 C 0.13073 0.13202 0.25789
 N861 N 0.11331 0.12803 0.23802
 N862 N 0.09677 0.10764 0.23873
 C863 C 0.08091 0.06746 0.25899
 C864 C 0.06822 0.04740 0.25792
 C865 C 0.14964 0.15302 0.25639
 C866 C 0.16600 0.17020 0.25502
 C867 C 0.59922 0.59056 0.76254
 N868 N 0.59689 0.60926 0.74360
 N869 N 0.61339 0.62967 0.74298
 C870 C 0.63275 0.63197 0.76125
 N871 N 0.63503 0.61332 0.78025
 N872 N 0.61853 0.59291 0.78087
 C873 C 0.58295 0.56747 0.76183
 C874 C 0.57009 0.54756 0.76037
 C875 C 0.65160 0.65296 0.75956
 C876 C 0.66793 0.67010 0.75785
 C877 C 0.90925 0.09881 0.75509
 N878 N 0.90440 0.11430 0.77631
 N879 N 0.88433 0.13123 0.77609
 C880 C 0.86853 0.13326 0.75461
 N881 N 0.87334 0.11773 0.73342
 N882 N 0.89341 0.10080 0.73364
 C883 C 0.93213 0.08217 0.75447
 C884 C 0.95198 0.06914 0.75328
 C885 C 0.84775 0.15246 0.75392
 C886 C 0.83066 0.16897 0.75341
 C887 C 0.40884 0.60019 0.23899
 N888 N 0.39070 0.59866 0.25852
 N889 N 0.37057 0.61550 0.25933
 C890 C 0.36802 0.63444 0.24065
 N891 N 0.38612 0.63593 0.22108
 N892 N 0.40624 0.61908 0.22027
 C893 C 0.43165 0.58351 0.23938
 C894 C 0.45136 0.57031 0.24049
 C895 C 0.34724 0.65352 0.24235
 C896 C 0.33016 0.66994 0.24397
 C897 C 0.09106 0.90085 0.75549
 N898 N 0.10666 0.89922 0.73387
 N899 N 0.12733 0.88301 0.73356
 C900 C 0.13301 0.86790 0.75486
 N901 N 0.11745 0.86959 0.77650
 N902 N 0.09679 0.88579 0.77681
 C903 C 0.06769 0.91679 0.75505
 C904 C 0.04755 0.92938 0.75401
 C905 C 0.15432 0.84931 0.75402
 C906 C 0.17173 0.83314 0.75340
 C907 C 0.58995 0.39882 0.23919
 N908 N 0.59320 0.38024 0.22029
 N909 N 0.61389 0.36408 0.22097
 C910 C 0.63193 0.36600 0.24061
 N911 N 0.62872 0.38463 0.25947
 N912 N 0.60803 0.40078 0.25879
 C913 C 0.56667 0.41485 0.23961
 C914 C 0.54669 0.42764 0.24073
 C915 C 0.65326 0.34751 0.24224
 C916 C 0.67067 0.33143 0.24380
 C917 C 0.90001 0.90785 0.25696
 N918 N 0.89994 0.89143 0.23587
 N919 N 0.88347 0.87099 0.23494
 C920 C 0.86652 0.86637 0.25505
 N921 N 0.86664 0.88274 0.27617
 N922 N 0.88311 0.90318 0.27710
 C923 C 0.91620 0.93105 0.25695
 C924 C 0.92893 0.95112 0.25623
 C925 C 0.84770 0.84529 0.25339
 C926 C 0.83141 0.82805 0.25193
 C927 C 0.39896 0.40823 0.75857
 N928 N 0.40048 0.39053 0.73862
 N929 N 0.38408 0.37005 0.73771
 C930 C 0.36563 0.36666 0.75671
 N931 N 0.36416 0.38432 0.77670
 N932 N 0.38056 0.40480 0.77761
 C933 C 0.41521 0.43136 0.75841
 C934 C 0.42812 0.45128 0.75753
 C935 C 0.34691 0.34555 0.75489
 C936 C 0.33069 0.32829 0.75316
 C937 C 0.10145 0.24173 0.90781
 N938 N 0.11858 0.22163 0.90377
 N939 N 0.13457 0.22181 0.88297
 C940 C 0.13393 0.24209 0.86559
 N941 N 0.11675 0.26215 0.86958
 N942 N 0.10076 0.26198 0.89038
 C943 C 0.08565 0.24255 0.93120
 C944 C 0.07303 0.24395 0.95124
 C945 C 0.15240 0.24312 0.84425
 C946 C 0.16858 0.24411 0.82692
 C947 C 0.60206 0.74251 0.40984
 N948 N 0.61966 0.72272 0.40637
 N949 N 0.63625 0.72312 0.38605
 C950 C 0.63579 0.74336 0.36861
 N951 N 0.61814 0.76313 0.37204
 N952 N 0.60155 0.76272 0.39237
 C953 C 0.58552 0.74306 0.43274
 C954 C 0.57235 0.74422 0.45246
 C955 C 0.65456 0.74444 0.34753
 C956 C 0.67076 0.74536 0.33020
 C957 C 0.91203 0.75737 0.89775
 N958 N 0.90968 0.77579 0.87855
 N959 N 0.88920 0.77532 0.86211
 C960 C 0.87049 0.75638 0.86434
 N961 N 0.87280 0.73800 0.88359
 N962 N 0.89328 0.73847 0.90003
 C963 C 0.93497 0.75677 0.91425
 C964 C 0.95467 0.75554 0.92747
 C965 C 0.84915 0.75514 0.84584
 C966 C 0.83156 0.75401 0.82992
 C967 C 0.40885 0.25582 0.39990
 N968 N 0.40371 0.27640 0.38366
 N969 N 0.38290 0.27583 0.36765
 C970 C 0.36662 0.25464 0.36735
 N971 N 0.37171 0.23409 0.38364
 N972 N 0.39252 0.23466 0.39966
 C973 C 0.43230 0.25555 0.41571
 C974 C 0.45244 0.25462 0.42828
 C975 C 0.34518 0.25339 0.34894
 C976 C 0.32770 0.25237 0.33289
 C977 C 0.08867 0.75735 0.10067
 N978 N 0.09170 0.77651 0.11904
 N979 N 0.11212 0.77598 0.13554
 C980 C 0.13010 0.75626 0.13420
 N981 N 0.12711 0.73714 0.11579
 N982 N 0.10668 0.73767 0.09929
 C983 C 0.06571 0.75684 0.08421
 C984 C 0.04598 0.75566 0.07104
 C985 C 0.15128 0.75498 0.15286
 C986 C 0.16868 0.75388 0.16898
 C987 C 0.59244 0.25420 0.59964
 N988 N 0.59744 0.27517 0.61541
 N989 N 0.61752 0.27460 0.63233
 C990 C 0.63317 0.25300 0.63404
 N991 N 0.62822 0.23206 0.61822
 N992 N 0.60814 0.23263 0.60130
 C993 C 0.56958 0.25394 0.58300
 C994 C 0.54977 0.25305 0.56991
 C995 C 0.65387 0.25187 0.65328
 C996 C 0.67085 0.25099 0.66987
 C997 C 0.90183 0.24268 0.09002
 N998 N 0.90234 0.26302 0.10733
 N999 N 0.88560 0.26369 0.12752
 C1000 C 0.86781 0.24407 0.13095
 N1001 N 0.86736 0.22368 0.11369
 N1002 N 0.88410 0.22301 0.09351
 C1003 C 0.91826 0.24314 0.06709
 C1004 C 0.93120 0.24432 0.04725
 C1005 C 0.84875 0.24554 0.15170
 C1006 C 0.83228 0.24683 0.16872
 C1007 C 0.39935 0.74502 0.58940
 N1008 N 0.38178 0.72530 0.59344
 N1009 N 0.36530 0.72620 0.61383
 C1010 C 0.36583 0.74687 0.63076
 N1011 N 0.38344 0.76656 0.62675
 N1012 N 0.39992 0.76566 0.60636
 C1013 C 0.41577 0.74501 0.56643
 C1014 C 0.42887 0.74571 0.54665
 C1015 C 0.34723 0.74840 0.65195
 C1016 C 0.33120 0.74963 0.66940
 C1017 C 0.24358 0.10094 0.90915
 N1018 N 0.26455 0.10080 0.89261
 N1019 N 0.26491 0.11637 0.87148
 C1020 C 0.24430 0.13255 0.86624
 N1021 N 0.22329 0.13263 0.88273
 N1022 N 0.22293 0.11706 0.90387
 C1023 C 0.24408 0.08560 0.93288
 C1024 C 0.24520 0.07332 0.95318
 C1025 C 0.24545 0.15070 0.84460
 C1026 C 0.24647 0.16671 0.82709
 C1027 C 0.74471 0.60037 0.41072
 N1028 N 0.72434 0.61696 0.40584
 N1029 N 0.72505 0.63317 0.38520
 C1030 C 0.74616 0.63331 0.36885
 N1031 N 0.76650 0.61668 0.37369
 N1032 N 0.76579 0.60047 0.39433
 C1033 C 0.74478 0.58420 0.43389
 C1034 C 0.74552 0.57124 0.45377
 C1035 C 0.74749 0.65178 0.34750
 C1036 C 0.74853 0.66783 0.33004
 C1037 C 0.75605 0.08840 0.10200
 N1038 N 0.77599 0.09240 0.11933
 N1039 N 0.77565 0.11315 0.13541
 C1040 C 0.75534 0.13050 0.13468
 N1041 N 0.73542 0.12654 0.11730
 N1042 N 0.73577 0.10579 0.10122
 C1043 C 0.75549 0.06515 0.08595
 C1044 C 0.75432 0.04523 0.07307
 C1045 C 0.75431 0.15199 0.15300
 C1046 C 0.75344 0.16957 0.16892
 C1047 C 0.25466 0.59322 0.60131
 N1048 N 0.27593 0.59860 0.61656
 N1049 N 0.27563 0.61905 0.63303
 C1050 C 0.25404 0.63470 0.63478
 N1051 N 0.23279 0.62936 0.61947
 N1052 N 0.23309 0.60892 0.60300
 C1053 C 0.25419 0.57010 0.58506
 C1054 C 0.25315 0.55017 0.57219
 C1055 C 0.25320 0.65574 0.65363
 C1056 C 0.25258 0.67292 0.67000
 C1057 C 0.75658 0.91106 0.89965
 N1058 N 0.77505 0.90913 0.88046
 N1059 N 0.77462 0.88903 0.86359
 C1060 C 0.75566 0.87029 0.86534
 N1061 N 0.73723 0.87217 0.88457
 N1062 N 0.73766 0.89228 0.90144
 C1063 C 0.75586 0.93370 0.91653
 C1064 C 0.75450 0.95324 0.92995
 C1065 C 0.75451 0.84932 0.84643
 C1066 C 0.75343 0.83198 0.83026
 C1067 C 0.25360 0.41025 0.40148
 N1068 N 0.27425 0.40511 0.38535
 N1069 N 0.27353 0.38458 0.36901
 C1070 C 0.25213 0.36860 0.36827
 N1071 N 0.23152 0.37369 0.38446
 N1072 N 0.23224 0.39422 0.40079
 C1073 C 0.25348 0.43348 0.41756
 C1074 C 0.25267 0.45348 0.43031
 C1075 C 0.25076 0.34747 0.34957
 C1076 C 0.24967 0.33021 0.33331
 C1077 C 0.24450 0.90225 0.09087
 N1078 N 0.26482 0.90206 0.10823
 N1079 N 0.26521 0.88487 0.12807
 C1080 C 0.24532 0.86729 0.13108
 N1081 N 0.22496 0.86753 0.11377
 N1082 N 0.22458 0.88472 0.09394
 C1083 C 0.24523 0.91915 0.06826
 C1084 C 0.24662 0.93242 0.04863
 C1085 C 0.24639 0.84790 0.15159
 C1086 C 0.24732 0.83128 0.16851
 C1087 C 0.74457 0.39687 0.58936
 N1088 N 0.76421 0.39812 0.60744
 N1089 N 0.76485 0.38128 0.62757
 C1090 C 0.74590 0.36263 0.63017
 N1091 N 0.72622 0.36142 0.61212
 N1092 N 0.72559 0.37826 0.59199
 C1093 C 0.74495 0.41374 0.56670
 C1094 C 0.74600 0.42717 0.54715
 C1095 C 0.74714 0.34381 0.65121
 C1096 C 0.74818 0.32774 0.66865
 C1097 C 0.08906 0.10004 0.73972
 N1098 N 0.10669 0.09868 0.75976
 N1099 N 0.12722 0.11502 0.76054
 C1100 C 0.13070 0.13323 0.74132
 N1101 N 0.11311 0.13454 0.72124
 N1102 N 0.09258 0.11821 0.72046
 C1103 C 0.06596 0.08383 0.73997
 C1104 C 0.04614 0.07084 0.74098
 C1105 C 0.15190 0.15180 0.74290
 C1106 C 0.16925 0.16792 0.74425
 C1107 C 0.58976 0.59926 0.25490
 N1108 N 0.59368 0.61647 0.27495
 N1109 N 0.61414 0.63292 0.27455
 C1110 C 0.63126 0.63270 0.25406
 N1111 N 0.62739 0.61544 0.23404
 N1112 N 0.60693 0.59898 0.23444
 C1113 C 0.56668 0.58297 0.25433
 C1114 C 0.54680 0.57004 0.25314
 C1115 C 0.65240 0.65142 0.25296
 C1116 C 0.66972 0.66762 0.25199
 C1117 C 0.10102 0.91090 0.24379
 N1118 N 0.11893 0.90774 0.22425
 N1119 N 0.13566 0.88751 0.22474
 C1120 C 0.13501 0.86989 0.24480
 N1121 N 0.11705 0.87301 0.26431
 N1122 N 0.10032 0.89324 0.26382
 C1123 C 0.08435 0.93367 0.24429
 C1124 C 0.07102 0.95327 0.24546
 C1125 C 0.15386 0.84892 0.24596
 C1126 C 0.17011 0.83165 0.24690
 C1127 C 0.60125 0.41016 0.74346
 N1128 N 0.62022 0.40820 0.72477
 N1129 N 0.63715 0.38813 0.72507
 C1130 C 0.63566 0.36945 0.74412
 N1131 N 0.61665 0.37136 0.76276
 N1132 N 0.59972 0.39144 0.76246
 C1133 C 0.58441 0.43283 0.74437
 C1134 C 0.57107 0.45242 0.74589
 C1135 C 0.65473 0.34862 0.74523
 C1136 C 0.67108 0.33143 0.74633
 C1137 C 0.89777 0.08868 0.24395
 N1138 N 0.88079 0.09316 0.22381
 N1139 N 0.86477 0.11395 0.22434
 C1140 C 0.86523 0.13086 0.24502
 N1141 N 0.88226 0.12642 0.26512
 N1142 N 0.89829 0.10563 0.26460
 C1143 C 0.91377 0.06542 0.24425
 C1144 C 0.92668 0.04554 0.24522
 C1145 C 0.84695 0.15234 0.24621
 C1146 C 0.83102 0.16989 0.24715
 C1147 C 0.39910 0.59014 0.74380
 N1148 N 0.38118 0.59377 0.72431
 N1149 N 0.36510 0.61451 0.72473
 C1150 C 0.36641 0.63224 0.74468
 N1151 N 0.38438 0.62866 0.76413
 N1152 N 0.40047 0.60791 0.76371
 C1153 C 0.41512 0.56686 0.74437
 C1154 C 0.42794 0.54690 0.74556
 C1155 C 0.34805 0.65370 0.74590
 C1156 C 0.33208 0.67124 0.74702
 C1157 C 0.91033 0.89748 0.74239
 N1158 N 0.89314 0.89853 0.76280
 N1159 N 0.87264 0.88216 0.76376
 C1160 C 0.86875 0.86423 0.74435
 N1161 N 0.88589 0.86323 0.72391
 N1162 N 0.90639 0.87959 0.72295
 C1163 C 0.93336 0.91381 0.74234
 C1164 C 0.95313 0.92692 0.74303
 C1165 C 0.84754 0.84567 0.74605
 C1166 C 0.83014 0.82960 0.74749
 C1167 C 0.40839 0.39831 0.25672
 N1168 N 0.40519 0.38066 0.27651
 N1169 N 0.38470 0.36424 0.27647
 C1170 C 0.36682 0.36494 0.25662
 N1171 N 0.36998 0.38264 0.23686
 N1172 N 0.39047 0.39905 0.23690
 C1173 C 0.43146 0.41461 0.25572
 C1174 C 0.45130 0.42757 0.25418
 C1175 C 0.34561 0.34627 0.25585
 C1176 C 0.32821 0.33012 0.25510
   
