data_POSCAR
  _audit_creation_date              2014-09-24
  _audit_creation_method            'ToBaCCo'
  _symmetry_space_group_name_H-M    'P1'
  _symmetry_Int_Tables_number       1
  _symmetry_cell_setting            triclinic
  loop_
  _symmetry_equiv_pos_as_xyz
 x,y,z
_cell_length_a 31.7289
_cell_length_b 31.9565
_cell_length_c 31.1384
_cell_angle_alpha 89.974300
_cell_angle_beta 89.923100
_cell_angle_gamma 89.932500
loop_
  _atom_site_label
  _atom_site_type_symbol
  _atom_site_fract_x
  _atom_site_fract_y
  _atom_site_fract_z
C1 C 0.40820 0.27717 -0.03117
 C2 C 0.42592 0.26812 0.00927
 C3 C 0.41131 0.28623 0.04712
 C4 C 0.37914 0.31635 0.04543
 C5 C 0.36151 0.32776 0.00510
 C6 C 0.37650 0.30880 -0.03351
 C7 C 0.35717 0.31999 -0.07257
 C8 C 0.32381 0.34843 -0.07387
 C9 C 0.30793 0.36691 -0.03617
 C10 C 0.32719 0.35646 0.00381
 C11 C 0.36343 0.33436 0.08327
 C12 C 0.32992 0.36220 0.08204
 C13 C 0.31101 0.37313 0.04290
 C14 C 0.27538 0.39925 0.04204
 C15 C 0.25717 0.40951 0.00268
 C16 C 0.27167 0.39326 -0.03666
 H17 H 0.36666 0.30615 -0.10270
 H18 H 0.30976 0.35456 -0.10484
 H19 H 0.37655 0.32651 0.11433
 H20 H 0.31845 0.37449 0.11226
 H21 H 0.45194 0.24624 0.01195
 H22 H 0.23188 0.43235 0.00304
 C23 C 0.72866 0.60469 0.04078
 C24 C 0.74634 0.59162 0.00197
 C25 C 0.73365 0.60759 -0.03805
 C26 C 0.69916 0.63607 -0.03902
 C27 C 0.68049 0.64953 0.00039
 C28 C 0.69524 0.63359 0.04031
 C29 C 0.67714 0.64790 0.07878
 C30 C 0.64561 0.67811 0.07842
 C31 C 0.63095 0.69494 0.03958
 C32 C 0.64811 0.68030 0.00009
 C33 C 0.68448 0.65354 -0.07773
 C34 C 0.65252 0.68349 -0.07797
 C35 C 0.63408 0.69752 -0.03953
 C36 C 0.60305 0.72939 -0.03939
 C37 C 0.58621 0.74269 -0.00009
 C38 C 0.60047 0.72702 0.03919
 H39 H 0.68773 0.63636 0.10962
 H40 H 0.63312 0.68855 0.10897
 H41 H 0.69811 0.64509 -0.10834
 H42 H 0.64309 0.69625 -0.10868
 H43 H 0.76996 0.56710 0.00331
 H44 H 0.56139 0.76607 0.00015
 C45 C 0.61176 0.26144 1.04089
 C46 C 0.59937 0.24628 1.00037
 C47 C 0.61320 0.26392 0.96182
 C48 C 0.63925 0.29944 0.96285
 C49 C 0.65230 0.31598 1.00306
 C50 C 0.63861 0.29713 1.04223
 C51 C 0.65394 0.31340 1.08131
 C52 C 0.68157 0.34725 1.08209
 C53 C 0.69513 0.36628 1.04392
 C54 C 0.68014 0.35077 1.00396
 C55 C 0.65338 0.31817 0.92464
 C56 C 0.68049 0.35224 0.92559
 C57 C 0.69448 0.36878 0.96477
 C58 C 0.72372 0.40190 0.96584
 C59 C 0.73706 0.41750 1.00544
 C60 C 0.72461 0.39939 1.04434
 H61 H 0.64587 0.29956 1.11187
 H62 H 0.69272 0.35807 1.11299
 H63 H 0.64407 0.30622 0.89355
 H64 H 0.69082 0.36522 0.89524
 H65 H 0.57603 0.22171 0.99806
 H66 H 0.75919 0.44338 1.00591
 C67 C 0.27711 0.59541 0.95711
 C68 C 0.25961 0.58349 0.99632
 C69 C 0.27196 0.60121 1.03569
 C70 C 0.30589 0.63030 1.03556
 C71 C 0.32444 0.64252 0.99572
 C72 C 0.31015 0.62463 0.95648
 C73 C 0.32810 0.63750 0.91748
 C74 C 0.35863 0.66853 0.91651
 C75 C 0.37226 0.68778 0.95451
 C76 C 0.35574 0.67436 0.99472
 C77 C 0.31979 0.64982 1.07345
 C78 C 0.35048 0.68097 1.07248
 C79 C 0.36879 0.69415 1.03356
 C80 C 0.39747 0.72838 1.03174
 C81 C 0.41363 0.74009 0.99136
 C82 C 0.40090 0.72124 0.95314
 H83 H 0.31806 0.62424 0.88719
 H84 H 0.37086 0.67791 0.88550
 H85 H 0.30621 0.64234 1.10435
 H86 H 0.35846 0.69546 1.10272
 H87 H 0.23604 0.55894 0.99579
 H88 H 0.43786 0.76388 0.98913
 C89 C 0.04329 0.27466 0.39973
 C90 C 0.00619 0.25359 0.41036
 C91 C -0.03345 0.26519 0.39372
 C92 C -0.03544 0.30069 0.36598
 C93 C 0.00247 0.32173 0.35406
 C94 C 0.04179 0.30879 0.37139
 C95 C 0.07896 0.32916 0.35875
 C96 C 0.07809 0.36057 0.32803
 C97 C 0.03994 0.37316 0.30934
 C98 C 0.00148 0.35454 0.32315
 C99 C -0.07359 0.31408 0.34740
 C100 C -0.07463 0.34657 0.31755
 C101 C -0.03754 0.36705 0.30446
 C102 C -0.03768 0.39736 0.27097
 C103 C 0.00101 0.41512 0.25845
 C104 C 0.03948 0.40279 0.27598
 H105 H 0.10932 0.32016 0.37164
 H106 H 0.10778 0.37443 0.31854
 H107 H -0.10314 0.29879 0.35445
 H108 H -0.10488 0.35422 0.30368
 H109 H 0.00857 0.22857 0.43376
 H110 H 0.00158 0.44011 0.23487
 C111 C 0.04147 0.59775 0.72674
 C112 C 0.00352 0.58322 0.74374
 C113 C -0.03587 0.59989 0.73205
 C114 C -0.03713 0.63042 0.69882
 C115 C 0.00134 0.64535 0.68065
 C116 C 0.04068 0.62872 0.69458
 C117 C 0.07826 0.64448 0.67718
 C118 C 0.07762 0.67690 0.64744
 C119 C 0.03938 0.69470 0.63398
 C120 C 0.00068 0.67852 0.65011
 C121 C -0.07527 0.64863 0.68531
 C122 C -0.07592 0.68085 0.65524
 C123 C -0.03846 0.69662 0.63727
 C124 C -0.03867 0.73172 0.60916
 C125 C 0.00025 0.74642 0.59353
 C126 C 0.03890 0.72928 0.60593
 H127 H 0.10862 0.63238 0.68706
 H128 H 0.10756 0.68846 0.63573
 H129 H -0.10523 0.63920 0.69865
 H130 H -0.10632 0.69413 0.64754
 H131 H 0.00508 0.55749 0.76641
 H132 H 0.00086 0.77086 0.56940
 C133 C 1.04161 0.73839 0.39090
 C134 C 1.00335 0.75739 0.40198
 C135 C 0.96516 0.74468 0.38445
 C136 C 0.96406 0.71016 0.35636
 C137 C 1.00249 0.69028 0.34447
 C138 C 1.04143 0.70458 0.36165
 C139 C 1.07911 0.68599 0.34771
 C140 C 1.07891 0.65472 0.31656
 C141 C 1.04085 0.63988 0.29897
 C142 C 1.00209 0.65736 0.31386
 C143 C 0.92596 0.69592 0.33888
 C144 C 0.92536 0.66268 0.31011
 C145 C 0.96295 0.64336 0.29684
 C146 C 0.96259 0.61137 0.26580
 C147 C 1.00083 0.59499 0.25131
 C148 C 1.04014 0.61003 0.26517
 H149 H 1.10929 0.69641 0.35982
 H150 H 1.10914 0.64288 0.30621
 H151 H 0.89625 0.71050 0.34716
 H152 H 0.89516 0.65301 0.29740
 H153 H 1.00320 0.78323 0.42461
 H154 H 0.99969 0.56881 0.22918
 C155 C 1.03661 0.26787 0.60263
 C156 C 0.99819 0.25555 0.58473
 C157 C 0.95959 0.27071 0.59981
 C158 C 0.95907 0.30177 0.63193
 C159 C 0.99780 0.31596 0.64969
 C160 C 1.03669 0.29896 0.63498
 C161 C 1.07438 0.31245 0.65399
 C162 C 1.07418 0.34193 0.68687
 C163 C 1.03622 0.35932 0.70217
 C164 C 0.99750 0.34597 0.68338
 C165 C 0.92094 0.31802 0.64762
 C166 C 0.92058 0.34735 0.68061
 C167 C 0.95834 0.36144 0.69911
 C168 C 0.95796 0.38969 0.73380
 C169 C 0.99618 0.40278 0.75148
 C170 C 1.03550 0.38767 0.73735
 H171 H 1.10452 0.29975 0.64424
 H172 H 1.10428 0.34990 0.70079
 H173 H 0.89097 0.30782 0.63478
 H174 H 0.89030 0.35845 0.69195
 H175 H 0.99808 0.23301 0.55868
 H176 H 0.99490 0.42710 0.77569
 C177 C 0.37979 -0.03695 0.25104
 C178 C 0.39031 0.00154 0.23177
 C179 C 0.37353 0.03948 0.24533
 C180 C 0.34472 0.04026 0.27963
 C181 C 0.33380 0.00220 0.30065
 C182 C 0.35202 -0.03645 0.28706
 C183 C 0.33953 -0.07350 0.30799
 C184 C 0.30964 -0.07298 0.34086
 C185 C 0.29056 -0.03542 0.35428
 C186 C 0.30305 0.00268 0.33395
 C187 C 0.32545 0.07783 0.29229
 C188 C 0.29509 0.07822 0.32441
 C189 C 0.28320 0.04111 0.34518
 C190 C 0.25099 0.04118 0.37613
 C191 C 0.23941 0.00407 0.39596
 C192 C 0.25729 -0.03485 0.38510
 H193 H 0.35165 -0.10370 0.29843
 H194 H 0.30074 -0.10277 0.35453
 H195 H 0.33301 0.10718 0.27674
 H196 H 0.28055 0.10786 0.33247
 H197 H 0.41372 0.00277 0.20639
 H198 H 0.21609 0.00626 0.42138
 C199 C 0.73314 0.04076 0.60434
 C200 C 0.75098 0.00319 0.59024
 C201 C 0.73738 -0.03616 0.60481
 C202 C 0.70216 -0.03760 0.63317
 C203 C 0.68312 0.00048 0.64739
 C204 C 0.69873 0.03972 0.63291
 C205 C 0.68033 0.07683 0.64827
 C206 C 0.64747 0.07574 0.67793
 C207 C 0.63153 0.03747 0.69299
 C208 C 0.64922 -0.00058 0.67730
 C209 C 0.68667 -0.07573 0.64954
 C210 C 0.65326 -0.07671 0.67842
 C211 C 0.63422 -0.03967 0.69280
 C212 C 0.60162 -0.04059 0.72361
 C213 C 0.58398 -0.00290 0.73776
 C214 C 0.59932 0.03606 0.72440
 H215 H 0.69171 0.10715 0.63797
 H216 H 0.63492 0.10525 0.68923
 H217 H 0.70056 -0.10549 0.64125
 H218 H 0.64304 -0.10696 0.69008
 H219 H 0.77495 0.00519 0.56553
 H220 H 0.55812 -0.00393 0.76058
 C221 C 0.26372 0.96444 0.61607
 C222 C 0.25053 1.00245 0.59845
 C223 C 0.26479 1.04150 0.61341
 C224 C 0.29693 1.04193 0.64518
 C225 C 0.31072 1.00338 0.66368
 C226 C 0.29389 0.96463 0.64918
 C227 C 0.30657 0.92724 0.66910
 C228 C 0.33483 0.92763 0.70321
 C229 C 0.35205 0.96535 0.71808
 C230 C 0.34023 1.00363 0.69798
 C231 C 0.31394 1.07962 0.66092
 C232 C 0.34353 1.07970 0.69387
 C233 C 0.35676 1.04224 0.71313
 C234 C 0.38483 1.04239 0.74832
 C235 C 0.39588 1.00435 0.76756
 C236 C 0.37979 0.96625 0.75348
 H237 H 0.29399 0.89733 0.65908
 H238 H 0.34269 0.89806 0.71812
 H239 H 0.30420 1.10971 0.64866
 H240 H 0.35506 1.10967 0.70496
 H241 H 0.22936 1.00117 0.57118
 H242 H 0.41815 1.00419 0.79400
 C243 C 0.59882 0.95993 0.27293
 C244 C 0.58549 0.99861 0.25716
 C245 C 0.60352 1.03679 0.27008
 C246 C 0.63479 1.03589 0.30282
 C247 C 0.64799 0.99674 0.32026
 C248 C 0.62953 0.95875 0.30552
 C249 C 0.64316 0.92049 0.32273
 C250 C 0.67502 0.91914 0.35323
 C251 C 0.69481 0.95595 0.36724
 C252 C 0.68114 0.99530 0.35105
 C253 C 0.65525 1.07252 0.31664
 C254 C 0.68788 1.07106 0.34646
 C255 C 0.70161 1.03291 0.36424
 C256 C 0.73688 1.03082 0.39254
 C257 C 0.74910 0.99121 0.40811
 C258 C 0.72896 0.95421 0.39591
 H259 H 0.62966 0.89111 0.31234
 H260 H 0.68472 0.88875 0.36503
 H261 H 0.64743 1.10286 0.30356
 H262 H 0.70294 1.10039 0.35417
 H263 H 0.55932 0.99853 0.23483
 H264 H 0.77371 0.98870 0.43207
 O265 O 0.89560 0.82658 0.45447
 O266 O 0.85117 0.90267 0.52962
 O267 O 0.90713 0.84380 0.53451
 O268 O 0.84718 0.89094 0.44802
 O269 O 0.79271 0.85015 0.46224
 O270 O 0.85672 0.79787 0.54760
 O271 O 0.79921 0.85911 0.54476
 O272 O 0.84287 0.78320 0.46690
 Cu273 Cu 0.88043 0.87011 0.49044
 Cu274 Cu 0.81750 0.81820 0.50680
 C275 C 0.87728 0.79178 0.44811
 C276 C 0.81715 0.89433 0.54932
 C277 C 0.89351 0.81228 0.55476
 C278 C 0.80956 0.88000 0.44109
 O279 O 0.10806 0.15794 0.44759
 O280 O 0.15594 0.09612 0.53171
 O281 O 0.09870 0.15384 0.52967
 O282 O 0.17233 0.10914 0.45132
 O283 O 0.21766 0.16000 0.46399
 O284 O 0.14420 0.20418 0.54410
 O285 O 0.20338 0.14495 0.54507
 O286 O 0.15085 0.21075 0.46156
 Cu287 Cu 0.12953 0.12423 0.48892
 Cu288 Cu 0.18368 0.18508 0.50497
 C289 C 0.11992 0.19505 0.44094
 C290 C 0.18793 0.10873 0.55201
 C291 C 0.10847 0.18717 0.54951
 C292 C 0.20764 0.12672 0.44439
 O293 O 0.09193 0.84897 0.54559
 O294 O 0.14650 0.91049 0.46498
 O295 O 0.09329 0.85125 0.46243
 O296 O 0.14632 0.90844 0.54771
 O297 O 0.19922 0.86344 0.54667
 O298 O 0.14409 0.80387 0.46069
 O299 O 0.19935 0.86547 0.46238
 O300 O 0.14254 0.80143 0.54457
 Cu301 Cu 0.11441 0.88425 0.50548
 Cu302 Cu 0.17670 0.82875 0.50377
 C303 C 0.10715 0.81460 0.55847
 C304 C 0.18167 0.89906 0.44973
 C305 C 0.10922 0.81820 0.44688
 C306 C 0.18198 0.89654 0.56121
 O307 O 0.90878 0.14939 0.54176
 O308 O 0.85682 0.08519 0.46113
 O309 O 0.91429 0.14419 0.45976
 O310 O 0.85254 0.09325 0.54350
 O311 O 0.80180 0.14023 0.53665
 O312 O 0.86579 0.19324 0.45225
 O313 O 0.80627 0.13212 0.45349
 O314 O 0.86018 0.19861 0.53506
 Cu315 Cu 0.88791 0.11316 0.50161
 Cu316 Cu 0.82834 0.17091 0.49302
 C317 C 0.89386 0.18472 0.55214
 C318 C 0.82202 0.09641 0.44490
 C319 C 0.90200 0.17837 0.44337
 C320 C 0.81697 0.10774 0.55453
 O321 O 0.45463 0.89303 0.82947
 O322 O 0.53311 0.84454 0.89964
 O323 O 0.53470 0.90151 0.84092
 O324 O 0.45218 0.84065 0.89234
 O325 O 0.46187 0.78858 0.84667
 O326 O 0.54349 0.85271 0.79143
 O327 O 0.54319 0.79400 0.85230
 O328 O 0.46299 0.84271 0.78164
 Cu329 Cu 0.49275 0.87487 0.87023
 Cu330 Cu 0.50386 0.81433 0.81314
 C331 C 0.44572 0.87668 0.79342
 C332 C 0.55098 0.81071 0.88845
 C333 C 0.55233 0.88850 0.80701
 C334 C 0.44361 0.80412 0.87946
 O335 O 0.53047 0.15341 0.09889
 O336 O 0.44897 0.11063 0.16901
 O337 O 0.45058 0.16548 0.10855
 O338 O 0.52789 0.09607 0.15699
 O339 O 0.54295 0.14271 0.20702
 O340 O 0.46597 0.21512 0.15536
 O341 O 0.46309 0.15827 0.21821
 O342 O 0.54618 0.20184 0.14688
 Cu343 Cu 0.48806 0.12671 0.12860
 Cu344 Cu 0.50597 0.18444 0.18691
 C345 C 0.55172 0.18509 0.11028
 C346 C 0.44242 0.12646 0.20580
 C347 C 0.44569 0.20227 0.12265
 C348 C 0.54785 0.10660 0.19043
 O349 O 0.54041 0.09011 0.85084
 O350 O 0.47192 0.15373 0.91809
 O351 O 0.45962 0.09676 0.86101
 O352 O 0.55177 0.14736 0.90750
 O353 O 0.54852 0.19749 0.85867
 O354 O 0.45756 0.14344 0.80867
 O355 O 0.46751 0.20256 0.86803
 O356 O 0.53930 0.13791 0.79958
 Cu357 Cu 0.50609 0.11712 0.88918
 Cu358 Cu 0.50296 0.17523 0.82836
 C359 C 0.55161 0.10265 0.81399
 C360 C 0.45866 0.18904 0.90545
 C361 C 0.44335 0.11066 0.82673
 C362 C 0.56496 0.18165 0.89219
 O363 O 0.46383 0.84850 0.08358
 O364 O 0.53952 0.90581 0.14845
 O365 O 0.54416 0.84762 0.09198
 O366 O 0.45847 0.90695 0.14006
 O367 O 0.45195 0.86110 0.19276
 O368 O 0.53774 0.79865 0.14171
 O369 O 0.53413 0.85931 0.20068
 O370 O 0.45648 0.80039 0.13402
 Cu371 Cu 0.50200 0.88199 0.11116
 Cu372 Cu 0.49448 0.82508 0.17274
 C373 C 0.44801 0.81445 0.09674
 C374 C 0.54968 0.89293 0.18547
 C375 C 0.55479 0.81259 0.10754
 C376 C 0.44096 0.89503 0.17451
 O377 O 0.91096 0.53310 0.85422
 O378 O 0.84702 0.45761 0.91204
 O379 O 0.90365 0.45289 0.85387
 O380 O 0.85187 0.53782 0.91135
 O381 O 0.80234 0.54237 0.86177
 O382 O 0.85656 0.45690 0.80180
 O383 O 0.79745 0.46121 0.86235
 O384 O 0.86354 0.53813 0.80258
 Cu385 Cu 0.88315 0.49522 0.88779
 Cu386 Cu 0.82499 0.50017 0.82684
 C387 C 0.89923 0.54772 0.81840
 C388 C 0.81133 0.44685 0.89779
 C389 C 0.88960 0.44070 0.81795
 C390 C 0.81786 0.55369 0.89757
 O391 O 0.15435 0.45616 0.09571
 O392 O 0.09358 0.53858 0.14716
 O393 O 0.15204 0.53639 0.08942
 O394 O 0.09617 0.45842 0.15249
 O395 O 0.14320 0.46363 0.20452
 O396 O 0.20132 0.54256 0.13907
 O397 O 0.14078 0.54465 0.19890
 O398 O 0.20385 0.46152 0.14530
 Cu399 Cu 0.11932 0.49709 0.11619
 Cu400 Cu 0.17730 0.50370 0.17721
 C401 C 0.18960 0.44519 0.11100
 C402 C 0.10571 0.55481 0.18210
 C403 C 0.18644 0.55195 0.10237
 C404 C 0.10940 0.44811 0.18932
 O405 O 0.90702 0.46223 0.14924
 O406 O 0.84567 0.54157 0.09395
 O407 O 0.90556 0.54256 0.14806
 O408 O 0.84594 0.46052 0.09445
 O409 O 0.79851 0.46020 0.14646
 O410 O 0.86044 0.54281 0.20221
 O411 O 0.79822 0.54188 0.14601
 O412 O 0.86185 0.46120 0.20329
 Cu413 Cu 0.88046 0.50141 0.11611
 Cu414 Cu 0.82492 0.50125 0.17996
 C415 C 0.89610 0.44905 0.18593
 C416 C 0.81183 0.55543 0.11014
 C417 C 0.89371 0.55651 0.18417
 C418 C 0.81183 0.44696 0.11037
 O419 O 0.09217 0.45863 0.85470
 O420 O 0.15632 0.53889 0.90491
 O421 O 0.09793 0.53872 0.84865
 O422 O 0.15279 0.45848 0.90997
 O423 O 0.20103 0.45148 0.85926
 O424 O 0.14389 0.53266 0.79561
 O425 O 0.20478 0.53274 0.85422
 O426 O 0.13811 0.45153 0.80182
 Cu427 Cu 0.12022 0.49906 0.88466
 Cu428 Cu 0.17681 0.49130 0.82235
 C429 C 0.10311 0.44220 0.81944
 C430 C 0.19140 0.54933 0.88884
 C431 C 0.11091 0.54916 0.81170
 C432 C 0.18654 0.44205 0.89613
 C433 C 0.25565 0.41708 0.08126
 C434 C 0.21385 0.41469 0.08610
 H435 H 0.27437 0.43669 0.10223
 H436 H 0.19602 0.39545 0.06392
 C437 C 0.74710 0.58710 0.08074
 C438 C 0.78902 0.58672 0.08495
 H439 H 0.72724 0.56945 0.10249
 H440 H 0.80780 0.60416 0.06195
 C441 C 0.74444 0.41896 0.92687
 C442 C 0.78652 0.41878 0.92503
 H443 H 0.72584 0.43533 0.90304
 H444 H 0.80382 0.40245 0.95000
 C445 C 0.25791 0.57743 0.91777
 C446 C 0.21611 0.57994 0.91301
 H447 H 0.27669 0.55739 0.89721
 H448 H 0.19845 0.59954 0.93510
 C449 C 0.08311 0.25880 0.41847
 C450 C 0.09471 0.21942 0.41058
 H451 H 0.09852 0.27696 0.44327
 H452 H 0.07717 0.20177 0.38681
 C453 C 0.07775 0.74898 0.58824
 C454 C 0.08132 0.79069 0.58887
 H455 H 0.09991 0.73002 0.57025
 H456 H 0.05809 0.80861 0.60671
 C457 C 0.92887 0.77185 0.39424
 C458 C 0.89838 0.76015 0.42126
 H459 H 0.93357 0.80496 0.38825
 H460 H 0.89366 0.72736 0.42867
 C461 C 0.92103 0.25093 0.58222
 C462 C 0.91833 0.20919 0.58301
 H463 H 0.89914 0.26958 0.56362
 H464 H 0.94151 0.19182 0.60144
 C465 C 0.38620 0.07641 0.21988
 C466 C 0.41290 0.10514 0.23520
 H467 H 0.38257 0.07343 0.18538
 H468 H 0.41792 0.10795 0.26949
 C469 C 0.58188 0.07392 0.74605
 C470 C 0.57819 0.07394 0.78893
 H471 H 0.56937 0.09946 0.72708
 H472 H 0.59152 0.04794 0.80676
 C473 C 0.39214 0.92949 0.77931
 C474 C 0.41740 0.89945 0.76404
 H475 H 0.38914 0.93303 0.81383
 H476 H 0.42193 0.89587 0.72975
 C477 C 0.58026 0.92188 0.25280
 C478 C 0.57879 0.91951 0.20988
 H479 H 0.56421 0.89902 0.27260
 H480 H 0.59524 0.94318 0.19133
 C481 C 0.42248 0.25387 0.93270
 C482 C 0.43502 0.21384 0.93711
 H483 H 0.42314 0.26777 0.90105
 H484 H 0.42970 0.19791 0.96738
 C485 C 0.58662 0.74939 0.92078
 C486 C 0.57912 0.79068 0.91972
 H487 H 0.57694 0.72971 0.89427
 H488 H 0.58917 0.80990 0.94650
 C489 C 0.41132 0.75079 0.06854
 C490 C 0.42186 0.79149 0.06584
 H491 H 0.41448 0.73510 0.09915
 H492 H 0.41449 0.80877 0.03683
 C493 C 0.59455 0.24243 0.07830
 C494 C 0.58122 0.20245 0.07861
 H495 H 0.58997 0.26086 0.10705
 H496 H 0.58858 0.18190 0.05200
 C497 C 0.24684 0.07830 0.59537
 C498 C 0.20657 0.07860 0.58204
 H499 H 0.26544 0.10636 0.59142
 H500 H 0.18636 0.05230 0.58975
 C501 C 0.75901 0.06684 0.40722
 C502 C 0.79994 0.06512 0.41846
 H503 H 0.74270 0.09639 0.41058
 H504 H 0.81805 0.03718 0.41143
 C505 C 0.75783 0.92742 0.58889
 C506 C 0.79816 0.92767 0.57539
 H507 H 0.74053 0.89844 0.58620
 H508 H 0.81787 0.95481 0.58072
 C509 C 0.24113 0.92883 0.40576
 C510 C 0.20046 0.92736 0.41798
 H511 H 0.26137 0.90240 0.41261
 H512 H 0.17890 0.95121 0.40651
 C513 C 0.07249 0.40298 0.75761
 C514 C 0.07226 0.41435 0.79916
 H515 H 0.10121 0.40694 0.73932
 H516 H 0.04534 0.40656 0.81908
 C517 C 0.07685 0.59409 0.24487
 C518 C 0.07603 0.58336 0.20312
 H519 H 0.10568 0.58964 0.26278
 H520 H 0.04897 0.59191 0.18374
 C521 C 0.92524 0.41107 0.24972
 C522 C 0.92650 0.42197 0.20804
 H523 H 0.89582 0.41378 0.26711
 H524 H 0.95431 0.41436 0.18928
 C525 C 0.92778 0.58514 0.75399
 C526 C 0.93001 0.57370 0.79548
 H527 H 0.89790 0.58255 0.73754
 H528 H 0.95831 0.58063 0.81361
 C529 C 0.75512 0.59315 0.92472
 C530 C 0.79629 0.58304 0.92647
 H531 H 0.73815 0.58851 0.89499
 H532 H 0.81447 0.59207 0.95444
 C533 C 0.25027 0.40555 0.92525
 C534 C 0.20869 0.41403 0.92596
 H535 H 0.26769 0.41018 0.89573
 H536 H 0.19031 0.40495 0.95383
 C537 C 0.25013 0.58854 0.07336
 C538 C 0.20897 0.57865 0.07164
 H539 H 0.26666 0.58558 0.10358
 H540 H 0.19120 0.58619 0.04292
 C541 C 0.74573 0.41487 0.08383
 C542 C 0.78789 0.41712 0.08424
 H543 H 0.72706 0.42963 0.10873
 H544 H 0.80522 0.40239 0.05824
 C545 C 0.92382 0.75155 0.59461
 C546 C 0.92335 0.79246 0.58452
 H547 H 0.89551 0.73336 0.58964
 H548 H 0.95005 0.81182 0.59322
 C549 C 0.93041 0.24209 0.40676
 C550 C 0.93280 0.20115 0.41677
 H551 H 0.90033 0.25770 0.41017
 H552 H 0.96139 0.18395 0.40949
 C553 C 0.07566 0.24765 0.58603
 C554 C 0.07635 0.20659 0.57701
 H555 H 0.10241 0.26711 0.57781
 H556 H 0.04944 0.18738 0.58544
 C557 C 0.08049 0.75569 0.41070
 C558 C 0.08512 0.79725 0.41313
 H559 H 0.10120 0.73499 0.42841
 H560 H 0.06353 0.81704 0.39531
 C561 C 0.58547 0.92008 0.74303
 C562 C 0.58143 0.91741 0.78570
 H563 H 0.57290 0.89589 0.72235
 H564 H 0.59392 0.94249 0.80539
 C565 C 0.39861 0.92607 0.23434
 C566 C 0.40909 0.92328 0.19255
 H567 H 0.40633 0.90030 0.25545
 H568 H 0.39759 0.94669 0.17024
 C569 C 0.58886 0.07425 0.25046
 C570 C 0.57475 0.07432 0.20975
 H571 H 0.58793 0.10317 0.26846
 H572 H 0.57960 0.04693 0.18981
 C573 C 0.40484 0.08101 0.76535
 C574 C 0.40920 0.08607 0.80778
 H575 H 0.42112 0.10158 0.74320
 H576 H 0.39289 0.06482 0.82928
 C577 C 0.58329 0.74660 0.07870
 C578 C 0.58554 0.78818 0.08289
 H579 H 0.56373 0.72810 0.09999
 H580 H 0.60455 0.80558 0.06006
 C581 C 0.42794 0.26882 0.08778
 C582 C 0.41746 0.22965 0.09825
 H583 H 0.45440 0.28416 0.10305
 H584 H 0.39288 0.21431 0.07988
 C585 C 0.59713 0.24520 0.92141
 C586 C 0.59751 0.20361 0.91663
 H587 H 0.57887 0.26472 0.89988
 H588 H 0.61533 0.18490 0.93934
 C589 C 0.41779 0.73902 0.91259
 C590 C 0.41382 0.78010 0.90559
 H591 H 0.43831 0.72002 0.89273
 H592 H 0.39380 0.79812 0.92701
 C593 C 0.74522 0.91449 0.41436
 C594 C 0.78604 0.90521 0.40985
 H595 H 0.72555 0.89716 0.43656
 H596 H 0.80480 0.92417 0.38814
 C597 C 0.24471 0.92559 0.59825
 C598 C 0.20295 0.92387 0.59246
 H599 H 0.26511 0.90148 0.58532
 H600 H 0.18362 0.94860 0.60605
 C601 C 0.22500 0.07786 0.38721
 C602 C 0.23818 0.10617 0.41567
 H603 H 0.19144 0.07460 0.38154
 H604 H 0.27149 0.10933 0.42259
 C605 C 0.75175 0.07999 0.58711
 C606 C 0.79371 0.08408 0.58714
 H607 H 0.73213 0.10092 0.56843
 H608 H 0.81221 0.06202 0.60579
 C609 C 0.92338 0.59360 0.24713
 C610 C 0.92121 0.58743 0.20469
 H611 H 0.89944 0.58108 0.26837
 H612 H 0.94569 0.60063 0.18445
 C613 C 0.91875 0.40761 0.75258
 C614 C 0.91448 0.40886 0.79534
 H615 H 0.89741 0.42490 0.73203
 H616 H 0.93684 0.39156 0.81484
 C617 C 0.08087 0.58022 0.74540
 C618 C 0.08498 0.57951 0.78818
 H619 H 0.10253 0.56316 0.72496
 H620 H 0.06218 0.59667 0.80735
 C621 C 0.07828 0.42068 0.25651
 C622 C 0.08293 0.41912 0.21384
 H623 H 0.09955 0.43894 0.27617
 H624 H 0.06046 0.40104 0.19531
   
