data_POSCAR
  _audit_creation_date              2014-09-24
  _audit_creation_method            'ToBaCCo'
  _symmetry_space_group_name_H-M    'P1'
  _symmetry_Int_Tables_number       1
  _symmetry_cell_setting            triclinic
  loop_
  _symmetry_equiv_pos_as_xyz
 x,y,z
_cell_length_a 40.4822
_cell_length_b 40.4440
_cell_length_c 40.2509
_cell_angle_alpha 89.875600
_cell_angle_beta 89.905400
_cell_angle_gamma 89.882600
loop_
  _atom_site_label
  _atom_site_type_symbol
  _atom_site_fract_x
  _atom_site_fract_y
  _atom_site_fract_z
C1 C 0.16735 0.16830 0.20725
 C2 C 0.15309 0.19637 0.19258
 C3 C 0.16713 0.21015 0.16390
 C4 C 0.19545 0.19592 0.14986
 C5 C 0.20977 0.16785 0.16447
 C6 C 0.19571 0.15406 0.19318
 H7 H 0.13107 0.20739 0.20331
 H8 H 0.20618 0.20659 0.12757
 H9 H 0.20670 0.13225 0.20444
 C10 C -0.16404 0.83336 0.21253
 C11 C -0.15028 0.80493 0.19816
 C12 C -0.16509 0.79065 0.17023
 C13 C -0.19370 0.80477 0.15668
 C14 C -0.20750 0.83317 0.17101
 C15 C -0.19268 0.84745 0.19893
 H16 H -0.12803 0.79403 0.20851
 H17 H -0.20507 0.79381 0.13497
 H18 H -0.20334 0.86954 0.20988
 C19 C -0.16810 0.16475 -0.20978
 C20 C -0.15459 0.19341 -0.19581
 C21 C -0.16901 0.20747 -0.16748
 C22 C -0.19697 0.19288 -0.15313
 C23 C -0.21051 0.16424 -0.16706
 C24 C -0.19609 0.15019 -0.19538
 H25 H -0.13284 0.20469 -0.20679
 H26 H -0.20805 0.20367 -0.13111
 H27 H -0.20656 0.12793 -0.20604
 C28 C 0.16814 0.83508 -0.20922
 C29 C 0.15300 0.80680 -0.19599
 C30 C 0.16607 0.79156 -0.16761
 C31 C 0.19431 0.80457 -0.15244
 C32 C 0.20948 0.83281 -0.16562
 C33 C 0.19641 0.84806 -0.19401
 H34 H 0.13105 0.79673 -0.20761
 H35 H 0.20437 0.79284 -0.13040
 H36 H 0.20814 0.87000 -0.20409
 C37 C 0.16943 1.16628 0.79129
 C38 C 0.15479 1.19464 0.80493
 C39 C 0.16811 1.20903 0.83355
 C40 C 0.19608 1.19509 0.84855
 C41 C 0.21074 1.16677 0.83496
 C42 C 0.19743 1.15238 0.80633
 H43 H 0.13305 1.20542 0.79344
 H44 H 0.20632 1.20616 0.87078
 H45 H 0.20877 1.13037 0.79593
 C46 C 0.83420 0.83597 0.78923
 C47 C 0.84818 0.80717 0.80270
 C48 C 0.83390 0.79225 0.83072
 C49 C 0.80561 0.80615 0.84523
 C50 C 0.79162 0.83492 0.83178
 C51 C 0.80590 0.84981 0.80379
 H52 H 0.87017 0.79650 0.79152
 H53 H 0.79456 0.79476 0.86700
 H54 H 0.79508 0.87216 0.79352
 C55 C 0.16449 0.83135 1.20937
 C56 C 0.14971 0.80343 1.19517
 C57 C 0.16358 0.78889 1.16682
 C58 C 0.19226 0.80224 1.15266
 C59 C 0.20707 0.83012 1.16681
 C60 C 0.19319 0.84466 1.19516
 H61 H 0.12742 0.79311 1.20600
 H62 H 0.20292 0.79106 1.13063
 H63 H 0.20464 0.86634 1.20599
 C64 C 0.83392 1.16715 1.20980
 C65 C 0.80560 1.15226 1.19657
 C66 C 0.79051 1.16565 1.16827
 C67 C 0.80371 1.19394 1.15317
 C68 C 0.83199 1.20885 1.16634
 C69 C 0.84709 1.19547 1.19465
 H70 H 0.79540 1.13025 1.20812
 H71 H 0.79211 1.20422 1.13117
 H72 H 0.86908 1.20699 1.20472
 O73 O 0.45329 1.05792 1.06062
 O74 O 0.41719 1.02600 1.03063
 C75 C 0.42377 1.04908 1.05185
 O76 O 0.54646 1.05482 0.94242
 O77 O 0.58268 1.02480 0.97446
 C78 C 0.57601 1.04613 0.95138
 O79 O 0.45361 1.05785 0.94540
 O80 O 0.41735 1.02600 0.97552
 C81 C 0.42405 1.04900 0.95413
 O82 O 0.54616 1.05486 1.06388
 O83 O 0.58252 1.02479 1.03206
 C84 C 0.57575 1.04616 1.05500
 Zr85 Zr 0.49980 1.03908 1.04523
 O86 O 0.50342 1.09128 1.04537
 O87 O 0.49589 1.03852 1.09769
 Zr88 Zr 0.50003 1.03912 0.96112
 O89 O 0.50365 1.09134 0.96108
 O90 O 0.49642 1.03887 0.90866
 O91 O 0.47050 1.04557 1.00313
 O92 O 0.52855 1.04514 1.00319
 O93 O 0.54640 0.93977 1.06418
 O94 O 0.58264 0.96979 1.03218
 C95 C 0.57596 0.94848 1.05527
 O96 O 0.45384 0.93679 0.94558
 O97 O 0.41746 0.96862 0.97561
 C98 C 0.42425 0.94566 0.95428
 O99 O 0.54671 0.93988 0.94256
 O100 O 0.58280 0.96984 0.97454
 C101 C 0.57623 0.94859 0.95147
 O102 O 0.45352 0.93669 1.06096
 O103 O 0.41731 0.96858 1.03077
 C104 C 0.42397 0.94555 1.05215
 Zr105 Zr 0.49997 0.95544 1.04537
 O106 O 0.50382 0.90323 1.04544
 O107 O 0.49609 0.95571 1.09783
 Zr108 Zr 0.50020 0.95546 0.96129
 O109 O 0.50405 0.90324 0.96159
 O110 O 0.49660 0.95559 0.90882
 Zr111 Zr 0.45093 0.99729 1.00319
 Zr112 Zr 0.54908 0.99728 1.00329
 O113 O 0.52877 0.94942 1.00336
 O114 O 0.47067 0.94899 1.00331
 O115 O 0.52933 0.99726 1.05181
 O116 O 0.47145 0.99729 0.95512
 O117 O 0.47117 0.99726 1.05132
 O118 O 0.52957 0.99729 0.95474
 H119 H 0.54346 1.06453 1.00316
 H120 H 0.45650 0.99731 0.93565
 H121 H 0.54380 0.93006 1.00340
 H122 H 0.45607 0.99727 1.07072
 H123 H 0.51511 1.02564 0.90002
 H124 H 0.51501 0.96914 0.90013
 H125 H 0.48547 0.89459 0.97499
 H126 H 0.48554 0.89457 1.03173
 H127 H 0.51460 0.96906 1.10649
 H128 H 0.51480 1.02565 1.10639
 H129 H 0.48542 1.09998 1.03123
 H130 H 0.48514 1.10000 0.97459
 O131 O -0.06380 0.45330 0.05419
 O132 O -0.03157 0.41711 0.02429
 C133 C -0.05468 0.42374 0.04557
 O134 O -0.06067 0.54677 -0.06393
 O135 O -0.03089 0.58292 -0.03183
 C136 C -0.05207 0.57632 -0.05495
 O137 O -0.06371 0.45377 -0.06079
 O138 O -0.03161 0.41736 -0.03098
 C139 C -0.05465 0.42414 -0.05224
 O140 O -0.06078 0.54623 0.05779
 O141 O -0.03083 0.58267 0.02592
 C142 C -0.05205 0.57586 0.04904
 Zr143 Zr -0.04512 0.49986 0.03878
 O144 O -0.09731 0.50297 0.03837
 O145 O -0.04523 0.49593 0.09124
 Zr146 Zr -0.04526 0.50020 -0.04496
 O147 O -0.09730 0.50178 -0.04114
 O148 O -0.04716 0.49721 -0.09740
 O149 O -0.05135 0.47045 -0.00317
 O150 O -0.05122 0.52892 -0.00304
 O151 O 0.05404 0.54632 0.05749
 O152 O 0.02398 0.58272 0.02566
 C153 C 0.04528 0.57594 0.04866
 O154 O 0.05718 0.45395 -0.06147
 O155 O 0.02522 0.41753 -0.03169
 C156 C 0.04824 0.42432 -0.05298
 O157 O 0.05406 0.54684 -0.06394
 O158 O 0.02396 0.58294 -0.03187
 C159 C 0.04532 0.57637 -0.05493
 O160 O 0.05730 0.45347 0.05448
 O161 O 0.02533 0.41729 0.02468
 C162 C 0.04836 0.42392 0.04591
 Zr163 Zr 0.03856 0.49989 0.03869
 O164 O 0.09072 0.50364 0.03830
 O165 O 0.03851 0.49601 0.09115
 Zr166 Zr 0.03847 0.50025 -0.04538
 O167 O 0.09063 0.50394 -0.04533
 O168 O 0.03819 0.49688 -0.09786
 Zr169 Zr -0.00307 0.45089 -0.00334
 Zr170 Zr -0.00340 0.54917 -0.00311
 O171 O 0.04446 0.52877 -0.00329
 O172 O 0.04511 0.47056 -0.00343
 O173 O -0.00335 0.52927 0.04534
 O174 O -0.00333 0.47163 -0.05133
 O175 O -0.00321 0.47120 0.04476
 O176 O -0.00347 0.52966 -0.05164
 H177 H -0.07056 0.54398 -0.00295
 H178 H -0.00341 0.45687 -0.07095
 H179 H 0.06379 0.54376 -0.00328
 H180 H -0.00325 0.45619 0.06425
 H181 H -0.03115 0.51343 -0.10624
 H182 H 0.02505 0.51568 -0.10644
 H183 H 0.09930 0.48532 -0.03195
 H184 H 0.09937 0.48508 0.02488
 H185 H 0.02497 0.51443 0.09990
 H186 H -0.03142 0.51408 0.09996
 H187 H -0.10529 0.48707 0.02155
 H188 H -0.10572 0.50187 -0.06424
 O189 O 1.06038 -0.05802 0.45323
 O190 O 1.03059 -0.02590 0.41676
 C191 C 1.05174 -0.04904 0.42349
 O192 O 0.94302 -0.05458 0.54703
 O193 O 0.97488 -0.02467 0.58332
 C194 C 0.95191 -0.04589 0.57671
 O195 O 0.94608 -0.05792 0.45371
 O196 O 0.97562 -0.02588 0.41702
 C197 C 0.95451 -0.04893 0.42392
 O198 O 1.06393 -0.05475 0.54659
 O199 O 1.03226 -0.02462 0.58309
 C200 C 1.05519 -0.04596 0.57633
 Zr201 Zr 1.04521 -0.03904 0.49993
 O202 O 1.04523 -0.09127 0.50318
 O203 O 1.09737 -0.03870 0.49598
 Zr204 Zr 0.96185 -0.03927 0.50024
 O205 O 0.96564 -0.09136 0.50200
 O206 O 0.90970 -0.04112 0.49717
 O207 O 1.00344 -0.04546 0.47043
 O208 O 1.00357 -0.04513 0.52909
 O209 O 1.06373 0.06017 0.54635
 O210 O 1.03201 0.03025 0.58299
 C211 C 1.05495 0.05148 0.57613
 O212 O 0.94543 0.06307 0.45336
 O213 O 0.97555 0.03142 0.41687
 C214 C 0.95410 0.05423 0.42362
 O215 O 0.94269 0.06001 0.54676
 O216 O 0.97471 0.03014 0.58318
 C217 C 0.95160 0.05130 0.57648
 O218 O 1.06070 0.06320 0.45299
 O219 O 1.03101 0.03110 0.41675
 C220 C 1.05217 0.05413 0.42332
 Zr221 Zr 1.04494 0.04467 0.49973
 O222 O 1.04427 0.09688 0.50334
 O223 O 1.09710 0.04487 0.49587
 Zr224 Zr 0.96139 0.04454 0.50002
 O225 O 0.96160 0.09676 0.50365
 O226 O 0.90921 0.04452 0.49650
 Zr227 Zr 1.00317 0.00278 0.45060
 Zr228 Zr 1.00342 0.00277 0.54933
 O229 O 1.00320 0.05064 0.52872
 O230 O 1.00308 0.05108 0.47020
 O231 O 1.05162 0.00283 0.52939
 O232 O 0.95546 0.00261 0.47138
 O233 O 1.05103 0.00279 0.47099
 O234 O 0.95518 0.00264 0.52967
 H235 H 1.00365 -0.06446 0.54425
 H236 H 0.93600 0.00253 0.45648
 H237 H 1.00316 0.06997 0.54380
 H238 H 1.07039 0.00268 0.45590
 H239 H 0.90090 -0.02526 0.51362
 H240 H 0.90063 0.03095 0.51506
 H241 H 0.97466 0.10538 0.48475
 H242 H 1.03125 0.10545 0.48440
 H243 H 1.10582 0.03092 0.51407
 H244 H 1.10600 -0.02555 0.51474
 H245 H 1.02803 -0.09937 0.48779
 H246 H 0.94267 -0.09978 0.50216
 C247 C 1.15343 0.15465 0.23488
 C248 C 1.14100 0.14245 0.25922
 C249 C 1.12605 0.12771 0.28812
 C250 C 1.13286 0.09469 0.29623
 C251 C 1.11803 0.08017 0.32405
 C252 C 1.09633 0.09861 0.34389
 C253 C 1.08958 0.13167 0.33584
 C254 C 1.10442 0.14619 0.30800
 C255 C 1.08074 0.08343 0.37220
 C256 C 1.06769 0.07031 0.39570
 H257 H 1.14952 0.08016 0.28100
 H258 H 1.12337 0.05458 0.33002
 H259 H 1.07279 0.14613 0.35098
 H260 H 1.09895 0.17173 0.30193
 C261 C 0.85063 -0.15247 0.23938
 C262 C 0.86366 -0.13978 0.26304
 C263 C 0.87926 -0.12443 0.29114
 C264 C 0.90032 -0.14285 0.31170
 C265 C 0.91563 -0.12782 0.33887
 C266 C 0.90993 -0.09430 0.34558
 C267 C 0.88885 -0.07590 0.32504
 C268 C 0.87354 -0.09093 0.29788
 C269 C 0.92578 -0.07870 0.37339
 C270 C 0.93896 -0.06531 0.39656
 H271 H 0.90492 -0.16877 0.30669
 H272 H 0.93191 -0.14226 0.35459
 H273 H 0.88429 -0.04996 0.32999
 H274 H 0.85733 -0.07646 0.28213
 C275 C 0.84619 0.15083 0.76294
 C276 C 0.85894 0.13842 0.73891
 C277 C 0.87432 0.12353 0.71035
 C278 C 0.86740 0.09063 0.70210
 C279 C 0.88271 0.07602 0.67461
 C280 C 0.90498 0.09428 0.65525
 C281 C 0.91182 0.12721 0.66343
 C282 C 0.89652 0.14181 0.69093
 C283 C 0.92114 0.07913 0.62727
 C284 C 0.93491 0.06643 0.60398
 H285 H 0.85031 0.07626 0.71698
 H286 H 0.87729 0.05052 0.66853
 H287 H 0.92904 0.14153 0.64866
 H288 H 0.90207 0.16726 0.69711
 C289 C 1.15520 -0.14992 0.76340
 C290 C 1.14354 -0.13668 0.73923
 C291 C 1.12933 -0.12099 0.71048
 C292 C 1.11073 -0.13961 0.68797
 C293 C 1.09636 -0.12430 0.66035
 C294 C 1.10053 -0.09030 0.65511
 C295 C 1.11927 -0.07169 0.67753
 C296 C 1.13364 -0.08701 0.70517
 C297 C 1.08505 -0.07449 0.62711
 C298 C 1.07165 -0.06140 0.60381
 H299 H 1.10720 -0.16588 0.69187
 H300 H 1.08187 -0.13890 0.64321
 H301 H 1.12258 -0.04537 0.67376
 H302 H 1.14794 -0.07237 0.72245
 C303 C 0.23708 1.15378 1.15058
 C304 C 0.26117 1.14122 1.13823
 C305 C 0.28980 1.12604 1.12345
 C306 C 0.31112 1.10679 1.14293
 C307 C 0.33869 1.09164 1.12847
 C308 C 0.34506 1.09569 1.09448
 C309 C 0.32380 1.11504 1.07502
 C310 C 0.29623 1.13019 1.08948
 C311 C 0.37307 1.07958 1.07951
 C312 C 0.39635 1.06581 1.06692
 H313 H 0.30636 1.10339 1.16921
 H314 H 0.35493 1.07667 1.14373
 H315 H 0.32845 1.11827 1.04869
 H316 H 0.27988 1.14500 1.07418
 C317 C 0.23827 0.84638 0.85019
 C318 C 0.26231 0.85793 0.86342
 C319 C 0.29090 0.87200 0.87915
 C320 C 0.31431 0.88911 0.86010
 C321 C 0.34178 0.90335 0.87543
 C322 C 0.34597 0.90054 0.90986
 C323 C 0.32265 0.88328 0.92891
 C324 C 0.29517 0.86903 0.91357
 C325 C 0.37381 0.91594 0.92567
 C326 C 0.39697 0.92926 0.93879
 H327 H 0.31122 0.89160 0.83348
 H328 H 0.35962 0.91671 0.86049
 H329 H 0.32561 0.88103 0.95556
 H330 H 0.27719 0.85589 0.92854
 C331 C 0.76344 0.84795 1.15670
 C332 C 0.73924 0.86038 1.14446
 C333 C 0.71054 0.87526 1.12953
 C334 C 0.68644 0.89035 1.14944
 C335 C 0.65872 0.90506 1.13480
 C336 C 0.65501 0.90471 1.10020
 C337 C 0.67908 0.88957 1.08031
 C338 C 0.70678 0.87487 1.09494
 C339 C 0.62675 0.92012 1.08496
 C340 C 0.60336 0.93305 1.07171
 H341 H 0.68912 0.89082 1.17622
 H342 H 0.64027 0.91675 1.15041
 H343 H 0.67649 0.88920 1.05352
 H344 H 0.72528 0.86330 1.07931
 C345 C 0.76105 1.14900 0.84798
 C346 C 0.73734 1.13615 0.86070
 C347 C 0.70918 1.12071 0.87606
 C348 C 0.68336 1.10856 0.85645
 C349 C 0.65609 1.09341 0.87144
 C350 C 0.65455 1.09034 0.90609
 C351 C 0.68037 1.10251 0.92569
 C352 C 0.70762 1.11766 0.91071
 C353 C 0.62660 1.07469 0.92160
 C354 C 0.60337 1.06162 0.93497
 H355 H 0.68433 1.11078 0.82964
 H356 H 0.63626 1.08407 0.85606
 H357 H 0.67943 1.10026 0.95250
 H358 H 0.72746 1.12695 0.92610
 C359 C 0.15219 0.23869 0.14864
 C360 C 0.13951 0.26248 0.13581
 C361 C 0.12416 0.29075 0.12047
 C362 C 0.14149 0.30946 0.09687
 C363 C 0.12640 0.33676 0.08176
 C364 C 0.09394 0.34544 0.09021
 C365 C 0.07665 0.32677 0.11385
 C366 C 0.09172 0.29948 0.12895
 C367 C 0.07824 0.37332 0.07452
 C368 C 0.06478 0.39653 0.06142
 H369 H 0.16657 0.30290 0.09011
 H370 H 0.13998 0.35101 0.06349
 H371 H 0.05152 0.33325 0.12054
 H372 H 0.07809 0.28517 0.14714
 C373 C -0.15482 0.23661 -0.15287
 C374 C -0.14277 0.26089 -0.14054
 C375 C -0.12816 0.28972 -0.12575
 C376 C -0.14571 0.30800 -0.10200
 C377 C -0.13127 0.33575 -0.08730
 C378 C -0.09923 0.34531 -0.09631
 C379 C -0.08173 0.32709 -0.12013
 C380 C -0.09617 0.29936 -0.13482
 C381 C -0.08405 0.37347 -0.08080
 C382 C -0.07090 0.39679 -0.06778
 H383 H -0.17045 0.30073 -0.09477
 H384 H -0.14499 0.34962 -0.06885
 H385 H -0.05692 0.33423 -0.12722
 H386 H -0.08236 0.28538 -0.15312
 C387 C 0.15028 0.76280 -0.15377
 C388 C 0.13705 0.73882 -0.14195
 C389 C 0.12129 0.71035 -0.12749
 C390 C 0.12754 0.70189 -0.09432
 C391 C 0.11207 0.67441 -0.08009
 C392 C 0.09027 0.65525 -0.09896
 C393 C 0.08404 0.66366 -0.13216
 C394 C 0.09953 0.69117 -0.14640
 C395 C 0.07422 0.62717 -0.08408
 C396 C 0.06093 0.60384 -0.07109
 H397 H 0.14429 0.71656 -0.07947
 H398 H 0.11703 0.66815 -0.05439
 H399 H 0.06721 0.64904 -0.14696
 H400 H 0.09450 0.69752 -0.17207
 C401 C -0.15067 0.76179 0.15515
 C402 C -0.13852 0.73775 0.14233
 C403 C -0.12398 0.70920 0.12679
 C404 C -0.09637 0.69381 0.14106
 C405 C -0.08195 0.66636 0.12566
 C406 C -0.09510 0.65419 0.09592
 C407 C -0.12276 0.66951 0.08172
 C408 C -0.13717 0.69695 0.09712
 C409 C -0.07997 0.62631 0.07973
 C410 C -0.06725 0.60314 0.06588
 H411 H -0.08594 0.70311 0.16398
 H412 H -0.06053 0.65474 0.13682
 H413 H -0.13308 0.66033 0.05870
 H414 H -0.15848 0.70868 0.08585
 C415 C 1.15623 0.15206 0.76370
 C416 C 1.14438 0.13944 0.73938
 C417 C 1.12996 0.12439 0.71048
 C418 C 1.13498 0.09070 0.70414
 C419 C 1.12040 0.07595 0.67641
 C420 C 1.10074 0.09485 0.65490
 C421 C 1.09587 0.12858 0.66115
 C422 C 1.11044 0.14332 0.68888
 C423 C 1.08504 0.07955 0.62684
 C424 C 1.07151 0.06674 0.60354
 H425 H 1.14999 0.07583 0.72072
 H426 H 1.12427 0.04983 0.67185
 H427 H 1.08066 0.14340 0.64472
 H428 H 1.10636 0.16938 0.69357
 C429 C 0.84829 -0.14932 0.76225
 C430 C 0.86088 -0.13625 0.73846
 C431 C 0.87608 -0.12065 0.71016
 C432 C 0.86606 -0.08896 0.70022
 C433 C 0.88110 -0.07369 0.67290
 C434 C 0.90620 -0.09008 0.65542
 C435 C 0.91616 -0.12180 0.66532
 C436 C 0.90113 -0.13705 0.69263
 C437 C 0.92197 -0.07431 0.62753
 C438 C 0.93546 -0.06125 0.60426
 H439 H 0.84674 -0.07605 0.71362
 H440 H 0.87325 -0.04914 0.66548
 H441 H 0.93557 -0.13466 0.65201
 H442 H 0.90908 -0.16155 0.70013
 C443 C 1.15076 -0.15425 0.23667
 C444 C 1.13855 -0.14137 0.26073
 C445 C 1.12390 -0.12581 0.28931
 C446 C 1.13171 -0.09299 0.29703
 C447 C 1.11722 -0.07771 0.32459
 C448 C 1.09485 -0.09520 0.34455
 C449 C 1.08709 -0.12805 0.33689
 C450 C 1.10159 -0.14333 0.30932
 C451 C 1.07967 -0.07928 0.37264
 C452 C 1.06692 -0.06566 0.39599
 H453 H 1.14890 -0.07921 0.28171
 H454 H 1.12336 -0.05228 0.33027
 H455 H 1.06979 -0.14178 0.35213
 H456 H 1.09534 -0.16871 0.30355
 C457 C 0.84885 0.15384 0.23704
 C458 C 0.86209 0.14187 0.26104
 C459 C 0.87786 0.12727 0.28954
 C460 C 0.87082 0.09453 0.29843
 C461 C 0.88631 0.08016 0.32594
 C462 C 0.90890 0.09848 0.34470
 C463 C 0.91592 0.13125 0.33586
 C464 C 0.90043 0.14563 0.30832
 C465 C 0.92500 0.08346 0.37280
 C466 C 0.93836 0.07040 0.39614
 H467 H 0.85344 0.08011 0.28407
 H468 H 0.88073 0.05479 0.33254
 H469 H 0.93339 0.14561 0.35017
 H470 H 0.90608 0.17096 0.30164
 C471 C 0.15283 0.23789 -0.15223
 C472 C 0.13995 0.26196 -0.14019
 C473 C 0.12447 0.29056 -0.12569
 C474 C 0.14255 0.31136 -0.10471
 C475 C 0.12736 0.33891 -0.09026
 C476 C 0.09404 0.34577 -0.09674
 C477 C 0.07601 0.32503 -0.11780
 C478 C 0.09119 0.29748 -0.13225
 C479 C 0.07822 0.37377 -0.08146
 C480 C 0.06470 0.39701 -0.06853
 H481 H 0.16829 0.30621 -0.09944
 H482 H 0.14152 0.35476 -0.07396
 H483 H 0.05021 0.33007 -0.12292
 H484 H 0.07698 0.28154 -0.14840
 C485 C -0.15419 0.23763 0.15054
 C486 C -0.14243 0.26164 0.13729
 C487 C -0.12811 0.29018 0.12150
 C488 C -0.10400 0.30862 0.13809
 C489 C -0.08967 0.33607 0.12261
 C490 C -0.09940 0.34520 0.09049
 C491 C -0.12360 0.32683 0.07392
 C492 C -0.13794 0.29937 0.08941
 C493 C -0.08415 0.37309 0.07443
 C494 C -0.07094 0.39632 0.06115
 H495 H -0.09619 0.30171 0.16289
 H496 H -0.07093 0.35006 0.13561
 H497 H -0.13125 0.33364 0.04905
 H498 H -0.15653 0.28525 0.07635
 C499 C -0.15226 0.76453 -0.15589
 C500 C -0.13996 0.74012 -0.14386
 C501 C -0.12523 0.71116 -0.12920
 C502 C -0.13564 0.70028 -0.09782
 C503 C -0.12099 0.67247 -0.08328
 C504 C -0.09587 0.65539 -0.10004
 C505 C -0.08553 0.66619 -0.13148
 C506 C -0.10019 0.69402 -0.14604
 C507 C -0.08041 0.62718 -0.08470
 C508 C -0.06746 0.60379 -0.07139
 H509 H -0.15494 0.71337 -0.08457
 H510 H -0.12913 0.66437 -0.05893
 H511 H -0.06608 0.65321 -0.14463
 H512 H -0.09192 0.70225 -0.17029
 C513 C 0.14816 0.76050 0.15200
 C514 C 0.13522 0.73682 0.13942
 C515 C 0.11978 0.70868 0.12418
 C516 C 0.09589 0.69051 0.14158
 C517 C 0.08074 0.66330 0.12660
 C518 C 0.08943 0.65417 0.09417
 C519 C 0.11334 0.67232 0.07681
 C520 C 0.12849 0.69951 0.09178
 C521 C 0.07373 0.62637 0.07857
 C522 C 0.06068 0.60323 0.06514
 H523 H 0.08896 0.69741 0.16663
 H524 H 0.06226 0.64945 0.14023
 H525 H 0.12022 0.66550 0.05171
 H526 H 0.14690 0.71341 0.07809
 C527 C 0.23924 1.15224 0.85059
 C528 C 0.26303 1.13991 0.86370
 C529 C 0.29133 1.12495 0.87930
 C530 C 0.29771 1.13057 0.91302
 C531 C 0.32496 1.11562 0.92827
 C532 C 0.34592 1.09500 0.90984
 C533 C 0.33960 1.08948 0.87610
 C534 C 0.31236 1.10442 0.86086
 C535 C 0.37364 1.07914 0.92559
 C536 C 0.39675 1.06555 0.93867
 H537 H 0.28158 1.14637 0.92752
 H538 H 0.32959 1.12000 0.95439
 H539 H 0.35562 1.07353 0.86164
 H540 H 0.30762 1.09988 0.83478
 C541 C 0.23627 0.84409 1.15199
 C542 C 0.26062 0.85600 1.13954
 C543 C 0.28954 0.87047 1.12465
 C544 C 0.29648 0.86518 1.09096
 C545 C 0.32424 0.87979 1.07635
 C546 C 0.34518 0.89973 1.09539
 C547 C 0.33832 0.90488 1.12912
 C548 C 0.31056 0.89028 1.14372
 C549 C 0.37328 0.91545 1.08019
 C550 C 0.39659 0.92898 1.06742
 H551 H 0.28035 0.84995 1.07598
 H552 H 0.32926 0.87571 1.05023
 H553 H 0.35430 0.92033 1.14404
 H554 H 0.30539 0.89458 1.16978
 C555 C 0.76175 1.15008 1.15437
 C556 C 0.73780 1.13704 1.14247
 C557 C 0.70938 1.12149 1.12790
 C558 C 0.68778 1.10283 1.14766
 C559 C 0.66031 1.08754 1.13333
 C560 C 0.65435 1.09088 1.09920
 C561 C 0.67592 1.10958 1.07948
 C562 C 0.70337 1.12485 1.09379
 C563 C 0.62630 1.07500 1.08426
 C564 C 0.60305 1.06178 1.07122
 H565 H 0.69222 1.10005 1.17405
 H566 H 0.64380 1.07311 1.14880
 H567 H 0.67157 1.11228 1.05306
 H568 H 0.71992 1.13920 1.07828
 C569 C 0.76284 0.84941 0.84697
 C570 C 0.73885 0.86164 0.85983
 C571 C 0.71036 0.87633 0.87535
 C572 C 0.68555 0.89079 0.85587
 C573 C 0.65800 0.90530 0.87104
 C574 C 0.65516 0.90539 0.90574
 C575 C 0.67995 0.89089 0.92520
 C576 C 0.70748 0.87638 0.91004
 C577 C 0.62702 0.92056 0.92144
 C578 C 0.60367 0.93333 0.93494
 H579 H 0.68754 0.89091 0.82903
 H580 H 0.63899 0.91649 0.85576
 H581 H 0.67802 0.89086 0.95205
 H582 H 0.72653 0.86530 0.92534
   
