data_POSCAR
  _audit_creation_date              2014-09-24
  _audit_creation_method            'ToBaCCo'
  _symmetry_space_group_name_H-M    'P1'
  _symmetry_Int_Tables_number       1
  _symmetry_cell_setting            triclinic
  loop_
  _symmetry_equiv_pos_as_xyz
 x,y,z
_cell_length_a 37.3299
_cell_length_b 40.1882
_cell_length_c 25.0226
_cell_angle_alpha 89.437300
_cell_angle_beta 89.885500
_cell_angle_gamma 90.256200
loop_
  _atom_site_label
  _atom_site_type_symbol
  _atom_site_fract_x
  _atom_site_fract_y
  _atom_site_fract_z
O1 O 0.27738 0.20951 0.27192
 O2 O 0.22803 0.27389 0.19735
 O3 O 0.28013 0.27441 0.26620
 O4 O 0.22408 0.20927 0.20462
 O5 O 0.18439 0.21502 0.26936
 O6 O 0.24249 0.27639 0.33435
 O7 O 0.19088 0.27931 0.26552
 O8 O 0.23795 0.21209 0.33763
 Cu9 Cu 0.25632 0.24129 0.22836
 Cu10 Cu 0.21000 0.24587 0.30839
 C11 C 0.26616 0.19985 0.31745
 C12 C 0.20139 0.28790 0.21903
 C13 C 0.27084 0.28627 0.31105
 C14 C 0.19417 0.20169 0.22600
 O15 O 0.78351 0.28777 0.22521
 O16 O 0.73327 0.21770 0.28645
 O17 O 0.79488 0.22428 0.23550
 O18 O 0.72433 0.28179 0.27790
 O19 O 0.69501 0.27291 0.20271
 O20 O 0.76610 0.21543 0.15984
 O21 O 0.70576 0.20933 0.20966
 O22 O 0.75518 0.27932 0.14909
 Cu23 Cu 0.76189 0.25350 0.26398
 Cu24 Cu 0.72772 0.24355 0.17261
 C25 C 0.77770 0.29548 0.17663
 C26 C 0.71076 0.20170 0.25834
 C27 C 0.79260 0.21017 0.19051
 C28 C 0.69772 0.28717 0.24763
 O29 O 0.76536 0.77815 0.80288
 O30 O 0.69734 0.71961 0.75298
 O31 O 0.75199 0.71462 0.81814
 O32 O 0.71092 0.78225 0.73932
 O33 O 0.74481 0.76925 0.67022
 O34 O 0.78901 0.70455 0.75139
 O35 O 0.73367 0.70571 0.68715
 O36 O 0.80017 0.76671 0.73397
 Cu37 Cu 0.72791 0.74971 0.78533
 Cu38 Cu 0.77029 0.73527 0.70366
 C39 C 0.79424 0.78250 0.77671
 C40 C 0.70392 0.70276 0.71153
 C41 C 0.77822 0.69869 0.79876
 C42 C 0.72060 0.78703 0.69117
 O43 O 0.22056 0.77771 0.76377
 O44 O 0.27967 0.71615 0.69996
 O45 O 0.22014 0.71303 0.75409
 O46 O 0.27936 0.78083 0.70760
 O47 O 0.30946 0.77806 0.78341
 O48 O 0.25192 0.70831 0.82807
 O49 O 0.31219 0.71383 0.77357
 O50 O 0.25109 0.77222 0.83888
 Cu51 Cu 0.24678 0.74730 0.72386
 Cu52 Cu 0.28437 0.74248 0.81340
 C53 C 0.22573 0.78521 0.81242
 C54 C 0.30640 0.70503 0.72581
 C55 C 0.22574 0.69923 0.79911
 C56 C 0.30427 0.79120 0.73775
 O57 O 0.96258 -0.00761 -0.08147
 O58 O 1.03631 0.03962 -0.01979
 O59 O 1.03242 -0.00909 -0.08907
 O60 O 0.96735 0.04085 -0.01386
 O61 O 0.96758 0.00325 0.05117
 O62 O 1.03527 -0.04491 -0.02174
 O63 O 1.03806 0.00308 0.04671
 O64 O 0.96627 -0.04533 -0.01688
 Cu65 Cu 0.99962 0.01958 -0.05784
 Cu66 Cu 1.00199 -0.02453 0.02170
 C67 C 0.95220 -0.03472 -0.05990
 C68 C 1.04939 0.02955 0.02427
 C69 C 1.04493 -0.03550 -0.06820
 C70 C 0.95612 0.03035 0.03118
 O71 O 0.46485 0.49353 0.40792
 O72 O 0.53276 0.54047 0.48353
 O73 O 0.53472 0.49443 0.41130
 O74 O 0.46365 0.54079 0.47994
 O75 O 0.46240 0.50275 0.54429
 O76 O 0.53093 0.45469 0.47275
 O77 O 0.53289 0.50089 0.54544
 O78 O 0.46202 0.45631 0.47334
 Cu79 Cu 0.49903 0.52115 0.43918
 Cu80 Cu 0.49698 0.47494 0.51562
 C81 C 0.45186 0.46690 0.42792
 C82 C 0.54461 0.52842 0.52711
 C83 C 0.54444 0.46642 0.42987
 C84 C 0.45127 0.52989 0.52409
 O85 O -0.02947 0.56870 0.05425
 O86 O 0.03038 0.50982 0.12341
 O87 O 0.03959 0.56261 0.06418
 O88 O -0.03832 0.51521 0.11456
 O89 O -0.03601 0.48293 0.04371
 O90 O 0.03918 0.53289 -0.00961
 O91 O 0.03314 0.47952 0.05034
 O92 O -0.03073 0.53584 -0.01602
 Cu93 Cu 0.00028 0.54235 0.09623
 Cu94 Cu 0.00157 0.50475 0.00973
 C95 C -0.04058 0.56207 0.00762
 C96 C 0.04203 0.48471 0.09856
 C97 C 0.05247 0.55600 0.01856
 C98 C -0.04985 0.49049 0.08836
 O99 O 0.46520 1.04163 0.50177
 O100 O 0.53299 0.99331 0.57573
 O101 O 0.53408 1.04815 0.51921
 O102 O 0.46498 0.98692 0.55907
 O103 O 0.47556 0.95840 0.48573
 O104 O 0.54538 1.01893 0.44687
 O105 O 0.54401 0.96411 0.50324
 O106 O 0.47716 1.01309 0.42893
 Cu107 Cu 0.49814 1.02054 0.54613
 Cu108 Cu 0.51166 0.98575 0.45890
 C109 C 0.45972 1.03560 0.45268
 C110 C 0.54977 0.97028 0.55218
 C111 C 0.55158 1.04387 0.47629
 C112 C 0.45872 0.96212 0.52937
 C113 C 1.17106 0.17922 0.20158
 C114 C 1.18070 0.16056 0.15717
 C115 C 1.15405 0.14018 0.12925
 N116 N 1.16355 0.11085 0.10698
 N117 N 1.13937 0.09245 0.08137
 C118 C 1.10504 0.10307 0.07631
 N119 N 1.09572 0.13264 0.09782
 N120 N 1.11971 0.15075 0.12419
 C121 C 1.07824 0.08337 0.04756
 C122 C 1.07790 0.04879 0.05007
 H123 H 1.20826 0.16007 0.14359
 H124 H 1.05644 0.09634 0.02799
 H125 H 1.14436 0.17613 0.21811
 H126 H 1.09691 0.03585 0.07538
 C127 C 0.67602 0.68054 0.69084
 C128 C 0.68383 0.65407 0.65737
 C129 C 0.65522 0.63462 0.63206
 N130 N 0.66110 0.60268 0.61742
 N131 N 0.63550 0.58522 0.59321
 C132 C 0.60331 0.59929 0.58207
 N133 N 0.59760 0.63133 0.59615
 N134 N 0.62299 0.64862 0.62103
 C135 C 0.57535 0.58087 0.55349
 C136 C 0.57241 0.54638 0.55674
 H137 H 0.71143 0.64720 0.65017
 H138 H 0.55552 0.59495 0.53135
 H139 H 0.64850 0.68513 0.70236
 H140 H 0.58966 0.53249 0.58355
 C141 C -0.20258 0.32313 0.15119
 C142 C -0.18193 0.34538 0.18055
 C143 C -0.16041 0.37177 0.15475
 N144 N -0.14406 0.39518 0.18499
 N145 N -0.12345 0.41853 0.16232
 C146 C -0.11833 0.41924 0.10855
 N147 N -0.13469 0.39584 0.07833
 N148 N -0.15544 0.37259 0.10097
 C149 C -0.09391 0.44351 0.08322
 C150 C -0.07873 0.46982 0.11128
 H151 H -0.18139 0.34337 0.22375
 H152 H -0.08669 0.43980 0.04175
 H153 H -0.20457 0.32612 0.10822
 H154 H -0.08704 0.47449 0.15202
 C155 C 0.32752 0.81882 0.72016
 C156 C 0.32770 0.83049 0.66751
 C157 C 0.35130 0.85783 0.64968
 N158 N 0.35611 0.86383 0.59669
 N159 N 0.37771 0.88829 0.57995
 C160 C 0.39507 0.90782 0.61564
 N161 N 0.38995 0.90205 0.66862
 N162 N 0.36855 0.87745 0.68536
 C163 C 0.41942 0.93462 0.59793
 C164 C 0.43204 0.93697 0.54557
 H165 H 0.31096 0.81851 0.63801
 H166 H 0.42923 0.95182 0.62765
 H167 H 0.34566 0.82958 0.74905
 H168 H 0.42392 0.91863 0.51651
 C169 C -0.20437 0.67506 -0.16960
 C170 C -0.17091 0.66249 -0.18365
 C171 C -0.15100 0.64007 -0.14810
 N172 N -0.11524 0.64450 -0.14154
 N173 N -0.09661 0.62407 -0.11006
 C174 C -0.11299 0.59812 -0.08478
 N175 N -0.14868 0.59338 -0.09191
 N176 N -0.16747 0.61421 -0.12262
 C177 C -0.09210 0.57465 -0.05234
 C178 C -0.06432 0.58557 -0.01987
 H179 H -0.15710 0.67216 -0.21867
 H180 H -0.09912 0.54847 -0.05306
 H181 H -0.21579 0.66834 -0.13109
 H182 H -0.06039 0.61197 -0.01360
 C183 C 0.28643 1.17481 0.34807
 C184 C 0.31574 1.15845 0.32608
 C185 C 0.33894 1.13625 0.35761
 N186 N 0.36474 1.11846 0.33267
 N187 N 0.38692 1.09918 0.36067
 C188 C 0.38429 1.09712 0.41474
 N189 N 0.35852 1.11495 0.43973
 N190 N 0.33620 1.13412 0.41169
 C191 C 0.40941 1.07673 0.44623
 C192 C 0.43330 1.05494 0.42207
 H193 H 0.32242 1.16246 0.28435
 H194 H 0.40901 1.07889 0.48935
 H195 H 0.27866 1.16982 0.38911
 H196 H 0.43255 1.05168 0.37916
 C197 C 1.20226 -0.19109 -0.16039
 C198 C 1.17781 -0.17096 -0.18737
 C199 C 1.15463 -0.14769 -0.15836
 N200 N 1.13525 -0.12453 -0.18540
 N201 N 1.11412 -0.10351 -0.15924
 C202 C 1.11153 -0.10502 -0.10508
 N203 N 1.13075 -0.12827 -0.07816
 N204 N 1.15198 -0.14913 -0.10425
 C205 C 1.08768 -0.08286 -0.07527
 C206 C 1.07049 -0.05569 -0.09866
 H207 H 1.17613 -0.17178 -0.23055
 H208 H 1.08359 -0.08824 -0.03318
 H209 H 1.20508 -0.18890 -0.11748
 H210 H 1.07558 -0.04924 -0.14012
 C211 C 0.66941 0.30979 0.26529
 C212 C 0.67686 0.33539 0.30073
 C213 C 0.64865 0.35608 0.32393
 N214 N 0.65673 0.38687 0.34222
 N215 N 0.63176 0.40530 0.36570
 C216 C 0.59797 0.39335 0.37248
 N217 N 0.58996 0.36243 0.35461
 N218 N 0.61480 0.34418 0.33045
 C219 C 0.57071 0.41280 0.40052
 C220 C 0.57169 0.44741 0.40116
 H221 H 0.70440 0.34069 0.31146
 H222 H 0.54848 0.39966 0.41915
 H223 H 0.64256 0.30662 0.24975
 H224 H 0.59141 0.46079 0.37738
 C225 C 0.82183 -0.19468 -0.20349
 C226 C 0.81362 -0.16802 -0.17065
 C227 C 0.84195 -0.14704 -0.14797
 N228 N 0.83522 -0.11490 -0.13536
 N229 N 0.86076 -0.09593 -0.11409
 C230 C 0.89375 -0.10863 -0.10398
 N231 N 0.90031 -0.14087 -0.11596
 N232 N 0.87496 -0.15967 -0.13792
 C233 C 0.92182 -0.08849 -0.07892
 C234 C 0.92356 -0.05408 -0.08520
 H235 H 0.78590 -0.16188 -0.16268
 H236 H 0.94289 -0.10132 -0.05738
 H237 H 0.84927 -0.19851 -0.21612
 H238 H 0.90495 -0.04146 -0.11157
 C239 C 0.29292 0.31148 0.33751
 C240 C 0.31970 0.32951 0.31114
 C241 C 0.34169 0.35409 0.33959
 N242 N 0.36295 0.37576 0.31203
 N243 N 0.38328 0.39774 0.33781
 C244 C 0.38315 0.39869 0.39208
 N245 N 0.36202 0.37694 0.41953
 N246 N 0.34157 0.35516 0.39380
 C247 C 0.40664 0.42135 0.42168
 C248 C 0.42534 0.44760 0.39762
 H249 H 0.32418 0.32598 0.26879
 H250 H 0.40959 0.41683 0.46420
 H251 H 0.28709 0.31665 0.37903
 H252 H 0.42104 0.45364 0.35585
 C253 C 0.20223 0.67435 -0.18341
 C254 C 0.20364 0.66050 -0.13207
 C255 C 0.17599 0.63719 -0.11237
 N256 N 0.17235 0.63150 -0.05910
 N257 N 0.14647 0.61158 -0.04048
 C258 C 0.12342 0.59640 -0.07451
 N259 N 0.12741 0.60168 -0.12783
 N260 N 0.15311 0.62182 -0.14643
 C261 C 0.09410 0.57506 -0.05447
 C262 C 0.08311 0.57567 -0.00124
 H263 H 0.22384 0.66883 -0.10412
 H264 H 0.07958 0.55996 -0.08285
 H265 H 0.18079 0.66696 -0.21000
 H266 H 0.09629 0.59227 0.02641
 C267 C 0.69075 1.17555 0.28002
 C268 C 0.69062 1.16703 0.33422
 C269 C 0.66697 1.14037 0.35471
 N270 N 0.65857 1.13852 0.40748
 N271 N 0.63595 1.11524 0.42569
 C272 C 0.62115 1.09283 0.39179
 N273 N 0.63001 1.09439 0.33927
 N274 N 0.65237 1.11777 0.32104
 C275 C 0.59548 1.06740 0.41041
 C276 C 0.57913 1.06837 0.46049
 H277 H 0.70620 1.18137 0.36239
 H278 H 0.58778 1.04824 0.38247
 H279 H 0.67315 1.16215 0.25326
 H280 H 0.58556 1.08825 0.48782
 C281 C 0.18261 0.31426 0.18936
 C282 C 0.15777 0.33492 0.21389
 C283 C 0.13866 0.36114 0.18431
 N284 N 0.11918 0.38393 0.21129
 N285 N 0.10133 0.40759 0.18505
 C286 C 0.10217 0.40923 0.13081
 N287 N 0.12152 0.38634 0.10381
 N288 N 0.13954 0.36279 0.13007
 C289 C 0.08164 0.43454 0.10129
 C290 C 0.06538 0.46114 0.12694
 H291 H 0.15263 0.33226 0.25635
 H292 H 0.07905 0.43198 0.05841
 H293 H 0.18920 0.31800 0.14755
 H294 H 0.06931 0.46453 0.16942
 C295 C 0.70325 0.81304 0.65874
 C296 C 0.67926 0.83544 0.68120
 C297 C 0.65907 0.85972 0.64904
 N298 N 0.63795 0.88225 0.67378
 N299 N 0.61835 0.90362 0.64538
 C300 C 0.61903 0.90317 0.59112
 N301 N 0.64020 0.88067 0.56635
 N302 N 0.65992 0.85936 0.59477
 C303 C 0.59623 0.92558 0.55932
 C304 C 0.57553 0.95025 0.58286
 H305 H 0.67456 0.83488 0.72394
 H306 H 0.59505 0.92199 0.51650
 H307 H 0.70911 0.81427 0.61635
 H308 H 0.57752 0.95452 0.62543
 C309 C 0.82156 0.18808 0.17353
 C310 C 0.81532 0.16139 0.13976
 C311 C 0.84479 0.14085 0.11980
 N312 N 0.83889 0.10857 0.10692
 N313 N 0.86528 0.09008 0.08726
 C314 C 0.89837 0.10339 0.07906
 N315 N 0.90415 0.13576 0.09140
 N316 N 0.87793 0.15409 0.11183
 C317 C 0.92702 0.08394 0.05431
 C318 C 0.92909 0.04953 0.06018
 H319 H 0.78811 0.15483 0.12898
 H320 H 0.94757 0.09716 0.03189
 H321 H 0.84819 0.19225 0.18932
 H322 H 0.91117 0.03658 0.08749
 C323 C 0.33180 0.68249 0.70006
 C324 C 0.32162 0.66109 0.65938
 C325 C 0.34816 0.64059 0.63168
 N326 N 0.33894 0.61024 0.61265
 N327 N 0.36295 0.59171 0.58715
 C328 C 0.39684 0.60317 0.57902
 N329 N 0.40587 0.63371 0.59736
 N330 N 0.38206 0.65199 0.62361
 C331 C 0.42331 0.58352 0.54971
 C332 C 0.42380 0.54892 0.55242
 H333 H 0.29358 0.65845 0.64909
 H334 H 0.44451 0.59665 0.52856
 H335 H 0.35915 0.68208 0.71450
 H336 H 0.40540 0.53581 0.57881
   
