data_POSCAR
  _audit_creation_date              2014-09-24
  _audit_creation_method            'ToBaCCo'
  _symmetry_space_group_name_H-M    'P1'
  _symmetry_Int_Tables_number       1
  _symmetry_cell_setting            triclinic
  loop_
  _symmetry_equiv_pos_as_xyz
 x,y,z
_cell_length_a 41.6942
_cell_length_b 42.5807
_cell_length_c 43.1535
_cell_angle_alpha 90.285500
_cell_angle_beta 88.954100
_cell_angle_gamma 89.803100
loop_
  _atom_site_label
  _atom_site_type_symbol
  _atom_site_fract_x
  _atom_site_fract_y
  _atom_site_fract_z
C1 C -0.10124 0.31901 -0.00883
 C2 C -0.08535 0.32108 0.01955
 C3 C -0.05159 0.31902 0.01948
 C4 C -0.03407 0.31193 -0.00793
 C5 C -0.05099 0.30760 -0.03551
 C6 C -0.08433 0.31201 -0.03658
 C7 C 0.00166 0.30809 -0.00777
 C8 C 0.02044 0.31392 -0.03459
 C9 C 0.05362 0.30818 -0.03539
 C10 C 0.06872 0.29858 -0.00810
 C11 C 0.05057 0.29371 0.01923
 C12 C 0.01719 0.29748 0.01888
 H13 H -0.12710 0.32076 -0.00857
 H14 H -0.03879 0.32349 0.04054
 H15 H -0.03825 0.30045 -0.05647
 H16 H 0.00931 0.32258 -0.05536
 H17 H 0.09410 0.29339 -0.00830
 H18 H 0.00343 0.29178 0.03959
 C19 C 0.43056 0.82220 0.51349
 C20 C 0.44452 0.82808 0.54232
 C21 C 0.47794 0.83117 0.54406
 C22 C 0.49772 0.82781 0.51739
 C23 C 0.48308 0.82082 0.48891
 C24 C 0.44966 0.81909 0.48657
 C25 C 0.53336 0.83206 0.51888
 C26 C 0.55068 0.84245 0.49254
 C27 C 0.58420 0.84470 0.49263
 C28 C 0.60043 0.83955 0.52017
 C29 C 0.58379 0.83048 0.54724
 C30 C 0.55046 0.82570 0.54617
 H31 H 0.40496 0.81857 0.51223
 H32 H 0.48824 0.83670 0.56625
 H33 H 0.49754 0.81672 0.46820
 H34 H 0.53823 0.84899 0.47178
 H35 H 0.62636 0.84117 0.52005
 H36 H 0.53813 0.81704 0.56666
 C37 C 1.09482 0.69896 0.01778
 C38 C 1.07679 0.69582 0.04547
 C39 C 1.04315 0.69488 0.04378
 C40 C 1.02730 0.69856 0.01535
 C41 C 1.04618 0.70317 -0.01170
 C42 C 1.07995 0.70244 -0.01093
 C43 C 0.99124 0.69742 0.01383
 C44 C 0.97573 0.68936 -0.01400
 C45 C 0.94211 0.68858 -0.01546
 C46 C 0.92374 0.69343 0.01156
 C47 C 0.93842 0.70082 0.03963
 C48 C 0.97186 0.70407 0.04028
 H49 H 1.12068 0.70009 0.01823
 H50 H 1.02954 0.69073 0.06491
 H51 H 1.03443 0.70764 -0.03320
 H52 H 0.98944 0.68302 -0.03459
 H53 H 0.89783 0.69270 0.01031
 H54 H 0.98244 0.71162 0.06173
 C55 C 0.57535 0.17137 0.48859
 C56 C 0.55703 0.17703 0.51561
 C57 C 0.52366 0.17446 0.51474
 C58 C 0.50811 0.16453 0.48775
 C59 C 0.52693 0.15888 0.46076
 C60 C 0.56040 0.16276 0.46088
 C61 C 0.47235 0.16136 0.48791
 C62 C 0.45469 0.16713 0.46106
 C63 C 0.42105 0.16614 0.46172
 C64 C 0.40473 0.16087 0.49001
 C65 C 0.42181 0.15523 0.51719
 C66 C 0.45541 0.15438 0.51560
 H67 H 0.60094 0.17548 0.48875
 H68 H 0.50988 0.18065 0.53538
 H69 H 0.51580 0.15144 0.43950
 H70 H 0.46689 0.17330 0.43960
 H71 H 0.37894 0.16300 0.49108
 H72 H 0.46828 0.14906 0.53649
 C73 C 0.67997 -0.09642 -0.00128
 C74 C 0.67427 -0.07932 0.02632
 C75 C 0.67535 -0.04633 0.02522
 C76 C 0.68333 -0.03038 -0.00243
 C77 C 0.68968 -0.04823 -0.02938
 C78 C 0.68731 -0.08101 -0.02918
 C79 C 0.68592 0.00468 -0.00298
 C80 C 0.67982 0.02172 -0.03018
 C81 C 0.68316 0.05458 -0.03120
 C82 C 0.69139 0.07066 -0.00383
 C83 C 0.69715 0.05413 0.02363
 C84 C 0.69520 0.02132 0.02359
 H85 H 0.68102 -0.12171 -0.00094
 H86 H 0.66988 -0.03311 0.04617
 H87 H 0.69714 -0.03681 -0.05066
 H88 H 0.67226 0.00945 -0.05082
 H89 H 0.69531 0.09569 -0.00401
 H90 H 0.70132 0.00885 0.04447
 C91 C 0.21666 0.42493 0.49472
 C92 C 0.22187 0.44036 0.52301
 C93 C 0.22195 0.47328 0.52405
 C94 C 0.21486 0.49114 0.49761
 C95 C 0.20912 0.47502 0.46958
 C96 C 0.21062 0.44215 0.46779
 C97 C 0.21324 0.52633 0.49923
 C98 C 0.21936 0.54452 0.47255
 C99 C 0.21582 0.57721 0.47324
 C100 C 0.20833 0.59232 0.50137
 C101 C 0.20307 0.57500 0.52854
 C102 C 0.20515 0.54210 0.52724
 H103 H 0.21871 0.39962 0.49346
 H104 H 0.22751 0.48474 0.54572
 H105 H 0.20304 0.48777 0.44888
 H106 H 0.22673 0.53351 0.45092
 H107 H 0.20795 0.61771 0.50228
 H108 H 0.19990 0.52904 0.54815
 C109 C 0.31980 1.09066 -0.00771
 C110 C 0.31707 1.07575 0.02099
 C111 C 0.31847 1.04282 0.02223
 C112 C 0.32446 1.02477 -0.00486
 C113 C 0.32842 1.04061 -0.03333
 C114 C 0.32410 1.07327 -0.03528
 C115 C 0.32516 0.98957 -0.00362
 C116 C 0.31566 0.97126 -0.02930
 C117 C 0.31565 0.93821 -0.02823
 C118 C 0.32239 0.92362 0.00016
 C119 C 0.33104 0.94135 0.02608
 C120 C 0.33398 0.97394 0.02368
 H121 H 0.31888 1.11606 -0.00823
 H122 H 0.31503 1.03143 0.04433
 H123 H 0.33363 1.02750 -0.05438
 H124 H 0.30808 0.98258 -0.05034
 H125 H 0.32013 0.89853 0.00300
 H126 H 0.34192 0.98696 0.04369
 C127 C 0.80859 0.58173 0.49836
 C128 C 0.81565 0.56450 0.52509
 C129 C 0.81428 0.53165 0.52404
 C130 C 0.80463 0.51569 0.49720
 C131 C 0.79735 0.53343 0.47074
 C132 C 0.80002 0.56628 0.47086
 C133 C 0.80155 0.48072 0.49717
 C134 C 0.80710 0.46318 0.46987
 C135 C 0.80359 0.43043 0.46954
 C136 C 0.79548 0.41484 0.49721
 C137 C 0.79043 0.43181 0.52486
 C138 C 0.79264 0.46464 0.52444
 H139 H 0.80811 0.60707 0.49935
 H140 H 0.82058 0.51860 0.54453
 H141 H 0.78909 0.52184 0.44999
 H142 H 0.81419 0.47487 0.44862
 H143 H 0.79141 0.38979 0.49702
 H144 H 0.78712 0.47755 0.54556
 O145 O 0.21978 0.26959 0.21617
 O146 O 0.26569 0.23174 0.27737
 O147 O 0.25479 0.21928 0.21951
 O148 O 0.22887 0.28093 0.27524
 O149 O 0.18645 0.25247 0.28780
 O150 O 0.21290 0.19058 0.23326
 O151 O 0.22345 0.20348 0.29099
 O152 O 0.17769 0.24055 0.22849
 Cu153 Cu 0.24643 0.25336 0.24577
 Cu154 Cu 0.19573 0.21911 0.26146
 C155 C 0.19125 0.26093 0.21131
 C156 C 0.25251 0.21128 0.29464
 C157 C 0.23822 0.19440 0.21700
 C158 C 0.20345 0.27682 0.29142
 O159 O 0.74495 0.81081 0.23460
 O160 O 0.77769 0.76052 0.29583
 O161 O 0.79343 0.77246 0.23810
 O162 O 0.72974 0.79945 0.29220
 O163 O 0.69860 0.76075 0.27678
 O164 O 0.76250 0.73340 0.22318
 O165 O 0.74647 0.72170 0.28090
 O166 O 0.71427 0.77169 0.21934
 Cu167 Cu 0.76462 0.78967 0.26673
 Cu168 Cu 0.72742 0.74290 0.24857
 C169 C 0.72414 0.79973 0.21645
 C170 C 0.76739 0.73267 0.29900
 C171 C 0.78865 0.74854 0.22116
 C172 C 0.70333 0.78472 0.29365
 O173 O 0.80375 0.23196 0.23193
 O174 O 0.74014 0.20044 0.28322
 O175 O 0.75573 0.19391 0.22442
 O176 O 0.78790 0.23856 0.29024
 O177 O 0.75717 0.27882 0.27799
 O178 O 0.72416 0.23384 0.21311
 O179 O 0.70893 0.24058 0.27174
 O180 O 0.77221 0.27158 0.21957
 Cu181 Cu 0.77496 0.21213 0.25858
 Cu182 Cu 0.73743 0.26021 0.24450
 C183 C 0.79874 0.25697 0.21684
 C184 C 0.71385 0.21537 0.28654
 C185 C 0.73466 0.20639 0.20744
 C186 C 0.77802 0.26638 0.29521
 O187 O 0.28049 0.72357 0.27641
 O188 O 0.29937 0.78910 0.22335
 O189 O 0.31315 0.77500 0.28089
 O190 O 0.26707 0.73700 0.21920
 O191 O 0.22308 0.76143 0.23562
 O192 O 0.26956 0.80045 0.29668
 O193 O 0.25507 0.81341 0.23909
 O194 O 0.23701 0.74900 0.29256
 Cu195 Cu 0.29450 0.75379 0.24828
 Cu196 Cu 0.24189 0.78374 0.26760
 C197 C 0.25558 0.72536 0.29372
 C198 C 0.27993 0.81208 0.22178
 C199 C 0.29903 0.79371 0.29969
 C200 C 0.23727 0.74258 0.21696
 O201 O 0.76648 0.25017 0.71278
 O202 O 0.73038 0.20022 0.77354
 O203 O 0.72553 0.20472 0.71336
 O204 O 0.77191 0.24570 0.77271
 O205 O 0.73264 0.28014 0.77951
 O206 O 0.68626 0.23918 0.72004
 O207 O 0.69136 0.23490 0.78047
 O208 O 0.72728 0.28469 0.71959
 Cu209 Cu 0.75251 0.22170 0.74251
 Cu210 Cu 0.70536 0.26311 0.75057
 C211 C 0.75283 0.27576 0.70562
 C212 C 0.70497 0.20932 0.78766
 C213 C 0.69826 0.21540 0.70614
 C214 C 0.76014 0.26972 0.78635
 O215 O 0.23662 0.80839 0.76739
 O216 O 0.21335 0.74892 0.70915
 O217 O 0.19207 0.76599 0.76395
 O218 O 0.25663 0.79287 0.71160
 O219 O 0.29001 0.75854 0.73179
 O220 O 0.22548 0.73223 0.78503
 O221 O 0.24643 0.71480 0.73011
 O222 O 0.27009 0.77400 0.78734
 Cu223 Cu 0.22136 0.78245 0.73588
 Cu224 Cu 0.26134 0.74141 0.76054
 C225 C 0.25721 0.80107 0.78752
 C226 C 0.22603 0.72172 0.70979
 C227 C 0.19790 0.74495 0.78377
 C228 C 0.28423 0.78028 0.71262
 O229 O 0.24833 0.27918 0.71415
 O230 O 0.27058 0.21888 0.77094
 O231 O 0.27976 0.22629 0.71180
 O232 O 0.23898 0.27142 0.77417
 O233 O 0.19366 0.24698 0.76424
 O234 O 0.23487 0.20062 0.70299
 O235 O 0.22478 0.19448 0.76278
 O236 O 0.20366 0.25343 0.70463
 Cu237 Cu 0.26389 0.25162 0.74362
 Cu238 Cu 0.20974 0.22136 0.73268
 C239 C 0.22247 0.27619 0.69929
 C240 C 0.25112 0.19675 0.77689
 C241 C 0.26427 0.20575 0.69680
 C242 C 0.20949 0.26653 0.78015
 O243 O 0.79142 0.71196 0.72328
 O244 O 0.75578 0.76090 0.78553
 O245 O 0.74055 0.74720 0.72890
 O246 O 0.80559 0.72418 0.78098
 O247 O 0.83477 0.76410 0.76440
 O248 O 0.76914 0.78792 0.71328
 O249 O 0.78516 0.80103 0.76972
 O250 O 0.81975 0.75250 0.70678
 Cu251 Cu 0.77055 0.73192 0.75629
 Cu252 Cu 0.80519 0.78036 0.73691
 C253 C 0.81125 0.72407 0.70412
 C254 C 0.76449 0.78934 0.78820
 C255 C 0.74368 0.77160 0.71236
 C256 C 0.83111 0.74036 0.78180
 C257 C 0.31332 0.09570 0.04904
 C258 C 0.29726 0.08646 0.07612
 C259 C 0.29192 0.10859 0.10209
 N260 N 0.27106 0.10134 0.12547
 N261 N 0.26510 0.12178 0.14838
 C262 C 0.27989 0.15018 0.14883
 N263 N 0.30104 0.15724 0.12568
 N264 N 0.30690 0.13687 0.10273
 C265 C 0.27265 0.17360 0.17320
 C266 C 0.24776 0.16963 0.19478
 H267 H 0.28651 0.06341 0.07763
 H268 H 0.28618 0.19528 0.17306
 H269 H 0.32162 0.11974 0.04737
 H270 H 0.23367 0.14830 0.19442
 C271 C 0.82148 0.57980 0.55533
 C272 C 0.83030 0.61116 0.55886
 C273 C 0.82913 0.62671 0.58937
 N274 N 0.83781 0.65726 0.59210
 N275 N 0.83451 0.67225 0.61916
 C276 C 0.82234 0.65723 0.64445
 N277 N 0.81395 0.62662 0.64179
 N278 N 0.81732 0.61163 0.61477
 C279 C 0.81583 0.67408 0.67370
 C280 C 0.82376 0.70556 0.67773
 H281 H 0.83690 0.62513 0.53889
 H282 H 0.80262 0.66189 0.69181
 H283 H 0.81753 0.56582 0.57596
 H284 H 0.83785 0.71755 0.66011
 C285 C 0.66997 0.90594 0.05527
 C286 C 0.66485 0.87373 0.05915
 C287 C 0.66923 0.85795 0.08901
 N288 N 0.68380 0.87262 0.11296
 N289 N 0.69039 0.85701 0.13879
 C290 C 0.68264 0.82617 0.14160
 N291 N 0.66771 0.81168 0.11784
 N292 N 0.66127 0.82724 0.09197
 C293 C 0.69153 0.80793 0.16902
 C294 C 0.71195 0.81966 0.19150
 H295 H 0.65834 0.85902 0.03980
 H296 H 0.68348 0.78380 0.17038
 H297 H 0.67146 0.92031 0.07601
 H298 H 0.72062 0.84355 0.18987
 C299 C 0.22800 0.42258 0.55167
 C300 C 0.21352 0.39372 0.55764
 C301 C 0.21862 0.37617 0.58639
 N302 N 0.20045 0.35054 0.59265
 N303 N 0.20499 0.33399 0.61831
 C304 C 0.22794 0.34240 0.63866
 N305 N 0.24618 0.36801 0.63237
 N306 N 0.24155 0.38466 0.60675
 C307 C 0.23403 0.32344 0.66638
 C308 C 0.21425 0.29844 0.67475
 H309 H 0.19687 0.38404 0.54119
 H310 H 0.25508 0.32860 0.67981
 H311 H 0.24228 0.43352 0.56943
 H312 H 0.19275 0.29390 0.66176
 C313 C 0.89588 0.32365 0.04695
 C314 C 0.90691 0.31731 0.07675
 C315 C 0.88440 0.31310 0.10311
 N316 N 0.89382 0.29694 0.12842
 N317 N 0.87301 0.29063 0.15134
 C318 C 0.84203 0.30042 0.14988
 N319 N 0.83279 0.31716 0.12488
 N320 N 0.85353 0.32327 0.10187
 C321 C 0.81822 0.29198 0.17399
 C322 C 0.82401 0.26852 0.19563
 H323 H 0.93165 0.31097 0.08047
 H324 H 0.79467 0.30274 0.17310
 H325 H 0.87029 0.32732 0.04458
 H326 H 0.84708 0.25673 0.19562
 C327 C 0.42467 0.82907 0.57108
 C328 C 0.39274 0.83894 0.57137
 C329 C 0.37090 0.83383 0.59795
 N330 N 0.37962 0.81583 0.62233
 N331 N 0.35863 0.80943 0.64507
 C332 C 0.32818 0.82082 0.64426
 N333 N 0.31962 0.83906 0.62008
 N334 N 0.34056 0.84536 0.59730
 C335 C 0.30413 0.81276 0.66822
 C336 C 0.30981 0.79052 0.69109
 H337 H 0.38290 0.84971 0.55092
 H338 H 0.28060 0.82348 0.66671
 H339 H 0.43534 0.82124 0.59242
 H340 H 0.33312 0.77935 0.69243
 C341 C 0.09118 0.69534 0.07485
 C342 C 0.12421 0.69231 0.07948
 C343 C 0.13943 0.69997 0.10907
 N344 N 0.17143 0.69531 0.11200
 N345 N 0.18636 0.70455 0.13747
 C346 C 0.16989 0.71898 0.16097
 N347 N 0.13780 0.72343 0.15818
 N348 N 0.12283 0.71411 0.13270
 C349 C 0.18657 0.73125 0.18829
 C350 C 0.21953 0.72731 0.19190
 H351 H 0.14017 0.68491 0.06083
 H352 H 0.17281 0.74470 0.20529
 H353 H 0.07581 0.69819 0.09522
 H354 H 0.23311 0.71324 0.17526
 C355 C 0.57172 0.18718 0.54484
 C356 C 0.60210 0.17748 0.55382
 C357 C 0.61501 0.18641 0.58407
 N358 N 0.64298 0.17372 0.59369
 N359 N 0.65491 0.18176 0.62103
 C360 C 0.63928 0.20277 0.63974
 N361 N 0.61133 0.21546 0.63010
 N362 N 0.59937 0.20736 0.60282
 C363 C 0.65288 0.21315 0.66921
 C364 C 0.68129 0.20066 0.68039
 H365 H 0.61622 0.16192 0.53902
 H366 H 0.64112 0.23236 0.68150
 H367 H 0.55702 0.20079 0.56098
 H368 H 0.69281 0.18112 0.66841
 C369 C 0.68012 0.06977 0.94004
 C370 C 0.67918 0.10234 0.93597
 C371 C 0.68289 0.11676 0.90518
 N372 N 0.67577 0.14760 0.90135
 N373 N 0.68119 0.16155 0.87419
 C374 C 0.69422 0.14523 0.84990
 N375 N 0.70134 0.11439 0.85372
 N376 N 0.69567 0.10037 0.88081
 C377 C 0.70284 0.16099 0.82064
 C378 C 0.69167 0.19097 0.81364
 H379 H 0.67580 0.11805 0.95551
 H380 H 0.71933 0.14915 0.80476
 H381 H 0.67880 0.05523 0.91939
 H382 H 0.67362 0.20198 0.82849
 C383 C 0.22052 0.59540 0.44445
 C384 C 0.20262 0.62243 0.43881
 C385 C 0.20738 0.64185 0.41112
 N386 N 0.23178 0.63625 0.39051
 N387 N 0.23639 0.65505 0.36624
 C388 C 0.21671 0.68004 0.36171
 N389 N 0.19224 0.68544 0.38219
 N390 N 0.18768 0.66671 0.40647
 C391 C 0.22213 0.70206 0.33611
 C392 C 0.24860 0.70014 0.31596
 H393 H 0.18409 0.62968 0.45528
 H394 H 0.20552 0.72155 0.33421
 H395 H 0.23696 0.58647 0.42675
 H396 H 0.26535 0.68075 0.31761
 C397 C 0.30834 0.92095 0.94476
 C398 C 0.31353 0.88857 0.94150
 C399 C 0.30635 0.87065 0.91323
 N400 N 0.28935 0.88306 0.88961
 N401 N 0.28279 0.86573 0.86465
 C402 C 0.29310 0.83544 0.86246
 N403 N 0.31013 0.82323 0.88602
 N404 N 0.31655 0.84046 0.91092
 C405 C 0.28597 0.81528 0.83572
 C406 C 0.26574 0.82391 0.81179
 H407 H 0.32507 0.87540 0.95949
 H408 H 0.29619 0.79185 0.83571
 H409 H 0.29990 0.93362 0.92474
 H410 H 0.25489 0.84705 0.81167
 C411 C 0.80565 0.41372 0.43942
 C412 C 0.81090 0.38146 0.43645
 C413 C 0.80602 0.36489 0.40694
 N414 N 0.81221 0.33366 0.40463
 N415 N 0.80580 0.31798 0.37868
 C416 C 0.79283 0.33297 0.35415
 N417 N 0.78681 0.36422 0.35641
 N418 N 0.79331 0.37990 0.38230
 C419 C 0.78365 0.31577 0.32610
 C420 C 0.79057 0.28402 0.32168
 H421 H 0.81756 0.36768 0.45634
 H422 H 0.77024 0.32835 0.30880
 H423 H 0.80182 0.42738 0.41868
 H424 H 0.80508 0.27162 0.33824
 C425 C 0.07063 0.30953 0.93411
 C426 C 0.10392 0.30897 0.92984
 C427 C 0.11873 0.30371 0.89892
 N428 N 0.15105 0.30552 0.89489
 N429 N 0.16476 0.29876 0.86748
 C430 C 0.14665 0.28979 0.84312
 N431 N 0.11437 0.28810 0.84714
 N432 N 0.10067 0.29500 0.87446
 C433 C 0.16140 0.27958 0.81346
 C434 C 0.19407 0.28272 0.80677
 H435 H 0.11958 0.31141 0.94940
 H436 H 0.14622 0.26778 0.79699
 H437 H 0.05589 0.30958 0.91368
 H438 H 0.20911 0.29576 0.82245
 C439 C 0.60309 0.85050 0.46392
 C440 C 0.59347 0.83898 0.43523
 C441 C 0.61581 0.83622 0.40864
 N442 N 0.60773 0.81830 0.38394
 N443 N 0.62867 0.81319 0.36079
 C444 C 0.65848 0.82590 0.36146
 N445 N 0.66637 0.84434 0.38588
 N446 N 0.64546 0.84933 0.40911
 C447 C 0.68258 0.81864 0.33719
 C448 C 0.67783 0.79496 0.31536
 H449 H 0.57027 0.82793 0.43313
 H450 H 0.70542 0.83066 0.33790
 H451 H 0.62723 0.85948 0.46614
 H452 H 0.65533 0.78232 0.31522
 C453 C 0.92526 0.68334 0.95510
 C454 C 0.93612 0.69591 0.92700
 C455 C 0.91537 0.69746 0.89975
 N456 N 0.92359 0.71610 0.87546
 N457 N 0.90393 0.71953 0.85167
 C458 C 0.87533 0.70434 0.85126
 N459 N 0.86736 0.68532 0.87530
 N460 N 0.88695 0.68199 0.89913
 C461 C 0.85232 0.70928 0.82622
 C462 C 0.85658 0.73228 0.80362
 H463 H 0.95892 0.70798 0.92589
 H464 H 0.83030 0.69586 0.82695
 H465 H 0.90136 0.67346 0.95643
 H466 H 0.87825 0.74623 0.80321
 C467 C 0.40365 0.17329 0.43302
 C468 C 0.37217 0.16380 0.42793
 C469 C 0.35466 0.17338 0.40027
 N470 N 0.32387 0.16407 0.39655
 N471 N 0.30733 0.17354 0.37216
 C472 C 0.32102 0.19266 0.35062
 N473 N 0.35184 0.20183 0.35426
 N474 N 0.36837 0.19237 0.37863
 C475 C 0.30289 0.20442 0.32423
 C476 C 0.27085 0.19678 0.31957
 H477 H 0.35974 0.14915 0.44464
 H478 H 0.31495 0.22046 0.30851
 H479 H 0.41638 0.18604 0.41496
 H480 H 0.25870 0.18052 0.33498
 C481 C 0.69510 0.90131 0.94203
 C482 C 0.68405 0.87096 0.93630
 C483 C 0.69472 0.85278 0.90897
 N484 N 0.71623 0.86473 0.88823
 N485 N 0.72664 0.84755 0.86421
 C486 C 0.71595 0.81777 0.86004
 N487 N 0.69432 0.80588 0.88068
 N488 N 0.68391 0.82307 0.90472
 C489 C 0.72803 0.79822 0.83419
 C490 C 0.75094 0.80924 0.81305
 H491 H 0.66744 0.85988 0.95236
 H492 H 0.71919 0.77442 0.83219
 H493 H 0.70978 0.91283 0.92453
 H494 H 0.75966 0.83309 0.81496
 C495 C 0.20801 0.42658 0.43714
 C496 C 0.19697 0.39591 0.43342
 C497 C 0.19897 0.37920 0.40345
 N498 N 0.18409 0.35114 0.40008
 N499 N 0.18721 0.33482 0.37376
 C500 C 0.20550 0.34585 0.34985
 N501 N 0.22035 0.37395 0.35319
 N502 N 0.21707 0.39037 0.37946
 C503 C 0.21112 0.32689 0.32157
 C504 C 0.19392 0.29952 0.31577
 H505 H 0.18681 0.38352 0.45309
 H506 H 0.23025 0.33384 0.30574
 H507 H 0.21508 0.43983 0.41677
 H508 H 0.17392 0.29338 0.33091
 C509 C 0.32310 0.08750 0.93538
 C510 C 0.30749 0.11608 0.93039
 C511 C 0.30272 0.12877 0.89933
 N512 N 0.27521 0.14447 0.89336
 N513 N 0.27048 0.15690 0.86560
 C514 C 0.29330 0.15445 0.84289
 N515 N 0.32105 0.13905 0.84891
 N516 N 0.32558 0.12614 0.87661
 C517 C 0.28865 0.17000 0.81303
 C518 C 0.25795 0.17444 0.80167
 H519 H 0.29419 0.12751 0.94903
 H520 H 0.30934 0.17913 0.80054
 H521 H 0.33116 0.07417 0.91520
 H522 H 0.23786 0.16240 0.81251
 C523 C 0.79200 0.58387 0.44243
 C524 C 0.80376 0.61386 0.43599
 C525 C 0.79492 0.63138 0.40805
 N526 N 0.80753 0.66026 0.40287
 N527 N 0.79934 0.67675 0.37805
 C528 C 0.77822 0.66496 0.35746
 N529 N 0.76567 0.63603 0.36259
 N530 N 0.77387 0.61954 0.38741
 C531 C 0.76817 0.68322 0.33040
 C532 C 0.77963 0.71338 0.32444
 H533 H 0.82032 0.62495 0.45161
 H534 H 0.75055 0.67296 0.31528
 H535 H 0.77727 0.57227 0.42543
 H536 H 0.79727 0.72369 0.33951
 C537 C 0.09983 0.70503 0.96243
 C538 C 0.08950 0.70943 0.93206
 C539 C 0.11261 0.71104 0.90592
 N540 N 0.10302 0.72130 0.87784
 N541 N 0.12398 0.72361 0.85427
 C542 C 0.15523 0.71549 0.85789
 N543 N 0.16469 0.70481 0.88583
 N544 N 0.14380 0.70266 0.90941
 C545 C 0.17909 0.71935 0.83273
 C546 C 0.17245 0.73618 0.80601
 H547 H 0.06451 0.71268 0.92681
 H548 H 0.20327 0.71101 0.83655
 H549 H 0.12552 0.70343 0.96565
 H550 H 0.14862 0.74568 0.80271
 C551 C 0.57896 0.16068 0.43133
 C552 C 0.61140 0.15252 0.43003
 C553 C 0.63175 0.15766 0.40229
 N554 N 0.62171 0.17587 0.37855
 N555 N 0.64148 0.18256 0.35488
 C556 C 0.67199 0.17124 0.35404
 N557 N 0.68184 0.15273 0.37756
 N558 N 0.66215 0.14620 0.40131
 C559 C 0.69486 0.17976 0.32909
 C560 C 0.68890 0.20395 0.30825
 H561 H 0.62273 0.14321 0.45043
 H562 H 0.71807 0.16825 0.32866
 H563 H 0.56695 0.16679 0.41013
 H564 H 0.66616 0.21633 0.30934
 C565 C 0.90052 0.30765 0.93484
 C566 C 0.86824 0.31407 0.92920
 C567 C 0.85348 0.30548 0.89968
 N568 N 0.82298 0.31460 0.89387
 N569 N 0.80881 0.30576 0.86784
 C570 C 0.82463 0.28740 0.84670
 N571 N 0.85514 0.27835 0.85247
 N572 N 0.86933 0.28727 0.87845
 C573 C 0.80871 0.27575 0.81886
 C574 C 0.77790 0.28525 0.81113
 H575 H 0.85307 0.32573 0.94626
 H576 H 0.82111 0.25821 0.80482
 H577 H 0.91502 0.29887 0.91553
 H578 H 0.76587 0.30358 0.82445
 C579 C 0.43541 0.81312 0.45587
 C580 C 0.40475 0.82353 0.44823
 C581 C 0.39057 0.81751 0.41776
 N582 N 0.36094 0.82892 0.41159
 N583 N 0.34733 0.82304 0.38448
 C584 C 0.36288 0.80553 0.36247
 N585 N 0.39257 0.79424 0.36858
 N586 N 0.40620 0.80014 0.39570
 C587 C 0.34751 0.79732 0.33306
 C588 C 0.31641 0.80689 0.32614
 H589 H 0.39063 0.83702 0.46489
 H590 H 0.36038 0.78172 0.31727
 H591 H 0.45019 0.80168 0.43822
 H592 H 0.30347 0.82250 0.34187
 C593 C 0.33478 0.92596 0.05634
 C594 C 0.31055 0.90648 0.06764
 C595 C 0.31161 0.89078 0.09776
 N596 N 0.28378 0.88155 0.11155
 N597 N 0.28398 0.86583 0.13810
 C598 C 0.31208 0.85841 0.15173
 N599 N 0.34003 0.86747 0.13785
 N600 N 0.33981 0.88358 0.11141
 C601 C 0.31212 0.83903 0.17984
 C602 C 0.28467 0.83679 0.19858
 H603 H 0.28893 0.90375 0.05433
 H604 H 0.33324 0.82524 0.18495
 H605 H 0.35464 0.93231 0.07091
 H606 H 0.26469 0.85251 0.19460
 C607 C 0.78128 0.41599 0.55416
 C608 C 0.79129 0.38559 0.56122
 C609 C 0.78183 0.36990 0.59027
 N610 N 0.79490 0.34166 0.59738
 N611 N 0.78609 0.32679 0.62324
 C612 C 0.76382 0.33958 0.64295
 N613 N 0.75075 0.36782 0.63584
 N614 N 0.75964 0.38274 0.61003
 C615 C 0.75279 0.32283 0.67091
 C616 C 0.76652 0.29455 0.68014
 H617 H 0.80716 0.37301 0.54534
 H618 H 0.73269 0.33259 0.68402
 H619 H 0.76769 0.42932 0.57139
 H620 H 0.78714 0.28516 0.66752
 C621 C 0.70683 0.07021 0.05243
 C622 C 0.69779 0.10094 0.05989
 C623 C 0.70702 0.11597 0.08914
 N624 N 0.69570 0.14502 0.09648
 N625 N 0.70398 0.15900 0.12282
 C626 C 0.72391 0.14445 0.14280
 N627 N 0.73525 0.11541 0.13545
 N628 N 0.72693 0.10140 0.10914
 C629 C 0.73393 0.15991 0.17158
 C630 C 0.72248 0.18947 0.18037
 H631 H 0.68270 0.11412 0.04446
 H632 H 0.75134 0.14804 0.18576
 H633 H 0.71995 0.05667 0.06924
 H634 H 0.70486 0.20121 0.16632
 C635 C 0.19753 0.59116 0.55870
 C636 C 0.18317 0.62080 0.56088
 C637 C 0.18474 0.64075 0.58876
 N638 N 0.20254 0.63237 0.61346
 N639 N 0.20594 0.65204 0.63730
 C640 C 0.19172 0.68082 0.63732
 N641 N 0.17364 0.68899 0.61280
 N642 N 0.17029 0.66936 0.58895
 C643 C 0.19684 0.70366 0.66251
 C644 C 0.21779 0.69774 0.68661
 H645 H 0.17182 0.63069 0.54076
 H646 H 0.18507 0.72632 0.66115
 H647 H 0.20601 0.57991 0.57948
 H648 H 0.22968 0.67513 0.68789
 C649 C 0.91914 0.70613 0.06833
 C650 C 0.89021 0.69060 0.07398
 C651 C 0.87010 0.69642 0.10175
 N652 N 0.87768 0.71884 0.12286
 N653 N 0.85844 0.72446 0.14728
 C654 C 0.83097 0.70783 0.15149
 N655 N 0.82354 0.68532 0.13049
 N656 N 0.84274 0.67973 0.10607
 C657 C 0.80857 0.71465 0.17737
 C658 C 0.81352 0.73903 0.19839
 H659 H 0.88188 0.67328 0.05756
 H660 H 0.78667 0.70108 0.17887
 H661 H 0.92867 0.72146 0.08601
 H662 H 0.83533 0.75272 0.19695
 C663 C 0.40590 0.15400 0.54823
 C664 C 0.37287 0.15097 0.55324
 C665 C 0.35769 0.15866 0.58345
 N666 N 0.32547 0.15572 0.58752
 N667 N 0.31113 0.16511 0.61386
 C668 C 0.32850 0.17792 0.63705
 N669 N 0.36071 0.18062 0.63307
 N670 N 0.37503 0.17115 0.60680
 C671 C 0.31294 0.19085 0.66523
 C672 C 0.28010 0.18828 0.67127
 H673 H 0.35737 0.14459 0.53443
 H674 H 0.32769 0.20406 0.68104
 H675 H 0.42089 0.15782 0.56815
 H676 H 0.26541 0.17408 0.65626
 C677 C 0.06539 0.28338 0.04832
 C678 C 0.09605 0.29242 0.05701
 C679 C 0.10877 0.28454 0.08761
 N680 N 0.13712 0.29675 0.09665
 N681 N 0.14877 0.28997 0.12438
 C682 C 0.13247 0.27075 0.14412
 N683 N 0.10415 0.25850 0.13506
 N684 N 0.09246 0.26534 0.10736
 C685 C 0.14568 0.26199 0.17427
 C686 C 0.17467 0.27400 0.18452
 H687 H 0.11048 0.30704 0.04180
 H688 H 0.13317 0.24440 0.18787
 H689 H 0.05048 0.27064 0.06476
 H690 H 0.18710 0.29166 0.17093
 C691 C 0.60148 0.82429 0.57608
 C692 C 0.62905 0.84118 0.58328
 C693 C 0.65075 0.83286 0.60847
 N694 N 0.64665 0.80645 0.62562
 N695 N 0.66800 0.79853 0.64691
 C696 C 0.69422 0.81671 0.65174
 N697 N 0.69810 0.84315 0.63473
 N698 N 0.67681 0.85104 0.61349
 C699 C 0.71894 0.80797 0.67408
 C700 C 0.71748 0.78068 0.69174
 H701 H 0.63584 0.86104 0.56905
 H702 H 0.73947 0.82333 0.67609
 H703 H 0.59272 0.80634 0.59176
 H704 H 0.69687 0.76537 0.69018
   
