data_POSCAR
  _audit_creation_date              2014-09-24
  _audit_creation_method            'ToBaCCo'
  _symmetry_space_group_name_H-M    'P1'
  _symmetry_Int_Tables_number       1
  _symmetry_cell_setting            triclinic
  loop_
  _symmetry_equiv_pos_as_xyz
 x,y,z
_cell_length_a 23.9629
_cell_length_b 21.6306
_cell_length_c 18.7606
_cell_angle_alpha 90.108700
_cell_angle_beta 90.361900
_cell_angle_gamma 89.969100
loop_
  _atom_site_label
  _atom_site_type_symbol
  _atom_site_fract_x
  _atom_site_fract_y
  _atom_site_fract_z
Si1 Si 1.25450 0.25575 0.24773
 Si2 Si 0.74121 -0.25058 0.25777
 Si3 Si 0.74436 0.25514 -0.25449
 Si4 Si 1.25668 -0.24717 -0.24725
 Si5 Si 0.25345 0.25349 0.74530
 Si6 Si 0.73970 0.74951 0.74844
 Si7 Si 0.74145 0.25093 0.25682
 Si8 Si 0.25376 0.74907 0.25001
 O9 O 1.07328 0.11058 0.13604
 O10 O 1.13559 0.05365 0.07030
 C11 C 1.12351 0.09358 0.11993
 O12 O 0.91946 -0.11338 0.12677
 O13 O 0.85825 -0.05403 0.06159
 C14 C 0.86911 -0.09659 0.10851
 O15 O 1.07749 -0.10919 0.13120
 O16 O 1.13769 -0.05029 0.06501
 C17 C 1.12757 -0.09215 0.11293
 O18 O 0.91794 0.11307 0.12879
 O19 O 0.85748 0.05273 0.06356
 C20 C 0.86803 0.09513 0.11103
 Zr21 Zr 0.99633 0.07914 0.09322
 O22 O 0.99121 0.08080 0.20580
 O23 O 0.99741 0.17661 0.08557
 Zr24 Zr 0.99817 -0.07782 0.09190
 O25 O 0.99307 -0.07687 0.20452
 O26 O 1.00419 -0.17544 0.09018
 O27 O 1.04707 0.00115 0.10690
 O28 O 0.94902 -0.00002 0.10511
 O29 O 0.91785 0.11568 -0.12130
 O30 O 0.85750 0.05432 -0.05838
 C31 C 0.86782 0.09797 -0.10399
 O32 O 1.07660 -0.10624 -0.12837
 O33 O 1.13719 -0.04799 -0.06070
 C34 C 1.12656 -0.08854 -0.11025
 O35 O 0.91997 -0.11154 -0.12529
 O36 O 0.85843 -0.05315 -0.06014
 C37 C 0.86970 -0.09473 -0.10806
 O38 O 1.07478 0.11318 -0.12616
 O39 O 1.13631 0.05591 -0.05900
 C40 C 1.12516 0.09671 -0.10811
 Zr41 Zr 0.99674 0.08069 -0.08636
 O42 O 0.99096 0.08041 -0.19903
 O43 O 1.00071 0.17842 -0.08348
 Zr44 Zr 0.99808 -0.07621 -0.08832
 O45 O 0.99252 -0.07455 -0.20094
 O46 O 1.00460 -0.17386 -0.08793
 Zr47 Zr 1.08090 0.00245 0.00342
 Zr48 Zr 0.91408 0.00042 0.00196
 O49 O 0.94907 0.00187 -0.10068
 O50 O 1.04724 0.00289 -0.10075
 O51 O 0.94622 0.09100 0.00321
 O52 O 1.04687 -0.08732 0.00193
 O53 O 1.04552 0.09143 0.00424
 O54 O 0.94812 -0.08957 0.00121
 H55 H 0.92423 -0.00049 0.14718
 H56 H 1.07233 -0.12342 0.00134
 H57 H 0.92398 0.00217 -0.14283
 H58 H 1.07070 0.12775 0.00511
 H59 H 0.97257 -0.19119 0.06131
 H60 H 0.97266 -0.19022 -0.06066
 H61 H 1.02404 -0.04948 -0.21853
 H62 H 1.02291 0.05628 -0.21730
 H63 H 0.97310 0.19261 -0.04802
 H64 H 0.99677 0.19248 0.13515
 H65 H 1.01909 0.05103 0.22420
 H66 H 1.02613 -0.05449 0.22300
 O67 O 1.07827 0.61524 0.62771
 O68 O 1.13938 0.56272 0.55532
 C69 C 1.12783 0.60408 0.60335
 O70 O 0.93195 0.37873 0.61464
 O71 O 0.86432 0.43819 0.56074
 C72 C 0.88072 0.39082 0.59836
 O73 O 1.08351 0.39366 0.62135
 O74 O 1.14224 0.45071 0.55095
 C75 C 1.13223 0.40736 0.59722
 O76 O 0.92244 0.61586 0.62675
 O77 O 0.86072 0.55413 0.56507
 C78 C 0.87239 0.59993 0.60736
 Zr79 Zr 1.00024 0.57882 0.59393
 O80 O 0.99759 0.56690 0.70589
 O81 O 1.00242 0.67588 0.60736
 Zr82 Zr 1.00494 0.42617 0.58857
 O83 O 1.00032 0.43470 0.70092
 O84 O 1.01278 0.32942 0.60064
 O85 O 1.05449 0.50403 0.60242
 O86 O 0.95256 0.50012 0.60581
 O87 O 0.91809 0.62212 0.38767
 O88 O 0.85784 0.56112 0.45136
 C89 C 0.86913 0.60809 0.41030
 O90 O 1.07566 0.39758 0.36585
 O91 O 1.13785 0.45769 0.42915
 C92 C 1.12565 0.41586 0.38168
 O93 O 0.92175 0.38801 0.37806
 O94 O 0.86037 0.44352 0.44679
 C95 C 0.87226 0.39957 0.40210
 O96 O 1.06894 0.62101 0.37300
 O97 O 1.13546 0.56778 0.43679
 C98 C 1.11988 0.61098 0.39263
 Zr99 Zr 0.99492 0.58193 0.41169
 O100 O 0.98937 0.56998 0.30009
 O101 O 0.99465 0.67912 0.39991
 Zr102 Zr 0.99884 0.42895 0.40689
 O103 O 0.98963 0.43815 0.29504
 O104 O 1.00562 0.33171 0.39770
 Zr105 Zr 1.08355 0.50724 0.49634
 Zr106 Zr 0.91588 0.50109 0.50364
 O107 O 0.94612 0.50430 0.39884
 O108 O 1.04759 0.50775 0.39343
 O109 O 0.94895 0.59133 0.50511
 O110 O 1.04979 0.41739 0.49516
 O111 O 1.04430 0.59425 0.50117
 O112 O 0.95388 0.41331 0.49939
 H113 H 0.92677 0.49784 0.64684
 H114 H 1.07419 0.38051 0.49241
 H115 H 0.91816 0.50470 0.35966
 H116 H 1.06589 0.63326 0.50157
 H117 H 1.01145 0.31151 0.55218
 H118 H 0.98403 0.31352 0.43723
 H119 H 1.02431 0.45694 0.27659
 H120 H 0.98607 0.61207 0.27979
 H121 H 0.99307 0.69672 0.44847
 H122 H 0.98192 0.69393 0.56651
 H123 H 1.03585 0.55681 0.72235
 H124 H 1.03810 0.44499 0.71892
 O125 O 0.59634 -0.08385 0.62761
 O126 O 0.54331 -0.15307 0.56345
 C127 C 0.58079 -0.13930 0.61118
 O128 O 0.39763 0.08733 0.62774
 O129 O 0.45023 0.15578 0.56311
 C130 C 0.41230 0.14260 0.60983
 O131 O 0.40268 -0.08278 0.63548
 O132 O 0.45058 -0.15266 0.56663
 C133 C 0.41609 -0.13846 0.61724
 O134 O 0.60268 0.08681 0.61934
 O135 O 0.54807 0.15542 0.55701
 C136 C 0.58826 0.14225 0.60113
 Zr137 Zr 0.56875 0.00121 0.58709
 O138 O 0.56620 0.00489 0.69966
 O139 O 0.65690 -0.00582 0.58646
 Zr140 Zr 0.42826 0.00196 0.59228
 O141 O 0.42968 0.00737 0.70491
 O142 O 0.34009 -0.00036 0.58826
 O143 O 0.49871 -0.05348 0.60390
 O144 O 0.49922 0.05563 0.60276
 O145 O 0.59524 0.08499 0.37251
 O146 O 0.54328 0.15474 0.43657
 C147 C 0.58107 0.14069 0.38999
 O148 O 0.39345 -0.08469 0.37494
 O149 O 0.44634 -0.15364 0.43963
 C150 C 0.40790 -0.14028 0.39280
 O151 O 0.38944 0.08720 0.38260
 O152 O 0.44735 0.15568 0.44061
 C153 C 0.40601 0.14264 0.39833
 O154 O 0.59071 -0.08634 0.36885
 O155 O 0.54080 -0.15463 0.43724
 C156 C 0.57728 -0.14167 0.38848
 Zr157 Zr 0.56339 -0.00018 0.40770
 O158 O 0.55731 0.00552 0.29520
 O159 O 0.65137 -0.00710 0.40163
 Zr160 Zr 0.42300 0.00098 0.41341
 O161 O 0.42115 0.00748 0.30080
 O162 O 0.33485 -0.00419 0.41626
 Zr163 Zr 0.49551 -0.09160 0.50066
 Zr164 Zr 0.49648 0.09356 0.49983
 O165 O 0.49309 0.05425 0.39713
 O166 O 0.49254 -0.05516 0.39661
 O167 O 0.57748 0.05566 0.49657
 O168 O 0.41516 -0.05269 0.50368
 O169 O 0.57614 -0.05337 0.49753
 O170 O 0.41509 0.05703 0.50313
 H171 H 0.50071 0.08353 0.64469
 H172 H 0.38220 -0.08029 0.50541
 H173 H 0.49186 0.08180 0.35501
 H174 H 0.60913 -0.08099 0.49710
 H175 H 0.32730 -0.00022 0.63841
 H176 H 0.32231 0.02314 0.45537
 H177 H 0.44207 -0.02825 0.28164
 H178 H 0.53823 -0.03226 0.27795
 H179 H 0.66736 0.02500 0.43329
 H180 H 0.67106 0.02600 0.55342
 H181 H 0.60555 0.00483 0.71628
 H182 H 0.46162 -0.01792 0.72151
 O183 O 0.57910 0.60243 0.13685
 O184 O 0.63870 0.54785 0.06514
 C185 C 0.62877 0.58732 0.11491
 O186 O 0.42313 0.37351 0.10649
 O187 O 0.36135 0.43908 0.05117
 C188 C 0.37314 0.39012 0.08753
 O189 O 0.58090 0.38434 0.11860
 O190 O 0.63977 0.44710 0.05582
 C191 C 0.63033 0.40275 0.09979
 O192 O 0.41986 0.60884 0.12978
 O193 O 0.35997 0.54886 0.06370
 C194 C 0.37001 0.59236 0.10920
 Zr195 Zr 0.49906 0.57175 0.10042
 O196 O 0.49352 0.55545 0.21140
 O197 O 0.50238 0.66742 0.12268
 Zr198 Zr 0.50068 0.41674 0.08617
 O199 O 0.49384 0.41758 0.19865
 O200 O 0.50670 0.31942 0.09115
 O201 O 0.55014 0.49389 0.10675
 O202 O 0.45058 0.49272 0.10609
 O203 O 0.41811 0.62103 -0.10765
 O204 O 0.35896 0.55600 -0.04825
 C205 C 0.36860 0.60269 -0.08889
 O206 O 0.57869 0.39969 -0.13429
 O207 O 0.63827 0.45472 -0.06219
 C208 C 0.62837 0.41550 -0.11253
 O209 O 0.41916 0.39293 -0.12658
 O210 O 0.35951 0.45063 -0.05834
 C211 C 0.36943 0.40872 -0.10534
 O212 O 0.57789 0.61741 -0.11439
 O213 O 0.63821 0.55533 -0.05172
 C214 C 0.62780 0.59974 -0.09526
 Zr215 Zr 0.49812 0.58410 -0.08146
 O216 O 0.49156 0.58744 -0.19399
 O217 O 0.50255 0.68175 -0.07892
 Zr218 Zr 0.49914 0.42841 -0.09579
 O219 O 0.49218 0.44137 -0.20733
 O220 O 0.50473 0.33191 -0.11252
 Zr221 Zr 0.58104 0.50090 0.00200
 Zr222 Zr 0.41735 0.49942 0.00245
 O223 O 0.44983 0.50667 -0.10118
 O224 O 0.54849 0.50759 -0.10240
 O225 O 0.44993 0.58973 0.01054
 O226 O 0.54739 0.41128 -0.00596
 O227 O 0.54588 0.58995 0.01037
 O228 O 0.45172 0.40991 -0.00592
 H229 H 0.42351 0.48947 0.14565
 H230 H 0.57224 0.37478 -0.00916
 H231 H 0.42316 0.50908 -0.14167
 H232 H 0.57005 0.62702 0.01322
 H233 H 0.50190 0.30426 0.04178
 H234 H 0.48115 0.31208 -0.07602
 H235 H 0.52758 0.45996 -0.22365
 H236 H 0.52649 0.57011 -0.21356
 H237 H 0.47648 0.69592 -0.04161
 H238 H 0.49809 0.68860 0.07637
 H239 H 0.53110 0.54309 0.22831
 H240 H 0.53065 0.42975 0.21833
 C241 C 1.22013 0.18171 0.22068
 C242 C 1.25089 0.12807 0.21361
 C243 C 1.21839 0.08821 0.17587
 C244 C 1.16994 0.12006 0.16190
 O245 O 1.17078 0.17718 0.18841
 H246 H 1.29371 0.12001 0.22942
 H247 H 1.22922 0.04190 0.15895
 C248 C 1.21934 0.71334 0.67864
 C249 C 1.24190 0.70975 0.61124
 C250 C 1.21237 0.66558 0.57657
 C251 C 1.17274 0.64637 0.62427
 O252 O 1.17649 0.67525 0.68658
 H253 H 1.27732 0.73453 0.59019
 H254 H 1.21830 0.64996 0.52233
 C255 C 0.68167 0.23923 0.69118
 C256 C 0.65335 0.28458 0.65422
 C257 C 0.61308 0.25444 0.61632
 C258 C 0.62034 0.19292 0.63277
 O259 O 0.66198 0.18344 0.67811
 H260 H 0.66200 0.33368 0.65382
 H261 H 0.58306 0.27456 0.57978
 C262 C 0.72450 0.68629 0.19684
 C263 C 0.76264 0.65285 0.15830
 C264 C 0.73176 0.60918 0.12356
 C265 C 0.67727 0.61967 0.14419
 O266 O 0.67284 0.66652 0.18843
 H267 H 0.80736 0.65946 0.15615
 H268 H 0.74690 0.57457 0.08668
 C269 C 0.76878 -0.18288 0.20654
 C270 C 0.73364 -0.13959 0.17689
 C271 C 0.76667 -0.10228 0.13691
 C272 C 0.82016 -0.12520 0.14440
 O273 O 0.82162 -0.17470 0.18660
 H274 H 0.68876 -0.13682 0.18203
 H275 H 0.75321 -0.06320 0.10520
 C276 C 0.79439 0.28262 0.67942
 C277 C 0.81197 0.24680 0.62336
 C278 C 0.84348 0.28513 0.58293
 C279 C 0.84161 0.34183 0.61655
 O280 O 0.81250 0.34036 0.67604
 H281 H 0.80272 0.19859 0.61329
 H282 H 0.86673 0.27293 0.53563
 C283 C 0.32617 -0.23194 0.71404
 C284 C 0.36264 -0.27797 0.69316
 C285 C 0.40309 -0.24899 0.65505
 C286 C 0.38795 -0.18765 0.65566
 O287 O 0.34142 -0.17717 0.69105
 H288 H 0.35838 -0.32727 0.70116
 H289 H 0.43810 -0.27009 0.62812
 C290 C 0.27903 0.28903 0.16494
 C291 C 0.24352 0.31134 0.11311
 C292 C 0.27493 0.35150 0.07476
 C293 C 0.32702 0.34994 0.10633
 O294 O 0.32975 0.31184 0.16061
 H295 H 0.19896 0.30401 0.10850
 H296 H 0.26080 0.38101 0.03189
 C297 C 0.76884 0.18795 -0.20017
 C298 C 0.73233 0.14807 -0.16768
 C299 C 0.76465 0.10913 -0.12811
 C300 C 0.81895 0.12809 -0.13869
 O301 O 0.82170 0.17632 -0.18249
 H302 H 0.68724 0.14820 -0.17147
 H303 H 0.75028 0.07165 -0.09479
 C304 C 0.78569 0.71853 0.32913
 C305 C 0.79636 0.74978 0.39148
 C306 C 0.82414 0.70859 0.43325
 C307 C 0.82698 0.65464 0.39407
 O308 O 0.80467 0.66107 0.32992
 H309 H 0.78544 0.79700 0.40454
 H310 H 0.84361 0.71804 0.48432
 C311 C 0.31704 0.24049 0.30339
 C312 C 0.35705 0.28393 0.32105
 C313 C 0.39550 0.25337 0.36132
 C314 C 0.37623 0.19358 0.36454
 O315 O 0.32872 0.18560 0.32982
 H316 H 0.35924 0.33179 0.30535
 H317 H 0.43378 0.27187 0.38367
 C318 C 0.27239 0.69682 -0.17723
 C319 C 0.23398 0.66353 -0.13906
 C320 C 0.26513 0.62372 -0.09876
 C321 C 0.31997 0.63638 -0.11581
 O322 O 0.32433 0.68080 -0.16296
 H323 H 0.18896 0.66660 -0.14205
 H324 H 0.24976 0.58871 -0.06276
 C325 C 1.22673 -0.17573 -0.20617
 C326 C 1.26019 -0.12693 -0.18594
 C327 C 1.22683 -0.08812 -0.14835
 C328 C 1.17495 -0.11549 -0.14817
 O329 O 1.17469 -0.16924 -0.18291
 H330 H 1.30452 -0.12160 -0.19438
 H331 H 1.23922 -0.04555 -0.12253
 C332 C 1.22202 0.32556 0.28794
 C333 C 1.25053 0.38107 0.28842
 C334 C 1.21835 0.42132 0.32479
 C335 C 1.17177 0.38813 0.34267
 O336 O 1.17326 0.32977 0.32026
 H337 H 1.29009 0.39167 0.26405
 H338 H 1.22706 0.46955 0.33562
 C339 C 0.67467 -0.23634 0.30434
 C340 C 0.64511 -0.28254 0.33783
 C341 C 0.60216 -0.25360 0.37137
 C342 C 0.60906 -0.19189 0.35599
 O343 O 0.65305 -0.18120 0.31544
 H344 H 0.65495 -0.33136 0.33950
 H345 H 0.57112 -0.27448 0.40536
 C346 C 0.72549 0.31920 -0.19569
 C347 C 0.76299 0.35295 -0.15592
 C348 C 0.73148 0.39575 -0.12127
 C349 C 0.67715 0.38451 -0.14279
 O350 O 0.67343 0.33798 -0.18796
 H351 H 0.80774 0.34677 -0.15247
 H352 H 0.74610 0.43000 -0.08338
 C353 C 1.22451 0.18408 -0.20710
 C354 C 1.25967 0.13983 -0.17930
 C355 C 1.22704 0.10203 -0.13950
 C356 C 1.17362 0.12519 -0.14545
 O357 O 1.17188 0.17578 -0.18615
 H358 H 1.30452 0.13702 -0.18481
 H359 H 1.24088 0.06296 -0.10821
 C360 C 1.20613 0.72094 0.31217
 C361 C 1.19161 0.75401 0.37193
 C362 C 1.16064 0.71453 0.41154
 C363 C 1.15913 0.65994 0.37363
 O364 O 1.18605 0.66374 0.31238
 H365 H 1.20302 0.80104 0.38546
 H366 H 1.13994 0.72475 0.46132
 C367 C 0.67241 0.23526 0.29642
 C368 C 0.63625 0.28115 0.31845
 C369 C 0.59581 0.25176 0.35604
 C370 C 0.61062 0.19033 0.35406
 O371 O 0.65704 0.18015 0.31831
 H372 H 0.64066 0.33055 0.31140
 H373 H 0.56082 0.27261 0.38328
 C374 C 0.72374 0.69383 -0.18200
 C375 C 0.76220 0.66010 -0.14381
 C376 C 0.73109 0.61992 -0.10469
 C377 C 0.67623 0.63269 -0.12266
 O378 O 0.67180 0.67773 -0.16895
 H379 H 0.80722 0.66317 -0.14604
 H380 H 0.74648 0.58483 -0.06850
 C381 C 0.77046 -0.17995 -0.20923
 C382 C 0.73794 -0.12952 -0.19246
 C383 C 0.77097 -0.09177 -0.15260
 C384 C 0.82170 -0.12146 -0.14756
 O385 O 0.82166 -0.17545 -0.18175
 H386 H 0.69434 -0.12211 -0.20497
 H387 H 0.75935 -0.04783 -0.12936
 C388 C 0.78014 0.28916 0.33054
 C389 C 0.75742 0.29471 0.39768
 C390 C 0.78730 0.33935 0.43101
 C391 C 0.82751 0.35649 0.38312
 O392 O 0.82354 0.32628 0.32171
 H393 H 0.72129 0.27150 0.41911
 H394 H 0.78078 0.35709 0.48423
 C395 C 0.31395 -0.23630 0.30133
 C396 C 0.34277 -0.28208 0.33716
 C397 C 0.38363 -0.25243 0.37463
 C398 C 0.37637 -0.19071 0.35926
 O399 O 0.33404 -0.18067 0.31490
 H400 H 0.33411 -0.33119 0.33720
 H401 H 0.41387 -0.27303 0.41051
 C402 C 0.27144 0.31325 -0.18964
 C403 C 0.23382 0.35105 -0.15589
 C404 C 0.26583 0.39283 -0.11976
 C405 C 0.32044 0.37681 -0.13435
 O406 O 0.32386 0.32851 -0.17660
 H407 H 0.18875 0.34950 -0.15921
 H408 H 0.25117 0.43094 -0.08742
 C409 C 1.22906 -0.18509 0.20275
 C410 C 1.26460 -0.14431 0.16985
 C411 C 1.23117 -0.10389 0.13393
 C412 C 1.17707 -0.12260 0.14673
 O413 O 1.17559 -0.17242 0.18852
 H414 H 1.30976 -0.14483 0.17058
 H415 H 1.24474 -0.06595 0.10077
 C416 C 1.21560 0.29154 0.67094
 C417 C 1.23319 0.28710 0.60114
 C418 C 1.20795 0.33437 0.56586
 C419 C 1.17640 0.36402 0.61642
 O420 O 1.18050 0.33802 0.68015
 H421 H 1.26273 0.25463 0.57889
 H422 H 1.21008 0.34424 0.50938
 C423 C 0.67034 -0.23377 0.70881
 C424 C 0.63156 -0.27866 0.69107
 C425 C 0.59151 -0.24920 0.65214
 C426 C 0.60911 -0.18879 0.64922
 O427 O 0.65679 -0.17927 0.68313
 H428 H 0.63390 -0.32776 0.70156
 H429 H 0.55485 -0.26943 0.62750
 C430 C 0.72603 0.30896 0.18911
 C431 C 0.76465 0.34216 0.15117
 C432 C 0.73379 0.38261 0.11141
 C433 C 0.67891 0.37042 0.12868
 O434 O 0.67424 0.32567 0.17535
 H435 H 0.80964 0.33813 0.15340
 H436 H 0.74930 0.41711 0.07483
 C437 C 0.76986 0.18071 0.21171
 C438 C 0.73577 0.13262 0.19086
 C439 C 0.76809 0.09486 0.15043
 C440 C 0.81993 0.12230 0.14917
 O441 O 0.82124 0.17487 0.18613
 H442 H 0.69172 0.12693 0.20120
 H443 H 0.75527 0.05249 0.12437
 C444 C 0.77651 0.70699 0.67684
 C445 C 0.75009 0.69345 0.61315
 C446 C 0.78100 0.64877 0.58233
 C447 C 0.82570 0.63992 0.62736
 O448 O 0.82333 0.67498 0.68539
 H449 H 0.71135 0.71165 0.59225
 H450 H 0.77260 0.62621 0.53189
 C451 C 0.32170 0.23765 0.70395
 C452 C 0.35626 0.28368 0.67867
 C453 C 0.39652 0.25417 0.64083
 C454 C 0.38303 0.19254 0.64564
 O455 O 0.33772 0.18229 0.68361
 H456 H 0.35093 0.33315 0.68410
 H457 H 0.43040 0.27498 0.61151
 C458 C 0.27239 0.69088 0.19018
 C459 C 0.23527 0.65836 0.14840
 C460 C 0.26704 0.61600 0.11322
 C461 C 0.32121 0.62619 0.13616
 O462 O 0.32454 0.67178 0.18276
 H463 H 0.19050 0.66434 0.14475
 H464 H 0.25254 0.58193 0.07508
   
