data_POSCAR
  _audit_creation_date              2014-09-24
  _audit_creation_method            'ToBaCCo'
  _symmetry_space_group_name_H-M    'P1'
  _symmetry_Int_Tables_number       1
  _symmetry_cell_setting            triclinic
  loop_
  _symmetry_equiv_pos_as_xyz
 x,y,z
_cell_length_a 35.1579
_cell_length_b 35.1579
_cell_length_c 33.9666
_cell_angle_alpha 90.000000
_cell_angle_beta 90.000000
_cell_angle_gamma 90.000000
loop_
  _atom_site_label
  _atom_site_type_symbol
  _atom_site_fract_x
  _atom_site_fract_y
  _atom_site_fract_z
C1 C 0.24695 0.25270 0.25110
 C2 C 0.75095 0.75098 0.24947
 C3 C 0.74724 0.24835 0.74978
 C4 C 0.25454 0.75035 0.74616
 C5 C 0.03476 0.06987 0.02852
 H6 H 0.01577 0.08155 0.00661
 C7 C 0.05674 0.09529 0.05194
 H8 H 0.05327 0.12556 0.04732
 C9 C 0.06179 0.01745 0.06082
 H10 H 0.06411 -0.01297 0.06494
 C11 C 0.08487 0.04210 0.08454
 H12 H 0.10349 0.02978 0.10647
 N13 N 0.03692 0.03121 0.03295
 C14 C 0.02998 -0.05965 -0.06749
 H15 H 0.00009 -0.06144 -0.07486
 C16 C 0.05681 -0.08186 -0.08959
 H17 H 0.04635 -0.09942 -0.11339
 C18 C 0.07906 -0.03458 -0.02874
 H19 H 0.08876 -0.01646 -0.00518
 C20 C 0.10640 -0.05665 -0.04937
 H21 H 0.13546 -0.05470 -0.03935
 Zn22 Zn 0.00426 -0.00349 -0.00349
 N23 N 0.04111 -0.03593 -0.03744
 C24 C -0.02807 0.03457 -0.07877
 N25 N -0.03054 0.03153 -0.03843
 C26 C -0.05769 0.05319 -0.02006
 C27 C -0.08340 0.07695 -0.04133
 C28 C -0.05309 0.05868 -0.10122
 C29 C -0.01564 -0.06559 0.05667
 C30 C -0.03987 -0.08948 0.08017
 C31 C -0.09361 -0.06113 0.04889
 C32 C -0.06865 -0.03820 0.02588
 N33 N -0.02993 -0.03971 0.03009
 H34 H -0.00678 0.01808 -0.09416
 H35 H -0.06005 0.05182 0.01167
 H36 H -0.10452 0.09270 -0.02485
 H37 H -0.05035 0.05930 -0.13295
 H38 H 0.01484 -0.06770 0.06037
 H39 H -0.02712 -0.10850 0.10147
 H40 H -0.12394 -0.05787 0.04455
 H41 H -0.08083 -0.01879 0.00471
 C42 C 0.09639 -0.08082 -0.08125
 C43 C 0.08263 0.08213 0.08090
 C44 C -0.08001 -0.08739 0.07730
 C45 C -0.08218 0.08036 -0.08295
 C46 C 0.03578 0.57423 0.52823
 H47 H 0.02018 0.58475 0.50304
 C48 C 0.05869 0.59996 0.55011
 H49 H 0.05987 0.62903 0.53987
 C50 C 0.05440 0.52389 0.56918
 H51 H 0.05353 0.49410 0.57690
 C52 C 0.07734 0.54908 0.59245
 H53 H 0.09256 0.53768 0.61750
 N54 N 0.03325 0.53654 0.53772
 C55 C 0.02356 0.42983 0.46623
 H56 H -0.00187 0.41970 0.48076
 C57 C 0.04600 0.40367 0.44440
 H58 H 0.03613 0.37460 0.44275
 C59 C 0.06516 0.47959 0.44992
 H60 H 0.07314 0.50925 0.45187
 C61 C 0.08878 0.45403 0.42793
 H62 H 0.11425 0.46497 0.41409
 Zn63 Zn -0.00091 0.50229 0.50295
 N64 N 0.03309 0.46740 0.46930
 C65 C -0.02878 0.54006 0.42664
 N66 N -0.03420 0.53699 0.46663
 C67 C -0.06304 0.55805 0.48286
 C68 C -0.08772 0.58112 0.45953
 C69 C -0.05244 0.56368 0.40229
 C70 C -0.02204 0.44481 0.56709
 C71 C -0.04619 0.42016 0.58968
 C72 C -0.09913 0.44249 0.55230
 C73 C -0.07429 0.46692 0.53083
 N74 N -0.03592 0.46803 0.53779
 H75 H -0.00613 0.52394 0.41301
 H76 H -0.06779 0.55646 0.51429
 H77 H -0.11077 0.59601 0.47399
 H78 H -0.04745 0.56431 0.37086
 H79 H 0.00818 0.44451 0.57283
 H80 H -0.03354 0.40188 0.61173
 H81 H -0.12906 0.44270 0.54485
 H82 H -0.08608 0.48442 0.50770
 C83 C 0.08004 0.41477 0.42502
 C84 C 0.07975 0.58844 0.58382
 C85 C -0.08576 0.41789 0.58242
 C86 C -0.08318 0.58469 0.41823
 C87 C 0.56183 0.05450 0.51954
 H88 H 0.56831 0.05443 0.48840
 C89 C 0.58455 0.07725 0.54545
 H90 H 0.60729 0.09434 0.53326
 C91 C 0.52459 0.03330 0.57253
 H92 H 0.50143 0.01630 0.58389
 C93 C 0.54602 0.05615 0.59912
 H94 H 0.53826 0.05593 0.62996
 N95 N 0.53206 0.03272 0.53297
 C96 C 0.52456 -0.05628 0.43111
 H97 H 0.49527 -0.05546 0.42152
 C98 C 0.55098 -0.07970 0.40993
 H99 H 0.54095 -0.09501 0.38435
 C100 C 0.57216 -0.03819 0.47560
 H101 H 0.58106 -0.02295 0.50165
 C102 C 0.59895 -0.06178 0.45604
 H103 H 0.62691 -0.06354 0.46899
 Zn104 Zn 0.49934 -0.00062 0.49578
 N105 N 0.53535 -0.03496 0.46316
 C106 C 0.46055 0.02913 0.42080
 N107 N 0.46586 0.03416 0.46058
 C108 C 0.44739 0.06398 0.47811
 C109 C 0.42412 0.08962 0.45633
 C110 C 0.43673 0.05383 0.39801
 C111 C 0.47275 -0.07315 0.53014
 C112 C 0.44990 -0.09913 0.55165
 C113 C 0.40963 -0.04772 0.57126
 C114 C 0.43358 -0.02239 0.54946
 N115 N 0.46460 -0.03517 0.52872
 H116 H 0.47489 0.00603 0.40605
 H117 H 0.45107 0.06853 0.50938
 H118 H 0.41094 0.11311 0.47177
 H119 H 0.43406 0.04899 0.36666
 H120 H 0.49737 -0.08375 0.51453
 H121 H 0.45853 -0.12865 0.55192
 H122 H 0.38500 -0.03632 0.58629
 H123 H 0.42677 0.00760 0.54888
 C124 C 0.58959 -0.08287 0.42162
 C125 C 0.57683 0.07902 0.58628
 C126 C 0.41693 -0.08732 0.57245
 C127 C 0.41806 0.08530 0.41532
 C128 C 0.53273 0.57526 0.02620
 H129 H 0.51547 0.58516 0.00193
 C130 C 0.55526 0.60209 0.04726
 H131 H 0.55427 0.63126 0.03734
 C132 C 0.55606 0.52566 0.06541
 H133 H 0.55728 0.49575 0.07270
 C134 C 0.57882 0.55190 0.08774
 H135 H 0.59595 0.54104 0.11167
 N136 N 0.53278 0.53732 0.03517
 C137 C 0.53784 0.42865 -0.03106
 H138 H 0.51920 0.41401 -0.01075
 C139 C 0.56282 0.40669 -0.05556
 H140 H 0.56212 0.37598 -0.05352
 C141 C 0.56067 0.48539 -0.05871
 H142 H 0.56050 0.51612 -0.06038
 C143 C 0.58543 0.46459 -0.08395
 H144 H 0.60331 0.48033 -0.10414
 Zn145 Zn 0.50004 0.50080 0.00073
 N146 N 0.53650 0.46770 -0.03295
 C147 C 0.46996 0.53244 -0.07602
 N148 N 0.46528 0.53314 -0.03598
 C149 C 0.43669 0.55575 -0.02123
 C150 C 0.41280 0.57841 -0.04615
 C151 C 0.44725 0.55507 -0.10170
 C152 C 0.47513 0.44787 0.06840
 C153 C 0.44871 0.42528 0.09064
 C154 C 0.40114 0.43952 0.04273
 C155 C 0.42805 0.46190 0.02175
 N156 N 0.46467 0.46652 0.03449
 H157 H 0.49184 0.51462 -0.08859
 H158 H 0.43229 0.55669 0.01028
 H159 H 0.39140 0.59647 -0.03289
 H160 H 0.45308 0.55408 -0.13298
 H161 H 0.50400 0.45063 0.07894
 H162 H 0.45830 0.41202 0.11761
 H163 H 0.37301 0.43679 0.03019
 H164 H 0.41925 0.47548 -0.00531
 C165 C 0.58708 0.42429 -0.08342
 C166 C 0.57884 0.59148 0.07951
 C167 C 0.41033 0.42088 0.07858
 C168 C 0.41786 0.57902 -0.08746
 C169 C 0.18436 -0.19236 -0.18478
 C170 C 0.20923 -0.16712 -0.16813
 C171 C 0.24835 -0.16952 -0.17508
 C172 C 0.26239 -0.19774 -0.20124
 C173 C 0.23792 -0.22294 -0.22268
 C174 C 0.19792 -0.22099 -0.21130
 O175 O 0.14818 -0.18575 -0.17350
 C176 C 0.15024 -0.15536 -0.14944
 C177 C 0.18706 -0.14291 -0.14542
 C178 C 0.19585 -0.11107 -0.12276
 C179 C 0.16616 -0.09141 -0.10324
 C180 C 0.12724 -0.10332 -0.10496
 C181 C 0.11966 -0.13621 -0.12937
 H182 H 0.26777 -0.15003 -0.16079
 H183 H 0.29280 -0.19882 -0.20606
 H184 H 0.17722 -0.24085 -0.22263
 H185 H 0.22490 -0.10112 -0.12055
 H186 H 0.17420 -0.06613 -0.08726
 H187 H 0.09098 -0.14688 -0.13249
 C188 C 0.18955 0.32893 0.31754
 C189 C 0.17358 0.30448 0.34431
 C190 C 0.18135 0.26562 0.34386
 C191 C 0.20578 0.25093 0.31453
 C192 C 0.22333 0.27430 0.28524
 C193 C 0.21526 0.31476 0.28801
 O194 O 0.17720 0.36493 0.32292
 C195 C 0.15301 0.36293 0.35372
 C196 C 0.15014 0.32645 0.36777
 C197 C 0.12684 0.31739 0.39960
 C198 C 0.10531 0.34652 0.41766
 C199 C 0.10594 0.38499 0.40417
 C200 C 0.13112 0.39304 0.37147
 H201 H 0.16826 0.24678 0.36510
 H202 H 0.21030 0.22048 0.31396
 H203 H 0.22775 0.33481 0.26776
 H204 H 0.12533 0.28851 0.41051
 H205 H 0.08836 0.33863 0.44292
 H206 H 0.13315 0.42158 0.35976
 C207 C 0.67645 -0.19447 0.31673
 C208 C 0.70140 -0.17344 0.33880
 C209 C 0.74058 -0.17852 0.33604
 C210 C 0.75508 -0.20505 0.30866
 C211 C 0.73127 -0.22635 0.28230
 C212 C 0.69050 -0.22168 0.28860
 O213 O 0.64000 -0.18500 0.32465
 C214 C 0.64228 -0.15723 0.35202
 C215 C 0.67938 -0.14920 0.36128
 C216 C 0.68892 -0.12051 0.38773
 C217 C 0.65958 -0.09936 0.40586
 C218 C 0.62012 -0.10679 0.39904
 C219 C 0.61182 -0.13654 0.37071
 H220 H 0.75976 -0.16201 0.35420
 H221 H 0.78571 -0.20754 0.30645
 H222 H 0.66997 -0.23798 0.27207
 H223 H 0.71843 -0.11401 0.39386
 H224 H 0.66851 -0.07646 0.42485
 H225 H 0.58272 -0.14364 0.36353
 C226 C 0.69227 0.31530 -0.17166
 C227 C 0.67818 0.34234 -0.19681
 C228 C 0.68705 0.34218 -0.23676
 C229 C 0.71048 0.31294 -0.25192
 C230 C 0.72659 0.28351 -0.22791
 C231 C 0.71724 0.28592 -0.18620
 O232 O 0.67881 0.32021 -0.13472
 C233 C 0.65590 0.35101 -0.13685
 C234 C 0.65491 0.36557 -0.17434
 C235 C 0.63316 0.39752 -0.18371
 C236 C 0.61180 0.41557 -0.15372
 C237 C 0.61124 0.40209 -0.11415
 C238 C 0.63383 0.36856 -0.10598
 H239 H 0.67518 0.36344 -0.25626
 H240 H 0.71471 0.31267 -0.28341
 H241 H 0.72786 0.26533 -0.16544
 H242 H 0.63265 0.40847 -0.21349
 H243 H 0.59500 0.44018 -0.16174
 H244 H 0.63466 0.35690 -0.07651
 C245 C -0.17418 0.18543 -0.19157
 C246 C -0.19759 0.16767 -0.16499
 C247 C -0.23671 0.17408 -0.16472
 C248 C -0.25267 0.19970 -0.19229
 C249 C -0.23045 0.22054 -0.22020
 C250 C -0.18987 0.21214 -0.21975
 O251 O -0.13760 0.17421 -0.18685
 C252 C -0.13819 0.14909 -0.15660
 C253 C -0.17440 0.14444 -0.14229
 C254 C -0.18206 0.12024 -0.11065
 C255 C -0.15175 0.10018 -0.09264
 C256 C -0.11334 0.10330 -0.10571
 C257 C -0.10686 0.12837 -0.13904
 H258 H -0.25481 0.15938 -0.14391
 H259 H -0.28322 0.20338 -0.19165
 H260 H -0.17101 0.22548 -0.24071
 H261 H -0.21083 0.11696 -0.09982
 H262 H -0.15856 0.08154 -0.06827
 H263 H -0.07836 0.13218 -0.15039
 C264 C -0.17163 0.68906 0.30639
 C265 C -0.19576 0.66479 0.32580
 C266 C -0.23493 0.66638 0.32046
 C267 C -0.25030 0.69369 0.29446
 C268 C -0.22758 0.72020 0.27238
 C269 C -0.18675 0.71757 0.27978
 O270 O -0.13502 0.68257 0.31683
 C271 C -0.13644 0.65372 0.34324
 C272 C -0.17321 0.64225 0.34978
 C273 C -0.18201 0.61371 0.37692
 C274 C -0.15226 0.59604 0.39827
 C275 C -0.11335 0.60584 0.39276
 C276 C -0.10555 0.63547 0.36412
 H277 H -0.25353 0.64734 0.33645
 H278 H -0.28101 0.69474 0.29215
 H279 H -0.16723 0.73770 0.26686
 H280 H -0.21125 0.60535 0.38186
 H281 H -0.15971 0.57407 0.41924
 H282 H -0.07657 0.64450 0.35890
 C283 C 0.31176 0.17443 0.30715
 C284 C 0.33489 0.19869 0.32788
 C285 C 0.33196 0.23799 0.32417
 C286 C 0.30442 0.25328 0.29843
 C287 C 0.27920 0.23027 0.27548
 C288 C 0.28313 0.18946 0.28086
 O289 O 0.31950 0.13773 0.31593
 C290 C 0.34797 0.13917 0.34266
 C291 C 0.35802 0.17603 0.35098
 C292 C 0.38606 0.18476 0.37864
 C293 C 0.40467 0.15480 0.39870
 C294 C 0.39616 0.11585 0.39137
 C295 C 0.36710 0.10816 0.36221
 H296 H 0.35022 0.25664 0.34106
 H297 H 0.30224 0.28397 0.29680
 H298 H 0.26405 0.16992 0.26639
 H299 H 0.39337 0.21404 0.38490
 H300 H 0.42636 0.16215 0.42000
 H301 H 0.35916 0.07913 0.35558
 C302 C 0.30654 0.67606 -0.18332
 C303 C 0.34363 0.68365 -0.19296
 C304 C 0.35329 0.71114 -0.22024
 C305 C 0.32430 0.73184 -0.23892
 C306 C 0.28412 0.72493 -0.23306
 C307 C 0.27589 0.69632 -0.20304
 O308 O 0.30479 0.64934 -0.15459
 C309 C 0.34153 0.64024 -0.14661
 C310 C 0.36605 0.66061 -0.16980
 C311 C 0.40543 0.65621 -0.16754
 C312 C 0.42073 0.62965 -0.14071
 C313 C 0.39745 0.60750 -0.11532
 C314 C 0.35663 0.61342 -0.11832
 H315 H 0.38285 0.71752 -0.22629
 H316 H 0.33477 0.75442 -0.25750
 H317 H 0.24671 0.69040 -0.19500
 H318 H 0.42409 0.67271 -0.18626
 H319 H 0.45136 0.62664 -0.13946
 H320 H 0.33745 0.59730 -0.09984
 C321 C -0.17261 -0.19778 0.17969
 C322 C -0.18727 -0.16167 0.18045
 C323 C -0.21994 -0.15284 0.20111
 C324 C -0.23843 -0.18153 0.22253
 C325 C -0.22504 -0.22034 0.22549
 C326 C -0.19141 -0.22819 0.20145
 O327 O -0.14097 -0.19899 0.15680
 C328 C -0.13617 -0.16291 0.14333
 C329 C -0.16420 -0.13939 0.15715
 C330 C -0.16607 -0.10097 0.14710
 C331 C -0.13831 -0.08560 0.12167
 C332 C -0.10812 -0.10779 0.10585
 C333 C -0.10705 -0.14761 0.11755
 H334 H -0.23141 -0.12427 0.20054
 H335 H -0.26427 -0.17232 0.23687
 H336 H -0.18034 -0.25682 0.19942
 H337 H -0.18857 -0.08309 0.15851
 H338 H -0.14032 -0.05566 0.11453
 H339 H -0.08490 -0.16605 0.10642
 C340 C -0.17506 0.31336 0.69329
 C341 C -0.18750 0.30965 0.65525
 C342 C -0.21811 0.28653 0.64559
 C343 C -0.23714 0.26644 0.67567
 C344 C -0.22590 0.26761 0.71632
 C345 C -0.19389 0.29268 0.72464
 O346 O -0.14591 0.33846 0.69556
 C347 C -0.14022 0.35055 0.65814
 C348 C -0.16530 0.33365 0.63265
 C349 C -0.16577 0.34232 0.59256
 C350 C -0.13969 0.36934 0.57767
 C351 C -0.11263 0.38817 0.60205
 C352 C -0.11296 0.37792 0.64346
 H353 H -0.22819 0.28499 0.61551
 H354 H -0.26255 0.25208 0.66627
 H355 H -0.18477 0.29691 0.75474
 H356 H -0.18592 0.32868 0.57304
 H357 H -0.14045 0.37529 0.54641
 H358 H -0.09327 0.39134 0.66361
 C359 C 0.30876 -0.17324 0.68081
 C360 C 0.32191 -0.19680 0.65171
 C361 C 0.31231 -0.23513 0.65036
 C362 C 0.28927 -0.25041 0.68046
 C363 C 0.27483 -0.22819 0.71278
 C364 C 0.28427 -0.18783 0.71118
 O365 O 0.32259 -0.13763 0.67676
 C366 C 0.34490 -0.13905 0.64446
 C367 C 0.34510 -0.17476 0.62816
 C368 C 0.36624 -0.18324 0.59460
 C369 C 0.38839 -0.15431 0.57709
 C370 C 0.39047 -0.11673 0.59284
 C371 C 0.36743 -0.10918 0.62726
 H372 H 0.32319 -0.25328 0.62721
 H373 H 0.28402 -0.28073 0.67945
 H374 H 0.27385 -0.16792 0.73272
 H375 H 0.36567 -0.21152 0.58202
 H376 H 0.40374 -0.16158 0.55056
 H377 H 0.36760 -0.08128 0.64069
 C378 C 0.32109 0.31262 0.18490
 C379 C 0.29661 0.33718 0.16649
 C380 C 0.25736 0.33509 0.17239
 C381 C 0.24256 0.30742 0.19861
 C382 C 0.26622 0.28189 0.22035
 C383 C 0.30668 0.28438 0.21164
 O384 O 0.35758 0.31929 0.17456
 C385 C 0.35598 0.34882 0.14923
 C386 C 0.31918 0.36069 0.14351
 C387 C 0.31060 0.39121 0.11884
 C388 C 0.34052 0.41015 0.09898
 C389 C 0.37945 0.39900 0.10270
 C390 C 0.38690 0.36756 0.12916
 H391 H 0.23840 0.35438 0.15718
 H392 H 0.21209 0.30672 0.20263
 H393 H 0.32674 0.26505 0.22501
 H394 H 0.28148 0.40052 0.11511
 H395 H 0.33284 0.43430 0.08097
 H396 H 0.41569 0.35762 0.13361
 C397 C 0.19309 0.17510 0.18174
 C398 C 0.15694 0.18964 0.18336
 C399 C 0.14841 0.22217 0.20457
 C400 C 0.17756 0.24064 0.22548
 C401 C 0.21624 0.22731 0.22684
 C402 C 0.22378 0.19385 0.20278
 O403 O 0.19416 0.14364 0.15871
 C404 C 0.15795 0.13873 0.14591
 C405 C 0.13443 0.16656 0.16026
 C406 C 0.09589 0.16824 0.15065
 C407 C 0.08046 0.14047 0.12522
 C408 C 0.10276 0.11048 0.10915
 C409 C 0.14262 0.10965 0.12031
 H410 H 0.11979 0.23355 0.20475
 H411 H 0.16907 0.26651 0.24014
 H412 H 0.25243 0.18298 0.20011
 H413 H 0.07799 0.19059 0.16234
 H414 H 0.05046 0.14227 0.11826
 H415 H 0.16110 0.08767 0.10887
 C416 C 0.19023 0.67399 0.69165
 C417 C 0.16422 0.69833 0.67518
 C418 C 0.16581 0.73735 0.68104
 C419 C 0.19504 0.75244 0.70461
 C420 C 0.22264 0.72936 0.72476
 C421 C 0.21987 0.68867 0.71705
 O422 O 0.18393 0.63775 0.67983
 C423 C 0.15325 0.63970 0.65578
 C424 C 0.14032 0.67633 0.65246
 C425 C 0.10884 0.68569 0.62958
 C426 C 0.08974 0.65666 0.60881
 C427 C 0.10194 0.61793 0.60942
 C428 C 0.13448 0.60956 0.63432
 H429 H 0.14559 0.75608 0.66683
 H430 H 0.19639 0.78313 0.70705
 H431 H 0.24068 0.66920 0.72899
 H432 H 0.09885 0.71477 0.62797
 H433 H 0.06468 0.66495 0.59254
 H434 H 0.14521 0.58081 0.63647
 C435 C 0.68940 0.17299 0.68253
 C436 C 0.65275 0.18126 0.69330
 C437 C 0.64460 0.20808 0.72217
 C438 C 0.67477 0.22818 0.74008
 C439 C 0.71401 0.22249 0.72977
 C440 C 0.72077 0.19224 0.70136
 O441 O 0.69031 0.14670 0.65350
 C442 C 0.65344 0.13836 0.64615
 C443 C 0.62954 0.15870 0.67018
 C444 C 0.59009 0.15459 0.66836
 C445 C 0.57427 0.12861 0.64109
 C446 C 0.59714 0.10677 0.61491
 C447 C 0.63788 0.11228 0.61759
 H448 H 0.61547 0.21379 0.73061
 H449 H 0.66647 0.24825 0.76249
 H450 H 0.74958 0.18531 0.69276
 H451 H 0.57178 0.17094 0.68760
 H452 H 0.54361 0.12593 0.64007
 H453 H 0.65677 0.09640 0.59857
 C454 C 0.69161 0.67891 0.18336
 C455 C 0.66508 0.70330 0.16810
 C456 C 0.66622 0.74218 0.17600
 C457 C 0.69484 0.75673 0.20120
 C458 C 0.72245 0.73314 0.22056
 C459 C 0.72095 0.69305 0.20917
 O460 O 0.68549 0.64278 0.17123
 C461 C 0.65428 0.64460 0.14807
 C462 C 0.64084 0.68115 0.14548
 C463 C 0.60835 0.68991 0.12378
 C464 C 0.58892 0.66048 0.10364
 C465 C 0.60156 0.62182 0.10387
 C466 C 0.63517 0.61415 0.12742
 H467 H 0.64539 0.76112 0.16310
 H468 H 0.69417 0.78694 0.20663
 H469 H 0.74179 0.67300 0.21994
 H470 H 0.59779 0.71881 0.12267
 H471 H 0.56322 0.66841 0.08829
 H472 H 0.64638 0.58557 0.12933
   
