data_POSCAR
  _audit_creation_date              2014-09-24
  _audit_creation_method            'ToBaCCo'
  _symmetry_space_group_name_H-M    'P1'
  _symmetry_Int_Tables_number       1
  _symmetry_cell_setting            triclinic
  loop_
  _symmetry_equiv_pos_as_xyz
 x,y,z
_cell_length_a 27.7696
_cell_length_b 27.8307
_cell_length_c 66.6383
_cell_angle_alpha 84.660100
_cell_angle_beta 92.693000
_cell_angle_gamma 120.112600
loop_
  _atom_site_label
  _atom_site_type_symbol
  _atom_site_fract_x
  _atom_site_fract_y
  _atom_site_fract_z
C1 C 0.00742 0.10537 0.52531
 H2 H 0.04668 0.10626 0.52452
 C3 C 0.00247 0.14088 0.53739
 H4 H 0.03797 0.16914 0.54603
 C5 C -0.08669 0.06773 0.51482
 H6 H -0.12100 0.03949 0.50582
 C7 C -0.09345 0.10274 0.52679
 H8 H -0.13315 0.10122 0.52712
 N9 N -0.03685 0.06949 0.51446
 C10 C -0.00133 -0.06295 0.50612
 H11 H 0.00133 -0.06034 0.48988
 C12 C 0.00071 -0.10634 0.51779
 H13 H 0.00552 -0.13696 0.51055
 C14 C -0.01436 -0.02841 0.53541
 H15 H -0.02219 0.00073 0.54221
 C16 C -0.01245 -0.07099 0.54760
 H17 H -0.01801 -0.07391 0.56374
 Zn18 Zn -0.02247 0.02568 0.49839
 N19 N -0.00919 -0.02536 0.51505
 C20 C 0.08768 0.07341 0.48232
 N21 N 0.04003 0.07604 0.48238
 C22 C 0.03549 0.11728 0.47138
 C23 C 0.07961 0.15762 0.45943
 C24 C 0.13299 0.11312 0.47050
 C25 C -0.13110 -0.05914 0.49058
 C26 C -0.17357 -0.09807 0.47892
 C27 C -0.11787 -0.04937 0.44915
 C28 C -0.07650 -0.01158 0.46135
 N29 N -0.08346 -0.01745 0.48169
 H30 H 0.09071 0.04086 0.49146
 H31 H -0.00265 0.11869 0.47195
 H32 H 0.07545 0.19015 0.45066
 H33 H 0.17082 0.11088 0.47042
 H34 H -0.13498 -0.06360 0.50682
 H35 H -0.21049 -0.13223 0.48624
 H36 H -0.11091 -0.04521 0.43304
 H37 H -0.03784 0.02073 0.45460
 C38 C -0.00563 -0.11072 0.53870
 C39 C -0.04834 0.13958 0.53817
 C40 C -0.16643 -0.09365 0.45803
 C41 C 0.12875 0.15553 0.45896
 C42 C 1.14179 0.06120 0.13981
 H43 H 1.14335 0.10077 0.14006
 C44 C 1.17924 0.05692 0.12794
 H45 H 1.20968 0.09323 0.11893
 C46 C 1.10035 -0.03444 0.15139
 H47 H 1.06983 -0.06967 0.16071
 C48 C 1.13719 -0.04056 0.13967
 H49 H 1.13477 -0.08067 0.13984
 N50 N 1.10307 0.01585 0.15107
 C51 C 0.96885 0.05068 0.15828
 H52 H 0.96801 0.05088 0.17449
 C53 C 0.92721 0.05338 0.14645
 H54 H 0.89450 0.05626 0.15351
 C55 C 1.01004 0.04255 0.12933
 H56 H 1.04100 0.03616 0.12277
 C57 C 0.96934 0.04525 0.11698
 H58 H 0.96965 0.04170 0.10094
 Zn59 Zn 1.05607 0.02851 0.16669
 N60 N 1.00877 0.04468 0.14962
 C61 C 1.10050 0.13581 0.18199
 N62 N 1.10318 0.08823 0.18229
 C63 C 1.14192 0.08161 0.19354
 C64 C 1.17941 0.12336 0.20542
 C65 C 1.13739 0.17879 0.19372
 C66 C 0.96881 -0.08094 0.17512
 C67 C 0.92720 -0.12529 0.18697
 C68 C 0.96950 -0.07491 0.21643
 C69 C 1.01016 -0.03151 0.20406
 N70 N 1.00879 -0.03497 0.18377
 H71 H 1.06996 0.14051 0.17268
 H72 H 1.14344 0.04358 0.19328
 H73 H 1.20986 0.11749 0.21442
 H74 H 1.13500 0.21649 0.19356
 H75 H 0.96789 -0.08203 0.15892
 H76 H 0.89444 -0.16092 0.17992
 H77 H 0.96989 -0.07102 0.23247
 H78 H 1.04117 0.00587 0.21062
 C79 C 0.92704 0.04974 0.12565
 C80 C 1.17688 0.00561 0.12782
 C81 C 0.92714 -0.12176 0.20777
 C82 C 1.17709 0.17231 0.20556
 C83 C 0.03511 0.91741 0.86182
 H84 H -0.00301 0.87781 0.86122
 C85 C 0.07918 0.92125 0.87382
 H86 H 0.07502 0.88456 0.88258
 C87 C 0.08727 1.01354 0.85092
 H88 H 0.09031 1.04913 0.84178
 C89 C 0.13255 1.01922 0.86278
 H90 H 0.17035 1.05934 0.86289
 N91 N 0.03965 0.96320 0.85082
 C92 C -0.13147 0.92704 0.84252
 H93 H -0.13530 0.92766 0.82627
 C94 C -0.17395 0.92345 0.85415
 H95 H -0.21086 0.92070 0.84685
 C96 C -0.07694 0.93411 0.87178
 H97 H -0.03831 0.94049 0.87855
 C98 C -0.11835 0.93047 0.88395
 H99 H -0.11154 0.93328 0.90005
 Zn100 Zn -0.02281 0.95098 0.83477
 N101 N -0.08385 0.93303 0.85143
 C102 C -0.08697 0.84467 0.81830
 N103 N -0.03712 0.89280 0.81869
 C104 C 0.00717 0.90124 0.80788
 C105 C 0.00226 0.86079 0.79579
 C106 C -0.09369 0.80290 0.80633
 C107 C -0.00170 1.06076 0.82704
 C108 C 0.00036 1.10620 0.81538
 C109 C -0.01265 1.05774 0.78556
 C110 C -0.01458 1.01324 0.79775
 N111 N -0.00950 1.01533 0.81811
 H112 H -0.12131 0.83855 0.82728
 H113 H 0.04644 0.93965 0.80869
 H114 H 0.03779 0.86807 0.78718
 H115 H -0.13340 0.76468 0.80598
 H116 H 0.00090 1.06079 0.84329
 H117 H 0.00512 1.14161 0.82262
 H118 H -0.01815 1.05512 0.76941
 H119 H -0.02236 0.97627 0.79095
 C120 C -0.16684 0.92615 0.87504
 C121 C 0.12829 0.97256 0.87432
 C122 C -0.00590 1.10426 0.79447
 C123 C -0.04855 0.81123 0.79498
 O124 O 0.54874 -0.05132 0.02255
 O125 O 0.44346 -0.06292 -0.01571
 O126 O 0.53586 -0.06613 -0.01577
 O127 O 0.45347 -0.05401 0.02288
 O128 O 0.49846 0.03762 0.01662
 O129 O 0.58179 0.02544 -0.02215
 O130 O 0.48950 0.02870 -0.02198
 O131 O 0.59374 0.04025 0.01616
 Cu132 Cu 0.49087 -0.06781 0.00411
 Cu133 Cu 0.54552 0.04221 -0.00347
 C134 C 0.58914 -0.00336 0.02574
 C135 C 0.44865 -0.01879 -0.02518
 C136 C 0.57284 -0.02261 -0.02543
 C137 C 0.46154 -0.00641 0.02618
 O138 O 0.00151 0.45748 0.64706
 O139 O 0.00149 0.54333 0.68610
 O140 O 0.00452 0.45113 0.68620
 O141 O 0.00456 0.55273 0.64697
 O142 O -0.08750 0.50725 0.64686
 O143 O -0.08755 0.40446 0.68626
 O144 O -0.09057 0.49684 0.68605
 O145 O -0.09055 0.41183 0.64707
 Cu146 Cu 0.01226 0.50580 0.66659
 Cu147 Cu -0.09832 0.45046 0.66656
 C148 C -0.04471 0.41991 0.64057
 C149 C -0.04474 0.53464 0.69257
 C150 C -0.04124 0.41049 0.69278
 C151 C -0.04118 0.54757 0.64037
 O152 O 0.54933 0.60095 0.31105
 O153 O 0.44416 0.50713 0.34931
 O154 O 0.53663 0.60280 0.34938
 O155 O 0.45401 0.50833 0.31070
 O156 O 0.49894 0.46167 0.31690
 O157 O 0.58250 0.55712 0.35570
 O158 O 0.49013 0.46151 0.35551
 O159 O 0.59427 0.55434 0.31737
 Cu160 Cu 0.49153 0.55951 0.32949
 Cu161 Cu 0.54610 0.50409 0.33700
 C162 C 0.58968 0.59338 0.30782
 C163 C 0.44933 0.46814 0.35874
 C164 C 0.57363 0.59624 0.35901
 C165 C 0.46202 0.46880 0.30737
 C166 C -0.05311 0.24668 0.57540
 C167 C -0.00306 0.30582 0.57189
 C168 C -0.00104 0.34201 0.58479
 C169 C -0.04926 0.31554 0.59994
 C170 C -0.04723 0.26522 0.61055
 C171 C -0.04925 0.22906 0.59766
 C172 C -0.10432 0.25417 0.57409
 C173 C -0.10230 0.29040 0.58701
 C174 C -0.05444 0.20777 0.56167
 C175 C -0.05320 0.17623 0.55075
 C176 C -0.04697 0.35417 0.61400
 C177 C -0.04545 0.38490 0.62594
 H178 H 0.02803 0.31820 0.56026
 H179 H 0.03176 0.38536 0.58422
 H180 H -0.04448 0.25855 0.62678
 H181 H -0.04825 0.19141 0.60285
 H182 H -0.13904 0.23294 0.56393
 H183 H -0.13531 0.30023 0.58791
 C184 C 0.79651 0.76497 0.24408
 C185 C 0.80751 0.77887 0.26617
 C186 C 0.76441 0.74388 0.27872
 C187 C 0.71444 0.69834 0.26798
 C188 C 0.73836 0.66874 0.25702
 C189 C 0.78153 0.70380 0.24444
 C190 C 0.74208 0.76481 0.23861
 C191 C 0.69892 0.72977 0.25118
 C192 C 0.84313 0.80332 0.23072
 C193 C 0.88153 0.83647 0.22008
 C194 C 0.66842 0.66082 0.28170
 C195 C 0.63172 0.63011 0.29340
 H196 H 0.84584 0.81321 0.27149
 H197 H 0.76582 0.74826 0.29479
 H198 H 0.72272 0.62417 0.25894
 H199 H 0.80288 0.68929 0.23560
 H200 H 0.73780 0.78995 0.22596
 H201 H 0.65770 0.72489 0.24930
 C202 C 0.25371 -0.02205 -0.08897
 C203 C 0.31255 0.02658 -0.09381
 C204 C 0.35235 0.02612 -0.08114
 C205 C 0.32936 -0.02293 -0.06488
 C206 C 0.29804 -0.07523 -0.07653
 C207 C 0.25826 -0.07477 -0.08920
 C208 C 0.24414 -0.01858 -0.06679
 C209 C 0.28389 -0.01904 -0.05413
 C210 C 0.21044 -0.02198 -0.10245
 C211 C 0.17370 -0.02340 -0.11322
 C212 C 0.37202 -0.02313 -0.05109
 C213 C 0.40698 -0.02208 -0.03943
 H214 H 0.32213 0.05851 -0.10609
 H215 H 0.39605 0.05767 -0.08257
 H216 H 0.30640 -0.10955 -0.07498
 H217 H 0.23253 -0.10873 -0.09851
 H218 H 0.20922 -0.01597 -0.06148
 H219 H 0.28298 -0.01684 -0.03798
 C220 C -0.01925 0.75579 0.57529
 C221 C 0.03135 0.74741 0.57571
 C222 C 0.02533 0.70361 0.58853
 C223 C -0.03072 0.67251 0.59967
 C224 C -0.07496 0.65570 0.58299
 C225 C -0.06894 0.69952 0.57016
 C226 C -0.02835 0.76116 0.59732
 C227 C -0.03437 0.71742 0.61012
 C228 C -0.01297 0.80319 0.56170
 C229 C -0.00879 0.84245 0.55098
 C230 C -0.03667 0.62595 0.61368
 C231 C -0.03991 0.58918 0.62564
 H232 H 0.06858 0.77348 0.56672
 H233 H 0.05743 0.69218 0.59051
 H234 H -0.10803 0.61320 0.58138
 H235 H -0.09686 0.69454 0.55756
 H236 H -0.02995 0.79626 0.60243
 H237 H -0.04114 0.71507 0.62619
 C238 C 0.28752 0.28951 0.24257
 C239 C 0.34759 0.30215 0.24008
 C240 C 0.38442 0.33892 0.25294
 C241 C 0.35756 0.35941 0.26703
 C242 C 0.31054 0.30627 0.27775
 C243 C 0.27376 0.26955 0.26490
 C244 C 0.29107 0.34657 0.24011
 C245 C 0.32790 0.38334 0.25298
 C246 C 0.24780 0.24941 0.22890
 C247 C 0.21530 0.21508 0.21804
 C248 C 0.39669 0.39873 0.28104
 C249 C 0.42746 0.43078 0.29289
 H250 H 0.36009 0.28388 0.22915
 H251 H 0.42845 0.35214 0.25305
 H252 H 0.30650 0.29817 0.29401
 H253 H 0.23820 0.23003 0.27016
 H254 H 0.26685 0.35718 0.22923
 H255 H 0.33524 0.42548 0.25311
 C256 C 0.72907 -0.05782 -0.08956
 C257 C 0.66876 -0.10617 -0.08803
 C258 C 0.63654 -0.09820 -0.07542
 C259 C 0.66784 -0.04267 -0.06558
 C260 C 0.69225 0.00220 -0.08324
 C261 C 0.72445 -0.00577 -0.09585
 C262 C 0.75040 -0.05076 -0.06776
 C263 C 0.71825 -0.04281 -0.05517
 C264 C 0.76453 -0.06583 -0.10292
 C265 C 0.79568 -0.07069 -0.11348
 C266 C 0.63354 -0.03424 -0.05180
 C267 C 0.60576 -0.02818 -0.04000
 H268 H 0.65276 -0.14330 -0.09615
 H269 H 0.59291 -0.12854 -0.07273
 H270 H 0.68484 0.03708 -0.08565
 H271 H 0.74462 0.02231 -0.10906
 H272 H 0.78753 -0.05194 -0.06265
 H273 H 0.72786 -0.03715 -0.03929
 C274 C 0.28722 -0.00127 0.09087
 C275 C 0.26831 -0.00527 0.06878
 C276 C 0.30507 -0.00526 0.05595
 C277 C 0.35721 -0.00125 0.06646
 C278 C 0.33504 -0.04992 0.08286
 C279 C 0.29822 -0.04993 0.09570
 C280 C 0.34495 0.05139 0.09077
 C281 C 0.38175 0.05140 0.07794
 C282 C 0.24753 -0.00084 0.10451
 C283 C 0.21505 0.00102 0.11535
 C284 C 0.39631 -0.00151 0.05247
 C285 C 0.42704 -0.00286 0.04063
 H286 H 0.22942 -0.00790 0.06365
 H287 H 0.29766 -0.00786 0.03984
 H288 H 0.34723 -0.08154 0.08427
 H289 H 0.27887 -0.08154 0.10811
 H290 H 0.35596 0.08564 0.10000
 H291 H 0.42426 0.08562 0.07616
 C292 C 0.73061 0.78781 0.42309
 C293 C 0.75020 0.80322 0.40108
 C294 C 0.71788 0.76309 0.38851
 C295 C 0.66906 0.71137 0.39915
 C296 C 0.63729 0.73373 0.40979
 C297 C 0.66968 0.77394 0.42239
 C298 C 0.72813 0.73184 0.42879
 C299 C 0.69576 0.69165 0.41620
 C300 C 0.76626 0.83131 0.43644
 C301 C 0.79758 0.86734 0.44699
 C302 C 0.63458 0.66861 0.38537
 C303 C 0.60668 0.63475 0.37358
 H304 H 0.78632 0.84230 0.39583
 H305 H 0.72634 0.76780 0.37249
 H306 H 0.59324 0.71920 0.40764
 H307 H 0.65340 0.79387 0.43103
 H308 H 0.74981 0.72442 0.44161
 H309 H 0.68972 0.64982 0.41822
 C310 C -0.01945 0.22415 0.75786
 C311 C 0.02847 0.28422 0.75905
 C312 C 0.02248 0.32200 0.74623
 C313 C -0.03086 0.29599 0.73348
 C314 C -0.07842 0.26418 0.74880
 C315 C -0.07242 0.22639 0.76163
 C316 C -0.02255 0.21297 0.73558
 C317 C -0.02854 0.25069 0.72278
 C318 C -0.01319 0.18302 0.77145
 C319 C -0.00904 0.14794 0.78218
 C320 C -0.03680 0.33660 0.71947
 C321 C -0.04001 0.37014 0.70750
 H322 H 0.06393 0.29605 0.76908
 H323 H 0.05282 0.36623 0.74528
 H324 H -0.11363 0.27079 0.74953
 H325 H -0.10251 0.20061 0.77335
 H326 H -0.02024 0.17840 0.73032
 H327 H -0.03139 0.24842 0.70656
 C328 C 0.79626 0.03222 0.08940
 C329 C 0.76406 0.06002 0.09559
 C330 C 0.72081 0.05184 0.08303
 C331 C 0.71407 0.01667 0.06554
 C332 C 0.70893 -0.03758 0.07560
 C333 C 0.75213 -0.02942 0.08814
 C334 C 0.81409 0.05499 0.06752
 C335 C 0.77092 0.04683 0.05499
 C336 C 0.84294 0.04054 0.10274
 C337 C 0.88139 0.04585 0.11336
 C338 C 0.66798 0.00809 0.05184
 C339 C 0.63123 0.00205 0.04016
 H340 H 0.77428 0.08396 0.10866
 H341 H 0.69397 0.06878 0.08536
 H342 H 0.67439 -0.07877 0.07311
 H343 H 0.75457 -0.06365 0.09640
 H344 H 0.85690 0.07577 0.06232
 H345 H 0.77677 0.06061 0.03905
 C346 C 0.25428 0.27591 0.42238
 C347 C 0.31312 0.28617 0.42724
 C348 C 0.35295 0.32655 0.41460
 C349 C 0.32999 0.35268 0.39837
 C350 C 0.29865 0.37355 0.41003
 C351 C 0.25883 0.33318 0.42266
 C352 C 0.24478 0.26302 0.40018
 C353 C 0.28455 0.30334 0.38756
 C354 C 0.21098 0.23245 0.43582
 C355 C 0.17421 0.19702 0.44655
 C356 C 0.37268 0.39566 0.38461
 C357 C 0.40766 0.42967 0.37297
 H358 H 0.32266 0.26375 0.43951
 H359 H 0.39664 0.33873 0.41606
 H360 H 0.30701 0.41623 0.40852
 H361 H 0.23307 0.34131 0.43198
 H362 H 0.20986 0.22548 0.39483
 H363 H 0.28368 0.30034 0.37141
 C364 C -0.05324 0.69939 0.75775
 C365 C -0.10056 0.63872 0.76090
 C366 C -0.09852 0.60452 0.74799
 C367 C -0.04934 0.63443 0.73321
 C368 C 0.00256 0.66216 0.74655
 C369 C 0.00051 0.69631 0.75945
 C370 C -0.05693 0.71689 0.73546
 C371 C -0.05488 0.68276 0.72257
 C372 C -0.05460 0.73696 0.77148
 C373 C -0.05337 0.76973 0.78240
 C374 C -0.04703 0.59810 0.71914
 C375 C -0.04549 0.56890 0.70721
 H376 H -0.13278 0.62393 0.77226
 H377 H -0.12899 0.56041 0.74828
 H378 H 0.03777 0.65552 0.74594
 H379 H 0.03400 0.71892 0.76989
 H380 H -0.06088 0.75290 0.73026
 H381 H -0.05705 0.68957 0.70632
   
