data_POSCAR
  _audit_creation_date              2014-09-24
  _audit_creation_method            'ToBaCCo'
  _symmetry_space_group_name_H-M    'P1'
  _symmetry_Int_Tables_number       1
  _symmetry_cell_setting            triclinic
  loop_
  _symmetry_equiv_pos_as_xyz
 x,y,z
_cell_length_a 25.4565
_cell_length_b 37.3128
_cell_length_c 32.6325
_cell_angle_alpha 90.096000
_cell_angle_beta 89.993400
_cell_angle_gamma 89.914800
loop_
  _atom_site_label
  _atom_site_type_symbol
  _atom_site_fract_x
  _atom_site_fract_y
  _atom_site_fract_z
O1 O 0.25603 0.28438 0.19661
 O2 O 0.31542 0.21322 0.25962
 O3 O 0.25548 0.21434 0.19512
 O4 O 0.31611 0.28279 0.26122
 O5 O 0.24606 0.28248 0.30098
 O6 O 0.18480 0.21482 0.23411
 O7 O 0.24483 0.21253 0.29881
 O8 O 0.18574 0.28390 0.23622
 Cu9 Cu 0.29277 0.24874 0.22414
 Cu10 Cu 0.20843 0.24843 0.27162
 C11 C 0.21052 0.29609 0.20549
 C12 C 0.29027 0.20067 0.28998
 C13 C 0.20952 0.20298 0.20304
 C14 C 0.29162 0.29423 0.29254
 O15 O 0.68756 0.28682 0.26301
 O16 O 0.74530 0.21516 0.19950
 O17 O 0.68469 0.21728 0.26426
 O18 O 0.74732 0.28513 0.19882
 O19 O 0.81683 0.28489 0.23904
 O20 O 0.75574 0.21510 0.30292
 O21 O 0.81601 0.21522 0.23854
 O22 O 0.75654 0.28472 0.30392
 Cu23 Cu 0.70925 0.25106 0.22734
 Cu24 Cu 0.79333 0.24993 0.27506
 C25 C 0.71199 0.29774 0.29457
 C26 C 0.79077 0.20315 0.20793
 C27 C 0.70943 0.20462 0.29480
 C28 C 0.79268 0.29695 0.20784
 O29 O 0.75669 0.78450 0.69595
 O30 O 0.81569 0.71518 0.76158
 O31 O 0.75542 0.71488 0.69717
 O32 O 0.81703 0.78483 0.76076
 O33 O 0.74755 0.78549 0.80104
 O34 O 0.68440 0.71750 0.73585
 O35 O 0.74498 0.71555 0.80063
 O36 O 0.68775 0.78705 0.73690
 Cu37 Cu 0.79325 0.74974 0.72491
 Cu38 Cu 0.70920 0.75140 0.77266
 C39 C 0.71225 0.79773 0.70530
 C40 C 0.79039 0.70337 0.79225
 C41 C 0.70904 0.70460 0.70534
 C42 C 0.79298 0.79712 0.79195
 O43 O 0.31673 0.78368 0.73869
 O44 O 0.25531 0.71606 0.80523
 O45 O 0.31525 0.71414 0.74066
 O46 O 0.25676 0.78607 0.80328
 O47 O 0.18635 0.78552 0.76400
 O48 O 0.24479 0.71373 0.70134
 O49 O 0.18473 0.71639 0.76595
 O50 O 0.24652 0.78365 0.69911
 Cu51 Cu 0.29302 0.75002 0.77596
 Cu52 Cu 0.20866 0.74985 0.72852
 C53 C 0.29226 0.79516 0.70743
 C54 C 0.20938 0.70482 0.79708
 C55 C 0.29004 0.70164 0.71025
 C56 C 0.21126 0.79798 0.79461
 C57 C 1.02732 0.02600 0.02223
 C58 C 0.97166 0.02467 0.02333
 C59 C 0.94497 0.00060 -0.00225
 C60 C 0.97240 -0.02288 -0.02813
 C61 C 1.02806 -0.02290 -0.02783
 C62 C 1.05473 0.00190 -0.00307
 H63 H 1.09730 0.00238 -0.00338
 H64 H 0.90238 0.00005 -0.00192
 C65 C 0.52519 0.52502 0.52463
 C66 C 0.46971 0.52210 0.52691
 C67 C 0.44358 0.49716 0.50200
 C68 C 0.47157 0.47460 0.47543
 C69 C 0.52693 0.47676 0.47410
 C70 C 0.55310 0.50207 0.49834
 H71 H 0.59556 0.50382 0.49675
 H72 H 0.40111 0.49528 0.50333
 C73 C -0.02930 0.47707 0.02786
 C74 C 0.02636 0.47686 0.02738
 C75 C 0.05310 0.50170 0.00281
 C76 C 0.02572 0.52600 -0.02214
 C77 C -0.02993 0.52482 -0.02316
 C78 C -0.05670 0.50072 0.00225
 H79 H -0.09929 0.50030 0.00202
 H80 H 0.09568 0.50205 0.00301
 C81 C 0.47303 0.97464 0.52453
 C82 C 0.52839 0.97679 0.52582
 C83 C 0.55453 1.00211 0.50167
 C84 C 0.52660 1.02505 0.47547
 C85 C 0.47112 1.02210 0.47319
 C86 C 0.44501 0.99717 0.49803
 H87 H 0.40254 0.99527 0.49671
 H88 H 0.59700 1.00387 0.50324
 C89 C 1.13707 0.12750 0.12459
 C90 C 1.19011 0.13626 0.11925
 C91 C 1.21411 0.16137 0.14500
 C92 C 1.18573 0.17752 0.17726
 C93 C 1.13265 0.16791 0.18283
 C94 C 1.10847 0.14351 0.15640
 C95 C 1.11116 0.10191 0.09680
 C96 C 1.07003 0.11341 0.07149
 C97 C 1.04410 0.08902 0.04612
 C98 C 1.05759 0.05247 0.04679
 C99 C 1.09964 0.04119 0.07157
 C100 C 1.12648 0.06581 0.09619
 H101 H 1.25500 0.16789 0.13972
 H102 H 1.10933 0.17970 0.20714
 H103 H 1.01292 0.09860 0.02640
 H104 H 1.11090 0.01320 0.07254
 H105 H 1.06745 0.13689 0.16092
 H106 H 1.05812 0.14130 0.07134
 H107 H 1.21265 0.12410 0.09473
 H108 H 1.15823 0.05656 0.11560
 C109 C 0.63372 0.62772 0.62675
 C110 C 0.68870 0.63050 0.62744
 C111 C 0.71325 0.65553 0.65295
 C112 C 0.68327 0.67773 0.67880
 C113 C 0.62828 0.67450 0.67853
 C114 C 0.60372 0.64994 0.65248
 C115 C 0.60754 0.60175 0.59926
 C116 C 0.56598 0.61280 0.57398
 C117 C 0.54036 0.58816 0.54872
 C118 C 0.55480 0.55180 0.54919
 C119 C 0.59712 0.54090 0.57383
 C120 C 0.62346 0.56571 0.59851
 H121 H 0.75570 0.65740 0.65261
 H122 H 0.60418 0.69135 0.69800
 H123 H 0.50878 0.59739 0.52917
 H124 H 0.60902 0.51303 0.57463
 H125 H 0.56126 0.64804 0.65266
 H126 H 0.55358 0.64058 0.57362
 H127 H 0.71256 0.61371 0.60772
 H128 H 0.65536 0.55660 0.61784
 C129 C -0.13650 0.37624 0.13312
 C130 C -0.18786 0.36438 0.12515
 C131 C -0.21116 0.33819 0.14970
 C132 C -0.18387 0.32336 0.18321
 C133 C -0.13258 0.33554 0.19137
 C134 C -0.10915 0.36148 0.16652
 C135 C -0.11121 0.40347 0.10635
 C136 C -0.07746 0.42952 0.12305
 C137 C -0.05190 0.45404 0.09765
 C138 C -0.05963 0.45306 0.05510
 C139 C -0.09449 0.42793 0.03841
 C140 C -0.11980 0.40321 0.06373
 H141 H -0.25080 0.32979 0.14243
 H142 H -0.11006 0.32477 0.21669
 H143 H -0.02547 0.47351 0.11109
 H144 H -0.10067 0.42666 0.00559
 H145 H -0.06918 0.36950 0.17311
 H146 H -0.07076 0.43097 0.15576
 H147 H -0.21038 0.37557 0.10010
 H148 H -0.14491 0.38325 0.04976
 C149 C 0.36612 0.87303 0.62899
 C150 C 0.31461 0.86140 0.62106
 C151 C 0.29053 0.83616 0.64652
 C152 C 0.31746 0.82202 0.68047
 C153 C 0.36898 0.83362 0.68833
 C154 C 0.39303 0.85878 0.66288
 C155 C 0.39190 0.89986 0.60210
 C156 C 0.42359 0.92690 0.61912
 C157 C 0.44916 0.95150 0.59391
 C158 C 0.44384 0.94950 0.55119
 C159 C 0.41135 0.92311 0.53406
 C160 C 0.38568 0.89843 0.55928
 H161 H 0.25076 0.82783 0.63966
 H162 H 0.39094 0.82313 0.71409
 H163 H 0.47329 0.97212 0.60773
 H164 H 0.40683 0.92116 0.50113
 H165 H 0.43305 0.86674 0.66944
 H166 H 0.42834 0.92918 0.65199
 H167 H 0.29264 0.87216 0.59547
 H168 H 0.36196 0.87773 0.54522
 C169 C -0.13897 0.62295 -0.13069
 C170 C -0.11013 0.63905 -0.16244
 C171 C -0.13324 0.66487 -0.18761
 C172 C -0.18568 0.67541 -0.18151
 C173 C -0.21465 0.65930 -0.14985
 C174 C -0.19158 0.63330 -0.12477
 C175 C -0.11375 0.59608 -0.10343
 C176 C -0.12406 0.59601 -0.06106
 C177 C -0.09801 0.57207 -0.03514
 C178 C -0.06087 0.54797 -0.05104
 C179 C -0.05174 0.54712 -0.09343
 C180 C -0.07786 0.57096 -0.11937
 H181 H -0.10972 0.67691 -0.21156
 H182 H -0.25521 0.66673 -0.14447
 H183 H -0.10544 0.57316 -0.00248
 H184 H -0.02369 0.52838 -0.10631
 H185 H -0.21507 0.62111 -0.10092
 H186 H -0.15101 0.61524 -0.04773
 H187 H -0.06926 0.63221 -0.16737
 H188 H -0.06981 0.56980 -0.15192
 C189 C 0.36107 1.11916 0.36530
 C190 C 0.39015 1.13609 0.33425
 C191 C 0.36699 1.16224 0.30953
 C192 C 0.31429 1.17224 0.31545
 C193 C 0.28506 1.15517 0.34627
 C194 C 0.30815 1.12885 0.37085
 C195 C 0.38640 1.09228 0.39246
 C196 C 0.37520 1.09172 0.43469
 C197 C 0.40145 1.06797 0.46067
 C198 C 0.43967 1.04458 0.44500
 C199 C 0.44966 1.04414 0.40273
 C200 C 0.42333 1.06779 0.37669
 H201 H 0.39066 1.17501 0.28619
 H202 H 0.24427 1.16212 0.35144
 H203 H 0.39340 1.06875 0.49325
 H204 H 0.47865 1.02595 0.39006
 H205 H 0.28447 1.11598 0.39411
 H206 H 0.34747 1.11048 0.44790
 H207 H 0.43125 1.12972 0.32963
 H208 H 0.43212 1.06706 0.34424
 C209 C 1.13982 -0.12389 -0.12965
 C210 C 1.11145 -0.13982 -0.16159
 C211 C 1.13542 -0.16497 -0.18724
 C212 C 1.18805 -0.17539 -0.18079
 C213 C 1.21634 -0.15908 -0.14862
 C214 C 1.19253 -0.13329 -0.12358
 C215 C 1.11367 -0.09826 -0.10205
 C216 C 1.12692 -0.06182 -0.10284
 C217 C 1.09957 -0.03731 -0.07830
 C218 C 1.05907 -0.04906 -0.05232
 C219 C 1.04772 -0.08588 -0.05030
 C220 C 1.07418 -0.11019 -0.07549
 H221 H 1.11218 -0.17681 -0.21154
 H222 H 1.25690 -0.16618 -0.14270
 H223 H 1.10918 -0.00910 -0.08025
 H224 H 1.01779 -0.09576 -0.02966
 H225 H 1.21484 -0.12120 -0.09892
 H226 H 1.15742 -0.05228 -0.12322
 H227 H 1.07065 -0.13275 -0.16660
 H228 H 1.06389 -0.13833 -0.07429
 C229 C 0.63975 0.37702 0.37176
 C230 C 0.67817 0.35387 0.38760
 C231 C 0.70254 0.32860 0.36226
 C232 C 0.68803 0.32555 0.32086
 C233 C 0.64957 0.34878 0.30506
 C234 C 0.62602 0.37455 0.33021
 C235 C 0.61283 0.40299 0.39878
 C236 C 0.61020 0.43941 0.38816
 C237 C 0.58357 0.46372 0.41336
 C238 C 0.55820 0.45171 0.44891
 C239 C 0.56096 0.41540 0.45965
 C240 C 0.58850 0.39124 0.43494
 H241 H 0.73191 0.31093 0.37525
 H242 H 0.63778 0.34706 0.27322
 H243 H 0.58153 0.49169 0.40468
 H244 H 0.54139 0.40579 0.48698
 H245 H 0.59619 0.39203 0.31749
 H246 H 0.62886 0.44897 0.36043
 H247 H 0.68935 0.35544 0.41958
 H248 H 0.58976 0.36321 0.44349
 C249 C 0.86448 -0.12354 -0.13352
 C250 C 0.81307 -0.13524 -0.12544
 C251 C 0.78953 -0.16142 -0.14995
 C252 C 0.81663 -0.17642 -0.18351
 C253 C 0.86796 -0.16438 -0.19180
 C254 C 0.89161 -0.13843 -0.16701
 C255 C 0.89005 -0.09639 -0.10672
 C256 C 0.92380 -0.07039 -0.12341
 C257 C 0.94955 -0.04591 -0.09799
 C258 C 0.94203 -0.04691 -0.05542
 C259 C 0.90721 -0.07202 -0.03873
 C260 C 0.88169 -0.09668 -0.06408
 H261 H 0.74988 -0.16970 -0.14259
 H262 H 0.89033 -0.17527 -0.21718
 H263 H 0.97595 -0.02645 -0.11143
 H264 H 0.90118 -0.07330 -0.00590
 H265 H 0.93160 -0.13051 -0.17369
 H266 H 0.93033 -0.06894 -0.15615
 H267 H 0.79071 -0.12393 -0.10032
 H268 H 0.85659 -0.11661 -0.05012
 C269 C 0.36493 0.37264 0.37087
 C270 C 0.31354 0.36082 0.37888
 C271 C 0.28963 0.33542 0.35344
 C272 C 0.31660 0.32131 0.31944
 C273 C 0.36799 0.33313 0.31148
 C274 C 0.39188 0.35845 0.33692
 C275 C 0.39058 0.39960 0.39778
 C276 C 0.42208 0.42670 0.38078
 C277 C 0.44760 0.45139 0.40602
 C278 C 0.44238 0.44941 0.44874
 C279 C 0.41005 0.42298 0.46586
 C280 C 0.38444 0.39821 0.44061
 H281 H 0.24996 0.32693 0.36036
 H282 H 0.38999 0.32266 0.28569
 H283 H 0.47162 0.47204 0.39222
 H284 H 0.40561 0.42105 0.49879
 H285 H 0.43182 0.36655 0.33030
 H286 H 0.42676 0.42895 0.34791
 H287 H 0.29154 0.37155 0.40452
 H288 H 0.36086 0.37746 0.45465
 C289 C 0.13528 0.62843 -0.12341
 C290 C 0.10492 0.65059 -0.14883
 C291 C 0.12911 0.67507 -0.17507
 C292 C 0.18409 0.67831 -0.17579
 C293 C 0.21445 0.65626 -0.15014
 C294 C 0.19024 0.63124 -0.12447
 C295 C 0.10937 0.60250 -0.09588
 C296 C 0.12404 0.56621 -0.09629
 C297 C 0.09735 0.54141 -0.07190
 C298 C 0.05599 0.55259 -0.04638
 C299 C 0.04302 0.58919 -0.04467
 C300 C 0.06891 0.61382 -0.06966
 H301 H 0.10476 0.69182 -0.19440
 H302 H 0.25690 0.65814 -0.15019
 H303 H 0.10814 0.51336 -0.07366
 H304 H 0.01229 0.59863 -0.02440
 H305 H 0.21433 0.61445 -0.10498
 H306 H 0.15511 0.55694 -0.11638
 H307 H 0.06246 0.64867 -0.14867
 H308 H 0.05750 0.64178 -0.06846
 C309 C 0.63468 1.12781 0.37353
 C310 C 0.60451 1.14987 0.34784
 C311 C 0.62889 1.17441 0.32175
 C312 C 0.68386 1.17779 0.32141
 C313 C 0.71401 1.15576 0.34723
 C314 C 0.68964 1.13074 0.37278
 C315 C 0.60869 1.10184 0.40102
 C316 C 0.62474 1.06582 0.40168
 C317 C 0.59851 1.04099 0.42632
 C318 C 0.55616 1.05185 0.45101
 C319 C 0.54162 1.08819 0.45159
 C320 C 0.56713 1.11285 0.42638
 H321 H 0.60466 1.19114 0.30230
 H322 H 0.75645 1.15774 0.34753
 H323 H 0.61049 1.01314 0.42543
 H324 H 0.51002 1.09740 0.47119
 H325 H 0.71363 1.11406 0.39247
 H326 H 0.65665 1.05674 0.38230
 H327 H 0.56206 1.14786 0.34770
 H328 H 0.55463 1.14061 0.42681
 C329 C 0.13715 0.37463 0.12823
 C330 C 0.19210 0.37170 0.12940
 C331 C 0.21616 0.34612 0.15450
 C332 C 0.18562 0.32367 0.17950
 C333 C 0.13067 0.32721 0.17887
 C334 C 0.10666 0.35221 0.15317
 C335 C 0.11127 0.40063 0.10074
 C336 C 0.07191 0.38910 0.07371
 C337 C 0.04573 0.41369 0.04883
 C338 C 0.05723 0.45044 0.05147
 C339 C 0.09764 0.46186 0.07772
 C340 C 0.12469 0.43709 0.10202
 H341 H 0.25859 0.34400 0.15451
 H342 H 0.10617 0.31015 0.19767
 H343 H 0.01586 0.40408 0.02793
 H344 H 0.10736 0.49004 0.08014
 H345 H 0.06419 0.35422 0.15288
 H346 H 0.06152 0.36100 0.07184
 H347 H 0.21627 0.38872 0.11028
 H348 H 0.15497 0.44649 0.12271
 C349 C 0.64073 0.87702 0.62803
 C350 C 0.67894 0.85365 0.61220
 C351 C 0.70307 0.82837 0.63757
 C352 C 0.68852 0.82552 0.67897
 C353 C 0.65026 0.84897 0.69475
 C354 C 0.62695 0.87475 0.66958
 C355 C 0.61405 0.90300 0.60099
 C356 C 0.61166 0.93946 0.61162
 C357 C 0.58515 0.96379 0.58644
 C358 C 0.55967 0.95175 0.55092
 C359 C 0.56222 0.91540 0.54015
 C360 C 0.58964 0.89123 0.56483
 H361 H 0.73229 0.81053 0.62459
 H362 H 0.63844 0.84741 0.72659
 H363 H 0.58327 0.99178 0.59516
 H364 H 0.54256 0.90577 0.51284
 H365 H 0.59727 0.89239 0.68228
 H366 H 0.63038 0.94905 0.63935
 H367 H 0.69016 0.85507 0.58023
 H368 H 0.59071 0.86318 0.55627
 C369 C 0.86185 0.12249 0.13114
 C370 C 0.89056 0.13874 0.16291
 C371 C 0.86730 0.16464 0.18801
 C372 C 0.81484 0.17509 0.18181
 C373 C 0.78600 0.15877 0.15017
 C374 C 0.80921 0.13271 0.12516
 C375 C 0.88727 0.09564 0.10385
 C376 C 0.87702 0.09554 0.06147
 C377 C 0.90327 0.07167 0.03550
 C378 C 0.94055 0.04770 0.05133
 C379 C 0.94962 0.04688 0.09372
 C380 C 0.92331 0.07064 0.11973
 H381 H 0.89072 0.17683 0.21196
 H382 H 0.74542 0.16611 0.14472
 H383 H 0.89587 0.07274 0.00283
 H384 H 0.97780 0.02823 0.10654
 H385 H 0.78581 0.12038 0.10131
 H386 H 0.84998 0.11468 0.04818
 H387 H 0.93145 0.13199 0.16789
 H388 H 0.93133 0.06954 0.15228
 C389 C 0.36013 0.61957 0.63498
 C390 C 0.38934 0.63645 0.66606
 C391 C 0.36639 0.66277 0.69078
 C392 C 0.31380 0.67299 0.68484
 C393 C 0.28444 0.65596 0.65400
 C394 C 0.30731 0.62948 0.62942
 C395 C 0.38526 0.59255 0.60778
 C396 C 0.37408 0.59196 0.56556
 C397 C 0.40020 0.56810 0.53952
 C398 C 0.43829 0.54464 0.55515
 C399 C 0.44825 0.54422 0.59742
 C400 C 0.42204 0.56798 0.62350
 H401 H 0.39017 0.67551 0.71413
 H402 H 0.24373 0.66308 0.64881
 H403 H 0.39218 0.56886 0.50694
 H404 H 0.47714 0.52599 0.61006
 H405 H 0.28353 0.61665 0.60614
 H406 H 0.34647 0.61078 0.55237
 H407 H 0.43037 0.62993 0.67070
 H408 H 0.43081 0.56727 0.65596
   
