data_POSCAR
  _audit_creation_date              2014-09-24
  _audit_creation_method            'ToBaCCo'
  _symmetry_space_group_name_H-M    'P1'
  _symmetry_Int_Tables_number       1
  _symmetry_cell_setting            triclinic
  loop_
  _symmetry_equiv_pos_as_xyz
 x,y,z
_cell_length_a 20.2209
_cell_length_b 20.2210
_cell_length_c 34.3251
_cell_angle_alpha 89.875200
_cell_angle_beta 89.875200
_cell_angle_gamma 90.000100
loop_
  _atom_site_label
  _atom_site_type_symbol
  _atom_site_fract_x
  _atom_site_fract_y
  _atom_site_fract_z
O1 O -0.05505 0.56351 0.96300
 O2 O -0.05513 0.43428 1.03878
 O3 O -0.05514 0.56338 1.03871
 O4 O -0.05505 0.43449 0.96306
 O5 O 0.05433 0.43449 0.96297
 O6 O 0.05423 0.56338 1.03862
 O7 O 0.05423 0.43429 1.03869
 O8 O 0.05433 0.56351 0.96291
 Cu9 Cu -0.06613 0.49891 1.00091
 Cu10 Cu 0.06531 0.49891 1.00080
 C11 C -0.00035 0.58557 0.95032
 C12 C -0.00047 0.41218 1.05136
 C13 C -0.00047 0.58543 1.05126
 C14 C -0.00034 0.41250 0.95039
 O15 O 0.56570 0.05511 0.46121
 O16 O 0.43647 0.05503 0.53700
 O17 O 0.56549 0.05503 0.53693
 O18 O 0.43660 0.05512 0.46128
 O19 O 0.43660 -0.05425 0.46138
 O20 O 0.56549 -0.05434 0.53703
 O21 O 0.43647 -0.05434 0.53709
 O22 O 0.56570 -0.05425 0.46131
 Cu23 Cu 0.50107 0.06611 0.49909
 Cu24 Cu 0.50107 -0.06533 0.49920
 C25 C 0.58780 0.00045 0.44864
 C26 C 0.41441 0.00033 0.54968
 C27 C 0.58749 0.00033 0.54960
 C28 C 0.41455 0.00045 0.44874
 C29 C -0.00046 0.00044 0.25000
 C30 C 0.00016 -0.00018 0.75000
 C31 C -0.00052 -0.26214 0.13005
 C32 C 0.05976 -0.26056 0.15716
 C33 C 0.05976 -0.20831 0.18219
 C34 C -0.00052 -0.16281 0.17764
 C35 C -0.06076 -0.20834 0.18237
 C36 C -0.06077 -0.26060 0.15734
 C37 C -0.00055 -0.19461 0.10955
 C38 C -0.00055 -0.14243 0.13455
 C39 C -0.00051 -0.31788 0.10277
 C40 C -0.00050 -0.36263 0.07963
 C41 C -0.00051 -0.10614 0.20421
 C42 C -0.00049 -0.05854 0.22531
 H43 H 0.09893 -0.29727 0.15675
 H44 H 0.09893 -0.20024 0.20324
 H45 H -0.09991 -0.20030 0.20354
 H46 H -0.09992 -0.29733 0.15705
 H47 H -0.00057 -0.18832 0.07813
 H48 H -0.00057 -0.09145 0.12455
 C49 C -0.00052 0.26260 0.12907
 C50 C 0.05976 0.26112 0.15618
 C51 C 0.05976 0.20895 0.18141
 C52 C -0.00051 0.16343 0.17703
 C53 C -0.00055 0.14291 0.13402
 C54 C -0.00055 0.19501 0.10882
 C55 C -0.06076 0.26116 0.15636
 C56 C -0.06076 0.20899 0.18159
 C57 C -0.00051 0.31826 0.10159
 C58 C -0.00050 0.36296 0.07829
 C59 C -0.00051 0.10686 0.20382
 C60 C -0.00049 0.05934 0.22509
 H61 H 0.09894 0.29783 0.15564
 H62 H 0.09893 0.20096 0.20249
 H63 H -0.00057 0.09190 0.12420
 H64 H -0.00057 0.18861 0.07742
 H65 H -0.09992 0.29789 0.15594
 H66 H -0.09991 0.20101 0.20278
 C67 C 0.26228 0.00018 0.62907
 C68 C 0.26088 -0.06016 0.65629
 C69 C 0.20878 -0.06022 0.68157
 C70 C 0.16325 0.00006 0.67712
 C71 C 0.14261 0.00019 0.63412
 C72 C 0.19464 0.00025 0.60888
 C73 C 0.26090 0.06037 0.65625
 C74 C 0.20880 0.06030 0.68153
 C75 C 0.31786 0.00025 0.60153
 C76 C 0.36252 0.00029 0.57822
 C77 C 0.10673 -0.00001 0.70394
 C78 C 0.05918 -0.00008 0.72520
 H79 H 0.29759 -0.09933 0.65578
 H80 H 0.20084 -0.09944 0.70272
 H81 H 0.09157 0.00023 0.62436
 H82 H 0.18815 0.00035 0.57749
 H83 H 0.29763 0.09952 0.65573
 H84 H 0.20088 0.09940 0.70267
 C85 C -0.26095 0.00018 0.62898
 C86 C -0.19313 0.00026 0.60881
 C87 C -0.14132 0.00020 0.63407
 C88 C -0.16231 0.00006 0.67706
 C89 C -0.20788 -0.06023 0.68149
 C90 C -0.25977 -0.06016 0.65620
 C91 C -0.25980 0.06036 0.65617
 C92 C -0.20791 0.06030 0.68146
 C93 C -0.31631 0.00024 0.60143
 C94 C -0.36080 0.00029 0.57811
 C95 C -0.10602 -0.00001 0.70390
 C96 C -0.05865 -0.00008 0.72518
 H97 H -0.18639 0.00036 0.57742
 H98 H -0.09020 0.00024 0.62432
 H99 H -0.20012 -0.09944 0.70265
 H100 H -0.29647 -0.09933 0.65568
 H101 H -0.29652 0.09952 0.65563
 H102 H -0.20017 0.09939 0.70260
 C103 C -0.00020 -0.26230 0.87093
 C104 C -0.06038 -0.26093 0.84374
 C105 C -0.06032 -0.20882 0.81846
 C106 C -0.00008 -0.16326 0.82288
 C107 C 0.06021 -0.20879 0.81843
 C108 C 0.06015 -0.26089 0.84371
 C109 C -0.00028 -0.19465 0.89112
 C110 C -0.00022 -0.14263 0.86587
 C111 C -0.00026 -0.31788 0.89846
 C112 C -0.00031 -0.36254 0.92178
 C113 C -0.00001 -0.10675 0.79606
 C114 C 0.00006 -0.05920 0.77480
 H115 H -0.09954 -0.29765 0.84426
 H116 H -0.09941 -0.20091 0.79733
 H117 H 0.09943 -0.20085 0.79728
 H118 H 0.09932 -0.29760 0.84422
 H119 H -0.00038 -0.18817 0.92251
 H120 H -0.00026 -0.09159 0.87564
 C121 C -0.00020 0.26093 0.87102
 C122 C -0.06038 0.25979 0.84383
 C123 C -0.06032 0.20789 0.81853
 C124 C -0.00008 0.16230 0.82293
 C125 C -0.00022 0.14130 0.86592
 C126 C -0.00028 0.19312 0.89118
 C127 C 0.06015 0.25975 0.84380
 C128 C 0.06021 0.20786 0.81851
 C129 C -0.00026 0.31629 0.89857
 C130 C -0.00031 0.36078 0.92188
 C131 C -0.00001 0.10601 0.79609
 C132 C 0.00006 0.05863 0.77482
 H133 H -0.09953 0.29651 0.84436
 H134 H -0.09941 0.20015 0.79739
 H135 H -0.00027 0.09018 0.87567
 H136 H -0.00039 0.18637 0.92258
 H137 H 0.09932 0.29645 0.84433
 H138 H 0.09943 0.20009 0.79736
 C139 C -0.26262 0.00050 0.37093
 C140 C -0.19502 0.00052 0.39118
 C141 C -0.14293 0.00052 0.36598
 C142 C -0.16345 0.00050 0.32296
 C143 C -0.20900 0.06075 0.31841
 C144 C -0.26117 0.06075 0.34364
 C145 C -0.26114 -0.05978 0.34381
 C146 C -0.20898 -0.05978 0.31858
 C147 C -0.31828 0.00049 0.39841
 C148 C -0.36298 0.00048 0.42171
 C149 C -0.10688 0.00049 0.29618
 C150 C -0.05936 0.00047 0.27490
 H151 H -0.18863 0.00054 0.42258
 H152 H -0.09191 0.00054 0.37579
 H153 H -0.20102 0.09990 0.29722
 H154 H -0.29790 0.09991 0.34407
 H155 H -0.29786 -0.09895 0.34435
 H156 H -0.20098 -0.09894 0.29751
 C157 C 0.26212 0.00050 0.36994
 C158 C 0.26055 -0.05978 0.34284
 C159 C 0.20829 -0.05978 0.31780
 C160 C 0.16279 0.00050 0.32235
 C161 C 0.20832 0.06075 0.31762
 C162 C 0.26058 0.06075 0.34266
 C163 C 0.19459 0.00053 0.39044
 C164 C 0.14241 0.00053 0.36544
 C165 C 0.31786 0.00050 0.39722
 C166 C 0.36262 0.00048 0.42037
 C167 C 0.10613 0.00049 0.29578
 C168 C 0.05853 0.00047 0.27468
 H169 H 0.29726 -0.09895 0.34324
 H170 H 0.20023 -0.09894 0.29675
 H171 H 0.20028 0.09990 0.29646
 H172 H 0.29731 0.09990 0.34295
 H173 H 0.18830 0.00054 0.42187
 H174 H 0.09143 0.00054 0.37545
   
