data_POSCAR
  _audit_creation_date              2014-09-24
  _audit_creation_method            'ToBaCCo'
  _symmetry_space_group_name_H-M    'P1'
  _symmetry_Int_Tables_number       1
  _symmetry_cell_setting            triclinic
  loop_
  _symmetry_equiv_pos_as_xyz
 x,y,z
_cell_length_a 31.5025
_cell_length_b 30.5128
_cell_length_c 28.3284
_cell_angle_alpha 89.342800
_cell_angle_beta 87.862300
_cell_angle_gamma 91.808700
loop_
  _atom_site_label
  _atom_site_type_symbol
  _atom_site_fract_x
  _atom_site_fract_y
  _atom_site_fract_z
C1 C 0.15402 0.18799 0.19952
 C2 C 0.14310 0.21007 0.15808
 C3 C 0.16383 0.20114 0.11535
 C4 C 0.19646 0.17089 0.11374
 C5 C 0.20794 0.15054 0.15494
 C6 C 0.18630 0.15849 0.19771
 C7 C 0.13721 0.18681 0.24519
 N8 N 0.15811 0.15672 0.27065
 C9 C 0.18871 0.13973 0.24176
 C10 C 0.24120 0.12435 0.14398
 N11 N 0.25049 0.12802 0.09681
 C12 C 0.22272 0.15581 0.07778
 C13 C 0.14670 0.22706 0.08131
 N14 N 0.11683 0.25204 0.10245
 C15 C 0.11405 0.24163 0.14928
 H16 H 0.11016 0.20476 0.25824
 H17 H 0.20988 0.11397 0.25073
 H18 H 0.25677 0.10358 0.16876
 H19 H 0.22258 0.16544 0.04087
 H20 H 0.15593 0.22847 0.04409
 H21 H 0.09252 0.25597 0.17502
 C22 C -0.16359 0.84150 0.20051
 C23 C -0.15618 0.80830 0.16785
 C24 C -0.18855 0.79302 0.13998
 C25 C -0.22891 0.81159 0.14422
 C26 C -0.23596 0.84460 0.17646
 C27 C -0.20297 0.85997 0.20436
 C28 C -0.13760 0.86303 0.23115
 N29 N -0.16019 0.89474 0.25313
 C30 C -0.20006 0.89338 0.23647
 C31 C -0.27674 0.85819 0.17153
 N32 N -0.29477 0.83481 0.13640
 C33 C -0.26568 0.80624 0.11960
 C34 C -0.17137 0.76162 0.11078
 N35 N -0.12955 0.75826 0.12028
 C36 C -0.12000 0.78687 0.15475
 H37 H -0.10432 0.85688 0.23551
 H38 H -0.22521 0.91498 0.24717
 H39 H -0.29082 0.88506 0.19038
 H40 H -0.27038 0.78424 0.09038
 H41 H -0.18765 0.74350 0.08385
 H42 H -0.08884 0.79182 0.16906
 C43 C -0.13665 0.17894 -0.18082
 C44 C -0.13702 0.22135 -0.16261
 C45 C -0.16580 0.23137 -0.12648
 C46 C -0.19506 0.19914 -0.10857
 C47 C -0.19482 0.15758 -0.12743
 C48 C -0.16495 0.14712 -0.16274
 C49 C -0.11365 0.16039 -0.21712
 N50 N -0.12722 0.11778 -0.22089
 C51 C -0.15829 0.10936 -0.18739
 C52 C -0.22932 0.13450 -0.10859
 N53 N -0.25082 0.16082 -0.07830
 C54 C -0.22938 0.20010 -0.07683
 C55 C -0.15918 0.27496 -0.11656
 N56 N -0.12709 0.29142 -0.14550
 C57 C -0.11340 0.25882 -0.17398
 H58 H -0.08880 0.17683 -0.23869
 H59 H -0.17579 0.07841 -0.18245
 H60 H -0.23832 0.10104 -0.11705
 H61 H -0.23982 0.22823 -0.05708
 H62 H -0.17604 0.29333 -0.08972
 H63 H -0.08773 0.26155 -0.20036
 C64 C 0.20223 0.81236 -0.25892
 C65 C 0.19937 0.78309 -0.22044
 C66 C 0.23110 0.78307 -0.18812
 C67 C 0.26660 0.81147 -0.19457
 C68 C 0.26973 0.84045 -0.23260
 C69 C 0.23687 0.84118 -0.26495
 C70 C 0.17302 0.82344 -0.29133
 N71 N 0.18860 0.85877 -0.31704
 C72 C 0.22781 0.86958 -0.30125
 C73 C 0.30553 0.86687 -0.22666
 N74 N 0.32384 0.85434 -0.18593
 C75 C 0.30006 0.82056 -0.16637
 C76 C 0.21708 0.75651 -0.15079
 N77 N 0.17791 0.74001 -0.16014
 C78 C 0.16673 0.75601 -0.20266
 H79 H 0.14170 0.80822 -0.29325
 H80 H 0.24734 0.89759 -0.31348
 H81 H 0.31595 0.89419 -0.24932
 H82 H 0.30579 0.80478 -0.13284
 H83 H 0.23322 0.75120 -0.11822
 H84 H 0.13597 0.75086 -0.21786
 C85 C 0.17278 1.13833 0.81045
 C86 C 0.20002 1.13187 0.84746
 C87 C 0.20461 1.16328 0.88165
 C88 C 0.18086 1.20132 0.87974
 C89 C 0.15445 1.20850 0.84234
 C90 C 0.15036 1.17646 0.80694
 C91 C 0.16059 1.11105 0.77518
 N92 N 0.13134 1.13111 0.74941
 C93 C 0.12486 1.17153 0.76814
 C94 C 0.13386 1.24698 0.85189
 N95 N 0.14626 1.26217 0.89457
 C96 C 0.17491 1.23437 0.91159
 C97 C 0.23357 1.14802 0.91288
 N98 N 0.24610 1.10809 0.89803
 C99 C 0.22525 1.09768 0.85860
 H100 H 0.17134 1.07806 0.76953
 H101 H 0.10174 1.19439 0.75648
 H102 H 0.10937 1.26077 0.83100
 H103 H 0.18935 1.23718 0.94559
 H104 H 0.24467 1.16457 0.94391
 H105 H 0.22908 1.06781 0.83883
 C106 C 0.78077 0.80794 0.75560
 C107 C 0.74561 0.80659 0.78795
 C108 C 0.74189 0.77333 0.82158
 C109 C 0.77263 0.74151 0.82386
 C110 C 0.80681 0.74234 0.79189
 C111 C 0.81108 0.77599 0.75757
 C112 C 0.79541 0.83843 0.72205
 N113 N 0.83379 0.82615 0.70388
 C114 C 0.84351 0.78778 0.72544
 C115 C 0.83356 0.71011 0.80593
 N116 N 0.81655 0.69055 0.84620
 C117 C 0.77933 0.70971 0.85722
 C118 C 0.70832 0.78214 0.85163
 N119 N 0.69109 0.81997 0.83764
 C120 C 0.71358 0.83546 0.79857
 H121 H 0.77993 0.86838 0.71281
 H122 H 0.87240 0.77007 0.71965
 H123 H 0.86450 0.70405 0.78991
 H124 H 0.75943 0.70236 0.88850
 H125 H 0.69855 0.76359 0.88324
 H126 H 0.70893 0.86658 0.78112
 C127 C 0.20894 0.83072 1.23276
 C128 C 0.24175 0.81886 1.20098
 C129 C 0.23819 0.78020 1.17613
 C130 C 0.20194 0.75254 1.18323
 C131 C 0.17011 0.76377 1.21550
 C132 C 0.17365 0.80311 1.24054
 C133 C 0.20192 0.86833 1.25790
 N134 N 0.16355 0.86413 1.28134
 C135 C 0.14610 0.82405 1.27115
 C136 C 0.13797 0.73233 1.21313
 N137 N 0.14920 0.70251 1.18012
 C138 C 0.18844 0.71452 1.16171
 C139 C 0.27317 0.77889 1.14544
 N140 N 0.29814 0.81528 1.15175
 C141 C 0.27899 0.84008 1.18543
 H142 H 0.22283 0.89719 1.25823
 H143 H 0.11478 0.81180 1.28269
 H144 H 0.10782 0.73199 1.23282
 H145 H 0.20576 0.69754 1.13417
 H146 H 0.27957 0.75379 1.11965
 H147 H 0.29025 0.87214 1.19636
 C148 C 0.80335 1.17622 1.24481
 C149 C 0.77503 1.16902 1.20869
 C150 C 0.76878 1.20149 1.17543
 C151 C 0.79158 1.24176 1.17787
 C152 C 0.81981 1.24876 1.21368
 C153 C 0.82588 1.21562 1.24738
 C154 C 0.81697 1.14915 1.27969
 N155 N 0.84767 1.17071 1.30342
 C156 C 0.85341 1.21165 1.28397
 C157 C 0.84004 1.28882 1.20498
 N158 N 0.82497 1.30636 1.16476
 C159 C 0.79548 1.27772 1.14794
 C160 C 0.74128 1.18387 1.14320
 N161 N 0.73138 1.14164 1.15638
 C162 C 0.75209 1.13232 1.19608
 H163 H 0.80624 1.11548 1.28636
 H164 H 0.87628 1.23647 1.29456
 H165 H 0.86575 1.30259 1.22494
 H166 H 0.77950 1.28184 1.11507
 H167 H 0.73064 1.19993 1.11170
 H168 H 0.75107 1.10074 1.21400
 O169 O 0.53970 0.98606 0.90519
 O170 O 0.46054 0.97283 1.10329
 O171 O 0.55902 0.93734 1.04591
 O172 O 0.45055 0.93252 0.96100
 O173 O 0.53732 0.97734 1.10383
 O174 O 0.46062 0.98352 0.90914
 O175 O 0.45391 0.92854 1.04626
 O176 O 0.57346 0.94779 0.95722
 C177 C 0.56493 0.95621 0.91529
 C178 C 0.45045 0.93538 1.08921
 C179 C 0.55459 0.94300 1.08917
 C180 C 0.45023 0.94451 0.91920
 O181 O 0.45988 1.06285 0.94761
 O182 O 0.53486 1.06239 1.07050
 O183 O 0.59012 1.03102 0.97055
 O184 O 0.41313 1.00564 1.05254
 O185 O 0.45968 1.05548 1.06682
 O186 O 0.54136 1.06714 0.93416
 O187 O 0.41343 1.01153 0.96795
 O188 O 0.58605 1.02056 1.05652
 Co189 Co 0.50010 1.02254 0.93225
 Co190 Co 0.49842 1.01529 1.07956
 Co191 Co 0.56981 0.98523 1.00791
 Co192 Co 0.43851 0.97192 1.00707
 O193 O 0.50200 0.99876 1.00626
 C194 C 0.42217 1.05088 0.95618
 C195 C 0.57353 1.05753 1.06754
 C196 C 0.57892 1.06311 0.94600
 C197 C 0.42190 1.04404 1.06452
 O198 O 0.03201 0.46684 0.08093
 O199 O 0.05732 0.55485 -0.07704
 O200 O 0.02140 0.41969 -0.04822
 O201 O 0.05751 0.56979 0.00508
 O202 O 0.06448 0.47449 -0.06844
 O203 O 0.03412 0.55135 0.07528
 O204 O 0.02511 0.61488 -0.05586
 O205 O 0.00319 0.41600 0.03569
 C206 C 0.02835 0.42753 0.06787
 C207 C 0.05177 0.59547 -0.08502
 C208 C 0.05782 0.43415 -0.06258
 C209 C 0.06192 0.57006 0.04847
 O210 O -0.05046 0.54733 0.07004
 O211 O -0.00769 0.46093 -0.10992
 O212 O -0.07570 0.44510 0.01856
 O213 O -0.04640 0.57454 -0.04735
 O214 O -0.02171 0.54009 -0.10722
 O215 O -0.04911 0.46613 0.08313
 O216 O -0.01755 0.59879 0.02860
 O217 O -0.05895 0.45528 -0.06160
 Co218 Co -0.00768 0.50819 0.06913
 Co219 Co 0.02036 0.50758 -0.08302
 Co220 Co -0.02562 0.43934 -0.01429
 Co221 Co 0.00506 0.56843 -0.02128
 O222 O -0.00390 0.50375 -0.00856
 C223 C -0.04751 0.58644 0.05659
 C224 C -0.04538 0.44997 -0.10193
 C225 C -0.07795 0.44644 0.06206
 C226 C -0.04925 0.56411 -0.08938
 O227 O 1.10394 0.04129 0.46354
 O228 O 0.91636 0.04661 0.55019
 O229 O 0.97218 0.08129 0.44368
 O230 O 1.03229 0.03487 0.59199
 O231 O 0.91368 0.04655 0.46131
 O232 O 1.05536 0.07176 0.52925
 O233 O 0.95658 0.01491 0.60172
 O234 O 1.04561 0.06981 0.44417
 C235 C 1.08443 0.06535 0.43378
 C236 C 0.92995 0.04347 0.59114
 C237 C 0.93290 0.08018 0.44542
 C238 C 1.04814 0.07000 0.57324
 O239 O 1.09164 0.00058 0.54575
 O240 O 0.92141 -0.03857 0.46208
 O241 O 1.03372 -0.01283 0.41001
 O242 O 0.97236 -0.06597 0.56635
 O243 O 0.91348 -0.03762 0.55050
 O244 O 1.06589 -0.03365 0.47130
 O245 O 1.04512 -0.04878 0.55729
 O246 O 0.95723 0.00011 0.40753
 Co247 Co 1.05812 0.01921 0.49845
 Co248 Co 0.92368 0.00460 0.50565
 Co249 Co 1.00166 0.03229 0.43257
 Co250 Co 1.00134 -0.01421 0.57353
 O251 O 0.99363 0.00848 0.50449
 C252 C 1.08212 -0.03566 0.56363
 C253 C 0.93355 -0.03260 0.41989
 C254 C 1.05695 -0.03962 0.42955
 C255 C 0.93305 -0.06841 0.56727
 C256 C 1.14599 0.14340 0.31539
 C257 C 1.16452 0.11061 0.33852
 C258 C 1.14627 0.08977 0.38257
 C259 C 1.10481 0.09045 0.39427
 H260 H 1.19337 0.09671 0.32445
 H261 H 1.16681 0.06996 0.40326
 H262 H 1.11897 0.15896 0.33199
 H263 H 1.08348 0.10803 0.37244
 C264 C 0.85375 -0.07603 0.28551
 C265 C 0.88941 -0.08143 0.30885
 C266 C 0.90313 -0.04962 0.34404
 C267 C 0.91899 -0.06343 0.38436
 H268 H 0.90744 -0.11083 0.30467
 H269 H 0.89883 -0.01495 0.33775
 H270 H 0.83407 -0.04859 0.29464
 H271 H 0.91941 -0.09822 0.39249
 C272 C 0.88612 0.08785 0.74721
 C273 C 0.90747 0.09943 0.70725
 C274 C 0.91918 0.06628 0.67280
 C275 C 0.91553 0.07433 0.62688
 H276 H 0.91349 0.13358 0.69775
 H277 H 0.92978 0.03483 0.68518
 H278 H 0.87641 0.05365 0.75271
 H279 H 0.90201 0.10466 0.61516
 C280 C 1.16798 -0.11731 0.65036
 C281 C 1.12866 -0.12847 0.63659
 C282 C 1.10227 -0.10165 0.60610
 C283 C 1.11283 -0.06146 0.58914
 H284 H 1.11319 -0.15869 0.64905
 H285 H 1.07108 -0.11563 0.59922
 H286 H 1.18383 -0.08781 0.63620
 H287 H 1.14354 -0.04618 0.59505
 C288 C 0.28208 1.10774 1.07240
 C289 C 0.31548 1.09211 1.09421
 C290 C 0.34866 1.06818 1.06916
 C291 C 0.38881 1.07291 1.08192
 H292 H 0.31972 1.09823 1.13132
 H293 H 0.33991 1.04519 1.04209
 H294 H 0.28135 1.10629 1.03421
 H295 H 0.39744 1.09787 1.10708
 C296 C 0.35769 0.87286 0.83582
 C297 C 0.38097 0.90734 0.81815
 C298 C 0.41267 0.93173 0.84599
 C299 C 0.43012 0.91562 0.88482
 H300 H 0.37394 0.92151 0.78431
 H301 H 0.41900 0.96573 0.83589
 H302 H 0.36452 0.85995 0.87032
 H303 H 0.42530 0.88155 0.89505
 C304 C 0.66705 0.84153 1.11667
 C305 C 0.63833 0.86897 1.13479
 C306 C 0.60331 0.88408 1.10622
 C307 C 0.57739 0.91516 1.12206
 H308 H 0.64248 0.88371 1.16892
 H309 H 0.60265 0.87423 1.06959
 H310 H 0.66044 0.82545 1.08364
 H311 H 0.57833 0.92514 1.15862
 C312 C 0.71135 1.15064 0.94450
 C313 C 0.68440 1.12092 0.92682
 C314 C 0.64567 1.10496 0.95211
 C315 C 0.61149 1.09459 0.92772
 H316 H 0.69069 1.10753 0.89209
 H317 H 0.64705 1.09628 0.98915
 H318 H 0.70172 1.16873 0.97563
 H319 H 0.60963 1.10557 0.89133
 C320 C 0.09288 0.28412 0.07850
 C321 C 0.08080 0.32076 0.09986
 C322 C 0.05665 0.35368 0.07483
 C323 C 0.05313 0.39425 0.09155
 H324 H 0.08974 0.32703 0.13579
 H325 H 0.04186 0.34467 0.04224
 H326 H 0.08663 0.27953 0.04146
 H327 H 0.06928 0.40350 0.12326
 C328 C -0.10922 0.33497 -0.14175
 C329 C -0.07687 0.35080 -0.16991
 C330 C -0.05288 0.39136 -0.15841
 C331 C -0.07060 0.42356 -0.13382
 H332 H -0.06366 0.33108 -0.19789
 H333 H -0.01869 0.39141 -0.16434
 H334 H -0.12061 0.35408 -0.11219
 H335 H -0.10477 0.42388 -0.12819
 C336 C 0.15095 0.71502 -0.12739
 C337 C 0.12295 0.68504 -0.14221
 C338 C 0.09446 0.66068 -0.10847
 C339 C 0.08010 0.62041 -0.11825
 H340 H 0.12181 0.67763 -0.17948
 H341 H 0.08629 0.67525 -0.07472
 H342 H 0.15446 0.71979 -0.08984
 H343 H 0.09107 0.60447 -0.15024
 C344 C -0.09902 0.73096 0.09737
 C345 C -0.10846 0.68937 0.08684
 C346 C -0.07529 0.66045 0.06829
 C347 C -0.07967 0.61701 0.07383
 H348 H -0.14017 0.67587 0.09492
 H349 H -0.04646 0.67485 0.05175
 H350 H -0.06639 0.74320 0.09303
 H351 H -0.10776 0.60316 0.09243
 C352 C 1.11062 0.10983 0.71463
 C353 C 1.08581 0.12872 0.68334
 C354 C 1.06328 0.09941 0.65085
 C355 C 1.06209 0.10624 0.60406
 H356 H 1.08292 0.16392 0.68106
 H357 H 1.05197 0.06802 0.66559
 H358 H 1.11530 0.07482 0.71134
 H359 H 1.07555 0.13630 0.58826
 C360 C 0.85777 -0.14941 0.67145
 C361 C 0.89739 -0.15954 0.65641
 C362 C 0.92434 -0.13045 0.62440
 C363 C 0.90822 -0.10406 0.59198
 H364 H 0.91254 -0.18773 0.67080
 H365 H 0.95835 -0.13008 0.62885
 H366 H 0.84468 -0.11923 0.65878
 H367 H 0.87437 -0.10542 0.58651
 C368 C 1.14580 -0.10327 0.30723
 C369 C 1.11107 -0.10941 0.33571
 C370 C 1.09261 -0.07216 0.36105
 C371 C 1.07350 -0.07734 0.40375
 H372 H 1.09694 -0.14185 0.34191
 H373 H 1.09647 -0.03957 0.34547
 H374 H 1.16118 -0.07091 0.30572
 H375 H 1.07307 -0.10901 0.42150
 C376 C 0.86887 0.15147 0.33875
 C377 C 0.90203 0.17038 0.36013
 C378 C 0.92673 0.14539 0.39414
 C379 C 0.90857 0.11439 0.42286
 H380 H 0.91447 0.20242 0.34905
 H381 H 0.96092 0.15068 0.39286
 H382 H 0.85955 0.11794 0.34835
 H383 H 0.87426 0.11054 0.42556
 C384 C 0.13003 0.29594 -0.08015
 C385 C 0.10918 0.32851 -0.09988
 C386 C 0.08692 0.36072 -0.07054
 C387 C 0.08926 0.40348 -0.08139
 H388 H 0.10785 0.33153 -0.13791
 H389 H 0.06587 0.34862 -0.04187
 H390 H 0.13507 0.29709 -0.04247
 H391 H 0.11205 0.41551 -0.10849
 C392 C -0.15854 0.34477 0.13941
 C393 C -0.13393 0.37535 0.15981
 C394 C -0.10890 0.41065 0.13407
 C395 C -0.11149 0.42016 0.08793
 H396 H -0.12862 0.37268 0.19720
 H397 H -0.08450 0.42709 0.15394
 H398 H -0.16501 0.34727 0.10232
 H399 H -0.13563 0.40462 0.06714
 C400 C -0.16553 0.66061 -0.12529
 C401 C -0.13134 0.63840 -0.13863
 C402 C -0.10920 0.61139 -0.10457
 C403 C -0.08073 0.58295 -0.11996
 H404 H -0.11854 0.64086 -0.17460
 H405 H -0.11370 0.61734 -0.06707
 H406 H -0.17958 0.65450 -0.09016
 H407 H -0.07726 0.57675 -0.15751
 C408 C 0.12188 0.66641 0.16661
 C409 C 0.12837 0.64394 0.12677
 C410 C 0.09638 0.61116 0.11151
 C411 C 0.09770 0.59568 0.06749
 H412 H 0.15569 0.65173 0.10356
 H413 H 0.06954 0.60242 0.13523
 H414 H 0.09333 0.65911 0.18823
 H415 H 0.12347 0.60625 0.04313
 C416 C 0.27688 1.08083 0.91841
 C417 C 0.31378 1.09734 0.93309
 C418 C 0.34749 1.06762 0.94591
 C419 C 0.38801 1.08159 0.94786
 H420 H 0.32015 1.13245 0.93197
 H421 H 0.33927 1.03308 0.95125
 H422 H 0.27223 1.04555 0.91609
 H423 H 0.39656 1.11578 0.94077
 C424 C 0.33547 0.82745 1.12320
 C425 C 0.36562 0.85503 1.13871
 C426 C 0.39949 0.87393 1.10649
 C427 C 0.42687 0.90459 1.12178
 H428 H 0.36353 0.86628 1.17483
 H429 H 0.39859 0.86685 1.06911
 H430 H 0.33850 0.81471 1.08770
 H431 H 0.42647 0.91232 1.15905
 C432 C 0.70595 1.10989 1.13223
 C433 C 0.67141 1.12062 1.10935
 C434 C 0.64347 1.08584 1.09060
 C435 C 0.60294 1.09306 1.08168
 H436 H 0.66222 1.15450 1.10759
 H437 H 0.65554 1.05312 1.08681
 H438 H 0.71286 1.07552 1.13674
 H439 H 0.59036 1.12531 1.08740
 C440 C 0.65933 0.84117 0.86608
 C441 C 0.63846 0.87630 0.85226
 C442 C 0.61056 0.89781 0.88735
 C443 C 0.58635 0.93164 0.87707
 H444 H 0.64308 0.88978 0.81687
 H445 H 0.61146 0.88653 0.92375
 H446 H 0.65262 0.82800 0.90144
 H447 H 0.58430 0.94289 0.84084
   
