data_POSCAR
  _audit_creation_date              2014-09-24
  _audit_creation_method            'ToBaCCo'
  _symmetry_space_group_name_H-M    'P1'
  _symmetry_Int_Tables_number       1
  _symmetry_cell_setting            triclinic
  loop_
  _symmetry_equiv_pos_as_xyz
 x,y,z
_cell_length_a 21.3482
_cell_length_b 21.3461
_cell_length_c 21.2720
_cell_angle_alpha 89.743800
_cell_angle_beta 90.256600
_cell_angle_gamma 89.981300
loop_
  _atom_site_label
  _atom_site_type_symbol
  _atom_site_fract_x
  _atom_site_fract_y
  _atom_site_fract_z
O1 O 0.58797 0.15926 0.00454
 O2 O 0.65751 0.07726 0.00318
 C3 C 0.64420 0.13642 0.00456
 O4 O 0.41341 -0.00495 0.16044
 O5 O 0.34354 -0.00159 0.07787
 C6 C 0.35703 -0.00448 0.13727
 O7 O 0.58922 0.00378 0.16085
 O8 O 0.65822 0.00093 0.07834
 C9 C 0.64538 0.00334 0.13780
 O10 O 0.41341 0.15871 -0.00470
 O11 O 0.34403 0.07662 0.00023
 C12 C 0.35721 0.13576 -0.00358
 Zr13 Zr 0.50059 0.11236 0.00341
 O14 O 0.49340 0.17642 0.07891
 O15 O 0.50522 0.18818 -0.06055
 Zr16 Zr 0.50133 -0.00019 0.11444
 O17 O 0.49449 0.06940 0.18470
 O18 O 0.50895 -0.07087 0.18423
 O19 O 0.55735 0.06485 0.06752
 O20 O 0.44602 0.06403 0.06700
 O21 O 0.41219 0.00470 -0.15646
 O22 O 0.34352 0.00197 -0.07378
 C23 C 0.35620 0.00436 -0.13320
 O24 O 0.58929 -0.15676 -0.00255
 O25 O 0.65837 -0.07433 0.00113
 C26 C 0.64542 -0.13352 -0.00180
 O27 O 0.41412 -0.15793 0.00622
 O28 O 0.34443 -0.07595 0.00407
 C29 C 0.35786 -0.13510 0.00623
 O30 O 0.58722 -0.00191 -0.15687
 O31 O 0.65714 0.00017 -0.07451
 C32 C 0.64356 -0.00177 -0.13390
 Zr33 Zr 0.50005 0.00139 -0.10994
 O34 O 0.49295 -0.06867 -0.17977
 O35 O 0.50607 0.07209 -0.17986
 Zr36 Zr 0.50130 -0.11097 0.00182
 O37 O 0.49377 -0.18003 -0.06897
 O38 O 0.50909 -0.18158 0.07161
 Zr39 Zr 0.59467 0.00108 0.00205
 Zr40 Zr 0.40703 0.00046 0.00243
 O41 O 0.44599 -0.06299 -0.06203
 O42 O 0.55678 -0.06321 -0.06291
 O43 O 0.44457 0.06565 -0.06209
 O44 O 0.55591 -0.06354 0.06613
 O45 O 0.55454 0.06538 -0.06175
 O46 O 0.44540 -0.06458 0.06692
 H47 H 0.41734 0.08971 0.09280
 H48 H 0.58418 -0.08986 0.09222
 H49 H 0.41773 -0.08909 -0.08809
 H50 H 0.58221 0.09173 -0.08816
 H51 H 0.47344 -0.10005 0.17838
 H52 H 0.47503 -0.17481 0.10219
 H53 H 0.52916 -0.17393 -0.09820
 H54 H 0.52851 -0.09784 -0.17377
 H55 H 0.46874 0.09928 -0.17597
 H56 H 0.49405 0.17122 -0.10223
 H57 H 0.53416 0.17718 0.10123
 H58 H 0.52897 0.09956 0.17776
 O59 O 0.00344 0.41383 -0.16090
 O60 O 0.00148 0.34411 -0.07842
 C61 C 0.00315 0.35752 -0.13781
 O62 O 0.15957 0.58758 0.00419
 O63 O 0.07764 0.65733 0.00056
 C64 C 0.13675 0.64387 0.00380
 O65 O 0.15900 0.41276 -0.00491
 O66 O 0.07658 0.34358 -0.00352
 C67 C 0.13583 0.35664 -0.00520
 O68 O -0.00516 0.58876 -0.16074
 O69 O -0.00061 0.65792 -0.07846
 C70 C -0.00414 0.64497 -0.13785
 Zr71 Zr 0.00235 0.50130 -0.11414
 O72 O 0.07753 0.50873 -0.17847
 O73 O -0.06170 0.49642 -0.18992
 Zr74 Zr 0.11272 0.50034 -0.00094
 O75 O 0.18254 0.50769 -0.07097
 O76 O 0.18217 0.49244 0.07008
 O77 O 0.06594 0.44452 -0.06619
 O78 O 0.06572 0.55587 -0.06552
 O79 O -0.15671 0.58916 -0.00634
 O80 O -0.07430 0.65814 -0.00350
 C81 C -0.13350 0.64525 -0.00577
 O82 O -0.00412 0.41180 0.15620
 O83 O -0.00061 0.34293 0.07359
 C84 C -0.00357 0.35572 0.13297
 O85 O 0.00446 0.58701 0.15705
 O86 O 0.00288 0.65704 0.07471
 C87 C 0.00466 0.64338 0.13411
 O88 O -0.15765 0.41403 0.00040
 O89 O -0.07578 0.34423 -0.00129
 C90 C -0.13489 0.35772 0.00049
 Zr91 Zr -0.11064 0.50125 -0.00323
 O92 O -0.18085 0.50817 0.06636
 O93 O -0.17987 0.49497 -0.07461
 Zr94 Zr 0.00035 0.49990 0.11002
 O95 O -0.07045 0.50675 0.17908
 O96 O 0.07004 0.49215 0.18078
 Zr97 Zr 0.00059 0.40682 -0.00221
 Zr98 Zr 0.00132 0.59466 -0.00196
 O99 O -0.06304 0.55515 0.06158
 O100 O -0.06420 0.44448 0.06199
 O101 O -0.06285 0.55714 -0.06760
 O102 O 0.06443 0.44545 0.06263
 O103 O -0.06266 0.44699 -0.06708
 O104 O 0.06532 0.55611 0.06343
 H105 H 0.09161 0.58469 -0.09121
 H106 H 0.09031 0.41700 0.08893
 H107 H -0.08909 0.58314 0.08776
 H108 H -0.08903 0.41939 -0.09354
 H109 H 0.17548 0.52706 0.10003
 H110 H 0.09976 0.52719 0.17479
 H111 H -0.09940 0.47107 0.17311
 H112 H -0.17428 0.47340 0.09654
 H113 H -0.17702 0.53310 -0.10109
 H114 H -0.10237 0.51127 -0.17372
 H115 H 0.09966 0.46800 -0.17918
 H116 H 0.17586 0.47312 -0.10109
 O117 O -0.15885 -0.00479 0.58793
 O118 O -0.07652 -0.00267 0.65787
 C119 C -0.13575 -0.00450 0.64445
 O120 O 0.00413 -0.15972 0.41303
 O121 O -0.00034 -0.07771 0.34279
 C122 C 0.00310 -0.13682 0.35645
 O123 O -0.00426 -0.15969 0.58872
 O124 O -0.00258 -0.07732 0.65786
 C125 C -0.00440 -0.13661 0.64497
 O126 O -0.15954 0.00413 0.41198
 O127 O -0.07758 0.00007 0.34243
 C128 C -0.13673 0.00329 0.35559
 Zr129 Zr -0.11296 -0.00326 0.49967
 O130 O -0.17744 -0.07843 0.49259
 O131 O -0.18840 0.06056 0.50461
 Zr132 Zr -0.00036 -0.11326 0.50074
 O133 O -0.07002 -0.18352 0.49391
 O134 O 0.07051 -0.18233 0.50869
 O135 O -0.06518 -0.06670 0.55672
 O136 O -0.06467 -0.06636 0.44507
 O137 O -0.00573 0.15638 0.41083
 O138 O -0.00283 0.07401 0.34188
 C139 C -0.00532 0.13323 0.35463
 O140 O 0.15669 0.00402 0.58892
 O141 O 0.07446 0.00034 0.65811
 C142 C 0.13363 0.00339 0.64520
 O143 O 0.15722 -0.00476 0.41342
 O144 O 0.07519 -0.00338 0.34317
 C145 C 0.13438 -0.00511 0.35688
 O146 O 0.00089 0.15704 0.58650
 O147 O -0.00186 0.07516 0.65690
 C148 C 0.00033 0.13432 0.64310
 Zr149 Zr -0.00245 0.11020 0.49909
 O150 O 0.06700 0.18064 0.49217
 O151 O -0.07362 0.17910 0.50504
 Zr152 Zr 0.11045 -0.00043 0.50077
 O153 O 0.17905 0.07085 0.49343
 O154 O 0.18109 -0.06969 0.50878
 Zr155 Zr -0.00129 -0.00112 0.59415
 Zr156 Zr -0.00120 -0.00180 0.40580
 O157 O 0.06213 0.06283 0.44510
 O158 O 0.06264 0.06399 0.55620
 O159 O -0.06655 0.06207 0.44327
 O160 O 0.06318 -0.06477 0.55561
 O161 O -0.06603 0.06190 0.55374
 O162 O 0.06393 -0.06567 0.44464
 H163 H -0.09054 -0.09230 0.41647
 H164 H 0.08938 -0.09061 0.58424
 H165 H 0.08812 0.08892 0.41677
 H166 H -0.09251 0.08807 0.58131
 H167 H 0.09965 -0.17638 0.47315
 H168 H 0.17422 -0.10026 0.47465
 H169 H 0.17329 0.09963 0.52926
 H170 H 0.09682 0.17432 0.52734
 H171 H -0.10016 0.17587 0.46692
 H172 H -0.17258 0.10102 0.48848
 H173 H -0.17807 -0.10065 0.53352
 H174 H -0.10027 -0.17651 0.52825
 C175 C -0.30497 0.18027 0.00475
 C176 C -0.26369 0.21874 0.00431
 C177 C -0.21708 0.26554 0.00326
 C178 C -0.17875 0.30693 0.00210
 C179 C 0.30706 0.82109 0.00752
 C180 C 0.26570 0.78272 0.00779
 C181 C 0.21897 0.73603 0.00722
 C182 C 0.18058 0.69469 0.00604
 C183 C 0.30624 0.17944 -0.00592
 C184 C 0.26476 0.21772 -0.00701
 C185 C 0.21791 0.26433 -0.00724
 C186 C 0.17947 0.30565 -0.00664
 C187 C -0.30337 0.82303 -0.00360
 C188 C -0.26181 0.78483 -0.00473
 C189 C -0.21508 0.73809 -0.00572
 C190 C -0.17694 0.69647 -0.00619
 C191 C 0.00580 -0.30603 0.17819
 C192 C 0.00606 -0.26499 0.21689
 C193 C 0.00563 -0.21864 0.26396
 C194 C 0.00475 -0.18051 0.30553
 C195 C 0.00342 0.30656 0.81850
 C196 C 0.00315 0.26475 0.78061
 C197 C 0.00241 0.21734 0.73458
 C198 C 0.00154 0.17844 0.69371
 C199 C -0.00539 0.30438 0.17662
 C200 C -0.00636 0.26259 0.21489
 C201 C -0.00676 0.21545 0.26162
 C202 C -0.00646 0.17689 0.30319
 C203 C -0.00595 -0.30856 0.82231
 C204 C -0.00679 -0.26665 0.78412
 C205 C -0.00675 -0.21926 0.73761
 C206 C -0.00597 -0.18047 0.69625
 C207 C 0.30481 0.00559 0.82314
 C208 C 0.26303 0.00604 0.78484
 C209 C 0.21590 0.00584 0.73808
 C210 C 0.17735 0.00504 0.69654
 C211 C -0.30811 0.00470 0.17763
 C212 C -0.26636 0.00559 0.21599
 C213 C -0.21929 0.00584 0.26284
 C214 C -0.18068 0.00518 0.30438
 C215 C 0.30612 -0.00618 0.18099
 C216 C 0.26445 -0.00694 0.21902
 C217 C 0.21718 -0.00706 0.26519
 C218 C 0.17838 -0.00652 0.30617
 C219 C -0.30572 -0.00323 0.82215
 C220 C -0.26444 -0.00416 0.78369
 C221 C -0.21778 -0.00484 0.73689
 C222 C -0.17944 -0.00499 0.69547
   
