data_POSCAR
  _audit_creation_date              2014-09-24
  _audit_creation_method            'ToBaCCo'
  _symmetry_space_group_name_H-M    'P1'
  _symmetry_Int_Tables_number       1
  _symmetry_cell_setting            triclinic
  loop_
  _symmetry_equiv_pos_as_xyz
 x,y,z
_cell_length_a 11.7787
_cell_length_b 17.9476
_cell_length_c 13.6198
_cell_angle_alpha 94.681600
_cell_angle_beta 90.298400
_cell_angle_gamma 90.348300
loop_
  _atom_site_label
  _atom_site_type_symbol
  _atom_site_fract_x
  _atom_site_fract_y
  _atom_site_fract_z
N1 N 0.14186 0.10333 0.13807
 N2 N 0.19175 0.16822 0.15760
 N3 N 0.09346 -0.05624 0.19288
 N4 N 0.10752 -0.10855 0.25467
 N5 N 0.18475 -0.04948 0.13925
 N6 N 0.26351 -0.09698 0.16256
 N7 N 0.04919 0.09793 0.19034
 N8 N 0.03416 0.16002 0.24877
 C9 C 0.12482 0.20252 0.22620
 C10 C 0.21435 -0.13257 0.23503
 N11 N -0.19524 -0.10539 0.05922
 N12 N -0.25237 -0.16885 0.05879
 N13 N -0.18664 0.06294 0.14091
 N14 N -0.23205 0.11978 0.19496
 N15 N -0.24449 0.04761 0.05880
 N16 N -0.33508 0.09689 0.05515
 N17 N -0.13937 -0.09152 0.14267
 N18 N -0.15507 -0.14629 0.20067
 Mn19 Mn -0.04654 0.00362 0.16822
 C20 C -0.22532 -0.19384 0.14669
 C21 C -0.32190 0.13987 0.14075
 N22 N 0.23891 -0.05364 -0.06632
 N23 N 0.33494 -0.09818 -0.06726
 N24 N 0.13552 0.09045 -0.14653
 N25 N 0.15065 0.14712 -0.20139
 N26 N 0.19633 0.09971 -0.06533
 N27 N 0.25539 0.16251 -0.06265
 N28 N 0.18500 -0.06344 -0.15096
 N29 N 0.23774 -0.11317 -0.21135
 Mn30 Mn 0.19127 0.02470 0.03670
 C31 C 0.32832 -0.13355 -0.15822
 C32 C 0.22515 0.19142 -0.14727
 N33 N -0.19041 0.04269 -0.14710
 N34 N -0.27053 0.09027 -0.16730
 N35 N -0.04682 -0.09809 -0.20049
 N36 N -0.01573 -0.15763 -0.25644
 N37 N -0.13796 -0.11166 -0.14932
 N38 N -0.17193 -0.18630 -0.17134
 N39 N -0.09810 0.05438 -0.19750
 N40 N -0.11328 0.10959 -0.25466
 Mn41 Mn -0.19336 -0.03230 -0.04494
 Mn42 Mn 0.04379 -0.00383 -0.17497
 Cl43 Cl -0.00149 -0.00201 -0.00369
 C44 C -0.22158 0.13057 -0.23523
 C45 C -0.09303 -0.21036 -0.23896
 N46 N 0.75106 0.53153 0.55911
 N47 N 0.84413 0.57273 0.55774
 N48 N 0.62852 0.39212 0.62760
 N49 N 0.64755 0.33543 0.68118
 N50 N 0.67950 0.38181 0.54192
 N51 N 0.73611 0.31824 0.53543
 N52 N 0.69935 0.54328 0.64416
 N53 N 0.75443 0.59392 0.70248
 C54 C 0.84392 0.61152 0.64709
 C55 C 0.71338 0.28973 0.62211
 N56 N 0.31156 0.45586 0.65130
 N57 N 0.22940 0.40789 0.66726
 N58 N 0.47829 0.58768 0.70990
 N59 N 0.52587 0.64530 0.76068
 N60 N 0.38320 0.60737 0.66838
 N61 N 0.36308 0.67915 0.69114
 N62 N 0.40612 0.43733 0.69445
 N63 N 0.39089 0.37686 0.74186
 Mn64 Mn 0.55309 0.48998 0.67007
 C65 C 0.28020 0.35988 0.72479
 C66 C 0.45216 0.70101 0.75002
 N67 N 0.60882 0.39578 0.33966
 N68 N 0.63572 0.32668 0.30588
 N69 N 0.58782 0.56658 0.31581
 N70 N 0.60425 0.62642 0.26737
 N71 N 0.68210 0.54745 0.35891
 N72 N 0.76521 0.59460 0.34219
 N73 N 0.51415 0.41652 0.29846
 N74 N 0.47370 0.36248 0.23655
 Mn75 Mn 0.68163 0.46369 0.44927
 C76 C 0.55068 0.30755 0.24078
 C77 C 0.71525 0.64263 0.28403
 N78 N 0.31175 0.62141 0.46735
 N79 N 0.25346 0.68441 0.47265
 N80 N 0.29193 0.46352 0.36512
 N81 N 0.24471 0.40912 0.30861
 N82 N 0.24191 0.47058 0.45135
 N83 N 0.16004 0.41996 0.45592
 N84 N 0.36578 0.61221 0.38304
 N85 N 0.34685 0.66856 0.32913
 Mn86 Mn 0.31070 0.53905 0.56036
 Mn87 Mn 0.43987 0.51486 0.33983
 Cl88 Cl 0.49630 0.50173 0.50476
 C89 C 0.27827 0.71336 0.38653
 C90 C 0.16180 0.38313 0.36519
 N91 N 0.15212 0.27584 0.26601
 N92 N 0.10953 0.31203 0.34064
 N93 N 0.72653 0.73983 0.18051
 N94 N 0.77080 0.70654 0.25002
 N95 N 0.72564 0.19379 0.72753
 N96 N 0.76380 0.22330 0.65258
 N97 N 0.40134 0.82059 0.81009
 N98 N 0.47671 0.77633 0.78435
 N99 N 0.27265 0.25897 0.82236
 N100 N 0.22626 0.29461 0.75616
 N101 N 0.91492 0.72394 0.72260
 N102 N 0.93263 0.66180 0.68021
 N103 N 0.26560 0.80566 0.27693
 N104 N 0.22728 0.77886 0.35381
 N105 N 0.60812 0.18941 0.16917
 N106 N 0.53281 0.23516 0.19075
   
