data_POSCAR
  _audit_creation_date              2014-09-24
  _audit_creation_method            'ToBaCCo'
  _symmetry_space_group_name_H-M    'P1'
  _symmetry_Int_Tables_number       1
  _symmetry_cell_setting            triclinic
  loop_
  _symmetry_equiv_pos_as_xyz
 x,y,z
_cell_length_a 33.5724
_cell_length_b 22.7199
_cell_length_c 12.8926
_cell_angle_alpha 90.708600
_cell_angle_beta 89.734000
_cell_angle_gamma 90.111000
loop_
  _atom_site_label
  _atom_site_type_symbol
  _atom_site_fract_x
  _atom_site_fract_y
  _atom_site_fract_z
C1 C 0.72510 0.28380 0.55078
 C2 C 0.72542 0.28274 0.44059
 C3 C 0.75685 0.25554 0.38705
 C4 C 0.78971 0.23110 0.43834
 C5 C 0.78908 0.22992 0.54937
 C6 C 0.75670 0.25606 0.60264
 H7 H 0.75617 0.25496 0.68665
 H8 H 0.75651 0.25679 0.30295
 C9 C 0.21813 0.76768 0.55338
 C10 C 0.21769 0.76499 0.44347
 C11 C 0.24823 0.73542 0.39050
 C12 C 0.28018 0.71036 0.44319
 C13 C 0.28192 0.71454 0.55339
 C14 C 0.25065 0.74364 0.60638
 H15 H 0.25043 0.74484 0.69044
 H16 H 0.24800 0.73395 0.30634
 C17 C 0.29421 0.25458 -0.54899
 C18 C 0.28632 0.26264 -0.44188
 C19 C 0.25103 0.23995 -0.39889
 C20 C 0.22237 0.20816 -0.45794
 C21 C 0.22937 0.20529 -0.56694
 C22 C 0.26585 0.22431 -0.60876
 H23 H 0.27081 0.21990 -0.69170
 H24 H 0.24558 0.25073 -0.31829
 C25 C -0.21572 0.78180 -0.53802
 C26 C -0.22486 0.78990 -0.43228
 C27 C -0.26113 0.76980 -0.39284
 C28 C -0.28807 0.73557 -0.45279
 C29 C -0.27993 0.73187 -0.56151
 C30 C -0.24339 0.75272 -0.60139
 H31 H -0.23746 0.74981 -0.68411
 H32 H -0.26739 0.78100 -0.31275
 N33 N -0.04411 0.89071 -0.10035
 N34 N -0.07570 0.85602 -0.10677
 N35 N 0.03847 0.92588 -0.18657
 N36 N 0.06679 0.91533 -0.25534
 N37 N 0.03982 0.88769 -0.11106
 N38 N 0.06949 0.85027 -0.12595
 N39 N -0.04490 0.93025 -0.17373
 N40 N -0.07715 0.92451 -0.23068
 C41 C -0.09594 0.87803 -0.18838
 C42 C 0.08587 0.86833 -0.21633
 N43 N 0.04371 1.09487 -0.12936
 N44 N 0.07585 1.12702 -0.14683
 N45 N -0.04250 1.05543 -0.18623
 N46 N -0.07219 1.06312 -0.25110
 N47 N -0.04054 1.09899 -0.11882
 N48 N -0.06906 1.13765 -0.13588
 N49 N 0.04090 1.05194 -0.19796
 N50 N 0.07051 1.05421 -0.26517
 Mn51 Mn -0.00203 0.99079 -0.18709
 C52 C 0.09210 1.10100 -0.23201
 C53 C -0.08876 1.11430 -0.21830
 N54 N 0.04372 0.89513 0.11227
 N55 N 0.07169 0.85583 0.13030
 N56 N -0.03779 0.94232 0.19122
 N57 N -0.06445 0.93536 0.26568
 N58 N -0.03958 0.89836 0.12407
 N59 N -0.06714 0.86003 0.15186
 N60 N 0.04595 0.93897 0.17935
 N61 N 0.07569 0.93100 0.24414
 Mn62 Mn -0.00006 0.89215 0.00618
 C63 C 0.09156 0.87913 0.21230
 C64 C -0.08268 0.88403 0.23973
 N65 N -0.03614 1.10701 0.10341
 N66 N -0.06426 1.14665 0.11911
 N67 N 0.04865 1.06514 0.16678
 N68 N 0.08038 1.07391 0.22513
 N69 N 0.04752 1.10357 0.09169
 N70 N 0.07825 1.13974 0.09699
 N71 N -0.03508 1.06957 0.18016
 N72 N -0.06211 1.08327 0.25118
 Mn73 Mn 0.00359 1.10185 -0.01334
 Mn74 Mn 0.00541 1.00406 0.18069
 Cl75 Cl 0.00165 0.99714 -0.00311
 C76 C -0.08015 1.13113 0.21134
 C77 C 0.09870 1.12008 0.17956
 N78 N 0.54090 0.60162 -0.12125
 N79 N 0.57096 0.63796 -0.13804
 N80 N 0.45688 0.55645 -0.18146
 N81 N 0.42825 0.56436 -0.24909
 N82 N 0.45690 0.59862 -0.11107
 N83 N 0.42814 0.63681 -0.12955
 N84 N 0.54000 0.55985 -0.19228
 N85 N 0.56873 0.56704 -0.26066
 C86 C 0.58786 0.61560 -0.22544
 C87 C 0.41027 0.61422 -0.21551
 N88 N 0.46006 0.39051 -0.10980
 N89 N 0.42967 0.35378 -0.12182
 N90 N 0.54220 0.43372 -0.19146
 N91 N 0.57151 0.42831 -0.25909
 N92 N 0.54437 0.39297 -0.12041
 N93 N 0.57560 0.35872 -0.13787
 N94 N 0.45903 0.43133 -0.18081
 N95 N 0.42826 0.42401 -0.24234
 Mn96 Mn 0.49958 0.49528 -0.18716
 C97 C 0.41015 0.37559 -0.20518
 C98 C 0.59210 0.38133 -0.22517
 N99 N 0.46166 0.60140 0.11304
 N100 N 0.43135 0.63709 0.13030
 N101 N 0.54798 0.56499 0.17086
 N102 N 0.57963 0.57579 0.22891
 N103 N 0.54478 0.60504 0.09891
 N104 N 0.57372 0.64410 0.10597
 N105 N 0.46347 0.56089 0.18476
 N106 N 0.43380 0.56719 0.25167
 Mn107 Mn 0.50090 0.60232 -0.00496
 C108 C 0.41428 0.61511 0.21673
 C109 C 0.59559 0.62484 0.18608
 N110 N 0.54811 0.39470 0.10449
 N111 N 0.57671 0.35606 0.12078
 N112 N 0.46645 0.43339 0.18866
 N113 N 0.44125 0.42111 0.26462
 N114 N 0.46462 0.39280 0.11518
 N115 N 0.43781 0.35247 0.13837
 N116 N 0.54985 0.43776 0.17344
 N117 N 0.57999 0.43016 0.23720
 Mn118 Mn 0.50422 0.39188 -0.00269
 Mn119 Mn 0.50700 0.49942 0.18089
 Cl120 Cl 0.50284 0.49703 -0.00311
 C121 C 0.59645 0.37918 0.20316
 C122 C 0.42346 0.37078 0.23147
 C123 C 0.32454 0.30279 0.29527
 C124 C 0.32930 0.28059 0.39553
 C125 C 0.36837 0.28191 0.43638
 C126 C 0.39933 0.31209 0.38417
 C127 C 0.39218 0.33919 0.28824
 C128 C 0.35518 0.33027 0.24230
 C129 C 0.32756 0.37392 0.19561
 C130 C 0.29393 0.34367 0.25382
 H131 H 0.37484 0.26144 0.50964
 H132 H 0.42857 0.31473 0.41904
 H133 H 0.32546 0.36838 0.11002
 H134 H 0.33333 0.41971 0.22320
 H135 H 0.27248 0.32074 0.20168
 H136 H 0.28021 0.37180 0.31545
 C137 C -0.16787 0.86513 0.42876
 C138 C -0.17869 0.80588 0.41494
 C139 C -0.15420 0.77053 0.35055
 C140 C -0.12209 0.79534 0.29536
 C141 C -0.11381 0.85606 0.30345
 C142 C -0.13605 0.88947 0.37451
 C143 C -0.15780 0.94555 0.35627
 C144 C -0.19256 0.91924 0.41536
 H145 H -0.16087 0.72420 0.33984
 H146 H -0.10470 0.76749 0.24369
 H147 H -0.16427 0.95275 0.27286
 H148 H -0.14370 0.98351 0.39692
 H149 H -0.21926 0.91122 0.36639
 H150 H -0.19851 0.94299 0.48951
 C151 C 0.65451 0.74129 0.36935
 C152 C 0.69142 0.71474 0.36706
 C153 C 0.69860 0.67123 0.28872
 C154 C 0.66817 0.64449 0.22658
 C155 C 0.62750 0.66001 0.23268
 C156 C 0.61778 0.70773 0.29431
 C157 C 0.57053 0.73158 0.38279
 C158 C 0.61470 0.77612 0.48196
 H159 H 0.72825 0.65281 0.28179
 H160 H 0.67660 0.60801 0.17633
 H161 H 0.55009 0.69529 0.40496
 H162 H 0.55049 0.76328 0.34267
 H163 H 0.61568 0.76604 0.56630
 H164 H 0.61296 0.82535 0.48034
 C165 C 0.16422 1.22450 0.36882
 C166 C 0.19939 1.19329 0.36250
 C167 C 0.20395 1.15200 0.27930
 C168 C 0.17205 1.13153 0.21532
 C169 C 0.13242 1.15151 0.22500
 C170 C 0.12545 1.19739 0.29303
 C171 C 0.08015 1.22334 0.38605
 C172 C 0.12687 1.25999 0.48681
 H173 H 0.23243 1.13028 0.26926
 H174 H 0.17825 1.09589 0.16108
 H175 H 0.05815 1.18858 0.40561
 H176 H 0.06146 1.25830 0.35012
 H177 H 0.12761 1.24736 0.57002
 H178 H 0.12755 1.30931 0.48988
 C179 C 0.68216 0.28831 -0.29396
 C180 C 0.69487 0.31171 -0.38913
 C181 C 0.67752 0.36579 -0.41767
 C182 C 0.64494 0.38937 -0.36226
 C183 C 0.62896 0.36003 -0.27577
 C184 C 0.64990 0.31148 -0.23933
 C185 C 0.63534 0.25215 -0.20856
 C186 C 0.67065 0.22663 -0.26802
 H187 H 0.68907 0.39056 -0.48198
 H188 H 0.63151 0.42959 -0.38950
 H189 H 0.60610 0.24077 -0.24379
 H190 H 0.63726 0.24556 -0.12345
 H191 H 0.66192 0.20027 -0.33757
 H192 H 0.69286 0.20536 -0.21704
 C193 C 0.14497 0.78420 -0.41533
 C194 C 0.18458 0.79359 -0.38561
 C195 C 0.19131 0.83071 -0.29864
 C196 C 0.15907 0.85397 -0.24093
 C197 C 0.11964 0.84027 -0.26882
 C198 C 0.11330 0.80796 -0.35983
 C199 C 0.08854 0.75401 -0.37627
 C200 C 0.12332 0.72809 -0.43711
 H201 H 0.22138 0.84168 -0.27526
 H202 H 0.16490 0.88240 -0.17465
 H203 H 0.06208 0.76275 -0.42523
 H204 H 0.08210 0.73053 -0.30286
 H205 H 0.11674 0.72188 -0.52090
 H206 H 0.13726 0.68967 -0.39898
 C207 C 0.33171 0.63739 -0.41827
 C208 C 0.31377 0.69083 -0.38905
 C209 C 0.32978 0.72090 -0.30153
 C210 C 0.36172 0.69713 -0.24518
 C211 C 0.37780 0.64210 -0.27332
 C212 C 0.36295 0.61394 -0.36194
 C213 C 0.34719 0.55278 -0.37056
 C214 C 0.31249 0.57798 -0.42947
 H215 H 0.31823 0.76343 -0.27757
 H216 H 0.37320 0.72118 -0.17870
 H217 H 0.33858 0.53405 -0.29435
 H218 H 0.36681 0.52440 -0.41950
 H219 H 0.28372 0.57494 -0.38675
 H220 H 0.31156 0.56106 -0.51031
 C221 C -0.16385 1.14849 -0.42507
 C222 C -0.18132 1.20146 -0.39146
 C223 C -0.16643 1.22677 -0.29827
 C224 C -0.13635 1.19870 -0.24121
 C225 C -0.12101 1.14394 -0.27427
 C226 C -0.13456 1.12078 -0.36855
 C227 C -0.15074 1.06112 -0.39394
 C228 C -0.18264 1.09158 -0.45698
 H229 H -0.17723 1.26901 -0.27046
 H230 H -0.12551 1.21953 -0.17079
 H231 H -0.16276 1.03843 -0.32462
 H232 H -0.12961 1.03475 -0.44197
 H233 H -0.21320 1.08613 -0.42485
 H234 H -0.17965 1.08300 -0.54168
 C235 C 0.64906 0.67070 -0.44836
 C236 C 0.68160 0.70158 -0.40026
 C237 C 0.68485 0.69210 -0.29045
 C238 C 0.65479 0.66453 -0.23214
 C239 C 0.62106 0.64230 -0.28129
 C240 C 0.62033 0.64369 -0.38809
 C241 C 0.58681 0.65327 -0.45803
 C242 C 0.61741 0.67899 -0.53638
 H243 H 0.71083 0.70474 -0.24658
 H244 H 0.65799 0.66074 -0.14892
 H245 H 0.56579 0.68604 -0.42379
 H246 H 0.57269 0.61122 -0.48379
 H247 H 0.60881 0.78534 -0.65854
 H248 H 0.62396 0.63768 -0.58254
 C249 C 0.15652 1.14958 -0.45455
 C250 C 0.19044 1.17698 -0.40570
 C251 C 0.19297 1.16708 -0.29602
 C252 C 0.16160 1.14221 -0.23832
 C253 C 0.12712 1.12286 -0.28793
 C254 C 0.12668 1.12433 -0.39489
 C255 C 0.09354 1.13865 -0.46351
 C256 C 0.12487 1.16347 -0.54066
 H257 H 0.21923 1.17767 -0.25169
 H258 H 0.16430 1.13851 -0.15495
 H259 H 0.07393 1.17232 -0.42634
 H260 H 0.07769 1.09857 -0.49205
 H261 H 0.12068 1.27424 -0.65214
 H262 H 0.12939 1.12309 -0.59096
 C263 C 0.32850 0.26929 -0.28244
 C264 C 0.31318 0.29564 -0.37147
 C265 C 0.32376 0.35448 -0.39016
 C266 C 0.35392 0.38177 -0.33130
 C267 C 0.37361 0.35105 -0.25189
 C268 C 0.35820 0.29626 -0.22409
 C269 C 0.37879 0.23921 -0.20556
 C270 C 0.34611 0.20965 -0.26899
 H271 H 0.31082 0.37775 -0.45459
 H272 H 0.36359 0.42537 -0.35269
 H273 H 0.37811 0.22697 -0.12237
 H274 H 0.40862 0.23689 -0.24323
 H275 H 0.32651 0.18066 -0.22217
 H276 H 0.35698 0.18992 -0.34320
 C277 C -0.16918 0.77361 -0.30883
 C278 C -0.19541 0.81227 -0.35719
 C279 C -0.19486 0.87164 -0.32529
 C280 C -0.16341 0.89305 -0.26351
 C281 C -0.13355 0.85462 -0.22854
 C282 C -0.13895 0.79430 -0.24512
 C283 C -0.11044 0.74864 -0.28394
 C284 C -0.14370 0.72583 -0.35347
 H285 H -0.21706 0.90188 -0.35346
 H286 H -0.16121 0.93985 -0.24785
 H287 H -0.10206 0.71722 -0.22238
 H288 H -0.08500 0.76779 -0.32768
 H289 H -0.15454 0.68140 -0.33166
 H290 H -0.13734 0.73148 -0.43739
 C291 C 0.34607 0.72198 0.35339
 C292 C 0.31307 0.68707 0.37808
 C293 C 0.31024 0.63133 0.32945
 C294 C 0.34335 0.60721 0.27634
 C295 C 0.37857 0.64034 0.26530
 C296 C 0.37787 0.69932 0.29701
 C297 C 0.40749 0.73457 0.35743
 C298 C 0.37254 0.75967 0.41916
 H299 H 0.28355 0.60502 0.33865
 H300 H 0.34180 0.56253 0.24635
 H301 H 0.42277 0.76786 0.30882
 H302 H 0.42756 0.70662 0.40429
 H303 H 0.36769 0.80734 0.40571
 H304 H 0.37292 0.74673 0.50184
 C305 C -0.18221 1.18818 0.27758
 C306 C -0.17702 1.21380 0.37651
 C307 C -0.13708 1.22377 0.40774
 C308 C -0.10512 1.19757 0.35309
 C309 C -0.11225 1.16377 0.26309
 C310 C -0.15062 1.16381 0.22233
 C311 C -0.17530 1.11385 0.18257
 C312 C -0.21006 1.14060 0.24258
 H313 H -0.13049 1.24933 0.47696
 H314 H -0.07515 1.20207 0.38298
 H315 H -0.16557 1.07063 0.21306
 H316 H -0.17918 1.11538 0.09708
 H317 H -0.22074 1.11279 0.30741
 H318 H -0.23387 1.15762 0.19146
 C319 C 0.65939 0.27265 0.35211
 C320 C 0.69307 0.30646 0.37590
 C321 C 0.69818 0.36000 0.32323
 C322 C 0.66693 0.38338 0.26408
 C323 C 0.63112 0.35183 0.25158
 C324 C 0.62913 0.29475 0.29065
 C325 C 0.59748 0.26626 0.35444
 C326 C 0.63060 0.24209 0.42177
 H327 H 0.72525 0.38536 0.33344
 H328 H 0.67020 0.42675 0.23114
 H329 H 0.58128 0.23148 0.31024
 H330 H 0.57819 0.29879 0.39567
 H331 H 0.63343 0.19342 0.41631
 H332 H 0.63021 0.26049 0.50201
 C333 C 0.17760 0.85351 0.39158
 C334 C 0.18664 0.79387 0.38080
 C335 C 0.16435 0.76205 0.30562
 C336 C 0.13369 0.78975 0.24856
 C337 C 0.12468 0.85000 0.26512
 C338 C 0.14813 0.87982 0.33727
 C339 C 0.15485 0.93858 0.38642
 C340 C 0.18842 0.90902 0.44782
 H341 H 0.16998 0.71562 0.29273
 H342 H 0.11667 0.76377 0.19343
 H343 H 0.12925 0.95281 0.43558
 H344 H 0.16573 0.97160 0.32997
 H345 H 0.18209 0.90741 0.53226
 H346 H 0.21867 0.92489 0.42661
   
