data_POSCAR
  _audit_creation_date              2014-09-24
  _audit_creation_method            'ToBaCCo'
  _symmetry_space_group_name_H-M    'P1'
  _symmetry_Int_Tables_number       1
  _symmetry_cell_setting            triclinic
  loop_
  _symmetry_equiv_pos_as_xyz
 x,y,z
_cell_length_a 24.6704
_cell_length_b 25.0346
_cell_length_c 48.6794
_cell_angle_alpha 90.052600
_cell_angle_beta 90.479000
_cell_angle_gamma 123.168900
loop_
  _atom_site_label
  _atom_site_type_symbol
  _atom_site_fract_x
  _atom_site_fract_y
  _atom_site_fract_z
C1 C -0.00723 -0.00740 0.51740
 C2 C 0.99250 -0.02178 0.15656
 C3 C 0.00410 1.00312 0.82989
 O4 O 0.59390 0.06354 -0.03479
 O5 O 0.48997 0.07028 0.01731
 O6 O 0.59785 0.07299 0.01849
 O7 O 0.49625 0.07660 -0.03593
 O8 O 0.43109 -0.02834 -0.03414
 O9 O 0.54078 -0.03231 0.01660
 O10 O 0.43194 -0.03484 0.01902
 O11 O 0.52821 -0.04144 -0.03630
 Cu12 Cu 0.55070 0.08128 -0.00863
 Cu13 Cu 0.47671 -0.04472 -0.00846
 C14 C 0.57825 0.00967 -0.04460
 C15 C 0.44236 0.01840 0.02681
 C16 C 0.58864 0.02019 0.02598
 C17 C 0.44551 0.02503 -0.04388
 O18 O 0.07538 0.59311 0.69786
 O19 O 0.06250 0.47441 0.64891
 O20 O 0.07142 0.58323 0.64493
 O21 O 0.07979 0.49085 0.70158
 O22 O -0.02705 0.43093 0.70258
 O23 O -0.03429 0.53316 0.65028
 O24 O -0.04407 0.42390 0.64981
 O25 O -0.03052 0.53457 0.70333
 Cu26 Cu 0.08290 0.54086 0.67308
 Cu27 Cu -0.04463 0.47507 0.67696
 C28 C 0.02442 0.58463 0.70863
 C29 C 0.00669 0.42891 0.64093
 C30 C 0.01768 0.57586 0.63869
 C31 C 0.02777 0.44314 0.71077
 O32 O 0.56369 0.52487 0.36109
 O33 O 0.44014 0.41434 0.31119
 O34 O 0.55594 0.51936 0.30803
 O35 O 0.44977 0.41653 0.36409
 O36 O 0.40187 0.46953 0.36396
 O37 O 0.51153 0.57541 0.31041
 O38 O 0.39698 0.47182 0.31114
 O39 O 0.51637 0.57818 0.36391
 Cu40 Cu 0.50707 0.46334 0.33606
 Cu41 Cu 0.45243 0.52954 0.33773
 C42 C 0.56182 0.57101 0.37071
 C43 C 0.39731 0.42397 0.30273
 C44 C 0.55220 0.56547 0.29986
 C45 C 0.40569 0.42384 0.37264
 C46 C 0.04038 0.11727 0.57418
 C47 C 0.00793 0.14719 0.56663
 C48 C -0.03611 0.12111 0.54415
 C49 C -0.04301 0.07015 0.52865
 C50 C -0.00994 0.04089 0.53622
 C51 C 0.03211 0.06604 0.55915
 C52 C -0.07219 0.14679 0.53699
 C53 C -0.06655 0.19692 0.55205
 C54 C -0.02221 0.22535 0.57423
 C55 C 0.01795 0.20211 0.58065
 C56 C 0.06823 0.23572 0.60026
 C57 C 0.07742 0.28867 0.61395
 C58 C 0.03576 0.30910 0.60938
 C59 C -0.01547 0.27720 0.58985
 C60 C -0.05876 0.29755 0.58739
 C61 C -0.05109 0.34736 0.60368
 C62 C 0.00073 0.37947 0.62231
 C63 C 0.04444 0.36064 0.62478
 H64 H 0.07237 0.13198 0.59175
 H65 H -0.07285 0.05469 0.51025
 H66 H 0.06071 0.04710 0.56517
 H67 H -0.10583 0.12738 0.51975
 H68 H -0.09600 0.21405 0.54516
 H69 H 0.10297 0.22355 0.60487
 H70 H 0.11695 0.31319 0.62870
 H71 H -0.10041 0.27435 0.57386
 H72 H -0.08599 0.36068 0.60178
 H73 H 0.08369 0.38433 0.63971
 C74 C 0.90199 0.81633 0.19633
 C75 C 0.84089 0.80667 0.20158
 C76 C 0.82954 0.85221 0.19092
 C77 C 0.87749 0.90515 0.17638
 C78 C 0.93829 0.91490 0.17067
 C79 C 0.94938 0.86923 0.18145
 C80 C 0.77062 0.84600 0.19523
 C81 C 0.72295 0.79656 0.21076
 C82 C 0.73239 0.75113 0.22299
 C83 C 0.79166 0.75519 0.21780
 C84 C 0.79993 0.70835 0.22936
 C85 C 0.75336 0.66089 0.24632
 C86 C 0.69668 0.65801 0.25251
 C87 C 0.68495 0.70257 0.24066
 C88 C 0.62680 0.69771 0.24766
 C89 C 0.58371 0.65226 0.26623
 C90 C 0.59619 0.60942 0.27841
 C91 C 0.65223 0.61164 0.27101
 H92 H 0.91561 0.78495 0.20408
 H93 H 0.86652 0.93949 0.17029
 H94 H 0.99638 0.87587 0.17984
 H95 H 0.76137 0.88034 0.18673
 H96 H 0.67928 0.79597 0.21291
 H97 H 0.84236 0.70727 0.22586
 H98 H 0.76238 0.62661 0.25507
 H99 H 0.61334 0.72900 0.23972
 H100 H 0.54056 0.65135 0.27134
 H101 H 0.66244 0.57871 0.28034
 C102 C 0.08565 -0.03251 -0.11451
 C103 C 0.15113 0.00275 -0.12202
 C104 C 0.17023 0.04680 -0.14383
 C105 C 0.12339 0.04988 -0.15936
 C106 C 0.05710 0.01221 -0.15236
 C107 C 0.04015 -0.02839 -0.12941
 C108 C 0.23585 0.08653 -0.15017
 C109 C 0.28270 0.08433 -0.13489
 C110 C 0.26521 0.03955 -0.11358
 C111 C 0.19803 -0.00433 -0.10830
 C112 C 0.17944 -0.05540 -0.09015
 C113 C 0.22502 -0.06105 -0.07613
 C114 C 0.29077 -0.01528 -0.07905
 C115 C 0.31218 0.03611 -0.09760
 C116 C 0.37951 0.08285 -0.09859
 C117 C 0.42305 0.07874 -0.08154
 C118 C 0.40110 0.02730 -0.06358
 C119 C 0.33507 -0.02012 -0.06289
 H120 H 0.06784 -0.06362 -0.09697
 H121 H 0.13870 0.07991 -0.17736
 H122 H -0.00991 -0.05958 -0.12335
 H123 H 0.25128 0.12045 -0.16682
 H124 H 0.33230 0.11674 -0.14093
 H125 H 0.12962 -0.09331 -0.08701
 H126 H 0.20847 -0.10101 -0.06236
 H127 H 0.39961 0.12440 -0.11145
 H128 H 0.47402 0.11629 -0.08222
 H129 H 0.31762 -0.05946 -0.04866
 C130 C -0.04837 0.86606 0.57202
 C131 C -0.01417 0.83859 0.56371
 C132 C 0.02777 0.86598 0.54099
 C133 C 0.03144 0.91620 0.52621
 C134 C -0.00259 0.94360 0.53481
 C135 C -0.04311 0.91669 0.55774
 C136 C 0.06531 0.84262 0.53301
 C137 C 0.06370 0.79404 0.54764
 C138 C 0.02212 0.76487 0.57023
 C139 C -0.02001 0.78519 0.57734
 C140 C -0.06770 0.75057 0.59740
 C141 C -0.07185 0.70005 0.61116
 C142 C -0.02769 0.68309 0.60611
 C143 C 0.02045 0.71547 0.58580
 C144 C 0.06619 0.69843 0.58266
 C145 C 0.06437 0.65199 0.59933
 C146 C 0.01615 0.61998 0.61909
 C147 C -0.03049 0.63490 0.62194
 H148 H -0.07916 0.85012 0.58974
 H149 H 0.05990 0.93284 0.50769
 H150 H -0.07242 0.93418 0.56447
 H151 H 0.09722 0.86292 0.51554
 H152 H 0.09427 0.77887 0.54021
 H153 H -0.10396 0.76024 0.60247
 H154 H -0.10924 0.67493 0.62642
 H155 H 0.10559 0.72202 0.56838
 H156 H 0.10138 0.64165 0.59699
 H157 H -0.06715 0.61128 0.63761
 C158 C 0.08843 0.05804 0.22372
 C159 C 0.12013 0.12380 0.21842
 C160 C 0.10197 0.14206 0.19437
 C161 C 0.05848 0.09574 0.17524
 C162 C 0.02949 0.02961 0.17974
 C163 C 0.04519 0.01258 0.20479
 C164 C 0.12924 0.20664 0.18898
 C165 C 0.17456 0.25357 0.20690
 C166 C 0.19648 0.23774 0.23051
 C167 C 0.17015 0.17176 0.23587
 C168 C 0.19688 0.15587 0.25766
 C169 C 0.24721 0.20257 0.27380
 C170 C 0.27171 0.26687 0.26952
 C171 C 0.24563 0.28560 0.24838
 C172 C 0.26978 0.35147 0.24625
 C173 C 0.31874 0.39641 0.26393
 C174 C 0.34603 0.37739 0.28381
 C175 C 0.32224 0.31258 0.28648
 H176 H 0.09627 0.03979 0.24232
 H177 H 0.05166 0.11221 0.15577
 H178 H 0.02635 -0.03622 0.20999
 H179 H 0.11552 0.22117 0.17062
 H180 H 0.19376 0.30220 0.20102
 H181 H 0.18179 0.10753 0.26215
 H182 H 0.26699 0.18805 0.28994
 H183 H 0.25081 0.36957 0.23158
 H184 H 0.33581 0.44632 0.26187
 H185 H 0.34206 0.29747 0.30237
 C186 C 0.92772 0.05188 -0.11557
 C187 C 0.86202 0.01872 -0.12331
 C188 C 0.84026 -0.02701 -0.14479
 C189 C 0.88484 -0.03422 -0.15964
 C190 C 0.95091 0.00014 -0.15202
 C191 C 0.97079 0.04322 -0.12969
 C192 C 0.77428 -0.06459 -0.15135
 C193 C 0.72953 -0.05910 -0.13640
 C194 C 0.74967 -0.01304 -0.11525
 C195 C 0.81740 0.02918 -0.10999
 C196 C 0.83873 0.08166 -0.09213
 C197 C 0.79521 0.08994 -0.07816
 C198 C 0.72891 0.04548 -0.08084
 C199 C 0.70484 -0.00695 -0.09928
 C200 C 0.63715 -0.05230 -0.10005
 C201 C 0.59582 -0.04616 -0.08276
 C202 C 0.62034 0.00606 -0.06479
 C203 C 0.68672 0.05243 -0.06446
 H204 H 0.94744 0.08443 -0.09835
 H205 H 0.86820 -0.06538 -0.17746
 H206 H 1.02115 0.07254 -0.12341
 H207 H 0.75688 -0.09961 -0.16780
 H208 H 0.67942 -0.09017 -0.14249
 H209 H 0.88918 0.11850 -0.08911
 H210 H 0.81381 0.13075 -0.06452
 H211 H 0.61512 -0.09447 -0.11283
 H212 H 0.54452 -0.08287 -0.08319
 H213 H 0.70614 0.09237 -0.05025
 C214 C 0.07943 -0.08899 0.11620
 C215 C 0.14187 -0.03382 0.11175
 C216 C 0.15332 0.02505 0.12100
 C217 C 0.10520 0.02777 0.13473
 C218 C 0.04456 -0.02754 0.14109
 C219 C 0.03194 -0.08561 0.13016
 C220 C 0.21278 0.08166 0.11637
 C221 C 0.26157 0.08150 0.10258
 C222 C 0.25305 0.02428 0.09279
 C223 C 0.19251 -0.03453 0.09779
 C224 C 0.18480 -0.09191 0.08873
 C225 C 0.23334 -0.09190 0.07444
 C226 C 0.29164 -0.03493 0.06862
 C227 C 0.30281 0.02400 0.07792
 C228 C 0.36307 0.08031 0.07145
 C229 C 0.40882 0.07805 0.05571
 C230 C 0.39678 0.01985 0.04600
 C231 C 0.33844 -0.03663 0.05304
 H232 H 0.06502 -0.13542 0.10859
 H233 H 0.11597 0.07432 0.14007
 H234 H -0.01570 -0.12892 0.13150
 H235 H 0.22180 0.12695 0.12346
 H236 H 0.30564 0.12753 0.10000
 H237 H 0.14159 -0.13805 0.09244
 H238 H 0.22480 -0.13716 0.06762
 H239 H 0.37623 0.12722 0.07771
 H240 H 0.45345 0.12245 0.05068
 H241 H 0.32836 -0.08210 0.04562
 C242 C 0.81460 0.88212 0.49250
 C243 C 0.82110 0.85256 0.46906
 C244 C 0.88441 0.87085 0.46175
 C245 C 0.93837 0.91868 0.47643
 C246 C 0.93204 0.94900 0.49939
 C247 C 0.86894 0.92814 0.50772
 C248 C 0.89392 0.84030 0.44019
 C249 C 0.84168 0.79010 0.42619
 C250 C 0.77752 0.76967 0.43268
 C251 C 0.76716 0.80379 0.45332
 C252 C 0.70361 0.78890 0.45701
 C253 C 0.65188 0.74166 0.44131
 C254 C 0.66086 0.70544 0.42229
 C255 C 0.72352 0.71745 0.41850
 C256 C 0.72955 0.67603 0.40092
 C257 C 0.67636 0.62745 0.38640
 C258 C 0.61543 0.61860 0.38863
 C259 C 0.60772 0.65735 0.40687
 H260 H 0.76795 0.86816 0.50041
 H261 H 0.98602 0.93058 0.47057
 H262 H 0.86107 0.94580 0.52655
 H263 H 0.94239 0.85458 0.43438
 H264 H 0.85328 0.76958 0.40961
 H265 H 0.69285 0.81486 0.47123
 H266 H 0.60417 0.73285 0.44437
 H267 H 0.77453 0.67912 0.39834
 H268 H 0.68350 0.59770 0.37273
 H269 H 0.56037 0.64991 0.40915
 C270 C -0.02168 0.08509 0.77157
 C271 C 0.01323 0.14929 0.78016
 C272 C 0.05614 0.16692 0.80284
 C273 C 0.05768 0.11994 0.81819
 C274 C 0.01888 0.05460 0.81064
 C275 C -0.01977 0.03915 0.78662
 C276 C 0.09540 0.23110 0.81061
 C277 C 0.09291 0.27795 0.79628
 C278 C 0.04843 0.26191 0.77440
 C279 C 0.00600 0.19610 0.76712
 C280 C -0.04446 0.17861 0.74796
 C281 C -0.05171 0.22397 0.73544
 C282 C -0.00800 0.28864 0.74079
 C283 C 0.04350 0.30898 0.75995
 C284 C 0.08867 0.37556 0.76319
 C285 C 0.08286 0.41944 0.74778
 C286 C 0.03093 0.39850 0.72940
 C287 C -0.01488 0.33310 0.72643
 H288 H -0.05188 0.06840 0.75338
 H289 H 0.08649 0.13418 0.83689
 H290 H -0.05245 -0.00982 0.77997
 H291 H 0.12861 0.24533 0.82790
 H292 H 0.12451 0.32627 0.80363
 H293 H -0.08100 0.12967 0.74294
 H294 H -0.09148 0.20819 0.72101
 H295 H 0.13043 0.39502 0.77657
 H296 H 0.11947 0.46992 0.75000
 H297 H -0.05417 0.31658 0.71165
 C298 C 0.89285 -0.03630 0.09226
 C299 C 0.86427 -0.00272 0.09978
 C300 C 0.88754 0.03483 0.12399
 C301 C 0.93258 0.03309 0.14125
 C302 C 0.95762 -0.00450 0.13476
 C303 C 0.93758 -0.03764 0.10944
 C304 C 0.86323 0.07148 0.13169
 C305 C 0.81577 0.07123 0.11600
 C306 C 0.78885 0.03232 0.09233
 C307 C 0.81230 -0.00662 0.08453
 C308 C 0.78095 -0.05042 0.06261
 C309 C 0.72905 -0.05562 0.04858
 C310 C 0.70741 -0.01618 0.05515
 C311 C 0.73788 0.02949 0.07667
 C312 C 0.71656 0.07104 0.08127
 C313 C 0.66717 0.06695 0.06521
 C314 C 0.63629 0.02050 0.04458
 C315 C 0.65611 -0.02142 0.03987
 H316 H 0.88090 -0.06310 0.07337
 H317 H 0.94222 0.05582 0.16118
 H318 H 0.95367 -0.06794 0.10306
 H319 H 0.88080 0.10046 0.15022
 H320 H 0.79913 0.10014 0.12370
 H321 H 0.79390 -0.08325 0.05634
 H322 H 0.70600 -0.09057 0.03214
 H323 H 0.73853 0.10870 0.09643
 H324 H 0.65331 0.10061 0.06881
 H325 H 0.63359 -0.05623 0.02334
 C326 C 0.16840 0.10624 0.49178
 C327 C 0.15927 0.13635 0.46925
 C328 C 0.09504 0.11703 0.46260
 C329 C 0.04268 0.06767 0.47696
 C330 C 0.05159 0.03703 0.49911
 C331 C 0.11567 0.05889 0.50684
 C332 C 0.08301 0.14822 0.44213
 C333 C 0.13364 0.20007 0.42866
 C334 C 0.19860 0.22147 0.43451
 C335 C 0.21150 0.18670 0.45385
 C336 C 0.27573 0.20254 0.45658
 C337 C 0.32567 0.25116 0.44110
 C338 C 0.31422 0.28797 0.42341
 C339 C 0.25090 0.27521 0.42083
 C340 C 0.24246 0.31733 0.40488
 C341 C 0.29377 0.36701 0.39046
 C342 C 0.35511 0.37632 0.39119
 C343 C 0.36542 0.33718 0.40806
 H344 H 0.21596 0.12091 0.49920
 H345 H -0.00571 0.05509 0.47164
 H346 H 0.12555 0.04104 0.52514
 H347 H 0.03382 0.13320 0.43682
 H348 H 0.12020 0.22109 0.41291
 H349 H 0.28828 0.17618 0.46975
 H350 H 0.37392 0.26056 0.44327
 H351 H 0.19694 0.31375 0.40348
 H352 H 0.28464 0.39703 0.37789
 H353 H 0.41314 0.34494 0.40918
 C354 C -0.06693 0.82588 0.81013
 C355 C -0.02287 0.83261 0.78975
 C356 C 0.02572 0.89525 0.78177
 C357 C 0.02868 0.94794 0.79313
 C358 C -0.01404 0.94165 0.81382
 C359 C -0.06160 0.87947 0.82234
 C360 C 0.07307 0.90578 0.76312
 C361 C 0.07520 0.85542 0.75293
 C362 C 0.02860 0.79199 0.76040
 C363 C -0.02346 0.77995 0.77775
 C364 C -0.07458 0.71596 0.78198
 C365 C -0.07470 0.66560 0.76964
 C366 C -0.02251 0.67682 0.75379
 C367 C 0.03116 0.74010 0.75005
 C368 C 0.08560 0.74901 0.73613
 C369 C 0.08425 0.69776 0.72420
 C370 C 0.02880 0.63590 0.72564
 C371 C -0.02393 0.62541 0.74116
 H372 H -0.10356 0.77997 0.81821
 H373 H 0.06765 0.99524 0.78698
 H374 H -0.09280 0.87189 0.83939
 H375 H 0.10992 0.95377 0.75676
 H376 H 0.11291 0.86761 0.73837
 H377 H -0.11659 0.70352 0.79386
 H378 H -0.11590 0.61732 0.77272
 H379 H 0.13024 0.79505 0.73430
 H380 H 0.12616 0.70721 0.71282
 H381 H -0.06658 0.57746 0.74295
   
