data_POSCAR
  _audit_creation_date              2014-09-24
  _audit_creation_method            'ToBaCCo'
  _symmetry_space_group_name_H-M    'P1'
  _symmetry_Int_Tables_number       1
  _symmetry_cell_setting            triclinic
  loop_
  _symmetry_equiv_pos_as_xyz
 x,y,z
_cell_length_a 52.2804
_cell_length_b 50.9682
_cell_length_c 51.5547
_cell_angle_alpha 93.177000
_cell_angle_beta 92.145200
_cell_angle_gamma 89.867100
loop_
  _atom_site_label
  _atom_site_type_symbol
  _atom_site_fract_x
  _atom_site_fract_y
  _atom_site_fract_z
N1 N 0.59349 0.66156 0.60345
 N2 N 0.57809 0.64444 0.61294
 C3 C 0.55497 0.65556 0.61615
 C4 C 0.55601 0.68111 0.60849
 C5 C 0.58077 0.68427 0.60059
 H6 H 0.53878 0.64596 0.62403
 H7 H 0.58874 0.70162 0.59280
 Cu8 Cu 0.58976 0.60969 0.62160
 Cu9 Cu 0.62818 0.65238 0.59376
 Cu10 Cu 0.65219 0.59461 0.61651
 N11 N 0.60554 0.58138 0.64027
 N12 N 0.63007 0.57620 0.63896
 C13 C 0.63625 0.55719 0.65515
 C14 C 0.61432 0.54983 0.66737
 C15 C 0.59514 0.56564 0.65716
 H16 H 0.65537 0.54944 0.65769
 H17 H 0.57530 0.56657 0.66232
 N18 N 0.67136 0.61650 0.59375
 N19 N 0.66258 0.63907 0.58575
 C20 C 0.67957 0.64899 0.56989
 C21 C 0.69988 0.63165 0.56760
 C22 C 0.69402 0.61130 0.58302
 H23 H 0.67674 0.66676 0.55962
 H24 H 0.70521 0.59374 0.58581
 H25 H 0.62486 0.61191 0.59223
 H26 H 0.63205 0.62892 0.62500
 N27 N 0.90377 0.33068 0.10736
 N28 N 0.91290 0.34075 0.12980
 C29 C 0.93420 0.32753 0.13671
 C30 C 0.93899 0.30831 0.11731
 C31 C 0.91919 0.31110 0.09893
 H32 H 0.94563 0.33204 0.15427
 H33 H 0.91570 0.29930 0.08109
 Cu34 Cu 0.89647 0.37075 0.14729
 Cu35 Cu 0.87185 0.34277 0.09134
 Cu36 Cu 0.84135 0.39516 0.12305
 N37 N 0.87926 0.40019 0.16485
 N38 N 0.85738 0.40921 0.15559
 C39 C 0.84932 0.42900 0.17165
 C40 C 0.86726 0.43281 0.19190
 C41 C 0.88604 0.41422 0.18694
 H42 H 0.83195 0.44014 0.16857
 H43 H 0.90315 0.41099 0.19876
 N44 N 0.82818 0.37821 0.08993
 N45 N 0.83939 0.35778 0.07828
 C46 C 0.82528 0.34998 0.05685
 C47 C 0.80442 0.36652 0.05473
 C48 C 0.80690 0.38424 0.07595
 H49 H 0.82995 0.33371 0.04352
 H50 H 0.79383 0.40001 0.08103
 H51 H 0.87443 0.38108 0.10658
 H52 H 0.85606 0.35763 0.12530
 N53 N 0.39793 0.17997 -0.10320
 N54 N 0.40674 0.16849 -0.12452
 C55 C 0.42710 0.18206 -0.13179
 C56 C 0.43143 0.20298 -0.11390
 C57 C 0.41257 0.20100 -0.09599
 H58 H 0.43830 0.17688 -0.14853
 H59 H 0.40955 0.21407 -0.07914
 Cu60 Cu 0.39122 0.13647 -0.14019
 Cu61 Cu 0.36791 0.16706 -0.08663
 Cu62 Cu 0.33911 0.11076 -0.11496
 N63 N 0.37471 0.10505 -0.15602
 N64 N 0.35404 0.09541 -0.14634
 C65 C 0.34619 0.07420 -0.16121
 C66 C 0.36297 0.07016 -0.18118
 C67 C 0.38086 0.09009 -0.17725
 H68 H 0.32971 0.06236 -0.15756
 H69 H 0.39691 0.09362 -0.18922
 N70 N 0.32682 0.12916 -0.08318
 N71 N 0.33738 0.15097 -0.07277
 C72 C 0.32419 0.15923 -0.05190
 C73 C 0.30458 0.14163 -0.04887
 C74 C 0.30687 0.12279 -0.06899
 H75 H 0.32868 0.17657 -0.03956
 H76 H 0.29456 0.10597 -0.07322
 H77 H 0.37219 0.12810 -0.09896
 H78 H 0.35127 0.14870 -0.11981
 N79 N 0.09166 0.84164 0.38629
 N80 N 0.08508 0.84661 0.36222
 C81 C 0.06540 0.83103 0.35390
 C82 C 0.05889 0.81551 0.37401
 C83 C 0.07597 0.82311 0.39439
 H84 H 0.05651 0.83126 0.33465
 H85 H 0.07783 0.81502 0.41331
 Cu86 Cu 0.10264 0.87328 0.34417
 Cu87 Cu 0.12165 0.85812 0.40408
 Cu88 Cu 0.16457 0.88113 0.36078
 N89 N 0.12351 0.89832 0.32742
 N90 N 0.14810 0.90075 0.33329
 C91 C 0.15811 0.91880 0.31849
 C92 C 0.13860 0.92855 0.30282
 C93 C 0.11689 0.91505 0.30903
 H94 H 0.17792 0.92499 0.31974
 H95 H 0.09775 0.91711 0.30071
 N96 N 0.17471 0.87135 0.39614
 N97 N 0.15812 0.86441 0.41319
 C98 C 0.17066 0.86080 0.43601
 C99 C 0.19643 0.86549 0.43308
 C100 C 0.19829 0.87210 0.40755
 H101 H 0.16178 0.85452 0.45324
 H102 H 0.21544 0.87772 0.39815
 H103 H 0.13201 0.88804 0.37994
 H104 H 0.13728 0.85301 0.36898
 C105 C 0.10962 0.14688 0.13694
 N106 N 0.10929 0.12820 0.15469
 C107 C 0.12637 0.10807 0.15387
 N108 N 0.14401 0.10687 0.13513
 C109 C 0.14465 0.12556 0.11735
 N110 N 0.12730 0.14545 0.11828
 C111 C 0.39938 0.85958 0.62463
 N112 N 0.40029 0.87924 0.64354
 C113 C 0.38025 0.89603 0.64654
 N114 N 0.35931 0.89319 0.63021
 C115 C 0.35837 0.87392 0.61090
 N116 N 0.37842 0.85711 0.60831
 C117 C 0.90375 0.63972 0.39202
 N118 N 0.90423 0.62097 0.37226
 C119 C 0.88721 0.60081 0.37084
 N120 N 0.86958 0.59952 0.38941
 C121 C 0.86889 0.61811 0.40932
 N122 N 0.88606 0.63817 0.41053
 C123 C 0.60172 0.36373 -0.13816
 N124 N 0.60333 0.38038 -0.15774
 C125 C 0.62262 0.39822 -0.15759
 N126 N 0.64034 0.39935 -0.13760
 C127 C 0.63897 0.38280 -0.11795
 N128 N 0.61965 0.36501 -0.11835
 C129 C -0.01559 0.25707 0.09256
 C130 C 0.00023 0.25290 0.11480
 C131 C -0.00548 0.26712 0.13826
 C132 C -0.02522 0.28587 0.13881
 C133 C -0.04075 0.28997 0.11652
 C134 C -0.03579 0.27502 0.09353
 C135 C 0.00832 0.26232 0.16120
 C136 C 0.02716 0.24307 0.16158
 C137 C 0.03365 0.22849 0.13869
 C138 C 0.02102 0.23461 0.11469
 C139 C 0.02995 0.22269 0.09136
 C140 C 0.04988 0.20463 0.09153
 C141 C 0.06104 0.19698 0.11491
 C142 C 0.05272 0.20834 0.13888
 C143 C 0.06334 0.19848 0.16208
 C144 C 0.08171 0.17855 0.16133
 C145 C 0.09050 0.16821 0.13759
 C146 C 0.08024 0.17766 0.11444
 H147 H -0.01336 0.24616 0.07427
 H148 H -0.02895 0.29649 0.15704
 H149 H -0.04718 0.27736 0.07586
 H150 H 0.00418 0.27323 0.17921
 H151 H 0.03695 0.24064 0.18006
 H152 H 0.02241 0.22760 0.07249
 H153 H 0.05627 0.19617 0.07312
 H154 H 0.05721 0.20511 0.18106
 H155 H 0.08920 0.17128 0.17946
 H156 H 0.08659 0.16927 0.09598
 C157 C 0.48984 0.71110 0.60496
 C158 C 0.49495 0.73835 0.60887
 C159 C 0.52080 0.74621 0.61350
 C160 C 0.54061 0.72755 0.61278
 C161 C 0.53515 0.70073 0.60864
 C162 C 0.50965 0.69269 0.60505
 C163 C 0.52675 0.77262 0.61909
 C164 C 0.50755 0.79144 0.62092
 C165 C 0.48153 0.78467 0.61637
 C166 C 0.47529 0.75792 0.60892
 C167 C 0.44970 0.75171 0.60128
 C168 C 0.43068 0.77075 0.60178
 C169 C 0.43617 0.79653 0.61064
 C170 C 0.46156 0.80383 0.61853
 C171 C 0.46574 0.82988 0.62884
 C172 C 0.44559 0.84785 0.63079
 C173 C 0.42075 0.84067 0.62219
 C174 C 0.41623 0.81500 0.61197
 H175 H 0.47072 0.70331 0.60249
 H176 H 0.56030 0.73386 0.61615
 H177 H 0.50495 0.67204 0.60199
 H178 H 0.54648 0.77879 0.62250
 H179 H 0.51381 0.81139 0.62521
 H180 H 0.44386 0.73233 0.59404
 H181 H 0.41134 0.76510 0.59554
 H182 H 0.48419 0.83677 0.63630
 H183 H 0.44952 0.86752 0.63899
 H184 H 0.39694 0.80912 0.60574
 C185 C 1.00931 0.76704 0.34904
 C186 C 1.00304 0.75447 0.37172
 C187 C 1.01472 0.76399 0.39563
 C188 C 1.03326 0.78397 0.39628
 C189 C 1.03993 0.79579 0.37345
 C190 C 1.02723 0.78733 0.34997
 C191 C 1.00783 0.75354 0.41882
 C192 C 0.98931 0.73405 0.41889
 C193 C 0.97751 0.72350 0.39553
 C194 C 0.98535 0.73309 0.37150
 C195 C 0.97586 0.72047 0.34804
 C196 C 0.95887 0.69960 0.34799
 C197 C 0.95001 0.69095 0.37120
 C198 C 0.95867 0.70315 0.39532
 C199 C 0.94781 0.69462 0.41818
 C200 C 0.92979 0.67434 0.41703
 C201 C 0.92227 0.66165 0.39320
 C202 C 0.93244 0.67012 0.37036
 H203 H 1.00032 0.76203 0.33028
 H204 H 1.04206 0.79055 0.41485
 H205 H 1.03136 0.79590 0.33187
 H206 H 1.01669 0.76070 0.43720
 H207 H 0.98528 0.72695 0.43761
 H208 H 0.98194 0.72567 0.32926
 H209 H 0.95240 0.69027 0.32949
 H210 H 0.95239 0.70360 0.43720
 H211 H 0.92197 0.66832 0.43493
 H212 H 0.92629 0.66077 0.35176
 C213 C 0.48117 0.25338 -0.09000
 C214 C 0.49223 0.26035 -0.11332
 C215 C 0.48193 0.24868 -0.13705
 C216 C 0.46238 0.22982 -0.13707
 C217 C 0.45201 0.22285 -0.11376
 C218 C 0.46134 0.23504 -0.09033
 C219 C 0.49110 0.25593 -0.16066
 C220 C 0.51005 0.27489 -0.16139
 C221 C 0.52118 0.28691 -0.13835
 C222 C 0.51286 0.27871 -0.11392
 C223 C 0.52585 0.28863 -0.09096
 C224 C 0.54587 0.30637 -0.09172
 C225 C 0.55335 0.31552 -0.11526
 C226 C 0.54079 0.30640 -0.13890
 C227 C 0.54823 0.31750 -0.16207
 C228 C 0.56774 0.33620 -0.16170
 C229 C 0.58069 0.34432 -0.13839
 C230 C 0.57333 0.33389 -0.11522
 H231 H 0.48701 0.26209 -0.07121
 H232 H 0.45487 0.22090 -0.15536
 H233 H 0.45353 0.23013 -0.07205
 H234 H 0.48336 0.24701 -0.17886
 H235 H 0.51614 0.27913 -0.18044
 H236 H 0.52150 0.28243 -0.07198
 H237 H 0.55547 0.31319 -0.07360
 H238 H 0.53901 0.31258 -0.18073
 H239 H 0.57288 0.34414 -0.17986
 H240 H 0.58290 0.34042 -0.09698
 C241 C 0.16498 -0.02552 0.25504
 C242 C 0.14326 -0.01033 0.24820
 C243 C 0.12008 -0.01542 0.26043
 C244 C 0.11867 -0.03552 0.27788
 C245 C 0.14027 -0.05052 0.28416
 C246 C 0.16344 -0.04516 0.27279
 C247 C 0.09836 -0.00041 0.25532
 C248 C 0.09909 0.01994 0.23859
 C249 C 0.12161 0.02583 0.22578
 C250 C 0.14380 0.00986 0.22996
 C251 C 0.16558 0.01427 0.21539
 C252 C 0.16588 0.03383 0.19769
 C253 C 0.14479 0.05021 0.19418
 C254 C 0.12251 0.04683 0.20850
 C255 C 0.10215 0.06483 0.20509
 C256 C 0.10364 0.08469 0.18764
 C257 C 0.12534 0.08735 0.17288
 C258 C 0.14591 0.07004 0.17636
 H259 H 0.18357 -0.02245 0.24742
 H260 H 0.10076 -0.03909 0.28699
 H261 H 0.18046 -0.05638 0.27740
 H262 H 0.08055 -0.00431 0.26453
 H263 H 0.08135 0.03030 0.23560
 H264 H 0.18262 0.00244 0.21671
 H265 H 0.18294 0.03627 0.18675
 H266 H 0.08494 0.06446 0.21589
 H267 H 0.08752 0.09790 0.18557
 H268 H 0.16300 0.07214 0.16536
 C269 C 0.58610 0.50556 -0.28593
 C270 C 0.60807 0.49414 -0.27429
 C271 C 0.63229 0.50215 -0.28241
 C272 C 0.63419 0.51995 -0.30209
 C273 C 0.61223 0.53121 -0.31352
 C274 C 0.58821 0.52381 -0.30499
 C275 C 0.65463 0.49259 -0.27069
 C276 C 0.65355 0.47581 -0.25047
 C277 C 0.62993 0.46728 -0.24157
 C278 C 0.60685 0.47555 -0.25454
 C279 C 0.58343 0.46463 -0.24763
 C280 C 0.58247 0.44685 -0.22821
 C281 C 0.60462 0.43984 -0.21435
 C282 C 0.62862 0.45033 -0.22045
 C283 C 0.65027 0.44382 -0.20475
 C284 C 0.64815 0.42713 -0.18438
 C285 C 0.62454 0.41610 -0.17908
 C286 C 0.60283 0.42251 -0.19421
 H287 H 0.56698 0.50137 -0.28027
 H288 H 0.65305 0.52553 -0.30775
 H289 H 0.57070 0.53185 -0.31311
 H290 H 0.67324 0.49847 -0.27695
 H291 H 0.67171 0.46925 -0.24266
 H292 H 0.56546 0.46888 -0.25742
 H293 H 0.56407 0.43879 -0.22375
 H294 H 0.66902 0.45182 -0.20722
 H295 H 0.66519 0.42268 -0.17285
 H296 H 0.58438 0.41445 -0.18994
 C297 C 0.33754 1.01777 0.76970
 C298 C 0.35994 1.00899 0.75723
 C299 C 0.38359 1.02039 0.76621
 C300 C 0.38438 1.04052 0.78597
 C301 C 0.36197 1.04915 0.79783
 C302 C 0.33865 1.03741 0.78969
 C303 C 0.40638 1.01159 0.75556
 C304 C 0.40640 0.99131 0.73645
 C305 C 0.38340 0.97937 0.72668
 C306 C 0.35972 0.98909 0.73650
 C307 C 0.33664 0.97899 0.72491
 C308 C 0.33661 0.95963 0.70488
 C309 C 0.35949 0.94905 0.69599
 C310 C 0.38324 0.95838 0.70703
 C311 C 0.40581 0.94597 0.69815
 C312 C 0.40474 0.92573 0.67875
 C313 C 0.38125 0.91726 0.66735
 C314 C 0.35868 0.92905 0.67611
 H315 H 0.31890 1.00953 0.76487
 H316 H 0.40262 1.04909 0.79252
 H317 H 0.32105 1.04363 0.79861
 H318 H 0.42451 1.02032 0.76227
 H319 H 0.42484 0.98590 0.72920
 H320 H 0.31811 0.98616 0.73041
 H321 H 0.31840 0.95268 0.69642
 H322 H 0.42460 0.95103 0.70615
 H323 H 0.42247 0.91682 0.67251
 H324 H 0.34035 0.92233 0.66775
 C325 C 0.84256 0.48002 0.24442
 C326 C 0.86541 0.49040 0.25655
 C327 C 0.88896 0.48190 0.24617
 C328 C 0.88943 0.46281 0.22547
 C329 C 0.86664 0.45257 0.21396
 C330 C 0.84326 0.46157 0.22340
 C331 C 0.91196 0.49260 0.25635
 C332 C 0.91218 0.51207 0.27629
 C333 C 0.88929 0.52111 0.28744
 C334 C 0.86566 0.50920 0.27823
 C335 C 0.84317 0.51603 0.29138
 C336 C 0.84359 0.53438 0.31233
 C337 C 0.86620 0.54725 0.32056
 C338 C 0.88930 0.54125 0.30791
 C339 C 0.91135 0.55606 0.31603
 C340 C 0.91052 0.57542 0.33623
 C341 C 0.88787 0.58049 0.34926
 C342 C 0.86577 0.56628 0.34132
 H343 H 0.82383 0.48621 0.25028
 H344 H 0.90760 0.45638 0.21789
 H345 H 0.82538 0.45407 0.21469
 H346 H 0.93004 0.48609 0.24859
 H347 H 0.93078 0.51911 0.28311
 H348 H 0.82494 0.50691 0.28642
 H349 H 0.82590 0.53878 0.32199
 H350 H 0.92940 0.55365 0.30676
 H351 H 0.92781 0.58630 0.34184
 H352 H 0.84801 0.57044 0.35095
 C353 C 0.25886 0.16828 0.00133
 C354 C 0.24737 0.14517 0.00960
 C355 C 0.25603 0.12070 -0.00122
 C356 C 0.27437 0.11972 -0.02047
 C357 C 0.28520 0.14281 -0.02868
 C358 C 0.27752 0.16701 -0.01737
 C359 C 0.24646 0.09730 0.00730
 C360 C 0.22876 0.09753 0.02672
 C361 C 0.21931 0.12134 0.03797
 C362 C 0.22793 0.14552 0.02845
 C363 C 0.21642 0.16917 0.03762
 C364 C 0.19760 0.16931 0.05591
 C365 C 0.18997 0.14607 0.06638
 C366 C 0.20105 0.12178 0.05801
 C367 C 0.19365 0.09900 0.07039
 C368 C 0.17557 0.10035 0.08969
 C369 C 0.16403 0.12427 0.09713
 C370 C 0.17135 0.14706 0.08535
 H371 H 0.25427 0.18762 0.00931
 H372 H 0.28063 0.10085 -0.02871
 H373 H 0.28573 0.18514 -0.02327
 H374 H 0.25293 0.07853 -0.00097
 H375 H 0.22225 0.07857 0.03198
 H376 H 0.22100 0.18796 0.03042
 H377 H 0.18911 0.18793 0.06215
 H378 H 0.20188 0.07994 0.06607
 H379 H 0.17043 0.08247 0.09867
 H380 H 0.16290 0.16578 0.09134
 C381 C 0.75100 0.65922 0.52667
 C382 C 0.76288 0.63623 0.51605
 C383 C 0.75327 0.61162 0.52282
 C384 C 0.73330 0.61034 0.54016
 C385 C 0.72178 0.63328 0.55040
 C386 C 0.73071 0.65766 0.54341
 C387 C 0.76337 0.58836 0.51200
 C388 C 0.78231 0.58885 0.49390
 C389 C 0.79242 0.61279 0.48629
 C390 C 0.78345 0.63680 0.49851
 C391 C 0.79556 0.66050 0.49306
 C392 C 0.81513 0.66089 0.47559
 C393 C 0.82297 0.63786 0.46232
 C394 C 0.81149 0.61350 0.46714
 C395 C 0.81917 0.59096 0.45209
 C396 C 0.83770 0.59259 0.43346
 C397 C 0.84945 0.61657 0.42932
 C398 C 0.84207 0.63913 0.44396
 H399 H 0.75643 0.67869 0.52190
 H400 H 0.72616 0.59134 0.54501
 H401 H 0.72204 0.67567 0.55098
 H402 H 0.75627 0.56949 0.51729
 H403 H 0.78911 0.56998 0.48664
 H404 H 0.79075 0.67915 0.50249
 H405 H 0.82395 0.67954 0.47213
 H406 H 0.81075 0.57188 0.45368
 H407 H 0.84291 0.57488 0.42228
 H408 H 0.85073 0.65789 0.44059
 C409 C 0.75618 0.33998 0.00347
 C410 C 0.74409 0.36310 -0.00489
 C411 C 0.75309 0.38756 0.00633
 C412 C 0.77232 0.38849 0.02613
 C413 C 0.78383 0.36538 0.03429
 C414 C 0.77585 0.34122 0.02258
 C415 C 0.74305 0.41098 -0.00242
 C416 C 0.72469 0.41078 -0.02261
 C417 C 0.71496 0.38697 -0.03430
 C418 C 0.72383 0.36280 -0.02433
 C419 C 0.71175 0.33921 -0.03369
 C420 C 0.69223 0.33911 -0.05272
 C421 C 0.68458 0.36231 -0.06385
 C422 C 0.69621 0.38653 -0.05525
 C423 C 0.68897 0.40920 -0.06843
 C424 C 0.67057 0.40784 -0.08880
 C425 C 0.65847 0.38406 -0.09644
 C426 C 0.66548 0.36137 -0.08379
 H427 H 0.75138 0.32069 -0.00488
 H428 H 0.77884 0.40731 0.03473
 H429 H 0.78464 0.32312 0.02846
 H430 H 0.74974 0.42974 0.00617
 H431 H 0.71785 0.42972 -0.02809
 H432 H 0.71641 0.32047 -0.02603
 H433 H 0.68332 0.32056 -0.05910
 H434 H 0.69770 0.42813 -0.06399
 H435 H 0.66563 0.42559 -0.09849
 H436 H 0.65657 0.34276 -0.09000
 C437 C 0.26233 0.85597 0.46388
 C438 C 0.25824 0.86110 0.49069
 C439 C 0.23319 0.86831 0.49802
 C440 C 0.21303 0.86906 0.47926
 C441 C 0.21749 0.86383 0.45287
 C442 C 0.24229 0.85750 0.44537
 C443 C 0.22843 0.87505 0.52397
 C444 C 0.24814 0.87564 0.54282
 C445 C 0.27342 0.86869 0.53655
 C446 C 0.27824 0.85998 0.51031
 C447 C 0.30276 0.85007 0.50465
 C448 C 0.32225 0.84972 0.52366
 C449 C 0.31836 0.85985 0.54887
 C450 C 0.29401 0.86981 0.55568
 C451 C 0.29155 0.88115 0.58118
 C452 C 0.31235 0.88230 0.59904
 C453 C 0.33614 0.87188 0.59229
 C454 C 0.33891 0.86044 0.56722
 H455 H 0.28092 0.85146 0.45647
 H456 H 0.19397 0.87450 0.48517
 H457 H 0.24624 0.85348 0.42506
 H458 H 0.20929 0.88039 0.52974
 H459 H 0.24280 0.88101 0.56239
 H460 H 0.30737 0.84177 0.48572
 H461 H 0.34075 0.84184 0.51841
 H462 H 0.27406 0.89006 0.58772
 H463 H 0.30976 0.89142 0.61824
 H464 H 0.35738 0.85274 0.56164
   
