data_POSCAR
  _audit_creation_date              2014-09-24
  _audit_creation_method            'ToBaCCo'
  _symmetry_space_group_name_H-M    'P1'
  _symmetry_Int_Tables_number       1
  _symmetry_cell_setting            triclinic
  loop_
  _symmetry_equiv_pos_as_xyz
 x,y,z
_cell_length_a 24.5686
_cell_length_b 22.6404
_cell_length_c 25.7781
_cell_angle_alpha 91.919900
_cell_angle_beta 85.339700
_cell_angle_gamma 87.751000
loop_
  _atom_site_label
  _atom_site_type_symbol
  _atom_site_fract_x
  _atom_site_fract_y
  _atom_site_fract_z
C1 C 0.33618 0.24317 0.22065
 C2 C 0.29362 0.27824 0.20322
 C3 C 0.24541 0.29228 0.23572
 C4 C 0.24119 0.27225 0.28714
 C5 C 0.28468 0.23865 0.30543
 C6 C 0.33160 0.22455 0.27194
 H7 H 0.29738 0.29271 0.16354
 H8 H 0.20428 0.28196 0.31240
 H9 H 0.36445 0.19748 0.28567
 C10 C 0.64752 -0.28470 0.21918
 C11 C 0.64462 -0.26994 0.27258
 C12 C 0.69019 -0.27729 0.30115
 C13 C 0.73875 -0.30352 0.27704
 C14 C 0.74276 -0.32074 0.22374
 C15 C 0.69715 -0.30896 0.19482
 H16 H 0.60820 -0.24753 0.29132
 H17 H 0.77358 -0.30870 0.29986
 H18 H 0.69851 -0.32201 0.15408
 C19 C 0.74706 0.22615 0.75864
 C20 C 0.77317 0.28052 0.75950
 C21 C 0.80254 0.29946 0.71407
 C22 C 0.80690 0.26235 0.66898
 C23 C 0.78348 0.20743 0.66858
 C24 C 0.75220 0.19023 0.71274
 H25 H 0.77017 0.30789 0.79498
 H26 H 0.83175 0.27402 0.63451
 H27 H 0.73335 0.14782 0.71168
 C28 C 0.27282 -0.18502 0.80950
 C29 C 0.24033 -0.23053 0.82865
 C30 C 0.19625 -0.25015 0.80228
 C31 C 0.18388 -0.22173 0.75662
 C32 C 0.21413 -0.17427 0.73809
 C33 C 0.25925 -0.15672 0.76424
 H34 H 0.25054 -0.25175 0.86366
 H35 H 0.14956 -0.23518 0.73596
 H36 H 0.28322 -0.12077 0.74973
 C37 C 0.69988 -0.25443 0.80205
 C38 C 0.75255 -0.28118 0.79602
 C39 C 0.79113 -0.26400 0.75644
 C40 C 0.77530 -0.21913 0.72371
 C41 C 0.72183 -0.19434 0.72746
 C42 C 0.68457 -0.21142 0.76753
 H43 H 0.76288 -0.31486 0.82271
 H44 H 0.80449 -0.20284 0.69491
 H45 H 0.64313 -0.19287 0.77119
 C46 C 0.31386 0.25624 0.82707
 C47 C 0.26234 0.28388 0.83925
 C48 C 0.22055 0.27689 0.80619
 C49 C 0.23045 0.24217 0.76007
 C50 C 0.28163 0.21260 0.74764
 C51 C 0.32304 0.21950 0.78203
 H52 H 0.25502 0.31204 0.87417
 H53 H 0.19809 0.23839 0.73423
 H54 H 0.36290 0.19780 0.77362
 C55 C 0.24056 -0.17230 0.20183
 C56 C 0.20913 -0.21885 0.18527
 C57 C 0.16305 -0.23657 0.21558
 C58 C 0.14874 -0.20804 0.26448
 C59 C 0.18008 -0.16175 0.28226
 C60 C 0.22525 -0.14398 0.25046
 H61 H 0.21999 -0.24152 0.14816
 H62 H 0.11353 -0.22171 0.28845
 H63 H 0.24874 -0.10833 0.26447
 C64 C 0.76562 0.16639 0.17154
 C65 C 0.78973 0.22157 0.17739
 C66 C 0.82304 0.23172 0.21843
 C67 C 0.83318 0.18633 0.25242
 C68 C 0.80895 0.13204 0.24723
 C69 C 0.77493 0.12231 0.20730
 H70 H 0.78173 0.25665 0.15112
 H71 H 0.85871 0.19395 0.28420
 H72 H 0.75538 0.08039 0.20468
 O73 O 0.20249 0.10491 0.47479
 O74 O 0.16806 -0.00838 0.57116
 O75 O 0.21165 0.09383 0.57518
 O76 O 0.15796 0.00036 0.47153
 O77 O 0.24059 -0.04083 0.45474
 O78 O 0.29367 0.05029 0.55865
 O79 O 0.25207 -0.04767 0.55885
 O80 O 0.28670 0.06597 0.46468
 Cu81 Cu 0.17665 0.05189 0.52429
 Cu82 Cu 0.27509 0.00086 0.50524
 C83 C 0.25151 0.10583 0.45498
 C84 C 0.20467 -0.04581 0.58267
 C85 C 0.26150 0.08729 0.58497
 C86 C 0.19062 -0.03647 0.44556
 O87 O 0.81352 0.00390 0.51889
 O88 O 0.76981 -0.12721 0.44782
 O89 O 0.81839 -0.03095 0.42227
 O90 O 0.76777 -0.09272 0.54509
 O91 O 0.68647 -0.04767 0.54289
 O92 O 0.73681 0.01167 0.41687
 O93 O 0.68618 -0.08670 0.45123
 O94 O 0.73028 0.04496 0.51924
 Cu95 Cu 0.80062 -0.06632 0.48373
 Cu96 Cu 0.70275 -0.01410 0.47919
 C97 C 0.77894 0.04594 0.53220
 C98 C 0.71989 -0.12975 0.43899
 C99 C 0.78617 0.00165 0.39884
 C100 C 0.71965 -0.08039 0.56544
 O101 O 0.49176 0.16031 0.04372
 O102 O 0.58871 0.15618 -0.07095
 O103 O 0.59262 0.14067 0.02343
 O104 O 0.48214 0.18888 -0.05620
 O105 O 0.50048 0.28197 -0.03998
 O106 O 0.60961 0.23412 0.04074
 O107 O 0.60503 0.25069 -0.05860
 O108 O 0.50371 0.25554 0.05787
 Cu109 Cu 0.53501 0.15352 -0.01782
 Cu110 Cu 0.55616 0.26515 0.00141
 C111 C 0.48171 0.20764 0.07103
 C112 C 0.61489 0.20134 -0.08354
 C113 C 0.62017 0.17929 0.04530
 C114 C 0.47256 0.24378 -0.06155
 O115 O 0.53092 0.80815 0.06093
 O116 O 0.44911 0.85419 -0.04643
 O117 O 0.43606 0.85961 0.05519
 O118 O 0.54619 0.80530 -0.04099
 O119 O 0.51397 0.71556 -0.03968
 O120 O 0.39889 0.77243 0.05076
 O121 O 0.41711 0.76445 -0.04986
 O122 O 0.49188 0.72175 0.06113
 Cu123 Cu 0.49449 0.84062 0.00701
 Cu124 Cu 0.45206 0.73454 0.00483
 C125 C 0.52328 0.75803 0.08049
 C126 C 0.41902 0.81660 -0.06628
 C127 C 0.39886 0.82501 0.06961
 C128 C 0.54927 0.75137 -0.05622
 O129 O 0.05923 0.43277 0.15839
 O130 O -0.05929 0.53247 0.15189
 O131 O 0.04338 0.54862 0.15380
 O132 O -0.04723 0.42264 0.17398
 O133 O -0.05091 0.44406 0.25846
 O134 O 0.03905 0.56719 0.23874
 O135 O -0.06324 0.55173 0.23674
 O136 O 0.05907 0.44857 0.24321
 Cu137 Cu 0.00013 0.48189 0.15134
 Cu138 Cu -0.00236 0.50303 0.25230
 C139 C 0.07955 0.42280 0.20090
 C140 C -0.08188 0.55900 0.19244
 C141 C 0.05497 0.58046 0.19285
 C142 C -0.06591 0.41357 0.22047
 O143 O 0.03893 0.56140 0.84562
 O144 O -0.06564 0.46151 0.80118
 O145 O 0.02890 0.44582 0.84180
 O146 O -0.05667 0.57429 0.81046
 O147 O -0.01419 0.57435 0.73136
 O148 O 0.06928 0.44418 0.76214
 O149 O -0.02714 0.46760 0.72110
 O150 O 0.07602 0.56340 0.76465
 Cu151 Cu -0.01720 0.51017 0.83316
 Cu152 Cu 0.03183 0.50908 0.73773
 C153 C 0.07361 0.58127 0.81187
 C154 C -0.06522 0.45047 0.75245
 C155 C 0.06374 0.42316 0.80718
 C156 C -0.05001 0.59607 0.76573
 N157 N 0.44251 0.15562 0.14720
 N158 N 0.40515 0.16500 0.18662
 C159 C 0.38292 0.22018 0.18456
 C160 C 0.40803 0.24753 0.14177
 C161 C 0.44568 0.20473 0.11930
 H162 H 0.39901 0.29120 0.12806
 H163 H 0.46503 0.11578 0.13931
 H164 H 0.39381 0.13301 0.21323
 N165 N 0.51501 0.74202 0.17441
 N166 N 0.54955 0.73135 0.21351
 C167 C 0.60133 0.72571 0.19121
 C168 C 0.60069 0.73318 0.13767
 C169 C 0.54615 0.74383 0.12930
 H170 H 0.63520 0.73302 0.10878
 H171 H 0.47263 0.74904 0.18011
 H172 H 0.53586 0.72600 0.25240
 N173 N 0.67786 0.13996 -0.14450
 N174 N 0.71296 0.14615 -0.18515
 C175 C 0.71631 0.20414 -0.19459
 C176 C 0.68213 0.23664 -0.15725
 C177 C 0.65796 0.19374 -0.12669
 H178 H 0.67356 0.28395 -0.15475
 H179 H 0.66726 0.09918 -0.12973
 H180 H 0.73371 0.11077 -0.20623
 N181 N 0.38100 0.88645 -0.12919
 N182 N 0.34242 0.88589 -0.16224
 C183 C 0.32057 0.83208 -0.16243
 C184 C 0.34716 0.79694 -0.12857
 C185 C 0.38460 0.83297 -0.10805
 H186 H 0.33948 0.75177 -0.11873
 H187 H 0.40325 0.92333 -0.12038
 H188 H 0.33010 0.92255 -0.18256
 N189 N 0.14737 0.35279 0.15380
 N190 N 0.19020 0.31888 0.16251
 C191 C 0.19893 0.32374 0.21338
 C192 C 0.15881 0.36269 0.23848
 C193 C 0.12719 0.38046 0.19874
 H194 H 0.15417 0.37698 0.27913
 H195 H 0.13236 0.35682 0.11725
 H196 H 0.21246 0.29232 0.13371
 N197 N 0.12859 0.63602 0.87346
 N198 N 0.16402 0.68276 0.87014
 C199 C 0.16544 0.70251 0.82104
 C200 C 0.13195 0.66831 0.79244
 C201 C 0.11032 0.62741 0.82621
 H202 H 0.12480 0.67135 0.75173
 H203 H 0.11941 0.61191 0.90665
 H204 H 0.18309 0.70003 0.90168
 N205 N -0.14931 0.60744 0.13979
 N206 N -0.19848 0.64032 0.14814
 C207 C -0.20909 0.65018 0.20004
 C208 C -0.16634 0.62420 0.22542
 C209 C -0.13051 0.59747 0.18642
 H210 H -0.16295 0.62164 0.26686
 H211 H -0.13183 0.59197 0.10334
 H212 H -0.22117 0.65458 0.11811
 N213 N -0.11779 0.42184 0.67939
 N214 N -0.15525 0.37984 0.66848
 C215 C -0.16924 0.35219 0.71292
 C216 C -0.14261 0.37751 0.75348
 C217 C -0.10943 0.41925 0.73014
 H218 H -0.14186 0.36243 0.79283
 H219 H -0.09742 0.44745 0.65163
 H220 H -0.16832 0.37152 0.63149
 N221 N 0.31909 0.17770 0.42474
 N222 N 0.32702 0.21447 0.38652
 C223 C 0.28288 0.21586 0.35867
 C224 C 0.24438 0.17868 0.38108
 C225 C 0.26961 0.15480 0.42254
 H226 H 0.20677 0.16551 0.36579
 H227 H 0.34822 0.16659 0.45051
 H228 H 0.36360 0.23543 0.37782
 N229 N 0.84639 0.11457 0.56360
 N230 N 0.84721 0.15778 0.59916
 C231 C 0.79668 0.16621 0.62353
 C232 C 0.76192 0.12728 0.60215
 C233 C 0.79518 0.09555 0.56426
 H234 H 0.71916 0.12149 0.61365
 H235 H 0.88046 0.09815 0.53984
 H236 H 0.88231 0.17950 0.60771
 N237 N 0.14096 -0.09949 0.64241
 N238 N 0.14350 -0.13331 0.68298
 C239 C 0.19627 -0.14172 0.69297
 C240 C 0.22885 -0.11223 0.65649
 C241 C 0.19201 -0.08616 0.62515
 H242 H 0.27278 -0.10869 0.65403
 H243 H 0.10467 -0.08514 0.62743
 H244 H 0.10927 -0.14844 0.70444
 N245 N 0.64910 -0.20097 0.42166
 N246 N 0.64162 -0.24210 0.38575
 C247 C 0.68806 -0.25047 0.35422
 C248 C 0.72735 -0.21425 0.37191
 C249 C 0.70050 -0.18286 0.41395
 H250 H 0.76676 -0.20551 0.35242
 H251 H 0.61849 -0.18334 0.44894
 H252 H 0.60412 -0.26092 0.38102
 N253 N 0.61245 0.67452 -0.10301
 N254 N 0.65312 0.67317 -0.14001
 C255 C 0.66036 0.72875 -0.15565
 C256 C 0.62348 0.76710 -0.12710
 C257 C 0.59399 0.73106 -0.09425
 H258 H 0.61843 0.81455 -0.13015
 H259 H 0.59790 0.63743 -0.08419
 H260 H 0.67450 0.63471 -0.15490
 N261 N 0.40787 0.32042 -0.09029
 N262 N 0.36578 0.32354 -0.11891
 C263 C 0.35840 0.26936 -0.13977
 C264 C 0.39753 0.22975 -0.12359
 C265 C 0.42782 0.26409 -0.09190
 H266 H 0.40224 0.18265 -0.13231
 H267 H 0.42182 0.35619 -0.06922
 H268 H 0.34266 0.36231 -0.12399
 N269 N 0.35724 0.89518 0.13941
 N270 N 0.31365 0.89502 0.17763
 C271 C 0.28658 0.84489 0.17037
 C272 C 0.31244 0.81271 0.12769
 C273 C 0.35617 0.84516 0.11000
 H274 H 0.30313 0.76946 0.11259
 H275 H 0.38653 0.92738 0.13648
 H276 H 0.30444 0.92922 0.20546
 N277 N 0.68233 0.10270 0.07795
 N278 N 0.72110 0.09935 0.11037
 C279 C 0.72923 0.15412 0.12977
 C280 C 0.69430 0.19431 0.10807
 C281 C 0.66491 0.15957 0.07587
 H282 H 0.68901 0.24144 0.11645
 H283 H 0.66777 0.06635 0.05811
 H284 H 0.74119 0.05986 0.11907
 N285 N -0.07491 0.67820 0.71039
 N286 N -0.11951 0.71744 0.70766
 C287 C -0.15622 0.70812 0.74843
 C288 C -0.13490 0.66371 0.77805
 C289 C -0.08481 0.64618 0.75271
 H290 H -0.15383 0.64400 0.81225
 H291 H -0.04135 0.67347 0.68277
 H292 H -0.12312 0.74538 0.67671
 N293 N -0.13053 0.36173 0.27976
 N294 N -0.16058 0.31484 0.27896
 C295 C -0.15622 0.29039 0.23039
 C296 C -0.12179 0.32352 0.19844
 C297 C -0.10592 0.36810 0.23179
 H298 H -0.10728 0.31406 0.15815
 H299 H -0.12583 0.38780 0.31318
 H300 H -0.18225 0.29877 0.31171
 N301 N 0.10114 0.35261 0.86833
 N302 N 0.14269 0.31379 0.86809
 C303 C 0.16752 0.30839 0.81951
 C304 C 0.14068 0.34531 0.78731
 C305 C 0.09923 0.37310 0.82004
 H306 H 0.15253 0.35444 0.74711
 H307 H 0.07635 0.36678 0.90161
 H308 H 0.15491 0.29312 0.90111
 N309 N 0.10088 0.65442 0.13728
 N310 N 0.12794 0.70307 0.14331
 C311 C 0.13106 0.71497 0.19467
 C312 C 0.10410 0.67187 0.22260
 C313 C 0.08608 0.63404 0.18453
 H314 H 0.09979 0.66749 0.26439
 H315 H 0.09281 0.63569 0.10127
 H316 H 0.14375 0.72756 0.11238
 N317 N 0.65783 -0.08916 0.64676
 N318 N 0.65886 -0.11865 0.69019
 C319 C 0.70526 -0.15311 0.68755
 C320 C 0.73446 -0.14515 0.64032
 C321 C 0.70341 -0.10452 0.61597
 H322 H 0.77286 -0.16624 0.62475
 H323 H 0.62684 -0.05867 0.63888
 H324 H 0.62844 -0.11434 0.72094
 N325 N 0.11788 -0.08358 0.39744
 N326 N 0.11515 -0.11789 0.35516
 C327 C 0.16628 -0.13067 0.33357
 C328 C 0.20307 -0.10392 0.36412
 C329 C 0.17080 -0.07430 0.40395
 H330 H 0.24715 -0.10420 0.35742
 H331 H 0.08395 -0.06625 0.42089
 H332 H 0.07874 -0.13019 0.34040
 N333 N 0.86132 0.03125 0.33622
 N334 N 0.86757 0.06619 0.29640
 C335 C 0.81790 0.08647 0.28502
 C336 C 0.77816 0.06404 0.31919
 C337 C 0.80759 0.02955 0.35133
 H338 H 0.73463 0.07455 0.32238
 H339 H 0.89357 0.01119 0.35408
 H340 H 0.90527 0.07718 0.27840
 N341 N 0.33626 0.12248 0.63592
 N342 N 0.34182 0.15488 0.67856
 C343 C 0.29198 0.17555 0.69872
 C344 C 0.25303 0.15547 0.66666
 C345 C 0.28293 0.12189 0.62755
 H346 H 0.20908 0.16239 0.67168
 H347 H 0.36867 0.10088 0.61319
 H348 H 0.37953 0.16243 0.69290
   
