data_POSCAR
  _audit_creation_date              2014-09-24
  _audit_creation_method            'ToBaCCo'
  _symmetry_space_group_name_H-M    'P1'
  _symmetry_Int_Tables_number       1
  _symmetry_cell_setting            triclinic
  loop_
  _symmetry_equiv_pos_as_xyz
 x,y,z
_cell_length_a 57.3246
_cell_length_b 58.2458
_cell_length_c 21.5772
_cell_angle_alpha 89.825600
_cell_angle_beta 90.024000
_cell_angle_gamma 122.116300
loop_
  _atom_site_label
  _atom_site_type_symbol
  _atom_site_fract_x
  _atom_site_fract_y
  _atom_site_fract_z
C1 C 0.21649 0.53244 0.45538
 C2 C 0.20652 0.53199 0.51532
 C3 C 0.21874 0.52940 0.56926
 C4 C 0.24265 0.52803 0.56333
 C5 C 0.25344 0.52869 0.50362
 C6 C 0.24050 0.53101 0.44959
 C7 C 0.25256 0.53266 0.39143
 C8 C 0.27544 0.53045 0.38597
 C9 C 0.28795 0.52732 0.43840
 C10 C 0.27734 0.52701 0.49795
 C11 C 0.25669 0.52689 0.61574
 C12 C 0.27962 0.52488 0.61011
 C13 C 0.29054 0.52497 0.55179
 C14 C 0.31359 0.52206 0.54565
 C15 C 0.32262 0.52106 0.48584
 C16 C 0.31062 0.52415 0.43270
 H17 H 0.24493 0.53607 0.34891
 H18 H 0.28321 0.53119 0.33983
 H19 H 0.25055 0.52785 0.66244
 H20 H 0.28821 0.52283 0.65274
 H21 H 0.18700 0.53046 0.52000
 H22 H 0.34090 0.52018 0.47993
 C23 C 0.54221 -0.26323 0.55186
 C24 C 0.54546 -0.27336 0.49607
 C25 C 0.54496 -0.26239 0.43837
 C26 C 0.54256 -0.23927 0.43732
 C27 C 0.54018 -0.22813 0.49397
 C28 C 0.53949 -0.24052 0.55114
 C29 C 0.53637 -0.22973 0.60631
 C30 C 0.53405 -0.20716 0.60581
 C31 C 0.53550 -0.19372 0.55009
 C32 C 0.53834 -0.20463 0.49343
 C33 C 0.54355 -0.22627 0.38143
 C34 C 0.54150 -0.20358 0.38080
 C35 C 0.53904 -0.19233 0.43604
 C36 C 0.53690 -0.16930 0.43509
 C37 C 0.53445 -0.15862 0.49089
 C38 C 0.53328 -0.17039 0.54889
 H39 H 0.53575 -0.23861 0.65087
 H40 H 0.53084 -0.20088 0.65025
 H41 H 0.54646 -0.23298 0.33716
 H42 H 0.54192 -0.19498 0.33603
 H43 H 0.54580 -0.29177 0.49803
 H44 H 0.53502 -0.13978 0.48823
 C45 C 1.15744 0.71127 0.44658
 C46 C 1.14397 0.70113 0.50333
 C47 C 1.15647 0.71339 0.55999
 C48 C 1.18301 0.73773 0.55879
 C49 C 1.19668 0.74865 0.50125
 C50 C 1.18384 0.73524 0.44519
 C51 C 1.19760 0.74625 0.38885
 C52 C 1.22357 0.76974 0.38721
 C53 C 1.23688 0.78380 0.44185
 C54 C 1.22333 0.77296 0.49970
 C55 C 1.19581 0.75216 0.61330
 C56 C 1.22174 0.77574 0.61198
 C57 C 1.23629 0.78626 0.55603
 C58 C 1.26261 0.81062 0.55450
 C59 C 1.27555 0.82073 0.49701
 C60 C 1.26372 0.80763 0.44073
 H61 H 1.18835 0.73693 0.34493
 H62 H 1.23289 0.77637 0.34205
 H63 H 1.18572 0.74602 0.65789
 H64 H 1.22973 0.78590 0.65573
 H65 H 1.12460 0.68180 0.50310
 H66 H 1.29562 0.83928 0.49614
 C67 C 0.76751 0.44388 0.46785
 C68 C 0.77567 0.44188 0.52762
 C69 C 0.76267 0.44393 0.58084
 C70 C 0.74025 0.44768 0.57305
 C71 C 0.73235 0.45065 0.51259
 C72 C 0.74585 0.44846 0.45984
 C73 C 0.73774 0.45147 0.40044
 C74 C 0.71667 0.45637 0.39278
 C75 C 0.70285 0.45839 0.44421
 C76 C 0.71076 0.45567 0.50480
 C77 C 0.72435 0.44692 0.62370
 C78 C 0.70295 0.45130 0.61591
 C79 C 0.69687 0.45753 0.55749
 C80 C 0.67575 0.46321 0.54904
 C81 C 0.66791 0.46494 0.48856
 C82 C 0.68140 0.46322 0.43663
 H83 H 0.74774 0.45023 0.35917
 H84 H 0.71130 0.45857 0.34598
 H85 H 0.72742 0.44189 0.66998
 H86 H 0.69068 0.44868 0.65632
 H87 H 0.79328 0.43981 0.53185
 H88 H 0.65147 0.46871 0.48131
 C89 C 0.49388 0.21584 0.55993
 C90 C 0.49073 0.20058 0.50739
 C91 C 0.48612 0.20772 0.44871
 C92 C 0.48512 0.23138 0.44215
 C93 C 0.48882 0.24748 0.49503
 C94 C 0.49339 0.23971 0.55403
 C95 C 0.49633 0.25541 0.60592
 C96 C 0.49487 0.27838 0.60034
 C97 C 0.49066 0.28690 0.54233
 C98 C 0.48722 0.27097 0.48920
 C99 C 0.47964 0.23890 0.38462
 C100 C 0.47786 0.26172 0.37894
 C101 C 0.48159 0.27807 0.43047
 C102 C 0.47903 0.30083 0.42507
 C103 C 0.48229 0.31620 0.47789
 C104 C 0.48829 0.30994 0.53646
 H105 H 0.49934 0.24981 0.65175
 H106 H 0.49625 0.28867 0.64295
 H107 H 0.47608 0.22692 0.34347
 H108 H 0.47296 0.26605 0.33368
 H109 H 0.49239 0.18297 0.51256
 H110 H 0.48213 0.33457 0.47191
 C111 C 0.73100 0.15603 0.55192
 C112 C 0.71812 0.14506 0.49497
 C113 C 0.73200 0.15523 0.43861
 C114 C 0.75979 0.17711 0.43886
 C115 C 0.77307 0.18889 0.49605
 C116 C 0.75874 0.17807 0.55273
 C117 C 0.77233 0.19001 0.60864
 C118 C 0.79919 0.21237 0.60913
 C119 C 0.81357 0.22433 0.55362
 C120 C 0.80051 0.21195 0.49644
 C121 C 0.77441 0.18800 0.38333
 C122 C 0.80130 0.21020 0.38366
 C123 C 0.81454 0.22283 0.43944
 C124 C 0.84137 0.24615 0.43946
 C125 C 0.85378 0.25821 0.49594
 C126 C 0.84068 0.24795 0.55348
 H127 H 0.76231 0.18240 0.65298
 H128 H 0.80840 0.21989 0.65403
 H129 H 0.76518 0.17968 0.33876
 H130 H 0.81154 0.21738 0.33936
 H131 H 0.69703 0.12791 0.49441
 H132 H 0.87294 0.27761 0.49390
 N133 N 0.94345 0.48590 0.06784
 N134 N 0.92053 0.48459 0.08338
 N135 N 1.00397 0.52067 0.11187
 N136 N 1.02110 0.53874 0.15220
 N137 N 0.99681 0.53212 0.06975
 N138 N 1.00874 0.55833 0.08068
 N139 N 0.95030 0.47434 0.11049
 N140 N 0.93196 0.46478 0.15595
 C141 C 0.91325 0.47089 0.13763
 C142 C 1.02394 0.56211 0.13207
 N143 N 1.03462 0.47656 0.06813
 N144 N 1.05922 0.48096 0.08097
 N145 N 0.97353 0.44053 0.10905
 N146 N 0.95769 0.42192 0.15027
 N147 N 0.98109 0.43004 0.06559
 N148 N 0.97025 0.40389 0.07559
 N149 N 1.02686 0.48702 0.11123
 N150 N 1.04600 0.49888 0.15434
 Mn151 Mn 0.98862 0.48059 0.11126
 C152 C 1.06617 0.49517 0.13453
 C153 C 0.95564 0.39916 0.12841
 N154 N 0.99750 0.53333 -0.06414
 N155 N 1.00915 0.55965 -0.07373
 N156 N 0.95193 0.47600 -0.10838
 N157 N 0.93188 0.46137 -0.14775
 N158 N 0.94405 0.48664 -0.06604
 N159 N 0.91830 0.47962 -0.07582
 N160 N 1.00531 0.52270 -0.10655
 N161 N 1.02276 0.54145 -0.14562
 Mn162 Mn 0.97034 0.50967 0.00181
 C163 C 1.02505 0.56439 -0.12442
 C164 C 0.91110 0.46379 -0.12699
 N165 N 0.98179 0.43117 -0.06769
 N166 N 0.97005 0.40497 -0.07887
 N167 N 1.02792 0.48932 -0.10767
 N168 N 1.04809 0.50437 -0.14655
 N169 N 1.03549 0.47798 -0.06631
 N170 N 1.06121 0.48486 -0.07656
 N171 N 0.97479 0.44261 -0.11007
 N172 N 0.95835 0.42466 -0.15152
 Mn173 Mn 1.00842 0.45376 -0.00007
 Mn174 Mn 0.98997 0.48265 -0.10866
 Cl175 Cl 0.98931 0.48164 0.00124
 C176 C 0.95544 0.40125 -0.13129
 C177 C 1.06867 0.50146 -0.12678
 N178 N 0.48544 0.46599 0.06558
 N179 N 0.47577 0.44052 0.08199
 N180 N 0.47761 0.51364 0.10108
 N181 N 0.46431 0.52040 0.13952
 N182 N 0.46075 0.49671 0.05890
 N183 N 0.43561 0.49151 0.06739
 N184 N 0.50185 0.48262 0.10872
 N185 N 0.50386 0.46908 0.15520
 C186 C 0.48789 0.44296 0.13771
 C187 C 0.43820 0.50660 0.11734
 N188 N 0.55071 0.57805 0.06075
 N189 N 0.56045 0.60390 0.07169
 N190 N 0.55561 0.53081 0.10863
 N191 N 0.56614 0.52113 0.14737
 N192 N 0.57375 0.54599 0.06607
 N193 N 0.59727 0.54743 0.07527
 N194 N 0.53191 0.56264 0.10194
 N195 N 0.52819 0.57760 0.14173
 Mn196 Mn 0.51672 0.52255 0.10570
 C197 C 0.54593 0.60326 0.12178
 C198 C 0.59213 0.53177 0.12608
 N199 N 0.46211 0.49582 -0.07402
 N200 N 0.43710 0.48990 -0.08814
 N201 N 0.50438 0.48125 -0.11196
 N202 N 0.50830 0.46702 -0.15332
 N203 N 0.48681 0.46529 -0.06931
 N204 N 0.47788 0.43967 -0.08129
 N205 N 0.48004 0.51241 -0.11537
 N206 N 0.46773 0.51839 -0.15848
 Mn207 Mn 0.47357 0.48063 -0.00469
 C208 C 0.44101 0.50442 -0.14039
 C209 C 0.49187 0.44119 -0.13327
 N210 N 0.57520 0.54507 -0.06789
 N211 N 0.59871 0.54603 -0.07330
 N212 N 0.53421 0.56140 -0.11446
 N213 N 0.53034 0.57588 -0.15562
 N214 N 0.55200 0.57719 -0.07222
 N215 N 0.56079 0.60282 -0.08348
 N216 N 0.55783 0.52960 -0.11108
 N217 N 0.56881 0.51941 -0.14652
 Mn218 Mn 0.56326 0.56180 -0.00333
 Mn219 Mn 0.51908 0.52127 -0.11386
 Cl220 Cl 0.51812 0.52154 -0.00402
 C221 C 0.59431 0.52987 -0.12270
 C222 C 0.54694 0.60165 -0.13529
 N223 N 0.42769 -0.02227 0.06664
 N224 N 0.40179 -0.04204 0.07565
 N225 N 0.47638 0.03292 0.11361
 N226 N 0.48361 0.05129 0.15730
 N227 N 0.46046 0.03466 0.07267
 N228 N 0.45657 0.05439 0.08698
 N229 N 0.44391 -0.02395 0.10682
 N230 N 0.42963 -0.04489 0.14402
 C231 C 0.40342 -0.05605 0.12394
 C232 C 0.47124 0.06463 0.13969
 N233 N 0.54166 0.03103 0.06454
 N234 N 0.56778 0.04845 0.07910
 N235 N 0.49255 -0.02611 0.10086
 N236 N 0.48395 -0.04705 0.13812
 N237 N 0.50896 -0.02579 0.05789
 N238 N 0.51246 -0.04632 0.06584
 N239 N 0.52534 0.03075 0.10775
 N240 N 0.53974 0.04807 0.15206
 Mn241 Mn 0.48459 0.00342 0.10777
 C242 C 0.56608 0.05907 0.13363
 C243 C 0.49645 -0.05944 0.11587
 N244 N 0.45993 0.03779 -0.05982
 N245 N 0.45589 0.05795 -0.06641
 N246 N 0.44310 -0.01889 -0.11028
 N247 N 0.42812 -0.03736 -0.15235
 N248 N 0.42734 -0.01886 -0.06625
 N249 N 0.40118 -0.03699 -0.07746
 N250 N 0.47592 0.03831 -0.10402
 N251 N 0.48340 0.05901 -0.14173
 Mn252 Mn 0.44362 0.00783 0.00336
 C253 C 0.47088 0.07116 -0.11729
 C254 C 0.40206 -0.04857 -0.13087
 N255 N 0.50857 -0.02265 -0.07699
 N256 N 0.51275 -0.04201 -0.09412
 N257 N 0.52469 0.03597 -0.10977
 N258 N 0.53893 0.05501 -0.15135
 N259 N 0.54121 0.03412 -0.07061
 N260 N 0.56726 0.05160 -0.08561
 N261 N 0.49199 -0.02095 -0.11621
 N262 N 0.48406 -0.03929 -0.16008
 Mn263 Mn 0.52545 0.00418 -0.00631
 Mn264 Mn 0.48395 0.00863 -0.11064
 Cl265 Cl 0.48448 0.00604 -0.00150
 C266 C 0.49702 -0.05232 -0.14580
 C267 C 0.56534 0.06473 -0.13554
 C268 C 1.20106 0.53182 0.40301
 C269 C 1.18218 0.54022 0.40430
 C270 C 1.16255 0.53550 0.35362
 C271 C 1.14941 0.55010 0.35430
 C272 C 1.12901 0.54477 0.31097
 C273 C 1.12120 0.52472 0.26570
 C274 C 1.13456 0.51026 0.26430
 C275 C 1.15498 0.51556 0.30786
 C276 C 1.09781 0.51831 0.22423
 C277 C 1.09151 0.50337 0.16954
 H278 H 1.18219 0.55173 0.44360
 H279 H 1.15459 0.56539 0.38927
 H280 H 1.11896 0.55609 0.31351
 H281 H 1.12864 0.49412 0.23138
 H282 H 1.16391 0.50324 0.30680
 H283 H 1.08471 0.52565 0.23780
 H284 H 1.20359 0.52450 0.35934
 H285 H 1.10500 0.49718 0.15207
 C286 C 0.54448 0.72396 0.38372
 C287 C 0.55599 0.70800 0.38000
 C288 C 0.55070 0.68950 0.32789
 C289 C 0.57139 0.68502 0.30936
 C290 C 0.56600 0.66548 0.26466
 C291 C 0.53955 0.64959 0.23889
 C292 C 0.51886 0.65413 0.25726
 C293 C 0.52446 0.67418 0.30082
 C294 C 0.53261 0.62671 0.19736
 C295 C 0.55133 0.62761 0.15478
 H296 H 0.57020 0.70969 0.41547
 H297 H 0.59163 0.69634 0.33034
 H298 H 0.58217 0.66197 0.25245
 H299 H 0.49825 0.64187 0.23854
 H300 H 0.50795 0.67681 0.31542
 H301 H 0.51218 0.60860 0.20053
 H302 H 0.53478 0.72554 0.34234
 H303 H 0.57062 0.64649 0.14614
 C304 C 0.27891 -0.18098 0.38528
 C305 C 0.30775 -0.16665 0.38412
 C306 C 0.32497 -0.15116 0.33035
 C307 C 0.31625 -0.13976 0.28546
 C308 C 0.33473 -0.12199 0.24043
 C309 C 0.36219 -0.11544 0.23961
 C310 C 0.37033 -0.12784 0.28298
 C311 C 0.35201 -0.14534 0.32796
 C312 C 0.38373 -0.09443 0.19850
 C313 C 0.37959 -0.07972 0.15338
 H314 H 0.31856 -0.16759 0.42430
 H315 H 0.29566 -0.14345 0.28682
 H316 H 0.32759 -0.11282 0.20820
 H317 H 0.39130 -0.12324 0.28351
 H318 H 0.35926 -0.15380 0.36214
 H319 H 0.40468 -0.08916 0.20667
 H320 H 0.26849 -0.18412 0.34159
 H321 H 0.35917 -0.08483 0.14045
 C322 C 0.78256 0.44153 0.41491
 C323 C 0.81093 0.45928 0.40897
 C324 C 0.82742 0.45679 0.35995
 C325 C 0.82260 0.43144 0.34200
 C326 C 0.84015 0.42985 0.29938
 C327 C 0.86217 0.45350 0.27272
 C328 C 0.86670 0.47879 0.29014
 C329 C 0.84971 0.48040 0.33401
 C330 C 0.88113 0.45186 0.22913
 C331 C 0.89095 0.46828 0.17660
 H332 H 0.82134 0.47634 0.44033
 H333 H 0.80589 0.41295 0.36245
 H334 H 0.83650 0.41019 0.28707
 H335 H 0.88390 0.49737 0.27122
 H336 H 0.85400 0.50015 0.34786
 H337 H 0.88719 0.43744 0.23814
 H338 H 0.77117 0.42623 0.38000
 H339 H 0.88249 0.48047 0.16434
 C340 C 0.47496 0.31036 0.36429
 C341 C 0.45805 0.32082 0.35871
 C342 C 0.45872 0.33720 0.30528
 C343 C 0.45110 0.35611 0.31558
 C344 C 0.45375 0.37387 0.26867
 C345 C 0.46377 0.37289 0.20998
 C346 C 0.46975 0.35287 0.19814
 C347 C 0.46748 0.33526 0.24560
 C348 C 0.46927 0.39360 0.16255
 C349 C 0.48208 0.42069 0.17977
 H350 H 0.44601 0.31962 0.39872
 H351 H 0.44396 0.35781 0.36082
 H352 H 0.44836 0.38870 0.27859
 H353 H 0.47718 0.35157 0.15295
 H354 H 0.47277 0.32039 0.23549
 H355 H 0.46518 0.38796 0.11416
 H356 H 0.48709 0.31102 0.32520
 H357 H 0.48888 0.42621 0.22728
 C358 C 0.71670 0.14276 0.38033
 C359 C 0.69130 0.13995 0.36948
 C360 C 0.67437 0.12757 0.31318
 C361 C 0.65447 0.13371 0.29827
 C362 C 0.63636 0.12086 0.24893
 C363 C 0.63732 0.10101 0.21399
 C364 C 0.65803 0.09570 0.22704
 C365 C 0.67635 0.10876 0.27635
 C366 C 0.61613 0.08470 0.16642
 C367 C 0.58925 0.07886 0.17209
 H368 H 0.68380 0.14818 0.40354
 H369 H 0.65269 0.14832 0.32545
 H370 H 0.62144 0.12633 0.23885
 H371 H 0.65932 0.08062 0.20065
 H372 H 0.69121 0.10326 0.28689
 H373 H 0.62073 0.07457 0.13091
 H374 H 0.72612 0.13717 0.34497
 H375 H 0.58389 0.08679 0.21110
 C376 C 0.49718 0.20561 -0.38000
 C377 C 0.47713 0.17955 -0.36054
 C378 C 0.48124 0.16451 -0.31099
 C379 C 0.50732 0.16880 -0.29822
 C380 C 0.50986 0.15128 -0.25824
 C381 C 0.48653 0.12956 -0.22953
 C382 C 0.46059 0.12588 -0.24080
 C383 C 0.45800 0.14308 -0.28150
 C384 C 0.48928 0.10961 -0.19295
 C385 C 0.47106 0.09421 -0.14553
 H386 H 0.45769 0.16905 -0.38522
 H387 H 0.52554 0.18473 -0.32149
 H388 H 0.53000 0.15430 -0.25082
 H389 H 0.44208 0.10893 -0.22079
 H390 H 0.43766 0.13914 -0.29143
 H391 H 0.50592 0.10667 -0.20435
 H392 H 0.51570 0.21799 -0.35311
 H393 H 0.45612 0.09877 -0.12921
 C394 C 0.66144 0.46714 -0.40312
 C395 C 0.67274 0.48001 -0.34657
 C396 C 0.65622 0.48478 -0.30163
 C397 C 0.66886 0.50840 -0.26555
 C398 C 0.65300 0.51439 -0.22737
 C399 C 0.62423 0.49656 -0.22420
 C400 C 0.61191 0.47231 -0.25795
 C401 C 0.62770 0.46638 -0.29593
 C402 C 0.60591 0.50304 -0.19064
 C403 C 0.61440 0.52385 -0.14751
 H404 H 0.69465 0.48974 -0.33857
 H405 H 0.69086 0.52276 -0.26882
 H406 H 0.66325 0.53338 -0.20250
 H407 H 0.58984 0.45809 -0.25595
 H408 H 0.61744 0.44754 -0.32150
 H409 H 0.58413 0.49066 -0.20139
 H410 H 0.64143 0.46380 -0.41453
 H411 H 0.63547 0.53559 -0.13147
 C412 C 0.85367 0.26306 -0.39196
 C413 C 0.88209 0.28207 -0.38814
 C414 C 0.89456 0.30482 -0.34392
 C415 C 0.88620 0.30206 -0.28167
 C416 C 0.89884 0.32459 -0.24206
 C417 C 0.91949 0.35015 -0.26478
 C418 C 0.92759 0.35274 -0.32692
 C419 C 0.91561 0.33022 -0.36575
 C420 C 0.93226 0.37477 -0.22619
 C421 C 0.93972 0.37531 -0.16449
 H422 H 0.89572 0.28259 -0.42356
 H423 H 0.87021 0.28259 -0.26357
 H424 H 0.89206 0.32220 -0.19435
 H425 H 0.94340 0.37225 -0.34539
 H426 H 0.92236 0.33279 -0.41357
 H427 H 0.93868 0.39379 -0.24929
 H428 H 0.84128 0.26141 -0.35252
 H429 H 0.93588 0.35697 -0.14200
 C430 C 0.53093 -0.15819 -0.39628
 C431 C 0.52009 -0.14150 -0.39566
 C432 C 0.51861 -0.12697 -0.34069
 C433 C 0.50330 -0.11467 -0.34633
 C434 C 0.50184 -0.09976 -0.29774
 C435 C 0.51548 -0.09692 -0.24134
 C436 C 0.53108 -0.10898 -0.23562
 C437 C 0.53266 -0.12389 -0.28470
 C438 C 0.51502 -0.08018 -0.18985
 C439 C 0.49476 -0.07388 -0.18540
 H440 H 0.51036 -0.14006 -0.43718
 H441 H 0.49265 -0.11623 -0.38911
 H442 H 0.49062 -0.08989 -0.30577
 H443 H 0.54221 -0.10671 -0.19320
 H444 H 0.54527 -0.13241 -0.27870
 H445 H 0.53161 -0.07173 -0.15632
 H446 H 0.53685 -0.16227 -0.35233
 H447 H 0.47739 -0.08317 -0.21667
 C448 C 0.32877 0.52190 -0.40276
 C449 C 0.34378 0.50925 -0.40346
 C450 C 0.36245 0.51224 -0.35278
 C451 C 0.36417 0.48997 -0.33554
 C452 C 0.38315 0.49280 -0.29082
 C453 C 0.40127 0.51819 -0.26391
 C454 C 0.39972 0.54054 -0.28154
 C455 C 0.38016 0.53753 -0.32500
 C456 C 0.42305 0.52196 -0.22094
 C457 C 0.41843 0.50252 -0.17673
 H458 H 0.34052 0.49526 -0.44033
 H459 H 0.35095 0.47041 -0.35710
 H460 H 0.38437 0.47538 -0.27905
 H461 H 0.41375 0.56034 -0.26188
 H462 H 0.37961 0.55514 -0.33866
 H463 H 0.44306 0.54061 -0.22364
 H464 H 0.32885 0.53152 -0.35998
 H465 H 0.39777 0.48533 -0.16885
 C466 C 1.14375 0.69971 -0.38397
 C467 C 1.11543 0.68094 -0.37787
 C468 C 1.10342 0.66186 -0.32514
 C469 C 1.07635 0.65245 -0.30630
 C470 C 1.06341 0.63202 -0.26146
 C471 C 1.07719 0.62024 -0.23579
 C472 C 1.10437 0.62988 -0.25409
 C473 C 1.11750 0.65070 -0.29788
 C474 C 1.06280 0.59605 -0.19545
 C475 C 1.04149 0.59086 -0.15527
 H476 H 1.10137 0.68025 -0.41246
 H477 H 1.06499 0.66050 -0.32737
 H478 H 1.04221 0.62455 -0.24935
 H479 H 1.11523 0.62084 -0.23550
 H480 H 1.13814 0.65705 -0.31264
 H481 H 1.06920 0.58158 -0.19781
 H482 H 1.15627 0.70320 -0.34341
 H483 H 1.03669 0.60620 -0.14664
 C484 C 0.77343 0.44430 -0.35992
 C485 C 0.78885 0.43265 -0.34725
 C486 C 0.80470 0.43760 -0.28955
 C487 C 0.81173 0.41888 -0.27180
 C488 C 0.83005 0.42468 -0.22312
 C489 C 0.84216 0.44964 -0.19203
 C490 C 0.83376 0.46762 -0.20698
 C491 C 0.81528 0.46176 -0.25563
 C492 C 0.86532 0.45834 -0.14857
 C493 C 0.88462 0.45122 -0.15907
 H494 H 0.78895 0.41873 -0.38023
 H495 H 0.80366 0.40006 -0.29689
 H496 H 0.83538 0.40995 -0.21123
 H497 H 0.84275 0.48692 -0.18350
 H498 H 0.81065 0.47686 -0.26869
 H499 H 0.86954 0.47359 -0.11414
 H500 H 0.76973 0.45396 -0.32185
 H501 H 0.88179 0.43795 -0.19722
 C502 C 0.49313 0.32740 -0.41316
 C503 C 0.48115 0.34288 -0.40808
 C504 C 0.48730 0.36153 -0.35589
 C505 C 0.51426 0.37814 -0.33331
 C506 C 0.51990 0.39693 -0.28647
 C507 C 0.49862 0.39891 -0.26047
 C508 C 0.47160 0.38201 -0.28249
 C509 C 0.46608 0.36371 -0.33035
 C510 C 0.50535 0.42037 -0.21487
 C511 C 0.48718 0.41756 -0.16828
 H512 H 0.46482 0.33936 -0.43945
 H513 H 0.53108 0.37723 -0.35326
 H514 H 0.54093 0.41010 -0.27083
 H515 H 0.45491 0.38364 -0.26447
 H516 H 0.44523 0.35128 -0.34765
 H517 H 0.52512 0.43925 -0.21889
 H518 H 0.50580 0.32846 -0.37488
 H519 H 0.46872 0.39804 -0.15904
 C520 C 0.71491 0.14406 -0.39030
 C521 C 0.68802 0.13826 -0.38503
 C522 C 0.66984 0.12538 -0.33048
 C523 C 0.64195 0.11652 -0.33693
 C524 C 0.62362 0.10404 -0.28777
 C525 C 0.63279 0.10043 -0.23018
 C526 C 0.66067 0.10914 -0.22356
 C527 C 0.67912 0.12166 -0.27305
 C528 C 0.61336 0.08629 -0.17809
 C529 C 0.58831 0.08477 -0.17400
 H530 H 0.67950 0.14308 -0.42420
 H531 H 0.63415 0.11889 -0.38068
 H532 H 0.60214 0.09665 -0.29598
 H533 H 0.66821 0.10634 -0.17992
 H534 H 0.70047 0.12842 -0.26565
 H535 H 0.61824 0.07573 -0.14412
 H536 H 0.72447 0.13998 -0.35233
 H537 H 0.58384 0.09635 -0.20570
 C538 C 1.20556 0.52584 -0.37283
 C539 C 1.18869 0.53582 -0.35952
 C540 C 1.17261 0.52932 -0.30156
 C541 C 1.16611 0.54782 -0.27920
 C542 C 1.14843 0.54114 -0.22869
 C543 C 1.13623 0.51543 -0.20053
 C544 C 1.14392 0.49749 -0.22062
 C545 C 1.16189 0.50430 -0.27092
 C546 C 1.11370 0.50607 -0.15464
 C547 C 1.09515 0.51450 -0.15923
 H548 H 1.18835 0.55019 -0.39089
 H549 H 1.17434 0.56731 -0.30167
 H550 H 1.14378 0.55590 -0.21289
 H551 H 1.13488 0.47762 -0.19957
 H552 H 1.16618 0.48941 -0.28759
 H553 H 1.10913 0.48951 -0.12365
 H554 H 1.20869 0.51526 -0.33583
 H555 H 1.09819 0.52912 -0.19444
 C556 C 0.53918 0.72139 -0.39072
 C557 C 0.55669 0.71215 -0.37831
 C558 C 0.55056 0.69109 -0.33159
 C559 C 0.57238 0.68995 -0.30588
 C560 C 0.56720 0.66873 -0.26625
 C561 C 0.53998 0.64797 -0.25245
 C562 C 0.51813 0.64906 -0.27823
 C563 C 0.52333 0.67056 -0.31703
 C564 C 0.53400 0.62417 -0.21494
 C565 C 0.55132 0.62582 -0.16761
 H566 H 0.57530 0.72006 -0.40567
 H567 H 0.59350 0.70529 -0.31737
 H568 H 0.58449 0.66807 -0.24852
 H569 H 0.49701 0.63308 -0.26887
 H570 H 0.50604 0.67042 -0.33762
 H571 H 0.51521 0.60491 -0.22420
 H572 H 0.52214 0.71610 -0.35988
 H573 H 0.56862 0.64535 -0.15354
 C574 C 0.27698 -0.17562 -0.39118
 C575 C 0.29529 -0.14754 -0.38965
 C576 C 0.31413 -0.13349 -0.33762
 C577 C 0.32003 -0.10773 -0.32069
 C578 C 0.34013 -0.09263 -0.27628
 C579 C 0.35520 -0.10280 -0.24945
 C580 C 0.34928 -0.12859 -0.26628
 C581 C 0.32857 -0.14406 -0.30944
 C582 C 0.37851 -0.08578 -0.20794
 C583 C 0.37745 -0.06882 -0.16442
 H584 H 0.29520 -0.13510 -0.42698
 H585 H 0.30939 -0.09911 -0.34270
 H586 H 0.34475 -0.07252 -0.26503
 H587 H 0.36093 -0.13660 -0.24656
 H588 H 0.32477 -0.16365 -0.32297
 H589 H 0.39690 -0.08662 -0.21173
 H590 H 0.27363 -0.18669 -0.34842
 H591 H 0.35816 -0.07022 -0.15514
 C592 C 0.53771 -0.15545 0.37645
 C593 C 0.51863 -0.14795 0.36560
 C594 C 0.51804 -0.13310 0.31024
 C595 C 0.49773 -0.12666 0.30797
 C596 C 0.49653 -0.11183 0.25865
 C597 C 0.51554 -0.10323 0.20944
 C598 C 0.53588 -0.10971 0.21139
 C599 C 0.53712 -0.12459 0.26111
 C600 C 0.51594 -0.08569 0.15878
 C601 C 0.49343 -0.08339 0.14612
 H602 H 0.50298 -0.15330 0.40065
 H603 H 0.48294 -0.13267 0.34534
 H604 H 0.48119 -0.10645 0.26091
 H605 H 0.55101 -0.10302 0.17461
 H606 H 0.55322 -0.12895 0.26078
 H607 H 0.53515 -0.07255 0.13452
 H608 H 0.55308 -0.15165 0.34218
 H609 H 0.47385 -0.09684 0.16837
 C610 C 0.32383 0.52587 0.37249
 C611 C 0.33079 0.50701 0.35731
 C612 C 0.35129 0.51172 0.30953
 C613 C 0.35032 0.48930 0.28302
 C614 C 0.37133 0.49287 0.24364
 C615 C 0.39399 0.51902 0.23084
 C616 C 0.39491 0.54149 0.25704
 C617 C 0.37362 0.53793 0.29564
 C618 C 0.41769 0.52302 0.19438
 C619 C 0.41461 0.50545 0.14705
 H620 H 0.32195 0.48852 0.38443
 H621 H 0.33358 0.46892 0.29404
 H622 H 0.37036 0.47507 0.22559
 H623 H 0.41235 0.56179 0.24843
 H624 H 0.37536 0.55560 0.31685
 H625 H 0.43804 0.54017 0.20513
 H626 H 0.32985 0.54308 0.34247
 H627 H 0.39420 0.48995 0.13167
 C628 C 1.14500 0.69440 0.39060
 C629 C 1.11686 0.68092 0.37838
 C630 C 1.10346 0.65950 0.33100
 C631 C 1.07891 0.65415 0.30338
 C632 C 1.06479 0.63262 0.26185
 C633 C 1.07487 0.61585 0.24813
 C634 C 1.09939 0.62122 0.27583
 C635 C 1.11366 0.64290 0.31660
 C636 C 1.05929 0.59135 0.20962
 C637 C 1.04066 0.58818 0.16382
 H638 H 1.10419 0.68594 0.40517
 H639 H 1.07046 0.66642 0.31463
 H640 H 1.04552 0.62856 0.24260
 H641 H 1.10729 0.60829 0.26670
 H642 H 1.13204 0.64588 0.33860
 H643 H 1.06292 0.57510 0.21733
 H644 H 1.15820 0.69163 0.35979
 H645 H 1.03837 0.60483 0.15082
 C646 C 0.48339 0.19044 0.39535
 C647 C 0.46970 0.16232 0.40172
 C648 C 0.47245 0.14471 0.35732
 C649 C 0.47684 0.15064 0.29365
 C650 C 0.47964 0.13339 0.25364
 C651 C 0.47824 0.11009 0.27687
 C652 C 0.47409 0.10440 0.34044
 C653 C 0.47085 0.12135 0.38014
 C654 C 0.48107 0.09134 0.23645
 C655 C 0.47177 0.08624 0.17550
 H656 H 0.45892 0.15309 0.44468
 H657 H 0.47780 0.16833 0.27458
 H658 H 0.48327 0.13851 0.20489
 H659 H 0.47298 0.08659 0.35932
 H660 H 0.46752 0.11642 0.42909
 H661 H 0.48806 0.07908 0.25728
 H662 H 0.49414 0.20013 0.35279
 H663 H 0.46249 0.09655 0.15529
 C664 C 0.67248 0.46707 0.37537
 C665 C 0.67337 0.49099 0.36266
 C666 C 0.65760 0.49385 0.31249
 C667 C 0.66589 0.51992 0.29144
 C668 C 0.64930 0.52379 0.25079
 C669 C 0.62384 0.50160 0.23124
 C670 C 0.61580 0.47546 0.25129
 C671 C 0.63261 0.47154 0.29117
 C672 C 0.60424 0.50539 0.19518
 C673 C 0.61244 0.52710 0.15484
 H674 H 0.68484 0.50799 0.39382
 H675 H 0.68485 0.53743 0.30807
 H676 H 0.65579 0.54427 0.23741
 H677 H 0.59612 0.45811 0.23733
 H678 H 0.62526 0.45125 0.30782
 H679 H 0.58245 0.49044 0.20058
 H680 H 0.66381 0.45058 0.34242
 H681 H 0.63396 0.54065 0.14330
 C682 C 0.85550 0.26073 0.38133
 C683 C 0.88415 0.27588 0.37628
 C684 C 0.89852 0.29920 0.33377
 C685 C 0.88915 0.29845 0.27318
 C686 C 0.90206 0.32180 0.23617
 C687 C 0.92416 0.34623 0.25979
 C688 C 0.93365 0.34677 0.31993
 C689 C 0.92123 0.32333 0.35622
 C690 C 0.93678 0.37172 0.22423
 C691 C 0.94117 0.37295 0.16060
 H692 H 0.89628 0.27401 0.41216
 H693 H 0.87178 0.27995 0.25473
 H694 H 0.89418 0.32099 0.19008
 H695 H 0.95063 0.36542 0.33894
 H696 H 0.92868 0.32433 0.40292
 H697 H 0.94498 0.39045 0.24985
 H698 H 0.84333 0.26267 0.34573
 H699 H 0.93602 0.35485 0.13515
   
