data_POSCAR
  _audit_creation_date              2014-09-24
  _audit_creation_method            'ToBaCCo'
  _symmetry_space_group_name_H-M    'P1'
  _symmetry_Int_Tables_number       1
  _symmetry_cell_setting            triclinic
  loop_
  _symmetry_equiv_pos_as_xyz
 x,y,z
_cell_length_a 34.3499
_cell_length_b 34.6230
_cell_length_c 34.9027
_cell_angle_alpha 90.207300
_cell_angle_beta 90.035800
_cell_angle_gamma 89.762700
loop_
  _atom_site_label
  _atom_site_type_symbol
  _atom_site_fract_x
  _atom_site_fract_y
  _atom_site_fract_z
N1 N 0.18475 0.18621 0.18605
 N2 N -0.18293 0.81788 0.18567
 N3 N -0.18504 0.18520 -0.18790
 N4 N 0.17984 0.81649 -0.18204
 N5 N 0.18622 1.18780 0.81221
 N6 N 0.81750 0.81483 0.81227
 N7 N 0.18403 0.81518 1.18392
 N8 N 0.81621 1.18367 1.18557
 O9 O 0.44577 1.07062 1.06540
 O10 O 0.40270 1.03471 1.03002
 C11 C 0.41070 1.06098 1.05544
 O12 O 0.55546 1.06685 0.92845
 O13 O 0.59734 1.03123 0.96545
 C14 C 0.59025 1.05638 0.93896
 O15 O 0.44600 1.07121 0.93100
 O16 O 0.40301 1.03455 0.96543
 C17 C 0.41094 1.06136 0.94079
 O18 O 0.55505 1.06634 1.06909
 O19 O 0.59706 1.03105 1.03179
 C20 C 0.58989 1.05598 1.05862
 Zr21 Zr 0.50018 1.04885 1.04692
 O22 O 0.50481 1.10981 1.04687
 O23 O 0.49581 1.04884 1.10741
 Zr24 Zr 0.50044 1.04934 0.94990
 O25 O 0.50502 1.11029 0.95129
 O26 O 0.49652 1.05012 0.88938
 O27 O 0.46560 1.05708 0.99836
 O28 O 0.53408 1.05587 0.99858
 O29 O 0.55434 0.93250 1.06786
 O30 O 0.59680 0.96787 1.03155
 C31 C 0.58930 0.94296 1.05809
 O32 O 0.44510 0.93060 0.93092
 O33 O 0.40234 0.96781 0.96573
 C34 C 0.41009 0.94092 0.94080
 O35 O 0.55500 0.93295 0.92775
 O36 O 0.59710 0.96703 0.96587
 C37 C 0.58989 0.94240 0.93882
 O38 O 0.44427 0.93015 1.06411
 O39 O 0.40229 0.96771 1.02907
 C40 C 0.40943 0.94078 1.05383
 Zr41 Zr 0.49945 0.95094 1.04600
 O42 O 0.50338 0.88990 1.04440
 O43 O 0.49504 0.94980 1.10646
 Zr44 Zr 0.49994 0.95156 0.94918
 O45 O 0.50392 0.89053 0.94877
 O46 O 0.49578 0.95188 0.88865
 Zr47 Zr 0.44217 1.00091 0.99784
 Zr48 Zr 0.55754 0.99970 0.99822
 O49 O 0.53343 0.94392 0.99772
 O50 O 0.46487 0.94418 0.99737
 O51 O 0.53433 0.99951 1.05410
 O52 O 0.46645 1.00078 0.94246
 O53 O 0.46609 1.00024 1.05336
 O54 O 0.53486 1.00014 0.94213
 H55 H 0.55200 1.07822 0.99883
 H56 H 0.44895 1.00092 0.91989
 H57 H 0.55104 0.92118 0.99774
 H58 H 0.44844 1.00026 1.07580
 H59 H 0.51736 1.03310 0.87934
 H60 H 0.51792 0.96707 0.87880
 H61 H 0.48220 0.88061 0.96446
 H62 H 0.48045 0.88024 1.03021
 H63 H 0.51592 0.96644 1.11678
 H64 H 0.51703 1.03229 1.11736
 H65 H 0.48276 1.12008 1.03173
 H66 H 0.48241 1.12039 0.96578
 O67 O 0.06431 0.55412 -0.07030
 O68 O 0.02793 0.59588 -0.03370
 C69 C 0.05323 0.58871 -0.06031
 O70 O -0.07216 0.44235 -0.06484
 O71 O -0.03339 0.40163 -0.02970
 C72 C -0.06064 0.40810 -0.05461
 O73 O -0.07138 0.55094 -0.07006
 O74 O -0.03677 0.59469 -0.03435
 C75 C -0.06186 0.58606 -0.06079
 O76 O 0.06978 0.44517 -0.06618
 O77 O 0.03365 0.40305 -0.03035
 C78 C 0.05994 0.41048 -0.05589
 Zr79 Zr 0.04694 0.49953 -0.04829
 O80 O 0.04636 0.49447 -0.10875
 O81 O 0.10833 0.50477 -0.04842
 Zr82 Zr -0.05174 0.49748 -0.04750
 O83 O -0.05270 0.49206 -0.10792
 O84 O -0.11330 0.50056 -0.04633
 O85 O -0.00333 0.53270 -0.05602
 O86 O -0.00162 0.46496 -0.05436
 O87 O 0.07093 0.44811 0.06750
 O88 O 0.03383 0.40431 0.03439
 C89 C 0.06099 0.41300 0.05872
 O90 O -0.06993 0.55358 0.07058
 O91 O -0.03677 0.59593 0.03238
 C92 C -0.06105 0.58829 0.05974
 O93 O -0.07138 0.44523 0.06823
 O94 O -0.03314 0.40273 0.03437
 C95 C -0.06035 0.41049 0.05906
 O96 O 0.06473 0.55673 0.06892
 O97 O 0.02742 0.59739 0.03218
 C98 C 0.05316 0.59096 0.05861
 Zr99 Zr 0.04758 0.50149 0.04855
 O100 O 0.04812 0.49851 0.10912
 O101 O 0.10894 0.50702 0.04782
 Zr102 Zr -0.05084 0.49941 0.04927
 O103 O -0.05058 0.49610 0.10982
 O104 O -0.11240 0.50271 0.04931
 Zr105 Zr -0.00363 0.55670 -0.00043
 Zr106 Zr -0.00058 0.44207 0.00145
 O107 O -0.00075 0.46711 0.05648
 O108 O -0.00247 0.53494 0.05588
 O109 O 0.05573 0.46611 0.00064
 O110 O -0.05935 0.53185 0.00040
 O111 O 0.05339 0.53416 -0.00041
 O112 O -0.05802 0.46380 0.00149
 H113 H -0.00141 0.44716 -0.07665
 H114 H -0.08247 0.54905 0.00029
 H115 H -0.00025 0.45017 0.07930
 H116 H 0.07578 0.55211 -0.00067
 H117 H -0.12274 0.47825 -0.03141
 H118 H -0.12220 0.48055 0.03421
 H119 H -0.03422 0.51746 0.11948
 H120 H 0.03215 0.52023 0.11891
 H121 H 0.11950 0.48527 0.03255
 H122 H 0.11902 0.48322 -0.03309
 H123 H 0.03059 0.51613 -0.11885
 H124 H -0.03599 0.51267 -0.11839
 O125 O 0.93053 0.06834 0.55152
 O126 O 0.96735 0.03419 0.59469
 C127 C 0.94029 0.05902 0.58626
 O128 O 0.93602 -0.07139 0.44661
 O129 O 0.97194 -0.03570 0.40432
 C130 C 0.94646 -0.06206 0.41213
 O131 O 0.93194 -0.06639 0.55378
 O132 O 0.96794 -0.03013 0.59584
 C133 C 0.94156 -0.05579 0.58822
 O134 O 0.93525 0.06952 0.44365
 O135 O 0.97125 0.03126 0.40317
 C136 C 0.94580 0.05822 0.40961
 Zr137 Zr 0.95311 0.04899 0.49830
 O138 O 0.89169 0.04858 0.49330
 O139 O 0.95276 0.11007 0.50149
 Zr140 Zr 0.95399 -0.04871 0.50009
 O141 O 0.89253 -0.04879 0.49537
 O142 O 0.95455 -0.10963 0.50513
 O143 O 0.94544 0.00082 0.53326
 O144 O 0.94679 -0.00064 0.46592
 O145 O 1.06975 0.07053 0.44518
 O146 O 1.03546 0.03171 0.40395
 C147 C 1.06002 0.05913 0.41090
 O148 O 1.07334 -0.06565 0.55555
 O149 O 1.03547 -0.02988 0.59667
 C150 C 1.06254 -0.05523 0.58972
 O151 O 1.07175 -0.07103 0.44806
 O152 O 1.03718 -0.03453 0.40510
 C153 C 1.06239 -0.06121 0.41334
 O154 O 1.07229 0.06932 0.55376
 O155 O 1.03503 0.03427 0.59557
 C156 C 1.06186 0.05941 0.58820
 Zr157 Zr 1.05153 0.04959 0.49963
 O158 O 1.11305 0.04934 0.49611
 O159 O 1.05117 0.11065 0.50285
 Zr160 Zr 1.05250 -0.04809 0.50126
 O161 O 1.11404 -0.04682 0.49794
 O162 O 1.05378 -0.10899 0.50634
 Zr163 Zr 1.00198 0.00150 0.55673
 Zr164 Zr 1.00342 -0.00100 0.44303
 O165 O 1.05951 0.00008 0.46730
 O166 O 1.05916 0.00146 0.53474
 O167 O 1.00266 0.05598 0.46468
 O168 O 1.00289 -0.05483 0.53396
 O169 O 1.00181 0.05695 0.53216
 O170 O 1.00373 -0.05686 0.46670
 H171 H 0.92418 -0.00108 0.44828
 H172 H 1.00286 -0.07720 0.55157
 H173 H 1.08250 -0.00005 0.45017
 H174 H 1.00139 0.07992 0.54917
 H175 H 0.97063 -0.12003 0.48395
 H176 H 1.03715 -0.11965 0.48576
 H177 H 1.12359 -0.03164 0.52007
 H178 H 1.12303 0.03480 0.51842
 H179 H 1.03487 0.12024 0.48151
 H180 H 0.96843 0.11977 0.47983
 H181 H 0.88140 0.03320 0.51484
 H182 H 0.88208 -0.03293 0.51666
 C183 C 1.13149 0.13060 0.28016
 C184 C 1.14462 0.10858 0.24883
 C185 C 1.16203 0.12693 0.21787
 C186 C 1.16643 0.16714 0.21793
 C187 C 1.15325 0.18817 0.24987
 N188 N 1.13651 0.16961 0.27993
 C189 C 1.11255 0.11213 0.31336
 N190 N 1.11709 0.12751 0.34908
 C191 C 1.10077 0.11129 0.38071
 C192 C 1.07807 0.07781 0.37723
 C193 C 1.07252 0.06207 0.34049
 C194 C 1.08962 0.07906 0.30866
 H195 H 1.17194 0.10979 0.19374
 H196 H 1.15665 0.21920 0.25101
 H197 H 1.10548 0.12461 0.40841
 H198 H 1.05500 0.03648 0.33620
 H199 H 1.14205 0.07744 0.24841
 H200 H 1.08440 0.06664 0.28063
 C201 C 0.86946 -0.13425 0.28462
 C202 C 0.82882 -0.13853 0.28324
 C203 C 0.81155 -0.15434 0.25064
 C204 C 0.83464 -0.16605 0.21963
 C205 C 0.87508 -0.16124 0.22202
 N206 N 0.89127 -0.14540 0.25392
 C207 C 0.88903 -0.11688 0.31812
 N208 N 0.92229 -0.09634 0.31279
 C209 C 0.94137 -0.07896 0.34228
 C210 C 0.92717 -0.08206 0.37986
 C211 C 0.89343 -0.10391 0.38603
 C212 C 0.87428 -0.12126 0.35532
 H213 H 0.78022 -0.15753 0.24953
 H214 H 0.89363 -0.16960 0.19833
 H215 H 0.96750 -0.06269 0.33627
 H216 H 0.88149 -0.10722 0.41454
 H217 H 0.81045 -0.12904 0.30665
 H218 H 0.84849 -0.13822 0.36077
 C219 C 0.86371 0.13465 0.71247
 C220 C 0.85793 0.17482 0.71404
 C221 C 0.84151 0.19144 0.74675
 C222 C 0.83059 0.16817 0.77764
 C223 C 0.83666 0.12817 0.77491
 N224 N 0.85317 0.11265 0.74298
 C225 C 0.88244 0.11576 0.67922
 N226 N 0.90399 0.08319 0.68492
 C227 C 0.92256 0.06457 0.65581
 C228 C 0.91966 0.07846 0.61816
 C229 C 0.89693 0.11158 0.61156
 C230 C 0.87840 0.13033 0.64195
 H231 H 0.83745 0.22245 0.74813
 H232 H 0.82909 0.10945 0.79849
 H233 H 0.93949 0.03896 0.66216
 H234 H 0.89374 0.12324 0.58298
 H235 H 0.86691 0.19336 0.69080
 H236 H 0.86073 0.15559 0.63618
 C237 C 1.13253 -0.13149 0.71877
 C238 C 1.13789 -0.17173 0.71971
 C239 C 1.15342 -0.18889 0.75243
 C240 C 1.16388 -0.16606 0.78396
 C241 C 1.15804 -0.12602 0.78199
 N242 N 1.14241 -0.10994 0.74998
 C243 C 1.11554 -0.11214 0.68503
 N244 N 1.09271 -0.08030 0.69017
 C245 C 1.07569 -0.06152 0.66033
 C246 C 1.08169 -0.07442 0.62258
 C247 C 1.10580 -0.10676 0.61671
 C248 C 1.12263 -0.12571 0.64777
 H249 H 1.15746 -0.21991 0.75322
 H250 H 1.16545 -0.10770 0.80608
 H251 H 1.05737 -0.03672 0.66621
 H252 H 1.11138 -0.11775 0.58814
 H253 H 1.12949 -0.18983 0.69578
 H254 H 1.14135 -0.15040 0.64258
 C255 C 0.28288 1.13462 1.13331
 C256 C 0.28249 1.13992 1.17324
 C257 C 0.25015 1.15696 1.19063
 C258 C 0.21848 1.16895 1.16833
 C259 C 0.21986 1.16305 1.12859
 N260 N 0.25150 1.14599 1.11228
 C261 C 0.31628 1.11635 1.11371
 N262 N 0.30995 1.09432 1.08193
 C263 C 0.33946 1.07644 1.06278
 C264 C 0.37810 1.08071 1.07522
 C265 C 0.38520 1.10388 1.10757
 C266 C 0.35446 1.12160 1.12689
 H267 H 0.24977 1.16094 1.22141
 H268 H 0.19558 1.17154 1.11069
 H269 H 0.33265 1.05889 1.03797
 H270 H 0.41449 1.10811 1.11823
 H271 H 0.30652 1.13036 1.19095
 H272 H 0.36065 1.13966 1.15151
 C273 C 0.28064 0.86542 0.86786
 C274 C 0.27938 0.85888 0.82814
 C275 C 0.24631 0.84242 0.81180
 C276 C 0.21465 0.83220 0.83487
 C277 C 0.21706 0.83899 0.87445
 N278 N 0.24942 0.85554 0.88972
 C279 C 0.31457 0.88396 0.88625
 N280 N 0.30898 0.90676 0.91765
 C281 C 0.33884 0.92523 0.93550
 C282 C 0.37715 0.92090 0.92202
 C283 C 0.38355 0.89694 0.89008
 C284 C 0.35244 0.87854 0.87212
 H285 H 0.24529 0.83772 0.78112
 H286 H 0.19291 0.83189 0.89299
 H287 H 0.33258 0.94320 0.96017
 H288 H 0.41258 0.89255 0.87875
 H289 H 0.30319 0.86725 0.80971
 H290 H 0.35813 0.85990 0.84779
 C291 C 0.72120 0.87444 1.13375
 C292 C 0.75245 0.89633 1.14787
 C293 C 0.78397 0.87769 1.16495
 C294 C 0.78450 0.83735 1.16805
 C295 C 0.75252 0.81650 1.15407
 N296 N 0.72199 0.83531 1.13762
 C297 C 0.68757 0.89296 1.11470
 N298 N 0.65176 0.87636 1.11706
 C299 C 0.61980 0.89190 1.09979
 C300 C 0.62311 0.92580 1.07812
 C301 C 0.65988 0.94309 1.07510
 C302 C 0.69203 0.92686 1.09329
 H303 H 0.80810 0.89469 1.17554
 H304 H 0.75178 0.78537 1.15649
 H305 H 0.59206 0.87747 1.10258
 H306 H 0.66390 0.96924 1.05863
 H307 H 0.75244 0.92753 1.14622
 H308 H 0.72017 0.94034 1.08985
 C309 C 0.72111 1.13064 0.86836
 C310 C 0.75321 1.14342 0.88980
 C311 C 0.78395 1.16165 0.87132
 C312 C 0.78285 1.16720 0.83159
 C313 C 0.75008 1.15449 0.81121
 N314 N 0.72030 1.13692 0.82987
 C315 C 0.68808 1.11085 0.88674
 N316 N 0.65165 1.11502 0.87186
 C317 C 0.61999 1.09787 0.88777
 C318 C 0.62419 1.07464 0.92043
 C319 C 0.66168 1.06936 0.93564
 C320 C 0.69356 1.08737 0.91898
 H321 H 0.80882 1.17105 0.88794
 H322 H 0.74819 1.15868 0.78056
 H323 H 0.59168 1.10243 0.87489
 H324 H 0.66644 1.05150 0.96063
 H325 H 0.75444 1.13984 0.92057
 H326 H 0.72222 1.08246 0.93096
 C327 C 0.13632 0.28652 0.13572
 C328 C 0.17671 0.28418 0.14160
 C329 C 0.19257 0.25138 0.15874
 C330 C 0.16836 0.22106 0.17021
 C331 C 0.12815 0.22462 0.16418
 N332 N 0.11338 0.25665 0.14700
 C333 C 0.11814 0.31979 0.11615
 N334 N 0.08471 0.31415 0.09597
 C335 C 0.06633 0.34325 0.07711
 C336 C 0.08132 0.38091 0.07831
 C337 C 0.11553 0.38747 0.09931
 C338 C 0.13405 0.35704 0.11817
 H339 H 0.22377 0.24943 0.16282
 H340 H 0.10869 0.20153 0.17222
 H341 H 0.03980 0.33693 0.06160
 H342 H 0.12800 0.41609 0.10120
 H343 H 0.19603 0.30681 0.13212
 H344 H 0.16004 0.36288 0.13469
 C345 C -0.12929 0.27862 -0.13246
 C346 C -0.10679 0.24788 -0.14688
 C347 C -0.12506 0.21747 -0.16591
 C348 C -0.16560 0.21757 -0.17041
 C349 C -0.18698 0.24908 -0.15620
 N350 N -0.16853 0.27855 -0.13797
 C351 C -0.11132 0.31116 -0.11164
 N352 N -0.12743 0.34702 -0.11451
 C353 C -0.11212 0.37826 -0.09632
 C354 C -0.07882 0.37425 -0.07328
 C355 C -0.06243 0.33728 -0.06916
 C356 C -0.07844 0.30578 -0.08837
 H357 H -0.10774 0.19352 -0.17648
 H358 H -0.21829 0.25007 -0.15949
 H359 H -0.12594 0.40615 -0.10000
 H360 H -0.03700 0.33268 -0.05140
 H361 H -0.07544 0.24743 -0.14382
 H362 H -0.06551 0.27749 -0.08456
 C363 C 0.12301 0.72059 -0.13244
 C364 C 0.10091 0.75208 -0.14563
 C365 C 0.11966 0.78365 -0.16184
 C366 C 0.16033 0.78406 -0.16488
 C367 C 0.18140 0.75193 -0.15169
 N368 N 0.16247 0.72129 -0.13617
 C369 C 0.10422 0.68694 -0.11437
 N370 N 0.12009 0.65105 -0.11877
 C371 C 0.10413 0.61912 -0.10248
 C372 C 0.07059 0.62249 -0.07969
 C373 C 0.05419 0.65936 -0.07452
 C374 C 0.07074 0.69147 -0.09183
 H375 H 0.10249 0.80788 -0.17186
 H376 H 0.21280 0.75110 -0.15411
 H377 H 0.11798 0.59133 -0.10689
 H378 H 0.02864 0.66355 -0.05685
 H379 H 0.06945 0.75216 -0.14393
 H380 H 0.05793 0.71965 -0.08680
 C381 C -0.13365 0.71735 0.13586
 C382 C -0.13925 0.71911 0.17570
 C383 C -0.15579 0.75209 0.19204
 C384 C -0.16688 0.78323 0.16887
 C385 C -0.16084 0.78039 0.12922
 N386 N -0.14434 0.74809 0.11394
 C387 C -0.11538 0.68348 0.11719
 N388 N -0.09493 0.68862 0.08421
 C389 C -0.07724 0.65885 0.06552
 C390 C -0.07997 0.62107 0.07977
 C391 C -0.10136 0.61509 0.11347
 C392 C -0.11902 0.64613 0.13224
 H393 H -0.15989 0.75345 0.22277
 H394 H -0.16858 0.80412 0.11058
 H395 H -0.06131 0.66476 0.03945
 H396 H -0.10441 0.58644 0.12542
 H397 H -0.13016 0.69575 0.19421
 H398 H -0.13588 0.64071 0.15783
 C399 C 1.13727 0.13144 0.71731
 C400 C 1.15532 0.10974 0.74617
 C401 C 1.17210 0.12847 0.77743
 C402 C 1.17086 0.16909 0.78058
 C403 C 1.15292 0.18969 0.75046
 N404 N 1.13706 0.17067 0.72004
 C405 C 1.11805 0.11236 0.68438
 N406 N 1.11925 0.12896 0.64906
 C407 C 1.10203 0.11254 0.61785
 C408 C 1.08151 0.07771 0.62141
 C409 C 1.07947 0.06057 0.65773
 C410 C 1.09779 0.07761 0.68910
 H411 H 1.18492 0.11101 0.79985
 H412 H 1.15199 0.22094 0.75090
 H413 H 1.10397 0.12695 0.59045
 H414 H 1.06377 0.03390 0.66195
 H415 H 1.15659 0.07852 0.74459
 H416 H 1.09544 0.06407 0.71691
 C417 C 0.86865 -0.13272 0.71516
 C418 C 0.86310 -0.17291 0.71563
 C419 C 0.84630 -0.19016 0.74762
 C420 C 0.83484 -0.16754 0.77904
 C421 C 0.84115 -0.12754 0.77763
 N422 N 0.85789 -0.11137 0.74627
 C423 C 0.88653 -0.11320 0.68195
 N424 N 0.90814 -0.08079 0.68771
 C425 C 0.92576 -0.06180 0.65841
 C426 C 0.92176 -0.07515 0.62055
 C427 C 0.89891 -0.10806 0.61401
 C428 C 0.88137 -0.12712 0.64451
 H429 H 0.84203 -0.22112 0.74784
 H430 H 0.83317 -0.10929 0.80163
 H431 H 0.94290 -0.03641 0.66476
 H432 H 0.89482 -0.11938 0.58533
 H433 H 0.87222 -0.19098 0.69189
 H434 H 0.86356 -0.15218 0.63867
 C435 C 1.13820 -0.13599 0.28585
 C436 C 1.14396 -0.17612 0.28341
 C437 C 1.15981 -0.19211 0.25011
 C438 C 1.17020 -0.16829 0.21941
 C439 C 1.16454 -0.12832 0.22315
 N440 N 1.14852 -0.11342 0.25564
 C441 C 1.11937 -0.11772 0.31949
 N442 N 1.09851 -0.08463 0.31440
 C443 C 1.07995 -0.06637 0.34374
 C444 C 1.08213 -0.08117 0.38112
 C445 C 1.10395 -0.11498 0.38713
 C446 C 1.12250 -0.13337 0.35645
 H447 H 1.16356 -0.22311 0.24800
 H448 H 1.17174 -0.10916 0.19981
 H449 H 1.06380 -0.04017 0.33780
 H450 H 1.10662 -0.12730 0.41549
 H451 H 1.13519 -0.19515 0.30633
 H452 H 1.13956 -0.15913 0.36182
 C453 C 0.87112 0.12793 0.27914
 C454 C 0.85791 0.10590 0.24789
 C455 C 0.83962 0.12422 0.21724
 C456 C 0.83443 0.16440 0.21753
 C457 C 0.84761 0.18537 0.24945
 N458 N 0.86521 0.16686 0.27916
 C459 C 0.89096 0.10970 0.31212
 N460 N 0.88717 0.12562 0.34768
 C461 C 0.90436 0.10993 0.37919
 C462 C 0.92729 0.07640 0.37579
 C463 C 0.93214 0.06004 0.33922
 C464 C 0.91408 0.07651 0.30746
 H465 H 0.82986 0.10709 0.19309
 H466 H 0.84372 0.21638 0.25076
 H467 H 0.90013 0.12371 0.40676
 H468 H 0.94969 0.03430 0.33508
 H469 H 0.86117 0.07481 0.24725
 H470 H 0.91870 0.06362 0.27953
 C471 C 0.13040 0.28216 -0.13572
 C472 C 0.10806 0.25329 -0.15335
 C473 C 0.12655 0.22236 -0.17161
 C474 C 0.16752 0.21959 -0.17218
 C475 C 0.18867 0.24988 -0.15482
 N476 N 0.16990 0.27990 -0.13752
 C477 C 0.11192 0.31467 -0.11483
 N478 N 0.12882 0.35020 -0.11529
 C479 C 0.11307 0.38115 -0.09662
 C480 C 0.07860 0.37709 -0.07538
 C481 C 0.06132 0.34044 -0.07387
 C482 C 0.07769 0.30934 -0.09364
 H483 H 0.10870 0.19976 -0.18386
 H484 H 0.22017 0.24975 -0.15524
 H485 H 0.12753 0.40880 -0.09831
 H486 H 0.03484 0.33584 -0.05777
 H487 H 0.07657 0.25454 -0.15305
 H488 H 0.06399 0.28130 -0.09183
 C489 C -0.13459 0.28328 0.13524
 C490 C -0.17501 0.28152 0.14117
 C491 C -0.19107 0.24902 0.15844
 C492 C -0.16708 0.21838 0.16997
 C493 C -0.12684 0.22129 0.16380
 N494 N -0.11184 0.25308 0.14653
 C495 C -0.11631 0.31656 0.11592
 N496 N -0.08313 0.31093 0.09525
 C497 C -0.06496 0.34021 0.07658
 C498 C -0.07997 0.37797 0.07849
 C499 C -0.11390 0.38441 0.10004
 C500 C -0.13212 0.35390 0.11869
 H501 H -0.22228 0.24751 0.16249
 H502 H -0.10755 0.19788 0.17180
 H503 H -0.03868 0.33397 0.06059
 H504 H -0.12645 0.41305 0.10253
 H505 H -0.19421 0.30441 0.13167
 H506 H -0.15785 0.35976 0.13563
 C507 C -0.13441 0.71351 -0.13906
 C508 C -0.17463 0.71552 -0.14615
 C509 C -0.19043 0.74875 -0.16261
 C510 C -0.16625 0.77969 -0.17236
 C511 C -0.12621 0.77641 -0.16527
 N512 N -0.11153 0.74402 -0.14864
 C513 C -0.11652 0.67990 -0.11977
 N514 N -0.08496 0.68561 -0.09689
 C515 C -0.06725 0.65626 -0.07778
 C516 C -0.08093 0.61825 -0.08152
 C517 C -0.11312 0.61164 -0.10545
 C518 C -0.13105 0.64235 -0.12448
 H519 H -0.22150 0.75055 -0.16755
 H520 H -0.10685 0.79999 -0.17207
 H521 H -0.04249 0.66274 -0.05975
 H522 H -0.12461 0.58281 -0.10932
 H523 H -0.19387 0.69227 -0.13805
 H524 H -0.15559 0.63659 -0.14308
 C525 C 0.12402 0.72176 0.13254
 C526 C 0.10279 0.75298 0.14777
 C527 C 0.12253 0.78359 0.16500
 C528 C 0.16329 0.78324 0.16697
 C529 C 0.18344 0.75140 0.15179
 N530 N 0.16358 0.72175 0.13536
 C531 C 0.10454 0.68869 0.11384
 N532 N 0.12167 0.65319 0.11528
 C533 C 0.10565 0.62159 0.09835
 C534 C 0.07057 0.62484 0.07791
 C535 C 0.05263 0.66127 0.07574
 C536 C 0.06941 0.69316 0.09372
 H537 H 0.10609 0.80775 0.17644
 H538 H 0.21489 0.75012 0.15317
 H539 H 0.12063 0.59412 0.10045
 H540 H 0.02559 0.66513 0.06020
 H541 H 0.07130 0.75361 0.14691
 H542 H 0.05541 0.72109 0.09110
 C543 C 0.28324 1.13888 0.86644
 C544 C 0.28242 1.14129 0.82637
 C545 C 0.25026 1.15788 0.80821
 C546 C 0.21904 1.17302 0.82983
 C547 C 0.22185 1.17104 0.87010
 N548 N 0.25306 1.15385 0.88700
 C549 C 0.31589 1.11952 0.88643
 N550 N 0.35159 1.11736 0.86955
 C551 C 0.38237 1.09947 0.88655
 C552 C 0.37795 1.08166 0.92236
 C553 C 0.34137 1.08339 0.94015
 C554 C 0.31044 1.10264 0.92251
 H555 H 0.24985 1.15921 0.77722
 H556 H 0.19843 1.18154 0.88810
 H557 H 0.41004 1.09861 0.87176
 H558 H 0.33675 1.07010 0.96779
 H559 H 0.30596 1.12962 0.80919
 H560 H 0.28237 1.10365 0.93659
 C561 C 0.27813 0.86707 1.12509
 C562 C 0.24504 0.85527 1.10454
 C563 C 0.21417 0.83806 1.12387
 C564 C 0.21605 0.83257 1.16361
 C565 C 0.24973 0.84440 1.18309
 N566 N 0.27961 0.86093 1.16360
 C567 C 0.31139 0.88586 1.10583
 N568 N 0.34799 0.88102 1.12015
 C569 C 0.37973 0.89775 1.10391
 C570 C 0.37552 0.92148 1.07158
 C571 C 0.33793 0.92720 1.05674
 C572 C 0.30595 0.90943 1.07363
 H573 H 0.18864 0.82931 1.10789
 H574 H 0.25231 0.84024 1.21370
 H575 H 0.40809 0.89284 1.11654
 H576 H 0.33313 0.94552 1.03211
 H577 H 0.24314 0.85880 1.07380
 H578 H 0.27723 0.91488 1.06204
 C579 C 0.72117 1.12992 1.12984
 C580 C 0.75244 1.14385 1.10805
 C581 C 0.78352 1.16187 1.12637
 C582 C 0.78362 1.16600 1.16631
 C583 C 0.75166 1.15218 1.18709
 N584 N 0.72149 1.13487 1.16858
 C585 C 0.68795 1.11013 1.11150
 N586 N 0.65162 1.11396 1.12671
 C587 C 0.61988 1.09689 1.11064
 C588 C 0.62388 1.07410 1.07748
 C589 C 0.66130 1.06913 1.06198
 C590 C 0.69325 1.08708 1.07878
 H591 H 0.80774 1.17221 1.10949
 H592 H 0.75074 1.15526 1.21794
 H593 H 0.59165 1.10117 1.12377
 H594 H 0.66596 1.05163 1.03661
 H595 H 0.75275 1.14126 1.07714
 H596 H 0.72183 1.08249 1.06650
 C597 C 0.72199 0.86842 0.86809
 C598 C 0.75289 0.85342 0.88991
 C599 C 0.78427 0.83579 0.87152
 C600 C 0.78506 0.83305 0.83147
 C601 C 0.75347 0.84798 0.81064
 N602 N 0.72301 0.86491 0.82922
 C603 C 0.68845 0.88781 0.88656
 N604 N 0.65246 0.88536 0.87029
 C605 C 0.62049 0.90236 0.88628
 C606 C 0.62393 0.92367 0.92042
 C607 C 0.66096 0.92703 0.93716
 C608 C 0.69312 0.90921 0.92042
 H609 H 0.80810 0.82447 0.88848
 H610 H 0.75296 0.84587 0.77971
 H611 H 0.59257 0.89934 0.87223
 H612 H 0.66517 0.94328 0.96340
 H613 H 0.75266 0.85478 0.92089
 H614 H 0.72141 0.91272 0.93362
   
