data_POSCAR
  _audit_creation_date              2014-09-24
  _audit_creation_method            'ToBaCCo'
  _symmetry_space_group_name_H-M    'P1'
  _symmetry_Int_Tables_number       1
  _symmetry_cell_setting            triclinic
  loop_
  _symmetry_equiv_pos_as_xyz
 x,y,z
_cell_length_a 30.9270
_cell_length_b 30.9006
_cell_length_c 22.1696
_cell_angle_alpha 87.080700
_cell_angle_beta 96.707400
_cell_angle_gamma 84.867700
loop_
  _atom_site_label
  _atom_site_type_symbol
  _atom_site_fract_x
  _atom_site_fract_y
  _atom_site_fract_z
C1 C 0.37395 0.31979 0.33534
 C2 C 0.35309 0.28733 0.36338
 C3 C 0.30907 0.29403 0.37018
 C4 C 0.28549 0.33427 0.34947
 C5 C 0.30614 0.36576 0.31988
 C6 C 0.35048 0.35839 0.31242
 C7 C 0.41530 0.32018 0.31866
 N8 N 0.41726 0.35780 0.28538
 C9 C 0.37777 0.38143 0.28085
 C10 C 0.27535 0.39988 0.30057
 N11 N 0.23673 0.39068 0.31880
 C12 C 0.24229 0.35065 0.34861
 C13 C 0.29710 0.25477 0.39263
 N14 N 0.33283 0.22501 0.39905
 C15 C 0.36710 0.24485 0.38175
 H16 H 0.44121 0.29381 0.32668
 H17 H 0.36914 0.41214 0.25462
 H18 H 0.28060 0.42940 0.27508
 H19 H 0.21663 0.33432 0.36677
 H20 H 0.26453 0.24793 0.40101
 H21 H 0.39947 0.22886 0.37966
 C22 C 0.70043 -0.29604 0.26439
 C23 C 0.72387 -0.26041 0.27796
 C24 C 0.76422 -0.26638 0.31323
 C25 C 0.78195 -0.30862 0.33470
 C26 C 0.75762 -0.34354 0.32381
 C27 C 0.71688 -0.33725 0.28789
 C28 C 0.66163 -0.29980 0.22855
 N29 N 0.65447 -0.34252 0.22935
 C30 C 0.68782 -0.36557 0.26611
 C31 C 0.78217 -0.38037 0.35023
 N32 N 0.82170 -0.36912 0.37427
 C33 C 0.82196 -0.32526 0.36519
 C34 C 0.77695 -0.22550 0.32391
 N35 N 0.74514 -0.19540 0.29611
 C36 C 0.71310 -0.21650 0.26691
 H37 H 0.64095 -0.27355 0.20260
 H38 H 0.69158 -0.40062 0.27451
 H39 H 0.77306 -0.41337 0.34832
 H40 H 0.84933 -0.30697 0.37894
 H41 H 0.80570 -0.21825 0.35295
 H42 H 0.68248 -0.20100 0.24357
 C43 C 0.67811 0.27450 0.69894
 C44 C 0.70796 0.24896 0.66951
 C45 C 0.74797 0.26354 0.66104
 C46 C 0.75824 0.30413 0.68073
 C47 C 0.72933 0.32877 0.71139
 C48 C 0.68887 0.31393 0.72041
 C49 C 0.63906 0.26632 0.71890
 N50 N 0.62603 0.29952 0.75252
 C51 C 0.65614 0.32904 0.75330
 C52 C 0.74977 0.36434 0.73045
 N53 N 0.78971 0.36241 0.71035
 C54 C 0.79518 0.32566 0.67992
 C55 C 0.77273 0.22986 0.63954
 N56 N 0.74854 0.19548 0.63438
 C57 C 0.70873 0.20683 0.65193
 H58 H 0.62271 0.23702 0.71253
 H59 H 0.65561 0.35816 0.77846
 H60 H 0.73645 0.38987 0.75662
 H61 H 0.82435 0.31463 0.66027
 H62 H 0.80650 0.22963 0.63094
 H63 H 0.68346 0.18508 0.65557
 C64 C 0.24321 -0.29114 0.69244
 C65 C 0.22119 -0.25576 0.65568
 C66 C 0.18279 -0.26103 0.61887
 C67 C 0.16608 -0.30176 0.61786
 C68 C 0.18734 -0.33630 0.65499
 C69 C 0.22635 -0.33110 0.69166
 C70 C 0.28094 -0.29583 0.73322
 N71 N 0.28742 -0.33791 0.75600
 C72 C 0.25414 -0.35954 0.73084
 C73 C 0.16236 -0.37080 0.64851
 N74 N 0.12681 -0.35828 0.60732
 C75 C 0.12908 -0.31624 0.58766
 C76 C 0.16749 -0.22102 0.59071
 N77 N 0.19586 -0.19188 0.60890
 C78 C 0.22895 -0.21274 0.64832
 H79 H 0.30226 -0.27074 0.74460
 H80 H 0.25035 -0.39363 0.74038
 H81 H 0.16950 -0.40256 0.67233
 H82 H 0.10464 -0.29703 0.55587
 H83 H 0.13781 -0.21354 0.55947
 H84 H 0.25601 -0.19751 0.67104
 C85 C 0.66551 -0.27855 0.73041
 C86 C 0.67560 -0.24167 0.69630
 C87 C 0.71191 -0.24520 0.66522
 C88 C 0.73818 -0.28430 0.66680
 C89 C 0.72903 -0.32020 0.70062
 C90 C 0.69213 -0.31746 0.73208
 C91 C 0.63258 -0.28615 0.76574
 N92 N 0.63848 -0.32858 0.78763
 C93 C 0.67477 -0.34773 0.76716
 C94 C 0.76141 -0.35306 0.69495
 N95 N 0.78914 -0.33756 0.65749
 C96 C 0.77492 -0.29559 0.63992
 C97 C 0.71563 -0.20561 0.63744
 N98 N 0.68244 -0.17725 0.64996
 C99 C 0.65722 -0.19883 0.68554
 H100 H 0.60612 -0.26271 0.77410
 H101 H 0.68774 -0.38140 0.77714
 H102 H 0.76416 -0.38578 0.71584
 H103 H 0.79060 -0.27452 0.61042
 H104 H 0.74087 -0.19803 0.60971
 H105 H 0.62846 -0.18432 0.70312
 C106 C 0.26402 0.25034 0.84224
 C107 C 0.25235 0.21466 0.80923
 C108 C 0.21282 0.21753 0.77226
 C109 C 0.18446 0.25575 0.76778
 C110 C 0.19569 0.29088 0.80044
 C111 C 0.23588 0.28821 0.83771
 C112 C 0.30253 0.25890 0.87534
 N113 N 0.29856 0.30110 0.89025
 C114 C 0.25782 0.31911 0.86774
 C115 C 0.16424 0.32495 0.78199
 N116 N 0.13469 0.31117 0.73870
 C117 C 0.14682 0.26899 0.72969
 C118 C 0.21232 0.18095 0.73965
 N119 N 0.25063 0.15590 0.75563
 C120 C 0.27531 0.17606 0.79839
 H121 H 0.33202 0.23677 0.88452
 H122 H 0.24579 0.35291 0.87019
 H123 H 0.16418 0.35789 0.79648
 H124 H 0.13041 0.24990 0.69603
 H125 H 0.18691 0.17429 0.70446
 H126 H 0.30854 0.16483 0.81725
 C127 C 0.27557 -0.25653 0.23980
 C128 C 0.26080 -0.21794 0.26542
 C129 C 0.22660 -0.21807 0.30093
 C130 C 0.20683 -0.25649 0.31141
 C131 C 0.22105 -0.29397 0.28536
 C132 C 0.25570 -0.29412 0.25013
 C133 C 0.30813 -0.26702 0.20367
 N134 N 0.30837 -0.31008 0.19290
 C135 C 0.27635 -0.32667 0.22115
 C136 C 0.19538 -0.32581 0.30072
 N137 N 0.16608 -0.30886 0.33637
 C138 C 0.17300 -0.26648 0.34366
 C139 C 0.21856 -0.17644 0.31879
 N140 N 0.24698 -0.15121 0.29543
 C141 C 0.27310 -0.17605 0.26294
 H142 H 0.33016 -0.24511 0.18721
 H143 H 0.26861 -0.36017 0.22079
 H144 H 0.19819 -0.35899 0.28712
 H145 H 0.15425 -0.24434 0.36928
 H146 H 0.19381 -0.16518 0.34664
 H147 H 0.29876 -0.16439 0.23899
 C148 C 0.79398 0.26528 0.20344
 C149 C 0.81584 0.22878 0.23770
 C150 C 0.85622 0.23180 0.27040
 C151 C 0.87474 0.27153 0.27057
 C152 C 0.85331 0.30769 0.23678
 C153 C 0.81258 0.30445 0.20268
 C154 C 0.75327 0.27228 0.17040
 N155 N 0.74666 0.31467 0.14954
 C156 C 0.78265 0.33466 0.16902
 C157 C 0.87727 0.34239 0.24992
 N158 N 0.91209 0.32804 0.29166
 C159 C 0.91081 0.28474 0.30417
 C160 C 0.86869 0.19242 0.30209
 N161 N 0.83656 0.16588 0.29002
 C162 C 0.80395 0.18776 0.25090
 H163 H 0.72982 0.24849 0.16338
 H164 H 0.78622 0.36892 0.16079
 H165 H 0.86863 0.37587 0.23288
 H166 H 0.93357 0.26456 0.33714
 H167 H 0.89800 0.18429 0.33383
 H168 H 0.77349 0.17511 0.23454
 O169 O 0.32086 0.04334 0.48412
 O170 O 0.26763 -0.04683 0.55030
 O171 O 0.29304 -0.03038 0.44613
 O172 O 0.30017 0.02248 0.59131
 O173 O 0.23512 0.05801 0.56362
 O174 O 0.22936 0.00722 0.41609
 O175 O 0.20316 -0.01090 0.51955
 O176 O 0.25642 0.08034 0.45762
 Cu177 Cu 0.30207 -0.00624 0.52055
 Cu178 Cu 0.22471 0.03750 0.48619
 C179 C 0.29780 0.07774 0.46139
 C180 C 0.22609 -0.04458 0.54454
 C181 C 0.25930 -0.02201 0.40748
 C182 C 0.26893 0.04921 0.60230
 O183 O 0.72615 0.05616 0.50734
 O184 O 0.71565 -0.02539 0.39292
 O185 O 0.69047 -0.01790 0.50139
 O186 O 0.75029 0.04807 0.40064
 O187 O 0.81263 0.01125 0.43990
 O188 O 0.75384 -0.05125 0.54291
 O189 O 0.77740 -0.06167 0.43533
 O190 O 0.79014 0.02244 0.54596
 Cu191 Cu 0.71410 0.01854 0.44663
 Cu192 Cu 0.78957 -0.02358 0.49556
 C193 C 0.76093 0.05421 0.54435
 C194 C 0.74466 -0.05734 0.39451
 C195 C 0.71240 -0.04615 0.53930
 C196 C 0.79168 0.04107 0.40371
 O197 O 0.50044 0.39079 0.07630
 O198 O 0.53082 0.36323 -0.07495
 O199 O 0.45677 0.37739 -0.02766
 O200 O 0.57287 0.38141 0.02726
 O201 O 0.57896 0.31098 0.05334
 O202 O 0.46145 0.30748 0.00115
 O203 O 0.53307 0.29332 -0.04707
 O204 O 0.50790 0.32052 0.10403
 Cu205 Cu 0.51447 0.38520 -0.00289
 Cu206 Cu 0.52077 0.30108 0.03072
 C207 C 0.49993 0.35984 0.11617
 C208 C 0.53713 0.32338 -0.08638
 C209 C 0.43920 0.34206 -0.02245
 C210 C 0.59575 0.34701 0.04966
 O211 O 0.51918 0.59715 0.06129
 O212 O 0.43440 0.59840 -0.06642
 O213 O 0.51894 0.60172 -0.05573
 O214 O 0.43443 0.60685 0.04890
 O215 O 0.43129 0.67863 0.04234
 O216 O 0.51286 0.67351 -0.06606
 O217 O 0.42717 0.67026 -0.07495
 O218 O 0.51698 0.66886 0.05358
 Cu219 Cu 0.47717 0.59418 -0.00236
 Cu220 Cu 0.47180 0.67996 -0.01233
 C221 C 0.53289 0.63211 0.07955
 C222 C 0.41530 0.63374 -0.09157
 C223 C 0.53037 0.63693 -0.07865
 C224 C 0.41853 0.64373 0.06354
 O225 O 0.09338 0.47893 0.38862
 O226 O -0.00919 0.53027 0.43580
 O227 O 0.01866 0.45372 0.40537
 O228 O 0.06826 0.55724 0.42180
 O229 O 0.04778 0.57477 0.32415
 O230 O -0.00878 0.47507 0.31095
 O231 O -0.03059 0.55426 0.34049
 O232 O 0.06786 0.49733 0.29261
 Cu233 Cu 0.04525 0.50359 0.42284
 Cu234 Cu 0.01640 0.52762 0.30764
 C235 C 0.09747 0.47858 0.33221
 C236 C -0.03744 0.55074 0.39575
 C237 C -0.00346 0.44675 0.35550
 C238 C 0.06774 0.58284 0.37504
 O239 O -0.00619 0.51991 0.57725
 O240 O -0.08607 0.45176 0.63541
 O241 O -0.08645 0.53152 0.59427
 O242 O -0.00502 0.43657 0.61324
 O243 O 0.01582 0.45185 0.70781
 O244 O -0.06480 0.54835 0.68815
 O245 O -0.06554 0.46985 0.72887
 O246 O 0.01728 0.53373 0.67161
 Cu247 Cu -0.04752 0.48264 0.59568
 Cu248 Cu -0.02161 0.50235 0.70858
 C249 C 0.01845 0.53926 0.61474
 C250 C -0.09062 0.45086 0.69171
 C251 C -0.08953 0.55597 0.63808
 C252 C 0.01882 0.42759 0.66361
 N253 N 0.51665 0.35326 0.22518
 N254 N 0.49486 0.35184 0.27308
 C255 C 0.45314 0.36683 0.25311
 C256 C 0.44990 0.37731 0.19143
 N257 N 0.49038 0.36869 0.17587
 H258 H 0.42026 0.38390 0.15990
 N259 N 0.58317 0.59134 0.15825
 N260 N 0.61645 0.59683 0.19942
 C261 C 0.62140 0.63971 0.19652
 C262 C 0.59000 0.66066 0.15236
 N263 N 0.56699 0.62899 0.12951
 H264 H 0.58545 0.69468 0.13662
 N265 N 0.54132 0.27487 -0.16821
 N266 N 0.56570 0.26704 -0.21242
 C267 C 0.59152 0.29986 -0.21475
 C268 C 0.58170 0.32864 -0.17145
 N269 N 0.55031 0.31159 -0.14334
 H270 H 0.59858 0.35633 -0.15733
 N271 N 0.36221 0.59397 -0.14787
 N272 N 0.32696 0.60032 -0.18825
 C273 C 0.32119 0.64334 -0.20371
 C274 C 0.35413 0.66352 -0.17153
 N275 N 0.37895 0.63120 -0.13709
 H276 H 0.35895 0.69778 -0.17173
 N277 N 0.14927 0.46724 0.25908
 N278 N 0.18664 0.44416 0.25363
 C279 C 0.19685 0.41853 0.30525
 C280 C 0.16515 0.42686 0.34319
 N281 N 0.13603 0.45761 0.31243
 H282 H 0.16386 0.41295 0.38868
 N283 N 0.03354 0.59833 0.54624
 N284 N 0.06179 0.62807 0.54413
 C285 C 0.09342 0.61729 0.59104
 C286 C 0.08381 0.58024 0.62216
 N287 N 0.04613 0.56954 0.59271
 H288 H 0.10052 0.56448 0.66428
 N289 N -0.10828 0.54025 0.42538
 N290 N -0.14821 0.56071 0.41723
 C291 C -0.14403 0.60196 0.39770
 C292 C -0.10033 0.60624 0.39386
 N293 N -0.07911 0.56682 0.41155
 H294 H -0.08623 0.63324 0.37305
 N295 N -0.14963 0.44634 0.75415
 N296 N -0.18364 0.42374 0.75907
 C297 C -0.18077 0.39207 0.71969
 C298 C -0.14429 0.39588 0.69014
 N299 N -0.12585 0.43018 0.71310
 H300 H -0.13316 0.37700 0.65414
 N301 N 0.36164 0.11340 0.43938
 N302 N 0.37230 0.15261 0.42366
 C303 C 0.33493 0.17939 0.41649
 C304 C 0.30078 0.15549 0.42774
 N305 N 0.31899 0.11437 0.44176
 H306 H 0.26654 0.16675 0.42688
 N307 N 0.80793 0.09749 0.60695
 N308 N 0.80625 0.13619 0.63020
 C309 C 0.76417 0.15299 0.61917
 C310 C 0.73997 0.12385 0.58876
 N311 N 0.76860 0.08957 0.58199
 H312 H 0.70572 0.12805 0.57058
 N313 N 0.16243 -0.08478 0.54950
 N314 N 0.15303 -0.12450 0.56520
 C315 C 0.19104 -0.14657 0.58995
 C316 C 0.22406 -0.11955 0.58909
 N317 N 0.20475 -0.08122 0.56343
 H318 H 0.25876 -0.12752 0.60252
 N319 N 0.70950 -0.08486 0.30239
 N320 N 0.70934 -0.12144 0.27378
 C321 C 0.74100 -0.14966 0.30470
 C322 C 0.76054 -0.12950 0.35338
 N323 N 0.73977 -0.08915 0.35027
 H324 H 0.78460 -0.14371 0.39007
 N325 N 0.58926 0.59908 -0.12479
 N326 N 0.61943 0.60749 -0.16034
 C327 C 0.61307 0.65050 -0.17642
 C328 C 0.57797 0.66841 -0.14965
 N329 N 0.56417 0.63505 -0.11775
 H330 H 0.56444 0.70206 -0.15184
 N331 N 0.36568 0.37672 -0.05317
 N332 N 0.32673 0.36656 -0.07649
 C333 C 0.33075 0.32320 -0.08238
 C334 C 0.37322 0.30684 -0.06144
 N335 N 0.39384 0.34145 -0.04384
 H336 H 0.38816 0.27378 -0.06112
 N337 N 0.36577 0.61135 0.12037
 N338 N 0.33524 0.62294 0.15518
 C339 C 0.33564 0.66622 0.16040
 C340 C 0.36736 0.68104 0.12770
 N341 N 0.38531 0.64559 0.10343
 H342 H 0.37621 0.71393 0.12146
 N343 N 0.66096 0.38525 0.06932
 N344 N 0.70183 0.37786 0.09585
 C345 C 0.70740 0.33552 0.11551
 C346 C 0.66894 0.31701 0.10040
 N347 N 0.64081 0.34923 0.07163
 H348 H 0.66168 0.28397 0.11043
 N349 N -0.12014 0.62614 0.59074
 N350 N -0.15272 0.65613 0.59547
 C351 C -0.17491 0.64069 0.63958
 C352 C -0.15496 0.60054 0.66232
 N353 N -0.12093 0.59294 0.63056
 H354 H -0.16374 0.57919 0.69823
 N355 N -0.00660 0.37040 0.38422
 N356 N -0.02836 0.33716 0.36727
 C357 C -0.05822 0.35251 0.32004
 C358 C -0.05412 0.39622 0.30813
 N359 N -0.02147 0.40594 0.34941
 H360 H -0.07273 0.41866 0.27355
 N361 N 0.04793 0.35797 0.63171
 N362 N 0.07832 0.32571 0.65081
 C363 C 0.09896 0.33725 0.70366
 C364 C 0.08051 0.37743 0.71676
 N365 N 0.04871 0.38915 0.67057
 H366 H 0.08898 0.39609 0.75570
 N367 N 0.08388 0.65355 0.41229
 N368 N 0.10990 0.68431 0.40161
 C369 C 0.13493 0.66928 0.35975
 C370 C 0.12343 0.62877 0.34473
 N371 N 0.09163 0.62023 0.37853
 H372 H 0.13607 0.60777 0.31192
 N373 N 0.64786 -0.07400 0.57733
 N374 N 0.63857 -0.10921 0.60859
 C375 C 0.67720 -0.13235 0.62813
 C376 C 0.71013 -0.11044 0.60814
 N377 N 0.69072 -0.07439 0.57659
 H378 H 0.74461 -0.12148 0.61172
 N379 N 0.22067 -0.04041 0.31148
 N380 N 0.21680 -0.07514 0.27923
 C381 C 0.24845 -0.10582 0.30419
 C382 C 0.27128 -0.08922 0.35347
 N383 N 0.25325 -0.04815 0.35618
 H384 H 0.29479 -0.10693 0.38806
 N385 N 0.85891 0.06500 0.37313
 N386 N 0.87245 0.09838 0.34317
 C387 C 0.83616 0.12333 0.31838
 C388 C 0.79989 0.10460 0.33405
 N389 N 0.81562 0.06820 0.36838
 H390 H 0.76595 0.11776 0.32560
 N391 N 0.30697 0.06505 0.70018
 N392 N 0.30320 0.09342 0.74264
 C393 C 0.26487 0.11783 0.72625
 C394 C 0.24525 0.10382 0.67265
 N395 N 0.27259 0.07086 0.65793
 H396 H 0.21557 0.11773 0.64514
   
