data_POSCAR
  _audit_creation_date              2014-09-24
  _audit_creation_method            'ToBaCCo'
  _symmetry_space_group_name_H-M    'P1'
  _symmetry_Int_Tables_number       1
  _symmetry_cell_setting            triclinic
  loop_
  _symmetry_equiv_pos_as_xyz
 x,y,z
_cell_length_a 29.5634
_cell_length_b 29.2989
_cell_length_c 29.0586
_cell_angle_alpha 90.018200
_cell_angle_beta 88.023500
_cell_angle_gamma 85.724100
loop_
  _atom_site_label
  _atom_site_type_symbol
  _atom_site_fract_x
  _atom_site_fract_y
  _atom_site_fract_z
N1 N 0.27126 0.24034 0.26153
 N2 N 0.74531 -0.25006 0.22400
 N3 N 0.76977 0.23542 0.74336
 N4 N 0.21886 -0.25450 0.77117
 N5 N 0.72046 -0.25006 0.73323
 N6 N 0.27200 0.27122 0.75066
 N7 N 0.23574 -0.24713 0.26895
 N8 N 0.76975 0.25912 0.24103
 O9 O 0.20976 0.04333 0.47923
 O10 O 0.21462 -0.04381 0.57024
 O11 O 0.21071 0.04555 0.56893
 O12 O 0.21767 -0.04545 0.48063
 O13 O 0.29233 -0.04566 0.47905
 O14 O 0.28538 0.04491 0.56686
 O15 O 0.28931 -0.04477 0.56840
 O16 O 0.28441 0.04318 0.47713
 Cu17 Cu 0.20573 0.00001 0.52510
 Cu18 Cu 0.29531 -0.00054 0.52287
 C19 C 0.24608 0.05797 0.46227
 C20 C 0.25269 -0.05968 0.58457
 C21 C 0.24696 0.06100 0.58278
 C22 C 0.25636 -0.06103 0.46465
 O23 O 0.78610 0.04041 0.52656
 O24 O 0.79667 -0.04561 0.43403
 O25 O 0.78625 0.04363 0.43702
 O26 O 0.79256 -0.04829 0.52386
 O27 O 0.71801 -0.04913 0.52423
 O28 O 0.71181 0.04167 0.43758
 O29 O 0.72223 -0.04764 0.43479
 O30 O 0.71154 0.03953 0.52705
 Cu31 Cu 0.79788 -0.00235 0.48016
 Cu32 Cu 0.70846 -0.00405 0.48081
 C33 C 0.74717 0.05462 0.54282
 C34 C 0.76139 -0.06161 0.41871
 C35 C 0.74777 0.05854 0.42266
 C36 C 0.75610 -0.06411 0.53919
 O37 O 0.47831 0.23712 0.05043
 O38 O 0.56498 0.23621 -0.04399
 O39 O 0.56619 0.24217 0.04509
 O40 O 0.47774 0.22923 -0.03880
 O41 O 0.46708 0.30427 -0.04468
 O42 O 0.55562 0.31731 0.04034
 O43 O 0.55431 0.31133 -0.04901
 O44 O 0.46794 0.31222 0.04494
 Cu45 Cu 0.52282 0.22869 0.00379
 Cu46 Cu 0.51008 0.31879 -0.00259
 C47 C 0.45830 0.27494 0.06385
 C48 C 0.57449 0.27372 -0.06262
 C49 C 0.57627 0.28177 0.05701
 C50 C 0.45742 0.26438 -0.05638
 O51 O 0.52762 0.76214 0.04381
 O52 O 0.43437 0.77690 -0.03471
 O53 O 0.43933 0.76488 0.05374
 O54 O 0.52228 0.76443 -0.04527
 O55 O 0.52038 0.68948 -0.05006
 O56 O 0.43952 0.68983 0.04771
 O57 O 0.43261 0.70204 -0.04098
 O58 O 0.52776 0.68703 0.03879
 Cu59 Cu 0.48100 0.77449 0.00501
 Cu60 Cu 0.47984 0.68468 -0.00161
 C61 C 0.54407 0.72261 0.05466
 C62 C 0.41745 0.74240 -0.05153
 C63 C 0.42539 0.72695 0.06758
 C64 C 0.53544 0.72642 -0.06453
 O65 O 0.05982 0.45445 0.18779
 O66 O -0.03355 0.54634 0.19597
 O67 O 0.05474 0.54412 0.18977
 O68 O -0.02827 0.45810 0.18420
 O69 O -0.03059 0.45263 0.25993
 O70 O 0.05406 0.53963 0.26552
 O71 O -0.03381 0.54045 0.27164
 O72 O 0.05805 0.45003 0.26355
 Cu73 Cu 0.01348 0.50130 0.18195
 Cu74 Cu 0.01204 0.49496 0.27261
 C75 C 0.07471 0.43644 0.22474
 C76 C -0.04972 0.55885 0.23560
 C77 C 0.06836 0.55718 0.22816
 C78 C -0.04413 0.44090 0.22078
 O79 O 0.02320 0.54835 0.79986
 O80 O -0.05391 0.45465 0.81062
 O81 O 0.03349 0.46030 0.81124
 O82 O -0.06426 0.54398 0.80830
 O83 O -0.06471 0.53891 0.73261
 O84 O 0.03478 0.45423 0.73554
 O85 O -0.05329 0.44954 0.73490
 O86 O 0.02273 0.54202 0.72425
 Cu87 Cu -0.01552 0.50239 0.81500
 Cu88 Cu -0.01529 0.49541 0.72434
 C89 C 0.03625 0.56100 0.75993
 C90 C -0.06665 0.43601 0.77414
 C91 C 0.05131 0.44317 0.77425
 C92 C -0.08108 0.55631 0.77034
 C93 C 0.32252 0.19697 0.20526
 C94 C 0.30593 0.23892 0.22513
 C95 C 0.32346 0.27954 0.20919
 C96 C 0.35675 0.27841 0.17358
 C97 C 0.37332 0.23603 0.15389
 C98 C 0.35603 0.19549 0.17005
 C99 C 0.40674 0.23496 0.11829
 C100 C 0.42348 0.27580 0.10175
 C101 C 0.40653 0.31771 0.12154
 C102 C 0.37362 0.31900 0.15723
 H103 H 0.31118 0.31198 0.22467
 H104 H 0.36822 0.16270 0.15531
 H105 H 0.41935 0.20242 0.10323
 H106 H 0.36125 0.35177 0.17191
 H107 H 0.30924 0.16535 0.21689
 H108 H 0.41889 0.34966 0.10957
 C109 C 0.69276 0.79400 0.17381
 C110 C 0.70982 0.75167 0.19109
 C111 C 0.69129 0.71133 0.17692
 C112 C 0.65552 0.71340 0.14626
 C113 C 0.63834 0.75632 0.12959
 C114 C 0.65733 0.79635 0.14331
 C115 C 0.60221 0.75870 0.09967
 C116 C 0.58263 0.71881 0.08591
 C117 C 0.60011 0.67617 0.10228
 C118 C 0.63627 0.67349 0.13228
 H119 H 0.70424 0.67864 0.19044
 H120 H 0.64460 0.82948 0.13068
 H121 H 0.58930 0.79187 0.08720
 H122 H 0.64904 0.64028 0.14468
 H123 H 0.70694 0.82529 0.18417
 H124 H 0.58568 0.64495 0.09213
 C125 C 0.72571 0.19340 -0.19895
 C126 C 0.73495 0.23470 -0.22062
 C127 C 0.70990 0.27535 -0.20692
 C128 C 0.67639 0.27493 -0.17167
 C129 C 0.66743 0.23325 -0.14991
 C130 C 0.69222 0.19264 -0.16389
 C131 C 0.63397 0.23293 -0.11448
 C132 C 0.60941 0.27381 -0.10035
 C133 C 0.61863 0.31500 -0.12238
 C134 C 0.65175 0.31555 -0.15773
 H135 H 0.71652 0.30723 -0.22390
 H136 H 0.68585 0.16037 -0.14760
 H137 H 0.62728 0.20091 -0.09780
 H138 H 0.65820 0.34779 -0.17407
 H139 H 0.74481 0.16178 -0.20898
 H140 H 0.60023 0.34698 -0.11227
 C141 C 0.27664 0.69302 -0.19302
 C142 C 0.25702 0.73763 -0.19950
 C143 C 0.27356 0.77416 -0.17568
 C144 C 0.30911 0.76625 -0.14534
 C145 C 0.32847 0.72120 -0.13866
 C146 C 0.31211 0.68484 -0.16288
 C147 C 0.36370 0.71331 -0.10779
 C148 C 0.37995 0.74996 -0.08368
 C149 C 0.36045 0.79460 -0.09082
 C150 C 0.32535 0.80265 -0.12127
 H151 H 0.25811 0.80851 -0.18025
 H152 H 0.32654 0.65011 -0.15833
 H153 H 0.37853 0.67879 -0.10275
 H154 H 0.31089 0.83736 -0.12596
 H155 H 0.26423 0.66451 -0.21127
 H156 H 0.37224 0.82351 -0.07270
 C157 C 0.21991 0.29766 0.30383
 C158 C 0.23486 0.27628 0.26216
 C159 C 0.21472 0.29110 0.22100
 C160 C 0.18047 0.32703 0.22142
 C161 C 0.16567 0.34799 0.26363
 C162 C 0.18551 0.33300 0.30460
 C163 C 0.13134 0.38369 0.26423
 C164 C 0.11154 0.39919 0.22316
 C165 C 0.12677 0.37841 0.18128
 C166 C 0.16084 0.34253 0.18043
 H167 H 0.22587 0.27469 0.18872
 H168 H 0.17467 0.34886 0.33724
 H169 H 0.12015 0.39946 0.29682
 H170 H 0.17185 0.32693 0.14773
 H171 H 0.23529 0.28728 0.33582
 H172 H 0.11207 0.38960 0.14919
 C173 C 0.16499 0.70544 0.82051
 C174 C 0.18195 0.71615 0.77635
 C175 C 0.16458 0.69584 0.73765
 C176 C 0.13153 0.66413 0.74303
 C177 C 0.11537 0.65279 0.78767
 C178 C 0.13193 0.67411 0.82615
 C179 C 0.08362 0.61972 0.79312
 C180 C 0.06793 0.59760 0.75449
 C181 C 0.08365 0.60984 0.71024
 C182 C 0.11510 0.64278 0.70457
 H183 H 0.17791 0.70373 0.70360
 H184 H 0.11986 0.66601 0.86060
 H185 H 0.07173 0.61074 0.82741
 H186 H 0.12703 0.65110 0.67012
 H187 H 0.17794 0.72101 0.85068
 H188 H 0.07207 0.59349 0.67983
 C189 C -0.19727 0.70597 0.17430
 C190 C -0.21614 0.71685 0.21840
 C191 C -0.19751 0.69459 0.25691
 C192 C -0.16075 0.66173 0.25155
 C193 C -0.14221 0.65071 0.20706
 C194 C -0.16066 0.67318 0.16866
 C195 C -0.10575 0.61728 0.20176
 C196 C -0.08759 0.59477 0.24047
 C197 C -0.10623 0.60640 0.28453
 C198 C -0.14243 0.63949 0.29000
 H199 H -0.21213 0.70246 0.29096
 H200 H -0.14688 0.66535 0.13429
 H201 H -0.09172 0.60873 0.16762
 H202 H -0.15619 0.64755 0.32434
 H203 H -0.21089 0.72300 0.14418
 H204 H -0.09301 0.58969 0.31501
 C205 C -0.18841 0.29204 0.69935
 C206 C -0.20006 0.27208 0.74167
 C207 C -0.18268 0.28881 0.78238
 C208 C -0.15429 0.32516 0.78083
 C209 C -0.14274 0.34472 0.73799
 C210 C -0.15990 0.32790 0.69748
 C211 C -0.11427 0.38087 0.73627
 C212 C -0.09715 0.39814 0.77683
 C213 C -0.10907 0.37867 0.81934
 C214 C -0.13731 0.34240 0.82131
 H215 H -0.19133 0.27346 0.81514
 H216 H -0.15149 0.34266 0.66437
 H217 H -0.10555 0.39559 0.70320
 H218 H -0.14589 0.32787 0.85448
 H219 H -0.20185 0.28011 0.66769
 H220 H -0.09632 0.39127 0.85106
 C221 C 0.31631 0.19376 0.31726
 C222 C 0.27422 0.20709 0.29834
 C223 C 0.23500 0.18799 0.31597
 C224 C 0.23767 0.15624 0.35212
 C225 C 0.28018 0.14297 0.37078
 C226 C 0.31930 0.16193 0.35305
 C227 C 0.28285 0.11101 0.40682
 C228 C 0.24348 0.09220 0.42466
 C229 C 0.20138 0.10593 0.40590
 C230 C 0.19852 0.13755 0.36996
 H231 H 0.20247 0.19787 0.30138
 H232 H 0.35217 0.15230 0.36697
 H233 H 0.31554 0.10084 0.42093
 H234 H 0.16565 0.14737 0.35612
 H235 H 0.34687 0.20838 0.30452
 H236 H 0.17051 0.09202 0.41883
 C237 C 0.81553 0.18132 0.69203
 C238 C 0.77294 0.20077 0.70777
 C239 C 0.73352 0.18677 0.68789
 C240 C 0.73661 0.15404 0.65243
 C241 C 0.77968 0.13503 0.63659
 C242 C 0.81891 0.14876 0.65673
 C243 C 0.78285 0.10269 0.60080
 C244 C 0.74351 0.08886 0.58054
 C245 C 0.70083 0.10784 0.59676
 C246 C 0.69741 0.14019 0.63232
 H247 H 0.70057 0.20191 0.69963
 H248 H 0.85220 0.13443 0.64512
 H249 H 0.81601 0.08827 0.58881
 H250 H 0.66412 0.15439 0.64406
 H251 H 0.84621 0.19146 0.70718
 H252 H 0.66999 0.09780 0.58184
 C253 C 0.17611 -0.19445 0.72663
 C254 C 0.21761 -0.21777 0.73775
 C255 C 0.25796 -0.20445 0.71623
 C256 C 0.25693 -0.16834 0.68444
 C257 C 0.21496 -0.14548 0.67337
 C258 C 0.17477 -0.15881 0.69465
 C259 C 0.21386 -0.10978 0.64112
 C260 C 0.25423 -0.09631 0.61982
 C261 C 0.29584 -0.11896 0.63157
 C262 C 0.29717 -0.15471 0.66347
 H263 H 0.29016 -0.22234 0.72413
 H264 H 0.14229 -0.14154 0.68672
 H265 H 0.18150 -0.09259 0.63256
 H266 H 0.32967 -0.17179 0.67163
 H267 H 0.14463 -0.20359 0.74305
 H268 H 0.32741 -0.10941 0.61566
 C269 C 0.69966 -0.20827 0.28561
 C270 C 0.74169 -0.21834 0.26231
 C271 C 0.77960 -0.19595 0.27564
 C272 C 0.77541 -0.16339 0.31129
 C273 C 0.73278 -0.15302 0.33395
 C274 C 0.69521 -0.17590 0.32106
 C275 C 0.72835 -0.11977 0.36894
 C276 C 0.76606 -0.09680 0.38188
 C277 C 0.80840 -0.10778 0.35941
 C278 C 0.81301 -0.14066 0.32439
 H279 H 0.81202 -0.20329 0.25759
 H280 H 0.66232 -0.16856 0.33817
 H281 H 0.69556 -0.11188 0.38611
 H282 H 0.84595 -0.14820 0.30746
 H283 H 0.67015 -0.22541 0.27608
 H284 H 0.83803 -0.09066 0.36867
 C285 C 0.67410 0.79618 -0.20861
 C286 C 0.68655 0.75368 -0.22969
 C287 C 0.66579 0.71472 -0.21416
 C288 C 0.63332 0.71795 -0.17779
 C289 C 0.62111 0.76076 -0.15655
 C290 C 0.64165 0.79972 -0.17236
 C291 C 0.58880 0.76375 -0.11978
 C292 C 0.56872 0.72436 -0.10393
 C293 C 0.58111 0.68211 -0.12568
 C294 C 0.61300 0.67894 -0.16221
 H295 H 0.67497 0.68196 -0.23058
 H296 H 0.63282 0.83283 -0.15656
 H297 H 0.57964 0.79652 -0.10337
 H298 H 0.62194 0.64590 -0.17813
 H299 H 0.68995 0.82655 -0.22000
 H300 H 0.56621 0.65118 -0.11436
 C301 C 0.31966 0.32132 -0.20630
 C302 C 0.30578 0.27745 -0.21546
 C303 C 0.32472 0.23987 -0.19075
 C304 C 0.35714 0.24595 -0.15753
 C305 C 0.37077 0.29023 -0.14853
 C306 C 0.35180 0.32768 -0.17314
 C307 C 0.40320 0.29626 -0.11521
 C308 C 0.42247 0.25850 -0.09092
 C309 C 0.40856 0.21465 -0.10027
 C310 C 0.37617 0.20845 -0.13313
 H311 H 0.31386 0.20599 -0.19716
 H312 H 0.36187 0.36187 -0.16683
 H313 H 0.41365 0.33025 -0.10852
 H314 H 0.36611 0.17427 -0.13957
 H315 H 0.30570 0.35070 -0.22508
 H316 H 0.42272 0.18494 -0.08211
 C317 C 0.27791 0.79873 0.21269
 C318 C 0.26971 0.75611 0.23228
 C319 C 0.29501 0.71664 0.21582
 C320 C 0.32764 0.71950 0.17996
 C321 C 0.33567 0.76249 0.16041
 C322 C 0.31066 0.80193 0.17717
 C323 C 0.36820 0.76516 0.12420
 C324 C 0.39235 0.72524 0.10695
 C325 C 0.38404 0.68278 0.12693
 C326 C 0.35218 0.67996 0.16315
 H327 H 0.28921 0.68373 0.23105
 H328 H 0.31618 0.83518 0.16261
 H329 H 0.37412 0.79807 0.10902
 H330 H 0.34649 0.64676 0.17775
 H331 H 0.25860 0.82954 0.22472
 H332 H 0.40224 0.65149 0.11453
 C333 C 0.73275 0.21504 0.18239
 C334 C 0.73856 0.25708 0.20393
 C335 C 0.71235 0.29647 0.19018
 C336 C 0.67971 0.29353 0.15640
 C337 C 0.67346 0.25075 0.13599
 C338 C 0.70051 0.21187 0.14883
 C339 C 0.63993 0.24735 0.10342
 C340 C 0.61236 0.28616 0.09062
 C341 C 0.61936 0.32874 0.11048
 C342 C 0.65266 0.33238 0.14315
 H343 H 0.71656 0.32898 0.20669
 H344 H 0.69640 0.17887 0.13329
 H345 H 0.63522 0.21433 0.08818
 H346 H 0.65699 0.36549 0.15831
 H347 H 0.75300 0.18444 0.19201
 H348 H 0.59869 0.35920 0.10121
 C349 C -0.23038 0.69089 0.69059
 C350 C -0.24473 0.71253 0.73235
 C351 C -0.22443 0.69772 0.77324
 C352 C -0.19004 0.66210 0.77252
 C353 C -0.17535 0.64095 0.73031
 C354 C -0.19593 0.65549 0.68954
 C355 C -0.14013 0.60594 0.72959
 C356 C -0.11946 0.59182 0.77062
 C357 C -0.13494 0.61281 0.81241
 C358 C -0.16980 0.64760 0.81334
 H359 H -0.23506 0.71443 0.80552
 H360 H -0.18531 0.63960 0.65687
 H361 H -0.12863 0.59005 0.69715
 H362 H -0.18073 0.66338 0.84599
 H363 H -0.24592 0.70148 0.65874
 H364 H -0.11973 0.60270 0.84457
 C365 C -0.19296 0.31531 0.28726
 C366 C -0.20088 0.29614 0.24418
 C367 C -0.17736 0.31105 0.20487
 C368 C -0.14519 0.34361 0.20873
 C369 C -0.13664 0.36188 0.25239
 C370 C -0.16118 0.34791 0.29136
 C371 C -0.10345 0.39345 0.25639
 C372 C -0.07881 0.40721 0.21721
 C373 C -0.08802 0.38910 0.17393
 C374 C -0.12078 0.35757 0.16975
 H375 H -0.18303 0.29609 0.17164
 H376 H -0.15532 0.36167 0.32507
 H377 H -0.09695 0.40736 0.28990
 H378 H -0.12687 0.34396 0.13602
 H379 H -0.21098 0.30434 0.31789
 H380 H -0.06963 0.39911 0.14313
 C381 C 0.21908 0.31957 0.70394
 C382 C 0.23344 0.30417 0.74724
 C383 C 0.20887 0.31976 0.78707
 C384 C 0.17009 0.35002 0.78377
 C385 C 0.15561 0.36510 0.74006
 C386 C 0.18051 0.34980 0.70035
 C387 C 0.11651 0.39515 0.73686
 C388 C 0.09184 0.41049 0.77687
 C389 C 0.10672 0.39515 0.82009
 C390 C 0.14537 0.36519 0.82350
 H391 H 0.21959 0.30759 0.82048
 H392 H 0.17006 0.36103 0.66656
 H393 H 0.10557 0.40682 0.70335
 H394 H 0.15596 0.35394 0.85725
 H395 H 0.23777 0.30793 0.67291
 H396 H 0.08843 0.40634 0.85151
 C397 C 0.19402 0.69446 0.31089
 C398 C 0.20588 0.71591 0.26935
 C399 C 0.18833 0.70095 0.22813
 C400 C 0.15947 0.66508 0.22825
 C401 C 0.14745 0.64392 0.27019
 C402 C 0.16499 0.65888 0.31134
 C403 C 0.11799 0.60836 0.27023
 C404 C 0.10054 0.59363 0.22876
 C405 C 0.11324 0.61478 0.18728
 C406 C 0.14231 0.65015 0.18704
 H407 H 0.19696 0.71753 0.19601
 H408 H 0.15633 0.64304 0.34384
 H409 H 0.10856 0.59239 0.30245
 H410 H 0.15125 0.66593 0.15458
 H411 H 0.20750 0.70516 0.34300
 H412 H 0.10036 0.60428 0.15480
 C413 C 0.67845 -0.20022 0.67827
 C414 C 0.71973 -0.21615 0.69721
 C415 C 0.76029 -0.19889 0.68063
 C416 C 0.75966 -0.16618 0.64541
 C417 C 0.71790 -0.15035 0.62668
 C418 C 0.67751 -0.16756 0.64332
 C419 C 0.71715 -0.11741 0.59174
 C420 C 0.75759 -0.09985 0.57515
 C421 C 0.79899 -0.11603 0.59381
 C422 C 0.80002 -0.14892 0.62866
 H423 H 0.79219 -0.21080 0.69542
 H424 H 0.64522 -0.15582 0.62927
 H425 H 0.68494 -0.10530 0.57771
 H426 H 0.83233 -0.16073 0.64262
 H427 H 0.64695 -0.21341 0.69040
 H428 H 0.83061 -0.10306 0.58169
 C429 C 0.18888 -0.19450 0.32098
 C430 C 0.23177 -0.21327 0.30526
 C431 C 0.27086 -0.19845 0.32495
 C432 C 0.26729 -0.16503 0.35966
 C433 C 0.22402 -0.14624 0.37521
 C434 C 0.18501 -0.16132 0.35572
 C435 C 0.22052 -0.11255 0.40977
 C436 C 0.25978 -0.09718 0.42885
 C437 C 0.30260 -0.11629 0.41312
 C438 C 0.30632 -0.14993 0.37892
 H439 H 0.30400 -0.21309 0.31318
 H440 H 0.15156 -0.14727 0.36713
 H441 H 0.18729 -0.09810 0.42149
 H442 H 0.33974 -0.16399 0.36739
 H443 H 0.15841 -0.20530 0.30594
 H444 H 0.33340 -0.10518 0.42722
 C445 C 0.81612 0.20401 0.28764
 C446 C 0.77333 0.22242 0.27420
 C447 C 0.73406 0.20444 0.29301
 C448 C 0.73740 0.16839 0.32470
 C449 C 0.78059 0.15019 0.33812
 C450 C 0.81974 0.16828 0.31941
 C451 C 0.78388 0.11422 0.37000
 C452 C 0.74453 0.09607 0.38859
 C453 C 0.70179 0.11437 0.37477
 C454 C 0.69826 0.15022 0.34319
 H455 H 0.70099 0.21870 0.28294
 H456 H 0.85312 0.15469 0.32918
 H457 H 0.81706 0.10044 0.38028
 H458 H 0.66490 0.16374 0.33324
 H459 H 0.84678 0.21714 0.27316
 H460 H 0.67091 0.10112 0.38856
 C461 C 0.31744 0.21543 0.70059
 C462 C 0.27545 0.23140 0.72099
 C463 C 0.23645 0.20895 0.71114
 C464 C 0.23909 0.17177 0.68056
 C465 C 0.28142 0.15623 0.65991
 C466 C 0.32045 0.17806 0.67043
 C467 C 0.28389 0.11955 0.62863
 C468 C 0.24448 0.09843 0.61726
 C469 C 0.20264 0.11403 0.63830
 C470 C 0.20000 0.15025 0.66979
 H471 H 0.20400 0.22080 0.72707
 H472 H 0.35317 0.16665 0.65487
 H473 H 0.31639 0.10799 0.61261
 H474 H 0.16728 0.16175 0.68534
 H475 H 0.34778 0.23244 0.70748
 H476 H 0.17182 0.09835 0.63029
   
