data_POSCAR
  _audit_creation_date              2014-09-24
  _audit_creation_method            'ToBaCCo'
  _symmetry_space_group_name_H-M    'P1'
  _symmetry_Int_Tables_number       1
  _symmetry_cell_setting            triclinic
  loop_
  _symmetry_equiv_pos_as_xyz
 x,y,z
_cell_length_a 33.9250
_cell_length_b 25.3164
_cell_length_c 29.9195
_cell_angle_alpha 88.197000
_cell_angle_beta 90.179200
_cell_angle_gamma 90.133800
loop_
  _atom_site_label
  _atom_site_type_symbol
  _atom_site_fract_x
  _atom_site_fract_y
  _atom_site_fract_z
C1 C 0.30440 0.33095 0.22724
 H2 H 0.30541 0.33474 0.26314
 C3 C 0.33004 0.36071 0.19996
 H4 H 0.35064 0.38756 0.21506
 C5 C 0.27662 0.29064 0.16397
 H6 H 0.25632 0.26267 0.15001
 C7 C 0.30179 0.31947 0.13555
 H8 H 0.30035 0.31403 0.09981
 N9 N 0.27794 0.29737 0.20890
 C10 C 0.18436 0.27949 0.30827
 H11 H 0.18215 0.23685 0.31053
 C12 C 0.16103 0.31027 0.33555
 H13 H 0.14087 0.29131 0.35906
 C14 C 0.21411 0.35626 0.27577
 H15 H 0.23471 0.37407 0.25234
 C16 C 0.19131 0.38853 0.30244
 H17 H 0.19498 0.43095 0.29959
 Zn18 Zn 0.24437 0.25772 0.24792
 N19 N 0.21108 0.30273 0.28008
 C20 C 0.27453 0.22389 0.33291
 N21 N 0.27708 0.21816 0.28794
 C22 C 0.30380 0.18482 0.27019
 C23 C 0.32823 0.15396 0.29807
 C24 C 0.29851 0.19396 0.36196
 C25 C 0.18579 0.23417 0.18532
 C26 C 0.16297 0.20228 0.15809
 C27 C 0.19253 0.12530 0.19410
 C28 C 0.21476 0.15861 0.22067
 N29 N 0.21188 0.21200 0.21496
 H30 H 0.25402 0.25167 0.34644
 H31 H 0.30576 0.18180 0.23428
 H32 H 0.34895 0.12719 0.28338
 H33 H 0.29604 0.19848 0.39772
 H34 H 0.18358 0.27674 0.18200
 H35 H 0.14321 0.22030 0.13357
 H36 H 0.19602 0.08299 0.19829
 H37 H 0.23468 0.14163 0.24533
 C38 C 0.16504 0.36535 0.33338
 C39 C 0.32866 0.35516 0.15353
 C40 C 0.16688 0.14725 0.16181
 C41 C 0.32540 0.15820 0.34453
 C42 C 0.80517 0.82675 0.23120
 H43 H 0.80597 0.82999 0.26716
 C44 C 0.83032 0.85787 0.20437
 H45 H 0.85017 0.88500 0.22028
 C46 C 0.77860 0.78633 0.16741
 H47 H 0.75899 0.75780 0.15305
 C48 C 0.80325 0.81643 0.13940
 H49 H 0.80196 0.81112 0.10362
 N50 N 0.77950 0.79252 0.21238
 C51 C 0.68375 0.76843 0.30797
 H52 H 0.68163 0.72581 0.30746
 C53 C 0.65929 0.79658 0.33603
 H54 H 0.63829 0.77527 0.35692
 C55 C 0.71467 0.84764 0.28205
 H56 H 0.73626 0.86743 0.26102
 C57 C 0.69084 0.87733 0.30979
 H58 H 0.69437 0.91984 0.31019
 Zn59 Zn 0.74623 0.75104 0.25030
 N60 N 0.71144 0.79403 0.28258
 C61 C 0.77500 0.71966 0.33576
 N62 N 0.77887 0.71236 0.29113
 C63 C 0.80654 0.67896 0.27529
 C64 C 0.83044 0.64952 0.30494
 C65 C 0.79831 0.69125 0.36644
 C66 C 0.68851 0.72755 0.18695
 C67 C 0.66633 0.69622 0.15862
 C68 C 0.69762 0.61881 0.19180
 C69 C 0.71922 0.65161 0.21954
 N70 N 0.71508 0.70503 0.21584
 H71 H 0.75384 0.74755 0.34782
 H72 H 0.80966 0.67471 0.23961
 H73 H 0.85183 0.62221 0.29210
 H74 H 0.79424 0.69723 0.40174
 H75 H 0.68536 0.77008 0.18515
 H76 H 0.64611 0.71467 0.13483
 H77 H 0.70202 0.57654 0.19442
 H78 H 0.73965 0.63428 0.24348
 C79 C 0.66329 0.85159 0.33770
 C80 C 0.82936 0.85312 0.15769
 C81 C 0.67133 0.64130 0.16041
 C82 C 0.82611 0.65528 0.35109
 C83 C 0.80859 0.31322 0.73150
 H84 H 0.80963 0.31598 0.76750
 C85 C 0.83404 0.34397 0.70477
 H86 H 0.85452 0.37060 0.72036
 C87 C 0.78065 0.27491 0.66740
 H88 H 0.76028 0.24746 0.65287
 C89 C 0.80564 0.30471 0.63952
 H90 H 0.80395 0.30059 0.60364
 N91 N 0.78198 0.28040 0.71248
 C92 C 0.68806 0.26349 0.81174
 H93 H 0.68521 0.22092 0.81409
 C94 C 0.66535 0.29501 0.83917
 H95 H 0.64501 0.27666 0.86281
 C96 C 0.71867 0.33939 0.77887
 H97 H 0.73926 0.35668 0.75517
 C98 C 0.69655 0.37233 0.80566
 H99 H 0.70078 0.41463 0.80255
 Zn100 Zn 0.74772 0.24057 0.75050
 N101 N 0.71493 0.28595 0.78328
 C102 C 0.77768 0.20478 0.83494
 N103 N 0.77991 0.19943 0.78994
 C104 C 0.80649 0.16624 0.77178
 C105 C 0.83128 0.13535 0.79922
 C106 C 0.80199 0.17488 0.86360
 C107 C 0.68914 0.22090 0.68713
 C108 C 0.66649 0.19105 0.65813
 C109 C 0.69572 0.11179 0.69058
 C110 C 0.71781 0.14313 0.71903
 N111 N 0.71496 0.19674 0.71597
 H112 H 0.75735 0.23256 0.84880
 H113 H 0.80830 0.16368 0.73581
 H114 H 0.85192 0.10916 0.78375
 H115 H 0.79974 0.17957 0.89937
 H116 H 0.68709 0.26356 0.68577
 H117 H 0.64686 0.21076 0.63439
 H118 H 0.69908 0.06931 0.69271
 H119 H 0.73768 0.12451 0.74293
 C120 C 0.67014 0.35000 0.83686
 C121 C 0.83233 0.34010 0.65820
 C122 C 0.67028 0.13595 0.65918
 C123 C 0.82905 0.13925 0.84590
 C124 C 0.30485 0.82563 0.73000
 H125 H 0.30703 0.82753 0.76600
 C126 C 0.32901 0.85763 0.70276
 H127 H 0.34976 0.88416 0.71801
 C128 C 0.27536 0.78815 0.66640
 H129 H 0.25491 0.76052 0.65225
 C130 C 0.29905 0.81927 0.63799
 H131 H 0.29640 0.81579 0.60212
 N132 N 0.27820 0.79244 0.71152
 C133 C 0.18759 0.77061 0.81385
 H134 H 0.18579 0.72793 0.81599
 C135 C 0.16458 0.80088 0.84193
 H136 H 0.14507 0.78148 0.86591
 C137 C 0.21574 0.84805 0.78064
 H138 H 0.23543 0.86640 0.75649
 C139 C 0.19327 0.87978 0.80807
 H140 H 0.19635 0.92226 0.80504
 Zn141 Zn 0.24602 0.75078 0.75056
 N142 N 0.21335 0.79447 0.78484
 C143 C 0.27901 0.71547 0.83365
 N144 N 0.28009 0.71030 0.78854
 C145 C 0.30646 0.67754 0.76939
 C146 C 0.33207 0.64679 0.79599
 C147 C 0.30420 0.68568 0.86141
 C148 C 0.18567 0.73000 0.68967
 C149 C 0.16234 0.69972 0.66168
 C150 C 0.19362 0.62107 0.69260
 C151 C 0.21635 0.65283 0.72005
 N152 N 0.21283 0.70636 0.71716
 H153 H 0.25880 0.74283 0.84829
 H154 H 0.30733 0.67502 0.73338
 H155 H 0.35249 0.62046 0.78026
 H156 H 0.30287 0.68980 0.89730
 H157 H 0.18305 0.77260 0.68854
 H158 H 0.14175 0.71905 0.63880
 H159 H 0.19765 0.57870 0.69442
 H160 H 0.23725 0.63461 0.74299
 C161 C 0.16791 0.85605 0.83970
 C162 C 0.32597 0.85472 0.65619
 C163 C 0.16685 0.64473 0.66238
 C164 C 0.33080 0.65057 0.84259
 C165 C -0.03894 -0.03057 0.03626
 C166 C -0.01836 -0.00293 0.00231
 C167 C -0.03917 0.02459 -0.03157
 C168 C -0.08049 0.02504 -0.03136
 C169 C -0.10084 -0.00321 0.00236
 C170 C -0.08027 -0.03128 0.03610
 C171 C 0.02499 -0.00257 0.00233
 C172 C 0.04575 -0.02889 -0.03073
 C173 C 0.08706 -0.02855 -0.03086
 C174 C 0.10746 -0.00113 0.00205
 C175 C 0.08695 0.02562 0.03505
 C176 C 0.04566 0.02449 0.03522
 H177 H -0.02269 -0.05191 0.06222
 H178 H -0.02308 0.04607 -0.05753
 H179 H 0.02978 -0.04995 -0.05609
 H180 H 0.02961 0.04522 0.06055
 H181 H -0.13280 -0.00335 0.00236
 H182 H 0.13925 -0.00045 0.00189
 C183 C -0.03878 0.46919 0.53406
 C184 C -0.02021 0.50047 0.50078
 C185 C -0.04298 0.52931 0.46937
 C186 C -0.08425 0.52750 0.47142
 C187 C -0.10251 0.49572 0.50457
 C188 C -0.08000 0.46635 0.53577
 C189 C 0.02308 0.50318 0.49910
 C190 C 0.04353 0.47880 0.46474
 C191 C 0.08482 0.48002 0.46372
 C192 C 0.10549 0.50654 0.49695
 C193 C 0.08529 0.53128 0.53133
 C194 C 0.04402 0.52926 0.53237
 H195 H -0.02107 0.44692 0.55816
 H196 H -0.02863 0.55383 0.44389
 H197 H 0.02737 0.45811 0.43931
 H198 H 0.02821 0.54814 0.55892
 H199 H -0.13430 0.49373 0.50656
 H200 H 0.13726 0.50766 0.49622
 C201 C 0.45777 -0.02281 0.53312
 C202 C 0.47830 0.00566 0.49968
 C203 C 0.45753 0.03544 0.46721
 C204 C 0.41625 0.03726 0.46823
 C205 C 0.39587 0.00815 0.50149
 C206 C 0.41645 -0.02222 0.53385
 C207 C 0.52155 0.00315 0.49801
 C208 C 0.54005 -0.02429 0.46401
 C209 C 0.58124 -0.02818 0.46289
 C210 C 0.60387 -0.00332 0.49549
 C211 C 0.58554 0.02477 0.52936
 C212 C 0.54431 0.02744 0.53068
 H213 H 0.47411 -0.04609 0.55779
 H214 H 0.47369 0.05715 0.44145
 H215 H 0.52217 -0.04333 0.43917
 H216 H 0.52994 0.04882 0.55688
 H217 H 0.36393 0.00887 0.50203
 H218 H 0.63567 -0.00619 0.49434
 C219 C 0.46453 0.47060 0.03039
 C220 C 0.48552 0.49868 -0.00299
 C221 C 0.46507 0.52769 -0.03635
 C222 C 0.42374 0.52911 -0.03615
 C223 C 0.40305 0.50035 -0.00298
 C224 C 0.42320 0.47090 0.03024
 C225 C 0.52890 0.49798 -0.00278
 C226 C 0.54943 0.47105 -0.03567
 C227 C 0.59074 0.46981 -0.03527
 C228 C 0.61141 0.49642 -0.00204
 C229 C 0.59115 0.52378 0.03081
 C230 C 0.54984 0.52409 0.03049
 H231 H 0.48051 0.44824 0.05598
 H232 H 0.48145 0.54955 -0.06185
 H233 H 0.53325 0.45056 -0.06121
 H234 H 0.53399 0.54512 0.05579
 H235 H 0.37109 0.50104 -0.00294
 H236 H 0.64321 0.49579 -0.00172
 C237 C 0.10292 -0.04991 -0.11652
 C238 C 0.14819 -0.05104 -0.12307
 C239 C 0.14614 -0.11144 -0.12730
 C240 C 0.10113 -0.11068 -0.12119
 C241 C 0.15218 -0.11944 -0.07657
 C242 C 0.15411 -0.05884 -0.07202
 C243 C 0.10906 -0.05797 -0.06579
 C244 C 0.10696 -0.11832 -0.07006
 H245 H 0.08243 -0.02096 -0.13269
 H246 H 0.16488 -0.02245 -0.14461
 H247 H 0.07950 -0.13223 -0.14178
 H248 H 0.17264 -0.14836 -0.06029
 H249 H 0.17682 -0.03796 -0.05244
 H250 H 0.08988 -0.14582 -0.04788
 C251 C 0.10006 0.45951 0.37748
 C252 C 0.14531 0.45854 0.37048
 C253 C 0.14333 0.39814 0.36621
 C254 C 0.09836 0.39874 0.37272
 C255 C 0.14973 0.39009 0.41688
 C256 C 0.15160 0.45067 0.42149
 C257 C 0.10659 0.45135 0.42814
 C258 C 0.10458 0.39101 0.42378
 H259 H 0.07940 0.48842 0.36156
 H260 H 0.16182 0.48710 0.34873
 H261 H 0.07663 0.37714 0.35230
 H262 H 0.17035 0.36122 0.43295
 H263 H 0.17441 0.47161 0.44086
 H264 H 0.08772 0.36339 0.44607
 C265 C 0.63285 -0.03826 0.39559
 C266 C 0.65941 -0.08618 0.40787
 C267 C 0.63991 -0.11728 0.37031
 C268 C 0.61360 -0.06970 0.35761
 C269 C 0.60843 -0.13912 0.40298
 C270 C 0.62776 -0.10771 0.44081
 C271 C 0.60141 -0.06014 0.42822
 C272 C 0.58184 -0.09121 0.39062
 H273 H 0.64272 0.00354 0.39282
 H274 H 0.69155 -0.08441 0.41478
 H275 H 0.60793 -0.05433 0.32304
 H276 H 0.59779 -0.18049 0.40667
 H277 H 0.63348 -0.12313 0.47536
 H278 H 0.54992 -0.09374 0.38282
 C279 C 0.60703 0.44729 -0.12067
 C280 C 0.65231 0.44406 -0.12654
 C281 C 0.64881 0.38373 -0.13059
 C282 C 0.60378 0.38660 -0.12515
 C283 C 0.65409 0.37578 -0.07973
 C284 C 0.65748 0.43631 -0.07537
 C285 C 0.61242 0.43927 -0.06982
 C286 C 0.60887 0.37900 -0.07392
 H287 H 0.58746 0.47707 -0.13727
 H288 H 0.66995 0.47174 -0.14793
 H289 H 0.58183 0.36592 -0.14597
 H290 H 0.67363 0.34604 -0.06303
 H291 H 0.68047 0.45628 -0.05552
 H292 H 0.59088 0.35241 -0.05190
 C293 C -0.13361 0.09887 -0.05485
 C294 C -0.11812 0.13385 -0.09424
 C295 C -0.14629 0.10854 -0.12434
 C296 C -0.16308 0.07497 -0.08810
 C297 C -0.11777 0.06783 -0.13695
 C298 C -0.08703 0.09151 -0.10491
 C299 C -0.10335 0.05590 -0.06630
 C300 C -0.13323 0.03109 -0.09857
 H301 H -0.14099 0.11287 -0.02110
 H302 H -0.11297 0.17719 -0.09392
 H303 H -0.19521 0.06934 -0.08267
 H304 H -0.11151 0.05498 -0.17131
 H305 H -0.05582 0.10001 -0.11353
 H306 H -0.14031 -0.01152 -0.10128
 C307 C -0.10652 0.55879 0.38794
 C308 C -0.15212 0.56131 0.38590
 C309 C -0.14985 0.62202 0.38349
 C310 C -0.10453 0.61995 0.38506
 C311 C -0.15169 0.62394 0.43484
 C312 C -0.15386 0.56295 0.43751
 C313 C -0.10850 0.56080 0.43925
 C314 C -0.10614 0.62150 0.43674
 H315 H -0.08777 0.53159 0.36891
 H316 H -0.17125 0.53672 0.36469
 H317 H -0.08441 0.64379 0.36325
 H318 H -0.16983 0.65039 0.45527
 H319 H -0.17518 0.53996 0.45839
 H320 H -0.08700 0.64608 0.45795
 C321 C 0.36371 0.11250 0.44648
 C322 C 0.38036 0.14900 0.40858
 C323 C 0.35064 0.12527 0.37584
 C324 C 0.33373 0.08908 0.41341
 C325 C 0.38046 0.08244 0.36341
 C326 C 0.41048 0.10589 0.39651
 C327 C 0.39353 0.06969 0.43410
 C328 C 0.36379 0.04595 0.40139
 H329 H 0.35702 0.12466 0.48095
 H330 H 0.38699 0.19175 0.41128
 H331 H 0.30192 0.08235 0.42010
 H332 H 0.38769 0.06942 0.32934
 H333 H 0.44202 0.11353 0.38899
 H334 H 0.35716 0.00320 0.39873
 C335 C 0.37140 0.60424 -0.05708
 C336 C 0.38738 0.64110 -0.09508
 C337 C 0.35712 0.61755 -0.12731
 C338 C 0.34093 0.58096 -0.08960
 C339 C 0.38681 0.57495 -0.14067
 C340 C 0.41738 0.59816 -0.10801
 C341 C 0.40107 0.56161 -0.07030
 C342 C 0.37083 0.53806 -0.10255
 H343 H 0.36523 0.61613 -0.02240
 H344 H 0.39399 0.68382 -0.09223
 H345 H 0.30926 0.57404 -0.08223
 H346 H 0.39340 0.56240 -0.17505
 H347 H 0.44886 0.60569 -0.11595
 H348 H 0.36421 0.49533 -0.10535
 C349 C -0.13277 -0.10602 0.05915
 C350 C -0.11725 -0.14057 0.09884
 C351 C -0.14586 -0.11575 0.12844
 C352 C -0.16264 -0.08261 0.09187
 C353 C -0.11776 -0.07444 0.14143
 C354 C -0.08660 -0.09757 0.10989
 C355 C -0.10294 -0.06240 0.07096
 C356 C -0.13324 -0.03811 0.10273
 H357 H -0.13980 -0.12027 0.02532
 H358 H -0.11174 -0.18380 0.09869
 H359 H -0.19478 -0.07764 0.08593
 H360 H -0.11186 -0.06151 0.17590
 H361 H -0.05536 -0.10535 0.11897
 H362 H -0.14069 0.00437 0.10524
 C363 C -0.13056 0.38927 0.55739
 C364 C -0.11297 0.35190 0.59412
 C365 C -0.14228 0.37399 0.62789
 C366 C -0.16004 0.41107 0.59145
 C367 C -0.11248 0.41690 0.64090
 C368 C -0.08287 0.39521 0.60666
 C369 C -0.10081 0.43222 0.57023
 C370 C -0.13008 0.45427 0.60405
 H371 H -0.13784 0.37808 0.52274
 H372 H -0.10614 0.30943 0.59031
 H373 H -0.19200 0.41745 0.58540
 H374 H -0.10481 0.42871 0.67525
 H375 H -0.05105 0.38833 0.61317
 H376 H -0.13694 0.49674 0.60785
 C377 C 0.36359 -0.09702 0.55504
 C378 C 0.38035 -0.13456 0.59216
 C379 C 0.35114 -0.11148 0.62552
 C380 C 0.33414 -0.07422 0.58871
 C381 C 0.38144 -0.06923 0.63857
 C382 C 0.41093 -0.09204 0.60483
 C383 C 0.39388 -0.05478 0.56798
 C384 C 0.36468 -0.03165 0.60132
 H385 H 0.35643 -0.10826 0.52038
 H386 H 0.38661 -0.17724 0.58862
 H387 H 0.30231 -0.06710 0.58233
 H388 H 0.38908 -0.05723 0.67288
 H389 H 0.44249 -0.10004 0.61205
 H390 H 0.35843 0.01104 0.60480
 C391 C 0.36940 0.39775 0.05234
 C392 C 0.38489 0.36142 0.09102
 C393 C 0.35529 0.38669 0.12275
 C394 C 0.33959 0.42274 0.08438
 C395 C 0.38588 0.42879 0.13532
 C396 C 0.41579 0.40383 0.10316
 C397 C 0.39998 0.43986 0.06477
 C398 C 0.37040 0.46513 0.09653
 H399 H 0.36282 0.38514 0.01790
 H400 H 0.39065 0.31842 0.08899
 H401 H 0.30801 0.43038 0.07688
 H402 H 0.39295 0.44208 0.16942
 H403 H 0.44715 0.39555 0.11131
 H404 H 0.36463 0.50813 0.09852
 C405 C 0.15382 0.05883 0.07562
 C406 C 0.15116 0.11954 0.07878
 C407 C 0.14542 0.11298 0.12963
 C408 C 0.14820 0.05248 0.12679
 C409 C 0.10040 0.11074 0.12354
 C410 C 0.10594 0.11694 0.07231
 C411 C 0.10876 0.05649 0.06940
 C412 C 0.10292 0.04985 0.12025
 H413 H 0.17666 0.03790 0.05654
 H414 H 0.17118 0.14853 0.06188
 H415 H 0.16536 0.02507 0.14897
 H416 H 0.07860 0.13234 0.14360
 H417 H 0.08843 0.14325 0.04952
 H418 H 0.08287 0.02082 0.13704
 C419 C 0.15263 0.56284 0.57186
 C420 C 0.14952 0.62301 0.57836
 C421 C 0.14492 0.61257 0.62901
 C422 C 0.14815 0.55259 0.62283
 C423 C 0.09981 0.60998 0.62398
 C424 C 0.10421 0.62007 0.57293
 C425 C 0.10748 0.56015 0.56670
 C426 C 0.10277 0.54963 0.61734
 H427 H 0.17530 0.54392 0.55109
 H428 H 0.16894 0.65350 0.56248
 H429 H 0.16598 0.52397 0.64309
 H430 H 0.07824 0.62958 0.64578
 H431 H 0.08601 0.64766 0.55203
 H432 H 0.08332 0.51910 0.63311
 C433 C 0.65454 0.05312 0.56895
 C434 C 0.65309 0.11358 0.57491
 C435 C 0.64828 0.10409 0.62566
 C436 C 0.64994 0.04386 0.62008
 C437 C 0.60314 0.10352 0.62068
 C438 C 0.60772 0.11273 0.56960
 C439 C 0.60936 0.05257 0.56397
 C440 C 0.60451 0.04300 0.61470
 H441 H 0.67630 0.03268 0.54801
 H442 H 0.67327 0.14295 0.55875
 H443 H 0.66712 0.01480 0.64066
 H444 H 0.58214 0.12444 0.64228
 H445 H 0.59022 0.14090 0.54846
 H446 H 0.58430 0.01362 0.63079
 C447 C 0.60773 0.54493 0.11652
 C448 C 0.65304 0.54764 0.12284
 C449 C 0.65006 0.60792 0.12733
 C450 C 0.60501 0.60557 0.12146
 C451 C 0.65548 0.61641 0.07658
 C452 C 0.65833 0.55591 0.07174
 C453 C 0.61325 0.55350 0.06578
 C454 C 0.61025 0.61373 0.07034
 H455 H 0.58787 0.51518 0.13270
 H456 H 0.67043 0.51965 0.14422
 H457 H 0.58322 0.62621 0.14226
 H458 H 0.67531 0.64614 0.06031
 H459 H 0.68111 0.53595 0.05184
 H460 H 0.59252 0.64076 0.04840
   
