data_POSCAR
  _audit_creation_date              2014-09-24
  _audit_creation_method            'ToBaCCo'
  _symmetry_space_group_name_H-M    'P1'
  _symmetry_Int_Tables_number       1
  _symmetry_cell_setting            triclinic
  loop_
  _symmetry_equiv_pos_as_xyz
 x,y,z
_cell_length_a 49.9400
_cell_length_b 39.9987
_cell_length_c 22.7014
_cell_angle_alpha 90.188200
_cell_angle_beta 90.092100
_cell_angle_gamma 90.114300
loop_
  _atom_site_label
  _atom_site_type_symbol
  _atom_site_fract_x
  _atom_site_fract_y
  _atom_site_fract_z
C1 C 0.24930 0.26528 0.24774
 C2 C 0.24953 0.23130 0.24800
 C3 C 0.22661 0.21144 0.22499
 C4 C 0.27276 0.21231 0.27122
 C5 C 0.27256 0.28514 0.26803
 C6 C 0.22578 0.28441 0.22723
 C7 C 0.21437 0.18752 0.26100
 C8 C 0.19283 0.16854 0.24010
 C9 C 0.18299 0.17291 0.18223
 C10 C 0.19574 0.19684 0.14609
 C11 C 0.21737 0.21562 0.16714
 C12 C 0.28158 0.21669 0.32948
 C13 C 0.30340 0.19850 0.35079
 C14 C 0.31664 0.17530 0.31439
 C15 C 0.30749 0.17074 0.25625
 C16 C 0.28573 0.18899 0.23501
 C17 C 0.29643 0.28565 0.23558
 C18 C 0.31818 0.30485 0.25501
 C19 C 0.31646 0.32329 0.30770
 C20 C 0.29251 0.32255 0.34009
 C21 C 0.27063 0.30397 0.31998
 C22 C 0.22755 0.30322 0.17543
 C23 C 0.20546 0.32118 0.15520
 C24 C 0.18144 0.32135 0.18734
 C25 C 0.17985 0.30289 0.23984
 C26 C 0.20182 0.28430 0.25938
 H27 H 0.22138 0.18375 0.30566
 H28 H 0.18395 0.15051 0.26978
 H29 H 0.18923 0.20110 0.10120
 H30 H 0.22701 0.23334 0.13808
 H31 H 0.27144 0.23401 0.35858
 H32 H 0.30976 0.20248 0.39589
 H33 H 0.27908 0.18510 0.19005
 H34 H 0.29810 0.27134 0.19517
 H35 H 0.33643 0.30492 0.22931
 H36 H 0.29057 0.33671 0.38059
 H37 H 0.25228 0.30387 0.34533
 H38 H 0.24597 0.30360 0.15030
 H39 H 0.20731 0.33538 0.11487
 H40 H 0.16156 0.30254 0.26536
 H41 H 0.20025 0.27001 0.29967
 H42 H 0.31712 0.15304 0.22702
 C43 C 0.75069 0.23282 0.25279
 C44 C 0.74960 0.26681 0.24883
 C45 C 0.77293 0.28602 0.22677
 C46 C 0.72578 0.28675 0.26715
 C47 C 0.72855 0.21262 0.27799
 C48 C 0.77415 0.21381 0.23052
 C49 C 0.79686 0.28729 0.25913
 C50 C 0.81855 0.30605 0.23865
 C51 C 0.81676 0.32341 0.18504
 C52 C 0.79279 0.32186 0.15260
 C53 C 0.77094 0.30366 0.17371
 C54 C 0.72954 0.31607 0.30050
 C55 C 0.70770 0.33543 0.31781
 C56 C 0.68157 0.32551 0.30324
 C57 C 0.67763 0.29643 0.26958
 C58 C 0.69960 0.27767 0.25042
 C59 C 0.71723 0.18683 0.24416
 C60 C 0.69599 0.16793 0.26610
 C61 C 0.68569 0.17425 0.32266
 C62 C 0.69746 0.19968 0.35710
 C63 C 0.71881 0.21860 0.33505
 C64 C 0.78211 0.21623 0.17142
 C65 C 0.80395 0.19787 0.15075
 C66 C 0.81804 0.17634 0.18859
 C67 C 0.80978 0.17371 0.24761
 C68 C 0.78801 0.19221 0.26828
 H69 H 0.79859 0.27397 0.30043
 H70 H 0.83680 0.30674 0.26447
 H71 H 0.79077 0.33519 0.11140
 H72 H 0.75253 0.30302 0.14844
 H73 H 0.74945 0.32392 0.31362
 H74 H 0.71117 0.35780 0.34375
 H75 H 0.69608 0.25608 0.22259
 H76 H 0.72457 0.18169 0.20018
 H77 H 0.68756 0.14849 0.23841
 H78 H 0.69015 0.20508 0.40097
 H79 H 0.72759 0.23804 0.36223
 H80 H 0.77126 0.23213 0.14119
 H81 H 0.80960 0.20031 0.10494
 H82 H 0.82011 0.15734 0.27794
 H83 H 0.78200 0.18981 0.31391
 H84 H 0.65762 0.28867 0.25706
 C85 C 0.74984 0.76571 0.75076
 C86 C 0.75010 0.73173 0.75140
 C87 C 0.72694 0.71184 0.73069
 C88 C 0.77354 0.71276 0.77281
 C89 C 0.77297 0.78571 0.77222
 C90 C 0.72636 0.78468 0.72886
 C91 C 0.70309 0.71084 0.76317
 C92 C 0.68128 0.69209 0.74272
 C93 C 0.68290 0.67463 0.68898
 C94 C 0.70686 0.67578 0.65668
 C95 C 0.72881 0.69389 0.67779
 C96 C 0.77165 0.69472 0.82545
 C97 C 0.79382 0.67746 0.84720
 C98 C 0.81806 0.67727 0.81586
 C99 C 0.81973 0.69486 0.76244
 C100 C 0.79767 0.71272 0.74132
 C101 C 0.78506 0.80900 0.73468
 C102 C 0.80667 0.82831 0.75415
 C103 C 0.81665 0.82488 0.81196
 C104 C 0.80418 0.80160 0.84964
 C105 C 0.78247 0.78244 0.83006
 C106 C 0.71709 0.78075 0.67085
 C107 C 0.69517 0.79922 0.65078
 C108 C 0.68231 0.82225 0.68818
 C109 C 0.69187 0.82627 0.74611
 C110 C 0.71371 0.80774 0.76612
 H111 H 0.70145 0.72452 0.80425
 H112 H 0.66302 0.69168 0.76838
 H113 H 0.70874 0.66236 0.61539
 H114 H 0.74714 0.69442 0.65236
 H115 H 0.75311 0.69451 0.85016
 H116 H 0.79188 0.66392 0.88821
 H117 H 0.79935 0.72646 0.70045
 H118 H 0.77784 0.81205 0.69000
 H119 H 0.81551 0.84590 0.72362
 H120 H 0.81098 0.79824 0.89455
 H121 H 0.77297 0.76520 0.86021
 H122 H 0.72699 0.76365 0.64097
 H123 H 0.68849 0.79566 0.60580
 H124 H 0.68253 0.84380 0.77610
 H125 H 0.72071 0.81127 0.81090
 H126 H 0.83818 0.69518 0.73746
 C127 C 0.25021 0.73278 0.75456
 C128 C 0.24916 0.76677 0.75024
 C129 C 0.27260 0.78570 0.72796
 C130 C 0.22544 0.78703 0.76847
 C131 C 0.22822 0.71261 0.78048
 C132 C 0.27353 0.71367 0.73179
 C133 C 0.29646 0.78705 0.76059
 C134 C 0.31823 0.80568 0.74011
 C135 C 0.31659 0.82280 0.68625
 C136 C 0.29270 0.82114 0.65351
 C137 C 0.27077 0.80308 0.67461
 C138 C 0.22947 0.81729 0.79881
 C139 C 0.20783 0.83711 0.81564
 C140 C 0.18136 0.82673 0.80428
 C141 C 0.17729 0.79649 0.77348
 C142 C 0.19908 0.77745 0.75425
 C143 C 0.21681 0.68671 0.74714
 C144 C 0.19573 0.66779 0.76962
 C145 C 0.18556 0.67414 0.82647
 C146 C 0.19753 0.69977 0.86039
 C147 C 0.21873 0.71869 0.83767
 C148 C 0.28109 0.71585 0.67239
 C149 C 0.30280 0.69742 0.65122
 C150 C 0.31716 0.67607 0.68887
 C151 C 0.30930 0.67368 0.74820
 C152 C 0.28766 0.69224 0.76936
 H153 H 0.29806 0.77395 0.80212
 H154 H 0.33640 0.80647 0.76616
 H155 H 0.29081 0.83428 0.61210
 H156 H 0.25242 0.80237 0.64915
 H157 H 0.24949 0.82564 0.80995
 H158 H 0.21197 0.86016 0.83914
 H159 H 0.19524 0.75524 0.72824
 H160 H 0.22397 0.68149 0.70303
 H161 H 0.18735 0.64830 0.74193
 H162 H 0.19051 0.70540 0.90442
 H163 H 0.22761 0.73825 0.86447
 H164 H 0.27002 0.73161 0.64232
 H165 H 0.30813 0.69968 0.60520
 H166 H 0.31985 0.65745 0.77841
 H167 H 0.28197 0.69002 0.81521
 H168 H 0.15729 0.78790 0.76269
 O169 O 1.02522 -0.04211 0.00229
 O170 O 0.97467 0.01442 0.06618
 O171 O 0.97331 -0.04078 0.00592
 O172 O 1.02694 0.01317 0.06420
 O173 O 1.02589 0.04333 -0.01713
 O174 O 0.97368 -0.01245 -0.07747
 O175 O 0.97368 0.04297 -0.01694
 O176 O 1.02615 -0.01126 -0.07828
 Cu177 Cu 1.00013 -0.01673 0.04298
 Cu178 Cu 0.99975 0.01856 -0.05578
 C179 C 1.03452 -0.03595 -0.04857
 C180 C 0.96531 0.03804 0.03509
 C181 C 0.96442 -0.03588 -0.04571
 C182 C 1.03551 0.03745 0.03360
 O183 O 0.47372 0.48666 0.42293
 O184 O 0.52536 0.54295 0.48407
 O185 O 0.52593 0.48816 0.42370
 O186 O 0.47298 0.54245 0.48307
 O187 O 0.47356 0.51422 0.56656
 O188 O 0.52495 0.45805 0.50512
 O189 O 0.52562 0.51372 0.56649
 O190 O 0.47280 0.45894 0.50694
 Cu191 Cu 0.49942 0.51799 0.44514
 Cu192 Cu 0.49931 0.48331 0.54459
 C193 C 0.46431 0.46341 0.45484
 C194 C 0.53443 0.53769 0.53550
 C195 C 0.53436 0.46381 0.45418
 C196 C 0.46432 0.53767 0.53494
 O197 O -0.02573 0.54363 0.02060
 O198 O 0.02572 0.48608 0.07751
 O199 O 0.02684 0.54328 0.02267
 O200 O -0.02614 0.48686 0.07639
 O201 O -0.02660 0.46093 -0.00970
 O202 O 0.02723 0.51619 -0.06229
 O203 O 0.02582 0.45942 -0.00790
 O204 O -0.02470 0.51767 -0.06542
 Cu205 Cu 0.00015 0.51776 0.05780
 Cu206 Cu 0.00042 0.48583 -0.04484
 C207 C -0.03397 0.54039 -0.03210
 C208 C 0.03450 0.46296 0.04435
 C209 C 0.03625 0.53907 -0.02878
 C210 C -0.03545 0.46441 0.04239
 O211 O 0.52641 1.01459 0.43494
 O212 O 0.47332 0.95899 0.49004
 O213 O 0.47425 1.01506 0.43302
 O214 O 0.52563 0.95814 0.49112
 O215 O 0.52586 0.98601 0.57531
 O216 O 0.47362 1.04223 0.51789
 O217 O 0.47380 0.98581 0.57528
 O218 O 0.52604 1.04251 0.51907
 Cu219 Cu 0.49992 0.98393 0.45380
 Cu220 Cu 0.49978 1.01697 0.55535
 C221 C 0.53532 1.03792 0.46765
 C222 C 0.46457 0.96292 0.54209
 C223 C 0.46501 1.03812 0.46566
 C224 C 0.53464 0.96254 0.54290
 C225 C 1.12011 0.11747 0.12105
 N226 N 1.13185 0.14083 0.08638
 N227 N 1.15236 0.15896 0.10638
 C228 C 1.16203 0.15457 0.16194
 N229 N 1.15007 0.13114 0.19647
 N230 N 1.12959 0.11296 0.17646
 C231 C 1.09776 0.09711 0.09874
 N232 N 1.08707 0.07241 0.13224
 N233 N 1.06711 0.05354 0.11164
 C234 C 1.05706 0.05875 0.05685
 N235 N 1.06767 0.08354 0.02343
 N236 N 1.08767 0.10236 0.04398
 C237 C 0.61798 0.61869 0.62473
 N238 N 0.63628 0.63188 0.58725
 N239 N 0.65686 0.64968 0.60775
 C240 C 0.65981 0.65525 0.66646
 N241 N 0.64135 0.64227 0.70391
 N242 N 0.62089 0.62417 0.68345
 C243 C 0.59576 0.59831 0.60198
 N244 N 0.58146 0.57825 0.63847
 N245 N 0.56184 0.55900 0.61735
 C246 C 0.55564 0.55938 0.55909
 N247 N 0.56978 0.57964 0.52272
 N248 N 0.58957 0.59864 0.54373
 C249 C -0.11900 0.38132 0.12395
 N250 N -0.12160 0.37454 0.18221
 N251 N -0.14184 0.35583 0.20154
 C252 C -0.16040 0.34345 0.16342
 N253 N -0.15777 0.35031 0.10513
 N254 N -0.13739 0.36876 0.08573
 C255 C -0.09695 0.40241 0.10278
 N256 N -0.09108 0.40391 0.04447
 N257 N -0.07129 0.42340 0.02524
 C258 C -0.05684 0.44234 0.06358
 N259 N -0.06276 0.44089 0.12186
 N260 N -0.08238 0.42117 0.14114
 C261 C 0.38104 0.88031 0.62511
 N262 N 0.37822 0.87395 0.68347
 N263 N 0.35791 0.85536 0.70284
 C264 C 0.33950 0.84271 0.66465
 N265 N 0.34234 0.84915 0.60627
 N266 N 0.36279 0.86747 0.58684
 C267 C 0.40315 0.90122 0.60376
 N268 N 0.40917 0.90220 0.54550
 N269 N 0.42896 0.92158 0.52595
 C270 C 0.44327 0.94091 0.56390
 N271 N 0.43723 0.93998 0.62216
 N272 N 0.41760 0.92036 0.64177
 C273 C -0.11666 0.62273 -0.11925
 N274 N -0.11892 0.62919 -0.17772
 N275 N -0.13946 0.64690 -0.19830
 C276 C -0.15867 0.65853 -0.16125
 N277 N -0.15635 0.65205 -0.10275
 N278 N -0.13569 0.63462 -0.08211
 C279 C -0.09449 0.60235 -0.09672
 N280 N -0.08926 0.60102 -0.03805
 N281 N -0.06965 0.58172 -0.01747
 C282 C -0.05475 0.56282 -0.05480
 N283 N -0.05998 0.56418 -0.11345
 N284 N -0.07941 0.58371 -0.13406
 C285 C 0.38138 1.11905 0.37835
 N286 N 0.37223 1.11452 0.32258
 N287 N 0.35179 1.13248 0.30230
 C288 C 0.33964 1.15567 0.33694
 N289 N 0.34889 1.16021 0.39276
 N290 N 0.36936 1.14226 0.41308
 C291 C 0.40358 1.09869 0.40085
 N292 N 0.41287 1.10295 0.45665
 N293 N 0.43264 1.08390 0.47723
 C294 C 0.44382 1.05992 0.44273
 N295 N 0.43459 1.05576 0.38691
 N296 N 0.41486 1.07480 0.36635
 C297 C 1.11790 -0.11612 -0.13787
 N298 N 1.14307 -0.10340 -0.13862
 N299 N 1.16353 -0.12196 -0.15703
 C300 C 1.15961 -0.15377 -0.17657
 N301 N 1.13424 -0.16627 -0.17643
 N302 N 1.11382 -0.14792 -0.15689
 C303 C 1.09564 -0.09571 -0.11631
 N304 N 1.07582 -0.10947 -0.08341
 N305 N 1.05627 -0.09045 -0.06166
 C306 C 1.05564 -0.05715 -0.07302
 N307 N 1.07528 -0.04351 -0.10652
 N308 N 1.09508 -0.06240 -0.12729
 C309 C 0.61731 0.38312 0.36353
 N310 N 0.63962 0.39794 0.34165
 N311 N 0.66001 0.37956 0.32229
 C312 C 0.65866 0.34567 0.32319
 N313 N 0.63620 0.33081 0.34447
 N314 N 0.61595 0.34922 0.36469
 C315 C 0.59527 0.40361 0.38625
 N316 N 0.57829 0.39147 0.42771
 N317 N 0.55887 0.41064 0.44961
 C318 C 0.55554 0.44244 0.43019
 N319 N 0.57236 0.45442 0.38834
 N320 N 0.59200 0.43544 0.36711
 C321 C 0.88014 -0.11749 -0.12988
 N322 N 0.86865 -0.14042 -0.09393
 N323 N 0.84821 -0.15906 -0.11275
 C324 C 0.83840 -0.15558 -0.16831
 N325 N 0.85006 -0.13262 -0.20420
 N326 N 0.87048 -0.11393 -0.18538
 C327 C 0.90240 -0.09662 -0.10868
 N328 N 0.91318 -0.07255 -0.14346
 N329 N 0.93308 -0.05328 -0.12365
 C330 C 0.94293 -0.05745 -0.06839
 N331 N 0.93220 -0.08160 -0.03374
 N332 N 0.91230 -0.10082 -0.05350
 C333 C 0.38096 0.38111 0.36865
 N334 N 0.36270 0.36849 0.40682
 N335 N 0.34226 0.35009 0.38736
 C336 C 0.33942 0.34332 0.32903
 N337 N 0.35784 0.35573 0.29086
 N338 N 0.37816 0.37443 0.31028
 C339 C 0.40308 0.40197 0.39042
 N340 N 0.41755 0.42131 0.35305
 N341 N 0.43713 0.44091 0.37343
 C342 C 0.44308 0.44159 0.43182
 N343 N 0.42874 0.42205 0.46904
 N344 N 0.40902 0.40273 0.44876
 C345 C 0.12189 0.61873 -0.11076
 N346 N 0.13312 0.64307 -0.07693
 N347 N 0.15371 0.66099 -0.09703
 C348 C 0.16390 0.65527 -0.15172
 N349 N 0.15252 0.63085 -0.18525
 N350 N 0.13198 0.61297 -0.16524
 C351 C 0.09932 0.59862 -0.08918
 N352 N 0.08853 0.57441 -0.12392
 N353 N 0.06831 0.55569 -0.10468
 C354 C 0.05808 0.56048 -0.04998
 N355 N 0.06880 0.58477 -0.01517
 N356 N 0.08907 0.60353 -0.03445
 C357 C 0.62064 1.11786 0.38499
 N358 N 0.63176 1.14214 0.41913
 N359 N 0.65242 1.16008 0.39949
 C360 C 0.66277 1.15439 0.34502
 N361 N 0.65154 1.13007 0.31107
 N362 N 0.63092 1.11216 0.33063
 C363 C 0.59807 1.09770 0.40637
 N364 N 0.58743 1.07327 0.37187
 N365 N 0.56726 1.05447 0.39126
 C366 C 0.55696 1.05944 0.44585
 N367 N 0.56752 1.08396 0.48035
 N368 N 0.58771 1.10277 0.46094
 C369 C 0.11673 0.37858 0.12732
 N370 N 0.11950 0.37169 0.18554
 N371 N 0.13985 0.35309 0.20460
 C372 C 0.15833 0.34100 0.16623
 N373 N 0.15550 0.34794 0.10803
 N374 N 0.13503 0.36624 0.08891
 C375 C 0.09474 0.39970 0.10620
 N376 N 0.08883 0.40106 0.04787
 N377 N 0.06936 0.42087 0.02832
 C378 C 0.05527 0.44029 0.06632
 N379 N 0.06119 0.43896 0.12467
 N380 N 0.08050 0.41890 0.14430
 C381 C 0.61781 0.87999 0.62744
 N382 N 0.62753 0.88425 0.68280
 N383 N 0.64788 0.86579 0.70210
 C384 C 0.65936 0.84236 0.66684
 N385 N 0.64953 0.83809 0.61145
 N386 N 0.62915 0.85653 0.59212
 C387 C 0.59574 0.90087 0.60587
 N388 N 0.58587 0.89663 0.55058
 N389 N 0.56622 0.91608 0.53069
 C390 C 0.55575 0.94048 0.56536
 N391 N 0.56556 0.94464 0.62070
 N392 N 0.58518 0.92518 0.64060
 C393 C 0.88239 0.11921 0.12517
 N394 N 0.87345 0.11520 0.18112
 N395 N 0.85314 0.13347 0.20134
 C396 C 0.84094 0.15641 0.16641
 N397 N 0.85000 0.16040 0.11046
 N398 N 0.87033 0.14218 0.09024
 C399 C 0.90441 0.09863 0.10238
 N400 N 0.91359 0.10309 0.04670
 N401 N 0.93317 0.08398 0.02551
 C402 C 0.94429 0.05968 0.05919
 N403 N 0.93517 0.05527 0.11495
 N404 N 0.91560 0.07442 0.13618
 C405 C 0.38123 0.61882 0.62436
 N406 N 0.37257 0.61501 0.68057
 N407 N 0.35236 0.63330 0.70111
 C408 C 0.33994 0.65609 0.66624
 N409 N 0.34870 0.65988 0.60999
 N410 N 0.36895 0.64163 0.58946
 C411 C 0.40321 0.59821 0.60145
 N412 N 0.41230 0.60248 0.54563
 N413 N 0.43193 0.58338 0.52456
 C414 C 0.44315 0.55928 0.55853
 N415 N 0.43410 0.55506 0.61437
 N416 N 0.41451 0.57420 0.63547
   
