data_POSCAR
  _audit_creation_date              2014-09-24
  _audit_creation_method            'ToBaCCo'
  _symmetry_space_group_name_H-M    'P1'
  _symmetry_Int_Tables_number       1
  _symmetry_cell_setting            triclinic
  loop_
  _symmetry_equiv_pos_as_xyz
 x,y,z
_cell_length_a 40.4211
_cell_length_b 41.9464
_cell_length_c 44.9289
_cell_angle_alpha 88.047600
_cell_angle_beta 88.691300
_cell_angle_gamma 92.669100
loop_
  _atom_site_label
  _atom_site_type_symbol
  _atom_site_fract_x
  _atom_site_fract_y
  _atom_site_fract_z
N1 N 0.14718 1.23180 0.16280
 N2 N 0.11748 1.22001 0.17116
 C3 C 0.09452 1.23581 0.15639
 C4 C 0.11024 1.25896 0.13753
 C5 C 0.14387 1.25574 0.14240
 H6 H 0.06822 1.23110 0.15993
 H7 H 0.16449 1.26907 0.13147
 Cu8 Cu 0.10930 1.18618 0.20218
 Cu9 Cu 0.18782 1.21320 0.17778
 Cu10 Cu 0.17636 1.15933 0.23468
 N11 N 0.10661 1.16324 0.24048
 N12 N 0.13278 1.15251 0.25354
 C13 C 0.12304 1.13546 0.27841
 C14 C 0.08860 1.13536 0.28104
 C15 C 0.07930 1.15350 0.25641
 H16 H 0.13982 1.12321 0.29273
 H17 H 0.05455 1.15852 0.24965
 N18 N 0.21447 1.15881 0.20758
 N19 N 0.21960 1.18021 0.18569
 C20 C 0.24630 1.17255 0.16937
 C21 C 0.25809 1.14452 0.18143
 C22 C 0.23734 1.13667 0.20578
 H23 H 0.25486 1.18503 0.14896
 H24 H 0.23783 1.11565 0.22035
 H25 H 0.15591 1.17588 0.18613
 H26 H 0.15293 1.20778 0.21382
 N27 N 0.82636 0.73029 0.15615
 N28 N 0.83909 0.72359 0.18216
 C29 C 0.86334 0.70304 0.17856
 C30 C 0.86571 0.69622 0.14868
 C31 C 0.84174 0.71381 0.13515
 H32 H 0.87873 0.69447 0.19622
 H33 H 0.83736 0.71607 0.11153
 Cu34 Cu 0.82455 0.74429 0.21776
 Cu35 Cu 0.79454 0.76344 0.15080
 Cu36 Cu 0.77882 0.80886 0.21225
 N37 N 0.82034 0.77273 0.25057
 N38 N 0.80269 0.79815 0.24831
 C39 C 0.80652 0.81522 0.27293
 C40 C 0.82802 0.79977 0.29177
 C41 C 0.83596 0.77263 0.27668
 H42 H 0.79544 0.83783 0.27610
 H43 H 0.85325 0.75494 0.28318
 N44 N 0.75737 0.81561 0.17360
 N45 N 0.76353 0.79838 0.15023
 C46 C 0.74734 0.81017 0.12674
 C47 C 0.73010 0.83607 0.13568
 C48 C 0.73690 0.83869 0.16560
 H49 H 0.74863 0.80105 0.10457
 H50 H 0.72880 0.85702 0.18007
 H51 H 0.81393 0.78963 0.18499
 H52 H 0.77554 0.76428 0.19400
 N53 N 0.84101 1.25017 -0.18409
 N54 N 0.85843 1.25213 -0.20921
 C55 C 0.88203 1.27565 -0.20782
 C56 C 0.87926 1.28934 -0.18036
 C57 C 0.85276 1.27273 -0.16593
 H58 H 0.90097 1.28115 -0.22485
 H59 H 0.84452 1.27512 -0.14307
 Cu60 Cu 0.85202 1.22096 -0.23962
 Cu61 Cu 0.80893 1.21463 -0.17523
 Cu62 Cu 0.79192 1.16362 -0.23296
 N63 N 0.85294 1.18321 -0.26328
 N64 N 0.82871 1.16124 -0.26159
 C65 C 0.83528 1.13816 -0.28068
 C66 C 0.86587 1.14570 -0.29468
 C67 C 0.87616 1.17466 -0.28294
 H68 H 0.81958 1.11686 -0.28298
 H69 H 0.89874 1.18874 -0.28816
 N70 N 0.76652 1.16186 -0.19485
 N71 N 0.77269 1.18129 -0.17291
 C72 C 0.75279 1.17227 -0.14934
 C73 C 0.73368 1.14556 -0.15663
 C74 C 0.74300 1.13972 -0.18569
 H75 H 0.75356 1.18304 -0.12783
 H76 H 0.73429 1.12002 -0.19880
 H77 H 0.82583 1.18153 -0.20488
 H78 H 0.79579 1.21073 -0.21840
 N79 N 0.21015 0.79024 -0.17213
 N80 N 0.19205 0.78897 -0.19604
 C81 C 0.16844 0.76546 -0.19213
 C82 C 0.17199 0.75101 -0.16430
 C83 C 0.19899 0.76713 -0.15234
 H84 H 0.14930 0.76018 -0.20790
 H85 H 0.20830 0.76385 -0.13011
 Cu86 Cu 0.19851 0.82011 -0.22885
 Cu87 Cu 0.24386 0.82448 -0.16744
 Cu88 Cu 0.23224 0.89158 -0.21283
 N89 N 0.19288 0.85726 -0.25474
 N90 N 0.20513 0.88544 -0.24769
 C91 C 0.19442 0.90767 -0.26696
 C92 C 0.17398 0.89271 -0.28730
 C93 C 0.17398 0.86047 -0.27885
 H94 H 0.20040 0.93291 -0.26550
 H95 H 0.15968 0.84095 -0.28810
 N96 N 0.25918 0.89255 -0.17683
 N97 N 0.26463 0.86691 -0.16012
 C98 C 0.28333 0.87559 -0.13702
 C99 C 0.28969 0.90834 -0.13919
 C100 C 0.27410 0.91819 -0.16476
 H101 H 0.29041 0.85951 -0.11920
 H102 H 0.27342 0.94237 -0.17374
 H103 H 0.21131 0.85348 -0.18732
 H104 H 0.24925 0.84641 -0.20996
 C105 C 0.47575 1.00863 0.01839
 C106 C 0.49270 1.03073 0.03593
 C107 C 0.47495 1.05183 0.05300
 C108 C 0.44018 1.05036 0.05306
 C109 C 0.42346 1.02827 0.03526
 C110 C 0.44105 1.00757 0.01758
 C111 C 0.52908 1.03152 0.03605
 C112 C 0.54754 1.05263 0.01658
 C113 C 0.58202 1.05077 0.01399
 C114 C 0.59801 1.02801 0.03139
 C115 C 0.57981 1.00741 0.05167
 C116 C 0.54523 1.00922 0.05374
 H117 H 0.48969 0.99286 0.00479
 H118 H 0.48811 1.06883 0.06661
 H119 H 0.53497 1.06961 0.00264
 H120 H 0.53076 0.99273 0.06853
 H121 H 0.39662 1.02737 0.03504
 H122 H 0.62469 1.02677 0.02948
 C123 C 0.00449 0.47618 0.95943
 C124 C 0.02810 0.48994 0.97815
 C125 C 0.04947 0.47043 0.99391
 C126 C 0.04697 0.43714 0.99131
 C127 C 0.02423 0.42385 0.97149
 C128 C 0.00284 0.44314 0.95568
 C129 C 0.02903 0.52456 0.98245
 C130 C 0.00305 0.53803 0.99814
 C131 C 0.00330 0.57107 1.00185
 C132 C 0.02901 0.59073 0.98882
 C133 C 0.05466 0.57755 0.97244
 C134 C 0.05503 0.54432 0.96992
 H135 H -0.01237 0.49121 0.94765
 H136 H 0.06668 0.48101 1.00933
 H137 H -0.01709 0.52279 1.00777
 H138 H 0.07463 0.53399 0.95709
 H139 H 0.02229 0.39818 0.96919
 H140 H 0.02872 0.61639 0.99095
 C141 C 0.93636 -0.05989 0.47279
 C142 C 0.96247 -0.04392 0.48712
 C143 C 0.98577 -0.02446 0.47040
 C144 C 0.98260 -0.02006 0.43954
 C145 C 0.95638 -0.03605 0.42547
 C146 C 0.93344 -0.05607 0.44185
 C147 C 0.96437 -0.04514 0.51980
 C148 C 0.99066 -0.05999 0.53369
 C149 C 0.99546 -0.05683 0.56430
 C150 C 0.97393 -0.03854 0.58079
 C151 C 0.94740 -0.02400 0.56719
 C152 C 0.94235 -0.02777 0.53674
 H153 H 0.91829 -0.07486 0.48564
 H154 H 1.00548 -0.01167 0.48165
 H155 H 1.00796 -0.07300 0.52052
 H156 H 0.92259 -0.01557 0.52589
 H157 H 0.95399 -0.03328 0.40154
 H158 H 0.97781 -0.03557 0.60436
 C159 C 0.11318 0.30560 1.10239
 C160 C 0.09726 0.32706 1.08330
 C161 C 0.06276 0.32295 1.07925
 C162 C 0.04471 0.29800 1.09437
 C163 C 0.06045 0.27717 1.11352
 C164 C 0.09490 0.28046 1.11793
 C165 C 0.04662 0.34386 1.06021
 C166 C 0.06436 0.36921 1.04528
 C167 C 0.09876 0.37393 1.04944
 C168 C 0.11510 0.35267 1.06834
 C169 C 0.11604 0.39992 1.03466
 C170 C 0.09935 0.42082 1.01587
 C171 C 0.06527 0.41576 1.01131
 C172 C 0.04798 0.39000 1.02630
 H173 H 0.13959 0.30900 1.10539
 H174 H 0.01825 0.29456 1.09144
 H175 H 0.04521 0.25819 1.12437
 H176 H 0.02016 0.34045 1.05709
 H177 H 0.14153 0.35612 1.07149
 H178 H 0.14239 0.40407 1.03763
 H179 H 0.11310 0.44062 1.00455
 H180 H 0.02152 0.38636 1.02342
 C181 C -0.11610 0.66231 1.10716
 C182 C -0.09157 0.64599 1.09213
 C183 C -0.05927 0.64556 1.10357
 C184 C -0.05241 0.66044 1.13035
 C185 C -0.07712 0.67612 1.14543
 C186 C -0.10897 0.67763 1.13375
 C187 C -0.03429 0.63051 1.08797
 C188 C -0.04132 0.61539 1.06133
 C189 C -0.07391 0.61473 1.05045
 C190 C -0.09877 0.63027 1.06580
 C191 C -0.08102 0.59868 1.02429
 C192 C -0.05598 0.58380 1.00881
 C193 C -0.02343 0.58526 1.01900
 C194 C -0.01621 0.60097 1.04530
 H195 H -0.14075 0.66305 1.09821
 H196 H -0.02785 0.66018 1.13952
 H197 H -0.07099 0.68790 1.16578
 H198 H -0.00940 0.63064 1.09651
 H199 H -0.12364 0.63022 1.05721
 H200 H -0.10589 0.59774 1.01574
 H201 H -0.06179 0.57172 0.98852
 H202 H 0.00894 0.60182 1.05324
 C203 C -0.10698 0.33308 0.85460
 C204 C -0.08367 0.35327 0.86837
 C205 C -0.04964 0.35191 0.86065
 C206 C -0.03965 0.33151 0.83846
 C207 C -0.06302 0.31197 0.82453
 C208 C -0.09674 0.31213 0.83281
 C209 C -0.02604 0.37053 0.87556
 C210 C -0.03600 0.39078 0.89791
 C211 C -0.07010 0.39333 0.90472
 C212 C -0.09373 0.37443 0.89000
 C213 C -0.07989 0.41431 0.92659
 C214 C -0.05608 0.43171 0.94229
 C215 C -0.02222 0.42811 0.93656
 C216 C -0.01232 0.40800 0.91402
 H217 H -0.13301 0.33354 0.86086
 H218 H -0.01371 0.33033 0.83217
 H219 H -0.05448 0.29590 0.80797
 H220 H 0.00009 0.36892 0.87007
 H221 H -0.11984 0.37585 0.89567
 H222 H -0.10589 0.41677 0.93197
 H223 H -0.06406 0.44705 0.95972
 H224 H 0.01387 0.40538 0.90948
 C225 C 0.15988 0.70593 0.87311
 C226 C 0.13741 0.68403 0.88816
 C227 C 0.10338 0.68398 0.88141
 C228 C 0.09255 0.70502 0.85922
 C229 C 0.11509 0.72623 0.84401
 C230 C 0.14882 0.72717 0.85099
 C231 C 0.08063 0.66301 0.89696
 C232 C 0.09146 0.64160 0.91885
 C233 C 0.12557 0.64076 0.92502
 C234 C 0.14832 0.66222 0.90982
 C235 C 0.13623 0.61844 0.94633
 C236 C 0.11326 0.59740 0.96152
 C237 C 0.07934 0.59884 0.95602
 C238 C 0.06860 0.62091 0.93461
 H239 H 0.18591 0.70631 0.87842
 H240 H 0.06660 0.70518 0.85370
 H241 H 0.10590 0.74253 0.82728
 H242 H 0.05450 0.66333 0.89200
 H243 H 0.17444 0.66191 0.91480
 H244 H 0.16227 0.61727 0.95123
 H245 H 0.12184 0.58037 0.97794
 H246 H 0.04240 0.62170 0.93010
 C247 C 1.08015 0.09902 0.32506
 C248 C 1.05874 0.08099 0.34497
 C249 C 1.02410 0.08300 0.34253
 C250 C 1.01145 0.10341 0.32082
 C251 C 1.03276 0.12109 0.30106
 C252 C 1.06744 0.11884 0.30242
 C253 C 1.00255 0.06425 0.36148
 C254 C 1.01513 0.04324 0.38280
 C255 C 1.04974 0.04157 0.38583
 C256 C 1.07137 0.06054 0.36693
 C257 C 1.06204 0.02058 0.40745
 C258 C 1.04025 0.00094 0.42540
 C259 C 1.00586 0.00190 0.42191
 C260 C 0.99351 0.02349 0.40083
 H261 H 1.10659 0.09687 0.32703
 H262 H 0.98495 0.10541 0.31883
 H263 H 1.02157 0.13623 0.28459
 H264 H 0.97597 0.06562 0.35930
 H265 H 1.09794 0.05901 0.36900
 H266 H 1.08849 0.01902 0.41019
 H267 H 1.05028 -0.01557 0.44150
 H268 H 0.96697 0.02477 0.39838
 C269 C 1.13563 -0.11120 0.67109
 C270 C 1.11444 -0.09666 0.65090
 C271 C 1.11238 -0.06312 0.65001
 C272 C 1.13257 -0.04460 0.66824
 C273 C 1.15372 -0.05913 0.68810
 C274 C 1.15495 -0.09269 0.69054
 C275 C 1.08970 -0.04861 0.63139
 C276 C 1.06897 -0.06723 0.61361
 C277 C 1.07195 -0.10068 0.61342
 C278 C 1.09470 -0.11521 0.63207
 C279 C 1.05149 -0.11907 0.59509
 C280 C 1.02745 -0.10460 0.57803
 C281 C 1.02337 -0.07163 0.57927
 C282 C 1.04467 -0.05298 0.59661
 H283 H 1.13653 -0.13695 0.67175
 H284 H 1.13156 -0.01881 0.66757
 H285 H 1.16819 -0.04373 0.70214
 H286 H 1.08766 -0.02290 0.63124
 H287 H 1.09649 -0.14094 0.63243
 H288 H 1.05358 -0.14470 0.59448
 H289 H 1.01118 -0.11929 0.56476
 H290 H 1.04179 -0.02744 0.59731
 C291 C 0.83430 -0.15900 0.32912
 C292 C 0.85076 -0.14654 0.35367
 C293 C 0.87411 -0.16487 0.36864
 C294 C 0.87978 -0.19571 0.35942
 C295 C 0.86381 -0.20774 0.33466
 C296 C 0.84150 -0.18929 0.31855
 C297 C 0.89230 -0.15167 0.39183
 C298 C 0.88823 -0.11995 0.39956
 C299 C 0.86428 -0.10183 0.38504
 C300 C 0.84529 -0.11544 0.36258
 C301 C 0.86092 -0.06983 0.39215
 C302 C 0.88241 -0.05536 0.41211
 C303 C 0.90689 -0.07290 0.42585
 C304 C 0.90906 -0.10543 0.42029
 H305 H 0.81703 -0.14425 0.31767
 H306 H 0.89735 -0.21024 0.37084
 H307 H 0.86963 -0.23141 0.32806
 H308 H 0.91067 -0.16558 0.40292
 H309 H 0.82738 -0.10132 0.35111
 H310 H 0.84273 -0.05560 0.38126
 H311 H 0.88078 -0.03013 0.41603
 H312 H 0.92841 -0.11876 0.43054
 C313 C 0.86821 0.10030 0.67223
 C314 C 0.88610 0.08169 0.65265
 C315 C 0.91985 0.08987 0.64608
 C316 C 0.93480 0.11704 0.65823
 C317 C 0.91675 0.13576 0.67716
 C318 C 0.88336 0.12747 0.68493
 C319 C 0.93825 0.07071 0.62759
 C320 C 0.92323 0.04369 0.61514
 C321 C 0.88914 0.03606 0.62068
 C322 C 0.87083 0.05499 0.63960
 C323 C 0.87410 0.00946 0.60733
 C324 C 0.89283 -0.00972 0.58916
 C325 C 0.92687 -0.00282 0.58453
 C326 C 0.94188 0.02404 0.59735
 H327 H 0.84244 0.09360 0.67718
 H328 H 0.96059 0.12374 0.65323
 H329 H 0.92962 0.15623 0.68628
 H330 H 0.96430 0.07677 0.62299
 H331 H 0.84482 0.04888 0.64426
 H332 H 0.84797 0.00336 0.61113
 H333 H 0.88099 -0.03039 0.57933
 H334 H 0.96815 0.02950 0.59348
 C335 C 0.30931 1.13793 0.14994
 C336 C 0.33203 1.11836 0.13617
 C337 C 0.32830 1.08480 0.14049
 C338 C 0.30280 1.07146 0.15923
 C339 C 0.28065 1.09105 0.17309
 C340 C 0.28332 1.12437 0.16828
 C341 C 0.34977 1.06503 0.12568
 C342 C 0.37513 1.07830 0.10673
 C343 C 0.37980 1.11186 0.10320
 C344 C 0.35812 1.13171 0.11787
 C345 C 0.40578 1.12489 0.08465
 C346 C 0.42629 1.10487 0.06910
 C347 C 0.42087 1.07159 0.07163
 C348 C 0.39556 1.05846 0.09082
 H349 H 0.31178 1.16362 0.14633
 H350 H 0.29971 1.04581 0.16286
 H351 H 0.26074 1.07991 0.18686
 H352 H 0.34646 1.03928 0.12862
 H353 H 0.36129 1.15743 0.11477
 H354 H 0.40990 1.15054 0.08182
 H355 H 0.44570 1.11536 0.05433
 H356 H 0.39158 1.03273 0.09304
 C357 C 0.69487 1.13834 -0.11238
 C358 C 0.67522 1.11869 -0.09237
 C359 C 0.67300 1.08530 -0.09608
 C360 C 0.68955 1.07230 -0.12022
 C361 C 0.70855 1.09207 -0.14030
 C362 C 0.71175 1.12514 -0.13637
 C363 C 0.65441 1.06543 -0.07557
 C364 C 0.63745 1.07854 -0.05169
 C365 C 0.63870 1.11201 -0.04850
 C366 C 0.65784 1.13185 -0.06870
 C367 C 0.62074 1.12505 -0.02514
 C368 C 0.60189 1.10511 -0.00502
 C369 C 0.60129 1.07187 -0.00762
 C370 C 0.61910 1.05867 -0.03097
 H371 H 0.69691 1.16388 -0.10937
 H372 H 0.68799 1.04680 -0.12348
 H373 H 0.72151 1.08128 -0.15845
 H374 H 0.65310 1.03980 -0.07823
 H375 H 0.65917 1.15748 -0.06602
 H376 H 0.62122 1.15064 -0.02246
 H377 H 0.58817 1.11555 0.01290
 H378 H 0.61828 1.03298 -0.03315
 C379 C 0.33118 0.91665 -0.09905
 C380 C 0.34798 0.93656 -0.07922
 C381 C 0.34025 0.96905 -0.07796
 C382 C 0.31618 0.98113 -0.09661
 C383 C 0.29995 0.96132 -0.11647
 C384 C 0.30721 0.92896 -0.11793
 C385 C 0.35677 0.98905 -0.05823
 C386 C 0.38130 0.97716 -0.03994
 C387 C 0.38941 0.94481 -0.04133
 C388 C 0.37254 0.92463 -0.06084
 C389 C 0.41444 0.93329 -0.02330
 C390 C 0.43130 0.95366 -0.00416
 C391 C 0.42317 0.98576 -0.00248
 C392 C 0.39807 0.99731 -0.02044
 H393 H 0.33718 0.89180 -0.10014
 H394 H 0.30995 1.00595 -0.09589
 H395 H 0.28132 0.97137 -0.13042
 H396 H 0.35071 1.01392 -0.05726
 H397 H 0.37867 0.89979 -0.06187
 H398 H 0.42105 0.90859 -0.02409
 H399 H 0.45049 0.94426 0.00960
 H400 H 0.39202 1.02218 -0.01963
 C401 C 0.68746 0.87727 0.12949
 C402 C 0.67029 0.89877 0.11163
 C403 C 0.67712 0.90127 0.08060
 C404 C 0.70052 0.88185 0.06792
 C405 C 0.71728 0.86035 0.08579
 C406 C 0.71117 0.85800 0.11674
 C407 C 0.66059 0.92321 0.06276
 C408 C 0.63707 0.94253 0.07549
 C409 C 0.62972 0.93961 0.10643
 C410 C 0.64647 0.91786 0.12432
 C411 C 0.60575 0.95858 0.11895
 C412 C 0.58933 0.98037 0.10106
 C413 C 0.59683 0.98381 0.07040
 C414 C 0.62073 0.96474 0.05774
 H415 H 0.68222 0.87545 0.15326
 H416 H 0.70603 0.88341 0.04418
 H417 H 0.73559 0.84607 0.07536
 H418 H 0.66607 0.92527 0.03901
 H419 H 0.64102 0.91582 0.14808
 H420 H 0.59974 0.95662 0.14259
 H421 H 0.57111 0.99496 0.11127
 H422 H 0.62632 0.96698 0.03402
   
