data_POSCAR
  _audit_creation_date              2014-09-24
  _audit_creation_method            'ToBaCCo'
  _symmetry_space_group_name_H-M    'P1'
  _symmetry_Int_Tables_number       1
  _symmetry_cell_setting            triclinic
  loop_
  _symmetry_equiv_pos_as_xyz
 x,y,z
_cell_length_a 41.7616
_cell_length_b 41.7256
_cell_length_c 20.2415
_cell_angle_alpha 88.271600
_cell_angle_beta 89.766000
_cell_angle_gamma 120.503200
loop_
  _atom_site_label
  _atom_site_type_symbol
  _atom_site_fract_x
  _atom_site_fract_y
  _atom_site_fract_z
O1 O 0.04901 0.47316 0.01570
 O2 O -0.00811 0.51424 -0.03347
 O3 O 0.04827 0.53330 0.04298
 O4 O -0.00464 0.45584 -0.06634
 O5 O -0.04745 0.42572 0.01210
 O6 O 0.01107 0.49978 0.12685
 O7 O -0.04508 0.48580 0.05356
 O8 O 0.00614 0.43791 0.09134
 Cu9 Cu 0.02504 0.49730 -0.01869
 Cu10 Cu -0.02291 0.45907 0.07906
 C11 C 0.03665 0.44787 0.06130
 C12 C -0.03566 0.50774 0.00330
 C13 C 0.03928 0.52948 0.10383
 C14 C -0.03516 0.42780 -0.04645
 O15 O 0.57728 0.53040 0.00360
 O16 O 0.47652 0.48507 0.04091
 O17 O 0.51817 0.46873 -0.02987
 O18 O 0.53448 0.54382 0.07949
 O19 O 0.52530 0.57384 -0.00320
 O20 O 0.51769 0.50234 -0.11580
 O21 O 0.47044 0.51287 -0.04888
 O22 O 0.57167 0.56504 -0.07498
 Cu23 Cu 0.52744 0.50389 0.03192
 Cu24 Cu 0.52066 0.54163 -0.06927
 C25 C 0.59160 0.55596 -0.04150
 C26 C 0.45640 0.49110 0.00152
 C27 C 0.51592 0.47297 -0.09166
 C28 C 0.53132 0.57085 0.05756
 O29 O 0.43478 0.96492 -0.03611
 O30 O 0.53325 1.03758 -0.05560
 O31 O 0.49656 0.96504 -0.04012
 O32 O 0.47137 1.03788 -0.04902
 O33 O 0.47707 1.04317 0.05908
 O34 O 0.50038 0.96922 0.06846
 O35 O 0.53801 1.04102 0.05297
 O36 O 0.43852 0.96978 0.07231
 Cu37 Cu 0.48347 1.00099 -0.05609
 Cu38 Cu 0.48869 1.00629 0.07415
 C39 C 0.42010 0.95438 0.02129
 C40 C 0.55244 1.05152 -0.00471
 C41 C 0.50234 0.95447 0.01581
 C42 C 0.47104 1.05372 0.00342
 O43 O 1.01946 0.53625 0.44849
 O44 O 0.97918 0.43807 0.50022
 O45 O 1.03764 0.48588 0.42994
 O46 O 0.95862 0.48725 0.51207
 O47 O 0.92776 0.46988 0.41906
 O48 O 1.00595 0.47001 0.33781
 O49 O 0.94692 0.42116 0.40855
 O50 O 0.98739 0.51984 0.35668
 Cu51 Cu 1.00195 0.48854 0.48195
 Cu52 Cu 0.96416 0.46854 0.37098
 C53 C 1.01034 0.54480 0.39399
 C54 C 0.95556 0.41305 0.46409
 C55 C 1.03522 0.47823 0.36912
 C56 C 0.92949 0.47817 0.47910
 O57 O 0.53737 0.55040 0.42290
 O58 O 0.48875 0.45848 0.50882
 O59 O 0.46831 0.50286 0.45496
 O60 O 0.55766 0.50703 0.47800
 O61 O 0.56347 0.53266 0.57445
 O62 O 0.47522 0.53091 0.54914
 O63 O 0.49338 0.48545 0.60342
 O64 O 0.54371 0.57760 0.51788
 Cu65 Cu 0.51232 0.50188 0.45669
 Cu66 Cu 0.51980 0.53434 0.57099
 C67 C 0.54850 0.57955 0.45557
 C68 C 0.48257 0.45636 0.57068
 C69 C 0.45685 0.51669 0.49761
 C70 C 0.57570 0.52041 0.53018
 O71 O 0.46787 0.02789 0.57798
 O72 O 0.49509 -0.04297 0.56307
 O73 O 0.53018 0.02854 0.57421
 O74 O 0.43129 -0.04444 0.56935
 O75 O 0.43367 -0.03926 0.46031
 O76 O 0.53096 0.03632 0.46562
 O77 O 0.49721 -0.03548 0.45428
 O78 O 0.46672 0.03265 0.46911
 Cu79 Cu 0.48075 -0.00865 0.58217
 Cu80 Cu 0.48230 -0.00069 0.45141
 C81 C 0.46258 0.04223 0.52598
 C82 C 0.50128 -0.05084 0.50605
 C83 C 0.54723 0.04511 0.52062
 C84 C 0.41574 -0.05452 0.51392
 C85 C 0.24978 0.47747 0.26974
 C86 C 0.24608 0.46123 0.21030
 C87 C 0.21004 0.44558 0.17604
 C88 C 0.27694 0.45977 0.17585
 C89 C 0.28064 0.48556 0.31541
 C90 C 0.22154 0.48710 0.29065
 C91 C 0.17776 0.41673 0.20719
 C92 C 0.14286 0.40710 0.18332
 C93 C 0.13955 0.42598 0.12742
 C94 C 0.17210 0.45302 0.09345
 C95 C 0.20713 0.46259 0.11741
 C96 C 0.26916 0.42884 0.13848
 C97 C 0.29723 0.42841 0.10139
 C98 C 0.33377 0.45857 0.10196
 C99 C 0.34186 0.48922 0.14010
 C100 C 0.31360 0.49016 0.17560
 C101 C 0.29751 0.51873 0.34996
 C102 C 0.32670 0.52674 0.39253
 C103 C 0.33976 0.50185 0.40103
 C104 C 0.32254 0.46840 0.36743
 C105 C 0.29288 0.46006 0.32587
 C106 C 0.21503 0.51083 0.24958
 C107 C 0.18264 0.51226 0.25765
 C108 C 0.15692 0.49111 0.30845
 C109 C 0.16535 0.47056 0.35411
 C110 C 0.19751 0.46841 0.34502
 H111 H 0.17959 0.40326 0.25242
 H112 H 0.11867 0.38638 0.21127
 H113 H 0.17055 0.46771 0.04973
 H114 H 0.23184 0.48490 0.09275
 H115 H 0.24118 0.40513 0.13722
 H116 H 0.29039 0.40452 0.07218
 H117 H 0.32032 0.51504 0.20157
 H118 H 0.28850 0.53877 0.34321
 H119 H 0.33963 0.55285 0.41748
 H120 H 0.33168 0.44845 0.37399
 H121 H 0.27958 0.43370 0.30167
 H122 H 0.23360 0.52589 0.20797
 H123 H 0.17684 0.52859 0.22234
 H124 H 0.14576 0.45398 0.39356
 H125 H 0.20215 0.45004 0.37727
 H126 H 0.36974 0.51317 0.14015
 C127 C 0.55145 0.78581 0.29428
 C128 C 0.54139 0.77936 0.22954
 C129 C 0.53478 0.74412 0.20072
 C130 C 0.53603 0.80568 0.18587
 C131 C 0.54659 0.81251 0.33430
 C132 C 0.56442 0.76264 0.32913
 C133 C 0.55639 0.74465 0.14694
 C134 C 0.55415 0.71160 0.12773
 C135 C 0.53064 0.67793 0.16275
 C136 C 0.50742 0.67720 0.21366
 C137 C 0.50894 0.70988 0.23159
 C138 C 0.55908 0.84450 0.18985
 C139 C 0.55353 0.86870 0.14868
 C140 C 0.52590 0.85458 0.10088
 C141 C 0.50367 0.81597 0.09527
 C142 C 0.50843 0.79178 0.13771
 C143 C 0.51483 0.81581 0.32814
 C144 C 0.50975 0.83968 0.36802
 C145 C 0.53554 0.85961 0.41661
 C146 C 0.56685 0.85582 0.42393
 C147 C 0.57247 0.83271 0.38282
 C148 C 0.54331 0.73833 0.38193
 C149 C 0.54977 0.70994 0.40335
 C150 C 0.57751 0.70563 0.37235
 C151 C 0.60090 0.73232 0.32406
 C152 C 0.59456 0.76073 0.30294
 H153 H 0.57625 0.77079 0.12224
 H154 H 0.57220 0.71265 0.08810
 H155 H 0.48860 0.65142 0.24049
 H156 H 0.49139 0.70884 0.27214
 H157 H 0.58147 0.85618 0.22466
 H158 H 0.57130 0.89845 0.15326
 H159 H 0.49029 0.76208 0.13307
 H160 H 0.49359 0.79948 0.29321
 H161 H 0.48505 0.84169 0.36221
 H162 H 0.58721 0.87106 0.46091
 H163 H 0.59698 0.83043 0.38920
 H164 H 0.51999 0.73943 0.40282
 H165 H 0.53129 0.68991 0.44079
 H166 H 0.62308 0.73033 0.30040
 H167 H 0.61148 0.77965 0.26279
 H168 H 0.48200 0.80446 0.05905
 C169 C 0.20947 0.76907 0.30727
 C170 C 0.21575 0.76254 0.24402
 C171 C 0.24558 0.79172 0.19929
 C172 C 0.19189 0.72431 0.21924
 C173 C 0.17223 0.74400 0.33815
 C174 C 0.23922 0.79734 0.34890
 C175 C 0.25691 0.82965 0.20424
 C176 C 0.28516 0.85677 0.16280
 C177 C 0.30136 0.84639 0.11343
 C178 C 0.28929 0.80860 0.10655
 C179 C 0.26199 0.78158 0.14946
 C180 C 0.16673 0.71735 0.16829
 C181 C 0.13932 0.68065 0.15546
 C182 C 0.13654 0.65072 0.19415
 C183 C 0.16311 0.65773 0.24226
 C184 C 0.19096 0.69412 0.25375
 C185 C 0.16745 0.71705 0.38638
 C186 C 0.13237 0.68542 0.39756
 C187 C 0.10165 0.68073 0.36120
 C188 C 0.10588 0.71028 0.31970
 C189 C 0.14092 0.74165 0.30822
 C190 C 0.27621 0.80556 0.34193
 C191 C 0.30383 0.83131 0.38198
 C192 C 0.29484 0.84816 0.43192
 C193 C 0.25785 0.83916 0.44084
 C194 C 0.23032 0.81424 0.39925
 H195 H 0.24391 0.83844 0.24008
 H196 H 0.29373 0.88577 0.16819
 H197 H 0.30153 0.80004 0.06875
 H198 H 0.25387 0.75273 0.14376
 H199 H 0.16700 0.74027 0.14121
 H200 H 0.11912 0.67578 0.11788
 H201 H 0.21047 0.69897 0.29269
 H202 H 0.19137 0.71849 0.40993
 H203 H 0.13019 0.66352 0.43058
 H204 H 0.08268 0.70835 0.29279
 H205 H 0.14417 0.76251 0.27132
 H206 H 0.28383 0.79177 0.30597
 H207 H 0.33211 0.83730 0.37515
 H208 H 0.25038 0.85185 0.47926
 H209 H 0.20203 0.80811 0.40657
 H210 H 0.16192 0.63508 0.27186
 C211 C 0.78690 0.54344 0.80022
 C212 C 0.77943 0.53191 0.73687
 C213 C 0.80097 0.51816 0.70113
 C214 C 0.74906 0.53214 0.69869
 C215 C 0.76531 0.55767 0.83423
 C216 C 0.81642 0.54199 0.83876
 C217 C 0.83952 0.54058 0.68970
 C218 C 0.85835 0.52813 0.65012
 C219 C 0.83871 0.49337 0.62078
 C220 C 0.80046 0.47060 0.63446
 C221 C 0.78180 0.48291 0.67402
 C222 C 0.75697 0.54867 0.63475
 C223 C 0.72874 0.54715 0.59597
 C224 C 0.69201 0.52946 0.62056
 C225 C 0.68401 0.51346 0.68493
 C226 C 0.71219 0.51421 0.72329
 C227 C 0.74423 0.53889 0.89140
 C228 C 0.71967 0.54864 0.91856
 C229 C 0.71602 0.57759 0.88929
 C230 C 0.73910 0.59795 0.83455
 C231 C 0.76364 0.58817 0.80747
 C232 C 0.81848 0.50940 0.84381
 C233 C 0.84723 0.50908 0.87831
 C234 C 0.87363 0.54090 0.91036
 C235 C 0.87085 0.57304 0.90723
 C236 C 0.84260 0.57362 0.87149
 H237 H 0.85472 0.56808 0.70963
 H238 H 0.88780 0.54633 0.64001
 H239 H 0.78470 0.44340 0.61364
 H240 H 0.75211 0.46516 0.68252
 H241 H 0.78510 0.56248 0.61455
 H242 H 0.73568 0.55991 0.54667
 H243 H 0.70511 0.50024 0.77159
 H244 H 0.74547 0.51550 0.91309
 H245 H 0.70281 0.53281 0.96137
 H246 H 0.73711 0.62029 0.81031
 H247 H 0.78013 0.60331 0.76384
 H248 H 0.79787 0.48422 0.82101
 H249 H 0.84831 0.48369 0.88122
 H250 H 0.89087 0.59793 0.93153
 H251 H 0.84141 0.59896 0.86874
 H252 H 0.65577 0.49920 0.70461
 C253 C 0.46316 0.24224 0.77832
 C254 C 0.45015 0.23444 0.71540
 C255 C 0.44048 0.26011 0.68032
 C256 C 0.44794 0.20303 0.67851
 C257 C 0.46247 0.21367 0.82562
 C258 C 0.47851 0.28095 0.80089
 C259 C 0.41364 0.26654 0.70873
 C260 C 0.41241 0.29837 0.69051
 C261 C 0.43783 0.32415 0.64322
 C262 C 0.46171 0.31535 0.60927
 C263 C 0.46292 0.28337 0.62759
 C264 C 0.41912 0.18370 0.63405
 C265 C 0.41768 0.15505 0.59766
 C266 C 0.44482 0.14494 0.60553
 C267 C 0.47370 0.16429 0.64968
 C268 C 0.47560 0.19343 0.68491
 C269 C 0.48997 0.22415 0.87364
 C270 C 0.48925 0.19769 0.91862
 C271 C 0.46154 0.16014 0.91548
 C272 C 0.43385 0.14950 0.86827
 C273 C 0.43374 0.17614 0.82491
 C274 C 0.50768 0.31065 0.76428
 C275 C 0.51693 0.34721 0.77461
 C276 C 0.49821 0.35487 0.82358
 C277 C 0.47133 0.32550 0.86436
 C278 C 0.46134 0.28864 0.85278
 H279 H 0.39585 0.24858 0.74908
 H280 H 0.39293 0.30374 0.71615
 H281 H 0.48153 0.33454 0.57235
 H282 H 0.48380 0.27880 0.60519
 H283 H 0.39763 0.19071 0.62762
 H284 H 0.39508 0.14049 0.56401
 H285 H 0.49894 0.20870 0.71680
 H286 H 0.51228 0.25279 0.87612
 H287 H 0.51091 0.20638 0.95475
 H288 H 0.41194 0.12067 0.86580
 H289 H 0.41115 0.16728 0.79076
 H290 H 0.52170 0.30524 0.72479
 H291 H 0.53816 0.36946 0.74334
 H292 H 0.45659 0.33085 0.90255
 H293 H 0.43884 0.26611 0.88160
 H294 H 0.49541 0.15758 0.65568
 C295 C 0.76898 0.22240 0.77157
 C296 C 0.76751 0.22034 0.70429
 C297 C 0.73408 0.19327 0.66828
 C298 C 0.79971 0.24696 0.66185
 C299 C 0.80312 0.25142 0.80359
 C300 C 0.73704 0.19723 0.81633
 C301 C 0.71526 0.15483 0.68392
 C302 C 0.68436 0.13025 0.64766
 C303 C 0.67275 0.14365 0.59388
 C304 C 0.69188 0.18188 0.57783
 C305 C 0.72199 0.20640 0.61486
 C306 C 0.82071 0.23470 0.62818
 C307 C 0.85170 0.25982 0.58945
 C308 C 0.86125 0.29719 0.58214
 C309 C 0.83955 0.30917 0.61451
 C310 C 0.80917 0.28429 0.65461
 C311 C 0.80124 0.27745 0.84338
 C312 C 0.83375 0.30765 0.86673
 C313 C 0.86859 0.31243 0.84985
 C314 C 0.87028 0.28523 0.81336
 C315 C 0.83778 0.25460 0.79155
 C316 C 0.70121 0.19147 0.80646
 C317 C 0.67157 0.16686 0.84845
 C318 C 0.67752 0.14869 0.90244
 C319 C 0.71356 0.15556 0.91371
 C320 C 0.74297 0.17945 0.87091
 H321 H 0.72456 0.14385 0.72378
 H322 H 0.67012 0.10076 0.66056
 H323 H 0.68319 0.19297 0.53719
 H324 H 0.73589 0.23585 0.60168
 H325 H 0.81353 0.20587 0.63314
 H326 H 0.86801 0.25002 0.56477
 H327 H 0.79303 0.29403 0.68005
 H328 H 0.77474 0.27527 0.85387
 H329 H 0.83179 0.32829 0.89481
 H330 H 0.89683 0.28801 0.80076
 H331 H 0.83977 0.23413 0.76298
 H332 H 0.69613 0.20584 0.76613
 H333 H 0.64413 0.16250 0.83937
 H334 H 0.71888 0.14179 0.95475
 H335 H 0.77040 0.18372 0.87993
 H336 H 0.84663 0.33798 0.61019
 N337 N 0.06982 0.39079 0.13110
 N338 N 0.04288 0.39704 0.11455
 C339 C 0.05774 0.42987 0.08064
 C340 C 0.09582 0.44518 0.07480
 C341 C 0.10258 0.41975 0.10855
 H342 H 0.11589 0.47248 0.05435
 H343 H 0.06550 0.36741 0.15894
 H344 H 0.01491 0.37951 0.12800
 N345 N 0.52978 0.61989 0.19794
 N346 N 0.53088 0.59222 0.17032
 C347 C 0.53326 0.59798 0.10421
 C348 C 0.53424 0.63108 0.08890
 C349 C 0.53180 0.64398 0.14996
 H350 H 0.53521 0.64329 0.04045
 H351 H 0.52759 0.62205 0.24883
 H352 H 0.52901 0.56934 0.19649
 N353 N 0.33273 0.87083 0.00324
 N354 N 0.36360 0.89980 -0.02117
 C355 C 0.38193 0.92255 0.02832
 C356 C 0.36150 0.90768 0.08679
 C357 C 0.33059 0.87474 0.06862
 H358 H 0.36917 0.91802 0.13606
 H359 H 0.31390 0.84849 -0.02437
 H360 H 0.37264 0.90298 -0.07039
 N361 N 0.83865 0.46057 0.52020
 N362 N 0.86256 0.45714 0.48284
 C363 C 0.89640 0.47588 0.50955
 C364 C 0.89407 0.49222 0.56668
 C365 C 0.85673 0.48179 0.57153
 H366 H 0.91633 0.50963 0.59911
 H367 H 0.81066 0.44944 0.50905
 H368 H 0.85569 0.44234 0.43940
 N369 N 0.43499 0.37850 0.68450
 N370 N 0.44761 0.41361 0.66615
 C371 C 0.46299 0.41980 0.60519
 C372 C 0.46006 0.38728 0.58355
 C373 C 0.44234 0.36165 0.63566
 H374 H 0.47118 0.38355 0.53794
 H375 H 0.42364 0.36720 0.73139
 H376 H 0.44668 0.43316 0.69592
 N377 N 0.63815 0.12349 0.48868
 N378 N 0.60515 0.09744 0.46936
 C379 C 0.58612 0.07531 0.52209
 C380 C 0.60811 0.08742 0.57735
 C381 C 0.64086 0.11823 0.55400
 H382 H 0.60070 0.07650 0.62777
 H383 H 0.65824 0.14461 0.45749
 H384 H 0.59563 0.09555 0.42119
 N385 N 0.46804 0.13631 1.02598
 N386 N 0.46985 0.10572 1.05076
 C387 C 0.46561 0.08402 0.99961
 C388 C 0.45992 0.09939 0.94220
 C389 C 0.46197 0.13210 0.96073
 H390 H 0.45717 0.08945 0.89256
 H391 H 0.47197 0.15875 1.05350
 H392 H 0.47615 0.10231 1.09942
 N393 N 0.68396 0.61465 0.89457
 N394 N 0.65089 0.60866 0.91265
 C395 C 0.63153 0.57474 0.94271
 C396 C 0.65321 0.55840 0.94427
 C397 C 0.68623 0.58440 0.91208
 H398 H 0.64453 0.53008 0.96000
 H399 H 0.70385 0.63864 0.86857
 H400 H 0.64131 0.62698 0.90206
 N401 N 0.93242 0.36459 0.82248
 N402 N 0.95875 0.39749 0.85071
 C403 C 0.94528 0.39904 0.91039
 C404 C 0.91020 0.36779 0.92126
 C405 C 0.90320 0.34702 0.86503
 H406 H 0.89204 0.36113 0.96414
 H407 H 0.93481 0.35642 0.77533
 H408 H 0.98439 0.41680 0.82880
 N409 N 0.53833 0.88865 0.52445
 N410 N 0.52855 0.91165 0.54842
 C411 C 0.51370 0.92221 0.49954
 C412 C 0.51365 0.90498 0.44219
 C413 C 0.52948 0.88389 0.46009
 H414 H 0.50392 0.90778 0.39408
 H415 H 0.55044 0.87619 0.55211
 H416 H 0.53251 0.92029 0.59711
 N417 N 0.37992 0.53202 0.49784
 N418 N 0.41050 0.53552 0.52361
 C419 C 0.42225 0.51697 0.48674
 C420 C 0.39794 0.50065 0.43559
 C421 C 0.37147 0.51095 0.44430
 H422 H 0.39994 0.48461 0.39642
 H423 H 0.36521 0.54389 0.51696
 H424 H 0.42337 0.55095 0.56504
 N425 N 0.04293 0.63268 0.30956
 N426 N 0.01913 0.59661 0.31758
 C427 C 0.02743 0.58412 0.37312
 C428 C 0.05757 0.61343 0.40210
 C429 C 0.06699 0.64391 0.35993
 H430 H 0.07202 0.61195 0.44525
 H431 H 0.04386 0.64845 0.26780
 H432 H -0.00124 0.58067 0.28380
 N433 N 0.91643 0.55817 1.00554
 N434 N 0.94026 0.54926 1.03009
 C435 C 0.94326 0.52621 0.98879
 C436 C 0.92002 0.51957 0.93610
 C437 C 0.90331 0.54031 0.94877
 H438 H 0.91489 0.50114 0.89591
 H439 H 0.90827 0.57494 1.02891
 H440 H 0.95361 0.55823 1.07504
 N441 N 0.51063 0.41612 0.77644
 N442 N 0.51433 0.44884 0.80022
 C443 C 0.51191 0.44525 0.86669
 C444 C 0.50596 0.41044 0.88665
 C445 C 0.50522 0.39309 0.82886
 H446 H 0.50265 0.39918 0.93674
 H447 H 0.51111 0.41067 0.72655
 H448 H 0.51900 0.47189 0.77083
 N449 N 0.64943 0.11717 1.01205
 N450 N 0.61645 0.09178 1.03654
 C451 C 0.59186 0.08026 0.98735
 C452 C 0.60981 0.09939 0.92911
 C453 C 0.64635 0.12258 0.94691
 H454 H 0.59804 0.09647 0.88058
 H455 H 0.67342 0.13072 1.03991
 H456 H 0.61109 0.08237 1.08598
 N457 N 0.10029 0.48120 0.25183
 N458 N 0.06572 0.47619 0.26919
 C459 C 0.06499 0.47957 0.33511
 C460 C 0.09842 0.48598 0.36138
 C461 C 0.11967 0.48684 0.30754
 H462 H 0.10635 0.48975 0.41266
 H463 H 0.10870 0.47963 0.20399
 H464 H 0.04491 0.47151 0.23578
 N465 N 0.59005 0.65599 0.33790
 N466 N 0.58180 0.62239 0.35930
 C467 C 0.56613 0.61584 0.42010
 C468 C 0.56424 0.64655 0.43836
 C469 C 0.57934 0.67140 0.38437
 H470 H 0.55102 0.64907 0.48239
 H471 H 0.60041 0.66685 0.29035
 H472 H 0.58542 0.60376 0.33139
 N473 N 0.32083 0.87520 0.54092
 N474 N 0.35540 0.90191 0.56415
 C475 C 0.37864 0.91741 0.51132
 C476 C 0.36000 0.90103 0.45426
 C477 C 0.32416 0.87471 0.47479
 H478 H 0.37123 0.90699 0.40417
 H479 H 0.29745 0.85780 0.57059
 H480 H 0.36143 0.90834 0.61370
 N481 N 0.51011 0.87394 -0.00641
 N482 N 0.50451 0.90069 -0.02913
 C483 C 0.51019 0.92395 0.02002
 C484 C 0.52036 0.91182 0.07623
 C485 C 0.51983 0.87993 0.05741
 H486 H 0.52549 0.92342 0.12480
 H487 H 0.50685 0.85180 -0.03412
 H488 H 0.49571 0.90214 -0.07678
 N489 N 0.35763 0.44816 -0.00351
 N490 N 0.39016 0.45731 -0.03057
 C491 C 0.41646 0.47352 0.01511
 C492 C 0.40024 0.47531 0.07350
 C493 C 0.36284 0.45915 0.05945
 H494 H 0.41401 0.48856 0.11834
 H495 H 0.33270 0.43642 -0.02895
 H496 H 0.39430 0.45336 -0.07989
 N497 N 0.08757 0.58789 0.23788
 N498 N 0.06137 0.55619 0.21435
 C499 C 0.06228 0.55975 0.14794
 C500 C 0.08982 0.59548 0.12831
 C501 C 0.10527 0.61239 0.18691
 H502 H 0.09812 0.60716 0.07847
 H503 H 0.09304 0.59255 0.28806
 H504 H 0.04371 0.53246 0.24341
 N505 N 0.43138 0.10745 0.50437
 N506 N 0.43661 0.08078 0.48304
 C507 C 0.45185 0.07052 0.53167
 C508 C 0.45680 0.09167 0.58614
 C509 C 0.44363 0.11495 0.56671
 H510 H 0.46894 0.09072 0.63277
 H511 H 0.42064 0.12093 0.47578
 H512 H 0.43003 0.07006 0.43586
 N513 N 0.66161 0.52180 0.51174
 N514 N 0.63085 0.51891 0.48826
 C515 C 0.61134 0.52190 0.53838
 C516 C 0.63030 0.52652 0.59668
 C517 C 0.66214 0.52628 0.57748
 H518 H 0.62214 0.52961 0.64581
 H519 H 0.68146 0.52000 0.48312
 H520 H 0.62355 0.51514 0.43861
 N521 N 0.92752 0.32550 0.54502
 N522 N 0.95282 0.35644 0.51357
 C523 C 0.93610 0.37451 0.48938
 C524 C 0.89882 0.35477 0.50704
 C525 C 0.89451 0.32398 0.54283
 H526 H 0.87853 0.36333 0.49992
 H527 H 0.93338 0.30721 0.57127
 H528 H 0.98124 0.36578 0.51155
   
