data_POSCAR
  _audit_creation_date              2014-09-24
  _audit_creation_method            'ToBaCCo'
  _symmetry_space_group_name_H-M    'P1'
  _symmetry_Int_Tables_number       1
  _symmetry_cell_setting            triclinic
  loop_
  _symmetry_equiv_pos_as_xyz
 x,y,z
_cell_length_a 34.4291
_cell_length_b 32.8759
_cell_length_c 20.8067
_cell_angle_alpha 89.695900
_cell_angle_beta 89.020800
_cell_angle_gamma 89.559600
loop_
  _atom_site_label
  _atom_site_type_symbol
  _atom_site_fract_x
  _atom_site_fract_y
  _atom_site_fract_z
O1 O 0.23485 0.28799 0.15685
 O2 O 0.29342 0.20363 0.22005
 O3 O 0.22617 0.20681 0.17929
 O4 O 0.30622 0.27724 0.21064
 O5 O 0.27729 0.29654 0.30125
 O6 O 0.19564 0.22997 0.26577
 O7 O 0.26846 0.21592 0.31652
 O8 O 0.21139 0.30284 0.25334
 Cu9 Cu 0.26644 0.24443 0.18075
 Cu10 Cu 0.23656 0.26072 0.29501
 C11 C 0.21302 0.30951 0.19322
 C12 C 0.29142 0.19582 0.27969
 C13 C 0.19655 0.20728 0.21654
 C14 C 0.30601 0.29768 0.26237
 O15 O 0.74271 0.21112 0.38939
 O16 O 0.81964 0.27731 0.32649
 O17 O 0.74747 0.29151 0.37991
 O18 O 0.80890 0.20293 0.33602
 O19 O 0.78570 0.20705 0.23789
 O20 O 0.71853 0.28905 0.28615
 O21 O 0.78675 0.28834 0.23803
 O22 O 0.71535 0.21198 0.29419
 Cu23 Cu 0.78149 0.24729 0.36806
 Cu24 Cu 0.74956 0.24827 0.25381
 C25 C 0.71597 0.19990 0.35237
 C26 C 0.81661 0.29415 0.27174
 C27 C 0.72155 0.30427 0.34162
 C28 C 0.80865 0.19093 0.27809
 O29 O 0.72642 0.79049 0.68121
 O30 O 0.79776 0.70814 0.70422
 O31 O 0.72438 0.71237 0.67472
 O32 O 0.79914 0.78734 0.71453
 O33 O 0.78276 0.78218 0.81719
 O34 O 0.70716 0.70843 0.77729
 O35 O 0.78014 0.70342 0.80648
 O36 O 0.70964 0.78706 0.78400
 Cu37 Cu 0.76385 0.75002 0.68347
 Cu38 Cu 0.74332 0.74497 0.80658
 C39 C 0.70537 0.80232 0.72826
 C40 C 0.80105 0.69161 0.75917
 C41 C 0.70263 0.69811 0.71920
 C42 C 0.80398 0.79734 0.77281
 O43 O 0.28280 0.78598 0.72082
 O44 O 0.21033 0.71029 0.77129
 O45 O 0.27974 0.70707 0.71783
 O46 O 0.21236 0.78921 0.76854
 O47 O 0.18884 0.79172 0.67058
 O48 O 0.25379 0.70796 0.62156
 O49 O 0.18387 0.71392 0.67533
 O50 O 0.25895 0.78691 0.62299
 Cu51 Cu 0.24886 0.74782 0.75429
 Cu52 Cu 0.21905 0.74997 0.63771
 C53 C 0.28351 0.79914 0.66338
 C54 C 0.18395 0.70048 0.73269
 C55 C 0.27853 0.69391 0.66058
 C56 C 0.18881 0.80429 0.72819
 C57 C 0.96503 -0.06925 -0.08145
 C58 C 1.00014 -0.08119 -0.11070
 C59 C 1.03512 -0.06198 -0.09711
 C60 C 1.03491 -0.02819 -0.05539
 C61 C 0.99998 -0.01649 -0.02332
 C62 C 0.96472 -0.03665 -0.03701
 C63 C 0.93018 -0.02296 -0.00709
 C64 C 0.93052 0.00827 0.03772
 C65 C 0.96520 0.02805 0.05293
 C66 C 1.00036 0.01559 0.02232
 C67 C 1.06818 -0.00450 -0.04742
 C68 C 1.06812 0.02770 -0.00428
 C69 C 1.03571 0.03581 0.03589
 C70 C 1.03662 0.06463 0.08697
 C71 C 1.00117 0.07613 0.11647
 C72 C 0.96564 0.06007 0.09786
 H73 H 0.90238 -0.03602 -0.01805
 H74 H 0.90320 0.01645 0.06083
 H75 H 1.09430 -0.01002 -0.07587
 H76 H 1.09351 0.04669 -0.00452
 H77 H 1.00050 -0.10721 -0.14259
 H78 H 1.00078 0.09931 0.15333
 C79 C 0.46699 0.43842 0.39917
 C80 C 0.50307 0.42521 0.37455
 C81 C 0.53810 0.44122 0.39564
 C82 C 0.53733 0.47346 0.44026
 C83 C 0.50128 0.48699 0.46686
 C84 C 0.46611 0.46830 0.44840
 C85 C 0.43162 0.47888 0.48175
 C86 C 0.43090 0.50990 0.52709
 C87 C 0.46478 0.53121 0.54191
 C88 C 0.50053 0.51883 0.51294
 C89 C 0.57169 0.49260 0.45880
 C90 C 0.57087 0.52396 0.50323
 C91 C 0.53560 0.53808 0.53009
 C92 C 0.53452 0.57050 0.57454
 C93 C 0.49910 0.58229 0.60268
 C94 C 0.46417 0.56358 0.58668
 H95 H 0.40489 0.46269 0.47459
 H96 H 0.40352 0.51647 0.55128
 H97 H 0.59966 0.48395 0.43853
 H98 H 0.59841 0.53672 0.51662
 H99 H 0.50400 0.40108 0.33922
 H100 H 0.49854 0.60788 0.63539
 C101 C 0.03149 0.55223 -0.11261
 C102 C -0.00482 0.56149 -0.13879
 C103 C -0.03902 0.54347 -0.11575
 C104 C -0.03649 0.51198 -0.06957
 C105 C -0.00092 0.50457 -0.03837
 C106 C 0.03320 0.52532 -0.05897
 C107 C 0.06733 0.51972 -0.02367
 C108 C 0.06850 0.49273 0.02805
 C109 C 0.03533 0.47105 0.04774
 C110 C 0.00006 0.47737 0.01497
 C111 C -0.06835 0.48710 -0.05485
 C112 C -0.06658 0.45857 -0.00532
 C113 C -0.03414 0.45625 0.03481
 C114 C -0.03390 0.43250 0.09243
 C115 C 0.00174 0.42669 0.12332
 C116 C 0.03632 0.44394 0.10042
 H117 H 0.09326 0.53695 -0.03414
 H118 H 0.09547 0.48989 0.05376
 H119 H -0.09463 0.48903 -0.08261
 H120 H -0.09075 0.43812 0.00004
 H121 H -0.00672 0.58452 -0.17612
 H122 H 0.00314 0.40702 0.16517
 C123 C 0.46478 0.93857 0.61291
 C124 C 0.50118 0.92218 0.62789
 C125 C 0.53556 0.93878 0.60299
 C126 C 0.53385 0.97393 0.56344
 C127 C 0.49724 0.99154 0.54894
 C128 C 0.46258 0.97390 0.57391
 C129 C 0.42672 0.99235 0.55986
 C130 C 0.42473 1.02651 0.52028
 C131 C 0.45858 1.04401 0.49402
 C132 C 0.49524 1.02660 0.50873
 C133 C 0.56770 0.99208 0.53835
 C134 C 0.56571 1.02566 0.49760
 C135 C 0.52984 1.04376 0.48249
 C136 C 0.52747 1.07793 0.44078
 C137 C 0.49095 1.09411 0.42598
 C138 C 0.45674 1.07803 0.45240
 H139 H 0.39971 0.98077 0.57964
 H140 H 0.39627 1.03894 0.51023
 H141 H 0.59625 0.98047 0.54968
 H142 H 0.59279 1.03686 0.47773
 H143 H 0.50269 0.89456 0.65653
 H144 H 0.48908 1.12042 0.39445
 C145 C 1.13736 0.12620 0.15201
 C146 C 1.09998 0.14196 0.16297
 N147 N 1.09528 0.17699 0.19645
 C148 C 1.12650 0.19752 0.21823
 C149 C 1.16428 0.18390 0.20194
 N150 N 1.16875 0.14824 0.16927
 N151 N 1.14152 0.08850 0.12644
 C152 C 1.11000 0.06679 0.10848
 C153 C 1.07264 0.08489 0.11091
 N154 N 1.06890 0.12170 0.14057
 H155 H 1.12182 0.22563 0.24425
 H156 H 1.11436 0.03571 0.09322
 C157 C 0.63157 0.64165 0.62283
 C158 C 0.60957 0.62171 0.67072
 N159 N 0.61886 0.62629 0.73338
 C160 C 0.64907 0.65011 0.75044
 C161 C 0.67110 0.67028 0.70262
 N162 N 0.66175 0.66537 0.63981
 N163 N 0.62178 0.63782 0.56027
 C164 C 0.59101 0.61478 0.54333
 C165 C 0.56926 0.59424 0.59105
 N166 N 0.57890 0.59863 0.65383
 H167 H 0.65562 0.65344 0.80082
 H168 H 0.58336 0.61272 0.49321
 C169 C -0.13035 0.37076 0.17925
 C170 C -0.09199 0.35917 0.19146
 N171 N -0.08475 0.32876 0.23397
 C172 C -0.11435 0.30876 0.26394
 C173 C -0.15300 0.31773 0.24740
 N174 N -0.16006 0.34879 0.20532
 N175 N -0.13713 0.40477 0.14379
 C176 C -0.10722 0.42659 0.11769
 C177 C -0.06867 0.41197 0.12266
 N178 N -0.06246 0.37909 0.16157
 H179 H -0.10762 0.28435 0.29720
 H180 H -0.11378 0.45526 0.09461
 C181 C 0.36892 0.86672 0.67141
 C182 C 0.37340 0.87933 0.60720
 N183 N 0.34779 0.86661 0.56280
 C184 C 0.31802 0.84153 0.57960
 C185 C 0.31383 0.82823 0.64371
 N186 N 0.33944 0.84143 0.68808
 N187 N 0.39469 0.87914 0.71574
 C188 C 0.42503 0.90335 0.69865
 C189 C 0.42995 0.91564 0.63421
 N190 N 0.40388 0.90319 0.58999
 H191 H 0.29825 0.83159 0.54307
 H192 H 0.44542 0.91252 0.73475
 C193 C -0.13827 0.61421 -0.15904
 C194 C -0.11150 0.60341 -0.20772
 N195 N -0.11503 0.61990 -0.26731
 C196 C -0.14376 0.64725 -0.28017
 C197 C -0.16988 0.65916 -0.23087
 N198 N -0.16660 0.64189 -0.17157
 N199 N -0.13417 0.59866 -0.09903
 C200 C -0.10406 0.57335 -0.08505
 C201 C -0.07642 0.56321 -0.13317
 N202 N -0.08107 0.57859 -0.19359
 H203 H -0.14550 0.66033 -0.32788
 H204 H -0.10058 0.56319 -0.03592
 C205 C 0.35630 1.14115 0.39224
 C206 C 0.37780 1.11645 0.34949
 N207 N 0.36821 1.11536 0.28666
 C208 C 0.33870 1.13867 0.26403
 C209 C 0.31809 1.16488 0.30591
 N210 N 0.32711 1.16504 0.36948
 N211 N 0.36656 1.14263 0.45497
 C212 C 0.39770 1.12105 0.47655
 C213 C 0.41982 1.09731 0.43327
 N214 N 0.40917 1.09555 0.37075
 H215 H 0.33238 1.13782 0.21328
 H216 H 0.40590 1.12337 0.52637
 C217 C 1.13235 -0.12823 -0.16740
 C218 C 1.10354 -0.11441 -0.20930
 N219 N 1.10499 -0.12570 -0.27188
 C220 C 1.13354 -0.15088 -0.29437
 C221 C 1.16170 -0.16627 -0.25199
 N222 N 1.16053 -0.15397 -0.18948
 N223 N 1.13053 -0.11737 -0.10456
 C224 C 1.10080 -0.09386 -0.08148
 C225 C 1.07125 -0.08094 -0.12296
 N226 N 1.07350 -0.09160 -0.18607
 H227 H 1.13341 -0.15971 -0.34442
 H228 H 1.09930 -0.08685 -0.03072
 C229 C 0.63814 0.37550 0.33477
 C230 C 0.63255 0.38564 0.39966
 N231 N 0.65800 0.37159 0.44391
 C232 C 0.68840 0.34712 0.42634
 C233 C 0.69313 0.33555 0.36169
 N234 N 0.66794 0.35048 0.31748
 N235 N 0.61262 0.38920 0.29049
 C236 C 0.58123 0.41205 0.30833
 C237 C 0.57471 0.42120 0.37360
 N238 N 0.60081 0.40781 0.41768
 H239 H 0.70769 0.33556 0.46281
 H240 H 0.56107 0.42222 0.27215
 C241 C 0.86952 -0.14271 -0.13070
 C242 C 0.89248 -0.12383 -0.17832
 N243 N 0.88538 -0.13091 -0.24121
 C244 C 0.85641 -0.15621 -0.25882
 C245 C 0.83320 -0.17535 -0.21125
 N246 N 0.84042 -0.16779 -0.14816
 N247 N 0.87752 -0.13673 -0.06779
 C248 C 0.90743 -0.11259 -0.05031
 C249 C 0.93010 -0.09296 -0.09788
 N250 N 0.92217 -0.09957 -0.16091
 H251 H 0.85174 -0.16133 -0.30945
 H252 H 0.91392 -0.10932 0.00011
 C253 C 0.36884 0.38050 0.31968
 C254 C 0.40353 0.35911 0.33054
 N255 N 0.40643 0.31928 0.31430
 C256 C 0.37587 0.29960 0.28857
 C257 C 0.34052 0.32037 0.28042
 N258 N 0.33775 0.36048 0.29622
 N259 N 0.36693 0.42092 0.33266
 C260 C 0.39789 0.44069 0.35733
 C261 C 0.43187 0.41872 0.37258
 N262 N 0.43381 0.37849 0.35725
 H263 H 0.37857 0.26758 0.27723
 H264 H 0.39601 0.47321 0.36460
 C265 C 0.12677 0.61527 -0.19797
 C266 C 0.09067 0.63443 -0.18755
 N267 N 0.08539 0.67358 -0.20651
 C268 C 0.11482 0.69471 -0.23488
 C269 C 0.15135 0.67615 -0.24341
 N270 N 0.15663 0.63675 -0.22465
 N271 N 0.13119 0.57545 -0.18166
 C272 C 0.10130 0.55414 -0.15448
 C273 C 0.06566 0.57390 -0.14074
 N274 N 0.06133 0.61352 -0.15891
 H275 H 0.11014 0.72613 -0.24882
 H276 H 0.10524 0.52210 -0.14414
 C277 C 0.62497 1.14003 0.36214
 C278 C 0.62264 1.13071 0.42801
 N279 N 0.65148 1.14251 0.46721
 C280 C 0.68245 1.16361 0.44371
 C281 C 0.68456 1.17385 0.37795
 N282 N 0.65566 1.16158 0.33869
 N283 N 0.59609 1.12812 0.32299
 C284 C 0.56489 1.10744 0.34679
 C285 C 0.56225 1.09836 0.41290
 N286 N 0.59129 1.11053 0.45190
 H287 H 0.70474 1.17303 0.47641
 H288 H 0.54225 1.09831 0.31454
 C289 C 0.13420 0.38621 0.18039
 C290 C 0.13090 0.39029 0.11353
 N291 N 0.15670 0.37081 0.07414
 C292 C 0.18509 0.34653 0.09853
 C293 C 0.18734 0.34080 0.16544
 N294 N 0.16205 0.36139 0.20471
 N295 N 0.10786 0.40486 0.21978
 C296 C 0.07763 0.42644 0.19532
 C297 C 0.07310 0.42894 0.12835
 N298 N 0.10031 0.41116 0.08909
 H299 H 0.20461 0.33058 0.06587
 H300 H 0.05639 0.44005 0.22775
 C301 C 0.63585 0.86823 0.64153
 C302 C 0.61266 0.88372 0.69196
 N303 N 0.62118 0.87384 0.75361
 C304 C 0.65162 0.84876 0.76714
 C305 C 0.67457 0.83267 0.71664
 N306 N 0.66611 0.84312 0.65498
 N307 N 0.62674 0.87709 0.57979
 C308 C 0.59537 0.90073 0.56610
 C309 C 0.57211 0.91650 0.61643
 N310 N 0.58124 0.90724 0.67831
 H311 H 0.65738 0.84093 0.81668
 H312 H 0.58811 0.90645 0.51643
 C313 C 0.86849 0.12647 0.16891
 C314 C 0.89536 0.10922 0.21131
 N315 N 0.89185 0.11680 0.27522
 C316 C 0.86307 0.14146 0.29860
 C317 C 0.83676 0.15978 0.25603
 N318 N 0.84003 0.15142 0.19211
 N319 N 0.87254 0.11980 0.10485
 C320 C 0.90250 0.09695 0.08110
 C321 C 0.92981 0.07998 0.12327
 N322 N 0.92554 0.08674 0.18758
 H323 H 0.86148 0.14757 0.34964
 H324 H 0.90577 0.09318 0.02963
 C325 C 0.36471 0.62555 0.65925
 C326 C 0.36763 0.61490 0.59410
 N327 N 0.33991 0.62778 0.55294
 C328 C 0.30977 0.65155 0.57368
 C329 C 0.30752 0.66362 0.63846
 N330 N 0.33500 0.64985 0.67980
 N331 N 0.39268 0.61309 0.70026
 C332 C 0.42389 0.59114 0.67883
 C333 C 0.42765 0.58159 0.61315
 N334 N 0.39911 0.59360 0.57246
 H335 H 0.28856 0.66201 0.53941
 H336 H 0.44613 0.58218 0.71234
   
