data_POSCAR
  _audit_creation_date              2014-09-24
  _audit_creation_method            'ToBaCCo'
  _symmetry_space_group_name_H-M    'P1'
  _symmetry_Int_Tables_number       1
  _symmetry_cell_setting            triclinic
  loop_
  _symmetry_equiv_pos_as_xyz
 x,y,z
_cell_length_a 33.8383
_cell_length_b 33.8211
_cell_length_c 33.8234
_cell_angle_alpha 89.107800
_cell_angle_beta 88.410700
_cell_angle_gamma 88.604900
loop_
  _atom_site_label
  _atom_site_type_symbol
  _atom_site_fract_x
  _atom_site_fract_y
  _atom_site_fract_z
O1 O 0.55236 0.49851 0.03289
 O2 O 0.44347 0.49996 0.03220
 O3 O 0.49850 0.44483 0.03220
 O4 O 0.49735 0.55364 0.03287
 O5 O 0.49953 0.55499 -0.03256
 O6 O 0.50069 0.44619 -0.03322
 O7 O 0.44566 0.50132 -0.03321
 O8 O 0.55455 0.49987 -0.03252
 Cu9 Cu 0.49769 0.49909 0.03915
 Cu10 Cu 0.50032 0.50073 -0.03949
 C11 C 0.57183 0.49899 0.00030
 C12 C 0.42618 0.50086 -0.00062
 C13 C 0.49977 0.42716 -0.00062
 C14 C 0.49830 0.57267 0.00026
 O15 O -0.03255 0.55612 0.50108
 O16 O -0.03315 0.44720 0.50217
 O17 O -0.03135 0.50134 0.55593
 O18 O -0.03437 0.50198 0.44731
 O19 O 0.03101 0.50007 0.44377
 O20 O 0.03404 0.49943 0.55238
 O21 O 0.03223 0.44529 0.49863
 O22 O 0.03282 0.55421 0.49754
 Cu23 Cu -0.03947 0.50185 0.50199
 Cu24 Cu 0.03914 0.49956 0.49771
 C25 C 0.00024 0.57355 0.49916
 C26 C -0.00056 0.42786 0.50057
 C27 C 0.00184 0.50030 0.57247
 C28 C -0.00217 0.50110 0.42722
 O29 O 0.49858 0.03283 0.55484
 O30 O 0.49905 0.03264 0.44582
 O31 O 0.44444 0.03224 0.50159
 O32 O 0.55319 0.03318 0.49905
 O33 O 0.55531 -0.03224 0.50012
 O34 O 0.44658 -0.03318 0.50267
 O35 O 0.50117 -0.03277 0.44690
 O36 O 0.50072 -0.03257 0.55592
 Cu37 Cu 0.49860 0.03933 0.50022
 Cu38 Cu 0.50116 -0.03929 0.50152
 C39 C 0.49959 0.00017 0.57379
 C40 C 0.50017 -0.00010 0.42795
 C41 C 0.42717 -0.00063 0.50253
 C42 C 0.57260 0.00062 0.49916
 C43 C 0.51549 0.10091 -0.07390
 C44 C 0.51532 0.07246 -0.10241
 C45 C 0.50643 0.03718 -0.08311
 N46 N 0.50089 0.04322 -0.04392
 C47 C 0.50670 0.08205 -0.03813
 C48 C 0.50109 0.00084 -0.10197
 C49 C 0.49506 -0.03537 -0.08150
 C50 C 0.48278 -0.06976 -0.09880
 C51 C 0.48262 -0.09864 -0.06972
 C52 C 0.49483 -0.08117 -0.03542
 N53 N 0.50261 -0.04270 -0.04296
 C54 C 0.50071 -0.10147 0.00087
 C55 C 0.50605 -0.08264 0.03723
 C56 C 0.51481 -0.10200 0.07248
 C57 C 0.51502 -0.07356 0.10099
 C58 C 0.50637 -0.03777 0.08221
 N59 N 0.50062 -0.04348 0.04335
 C60 C 0.50145 -0.00114 0.10137
 C61 C 0.49571 0.03541 0.08124
 C62 C 0.48384 0.07049 0.09924
 C63 C 0.48386 0.09938 0.07017
 C64 C 0.49576 0.08122 0.03516
 N65 N 0.50320 0.04231 0.04226
 C66 C 0.50167 0.10118 -0.00148
 H67 H 0.52103 0.13199 -0.07899
 H68 H 0.52077 0.07729 -0.13377
 H69 H 0.51692 0.02272 0.02267
 H70 H 0.47500 -0.07373 -0.12928
 H71 H 0.47472 -0.12915 -0.07352
 H72 H 0.52010 -0.13338 0.07725
 H73 H 0.52055 -0.07869 0.13203
 H74 H 0.47628 0.13033 0.07443
 H75 H 0.51660 -0.02391 -0.02417
 H76 H 0.47621 0.07490 0.13018
 C77 C -0.07114 0.49953 0.89792
 C78 C -0.10042 0.49756 0.92667
 C79 C -0.08191 0.49808 0.96272
 N80 N -0.04236 0.50022 0.95681
 C81 C -0.03559 0.50108 0.91728
 C82 C -0.10185 0.49804 0.99999
 C83 C -0.08306 0.49980 1.03681
 C84 C -0.10293 0.50611 1.07268
 C85 C -0.07485 0.50638 1.10119
 C86 C -0.03841 0.50024 1.08214
 N87 N -0.04376 0.49561 1.04296
 C88 C -0.00183 0.49892 1.10156
 C89 C 0.03584 0.49899 1.08242
 C90 C 0.07146 0.49892 1.10179
 C91 C 0.10077 0.50081 1.07306
 C92 C 0.08219 0.50188 1.03700
 N93 N 0.04257 0.50078 1.04291
 C94 C 0.10211 0.50279 0.99971
 C95 C 0.08336 0.50215 0.96278
 C96 C 0.10334 0.49759 0.92669
 C97 C 0.07526 0.49739 0.89818
 C98 C 0.03869 0.50184 0.91743
 N99 N 0.04399 0.50542 0.95674
 C100 C 0.00205 0.50213 0.89811
 H101 H -0.07557 0.49958 0.86635
 H102 H -0.13179 0.49619 0.92156
 H103 H 0.02224 0.51239 0.97774
 H104 H -0.13443 0.51056 1.07781
 H105 H -0.08067 0.51107 1.13242
 H106 H 0.07592 0.49792 1.13336
 H107 H 0.13219 0.50116 1.07819
 H108 H 0.08118 0.49376 0.86681
 H109 H -0.02227 0.48691 1.02229
 H110 H 0.13492 0.49413 0.92140
 C111 C 0.10276 -0.07568 0.50361
 C112 C 0.07460 -0.10391 0.50091
 C113 C 0.03836 -0.08393 0.49954
 N114 N 0.04360 -0.04454 0.50124
 C115 C 0.08289 -0.03931 0.50368
 C116 C 0.00143 -0.10242 0.49801
 C117 C -0.03577 -0.08226 0.49808
 C118 C -0.07178 -0.10082 0.50256
 C119 C -0.10070 -0.07167 0.50206
 C120 C -0.08177 -0.03589 0.49723
 N121 N -0.04220 -0.04271 0.49411
 C122 C -0.10164 0.00147 0.49601
 C123 C -0.08308 0.03843 0.49685
 C124 C -0.10293 0.07481 0.49677
 C125 C -0.07477 0.10303 0.49944
 C126 C -0.03854 0.08306 0.50094
 N127 N -0.04379 0.04365 0.49935
 C128 C -0.00162 0.10155 0.50257
 C129 C 0.03559 0.08140 0.50270
 C130 C 0.07162 0.09998 0.49861
 C131 C 0.10054 0.07083 0.49916
 C132 C 0.08158 0.03502 0.50360
 N133 N 0.04201 0.04183 0.50647
 C134 C 0.10145 -0.00235 0.50469
 H135 H 0.13430 -0.08137 0.50517
 H136 H 0.08021 -0.13553 0.50028
 H137 H 0.02091 0.02102 0.51340
 H138 H -0.07679 -0.13215 0.50641
 H139 H -0.13215 -0.07636 0.50544
 H140 H -0.13446 0.08050 0.49516
 H141 H -0.08038 0.13466 0.50001
 H142 H 0.13200 0.07555 0.49605
 H143 H -0.02114 -0.02195 0.48680
 H144 H 0.07665 0.13133 0.49500
 C145 C -0.22337 0.49816 1.00097
 C146 C -0.24520 0.53412 1.00562
 C147 C -0.28722 0.53422 1.00558
 C148 C -0.30720 0.49834 1.00095
 C149 C -0.28537 0.46235 0.99641
 C150 C -0.24335 0.46226 0.99640
 C151 C -0.22220 0.42593 0.99175
 C152 C -0.24199 0.39069 0.98729
 C153 C -0.28307 0.39076 0.98733
 C154 C -0.30466 0.42610 0.99182
 C155 C -0.30838 0.57056 1.01020
 C156 C -0.28860 0.60579 1.01475
 C157 C -0.24753 0.60569 1.01481
 C158 C -0.22592 0.57036 1.01031
 C159 C -0.35014 0.49846 1.00076
 C160 C -0.38578 0.49865 1.00056
 C161 C -0.18041 0.49810 1.00074
 C162 C -0.14475 0.49807 1.00046
 H163 H -0.19022 0.42435 0.99153
 H164 H -0.22535 0.36316 0.98378
 H165 H -0.29831 0.36331 0.98387
 H166 H -0.33657 0.42464 0.99166
 H167 H -0.34036 0.57215 1.01036
 H168 H -0.30525 0.63332 1.01824
 H169 H -0.23230 0.63314 1.01836
 H170 H -0.19401 0.57180 1.01057
 C171 C 0.22364 0.50217 0.99882
 C172 C 0.24517 0.46581 1.00120
 C173 C 0.28720 0.46558 1.00120
 C174 C 0.30748 0.50172 0.99881
 C175 C 0.28596 0.53808 0.99635
 C176 C 0.24393 0.53831 0.99635
 C177 C 0.22310 0.57502 0.99387
 C178 C 0.24319 0.61050 0.99146
 C179 C 0.28427 0.61028 0.99146
 C180 C 0.30557 0.57457 0.99387
 C181 C 0.30805 0.42886 1.00362
 C182 C 0.28797 0.39338 1.00599
 C183 C 0.24689 0.39361 1.00599
 C184 C 0.22558 0.42931 1.00364
 C185 C 0.35043 0.50149 0.99897
 C186 C 0.38607 0.50123 0.99915
 C187 C 0.18069 0.50241 0.99903
 C188 C 0.14502 0.50259 0.99929
 H189 H 0.19113 0.57672 0.99375
 H190 H 0.22679 0.63832 0.98958
 H191 H 0.29975 0.63792 0.98959
 H192 H 0.33749 0.57593 0.99377
 H193 H 0.34002 0.42716 1.00371
 H194 H 0.30439 0.36556 1.00782
 H195 H 0.23143 0.36596 1.00783
 H196 H 0.19366 0.42796 1.00374
 C197 C 0.00124 -0.22389 0.49856
 C198 C 0.02797 -0.24588 0.52230
 C199 C 0.02777 -0.28792 0.52240
 C200 C 0.00086 -0.30772 0.49871
 C201 C -0.02589 -0.28571 0.47500
 C202 C -0.02574 -0.24368 0.47496
 C203 C -0.05283 -0.22233 0.45110
 C204 C -0.07928 -0.24194 0.42788
 C205 C -0.07938 -0.28303 0.42786
 C206 C -0.05307 -0.30482 0.45109
 C207 C 0.05473 -0.30925 0.54641
 C208 C 0.08116 -0.28962 0.56965
 C209 C 0.08136 -0.24853 0.56954
 C210 C 0.05514 -0.22676 0.54620
 C211 C 0.00065 -0.35067 0.49881
 C212 C 0.00046 -0.38633 0.49894
 C213 C 0.00146 -0.18096 0.49841
 C214 C 0.00153 -0.14531 0.49824
 H215 H -0.05389 -0.19032 0.45013
 H216 H -0.09980 -0.22515 0.40981
 H217 H -0.09997 -0.29813 0.40975
 H218 H -0.05429 -0.33673 0.45008
 H219 H 0.05570 -0.34125 0.54751
 H220 H 0.10158 -0.30640 0.58785
 H221 H 0.10194 -0.23342 0.58765
 H222 H 0.05639 -0.19485 0.54716
 C223 C -0.00150 0.22302 0.50177
 C224 C -0.02841 0.24493 0.47816
 C225 C -0.02824 0.28696 0.47796
 C226 C -0.00116 0.30685 0.50136
 C227 C 0.02579 0.28493 0.52493
 C228 C 0.02563 0.24289 0.52512
 C229 C 0.05289 0.22163 0.54886
 C230 C 0.07952 0.24132 0.57181
 C231 C 0.07964 0.28241 0.57167
 C232 C 0.05316 0.30412 0.54856
 C233 C -0.05543 0.30821 0.45411
 C234 C -0.08200 0.28850 0.43112
 C235 C -0.08215 0.24740 0.43131
 C236 C -0.05573 0.22571 0.45450
 C237 C -0.00096 0.34981 0.50112
 C238 C -0.00079 0.38547 0.50090
 C239 C -0.00169 0.18009 0.50203
 C240 C -0.00173 0.14443 0.50228
 H241 H 0.05394 0.18962 0.54996
 H242 H 0.10016 0.22459 0.58980
 H243 H 0.10037 0.29757 0.58955
 H244 H 0.05440 0.33604 0.54943
 H245 H -0.05644 0.34021 0.45296
 H246 H -0.10258 0.30521 0.41305
 H247 H -0.10284 0.23223 0.41339
 H248 H -0.05694 0.19380 0.45361
 C249 C 0.49983 0.00058 -0.22346
 C250 C 0.48689 0.03475 -0.24460
 C251 C 0.48676 0.03465 -0.28665
 C252 C 0.49952 0.00036 -0.30736
 C253 C 0.51235 -0.03386 -0.28620
 C254 C 0.51251 -0.03374 -0.24415
 C255 C 0.52548 -0.06830 -0.22370
 C256 C 0.53793 -0.10201 -0.24417
 C257 C 0.53777 -0.10212 -0.28526
 C258 C 0.52517 -0.06853 -0.30619
 C259 C 0.47375 0.06920 -0.30708
 C260 C 0.46121 0.10287 -0.28658
 C261 C 0.46129 0.10295 -0.24550
 C262 C 0.47393 0.06936 -0.22459
 C263 C 0.49949 0.00030 -0.35036
 C264 C 0.49952 0.00024 -0.38605
 C265 C 0.50021 0.00075 -0.18050
 C266 C 0.50059 0.00083 -0.14483
 H267 H 0.52616 -0.06966 -0.19174
 H268 H 0.54775 -0.12818 -0.22806
 H269 H 0.54747 -0.12838 -0.30102
 H270 H 0.52558 -0.07006 -0.33813
 H271 H 0.47311 0.07058 -0.33904
 H272 H 0.45135 0.12904 -0.30269
 H273 H 0.45149 0.12917 -0.22972
 H274 H 0.47337 0.07084 -0.19265
 C275 C 0.50055 -0.00076 0.22292
 C276 C 0.51355 0.03287 0.24284
 C277 C 0.51346 0.03304 0.28489
 C278 C 0.50040 -0.00042 0.30682
 C279 C 0.48735 -0.03403 0.28688
 C280 C 0.48739 -0.03418 0.24483
 C281 C 0.47413 -0.06809 0.22561
 C282 C 0.46129 -0.10095 0.24728
 C283 C 0.46130 -0.10083 0.28837
 C284 C 0.47413 -0.06783 0.30810
 C285 C 0.52659 0.06701 0.30410
 C286 C 0.53944 0.09986 0.28241
 C287 C 0.53953 0.09969 0.24132
 C288 C 0.52677 0.06666 0.22160
 C289 C 0.50035 -0.00027 0.34982
 C290 C 0.50028 -0.00018 0.38551
 C291 C 0.50081 -0.00099 0.17994
 C292 C 0.50109 -0.00110 0.14425
 H293 H 0.47348 -0.06957 0.19371
 H294 H 0.45126 -0.12664 0.23210
 H295 H 0.45129 -0.12643 0.30507
 H296 H 0.47356 -0.06914 0.34010
 H297 H 0.52708 0.06857 0.33601
 H298 H 0.54938 0.12560 0.29759
 H299 H 0.54954 0.12528 0.22461
 H300 H 0.52740 0.06794 0.18961
 C301 C 0.49933 -0.22276 0.00102
 C302 C 0.53470 -0.24491 0.00731
 C303 C 0.53434 -0.28692 0.00720
 C304 C 0.49859 -0.30649 0.00090
 C305 C 0.46319 -0.28434 -0.00528
 C306 C 0.46358 -0.24233 -0.00528
 C307 C 0.42786 -0.22080 -0.01163
 C308 C 0.39274 -0.24023 -0.01772
 C309 C 0.39235 -0.28132 -0.01766
 C310 C 0.42709 -0.30328 -0.01154
 C311 C 0.57009 -0.30845 0.01345
 C312 C 0.60518 -0.28903 0.01966
 C313 C 0.60552 -0.24795 0.01984
 C314 C 0.57077 -0.22599 0.01376
 C315 C 0.49827 -0.34938 0.00070
 C316 C 0.49818 -0.38500 0.00051
 C317 C 0.49974 -0.17987 0.00098
 C318 C 0.50014 -0.14425 0.00094
 H319 H 0.42667 -0.18879 -0.01194
 H320 H 0.36569 -0.22331 -0.02251
 H321 H 0.36499 -0.29629 -0.02238
 H322 H 0.42529 -0.33517 -0.01177
 H323 H 0.57133 -0.34046 0.01360
 H324 H 0.63225 -0.30597 0.02438
 H325 H 0.63285 -0.23300 0.02470
 H326 H 0.57253 -0.19409 0.01417
 C327 C 0.50098 0.22253 -0.00150
 C328 C 0.46478 0.24400 0.00345
 C329 C 0.46456 0.28603 0.00352
 C330 C 0.50054 0.30629 -0.00128
 C331 C 0.53674 0.28482 -0.00624
 C332 C 0.53695 0.24280 -0.00639
 C333 C 0.57349 0.22195 -0.01145
 C334 C 0.60881 0.24207 -0.01618
 C335 C 0.60860 0.28316 -0.01598
 C336 C 0.57307 0.30445 -0.01109
 C337 C 0.42800 0.30688 0.00845
 C338 C 0.39268 0.28677 0.01320
 C339 C 0.39292 0.24567 0.01319
 C340 C 0.42846 0.22437 0.00839
 C341 C 0.50032 0.34919 -0.00107
 C342 C 0.50010 0.38481 -0.00087
 C343 C 0.50121 0.17962 -0.00154
 C344 C 0.50142 0.14399 -0.00153
 H345 H 0.57516 0.18997 -0.01182
 H346 H 0.63648 0.22566 -0.02000
 H347 H 0.63612 0.29866 -0.01965
 H348 H 0.57443 0.33638 -0.01116
 H349 H 0.42631 0.33886 0.00868
 H350 H 0.36500 0.30319 0.01692
 H351 H 0.36540 0.23019 0.01691
 H352 H 0.42712 0.19244 0.00859
 C353 C -0.22290 0.00186 0.49620
 C354 C -0.24495 0.03092 0.51763
 C355 C -0.28695 0.03080 0.51798
 C356 C -0.30660 0.00157 0.49697
 C357 C -0.28454 -0.02747 0.47551
 C358 C -0.24254 -0.02732 0.47514
 C359 C -0.22109 -0.05668 0.45354
 C360 C -0.24059 -0.08535 0.43289
 C361 C -0.28167 -0.08548 0.43323
 C362 C -0.30355 -0.05695 0.45425
 C363 C -0.30838 0.06015 0.53958
 C364 C -0.28887 0.08880 0.56026
 C365 C -0.24780 0.08889 0.55996
 C366 C -0.22593 0.06034 0.53897
 C367 C -0.34948 0.00125 0.49762
 C368 C -0.38509 0.00097 0.49827
 C369 C -0.18004 0.00189 0.49597
 C370 C -0.14444 0.00178 0.49589
 H371 H -0.18909 -0.05780 0.45236
 H372 H -0.22373 -0.10759 0.41653
 H373 H -0.29668 -0.10781 0.41713
 H374 H -0.33544 -0.05827 0.45362
 H375 H -0.34038 0.06130 0.54073
 H376 H -0.30573 0.11104 0.57663
 H377 H -0.23277 0.11118 0.57610
 H378 H -0.19405 0.06157 0.53971
 C379 C 0.22269 -0.00249 0.50484
 C380 C 0.24492 -0.03125 0.48320
 C381 C 0.28691 -0.03096 0.48298
 C382 C 0.30638 -0.00184 0.50433
 C383 C 0.28413 0.02692 0.52597
 C384 C 0.24214 0.02660 0.52622
 C385 C 0.22050 0.05567 0.54802
 C386 C 0.23982 0.08427 0.56896
 C387 C 0.28089 0.08458 0.56872
 C388 C 0.30295 0.05631 0.54753
 C389 C 0.30853 -0.06003 0.46115
 C390 C 0.28920 -0.08855 0.44013
 C391 C 0.24813 -0.08880 0.44030
 C392 C 0.22609 -0.06054 0.46152
 C393 C 0.34925 -0.00138 0.50385
 C394 C 0.38485 -0.00102 0.50332
 C395 C 0.17984 -0.00267 0.50494
 C396 C 0.14424 -0.00264 0.50491
 H397 H 0.18851 0.05664 0.54913
 H398 H 0.22281 0.10629 0.58547
 H399 H 0.29575 0.10685 0.58504
 H400 H 0.33483 0.05777 0.54824
 H401 H 0.34053 -0.06103 0.46009
 H402 H 0.30620 -0.11055 0.42359
 H403 H 0.23325 -0.11099 0.42390
 H404 H 0.19422 -0.06190 0.46068
 C405 C -0.00470 0.50004 1.22285
 C406 C -0.00454 0.53650 1.24284
 C407 C -0.00457 0.53684 1.28484
 C408 C -0.00475 0.50071 1.30655
 C409 C -0.00527 0.46426 1.28656
 C410 C -0.00523 0.46393 1.24456
 C411 C -0.00567 0.42714 1.22520
 C412 C -0.00616 0.39168 1.24673
 C413 C -0.00620 0.39200 1.28782
 C414 C -0.00575 0.42778 1.30767
 C415 C -0.00434 0.57364 1.30420
 C416 C -0.00412 0.60910 1.28266
 C417 C -0.00408 0.60876 1.24158
 C418 C -0.00429 0.57297 1.22173
 C419 C -0.00406 0.50100 1.34939
 C420 C -0.00328 0.50113 1.38496
 C421 C -0.00395 0.49967 1.17999
 C422 C -0.00310 0.49934 1.14437
 H423 H -0.00568 0.42537 1.19328
 H424 H -0.00651 0.36381 1.23145
 H425 H -0.00659 0.36439 1.30442
 H426 H -0.00582 0.42651 1.33965
 H427 H -0.00438 0.57542 1.33612
 H428 H -0.00397 0.63698 1.29795
 H429 H -0.00391 0.63639 1.22497
 H430 H -0.00428 0.57423 1.18974
 C431 C 0.00472 0.50113 0.77682
 C432 C 0.00633 0.53721 0.75512
 C433 C 0.00626 0.53692 0.71312
 C434 C 0.00458 0.50055 0.69314
 C435 C 0.00332 0.46445 0.71484
 C436 C 0.00338 0.46474 0.75683
 C437 C 0.00202 0.42830 0.77794
 C438 C 0.00067 0.39258 0.75808
 C439 C 0.00063 0.39229 0.71700
 C440 C 0.00193 0.42773 0.69547
 C441 C 0.00782 0.57336 0.69202
 C442 C 0.00941 0.60906 0.71187
 C443 C 0.00947 0.60934 0.75296
 C444 C 0.00794 0.57392 0.77449
 C445 C 0.00380 0.50032 0.65030
 C446 C 0.00297 0.50025 0.61473
 C447 C 0.00405 0.50147 0.81968
 C448 C 0.00326 0.50177 0.85530
 H449 H 0.00202 0.42700 0.80992
 H450 H -0.00035 0.36498 0.77468
 H451 H -0.00041 0.36447 0.70171
 H452 H 0.00186 0.42598 0.66355
 H453 H 0.00787 0.57467 0.66004
 H454 H 0.01061 0.63665 0.69527
 H455 H 0.01070 0.63715 0.76824
 H456 H 0.00808 0.57565 0.80641
   
