data_POSCAR
  _audit_creation_date              2014-09-24
  _audit_creation_method            'ToBaCCo'
  _symmetry_space_group_name_H-M    'P1'
  _symmetry_Int_Tables_number       1
  _symmetry_cell_setting            triclinic
  loop_
  _symmetry_equiv_pos_as_xyz
 x,y,z
_cell_length_a 22.4399
_cell_length_b 22.2609
_cell_length_c 62.2251
_cell_angle_alpha 89.776300
_cell_angle_beta 89.775600
_cell_angle_gamma 120.041300
loop_
  _atom_site_label
  _atom_site_type_symbol
  _atom_site_fract_x
  _atom_site_fract_y
  _atom_site_fract_z
C1 C -0.05941 -0.07611 0.48143
 C2 C -0.01556 -0.04310 0.49876
 C3 C -0.00972 -0.08264 0.51530
 C4 C -0.04785 -0.15568 0.51492
 C5 C -0.09122 -0.18784 0.49713
 C6 C -0.09793 -0.14899 0.48025
 C7 C 0.02271 0.03334 0.49986
 C8 C 0.01394 0.06680 0.51762
 C9 C 0.04784 0.13949 0.51847
 C10 C 0.09148 0.17849 0.50140
 C11 C 0.10085 0.14563 0.48352
 C12 C 0.06614 0.07288 0.48287
 H13 H -0.06168 -0.04415 0.46867
 H14 H 0.02264 -0.05562 0.52886
 H15 H -0.01984 0.03612 0.53069
 H16 H 0.07208 0.04690 0.46902
 H17 H -0.12053 -0.24375 0.49653
 H18 H 0.11763 0.23464 0.50191
 C19 C 1.07955 0.01679 0.14920
 C20 C 1.04090 0.02315 0.16590
 C21 C 1.07447 0.06766 0.18308
 C22 C 1.14642 0.10637 0.18366
 C23 C 1.18473 0.09990 0.16683
 C24 C 1.15220 0.05506 0.14933
 C25 C 0.96503 -0.01543 0.16516
 C26 C 0.92672 -0.05842 0.18241
 C27 C 0.85454 -0.09354 0.18211
 C28 C 0.82101 -0.08506 0.16432
 C29 C 0.85874 -0.04204 0.14696
 C30 C 0.93089 -0.00760 0.14746
 H31 H 1.05215 -0.01636 0.13581
 H32 H 1.04442 0.07222 0.19598
 H33 H 0.95318 -0.06378 0.19618
 H34 H 0.96060 0.02574 0.13417
 H35 H 1.24027 0.12883 0.16791
 H36 H 0.76527 -0.11161 0.16409
 C37 C 0.06418 0.98288 0.85068
 C38 C 0.02009 0.97731 0.83392
 C39 C 0.00971 0.93298 0.81669
 C40 C 0.04258 0.89366 0.81610
 C41 C 0.08643 0.89930 0.83299
 C42 C 0.09818 0.94398 0.85056
 C43 C -0.01667 1.01671 0.83462
 C44 C -0.01029 1.06060 0.81749
 C45 C -0.04650 1.09665 0.81775
 C46 C -0.08902 1.08873 0.83542
 C47 C -0.09673 1.04453 0.85288
 C48 C -0.05958 1.00882 0.85216
 H49 H 0.06957 1.01597 0.86411
 H50 H -0.02415 0.92910 0.80372
 H51 H 0.02204 1.06576 0.80381
 H52 H -0.06238 0.97566 0.86536
 H53 H 0.11277 0.86989 0.83192
 H54 H -0.11832 1.11524 0.83488
 O55 O 0.58162 0.05579 -0.02246
 O56 O 0.47249 0.06200 0.01972
 O57 O 0.58460 0.05470 0.01940
 O58 O 0.46222 0.04785 -0.02213
 O59 O 0.40813 -0.06636 -0.01998
 O60 O 0.52571 -0.05956 0.02122
 O61 O 0.41363 -0.05223 0.02191
 O62 O 0.52785 -0.05848 -0.02060
 Cu63 Cu 0.53061 0.06633 -0.00153
 Cu64 Cu 0.46306 -0.07042 0.00082
 C65 C 0.57422 -0.00146 -0.02886
 C66 C 0.42506 0.00697 0.02828
 C67 C 0.57531 -0.00218 0.02742
 C68 C 0.41481 -0.01141 -0.02838
 O69 O -0.07154 0.40332 0.68758
 O70 O -0.07162 0.51626 0.64534
 O71 O -0.06389 0.40379 0.64583
 O72 O -0.06502 0.52318 0.68727
 O73 O 0.04845 0.57955 0.68675
 O74 O 0.04958 0.46296 0.64607
 O75 O 0.04186 0.57573 0.64472
 O76 O 0.04191 0.45926 0.68796
 Cu77 Cu -0.07917 0.45608 0.66652
 Cu78 Cu 0.05667 0.52520 0.66639
 C79 C -0.01581 0.41111 0.69512
 C80 C -0.01589 0.56454 0.63749
 C81 C -0.00617 0.41372 0.63883
 C82 C -0.00765 0.57168 0.69419
 O83 O 0.58023 0.53568 0.35334
 O84 O 0.46560 0.42258 0.31189
 O85 O 0.57858 0.54261 0.31141
 O86 O 0.46021 0.42348 0.35383
 O87 O 0.40612 0.48323 0.35365
 O88 O 0.52121 0.59907 0.31218
 O89 O 0.40837 0.47921 0.31175
 O90 O 0.52628 0.59559 0.35399
 Cu91 Cu 0.52666 0.47537 0.33258
 Cu92 Cu 0.46001 0.54499 0.33292
 C93 C 0.57326 0.58448 0.36097
 C94 C 0.41764 0.43091 0.30457
 C95 C 0.56926 0.59130 0.30452
 C96 C 0.41291 0.43392 0.36103
 C97 C 0.01563 0.24603 0.57110
 C98 C 0.08286 0.26800 0.56323
 C99 C 0.09285 0.23258 0.54627
 C100 C 0.03684 0.17489 0.53692
 C101 C -0.02962 0.15214 0.54499
 C102 C -0.04026 0.18719 0.56183
 C103 C 0.00727 0.28681 0.58886
 C104 C -0.05733 0.27121 0.59744
 C105 C -0.06202 0.31192 0.61374
 C106 C -0.00251 0.36890 0.62193
 C107 C 0.06188 0.38432 0.61357
 C108 C 0.06719 0.34435 0.59716
 C109 C 0.13988 0.32532 0.57225
 C110 C 0.13224 0.36247 0.58891
 H111 H 0.19132 0.34189 0.56630
 H112 H 0.17806 0.40658 0.59530
 H113 H 0.14450 0.24979 0.54037
 H114 H -0.07373 0.10790 0.53794
 H115 H -0.11234 0.29889 0.61987
 H116 H 0.10842 0.42835 0.61966
 H117 H -0.09252 0.16765 0.56724
 H118 H -0.10479 0.22827 0.59169
 C119 C 0.73360 0.77802 0.23533
 C120 C 0.78896 0.77157 0.22706
 C121 C 0.82906 0.81428 0.20991
 C122 C 0.81390 0.86261 0.20058
 C123 C 0.75893 0.86861 0.20879
 C124 C 0.71937 0.82716 0.22591
 C125 C 0.69182 0.73147 0.25354
 C126 C 0.63702 0.73540 0.26312
 C127 C 0.59852 0.69024 0.27967
 C128 C 0.61316 0.63960 0.28729
 C129 C 0.66847 0.63577 0.27812
 C130 C 0.70800 0.68152 0.26138
 C131 C 0.80324 0.72196 0.23576
 C132 C 0.76339 0.67764 0.25244
 H133 H 0.84553 0.71684 0.22942
 H134 H 0.77620 0.63976 0.25845
 H135 H 0.87111 0.80886 0.20349
 H136 H 0.74675 0.90605 0.20200
 H137 H 0.55650 0.69496 0.28642
 H138 H 0.68063 0.59721 0.28394
 H139 H 0.67772 0.83431 0.23135
 H140 H 0.62272 0.77284 0.25813
 C141 C 0.23028 -0.04224 -0.09815
 C142 C 0.22361 0.01569 -0.10370
 C143 C 0.17929 0.01073 -0.12041
 C144 C 0.14235 -0.05097 -0.13236
 C145 C 0.15090 -0.10767 -0.12687
 C146 C 0.19371 -0.10353 -0.11010
 C147 C 0.27690 -0.03548 -0.07999
 C148 C 0.28317 -0.09167 -0.07242
 C149 C 0.32752 -0.08305 -0.05566
 C150 C 0.36734 -0.01821 -0.04590
 C151 C 0.36114 0.03825 -0.05312
 C152 C 0.31554 0.02979 -0.06989
 C153 C 0.26219 0.07860 -0.09281
 C154 C 0.30776 0.08573 -0.07647
 H155 H 0.25762 0.12333 -0.09714
 H156 H 0.33684 0.13567 -0.06871
 H157 H 0.17657 0.05651 -0.12467
 H158 H 0.12226 -0.15709 -0.13486
 H159 H 0.33101 -0.12768 -0.05046
 H160 H 0.39106 0.08840 -0.04555
 H161 H 0.19735 -0.14917 -0.10685
 H162 H 0.25406 -0.14296 -0.07908
 C163 C -0.03859 0.72253 0.56660
 C164 C 0.01962 0.78716 0.56132
 C165 C 0.01627 0.82767 0.54444
 C166 C -0.04416 0.80410 0.53213
 C167 C -0.10130 0.73905 0.53750
 C168 C -0.09867 0.69919 0.55436
 C169 C -0.03361 0.68133 0.58491
 C170 C -0.09006 0.61835 0.59199
 C171 C -0.08333 0.58159 0.60900
 C172 C -0.02019 0.60600 0.61952
 C173 C 0.03667 0.66895 0.61268
 C174 C 0.03012 0.70710 0.59562
 C175 C 0.08108 0.81044 0.57272
 C176 C 0.08640 0.77101 0.58934
 H177 H 0.12600 0.85978 0.56863
 H178 H 0.13520 0.79117 0.59753
 H179 H 0.06218 0.87617 0.54038
 H180 H -0.15001 0.71937 0.52936
 H181 H -0.12818 0.53320 0.61384
 H182 H 0.08556 0.68864 0.62080
 H183 H -0.14464 0.65022 0.55747
 H184 H -0.14018 0.59646 0.58478
 C185 C 0.25254 0.24520 0.23611
 C186 C 0.27320 0.19831 0.22861
 C187 C 0.23805 0.15313 0.21166
 C188 C 0.18195 0.15329 0.20193
 C189 C 0.16054 0.19872 0.20958
 C190 C 0.19536 0.24424 0.22642
 C191 C 0.29279 0.29371 0.25398
 C192 C 0.27824 0.34393 0.26235
 C193 C 0.31829 0.38843 0.27883
 C194 C 0.37356 0.38377 0.28740
 C195 C 0.38795 0.33365 0.27922
 C196 C 0.34862 0.28923 0.26267
 C197 C 0.32889 0.19665 0.23800
 C198 C 0.36561 0.24094 0.25470
 H199 H 0.34447 0.16057 0.23231
 H200 H 0.40842 0.23765 0.26140
 H201 H 0.25411 0.11726 0.20611
 H202 H 0.11743 0.19989 0.20224
 H203 H 0.30608 0.42664 0.28482
 H204 H 0.43061 0.32943 0.28560
 H205 H 0.17691 0.27831 0.23153
 H206 H 0.23657 0.35000 0.25630
 C207 C 0.76357 0.01597 -0.09599
 C208 C 0.79877 0.07977 -0.10729
 C209 C 0.84504 0.08887 -0.12388
 C210 C 0.85836 0.03552 -0.12966
 C211 C 0.82486 -0.02706 -0.11775
 C212 C 0.77808 -0.03681 -0.10130
 C213 C 0.71307 0.00811 -0.07872
 C214 C 0.67241 -0.05419 -0.06712
 C215 C 0.62649 -0.05810 -0.05108
 C216 C 0.62043 0.00004 -0.04617
 C217 C 0.66000 0.06173 -0.05786
 C218 C 0.70548 0.06608 -0.07404
 C219 C 0.78816 0.13473 -0.10195
 C220 C 0.74296 0.12821 -0.08557
 H221 H 0.81546 0.18378 -0.11052
 H222 H 0.73687 0.17246 -0.08199
 H223 H 0.87258 0.13916 -0.13171
 H224 H 0.83173 -0.07049 -0.12169
 H225 H 0.59635 -0.10639 -0.04234
 H226 H 0.65519 0.10687 -0.05447
 H227 H 0.75351 -0.08621 -0.09305
 H228 H 0.67519 -0.10036 -0.07021
 C229 C 0.27138 0.03924 0.09830
 C230 C 0.20655 -0.01811 0.10376
 C231 C 0.16690 -0.01252 0.12039
 C232 C 0.19152 0.04931 0.13231
 C233 C 0.25686 0.10549 0.12685
 C234 C 0.29588 0.10069 0.11019
 C235 C 0.31158 0.03185 0.08023
 C236 C 0.37457 0.08740 0.07287
 C237 C 0.41032 0.07839 0.05607
 C238 C 0.38483 0.01376 0.04608
 C239 C 0.32189 -0.04221 0.05319
 C240 C 0.28473 -0.03332 0.07001
 C241 C 0.18217 -0.08104 0.09282
 C242 C 0.22072 -0.08869 0.07648
 H243 H 0.13268 -0.12533 0.09706
 H244 H 0.19974 -0.13857 0.06864
 H245 H 0.11824 -0.05791 0.12459
 H246 H 0.27753 0.15506 0.13478
 H247 H 0.45875 0.12260 0.05099
 H248 H 0.30136 -0.09220 0.04545
 H249 H 0.34517 0.14601 0.10697
 H250 H 0.39717 0.13855 0.07969
 C251 C 0.76306 0.74716 0.42874
 C252 C 0.79799 0.71697 0.43900
 C253 C 0.84384 0.75162 0.45579
 C254 C 0.85717 0.81738 0.46273
 C255 C 0.82400 0.84817 0.45185
 C256 C 0.77752 0.81357 0.43526
 C257 C 0.71290 0.70710 0.41125
 C258 C 0.67219 0.73015 0.40074
 C259 C 0.62628 0.69040 0.38452
 C260 C 0.62035 0.62718 0.37830
 C261 C 0.66022 0.60376 0.38883
 C262 C 0.70555 0.64252 0.40523
 C263 C 0.78763 0.65245 0.43236
 C264 C 0.74292 0.61635 0.41572
 H265 H 0.81477 0.62952 0.44011
 H266 H 0.73699 0.56673 0.41112
 H267 H 0.87125 0.72787 0.46279
 H268 H 0.83099 0.89787 0.45673
 H269 H 0.59587 0.70947 0.37671
 H270 H 0.65547 0.55447 0.38441
 H271 H 0.75323 0.83961 0.42782
 H272 H 0.67474 0.77837 0.40490
 C273 C -0.03821 0.22459 0.76433
 C274 C 0.02340 0.23166 0.77282
 C275 C 0.02063 0.18905 0.79002
 C276 C -0.04287 0.14017 0.79915
 C277 C -0.10364 0.13323 0.79062
 C278 C -0.10156 0.17460 0.77347
 C279 C -0.03332 0.27130 0.74618
 C280 C -0.09182 0.26726 0.73657
 C281 C -0.08514 0.31244 0.72005
 C282 C -0.02005 0.36324 0.71247
 C283 C 0.03891 0.36735 0.72170
 C284 C 0.03266 0.32163 0.73846
 C285 C 0.08719 0.28176 0.76428
 C286 C 0.09173 0.32594 0.74754
 H287 H 0.13444 0.28732 0.77076
 H288 H 0.14232 0.36415 0.74164
 H289 H 0.06788 0.19495 0.79665
 H290 H -0.15324 0.09518 0.79720
 H291 H -0.13174 0.30752 0.71326
 H292 H 0.08948 0.40610 0.71594
 H293 H -0.15026 0.16665 0.76780
 H294 H -0.14343 0.22975 0.74152
 C295 C 0.74857 -0.01523 0.09454
 C296 C 0.72808 -0.08217 0.10290
 C297 C 0.76485 -0.09033 0.11972
 C298 C 0.82239 -0.03278 0.12850
 C299 C 0.84378 0.03340 0.11994
 C300 C 0.80739 0.04224 0.10319
 C301 C 0.70626 -0.00890 0.07695
 C302 C 0.72037 0.05518 0.06785
 C303 C 0.67830 0.05784 0.05172
 C304 C 0.62139 -0.00325 0.04425
 C305 C 0.60743 -0.06708 0.05317
 C306 C 0.64879 -0.07037 0.06937
 C307 C 0.67078 -0.14076 0.09455
 C308 C 0.63216 -0.13502 0.07809
 H309 H 0.65534 -0.19197 0.10089
 H310 H 0.58810 -0.18201 0.07223
 H311 H 0.74871 -0.14179 0.12600
 H312 H 0.88794 0.07869 0.12654
 H313 H 0.69025 0.10778 0.04513
 H314 H 0.56356 -0.11485 0.04763
 H315 H 0.82581 0.09435 0.09738
 H316 H 0.76324 0.10376 0.07305
 C317 C 0.22888 0.26887 0.43055
 C318 C 0.23480 0.21254 0.43858
 C319 C 0.19250 0.17195 0.45571
 C320 C 0.14495 0.18745 0.46524
 C321 C 0.13959 0.24350 0.45730
 C322 C 0.18074 0.28363 0.44021
 C323 C 0.27478 0.31095 0.41228
 C324 C 0.27130 0.36668 0.40290
 C325 C 0.31575 0.40532 0.38625
 C326 C 0.36520 0.38986 0.37834
 C327 C 0.36858 0.33365 0.38731
 C328 C 0.32358 0.29401 0.40415
 C329 C 0.28335 0.19764 0.42963
 C330 C 0.32704 0.23773 0.41289
 H331 H 0.28807 0.15461 0.43579
 H332 H 0.36407 0.22436 0.40667
 H333 H 0.19746 0.12911 0.46193
 H334 H 0.10275 0.25597 0.46422
 H335 H 0.31144 0.44807 0.37965
 H336 H 0.40626 0.32089 0.38128
 H337 H 0.17405 0.32604 0.43496
 H338 H 0.23475 0.38162 0.40812
 C339 C 0.01152 0.75643 0.76314
 C340 C 0.07863 0.80262 0.77076
 C341 C 0.08814 0.84713 0.78793
 C342 C 0.03180 0.84709 0.79772
 C343 C -0.03458 0.80234 0.78996
 C344 C -0.04476 0.75743 0.77292
 C345 C 0.00377 0.70858 0.74504
 C346 C -0.06058 0.65891 0.73660
 C347 C -0.06465 0.61475 0.71997
 C348 C -0.00475 0.61923 0.71131
 C349 C 0.05939 0.66897 0.71951
 C350 C 0.06408 0.71299 0.73624
 C351 C 0.13603 0.80428 0.76125
 C352 C 0.12893 0.76066 0.74431
 H353 H 0.18735 0.83984 0.76703
 H354 H 0.17504 0.76391 0.73754
 H355 H 0.13972 0.88249 0.79358
 H356 H -0.07890 0.80129 0.79733
 H357 H -0.11479 0.57680 0.71398
 H358 H 0.10623 0.67300 0.71306
 H359 H -0.09695 0.72391 0.76772
 H360 H -0.10831 0.65290 0.74271
   
