data_POSCAR
  _audit_creation_date              2014-09-24
  _audit_creation_method            'ToBaCCo'
  _symmetry_space_group_name_H-M    'P1'
  _symmetry_Int_Tables_number       1
  _symmetry_cell_setting            triclinic
  loop_
  _symmetry_equiv_pos_as_xyz
 x,y,z
_cell_length_a 36.9176
_cell_length_b 37.6509
_cell_length_c 35.4882
_cell_angle_alpha 91.613600
_cell_angle_beta 88.804800
_cell_angle_gamma 91.576000
loop_
  _atom_site_label
  _atom_site_type_symbol
  _atom_site_fract_x
  _atom_site_fract_y
  _atom_site_fract_z
C1 C 0.22003 0.19688 0.21260
 C2 C 0.19993 0.18139 0.24206
 C3 C 0.16928 0.19802 0.25736
 C4 C 0.15884 0.23072 0.24362
 C5 C 0.17881 0.24667 0.21413
 C6 C 0.20950 0.22963 0.19845
 C7 C 0.24984 0.17958 0.19635
 C8 C 0.26908 0.19438 0.16594
 C9 C 0.25895 0.22707 0.15190
 C10 C 0.22915 0.24485 0.16800
 C11 C 0.21793 0.27698 0.15349
 C12 C 0.18738 0.29379 0.16892
 C13 C 0.16805 0.27879 0.19926
 H14 H 0.20775 0.15598 0.25261
 H15 H 0.13493 0.24339 0.25538
 H16 H 0.25763 0.15415 0.20688
 H17 H 0.27376 0.23828 0.12813
 H18 H 0.23240 0.28852 0.12970
 H19 H 0.14416 0.29173 0.21066
 C20 C -0.23726 0.81493 0.21664
 C21 C -0.21882 0.83208 0.24649
 C22 C -0.18536 0.81977 0.25785
 C23 C -0.17040 0.78982 0.23974
 C24 C -0.18853 0.77234 0.20984
 C25 C -0.22208 0.78497 0.19813
 C26 C -0.27004 0.82797 0.20419
 C27 C -0.28761 0.81163 0.17337
 C28 C -0.27277 0.78166 0.15515
 C29 C -0.24000 0.76819 0.16730
 C30 C -0.22423 0.73895 0.14850
 C31 C -0.19088 0.72655 0.16006
 C32 C -0.17323 0.74308 0.19073
 H33 H -0.23014 0.85544 0.26036
 H34 H -0.14435 0.78056 0.24842
 H35 H -0.28140 0.85140 0.21789
 H36 H -0.28624 0.76936 0.13103
 H37 H -0.23752 0.72621 0.12453
 H38 H -0.14729 0.73350 0.19927
 C39 C -0.23721 0.18488 -0.22624
 C40 C -0.21974 0.17012 -0.25827
 C41 C -0.18776 0.18595 -0.27270
 C42 C -0.17326 0.21701 -0.25545
 C43 C -0.19041 0.23219 -0.22337
 C44 C -0.22251 0.21604 -0.20867
 C45 C -0.26840 0.16833 -0.21070
 C46 C -0.28483 0.18249 -0.17781
 C47 C -0.27054 0.21365 -0.16065
 C48 C -0.23938 0.23049 -0.17579
 C49 C -0.22410 0.26083 -0.15786
 C50 C -0.19214 0.27666 -0.17220
 C51 C -0.17546 0.26255 -0.20499
 H52 H -0.23054 0.14588 -0.27151
 H53 H -0.14828 0.22887 -0.26652
 H54 H -0.27934 0.14399 -0.22363
 H55 H -0.28313 0.22427 -0.13497
 H56 H -0.23659 0.27170 -0.13227
 H57 H -0.15051 0.27477 -0.21568
 C58 C 0.22440 0.81604 -0.25388
 C59 C 0.20729 0.83141 -0.28407
 C60 C 0.17719 0.81433 -0.30079
 C61 C 0.16435 0.78135 -0.28775
 C62 C 0.18124 0.76551 -0.25758
 C63 C 0.21141 0.78294 -0.24059
 C64 C 0.25328 0.83392 -0.23568
 C65 C 0.26903 0.81910 -0.20439
 C66 C 0.25666 0.78603 -0.19161
 C67 C 0.22781 0.76789 -0.20939
 C68 C 0.21401 0.73577 -0.19536
 C69 C 0.18382 0.71878 -0.21174
 C70 C 0.16763 0.73337 -0.24298
 H71 H 0.21678 0.85714 -0.29390
 H72 H 0.14073 0.76850 -0.30042
 H73 H 0.26280 0.85976 -0.24510
 H74 H 0.26876 0.77500 -0.16707
 H75 H 0.22597 0.72455 -0.17084
 H76 H 0.14390 0.72028 -0.25512
 C77 C 0.19409 1.22502 0.78422
 C78 C 0.17750 1.20702 0.75386
 C79 C 0.19198 1.17559 0.73885
 C80 C 0.22376 1.16238 0.75348
 C81 C 0.24078 1.18024 0.78384
 C82 C 0.22580 1.21162 0.79948
 C83 C 0.17857 1.25536 0.80055
 C84 C 0.19399 1.27220 0.83224
 C85 C 0.22570 1.25929 0.84738
 C86 C 0.24178 1.22894 0.83114
 C87 C 0.27263 1.21473 0.84684
 C88 C 0.28732 1.18350 0.83137
 C89 C 0.27164 1.16650 0.79984
 H90 H 0.15270 1.21691 0.74262
 H91 H 0.23466 1.13782 0.74193
 H92 H 0.15379 1.26528 0.78927
 H93 H 0.23728 1.27224 0.87221
 H94 H 0.28463 1.22734 0.87162
 H95 H 0.28288 1.14203 0.78849
 C96 C 0.82180 0.76600 0.77394
 C97 C 0.83705 0.78168 0.74171
 C98 C 0.82107 0.81125 0.72647
 C99 C 0.78923 0.82477 0.74276
 C100 C 0.77368 0.80941 0.77500
 C101 C 0.79006 0.77998 0.79083
 C102 C 0.83864 0.73764 0.79058
 C103 C 0.82435 0.72343 0.82398
 C104 C 0.79269 0.73702 0.84063
 C105 C 0.77546 0.76538 0.82432
 C106 C 0.74481 0.78041 0.84174
 C107 C 0.72894 0.80984 0.82615
 C108 C 0.74305 0.82404 0.79272
 H109 H 0.86200 0.77166 0.72928
 H110 H 0.77729 0.84799 0.73114
 H111 H 0.86342 0.72726 0.77811
 H112 H 0.78203 0.72616 0.86674
 H113 H 0.73394 0.76994 0.86792
 H114 H 0.73084 0.84715 0.78120
 C115 C 0.19052 0.75820 1.24241
 C116 C 0.17259 0.77742 1.27125
 C117 C 0.18687 0.81022 1.28422
 C118 C 0.21968 0.82363 1.26921
 C119 C 0.23800 0.80471 1.24037
 C120 C 0.22329 0.77191 1.22667
 C121 C 0.17527 0.72639 1.22783
 C122 C 0.19201 0.70840 1.19740
 C123 C 0.22477 0.72172 1.18187
 C124 C 0.24059 0.75353 1.19632
 C125 C 0.27242 0.76819 1.17992
 C126 C 0.28680 0.80088 1.19347
 C127 C 0.26981 0.81883 1.22379
 H128 H 0.14693 0.76749 1.28275
 H129 H 0.23030 0.84928 1.27916
 H130 H 0.14964 0.71628 1.23931
 H131 H 0.23732 0.70797 1.15791
 H132 H 0.28541 0.75477 1.15604
 H133 H 0.28079 0.84437 1.23366
 C134 C 0.81707 1.23632 1.25177
 C135 C 0.82989 1.22333 1.28551
 C136 C 0.81234 1.19422 1.30246
 C137 C 0.78121 1.17858 1.28636
 C138 C 0.76805 1.19124 1.25262
 C139 C 0.78612 1.22013 1.23509
 C140 C 0.83578 1.26396 1.23337
 C141 C 0.82411 1.27525 1.19848
 C142 C 0.79320 1.25953 1.18207
 C143 C 0.77415 1.23185 1.20008
 C144 C 0.74441 1.21454 1.18287
 C145 C 0.72687 1.18561 1.20010
 C146 C 0.73837 1.17426 1.23503
 H147 H 0.85436 1.23490 1.29774
 H148 H 0.76814 1.15563 1.29924
 H149 H 0.86004 1.27597 1.24555
 H150 H 0.78469 1.26814 1.15479
 H151 H 0.73564 1.22278 1.15555
 H152 H 0.72495 1.15148 1.24784
 O153 O 0.52707 0.94715 0.94844
 O154 O 0.46189 0.97466 1.07984
 O155 O 0.55522 0.95482 1.03116
 O156 O 0.40702 0.97186 0.97725
 O157 O 0.52755 0.97251 1.08116
 O158 O 0.45778 0.95032 0.95045
 O159 O 0.44192 0.94740 1.02915
 O160 O 0.57386 0.97657 0.97053
 C161 C 0.56075 0.95088 0.95149
 C162 C 0.44660 0.94785 1.06390
 C163 C 0.54749 0.95060 1.06467
 C164 C 0.42306 0.95281 0.95091
 O165 O 0.46520 1.01958 0.93406
 O166 O 0.53581 1.04080 1.06026
 O167 O 0.55581 1.04056 0.98675
 O168 O 0.42019 1.01151 1.04645
 O169 O 0.46764 1.04400 1.05906
 O170 O 0.53284 1.01711 0.93467
 O171 O 0.43517 1.03257 0.98489
 O172 O 0.58678 1.01502 1.03996
 Co173 Co 0.49585 0.98439 0.94738
 Co174 Co 0.49790 1.00720 1.06523
 Co175 Co 0.55118 0.99813 1.01088
 Co176 Co 0.44244 0.98976 1.00585
 O177 O 0.49674 0.99464 1.00707
 C178 C 0.44277 1.03859 0.95142
 C179 C 0.57027 1.03734 1.06291
 C180 C 0.55179 1.04112 0.95162
 C181 C 0.43386 1.03949 1.06077
 O182 O 0.03210 0.47578 0.06806
 O183 O 0.03550 0.53456 -0.08206
 O184 O 0.01769 0.42760 -0.04047
 O185 O 0.05471 0.55015 0.03194
 O186 O 0.04201 0.47003 -0.07251
 O187 O 0.01626 0.53933 0.07454
 O188 O 0.06052 0.55779 -0.03294
 O189 O 0.04865 0.44961 0.01649
 C190 C 0.05471 0.45755 0.04987
 C191 C 0.05975 0.55350 -0.06751
 C192 C 0.04115 0.43829 -0.06364
 C193 C 0.04686 0.55072 0.06555
 O194 O -0.04841 0.52479 0.04781
 O195 O -0.03050 0.46312 -0.07115
 O196 O -0.00943 0.41376 0.02906
 O197 O -0.01004 0.57442 -0.03869
 O198 O -0.03326 0.53047 -0.07449
 O199 O -0.03799 0.46054 0.05122
 O200 O -0.01718 0.57165 0.03014
 O201 O -0.04495 0.44899 -0.01436
 Co202 Co -0.00773 0.50030 0.05404
 Co203 Co 0.00355 0.49941 -0.06850
 Co204 Co 0.00223 0.45213 0.00162
 Co205 Co 0.02059 0.55877 -0.00210
 O206 O 0.00608 0.50460 -0.00675
 C207 C -0.04615 0.55753 0.04299
 C208 C -0.05187 0.44816 -0.04847
 C209 C -0.03106 0.42784 0.05481
 C210 C -0.03217 0.56259 -0.06337
 O211 O 1.05562 0.05645 0.46232
 O212 O 0.92709 0.02312 0.53510
 O213 O 0.97168 0.05113 0.44272
 O214 O 1.03214 0.02421 0.57811
 O215 O 0.92550 0.02553 0.46715
 O216 O 1.05706 0.05355 0.53213
 O217 O 0.97440 0.04704 0.55857
 O218 O 1.02838 0.03067 0.41480
 C219 C 1.04917 0.05462 0.42778
 C220 C 0.94153 0.04791 0.55399
 C221 C 0.93921 0.05167 0.45090
 C222 C 1.05329 0.04829 0.56666
 O223 O 1.06996 -0.01635 0.52794
 O224 O 0.95080 -0.04029 0.45816
 O225 O 1.01688 -0.03341 0.43090
 O226 O 0.96562 -0.01583 0.58691
 O227 O 0.95266 -0.04294 0.53171
 O228 O 1.06840 -0.01327 0.45511
 O229 O 1.01933 -0.03796 0.55382
 O230 O 0.96178 -0.00919 0.40610
 Co231 Co 1.05779 0.01923 0.49451
 Co232 Co 0.94439 -0.00738 0.49787
 Co233 Co 0.99226 0.00815 0.44111
 Co234 Co 0.99468 0.00413 0.55197
 O235 O 1.00107 0.00982 0.49644
 C236 C 1.05313 -0.03941 0.54788
 C237 C 0.94449 -0.03532 0.42307
 C238 C 1.05085 -0.03512 0.43389
 C239 C 0.94757 -0.04050 0.56773
 C240 C 1.14908 0.18120 0.28445
 C241 C 1.13201 0.16469 0.30778
 C242 C 1.11297 0.14362 0.33435
 C243 C 1.09746 0.12445 0.35645
 C244 C 1.08004 0.10089 0.38175
 C245 C 1.06570 0.08006 0.40294
 C246 C 0.83344 -0.16184 0.28515
 C247 C 0.85013 -0.14470 0.30861
 C248 C 0.86977 -0.12359 0.33516
 C249 C 0.88665 -0.10471 0.35695
 C250 C 0.90660 -0.08157 0.38136
 C251 C 0.92379 -0.06095 0.40109
 C252 C 0.83130 0.16881 0.69617
 C253 C 0.84736 0.15328 0.67098
 C254 C 0.86639 0.13374 0.64263
 C255 C 0.88292 0.11592 0.61965
 C256 C 0.90275 0.09367 0.59443
 C257 C 0.92016 0.07347 0.57472
 C258 C 1.15907 -0.16873 0.67215
 C259 C 1.14308 -0.15231 0.64930
 C260 C 1.12436 -0.13138 0.62405
 C261 C 1.10831 -0.11218 0.60391
 C262 C 1.08935 -0.08819 0.58218
 C263 C 1.07295 -0.06654 0.56540
 C264 C 0.29639 1.17571 1.14912
 C265 C 0.31965 1.15757 1.13487
 C266 C 0.34576 1.13465 1.11883
 C267 C 0.36715 1.11394 1.10549
 C268 C 0.39123 1.08865 1.09007
 C269 C 0.41105 1.06643 1.07685
 C270 C 0.29591 0.83902 0.81675
 C271 C 0.31737 0.85573 0.83578
 C272 C 0.34138 0.87543 0.85923
 C273 C 0.36105 0.89248 0.87995
 C274 C 0.38325 0.91287 0.90468
 C275 C 0.40165 0.93077 0.92589
 C276 C 0.68242 0.82671 1.15949
 C277 C 0.65695 0.84155 1.14689
 C278 C 0.62873 0.86084 1.13152
 C279 C 0.60635 0.87894 1.11768
 C280 C 0.58256 0.90206 1.10044
 C281 C 0.56482 0.92339 1.08471
 C282 C 0.68689 1.16463 0.83905
 C283 C 0.66280 1.14823 0.85484
 C284 C 0.63590 1.12811 0.87426
 C285 C 0.61419 1.10999 0.89146
 C286 C 0.59043 1.08749 0.91217
 C287 C 0.57177 1.06706 0.93013
 C288 C 0.17403 0.32502 0.15180
 C289 C 0.16131 0.35016 0.13697
 C290 C 0.14430 0.37814 0.11905
 C291 C 0.12765 0.40035 0.10337
 C292 C 0.10536 0.42388 0.08468
 C293 C 0.08371 0.44119 0.06866
 C294 C -0.17534 0.30621 -0.15187
 C295 C -0.16065 0.33025 -0.13432
 C296 C -0.14221 0.35757 -0.11368
 C297 C -0.12493 0.38011 -0.09651
 C298 C -0.10239 0.40542 -0.07753
 C299 C -0.08078 0.42583 -0.06298
 C300 C 0.16766 0.68822 -0.19381
 C301 C 0.15400 0.66388 -0.17677
 C302 C 0.13739 0.63695 -0.15499
 C303 C 0.12220 0.61536 -0.13534
 C304 C 0.10277 0.59183 -0.11159
 C305 C 0.08433 0.57334 -0.09122
 C306 C -0.17367 0.69777 0.13954
 C307 C -0.15803 0.67428 0.12268
 C308 C -0.13815 0.64749 0.10350
 C309 C -0.11971 0.62534 0.08783
 C310 C -0.09623 0.60037 0.07059
 C311 C -0.07441 0.58010 0.05712
 C312 C 1.17352 0.15688 0.71173
 C313 C 1.15588 0.14060 0.68855
 C314 C 1.13411 0.12172 0.66227
 C315 C 1.11506 0.10552 0.64029
 C316 C 1.09275 0.08624 0.61481
 C317 C 1.07419 0.06928 0.59298
 C318 C 0.83832 -0.17098 0.69816
 C319 C 0.85415 -0.15398 0.67443
 C320 C 0.87327 -0.13256 0.64842
 C321 C 0.88999 -0.11304 0.62770
 C322 C 0.90989 -0.08888 0.60520
 C323 C 0.92706 -0.06726 0.58737
 C324 C 1.16618 -0.16845 0.31063
 C325 C 1.14821 -0.15000 0.33156
 C326 C 1.12679 -0.12762 0.35484
 C327 C 1.10853 -0.10775 0.37386
 C328 C 1.08752 -0.08352 0.39531
 C329 C 1.07024 -0.06193 0.41312
 C330 C 0.82801 0.17839 0.33179
 C331 C 0.84291 0.16287 0.35605
 C332 C 0.86156 0.14281 0.38200
 C333 C 0.87839 0.12409 0.40185
 C334 C 0.89898 0.10042 0.42214
 C335 C 0.91714 0.07882 0.43681
 C336 C 0.17619 0.29954 -0.15054
 C337 C 0.15834 0.32273 -0.13620
 C338 C 0.13534 0.34864 -0.12038
 C339 C 0.11443 0.36991 -0.10739
 C340 C 0.08904 0.39404 -0.09246
 C341 C 0.06706 0.41430 -0.07957
 C342 C -0.15447 0.30112 0.17813
 C343 C -0.13589 0.32189 0.16055
 C344 C -0.11366 0.34532 0.13936
 C345 C -0.09448 0.36473 0.12076
 C346 C -0.07204 0.38696 0.09838
 C347 C -0.05310 0.40568 0.07877
 C348 C -0.15732 0.69793 -0.15858
 C349 C -0.14010 0.67607 -0.14315
 C350 C -0.11883 0.65127 -0.12530
 C351 C -0.09984 0.63059 -0.11035
 C352 C -0.07681 0.60679 -0.09335
 C353 C -0.05662 0.58660 -0.07934
 C354 C 0.17432 0.67990 0.18101
 C355 C 0.15687 0.65595 0.16635
 C356 C 0.13470 0.62965 0.14853
 C357 C 0.11478 0.60876 0.13225
 C358 C 0.09084 0.58628 0.11145
 C359 C 0.07044 0.56892 0.09174
 C360 C 0.31664 1.16690 0.84961
 C361 C 0.33999 1.15131 0.86500
 C362 C 0.36575 1.13113 0.88315
 C363 C 0.38621 1.11225 0.89873
 C364 C 0.40819 1.08831 0.91705
 C365 C 0.42510 1.06637 0.93274
 C366 C 0.31715 0.81800 1.17445
 C367 C 0.34131 0.83425 1.15856
 C368 C 0.36798 0.85525 1.13979
 C369 C 0.38914 0.87466 1.12342
 C370 C 0.41181 0.89893 1.10361
 C371 C 0.42904 0.92076 1.08597
 C372 C 0.69914 1.16546 1.18039
 C373 C 0.67701 1.14756 1.16341
 C374 C 0.65231 1.12559 1.14304
 C375 C 0.63220 1.10612 1.12524
 C376 C 0.60970 1.08263 1.10396
 C377 C 0.59130 1.06213 1.08541
 C378 C 0.69996 0.82754 0.84596
 C379 C 0.67666 0.84379 0.86257
 C380 C 0.65048 0.86430 0.88190
 C381 C 0.62894 0.88290 0.89825
 C382 C 0.60458 0.90578 0.91713
 C383 C 0.58433 0.92607 0.93298
   
