data_POSCAR
  _audit_creation_date              2014-09-24
  _audit_creation_method            'ToBaCCo'
  _symmetry_space_group_name_H-M    'P1'
  _symmetry_Int_Tables_number       1
  _symmetry_cell_setting            triclinic
  loop_
  _symmetry_equiv_pos_as_xyz
 x,y,z
_cell_length_a 53.6479
_cell_length_b 53.5298
_cell_length_c 46.6697
_cell_angle_alpha 90.141400
_cell_angle_beta 89.958300
_cell_angle_gamma 120.210800
loop_
  _atom_site_label
  _atom_site_type_symbol
  _atom_site_fract_x
  _atom_site_fract_y
  _atom_site_fract_z
O1 O 0.04972 0.49620 -0.00352
 O2 O 0.01203 0.52425 -0.04675
 O3 O 0.04841 0.54416 -0.00380
 O4 O 0.01254 0.47620 -0.04542
 O5 O -0.02318 0.45800 -0.01430
 O6 O 0.01224 0.52574 0.02686
 O7 O -0.02416 0.50601 -0.01609
 O8 O 0.01389 0.47814 0.02755
 Cu9 Cu 0.03431 0.51211 -0.02792
 Cu10 Cu -0.00890 0.49023 0.00909
 C11 C 0.03839 0.48247 0.01946
 C12 C -0.01271 0.51951 -0.03919
 C13 C 0.03655 0.54640 0.01890
 C14 C -0.01163 0.45545 -0.03706
 O15 O 0.53948 0.51100 -0.01258
 O16 O 0.47287 0.48122 0.03055
 O17 O 0.49020 0.46311 -0.01279
 O18 O 0.52245 0.52849 0.03191
 O19 O 0.50533 0.54868 0.00282
 O20 O 0.47338 0.48310 -0.04245
 O21 O 0.45577 0.50099 0.00088
 O22 O 0.52224 0.53107 -0.04168
 Cu23 Cu 0.50803 0.49402 0.01220
 Cu24 Cu 0.48753 0.51804 -0.02301
 C25 C 0.54199 0.52574 -0.03485
 C26 C 0.45295 0.48615 0.02309
 C27 C 0.47651 0.46187 -0.03545
 C28 C 0.51900 0.54957 0.02540
 O29 O 0.51671 1.00305 -0.03582
 O30 O 0.44685 0.96395 0.00156
 O31 O 0.46884 1.00370 -0.03820
 O32 O 0.49487 0.96344 0.00401
 O33 O 0.51186 0.99789 0.03677
 O34 O 0.48364 1.03700 -0.00442
 O35 O 0.46342 0.99749 0.03522
 O36 O 0.53249 1.03745 -0.00307
 Cu37 Cu 0.48022 0.98014 -0.02045
 Cu38 Cu 0.49951 1.02091 0.01940
 C39 C 0.53642 1.02715 -0.02607
 C40 C 0.44338 0.97379 0.02510
 C41 C 0.47175 1.02728 -0.02862
 C42 C 0.50764 0.97365 0.02772
 O43 O 1.04094 0.53917 0.49925
 O44 O 1.01013 0.47497 0.54620
 O45 O 1.04468 0.49269 0.50216
 O46 O 1.00761 0.52197 0.54463
 O47 O 0.96957 0.49999 0.51640
 O48 O 1.00721 0.47107 0.47325
 O49 O 0.97264 0.45306 0.51727
 O50 O 1.00289 0.51703 0.47106
 Cu51 Cu 1.02963 0.50947 0.52588
 Cu52 Cu 0.98427 0.48314 0.49167
 C53 C 1.02731 0.53882 0.47682
 C54 C 0.98595 0.45305 0.53974
 C55 C 1.03258 0.47712 0.48025
 C56 C 0.98208 0.51559 0.53822
 O57 O 0.52549 0.53041 0.53803
 O58 O 0.46198 0.49925 0.49087
 O59 O 0.47908 0.48048 0.53366
 O60 O 0.50906 0.54946 0.49449
 O61 O 0.53082 0.53460 0.46463
 O62 O 0.50084 0.46583 0.50354
 O63 O 0.48386 0.48470 0.46081
 O64 O 0.54752 0.51580 0.50823
 Cu65 Cu 0.49175 0.51647 0.51720
 Cu66 Cu 0.51803 0.49887 0.48129
 C67 C 0.54715 0.52795 0.53155
 C68 C 0.46199 0.48663 0.46778
 C69 C 0.48502 0.46143 0.52538
 C70 C 0.52483 0.55366 0.47262
 O71 O 0.47862 0.00407 0.46066
 O72 O 0.54181 0.03467 0.50840
 O73 O 0.52307 -0.00234 0.46616
 O74 O 0.49716 0.04127 0.50281
 O75 O 0.47336 0.00594 0.53369
 O76 O 0.49856 -0.03801 0.49644
 O77 O 0.51781 -0.00094 0.53893
 O78 O 0.45431 -0.03116 0.49151
 Cu79 Cu 0.51261 0.02302 0.48151
 Cu80 Cu 0.48364 -0.01955 0.51827
 C81 C 0.45575 -0.01897 0.46775
 C82 C 0.54062 0.02218 0.53189
 C83 C 0.51482 -0.02790 0.47462
 C84 C 0.48097 0.03115 0.52465
 C85 C 0.29654 0.43818 0.23807
 C86 C 0.29647 0.43930 0.26743
 C87 C 0.26811 0.42896 0.27566
 N88 N 0.25086 0.42145 0.25234
 C89 C 0.26823 0.42730 0.22932
 C90 C 0.25844 0.42568 0.30432
 C91 C 0.23012 0.41861 0.31188
 C92 C 0.21802 0.40942 0.33880
 C93 C 0.19144 0.40744 0.33815
 C94 C 0.18808 0.41553 0.31087
 N95 N 0.21172 0.42223 0.29498
 C96 C 0.16476 0.41897 0.30214
 C97 C 0.15910 0.42208 0.27321
 C98 C 0.13944 0.42999 0.26413
 C99 C 0.13997 0.42991 0.23476
 C100 C 0.15989 0.42189 0.22685
 N101 N 0.17140 0.41691 0.25039
 C102 C 0.16641 0.41837 0.19831
 C103 C 0.18952 0.41405 0.19086
 C104 C 0.19319 0.40490 0.16419
 C105 C 0.21931 0.40587 0.16485
 C106 C 0.23090 0.41568 0.19189
 N107 N 0.21258 0.42058 0.20760
 C108 C 0.25879 0.42213 0.20053
 H109 H 0.31534 0.44488 0.22471
 H110 H 0.31522 0.44701 0.28110
 H111 H 0.21726 0.43135 0.22711
 H112 H 0.22756 0.40507 0.35715
 H113 H 0.17654 0.40131 0.35593
 H114 H 0.12627 0.43550 0.27727
 H115 H 0.12726 0.43533 0.22086
 H116 H 0.22892 0.40051 0.14724
 H117 H 0.21668 0.43244 0.27520
 H118 H 0.17875 0.39860 0.14600
 C119 C 0.58079 0.87266 0.26778
 C120 C 0.58054 0.87395 0.23845
 C121 C 0.57522 0.84732 0.22839
 N122 N 0.57203 0.82978 0.25059
 C123 C 0.57556 0.84526 0.27471
 C124 C 0.57050 0.83867 0.19935
 C125 C 0.56669 0.81198 0.18945
 C126 C 0.55624 0.80029 0.16256
 C127 C 0.55662 0.77486 0.16093
 C128 C 0.56762 0.77181 0.18673
 N129 N 0.57390 0.79465 0.20391
 C130 C 0.57262 0.74892 0.19333
 C131 C 0.57799 0.74315 0.22148
 C132 C 0.58696 0.72376 0.22850
 C133 C 0.58661 0.72217 0.25783
 C134 C 0.57745 0.74065 0.26776
 N135 N 0.57225 0.75350 0.24550
 C136 C 0.57145 0.74335 0.29672
 C137 C 0.56684 0.76572 0.30663
 C138 C 0.55582 0.76638 0.33334
 C139 C 0.55606 0.79213 0.33517
 C140 C 0.56682 0.80636 0.30937
 N141 N 0.57367 0.79027 0.29223
 C142 C 0.57116 0.83405 0.30281
 H143 H 0.58365 0.88970 0.28230
 H144 H 0.58321 0.89218 0.22601
 H145 H 0.58500 0.79695 0.27306
 H146 H 0.54904 0.80910 0.14577
 H147 H 0.54961 0.76032 0.14273
 H148 H 0.59274 0.71169 0.21398
 H149 H 0.59209 0.70864 0.27041
 H150 H 0.54899 0.79943 0.35344
 H151 H 0.58512 0.79954 0.22318
 H152 H 0.54842 0.75008 0.34990
 C153 C 0.12889 0.71024 0.23958
 C154 C 0.12853 0.71133 0.26895
 C155 C 0.15622 0.73169 0.27743
 N156 N 0.17343 0.74313 0.25428
 C157 C 0.15679 0.72997 0.23111
 C158 C 0.16600 0.73744 0.30608
 C159 C 0.19310 0.76120 0.31376
 C160 C 0.20705 0.76410 0.33961
 C161 C 0.23190 0.79063 0.33918
 C162 C 0.23245 0.80320 0.31307
 N163 N 0.20868 0.78516 0.29772
 C164 C 0.25397 0.83114 0.30446
 C165 C 0.25781 0.84012 0.27561
 C166 C 0.27580 0.86818 0.26631
 C167 C 0.27621 0.86703 0.23696
 C168 C 0.25845 0.83830 0.22936
 N169 N 0.24713 0.82191 0.25300
 C170 C 0.25551 0.82712 0.20136
 C171 C 0.23391 0.79876 0.19385
 C172 C 0.23372 0.78447 0.16896
 C173 C 0.20878 0.75797 0.16937
 C174 C 0.19441 0.75681 0.19450
 N175 N 0.20980 0.78183 0.20922
 C176 C 0.16724 0.73351 0.20274
 H177 H 0.11080 0.69619 0.22603
 H178 H 0.11014 0.69829 0.28254
 H179 H 0.20292 0.78803 0.22734
 H180 H 0.20014 0.74867 0.35698
 H181 H 0.24779 0.79955 0.35614
 H182 H 0.28786 0.88736 0.27935
 H183 H 0.28866 0.88515 0.22285
 H184 H 0.20210 0.74141 0.15306
 H185 H 0.20206 0.79010 0.27866
 H186 H 0.24992 0.79223 0.15228
 C187 C 0.86961 0.58228 0.76528
 C188 C 0.86938 0.58223 0.73587
 C189 C 0.84138 0.57369 0.72764
 N190 N 0.82456 0.56858 0.75096
 C191 C 0.84175 0.57374 0.77399
 C192 C 0.83104 0.56804 0.69918
 C193 C 0.80370 0.56388 0.69157
 C194 C 0.78946 0.55172 0.66605
 C195 C 0.76456 0.55312 0.66628
 C196 C 0.76425 0.56604 0.69197
 N197 N 0.78818 0.57256 0.70726
 C198 C 0.74290 0.57276 0.70009
 C199 C 0.73904 0.57855 0.72878
 C200 C 0.72119 0.58884 0.73763
 C201 C 0.72119 0.58844 0.76704
 C202 C 0.73906 0.57794 0.77512
 N203 N 0.75000 0.57197 0.75172
 C204 C 0.74293 0.57141 0.80350
 C205 C 0.76464 0.56503 0.81106
 C206 C 0.76539 0.55197 0.83643
 C207 C 0.79057 0.55108 0.83619
 C208 C 0.80448 0.56357 0.81067
 N209 N 0.78855 0.57205 0.79549
 C210 C 0.83184 0.56810 0.80259
 H211 H 0.88807 0.58756 0.77870
 H212 H 0.88761 0.58747 0.72212
 H213 H 0.79507 0.58459 0.77700
 H214 H 0.79626 0.54276 0.64898
 H215 H 0.74851 0.54543 0.64944
 H216 H 0.70908 0.59551 0.72430
 H217 H 0.70909 0.59476 0.78087
 H218 H 0.79775 0.54218 0.85291
 H219 H 0.79500 0.58494 0.72590
 H220 H 0.74947 0.54389 0.85338
 C221 C 0.43849 0.14603 0.75775
 C222 C 0.43612 0.14569 0.72851
 C223 C 0.42881 0.16635 0.72154
 N224 N 0.42652 0.17919 0.74559
 C225 C 0.43286 0.16713 0.76777
 C226 C 0.42358 0.17229 0.69337
 C227 C 0.41879 0.19521 0.68632
 C228 C 0.40873 0.19840 0.66001
 C229 C 0.40906 0.22426 0.66095
 C230 C 0.41934 0.23615 0.68779
 N231 N 0.42526 0.21834 0.70308
 C232 C 0.42498 0.26380 0.69664
 C233 C 0.43036 0.27343 0.72541
 C234 C 0.43952 0.30150 0.73420
 C235 C 0.44150 0.30174 0.76349
 C236 C 0.43354 0.27382 0.77166
 N237 N 0.42650 0.25649 0.74837
 C238 C 0.43221 0.26472 0.80032
 C239 C 0.42823 0.23741 0.80808
 C240 C 0.42270 0.22643 0.83569
 C241 C 0.42301 0.20092 0.83487
 C242 C 0.42839 0.19675 0.80668
 N243 N 0.43169 0.21921 0.79057
 C244 C 0.43244 0.17393 0.79705
 H245 H 0.44362 0.13214 0.77010
 H246 H 0.43935 0.13171 0.71408
 H247 H 0.43959 0.22374 0.76982
 H248 H 0.40218 0.18379 0.64188
 H249 H 0.40283 0.23344 0.64367
 H250 H 0.44447 0.31997 0.72092
 H251 H 0.44830 0.32043 0.77715
 H252 H 0.42010 0.18735 0.85316
 H253 H 0.43653 0.22344 0.72226
 H254 H 0.41942 0.23612 0.85465
 C255 C 0.70023 0.14120 0.73776
 C256 C 0.69992 0.14029 0.76713
 C257 C 0.72809 0.15836 0.77609
 N258 N 0.74561 0.17004 0.75319
 C259 C 0.72859 0.15973 0.72974
 C260 C 0.73732 0.16305 0.80495
 C261 C 0.76505 0.18500 0.81370
 C262 C 0.77660 0.18710 0.84078
 C263 C 0.80257 0.21263 0.84150
 C264 C 0.80619 0.22539 0.81484
 N265 N 0.78324 0.20840 0.79804
 C266 C 0.82908 0.25314 0.80749
 C267 C 0.83547 0.26328 0.77899
 C268 C 0.85486 0.29156 0.77119
 C269 C 0.85537 0.29220 0.74181
 C270 C 0.83628 0.26430 0.73263
 N271 N 0.82431 0.24662 0.75538
 C272 C 0.83081 0.25538 0.70369
 C273 C 0.80820 0.22793 0.69503
 C274 C 0.80546 0.21622 0.66789
 C275 C 0.77928 0.19095 0.66715
 C276 C 0.76677 0.18792 0.69388
 N277 N 0.78457 0.21049 0.71077
 C278 C 0.73851 0.16611 0.70117
 H279 H 0.68164 0.12964 0.72394
 H280 H 0.68105 0.12790 0.78036
 H281 H 0.77914 0.21574 0.73033
 H282 H 0.76705 0.17206 0.85836
 H283 H 0.81694 0.22107 0.85974
 H284 H 0.86721 0.30989 0.78518
 H285 H 0.86817 0.31111 0.72875
 H286 H 0.77022 0.17672 0.64884
 H287 H 0.77851 0.21428 0.77849
 H288 H 0.82051 0.22526 0.65024
 C289 C 0.08067 0.47559 0.02774
 C290 C 0.09639 0.46719 0.04506
 C291 C 0.08600 0.45489 0.07209
 C292 C 0.05928 0.45098 0.08140
 C293 C 0.04351 0.45932 0.06402
 C294 C 0.05417 0.47199 0.03714
 C295 C 0.10464 0.44849 0.09052
 C296 C 0.09516 0.43118 0.11354
 C297 C 0.11445 0.42711 0.13337
 C298 C 0.10235 0.40318 0.15186
 C299 C 0.11934 0.39975 0.17240
 C300 C 0.14874 0.42033 0.17492
 C301 C 0.16107 0.44398 0.15624
 C302 C 0.14412 0.44748 0.13574
 H303 H 0.08952 0.48530 0.00715
 H304 H 0.11697 0.47066 0.03742
 H305 H 0.05081 0.44241 0.10238
 H306 H 0.02327 0.45647 0.07197
 H307 H 0.12709 0.45838 0.08445
 H308 H 0.07231 0.41914 0.11816
 H309 H 0.07956 0.38731 0.15069
 H310 H 0.10949 0.38142 0.18678
 H311 H 0.18368 0.46023 0.15817
 H312 H 0.15423 0.46673 0.12268
 C313 C 0.54075 0.57353 0.07214
 C314 C 0.54842 0.59579 0.09197
 C315 C 0.54603 0.61996 0.08505
 C316 C 0.53614 0.62168 0.05761
 C317 C 0.52817 0.59922 0.03780
 C318 C 0.53002 0.57472 0.04501
 C319 C 0.55155 0.64146 0.10780
 C320 C 0.55937 0.66909 0.10273
 C321 C 0.56294 0.68929 0.12620
 C322 C 0.58372 0.71872 0.12376
 C323 C 0.58724 0.73813 0.14569
 C324 C 0.56961 0.72845 0.17013
 C325 C 0.54844 0.69915 0.17229
 C326 C 0.54517 0.67973 0.15061
 H327 H 0.54234 0.55493 0.07845
 H328 H 0.55580 0.59387 0.11302
 H329 H 0.53338 0.63969 0.05178
 H330 H 0.51986 0.60070 0.01712
 H331 H 0.54960 0.63421 0.12977
 H332 H 0.56427 0.67747 0.08110
 H333 H 0.59742 0.72661 0.10500
 H334 H 0.60359 0.76070 0.14358
 H335 H 0.53429 0.69137 0.19074
 H336 H 0.52830 0.65737 0.15272
 C337 C 0.39337 0.93114 0.03055
 C338 C 0.36886 0.91423 0.04724
 C339 C 0.36697 0.92271 0.07524
 C340 C 0.38925 0.94931 0.08566
 C341 C 0.41361 0.96629 0.06897
 C342 C 0.41625 0.95711 0.04147
 C343 C 0.34200 0.90329 0.09338
 C344 C 0.34481 0.90115 0.12166
 C345 C 0.32109 0.88101 0.14066
 C346 C 0.32831 0.87234 0.16618
 C347 C 0.30692 0.85436 0.18545
 C348 C 0.27785 0.84508 0.17985
 C349 C 0.27042 0.85348 0.15427
 C350 C 0.29187 0.87132 0.13477
 H351 H 0.39466 0.92358 0.00936
 H352 H 0.35179 0.89399 0.03863
 H353 H 0.38800 0.95695 0.10681
 H354 H 0.43069 0.98631 0.07791
 H355 H 0.32170 0.88895 0.08289
 H356 H 0.36600 0.91353 0.13129
 H357 H 0.35064 0.87956 0.17125
 H358 H 0.31306 0.84796 0.20500
 H359 H 0.24808 0.84662 0.14969
 H360 H 0.28559 0.87811 0.11561
 C361 C 0.97806 0.53744 0.58412
 C362 C 0.96245 0.54434 0.60328
 C363 C 0.93526 0.53999 0.59578
 C364 C 0.92399 0.52879 0.56848
 C365 C 0.93950 0.52153 0.54936
 C366 C 0.96658 0.52550 0.55712
 C367 C 0.91848 0.54521 0.61774
 C368 C 0.89837 0.55223 0.61160
 C369 C 0.88144 0.55631 0.63428
 C370 C 0.87273 0.57680 0.63049
 C371 C 0.85672 0.58097 0.65171
 C372 C 0.84866 0.56425 0.67680
 C373 C 0.85681 0.54331 0.68029
 C374 C 0.87313 0.53943 0.65932
 H375 H 0.99879 0.54063 0.59085
 H376 H 0.97150 0.55276 0.62424
 H377 H 0.90277 0.52454 0.56225
 H378 H 0.93002 0.51224 0.52877
 H379 H 0.92364 0.54409 0.63997
 H380 H 0.89506 0.55635 0.58962
 H381 H 0.87864 0.58983 0.61125
 H382 H 0.85051 0.59714 0.64855
 H383 H 0.85034 0.52982 0.69923
 H384 H 0.87871 0.52281 0.66247
 C385 C 0.47854 0.41203 0.53140
 C386 C 0.47016 0.38720 0.54770
 C387 C 0.45715 0.38386 0.57461
 C388 C 0.45227 0.40588 0.58470
 C389 C 0.46053 0.43067 0.56830
 C390 C 0.47413 0.43420 0.54167
 C391 C 0.45117 0.35828 0.59210
 C392 C 0.43467 0.34985 0.61573
 C393 C 0.43144 0.32612 0.63465
 C394 C 0.40830 0.31382 0.65408
 C395 C 0.40567 0.29297 0.67375
 C396 C 0.42624 0.28417 0.67441
 C397 C 0.44914 0.29602 0.65485
 C398 C 0.45186 0.31692 0.63524
 H399 H 0.48894 0.41406 0.51095
 H400 H 0.47434 0.37073 0.53943
 H401 H 0.44305 0.40473 0.60557
 H402 H 0.45703 0.44746 0.57690
 H403 H 0.46093 0.34594 0.58490
 H404 H 0.42278 0.36043 0.62167
 H405 H 0.39243 0.32068 0.65430
 H406 H 0.38793 0.28409 0.68885
 H407 H 0.46539 0.28967 0.65537
 H408 H 0.47057 0.32642 0.62144
 C409 C 0.56395 0.02322 0.57877
 C410 C 0.58713 0.03643 0.59787
 C411 C 0.61256 0.06179 0.59020
 C412 C 0.61481 0.07298 0.56244
 C413 C 0.59161 0.05982 0.54338
 C414 C 0.56577 0.03503 0.55146
 C415 C 0.63598 0.07595 0.61174
 C416 C 0.65567 0.10426 0.61122
 C417 C 0.67752 0.11932 0.63401
 C418 C 0.68980 0.14938 0.63679
 C419 C 0.70979 0.16451 0.65841
 C420 C 0.71809 0.14990 0.67757
 C421 C 0.70656 0.12000 0.67447
 C422 C 0.68649 0.10480 0.65282
 H423 H 0.54441 0.00405 0.58562
 H424 H 0.58493 0.02716 0.61898
 H425 H 0.63440 0.09182 0.55525
 H426 H 0.59386 0.06924 0.52235
 H427 H 0.63536 0.06296 0.62975
 H428 H 0.65454 0.11767 0.59456
 H429 H 0.68350 0.16115 0.62247
 H430 H 0.71856 0.18761 0.66046
 H431 H 0.71303 0.10848 0.68891
 H432 H 0.67832 0.08184 0.65085
 C433 C 0.46295 0.06772 0.96596
 C434 C 0.45475 0.08388 0.94896
 C435 C 0.44668 0.07611 0.92034
 C436 C 0.44546 0.05111 0.90930
 C437 C 0.45285 0.03448 0.92645
 C438 C 0.46233 0.04289 0.95486
 C439 C 0.44006 0.09448 0.90206
 C440 C 0.45122 0.10208 0.87573
 C441 C 0.44622 0.12142 0.85722
 C442 C 0.46901 0.14193 0.84045
 C443 C 0.46466 0.15966 0.82171
 C444 C 0.43719 0.15649 0.81874
 C445 C 0.41428 0.13590 0.83540
 C446 C 0.41883 0.11868 0.85480
 H447 H 0.46984 0.07479 0.98777
 H448 H 0.45562 0.10300 0.95787
 H449 H 0.43879 0.04446 0.88737
 H450 H 0.45190 0.01548 0.91708
 H451 H 0.42781 0.10364 0.91112
 H452 H 0.46605 0.09536 0.86812
 H453 H 0.49022 0.14422 0.84189
 H454 H 0.48252 0.17538 0.80891
 H455 H 0.39289 0.13300 0.83313
 H456 H 0.40079 0.10262 0.86716
 C457 C 0.56790 0.54770 0.91933
 C458 C 0.59033 0.55443 0.90009
 C459 C 0.61307 0.54988 0.90743
 C460 C 0.61317 0.53876 0.93471
 C461 C 0.59053 0.53174 0.95391
 C462 C 0.56745 0.53578 0.94626
 C463 C 0.63478 0.55463 0.88528
 C464 C 0.66166 0.56054 0.89116
 C465 C 0.68217 0.56357 0.86833
 C466 C 0.71181 0.58263 0.87227
 C467 C 0.73157 0.58557 0.85107
 C468 C 0.72201 0.56904 0.82583
 C469 C 0.69243 0.54957 0.82213
 C470 C 0.67268 0.54691 0.84310
 H471 H 0.55041 0.55097 0.91268
 H472 H 0.58967 0.56279 0.87916
 H473 H 0.63000 0.53433 0.94085
 H474 H 0.59073 0.52247 0.97444
 H475 H 0.62841 0.55382 0.86311
 H476 H 0.66930 0.56432 0.91309
 H477 H 0.71963 0.59545 0.89165
 H478 H 0.75433 0.60060 0.85438
 H479 H 0.68468 0.53624 0.80305
 H480 H 0.65008 0.53131 0.83980
 C481 C 0.98532 0.42714 0.92040
 C482 C 0.96993 0.40243 0.90344
 C483 C 0.94294 0.37979 0.91227
 C484 C 0.93227 0.38180 0.93921
 C485 C 0.94750 0.40657 0.95609
 C486 C 0.97402 0.42984 0.94673
 C487 C 0.92658 0.35486 0.89262
 C488 C 0.89786 0.33728 0.89405
 C489 C 0.88076 0.31434 0.87269
 C490 C 0.85101 0.30406 0.87081
 C491 C 0.83415 0.28365 0.85009
 C492 C 0.84670 0.27300 0.83091
 C493 C 0.87617 0.28231 0.83331
 C494 C 0.89308 0.30272 0.85410
 H495 H 1.00576 0.44439 0.91249
 H496 H 0.97887 0.40131 0.88297
 H497 H 0.91220 0.36440 0.94749
 H498 H 0.93825 0.40748 0.97644
 H499 H 0.93848 0.35261 0.87508
 H500 H 0.88572 0.34115 0.91019
 H501 H 0.84087 0.31238 0.88499
 H502 H 0.81141 0.27664 0.84854
 H503 H 0.88609 0.27403 0.81881
 H504 H 0.91566 0.30921 0.85542
 C505 C 0.51227 0.92561 0.46696
 C506 C 0.51829 0.90764 0.45015
 C507 C 0.53557 0.91835 0.42562
 C508 C 0.54705 0.94759 0.41833
 C509 C 0.54086 0.96554 0.43496
 C510 C 0.52300 0.95471 0.45929
 C511 C 0.53916 0.89800 0.40687
 C512 C 0.56162 0.90623 0.38913
 C513 C 0.56357 0.88626 0.36845
 C514 C 0.59086 0.89180 0.35941
 C515 C 0.59336 0.87433 0.33861
 C516 C 0.56859 0.85136 0.32624
 C517 C 0.54131 0.84579 0.33510
 C518 C 0.53876 0.86302 0.35608
 H519 H 0.49847 0.91637 0.48549
 H520 H 0.50905 0.88515 0.45610
 H521 H 0.55984 0.95645 0.39915
 H522 H 0.54954 0.98775 0.42824
 H523 H 0.52273 0.87537 0.40802
 H524 H 0.57953 0.92823 0.38998
 H525 H 0.61025 0.90977 0.36834
 H526 H 0.61458 0.87904 0.33173
 H527 H 0.52202 0.82835 0.32539
 H528 H 0.51741 0.85869 0.36183
 C529 C 0.43714 0.46340 0.42161
 C530 C 0.41337 0.45295 0.40325
 C531 C 0.38842 0.45339 0.41154
 C532 C 0.38737 0.46355 0.43911
 C533 C 0.41118 0.47411 0.45740
 C534 C 0.43643 0.47443 0.44876
 C535 C 0.36418 0.44312 0.39086
 C536 C 0.34416 0.45113 0.39202
 C537 C 0.32135 0.44305 0.37007
 C538 C 0.30862 0.46031 0.36735
 C539 C 0.28785 0.45431 0.34630
 C540 C 0.27926 0.43079 0.32769
 C541 C 0.29115 0.41286 0.33087
 C542 C 0.31197 0.41884 0.35194
 H543 H 0.45622 0.46321 0.41435
 H544 H 0.41467 0.44498 0.38228
 H545 H 0.36822 0.46325 0.44683
 H546 H 0.40979 0.48207 0.47836
 H547 H 0.36427 0.43031 0.37295
 H548 H 0.34563 0.46607 0.40849
 H549 H 0.31520 0.47888 0.38118
 H550 H 0.27882 0.46832 0.34417
 H551 H 0.28447 0.39441 0.31685
 H552 H 0.32045 0.40439 0.35396
 C553 C 0.02764 0.56072 0.42948
 C554 C 0.04117 0.58247 0.40903
 C555 C 0.06741 0.60756 0.41521
 C556 C 0.07979 0.61067 0.44251
 C557 C 0.06637 0.58872 0.46294
 C558 C 0.04032 0.56335 0.45650
 C559 C 0.08226 0.62868 0.39194
 C560 C 0.10101 0.65679 0.39644
 C561 C 0.11664 0.67693 0.37266
 C562 C 0.12432 0.70607 0.37509
 C563 C 0.13973 0.72563 0.35318
 C564 C 0.14823 0.71644 0.32874
 C565 C 0.14086 0.68738 0.32645
 C566 C 0.12515 0.66777 0.34813
 H567 H 0.00766 0.54142 0.42375
 H568 H 0.03130 0.57949 0.38811
 H569 H 0.10036 0.62943 0.44777
 H570 H 0.07675 0.59131 0.48350
 H571 H 0.07690 0.62074 0.37014
 H572 H 0.10434 0.66559 0.41793
 H573 H 0.11825 0.71367 0.39390
 H574 H 0.14537 0.74801 0.35541
 H575 H 0.14768 0.67998 0.30803
 H576 H 0.12041 0.64567 0.34600
 C577 C 0.98168 0.53915 0.91423
 C578 C 0.96555 0.54554 0.89529
 C579 C 0.93898 0.54229 0.90367
 C580 C 0.92888 0.53270 0.93162
 C581 C 0.94492 0.52601 0.95054
 C582 C 0.97135 0.52887 0.94193
 C583 C 0.92156 0.54696 0.88204
 C584 C 0.90177 0.55433 0.88853
 C585 C 0.88411 0.55781 0.86625
 C586 C 0.87519 0.57812 0.87032
 C587 C 0.85848 0.58174 0.84954
 C588 C 0.84998 0.56470 0.82459
 C589 C 0.85831 0.54390 0.82084
 C590 C 0.87528 0.54053 0.84140
 H591 H 1.00187 0.54146 0.90684
 H592 H 0.97370 0.55271 0.87382
 H593 H 0.90815 0.52927 0.93860
 H594 H 0.93632 0.51800 0.97169
 H595 H 0.92596 0.54505 0.85972
 H596 H 0.89922 0.55920 0.91050
 H597 H 0.88146 0.59143 0.88944
 H598 H 0.85212 0.59778 0.85290
 H599 H 0.85151 0.53016 0.80201
 H600 H 0.88096 0.52399 0.83805
 C601 C 0.45167 0.43588 0.92081
 C602 C 0.44259 0.41216 0.90245
 C603 C 0.44707 0.38928 0.90963
 C604 C 0.45954 0.38990 0.93632
 C605 C 0.46876 0.41361 0.95462
 C606 C 0.46545 0.43722 0.94693
 C607 C 0.43872 0.36540 0.88874
 C608 C 0.45101 0.34889 0.88814
 C609 C 0.44486 0.32657 0.86601
 C610 C 0.46518 0.31771 0.86171
 C611 C 0.46086 0.29736 0.84063
 C612 C 0.43599 0.28532 0.82356
 C613 C 0.41522 0.29347 0.82819
 C614 C 0.41951 0.31385 0.84931
 H615 H 0.44844 0.45342 0.91416
 H616 H 0.43266 0.41204 0.88220
 H617 H 0.46226 0.37215 0.94326
 H618 H 0.47876 0.41347 0.97473
 H619 H 0.42366 0.36305 0.87210
 H620 H 0.46799 0.35316 0.90327
 H621 H 0.48474 0.32693 0.87440
 H622 H 0.47707 0.29125 0.83733
 H623 H 0.39578 0.28413 0.81532
 H624 H 0.40286 0.31930 0.85253
 C625 C 0.58632 0.06985 0.96899
 C626 C 0.61142 0.08643 0.95305
 C627 C 0.61473 0.07729 0.92580
 C628 C 0.59234 0.05091 0.91493
 C629 C 0.56729 0.03427 0.93093
 C630 C 0.56385 0.04371 0.95799
 C631 C 0.64072 0.09685 0.90876
 C632 C 0.64949 0.08842 0.88560
 C633 C 0.67373 0.10854 0.86689
 C634 C 0.68546 0.09696 0.84765
 C635 C 0.70670 0.11474 0.82804
 C636 C 0.71654 0.14445 0.82725
 C637 C 0.70532 0.15626 0.84668
 C638 C 0.68401 0.13851 0.86624
 H639 H 0.58434 0.07776 0.98976
 H640 H 0.62817 0.10673 0.96188
 H641 H 0.59345 0.04336 0.89373
 H642 H 0.55027 0.01436 0.92173
 H643 H 0.65308 0.11905 0.91594
 H644 H 0.63871 0.06576 0.87992
 H645 H 0.67781 0.07398 0.84748
 H646 H 0.71509 0.10529 0.81307
 H647 H 0.71248 0.17913 0.84608
 H648 H 0.67506 0.14832 0.87994
 C649 C 0.07566 0.47377 0.47117
 C650 C 0.09146 0.46568 0.45357
 C651 C 0.07986 0.45085 0.42776
 C652 C 0.05158 0.44367 0.42022
 C653 C 0.03563 0.45160 0.43794
 C654 C 0.04763 0.46722 0.46344
 C655 C 0.09880 0.44521 0.40884
 C656 C 0.08994 0.42867 0.38517
 C657 C 0.10998 0.42575 0.36531
 C658 C 0.09889 0.40198 0.34653
 C659 C 0.11675 0.39936 0.32638
 C660 C 0.14600 0.42058 0.32457
 C661 C 0.15724 0.44425 0.34334
 C662 C 0.13943 0.44695 0.36341
 H663 H 0.08573 0.48563 0.49064
 H664 H 0.11316 0.47157 0.45995
 H665 H 0.04179 0.43274 0.40036
 H666 H 0.01416 0.44614 0.43116
 H667 H 0.12127 0.45539 0.41496
 H668 H 0.06725 0.41642 0.37998
 H669 H 0.07627 0.38553 0.34730
 H670 H 0.10772 0.38102 0.31190
 H671 H 0.17970 0.46101 0.34191
 H672 H 0.14872 0.46616 0.37664
 C673 C 0.53219 0.60345 0.46561
 C674 C 0.54063 0.62791 0.44857
 C675 C 0.55208 0.62963 0.42113
 C676 C 0.55642 0.60717 0.41162
 C677 C 0.54831 0.58291 0.42875
 C678 C 0.53559 0.58052 0.45570
 C679 C 0.55890 0.65474 0.40267
 C680 C 0.55499 0.65203 0.37422
 C681 C 0.55951 0.67606 0.35525
 C682 C 0.54285 0.66951 0.33026
 C683 C 0.54659 0.69141 0.31153
 C684 C 0.56756 0.72028 0.31708
 C685 C 0.58456 0.72692 0.34190
 C686 C 0.58050 0.70500 0.36094
 H687 H 0.52265 0.60234 0.48637
 H688 H 0.53737 0.64511 0.45645
 H689 H 0.56602 0.60826 0.39091
 H690 H 0.55142 0.56573 0.42055
 H691 H 0.56488 0.67516 0.41296
 H692 H 0.54604 0.63082 0.36452
 H693 H 0.52666 0.64738 0.32535
 H694 H 0.53315 0.68585 0.29259
 H695 H 0.60099 0.74905 0.34643
 H696 H 0.59416 0.71066 0.37969
 C697 C 0.43358 0.97878 0.41991
 C698 C 0.41126 0.96461 0.40006
 C699 C 0.38574 0.93932 0.40762
 C700 C 0.38279 0.92864 0.43569
 C701 C 0.40519 0.94273 0.45551
 C702 C 0.43099 0.96772 0.44772
 C703 C 0.36397 0.92340 0.38506
 C704 C 0.33615 0.90443 0.39045
 C705 C 0.31554 0.88675 0.36766
 C706 C 0.28607 0.87710 0.37118
 C707 C 0.26604 0.85945 0.35045
 C708 C 0.27515 0.85081 0.32609
 C709 C 0.30455 0.86014 0.32271
 C710 C 0.32456 0.87796 0.34324
 H711 H 0.45320 0.99793 0.41318
 H712 H 0.41415 0.97316 0.37853
 H713 H 0.36380 0.90878 0.44214
 H714 H 0.40258 0.93358 0.47673
 H715 H 0.37131 0.92775 0.36304
 H716 H 0.32790 0.90203 0.41206
 H717 H 0.27856 0.88328 0.38998
 H718 H 0.24341 0.85229 0.35350
 H719 H 0.31192 0.85326 0.30432
 H720 H 0.34694 0.88408 0.34031
 C721 C 0.50750 0.92777 0.03839
 C722 C 0.51401 0.91096 0.05631
 C723 C 0.53031 0.92278 0.08130
 C724 C 0.54017 0.95194 0.08801
 C725 C 0.53343 0.96870 0.07021
 C726 C 0.51679 0.95672 0.04536
 C727 C 0.53471 0.90357 0.10082
 C728 C 0.55691 0.91301 0.11912
 C729 C 0.56002 0.89345 0.13931
 C730 C 0.58773 0.89964 0.14755
 C731 C 0.59121 0.88167 0.16685
 C732 C 0.56700 0.85757 0.17855
 C733 C 0.53931 0.85165 0.17086
 C734 C 0.53580 0.86937 0.15134
 H735 H 0.49450 0.91783 0.01949
 H736 H 0.50598 0.88851 0.05079
 H737 H 0.55215 0.96158 0.10749
 H738 H 0.54077 0.99089 0.07624
 H739 H 0.51937 0.88061 0.09942
 H740 H 0.57395 0.93543 0.11864
 H741 H 0.60667 0.91825 0.13884
 H742 H 0.61272 0.88660 0.17283
 H743 H 0.52044 0.83330 0.18003
 H744 H 0.51415 0.86453 0.14617
 C745 C 0.40345 0.47843 0.03134
 C746 C 0.37930 0.46991 0.04873
 C747 C 0.37758 0.45794 0.07589
 C748 C 0.40057 0.45432 0.08516
 C749 C 0.42468 0.46272 0.06766
 C750 C 0.42655 0.47521 0.04073
 C751 C 0.35249 0.45154 0.09435
 C752 C 0.34542 0.43560 0.11832
 C753 C 0.32176 0.43153 0.13781
 C754 C 0.31073 0.40856 0.15744
 C755 C 0.28975 0.40502 0.17740
 C756 C 0.27954 0.42452 0.17815
 C757 C 0.29023 0.44732 0.15846
 C758 C 0.31125 0.45093 0.13856
 H759 H 0.40418 0.48796 0.01069
 H760 H 0.36206 0.47312 0.04106
 H761 H 0.40065 0.44594 0.10617
 H762 H 0.44224 0.46017 0.07560
 H763 H 0.33921 0.46033 0.08749
 H764 H 0.35699 0.42462 0.12400
 H765 H 0.31860 0.39347 0.15755
 H766 H 0.28180 0.38739 0.19259
 H767 H 0.28281 0.46276 0.15904
 H768 H 0.31977 0.46951 0.12460
 C769 C 0.07748 0.59688 0.02781
 C770 C 0.09240 0.62091 0.04581
 C771 C 0.08187 0.62113 0.07328
 C772 C 0.05532 0.59752 0.08188
 C773 C 0.04030 0.57366 0.06384
 C774 C 0.05145 0.57282 0.03681
 C775 C 0.09897 0.64599 0.09264
 C776 C 0.09936 0.64274 0.12109
 C777 C 0.11729 0.66667 0.14107
 C778 C 0.12610 0.66009 0.16687
 C779 C 0.14253 0.68183 0.18666
 C780 C 0.14998 0.71055 0.18132
 C781 C 0.14105 0.71724 0.15561
 C782 C 0.12488 0.69550 0.13559
 H783 H 0.08653 0.59697 0.00704
 H784 H 0.11264 0.63900 0.03859
 H785 H 0.04612 0.59741 0.10255
 H786 H 0.02019 0.55560 0.07136
 H787 H 0.11313 0.66684 0.08303
 H788 H 0.08743 0.62123 0.13013
 H789 H 0.12042 0.63805 0.17164
 H790 H 0.14938 0.67624 0.20626
 H791 H 0.14646 0.73926 0.15119
 H792 H 0.11783 0.70120 0.11622
 C793 C 0.47854 0.07653 0.52971
 C794 C 0.47091 0.09410 0.54513
 C795 C 0.45589 0.08466 0.57116
 C796 C 0.44844 0.05701 0.58134
 C797 C 0.45598 0.03940 0.56585
 C798 C 0.47139 0.04908 0.54003
 C799 C 0.45051 0.10510 0.58793
 C800 C 0.43148 0.09707 0.60955
 C801 C 0.42861 0.11773 0.62865
 C802 C 0.40440 0.10711 0.64670
 C803 C 0.40214 0.12506 0.66707
 C804 C 0.42411 0.15397 0.66977
 C805 C 0.44793 0.16495 0.65136
 C806 C 0.45030 0.14703 0.63107
 H807 H 0.49044 0.08466 0.50990
 H808 H 0.47716 0.11536 0.53689
 H809 H 0.43771 0.04912 0.60168
 H810 H 0.45035 0.01846 0.57452
 H811 H 0.46289 0.12763 0.58197
 H812 H 0.41729 0.07433 0.61381
 H813 H 0.38749 0.08465 0.64549
 H814 H 0.38369 0.11625 0.68129
 H815 H 0.46521 0.18717 0.65346
 H816 H 0.46972 0.15608 0.61833
 C817 C 0.56946 0.54791 0.57938
 C818 C 0.59105 0.55483 0.59975
 C819 C 0.61539 0.55267 0.59308
 C820 C 0.61793 0.54378 0.56535
 C821 C 0.59620 0.53665 0.54500
 C822 C 0.57154 0.53826 0.55193
 C823 C 0.63626 0.55746 0.61620
 C824 C 0.66380 0.56492 0.61149
 C825 C 0.68358 0.56754 0.63494
 C826 C 0.71331 0.58672 0.63190
 C827 C 0.73255 0.58889 0.65330
 C828 C 0.72241 0.57155 0.67790
 C829 C 0.69273 0.55214 0.68083
 C830 C 0.67347 0.55017 0.65962
 H831 H 0.55070 0.54928 0.58548
 H832 H 0.58848 0.56143 0.62100
 H833 H 0.63601 0.54113 0.55962
 H834 H 0.59837 0.52913 0.52409
 H835 H 0.62859 0.55519 0.63805
 H836 H 0.67251 0.57008 0.58999
 H837 H 0.72163 0.60007 0.61296
 H838 H 0.75540 0.60387 0.65059
 H839 H 0.68454 0.53818 0.69939
 H840 H 0.65082 0.53444 0.66223
 C841 C 0.98381 0.42873 0.58634
 C842 C 0.96959 0.40540 0.60516
 C843 C 0.94389 0.38053 0.59692
 C844 C 0.93356 0.37881 0.56885
 C845 C 0.94766 0.40214 0.55013
 C846 C 0.97263 0.42755 0.55883
 C847 C 0.92825 0.35716 0.61818
 C848 C 0.89962 0.33908 0.61705
 C849 C 0.88283 0.31719 0.63923
 C850 C 0.85300 0.30653 0.64077
 C851 C 0.83620 0.28632 0.66155
 C852 C 0.84885 0.27619 0.68112
 C853 C 0.87851 0.28621 0.67937
 C854 C 0.89541 0.30651 0.65855
 H855 H 1.00309 0.44796 0.59363
 H856 H 0.97822 0.40714 0.62651
 H857 H 0.91455 0.35957 0.56122
 H858 H 0.93878 0.40035 0.52890
 H859 H 0.94040 0.35656 0.63639
 H860 H 0.88730 0.34166 0.60014
 H861 H 0.84270 0.31418 0.62606
 H862 H 0.81331 0.27877 0.66260
 H863 H 0.88853 0.27835 0.69417
 H864 H 0.91812 0.31345 0.65756
   
