data_POSCAR
  _audit_creation_date              2014-09-24
  _audit_creation_method            'ToBaCCo'
  _symmetry_space_group_name_H-M    'P1'
  _symmetry_Int_Tables_number       1
  _symmetry_cell_setting            triclinic
  loop_
  _symmetry_equiv_pos_as_xyz
 x,y,z
_cell_length_a 9.0759
_cell_length_b 9.1333
_cell_length_c 17.1473
_cell_angle_alpha 86.850200
_cell_angle_beta 90.206200
_cell_angle_gamma 95.841400
loop_
  _atom_site_label
  _atom_site_type_symbol
  _atom_site_fract_x
  _atom_site_fract_y
  _atom_site_fract_z
O1 O -0.09591 0.64297 0.92568
 O2 O -0.16629 0.34522 1.07840
 O3 O -0.08024 0.62678 1.07816
 O4 O -0.14845 0.35629 0.92737
 O5 O 0.08978 0.32555 0.92694
 O6 O 0.15762 0.59481 1.07814
 O7 O 0.07147 0.31337 1.07931
 O8 O 0.14229 0.61199 0.92706
 Cu9 Cu -0.14605 0.49648 1.00228
 Cu10 Cu 0.13860 0.45773 1.00283
 C11 C 0.03484 0.67870 0.90065
 C12 C -0.05978 0.27770 1.10472
 C13 C 0.05061 0.65734 1.10367
 C14 C -0.04051 0.29456 0.90165
 O15 O 0.61359 -0.13543 0.56935
 O16 O 0.34202 -0.07956 0.41963
 O17 O 0.63053 -0.06312 0.42103
 O18 O 0.34057 -0.05161 0.57325
 O19 O 0.39638 0.18953 0.57294
 O20 O 0.68058 0.17750 0.42821
 O21 O 0.38801 0.16190 0.42203
 O22 O 0.66479 0.10427 0.57864
 Cu23 Cu 0.47504 -0.10468 0.49632
 Cu24 Cu 0.53734 0.17938 0.50064
 C25 C 0.68647 -0.02854 0.59989
 C26 C 0.31655 0.04791 0.39477
 C27 C 0.70622 0.05850 0.39959
 C28 C 0.31945 0.07432 0.59827
 C29 C -0.00685 -0.04502 0.25013
 C30 C -0.00103 0.00346 0.74888
 C31 C 0.08028 -0.23093 0.16204
 C32 C -0.02975 -0.17655 0.19939
 H33 H 0.19431 -0.18980 0.17284
 H34 H -0.14294 -0.21699 0.18562
 C35 C -0.08891 0.16248 0.16129
 C36 C 0.01920 0.09017 0.19397
 H37 H -0.20301 0.13056 0.17827
 H38 H 0.13259 0.12014 0.17471
 C39 C 0.20404 0.09268 0.65578
 C40 C 0.12798 -0.01940 0.69578
 H41 H 0.18014 0.20427 0.66518
 H42 H 0.14916 -0.13102 0.68433
 C43 C -0.20863 -0.06143 0.65606
 C44 C -0.12803 0.04055 0.69538
 H45 H -0.19085 -0.17633 0.66720
 H46 H -0.14227 0.15600 0.68265
 C47 C 0.06601 -0.19899 0.84195
 C48 C -0.03966 -0.13471 0.80167
 H49 H 0.18130 -0.15826 0.83255
 H50 H -0.15519 -0.17250 0.81277
 C51 C -0.07041 0.18380 0.84322
 C52 C 0.03623 0.12873 0.80303
 H53 H -0.18543 0.14488 0.83336
 H54 H 0.15149 0.16481 0.81429
 C55 C -0.17231 0.06579 0.34249
 C56 C -0.14317 -0.04857 0.30210
 H57 H -0.10334 0.16942 0.33400
 H58 H -0.21106 -0.15254 0.31282
 C59 C 0.20059 0.06320 0.33531
 C60 C 0.12574 -0.05524 0.30427
 H61 H 0.17313 0.17326 0.31879
 H62 H 0.15144 -0.16474 0.32370
   
