data_POSCAR
  _audit_creation_date              2014-09-24
  _audit_creation_method            'ToBaCCo'
  _symmetry_space_group_name_H-M    'P1'
  _symmetry_Int_Tables_number       1
  _symmetry_cell_setting            triclinic
  loop_
  _symmetry_equiv_pos_as_xyz
 x,y,z
_cell_length_a 12.9845
_cell_length_b 20.2373
_cell_length_c 13.2340
_cell_angle_alpha 88.956100
_cell_angle_beta 89.511900
_cell_angle_gamma 90.194500
loop_
  _atom_site_label
  _atom_site_type_symbol
  _atom_site_fract_x
  _atom_site_fract_y
  _atom_site_fract_z
N1 N 0.13750 0.10901 0.10353
 N2 N 0.16770 0.17008 0.12164
 N3 N 0.16334 -0.04175 0.15357
 N4 N 0.20729 -0.09301 0.19789
 N5 N 0.22189 -0.01766 0.08012
 N6 N 0.30731 -0.05255 0.07226
 N7 N 0.08408 0.08461 0.18003
 N8 N 0.07615 0.12824 0.25226
 C9 C 0.12809 0.18117 0.21473
 C10 C 0.29723 -0.09873 0.14699
 N11 N -0.11815 -0.11077 0.11584
 N12 N -0.14819 -0.17284 0.12936
 N13 N -0.11908 0.03171 0.19804
 N14 N -0.12887 0.09047 0.23713
 N15 N -0.19758 0.01890 0.13882
 N16 N -0.26719 0.07210 0.14292
 N17 N -0.04060 -0.09726 0.17496
 N18 N -0.01535 -0.14954 0.23007
 Mn19 Mn 0.02168 -0.00642 0.17740
 C20 C -0.08283 -0.19625 0.20067
 C21 C -0.21884 0.11486 0.20457
 N22 N 0.19786 -0.00357 -0.13473
 N23 N 0.28617 -0.04093 -0.14602
 N24 N 0.03900 0.10305 -0.17707
 N25 N 0.01279 0.15382 -0.23507
 N26 N 0.11063 0.12037 -0.11317
 N27 N 0.13673 0.18306 -0.12741
 N28 N 0.12461 -0.02645 -0.19244
 N29 N 0.15728 -0.07958 -0.24088
 Mn30 Mn 0.16747 0.05271 -0.01601
 C31 C 0.25702 -0.08733 -0.21164
 C32 C 0.07423 0.20323 -0.20329
 N33 N -0.22227 0.02767 -0.07972
 N34 N -0.30481 0.06505 -0.07137
 N35 N -0.08166 -0.08096 -0.17331
 N36 N -0.06936 -0.12764 -0.24046
 N37 N -0.14410 -0.10066 -0.10016
 N38 N -0.17879 -0.16480 -0.11901
 N39 N -0.16420 0.04790 -0.15621
 N40 N -0.20570 0.10034 -0.20080
 Mn41 Mn -0.17178 -0.04141 0.01889
 Mn42 Mn -0.02053 0.01057 -0.17640
 Cl43 Cl -0.00087 0.00393 0.00076
 C44 C -0.29397 0.10980 -0.14774
 C45 C -0.12903 -0.17866 -0.20676
 N46 N 0.69183 0.52529 0.61954
 N47 N 0.77380 0.56392 0.61923
 N48 N 0.53297 0.41893 0.69178
 N49 N 0.51187 0.37252 0.76049
 N50 N 0.60304 0.39818 0.62795
 N51 N 0.63221 0.33748 0.65154
 N52 N 0.62197 0.54712 0.68312
 N53 N 0.65520 0.60131 0.72730
 C54 C 0.75087 0.61045 0.68780
 C55 C 0.57430 0.32201 0.73396
 N56 N 0.27110 0.49427 0.59550
 N57 N 0.18562 0.45885 0.59706
 N58 N 0.41980 0.60392 0.66336
 N59 N 0.43377 0.65443 0.72315
 N60 N 0.35970 0.62068 0.58789
 N61 N 0.32949 0.68276 0.59532
 N62 N 0.33116 0.47627 0.67055
 N63 N 0.28847 0.42746 0.72400
 Mn64 Mn 0.47630 0.51156 0.67859
 C65 C 0.19702 0.41799 0.67809
 C66 C 0.37691 0.70303 0.68000
 N67 N 0.61725 0.39010 0.41212
 N68 N 0.66274 0.33308 0.39694
 N69 N 0.64955 0.53428 0.32753
 N70 N 0.69352 0.58215 0.27302
 N71 N 0.70883 0.51652 0.40306
 N72 N 0.79523 0.55091 0.40093
 N73 N 0.56091 0.40669 0.33377
 N74 N 0.56862 0.36152 0.26298
 Mn75 Mn 0.65595 0.45718 0.51582
 C76 C 0.62963 0.31453 0.30501
 C77 C 0.78506 0.59113 0.31906
 N78 N 0.37904 0.61327 0.37067
 N79 N 0.35580 0.67530 0.34866
 N80 N 0.35926 0.46464 0.31591
 N81 N 0.32677 0.40997 0.27316
 N82 N 0.28901 0.48692 0.37872
 N83 N 0.20728 0.44823 0.37966
 N84 N 0.44933 0.59151 0.30772
 N85 N 0.47653 0.63811 0.24176
 Mn86 Mn 0.32370 0.55430 0.48288
 Mn87 Mn 0.50459 0.49927 0.32001
 Cl88 Cl 0.49012 0.50556 0.49949
 C89 C 0.41766 0.68994 0.26839
 C90 C 0.23116 0.40123 0.31252
 C91 C 0.13127 0.24454 0.26571
 C92 C 0.06653 0.26032 0.34472
 C93 C 0.09200 0.32319 0.36870
 C94 C 0.17145 0.34043 0.30365
 O95 O 0.19558 0.29291 0.24061
 H96 H 0.00761 0.22965 0.38024
 H97 H 0.05920 0.35223 0.42866
 C98 C 0.91344 0.73684 0.24503
 C99 C 0.98836 0.71160 0.30788
 C100 C 0.95181 0.65169 0.34009
 C101 C 0.85737 0.64497 0.29458
 O102 O 0.83371 0.69651 0.23645
 H103 H 1.05960 0.73501 0.32989
 H104 H 0.98774 0.61795 0.39335
 C105 C 0.63770 0.16703 0.83878
 C106 C 0.55344 0.17943 0.89970
 C107 C 0.51708 0.23932 0.86767
 C108 C 0.58182 0.25879 0.78956
 O109 O 0.65515 0.21509 0.77172
 H110 H 0.52372 0.14913 0.96164
 H111 H 0.45217 0.26599 0.89830
 C112 C 0.31885 0.86194 0.76595
 C113 C 0.41685 0.85566 0.80541
 C114 C 0.45091 0.79578 0.77613
 C115 C 0.37247 0.77004 0.71964
 O116 O 0.29176 0.81001 0.71240
 H117 H 0.45749 0.88976 0.85313
 H118 H 0.52368 0.77293 0.79506
 C119 C 0.07505 0.26977 0.75091
 C120 C 0.00006 0.29299 0.68638
 C121 C 0.03375 0.35369 0.65441
 C122 C 0.12692 0.36271 0.70145
 O123 O 0.15220 0.31198 0.76055
 H124 H -0.06947 0.26789 0.66351
 H125 H -0.00325 0.38651 0.60055
 C126 C 0.86287 0.76427 0.74387
 C127 C 0.92167 0.74957 0.65973
 C128 C 0.89025 0.68856 0.63170
 C129 C 0.81341 0.67064 0.69935
 O130 O 0.79657 0.71634 0.76827
 H131 H 0.98048 0.77976 0.62296
 H132 H 0.91755 0.66126 0.56729
 C133 C 0.36641 0.84538 0.16237
 C134 C 0.45226 0.83216 0.10429
 C135 C 0.48553 0.77181 0.13804
 C136 C 0.41726 0.75343 0.21402
 O137 O 0.34519 0.79790 0.22896
 H138 H 0.48437 0.86179 0.04280
 H139 H 0.55007 0.74390 0.10931
 C140 C 0.76163 0.17964 0.21029
 C141 C 0.84044 0.22544 0.21289
 C142 C 0.79572 0.28365 0.23348
 C143 C 0.69263 0.26961 0.24528
 O144 O 0.67042 0.20627 0.22968
 H145 H 0.92167 0.21703 0.20170
 H146 H 0.83486 0.32974 0.24848
   
