data_POSCAR
  _audit_creation_date              2014-09-24
  _audit_creation_method            'ToBaCCo'
  _symmetry_space_group_name_H-M    'P1'
  _symmetry_Int_Tables_number       1
  _symmetry_cell_setting            triclinic
  loop_
  _symmetry_equiv_pos_as_xyz
 x,y,z
_cell_length_a 42.1002
_cell_length_b 41.7688
_cell_length_c 42.0837
_cell_angle_alpha 89.984000
_cell_angle_beta 90.032300
_cell_angle_gamma 89.958300
loop_
  _atom_site_label
  _atom_site_type_symbol
  _atom_site_fract_x
  _atom_site_fract_y
  _atom_site_fract_z
C1 C 0.33902 0.33619 1.37672
 C2 C 0.31148 0.34831 1.39121
 C3 C 0.29559 0.37547 1.37888
 C4 C 0.30852 0.39037 1.35161
 C5 C 0.33594 0.37842 1.33689
 C6 C 0.35122 0.35120 1.34943
 C7 C 0.35408 0.30880 1.38886
 C8 C 0.38145 0.29581 1.37417
 C9 C 0.39343 0.31149 1.34689
 C10 C 0.37858 0.33887 1.33454
 C11 C 0.39062 0.35402 1.30732
 C12 C 0.37553 0.38121 1.29463
 C13 C 0.34825 0.39332 1.30968
 H14 H 0.30184 0.33538 1.41128
 H15 H 0.29808 0.41204 1.34213
 H16 H 0.34327 0.29693 1.40898
 H17 H 0.41504 0.30328 1.33561
 H18 H 0.41138 0.34421 1.29558
 H19 H 0.33667 0.41448 1.30025
 C20 C 1.16240 0.66489 0.87895
 C21 C 1.18982 0.65277 0.89368
 C22 C 1.20563 0.62540 0.88171
 C23 C 1.19283 0.61042 0.85441
 C24 C 1.16554 0.62240 0.83941
 C25 C 1.15029 0.64976 0.85169
 C26 C 1.14715 0.69218 0.89105
 C27 C 1.11982 0.70509 0.87619
 C28 C 1.10806 0.68943 0.84880
 C29 C 1.12303 0.66207 0.83657
 C30 C 1.11117 0.64692 0.80928
 C31 C 1.12634 0.61972 0.79672
 C32 C 1.15350 0.60759 0.81201
 H33 H 1.19794 0.66424 0.91526
 H34 H 1.20476 0.59024 0.84356
 H35 H 1.15781 0.70407 0.91125
 H36 H 1.08650 0.69759 0.83736
 H37 H 1.09049 0.65671 0.79738
 H38 H 1.16513 0.58641 0.80270
 C39 C 0.66122 -0.16306 0.12176
 C40 C 0.68863 -0.15097 0.10710
 C41 C 0.70422 -0.12393 0.11943
 C42 C 0.69194 -0.10887 0.14668
 C43 C 0.66462 -0.12074 0.16165
 C44 C 0.64922 -0.14798 0.14917
 C45 C 0.64595 -0.19026 0.10960
 C46 C 0.61865 -0.20315 0.12446
 C47 C 0.60695 -0.18754 0.15191
 C48 C 0.62197 -0.16026 0.16424
 C49 C 0.61019 -0.14517 0.19159
 C50 C 0.62544 -0.11807 0.20427
 C51 C 0.65264 -0.10598 0.18907
 H52 H 0.69773 -0.16248 0.08588
 H53 H 0.70405 -0.08829 0.15663
 H54 H 0.65659 -0.20209 0.08936
 H55 H 0.58541 -0.19571 0.16334
 H56 H 0.58950 -0.15494 0.20345
 H57 H 0.66436 -0.08491 0.19847
 C58 C -0.16300 1.16223 -0.37765
 C59 C -0.19043 1.15031 -0.39242
 C60 C -0.20630 1.12296 -0.38054
 C61 C -0.19351 1.10776 -0.35330
 C62 C -0.16614 1.11950 -0.33829
 C63 C -0.15081 1.14682 -0.35048
 C64 C -0.14765 1.18952 -0.38960
 C65 C -0.12039 1.20178 -0.37459
 C66 C -0.10838 1.18622 -0.34751
 C67 C -0.12339 1.15887 -0.33537
 C68 C -0.11158 1.14359 -0.30815
 C69 C -0.12686 1.11644 -0.29566
 C70 C -0.15411 1.10452 -0.31094
 H71 H -0.19852 1.16197 -0.41392
 H72 H -0.20550 1.08759 -0.34254
 H73 H -0.15735 1.20166 -0.41021
 H74 H -0.08717 1.19528 -0.33599
 H75 H -0.09085 1.15325 -0.29626
 H76 H -0.16582 1.08339 -0.30166
 C77 C 0.66417 0.66388 0.62234
 C78 C 0.69148 0.65139 0.60780
 C79 C 0.70660 0.62406 0.62015
 C80 C 0.69388 0.60904 0.64721
 C81 C 0.66654 0.62122 0.66195
 C82 C 0.65160 0.64873 0.64944
 C83 C 0.64939 0.69137 0.61017
 C84 C 0.62204 0.70451 0.62472
 C85 C 0.60967 0.68875 0.65179
 C86 C 0.62422 0.66119 0.66416
 C87 C 0.61209 0.64624 0.69144
 C88 C 0.62694 0.61894 0.70421
 C89 C 0.65413 0.60652 0.68921
 H90 H 0.70094 0.66289 0.58674
 H91 H 0.70564 0.58825 0.65719
 H92 H 0.65891 0.70169 0.58860
 H93 H 0.58953 0.69855 0.66447
 H94 H 0.59140 0.65624 0.70312
 H95 H 0.66551 0.58527 0.69866
 C96 C 0.83759 0.33750 0.12392
 C97 C 0.81005 0.34985 0.10959
 C98 C 0.79428 0.37695 0.12218
 C99 C 0.80731 0.39152 0.14959
 C100 C 0.83475 0.37934 0.16416
 C101 C 0.84991 0.35220 0.15132
 C102 C 0.85253 0.31018 0.11149
 C103 C 0.87991 0.29698 0.12600
 C104 C 0.89202 0.31235 0.15339
 C105 C 0.87729 0.33965 0.16603
 C106 C 0.88948 0.35449 0.19335
 C107 C 0.87453 0.38161 0.20633
 C108 C 0.84721 0.39394 0.19149
 H109 H 0.80032 0.33714 0.08942
 H110 H 0.79695 0.41312 0.15930
 H111 H 0.84162 0.29855 0.09128
 H112 H 0.91366 0.30399 0.16454
 H113 H 0.91026 0.34451 0.20493
 H114 H 0.83572 0.41503 0.20114
 C115 C 0.33575 0.16494 0.87612
 C116 C 0.30831 0.15254 0.89048
 C117 C 0.29250 0.12552 0.87779
 C118 C 0.30545 0.11104 0.85028
 C119 C 0.33286 0.12321 0.83571
 C120 C 0.34803 0.15028 0.84860
 C121 C 0.35076 0.19220 0.88856
 C122 C 0.37793 0.20500 0.87387
 C123 C 0.39018 0.19003 0.84658
 C124 C 0.37539 0.16286 0.83383
 C125 C 0.38739 0.14825 0.80636
 C126 C 0.37235 0.12125 0.79327
 C127 C 0.34518 0.10877 0.80822
 H128 H 0.29866 0.16519 0.91073
 H129 H 0.29506 0.08950 0.84050
 H130 H 0.34091 0.20386 0.90935
 H131 H 0.41135 0.19948 0.83533
 H132 H 0.40858 0.15780 0.79523
 H133 H 0.33320 0.08824 0.79802
 C134 C 0.16187 0.83425 0.37705
 C135 C 0.18964 0.84627 0.39117
 C136 C 0.20514 0.87315 0.37838
 C137 C 0.19238 0.88816 0.35132
 C138 C 0.16474 0.87636 0.33691
 C139 C 0.14944 0.84926 0.34978
 C140 C 0.14676 0.80710 0.38952
 C141 C 0.11916 0.79425 0.37516
 C142 C 0.10699 0.80985 0.34788
 C143 C 0.12187 0.83705 0.33521
 C144 C 0.10966 0.85211 0.30799
 C145 C 0.12481 0.87909 0.29496
 C146 C 0.15230 0.89112 0.30969
 H147 H 0.19955 0.83433 0.41179
 H148 H 0.20392 0.90915 0.34154
 H149 H 0.15773 0.79528 0.40962
 H150 H 0.08522 0.80174 0.33685
 H151 H 0.08873 0.84240 0.29650
 H152 H 0.16394 0.91212 0.30003
 Zn153 Zn 0.03839 0.98209 0.00622
 Zn154 Zn 0.00487 1.03991 -0.01873
 Zn155 Zn -0.02557 0.97528 -0.02432
 Zn156 Zn -0.01932 1.00686 0.03931
 O157 O -0.00044 1.00101 0.00059
 O158 O 0.07054 1.00587 -0.00862
 O159 O -0.01548 1.04244 -0.05596
 O160 O -0.00584 0.93910 -0.03635
 O161 O 0.04563 1.04871 -0.02727
 O162 O 0.04144 0.94444 -0.01375
 O163 O -0.03802 0.99468 -0.06031
 O164 O -0.05658 0.98661 0.04239
 O165 O -0.00973 1.07262 0.00466
 O166 O -0.06136 0.96302 -0.00455
 O167 O -0.02758 1.04807 0.04779
 O168 O 0.00426 0.99221 0.07165
 O169 O 0.04713 0.97389 0.04709
 C170 C 0.07087 1.03295 -0.02223
 C171 C -0.03247 1.02250 -0.07100
 C172 C 0.02193 0.92882 -0.03063
 C173 C -0.07180 0.96917 0.02304
 C174 C -0.02282 1.07331 0.03177
 C175 C 0.03128 0.97883 0.07221
 Zn176 Zn 0.51786 -0.00620 0.53870
 Zn177 Zn 0.52453 0.02478 0.47481
 Zn178 Zn 0.49404 -0.03977 0.48079
 Zn179 Zn 0.46037 0.01825 0.50494
 O180 O 0.49923 -0.00071 0.49978
 O181 O 0.55504 0.01419 0.54191
 O182 O 0.53705 0.00511 0.43898
 O183 O 0.50872 -0.07223 0.50448
 O184 O 0.56025 0.03714 0.49469
 O185 O 0.52627 -0.04729 0.54752
 O186 O 0.51443 -0.04258 0.44363
 O187 O 0.42833 -0.00567 0.49008
 O188 O 0.50492 0.06091 0.46244
 O189 O 0.45334 -0.04877 0.47224
 O190 O 0.45748 0.05580 0.48472
 O191 O 0.45128 0.02661 0.54567
 O192 O 0.49396 0.00850 0.57076
 C193 C 0.57046 0.03134 0.52246
 C194 C 0.53146 -0.02278 0.42849
 C195 C 0.52172 -0.07266 0.53165
 C196 C 0.42807 -0.03295 0.47691
 C197 C 0.47714 0.07129 0.46792
 C198 C 0.46688 0.02177 0.57098
 Zn199 Zn 1.00756 0.45930 0.48265
 Zn200 Zn 1.04063 0.51742 0.50737
 Zn201 Zn 0.97660 0.52366 0.47679
 Zn202 Zn 0.98315 0.49239 0.54058
 O203 O 1.00196 0.49822 0.50182
 O204 O 1.04839 0.45066 0.47425
 O205 O 1.04336 0.55505 0.48727
 O206 O 0.96428 0.50404 0.44087
 O207 O 1.07295 0.49379 0.49258
 O208 O 0.98733 0.45651 0.44538
 O209 O 0.99604 0.55990 0.46460
 O210 O 0.94584 0.51259 0.54367
 O211 O 1.04940 0.52571 0.54821
 O212 O 0.94076 0.53582 0.49656
 O213 O 1.00675 0.50708 0.57289
 O214 O 0.97495 0.45120 0.54909
 O215 O 0.99302 0.42662 0.50607
 C216 C 1.07349 0.46663 0.47918
 C217 C 1.02371 0.57043 0.47030
 C218 C 0.97013 0.47624 0.43027
 C219 C 0.93046 0.52983 0.52423
 C220 C 1.03368 0.52060 0.57339
 C221 C 0.97980 0.42595 0.53311
 Zn222 Zn 0.48159 0.49487 0.96078
 Zn223 Zn 0.47540 0.52595 1.02466
 Zn224 Zn 0.50625 0.46155 1.01853
 Zn225 Zn 0.53930 0.51966 0.99386
 O226 O 0.50061 0.50054 0.99949
 O227 O 0.44435 0.51529 0.95783
 O228 O 0.46326 0.50627 1.06061
 O229 O 0.49151 0.42896 0.99512
 O230 O 0.43949 0.53826 1.00507
 O231 O 0.47313 0.45373 0.95230
 O232 O 0.48620 0.45871 1.05584
 O233 O 0.57163 0.49603 1.00869
 O234 O 0.49496 0.56214 1.03679
 O235 O 0.54709 0.45283 1.02686
 O236 O 0.54212 0.55732 1.01385
 O237 O 0.54801 0.52778 0.95298
 O238 O 0.50518 0.50938 0.92840
 C239 C 0.42908 0.53247 0.97738
 C240 C 0.46913 0.47841 1.07109
 C241 C 0.47804 0.42842 0.96818
 C242 C 0.57219 0.46883 1.02203
 C243 C 0.52257 0.57269 1.03092
 C244 C 0.53221 0.52270 0.92784
 C245 C 1.23270 0.39341 0.43968
 C246 C 1.21057 0.41023 0.42143
 C247 C 1.21654 0.41573 0.38926
 C248 C 1.24447 0.40446 0.37528
 C249 C 1.26726 0.38725 0.39322
 C250 C 1.26070 0.38200 0.42582
 C251 C 1.18160 0.42180 0.43549
 C252 C 1.15711 0.43169 0.44660
 C253 C 1.12819 0.44355 0.45882
 C254 C 1.10331 0.45393 0.46854
 H255 H 1.22843 0.38924 0.46473
 H256 H 1.19939 0.42851 0.37482
 H257 H 1.24718 0.40821 0.35001
 H258 H 1.27756 0.37018 0.44126
 C259 C 0.27070 0.56952 0.90732
 C260 C 0.29058 0.59019 0.92417
 C261 C 0.28215 0.62234 0.92760
 C262 C 0.25408 0.63392 0.91399
 C263 C 0.23376 0.61352 0.89641
 C264 C 0.24266 0.58094 0.89361
 C265 C 0.32002 0.57849 0.93718
 C266 C 0.34483 0.56844 0.94746
 C267 C 0.37405 0.55633 0.95874
 C268 C 0.39912 0.54564 0.96767
 H269 H 0.27689 0.54447 0.90473
 H270 H 0.29754 0.63865 0.94038
 H271 H 0.24945 0.65928 0.91614
 H272 H 0.22763 0.56368 0.88176
 C273 C -0.21481 0.87842 0.07985
 C274 C -0.20995 0.91141 0.07666
 C275 C -0.23333 0.93285 0.08697
 C276 C -0.26137 0.92139 0.10064
 C277 C -0.26637 0.88828 0.10419
 C278 C -0.24283 0.86691 0.09349
 C279 C -0.18062 0.92328 0.06366
 C280 C -0.15589 0.93338 0.05332
 C281 C -0.12675 0.94547 0.04192
 C282 C -0.10172 0.95609 0.03287
 H283 H -0.19679 0.86162 0.07211
 H284 H -0.22981 0.95844 0.08461
 H285 H -0.27921 0.93841 0.10828
 H286 H -0.24581 0.84132 0.09628
 C287 C 0.71723 0.12048 0.57349
 C288 C 0.70873 0.08834 0.57671
 C289 C 0.72851 0.06749 0.59351
 C290 C 0.75654 0.07872 0.60735
 C291 C 0.76553 0.11128 0.60473
 C292 C 0.74528 0.13187 0.58723
 C293 C 0.67933 0.07684 0.56350
 C294 C 0.65455 0.06695 0.55302
 C295 C 0.62538 0.05501 0.54150
 C296 C 0.60035 0.04444 0.53237
 H297 H 0.70190 0.13693 0.56077
 H298 H 0.72226 0.04245 0.59594
 H299 H 0.77150 0.06134 0.61913
 H300 H 0.74996 0.15723 0.58524
 C301 C 0.40708 0.23078 0.43025
 C302 C 0.42398 0.21059 0.40993
 C303 C 0.42745 0.21880 0.37796
 C304 C 0.41382 0.24696 0.36621
 C305 C 0.39618 0.26760 0.38625
 C306 C 0.39335 0.25893 0.41866
 C307 C 0.43698 0.18101 0.42179
 C308 C 0.44726 0.15607 0.43192
 C309 C 0.45853 0.12669 0.44409
 C310 C 0.46745 0.10146 0.45478
 H311 H 0.40446 0.22476 0.45516
 H312 H 0.44026 0.20315 0.36192
 H313 H 0.41600 0.25140 0.34100
 H314 H 0.38146 0.27421 0.43563
 C315 C 0.92002 0.28293 0.62259
 C316 C 0.92351 0.28750 0.58984
 C317 C 0.91308 0.26388 0.56869
 C318 C 0.89902 0.23588 0.58022
 C319 C 0.89520 0.23116 0.61311
 C320 C 0.90599 0.25495 0.63417
 C321 C 0.93698 0.31679 0.57791
 C322 C 0.94776 0.34153 0.56787
 C323 C 0.95973 0.37072 0.55600
 C324 C 0.96930 0.39584 0.54567
 H325 H 0.92785 0.30114 0.63916
 H326 H 0.91567 0.26718 0.54329
 H327 H 0.89130 0.21784 0.56344
 H328 H 0.90300 0.25221 0.65958
 C329 C 0.07329 0.78179 -0.12017
 C330 C 0.07648 0.78992 -0.08814
 C331 C 0.09344 0.76980 -0.06776
 C332 C 0.10746 0.74180 -0.07933
 C333 C 0.10487 0.73320 -0.11177
 C334 C 0.08721 0.75378 -0.13189
 C335 C 0.06314 0.81934 -0.07632
 C336 C 0.05258 0.84417 -0.06624
 C337 C 0.04098 0.87347 -0.05417
 C338 C 0.03182 0.89865 -0.04360
 H339 H 0.06045 0.79739 -0.13626
 H340 H 0.09586 0.77576 -0.04282
 H341 H 0.11937 0.72656 -0.06231
 H342 H 0.08522 0.74941 -0.15713
 C343 C 0.57246 0.72004 1.12074
 C344 C 0.57568 0.71195 1.08871
 C345 C 0.59243 0.73219 1.06833
 C346 C 0.60628 0.76024 1.07993
 C347 C 0.60373 0.76877 1.11239
 C348 C 0.58620 0.74810 1.13249
 C349 C 0.56264 0.68242 1.07687
 C350 C 0.55236 0.65750 1.06674
 C351 C 0.54111 0.62813 1.05459
 C352 C 0.53222 0.60289 1.04395
 H353 H 0.55976 0.70434 1.13682
 H354 H 0.59486 0.72627 1.04338
 H355 H 0.61806 0.77557 1.06292
 H356 H 0.58423 0.75244 1.15773
 C357 C 0.43237 0.41446 1.23288
 C358 C 0.41130 0.42447 1.20912
 C359 C 0.37856 0.42079 1.21349
 C360 C 0.36691 0.40698 1.24140
 C361 C 0.38790 0.39660 1.26533
 C362 C 0.42077 0.40061 1.26081
 C363 C 0.42331 0.43763 1.17990
 C364 C 0.43347 0.44808 1.15521
 C365 C 0.44555 0.45957 1.12610
 C366 C 0.45614 0.46864 1.10106
 H367 H 0.45776 0.41718 1.22974
 H368 H 0.36205 0.42829 1.19517
 H369 H 0.34152 0.40382 1.24398
 H370 H 0.43748 0.39321 1.27895
 C371 C 0.56886 -0.08513 0.26642
 C372 C 0.58999 -0.07540 0.29021
 C373 C 0.62273 -0.07903 0.28568
 C374 C 0.63429 -0.09258 0.25760
 C375 C 0.61322 -0.10276 0.23368
 C376 C 0.58037 -0.09872 0.23833
 C377 C 0.57802 -0.06260 0.31961
 C378 C 0.56778 -0.05245 0.34439
 C379 C 0.55550 -0.04128 0.37356
 C380 C 0.54472 -0.03242 0.39858
 H381 H 0.54347 -0.08243 0.26968
 H382 H 0.63929 -0.07173 0.30401
 H383 H 0.65968 -0.09575 0.25489
 H384 H 0.56358 -0.10594 0.22020
 C385 C -0.12407 1.07733 -0.21427
 C386 C -0.09133 1.07376 -0.20972
 C387 C -0.07023 1.08340 -0.23355
 C388 C -0.08178 1.09690 -0.26168
 C389 C -0.11463 1.10096 -0.26633
 C390 C -0.13568 1.09081 -0.24240
 C391 C -0.07929 1.06123 -0.18021
 C392 C -0.06897 1.05134 -0.15535
 C393 C -0.05660 1.04050 -0.12609
 C394 C -0.04575 1.03190 -0.10099
 H395 H -0.14061 1.07011 -0.19590
 H396 H -0.04484 1.08073 -0.23028
 H397 H -0.06502 1.10410 -0.27983
 H398 H -0.16107 1.09399 -0.24511
 C399 C 1.06974 0.58648 0.73469
 C400 C 1.09089 0.57640 0.71107
 C401 C 1.12362 0.58003 0.71561
 C402 C 1.13518 0.59386 0.74357
 C403 C 1.11410 0.60431 0.76736
 C404 C 1.08124 0.60034 0.76266
 C405 C 1.07897 0.56312 0.68184
 C406 C 1.06888 0.55248 0.65721
 C407 C 1.05689 0.54063 0.62817
 C408 C 1.04644 0.53112 0.60323
 H409 H 1.04436 0.58379 0.73142
 H410 H 1.14020 0.57246 0.69742
 H411 H 1.16056 0.59696 0.74631
 H412 H 1.06445 0.60779 0.78069
 C413 C 0.78786 0.62095 0.58123
 C414 C 0.79238 0.58794 0.57785
 C415 C 0.76872 0.56671 0.58788
 C416 C 0.74071 0.57841 0.60144
 C417 C 0.73602 0.61156 0.60513
 C418 C 0.75987 0.63271 0.59476
 C419 C 0.82165 0.57584 0.56490
 C420 C 0.84635 0.56562 0.55456
 C421 C 0.87548 0.55348 0.54315
 C422 C 0.90051 0.54286 0.53409
 H423 H 0.80610 0.63760 0.57372
 H424 H 0.77198 0.54110 0.58538
 H425 H 0.72263 0.56157 0.60885
 H426 H 0.75715 0.65832 0.59768
 C427 C 0.73139 0.39561 1.06151
 C428 C 0.70930 0.41231 1.07989
 C429 C 0.71533 0.41756 1.11209
 C430 C 0.74326 0.40612 1.12599
 C431 C 0.76598 0.38898 1.10793
 C432 C 0.75938 0.38404 1.07528
 C433 C 0.68030 0.42398 1.06590
 C434 C 0.65581 0.43390 1.05478
 C435 C 0.62689 0.44576 1.04251
 C436 C 0.60201 0.45614 1.03273
 H437 H 0.72707 0.39164 1.03644
 H438 H 0.69822 0.43025 1.12663
 H439 H 0.74603 0.40967 1.15128
 H440 H 0.77620 0.37232 1.05975
 C441 C 0.22975 1.10665 -0.06156
 C442 C 0.20763 1.09004 -0.08000
 C443 C 0.21358 1.08497 -0.11223
 C444 C 0.24147 1.09646 -0.12611
 C445 C 0.26423 1.11347 -0.10799
 C446 C 0.25770 1.11827 -0.07531
 C447 C 0.17870 1.07829 -0.06603
 C448 C 0.15425 1.06826 -0.05494
 C449 C 0.12541 1.05627 -0.04271
 C450 C 0.10059 1.04578 -0.03295
 H451 H 0.22549 1.11049 -0.03646
 H452 H 0.19645 1.07237 -0.12682
 H453 H 0.24417 1.09305 -0.15142
 H454 H 0.27455 1.12990 -0.05975
 C455 C 0.26631 -0.10122 0.43968
 C456 C 0.29147 -0.09155 0.42020
 C457 C 0.28846 -0.09349 0.38715
 C458 C 0.26041 -0.10499 0.37357
 C459 C 0.23493 -0.11471 0.39291
 C460 C 0.23820 -0.11277 0.42614
 C461 C 0.32038 -0.07944 0.43392
 C462 C 0.34480 -0.06911 0.44479
 C463 C 0.37362 -0.05677 0.45676
 C464 C 0.39839 -0.04602 0.46633
 H465 H 0.26836 -0.09973 0.46530
 H466 H 0.30783 -0.08616 0.37185
 H467 H 0.25880 -0.10664 0.34795
 H468 H 0.21887 -0.11975 0.44162
 C469 C 0.56113 -0.23242 0.60600
 C470 C 0.57937 -0.21028 0.58913
 C471 C 0.61156 -0.21629 0.58389
 C472 C 0.62558 -0.24428 0.59545
 C473 C 0.60765 -0.26709 0.61268
 C474 C 0.57503 -0.26049 0.61768
 C475 C 0.56528 -0.18122 0.57729
 C476 C 0.55417 -0.15665 0.56717
 C477 C 0.54198 -0.12762 0.55506
 C478 C 0.53231 -0.10263 0.54450
 H479 H 0.53606 -0.22811 0.60998
 H480 H 0.62599 -0.19911 0.57110
 H481 H 0.65086 -0.24701 0.59187
 H482 H 0.55961 -0.27738 0.62953
 C483 C 1.09378 0.72969 0.43182
 C484 C 1.07657 0.70950 0.41176
 C485 C 1.07280 0.71758 0.37978
 C486 C 1.08643 0.74559 0.36776
 C487 C 1.10439 0.76622 0.38753
 C488 C 1.10752 0.75769 0.41995
 C489 C 1.06361 0.68004 0.42386
 C490 C 1.05337 0.65517 0.43415
 C491 C 1.04216 0.62583 0.44644
 C492 C 1.03330 0.60062 0.45718
 H493 H 1.09665 0.72377 0.45673
 H494 H 1.05974 0.70193 0.36394
 H495 H 1.08401 0.74991 0.34255
 H496 H 1.11968 0.77298 0.43673
 C497 C -0.07416 1.21998 0.12140
 C498 C -0.07771 1.21209 0.08936
 C499 C -0.09471 1.23246 0.06926
 C500 C -0.10842 1.26048 0.08115
 C501 C -0.10546 1.26885 0.11362
 C502 C -0.08777 1.24801 0.13344
 C503 C -0.06461 1.18268 0.07722
 C504 C -0.05414 1.15787 0.06699
 C505 C -0.04251 1.12861 0.05489
 C506 C -0.03317 1.10345 0.04442
 H507 H -0.06127 1.20419 0.13726
 H508 H -0.09740 1.22669 0.04430
 H509 H -0.12038 1.27593 0.06434
 H510 H -0.08551 1.25219 0.15869
 C511 C 0.41771 0.28641 0.87791
 C512 C 0.42120 0.29050 0.91072
 C513 C 0.41087 0.26653 0.93153
 C514 C 0.39694 0.23862 0.91959
 C515 C 0.39319 0.23435 0.88664
 C516 C 0.40382 0.25853 0.86593
 C517 C 0.43468 0.31963 0.92301
 C518 C 0.44553 0.34426 0.93325
 C519 C 0.45763 0.37334 0.94525
 C520 C 0.46734 0.39839 0.95562
 H521 H 0.42547 0.30489 0.86160
 H522 H 0.41345 0.26947 0.95698
 H523 H 0.38933 0.22029 0.93611
 H524 H 0.40086 0.25615 0.84048
 C525 C 0.56960 0.58666 0.76600
 C526 C 0.59049 0.57660 0.78989
 C527 C 0.62328 0.57983 0.78557
 C528 C 0.63517 0.59329 0.75758
 C529 C 0.61435 0.60377 0.73354
 C530 C 0.58143 0.60015 0.73800
 C531 C 0.57823 0.56377 0.81917
 C532 C 0.56789 0.55351 0.84385
 C533 C 0.55565 0.54209 0.87295
 C534 C 0.54505 0.53290 0.89793
 H535 H 0.54417 0.58426 0.76910
 H536 H 0.63966 0.57227 0.80397
 H537 H 0.66060 0.59613 0.75502
 H538 H 0.56484 0.60762 0.71977
 C539 C 0.39783 0.05928 0.73232
 C540 C 0.40815 0.07884 0.70737
 C541 C 0.40673 0.11215 0.71046
 C542 C 0.39510 0.12592 0.73838
 C543 C 0.38472 0.10651 0.76365
 C544 C 0.38615 0.07301 0.76030
 C545 C 0.42030 0.06492 0.67855
 C546 C 0.43067 0.05394 0.65419
 C547 C 0.44303 0.04188 0.62542
 C548 C 0.45380 0.03229 0.60066
 H549 H 0.39890 0.03345 0.73020
 H550 H 0.41456 0.12751 0.69125
 H551 H 0.39385 0.15176 0.74005
 H552 H 0.37864 0.05746 0.77946
 C553 C 0.12135 0.91833 0.21368
 C554 C 0.08861 0.92236 0.20958
 C555 C 0.06767 0.91259 0.23350
 C556 C 0.07941 0.89867 0.26137
 C557 C 0.11228 0.89437 0.26565
 C558 C 0.13314 0.90445 0.24152
 C559 C 0.07650 0.93580 0.18050
 C560 C 0.06635 0.94660 0.15595
 C561 C 0.05437 0.95861 0.12698
 C562 C 0.04397 0.96824 0.10206
 H563 H 0.13776 0.92565 0.19523
 H564 H 0.04228 0.91559 0.23057
 H565 H 0.06280 0.89150 0.27967
 H566 H 0.15853 0.90105 0.24391
 C567 C 0.93190 0.41392 0.26814
 C568 C 0.91104 0.42373 0.29213
 C569 C 0.87825 0.42030 0.28788
 C570 C 0.86635 0.40689 0.25986
 C571 C 0.88713 0.39668 0.23571
 C572 C 0.92005 0.40048 0.24011
 C573 C 0.92333 0.43645 0.32145
 C574 C 0.93374 0.44656 0.34617
 C575 C 0.94612 0.45772 0.37531
 C576 C 0.95693 0.46658 0.40034
 H577 H 0.95733 0.41646 0.27118
 H578 H 0.86189 0.42765 0.30636
 H579 H 0.84092 0.40390 0.25736
 H580 H 0.93662 0.39321 0.22180
   
