data_POSCAR
  _audit_creation_date              2014-09-24
  _audit_creation_method            'ToBaCCo'
  _symmetry_space_group_name_H-M    'P1'
  _symmetry_Int_Tables_number       1
  _symmetry_cell_setting            triclinic
  loop_
  _symmetry_equiv_pos_as_xyz
 x,y,z
_cell_length_a 29.4600
_cell_length_b 30.5826
_cell_length_c 40.5119
_cell_angle_alpha 89.699600
_cell_angle_beta 90.693400
_cell_angle_gamma 79.413600
loop_
  _atom_site_label
  _atom_site_type_symbol
  _atom_site_fract_x
  _atom_site_fract_y
  _atom_site_fract_z
C1 C 1.22611 0.22330 0.20798
 C2 C 1.25410 0.25286 0.18994
 C3 C 1.27643 0.27755 0.20998
 C4 C 1.26914 0.27028 0.24710
 C5 C 1.26026 0.19549 0.23235
 C6 C 1.28237 0.21987 0.25299
 C7 C 1.19406 0.25514 0.23042
 C8 C 1.21621 0.27924 0.25159
 H9 H 1.25512 0.25501 0.16325
 H10 H 1.28839 0.28977 0.26335
 H11 H 1.26100 0.16061 0.23727
 H12 H 1.15722 0.25596 0.23068
 C13 C 0.71368 -0.25965 0.20208
 C14 C 0.74953 -0.23712 0.18548
 C15 C 0.77428 -0.21609 0.20659
 C16 C 0.76104 -0.21940 0.24311
 C17 C 0.74061 -0.29018 0.22855
 C18 C 0.76523 -0.26943 0.25004
 C19 C 0.68433 -0.22177 0.22147
 C20 C 0.70847 -0.20212 0.24428
 H21 H 0.75353 -0.23607 0.15894
 H22 H 0.78189 -0.20261 0.26018
 H23 H 0.73871 -0.32512 0.23074
 H24 H 0.64750 -0.21185 0.21842
 C25 C 0.72168 0.22863 -0.29349
 C26 C 0.74269 0.25928 -0.31271
 C27 C 0.76852 0.28557 -0.29366
 C28 C 0.76807 0.27624 -0.25792
 C29 C 0.75901 0.20253 -0.27396
 C30 C 0.78461 0.22814 -0.25359
 C31 C 0.69353 0.25744 -0.27011
 C32 C 0.71877 0.28261 -0.24906
 H33 H 0.73920 0.26210 -0.33937
 H34 H 0.78874 0.29715 -0.24446
 H35 H 0.76098 0.16707 -0.27073
 H36 H 0.65683 0.26827 -0.27374
 C37 C 1.21466 -0.27031 -0.29306
 C38 C 1.24284 -0.24070 -0.31098
 C39 C 1.26876 -0.21961 -0.29083
 C40 C 1.26440 -0.22988 -0.25396
 C41 C 1.24964 -0.30177 -0.27159
 C42 C 1.27520 -0.28087 -0.25082
 C43 C 1.18634 -0.23971 -0.26780
 C44 C 1.21233 -0.21885 -0.24727
 H45 H 1.24172 -0.23619 -0.33756
 H46 H 1.28562 -0.21259 -0.23743
 H47 H 1.24983 -0.33719 -0.27002
 H48 H 1.15013 -0.23873 -0.26327
 C49 C 0.22001 0.22860 0.79285
 C50 C 0.25355 0.24700 0.81169
 C51 C 0.28242 0.26973 0.79267
 C52 C 0.27224 0.26996 0.75714
 C53 C 0.19315 0.26760 0.77222
 C54 C 0.22028 0.28870 0.75296
 C55 C 0.24822 0.19907 0.76719
 C56 C 0.27511 0.22038 0.74776
 H57 H 0.25472 0.24600 0.83846
 H58 H 0.29426 0.28792 0.74207
 H59 H 0.15655 0.27169 0.76698
 H60 H 0.24526 0.16459 0.76406
 C61 C 0.73685 0.70424 0.79101
 C62 C 0.75482 0.73602 0.81129
 C63 C 0.77871 0.76511 0.79378
 C64 C 0.78038 0.75662 0.75809
 C65 C 0.70858 0.73056 0.76568
 C66 C 0.73202 0.75956 0.74702
 C67 C 0.77660 0.68061 0.77297
 C68 C 0.80050 0.70918 0.75375
 H69 H 0.75316 0.73563 0.83804
 H70 H 0.79946 0.77955 0.74538
 H71 H 0.67275 0.72819 0.76145
 H72 H 0.77866 0.64623 0.76620
 C73 C 0.72513 0.21590 0.29606
 C74 C 0.75770 0.24060 0.31475
 C75 C 0.77980 0.26609 0.29539
 C76 C 0.76759 0.26462 0.25848
 C77 C 0.69263 0.25191 0.27624
 C78 C 0.71466 0.27702 0.25624
 C79 C 0.75488 0.18961 0.26937
 C80 C 0.77681 0.21499 0.24960
 H81 H 0.76222 0.23869 0.34134
 H82 H 0.78590 0.28529 0.24261
 H83 H 0.65567 0.25314 0.27474
 H84 H 0.75372 0.15543 0.26335
 C85 C 0.23140 0.71902 0.29079
 C86 C 0.26119 0.74622 0.30977
 C87 C 0.28371 0.77153 0.29059
 C88 C 0.27471 0.76726 0.25323
 C89 C 0.19955 0.75298 0.26907
 C90 C 0.22161 0.77751 0.24845
 C91 C 0.26420 0.69206 0.26591
 C92 C 0.28722 0.71695 0.24629
 H93 H 0.26460 0.74514 0.33645
 H94 H 0.29398 0.78776 0.23809
 H95 H 0.16256 0.75475 0.26878
 H96 H 0.26394 0.65758 0.26052
 O97 O 1.06828 0.02049 0.04061
 O98 O 0.91600 -0.01278 0.03896
 O99 O 0.96353 0.08075 0.03872
 O100 O 1.02311 -0.07583 0.03919
 O101 O 0.90124 0.06267 0.02156
 O102 O 1.08443 -0.05529 0.02346
 O103 O 0.94666 -0.07565 0.02021
 O104 O 1.03862 0.08327 0.02037
 C105 C 1.06044 0.06128 0.04334
 C106 C 0.92621 -0.05342 0.04317
 C107 C 0.92266 0.07955 0.04350
 C108 C 1.06369 -0.07312 0.04495
 O109 O 1.07439 -0.02674 -0.04064
 O110 O 0.91240 0.03450 -0.04331
 O111 O 1.00930 0.07655 -0.04300
 O112 O 0.97489 -0.06970 -0.04356
 O113 O 0.90959 -0.03880 -0.02533
 O114 O 1.07515 0.04613 -0.02402
 O115 O 1.05381 -0.08550 -0.02354
 O116 O 0.93120 0.09251 -0.02417
 Co117 Co 1.06759 -0.00315 -0.00015
 Co118 Co 0.91764 0.01081 -0.00205
 Co119 Co 0.98629 0.07558 -0.00207
 Co120 Co 0.99897 -0.06897 -0.00199
 O121 O 0.99267 0.00348 -0.00152
 C122 C 1.07204 -0.06590 -0.04535
 C123 C 0.91605 0.07355 -0.04781
 C124 C 1.05148 0.06755 -0.04657
 C125 C 0.93249 -0.06082 -0.04746
 O126 O 1.07643 0.54607 0.51951
 O127 O 0.91211 0.45838 0.52137
 O128 O 0.93232 0.58987 0.51860
 O129 O 1.05626 0.41387 0.52447
 O130 O 0.91405 0.53174 0.53802
 O131 O 1.07697 0.47365 0.53926
 O132 O 0.97695 0.42987 0.54254
 O133 O 1.01075 0.57588 0.53750
 C134 C 1.05297 0.56754 0.54149
 C135 C 0.93452 0.43914 0.54533
 C136 C 0.91828 0.57054 0.54246
 C137 C 1.07486 0.43469 0.54557
 O138 O 1.08678 0.44197 0.47651
 O139 O 0.90164 0.55914 0.47290
 O140 O 1.03841 0.58066 0.47380
 O141 O 0.94982 0.42070 0.47801
 O142 O 0.91838 0.48275 0.45686
 O143 O 1.06982 0.51727 0.45614
 O144 O 1.02583 0.42008 0.46085
 O145 O 0.96339 0.57663 0.45556
 Co146 Co 1.06947 0.49531 0.49776
 Co147 Co 0.91940 0.50757 0.49736
 Co148 Co 0.98690 0.57318 0.49661
 Co149 Co 1.00146 0.42877 0.50132
 O150 O 0.99438 0.50115 0.49817
 C151 C 1.06613 0.42318 0.45533
 C152 C 0.92232 0.57590 0.45077
 C153 C 1.06119 0.55800 0.45203
 C154 C 0.92908 0.44190 0.45412
 O155 O 0.58542 0.03195 0.52715
 O156 O 0.41701 -0.04826 0.52667
 O157 O 0.44207 0.08245 0.52657
 O158 O 0.56049 -0.09854 0.52626
 O159 O 0.41955 0.02471 0.54364
 O160 O 0.58165 -0.04049 0.54402
 O161 O 0.48239 -0.08099 0.54524
 O162 O 0.52074 0.06307 0.54624
 C163 C 0.56315 0.05384 0.54952
 C164 C 0.44040 -0.06963 0.54948
 C165 C 0.42320 0.06362 0.54838
 C166 C 0.57977 -0.07988 0.54828
 O167 O 0.59029 -0.06816 0.47988
 O168 O 0.41002 0.05365 0.47941
 O169 O 0.54854 0.07042 0.48285
 O170 O 0.45210 -0.08545 0.48172
 O171 O 0.42294 -0.02232 0.46183
 O172 O 0.57626 0.00772 0.46262
 O173 O 0.52786 -0.08555 0.46303
 O174 O 0.47252 0.07213 0.46396
 Co175 Co 0.57550 -0.01641 0.50337
 Co176 Co 0.42525 0.00105 0.50290
 Co177 Co 0.49639 0.06417 0.50495
 Co178 Co 0.50536 -0.08000 0.50409
 O179 O 0.50057 -0.00781 0.50385
 C180 C 0.56818 -0.08282 0.45738
 C181 C 0.43154 0.07146 0.45830
 C182 C 0.56854 0.04854 0.45972
 C183 C 0.43189 -0.06306 0.45822
 O184 O 0.58380 0.53771 0.02152
 O185 O 0.41804 0.45233 0.02416
 O186 O 0.43953 0.58364 0.01842
 O187 O 0.56214 0.40623 0.02645
 O188 O 0.41993 0.52634 0.03857
 O189 O 0.58204 0.46590 0.04201
 O190 O 0.48353 0.42287 0.04426
 O191 O 0.51797 0.56882 0.03858
 C192 C 0.56023 0.56084 0.04270
 C193 C 0.44127 0.43254 0.04769
 C194 C 0.42364 0.56546 0.04209
 C195 C 0.57893 0.42720 0.04833
 O196 O 0.59308 0.43301 -0.02068
 O197 O 0.40966 0.55098 -0.02706
 O198 O 0.54701 0.57147 -0.02504
 O199 O 0.45535 0.41307 -0.01915
 O200 O 0.42541 0.47422 -0.04168
 O201 O 0.57782 0.50731 -0.04147
 O202 O 0.53181 0.41267 -0.03727
 O203 O 0.47181 0.56880 -0.04375
 Co204 Co 0.57627 0.48661 0.00025
 Co205 Co 0.42614 0.50032 -0.00144
 Co206 Co 0.49473 0.56550 -0.00254
 Co207 Co 0.50761 0.42122 0.00325
 O208 O 0.50119 0.49340 -0.00014
 C209 C 0.57222 0.41575 -0.04260
 C210 C 0.43095 0.56746 -0.04903
 C211 C 0.56937 0.54777 -0.04648
 C212 C 0.43540 0.43331 -0.04363
 C213 C 1.15170 0.15190 0.14018
 C214 C 1.13758 0.19791 0.14420
 C215 C 1.16220 0.22050 0.16608
 C216 C 1.20049 0.19748 0.18425
 C217 C 1.21489 0.15138 0.17890
 C218 C 1.19025 0.12841 0.15735
 C219 C 1.12642 0.12804 0.11685
 C220 C 1.14105 0.08209 0.11245
 C221 C 1.11791 0.05985 0.08937
 C222 C 1.08118 0.08352 0.07027
 C223 C 1.06634 0.12939 0.07546
 C224 C 1.08885 0.15184 0.09876
 C225 C 1.20367 0.08240 0.15248
 C226 C 1.17934 0.05957 0.13051
 C227 C 1.09928 0.22045 0.12611
 C228 C 1.07533 0.19779 0.10374
 H229 H 1.23332 0.06387 0.16569
 H230 H 1.19097 0.02414 0.12732
 H231 H 1.08796 0.25596 0.12906
 H232 H 1.04628 0.21647 0.09000
 H233 H 1.15163 0.25612 0.16900
 H234 H 1.24562 0.13300 0.19073
 H235 H 1.12963 0.02460 0.08539
 H236 H 1.03791 0.14774 0.06091
 C237 C 1.14319 0.65656 0.63916
 C238 C 1.11720 0.69102 0.65738
 C239 C 1.13998 0.71544 0.67907
 C240 C 1.18845 0.70496 0.68316
 C241 C 1.21384 0.67086 0.66396
 C242 C 1.19146 0.64636 0.64218
 C243 C 1.11953 0.63149 0.61578
 C244 C 1.14574 0.59791 0.59683
 C245 C 1.12336 0.57574 0.57343
 C246 C 1.07527 0.58729 0.56874
 C247 C 1.04920 0.61986 0.58873
 C248 C 1.07129 0.64243 0.61212
 C249 C 1.21646 0.61200 0.62327
 C250 C 1.19393 0.58810 0.60095
 C251 C 1.06893 0.70063 0.65340
 C252 C 1.04631 0.67662 0.63119
 H253 H 1.25374 0.60376 0.62555
 H254 H 1.21443 0.56216 0.58650
 H255 H 1.04850 0.72708 0.66743
 H256 H 1.00907 0.68528 0.62859
 H257 H 1.11957 0.74281 0.69201
 H258 H 1.25119 0.66333 0.66616
 H259 H 1.14349 0.55038 0.55825
 H260 H 1.01209 0.62879 0.58524
 C261 C 0.65534 0.14603 0.64459
 C262 C 0.70178 0.14877 0.63974
 C263 C 0.72294 0.17558 0.66056
 C264 C 0.69821 0.20021 0.68626
 C265 C 0.65210 0.19452 0.69179
 C266 C 0.63035 0.16851 0.67057
 C267 C 0.63228 0.11958 0.62174
 C268 C 0.58526 0.11818 0.62579
 C269 C 0.56282 0.09522 0.60272
 C270 C 0.58729 0.07370 0.57596
 C271 C 0.63486 0.07382 0.57314
 C272 C 0.65739 0.09719 0.59571
 C273 C 0.58375 0.16511 0.67455
 C274 C 0.56148 0.14064 0.65238
 C275 C 0.72601 0.12521 0.61377
 C276 C 0.70420 0.09973 0.59215
 H277 H 0.56406 0.18225 0.69458
 H278 H 0.52528 0.13963 0.65591
 H279 H 0.76197 0.12691 0.60989
 H280 H 0.72391 0.08250 0.57216
 H281 H 0.75880 0.17781 0.65658
 H282 H 0.63252 0.20977 0.71241
 H283 H 0.52631 0.09482 0.60520
 H284 H 0.65398 0.05730 0.55260
 C285 C 0.64676 0.66016 0.13628
 C286 C 0.61936 0.68938 0.15775
 C287 C 0.64052 0.71577 0.17902
 C288 C 0.68882 0.71390 0.17844
 C289 C 0.71562 0.68358 0.15703
 C290 C 0.69486 0.65686 0.13587
 C291 C 0.62465 0.63253 0.11377
 C292 C 0.65214 0.60343 0.09221
 C293 C 0.63085 0.57854 0.06995
 C294 C 0.58242 0.58314 0.06882
 C295 C 0.55541 0.61143 0.09128
 C296 C 0.57641 0.63631 0.11381
 C297 C 0.72129 0.62688 0.11430
 C298 C 0.70026 0.60059 0.09281
 C299 C 0.57126 0.69158 0.15758
 C300 C 0.55012 0.66560 0.13588
 H301 H 0.75850 0.62395 0.11388
 H302 H 0.72180 0.57818 0.07631
 H303 H 0.54974 0.71390 0.17414
 H304 H 0.51288 0.66869 0.13622
 H305 H 0.61895 0.73664 0.19620
 H306 H 0.75287 0.68060 0.15711
 H307 H 0.65188 0.55668 0.05282
 H308 H 0.51810 0.61494 0.09067
 C309 C 0.85596 -0.14345 0.15095
 C310 C 0.82064 -0.12007 0.17056
 C311 C 0.79707 -0.14390 0.19226
 C312 C 0.80807 -0.19062 0.19357
 C313 C 0.84528 -0.21323 0.17525
 C314 C 0.86922 -0.18986 0.15373
 C315 C 0.87693 -0.11944 0.12522
 C316 C 0.91001 -0.14339 0.10424
 C317 C 0.92696 -0.12119 0.07807
 C318 C 0.91087 -0.07542 0.07259
 C319 C 0.87903 -0.05147 0.09466
 C320 C 0.86156 -0.07348 0.12086
 C321 C 0.90398 -0.21230 0.13329
 C322 C 0.92412 -0.18943 0.10901
 C323 C 0.80757 -0.07377 0.16636
 C324 C 0.82773 -0.05087 0.14199
 H325 H 0.91467 -0.24805 0.13537
 H326 H 0.94993 -0.20817 0.09317
 H327 H 0.78054 -0.05528 0.18137
 H328 H 0.81577 -0.01537 0.13904
 H329 H 0.76772 -0.12665 0.20584
 H330 H 0.85311 -0.24930 0.17592
 H331 H 0.95178 -0.13980 0.06144
 H332 H 0.86662 -0.01618 0.09075
 C333 C 0.83615 0.36704 0.64829
 C334 C 0.78904 0.36706 0.64302
 C335 C 0.76629 0.34226 0.66406
 C336 C 0.78972 0.31771 0.69072
 C337 C 0.83600 0.32133 0.69765
 C338 C 0.85992 0.34478 0.67562
 C339 C 0.86148 0.38852 0.62354
 C340 C 0.90946 0.38547 0.62696
 C341 C 0.93382 0.40290 0.60176
 C342 C 0.91005 0.42346 0.57361
 C343 C 0.86169 0.42775 0.57157
 C344 C 0.83742 0.40979 0.59604
 C345 C 0.90765 0.34422 0.67902
 C346 C 0.93200 0.36390 0.65504
 C347 C 0.76595 0.38992 0.61576
 C348 C 0.78970 0.41124 0.59278
 H349 H 0.92664 0.32720 0.69986
 H350 H 0.96895 0.36152 0.65823
 H351 H 0.72944 0.39041 0.61171
 H352 H 0.77080 0.42775 0.57171
 H353 H 0.73025 0.34110 0.65912
 H354 H 0.85460 0.30232 0.71786
 H355 H 0.97101 0.39975 0.60370
 H356 H 0.84293 0.44356 0.55019
 C357 C 0.34630 -0.14147 0.65442
 C358 C 0.29835 -0.12744 0.65708
 C359 C 0.27359 -0.15103 0.67781
 C360 C 0.29637 -0.18852 0.69549
 C361 C 0.34470 -0.20070 0.69422
 C362 C 0.36992 -0.17749 0.67329
 C363 C 0.37162 -0.12015 0.62966
 C364 C 0.41902 -0.13601 0.62538
 C365 C 0.44209 -0.11802 0.59995
 C366 C 0.41773 -0.08510 0.57857
 C367 C 0.37065 -0.06846 0.58408
 C368 C 0.34736 -0.08603 0.60944
 C369 C 0.41774 -0.19117 0.66925
 C370 C 0.44189 -0.17076 0.64573
 C371 C 0.27570 -0.09188 0.63745
 C372 C 0.29983 -0.07143 0.61407
 H373 H 0.43643 -0.21876 0.68371
 H374 H 0.47851 -0.18313 0.64282
 H375 H 0.23876 -0.08063 0.63947
 H376 H 0.28086 -0.04487 0.59880
 H377 H 0.23624 -0.14214 0.67861
 H378 H 0.36198 -0.23011 0.70746
 H379 H 0.47840 -0.13088 0.59599
 H380 H 0.35177 -0.04279 0.56800
 C381 C 0.34908 0.35848 0.15317
 C382 C 0.30070 0.36907 0.15458
 C383 C 0.27734 0.34498 0.17601
 C384 C 0.30189 0.31020 0.19561
 C385 C 0.35047 0.30147 0.19534
 C386 C 0.37434 0.32536 0.17381
 C387 C 0.37341 0.38036 0.12802
 C388 C 0.42151 0.36800 0.12521
 C389 C 0.44400 0.38656 0.09969
 C390 C 0.41852 0.41660 0.07673
 C391 C 0.37050 0.42966 0.08068
 C392 C 0.34775 0.41148 0.10613
 C393 C 0.42266 0.31509 0.17104
 C394 C 0.44584 0.33609 0.14721
 C395 C 0.27646 0.40166 0.13312
 C396 C 0.29959 0.42256 0.10935
 H397 H 0.44264 0.28977 0.18683
 H398 H 0.48299 0.32640 0.14545
 H399 H 0.23914 0.41021 0.13409
 H400 H 0.27944 0.44671 0.09275
 H401 H 0.23989 0.35116 0.17589
 H402 H 0.36927 0.27406 0.20994
 H403 H 0.48097 0.37638 0.09699
 H404 H 0.35061 0.45300 0.06338
 C405 C 0.85404 0.16470 -0.16931
 C406 C 0.84943 0.13983 -0.19768
 C407 C 0.83004 0.16171 -0.22640
 C408 C 0.81272 0.20813 -0.22672
 C409 C 0.82049 0.23272 -0.19828
 C410 C 0.84076 0.21114 -0.16958
 C411 C 0.87164 0.14149 -0.13842
 C412 C 0.87579 0.16635 -0.10986
 C413 C 0.89113 0.14400 -0.08029
 C414 C 0.90098 0.09715 -0.07906
 C415 C 0.89700 0.07279 -0.10801
 C416 C 0.88269 0.09482 -0.13782
 C417 C 0.84616 0.23495 -0.14063
 C418 C 0.86361 0.21296 -0.11134
 C419 C 0.86260 0.09326 -0.19646
 C420 C 0.87866 0.07111 -0.16698
 H421 H 0.83614 0.27086 -0.14046
 H422 H 0.86674 0.23256 -0.08951
 H423 H 0.85931 0.07367 -0.21827
 H424 H 0.88746 0.03512 -0.16692
 H425 H 0.82774 0.14193 -0.24821
 H426 H 0.80820 0.26814 -0.19706
 H427 H 0.89434 0.16293 -0.05811
 H428 H 0.90521 0.03674 -0.10732
 C429 C 0.83173 0.66485 0.33591
 C430 C 0.78828 0.65665 0.32604
 C431 C 0.76678 0.67825 0.29786
 C432 C 0.78833 0.70799 0.27971
 C433 C 0.83158 0.71631 0.29016
 C434 C 0.85367 0.69450 0.31815
 C435 C 0.85469 0.64191 0.36539
 C436 C 0.89841 0.64966 0.37496
 C437 C 0.92023 0.62763 0.40283
 C438 C 0.89844 0.59846 0.42141
 C439 C 0.85448 0.59116 0.41160
 C440 C 0.83253 0.61266 0.38341
 C441 C 0.89736 0.70150 0.32866
 C442 C 0.91943 0.67934 0.35654
 C443 C 0.76722 0.62706 0.34455
 C444 C 0.78894 0.60549 0.37278
 H445 H 0.91470 0.72418 0.31517
 H446 H 0.95320 0.68556 0.36376
 H447 H 0.73365 0.62053 0.33715
 H448 H 0.77151 0.58295 0.38636
 H449 H 0.73299 0.67239 0.29031
 H450 H 0.84833 0.73902 0.27617
 H451 H 0.95406 0.63357 0.41024
 H452 H 0.83771 0.56853 0.42565
 C453 C 0.34448 0.16020 0.34216
 C454 C 0.30043 0.15338 0.33256
 C455 C 0.28019 0.17372 0.30364
 C456 C 0.30374 0.20048 0.28419
 C457 C 0.34729 0.20808 0.29452
 C458 C 0.36812 0.18756 0.32345
 C459 C 0.36639 0.13789 0.37220
 C460 C 0.41078 0.14403 0.38152
 C461 C 0.43174 0.12219 0.40977
 C462 C 0.40852 0.09463 0.42883
 C463 C 0.36390 0.08906 0.41925
 C464 C 0.34273 0.11049 0.39083
 C465 C 0.41235 0.19321 0.33382
 C466 C 0.43337 0.17173 0.36233
 C467 C 0.27770 0.12596 0.35186
 C468 C 0.29850 0.10487 0.38052
 H469 H 0.43101 0.21414 0.31966
 H470 H 0.46765 0.17673 0.36935
 H471 H 0.24365 0.12054 0.34464
 H472 H 0.27990 0.08382 0.39461
 H473 H 0.24606 0.16871 0.29616
 H474 H 0.36525 0.22889 0.27964
 H475 H 0.46611 0.12675 0.41695
 H476 H 0.34598 0.06770 0.43364
 C477 C 0.34234 0.65345 -0.16538
 C478 C 0.36456 0.68261 -0.18346
 C479 C 0.34250 0.70422 -0.21156
 C480 C 0.29912 0.69603 -0.22172
 C481 C 0.27731 0.66684 -0.20322
 C482 C 0.29873 0.64549 -0.17502
 C483 C 0.36498 0.63105 -0.13565
 C484 C 0.34239 0.60250 -0.11725
 C485 C 0.36391 0.58169 -0.08873
 C486 C 0.40780 0.58906 -0.07891
 C487 C 0.43009 0.61745 -0.09787
 C488 C 0.40872 0.63876 -0.12612
 C489 C 0.27727 0.61656 -0.15618
 C490 C 0.29873 0.59545 -0.12774
 C491 C 0.40832 0.68950 -0.17305
 C492 C 0.43013 0.66781 -0.14491
 H493 H 0.24355 0.61027 -0.16344
 H494 H 0.28099 0.57347 -0.11385
 H495 H 0.42589 0.71179 -0.18678
 H496 H 0.46393 0.67396 -0.13771
 H497 H 0.35909 0.72693 -0.22568
 H498 H 0.24324 0.66141 -0.21044
 H499 H 0.34679 0.55965 -0.07437
 H500 H 0.46387 0.62341 -0.09044
 C501 C 1.15485 -0.15461 -0.16014
 C502 C 1.14390 -0.19573 -0.16909
 C503 C 1.16326 -0.21665 -0.19752
 C504 C 1.19319 -0.19669 -0.21700
 C505 C 1.20470 -0.15599 -0.20743
 C506 C 1.18520 -0.13450 -0.17905
 C507 C 1.13393 -0.13212 -0.13050
 C508 C 1.14428 -0.09068 -0.12179
 C509 C 1.12385 -0.06921 -0.09382
 C510 C 1.09369 -0.08914 -0.07447
 C511 C 1.08386 -0.13079 -0.08342
 C512 C 1.10373 -0.15237 -0.11157
 C513 C 1.19498 -0.09314 -0.16937
 C514 C 1.17474 -0.07152 -0.14125
 C515 C 1.11362 -0.21499 -0.14958
 C516 C 1.09387 -0.19366 -0.12125
 H517 H 1.21824 -0.07725 -0.18374
 H518 H 1.18297 -0.03953 -0.13469
 H519 H 1.10501 -0.24675 -0.15632
 H520 H 1.07057 -0.20954 -0.10690
 H521 H 1.15528 -0.24864 -0.20441
 H522 H 1.22787 -0.14077 -0.22242
 H523 H 1.13159 -0.03710 -0.08703
 H524 H 1.06034 -0.14605 -0.06876
 C525 C 1.15143 0.34338 0.33773
 C526 C 1.13217 0.31025 0.32199
 C527 C 1.15318 0.29000 0.29379
 C528 C 1.19277 0.30319 0.28053
 C529 C 1.21117 0.33717 0.29642
 C530 C 1.19088 0.35705 0.32526
 C531 C 1.13012 0.36372 0.36810
 C532 C 1.14999 0.39604 0.38454
 C533 C 1.12974 0.41484 0.41369
 C534 C 1.08939 0.40210 0.42578
 C535 C 1.06992 0.36983 0.40878
 C536 C 1.09034 0.35025 0.38017
 C537 C 1.20944 0.38995 0.34213
 C538 C 1.18949 0.40894 0.37134
 C539 C 1.09249 0.29750 0.33495
 C540 C 1.07172 0.31740 0.36343
 H541 H 1.23988 0.40087 0.33285
 H542 H 1.20512 0.43394 0.38367
 H543 H 1.07729 0.27198 0.32293
 H544 H 1.04102 0.30677 0.37255
 H545 H 1.13914 0.26301 0.28298
 H546 H 1.24122 0.34812 0.28656
 H547 H 1.14477 0.43979 0.42660
 H548 H 1.03899 0.35969 0.41796
 C549 C 0.64603 -0.14404 0.33281
 C550 C 0.68829 -0.13353 0.32290
 C551 C 0.70758 -0.15037 0.29289
 C552 C 0.68526 -0.17831 0.27330
 C553 C 0.64245 -0.18772 0.28375
 C554 C 0.62266 -0.17056 0.31317
 C555 C 0.62640 -0.12809 0.36479
 C556 C 0.58429 -0.13906 0.37457
 C557 C 0.56588 -0.12425 0.40497
 C558 C 0.58943 -0.09914 0.42592
 C559 C 0.63185 -0.08861 0.41597
 C560 C 0.65037 -0.10279 0.38517
 C561 C 0.58048 -0.18060 0.32372
 C562 C 0.56147 -0.16490 0.35386
 C563 C 0.71086 -0.10735 0.34365
 C564 C 0.69229 -0.09236 0.37430
 H565 H 0.56215 -0.20101 0.30865
 H566 H 0.52890 -0.17346 0.36118
 H567 H 0.74345 -0.09888 0.33637
 H568 H 0.71105 -0.07268 0.38968
 H569 H 0.74021 -0.14242 0.28525
 H570 H 0.62515 -0.21025 0.27002
 H571 H 0.53326 -0.13255 0.41242
 H572 H 0.65002 -0.06908 0.43193
 C573 C 0.65677 0.34356 -0.16259
 C574 C 0.63341 0.31699 -0.18205
 C575 C 0.65401 0.29798 -0.21063
 C576 C 0.69798 0.30527 -0.22081
 C577 C 0.72052 0.33310 -0.20097
 C578 C 0.70016 0.35196 -0.17175
 C579 C 0.63552 0.36229 -0.13175
 C580 C 0.65904 0.38832 -0.11168
 C581 C 0.63872 0.40547 -0.08206
 C582 C 0.59510 0.39689 -0.07293
 C583 C 0.57208 0.37099 -0.09358
 C584 C 0.59215 0.35346 -0.12283
 C585 C 0.72243 0.37871 -0.15124
 C586 C 0.70227 0.39652 -0.12173
 C587 C 0.59001 0.30902 -0.17234
 C588 C 0.56962 0.32711 -0.14327
 H589 H 0.75591 0.38567 -0.15791
 H590 H 0.72075 0.41674 -0.10660
 H591 H 0.57166 0.28850 -0.18731
 H592 H 0.53611 0.32017 -0.13662
 H593 H 0.63573 0.27576 -0.22377
 H594 H 0.75359 0.34056 -0.20780
 H595 H 0.65648 0.42569 -0.06639
 H596 H 0.53848 0.36428 -0.08686
 C597 C 1.14403 0.15432 -0.14358
 C598 C 1.19141 0.13957 -0.14841
 C599 C 1.21510 0.16385 -0.16933
 C600 C 1.19202 0.20285 -0.18543
 C601 C 1.14436 0.21732 -0.17986
 C602 C 1.12021 0.19293 -0.15927
 C603 C 1.11925 0.12979 -0.12070
 C604 C 1.07202 0.14514 -0.11526
 C605 C 1.04919 0.12304 -0.09217
 C606 C 1.07371 0.08673 -0.07399
 C607 C 1.12067 0.07097 -0.08041
 C608 C 1.14365 0.09239 -0.10379
 C609 C 1.07278 0.20685 -0.15364
 C610 C 1.04902 0.18321 -0.13210
 C611 C 1.21436 0.10125 -0.13181
 C612 C 1.19087 0.07806 -0.10979
 H613 H 1.05395 0.23649 -0.16575
 H614 H 1.01258 0.19533 -0.12813
 H615 H 1.25093 0.08948 -0.13547
 H616 H 1.20995 0.04909 -0.09701
 H617 H 1.25185 0.15282 -0.17283
 H618 H 1.12576 0.24785 -0.19059
 H619 H 1.01300 0.13535 -0.08726
 H620 H 1.13957 0.04283 -0.06659
 C621 C 1.15496 0.64771 0.35670
 C622 C 1.19208 0.62359 0.33926
 C623 C 1.21735 0.64633 0.31812
 C624 C 1.20518 0.69298 0.31379
 C625 C 1.16838 0.71649 0.33231
 C626 C 1.14297 0.69410 0.35348
 C627 C 1.12890 0.62407 0.37946
 C628 C 1.09257 0.64845 0.39755
 C629 C 1.06927 0.62617 0.42023
 C630 C 1.08232 0.57989 0.42515
 C631 C 1.11789 0.55570 0.40605
 C632 C 1.14159 0.57774 0.38333
 C633 C 1.10594 0.71725 0.37163
 C634 C 1.08110 0.69480 0.39327
 C635 C 1.20345 0.57717 0.34350
 C636 C 1.17857 0.55463 0.36510
 H637 H 1.09625 0.75307 0.36926
 H638 H 1.05306 0.71394 0.40706
 H639 H 1.23198 0.55811 0.33013
 H640 H 1.18872 0.51890 0.36783
 H641 H 1.24679 0.62738 0.30583
 H642 H 1.15951 0.75240 0.33015
 H643 H 1.04178 0.64503 0.43471
 H644 H 1.12823 0.52013 0.40971
 C645 C 0.65329 0.14173 0.36228
 C646 C 0.63940 0.18799 0.35921
 C647 C 0.66317 0.21149 0.33779
 C648 C 0.70017 0.18912 0.31899
 C649 C 0.71444 0.14273 0.32327
 C650 C 0.69072 0.11885 0.34449
 C651 C 0.62922 0.11701 0.38545
 C652 C 0.64390 0.07085 0.38922
 C653 C 0.62231 0.04787 0.41250
 C654 C 0.58719 0.07109 0.43234
 C655 C 0.57204 0.11708 0.42761
 C656 C 0.59298 0.14025 0.40422
 C657 C 0.70406 0.07258 0.34855
 C658 C 0.68089 0.04892 0.37046
 C659 C 0.60228 0.20994 0.37785
 C660 C 0.57940 0.18642 0.40000
 H661 H 0.73282 0.05454 0.33484
 H662 H 0.69249 0.01334 0.37313
 H663 H 0.59115 0.24562 0.37554
 H664 H 0.55132 0.20460 0.41429
 H665 H 0.65300 0.24732 0.33580
 H666 H 0.74444 0.12495 0.31084
 H667 H 0.63416 0.01247 0.41616
 H668 H 0.54481 0.13504 0.44276
 C669 C 0.66001 0.63283 -0.14612
 C670 C 0.70054 0.60966 -0.16031
 C671 C 0.72596 0.63234 -0.18144
 C672 C 0.71059 0.67807 -0.18909
 C673 C 0.66935 0.70024 -0.17431
 C674 C 0.64419 0.67801 -0.15301
 C675 C 0.63469 0.60986 -0.12243
 C676 C 0.59552 0.63383 -0.10696
 C677 C 0.57338 0.61274 -0.08287
 C678 C 0.58999 0.56798 -0.07432
 C679 C 0.62821 0.54383 -0.09096
 C680 C 0.65114 0.56486 -0.11476
 C681 C 0.60405 0.70054 -0.13782
 C682 C 0.58013 0.67881 -0.11513
 C683 C 0.71549 0.56440 -0.15244
 C684 C 0.69107 0.54233 -0.13019
 H685 H 0.59145 0.73546 -0.14310
 H686 H 0.54977 0.69755 -0.10352
 H687 H 0.74660 0.54599 -0.16332
 H688 H 0.70409 0.50758 -0.12452
 H689 H 0.75820 0.61422 -0.19065
 H690 H 0.65746 0.73551 -0.17881
 H691 H 0.54392 0.63144 -0.07021
 H692 H 0.64128 0.50938 -0.08438
 C693 C 0.84000 -0.14838 -0.14674
 C694 C 0.86373 -0.16703 -0.17471
 C695 C 0.84180 -0.19272 -0.19665
 C696 C 0.79781 -0.20215 -0.18917
 C697 C 0.77435 -0.18157 -0.16149
 C698 C 0.79491 -0.15454 -0.14053
 C699 C 0.86337 -0.12355 -0.12263
 C700 C 0.83928 -0.10520 -0.09477
 C701 C 0.86188 -0.08325 -0.07123
 C702 C 0.90885 -0.08074 -0.07457
 C703 C 0.93263 -0.09896 -0.10287
 C704 C 0.90976 -0.12010 -0.12721
 C705 C 0.77169 -0.13493 -0.11272
 C706 C 0.79337 -0.11037 -0.09037
 C707 C 0.90965 -0.16136 -0.17912
 C708 C 0.93235 -0.13870 -0.15568
 H709 H 0.73667 -0.13923 -0.10788
 H710 H 0.77442 -0.09630 -0.06899
 H711 H 0.92864 -0.17559 -0.20042
 H712 H 0.96806 -0.13615 -0.15972
 H713 H 0.86062 -0.20851 -0.21754
 H714 H 0.73980 -0.18686 -0.15603
 H715 H 0.84327 -0.06963 -0.04957
 H716 H 0.96874 -0.09702 -0.10575
 C717 C 0.85817 0.34392 0.35092
 C718 C 0.82255 0.36555 0.32996
 C719 C 0.79947 0.33994 0.30908
 C720 C 0.81117 0.29325 0.31001
 C721 C 0.84830 0.27230 0.32995
 C722 C 0.87191 0.29745 0.35052
 C723 C 0.87930 0.37003 0.37532
 C724 C 0.91307 0.34793 0.39740
 C725 C 0.93034 0.37217 0.42227
 C726 C 0.91378 0.41815 0.42552
 C727 C 0.88125 0.44025 0.40236
 C728 C 0.86356 0.41617 0.37732
 C729 C 0.90721 0.27683 0.37207
 C730 C 0.92756 0.30168 0.39506
 C731 C 0.80904 0.41202 0.33177
 C732 C 0.82918 0.43689 0.35504
 H733 H 0.91829 0.24103 0.37180
 H734 H 0.95389 0.28437 0.41179
 H735 H 0.78175 0.42917 0.31571
 H736 H 0.81690 0.47249 0.35616
 H737 H 0.77035 0.35593 0.29405
 H738 H 0.85697 0.23626 0.33076
 H739 H 0.95568 0.35495 0.43976
 H740 H 0.86847 0.47567 0.40457
 C741 C 0.36082 -0.15377 0.35020
 C742 C 0.32478 -0.13091 0.33013
 C743 C 0.30219 -0.15507 0.30770
 C744 C 0.31509 -0.20165 0.30595
 C745 C 0.35276 -0.22361 0.32502
 C746 C 0.37560 -0.19992 0.34732
 C747 C 0.38140 -0.12951 0.37623
 C748 C 0.41543 -0.15303 0.39749
 C749 C 0.43242 -0.13068 0.42370
 C750 C 0.41572 -0.08506 0.42887
 C751 C 0.38273 -0.06151 0.40659
 C752 C 0.36505 -0.08377 0.38040
 C753 C 0.41109 -0.22188 0.36819
 C754 C 0.43070 -0.19883 0.39281
 C755 C 0.31042 -0.08483 0.33434
 C756 C 0.33026 -0.06167 0.35895
 H757 H 0.42294 -0.25744 0.36607
 H758 H 0.45724 -0.21725 0.40888
 H759 H 0.28280 -0.06668 0.31901
 H760 H 0.31744 -0.02636 0.36175
 H761 H 0.27257 -0.13829 0.29351
 H762 H 0.36220 -0.25956 0.32401
 H763 H 0.45805 -0.14904 0.44048
 H764 H 0.36973 -0.02638 0.41029
 C765 C 0.36539 0.33551 -0.14787
 C766 C 0.36506 0.29029 -0.14242
 C767 C 0.34014 0.26796 -0.16402
 C768 C 0.31585 0.28998 -0.19140
 C769 C 0.32019 0.33429 -0.19847
 C770 C 0.34362 0.35777 -0.17591
 C771 C 0.38640 0.36052 -0.12257
 C772 C 0.38336 0.40664 -0.12628
 C773 C 0.40013 0.43074 -0.10070
 C774 C 0.42008 0.40865 -0.07185
 C775 C 0.42443 0.36213 -0.06940
 C776 C 0.40707 0.33807 -0.09432
 C777 C 0.34323 0.40364 -0.17952
 C778 C 0.36243 0.42768 -0.15506
 C779 C 0.38742 0.26873 -0.11440
 C780 C 0.40841 0.29217 -0.09087
 H781 H 0.32658 0.42144 -0.20090
 H782 H 0.36010 0.46319 -0.15844
 H783 H 0.38768 0.23367 -0.11019
 H784 H 0.42447 0.27449 -0.06925
 H785 H 0.33831 0.23347 -0.15888
 H786 H 0.30134 0.35179 -0.21921
 H787 H 0.39702 0.46651 -0.10297
 H788 H 0.43983 0.34472 -0.04746
 C789 C 1.15352 -0.15537 0.16259
 C790 C 1.19428 -0.14303 0.17454
 C791 C 1.21593 -0.16396 0.20319
 C792 C 1.19747 -0.19763 0.21942
 C793 C 1.15671 -0.20963 0.20645
 C794 C 1.13438 -0.18831 0.17856
 C795 C 1.13069 -0.13394 0.13249
 C796 C 1.08970 -0.14621 0.12094
 C797 C 1.06803 -0.12584 0.09245
 C798 C 1.08746 -0.09406 0.07498
 C799 C 1.12888 -0.08232 0.08665
 C800 C 1.15043 -0.10191 0.11570
 C801 C 1.09343 -0.19981 0.16616
 C802 C 1.07127 -0.17887 0.13796
 C803 C 1.21265 -0.11031 0.15735
 C804 C 1.19123 -0.09026 0.12838
 H805 H 1.07832 -0.22518 0.17840
 H806 H 1.03966 -0.18860 0.12925
 H807 H 1.24406 -0.10037 0.16619
 H808 H 1.20676 -0.06546 0.11580
 H809 H 1.24701 -0.15406 0.21265
 H810 H 1.14257 -0.23653 0.21725
 H811 H 1.03631 -0.13523 0.08361
 H812 H 1.14393 -0.05773 0.07339
 C813 C 1.16153 0.35054 0.66353
 C814 C 1.18733 0.37391 0.68421
 C815 C 1.20754 0.35340 0.71336
 C816 C 1.20115 0.31036 0.72185
 C817 C 1.17607 0.28716 0.70044
 C818 C 1.15601 0.30712 0.67136
 C819 C 1.13957 0.37200 0.63320
 C820 C 1.11372 0.34857 0.61266
 C821 C 1.09269 0.36916 0.58393
 C822 C 1.09728 0.41289 0.57575
 C823 C 1.12325 0.43597 0.59672
 C824 C 1.14458 0.41560 0.62544
 C825 C 1.13015 0.28464 0.65016
 C826 C 1.10933 0.30504 0.62130
 C827 C 1.19182 0.41742 0.67544
 C828 C 1.17075 0.43793 0.64658
 H829 H 1.12576 0.25107 0.65603
 H830 H 1.08952 0.28662 0.60568
 H831 H 1.21155 0.43587 0.69109
 H832 H 1.17491 0.47160 0.64082
 H833 H 1.22725 0.37101 0.72972
 H834 H 1.17206 0.25354 0.70660
 H835 H 1.07260 0.35129 0.56808
 H836 H 1.12695 0.46970 0.59066
 C837 C 0.66985 -0.17318 0.66167
 C838 C 0.65522 -0.21157 0.67289
 C839 C 0.67609 -0.23343 0.70106
 C840 C 0.71193 -0.21766 0.71834
 C841 C 0.72690 -0.17943 0.70605
 C842 C 0.70553 -0.15679 0.67800
 C843 C 0.64717 -0.14961 0.63230
 C844 C 0.66085 -0.11041 0.62152
 C845 C 0.63850 -0.08767 0.59400
 C846 C 0.60339 -0.10442 0.57695
 C847 C 0.59058 -0.14411 0.58779
 C848 C 0.61200 -0.16658 0.61572
 C849 C 0.71862 -0.11768 0.66617
 C850 C 0.69651 -0.09477 0.63853
 C851 C 0.61990 -0.22756 0.65573
 C852 C 0.59874 -0.20550 0.62757
 H853 H 0.74597 -0.10449 0.67852
 H854 H 0.70744 -0.06458 0.63038
 H855 H 0.60844 -0.25735 0.66419
 H856 H 0.57158 -0.21885 0.61510
 H857 H 0.66524 -0.26392 0.70843
 H858 H 0.75354 -0.16587 0.71891
 H859 H 0.64867 -0.05715 0.58568
 H860 H 0.56340 -0.15695 0.57489
 C861 C 0.65223 0.34443 0.17002
 C862 C 0.68325 0.36409 0.18899
 C863 C 0.70285 0.34248 0.21782
 C864 C 0.69099 0.30199 0.22776
 C865 C 0.65935 0.28311 0.20866
 C866 C 0.64002 0.30408 0.17970
 C867 C 0.63297 0.36595 0.13902
 C868 C 0.60318 0.34547 0.11954
 C869 C 0.58593 0.36546 0.08965
 C870 C 0.59774 0.40592 0.07952
 C871 C 0.62710 0.42638 0.09957
 C872 C 0.64521 0.40627 0.12923
 C873 C 0.60952 0.28497 0.15989
 C874 C 0.59145 0.30530 0.13026
 C875 C 0.69451 0.40456 0.17843
 C876 C 0.67562 0.42542 0.14912
 H877 H 0.59988 0.25382 0.16719
 H878 H 0.56830 0.28935 0.11554
 H879 H 0.71825 0.42015 0.19287
 H880 H 0.68528 0.45656 0.14180
 H881 H 0.72747 0.35683 0.23237
 H882 H 0.65116 0.25121 0.21563
 H883 H 0.56310 0.34975 0.07442
 H884 H 0.63632 0.45759 0.09189
 C885 C 0.83670 0.16162 0.15972
 C886 C 0.79320 0.15345 0.16878
 C887 C 0.77349 0.17189 0.19792
 C888 C 0.79711 0.19798 0.21808
 C889 C 0.84002 0.20700 0.20829
 C890 C 0.86028 0.18846 0.17916
 C891 C 0.85819 0.14117 0.12955
 C892 C 0.90208 0.14858 0.12083
 C893 C 0.92276 0.12837 0.09252
 C894 C 0.89974 0.10115 0.07285
 C895 C 0.85558 0.09434 0.08174
 C896 C 0.83469 0.11414 0.11024
 C897 C 0.90394 0.19551 0.16935
 C898 C 0.92455 0.17581 0.14069
 C899 C 0.77057 0.12653 0.14879
 C900 C 0.79099 0.10718 0.11998
 H901 H 0.92250 0.21608 0.18410
 H902 H 0.95845 0.18178 0.13410
 H903 H 0.73694 0.12009 0.15560
 H904 H 0.77255 0.08638 0.10535
 H905 H 0.73979 0.16587 0.20499
 H906 H 0.85804 0.22723 0.22379
 H907 H 0.95679 0.13386 0.08580
 H908 H 0.83787 0.07321 0.06681
 C909 C 0.86545 0.65362 0.66693
 C910 C 0.86491 0.62679 0.69502
 C911 C 0.84724 0.64627 0.72456
 C912 C 0.82742 0.69209 0.72602
 C913 C 0.83116 0.71883 0.69777
 C914 C 0.84982 0.69970 0.66826
 C915 C 0.88102 0.63280 0.63520
 C916 C 0.88106 0.65955 0.60690
 C917 C 0.89431 0.63932 0.57652
 C918 C 0.90593 0.59265 0.57433
 C919 C 0.90616 0.56647 0.60308
 C920 C 0.89412 0.58636 0.63359
 C921 C 0.85116 0.72552 0.63955
 C922 C 0.86678 0.70584 0.60948
 C923 C 0.88018 0.58059 0.69270
 C924 C 0.89422 0.56068 0.66245
 H925 H 0.83932 0.76121 0.64020
 H926 H 0.86670 0.72694 0.58791
 H927 H 0.88003 0.55947 0.71424
 H928 H 0.90464 0.52483 0.66158
 H929 H 0.84784 0.62508 0.74611
 H930 H 0.81678 0.75394 0.69731
 H931 H 0.89430 0.65964 0.55452
 H932 H 0.91580 0.53055 0.60167
 C933 C 0.33831 0.15619 0.66133
 C934 C 0.35776 0.19013 0.67601
 C935 C 0.33715 0.21148 0.70431
 C936 C 0.29711 0.19927 0.71745
 C937 C 0.27738 0.16629 0.70133
 C938 C 0.29826 0.14407 0.67390
 C939 C 0.36021 0.13279 0.63224
 C940 C 0.34132 0.09795 0.61840
 C941 C 0.36262 0.07520 0.59122
 C942 C 0.40164 0.08792 0.57717
 C943 C 0.41980 0.12345 0.59086
 C944 C 0.39958 0.14557 0.61888
 C945 C 0.27992 0.10962 0.65902
 C946 C 0.30137 0.08663 0.63191
 C947 C 0.39756 0.20165 0.66216
 C948 C 0.41792 0.17997 0.63396
 H949 H 0.24901 0.09999 0.66865
 H950 H 0.28644 0.05992 0.62136
 H951 H 0.41303 0.22773 0.67313
 H952 H 0.44845 0.19001 0.62403
 H953 H 0.35262 0.23684 0.71626
 H954 H 0.24544 0.15774 0.70989
 H955 H 0.34837 0.04807 0.58061
 H956 H 0.44998 0.13320 0.58010
 C957 C 0.35595 0.65592 0.16080
 C958 C 0.35653 0.63125 0.19014
 C959 C 0.33664 0.65227 0.21849
 C960 C 0.31443 0.69727 0.21747
 C961 C 0.31525 0.72186 0.18796
 C962 C 0.33617 0.70133 0.15958
 C963 C 0.37503 0.63337 0.13051
 C964 C 0.37440 0.65789 0.10103
 C965 C 0.39159 0.63592 0.07210
 C966 C 0.40767 0.58960 0.07250
 C967 C 0.40819 0.56566 0.10231
 C968 C 0.39237 0.58742 0.13145
 C969 C 0.33652 0.72488 0.12969
 C970 C 0.35561 0.70362 0.10101
 C971 C 0.37563 0.58563 0.19032
 C972 C 0.39295 0.56402 0.16141
 H973 H 0.32153 0.75997 0.12839
 H974 H 0.35486 0.72297 0.07847
 H975 H 0.37627 0.56625 0.21285
 H976 H 0.40652 0.52861 0.16246
 H977 H 0.33731 0.63314 0.24113
 H978 H 0.29796 0.75627 0.18651
 H979 H 0.39111 0.65444 0.04917
 H980 H 0.42106 0.53008 0.10280
   
