data_POSCAR
  _audit_creation_date              2014-09-24
  _audit_creation_method            'ToBaCCo'
  _symmetry_space_group_name_H-M    'P1'
  _symmetry_Int_Tables_number       1
  _symmetry_cell_setting            triclinic
  loop_
  _symmetry_equiv_pos_as_xyz
 x,y,z
_cell_length_a 25.8532
_cell_length_b 33.1670
_cell_length_c 16.6149
_cell_angle_alpha 89.915300
_cell_angle_beta 89.817300
_cell_angle_gamma 89.250900
loop_
  _atom_site_label
  _atom_site_type_symbol
  _atom_site_fract_x
  _atom_site_fract_y
  _atom_site_fract_z
C1 C 0.71719 0.36736 0.48987
 C2 C 0.72805 0.35077 0.56602
 C3 C 0.75004 0.31167 0.56930
 C4 C 0.75716 0.28784 0.49937
 C5 C 0.74361 0.30533 0.42456
 C6 C 0.72553 0.34528 0.41916
 C7 C 0.77813 0.24509 0.50472
 C8 C 0.79682 0.22441 0.43561
 C9 C 0.81429 0.18399 0.43958
 C10 C 0.81822 0.16576 0.51573
 C11 C 0.80084 0.18535 0.58512
 C12 C 0.77950 0.22423 0.57911
 H13 H 0.69846 0.39657 0.48484
 H14 H 0.76264 0.30068 0.62713
 H15 H 0.74652 0.28846 0.36936
 H16 H 0.79692 0.23899 0.37776
 H17 H 0.83844 0.13726 0.52201
 H18 H 0.76445 0.23752 0.63371
 C19 C 0.19283 0.84286 0.49748
 C20 C 0.20204 0.82523 0.57328
 C21 C 0.21790 0.78435 0.57601
 C22 C 0.22130 0.76047 0.50551
 C23 C 0.20810 0.77904 0.43154
 C24 C 0.19628 0.82025 0.42668
 C25 C 0.23955 0.71693 0.50825
 C26 C 0.25537 0.69686 0.43716
 C27 C 0.27218 0.65653 0.43764
 C28 C 0.27548 0.63615 0.51130
 C29 C 0.26191 0.65516 0.58421
 C30 C 0.24275 0.69517 0.58148
 H31 H 0.17907 0.87369 0.49292
 H32 H 0.22910 0.77207 0.63355
 H33 H 0.20700 0.76218 0.37627
 H34 H 0.25573 0.71226 0.38020
 H35 H 0.29294 0.60637 0.51206
 H36 H 0.22938 0.70850 0.63704
 C37 C 0.31815 0.33826 -0.48514
 C38 C 0.31511 0.31866 -0.55929
 C39 C 0.29597 0.27925 -0.56174
 C40 C 0.27613 0.26023 -0.49194
 C41 C 0.27746 0.28195 -0.41872
 C42 C 0.29944 0.32028 -0.41481
 C43 C 0.25446 0.21820 -0.49549
 C44 C 0.24771 0.19495 -0.42479
 C45 C 0.22657 0.15599 -0.42703
 C46 C 0.21563 0.13918 -0.50270
 C47 C 0.22292 0.16098 -0.57395
 C48 C 0.24040 0.20072 -0.56965
 H49 H 0.33725 0.36688 -0.48101
 H50 H 0.29700 0.26398 -0.61896
 H51 H 0.26124 0.26991 -0.36394
 H52 H 0.26019 0.20623 -0.36732
 H53 H 0.19765 0.11002 -0.50686
 H54 H 0.24268 0.21748 -0.62514
 C55 C -0.21094 0.85997 -0.50205
 C56 C -0.22291 0.84376 -0.57758
 C57 C -0.24399 0.80486 -0.57996
 C58 C -0.25070 0.78150 -0.50917
 C59 C -0.23500 0.79839 -0.43495
 C60 C -0.21639 0.83784 -0.43090
 C61 C -0.27438 0.74013 -0.51290
 C62 C -0.29460 0.72146 -0.44305
 C63 C -0.31796 0.68353 -0.44656
 C64 C -0.32486 0.66526 -0.52147
 C65 C -0.30459 0.68243 -0.59143
 C66 C -0.27846 0.71909 -0.58670
 H67 H -0.19201 0.88876 -0.49830
 H68 H -0.25657 0.79380 -0.63738
 H69 H -0.23663 0.78135 -0.37973
 H70 H -0.29308 0.73600 -0.38512
 H71 H -0.34835 0.63876 -0.52605
 H72 H -0.26200 0.73064 -0.64171
 N73 N -0.05943 0.93306 -0.08358
 N74 N -0.09245 0.90472 -0.10392
 N75 N 0.04807 0.95687 -0.14735
 N76 N 0.08283 0.94955 -0.20380
 N77 N 0.04866 0.92806 -0.09305
 N78 N 0.08351 0.90005 -0.11175
 N79 N -0.06064 0.96268 -0.13617
 N80 N -0.09510 0.95560 -0.19242
 C81 C -0.11531 0.91975 -0.17096
 C82 C 0.10484 0.91416 -0.18078
 N83 N 0.05915 1.07129 -0.09167
 N84 N 0.09793 1.09529 -0.11013
 N85 N -0.05441 1.04938 -0.13496
 N86 N -0.09074 1.05951 -0.18709
 N87 N -0.04900 1.07785 -0.08089
 N88 N -0.08096 1.10835 -0.09565
 N89 N 0.05430 1.04308 -0.14638
 N90 N 0.08984 1.04673 -0.20277
 Mn91 Mn -0.00332 1.00303 -0.14187
 C92 C 0.11696 1.07924 -0.17942
 C93 C -0.10747 1.09610 -0.16119
 N94 N 0.05444 0.92669 0.08112
 N95 N 0.08561 0.89600 0.09862
 N96 N -0.04990 0.96126 0.14415
 N97 N -0.08525 0.95696 0.20058
 N98 N -0.05363 0.93265 0.09002
 N99 N -0.09129 0.90772 0.10896
 N100 N 0.05881 0.95534 0.13500
 N101 N 0.09364 0.94537 0.18941
 Mn102 Mn -0.00245 0.92967 -0.00136
 C103 C 0.11053 0.90858 0.16552
 C104 C -0.11114 0.92374 0.17763
 N105 N -0.04246 1.07682 0.09291
 N106 N -0.07349 1.10674 0.11582
 N107 N 0.06545 1.04141 0.13616
 N108 N 0.10139 1.04727 0.19079
 N109 N 0.06543 1.07058 0.08261
 N110 N 0.10082 1.09751 0.10049
 N111 N -0.04297 1.04753 0.14614
 N112 N -0.07458 1.05643 0.20595
 Mn113 Mn 0.00837 1.07459 0.00063
 Mn114 Mn 0.00783 1.00134 0.14089
 Cl115 Cl 0.00259 1.00218 -0.00046
 C116 C -0.09378 1.09317 0.18607
 C117 C 0.12359 1.08204 0.16727
 N118 N 0.53582 0.57819 -0.09643
 N119 N 0.56491 0.60893 -0.11782
 N120 N 0.43087 0.54049 -0.14062
 N121 N 0.39285 0.54445 -0.19268
 N122 N 0.42836 0.56910 -0.08618
 N123 N 0.38877 0.59372 -0.10067
 N124 N 0.53891 0.54935 -0.15033
 N125 N 0.57079 0.55929 -0.20884
 C126 C 0.58713 0.59627 -0.18750
 C127 C 0.36655 0.57748 -0.16680
 N128 N 0.44996 0.42590 -0.08819
 N129 N 0.41748 0.39622 -0.10218
 N130 N 0.55186 0.46333 -0.15154
 N131 N 0.58736 0.46032 -0.20835
 N132 N 0.55789 0.43458 -0.09788
 N133 N 0.59758 0.41094 -0.11730
 N134 N 0.44387 0.45470 -0.14174
 N135 N 0.40684 0.44581 -0.19265
 Mn136 Mn 0.49141 0.50195 -0.14666
 C137 C 0.39039 0.40946 -0.16711
 C138 C 0.61585 0.42771 -0.18611
 N139 N 0.43513 0.56894 0.08779
 N140 N 0.39752 0.59400 0.10948
 N141 N 0.54940 0.54906 0.13089
 N142 N 0.58587 0.55877 0.18233
 N143 N 0.54248 0.57787 0.07756
 N144 N 0.57351 0.60832 0.09238
 N145 N 0.44121 0.54027 0.14164
 N146 N 0.40738 0.54462 0.20064
 Mn147 Mn 0.48535 0.57399 -0.00427
 C148 C 0.38009 0.57799 0.17937
 C149 C 0.60098 0.59558 0.15719
 N150 N 0.56387 0.43407 0.07611
 N151 N 0.60115 0.40781 0.09317
 N152 N 0.45406 0.45424 0.14053
 N153 N 0.42311 0.44402 0.20009
 N154 N 0.45666 0.42548 0.08634
 N155 N 0.42831 0.39449 0.10875
 N156 N 0.56214 0.46293 0.13016
 N157 N 0.59868 0.45749 0.18436
 Mn158 Mn 0.50712 0.42951 -0.00602
 Mn159 Mn 0.50175 0.50165 0.13642
 Cl160 Cl 0.49641 0.50176 -0.00508
 C161 C 0.62313 0.42335 0.16000
 C162 C 0.40686 0.40694 0.17916
 C163 C 0.31621 0.37834 0.34586
 C164 C 0.33239 0.33902 0.36575
 C165 C 0.36475 0.31909 0.30907
 C166 C 0.38596 0.34030 0.24294
 C167 C 0.37507 0.38176 0.23228
 C168 C 0.33666 0.39878 0.28124
 C169 C 0.32820 0.43908 0.31888
 C170 C 0.30550 0.41669 0.39082
 H171 H 0.37681 0.28811 0.31904
 H172 H 0.41422 0.32522 0.20484
 H173 H 0.29909 0.45761 0.28583
 H174 H 0.36487 0.45461 0.33331
 H175 H 0.26340 0.42256 0.39915
 H176 H 0.32943 0.42081 0.44535
 C177 C -0.18820 0.84357 0.28460
 C178 C -0.20816 0.86472 0.35159
 C179 C -0.20123 0.90702 0.35254
 C180 C -0.17212 0.92636 0.29327
 C181 C -0.15006 0.90453 0.22929
 C182 C -0.15919 0.86310 0.22507
 C183 C -0.18538 0.84124 0.15871
 C184 C -0.21725 0.82042 0.22251
 H185 H -0.21747 0.92550 0.40021
 H186 H -0.16590 0.95849 0.29866
 H187 H -0.15842 0.82045 0.12643
 H188 H -0.20859 0.86160 0.11922
 H189 H -0.20908 0.78748 0.22630
 H190 H -0.25902 0.82883 0.22053
 C191 C 0.70059 0.62483 0.30959
 C192 C 0.68454 0.66408 0.32950
 C193 C 0.65161 0.68413 0.27435
 C194 C 0.62812 0.66262 0.21108
 C195 C 0.63708 0.62077 0.20271
 C196 C 0.67724 0.60378 0.24829
 C197 C 0.68521 0.56411 0.28921
 C198 C 0.71162 0.58722 0.35650
 H199 H 0.63969 0.71508 0.28516
 H200 H 0.59878 0.67767 0.17517
 H201 H 0.71212 0.54395 0.25529
 H202 H 0.64847 0.55007 0.30892
 H203 H 0.75377 0.58052 0.36058
 H204 H 0.69034 0.58528 0.41415
 C205 C 0.18603 1.16439 0.28563
 C206 C 0.21021 1.14233 0.34735
 C207 C 0.21810 1.10063 0.33433
 C208 C 0.19373 1.08112 0.26993
 C209 C 0.16196 1.10305 0.21641
 C210 C 0.16249 1.14517 0.22133
 C211 C 0.11864 1.17493 0.22007
 C212 C 0.14443 1.19594 0.29027
 H213 H 0.23935 1.08249 0.37757
 H214 H 0.19610 1.04854 0.26628
 H215 H 0.08096 1.16122 0.23624
 H216 H 0.11830 1.19328 0.16404
 H217 H 0.12178 1.19440 0.34718
 H218 H 0.15897 1.22636 0.27457
 C219 C 0.70249 0.35171 -0.29036
 C220 C 0.71440 0.37201 -0.36259
 C221 C 0.70690 0.41447 -0.36192
 C222 C 0.67883 0.43348 -0.29973
 C223 C 0.65814 0.41079 -0.23596
 C224 C 0.67475 0.37065 -0.22880
 C225 C 0.64469 0.33375 -0.20990
 C226 C 0.67472 0.31290 -0.27696
 H227 H 0.71984 0.43305 -0.41141
 H228 H 0.66968 0.46532 -0.30530
 H229 H 0.60274 0.33739 -0.22306
 H230 H 0.65391 0.32156 -0.14919
 H231 H 0.65015 0.30440 -0.32891
 H232 H 0.70100 0.28857 -0.25469
 C233 C 0.17755 0.82910 -0.28291
 C234 C 0.19303 0.84771 -0.35525
 C235 C 0.19359 0.89047 -0.35491
 C236 C 0.16910 0.91253 -0.29315
 C237 C 0.14403 0.89256 -0.22962
 C238 C 0.15323 0.85106 -0.22181
 C239 C 0.11677 0.81791 -0.20276
 C240 C 0.14306 0.79381 -0.26929
 H241 H 0.20994 0.90722 -0.40457
 H242 H 0.16599 0.94500 -0.29904
 H243 H 0.07584 0.82602 -0.21637
 H244 H 0.12353 0.80506 -0.14182
 H245 H 0.11733 0.78789 -0.32136
 H246 H 0.16476 0.76700 -0.24653
 C247 C 0.28521 0.65635 -0.27165
 C248 C 0.27098 0.63519 -0.34151
 C249 C 0.27290 0.59255 -0.33630
 C250 C 0.29906 0.57316 -0.27287
 C251 C 0.32355 0.59580 -0.21282
 C252 C 0.31145 0.63703 -0.20898
 C253 C 0.34562 0.67217 -0.19479
 C254 C 0.31720 0.69338 -0.26291
 H255 H 0.25785 0.57400 -0.38414
 H256 H 0.30459 0.54075 -0.27561
 H257 H 0.38693 0.66549 -0.20888
 H258 H 0.33842 0.68629 -0.13510
 H259 H 0.34210 0.69908 -0.31633
 H260 H 0.29377 0.71979 -0.24237
 C261 C -0.20605 1.12803 -0.31483
 C262 C -0.18945 1.16683 -0.33518
 C263 C -0.15637 1.18591 -0.27987
 C264 C -0.13340 1.16376 -0.21624
 C265 C -0.14310 1.12220 -0.20737
 C266 C -0.18348 1.10650 -0.25284
 C267 C -0.19367 1.06685 -0.29120
 C268 C -0.21915 1.09043 -0.35971
 H269 H -0.14379 1.21645 -0.29090
 H270 H -0.10389 1.17796 -0.18036
 H271 H -0.22155 1.04882 -0.25559
 H272 H -0.15777 1.05061 -0.31009
 H273 H -0.26160 1.08582 -0.36297
 H274 H -0.19829 1.08626 -0.41748
 C275 C 0.67889 0.62360 -0.35328
 C276 C 0.66423 0.66337 -0.37186
 C277 C 0.63327 0.68390 -0.31428
 C278 C 0.61131 0.66284 -0.24859
 C279 C 0.62027 0.62103 -0.23936
 C280 C 0.65790 0.60327 -0.28882
 C281 C 0.66315 0.56321 -0.32877
 C282 C 0.68586 0.58552 -0.40055
 H283 H 0.62277 0.71528 -0.32333
 H284 H 0.58386 0.67841 -0.20986
 H285 H 0.62537 0.54917 -0.34240
 H286 H 0.69172 0.54324 -0.29793
 H287 H 0.66020 0.58342 -0.45356
 H288 H 0.72727 0.57795 -0.41172
 C289 C 0.20103 1.15551 -0.28342
 C290 C 0.21399 1.13501 -0.35515
 C291 C 0.20855 1.09253 -0.35364
 C292 C 0.18119 1.07355 -0.29128
 C293 C 0.15905 1.09633 -0.22833
 C294 C 0.17384 1.13661 -0.22173
 C295 C 0.14210 1.17338 -0.20393
 C296 C 0.17153 1.19418 -0.27109
 H297 H 0.22246 1.07392 -0.40276
 H298 H 0.17360 1.04161 -0.29627
 H299 H 0.15049 1.18585 -0.14337
 H300 H 0.10037 1.16942 -0.21747
 H301 H 0.19667 1.21874 -0.24906
 H302 H 0.14683 1.20235 -0.32347
 C303 C 0.32867 0.32177 -0.27079
 C304 C 0.30560 0.34120 -0.33681
 C305 C 0.29700 0.38315 -0.33097
 C306 C 0.32001 0.40534 -0.26891
 C307 C 0.35194 0.38594 -0.21168
 C308 C 0.35152 0.34373 -0.20936
 C309 C 0.39526 0.31412 -0.20182
 C310 C 0.37023 0.29012 -0.26876
 H311 H 0.27733 0.39928 -0.37891
 H312 H 0.31731 0.43794 -0.27096
 H313 H 0.39492 0.29828 -0.14283
 H314 H 0.43314 0.32706 -0.21936
 H315 H 0.35537 0.26052 -0.24828
 H316 H 0.39360 0.28913 -0.32506
 C317 C -0.20058 0.89820 -0.34626
 C318 C -0.19822 0.85624 -0.35455
 C319 C -0.16899 0.83442 -0.29698
 C320 C -0.14469 0.85458 -0.23267
 C321 C -0.14875 0.89691 -0.22533
 C322 C -0.17606 0.91802 -0.28435
 C323 C -0.22001 0.94726 -0.27459
 C324 C -0.24682 0.92544 -0.34264
 H325 H -0.16323 0.80219 -0.30316
 H326 H -0.12105 0.83735 -0.19098
 H327 H -0.20867 0.97837 -0.29093
 H328 H -0.24002 0.94427 -0.21557
 H329 H -0.25094 0.94407 -0.39799
 H330 H -0.28239 0.90955 -0.32331
 C331 C 0.30992 0.65823 0.29711
 C332 C 0.28899 0.63630 0.36154
 C333 C 0.28701 0.59394 0.35235
 C334 C 0.31359 0.57461 0.28882
 C335 C 0.34121 0.59729 0.23178
 C336 C 0.33507 0.63920 0.23344
 C337 C 0.37481 0.67133 0.22751
 C338 C 0.34736 0.69218 0.29722
 H339 H 0.26805 0.57539 0.39691
 H340 H 0.31548 0.54197 0.28759
 H341 H 0.37190 0.68842 0.17006
 H342 H 0.41435 0.66023 0.24284
 H343 H 0.32884 0.72132 0.27974
 H344 H 0.37090 0.69313 0.35308
 C345 C -0.15588 1.18059 0.29761
 C346 C -0.17218 1.16188 0.36936
 C347 C -0.17453 1.11919 0.36807
 C348 C -0.15299 1.09688 0.30430
 C349 C -0.12851 1.11639 0.23968
 C350 C -0.13411 1.15833 0.23462
 C351 C -0.09480 1.18961 0.21684
 C352 C -0.11832 1.21402 0.28540
 H353 H -0.19138 1.10255 0.41749
 H354 H -0.15228 1.06428 0.30864
 H355 H -0.10084 1.20376 0.15687
 H356 H -0.05459 1.17901 0.22903
 H357 H -0.13764 1.24229 0.26466
 H358 H -0.09174 1.21764 0.33732
 C359 C 0.68976 0.34155 0.27811
 C360 C 0.71272 0.36377 0.33992
 C361 C 0.71880 0.40553 0.32662
 C362 C 0.69354 0.42488 0.26213
 C363 C 0.66282 0.40272 0.20868
 C364 C 0.66544 0.36061 0.21363
 C365 C 0.62309 0.33042 0.21212
 C366 C 0.64971 0.30959 0.28252
 H367 H 0.73913 0.42383 0.36984
 H368 H 0.69429 0.45749 0.25846
 H369 H 0.62382 0.31214 0.15611
 H370 H 0.58470 0.34374 0.22801
 H371 H 0.66579 0.27934 0.26696
 H372 H 0.62682 0.31086 0.33927
 C373 C 0.15922 0.82039 0.28619
 C374 C 0.18632 0.83987 0.34763
 C375 C 0.20083 0.88015 0.33344
 C376 C 0.18017 0.90185 0.26801
 C377 C 0.14544 0.88347 0.21472
 C378 C 0.13925 0.84173 0.22093
 C379 C 0.09112 0.81731 0.21995
 C380 C 0.11303 0.79397 0.29117
 H381 H 0.22459 0.89592 0.37639
 H382 H 0.18767 0.93383 0.26345
 H383 H 0.08817 0.79880 0.16449
 H384 H 0.05589 0.83537 0.23516
 H385 H 0.12274 0.76205 0.27662
 H386 H 0.09055 0.79849 0.34770
   
