data_POSCAR
  _audit_creation_date              2014-09-24
  _audit_creation_method            'ToBaCCo'
  _symmetry_space_group_name_H-M    'P1'
  _symmetry_Int_Tables_number       1
  _symmetry_cell_setting            triclinic
  loop_
  _symmetry_equiv_pos_as_xyz
 x,y,z
_cell_length_a 40.6407
_cell_length_b 40.5052
_cell_length_c 40.4531
_cell_angle_alpha 90.059500
_cell_angle_beta 89.998700
_cell_angle_gamma 89.935500
loop_
  _atom_site_label
  _atom_site_type_symbol
  _atom_site_fract_x
  _atom_site_fract_y
  _atom_site_fract_z
C1 C 0.19004 1.23187 0.19076
 N2 N 0.17609 1.21828 0.21802
 C3 C 0.18963 1.19102 0.23201
 N4 N 0.21694 1.17717 0.21854
 C5 C 0.23090 1.19075 0.19129
 N6 N 0.21736 1.21801 0.17731
 C7 C 0.81057 0.76752 0.19105
 N8 N 0.78325 0.78109 0.17733
 C9 C 0.76942 0.80836 0.19105
 N10 N 0.78310 0.82226 0.21831
 C11 C 0.81042 0.80871 0.23205
 N12 N 0.82424 0.78143 0.21831
 C13 C 0.80958 1.23203 -0.19042
 N14 N 0.82320 1.21823 -0.21778
 C15 C 0.80942 1.19097 -0.23155
 N16 N 0.78220 1.17735 -0.21775
 C17 C 0.76857 1.19114 -0.19040
 N18 N 0.78236 1.21839 -0.17664
 C19 C 0.19039 0.76891 -0.19202
 N20 N 0.17664 0.78282 -0.21923
 C21 C 0.19034 0.81014 -0.23288
 N22 N 0.21762 0.82371 -0.21913
 C23 C 0.23138 0.80980 -0.19193
 N24 N 0.21767 0.78249 -0.17828
 C25 C 0.55047 1.04532 -0.00945
 H26 H 0.55117 1.04517 0.01729
 C27 C 0.57292 1.06445 -0.02716
 H28 H 0.59094 1.07919 -0.01406
 C29 C 0.52682 1.02550 -0.05927
 H30 H 0.50930 1.00977 -0.07169
 C31 C 0.54886 1.04427 -0.07794
 H32 H 0.54806 1.04316 -0.10468
 N33 N 0.52793 1.02648 -0.02564
 C34 C 0.44991 1.00952 0.04634
 H35 H 0.44923 0.98282 0.04617
 C36 C 0.42740 1.02725 0.06547
 H37 H 0.40937 1.01420 0.08022
 C38 C 0.47354 1.05924 0.02650
 H39 H 0.49106 1.07161 0.01075
 C40 C 0.45143 1.07792 0.04528
 H41 H 0.45220 1.10463 0.04416
 Zn42 Zn 0.50021 0.99954 0.00046
 N43 N 0.47246 1.02566 0.02748
 C44 C 0.52686 0.97355 0.06019
 N45 N 0.52795 0.97256 0.02656
 C46 C 0.55051 0.95369 0.01037
 C47 C 0.57302 0.93457 0.02807
 C48 C 0.54895 0.95479 0.07885
 C49 C 0.44993 0.98965 -0.04541
 C50 C 0.42745 0.97198 -0.06459
 C51 C 0.45153 0.92125 -0.04445
 C52 C 0.47360 0.93988 -0.02563
 N53 N 0.47248 0.97347 -0.02656
 H54 H 0.50932 0.98931 0.07262
 H55 H 0.55121 0.95384 -0.01637
 H56 H 0.59106 0.91982 0.01497
 H57 H 0.54817 0.95592 0.10560
 H58 H 0.44922 1.01635 -0.04521
 H59 H 0.40942 0.98507 -0.07933
 H60 H 0.45233 0.89454 -0.04338
 H61 H 0.49114 0.92747 -0.00989
 C62 C 0.42811 1.06175 0.06484
 C63 C 0.57217 1.06383 -0.06171
 C64 C 0.42821 0.93748 -0.06401
 C65 C 0.57229 0.93522 0.06262
 C66 C -0.00962 0.55014 1.04558
 H67 H 0.01699 0.55085 1.04543
 C68 C -0.02730 0.57270 1.06474
 H69 H -0.01431 0.59079 1.07953
 C70 C -0.05915 0.52639 1.02568
 H71 H -0.07147 0.50879 1.00990
 C72 C -0.07778 0.54854 1.04448
 H73 H -0.10440 0.54773 1.04336
 N74 N -0.02568 0.52750 1.02668
 C75 C 0.04606 0.44917 1.00972
 H76 H 0.04595 0.44844 0.98298
 C77 C 0.06511 0.42663 1.02748
 H78 H 0.07984 0.40852 1.01442
 C79 C 0.02621 0.47298 1.05949
 H80 H 0.01048 0.49059 1.07187
 C81 C 0.04490 0.45085 1.07820
 H82 H 0.04374 0.45168 1.10495
 Zn83 Zn 0.00038 0.49964 0.99971
 N84 N 0.02723 0.47183 1.02587
 C85 C 0.05987 0.52630 0.97375
 N86 N 0.02640 0.52743 0.97274
 C87 C 0.01030 0.55006 0.95386
 C88 C 0.02794 0.57258 0.93473
 C89 C 0.07847 0.54842 0.95497
 C90 C -0.04524 0.44920 0.98970
 C91 C -0.06430 0.42667 0.97195
 C92 C -0.04417 0.45078 0.92121
 C93 C -0.02546 0.47291 0.93992
 N94 N -0.02645 0.47181 0.97354
 H95 H 0.07221 0.50872 0.98951
 H96 H -0.01632 0.55078 0.95400
 H97 H 0.01492 0.59067 0.91995
 H98 H 0.10509 0.54760 0.95611
 H99 H -0.04510 0.44851 1.01643
 H100 H -0.07901 0.40861 0.98501
 H101 H -0.04305 0.45158 0.89447
 H102 H -0.00977 0.49048 0.92753
 C103 C 0.06443 0.42742 1.06202
 C104 C -0.06168 0.57194 1.06410
 C105 C -0.06368 0.42742 0.93740
 C106 C 0.06233 0.57181 0.93537
 C107 C 1.04508 -0.00923 0.55031
 H108 H 1.04492 0.01747 0.55106
 C109 C 1.06417 -0.02697 0.57283
 H110 H 1.07889 -0.01394 0.59095
 C111 C 1.02530 -0.05893 0.52646
 H112 H 1.00959 -0.07129 0.50884
 C113 C 1.04403 -0.07762 0.54857
 H114 H 1.04292 -0.10433 0.54772
 N115 N 1.02627 -0.02535 0.52763
 C116 C 1.00936 0.04660 0.44932
 H117 H 0.98274 0.04649 0.44861
 C118 C 1.02702 0.06569 0.42677
 H119 H 1.01402 0.08047 0.40867
 C120 C 1.05891 0.02667 0.47309
 H121 H 1.07124 0.01090 0.49069
 C122 C 1.07752 0.04540 0.45095
 H123 H 1.10414 0.04424 0.45176
 Zn124 Zn 0.99941 0.00080 0.49980
 N125 N 1.02543 0.02771 0.47197
 C126 C 0.97354 0.06052 0.52661
 N127 N 0.97256 0.02694 0.52769
 C128 C 0.95377 0.01082 0.55035
 C129 C 0.93472 0.02856 0.57295
 C130 C 0.95486 0.07922 0.54880
 C131 C 0.98948 -0.04500 0.44925
 C132 C 0.97184 -0.06416 0.42669
 C133 C 0.92131 -0.04395 0.45093
 C134 C 0.93991 -0.02515 0.47307
 N135 N 0.97338 -0.02613 0.47192
 H136 H 0.98923 0.07288 0.50900
 H137 H 0.95391 -0.01588 0.55103
 H138 H 0.92002 0.01552 0.59106
 H139 H 0.95598 0.10593 0.54802
 H140 H 1.01609 -0.04485 0.44852
 H141 H 0.98485 -0.07894 0.40857
 H142 H 0.89469 -0.04284 0.45176
 H143 H 0.92757 -0.00939 0.49070
 C144 C 1.06141 0.06500 0.42754
 C145 C 1.06355 -0.06147 0.57201
 C146 C 0.93745 -0.06355 0.42749
 C147 C 0.93536 0.06306 0.57223
 C148 C 0.14681 0.30854 1.14618
 N149 N 0.11892 0.32193 1.15887
 N150 N 0.10339 0.34616 1.14295
 C151 C 0.11528 0.35773 1.11386
 N152 N 0.14319 0.34438 1.10120
 N153 N 0.15872 0.32015 1.11712
 C154 C 0.16275 0.28152 1.16261
 C155 C 0.17577 0.25838 1.17603
 C156 C 0.09781 0.38283 1.09602
 C157 C 0.08278 0.40343 1.08070
 C158 C -0.14532 0.69082 1.14725
 N159 N -0.15770 0.67797 1.11890
 N160 N -0.14190 0.65374 1.10319
 C161 C -0.11324 0.64163 1.11538
 N162 N -0.10088 0.65444 1.14376
 N163 N -0.11668 0.67867 1.15946
 C164 C -0.16158 0.71785 1.16339
 C165 C -0.17487 0.74100 1.17658
 C166 C -0.09551 0.61653 1.09774
 C167 C -0.08028 0.59593 1.08258
 C168 C -0.14655 0.30866 0.85359
 N169 N -0.11790 0.32083 0.84152
 N170 N -0.10223 0.34504 0.85733
 C171 C -0.11474 0.35780 0.88569
 N172 N -0.14342 0.34567 0.89773
 N173 N -0.15909 0.32146 0.88191
 C174 C -0.16270 0.28166 0.83734
 C175 C -0.17591 0.25853 0.82409
 C176 C -0.09716 0.38288 0.90345
 C177 C -0.08207 0.40346 0.91874
 C178 C 0.14570 0.69066 0.85244
 N179 N 0.11720 0.67837 0.84010
 N180 N 0.10146 0.65414 0.85576
 C181 C 0.11375 0.64147 0.88423
 N182 N 0.14228 0.65372 0.89653
 N183 N 0.15802 0.67795 0.88088
 C184 C 0.16190 0.71769 0.83634
 C185 C 0.17512 0.74084 0.82319
 C186 C 0.09608 0.61637 0.90182
 C187 C 0.08088 0.59578 0.91694
 C188 C 1.14520 0.14764 0.30866
 N189 N 1.11624 0.15959 0.32031
 N190 N 1.10038 0.14401 0.34453
 C191 C 1.11300 0.11600 0.35784
 N192 N 1.14199 0.10408 0.34623
 N193 N 1.15785 0.11967 0.32201
 C194 C 1.16156 0.16364 0.28165
 C195 C 1.17494 0.17670 0.25851
 C196 C 1.09525 0.09848 0.38294
 C197 C 1.08000 0.08340 0.40354
 C198 C 1.14653 -0.14548 0.69062
 N199 N 1.11827 -0.15786 0.67782
 N200 N 1.10259 -0.14198 0.65366
 C201 C 1.11470 -0.11324 0.64155
 N202 N 1.14299 -0.10089 0.65431
 N203 N 1.15867 -0.11677 0.67848
 C204 C 1.16267 -0.16185 0.71758
 C205 C 1.17586 -0.17521 0.74067
 C206 C 1.09710 -0.09543 0.61651
 C207 C 1.08198 -0.08013 0.59595
 C208 C 0.85415 -0.14704 0.30870
 N209 N 0.88234 -0.15960 0.32153
 N210 N 0.89805 -0.14380 0.34574
 C211 C 0.88605 -0.11496 0.35786
 N212 N 0.85783 -0.10244 0.34507
 N213 N 0.84212 -0.11824 0.32085
 C214 C 0.83801 -0.16332 0.28169
 C215 C 0.82484 -0.17665 0.25855
 C216 C 0.90370 -0.09725 0.38294
 C217 C 0.91889 -0.08206 0.40352
 C218 C 0.85287 0.14688 0.69150
 N219 N 0.88124 0.15913 0.67883
 N220 N 0.89681 0.14331 0.65452
 C221 C 0.88448 0.11476 0.64213
 N222 N 0.85609 0.10253 0.65476
 N223 N 0.84052 0.11835 0.67908
 C224 C 0.83687 0.16315 0.71862
 C225 C 0.82378 0.17643 0.74185
 C226 C 0.90198 0.09699 0.61695
 C227 C 0.91702 0.08171 0.59628
 C228 C 0.30918 1.14563 0.14735
 N229 N 0.32251 1.15830 0.11937
 N230 N 0.34676 1.14245 0.10383
 C231 C 0.35841 1.11344 0.11580
 N232 N 0.34513 1.10079 0.14381
 N233 N 0.32088 1.11665 0.15935
 C234 C 0.28214 1.16197 0.16328
 C235 C 0.25898 1.17532 0.17628
 C236 C 0.38352 1.09566 0.09830
 C237 C 0.40413 1.08038 0.08324
 C238 C 0.69060 1.14673 -0.14546
 N239 N 0.67845 1.15896 -0.11672
 N240 N 0.65431 1.14331 -0.10090
 C241 C 0.64159 1.11496 -0.11335
 N242 N 0.65370 1.10276 -0.14212
 N243 N 0.67784 1.11841 -0.15794
 C244 C 0.71753 1.16281 -0.16175
 C245 C 0.74060 1.17595 -0.17504
 C246 C 0.61658 1.09737 -0.09559
 C247 C 0.59606 1.08226 -0.08033
 C248 C 0.30954 0.85419 -0.14722
 N249 N 0.32179 0.84205 -0.11850
 N250 N 0.34599 0.85774 -0.10278
 C251 C 0.35868 0.88605 -0.11530
 N252 N 0.34647 0.89816 -0.14405
 N253 N 0.32227 0.88247 -0.15977
 C254 C 0.28254 0.83808 -0.16339
 C255 C 0.25942 0.82495 -0.17662
 C256 C 0.38373 0.90370 -0.09766
 C257 C 0.40429 0.91890 -0.08250
 C258 C 0.69115 0.85256 0.14626
 N259 N 0.67826 0.88084 0.15876
 N260 N 0.65402 0.89643 0.14297
 C261 C 0.64194 0.88421 0.11421
 N262 N 0.65479 0.85590 0.10174
 N263 N 0.67903 0.84031 0.11752
 C264 C 0.71819 0.83655 0.16250
 C265 C 0.74135 0.82348 0.17575
 C266 C 0.61684 0.90174 0.09648
 C267 C 0.59625 0.91682 0.08123
   
