data_POSCAR
  _audit_creation_date              2014-09-24
  _audit_creation_method            'ToBaCCo'
  _symmetry_space_group_name_H-M    'P1'
  _symmetry_Int_Tables_number       1
  _symmetry_cell_setting            triclinic
  loop_
  _symmetry_equiv_pos_as_xyz
 x,y,z
_cell_length_a 24.1482
_cell_length_b 23.9878
_cell_length_c 31.8223
_cell_angle_alpha 89.558100
_cell_angle_beta 89.934500
_cell_angle_gamma 89.924700
loop_
  _atom_site_label
  _atom_site_type_symbol
  _atom_site_fract_x
  _atom_site_fract_y
  _atom_site_fract_z
C1 C -0.00341 0.55153 1.02232
 C2 C 0.00811 0.55190 0.97822
 C3 C 0.01547 0.50050 0.95780
 C4 C 0.00970 0.44935 0.97889
 C5 C -0.00119 0.44850 1.02273
 C6 C -0.00927 0.49974 1.04320
 H7 H -0.01419 0.49945 1.07705
 H8 H 0.02084 0.49978 0.92396
 C9 C 0.44923 0.00388 0.52196
 C10 C 0.44885 -0.00328 0.47795
 C11 C 0.49926 -0.00710 0.45622
 C12 C 0.55067 -0.00166 0.47683
 C13 C 0.55054 0.00626 0.52118
 C14 C 0.49995 0.00912 0.54283
 H15 H 0.50012 0.01315 0.57676
 H16 H 0.49796 -0.01064 0.42229
 C17 C 0.11316 0.00292 0.26724
 H18 H 0.11555 0.00502 0.23331
 C19 C 0.16161 0.00327 0.29115
 H20 H 0.20152 0.00558 0.27565
 C21 C 0.05828 -0.00251 0.32901
 H22 H 0.01799 -0.00412 0.34369
 C23 C 0.10573 -0.00223 0.35409
 H24 H 0.10183 -0.00412 0.38799
 N25 N 0.06285 -0.00086 0.28636
 C26 C -0.04454 -0.07738 0.19293
 H27 H -0.07806 -0.04744 0.19168
 C28 C -0.04638 -0.12503 0.16798
 H29 H -0.08132 -0.13184 0.14734
 C30 C 0.04180 -0.10555 0.22158
 H31 H 0.07572 -0.09835 0.24290
 C32 C 0.04157 -0.15370 0.19721
 H33 H 0.07557 -0.18307 0.19956
 Zn34 Zn -0.00050 -0.00245 0.25132
 N35 N -0.00049 -0.06812 0.21858
 C36 C 0.00086 0.05768 0.17370
 N37 N 0.00198 0.06178 0.21635
 C38 C 0.00566 0.11220 0.23547
 C39 C 0.00633 0.16126 0.21155
 C40 C 0.00148 0.10573 0.14862
 C41 C -0.07623 -0.04688 0.30964
 C42 C -0.12415 -0.04869 0.33428
 C43 C -0.15158 0.04016 0.30461
 C44 C -0.10320 0.04035 0.28056
 N45 N -0.06627 -0.00240 0.28391
 H46 H -0.00067 0.01731 0.15901
 H47 H 0.00732 0.11421 0.26939
 H48 H 0.00846 0.20126 0.22704
 H49 H -0.00007 0.10220 0.11472
 H50 H -0.04668 -0.08077 0.31115
 H51 H -0.13154 -0.08397 0.35498
 H52 H -0.18056 0.07452 0.30196
 H53 H -0.09546 0.07458 0.25915
 C54 C -0.00275 -0.16335 0.17002
 C55 C 0.15783 0.00028 0.33495
 C56 C -0.16199 -0.00460 0.33185
 C57 C 0.00380 0.15796 0.16776
 C58 C -0.00663 0.11658 0.76445
 H59 H -0.00879 0.11918 0.73053
 C60 C -0.00667 0.16524 0.78826
 H61 H -0.00881 0.20552 0.77271
 C62 C -0.00107 0.06098 0.82628
 H63 H 0.00056 0.02035 0.84103
 C64 C -0.00104 0.10862 0.85126
 H65 H 0.00110 0.10450 0.88515
 N66 N -0.00285 0.06581 0.78364
 C67 C 0.07423 -0.04161 0.69013
 H68 H 0.04460 -0.07535 0.68884
 C69 C 0.12196 -0.04326 0.66528
 H70 H 0.12914 -0.07825 0.64465
 C71 C 0.10161 0.04501 0.71888
 H72 H 0.09413 0.07892 0.74025
 C73 C 0.14981 0.04498 0.69462
 H74 H 0.17890 0.07914 0.69709
 Zn75 Zn -0.00088 0.00217 0.74876
 N76 N 0.06457 0.00249 0.71580
 C77 C -0.06033 0.00373 0.67140
 N78 N -0.06455 0.00463 0.71406
 C79 C -0.11471 0.00824 0.73341
 C80 C -0.16335 0.00918 0.70973
 C81 C -0.10797 0.00461 0.64653
 C82 C 0.04376 -0.07403 0.80690
 C83 C 0.04596 -0.12224 0.83178
 C84 C -0.04240 -0.15005 0.80323
 C85 C -0.04297 -0.10134 0.77891
 N86 N -0.00064 -0.06410 0.78160
 H87 H -0.02016 0.00225 0.65653
 H88 H -0.11682 0.00974 0.76735
 H89 H -0.20314 0.01135 0.72540
 H90 H -0.10434 0.00332 0.61262
 H91 H 0.07731 -0.04422 0.80789
 H92 H 0.08120 -0.12960 0.85212
 H93 H -0.07641 -0.17929 0.80111
 H94 H -0.07718 -0.09360 0.75785
 C95 C 0.15992 0.00061 0.66745
 C96 C -0.00339 0.16119 0.83204
 C97 C 0.00232 -0.16042 0.83004
 C98 C -0.15992 0.00696 0.66591
 C99 C -0.00326 -0.30295 0.09741
 C100 C 0.03545 -0.30874 0.06503
 C101 C 0.03565 -0.35663 0.04029
 C102 C -0.00342 -0.39952 0.04719
 C103 C -0.04150 -0.39338 0.08057
 C104 C -0.04156 -0.34542 0.10521
 C105 C -0.00338 -0.25366 0.12290
 C106 C -0.00331 -0.21245 0.14434
 H107 H 0.06580 -0.27639 0.05908
 H108 H 0.06736 -0.36059 0.01642
 H109 H -0.07262 -0.42485 0.08683
 H110 H -0.07169 -0.34138 0.13027
 C111 C 0.00107 0.30006 0.09633
 C112 C 0.03826 0.30674 0.06302
 C113 C 0.03752 0.35547 0.03870
 C114 C -0.00097 0.39846 0.04694
 C115 C -0.03776 0.39122 0.08110
 C116 C -0.03687 0.34238 0.10535
 C117 C 0.00218 0.24996 0.12148
 C118 C 0.00307 0.20801 0.14256
 H119 H 0.06836 0.27453 0.05612
 H120 H 0.06869 0.36017 0.01449
 H121 H -0.06858 0.42252 0.08840
 H122 H -0.06592 0.33759 0.13109
 C123 C 0.30036 0.00145 0.59589
 C124 C 0.33774 0.04572 0.59953
 C125 C 0.38617 0.04656 0.57542
 C126 C 0.39756 0.00322 0.54725
 C127 C 0.36002 -0.04128 0.54395
 C128 C 0.31159 -0.04204 0.56805
 C129 C 0.25070 0.00057 0.62091
 C130 C 0.20923 0.00024 0.64203
 H131 H 0.32946 0.07956 0.62102
 H132 H 0.41457 0.08120 0.57847
 H133 H 0.36842 -0.07556 0.52292
 H134 H 0.28306 -0.07660 0.56511
 C135 C -0.30112 0.00607 0.59546
 C136 C -0.31222 -0.03854 0.56864
 C137 C -0.36064 -0.03878 0.54459
 C138 C -0.39821 0.00590 0.54690
 C139 C -0.38715 0.05017 0.57429
 C140 C -0.33876 0.05032 0.59833
 C141 C -0.25125 0.00644 0.62016
 C142 C -0.20956 0.00678 0.64096
 H143 H -0.28348 -0.07311 0.56633
 H144 H -0.36880 -0.07365 0.52410
 H145 H -0.41569 0.08489 0.57661
 H146 H -0.33064 0.08496 0.61907
 C147 C 0.00459 -0.30170 0.90243
 C148 C -0.03398 -0.30868 0.93483
 C149 C -0.03317 -0.35694 0.95973
 C150 C 0.00682 -0.39897 0.95300
 C151 C 0.04464 -0.39171 0.91951
 C152 C 0.04369 -0.34340 0.89471
 C153 C 0.00393 -0.25187 0.87697
 C154 C 0.00334 -0.21016 0.85559
 H155 H -0.06495 -0.27695 0.94072
 H156 H -0.06475 -0.36179 0.98365
 H157 H 0.07642 -0.42250 0.91334
 H158 H 0.07372 -0.33844 0.86964
 C159 C 0.00244 0.30192 0.90326
 C160 C 0.04813 0.33763 0.90024
 C161 C 0.05053 0.38566 0.92478
 C162 C 0.00736 0.39825 0.95282
 C163 C -0.03866 0.36252 0.95532
 C164 C -0.04096 0.31451 0.93079
 C165 C 0.00009 0.25236 0.87813
 C166 C -0.00171 0.21080 0.85712
 H167 H 0.08191 0.32830 0.87897
 H168 H 0.08626 0.41273 0.92229
 H169 H -0.07278 0.37189 0.97623
 H170 H -0.07660 0.28728 0.93325
 C171 C -0.30254 -0.00404 0.40330
 C172 C -0.34620 -0.04011 0.39409
 C173 C -0.39460 -0.03911 0.41819
 C174 C -0.40005 -0.00237 0.45244
 C175 C -0.35591 0.03452 0.46071
 C176 C -0.30759 0.03340 0.43652
 C177 C -0.25291 -0.00482 0.37824
 C178 C -0.21141 -0.00506 0.35716
 H179 H -0.34277 -0.06920 0.36833
 H180 H -0.42698 -0.06864 0.41080
 H181 H -0.35927 0.06580 0.48489
 H182 H -0.27439 0.06222 0.44347
 C183 C 0.29871 -0.00225 0.40578
 C184 C 0.30982 0.04117 0.43365
 C185 C 0.35858 0.04075 0.45725
 C186 C 0.39661 -0.00335 0.45344
 C187 C 0.38530 -0.04670 0.42530
 C188 C 0.33652 -0.04620 0.40167
 C189 C 0.24889 -0.00132 0.38101
 C190 C 0.20730 -0.00050 0.36011
 H191 H 0.28098 0.07551 0.43692
 H192 H 0.36691 0.07506 0.47823
 H193 H 0.41413 -0.08099 0.42182
 H194 H 0.32836 -0.07995 0.38012
   
