data_POSCAR
  _audit_creation_date              2014-09-24
  _audit_creation_method            'ToBaCCo'
  _symmetry_space_group_name_H-M    'P1'
  _symmetry_Int_Tables_number       1
  _symmetry_cell_setting            triclinic
  loop_
  _symmetry_equiv_pos_as_xyz
 x,y,z
_cell_length_a 29.9676
_cell_length_b 29.9775
_cell_length_c 29.8854
_cell_angle_alpha 89.864200
_cell_angle_beta 89.877400
_cell_angle_gamma 89.868800
loop_
  _atom_site_label
  _atom_site_type_symbol
  _atom_site_fract_x
  _atom_site_fract_y
  _atom_site_fract_z
C1 C 0.16434 0.16591 0.22002
 C2 C 0.14528 0.20369 0.19990
 C3 C 0.16441 0.22190 0.16116
 C4 C 0.20267 0.20240 0.14252
 C5 C 0.22182 0.16462 0.16254
 C6 C 0.20264 0.14640 0.20133
 H7 H 0.11547 0.21870 0.21407
 H8 H 0.21722 0.21643 0.11234
 H9 H 0.21725 0.11695 0.21669
 C10 C -0.16084 0.83576 0.22536
 C11 C -0.14227 0.79751 0.20578
 C12 C -0.16236 0.77842 0.16815
 C13 C -0.20108 0.79753 0.15011
 C14 C -0.21969 0.83575 0.16962
 C15 C -0.19960 0.85484 0.20726
 H16 H -0.11210 0.78283 0.21948
 H17 H -0.21642 0.78295 0.12075
 H18 H -0.21389 0.88464 0.22210
 C19 C -0.16577 0.16310 -0.22314
 C20 C -0.20345 0.14313 -0.20381
 C21 C -0.22313 0.16186 -0.16565
 C22 C -0.20520 0.20062 -0.14682
 C23 C -0.16756 0.22064 -0.16607
 C24 C -0.14786 0.20190 -0.20424
 H25 H -0.21723 0.11293 -0.21813
 H26 H -0.22024 0.21491 -0.11708
 H27 H -0.11849 0.21727 -0.21888
 C28 C 0.16622 0.83778 -0.22295
 C29 C 0.14584 0.79959 -0.20513
 C30 C 0.16360 0.77898 -0.16699
 C31 C 0.20181 0.79651 -0.14666
 C32 C 0.22222 0.83465 -0.16442
 C33 C 0.20445 0.85527 -0.20257
 H34 H 0.11606 0.78612 -0.22060
 H35 H 0.21536 0.78076 -0.11693
 H36 H 0.22013 0.88501 -0.21605
 C37 C 0.16738 1.16410 0.77751
 C38 C 0.20497 1.14495 0.79786
 C39 C 0.22296 1.16410 0.83654
 C40 C 0.20342 1.20244 0.85486
 C41 C 0.16588 1.22162 0.83460
 C42 C 0.14788 1.20249 0.79592
 H43 H 0.21998 1.11506 0.78394
 H44 H 0.21715 1.21706 0.88499
 H45 H 0.11857 1.21722 0.78051
 C46 C 0.83716 0.83888 0.77674
 C47 C 0.79888 0.85736 0.79645
 C48 C 0.77969 0.83710 0.83411
 C49 C 0.79873 0.79829 0.85209
 C50 C 0.83702 0.77971 0.83246
 C51 C 0.85620 0.80003 0.79475
 H52 H 0.78422 0.88758 0.78279
 H53 H 0.78397 0.78288 0.88147
 H54 H 0.88602 0.78586 0.77970
 C55 C 0.16203 0.83322 1.22307
 C56 C 0.14213 0.79560 1.20382
 C57 C 0.16100 0.77606 1.16566
 C58 C 0.19981 0.79408 1.14674
 C59 C 0.21976 0.83166 1.16592
 C60 C 0.20088 0.85120 1.20410
 H61 H 0.11188 0.78176 1.21820
 H62 H 0.21422 0.77916 1.11699
 H63 H 0.21620 0.88052 1.21867
 C64 C 0.83688 1.16538 1.22270
 C65 C 0.79856 1.14517 1.20520
 C66 C 0.77797 1.16301 1.16708
 C67 C 0.79566 1.20110 1.14647
 C68 C 0.83393 1.22135 1.16388
 C69 C 0.85452 1.20351 1.20201
 H70 H 0.78498 1.11547 1.22090
 H71 H 0.77992 1.21472 1.11675
 H72 H 0.88436 1.21907 1.21525
 O73 O 0.43644 1.07844 1.08093
 O74 O 0.38780 1.03544 1.04032
 C75 C 0.39660 1.06641 1.06910
 O76 O 0.56254 1.07495 0.92154
 O77 O 0.61159 1.03449 0.96459
 C78 C 0.60249 1.06327 0.93353
 O79 O 0.43708 1.07855 0.92537
 O80 O 0.38811 1.03551 0.96594
 C81 C 0.39715 1.06644 0.93700
 O82 O 0.56196 1.07483 1.08519
 O83 O 0.61127 1.03459 1.04221
 C84 C 0.60199 1.06331 1.07319
 Zr85 Zr 0.49942 1.05345 1.05996
 O86 O 0.50398 1.12391 1.05988
 O87 O 0.49422 1.05297 1.13063
 Zr88 Zr 0.49988 1.05378 0.94689
 O89 O 0.50450 1.12425 0.94771
 O90 O 0.49523 1.05438 0.87622
 O91 O 0.45977 1.06216 1.00334
 O92 O 0.53838 1.06186 1.00346
 O93 O 0.56281 0.91968 1.08533
 O94 O 0.61171 0.96047 1.04237
 C95 C 0.60273 0.93159 1.07339
 O96 O 0.43793 0.91580 0.92503
 O97 O 0.38864 0.95887 0.96513
 C98 C 0.39791 0.92796 0.93636
 O99 O 0.56316 0.91972 0.92165
 O100 O 0.61175 0.95954 0.96536
 C101 C 0.60298 0.93116 0.93401
 O102 O 0.43739 0.91526 1.08142
 O103 O 0.38839 0.95862 1.04127
 C104 C 0.39745 0.92744 1.06992
 Zr105 Zr 0.49998 0.94058 1.06003
 O106 O 0.50529 0.87015 1.05972
 O107 O 0.49485 0.94059 1.13069
 Zr108 Zr 0.50035 0.94077 0.94685
 O109 O 0.50556 0.87032 0.94768
 O110 O 0.49582 0.94075 0.87617
 Zr111 Zr 0.43353 0.99691 1.00328
 Zr112 Zr 0.56623 0.99736 1.00345
 O113 O 0.53893 0.93271 1.00351
 O114 O 0.46031 0.93181 1.00338
 O115 O 0.53945 0.99712 1.06878
 O116 O 0.46153 0.99722 0.93861
 O117 O 0.46096 0.99691 1.06808
 O118 O 0.53990 0.99739 0.93809
 H119 H 0.55848 1.08805 1.00343
 H120 H 0.44160 0.99732 0.91220
 H121 H 0.55921 0.90656 1.00364
 H122 H 0.44073 0.99691 1.09435
 H123 H 0.51966 1.03546 0.86451
 H124 H 0.52044 0.95941 0.86453
 H125 H 0.47990 0.85868 0.96495
 H126 H 0.48035 0.85851 1.04158
 H127 H 0.51961 0.95891 1.14237
 H128 H 0.51945 1.03514 1.14233
 H129 H 0.47922 1.13551 1.04134
 H130 H 0.47866 1.13573 0.96484
 O131 O -0.08444 0.43716 0.07447
 O132 O -0.04164 0.38831 0.03351
 C133 C -0.07243 0.39727 0.06262
 O134 O -0.08053 0.56352 -0.08512
 O135 O -0.04005 0.61209 -0.04193
 C136 C -0.06875 0.60334 -0.07300
 O137 O -0.08458 0.43797 -0.08141
 O138 O -0.04167 0.38871 -0.04098
 C139 C -0.07258 0.39795 -0.06980
 O140 O -0.08038 0.56257 0.07889
 O141 O -0.04001 0.61166 0.03579
 C142 C -0.06861 0.60253 0.06702
 Zr143 Zr -0.05966 0.49997 0.05304
 O144 O -0.13013 0.50517 0.05198
 O145 O -0.06050 0.49471 0.12368
 Zr146 Zr -0.05964 0.50060 -0.05990
 O147 O -0.13011 0.50576 -0.05885
 O148 O -0.06012 0.49609 -0.13057
 O149 O -0.06825 0.46041 -0.00353
 O150 O -0.06770 0.53915 -0.00328
 O151 O 0.07452 0.56216 0.07835
 O152 O 0.03407 0.61146 0.03555
 C153 C 0.06281 0.60217 0.06651
 O154 O 0.07855 0.43777 -0.08194
 O155 O 0.03513 0.38871 -0.04197
 C156 C 0.06632 0.39782 -0.07059
 O157 O 0.07473 0.56307 -0.08518
 O158 O 0.03416 0.61187 -0.04197
 C159 C 0.06305 0.60294 -0.07299
 O160 O 0.07845 0.43693 0.07423
 O161 O 0.03511 0.38829 0.03410
 C162 C 0.06623 0.39711 0.06272
 Zr163 Zr 0.05341 0.49967 0.05293
 O164 O 0.12389 0.50447 0.05226
 O165 O 0.05342 0.49440 0.12358
 Zr166 Zr 0.05339 0.50029 -0.06026
 O167 O 0.12387 0.50502 -0.06020
 O168 O 0.05302 0.49583 -0.13095
 Zr169 Zr -0.00301 0.43377 -0.00373
 Zr170 Zr -0.00304 0.56640 -0.00331
 O171 O 0.06154 0.53867 -0.00355
 O172 O 0.06217 0.46010 -0.00381
 O173 O -0.00310 0.53945 0.06192
 O174 O -0.00313 0.46184 -0.06837
 O175 O -0.00313 0.46117 0.06107
 O176 O -0.00310 0.54021 -0.06873
 H177 H -0.09376 0.55954 -0.00314
 H178 H -0.00320 0.44190 -0.09476
 H179 H 0.08771 0.55881 -0.00350
 H180 H -0.00318 0.44100 0.08738
 H181 H -0.04094 0.52027 -0.14227
 H182 H 0.03524 0.52119 -0.14247
 H183 H 0.13548 0.47996 -0.04203
 H184 H 0.13550 0.47919 0.03448
 H185 H 0.03515 0.51925 0.13540
 H186 H -0.04087 0.51837 0.13550
 H187 H -0.14168 0.47927 0.03519
 H188 H -0.14168 0.48010 -0.04154
 O189 O 1.08456 -0.07478 0.56287
 O190 O 1.04177 -0.03402 0.61192
 C191 C 1.07262 -0.06296 0.60289
 O192 O 1.08052 0.08413 0.43629
 O193 O 1.03989 0.04120 0.38760
 C194 C 1.06874 0.07205 0.39636
 O195 O 1.08464 0.08051 0.56213
 O196 O 1.04177 0.04024 0.61156
 C197 C 1.07271 0.06891 0.60227
 O198 O 1.08030 -0.07910 0.43714
 O199 O 1.03980 -0.03617 0.38796
 C200 C 1.06848 -0.06725 0.39708
 Zr201 Zr 1.05942 -0.05359 0.49998
 O202 O 1.12989 -0.05316 0.49468
 O203 O 1.05959 -0.12402 0.50531
 Zr204 Zr 1.05936 0.05927 0.49941
 O205 O 1.12983 0.05899 0.49421
 O206 O 1.05897 0.12974 0.50401
 O207 O 1.06817 0.00292 0.53957
 O208 O 1.06745 0.00271 0.46081
 O209 O 0.92523 -0.07867 0.43776
 O210 O 0.96560 -0.03599 0.38827
 C211 C 0.93686 -0.06685 0.39762
 O212 O 0.92128 0.08072 0.56271
 O213 O 0.96436 0.04036 0.61186
 C214 C 0.93330 0.06907 0.60277
 O215 O 0.92501 0.08437 0.43691
 O216 O 0.96552 0.04134 0.38788
 C217 C 0.93664 0.07225 0.39688
 O218 O 0.92154 -0.07448 0.56345
 O219 O 0.96444 -0.03390 0.61221
 C220 C 0.93357 -0.06272 0.60339
 Zr221 Zr 0.94649 -0.05338 0.50041
 O222 O 0.87600 -0.05288 0.49571
 O223 O 0.94663 -0.12382 0.50570
 Zr224 Zr 0.94647 0.05951 0.49984
 O225 O 0.87600 0.05974 0.49516
 O226 O 0.94704 0.12997 0.50447
 Zr227 Zr 1.00302 0.00310 0.56641
 Zr228 Zr 1.00281 0.00275 0.43341
 O229 O 0.93828 0.00296 0.46133
 O230 O 0.93781 0.00317 0.54004
 O231 O 1.00289 -0.06233 0.46037
 O232 O 1.00297 0.06760 0.53844
 O233 O 1.00302 -0.06153 0.53904
 O234 O 1.00284 0.06799 0.45966
 H235 H 1.09356 0.00256 0.44042
 H236 H 1.00297 0.09378 0.55863
 H237 H 0.91206 0.00293 0.44119
 H238 H 1.00306 -0.08766 0.55939
 H239 H 1.04096 0.14131 0.47882
 H240 H 0.96460 0.14146 0.47888
 H241 H 0.86438 0.04114 0.51994
 H242 H 0.86440 -0.03503 0.52100
 H243 H 0.96477 -0.13557 0.48067
 H244 H 1.04091 -0.13573 0.48078
 H245 H 1.14155 -0.03557 0.52004
 H246 H 1.14150 0.04070 0.51918
 C247 C 1.14506 0.14760 0.25708
 C248 C 1.12776 0.13110 0.28959
 C249 C 1.10729 0.11128 0.32726
 C250 C 1.08970 0.09377 0.35905
 C251 C 0.85925 -0.14507 0.26133
 C252 C 0.87711 -0.12779 0.29294
 C253 C 0.89804 -0.10711 0.32967
 C254 C 0.91585 -0.08900 0.36082
 C255 C 0.85399 0.14425 0.74039
 C256 C 0.87167 0.12729 0.70837
 C257 C 0.89269 0.10717 0.67122
 C258 C 0.91100 0.08984 0.63979
 C259 C 1.14826 -0.14162 0.74059
 C260 C 1.13190 -0.12339 0.70857
 C261 C 1.11206 -0.10213 0.67141
 C262 C 1.09446 -0.08413 0.63995
 C263 C 0.25844 1.14509 1.14379
 C264 C 0.29059 1.12760 1.12694
 C265 C 0.32790 1.10677 1.10696
 C266 C 0.35946 1.08859 1.08974
 C267 C 0.26077 0.85335 0.85715
 C268 C 0.29274 0.86948 0.87532
 C269 C 0.32981 0.88903 0.89664
 C270 C 0.36113 0.90638 0.91483
 C271 C 0.74125 0.85604 1.15027
 C272 C 0.70887 0.87320 1.13359
 C273 C 0.67138 0.89345 1.11342
 C274 C 0.63977 0.91083 1.09555
 C275 C 0.73885 1.14073 0.85479
 C276 C 0.70725 1.12292 0.87223
 C277 C 0.67051 1.10204 0.89307
 C278 C 0.63934 1.08426 0.91128
 C279 C 0.14419 0.26008 0.14003
 C280 C 0.12691 0.29183 0.12226
 C281 C 0.10625 0.32875 0.10145
 C282 C 0.08822 0.36008 0.08371
 C283 C -0.14841 0.25973 -0.14593
 C284 C -0.13196 0.29211 -0.12878
 C285 C -0.11210 0.32956 -0.10843
 C286 C -0.09448 0.36108 -0.09087
 C287 C 0.14201 0.74046 -0.14804
 C288 C 0.12380 0.70848 -0.13176
 C289 C 0.10248 0.67136 -0.11209
 C290 C 0.08436 0.63994 -0.09465
 C291 C -0.14263 0.73985 0.14734
 C292 C -0.12590 0.70785 0.12957
 C293 C -0.10611 0.67075 0.10831
 C294 C -0.08906 0.63939 0.08972
 C295 C 1.14915 0.14483 0.74058
 C296 C 1.13258 0.12761 0.70822
 C297 C 1.11253 0.10728 0.67077
 C298 C 1.09476 0.08981 0.63922
 C299 C 0.85629 -0.14087 0.74065
 C300 C 0.87344 -0.12283 0.70890
 C301 C 0.89386 -0.10170 0.67195
 C302 C 0.91172 -0.08377 0.64055
 C303 C 1.14309 -0.14712 0.25954
 C304 C 1.12616 -0.12940 0.29154
 C305 C 1.10618 -0.10825 0.32867
 C306 C 1.08902 -0.08977 0.36009
 C307 C 0.85748 0.14740 0.25916
 C308 C 0.87577 0.13109 0.29117
 C309 C 0.89715 0.11138 0.32834
 C310 C 0.91529 0.09391 0.35981
 C311 C 0.14516 0.26030 -0.14579
 C312 C 0.12759 0.29237 -0.12900
 C313 C 0.10669 0.32955 -0.10896
 C314 C 0.08849 0.36094 -0.09157
 C315 C -0.14726 0.25983 0.14204
 C316 C -0.13106 0.29178 0.12368
 C317 C -0.11145 0.32888 0.10221
 C318 C -0.09406 0.36029 0.08402
 C319 C -0.14387 0.74259 -0.14934
 C320 C -0.12683 0.71003 -0.13280
 C321 C -0.10674 0.67233 -0.11278
 C322 C -0.08946 0.64056 -0.09503
 C323 C 0.13995 0.73812 0.14527
 C324 C 0.12222 0.70659 0.12785
 C325 C 0.10143 0.66994 0.10702
 C326 C 0.08373 0.63887 0.08879
 C327 C 0.26088 1.14386 0.85803
 C328 C 0.29242 1.12667 0.87621
 C329 C 0.32911 1.10620 0.89754
 C330 C 0.36028 1.08831 0.91568
 C331 C 0.25890 0.85093 1.14574
 C332 C 0.29133 0.86755 1.12863
 C333 C 0.32885 0.88764 1.10838
 C334 C 0.36046 0.90542 1.09091
 C335 C 0.73933 1.14160 1.14840
 C336 C 0.70729 1.12359 1.13222
 C337 C 0.67014 1.10250 1.11256
 C338 C 0.63879 1.08455 1.09504
 C339 C 0.74103 0.85675 0.85492
 C340 C 0.70891 0.87349 0.87257
 C341 C 0.67164 0.89336 0.89356
 C342 C 0.64010 0.91053 0.91181
   
