data_POSCAR
  _audit_creation_date              2014-09-24
  _audit_creation_method            'ToBaCCo'
  _symmetry_space_group_name_H-M    'P1'
  _symmetry_Int_Tables_number       1
  _symmetry_cell_setting            triclinic
  loop_
  _symmetry_equiv_pos_as_xyz
 x,y,z
_cell_length_a 27.2326
_cell_length_b 27.2368
_cell_length_c 27.1364
_cell_angle_alpha 90.200100
_cell_angle_beta 90.188700
_cell_angle_gamma 89.984300
loop_
  _atom_site_label
  _atom_site_type_symbol
  _atom_site_fract_x
  _atom_site_fract_y
  _atom_site_fract_z
O1 O 0.56953 0.12297 0.00397
 O2 O 0.62361 0.05827 0.00291
 C3 C 0.61350 0.10472 0.00410
 O4 O 0.43133 -0.00401 0.12599
 O5 O 0.37724 -0.00087 0.06088
 C6 C 0.38734 -0.00319 0.10751
 O7 O 0.56936 0.00218 0.12623
 O8 O 0.62370 0.00003 0.06160
 C9 C 0.61349 0.00187 0.10819
 O10 O 0.43211 0.12316 -0.00297
 O11 O 0.37757 0.05900 0.00159
 C12 C 0.38800 0.10529 -0.00164
 Zr13 Zr 0.50058 0.08690 0.00308
 O14 O 0.49542 0.13737 0.06247
 O15 O 0.50280 0.14675 -0.04624
 Zr16 Zr 0.50024 -0.00108 0.08999
 O17 O 0.49490 0.05338 0.14556
 O18 O 0.50568 -0.05653 0.14424
 O19 O 0.54446 0.04964 0.05357
 O20 O 0.45751 0.04927 0.05257
 O21 O 0.43125 0.00303 -0.12234
 O22 O 0.37695 0.00100 -0.05773
 C23 C 0.38721 0.00297 -0.10425
 O24 O 0.56920 -0.12443 -0.00193
 O25 O 0.62354 -0.05994 0.00089
 C26 C 0.61325 -0.10633 -0.00143
 O27 O 0.43186 -0.12492 0.00412
 O28 O 0.37764 -0.06038 0.00220
 C29 C 0.38786 -0.10680 0.00385
 O30 O 0.56875 -0.00348 -0.12262
 O31 O 0.62290 -0.00210 -0.05759
 C32 C 0.61273 -0.00363 -0.10424
 Zr33 Zr 0.50028 -0.00027 -0.08607
 O34 O 0.49475 -0.05497 -0.14144
 O35 O 0.50523 0.05505 -0.14046
 Zr36 Zr 0.50032 -0.08835 0.00137
 O37 O 0.49478 -0.14277 -0.05429
 O38 O 0.50588 -0.14317 0.05624
 Zr39 Zr 0.57365 -0.00083 0.00229
 Zr40 Zr 0.42697 -0.00063 0.00153
 O41 O 0.45759 -0.05066 -0.04901
 O42 O 0.54413 -0.05116 -0.04908
 O43 O 0.45679 0.05036 -0.04859
 O44 O 0.54301 -0.05116 0.05221
 O45 O 0.54307 0.04959 -0.04780
 O46 O 0.45630 -0.05147 0.05221
 H47 H 0.43528 0.06970 0.07294
 H48 H 0.56520 -0.07162 0.07260
 H49 H 0.43539 -0.07095 -0.06969
 H50 H 0.56519 0.06980 -0.06835
 H51 H 0.47754 -0.07904 0.13956
 H52 H 0.47865 -0.13797 0.07971
 H53 H 0.52251 -0.13798 -0.07721
 H54 H 0.52181 -0.07860 -0.13609
 H55 H 0.47743 0.07791 -0.13534
 H56 H 0.50817 0.13295 -0.07948
 H57 H 0.52736 0.13767 0.07997
 H58 H 0.52153 0.07737 0.13989
 O59 O -0.00137 0.56773 -0.12572
 O60 O -0.00116 0.62199 -0.06077
 C61 C -0.00207 0.61174 -0.10739
 O62 O -0.12356 0.43032 0.00179
 O63 O -0.05903 0.37605 -0.00143
 C64 C -0.10542 0.38630 0.00098
 O65 O -0.12390 0.56763 -0.00439
 O66 O -0.05946 0.62202 -0.00207
 C67 C -0.10586 0.61168 -0.00403
 O68 O 0.00513 0.43043 -0.12572
 O69 O 0.00034 0.37616 -0.06137
 C70 C 0.00355 0.38635 -0.10784
 Zr71 Zr -0.00043 0.49904 -0.08924
 O72 O -0.05932 0.49380 -0.14027
 O73 O 0.04920 0.50052 -0.14898
 Zr74 Zr -0.08736 0.49909 -0.00114
 O75 O -0.14250 0.49356 -0.05606
 O76 O -0.14143 0.50467 0.05450
 O77 O -0.05067 0.54312 -0.05186
 O78 O -0.05017 0.45621 -0.05169
 O79 O 0.12420 0.43049 -0.00455
 O80 O 0.05981 0.37611 -0.00181
 C81 C 0.10618 0.38644 -0.00397
 O82 O 0.00407 0.56778 0.12345
 O83 O 0.00193 0.62208 0.05890
 C84 C 0.00386 0.61181 0.10543
 O85 O -0.00196 0.43045 0.12284
 O86 O 0.00089 0.37614 0.05794
 C87 C -0.00119 0.38641 0.10454
 O88 O 0.12414 0.56796 0.00157
 O89 O 0.05968 0.62236 -0.00098
 C90 C 0.10608 0.61203 0.00115
 Zr91 Zr 0.08785 0.49921 -0.00167
 O92 O 0.14309 0.49404 0.05315
 O93 O 0.14203 0.50389 -0.05724
 Zr94 Zr 0.00045 0.49919 0.08658
 O95 O 0.05505 0.49386 0.14202
 O96 O -0.05509 0.50474 0.14076
 Zr97 Zr 0.00029 0.57272 -0.00105
 Zr98 Zr 0.00037 0.42570 -0.00153
 O99 O 0.05067 0.45667 0.04878
 O100 O 0.05112 0.54304 0.04953
 O101 O 0.05066 0.45530 -0.05248
 O102 O -0.04973 0.54206 0.04920
 O103 O 0.05008 0.54188 -0.05170
 O104 O -0.05016 0.45508 0.04944
 H105 H -0.07054 0.43396 -0.07225
 H106 H -0.07004 0.56425 0.06975
 H107 H 0.07138 0.43487 0.06934
 H108 H 0.07057 0.56395 -0.07200
 H109 H -0.13667 0.47678 0.07727
 H110 H -0.07710 0.47611 0.13676
 H111 H 0.07923 0.52024 0.13611
 H112 H 0.13796 0.52132 0.07673
 H113 H 0.13665 0.47615 -0.08031
 H114 H 0.08182 0.50898 -0.13544
 H115 H -0.07713 0.52546 -0.14011
 H116 H -0.13674 0.52012 -0.08011
 O117 O 0.12268 -0.00117 0.43145
 O118 O 0.05800 -0.00073 0.37702
 C119 C 0.10445 -0.00169 0.38729
 O120 O -0.00481 -0.12321 0.56902
 O121 O -0.00224 -0.05862 0.62363
 C122 C -0.00438 -0.10504 0.61323
 O123 O 0.00118 -0.12328 0.43117
 O124 O -0.00176 -0.05887 0.37675
 C125 C 0.00041 -0.10526 0.38700
 O126 O 0.12304 0.00612 0.56888
 O127 O 0.05897 0.00267 0.62357
 C128 C 0.10526 0.00541 0.61313
 Zr129 Zr 0.08633 -0.00025 0.50035
 O130 O 0.13649 -0.05953 0.50577
 O131 O 0.14621 0.04902 0.49800
 Zr132 Zr -0.00155 -0.08687 0.50025
 O133 O 0.05354 -0.14147 0.50570
 O134 O -0.05667 -0.14144 0.49461
 O135 O 0.04897 -0.05038 0.45593
 O136 O 0.04885 -0.04970 0.54358
 O137 O 0.00229 0.12472 0.56960
 O138 O -0.00050 0.06040 0.62409
 C139 C 0.00180 0.10675 0.61380
 O140 O -0.12534 0.00411 0.43126
 O141 O -0.06101 0.00133 0.37675
 C142 C -0.10738 0.00346 0.38705
 O143 O -0.12518 -0.00211 0.56905
 O144 O -0.06054 -0.00025 0.62359
 C145 C -0.10697 -0.00205 0.61325
 O146 O -0.00357 0.12460 0.43150
 O147 O -0.00144 0.05998 0.37690
 C148 C -0.00315 0.10641 0.38727
 Zr149 Zr -0.00102 0.08835 0.50046
 O150 O -0.05630 0.14279 0.50586
 O151 O 0.05382 0.14322 0.49584
 Zr152 Zr -0.08880 0.00126 0.50028
 O153 O -0.14270 0.05702 0.50598
 O154 O -0.14414 -0.05305 0.49460
 Zr155 Zr -0.00148 0.00068 0.42658
 Zr156 Zr -0.00093 0.00095 0.57419
 O157 O -0.05106 0.05120 0.54340
 O158 O -0.05185 0.05161 0.45617
 O159 O 0.04980 0.05115 0.54419
 O160 O -0.05171 -0.04921 0.45743
 O161 O 0.04903 0.05048 0.45773
 O162 O -0.05187 -0.04947 0.54430
 H163 H 0.06919 -0.06983 0.56613
 H164 H -0.07240 -0.06967 0.43537
 H165 H -0.07148 0.07165 0.56559
 H166 H 0.06947 0.07094 0.43574
 H167 H -0.07988 -0.13623 0.52209
 H168 H -0.13852 -0.07699 0.52134
 H169 H -0.13838 0.07938 0.47769
 H170 H -0.07875 0.13847 0.47744
 H171 H 0.07712 0.13788 0.52338
 H172 H 0.13231 0.08227 0.49414
 H173 H 0.13696 -0.07684 0.47365
 H174 H 0.07659 -0.13657 0.47806
 C175 C -0.27624 0.20560 0.00474
 N176 N -0.28886 0.25374 0.00390
 N177 N -0.25436 0.28837 0.00345
 C178 C -0.20615 0.27595 0.00382
 N179 N -0.19345 0.22778 0.00466
 N180 N -0.22801 0.19310 0.00511
 C181 C -0.31375 0.16864 0.00483
 C182 C -0.34639 0.13878 0.00465
 C183 C -0.16932 0.31357 0.00301
 C184 C -0.13953 0.34625 0.00217
 C185 C 0.27749 0.79234 0.00534
 N186 N 0.28994 0.74416 0.00632
 N187 N 0.25532 0.70962 0.00589
 C188 C 0.20717 0.72218 0.00444
 N189 N 0.19464 0.77039 0.00347
 N190 N 0.22930 0.80497 0.00391
 C191 C 0.31511 0.82922 0.00519
 C192 C 0.34778 0.85907 0.00476
 C193 C 0.17021 0.68464 0.00346
 C194 C 0.14030 0.65202 0.00248
 C195 C 0.27777 0.20627 -0.00544
 N196 N 0.22959 0.19359 -0.00493
 N197 N 0.19488 0.22815 -0.00520
 C198 C 0.20737 0.27637 -0.00598
 N199 N 0.25552 0.28896 -0.00651
 N200 N 0.29018 0.25445 -0.00624
 C201 C 0.31542 0.16943 -0.00449
 C202 C 0.34805 0.13955 -0.00337
 C203 C 0.17037 0.31387 -0.00562
 C204 C 0.14042 0.34646 -0.00502
 C205 C -0.27671 0.79252 -0.00513
 N206 N -0.22847 0.80494 -0.00437
 N207 N -0.19395 0.77019 -0.00476
 C208 C -0.20670 0.72204 -0.00594
 N209 N -0.25492 0.70970 -0.00672
 N210 N -0.28938 0.74440 -0.00632
 C211 C -0.31417 0.82955 -0.00409
 C212 C -0.34674 0.85949 -0.00299
 C213 C -0.16990 0.68435 -0.00571
 C214 C -0.14007 0.65167 -0.00516
 C215 C 0.00446 -0.27583 0.20480
 N216 N 0.04710 -0.25737 0.22300
 N217 N 0.04647 -0.22245 0.25752
 C218 C 0.00319 -0.20493 0.27485
 N219 N -0.03943 -0.22332 0.25658
 N220 N -0.03880 -0.25824 0.22208
 C221 C 0.00498 -0.31475 0.16907
 C222 C 0.00483 -0.34803 0.13969
 C223 C 0.00243 -0.16889 0.31351
 C224 C 0.00158 -0.13939 0.34670
 C225 C 0.00505 0.27752 0.79599
 N226 N -0.03795 0.25773 0.78025
 N227 N -0.03824 0.22280 0.74574
 C228 C 0.00447 0.20658 0.72592
 N229 N 0.04749 0.22629 0.74173
 N230 N 0.04778 0.26123 0.77625
 C231 C 0.00510 0.31651 0.83170
 C232 C 0.00461 0.34986 0.86104
 C233 C 0.00393 0.17049 0.68726
 C234 C 0.00312 0.14095 0.65408
 C235 C -0.00300 0.27481 0.20404
 N236 N -0.04611 0.25660 0.22093
 N237 N -0.04643 0.22224 0.25579
 C238 C -0.00365 0.20508 0.27481
 N239 N 0.03945 0.22323 0.25785
 N240 N 0.03977 0.25758 0.22301
 C241 C -0.00262 0.31327 0.16805
 C242 C -0.00206 0.34630 0.13861
 C243 C -0.00392 0.16953 0.31371
 C244 C -0.00378 0.14035 0.34700
 C245 C -0.00446 -0.27574 0.79417
 N246 N 0.03826 -0.25672 0.77719
 N247 N 0.03782 -0.22172 0.74301
 C248 C -0.00534 -0.20464 0.72479
 N249 N -0.04806 -0.22359 0.74183
 N250 N -0.04763 -0.25861 0.77603
 C251 C -0.00388 -0.31474 0.82956
 C252 C -0.00316 -0.34806 0.85866
 C253 C -0.00563 -0.16855 0.68642
 C254 C -0.00536 -0.13906 0.65341
 C255 C 0.27517 0.00625 0.79604
 N256 N 0.25813 0.04944 0.77805
 N257 N 0.22347 0.04991 0.74324
 C258 C 0.20484 0.00720 0.72540
 N259 N 0.22183 -0.03597 0.74348
 N260 N 0.25647 -0.03644 0.77826
 C261 C 0.31388 0.00557 0.83202
 C262 C 0.34704 0.00458 0.86151
 C263 C 0.16897 0.00748 0.68657
 C264 C 0.13952 0.00698 0.65333
 C265 C -0.27782 0.00397 0.20452
 N266 N -0.26017 -0.03883 0.22283
 N267 N -0.22536 -0.03858 0.25745
 C268 C -0.20711 0.00447 0.27482
 N269 N -0.22468 0.04730 0.25644
 N270 N -0.25952 0.04705 0.22181
 C271 C -0.31671 0.00362 0.16870
 C272 C -0.35001 0.00294 0.13930
 C273 C -0.17110 0.00464 0.31355
 C274 C -0.14159 0.00435 0.34677
 C275 C 0.27471 -0.00404 0.20586
 N276 N 0.25704 0.03903 0.22369
 N277 N 0.22212 0.03929 0.25798
 C278 C 0.20380 -0.00351 0.27546
 N279 N 0.22140 -0.04660 0.25757
 N280 N 0.25632 -0.04686 0.22327
 C281 C 0.31369 -0.00423 0.17043
 C282 C 0.34705 -0.00399 0.14135
 C283 C 0.16781 -0.00316 0.31395
 C284 C 0.13841 -0.00262 0.34705
 C285 C -0.27541 -0.00514 0.79648
 N286 N -0.25888 -0.04794 0.77692
 N287 N -0.22449 -0.04771 0.74208
 C288 C -0.20561 -0.00467 0.72575
 N289 N -0.22208 0.03810 0.74538
 N290 N -0.25646 0.03787 0.78021
 C291 C -0.31398 -0.00518 0.83238
 C292 C -0.34708 -0.00473 0.86176
 C293 C -0.17006 -0.00422 0.68684
 C294 C -0.14088 -0.00344 0.65353
   
