data_POSCAR
  _audit_creation_date              2014-09-24
  _audit_creation_method            'ToBaCCo'
  _symmetry_space_group_name_H-M    'P1'
  _symmetry_Int_Tables_number       1
  _symmetry_cell_setting            triclinic
  loop_
  _symmetry_equiv_pos_as_xyz
 x,y,z
_cell_length_a 20.7704
_cell_length_b 19.9536
_cell_length_c 31.8231
_cell_angle_alpha 94.359100
_cell_angle_beta 91.950000
_cell_angle_gamma 90.668800
loop_
  _atom_site_label
  _atom_site_type_symbol
  _atom_site_fract_x
  _atom_site_fract_y
  _atom_site_fract_z
C1 C 0.03895 0.30060 0.99672
 C2 C 0.04323 0.31478 1.03958
 C3 C 0.01462 0.37681 1.04784
 N4 N -0.00390 0.40222 1.01119
 C5 C 0.01110 0.35580 0.98016
 C6 C 0.00268 0.40874 1.08812
 C7 C -0.01858 0.47606 1.09194
 C8 C -0.05568 0.50357 1.12406
 C9 C -0.06514 0.56953 1.11649
 C10 C -0.03404 0.58094 1.07957
 N11 N -0.00559 0.52337 1.06500
 C12 C -0.02513 0.64484 1.06348
 C13 C 0.00374 0.65202 1.02443
 C14 C 0.02904 0.71089 1.01079
 C15 C 0.04452 0.69695 0.96943
 C16 C 0.02578 0.63081 0.95853
 N17 N 0.00147 0.60354 0.99231
 C18 C 0.02498 0.59806 0.91741
 C19 C 0.00842 0.52912 0.90975
 C20 C -0.01582 0.49880 0.87170
 C21 C -0.02545 0.43174 0.87757
 C22 C -0.00590 0.42287 0.91883
 N23 N 0.01486 0.48238 0.93814
 C24 C -0.00412 0.36069 0.93721
 H25 H 0.05611 0.25582 0.97949
 H26 H 0.06605 0.28311 1.06160
 H27 H 0.03745 0.48978 0.96786
 H28 H -0.07467 0.47876 1.15015
 H29 H -0.09023 0.60499 1.13717
 H30 H 0.03560 0.75910 1.02835
 H31 H 0.06604 0.73227 0.94974
 H32 H -0.04416 0.39391 0.85400
 H33 H 0.02686 0.51810 1.04078
 H34 H -0.02671 0.52269 0.84294
 C35 C 0.30882 -0.04345 0.47761
 C36 C 0.31262 -0.04948 0.52038
 C37 C 0.37051 -0.01954 0.53495
 N38 N 0.40191 0.00468 0.50277
 C39 C 0.36453 -0.01004 0.46770
 C40 C 0.39385 -0.01284 0.57717
 C41 C 0.45870 0.00515 0.58764
 C42 C 0.48124 0.03141 0.62704
 C43 C 0.54727 0.03235 0.62613
 C44 C 0.56333 0.00643 0.58620
 N45 N 0.50901 -0.00850 0.56254
 C46 C 0.62656 -0.00932 0.57379
 C47 C 0.64269 -0.01079 0.53083
 C48 C 0.69649 -0.04038 0.51304
 C49 C 0.69240 -0.03083 0.47075
 C50 C 0.63593 0.00357 0.46397
 N51 N 0.60561 0.01567 0.50066
 C52 C 0.61246 0.02349 0.42470
 C53 C 0.54698 0.03998 0.41799
 C54 C 0.52272 0.07357 0.38437
 C55 C 0.45670 0.06787 0.38465
 C56 C 0.44240 0.03197 0.41881
 N57 N 0.49755 0.01616 0.43942
 C58 C 0.38040 0.00798 0.42733
 H59 H 0.27002 -0.06256 0.45634
 H60 H 0.27744 -0.07443 0.53828
 H61 H 0.50138 -0.01778 0.46263
 H62 H 0.45307 0.04706 0.65396
 H63 H 0.57984 0.04910 0.65219
 H64 H 0.73339 -0.06886 0.52812
 H65 H 0.72577 -0.04997 0.44756
 H66 H 0.42303 0.08658 0.36176
 H67 H 0.50678 -0.03555 0.53318
 H68 H 0.54970 0.09785 0.36116
 C69 C 0.10074 -0.03741 0.27993
 H70 H 0.08403 -0.07386 0.25514
 C71 C 0.16010 -0.04688 0.30016
 H72 H 0.18846 -0.09010 0.29031
 C73 C 0.08471 0.06236 0.32322
 H74 H 0.05508 0.10473 0.33230
 C75 C 0.14368 0.05425 0.34480
 H76 H 0.15942 0.09131 0.36973
 N77 N 0.06517 0.01776 0.29059
 C78 C -0.07831 -0.08024 0.21828
 H79 H -0.11136 -0.07002 0.24333
 C80 C -0.09093 -0.13448 0.18887
 H81 H -0.13386 -0.16490 0.19161
 C82 C 0.01845 -0.05505 0.18509
 H83 H 0.06114 -0.02375 0.18389
 C84 C 0.00794 -0.10944 0.15513
 H85 H 0.04253 -0.11932 0.13084
 Zn86 Zn -0.01055 0.03289 0.25699
 N87 N -0.02462 -0.04125 0.21584
 C88 C -0.00837 0.11250 0.18676
 N89 N -0.00198 0.11377 0.22952
 C90 C 0.00653 0.17294 0.25335
 C91 C 0.01068 0.23352 0.23424
 C92 C -0.00438 0.17176 0.16637
 C93 C -0.08565 0.02622 0.33099
 C94 C -0.14428 0.02558 0.35154
 C95 C -0.19802 0.05788 0.28777
 C96 C -0.13868 0.05902 0.26879
 N97 N -0.08437 0.04139 0.29003
 H98 H -0.01786 0.06580 0.16818
 H99 H 0.00883 0.17351 0.28728
 H100 H 0.01739 0.28001 0.25382
 H101 H -0.00906 0.16870 0.13236
 H102 H -0.04185 0.01194 0.34713
 H103 H -0.14536 0.01076 0.38353
 H104 H -0.24119 0.06932 0.26982
 H105 H -0.13618 0.07076 0.23625
 C106 C -0.04751 -0.14992 0.15687
 C107 C 0.18279 -0.00018 0.33249
 C108 C -0.20149 0.03979 0.32931
 C109 C 0.00520 0.23351 0.19015
 C110 C -0.05320 0.04956 0.79952
 H111 H -0.08822 0.00905 0.79381
 C112 C -0.06539 0.10334 0.82854
 H113 H -0.11003 0.10373 0.84513
 C114 C 0.04762 0.09762 0.78477
 H115 H 0.09156 0.09510 0.76753
 C116 C 0.03726 0.15275 0.81356
 H117 H 0.07399 0.19165 0.81854
 N118 N 0.00307 0.04689 0.77897
 C119 C 0.14697 -0.02616 0.73641
 H120 H 0.14444 -0.02902 0.77013
 C121 C 0.20656 -0.02773 0.71760
 H122 H 0.24999 -0.03122 0.73706
 C123 C 0.09304 -0.02072 0.66992
 H124 H 0.04858 -0.02003 0.65137
 C125 C 0.15192 -0.02124 0.64980
 H126 H 0.15222 -0.02073 0.61583
 Zn127 Zn 0.01473 -0.03028 0.74178
 N128 N 0.09177 -0.02316 0.71251
 C129 C -0.07410 0.01031 0.67936
 N130 N -0.05888 -0.03930 0.70492
 C131 C -0.09980 -0.09209 0.70855
 C132 C -0.15933 -0.09547 0.68698
 C133 C -0.13299 0.00822 0.65651
 C134 C 0.01349 -0.10565 0.81480
 C135 C 0.01874 -0.16400 0.83629
 C136 C 0.04347 -0.22568 0.77069
 C137 C 0.03706 -0.16638 0.75039
 N138 N 0.02191 -0.10800 0.77250
 H139 H -0.04156 0.05275 0.67795
 H140 H -0.08787 -0.13010 0.72981
 H141 H -0.19232 -0.13657 0.69137
 H142 H -0.14553 0.04909 0.63743
 H143 H 0.00291 -0.05862 0.83207
 H144 H 0.01232 -0.16096 0.86997
 H145 H 0.05543 -0.27171 0.75259
 H146 H 0.04410 -0.16674 0.71685
 C147 C 0.20954 -0.02565 0.67378
 C148 C -0.01963 0.15554 0.83631
 C149 C 0.03378 -0.22509 0.81413
 C150 C -0.17688 -0.04450 0.66110
 N151 N -0.11620 -0.23930 0.12309
 N152 N -0.11191 -0.29487 0.09800
 C153 C -0.05057 -0.29832 0.08552
 C154 C -0.01719 -0.24263 0.10393
 N155 N -0.05991 -0.20724 0.12734
 H156 H 0.03409 -0.23259 0.10360
 N157 N 0.02288 0.35490 0.19045
 N158 N 0.02243 0.40292 0.16392
 C159 C 0.00833 0.37348 0.12501
 C160 C -0.00078 0.30547 0.12900
 N161 N 0.00919 0.29580 0.17015
 H162 H -0.01716 0.26766 0.10479
 N163 N 0.32148 -0.05992 0.67123
 N164 N 0.37106 -0.05813 0.64631
 C165 C 0.35112 -0.02733 0.61198
 C166 C 0.28731 -0.01023 0.61674
 N167 N 0.27069 -0.03153 0.65411
 H168 H 0.25682 0.01681 0.59578
 N169 N -0.29187 -0.06627 0.66237
 N170 N -0.34534 -0.05643 0.64013
 C171 C -0.32839 -0.02682 0.60527
 C172 C -0.26191 -0.01828 0.60729
 N173 N -0.24126 -0.04369 0.64333
 H174 H -0.23176 0.00585 0.58565
 N175 N 0.07411 -0.33845 0.82092
 N176 N 0.07324 -0.38620 0.84764
 C177 C 0.03830 -0.36304 0.88051
 C178 C 0.01715 -0.29961 0.87271
 N179 N 0.04100 -0.28582 0.83545
 H180 H -0.01375 -0.26746 0.89183
 N181 N -0.07492 0.20429 0.89721
 N182 N -0.07232 0.25774 0.92447
 C183 C -0.02482 0.29790 0.91254
 C184 C 0.00221 0.26708 0.87712
 N185 N -0.03057 0.20848 0.86855
 H186 H 0.04243 0.28499 0.86017
 N187 N -0.31531 0.01010 0.32381
 N188 N -0.36530 0.00440 0.34799
 C189 C -0.34474 0.02202 0.38802
 C190 C -0.27977 0.03850 0.38750
 N191 N -0.26348 0.03040 0.34682
 H192 H -0.24798 0.05599 0.41382
 N193 N 0.29332 -0.03902 0.33078
 N194 N 0.34668 -0.03729 0.35476
 C195 C 0.33313 -0.00317 0.39150
 C196 C 0.26958 0.01651 0.38920
 N197 N 0.24643 -0.00707 0.35075
 H198 H 0.24292 0.04435 0.41323
   
