data_POSCAR
  _audit_creation_date              2014-09-24
  _audit_creation_method            'ToBaCCo'
  _symmetry_space_group_name_H-M    'P1'
  _symmetry_Int_Tables_number       1
  _symmetry_cell_setting            triclinic
  loop_
  _symmetry_equiv_pos_as_xyz
 x,y,z
_cell_length_a 47.0442
_cell_length_b 45.9306
_cell_length_c 29.3583
_cell_angle_alpha 90.072100
_cell_angle_beta 89.738500
_cell_angle_gamma 118.884000
loop_
  _atom_site_label
  _atom_site_type_symbol
  _atom_site_fract_x
  _atom_site_fract_y
  _atom_site_fract_z
O1 O 0.02024 0.51934 0.06355
 O2 O -0.03497 0.43620 0.01732
 O3 O 0.02023 0.46311 0.06124
 O4 O -0.03570 0.49232 0.02239
 O5 O -0.00946 0.50779 -0.04324
 O6 O 0.04577 0.47684 -0.00502
 O7 O -0.00975 0.45138 -0.04908
 O8 O 0.04618 0.53385 -0.00242
 Cu9 Cu -0.01016 0.47617 0.04771
 Cu10 Cu 0.02084 0.49379 -0.03157
 C11 C 0.04269 0.54069 0.03841
 C12 C -0.03221 0.42996 -0.02413
 C13 C 0.04280 0.46542 0.03516
 C14 C -0.03217 0.50507 -0.01693
 O15 O 0.55079 0.52610 -0.03505
 O16 O 0.47236 0.49998 0.02367
 O17 O 0.49844 0.46974 -0.02101
 O18 O 0.52659 0.55560 0.01553
 O19 O 0.50653 0.56560 -0.04670
 O20 O 0.47824 0.47891 -0.08373
 O21 O 0.45292 0.50989 -0.03931
 O22 O 0.53067 0.53598 -0.09734
 Cu23 Cu 0.51407 0.51193 0.00202
 Cu24 Cu 0.49021 0.52355 -0.07314
 C25 C 0.55393 0.53551 -0.07639
 C26 C 0.44933 0.50065 0.00192
 C27 C 0.48347 0.45953 -0.05835
 C28 C 0.52124 0.57519 -0.00889
 O29 O 0.51141 0.99279 0.04493
 O30 O 0.48038 1.04917 0.00906
 O31 O 0.46201 1.00004 0.06780
 O32 O 0.53131 1.04308 -0.00977
 O33 O 0.50409 1.00797 -0.06484
 O34 O 0.43368 0.96528 0.01293
 O35 O 0.45299 1.01449 -0.04635
 O36 O 0.48306 0.95780 -0.00977
 Cu37 Cu 0.49889 1.02484 0.03352
 Cu38 Cu 0.46546 0.98303 -0.03257
 C39 C 0.50240 0.96563 0.02359
 C40 C 0.46189 1.04169 -0.02537
 C41 C 0.43639 0.97491 0.05411
 C42 C 0.52988 1.03268 -0.05023
 O43 O 0.94567 0.48273 0.48061
 O44 O 0.99597 0.45015 0.42919
 O45 O 0.95087 0.42943 0.49257
 O46 O 0.99260 0.50497 0.42134
 O47 O 1.02837 0.52907 0.47620
 O48 O 0.98864 0.45313 0.54515
 O49 O 1.03343 0.47553 0.48170
 O50 O 0.98139 0.50553 0.53594
 Cu51 Cu 0.96763 0.46426 0.45052
 Cu52 Cu 1.01160 0.49316 0.51519
 C53 C 0.95474 0.49938 0.51717
 C54 C 1.02351 0.45785 0.44592
 C55 C 0.96266 0.42860 0.53116
 C56 C 1.01764 0.53003 0.43693
 O57 O 0.54923 0.55708 0.44285
 O58 O 0.51878 0.47140 0.48345
 O59 O 0.49339 0.50356 0.44337
 O60 O 0.57488 0.52544 0.48646
 O61 O 0.56188 0.53857 0.55282
 O62 O 0.48109 0.51755 0.50967
 O63 O 0.50602 0.48513 0.54959
 O64 O 0.53729 0.57130 0.50917
 Cu65 Cu 0.53555 0.51318 0.45739
 Cu66 Cu 0.52056 0.52975 0.53699
 C67 C 0.54783 0.57859 0.46857
 C68 C 0.50689 0.46357 0.52326
 C69 C 0.47335 0.50671 0.46937
 C70 C 0.58190 0.53500 0.52748
 O71 O 0.49672 -0.05733 0.52997
 O72 O 0.46355 -0.01048 0.59035
 O73 O 0.43947 -0.06166 0.53504
 O74 O 0.52087 -0.00363 0.57950
 O75 O 0.53065 0.02713 0.51758
 O76 O 0.44859 -0.02877 0.47574
 O77 O 0.47398 0.02263 0.53088
 O78 O 0.50481 -0.02657 0.46849
 Cu79 Cu 0.47906 -0.03659 0.56467
 Cu80 Cu 0.49028 0.00175 0.49209
 C81 C 0.50629 -0.05016 0.48908
 C82 C 0.46399 0.01457 0.57168
 C83 C 0.43025 -0.05514 0.49758
 C84 C 0.53958 0.02167 0.55581
 C85 C 0.21214 0.44882 0.23958
 C86 C 0.21779 0.45421 0.28708
 C87 C 0.24674 0.45780 0.30554
 C88 C 0.26998 0.45508 0.27835
 C89 C 0.26391 0.44848 0.23131
 C90 C 0.23523 0.44553 0.21251
 H91 H 0.23155 0.44155 0.17627
 H92 H 0.25140 0.46375 0.34135
 C93 C 0.57772 0.77246 0.20697
 C94 C 0.57261 0.76848 0.25468
 C95 C 0.56814 0.79230 0.27933
 C96 C 0.56906 0.82007 0.25768
 C97 C 0.57511 0.82432 0.21026
 C98 C 0.57970 0.80072 0.18570
 H99 H 0.58516 0.80457 0.14962
 H100 H 0.56169 0.78797 0.31499
 C101 C 0.23998 0.79649 0.23534
 C102 C 0.24203 0.79857 0.28356
 C103 C 0.21866 0.77201 0.30952
 C104 C 0.19449 0.74310 0.28920
 C105 C 0.19337 0.74028 0.24114
 C106 C 0.21557 0.76751 0.21496
 H107 H 0.21529 0.76558 0.17818
 H108 H 0.21888 0.77385 0.34633
 C109 C 0.81603 0.55259 0.74022
 C110 C 0.81871 0.55752 0.78795
 C111 C 0.79335 0.55829 0.81225
 C112 C 0.76525 0.55420 0.79046
 C113 C 0.76254 0.54980 0.74254
 C114 C 0.78802 0.54903 0.71814
 H115 H 0.78489 0.54325 0.68222
 H116 H 0.79545 0.56224 0.84876
 C117 C 0.42319 0.24951 0.71764
 C118 C 0.41517 0.24520 0.76451
 C119 C 0.41036 0.21620 0.78683
 C120 C 0.41304 0.19090 0.76341
 C121 C 0.41951 0.19445 0.71587
 C122 C 0.42440 0.22361 0.69375
 H123 H 0.43078 0.22650 0.65797
 H124 H 0.40378 0.21310 0.82261
 C125 C 0.73274 0.19511 0.74173
 C126 C 0.73889 0.19928 0.78914
 C127 C 0.76800 0.22604 0.80459
 C128 C 0.79149 0.24877 0.77422
 C129 C 0.78515 0.24452 0.72682
 C130 C 0.75600 0.21788 0.71145
 H131 H 0.75090 0.21575 0.67527
 H132 H 0.77157 0.22980 0.84098
 C133 C 0.06644 0.45576 0.05217
 C134 C 0.06941 0.45200 0.09876
 C135 C 0.09548 0.44706 0.11821
 N136 N 0.10192 0.45223 0.16337
 N137 N 0.12597 0.44882 0.18171
 C138 C 0.14437 0.43986 0.15562
 N139 N 0.13767 0.43423 0.11051
 N140 N 0.11375 0.43792 0.09205
 C141 C 0.17129 0.43648 0.17552
 C142 C 0.18430 0.45028 0.21790
 H143 H 0.05347 0.45533 0.12241
 H144 H 0.18094 0.42325 0.15599
 H145 H 0.08345 0.45444 0.02839
 H146 H 0.17392 0.46359 0.23569
 C147 C 0.53145 0.60915 0.00727
 C148 C 0.54899 0.62107 0.04752
 C149 C 0.55532 0.65269 0.06853
 N150 N 0.57170 0.66218 0.10846
 N151 N 0.57596 0.68966 0.12960
 C152 C 0.56396 0.70869 0.11157
 N153 N 0.54784 0.69938 0.07140
 N154 N 0.54359 0.67189 0.05023
 C155 C 0.56639 0.73777 0.13604
 C156 C 0.58073 0.74717 0.17890
 H157 H 0.55710 0.60592 0.06568
 H158 H 0.55421 0.75039 0.12144
 H159 H 0.52392 0.62443 -0.01174
 H160 H 0.59200 0.73370 0.19370
 C161 C 0.41058 0.95624 0.08759
 C162 C 0.38108 0.92884 0.07609
 C163 C 0.35856 0.90688 0.11131
 N164 N 0.32741 0.88493 0.10049
 N165 N 0.30727 0.86409 0.13180
 C166 C 0.31764 0.86416 0.17496
 N167 N 0.34884 0.88595 0.18568
 N168 N 0.36888 0.90701 0.15451
 C169 C 0.29605 0.84043 0.20945
 C170 C 0.26244 0.82314 0.20406
 H171 H 0.37473 0.92281 0.04061
 H172 H 0.30710 0.83612 0.23907
 H173 H 0.41584 0.96322 0.12307
 H174 H 0.25227 0.82666 0.17284
 C175 C 0.93361 0.51120 0.53767
 C176 C 0.93774 0.52306 0.58216
 C177 C 0.91457 0.53171 0.60390
 N178 N 0.91486 0.53535 0.64975
 N179 N 0.89330 0.54200 0.67017
 C180 C 0.87075 0.54546 0.64549
 N181 N 0.87076 0.54231 0.59953
 N182 N 0.89219 0.53543 0.57911
 C183 C 0.84632 0.55200 0.66795
 C184 C 0.84080 0.54755 0.71482
 H185 H 0.95728 0.52401 0.60262
 H186 H 0.83244 0.55991 0.64703
 H187 H 0.91305 0.50856 0.51806
 H188 H 0.85516 0.53920 0.73387
 C189 C 0.49398 0.42901 0.53862
 C190 C 0.48243 0.41933 0.58282
 C191 C 0.46975 0.38503 0.59914
 N192 N 0.46264 0.37825 0.64394
 N193 N 0.45148 0.34747 0.65969
 C194 C 0.44685 0.32222 0.63124
 N195 N 0.45367 0.32892 0.58627
 N196 N 0.46498 0.35980 0.57050
 C197 C 0.43510 0.28826 0.64886
 C198 C 0.43331 0.28233 0.69570
 H199 H 0.48337 0.43769 0.60684
 H200 H 0.42820 0.26826 0.62464
 H201 H 0.49387 0.41094 0.51477
 H202 H 0.44086 0.30358 0.71792
 C203 C 0.57194 0.04547 0.57252
 C204 C 0.57932 0.04922 0.61875
 C205 C 0.61056 0.07575 0.63543
 N206 N 0.61362 0.08560 0.67955
 N207 N 0.64157 0.11028 0.69470
 C208 C 0.66752 0.12586 0.66630
 N209 N 0.66458 0.11571 0.62235
 N210 N 0.63656 0.09124 0.60712
 C211 C 0.69861 0.15289 0.68252
 C212 C 0.70117 0.16934 0.72351
 H213 H 0.56090 0.03403 0.64343
 H214 H 0.71998 0.15963 0.66178
 H215 H 0.58943 0.06251 0.54818
 H216 H 0.67941 0.16244 0.74340
 C217 C 0.45174 0.06554 0.95833
 C218 C 0.43429 0.06049 0.91805
 C219 C 0.42904 0.08668 0.89728
 N220 N 0.41413 0.08141 0.85625
 N221 N 0.41092 0.10555 0.83578
 C222 C 0.42252 0.13588 0.85564
 N223 N 0.43715 0.14104 0.89683
 N224 N 0.44036 0.11692 0.91728
 C225 C 0.42126 0.16364 0.83251
 C226 C 0.40842 0.16103 0.78894
 H227 H 0.42593 0.03736 0.89960
 H228 H 0.43320 0.18766 0.84912
 H229 H 0.46017 0.08867 0.97680
 H230 H 0.39747 0.13721 0.77182
 C231 C 0.58459 0.54594 0.89888
 C232 C 0.60995 0.54203 0.91661
 C233 C 0.63937 0.55014 0.88978
 N234 N 0.66071 0.54041 0.90475
 N235 N 0.68677 0.54639 0.87995
 C236 C 0.69257 0.56252 0.83936
 N237 N 0.67145 0.57263 0.82466
 N238 N 0.64530 0.56650 0.84936
 C239 C 0.72038 0.56780 0.81059
 C240 C 0.73885 0.55228 0.82022
 H241 H 0.60751 0.53116 0.95009
 H242 H 0.72543 0.58290 0.78023
 H243 H 0.58661 0.55571 0.86474
 H244 H 0.73490 0.53916 0.85226
 C245 C 0.94401 0.39777 0.95656
 C246 C 0.93918 0.39328 0.90966
 C247 C 0.91258 0.36292 0.88989
 N248 N 0.90399 0.36285 0.84580
 N249 N 0.87932 0.33591 0.82773
 C250 C 0.86245 0.30794 0.85305
 N251 N 0.87129 0.30788 0.89698
 N252 N 0.89581 0.33490 0.91515
 C253 C 0.83484 0.27807 0.83399
 C254 C 0.82045 0.27841 0.79258
 H255 H 0.95387 0.41360 0.88678
 H256 H 0.82541 0.25536 0.85367
 H257 H 0.92806 0.37831 0.97972
 H258 H 0.83064 0.30129 0.77319
 C259 C 0.51904 0.93013 0.46597
 C260 C 0.52539 0.93252 0.41937
 C261 C 0.53635 0.91117 0.39642
 N262 N 0.53685 0.91008 0.35028
 N263 N 0.54598 0.89027 0.32903
 C264 C 0.55510 0.87092 0.35312
 N265 N 0.55493 0.87227 0.39927
 N266 N 0.54564 0.89196 0.42053
 C267 C 0.56476 0.84856 0.32996
 C268 C 0.56045 0.84276 0.28320
 H269 H 0.52090 0.94944 0.39882
 H270 H 0.57532 0.83660 0.35025
 H271 H 0.52230 0.91223 0.48614
 H272 H 0.54999 0.85546 0.26427
 C273 C 0.44064 0.49771 0.45321
 C274 C 0.43171 0.48985 0.40785
 C275 C 0.39911 0.48129 0.39157
 N276 N 0.39329 0.47956 0.34620
 N277 N 0.36399 0.47217 0.33083
 C278 C 0.33934 0.46604 0.36026
 N279 N 0.34507 0.46743 0.40567
 N280 N 0.37446 0.47502 0.42106
 C281 C 0.30695 0.45810 0.34355
 C282 C 0.30186 0.46224 0.29778
 H283 H 0.44942 0.49098 0.38317
 H284 H 0.28710 0.44891 0.36776
 H285 H 0.42338 0.49799 0.47753
 H286 H 0.32254 0.47152 0.27495
 C287 C 0.03366 0.55861 0.41027
 C288 C 0.06224 0.58614 0.42486
 C289 C 0.08129 0.61537 0.39599
 N290 N 0.11147 0.63830 0.40935
 N291 N 0.12972 0.66444 0.38316
 C292 C 0.11840 0.66877 0.34270
 N293 N 0.08803 0.64605 0.32953
 N294 N 0.06981 0.61975 0.35565
 C295 C 0.13896 0.69681 0.31268
 C296 C 0.17223 0.71616 0.32020
 H297 H 0.07219 0.58572 0.45792
 H298 H 0.12797 0.70135 0.28312
 H299 H 0.02414 0.55885 0.37681
 H300 H 0.18242 0.71263 0.35140
 C301 C 0.94591 0.51539 0.96889
 C302 C 0.94792 0.52972 0.92630
 C303 C 0.92217 0.53626 0.90941
 N304 N 0.92553 0.55108 0.86832
 N305 N 0.90159 0.55536 0.85137
 C306 C 0.87337 0.54491 0.87487
 N307 N 0.87009 0.53030 0.91609
 N308 N 0.89407 0.52610 0.93310
 C309 C 0.84576 0.54698 0.85505
 C310 C 0.84783 0.56157 0.81268
 H311 H 0.96824 0.53515 0.90385
 H312 H 0.82264 0.53425 0.87262
 H313 H 0.92609 0.51123 0.99166
 H314 H 0.87109 0.57380 0.79540
 C315 C 0.47311 0.42668 0.92907
 C316 C 0.45561 0.41246 0.88946
 C317 C 0.44673 0.37825 0.87592
 N318 N 0.42889 0.36495 0.83785
 N319 N 0.42192 0.33458 0.82410
 C320 C 0.43249 0.31632 0.84793
 N321 N 0.45013 0.32952 0.88620
 N322 N 0.45705 0.35988 0.90000
 C323 C 0.42747 0.28403 0.83080
 C324 C 0.41135 0.27091 0.79000
 H325 H 0.44863 0.42680 0.86735
 H326 H 0.43970 0.27232 0.84785
 H327 H 0.47912 0.41168 0.95138
 H328 H 0.39972 0.28318 0.77279
 C329 C 0.55682 0.04831 0.92104
 C330 C 0.58540 0.07619 0.93493
 C331 C 0.61414 0.09312 0.90541
 N332 N 0.63838 0.12352 0.91744
 N333 N 0.66441 0.13964 0.89088
 C334 C 0.66735 0.12577 0.85150
 N335 N 0.64330 0.09514 0.83974
 N336 N 0.61712 0.07910 0.86616
 C337 C 0.69503 0.14414 0.82056
 C338 C 0.71476 0.17850 0.82419
 H339 H 0.58661 0.08684 0.96830
 H340 H 0.69826 0.13083 0.79232
 H341 H 0.55532 0.03856 0.88698
 H342 H 0.71270 0.19103 0.85429
 C343 C 0.04417 0.44664 0.42241
 C344 C 0.07707 0.45989 0.43222
 C345 C 0.09885 0.45264 0.40400
 N346 N 0.13145 0.47057 0.40977
 N347 N 0.15158 0.46541 0.38311
 C348 C 0.13986 0.44202 0.34978
 N349 N 0.10724 0.42382 0.34434
 N350 N 0.08711 0.42908 0.37088
 C351 C 0.16182 0.43690 0.31896
 C352 C 0.19527 0.45817 0.31879
 H353 H 0.08769 0.47795 0.45935
 H354 H 0.15131 0.41655 0.29488
 H355 H 0.03378 0.42953 0.39420
 H356 H 0.20580 0.47707 0.34491
 C357 C 0.55746 0.61206 0.45078
 C358 C 0.56192 0.61872 0.40418
 C359 C 0.56652 0.64998 0.38393
 N360 N 0.56457 0.65212 0.33809
 N361 N 0.56768 0.67976 0.31890
 C362 C 0.57297 0.70640 0.34482
 N363 N 0.57525 0.70441 0.39069
 N364 N 0.57195 0.67665 0.40995
 C365 C 0.57628 0.73702 0.32381
 C366 C 0.56908 0.73811 0.27792
 H367 H 0.55972 0.59935 0.38102
 H368 H 0.58480 0.75897 0.34490
 H369 H 0.55830 0.63078 0.47405
 H370 H 0.56073 0.71563 0.25803
 C371 C 0.40005 0.92219 0.47997
 C372 C 0.38870 0.92726 0.43836
 C373 C 0.35955 0.90099 0.41618
 N374 N 0.34923 0.90713 0.37599
 N375 N 0.32392 0.88302 0.35434
 C376 C 0.30814 0.85184 0.37209
 N377 N 0.31839 0.84578 0.41232
 N378 N 0.34358 0.86987 0.43399
 C379 C 0.28121 0.82426 0.34814
 C380 C 0.26764 0.82794 0.30773
 H381 H 0.40237 0.95054 0.42023
 H382 H 0.27265 0.79967 0.36236
 H383 H 0.38564 0.89926 0.49853
 H384 H 0.27706 0.85237 0.29261
 C385 C 0.51386 0.94240 0.03755
 C386 C 0.53440 0.94853 0.07458
 C387 C 0.54301 0.92356 0.09099
 N388 N 0.56109 0.92949 0.12920
 N389 N 0.56766 0.90640 0.14573
 C390 C 0.55643 0.87654 0.12457
 N391 N 0.53866 0.87077 0.08609
 N392 N 0.53208 0.89384 0.06959
 C393 C 0.56140 0.84989 0.14407
 C394 C 0.57638 0.85323 0.18607
 H395 H 0.54332 0.97163 0.09326
 H396 H 0.55037 0.82607 0.12688
 H397 H 0.50494 0.91928 0.01891
 H398 H 0.58630 0.87681 0.20375
 C399 C 0.41804 0.49129 0.02411
 C400 C 0.41061 0.47869 0.06825
 C401 C 0.38003 0.47213 0.09071
 N402 N 0.37261 0.45803 0.13270
 N403 N 0.34561 0.45319 0.15404
 C404 C 0.32504 0.46231 0.13422
 N405 N 0.33241 0.47629 0.09219
 N406 N 0.35934 0.48103 0.07078
 C407 C 0.29637 0.45933 0.15866
 C408 C 0.28772 0.44493 0.20176
 H409 H 0.42778 0.47405 0.08706
 H410 H 0.28347 0.47115 0.14388
 H411 H 0.40036 0.49492 0.00496
 H412 H 0.30120 0.43362 0.21619
 C413 C 0.06522 0.57379 0.05637
 C414 C 0.06806 0.58052 0.10290
 C415 C 0.09163 0.61312 0.12129
 N416 N 0.09868 0.61630 0.16635
 N417 N 0.12014 0.64557 0.18357
 C418 C 0.13521 0.67282 0.15640
 N419 N 0.12791 0.66973 0.11138
 N420 N 0.10661 0.64038 0.09408
 C421 C 0.15862 0.70536 0.17528
 C422 C 0.17149 0.70814 0.21879
 H423 H 0.05363 0.56086 0.12680
 H424 H 0.16519 0.72728 0.15481
 H425 H 0.08104 0.59280 0.03257
 H426 H 0.16466 0.68554 0.23787
 C427 C 0.45411 0.03491 0.59922
 C428 C 0.45276 0.06248 0.58218
 C429 C 0.44825 0.08532 0.61282
 N430 N 0.43925 0.10711 0.59589
 N431 N 0.43586 0.12835 0.62343
 C432 C 0.44172 0.12882 0.66880
 N433 N 0.45102 0.10726 0.68561
 N434 N 0.45410 0.08583 0.65817
 C435 C 0.43868 0.15249 0.69953
 C436 C 0.42161 0.16898 0.68713
 H437 H 0.45558 0.06771 0.54598
 H438 H 0.45022 0.15693 0.73251
 H439 H 0.44931 0.02883 0.63507
 H440 H 0.41187 0.16550 0.65297
 C441 C 0.61331 0.54115 0.54610
 C442 C 0.61818 0.54201 0.59301
 C443 C 0.64794 0.54494 0.61339
 N444 N 0.64840 0.53890 0.65852
 N445 N 0.67502 0.54133 0.67781
 C446 C 0.70227 0.55005 0.65270
 N447 N 0.70191 0.55631 0.60758
 N448 N 0.67518 0.55366 0.58819
 C449 C 0.73213 0.55380 0.67398
 C450 C 0.73230 0.54303 0.71840
 H451 H 0.59870 0.53861 0.61596
 H452 H 0.75453 0.56637 0.65472
 H453 H 0.63186 0.54252 0.52285
 H454 H 0.70951 0.53033 0.73672
 C455 C 0.94593 0.39952 0.56113
 C456 C 0.91380 0.37542 0.55404
 C457 C 0.89514 0.34991 0.58843
 N458 N 0.86243 0.33179 0.58463
 N459 N 0.84489 0.30989 0.61670
 C460 C 0.85939 0.30516 0.65375
 N461 N 0.89218 0.32294 0.65726
 N462 N 0.90973 0.34500 0.62527
 C463 C 0.83999 0.28187 0.69014
 C464 C 0.80633 0.26830 0.69165
 H465 H 0.90109 0.37700 0.52427
 H466 H 0.85240 0.27584 0.71639
 H467 H 0.95823 0.39877 0.59185
 H468 H 0.79436 0.27331 0.66368
   
