data_POSCAR
  _audit_creation_date              2014-09-24
  _audit_creation_method            'ToBaCCo'
  _symmetry_space_group_name_H-M    'P1'
  _symmetry_Int_Tables_number       1
  _symmetry_cell_setting            triclinic
  loop_
  _symmetry_equiv_pos_as_xyz
 x,y,z
_cell_length_a 30.2495
_cell_length_b 30.5709
_cell_length_c 31.7581
_cell_angle_alpha 92.524900
_cell_angle_beta 90.691300
_cell_angle_gamma 91.543600
loop_
  _atom_site_label
  _atom_site_type_symbol
  _atom_site_fract_x
  _atom_site_fract_y
  _atom_site_fract_z
C1 C 0.17684 0.50741 1.07576
 H2 H 0.16909 0.52932 1.05104
 C3 C 0.14961 0.50521 1.11097
 H4 H 0.12112 0.52579 1.11249
 C5 C 0.22266 0.45301 1.10196
 H6 H 0.25110 0.43260 1.09830
 C7 C 0.19629 0.44947 1.13741
 H8 H 0.20610 0.42666 1.16055
 N9 N 0.21222 0.48110 1.07170
 C10 C 0.30977 0.53596 0.98677
 H11 H 0.31440 0.50829 0.96500
 C12 C 0.33555 0.57424 0.98334
 H13 H 0.35962 0.57612 0.95849
 C14 C 0.27270 0.56711 1.04570
 H15 H 0.24870 0.56406 1.07034
 C16 C 0.29723 0.60614 1.04301
 H17 H 0.29170 0.63277 1.06577
 Zn18 Zn 0.24538 0.48031 1.02145
 N19 N 0.27888 0.53320 1.01744
 C20 C 0.20784 0.49716 0.94104
 N21 N 0.20479 0.47251 0.97557
 C22 C 0.17139 0.44228 0.97918
 C23 C 0.14012 0.43494 0.94681
 C24 C 0.17711 0.49100 0.90794
 C25 C 0.32719 0.44061 1.03532
 C26 C 0.35681 0.40636 1.03621
 C27 C 0.29858 0.35687 1.00929
 C28 C 0.27018 0.39205 1.00871
 N29 N 0.28481 0.43300 1.02150
 H30 H 0.23408 0.52159 0.93899
 H31 H 0.16881 0.42404 1.00750
 H32 H 0.11371 0.41096 0.95073
 H33 H 0.18051 0.51057 0.88053
 H34 H 0.33797 0.47325 1.04609
 H35 H 0.39026 0.41310 1.04763
 H36 H 0.28619 0.32477 0.99841
 H37 H 0.23646 0.38645 0.99802
 C38 C 0.32894 0.61008 1.01143
 C39 C 0.15829 0.47493 1.14207
 C40 C 0.34253 0.36376 1.02320
 C41 C 0.14282 0.45934 0.91048
 C42 C 0.81191 0.55394 -0.08416
 H43 H 0.81911 0.58377 -0.06568
 C44 C 0.83697 0.54467 -0.11998
 H45 H 0.86182 0.56848 -0.12884
 C46 C 0.77440 0.48520 -0.09237
 H47 H 0.75109 0.46126 -0.08108
 C48 C 0.79842 0.47476 -0.12850
 H49 H 0.79196 0.44325 -0.14440
 N50 N 0.78218 0.52380 -0.07022
 C51 C 0.67675 0.57656 0.00120
 H52 H 0.66603 0.54611 0.01425
 C53 C 0.64728 0.61092 0.00006
 H54 H 0.61426 0.60607 0.01202
 C55 C 0.73307 0.62033 -0.02818
 H56 H 0.76653 0.62429 -0.03881
 C57 C 0.70472 0.65555 -0.02993
 H58 H 0.71703 0.68563 -0.04275
 Zn59 Zn 0.75619 0.53202 -0.01580
 N60 N 0.71849 0.58129 -0.01388
 C61 C 0.79179 0.54895 0.06647
 N62 N 0.80229 0.54001 0.02548
 C63 C 0.84496 0.53367 0.01405
 C64 C 0.87898 0.53666 0.04411
 C65 C 0.82484 0.55108 0.09784
 C66 C 0.68460 0.47070 -0.02668
 C67 C 0.65977 0.43267 -0.01933
 C68 C 0.71355 0.41506 0.03368
 C69 C 0.73707 0.45365 0.02569
 N70 N 0.72239 0.48060 -0.00411
 H71 H 0.75758 0.55324 0.07490
 H72 H 0.85281 0.52481 -0.01816
 H73 H 0.91255 0.53074 0.03435
 H74 H 0.81598 0.55742 0.13043
 H75 H 0.67393 0.49231 -0.05066
 H76 H 0.63007 0.42518 -0.03790
 H77 H 0.72585 0.39416 0.05758
 H78 H 0.76744 0.46161 0.04290
 C79 C 0.66091 0.65096 -0.01626
 C80 C 0.83154 0.50392 -0.14193
 C81 C 0.67444 0.40412 0.01096
 C82 C 0.86905 0.54492 0.08662
 C83 C -0.08580 0.28831 0.41526
 H84 H -0.11053 0.26344 0.42158
 C85 C -0.09464 0.31875 0.38491
 H86 H -0.12600 0.31564 0.36831
 C87 C -0.01630 0.32276 0.43099
 H88 H 0.01384 0.32464 0.44974
 C89 C -0.02371 0.35389 0.40108
 H90 H 0.00173 0.37882 0.39738
 N91 N -0.04672 0.29020 0.43696
 C92 C -0.10121 0.19553 0.51495
 H93 H -0.09368 0.21387 0.54415
 C94 C -0.13221 0.16068 0.51432
 H95 H -0.14894 0.15250 0.54300
 C96 C -0.08783 0.18255 0.44208
 H97 H -0.06946 0.19063 0.41432
 C98 C -0.11956 0.14865 0.43973
 H99 H -0.12589 0.13078 0.40996
 Zn100 Zn -0.03424 0.24905 0.47852
 N101 N -0.07981 0.20568 0.47907
 C102 C -0.01026 0.25998 0.56544
 N103 N -0.02780 0.27985 0.53183
 C104 C -0.03923 0.32264 0.53503
 C105 C -0.03183 0.34743 0.57254
 C106 C -0.00250 0.28352 0.60363
 C107 C 0.04676 0.23044 0.43524
 C108 C 0.08461 0.20630 0.42722
 C109 C 0.06225 0.15717 0.48095
 C110 C 0.02500 0.18220 0.48794
 N111 N 0.01827 0.21859 0.46584
 H112 H -0.00159 0.22602 0.56266
 H113 H -0.05402 0.33782 0.50844
 H114 H -0.04117 0.38138 0.57420
 H115 H 0.01241 0.26713 0.62952
 H116 H 0.04039 0.25845 0.41685
 H117 H 0.10717 0.21701 0.40338
 H118 H 0.06651 0.12832 0.49895
 H119 H 0.00090 0.17204 0.51063
 C120 C -0.14179 0.13722 0.47620
 C121 C -0.06315 0.35204 0.37679
 C122 C 0.09291 0.16925 0.45046
 C123 C -0.01291 0.32799 0.60740
 C124 C 1.00340 0.67641 0.56866
 H125 H 0.97484 0.67400 0.54776
 C126 C 1.00632 0.64869 0.60232
 H127 H 0.97975 0.62510 0.60710
 C128 C 1.07196 0.71121 0.58824
 H129 H 1.09720 0.73595 0.58296
 C130 C 1.07607 0.68436 0.62249
 H131 H 1.10509 0.68835 0.64267
 N132 N 1.03615 0.70659 0.56197
 C133 C 0.94236 0.77454 0.49531
 H134 H 0.94688 0.75882 0.46461
 C135 C 0.90444 0.79853 0.50314
 H136 H 0.88000 0.80090 0.47822
 C137 C 0.96852 0.79071 0.56506
 H138 H 0.99412 0.78799 0.58881
 C139 C 0.93094 0.81456 0.57437
 H140 H 0.92806 0.83031 0.60536
 Zn141 Zn 1.02806 0.74389 0.51647
 N142 N 0.97389 0.77193 0.52589
 C143 C 1.02377 0.73192 0.42758
 N144 N 1.02736 0.71086 0.46430
 C145 C 1.03191 0.66673 0.46414
 C146 C 1.03102 0.64183 0.42627
 C147 C 1.02288 0.70821 0.38882
 C148 C 1.06391 0.83033 0.51874
 C149 C 1.09694 0.86282 0.51627
 C150 C 1.15032 0.80628 0.50520
 C151 C 1.11616 0.77480 0.50777
 N152 N 1.07399 0.78725 0.51486
 H153 H 1.02118 0.76718 0.42844
 H154 H 1.03635 0.65057 0.49337
 H155 H 1.03457 0.60675 0.42716
 H156 H 1.01886 0.72551 0.36008
 H157 H 1.03013 0.83977 0.52338
 H158 H 1.08801 0.89679 0.51991
 H159 H 1.18350 0.79551 0.49918
 H160 H 1.12319 0.74035 0.50391
 C161 C 0.89869 0.81934 0.54297
 C162 C 1.04296 0.65258 0.62989
 C163 C 1.14090 0.85103 0.50952
 C164 C 1.02596 0.66242 0.38792
 C165 C 0.46307 -0.03967 0.31279
 H166 H 0.48065 -0.06901 0.30412
 C167 C 0.43386 -0.03975 0.34630
 H168 H 0.42856 -0.06967 0.36274
 C169 C 0.44944 0.03498 0.30170
 H170 H 0.45659 0.06423 0.28482
 C171 C 0.41947 0.03625 0.33498
 H172 H 0.40346 0.06660 0.34334
 N173 N 0.47063 -0.00265 0.29156
 C174 C 0.53031 -0.06234 0.18052
 H175 H 0.56411 -0.05024 0.18448
 C176 C 0.51874 -0.09074 0.14636
 H177 H 0.54433 -0.10011 0.12453
 C178 C 0.45615 -0.06223 0.20353
 H179 H 0.43182 -0.05044 0.22562
 C180 C 0.44278 -0.08942 0.16901
 H181 H 0.40821 -0.09909 0.16610
 Zn182 Zn 0.51577 -0.00724 0.25139
 N183 N 0.49925 -0.04924 0.20855
 C184 C 0.58272 -0.06510 0.27636
 N185 N 0.56617 -0.02430 0.28154
 C186 C 0.58173 0.00433 0.31249
 C187 C 0.61535 -0.00754 0.33974
 C188 C 0.61636 -0.07841 0.30304
 C189 C 0.49272 0.06098 0.20108
 C190 C 0.50006 0.09548 0.17445
 C191 C 0.57673 0.09861 0.19680
 C192 C 0.56792 0.06398 0.22297
 N193 N 0.52655 0.04559 0.22421
 H194 H 0.56863 -0.08812 0.25282
 H195 H 0.56718 0.03616 0.31657
 H196 H 0.62703 0.01594 0.36411
 H197 H 0.62801 -0.11145 0.29910
 H198 H 0.46037 0.04508 0.20196
 H199 H 0.47289 0.10592 0.15522
 H200 H 0.61006 0.11221 0.19595
 H201 H 0.59464 0.05060 0.24075
 C202 C 0.47421 -0.10414 0.13962
 C203 C 0.41207 -0.00133 0.35816
 C204 C 0.54281 0.11409 0.17125
 C205 C 0.63270 -0.04965 0.33562
 C206 C 0.55222 -0.02840 0.69737
 H207 H 0.54660 -0.05608 0.71683
 C208 C 0.58213 -0.03146 0.66414
 H209 H 0.59953 -0.06157 0.65839
 C210 C 0.53483 0.04374 0.67969
 H211 H 0.51577 0.07274 0.68574
 C212 C 0.56396 0.04197 0.64611
 H213 H 0.56767 0.07021 0.62695
 N214 N 0.52922 0.00882 0.70427
 C215 C 0.43375 -0.05860 0.77140
 H216 H 0.40752 -0.04675 0.75196
 C217 C 0.42530 -0.09424 0.79640
 H218 H 0.39281 -0.10989 0.79483
 C219 C 0.50726 -0.05157 0.79786
 H220 H 0.53881 -0.03398 0.79893
 C221 C 0.50021 -0.08701 0.82347
 H222 H 0.52675 -0.09631 0.84407
 Zn223 Zn 0.48393 0.01444 0.74428
 N224 N 0.47412 -0.03788 0.77278
 C225 C 0.42067 -0.00016 0.68115
 N226 N 0.43292 0.02861 0.71328
 C227 C 0.41205 0.06714 0.71966
 C228 C 0.37732 0.07795 0.69289
 C229 C 0.38615 0.00922 0.65383
 C230 C 0.47031 0.06741 0.81699
 C231 C 0.48174 0.09715 0.85025
 C232 C 0.55317 0.10835 0.81867
 C233 C 0.54027 0.07861 0.78588
 N234 N 0.49948 0.05877 0.78567
 H235 H 0.43840 -0.03021 0.67636
 H236 H 0.42312 0.09012 0.74464
 H237 H 0.36201 0.10927 0.69796
 H238 H 0.37717 -0.01440 0.62862
 H239 H 0.43842 0.05050 0.81649
 H240 H 0.45827 0.10292 0.87520
 H241 H 0.58579 0.12369 0.81815
 H242 H 0.56334 0.07065 0.76119
 C243 C 0.45848 -0.10839 0.82355
 C244 C 0.58759 0.00382 0.63759
 C245 C 0.52387 0.11769 0.85161
 C246 C 0.36423 0.04897 0.65914
 C247 C 0.22032 0.06749 0.46885
 C248 C 0.23800 0.08307 0.51254
 C249 C 0.26540 0.05460 0.53063
 C250 C 0.27283 0.01289 0.50311
 C251 C 0.26194 0.05791 0.44304
 C252 C 0.28942 0.02913 0.46083
 C253 C 0.19885 0.02225 0.47534
 C254 C 0.22636 -0.00655 0.49307
 H255 H 0.22995 0.11442 0.52723
 H256 H 0.29479 -0.01005 0.51834
 H257 H 0.26859 0.07145 0.41290
 H258 H 0.16532 0.01358 0.46522
 C259 C 0.77520 -0.07502 0.52559
 C260 C 0.73513 -0.06283 0.55250
 C261 C 0.70841 -0.03332 0.53468
 C262 C 0.72423 -0.01920 0.49132
 C263 C 0.75510 -0.09124 0.48288
 C264 C 0.72864 -0.06196 0.46476
 C265 C 0.79847 -0.03112 0.51708
 C266 C 0.77180 -0.00209 0.49885
 H267 H 0.72839 -0.07651 0.58263
 H268 H 0.70333 0.00504 0.47655
 H269 H 0.76124 -0.12327 0.46864
 H270 H 0.83342 -0.02459 0.52301
 C271 C 0.47795 0.26872 1.02165
 C272 C 0.48434 0.23917 0.98217
 C273 C 0.52488 0.22119 0.97969
 C274 C 0.55550 0.23428 1.01739
 C275 C 0.48873 0.23993 1.05855
 C276 C 0.52933 0.22191 1.05647
 C277 C 0.51643 0.30271 1.02123
 C278 C 0.55708 0.28457 1.01930
 H279 H 0.45908 0.23395 0.95788
 H280 H 0.58827 0.21923 1.01524
 H281 H 0.46634 0.23513 1.08439
 H282 H 0.51222 0.33771 1.02408
 C283 C 0.52368 0.74411 -0.02094
 C284 C 0.51204 0.76697 -0.06150
 C285 C 0.47104 0.78402 -0.06182
 C286 C 0.44512 0.77688 -0.02138
 C287 C 0.51818 0.77689 0.01297
 C288 C 0.47557 0.79558 0.01435
 C289 C 0.48571 0.70994 -0.01586
 C290 C 0.44462 0.72737 -0.01572
 H291 H 0.53474 0.76986 -0.08742
 H292 H 0.41203 0.79119 -0.02238
 H293 H 0.54357 0.78434 0.03674
 H294 H 0.49086 0.67599 -0.00955
 C295 C 0.96278 0.46615 0.27425
 C296 C 0.93818 0.48217 0.23522
 C297 C 0.96122 0.51307 0.21399
 C298 C 1.00682 0.52542 0.23374
 C299 C 1.00469 0.45058 0.25875
 C300 C 1.03004 0.48147 0.23642
 C301 C 0.97413 0.50810 0.30068
 C302 C 0.99706 0.53923 0.27989
 H303 H 0.90635 0.46929 0.22416
 H304 H 1.02593 0.55053 0.21703
 H305 H 1.01416 0.41684 0.26114
 H306 H 0.96368 0.51282 0.33301
 C307 C 0.02539 0.52847 0.73014
 C308 C -0.02103 0.53029 0.74903
 C309 C -0.03431 0.49254 0.76677
 C310 C 0.00015 0.45670 0.76495
 C311 C 0.05551 0.51553 0.76663
 C312 C 0.04221 0.47816 0.78510
 C313 C 0.02375 0.48780 0.69970
 C314 C 0.01063 0.45020 0.71805
 H315 H -0.04197 0.55836 0.74720
 H316 H -0.01140 0.42660 0.77999
 H317 H 0.08560 0.53332 0.77605
 H318 H 0.03280 0.48873 0.66687
 N319 N 0.19242 0.11871 0.41351
 N320 N 0.15908 0.14529 0.40910
 C321 C 0.13315 0.14338 0.44326
 C322 C 0.15091 0.11402 0.47046
 C323 C 0.18855 0.09925 0.45066
 H324 H 0.13906 0.10520 0.50103
 H325 H 0.21703 0.11450 0.39111
 H326 H 0.15438 0.16398 0.38278
 N327 N 0.60623 0.75332 -0.02627
 N328 N 0.64200 0.72959 -0.02478
 C329 C 0.62975 0.68751 -0.01919
 C330 C 0.58385 0.68462 -0.01705
 C331 C 0.57020 0.72716 -0.02170
 H332 H 0.56344 0.65560 -0.01296
 H333 H 0.60659 0.78710 -0.03002
 H334 H 0.67409 0.74262 -0.02693
 N335 N 0.81098 -0.11520 0.58504
 N336 N 0.84356 -0.14271 0.58939
 C337 C 0.86026 -0.15272 0.55108
 C338 C 0.83738 -0.13042 0.52118
 C339 C 0.80619 -0.10725 0.54383
 H340 H 0.84355 -0.12971 0.48772
 H341 H 0.79341 -0.10146 0.61017
 H342 H 0.85410 -0.15404 0.61828
 N343 N 0.39537 0.25987 1.02517
 N344 N 0.36000 0.28424 1.02540
 C345 C 0.37304 0.32669 1.02421
 C346 C 0.41893 0.32928 1.02333
 C347 C 0.43180 0.28607 1.02384
 H348 H 0.43968 0.35845 1.02144
 H349 H 0.39448 0.22572 1.02567
 H350 H 0.32766 0.27163 1.02673
 N351 N 0.77179 0.05839 0.44902
 N352 N 0.79474 0.09482 0.44280
 C353 C 0.82516 0.10098 0.47393
 C354 C 0.82186 0.06675 0.50101
 C355 C 0.78765 0.04035 0.48387
 H356 H 0.84218 0.06128 0.52846
 H357 H 0.74670 0.04557 0.42882
 H358 H 0.78971 0.11487 0.41748
 N359 N 0.36754 0.72196 0.01078
 N360 N 0.33754 0.69133 0.01840
 C361 C 0.35375 0.65194 0.00736
 C362 C 0.39624 0.65782 -0.00798
 C363 C 0.40373 0.70286 -0.00516
 H364 H 0.41860 0.63293 -0.01910
 H365 H 0.36312 0.75525 0.01738
 H366 H 0.30634 0.69769 0.03060
 N367 N 0.24225 -0.08439 0.50816
 N368 N 0.21998 -0.12171 0.51221
 C369 C 0.17646 -0.11481 0.50687
 C370 C 0.17103 -0.07092 0.49898
 C371 C 0.21354 -0.05274 0.50009
 H372 H 0.14050 -0.05449 0.49305
 H373 H 0.27664 -0.08130 0.51045
 H374 H 0.23471 -0.15110 0.51903
 N375 N 0.63806 0.29492 1.03372
 N376 N 0.66871 0.32634 1.03200
 C377 C 0.64997 0.36259 1.01807
 C378 C 0.60519 0.35379 1.01080
 C379 C 0.59902 0.31047 1.02115
 H380 H 0.58063 0.37569 0.99947
 H381 H 0.64412 0.26361 1.04384
 H382 H 0.70201 0.32242 1.03960
 N383 N 0.58952 0.18408 1.09405
 N384 N 0.59312 0.15633 1.12455
 C385 C 0.55251 0.14723 1.13958
 C386 C 0.52181 0.17070 1.11763
 C387 C 0.54659 0.19344 1.08893
 H388 H 0.48627 0.17031 1.12100
 H389 H 0.61627 0.19590 1.07706
 H390 H 0.62297 0.14295 1.13360
 N391 N 0.06652 0.60195 0.72759
 N392 N 0.07099 0.63406 0.70135
 C393 C 0.04643 0.62413 0.66637
 C394 C 0.02521 0.58376 0.67081
 C395 C 0.03932 0.57044 0.70983
 H396 H 0.00300 0.56615 0.64869
 H397 H 0.08130 0.60257 0.75747
 H398 H 0.08984 0.66268 0.70809
 N399 N 0.41113 0.81626 -0.10434
 N400 N 0.40781 0.84432 -0.13459
 C401 C 0.44881 0.85667 -0.14655
 C402 C 0.47949 0.83482 -0.12297
 C403 C 0.45423 0.80986 -0.09642
 H404 H 0.51517 0.83817 -0.12336
 H405 H 0.38411 0.80244 -0.08909
 H406 H 0.37775 0.85594 -0.14531
 N407 N 0.90083 0.41426 0.28971
 N408 N 0.89400 0.38192 0.31885
 C409 C 0.92970 0.38216 0.34496
 C410 C 0.95914 0.41508 0.33333
 C411 C 0.94051 0.43390 0.29854
 H412 H 0.99144 0.42362 0.34666
 H413 H 0.87896 0.41991 0.26505
 H414 H 0.86629 0.36086 0.31826
 N415 N 0.42010 0.83713 0.05264
 N416 N 0.41946 0.86433 0.08900
 C417 C 0.46133 0.86929 0.10397
 C418 C 0.48909 0.84494 0.07792
 C419 C 0.46216 0.82504 0.04650
 H420 H 0.52436 0.84148 0.08173
 H421 H 0.39196 0.82779 0.03486
 H422 H 0.39115 0.87940 0.10031
 N423 N 0.00630 0.36846 0.71436
 N424 N 0.00006 0.33641 0.68547
 C425 C -0.00423 0.35381 0.64741
 C426 C -0.00018 0.39914 0.65245
 C427 C 0.00634 0.40703 0.69541
 H428 H -0.00231 0.42308 0.62847
 H429 H 0.01057 0.36356 0.74645
 H430 H -0.00209 0.30332 0.69226
 N431 N 0.58010 0.18351 0.93366
 N432 N 0.57985 0.15675 0.89980
 C433 C 0.53758 0.14772 0.88764
 C434 C 0.50978 0.16996 0.91503
 C435 C 0.53803 0.19226 0.94375
 H436 H 0.47402 0.16981 0.91431
 H437 H 0.60883 0.19567 0.94908
 H438 H 0.60837 0.14447 0.88598
 N439 N 1.02331 0.61805 0.28061
 N440 N 1.03056 0.65059 0.30898
 C441 C 1.02270 0.63583 0.34769
 C442 C 1.00982 0.59206 0.34354
 C443 C 1.01041 0.58197 0.30061
 H444 H 1.00042 0.57073 0.36837
 H445 H 1.02638 0.62107 0.24816
 H446 H 1.04080 0.68220 0.30164
 N447 N 1.09357 0.43550 0.22692
 N448 N 1.13032 0.43414 0.20104
 C449 C 1.12891 0.46848 0.17572
 C450 C 1.09185 0.49303 0.18613
 C451 C 1.07043 0.47098 0.21778
 H452 H 1.08059 0.52197 0.17136
 H453 H 1.08654 0.41253 0.24944
 H454 H 1.15227 0.40842 0.20038
 N455 N 0.64206 0.01389 0.53846
 N456 N 0.61076 0.02382 0.56554
 C457 C 0.61641 0.00079 0.60032
 C458 C 0.65298 -0.02519 0.59497
 C459 C 0.66857 -0.01570 0.55532
 H460 H 0.66675 -0.04705 0.61723
 H461 H 0.64467 0.02760 0.50908
 H462 H 0.58570 0.04567 0.55971
 N463 N -0.09999 0.44630 0.78332
 N464 N -0.13557 0.44924 0.80680
 C465 C -0.13732 0.49030 0.82423
 C466 C -0.10122 0.51463 0.81016
 C467 C -0.07833 0.48531 0.78482
 H468 H -0.09083 0.54783 0.81941
 H469 H -0.09026 0.41755 0.76745
 H470 H -0.15680 0.42260 0.81189
 N471 N 0.35469 -0.01931 0.45458
 N472 N 0.38652 -0.02747 0.42751
 C473 C 0.38278 -0.00068 0.39515
 C474 C 0.34700 0.02595 0.40213
 C475 C 0.32979 0.01289 0.44011
 H476 H 0.33462 0.05039 0.38175
 H477 H 0.35025 -0.03629 0.48204
 H478 H 0.41043 -0.05098 0.43160
 N479 N 0.05811 0.42032 0.83633
 N480 N 0.08439 0.41544 0.86924
 C481 C 0.10979 0.45210 0.87581
 C482 C 0.09918 0.48150 0.84550
 C483 C 0.06612 0.46020 0.82114
 H484 H 0.11270 0.51429 0.84241
 H485 H 0.03546 0.39630 0.82468
 H486 H 0.08495 0.38709 0.88637
 N487 N 0.71680 -0.10241 0.39487
 N488 N 0.69195 -0.09889 0.36072
 C489 C 0.66601 -0.06394 0.36636
 C490 C 0.67487 -0.04456 0.40592
 C491 C 0.70718 -0.06984 0.42300
 H492 H 0.65921 -0.01653 0.42058
 H493 H 0.74026 -0.12648 0.39825
 H494 H 0.69346 -0.11993 0.33402
 N495 N 0.97111 0.54977 0.14579
 N496 N 0.94692 0.55810 0.11231
 C497 C 0.90474 0.54509 0.11884
 C498 C 0.90197 0.52766 0.15830
 C499 C 0.94496 0.53086 0.17426
 H500 H 0.87318 0.51278 0.17234
 H501 H 1.00524 0.55549 0.14799
 H502 H 0.95949 0.57177 0.08521
 N503 N 0.27418 0.09424 0.60130
 N504 N 0.29992 0.09262 0.63511
 C505 C 0.32910 0.06045 0.62878
 C506 C 0.32132 0.04081 0.58906
 C507 C 0.28633 0.06314 0.57264
 H508 H 0.33939 0.01471 0.57375
 H509 H 0.24850 0.11610 0.59843
 H510 H 0.29687 0.11310 0.66203
   
