data_POSCAR
  _audit_creation_date              2014-09-24
  _audit_creation_method            'ToBaCCo'
  _symmetry_space_group_name_H-M    'P1'
  _symmetry_Int_Tables_number       1
  _symmetry_cell_setting            triclinic
  loop_
  _symmetry_equiv_pos_as_xyz
 x,y,z
_cell_length_a 23.4921
_cell_length_b 23.5221
_cell_length_c 23.6850
_cell_angle_alpha 89.364400
_cell_angle_beta 90.184700
_cell_angle_gamma 89.941600
loop_
  _atom_site_label
  _atom_site_type_symbol
  _atom_site_fract_x
  _atom_site_fract_y
  _atom_site_fract_z
N1 N 0.69597 0.69391 0.69598
 N2 N 0.80648 0.30564 0.19787
 N3 N 0.30548 0.19331 -0.19660
 N4 N 0.19672 0.80406 0.30437
 N5 N 0.01732 0.18054 0.10664
 N6 N 0.00794 0.14527 0.14911
 C7 C -0.03788 0.16320 0.17803
 C8 C -0.05786 0.21206 0.15213
 C9 C -0.02217 0.22207 0.10706
 H10 H -0.05547 0.14243 0.21501
 H11 H -0.02496 0.25667 0.07671
 Cu12 Cu 0.05733 0.08013 0.16256
 Cu13 Cu 0.07905 0.16929 0.05305
 Cu14 Cu 0.15564 0.04359 0.06732
 N15 N 0.10629 0.01437 0.17464
 N16 N 0.14494 0.00046 0.13713
 C17 C 0.17277 -0.04642 0.15518
 C18 C 0.15033 -0.06234 0.20665
 C19 C 0.10833 -0.02318 0.21799
 H20 H 0.20671 -0.06728 0.13260
 H21 H 0.08143 -0.02225 0.25494
 N22 N 0.17106 0.10070 0.00784
 N23 N 0.14266 0.14904 0.00302
 C24 C 0.16400 0.17932 -0.04065
 C25 C 0.20772 0.14848 -0.06394
 C26 C 0.21134 0.09904 -0.03247
 H27 H 0.14897 0.22064 -0.05457
 H28 H 0.24136 0.06472 -0.03826
 H29 H 0.07603 0.08302 0.06124
 H30 H 0.13226 0.11927 0.10361
 N31 N 0.49034 0.82727 0.60068
 N32 N 0.49540 0.85697 0.64718
 C33 C 0.53912 0.83604 0.67801
 C34 C 0.56232 0.79117 0.64902
 C35 C 0.53068 0.78659 0.60020
 H36 H 0.55314 0.85213 0.71832
 H37 H 0.53655 0.75607 0.56687
 Cu38 Cu 0.44421 0.92003 0.66221
 Cu39 Cu 0.43256 0.84416 0.54377
 Cu40 Cu 0.33210 0.94654 0.57759
 N41 N 0.39346 0.98372 0.67585
 N42 N 0.34908 0.99323 0.64302
 C43 C 0.32061 1.03894 0.66183
 C44 C 0.34877 1.05881 0.70875
 C45 C 0.39471 1.02311 0.71672
 H46 H 0.28252 1.05656 0.64272
 H47 H 0.42644 1.02570 0.74978
 N48 N 0.32378 0.89525 0.51283
 N49 N 0.36254 0.85701 0.49939
 C50 C 0.34499 0.82914 0.45310
 C51 C 0.29306 0.85117 0.43687
 C52 C 0.28064 0.89286 0.47530
 H53 H 0.36799 0.79512 0.43293
 H54 H 0.24304 0.91940 0.47574
 H55 H 0.41576 0.92896 0.56328
 H56 H 0.37513 0.87293 0.60248
 N57 N 0.98635 0.67715 0.39620
 N58 N 0.99448 0.64379 0.35273
 C59 C 1.04052 0.66194 0.32392
 C60 C 1.06193 0.70891 0.35097
 C61 C 1.02684 0.71762 0.39655
 H62 H 1.05711 0.64279 0.28607
 H63 H 1.03033 0.75103 0.42738
 Cu64 Cu 0.94373 0.58034 0.33784
 Cu65 Cu 0.92359 0.66608 0.44866
 Cu66 Cu 0.83362 0.55213 0.42404
 N67 N 0.89359 0.51594 0.32512
 N68 N 0.85058 0.50515 0.35902
 C69 C 0.82275 0.45881 0.34072
 C70 C 0.84992 0.43985 0.29302
 C71 C 0.89459 0.47674 0.28406
 H72 H 0.78552 0.44041 0.36045
 H73 H 0.92524 0.47511 0.25015
 N74 N 0.82349 0.60453 0.48759
 N75 N 0.85778 0.64793 0.49697
 C76 C 0.83950 0.67587 0.54286
 C77 C 0.79173 0.64863 0.56296
 C78 C 0.78251 0.60373 0.52728
 H79 H 0.85912 0.71342 0.56023
 H80 H 0.74828 0.57313 0.52992
 H81 H 0.91620 0.57942 0.43699
 H82 H 0.86936 0.62625 0.39275
 N83 N 0.51665 0.31851 -0.10554
 N84 N 0.50718 0.35354 -0.14827
 C85 C 0.46120 0.33560 -0.17719
 C86 C 0.44122 0.28700 -0.15100
 C87 C 0.47707 0.27714 -0.10579
 H88 H 0.44353 0.35617 -0.21436
 H89 H 0.47435 0.24274 -0.07524
 Cu90 Cu 0.55668 0.41836 -0.16206
 Cu91 Cu 0.57865 0.32981 -0.05191
 Cu92 Cu 0.65555 0.45502 -0.06684
 N93 N 0.60575 0.48385 -0.17442
 N94 N 0.64461 0.49778 -0.13692
 C95 C 0.67243 0.54448 -0.15514
 C96 C 0.64977 0.56025 -0.20671
 C97 C 0.60764 0.52119 -0.21794
 H98 H 0.70647 0.56535 -0.13257
 H99 H 0.58051 0.52024 -0.25489
 N100 N 0.67108 0.39821 -0.00698
 N101 N 0.64254 0.35005 -0.00190
 C102 C 0.66402 0.31992 0.04197
 C103 C 0.70796 0.35066 0.06514
 C104 C 0.71159 0.39990 0.03337
 H105 H 0.64894 0.27875 0.05609
 H106 H 0.74177 0.43407 0.03897
 H107 H 0.57584 0.41605 -0.06069
 H108 H 0.63177 0.37923 -0.10270
 C109 C -0.14679 0.27344 0.18215
 C110 C -0.10618 0.24541 0.16847
 C111 C 0.64992 0.72742 0.67998
 C112 C 0.60991 0.75655 0.66596
 C113 C 1.15047 0.77111 0.32047
 C114 C 1.11015 0.74258 0.33441
 C115 C 0.35222 0.22557 -0.18093
 C116 C 0.39284 0.25364 -0.16730
 C117 C 0.18091 -0.14999 0.27059
 C118 C 0.16706 -0.11001 0.24131
 C119 C 0.68012 0.64785 -0.27056
 C120 C 0.66631 0.60784 -0.24141
 C121 C 0.32043 1.14705 0.77077
 C122 C 0.33338 1.10680 0.74242
 C123 C 0.82148 0.35178 0.23070
 C124 C 0.83447 0.39194 0.25922
 C125 C 0.27181 0.17799 -0.15090
 C126 C 0.24252 0.16460 -0.11120
 C127 C 0.72905 0.67813 0.65032
 C128 C 0.75774 0.66457 0.61053
 C129 C 0.77254 0.32109 0.15217
 C130 C 0.74303 0.33455 0.11245
 C131 C 0.22996 0.82012 0.35000
 C132 C 0.25883 0.83419 0.38965
   
