data_POSCAR
  _audit_creation_date              2014-09-24
  _audit_creation_method            'ToBaCCo'
  _symmetry_space_group_name_H-M    'P1'
  _symmetry_Int_Tables_number       1
  _symmetry_cell_setting            triclinic
  loop_
  _symmetry_equiv_pos_as_xyz
 x,y,z
_cell_length_a 36.8035
_cell_length_b 36.5703
_cell_length_c 37.2358
_cell_angle_alpha 90.755500
_cell_angle_beta 89.598500
_cell_angle_gamma 90.536400
loop_
  _atom_site_label
  _atom_site_type_symbol
  _atom_site_fract_x
  _atom_site_fract_y
  _atom_site_fract_z
C1 C 0.22286 1.08409 0.01362
 C2 C 0.20988 1.06392 0.04286
 C3 C 0.21248 1.02584 0.04104
 C4 C 0.22936 1.00773 0.01170
 C5 C 0.24239 1.02879 -0.01751
 C6 C 0.23934 1.06743 -0.01646
 C7 C 0.23457 0.96718 0.01390
 C8 C 0.23017 0.94342 -0.01611
 C9 C 0.23169 0.90498 -0.01180
 C10 C 0.23679 0.89099 0.02269
 C11 C 0.24062 0.91406 0.05273
 C12 C 0.24141 0.95182 0.04779
 H13 H 0.22254 1.11358 0.01485
 H14 H 0.20158 1.01016 0.06320
 H15 H 0.25593 1.01527 -0.03981
 H16 H 0.22463 0.95488 -0.04209
 H17 H 0.23798 0.86166 0.02611
 H18 H 0.24597 0.96933 0.07104
 C19 C 0.71438 0.57687 0.49261
 C20 C 0.71116 0.55679 0.52438
 C21 C 0.70659 0.51881 0.52233
 C22 C 0.70904 0.49999 0.48906
 C23 C 0.71352 0.52079 0.45757
 C24 C 0.71549 0.55904 0.45898
 C25 C 0.70913 0.45895 0.48730
 C26 C 0.70070 0.44010 0.45504
 C27 C 0.70554 0.40230 0.45164
 C28 C 0.71478 0.38231 0.48212
 C29 C 0.72122 0.39994 0.51517
 C30 C 0.71977 0.43827 0.51719
 H31 H 0.71554 0.60641 0.49437
 H32 H 0.70233 0.50423 0.54709
 H33 H 0.71677 0.50764 0.43161
 H34 H 0.69135 0.45462 0.43182
 H35 H 0.71661 0.35280 0.48035
 H36 H 0.72829 0.45176 0.54168
 C37 C 0.69555 0.97931 1.07463
 C38 C 0.71308 0.94888 1.05896
 C39 C 0.72753 0.95216 1.02428
 C40 C 0.72558 0.98525 1.00556
 C41 C 0.70907 1.01558 1.02235
 C42 C 0.69532 1.01328 1.05756
 C43 C 0.74195 0.98831 0.96903
 C44 C 0.75621 1.02178 0.95676
 C45 C 0.76979 1.02497 0.92174
 C46 C 0.77274 0.99327 0.89992
 C47 C 0.75976 0.95931 0.91226
 C48 C 0.74317 0.95758 0.94605
 H49 H 0.68279 0.97731 1.10079
 H50 H 0.74212 0.92924 1.01268
 H51 H 0.70640 1.04063 1.00766
 H52 H 0.75588 1.04589 0.97392
 H53 H 0.78418 0.99529 0.87319
 H54 H 0.73117 0.93187 0.95435
 C55 C 0.26594 0.47494 0.60730
 C56 C 0.27284 0.44423 0.58560
 C57 C 0.27248 0.44797 0.54805
 C58 C 0.26853 0.48277 0.53209
 C59 C 0.26527 0.51372 0.55535
 C60 C 0.26284 0.50962 0.59279
 C61 C 0.26672 0.48680 0.49171
 C62 C 0.25063 0.51813 0.47650
 C63 C 0.24835 0.52195 0.43917
 C64 C 0.26143 0.49439 0.41656
 C65 C 0.27681 0.46289 0.43029
 C66 C 0.27986 0.45917 0.46778
 H67 H 0.26286 0.47208 0.63608
 H68 H 0.27495 0.42346 0.53176
 H69 H 0.26367 0.54096 0.54475
 H70 H 0.23834 0.53911 0.49312
 H71 H 0.25905 0.49727 0.38770
 H72 H 0.29312 0.43512 0.47767
 C73 C 1.09588 0.26940 -0.01340
 C74 C 1.07803 0.27626 0.01944
 C75 C 1.03982 0.27233 0.02079
 C76 C 1.01981 0.25983 -0.00966
 C77 C 1.03931 0.25192 -0.04174
 C78 C 1.07716 0.25671 -0.04385
 C79 C 0.97895 0.25453 -0.00778
 C80 C 0.95707 0.25463 -0.03921
 C81 C 0.91906 0.24864 -0.03712
 C82 C 0.90304 0.24442 -0.00311
 C83 C 0.92349 0.24581 0.02841
 C84 C 0.96137 0.24920 0.02576
 H85 H 1.12495 0.27404 -0.01528
 H86 H 1.02573 0.27993 0.04518
 H87 H 1.02551 0.24117 -0.06519
 H88 H 0.96938 0.25985 -0.06503
 H89 H 0.87409 0.23910 -0.00123
 H90 H 0.97679 0.24760 0.05027
 C91 C 0.57644 0.76716 0.50538
 C92 C 0.55951 0.76460 0.53900
 C93 C 0.52180 0.76786 0.54142
 C94 C 0.50122 0.77752 0.51114
 C95 C 0.51946 0.78285 0.47809
 C96 C 0.55706 0.77776 0.47511
 C97 C 0.46123 0.78338 0.51446
 C98 C 0.43796 0.77751 0.48483
 C99 C 0.40036 0.78354 0.48817
 C100 C 0.38609 0.79431 0.52152
 C101 C 0.40837 0.79870 0.55140
 C102 C 0.44587 0.79440 0.54765
 H103 H 0.60499 0.76076 0.50297
 H104 H 0.50895 0.76338 0.56721
 H105 H 0.50480 0.79181 0.45474
 H106 H 0.44889 0.76721 0.45973
 H107 H 0.35701 0.79793 0.52470
 H108 H 0.46273 0.80002 0.57077
 C109 C -0.00868 0.75254 -0.08239
 C110 C 0.02203 0.74380 -0.06245
 C111 C 0.01825 0.73921 -0.02555
 C112 C -0.01485 0.74641 -0.00739
 C113 C -0.04586 0.75367 -0.02828
 C114 C -0.04344 0.75482 -0.06619
 C115 C -0.01561 0.74616 0.03304
 C116 C -0.04746 0.73852 0.05351
 C117 C -0.04530 0.73460 0.09129
 C118 C -0.01110 0.73675 0.10763
 C119 C 0.02024 0.74510 0.08800
 C120 C 0.01730 0.75222 0.05159
 H121 H -0.00494 0.75921 -0.11027
 H122 H 0.04191 0.73031 -0.01114
 H123 H -0.07187 0.75818 -0.01533
 H124 H -0.07317 0.73420 0.04022
 H125 H -0.00906 0.73362 0.13645
 H126 H 0.04155 0.76136 0.03769
 C127 C 0.46904 0.21529 0.39541
 C128 C 0.50552 0.22066 0.40412
 C129 C 0.51483 0.23207 0.43902
 C130 C 0.48793 0.23612 0.46596
 C131 C 0.45144 0.22800 0.45680
 C132 C 0.44167 0.21888 0.42156
 C133 C 0.49747 0.25002 0.50290
 C134 C 0.47041 0.26513 0.52557
 C135 C 0.47800 0.27528 0.56099
 C136 C 0.51398 0.27500 0.57279
 C137 C 0.54171 0.26040 0.55105
 C138 C 0.53327 0.24764 0.51637
 H139 H 0.46223 0.20954 0.36767
 H140 H 0.54278 0.23943 0.44427
 H141 H 0.42991 0.22908 0.47661
 H142 H 0.44282 0.26830 0.51659
 H143 H 0.52021 0.28581 0.59925
 H144 H 0.55464 0.23491 0.50075
 C145 C 1.09820 0.00849 0.26280
 C146 C 1.07803 0.04066 0.26625
 C147 C 1.04100 0.03951 0.25765
 C148 C 1.02498 0.00807 0.24202
 C149 C 1.04610 -0.02387 0.23817
 C150 C 1.08262 -0.02379 0.24913
 C151 C 0.98657 0.00970 0.22931
 C152 C 0.96376 -0.02145 0.22994
 C153 C 0.92684 -0.01899 0.22039
 C154 C 0.91306 0.01519 0.21073
 C155 C 0.93523 0.04653 0.20985
 C156 C 0.97198 0.04332 0.21822
 H157 H 1.12679 0.00872 0.26978
 H158 H 1.02433 0.06300 0.26337
 H159 H 1.03484 -0.04821 0.22552
 H160 H 0.97456 -0.04686 0.23939
 H161 H 0.88426 0.01766 0.20565
 H162 H 0.98894 0.06758 0.21656
 C163 C 0.62710 0.51035 0.75311
 C164 C 0.60945 0.54199 0.74236
 C165 C 0.57150 0.54417 0.74640
 C166 C 0.55124 0.51522 0.76221
 C167 C 0.57022 0.48372 0.77313
 C168 C 0.60796 0.48105 0.76802
 C169 C 0.51062 0.51772 0.76704
 C170 C 0.48859 0.48579 0.76913
 C171 C 0.45063 0.48813 0.77327
 C172 C 0.43447 0.52270 0.77361
 C173 C 0.45547 0.55498 0.77182
 C174 C 0.49339 0.55214 0.76907
 H175 H 0.65631 0.50837 0.74957
 H176 H 0.55801 0.56792 0.73612
 H177 H 0.55619 0.46159 0.78646
 H178 H 0.50059 0.45910 0.76609
 H179 H 0.40514 0.52408 0.77446
 H180 H 0.50926 0.57717 0.76870
 C181 C 1.03419 1.13469 0.71068
 C182 C 1.00004 1.11760 0.71254
 C183 C 0.99840 1.07933 0.71626
 C184 C 1.03005 1.05793 0.71469
 C185 C 1.06387 1.07603 0.71110
 C186 C 1.06609 1.11433 0.71111
 C187 C 1.02767 1.01711 0.71788
 C188 C 1.05780 0.99684 0.72936
 C189 C 1.05631 0.95860 0.73104
 C190 C 1.02257 0.94088 0.72576
 C191 C 0.99199 0.96024 0.71469
 C192 C 0.99515 0.99799 0.70968
 H193 H 1.03611 1.16429 0.70963
 H194 H 0.97273 1.06627 0.72196
 H195 H 1.08866 1.06072 0.70817
 H196 H 1.08295 1.01044 0.73660
 H197 H 1.01954 0.91233 0.73209
 H198 H 0.97182 1.01208 0.69937
 C199 C 0.50539 0.60681 0.27733
 C200 C 0.47153 0.59059 0.27019
 C201 C 0.46866 0.55226 0.26823
 C202 C 0.49890 0.53013 0.27529
 C203 C 0.53211 0.54724 0.28425
 C204 C 0.53586 0.58530 0.28450
 C205 C 0.49633 0.48940 0.27243
 C206 C 0.52706 0.46869 0.26281
 C207 C 0.52565 0.43046 0.26170
 C208 C 0.49203 0.41262 0.26711
 C209 C 0.46043 0.43287 0.27475
 C210 C 0.46326 0.47093 0.27894
 H211 H 0.50783 0.63630 0.27657
 H212 H 0.44330 0.53985 0.25985
 H213 H 0.55554 0.53109 0.29095
 H214 H 0.55256 0.48210 0.25634
 H215 H 0.49043 0.38315 0.26509
 H216 H 0.43928 0.48605 0.28679
 O217 O 0.20399 0.17681 0.17810
 O218 O 0.24647 0.14835 0.21735
 O219 O 0.13109 0.22894 0.25520
 O220 O 0.13147 0.27603 0.29269
 O221 O 0.17551 0.28522 0.15868
 O222 O 0.23166 0.31733 0.14950
 O223 O 0.25506 0.28615 0.34286
 O224 O 0.20577 0.24718 0.35000
 O225 O 0.32825 0.22529 0.27560
 O226 O 0.32197 0.19560 0.21497
 O227 O 0.30655 0.33557 0.25438
 O228 O 0.25929 0.36773 0.22635
 O229 O 0.26225 0.33694 0.30891
 O230 O 0.21934 0.36644 0.26427
 O231 O 0.33650 0.28375 0.23817
 O232 O 0.33179 0.24190 0.18896
 O233 O 0.29236 0.22925 0.32546
 O234 O 0.23309 0.19680 0.33545
 O235 O 0.21246 0.22715 0.14361
 O236 O 0.26281 0.27045 0.13693
 O237 O 0.13647 0.28392 0.20618
 O238 O 0.14692 0.32273 0.26305
 O239 O 0.16280 0.17808 0.23912
 O240 O 0.21334 0.14785 0.26168
 Zr241 Zr 0.21620 0.19563 0.23042
 O242 O 0.25990 0.21095 0.26325
 Zr243 Zr 0.17015 0.27129 0.25067
 O244 O 0.21226 0.28945 0.28531
 Zr245 Zr 0.22536 0.26946 0.18024
 O246 O 0.26954 0.28846 0.21114
 Zr247 Zr 0.24147 0.24504 0.30530
 O248 O 0.19666 0.22663 0.27450
 Zr249 Zr 0.29590 0.24367 0.23361
 O250 O 0.25437 0.22450 0.19924
 Zr251 Zr 0.25120 0.31919 0.25573
 O252 O 0.20690 0.30437 0.22168
 O253 O 0.18742 0.23821 0.20835
 O254 O 0.27996 0.27609 0.27754
 C255 C 0.20491 0.19309 0.14770
 C256 C 0.13398 0.19423 0.25028
 C257 C 0.14355 0.28795 0.17244
 C258 C 0.26196 0.32035 0.33922
 C259 C 0.32250 0.22185 0.30936
 C260 C 0.33568 0.31775 0.24669
 H261 H 0.27159 0.18859 0.27203
 H262 H 0.28614 0.30299 0.19585
 H263 H 0.16689 0.22842 0.19402
 H264 H 0.20160 0.30420 0.30510
 H265 H 0.18182 0.23830 0.34142
 H266 H 0.14518 0.27844 0.31534
 H267 H 0.32686 0.26344 0.17404
 H268 H 0.27681 0.24751 0.13807
 H269 H 0.25004 0.17787 0.32652
 H270 H 0.20491 0.15565 0.28585
 H271 H 0.26528 0.36036 0.20139
 H272 H 0.21985 0.33731 0.16331
 H273 H 0.26398 0.15536 0.19829
 H274 H 0.31584 0.17573 0.23180
 H275 H 0.15299 0.33920 0.24295
 H276 H 0.20456 0.36258 0.28620
 O277 O 0.75687 0.86333 0.22122
 O278 O 0.73734 0.88357 0.27725
 O279 O 0.85178 0.79907 0.25083
 O280 O 0.86179 0.74900 0.28241
 O281 O 0.77631 0.76057 0.16940
 O282 O 0.71911 0.73000 0.17320
 O283 O 0.76039 0.72463 0.36604
 O284 O 0.81233 0.76217 0.36333
 O285 O 0.67196 0.79088 0.34109
 O286 O 0.65969 0.83415 0.29182
 O287 O 0.68181 0.69044 0.28952
 O288 O 0.71860 0.66561 0.24164
 O289 O 0.73916 0.68078 0.32750
 O290 O 0.76628 0.66010 0.26740
 O291 O 0.65062 0.74335 0.29739
 O292 O 0.64230 0.79545 0.25670
 O293 O 0.72286 0.78171 0.37391
 O294 O 0.77673 0.81410 0.37229
 O295 O 0.73655 0.82087 0.18068
 O296 O 0.68736 0.77676 0.18154
 O297 O 0.82697 0.74942 0.20195
 O298 O 0.83721 0.70605 0.25209
 O299 O 0.81883 0.85117 0.25544
 O300 O 0.78162 0.87408 0.30697
 Zr301 Zr 0.76577 0.83432 0.26813
 O302 O 0.73405 0.81225 0.30956
 Zr303 Zr 0.81188 0.75770 0.25626
 O304 O 0.78271 0.73233 0.29833
 Zr305 Zr 0.73688 0.77137 0.20935
 O306 O 0.70458 0.74565 0.24879
 Zr307 Zr 0.76364 0.77175 0.33518
 O308 O 0.79747 0.79680 0.29617
 Zr309 Zr 0.68896 0.78468 0.28764
 O310 O 0.71812 0.81103 0.24635
 Zr311 Zr 0.73534 0.70769 0.27754
 O312 O 0.76651 0.72997 0.23460
 O313 O 0.78323 0.79730 0.22902
 O314 O 0.71723 0.74527 0.31589
 C315 C 0.74444 0.85389 0.19043
 C316 C 0.84881 0.83404 0.25060
 C317 C 0.80991 0.75190 0.17198
 C318 C 0.74972 0.69198 0.35873
 C319 C 0.68880 0.78838 0.37097
 C320 C 0.65269 0.70843 0.29657
 H321 H 0.72703 0.83193 0.32665
 H322 H 0.68337 0.73391 0.23712
 H323 H 0.79746 0.80938 0.20980
 H324 H 0.79848 0.71453 0.31028
 H325 H 0.83144 0.77752 0.35206
 H326 H 0.85584 0.74277 0.30753
 H327 H 0.63801 0.77419 0.24053
 H328 H 0.67443 0.79752 0.19299
 H329 H 0.79564 0.82941 0.36085
 H330 H 0.80588 0.86730 0.31590
 H331 H 0.70143 0.67648 0.22459
 H332 H 0.73301 0.70778 0.17889
 H333 H 0.71198 0.87882 0.26968
 H334 H 0.67159 0.84982 0.31021
 H335 H 0.82267 0.69103 0.23506
 H336 H 0.78664 0.66007 0.28460
 O337 O 0.75987 0.14350 0.77272
 O338 O 0.72418 0.13242 0.72774
 O339 O 0.84855 0.20224 0.72069
 O340 O 0.85209 0.25724 0.68859
 O341 O 0.81514 0.23661 0.82507
 O342 O 0.76552 0.26678 0.84961
 O343 O 0.73567 0.30390 0.65609
 O344 O 0.77253 0.26024 0.63062
 O345 O 0.65201 0.24341 0.70674
 O346 O 0.64988 0.19744 0.74863
 O347 O 0.69899 0.33433 0.75963
 O348 O 0.75203 0.34724 0.79092
 O349 O 0.74017 0.34329 0.70351
 O350 O 0.79055 0.34853 0.75184
 O351 O 0.65701 0.28843 0.75809
 O352 O 0.65676 0.23197 0.79652
 O353 O 0.68782 0.25203 0.65747
 O354 O 0.74246 0.21365 0.63505
 O355 O 0.76702 0.17917 0.82276
 O356 O 0.72514 0.22713 0.84561
 O357 O 0.85262 0.24728 0.77749
 O358 O 0.85222 0.29433 0.73124
 O359 O 0.80802 0.15498 0.71953
 O360 O 0.75105 0.15043 0.68145
 Zr361 Zr 0.75754 0.17971 0.73047
 O362 O 0.71629 0.21182 0.70884
 Zr363 Zr 0.81715 0.24822 0.73296
 O364 O 0.77963 0.28279 0.70813
 Zr365 Zr 0.76276 0.23345 0.80290
 O366 O 0.72422 0.27018 0.78259
 Zr367 Zr 0.74146 0.25228 0.67790
 O368 O 0.78303 0.21843 0.69759
 Zr369 Zr 0.68825 0.24084 0.74940
 O370 O 0.72528 0.20351 0.77156
 Zr371 Zr 0.74855 0.30874 0.74818
 O372 O 0.78796 0.27597 0.77352
 O373 O 0.79396 0.20722 0.76400
 O374 O 0.71095 0.28068 0.71631
 C375 C 0.76403 0.14784 0.80653
 C376 C 0.84032 0.16824 0.71670
 C377 C 0.84669 0.24301 0.81129
 C378 C 0.73621 0.33619 0.66975
 C379 C 0.65669 0.24789 0.67298
 C380 C 0.66616 0.32230 0.76158
 H381 H 0.69965 0.19600 0.69467
 H382 H 0.71152 0.28248 0.80279
 H383 H 0.81202 0.19100 0.77505
 H384 H 0.79309 0.30049 0.69310
 H385 H 0.79571 0.27186 0.63803
 H386 H 0.84173 0.24316 0.66814
 H387 H 0.66051 0.25289 0.81323
 H388 H 0.70758 0.20795 0.83793
 H389 H 0.72048 0.19802 0.63706
 H390 H 0.77129 0.15782 0.66538
 H391 H 0.74435 0.33448 0.81298
 H392 H 0.77649 0.29029 0.84206
 H393 H 0.69881 0.14098 0.72712
 H394 H 0.66168 0.17631 0.75994
 H395 H 0.84731 0.30902 0.75323
 H396 H 0.80154 0.35113 0.72767
 O397 O 0.22783 0.83907 0.80285
 O398 O 0.27484 0.85254 0.76390
 O399 O 0.14876 0.78944 0.73006
 O400 O 0.14348 0.74143 0.69506
 O401 O 0.17016 0.74117 0.83340
 O402 O 0.21763 0.70379 0.85483
 O403 O 0.26768 0.69678 0.66175
 O404 O 0.22617 0.74101 0.64410
 O405 O 0.34475 0.74819 0.72640
 O406 O 0.34353 0.78603 0.77937
 O407 O 0.29123 0.65098 0.76340
 O408 O 0.23551 0.63499 0.78611
 O409 O 0.25655 0.65171 0.70194
 O410 O 0.20193 0.63976 0.74439
 O411 O 0.33412 0.69525 0.77223
 O412 O 0.33238 0.74826 0.81679
 O413 O 0.31176 0.75001 0.67502
 O414 O 0.26860 0.78750 0.65512
 O415 O 0.22068 0.79525 0.84515
 O416 O 0.25706 0.74368 0.86295
 O417 O 0.13855 0.73880 0.78113
 O418 O 0.14489 0.69580 0.72891
 O419 O 0.18754 0.83613 0.74427
 O420 O 0.24921 0.84859 0.71532
 Zr421 Zr 0.23708 0.80948 0.75522
 O422 O 0.27939 0.77983 0.73069
 Zr423 Zr 0.17793 0.74221 0.74025
 O424 O 0.21707 0.71074 0.71304
 Zr425 Zr 0.22492 0.74507 0.81616
 O426 O 0.26553 0.71178 0.79272
 Zr427 Zr 0.25762 0.74466 0.69141
 O428 O 0.21523 0.77683 0.71348
 Zr429 Zr 0.30473 0.74473 0.76716
 O430 O 0.26554 0.77854 0.79328
 Zr431 Zr 0.24401 0.67914 0.75085
 O432 O 0.20237 0.70831 0.77803
 O433 O 0.19764 0.77748 0.78007
 O434 O 0.28477 0.71040 0.72655
 C435 C 0.22308 0.82891 0.83533
 C436 C 0.15652 0.82341 0.73398
 C437 C 0.14044 0.73833 0.81549
 C438 C 0.26493 0.66305 0.67028
 C439 C 0.34181 0.75150 0.69227
 C440 C 0.32359 0.66154 0.77083
 H441 H 0.29667 0.79760 0.72010
 H442 H 0.27621 0.69665 0.81167
 H443 H 0.17855 0.79238 0.79189
 H444 H 0.20527 0.69569 0.69411
 H445 H 0.20652 0.75916 0.64673
 H446 H 0.15849 0.73380 0.67421
 H447 H 0.32584 0.72638 0.83086
 H448 H 0.27710 0.76154 0.85942
 H449 H 0.24874 0.80531 0.65788
 H450 H 0.22961 0.84739 0.69728
 H451 H 0.24045 0.64438 0.81063
 H452 H 0.20397 0.68368 0.84286
 H453 H 0.29247 0.84354 0.78162
 H454 H 0.33956 0.80638 0.76266
 H455 H 0.14538 0.68003 0.75031
 H456 H 0.19345 0.64071 0.71927
 O457 O 0.30294 0.34505 0.74748
 O458 O 0.26254 0.34723 0.79978
 O459 O 0.39766 0.29527 0.79179
 O460 O 0.40730 0.24370 0.82429
 O461 O 0.35711 0.25917 0.69169
 O462 O 0.30678 0.21899 0.67406
 O463 O 0.29685 0.17793 0.86349
 O464 O 0.34178 0.22504 0.88237
 O465 O 0.20715 0.23594 0.82911
 O466 O 0.19799 0.28433 0.78561
 O467 O 0.25231 0.15089 0.76400
 O468 O 0.30757 0.14837 0.72358
 O469 O 0.29801 0.14175 0.81346
 O470 O 0.34166 0.13871 0.76469
 O471 O 0.20932 0.19477 0.77071
 O472 O 0.19941 0.25372 0.74112
 O473 O 0.24996 0.22795 0.87195
 O474 O 0.29603 0.26382 0.89250
 O475 O 0.30445 0.30830 0.69769
 O476 O 0.26703 0.25953 0.67806
 O477 O 0.39880 0.25072 0.73567
 O478 O 0.40629 0.20313 0.77850
 O479 O 0.35387 0.33868 0.79575
 O480 O 0.30400 0.34303 0.83776
 Zr481 Zr 0.30467 0.30910 0.79133
 O482 O 0.26989 0.27265 0.81872
 Zr483 Zr 0.36814 0.24597 0.78304
 O484 O 0.33576 0.20613 0.80908
 Zr485 Zr 0.30656 0.25538 0.71868
 O486 O 0.27113 0.21726 0.74258
 Zr487 Zr 0.29979 0.23217 0.84466
 O488 O 0.33509 0.27210 0.82180
 Zr489 Zr 0.23812 0.24337 0.78144
 O490 O 0.27039 0.28254 0.75403
 Zr491 Zr 0.30168 0.17952 0.77157
 O492 O 0.33761 0.21587 0.74484
 O493 O 0.33921 0.28429 0.75441
 O494 O 0.26639 0.20346 0.80902
 C495 C 0.30281 0.33978 0.71323
 C496 C 0.38732 0.32873 0.79506
 C497 C 0.38993 0.25598 0.70292
 C498 C 0.29581 0.14641 0.84756
 C499 C 0.21687 0.23053 0.86177
 C500 C 0.21929 0.16184 0.76389
 H501 H 0.25483 0.28665 0.83605
 H502 H 0.25669 0.20534 0.72338
 H503 H 0.35485 0.30211 0.74165
 H504 H 0.35125 0.18873 0.82192
 H505 H 0.35828 0.24649 0.88036
 H506 H 0.39994 0.22379 0.84060
 H507 H 0.20486 0.23751 0.72034
 H508 H 0.24668 0.27362 0.68866
 H509 H 0.29312 0.28947 0.88517
 H510 H 0.32304 0.33387 0.85394
 H511 H 0.28732 0.15462 0.70752
 H512 H 0.32558 0.20049 0.67873
 H513 H 0.24428 0.34230 0.78088
 H514 H 0.20350 0.29959 0.80705
 H515 H 0.39803 0.18694 0.75861
 H516 H 0.35951 0.14174 0.78426
 O517 O 0.76605 0.66672 0.66263
 O518 O 0.80563 0.65241 0.71333
 O519 O 0.68165 0.72777 0.71722
 O520 O 0.67777 0.77959 0.74946
 O521 O 0.73337 0.76817 0.61855
 O522 O 0.79070 0.79851 0.60682
 O523 O 0.79198 0.81812 0.80076
 O524 O 0.74196 0.77455 0.81187
 O525 O 0.87544 0.74934 0.75984
 O526 O 0.87914 0.70389 0.71068
 O527 O 0.85033 0.84607 0.70644
 O528 O 0.79816 0.86261 0.66507
 O529 O 0.80391 0.85756 0.75536
 O530 O 0.76531 0.87456 0.70734
 O531 O 0.88475 0.79488 0.70871
 O532 O 0.88584 0.73903 0.67076
 O533 O 0.83363 0.76125 0.80359
 O534 O 0.78253 0.73036 0.81838
 O535 O 0.77616 0.70884 0.61911
 O536 O 0.82135 0.75178 0.60596
 O537 O 0.68984 0.77434 0.66191
 O538 O 0.68931 0.82091 0.70951
 O539 O 0.71704 0.67720 0.71430
 O540 O 0.76504 0.65857 0.75216
 Zr541 Zr 0.77043 0.69768 0.71108
 O542 O 0.80905 0.72459 0.74393
 Zr543 Zr 0.71892 0.77156 0.71026
 O544 O 0.75614 0.80214 0.74180
 Zr545 Zr 0.78151 0.75865 0.64660
 O546 O 0.82163 0.78720 0.67557
 Zr547 Zr 0.78505 0.76675 0.77471
 O548 O 0.74520 0.73613 0.74578
 Zr549 Zr 0.84705 0.75164 0.71120
 O550 O 0.81047 0.72181 0.67826
 Zr551 Zr 0.79631 0.82617 0.70877
 O552 O 0.75608 0.79991 0.67702
 O553 O 0.74228 0.73185 0.67730
 O554 O 0.82461 0.79271 0.74356
 C555 C 0.77013 0.67615 0.62959
 C556 C 0.68611 0.69290 0.71770
 C557 C 0.70052 0.77344 0.62898
 C558 C 0.79991 0.85007 0.78860
 C559 C 0.86604 0.75402 0.79283
 C560 C 0.88105 0.82961 0.70674
 H561 H 0.82072 0.70654 0.75955
 H562 H 0.83899 0.79838 0.65847
 H563 H 0.72413 0.71822 0.66274
 H564 H 0.74284 0.82060 0.75623
 H565 H 0.72302 0.75599 0.80613
 H566 H 0.68893 0.79276 0.77002
 H567 H 0.88487 0.75839 0.65250
 H568 H 0.83919 0.73427 0.61532
 H569 H 0.78177 0.70539 0.80802
 H570 H 0.74888 0.66936 0.77076
 H571 H 0.81899 0.85572 0.64955
 H572 H 0.77601 0.82006 0.61370
 H573 H 0.82451 0.65621 0.69464
 H574 H 0.87010 0.68782 0.73001
 H575 H 0.70006 0.83606 0.69025
 H576 H 0.74394 0.87103 0.72319
 O577 O 0.23653 0.65551 0.33920
 O578 O 0.19218 0.63345 0.29834
 O579 O 0.32360 0.68623 0.26713
 O580 O 0.32823 0.72743 0.21840
 O581 O 0.29332 0.75744 0.35431
 O582 O 0.24506 0.79861 0.36498
 O583 O 0.21448 0.76507 0.17266
 O584 O 0.25291 0.71161 0.16552
 O585 O 0.12979 0.72655 0.23972
 O586 O 0.12624 0.70047 0.29877
 O587 O 0.17908 0.82892 0.25760
 O588 O 0.23500 0.84963 0.28797
 O589 O 0.22311 0.81791 0.20442
 O590 O 0.26993 0.83951 0.24788
 O591 O 0.13637 0.78708 0.27431
 O592 O 0.13367 0.74604 0.32816
 O593 O 0.16603 0.71982 0.19039
 O594 O 0.21624 0.67369 0.18101
 O595 O 0.24396 0.70741 0.37282
 O596 O 0.20444 0.76023 0.37774
 O597 O 0.33092 0.74712 0.30661
 O598 O 0.33268 0.77604 0.24863
 O599 O 0.28123 0.64358 0.28293
 O600 O 0.22528 0.62578 0.25359
 Zr601 Zr 0.23233 0.67316 0.28604
 O602 O 0.19309 0.69681 0.25305
 Zr603 Zr 0.29472 0.73535 0.26413
 O604 O 0.25861 0.76122 0.22919
 Zr605 Zr 0.24063 0.74957 0.33460
 O606 O 0.20260 0.77715 0.30299
 Zr607 Zr 0.21935 0.72354 0.21047
 O608 O 0.25865 0.69650 0.24145
 Zr609 Zr 0.16596 0.73866 0.28136
 O610 O 0.20177 0.71146 0.31596
 Zr611 Zr 0.22848 0.80040 0.25802
 O612 O 0.26740 0.77712 0.29247
 O613 O 0.27019 0.70959 0.30752
 O614 O 0.18985 0.76412 0.23711
 C615 C 0.24083 0.67246 0.36935
 C616 C 0.31385 0.65336 0.27471
 C617 C 0.32504 0.75530 0.33980
 C618 C 0.21743 0.79995 0.17502
 C619 C 0.13483 0.72108 0.20605
 C620 C 0.14613 0.81934 0.26473
 H621 H 0.17615 0.67751 0.24452
 H622 H 0.19006 0.79580 0.31782
 H623 H 0.28789 0.69741 0.32317
 H624 H 0.27274 0.77220 0.20933
 H625 H 0.27245 0.73034 0.16481
 H626 H 0.31669 0.70768 0.20393
 H627 H 0.13917 0.77054 0.33840
 H628 H 0.18514 0.74123 0.37643
 H629 H 0.19561 0.65924 0.19065
 H630 H 0.23945 0.62989 0.23128
 H631 H 0.21873 0.84842 0.30918
 H632 H 0.25773 0.81644 0.34939
 H633 H 0.17468 0.64544 0.31491
 H634 H 0.13016 0.67742 0.28516
 H635 H 0.32729 0.79808 0.26337
 H636 H 0.28489 0.83016 0.22765
 O637 O 0.72321 0.30532 0.29913
 O638 O 0.75646 0.33018 0.24927
 O639 O 0.62571 0.26487 0.25312
 O640 O 0.61133 0.22470 0.20507
 O641 O 0.68532 0.20098 0.32538
 O642 O 0.73680 0.16145 0.31801
 O643 O 0.70988 0.19687 0.12623
 O644 O 0.66715 0.24693 0.13327
 O645 O 0.80754 0.23979 0.16728
 O646 O 0.82575 0.26906 0.22119
 O647 O 0.77191 0.13688 0.19470
 O648 O 0.73270 0.11066 0.23625
 O649 O 0.71394 0.14459 0.15823
 O650 O 0.68307 0.11996 0.21491
 O651 O 0.81518 0.18092 0.20285
 O652 O 0.82856 0.22586 0.25485
 O653 O 0.75796 0.24780 0.13228
 O654 O 0.70322 0.28791 0.13942
 O655 O 0.73542 0.25284 0.32887
 O656 O 0.77676 0.20250 0.32086
 O657 O 0.63614 0.20589 0.28916
 O658 O 0.62008 0.17562 0.23227
 O659 O 0.66598 0.31250 0.25494
 O660 O 0.71265 0.33567 0.21438
 Zr661 Zr 0.71725 0.28776 0.24511
 O662 O 0.74767 0.26722 0.20102
 Zr663 Zr 0.65713 0.21978 0.23854
 O664 O 0.68366 0.19731 0.19353
 Zr665 Zr 0.72943 0.21089 0.29028
 O666 O 0.75921 0.18677 0.24784
 Zr667 Zr 0.71287 0.23820 0.16613
 O668 O 0.68181 0.26179 0.20846
 Zr669 Zr 0.78513 0.22788 0.21798
 O670 O 0.75821 0.25219 0.26281
 Zr671 Zr 0.72345 0.16137 0.21138
 O672 O 0.69412 0.18077 0.25661
 O673 O 0.69041 0.24794 0.27437
 O674 O 0.75161 0.20033 0.18143
 C675 C 0.73107 0.28758 0.32767
 C676 C 0.63362 0.29880 0.25738
 C677 C 0.65090 0.20061 0.31983
 C678 C 0.70961 0.16192 0.12883
 C679 C 0.79245 0.24679 0.13718
 C680 C 0.80491 0.14827 0.19413
 H681 H 0.76005 0.28772 0.18879
 H682 H 0.77674 0.16924 0.25764
 H683 H 0.67672 0.25884 0.29475
 H684 H 0.66526 0.18504 0.17824
 H685 H 0.64965 0.22676 0.13759
 H686 H 0.61659 0.24538 0.18888
 H687 H 0.82954 0.20071 0.26425
 H688 H 0.79374 0.22280 0.31520
 H689 H 0.72394 0.30463 0.14428
 H690 H 0.69352 0.33062 0.19638
 H691 H 0.74574 0.11596 0.25886
 H692 H 0.71842 0.14392 0.30860
 H693 H 0.77795 0.31948 0.26087
 H694 H 0.81403 0.29257 0.21589
 H695 H 0.62984 0.15495 0.24601
 H696 H 0.66379 0.12576 0.19755
 C697 C 0.19847 0.08089 0.07530
 C698 C 0.19190 0.11681 0.07877
 C699 C 0.19284 0.13567 0.11386
 C700 C 0.19680 0.17207 0.11484
 H701 H 0.18889 0.13379 0.05548
 H702 H 0.19421 0.11993 0.13827
 H703 H 0.19738 0.06443 0.09933
 H704 H 0.19661 0.18709 0.08991
 C705 C 0.71447 0.57511 0.55992
 C706 C 0.74007 0.60069 0.56535
 C707 C 0.74425 0.62111 0.59949
 C708 C 0.76811 0.64880 0.60057
 H709 H 0.75829 0.60749 0.54334
 H710 H 0.72642 0.61567 0.62214
 H711 H 0.69736 0.56623 0.58201
 H712 H 0.78401 0.65478 0.57667
 C713 C 0.71846 0.91602 0.07747
 C714 C 0.71692 0.91388 0.11327
 C715 C 0.72646 0.88057 0.13247
 C716 C 0.73793 0.88422 0.16619
 H717 H 0.71188 0.93794 0.12966
 H718 H 0.72392 0.85392 0.11961
 H719 H 0.72767 0.89216 0.06247
 H720 H 0.74148 0.91151 0.17755
 C721 C 0.27896 0.40813 0.60242
 C722 C 0.29321 0.40576 0.63542
 C723 C 0.29518 0.37132 0.65528
 C724 C 0.30147 0.37249 0.69072
 H725 H 0.30283 0.43025 0.64912
 H726 H 0.29018 0.34550 0.64148
 H727 H 0.27122 0.38345 0.58786
 H728 H 0.30491 0.39878 0.70416
 C729 C 0.77798 0.06213 0.90806
 C730 C 0.77097 0.07073 0.87412
 C731 C 0.77311 0.10841 0.86033
 C732 C 0.76467 0.11318 0.82597
 H733 H 0.76109 0.04947 0.85602
 H734 H 0.78073 0.13129 0.87754
 H735 H 0.78564 0.08362 0.92693
 H736 H 0.75777 0.08915 0.80986
 C737 C 0.23067 0.55320 0.42210
 C738 C 0.24024 0.58806 0.42836
 C739 C 0.23034 0.61561 0.40161
 C740 C 0.24390 0.64971 0.40167
 H741 H 0.25882 0.59513 0.44987
 H742 H 0.21403 0.60650 0.37897
 H743 H 0.21391 0.54679 0.39895
 H744 H 0.25926 0.66000 0.42443
 C745 C 0.22735 0.87738 0.95870
 C746 C 0.22367 0.88418 0.92374
 C747 C 0.22174 0.85318 0.89773
 C748 C 0.22073 0.85875 0.86241
 H749 H 0.22321 0.91192 0.91406
 H750 H 0.22276 0.82544 0.90759
 H751 H 0.22793 0.84887 0.96644
 H752 H 0.22045 0.88659 0.85275
 C753 C 0.70165 0.38466 0.41572
 C754 C 0.72092 0.35533 0.40576
 C755 C 0.71821 0.33900 0.36945
 C756 C 0.73480 0.30741 0.36206
 H757 H 0.73960 0.34324 0.42445
 H758 H 0.70174 0.35195 0.34931
 H759 H 0.68443 0.39757 0.39617
 H760 H 0.74963 0.29396 0.38314
 C761 C 0.10009 0.28604 0.04919
 C762 C 0.08992 0.28937 0.08394
 C763 C 0.11872 0.29419 0.11148
 C764 C 0.11280 0.29250 0.14713
 H765 H 0.06197 0.28582 0.09243
 H766 H 0.14653 0.29620 0.10183
 H767 H 0.12895 0.28916 0.04364
 H768 H 0.08524 0.29047 0.15738
 C769 C 0.58146 0.76032 0.57179
 C770 C 0.61461 0.77543 0.57388
 C771 C 0.63855 0.77083 0.60471
 C772 C 0.67386 0.77841 0.60063
 H773 H 0.62507 0.79143 0.55172
 H774 H 0.62793 0.76013 0.62972
 H775 H 0.57000 0.74601 0.59458
 H776 H 0.68416 0.78690 0.57463
 C777 C 0.05895 0.74165 0.92115
 C778 C 0.06478 0.73547 0.88611
 C779 C 0.10155 0.73709 0.87018
 C780 C 0.10544 0.73497 0.83453
 H781 H 0.04216 0.72971 0.86844
 H782 H 0.12499 0.74127 0.88726
 H783 H 0.08217 0.74568 0.93858
 H784 H 0.08142 0.73146 0.81806
 C785 C 0.53261 0.21710 0.37497
 C786 C 0.56702 0.20707 0.37985
 C787 C 0.59131 0.20448 0.34849
 C788 C 0.62661 0.19679 0.35118
 H789 H 0.57711 0.20105 0.40636
 H790 H 0.58015 0.21110 0.32251
 H791 H 0.52320 0.22145 0.34781
 H792 H 0.63820 0.19103 0.37716
 C793 C 0.92496 0.72851 0.11455
 C794 C 0.88972 0.73383 0.10773
 C795 C 0.86418 0.73237 0.13863
 C796 C 0.83082 0.74648 0.13822
 H797 H 0.88055 0.74273 0.08173
 H798 H 0.87437 0.72218 0.16383
 H799 H 0.93159 0.72176 0.14206
 H800 H 0.81971 0.75634 0.11331
 C801 C 0.44745 0.28232 0.58613
 C802 C 0.44889 0.27133 0.62017
 C803 C 0.41691 0.27128 0.64400
 C804 C 0.42021 0.25873 0.67730
 H805 H 0.47364 0.25944 0.63021
 H806 H 0.39092 0.28056 0.63428
 H807 H 0.42196 0.29200 0.57556
 H808 H 0.44670 0.25040 0.68663
 C809 C 0.89530 0.24661 0.93317
 C810 C 0.90376 0.24806 0.89802
 C811 C 0.87369 0.24457 0.87171
 C812 C 0.87824 0.24564 0.83596
 H813 H 0.93147 0.25132 0.88866
 H814 H 0.84637 0.24124 0.88233
 H815 H 0.86666 0.24290 0.93951
 H816 H 0.90524 0.24933 0.82473
 C817 C 0.37409 0.77698 0.45882
 C818 C 0.38217 0.77260 0.42394
 C819 C 0.35201 0.76697 0.39864
 C820 C 0.35670 0.76169 0.36331
 H821 H 0.40988 0.77359 0.41411
 H822 H 0.32468 0.76683 0.40972
 H823 H 0.34561 0.77648 0.46663
 H824 H 0.38382 0.76131 0.35179
 C825 C 0.09649 0.07310 0.27589
 C826 C 0.08374 0.10706 0.27144
 C827 C 0.10962 0.13776 0.27297
 C828 C 0.10293 0.17025 0.25845
 H829 H 0.05666 0.11217 0.26179
 H830 H 0.13693 0.13215 0.28212
 H831 H 0.12472 0.07055 0.28372
 H832 H 0.07586 0.17761 0.25008
 C833 C 0.63232 0.57110 0.72610
 C834 C 0.62626 0.60711 0.72899
 C835 C 0.65555 0.63282 0.71820
 C836 C 0.65371 0.66915 0.72315
 H837 H 0.60184 0.61731 0.74189
 H838 H 0.68055 0.62120 0.70772
 H839 H 0.65792 0.56235 0.71434
 H840 H 0.62871 0.68136 0.73281
 C841 C 0.96907 0.13979 0.71198
 C842 C 0.93473 0.12754 0.70942
 C843 C 0.90472 0.15360 0.71104
 C844 C 0.87008 0.14242 0.71042
 H845 H 0.92815 0.09883 0.70630
 H846 H 0.91121 0.18242 0.71449
 H847 H 0.97334 0.16921 0.71308
 H848 H 0.86359 0.11357 0.70738
 C849 C 0.44028 0.61482 0.26376
 C850 C 0.40560 0.60526 0.26988
 C851 C 0.37673 0.63258 0.26650
 C852 C 0.34214 0.62505 0.27516
 H853 H 0.39861 0.57817 0.27926
 H854 H 0.38427 0.65984 0.25787
 H855 H 0.44631 0.64277 0.25613
 H856 H 0.33459 0.59778 0.28372
 C857 C 0.08848 0.93924 0.73775
 C858 C 0.09200 0.90357 0.73008
 C859 C 0.12573 0.88341 0.73619
 C860 C 0.12660 0.84819 0.72652
 H861 H 0.07003 0.88847 0.71747
 H862 H 0.14870 0.89651 0.74931
 H863 H 0.11227 0.95423 0.74704
 H864 H 0.10280 0.83583 0.71407
 C865 C 0.55982 0.41034 0.25418
 C866 C 0.56595 0.37681 0.26644
 C867 C 0.60028 0.35747 0.25891
 C868 C 0.60260 0.32212 0.26684
 H869 H 0.54535 0.36310 0.28239
 H870 H 0.62262 0.37134 0.24552
 H871 H 0.58133 0.42431 0.23960
 H872 H 0.57907 0.30849 0.27846
 C873 C 0.90196 0.95164 0.22200
 C874 C 0.90909 0.91710 0.23120
 C875 C 0.87822 0.89158 0.23503
 C876 C 0.88162 0.85647 0.24390
 H877 H 0.93619 0.90786 0.23704
 H878 H 0.85121 0.90250 0.23135
 H879 H 0.87387 0.95780 0.21583
 H880 H 0.90826 0.84447 0.24654
 C881 C 0.42614 0.45553 0.77552
 C882 C 0.43593 0.42186 0.78547
 C883 C 0.40794 0.39258 0.78809
 C884 C 0.41575 0.35776 0.79577
 H885 H 0.46381 0.41597 0.79219
 H886 H 0.38003 0.39969 0.78246
 H887 H 0.39761 0.46007 0.77011
 H888 H 0.44372 0.35005 0.80011
 C889 C 0.09705 0.24978 0.92167
 C890 C 0.13146 0.23789 0.92095
 C891 C 0.15422 0.23657 0.88795
 C892 C 0.18931 0.22747 0.89068
 H893 H 0.14408 0.23027 0.94594
 H894 H 0.14330 0.24534 0.86256
 H895 H 0.08343 0.25537 0.89666
 H896 H 0.19942 0.21969 0.91677
 C897 C 0.57592 0.78308 0.44029
 C898 C 0.61115 0.79245 0.43847
 C899 C 0.63122 0.79218 0.40436
 C900 C 0.66759 0.79272 0.40424
 H901 H 0.62618 0.79889 0.46268
 H902 H 0.61630 0.78911 0.37948
 H903 H 0.56075 0.77849 0.41576
 H904 H 0.68218 0.79420 0.42943
 C905 C 0.92478 0.75874 0.91299
 C906 C 0.92408 0.75186 0.87738
 C907 C 0.89179 0.75644 0.85466
 C908 C 0.89528 0.75046 0.81921
 H909 H 0.94780 0.74117 0.86378
 H910 H 0.86612 0.76484 0.86639
 H911 H 0.89956 0.76594 0.92642
 H912 H 0.92159 0.74263 0.80842
 C913 C 0.40269 0.21811 0.41167
 C914 C 0.39077 0.20131 0.38190
 C915 C 0.35609 0.21117 0.36549
 C916 C 0.35311 0.20796 0.32991
 H917 H 0.40862 0.18337 0.36678
 H918 H 0.33511 0.22443 0.38139
 H919 H 0.38416 0.23500 0.42724
 H920 H 0.37562 0.19673 0.31448
 C921 C 0.05644 0.74639 0.10503
 C922 C 0.06432 0.72549 0.13301
 C923 C 0.09945 0.72805 0.15119
 C924 C 0.10209 0.71583 0.18460
 H925 H 0.04420 0.70661 0.14359
 H926 H 0.12220 0.74194 0.13846
 H927 H 0.07732 0.76400 0.09372
 H928 H 0.07826 0.70459 0.19795
 C929 C 0.57925 0.25741 0.56500
 C930 C 0.58504 0.25111 0.59978
 C931 C 0.62131 0.25121 0.61627
 C932 C 0.62315 0.24779 0.65189
 H933 H 0.56191 0.24609 0.61728
 H934 H 0.64562 0.25473 0.60005
 H935 H 0.60206 0.26006 0.54663
 H936 H 0.59808 0.24461 0.66712
 C937 C 0.90539 0.24248 0.06417
 C938 C 0.87119 0.25373 0.06994
 C939 C 0.85128 0.24759 0.10391
 C940 C 0.81553 0.25421 0.10555
 H941 H 0.85681 0.26735 0.04873
 H942 H 0.86526 0.23636 0.12673
 H943 H 0.92043 0.23074 0.08605
 H944 H 0.80199 0.26420 0.08188
 C945 C 0.39094 0.80542 0.58647
 C946 C 0.39932 0.78615 0.61550
 C947 C 0.37252 0.78367 0.64474
 C948 C 0.37454 0.75901 0.67080
 H949 H 0.42261 0.76820 0.61524
 H950 H 0.34803 0.79982 0.64265
 H951 H 0.36610 0.82119 0.58662
 H952 H 0.39895 0.74331 0.67484
 C953 C 0.25320 0.09175 0.95753
 C954 C 0.26978 0.08406 0.92624
 C955 C 0.28182 0.11561 0.90429
 C956 C 0.29018 0.11317 0.86941
 H957 H 0.27343 0.05627 0.91664
 H958 H 0.28139 0.14254 0.91685
 H959 H 0.24988 0.12069 0.96356
 H960 H 0.28988 0.08667 0.85605
 C961 C 0.71828 0.57951 0.42484
 C962 C 0.73431 0.61236 0.42263
 C963 C 0.73508 0.63336 0.38903
 C964 C 0.74989 0.66683 0.38925
 H965 H 0.74707 0.62440 0.44614
 H966 H 0.72253 0.62227 0.36494
 H967 H 0.70734 0.56684 0.40069
 H968 H 0.76160 0.67737 0.41402
 C969 C 0.68399 0.04385 0.07786
 C970 C 0.69157 0.07881 0.06992
 C971 C 0.68877 0.10650 0.09872
 C972 C 0.70407 0.13965 0.09617
 H973 H 0.70468 0.08644 0.04502
 H974 H 0.67745 0.09812 0.12436
 H975 H 0.67237 0.03860 0.10422
 H976 H 0.71449 0.14936 0.07069
 C977 C 0.25547 0.54005 0.61837
 C978 C 0.26674 0.57455 0.61426
 C979 C 0.26100 0.60120 0.64384
 C980 C 0.27158 0.63605 0.64126
 H981 H 0.28126 0.58270 0.59021
 H982 H 0.24755 0.59210 0.66819
 H983 H 0.24232 0.53287 0.64352
 H984 H 0.28403 0.64547 0.61654
 C985 C 0.76121 0.92517 0.89042
 C986 C 0.78569 0.91896 0.86451
 C987 C 0.78502 0.88435 0.84381
 C988 C 0.80437 0.88112 0.81359
 H989 H 0.80602 0.93948 0.85804
 H990 H 0.76666 0.86249 0.85177
 H991 H 0.74195 0.90356 0.89691
 H992 H 0.82083 0.90408 0.80468
 C993 C 0.28876 0.43492 0.40374
 C994 C 0.27919 0.39964 0.40559
 C995 C 0.28026 0.37641 0.37269
 C996 C 0.26812 0.34183 0.37264
 H997 H 0.26647 0.38924 0.42979
 H998 H 0.28851 0.38872 0.34754
 H999 H 0.29962 0.44492 0.37851
 H1000 H 0.26061 0.32932 0.39790
 C1001 C 0.24287 0.89925 0.08961
 C1002 C 0.22554 0.86840 0.09890
 C1003 C 0.22770 0.85298 0.13522
 C1004 C 0.21395 0.81960 0.14104
 H1005 H 0.20921 0.85381 0.07920
 H1006 H 0.24172 0.86788 0.15641
 H1007 H 0.25755 0.91487 0.10987
 H1008 H 0.20157 0.80462 0.11888
 C1009 C 0.73078 0.37710 0.54628
 C1010 C 0.72823 0.38741 0.58097
 C1011 C 0.73523 0.36012 0.60880
 C1012 C 0.73199 0.36661 0.64429
 H1013 H 0.71939 0.41452 0.58881
 H1014 H 0.74248 0.33292 0.59947
 H1015 H 0.73853 0.34913 0.54015
 H1016 H 0.72585 0.39380 0.65436
 C1017 C 0.10104 0.13437 0.71315
 C1018 C 0.13024 0.12150 0.72983
 C1019 C 0.16073 0.14633 0.73791
 C1020 C 0.19077 0.13519 0.75428
 H1021 H 0.13054 0.09398 0.74020
 H1022 H 0.15809 0.17494 0.73108
 H1023 H 0.10134 0.16260 0.70452
 H1024 H 0.19482 0.10646 0.75958
 C1025 C 0.57259 0.60144 0.28927
 C1026 C 0.57830 0.63591 0.30016
 C1027 C 0.61473 0.65260 0.29843
 C1028 C 0.61859 0.68857 0.30354
 H1029 H 0.55572 0.65278 0.30868
 H1030 H 0.63777 0.63612 0.29028
 H1031 H 0.59578 0.58460 0.28236
 H1032 H 0.59500 0.70472 0.31079
 C1033 C 0.10669 0.94433 0.24440
 C1034 C 0.09653 0.90975 0.25043
 C1035 C 0.12438 0.88092 0.25041
 C1036 C 0.11735 0.84710 0.26200
 H1037 H 0.06867 0.90325 0.25773
 H1038 H 0.15179 0.88814 0.24207
 H1039 H 0.13522 0.95010 0.23927
 H1040 H 0.08999 0.83979 0.27036
 C1041 C 0.62919 0.44862 0.77810
 C1042 C 0.61781 0.41397 0.77368
 C1043 C 0.64472 0.38431 0.77559
 C1044 C 0.63696 0.34949 0.76675
 H1045 H 0.59032 0.40793 0.76507
 H1046 H 0.67257 0.39185 0.78182
 H1047 H 0.65747 0.45350 0.78491
 H1048 H 0.60917 0.34136 0.76113
 C1049 C 0.91940 0.08341 0.20524
 C1050 C 0.88862 0.08862 0.18720
 C1051 C 0.86678 0.12194 0.19225
 C1052 C 0.83181 0.12087 0.18288
 H1053 H 0.87714 0.06635 0.17136
 H1054 H 0.87766 0.14513 0.20723
 H1055 H 0.93165 0.10619 0.21981
 H1056 H 0.82120 0.09640 0.16972
 C1057 C 0.43824 0.59175 0.77020
 C1058 C 0.40473 0.59827 0.78291
 C1059 C 0.38472 0.63237 0.77588
 C1060 C 0.34855 0.63174 0.77965
 H1061 H 0.39041 0.57710 0.79750
 H1062 H 0.39866 0.65635 0.76567
 H1063 H 0.45304 0.61360 0.75700
 H1064 H 0.33555 0.60636 0.78775
 C1065 C 0.95596 0.94205 0.71028
 C1066 C 0.95219 0.90608 0.70412
 C1067 C 0.91647 0.88758 0.70470
 C1068 C 0.91496 0.85105 0.70446
 H1069 H 0.97592 0.88936 0.69952
 H1070 H 0.89185 0.90354 0.70673
 H1071 H 0.93182 0.95865 0.71305
 H1072 H 0.94009 0.83579 0.70324
 C1073 C 0.42394 0.41548 0.27813
 C1074 C 0.41492 0.38448 0.26084
 C1075 C 0.37779 0.36893 0.26232
 C1076 C 0.37122 0.33647 0.24676
 H1077 H 0.43489 0.37059 0.24424
 H1078 H 0.35628 0.38355 0.27621
 H1079 H 0.40312 0.42995 0.29320
 H1080 H 0.39359 0.32193 0.23413
   
