data_POSCAR
  _audit_creation_date              2014-09-24
  _audit_creation_method            'ToBaCCo'
  _symmetry_space_group_name_H-M    'P1'
  _symmetry_Int_Tables_number       1
  _symmetry_cell_setting            triclinic
  loop_
  _symmetry_equiv_pos_as_xyz
 x,y,z
_cell_length_a 33.8490
_cell_length_b 34.0114
_cell_length_c 33.8595
_cell_angle_alpha 90.035100
_cell_angle_beta 90.001900
_cell_angle_gamma 90.195200
loop_
  _atom_site_label
  _atom_site_type_symbol
  _atom_site_fract_x
  _atom_site_fract_y
  _atom_site_fract_z
Zn1 Zn 0.78203 0.72056 0.77987
 Zn2 Zn 0.78011 0.78336 0.71795
 Zn3 Zn 0.71968 0.71867 0.71843
 Zn4 Zn 0.71838 0.78130 0.78054
 O5 O 0.75006 0.75101 0.74918
 O6 O 0.83338 0.72971 0.77115
 O7 O 0.77143 0.77537 0.66622
 O8 O 0.72848 0.66738 0.72664
 O9 O 0.83208 0.77671 0.72586
 O10 O 0.77516 0.66909 0.77205
 O11 O 0.72792 0.72650 0.66689
 O12 O 0.66683 0.77272 0.77174
 O13 O 0.77120 0.83460 0.72653
 O14 O 0.66794 0.72559 0.72655
 O15 O 0.72571 0.83280 0.77322
 O16 O 0.72665 0.77302 0.83221
 O17 O 0.77361 0.72780 0.83151
 C18 C 0.85103 0.75360 0.74835
 C19 C 0.74956 0.75075 0.64827
 C20 C 0.75220 0.64984 0.74960
 C21 C 0.64908 0.74886 0.74893
 C22 C 0.74815 0.85208 0.75026
 C23 C 0.75006 0.75005 0.85016
 Zn24 Zn 0.21838 0.71835 0.72278
 Zn25 Zn 0.21973 0.78119 0.78478
 Zn26 Zn 0.28162 0.71909 0.78332
 Zn27 Zn 0.28058 0.78174 0.72129
 O28 O 0.25007 0.75013 0.75296
 O29 O 0.16679 0.72683 0.73135
 O30 O 0.22874 0.77323 0.83642
 O31 O 0.27350 0.66784 0.77579
 O32 O 0.16799 0.77381 0.77673
 O33 O 0.22611 0.66682 0.73109
 O34 O 0.27444 0.72682 0.83499
 O35 O 0.33260 0.77405 0.72867
 O36 O 0.22774 0.83239 0.77676
 O37 O 0.33288 0.72684 0.77374
 O38 O 0.27248 0.83328 0.72932
 O39 O 0.27135 0.77328 0.66975
 O40 O 0.22652 0.72559 0.67108
 C41 C 0.14909 0.75077 0.75401
 C42 C 0.25196 0.74982 0.85402
 C43 C 0.24994 0.64893 0.75368
 C44 C 0.35103 0.75020 0.75081
 C45 C 0.24987 0.85122 0.75315
 C46 C 0.24879 0.74903 0.65213
 Zn47 Zn 0.71879 0.21979 0.78441
 Zn48 Zn 0.78095 0.21943 0.72276
 Zn49 Zn 0.71887 0.28244 0.72236
 Zn50 Zn 0.78081 0.28227 0.78476
 O51 O 0.74986 0.25102 0.75350
 O52 O 0.72665 0.16855 0.77667
 O53 O 0.77208 0.22673 0.67119
 O54 O 0.66700 0.27450 0.73064
 O55 O 0.77317 0.16789 0.73107
 O56 O 0.66735 0.22733 0.77576
 O57 O 0.72720 0.27408 0.67069
 O58 O 0.77283 0.33346 0.77677
 O59 O 0.83268 0.22795 0.73064
 O60 O 0.72718 0.33400 0.73021
 O61 O 0.83242 0.27496 0.77601
 O62 O 0.77255 0.27438 0.83654
 O63 O 0.72691 0.22758 0.83596
 C64 C 0.74975 0.14982 0.75406
 C65 C 0.74949 0.25005 0.65265
 C66 C 0.64887 0.25061 0.75313
 C67 C 0.75026 0.35212 0.75356
 C68 C 0.85085 0.25185 0.75309
 C69 C 0.74966 0.25081 0.85456
 Zn70 Zn 0.28068 0.21795 0.71946
 Zn71 Zn 0.21730 0.21948 0.77981
 Zn72 Zn 0.28105 0.28061 0.78157
 Zn73 Zn 0.22041 0.28228 0.71790
 O74 O 0.24985 0.25012 0.74968
 O75 O 0.27163 0.16665 0.72746
 O76 O 0.22500 0.22666 0.83157
 O77 O 0.33276 0.27227 0.77366
 O78 O 0.22411 0.16801 0.77200
 O79 O 0.33226 0.22509 0.72850
 O80 O 0.27190 0.27224 0.83311
 O81 O 0.22934 0.33353 0.72651
 O82 O 0.16610 0.22858 0.77041
 O83 O 0.27393 0.33209 0.77407
 O84 O 0.16832 0.27556 0.72512
 O85 O 0.22981 0.27421 0.66631
 O86 O 0.27337 0.22571 0.66781
 C87 C 0.24746 0.14894 0.74993
 C88 C 0.24824 0.24905 0.85064
 C89 C 0.35081 0.24843 0.75119
 C90 C 0.25195 0.35119 0.75064
 C91 C 0.14891 0.25251 0.74742
 C92 C 0.25201 0.24973 0.64876
 Zn93 Zn 0.71960 0.71825 0.21935
 Zn94 Zn 0.77989 0.78274 0.21678
 Zn95 Zn 0.71866 0.78221 0.28011
 Zn96 Zn 0.78235 0.72181 0.28058
 O97 O 0.75012 0.75128 0.24918
 O98 O 0.72684 0.72521 0.16742
 O99 O 0.77192 0.83437 0.22500
 O100 O 0.66705 0.77361 0.27161
 O101 O 0.76999 0.77429 0.16548
 O102 O 0.66789 0.72490 0.22812
 O103 O 0.72647 0.83343 0.27181
 O104 O 0.77343 0.72941 0.33193
 O105 O 0.83190 0.77504 0.22328
 O106 O 0.72674 0.77482 0.33204
 O107 O 0.83356 0.73213 0.27250
 O108 O 0.77645 0.66995 0.27322
 O109 O 0.72922 0.66731 0.22834
 C110 C 0.74795 0.74942 0.14815
 C111 C 0.74910 0.85229 0.24866
 C112 C 0.64916 0.74889 0.24985
 C113 C 0.74992 0.75187 0.35029
 C114 C 0.85103 0.75400 0.24760
 C115 C 0.75345 0.65024 0.25114
 Zn116 Zn 0.28107 0.78119 0.22277
 Zn117 Zn 0.21955 0.71770 0.22091
 Zn118 Zn 0.28091 0.71724 0.28347
 Zn119 Zn 0.21840 0.77868 0.28478
 O120 O 0.24998 0.74876 0.25295
 O121 O 0.27374 0.77383 0.17068
 O122 O 0.22643 0.66590 0.22895
 O123 O 0.33241 0.72508 0.27492
 O124 O 0.22972 0.72548 0.16983
 O125 O 0.33290 0.77380 0.23150
 O126 O 0.27261 0.66617 0.27496
 O127 O 0.22710 0.77049 0.33634
 O128 O 0.16787 0.72675 0.22710
 O129 O 0.27296 0.72425 0.33525
 O130 O 0.16684 0.76967 0.27638
 O131 O 0.22537 0.83039 0.27733
 O132 O 0.27190 0.83230 0.23160
 C133 C 0.25223 0.74947 0.15197
 C134 C 0.24948 0.64763 0.25206
 C135 C 0.35097 0.74926 0.25317
 C136 C 0.25020 0.74712 0.35411
 C137 C 0.14906 0.74835 0.25117
 C138 C 0.24815 0.84972 0.25469
 Zn139 Zn 0.71947 0.28338 0.22256
 Zn140 Zn 0.78149 0.22060 0.22232
 Zn141 Zn 0.78040 0.28160 0.28617
 Zn142 Zn 0.71841 0.21942 0.28327
 O143 O 0.74994 0.25129 0.25351
 O144 O 0.72808 0.27590 0.17070
 O145 O 0.83304 0.22995 0.23023
 O146 O 0.77365 0.33320 0.27835
 O147 O 0.77271 0.22839 0.17096
 O148 O 0.72831 0.33463 0.23144
 O149 O 0.83209 0.27290 0.27948
 O150 O 0.72505 0.22638 0.33526
 O151 O 0.77437 0.16869 0.23000
 O152 O 0.77033 0.27343 0.33745
 O153 O 0.72706 0.16849 0.27484
 O154 O 0.66714 0.22675 0.27351
 O155 O 0.66744 0.27549 0.23009
 C156 C 0.75032 0.25193 0.15253
 C157 C 0.85087 0.25163 0.25509
 C158 C 0.75148 0.35230 0.25506
 C159 C 0.74711 0.24963 0.35467
 C160 C 0.75075 0.15018 0.25248
 C161 C 0.64898 0.25075 0.25135
 Zn162 Zn 0.21900 0.27985 0.21810
 Zn163 Zn 0.27981 0.21605 0.21912
 Zn164 Zn 0.28195 0.28003 0.27986
 Zn165 Zn 0.21876 0.21889 0.28193
 O166 O 0.24988 0.24875 0.24970
 O167 O 0.22754 0.27140 0.16653
 O168 O 0.33172 0.22322 0.22670
 O169 O 0.27381 0.33111 0.27161
 O170 O 0.27130 0.22309 0.16741
 O171 O 0.22721 0.33159 0.22594
 O172 O 0.33333 0.27192 0.27018
 O173 O 0.22906 0.22644 0.33300
 O174 O 0.27052 0.16496 0.22818
 O175 O 0.27516 0.27273 0.33201
 O176 O 0.22441 0.16714 0.27421
 O177 O 0.16743 0.22895 0.27556
 O178 O 0.16712 0.27185 0.22631
 C179 C 0.24948 0.24695 0.14867
 C180 C 0.35084 0.24739 0.24803
 C181 C 0.25062 0.34974 0.24897
 C182 C 0.25269 0.24937 0.35081
 C183 C 0.24684 0.14766 0.25151
 C184 C 0.14898 0.25076 0.25146
 C185 C -0.02200 0.75648 0.74963
 C186 C -0.04247 0.72015 0.75103
 C187 C -0.08395 0.71951 0.75140
 C188 C -0.10545 0.75451 0.74812
 C189 C -0.08519 0.79029 0.74447
 C190 C -0.04395 0.79141 0.74561
 C191 C 0.02223 0.75601 0.75143
 C192 C 0.04509 0.79045 0.75578
 C193 C 0.08625 0.78847 0.75724
 C194 C 0.10560 0.75230 0.75360
 C195 C 0.08320 0.71777 0.74981
 C196 C 0.04173 0.71927 0.74988
 C197 C -0.02145 0.68474 0.75112
 C198 C 0.01973 0.68431 0.74948
 H199 H -0.03710 0.65689 0.75164
 H200 H 0.03460 0.65615 0.74882
 H201 H -0.09958 0.69167 0.75319
 H202 H -0.10136 0.81757 0.74149
 H203 H 0.10310 0.81541 0.76054
 H204 H 0.09810 0.68964 0.74797
 H205 H -0.02983 0.81975 0.74275
 H206 H 0.03173 0.81905 0.75872
 C207 C 0.74603 -0.02113 0.75468
 C208 C 0.77178 -0.04074 0.72833
 C209 C 0.77229 -0.08204 0.72688
 C210 C 0.74742 -0.10438 0.75143
 C211 C 0.72189 -0.08481 0.77743
 C212 C 0.72113 -0.04384 0.77909
 C213 C 0.74643 0.02297 0.75539
 C214 C 0.72202 0.04519 0.78059
 C215 C 0.72335 0.08617 0.78008
 C216 C 0.74903 0.10626 0.75451
 C217 C 0.77361 0.08442 0.72937
 C218 C 0.77249 0.04310 0.72962
 C219 C 0.79688 -0.01907 0.70360
 C220 C 0.79722 0.02192 0.70422
 H221 H 0.81661 -0.03405 0.68341
 H222 H 0.81718 0.03729 0.68448
 H223 H 0.79218 -0.09676 0.70664
 H224 H 0.70235 -0.10120 0.79672
 H225 H 0.70404 0.10216 0.79984
 H226 H 0.79360 0.09955 0.70945
 H227 H 0.70084 -0.03069 0.79972
 H228 H 0.70161 0.03163 0.80091
 C229 C 0.74864 0.74585 -0.02297
 C230 C 0.74573 0.78234 -0.04286
 C231 C 0.74514 0.78345 -0.08434
 C232 C 0.74974 0.74885 -0.10636
 C233 C 0.75466 0.71301 -0.08665
 C234 C 0.75372 0.71136 -0.04547
 C235 C 0.74750 0.74573 0.02126
 C236 C 0.74487 0.71088 0.04362
 C237 C 0.74433 0.71230 0.08483
 C238 C 0.74717 0.74834 0.10467
 C239 C 0.74906 0.78327 0.08277
 C240 C 0.74810 0.78227 0.04130
 C241 C 0.74458 0.81746 -0.02127
 C242 C 0.74680 0.81747 0.01988
 H243 H 0.74287 0.84545 -0.03645
 H244 H 0.74670 0.84546 0.03520
 H245 H 0.74234 0.81136 -0.09955
 H246 H 0.75864 0.68604 -0.10321
 H247 H 0.74244 0.68505 0.10129
 H248 H 0.75023 0.81127 0.09808
 H249 H 0.75770 0.68300 -0.03183
 H250 H 0.74266 0.68234 0.02987
 C251 C 0.52213 0.74566 0.74807
 C252 C 0.54240 0.78205 0.75059
 C253 C 0.58388 0.78284 0.75189
 C254 C 0.60557 0.74796 0.74848
 C255 C 0.58552 0.71217 0.74386
 C256 C 0.54430 0.71088 0.74403
 C257 C 0.47789 0.74588 0.74881
 C258 C 0.45519 0.71123 0.75196
 C259 C 0.41403 0.71294 0.75284
 C260 C 0.39450 0.74904 0.74977
 C261 C 0.41670 0.78379 0.74690
 C262 C 0.45820 0.78253 0.74758
 C263 C 0.52118 0.81735 0.75081
 C264 C 0.48002 0.81760 0.74830
 H265 H 0.53667 0.84526 0.75217
 H266 H 0.46501 0.84569 0.74787
 H267 H 0.59937 0.81070 0.75439
 H268 H 0.60182 0.68498 0.74073
 H269 H 0.39733 0.68583 0.75549
 H270 H 0.40163 0.81185 0.74555
 H271 H 0.53041 0.68253 0.74036
 H272 H 0.46863 0.68264 0.75458
 C273 C 0.24589 -0.02197 0.75432
 C274 C 0.27213 -0.04184 0.72864
 C275 C 0.27341 -0.08315 0.72835
 C276 C 0.24892 -0.10523 0.75349
 C277 C 0.22313 -0.08538 0.77903
 C278 C 0.22156 -0.04443 0.77950
 C279 C 0.24528 0.02212 0.75364
 C280 C 0.21998 0.04456 0.77775
 C281 C 0.22069 0.08554 0.77625
 C282 C 0.24658 0.10539 0.75073
 C283 C 0.27176 0.08331 0.72638
 C284 C 0.27126 0.04201 0.72761
 C285 C 0.29695 -0.02039 0.70344
 C286 C 0.29659 0.02061 0.70301
 H287 H 0.31708 -0.03554 0.68379
 H288 H 0.31646 0.03580 0.68303
 H289 H 0.29354 -0.09808 0.70851
 H290 H 0.20388 -0.10156 0.79880
 H291 H 0.20089 0.10172 0.79536
 H292 H 0.29188 0.09825 0.70644
 H293 H 0.20111 -0.03108 0.79984
 H294 H 0.19940 0.03119 0.79802
 C295 C 0.25400 0.74613 -0.01911
 C296 C 0.25047 0.78256 -0.03899
 C297 C 0.24877 0.78356 -0.08046
 C298 C 0.25274 0.74888 -0.10249
 C299 C 0.25830 0.71312 -0.08281
 C300 C 0.25857 0.71160 -0.04164
 C301 C 0.25369 0.74605 0.02511
 C302 C 0.25156 0.71118 0.04746
 C303 C 0.25097 0.71259 0.08862
 C304 C 0.25331 0.74863 0.10851
 C305 C 0.25523 0.78360 0.08667
 C306 C 0.25425 0.78259 0.04517
 C307 C 0.24966 0.81771 -0.01740
 C308 C 0.25253 0.81777 0.02373
 H309 H 0.24752 0.84567 -0.03257
 H310 H 0.25245 0.84577 0.03903
 H311 H 0.24551 0.81142 -0.09565
 H312 H 0.26186 0.68609 -0.09937
 H313 H 0.24904 0.68531 0.10504
 H314 H 0.25599 0.81158 0.10203
 H315 H 0.26300 0.68327 -0.02809
 H316 H 0.24949 0.68261 0.03375
 C317 C -0.02224 0.25619 0.74989
 C318 C -0.04228 0.21959 0.74855
 C319 C -0.08377 0.21841 0.74860
 C320 C -0.10565 0.25313 0.75232
 C321 C -0.08578 0.28917 0.75571
 C322 C -0.04459 0.29082 0.75411
 C323 C 0.02199 0.25629 0.74809
 C324 C 0.04446 0.29102 0.74394
 C325 C 0.08568 0.28959 0.74293
 C326 C 0.10542 0.25367 0.74683
 C327 C 0.08340 0.21885 0.75018
 C328 C 0.04193 0.21981 0.74970
 C329 C -0.02080 0.18446 0.74830
 C330 C 0.02038 0.18457 0.74994
 H331 H -0.03609 0.15641 0.74778
 H332 H 0.03562 0.15660 0.75060
 H333 H -0.09908 0.19039 0.74697
 H334 H -0.10223 0.31625 0.75896
 H335 H 0.10224 0.31673 0.73991
 H336 H 0.09862 0.19091 0.75218
 H337 H -0.03081 0.31934 0.75688
 H338 H 0.03076 0.31946 0.74092
 C339 C 0.75453 0.52306 0.75366
 C340 C 0.72852 0.54266 0.72757
 C341 C 0.72796 0.58396 0.72620
 C342 C 0.75307 0.60630 0.75053
 C343 C 0.77894 0.58673 0.77617
 C344 C 0.77973 0.54577 0.77777
 C345 C 0.75404 0.47896 0.75443
 C346 C 0.77852 0.45677 0.77955
 C347 C 0.77705 0.41580 0.77918
 C348 C 0.75118 0.39568 0.75379
 C349 C 0.72656 0.41749 0.72868
 C350 C 0.72778 0.45881 0.72885
 C351 C 0.70321 0.52098 0.70304
 C352 C 0.70288 0.47998 0.70363
 H353 H 0.68331 0.53594 0.68303
 H354 H 0.68275 0.46460 0.68405
 H355 H 0.70784 0.59868 0.70621
 H356 H 0.79869 0.60312 0.79527
 H357 H 0.79640 0.39983 0.79890
 H358 H 0.70640 0.40234 0.70894
 H359 H 0.80028 0.53263 0.79813
 H360 H 0.79904 0.47034 0.79977
 C361 C 0.74931 0.24768 -0.01855
 C362 C 0.75187 0.28408 -0.03865
 C363 C 0.75312 0.28491 -0.08013
 C364 C 0.74957 0.25002 -0.10195
 C365 C 0.74501 0.21422 -0.08204
 C366 C 0.74525 0.21291 -0.04086
 C367 C 0.74988 0.24785 0.02567
 C368 C 0.75289 0.21318 0.04821
 C369 C 0.75335 0.21482 0.08936
 C370 C 0.75003 0.25089 0.10905
 C371 C 0.74743 0.28567 0.08702
 C372 C 0.74851 0.28447 0.04553
 C373 C 0.75206 0.31937 -0.01725
 C374 C 0.74938 0.31957 0.02389
 H375 H 0.75348 0.34729 -0.03259
 H376 H 0.74886 0.34765 0.03903
 H377 H 0.75560 0.31277 -0.09551
 H378 H 0.74179 0.18703 -0.09844
 H379 H 0.75580 0.18770 0.10593
 H380 H 0.74590 0.31370 0.10222
 H381 H 0.74155 0.18454 -0.02711
 H382 H 0.75565 0.18462 0.03464
 C383 C 0.52198 0.24593 0.75238
 C384 C 0.54180 0.28262 0.75060
 C385 C 0.58330 0.28399 0.74966
 C386 C 0.60538 0.24933 0.75278
 C387 C 0.58573 0.21322 0.75652
 C388 C 0.54456 0.21140 0.75593
 C389 C 0.47774 0.24557 0.75162
 C390 C 0.45545 0.21068 0.74794
 C391 C 0.41425 0.21185 0.74746
 C392 C 0.39431 0.24765 0.75142
 C393 C 0.41611 0.28263 0.75461
 C394 C 0.45760 0.28193 0.75358
 C395 C 0.52011 0.31764 0.75090
 C396 C 0.47896 0.31730 0.75340
 H397 H 0.53523 0.34576 0.75007
 H398 H 0.46358 0.34518 0.75436
 H399 H 0.59846 0.31206 0.74780
 H400 H 0.60234 0.18619 0.75937
 H401 H 0.39786 0.18459 0.74451
 H402 H 0.40071 0.31047 0.75661
 H403 H 0.53101 0.18281 0.75900
 H404 H 0.46925 0.18232 0.74472
 C405 C 0.25338 0.52211 0.75537
 C406 C 0.22729 0.54196 0.72954
 C407 C 0.22608 0.58327 0.72920
 C408 C 0.25065 0.60538 0.75427
 C409 C 0.27638 0.58556 0.77987
 C410 C 0.27778 0.54459 0.78049
 C411 C 0.25388 0.47801 0.75477
 C412 C 0.27873 0.45557 0.77931
 C413 C 0.27805 0.41459 0.77774
 C414 C 0.25265 0.39474 0.75170
 C415 C 0.22782 0.41682 0.72702
 C416 C 0.22823 0.45812 0.72839
 C417 C 0.20265 0.52051 0.70416
 C418 C 0.20311 0.47951 0.70359
 H419 H 0.18267 0.53565 0.68436
 H420 H 0.18346 0.46432 0.68339
 H421 H 0.20608 0.59819 0.70924
 H422 H 0.29569 0.60176 0.79958
 H423 H 0.29755 0.39840 0.79714
 H424 H 0.20801 0.40189 0.70676
 H425 H 0.29822 0.53126 0.80083
 H426 H 0.29892 0.46894 0.79999
 C427 C 0.24813 0.24427 -0.02249
 C428 C 0.25126 0.28087 -0.04216
 C429 C 0.25228 0.28220 -0.08363
 C430 C 0.24792 0.24768 -0.10588
 C431 C 0.24273 0.21171 -0.08639
 C432 C 0.24321 0.20987 -0.04522
 C433 C 0.24902 0.24390 0.02175
 C434 C 0.25153 0.20894 0.04392
 C435 C 0.25218 0.21014 0.08513
 C436 C 0.24951 0.24607 0.10518
 C437 C 0.24753 0.28110 0.08348
 C438 C 0.24844 0.28032 0.04200
 C439 C 0.25229 0.31588 -0.02037
 C440 C 0.24984 0.31565 0.02077
 H441 H 0.25414 0.34396 -0.03538
 H442 H 0.24994 0.34356 0.03624
 H443 H 0.25529 0.31020 -0.09866
 H444 H 0.23892 0.18480 -0.10313
 H445 H 0.25416 0.18283 0.10145
 H446 H 0.24651 0.30901 0.09895
 H447 H 0.23907 0.18141 -0.03177
 H448 H 0.25369 0.18049 0.03002
 C449 C -0.02200 0.75335 0.24502
 C450 C -0.04242 0.75191 0.28147
 C451 C -0.08389 0.75153 0.28204
 C452 C -0.10545 0.75469 0.24684
 C453 C -0.08522 0.75838 0.21094
 C454 C -0.04399 0.75736 0.20990
 C455 C 0.02221 0.75148 0.24557
 C456 C 0.04500 0.74731 0.21100
 C457 C 0.08616 0.74570 0.21306
 C458 C 0.10557 0.74898 0.24946
 C459 C 0.08323 0.75261 0.28412
 C460 C 0.04176 0.75276 0.28252
 C461 C -0.02135 0.75167 0.31709
 C462 C 0.01983 0.75312 0.31760
 H463 H -0.03696 0.75111 0.34503
 H464 H 0.03475 0.75361 0.34592
 H465 H -0.09947 0.74966 0.30997
 H466 H -0.10140 0.76124 0.18348
 H467 H 0.10294 0.74254 0.18600
 H468 H 0.09815 0.75420 0.31243
 H469 H -0.02992 0.76022 0.18146
 H470 H 0.03161 0.74463 0.18221
 C471 C 0.74740 -0.02084 0.25279
 C472 C 0.77315 -0.04051 0.22647
 C473 C 0.77359 -0.08185 0.22505
 C474 C 0.74864 -0.10412 0.24961
 C475 C 0.72314 -0.08443 0.27555
 C476 C 0.72246 -0.04349 0.27718
 C477 C 0.74782 0.02326 0.25351
 C478 C 0.72336 0.04542 0.27869
 C479 C 0.72464 0.08638 0.27822
 C480 C 0.75031 0.10658 0.25273
 C481 C 0.77498 0.08481 0.22758
 C482 C 0.77390 0.04344 0.22779
 C483 C 0.79829 -0.01881 0.20178
 C484 C 0.79864 0.02222 0.20242
 H485 H 0.81803 -0.03379 0.18161
 H486 H 0.81863 0.03759 0.18270
 H487 H 0.79346 -0.09666 0.20485
 H488 H 0.70353 -0.10072 0.29486
 H489 H 0.70526 0.10227 0.29801
 H490 H 0.79496 0.10001 0.20771
 H491 H 0.70216 -0.03033 0.29779
 H492 H 0.70294 0.03186 0.29898
 C493 C 0.74898 0.74758 0.52137
 C494 C 0.75000 0.78406 0.54150
 C495 C 0.75133 0.78495 0.58298
 C496 C 0.74937 0.74995 0.60477
 C497 C 0.74631 0.71398 0.58483
 C498 C 0.74649 0.71268 0.54365
 C499 C 0.74947 0.74777 0.47715
 C500 C 0.75394 0.71326 0.45457
 C501 C 0.75434 0.71492 0.41342
 C502 C 0.74950 0.75080 0.39377
 C503 C 0.74539 0.78543 0.41584
 C504 C 0.74651 0.78429 0.45733
 C505 C 0.74864 0.81931 0.52014
 C506 C 0.74589 0.81939 0.47901
 H507 H 0.74887 0.84727 0.53551
 H508 H 0.74415 0.84741 0.46390
 H509 H 0.75264 0.81289 0.59838
 H510 H 0.74433 0.68669 0.60121
 H511 H 0.75798 0.68792 0.39682
 H512 H 0.74268 0.81337 0.40067
 H513 H 0.74400 0.68417 0.52988
 H514 H 0.75793 0.68484 0.46810
 C515 C 0.52217 0.74523 0.25062
 C516 C 0.54234 0.78172 0.25238
 C517 C 0.58384 0.78267 0.25312
 C518 C 0.60563 0.74782 0.24992
 C519 C 0.58563 0.71190 0.24613
 C520 C 0.54442 0.71048 0.24684
 C521 C 0.47792 0.74533 0.25176
 C522 C 0.45533 0.71066 0.25545
 C523 C 0.41416 0.71224 0.25634
 C524 C 0.39449 0.74825 0.25282
 C525 C 0.41661 0.78303 0.24961
 C526 C 0.45812 0.78190 0.25019
 C527 C 0.52101 0.81695 0.25238
 C528 C 0.47983 0.81704 0.25028
 H529 H 0.53642 0.84493 0.25320
 H530 H 0.46473 0.84508 0.24959
 H531 H 0.59924 0.81062 0.25503
 H532 H 0.60198 0.68472 0.24321
 H533 H 0.39756 0.68510 0.25921
 H534 H 0.40147 0.81103 0.24787
 H535 H 0.53058 0.68202 0.24378
 H536 H 0.46887 0.68214 0.25834
 C537 C 0.24406 -0.02337 0.25612
 C538 C 0.27029 -0.04330 0.23047
 C539 C 0.27151 -0.08458 0.23019
 C540 C 0.24691 -0.10670 0.25519
 C541 C 0.22098 -0.08686 0.28059
 C542 C 0.21951 -0.04584 0.28112
 C543 C 0.24372 0.02077 0.25549
 C544 C 0.21876 0.04340 0.27979
 C545 C 0.21974 0.08442 0.27827
 C546 C 0.24557 0.10408 0.25251
 C547 C 0.27042 0.08180 0.22804
 C548 C 0.26970 0.04051 0.22935
 C549 C 0.29517 -0.02197 0.20525
 C550 C 0.29489 0.01901 0.20471
 H551 H 0.31525 -0.03720 0.18560
 H552 H 0.31478 0.03410 0.18468
 H553 H 0.29170 -0.09948 0.21038
 H554 H 0.20163 -0.10308 0.30023
 H555 H 0.20020 0.10078 0.29750
 H556 H 0.29054 0.09656 0.20797
 H557 H 0.19896 -0.03242 0.30132
 H558 H 0.19829 0.03012 0.30024
 C559 C 0.24918 0.74432 0.52526
 C560 C 0.25051 0.78101 0.54500
 C561 C 0.25140 0.78236 0.58647
 C562 C 0.24866 0.74767 0.60865
 C563 C 0.24524 0.71151 0.58909
 C564 C 0.24589 0.70972 0.54792
 C565 C 0.25012 0.74403 0.48103
 C566 C 0.25433 0.70925 0.45879
 C567 C 0.25488 0.71050 0.41759
 C568 C 0.25044 0.74625 0.39760
 C569 C 0.24680 0.78113 0.41936
 C570 C 0.24777 0.78038 0.46084
 C571 C 0.24987 0.81605 0.52327
 C572 C 0.24747 0.81572 0.48213
 H573 H 0.25035 0.84417 0.53834
 H574 H 0.24621 0.84360 0.46671
 H575 H 0.25303 0.81046 0.60156
 H576 H 0.24270 0.68445 0.60578
 H577 H 0.25815 0.68331 0.40123
 H578 H 0.24440 0.80896 0.40394
 H579 H 0.24314 0.68111 0.53441
 H580 H 0.25788 0.68093 0.47265
 C581 C -0.02213 0.25277 0.25748
 C582 C -0.04254 0.25045 0.22106
 C583 C -0.08402 0.24909 0.22053
 C584 C -0.10560 0.25214 0.25575
 C585 C -0.08540 0.25645 0.29160
 C586 C -0.04418 0.25641 0.29260
 C587 C 0.02211 0.25222 0.25692
 C588 C 0.04499 0.24915 0.29154
 C589 C 0.08614 0.24847 0.28950
 C590 C 0.10550 0.25161 0.25307
 C591 C 0.08312 0.25442 0.21836
 C592 C 0.04163 0.25361 0.21996
 C593 C -0.02148 0.25045 0.18544
 C594 C 0.01967 0.25299 0.18489
 H595 H -0.03708 0.24921 0.15751
 H596 H 0.03456 0.25357 0.15656
 H597 H -0.09960 0.24679 0.19263
 H598 H -0.10159 0.25928 0.31905
 H599 H 0.10297 0.24590 0.31659
 H600 H 0.09803 0.25585 0.19005
 H601 H -0.03019 0.25984 0.32102
 H602 H 0.03169 0.24648 0.32037
 C603 C 0.75631 0.52337 0.25543
 C604 C 0.73037 0.54294 0.22925
 C605 C 0.72972 0.58421 0.22787
 C606 C 0.75468 0.60667 0.25224
 C607 C 0.78053 0.58719 0.27798
 C608 C 0.78140 0.54618 0.27961
 C609 C 0.75583 0.47923 0.25618
 C610 C 0.78019 0.45694 0.28136
 C611 C 0.77861 0.41591 0.28094
 C612 C 0.75276 0.39589 0.25546
 C613 C 0.72832 0.41783 0.23030
 C614 C 0.72962 0.45913 0.23050
 C615 C 0.70515 0.52127 0.20463
 C616 C 0.70482 0.48029 0.20521
 H617 H 0.68530 0.53623 0.18456
 H618 H 0.68475 0.46493 0.18555
 H619 H 0.70962 0.59884 0.20779
 H620 H 0.80014 0.60369 0.29713
 H621 H 0.79783 0.39983 0.30071
 H622 H 0.70816 0.40279 0.21046
 H623 H 0.80189 0.53303 0.30003
 H624 H 0.80066 0.47050 0.30163
 C625 C 0.74751 0.24598 0.52578
 C626 C 0.74641 0.28255 0.54574
 C627 C 0.74598 0.28367 0.58722
 C628 C 0.74898 0.24888 0.60917
 C629 C 0.75210 0.21285 0.58939
 C630 C 0.75097 0.21127 0.54821
 C631 C 0.74629 0.24594 0.48156
 C632 C 0.74196 0.21126 0.45914
 C633 C 0.74149 0.21272 0.41793
 C634 C 0.74611 0.24859 0.39815
 C635 C 0.74966 0.28339 0.42011
 C636 C 0.74865 0.28241 0.46157
 C637 C 0.74692 0.31771 0.52421
 C638 C 0.74908 0.31763 0.48305
 H639 H 0.74659 0.34575 0.53944
 H640 H 0.75032 0.34561 0.46778
 H641 H 0.74458 0.31168 0.60248
 H642 H 0.75482 0.18571 0.60590
 H643 H 0.73830 0.18559 0.40143
 H644 H 0.75222 0.31131 0.40484
 H645 H 0.75354 0.18275 0.53452
 H646 H 0.73836 0.18285 0.47285
 C647 C 0.52208 0.24555 0.24835
 C648 C 0.54179 0.28233 0.24733
 C649 C 0.58330 0.28388 0.24708
 C650 C 0.60549 0.24929 0.25013
 C651 C 0.58592 0.21304 0.25296
 C652 C 0.54477 0.21106 0.25170
 C653 C 0.47784 0.24504 0.24722
 C654 C 0.45567 0.21011 0.24313
 C655 C 0.41445 0.21112 0.24279
 C656 C 0.39437 0.24678 0.24724
 C657 C 0.41608 0.28182 0.25058
 C658 C 0.45757 0.28129 0.24953
 C659 C 0.51997 0.31726 0.24780
 C660 C 0.47879 0.31674 0.24989
 H661 H 0.53498 0.34545 0.24750
 H662 H 0.46330 0.34455 0.25109
 H663 H 0.59836 0.31205 0.24587
 H664 H 0.60259 0.18604 0.25569
 H665 H 0.39817 0.18380 0.23974
 H666 H 0.40061 0.30959 0.25300
 H667 H 0.53130 0.18237 0.25414
 H668 H 0.46958 0.18183 0.23963
 C669 C 0.25222 0.52073 0.25338
 C670 C 0.22621 0.54071 0.22759
 C671 C 0.22523 0.58207 0.22726
 C672 C 0.24990 0.60403 0.25240
 C673 C 0.27548 0.58402 0.27800
 C674 C 0.27669 0.54307 0.27855
 C675 C 0.25255 0.47663 0.25276
 C676 C 0.27755 0.45416 0.27710
 C677 C 0.27678 0.41322 0.27558
 C678 C 0.25112 0.39333 0.24980
 C679 C 0.22612 0.41541 0.22528
 C680 C 0.22668 0.45677 0.22656
 C681 C 0.20138 0.51932 0.20231
 C682 C 0.20158 0.47829 0.20184
 H683 H 0.18142 0.53455 0.18255
 H684 H 0.18176 0.46316 0.18174
 H685 H 0.20530 0.59713 0.20734
 H686 H 0.29485 0.60006 0.29778
 H687 H 0.29644 0.39708 0.29485
 H688 H 0.20616 0.40046 0.20518
 H689 H 0.29703 0.52965 0.29893
 H690 H 0.29798 0.46747 0.29758
 C691 C 0.25430 0.24596 0.52188
 C692 C 0.25227 0.28251 0.54180
 C693 C 0.25048 0.28358 0.58326
 C694 C 0.25288 0.24876 0.60527
 C695 C 0.25695 0.21279 0.58556
 C696 C 0.25730 0.21126 0.54439
 C697 C 0.25411 0.24588 0.47766
 C698 C 0.25055 0.21112 0.45527
 C699 C 0.25005 0.21255 0.41411
 C700 C 0.25390 0.24847 0.39427
 C701 C 0.25730 0.28333 0.41614
 C702 C 0.25624 0.28237 0.45764
 C703 C 0.25302 0.31767 0.52025
 C704 C 0.25599 0.31760 0.47912
 H705 H 0.25204 0.34570 0.53545
 H706 H 0.25712 0.34558 0.46386
 H707 H 0.24838 0.31156 0.59848
 H708 H 0.25928 0.18563 0.60209
 H709 H 0.24696 0.18538 0.39765
 H710 H 0.25923 0.31126 0.40081
 H711 H 0.26055 0.18276 0.53081
 H712 H 0.24726 0.18266 0.46894
   
