data_POSCAR
  _audit_creation_date              2014-09-24
  _audit_creation_method            'ToBaCCo'
  _symmetry_space_group_name_H-M    'P1'
  _symmetry_Int_Tables_number       1
  _symmetry_cell_setting            triclinic
  loop_
  _symmetry_equiv_pos_as_xyz
 x,y,z
_cell_length_a 53.9921
_cell_length_b 55.2450
_cell_length_c 54.3928
_cell_angle_alpha 90.807100
_cell_angle_beta 89.027600
_cell_angle_gamma 90.802400
loop_
  _atom_site_label
  _atom_site_type_symbol
  _atom_site_fract_x
  _atom_site_fract_y
  _atom_site_fract_z
C1 C 0.24663 0.26932 0.24038
 C2 C 0.26508 0.26939 0.22191
 C3 C 0.28319 0.25133 0.22089
 C4 C 0.28273 0.23318 0.23878
 C5 C 0.26452 0.23301 0.25749
 C6 C 0.24634 0.25110 0.25828
 C7 C 0.22842 0.28716 0.24115
 C8 C 0.20993 0.28722 0.25969
 C9 C 0.20985 0.26906 0.27759
 C10 C 0.22786 0.25095 0.27694
 C11 C 0.22765 0.23266 0.29461
 C12 C 0.24580 0.21461 0.29402
 C13 C 0.26420 0.21499 0.27539
 H14 H 0.26515 0.28341 0.20817
 H15 H 0.29665 0.21923 0.23827
 H16 H 0.22877 0.30110 0.22733
 H17 H 0.19564 0.26885 0.29191
 H18 H 0.21343 0.23260 0.30892
 H19 H 0.27820 0.20112 0.27464
 C20 C 0.75201 -0.27060 0.22726
 C21 C 0.73544 -0.26907 0.20776
 C22 C 0.71939 -0.24923 0.20598
 C23 C 0.72086 -0.23049 0.22382
 C24 C 0.73707 -0.23198 0.24360
 C25 C 0.75243 -0.25230 0.24555
 C26 C 0.76813 -0.29024 0.22876
 C27 C 0.78449 -0.29213 0.24860
 C28 C 0.78389 -0.27419 0.26732
 C29 C 0.76817 -0.25430 0.26582
 C30 C 0.76810 -0.23625 0.28423
 C31 C 0.75321 -0.21580 0.28211
 C32 C 0.73794 -0.21361 0.26166
 H33 H 0.73502 -0.28351 0.19406
 H34 H 0.70895 -0.21491 0.22278
 H35 H 0.76789 -0.30399 0.21435
 H36 H 0.79606 -0.27530 0.28290
 H37 H 0.78004 -0.23779 0.29995
 H38 H 0.72627 -0.19789 0.26019
 C39 C 0.75044 0.26745 0.76542
 C40 C 0.73197 0.26732 0.78386
 C41 C 0.71380 0.24874 0.78479
 C42 C 0.71449 0.23019 0.76668
 C43 C 0.73271 0.23027 0.74796
 C44 C 0.75078 0.24895 0.74734
 C45 C 0.76859 0.28586 0.76485
 C46 C 0.78709 0.28633 0.74623
 C47 C 0.78707 0.26780 0.72811
 C48 C 0.76919 0.24911 0.72865
 C49 C 0.76949 0.23056 0.71077
 C50 C 0.75150 0.21189 0.71116
 C51 C 0.73313 0.21194 0.72982
 H52 H 0.73195 0.28174 0.79759
 H53 H 0.70073 0.21571 0.76693
 H54 H 0.76810 0.29992 0.77895
 H55 H 0.80109 0.26767 0.71360
 H56 H 0.78367 0.23080 0.69642
 H57 H 0.71923 0.19761 0.73038
 C58 C 0.25164 -0.26599 0.76675
 C59 C 0.26992 -0.26556 0.78477
 C60 C 0.28814 -0.24711 0.78527
 C61 C 0.28786 -0.22895 0.76739
 C62 C 0.26981 -0.22925 0.74912
 C63 C 0.25162 -0.24784 0.74880
 C64 C 0.23342 -0.28434 0.76643
 C65 C 0.21519 -0.28512 0.74814
 C66 C 0.21550 -0.26692 0.73019
 C67 C 0.23341 -0.24828 0.73053
 C68 C 0.23336 -0.23006 0.71284
 C69 C 0.25141 -0.21144 0.71298
 C70 C 0.26965 -0.21125 0.73116
 H71 H 0.26984 -0.27957 0.79852
 H72 H 0.30184 -0.21467 0.76753
 H73 H 0.23368 -0.29813 0.78040
 H74 H 0.20166 -0.26702 0.71597
 H75 H 0.21931 -0.23049 0.69883
 H76 H 0.28360 -0.19696 0.73151
 C77 C 0.75746 -0.26612 0.76471
 C78 C 0.73901 -0.26563 0.78318
 C79 C 0.72108 -0.24740 0.78379
 C80 C 0.72181 -0.22955 0.76561
 C81 C 0.74003 -0.22994 0.74691
 C82 C 0.75794 -0.24828 0.74644
 C83 C 0.77537 -0.28425 0.76424
 C84 C 0.79375 -0.28514 0.74551
 C85 C 0.79393 -0.26724 0.72723
 C86 C 0.77629 -0.24880 0.72768
 C87 C 0.77667 -0.23089 0.70960
 C88 C 0.75880 -0.21258 0.70989
 C89 C 0.74053 -0.21231 0.72863
 H90 H 0.73872 -0.27942 0.79717
 H91 H 0.70804 -0.21546 0.76581
 H92 H 0.77473 -0.29781 0.77847
 H93 H 0.80788 -0.26746 0.71266
 H94 H 0.79077 -0.23136 0.69518
 H95 H 0.72671 -0.19825 0.72913
 C96 C 0.24925 0.27020 0.76918
 C97 C 0.26730 0.27022 0.78744
 C98 C 0.28505 0.25184 0.78800
 C99 C 0.28463 0.23340 0.76989
 C100 C 0.26684 0.23326 0.75141
 C101 C 0.24903 0.25168 0.75106
 C102 C 0.23140 0.28842 0.76874
 C103 C 0.21345 0.28851 0.75029
 C104 C 0.21345 0.27001 0.73225
 C105 C 0.23102 0.25157 0.73258
 C106 C 0.23084 0.23302 0.71471
 C107 C 0.24860 0.21464 0.71486
 C108 C 0.26659 0.21496 0.73327
 H109 H 0.26737 0.28447 0.80135
 H110 H 0.29828 0.21920 0.77004
 H111 H 0.23166 0.30263 0.78268
 H112 H 0.19963 0.26981 0.71802
 H113 H 0.21697 0.23304 0.70053
 H114 H 0.28030 0.20083 0.73366
 C115 C 0.24736 -0.26987 0.23250
 C116 C 0.26580 -0.26957 0.21398
 C117 C 0.28398 -0.25098 0.21321
 C118 C 0.28336 -0.23265 0.23152
 C119 C 0.26523 -0.23291 0.25029
 C120 C 0.24714 -0.25154 0.25078
 C121 C 0.22916 -0.28826 0.23300
 C122 C 0.21076 -0.28884 0.25174
 C123 C 0.21094 -0.27047 0.27003
 C124 C 0.22884 -0.25183 0.26957
 C125 C 0.22869 -0.23346 0.28766
 C126 C 0.24675 -0.21486 0.28736
 C127 C 0.26498 -0.21477 0.26859
 H128 H 0.26578 -0.28384 0.20008
 H129 H 0.29711 -0.21816 0.23143
 H130 H 0.22952 -0.30220 0.21877
 H131 H 0.19701 -0.27043 0.28462
 H132 H 0.21461 -0.23378 0.30210
 H133 H 0.27893 -0.20048 0.26809
 C134 C 0.74281 0.26766 0.23884
 C135 C 0.72290 0.26906 0.22269
 C136 C 0.70522 0.25017 0.22113
 C137 C 0.70709 0.23023 0.23677
 C138 C 0.72673 0.22872 0.25320
 C139 C 0.74498 0.24722 0.25383
 C140 C 0.76075 0.28625 0.23995
 C141 C 0.78160 0.28424 0.25503
 C142 C 0.78382 0.26343 0.26952
 C143 C 0.76542 0.24525 0.26942
 C144 C 0.76705 0.22523 0.28486
 C145 C 0.74839 0.20719 0.28512
 C146 C 0.72844 0.20895 0.26896
 H147 H 0.72159 0.28461 0.21087
 H148 H 0.69335 0.21575 0.23606
 H149 H 0.75877 0.30194 0.22844
 H150 H 0.79954 0.26158 0.28146
 H151 H 0.78261 0.22402 0.29710
 H152 H 0.71417 0.19496 0.26867
 O153 O 0.26683 0.02346 0.47719
 O154 O 0.26787 -0.02337 0.52465
 O155 O 0.26714 -0.02364 0.47669
 O156 O 0.26744 0.02364 0.52508
 O157 O 0.22650 0.02290 0.52618
 O158 O 0.22622 -0.02457 0.47799
 O159 O 0.22694 -0.02432 0.52578
 O160 O 0.22590 0.02273 0.47846
 Cu161 Cu 0.27143 0.00009 0.50076
 Cu162 Cu 0.22228 -0.00092 0.50221
 C163 C 0.24621 0.03114 0.46983
 C164 C 0.24758 -0.03180 0.53330
 C165 C 0.24663 -0.03218 0.46915
 C166 C 0.24702 0.03134 0.53383
 O167 O 0.73460 0.02048 0.52152
 O168 O 0.73503 -0.02824 0.47465
 O169 O 0.73607 -0.02643 0.52224
 O170 O 0.73391 0.01901 0.47345
 O171 O 0.77479 0.02145 0.47283
 O172 O 0.77697 -0.02569 0.51991
 O173 O 0.77585 -0.02542 0.47186
 O174 O 0.77552 0.02166 0.52059
 Cu175 Cu 0.73079 -0.00390 0.49808
 Cu176 Cu 0.77991 -0.00187 0.49622
 C177 C 0.75498 0.02920 0.52920
 C178 C 0.75548 -0.03496 0.46513
 C179 C 0.75689 -0.03397 0.52919
 C180 C 0.75399 0.02804 0.46493
 O181 O 0.47399 0.27113 0.02582
 O182 O 0.52323 0.27066 -0.02195
 O183 O 0.47486 0.27119 -0.02196
 O184 O 0.52219 0.27105 0.02595
 O185 O 0.52141 0.23105 0.02551
 O186 O 0.47402 0.23118 -0.02242
 O187 O 0.52216 0.23067 -0.02258
 O188 O 0.47337 0.23112 0.02551
 Cu189 Cu 0.49868 0.27503 0.00197
 Cu190 Cu 0.49769 0.22699 0.00143
 C191 C 0.46539 0.25118 0.03386
 C192 C 0.53100 0.25057 -0.03046
 C193 C 0.46634 0.25122 -0.03029
 C194 C 0.52972 0.25104 0.03400
 O195 O 0.52574 0.73251 0.02165
 O196 O 0.47757 0.73281 -0.02553
 O197 O 0.52584 0.73282 -0.02603
 O198 O 0.47727 0.73214 0.02225
 O199 O 0.47781 0.77214 0.02342
 O200 O 0.52618 0.77282 -0.02520
 O201 O 0.47804 0.77281 -0.02460
 O202 O 0.52604 0.77250 0.02269
 Cu203 Cu 0.50154 0.72855 -0.00198
 Cu204 Cu 0.50203 0.77659 -0.00079
 C205 C 0.53418 0.75247 0.03009
 C206 C 0.46968 0.75287 -0.03314
 C207 C 0.53428 0.75291 -0.03382
 C208 C 0.46926 0.75201 0.03103
 O209 O 0.01890 0.47477 0.27791
 O210 O -0.02834 0.52209 0.27528
 O211 O -0.02956 0.47526 0.27680
 O212 O 0.01969 0.52211 0.27612
 O213 O 0.02063 0.52064 0.23550
 O214 O -0.02648 0.47183 0.23633
 O215 O -0.02786 0.51912 0.23472
 O216 O 0.02139 0.47379 0.23732
 Cu217 Cu -0.00492 0.49871 0.28062
 Cu218 Cu -0.00298 0.49622 0.23188
 C219 C 0.02832 0.46637 0.25805
 C220 C -0.03634 0.52845 0.25457
 C221 C -0.03618 0.46542 0.25668
 C222 C 0.02838 0.52949 0.25567
 O223 O 0.02630 0.52380 0.72517
 O224 O -0.02223 0.47626 0.72472
 O225 O -0.02174 0.52360 0.72450
 O226 O 0.02592 0.47655 0.72544
 O227 O 0.02464 0.47731 0.76607
 O228 O -0.02303 0.52425 0.76513
 O229 O -0.02368 0.47721 0.76534
 O230 O 0.02526 0.52431 0.76580
 Cu231 Cu 0.00217 0.49996 0.72087
 Cu232 Cu 0.00066 0.50084 0.76966
 C233 C 0.03404 0.53212 0.74556
 C234 C -0.03122 0.46867 0.74496
 C235 C -0.03043 0.53198 0.74468
 C236 C 0.03340 0.46896 0.74592
 C237 C 0.33764 0.25144 0.16481
 N238 N 0.33386 0.23162 0.17892
 N239 N 0.31665 0.23162 0.19676
 C240 C 0.30246 0.25139 0.20114
 N241 N 0.30628 0.27120 0.18696
 N242 N 0.32356 0.27125 0.16918
 C243 C 0.35661 0.25144 0.14515
 N244 N 0.36213 0.27198 0.13267
 N245 N 0.37939 0.27198 0.11486
 C246 C 0.39166 0.25140 0.10880
 N247 N 0.38609 0.23084 0.12125
 N248 N 0.36892 0.23087 0.13913
 C249 C 0.41070 0.25136 0.08919
 N250 N 0.42121 0.23033 0.08154
 N251 N 0.43854 0.23027 0.06381
 C252 C 0.44607 0.25126 0.05316
 N253 N 0.43557 0.27231 0.06083
 N254 N 0.41816 0.27235 0.07848
 C255 C 0.66669 0.75237 0.15188
 N256 N 0.68170 0.73304 0.15384
 N257 N 0.69895 0.73268 0.17106
 C258 C 0.70183 0.75157 0.18713
 N259 N 0.68678 0.77095 0.18496
 N260 N 0.66962 0.77138 0.16767
 C261 C 0.64720 0.75251 0.13336
 N262 N 0.63384 0.77276 0.12974
 N263 N 0.61589 0.77277 0.11323
 C264 C 0.61053 0.75249 0.09985
 N265 N 0.62388 0.73224 0.10348
 N266 N 0.64192 0.73227 0.11989
 C267 C 0.59057 0.75245 0.08183
 N268 N 0.58317 0.73152 0.07062
 N269 N 0.56507 0.73149 0.05427
 C270 C 0.55377 0.75241 0.04847
 N271 N 0.56120 0.77334 0.05965
 N272 N 0.57921 0.77335 0.07609
 C273 C 0.65974 0.24896 -0.16051
 N274 N 0.67632 0.26754 -0.16240
 N275 N 0.69378 0.26740 -0.17999
 C276 C 0.69534 0.24876 -0.19654
 N277 N 0.67861 0.23022 -0.19459
 N278 N 0.66122 0.23027 -0.17690
 C279 C 0.64053 0.24915 -0.14106
 N280 N 0.62609 0.22925 -0.13693
 N281 N 0.60874 0.22944 -0.11921
 C282 C 0.60510 0.24957 -0.10507
 N283 N 0.61949 0.26949 -0.10925
 N284 N 0.63694 0.26925 -0.12687
 C285 C 0.58591 0.24983 -0.08560
 N286 N 0.57991 0.27081 -0.07379
 N287 N 0.56239 0.27106 -0.05622
 C288 C 0.55036 0.25032 -0.04973
 N289 N 0.55642 0.22933 -0.06149
 N290 N 0.57383 0.22909 -0.07915
 C291 C 0.34262 0.75328 -0.16051
 N292 N 0.32825 0.73332 -0.16451
 N293 N 0.31095 0.73324 -0.18167
 C294 C 0.30739 0.75308 -0.19561
 N295 N 0.32187 0.77303 -0.19161
 N296 N 0.33911 0.77315 -0.17436
 C297 C 0.36163 0.75332 -0.14151
 N298 N 0.37435 0.77393 -0.13569
 N299 N 0.39152 0.77392 -0.11838
 C300 C 0.39667 0.75327 -0.10632
 N301 N 0.38399 0.73266 -0.11218
 N302 N 0.36675 0.73269 -0.12942
 C303 C 0.41563 0.75320 -0.08728
 N304 N 0.42249 0.73211 -0.07701
 N305 N 0.43974 0.73201 -0.05978
 C306 C 0.45066 0.75300 -0.05210
 N307 N 0.44375 0.77410 -0.06232
 N308 N 0.42659 0.77419 -0.07963
 C309 C 0.15559 0.34092 0.26064
 N310 N 0.17041 0.33745 0.24055
 N311 N 0.18765 0.32045 0.24033
 C312 C 0.19071 0.30615 0.26013
 N313 N 0.17580 0.30961 0.28023
 N314 N 0.15860 0.32670 0.28050
 C315 C 0.13661 0.35971 0.26069
 N316 N 0.12325 0.36504 0.28140
 N317 N 0.10608 0.38215 0.28127
 C318 C 0.10161 0.39447 0.26041
 N319 N 0.11495 0.38910 0.23973
 N320 N 0.13217 0.37208 0.23988
 C321 C 0.08260 0.41323 0.26002
 N322 N 0.07657 0.42357 0.23848
 N323 N 0.05928 0.44050 0.23792
 C324 C 0.04745 0.44780 0.25890
 N325 N 0.05352 0.43752 0.28048
 N326 N 0.07076 0.42049 0.28102
 C327 C 0.16197 0.66045 0.74720
 N328 N 0.16333 0.67692 0.72895
 N329 N 0.18044 0.69452 0.72930
 C330 C 0.19703 0.69630 0.74781
 N331 N 0.19561 0.67966 0.76601
 N332 N 0.17839 0.66216 0.76576
 C333 C 0.14301 0.64114 0.74689
 N334 N 0.13906 0.62705 0.76687
 N335 N 0.12175 0.60963 0.76665
 C336 C 0.10788 0.60555 0.74638
 N337 N 0.11190 0.61957 0.72637
 N338 N 0.12909 0.63710 0.72665
 C339 C 0.08879 0.58636 0.74614
 N340 N 0.07755 0.57980 0.72488
 N341 N 0.06020 0.56241 0.72467
 C342 C 0.05334 0.55108 0.74575
 N343 N 0.06453 0.55768 0.76702
 N344 N 0.08200 0.57495 0.76720
 C345 C -0.16480 0.65266 0.25071
 N346 N -0.16694 0.66875 0.26967
 N347 N -0.18343 0.68642 0.26904
 C348 C -0.19858 0.68871 0.24951
 N349 N -0.19650 0.67237 0.23065
 N350 N -0.17992 0.65476 0.23120
 C351 C -0.14611 0.63362 0.25120
 N352 N -0.13286 0.63009 0.27180
 N353 N -0.11560 0.61312 0.27222
 C354 C -0.11082 0.59915 0.25202
 N355 N -0.12406 0.60268 0.23139
 N356 N -0.14143 0.61957 0.23101
 C357 C -0.09154 0.58068 0.25253
 N358 N -0.08445 0.56865 0.23169
 N359 N -0.06679 0.55205 0.23226
 C360 C -0.05567 0.54682 0.25372
 N361 N -0.06282 0.55880 0.27455
 N362 N -0.08037 0.57547 0.27395
 C363 C -0.15958 0.34069 0.74518
 N364 N -0.17646 0.33935 0.76388
 N365 N -0.19371 0.32188 0.76414
 C366 C -0.19474 0.30491 0.74581
 N367 N -0.17772 0.30633 0.72713
 N368 N -0.16055 0.32389 0.72677
 C369 C -0.14054 0.35994 0.74497
 N370 N -0.12584 0.36346 0.72480
 N371 N -0.10857 0.38093 0.72467
 C372 C -0.10527 0.39541 0.74476
 N373 N -0.11993 0.39184 0.76495
 N374 N -0.13730 0.37447 0.76502
 C375 C -0.08610 0.41453 0.74474
 N376 N -0.08034 0.42655 0.76587
 N377 N -0.06283 0.44378 0.76593
 C378 C -0.05056 0.44974 0.74484
 N379 N -0.05638 0.43779 0.72368
 N380 N -0.07378 0.42045 0.72365
 C381 C 0.24536 0.15981 0.34679
 N382 N 0.26559 0.16374 0.33218
 N383 N 0.26569 0.18112 0.31546
 C384 C 0.24562 0.19534 0.31274
 N385 N 0.22540 0.19142 0.32745
 N386 N 0.22525 0.17395 0.34412
 C387 C 0.24530 0.14053 0.36512
 N388 N 0.22433 0.13477 0.37801
 N389 N 0.22435 0.11719 0.39455
 C390 C 0.24535 0.10482 0.39887
 N391 N 0.26632 0.11062 0.38601
 N392 N 0.26628 0.12811 0.36940
 C393 C 0.24548 0.08554 0.41719
 N394 N 0.26705 0.07503 0.42333
 N395 N 0.26727 0.05767 0.44007
 C396 C 0.24589 0.05010 0.45120
 N397 N 0.22430 0.06055 0.44501
 N398 N 0.22411 0.07799 0.42834
 C399 C 0.75271 0.15687 0.65705
 N400 N 0.73241 0.15999 0.67177
 N401 N 0.73206 0.17738 0.68899
 C402 C 0.75193 0.19242 0.69210
 N403 N 0.77220 0.18927 0.67730
 N404 N 0.77261 0.17181 0.66016
 C405 C 0.75311 0.13771 0.63804
 N406 N 0.77421 0.13300 0.62502
 N407 N 0.77457 0.11565 0.60775
 C408 C 0.75381 0.10244 0.60280
 N409 N 0.73269 0.10718 0.61579
 N410 N 0.73236 0.12446 0.63313
 C411 C 0.75415 0.08339 0.58367
 N412 N 0.73285 0.07197 0.57694
 N413 N 0.73312 0.05475 0.55954
 C414 C 0.75472 0.04824 0.54831
 N415 N 0.77604 0.05962 0.55509
 N416 N 0.77575 0.07692 0.57241
 C417 C 0.25045 -0.15722 0.65965
 N418 N 0.23048 -0.17200 0.66328
 N419 N 0.23083 -0.18920 0.68017
 C420 C 0.25111 -0.19226 0.69419
 N421 N 0.27106 -0.17739 0.69057
 N422 N 0.27077 -0.16024 0.67359
 C423 C 0.25006 -0.13835 0.64091
 N424 N 0.27084 -0.12530 0.63531
 N425 N 0.27047 -0.10830 0.61818
 C426 C 0.24927 -0.10365 0.60613
 N427 N 0.22848 -0.11666 0.61179
 N428 N 0.22888 -0.13373 0.62882
 C429 C 0.24884 -0.08493 0.58724
 N430 N 0.22714 -0.07855 0.57704
 N431 N 0.22673 -0.06157 0.55989
 C432 C 0.24802 -0.05045 0.55224
 N433 N 0.26972 -0.05687 0.56240
 N434 N 0.27012 -0.07376 0.57963
 C435 C 0.75428 -0.16179 0.33679
 N436 N 0.75531 -0.15585 0.31266
 N437 N 0.75476 -0.17304 0.29523
 C438 C 0.75356 -0.19678 0.30133
 N439 N 0.75272 -0.20271 0.32547
 N440 N 0.75287 -0.18551 0.34289
 C441 C 0.75461 -0.14288 0.35599
 N442 N 0.74381 -0.14689 0.37830
 N443 N 0.74391 -0.12966 0.39568
 C444 C 0.75518 -0.10795 0.39151
 N445 N 0.76617 -0.10401 0.36926
 N446 N 0.76572 -0.12111 0.35174
 C447 C 0.75535 -0.08903 0.41069
 N448 N 0.77379 -0.07208 0.41134
 N449 N 0.77398 -0.05497 0.42886
 C450 C 0.75552 -0.05399 0.44609
 N451 N 0.73699 -0.07082 0.44532
 N452 N 0.73702 -0.08816 0.42805
 C453 C 0.66544 0.75318 -0.16134
 N454 N 0.67954 0.73330 -0.16519
 N455 N 0.69727 0.73317 -0.18253
 C456 C 0.70152 0.75287 -0.19676
 N457 N 0.68734 0.77273 -0.19286
 N458 N 0.66968 0.77291 -0.17546
 C459 C 0.64585 0.75326 -0.14229
 N460 N 0.63335 0.77383 -0.13671
 N461 N 0.61556 0.77386 -0.11942
 C462 C 0.60956 0.75329 -0.10718
 N463 N 0.62202 0.73272 -0.11280
 N464 N 0.63988 0.73271 -0.13000
 C465 C 0.58992 0.75324 -0.08818
 N466 N 0.58224 0.73218 -0.07778
 N467 N 0.56443 0.73209 -0.06053
 C468 C 0.55373 0.75306 -0.05298
 N469 N 0.56143 0.77414 -0.06335
 N470 N 0.57916 0.77422 -0.08069
 C471 C 0.33893 0.25179 -0.15722
 N472 N 0.33491 0.23184 -0.17151
 N473 N 0.31783 0.23189 -0.18889
 C474 C 0.30401 0.25184 -0.19261
 N475 N 0.30803 0.27176 -0.17821
 N476 N 0.32519 0.27176 -0.16089
 C477 C 0.35787 0.25174 -0.13818
 N478 N 0.36371 0.27234 -0.12554
 N479 N 0.38102 0.27228 -0.10836
 C480 C 0.39303 0.25160 -0.10313
 N481 N 0.38714 0.23099 -0.11573
 N482 N 0.36992 0.23107 -0.13298
 C483 C 0.41209 0.25151 -0.08420
 N484 N 0.42237 0.23042 -0.07731
 N485 N 0.43964 0.23032 -0.06010
 C486 C 0.44733 0.25132 -0.04924
 N487 N 0.43709 0.27242 -0.05617
 N488 N 0.41975 0.27250 -0.07330
 C489 C 0.33835 0.74985 0.15885
 N490 N 0.32185 0.73114 0.16031
 N491 N 0.30424 0.73092 0.17777
 C492 C 0.30247 0.74930 0.19459
 N493 N 0.31910 0.76796 0.19303
 N494 N 0.33662 0.76827 0.17550
 C495 C 0.35780 0.75016 0.13966
 N496 N 0.37209 0.77027 0.13616
 N497 N 0.38979 0.77059 0.11880
 C498 C 0.39396 0.75075 0.10440
 N499 N 0.37971 0.73060 0.10793
 N500 N 0.36191 0.73033 0.12520
 C501 C 0.41356 0.75107 0.08536
 N502 N 0.42009 0.73038 0.07331
 N503 N 0.43793 0.73067 0.05608
 C504 C 0.44978 0.75168 0.05017
 N505 N 0.44320 0.77239 0.06217
 N506 N 0.42547 0.77207 0.07951
 C507 C 0.65049 0.25140 0.16723
 N508 N 0.66421 0.27155 0.17238
 N509 N 0.68136 0.27126 0.18970
 C510 C 0.68538 0.25086 0.20263
 N511 N 0.67146 0.23078 0.19755
 N512 N 0.65438 0.23103 0.18017
 C513 C 0.63218 0.25146 0.14757
 N514 N 0.62029 0.23067 0.14076
 N515 N 0.60406 0.23060 0.12258
 C516 C 0.59907 0.25132 0.11060
 N517 N 0.61089 0.27212 0.11747
 N518 N 0.62720 0.27218 0.13559
 C519 C 0.58122 0.25121 0.09053
 N520 N 0.57471 0.27223 0.07989
 N521 N 0.55838 0.27215 0.06180
 C522 C 0.54807 0.25105 0.05360
 N523 N 0.55465 0.23003 0.06417
 N524 N 0.57091 0.23011 0.08233
 C525 C -0.15430 0.66066 0.74448
 N526 N -0.15494 0.67684 0.72597
 N527 N -0.17163 0.69439 0.72632
 C528 C -0.18848 0.69640 0.74511
 N529 N -0.18775 0.68006 0.76356
 N530 N -0.17098 0.66262 0.76329
 C531 C -0.13587 0.64136 0.74428
 N532 N -0.13300 0.62750 0.76441
 N533 N -0.11626 0.61001 0.76435
 C534 C -0.10189 0.60564 0.74410
 N535 N -0.10482 0.61944 0.72392
 N536 N -0.12146 0.63704 0.72403
 C537 C -0.08343 0.58638 0.74414
 N538 N -0.07146 0.57960 0.72305
 N539 N -0.05468 0.56214 0.72317
 C540 C -0.04917 0.55093 0.74442
 N541 N -0.06111 0.55775 0.76550
 N542 N -0.07799 0.57509 0.76535
 C543 C -0.16462 0.33803 0.25643
 N544 N -0.18689 0.34205 0.24619
 N545 N -0.20417 0.32461 0.24556
 C546 C -0.20008 0.30262 0.25556
 N547 N -0.17779 0.29883 0.26604
 N548 N -0.16032 0.31609 0.26625
 C549 C -0.14544 0.35703 0.25674
 N550 N -0.12124 0.35136 0.25336
 N551 N -0.10380 0.36867 0.25329
 C552 C -0.10993 0.39218 0.25709
 N553 N -0.13411 0.39783 0.26073
 N554 N -0.15160 0.38057 0.26032
 C555 C -0.09074 0.41117 0.25708
 N556 N -0.09238 0.43040 0.27281
 N557 N -0.07482 0.44759 0.27289
 C558 C -0.05528 0.44637 0.25690
 N559 N -0.05377 0.42726 0.24102
 N560 N -0.07108 0.40983 0.24128
 C561 C 0.16019 0.34313 0.74894
 N562 N 0.17393 0.33989 0.76927
 N563 N 0.19090 0.32262 0.76967
 C564 C 0.19471 0.30785 0.74982
 N565 N 0.18090 0.31114 0.72951
 N566 N 0.16401 0.32846 0.72906
 C567 C 0.14143 0.36209 0.74847
 N568 N 0.12947 0.36690 0.72736
 N569 N 0.11239 0.38405 0.72692
 C570 C 0.10655 0.39693 0.74760
 N571 N 0.11848 0.39210 0.76872
 N572 N 0.13565 0.37503 0.76913
 C573 C 0.08759 0.41571 0.74715
 N574 N 0.07983 0.42678 0.76829
 N575 N 0.06252 0.44372 0.76790
 C576 C 0.05244 0.45028 0.74633
 N577 N 0.06025 0.43927 0.72518
 N578 N 0.07747 0.42225 0.72559
 C579 C 0.15723 0.65700 0.25304
 N580 N 0.15845 0.67373 0.27148
 N581 N 0.17569 0.69121 0.27103
 C582 C 0.19254 0.69263 0.25220
 N583 N 0.19126 0.67574 0.23380
 N584 N 0.17393 0.65833 0.23417
 C585 C 0.13809 0.63785 0.25347
 N586 N 0.13449 0.62328 0.23350
 N587 N 0.11701 0.60602 0.23385
 C588 C 0.10258 0.60260 0.25423
 N589 N 0.10624 0.61712 0.27423
 N590 N 0.12362 0.63447 0.27383
 C591 C 0.08331 0.58358 0.25463
 N592 N 0.07126 0.57789 0.27593
 N593 N 0.05380 0.56060 0.27628
 C594 C 0.04765 0.54849 0.25532
 N595 N 0.05965 0.55423 0.23401
 N596 N 0.07721 0.57141 0.23368
 C597 C 0.75932 -0.15925 0.65563
 N598 N 0.73922 -0.16256 0.67057
 N599 N 0.73912 -0.17946 0.68778
 C600 C 0.75905 -0.19381 0.69068
 N601 N 0.77915 -0.19051 0.67564
 N602 N 0.77930 -0.17352 0.65848
 C603 C 0.75930 -0.14053 0.63673
 N604 N 0.78011 -0.13531 0.62335
 N605 N 0.77996 -0.11823 0.60628
 C606 C 0.75897 -0.10584 0.60193
 N607 N 0.73817 -0.11111 0.61528
 N608 N 0.73835 -0.12809 0.63240
 C609 C 0.75861 -0.08711 0.58306
 N610 N 0.73695 -0.07667 0.57709
 N611 N 0.73645 -0.05975 0.55992
 C612 C 0.75762 -0.05254 0.54817
 N613 N 0.77931 -0.06291 0.55418
 N614 N 0.77979 -0.07994 0.57129
 C615 C 0.24645 -0.16016 0.34176
 N616 N 0.22639 -0.17493 0.33879
 N617 N 0.22651 -0.19233 0.32157
 C618 C 0.24662 -0.19557 0.30659
 N619 N 0.26664 -0.18072 0.30960
 N620 N 0.26659 -0.16339 0.32688
 C621 C 0.24640 -0.14100 0.36075
 N622 N 0.26731 -0.12792 0.36538
 N623 N 0.26732 -0.11056 0.38264
 C624 C 0.24638 -0.10558 0.39581
 N625 N 0.22544 -0.11863 0.39114
 N626 N 0.22547 -0.13606 0.37396
 C627 C 0.24641 -0.08644 0.41481
 N628 N 0.22499 -0.07975 0.42627
 N629 N 0.22504 -0.06239 0.44352
 C630 C 0.24654 -0.05116 0.45001
 N631 N 0.26796 -0.05788 0.43859
 N632 N 0.26789 -0.07517 0.42127
 C633 C 0.75062 0.15113 0.33634
 N634 N 0.72981 0.15496 0.32339
 N635 N 0.72923 0.17252 0.30687
 C636 C 0.74940 0.18698 0.30270
 N637 N 0.77023 0.18302 0.31564
 N638 N 0.77085 0.16541 0.33209
 C639 C 0.75111 0.13225 0.35505
 N640 N 0.77240 0.12747 0.36686
 N641 N 0.77278 0.11068 0.38418
 C642 C 0.75186 0.09813 0.39042
 N643 N 0.73056 0.10290 0.37860
 N644 N 0.73020 0.11964 0.36121
 C645 C 0.75231 0.07986 0.40974
 N646 N 0.73108 0.06874 0.41760
 N647 N 0.73155 0.05228 0.43526
 C648 C 0.75329 0.04630 0.44564
 N649 N 0.77451 0.05739 0.43775
 N650 N 0.77401 0.07390 0.42016
 C651 C 0.24800 0.15949 0.66097
 N652 N 0.22802 0.17383 0.66453
 N653 N 0.22824 0.19137 0.68159
 C654 C 0.24839 0.19518 0.69584
 N655 N 0.26834 0.18074 0.69227
 N656 N 0.26818 0.16328 0.67513
 C657 C 0.24781 0.14024 0.64210
 N658 N 0.26870 0.12772 0.63662
 N659 N 0.26856 0.11032 0.61941
 C660 C 0.24750 0.10472 0.60716
 N661 N 0.22660 0.11718 0.61269
 N662 N 0.22677 0.13467 0.62981
 C663 C 0.24736 0.08556 0.58818
 N664 N 0.22580 0.07814 0.57783
 N665 N 0.22567 0.06078 0.56058
 C666 C 0.24712 0.05030 0.55297
 N667 N 0.26869 0.05775 0.56330
 N668 N 0.26880 0.07503 0.58063
   
