data_POSCAR
  _audit_creation_date              2014-09-24
  _audit_creation_method            'ToBaCCo'
  _symmetry_space_group_name_H-M    'P1'
  _symmetry_Int_Tables_number       1
  _symmetry_cell_setting            triclinic
  loop_
  _symmetry_equiv_pos_as_xyz
 x,y,z
_cell_length_a 35.7054
_cell_length_b 35.6847
_cell_length_c 25.6092
_cell_angle_alpha 89.887800
_cell_angle_beta 89.990500
_cell_angle_gamma 90.755200
loop_
  _atom_site_label
  _atom_site_type_symbol
  _atom_site_fract_x
  _atom_site_fract_y
  _atom_site_fract_z
O1 O -0.03973 0.29095 0.04986
 O2 O 0.03453 0.28898 -0.05170
 O3 O -0.03999 0.28931 -0.05163
 O4 O 0.03484 0.29075 0.04909
 O5 O 0.03287 0.22878 0.05050
 O6 O -0.04029 0.22742 -0.04855
 O7 O 0.03233 0.22710 -0.04905
 O8 O -0.03986 0.22904 0.05118
 Cu9 Cu -0.00258 0.29639 -0.00130
 Cu10 Cu -0.00390 0.22200 0.00126
 C11 C -0.05300 0.25993 0.06650
 C12 C 0.04679 0.25734 -0.06612
 C13 C -0.05341 0.25780 -0.06593
 C14 C 0.04730 0.25961 0.06522
 O15 O 0.46413 0.78931 0.55021
 O16 O 0.53943 0.79037 0.44996
 O17 O 0.46505 0.78926 0.44866
 O18 O 0.53891 0.79033 0.55100
 O19 O 0.53793 0.72840 0.55066
 O20 O 0.46572 0.72737 0.45011
 O21 O 0.53851 0.72840 0.45099
 O22 O 0.46515 0.72742 0.55005
 Cu23 Cu 0.50180 0.79619 0.50004
 Cu24 Cu 0.50178 0.72182 0.50050
 C25 C 0.45126 0.75785 0.56586
 C26 C 0.55236 0.75919 0.43489
 C27 C 0.45231 0.75776 0.43319
 C28 C 0.55175 0.75919 0.56662
 O29 O 0.96281 0.71158 -0.05213
 O30 O 1.03869 0.70805 0.04693
 O31 O 0.96407 0.70902 0.04900
 O32 O 1.03755 0.71122 -0.05389
 O33 O 1.03810 0.77306 -0.04983
 O34 O 0.96612 0.77095 0.05101
 O35 O 1.03889 0.76998 0.04979
 O36 O 0.96534 0.77340 -0.04872
 Cu37 Cu 1.00059 0.70360 -0.00287
 Cu38 Cu 1.00223 0.77791 0.00087
 C39 C 0.95053 0.74339 -0.06588
 C40 C 1.05234 0.73882 0.06363
 C41 C 0.95195 0.74004 0.06600
 C42 C 1.05114 0.74283 -0.06777
 O43 O 0.53147 0.20908 0.55215
 O44 O 0.45823 0.21060 0.44916
 O45 O 0.53258 0.20977 0.45100
 O46 O 0.45696 0.21031 0.55058
 O47 O 0.45976 0.27221 0.55073
 O48 O 0.53267 0.27172 0.45116
 O49 O 0.46019 0.27251 0.45104
 O50 O 0.53225 0.27104 0.55169
 Cu51 Cu 0.49463 0.20356 0.50072
 Cu52 Cu 0.49646 0.27796 0.50122
 C53 C 0.54487 0.24016 0.56813
 C54 C 0.44618 0.24215 0.43389
 C55 C 0.54585 0.24101 0.43521
 C56 C 0.44502 0.24172 0.56637
 O57 O 0.71164 -0.03668 0.05522
 O58 O 0.71118 0.03800 -0.04618
 O59 O 0.71171 -0.03655 -0.04582
 O60 O 0.71166 0.03788 0.05544
 O61 O 0.77354 0.03769 0.05486
 O62 O 0.77359 -0.03404 -0.04601
 O63 O 0.77303 0.03866 -0.04496
 O64 O 0.77356 -0.03515 0.05365
 Cu65 Cu 0.70518 0.00064 0.00470
 Cu66 Cu 0.77951 0.00194 0.00439
 C67 C 0.74302 -0.04933 0.07001
 C68 C 0.74237 0.05167 -0.06152
 C69 C 0.74307 -0.04855 -0.06174
 C70 C 0.74297 0.05097 0.07114
 O71 O 0.21101 0.46227 0.54721
 O72 O 0.21346 0.53660 0.44549
 O73 O 0.21240 0.46222 0.44579
 O74 O 0.21210 0.53683 0.54689
 O75 O 0.27396 0.53597 0.54774
 O76 O 0.27426 0.46288 0.44842
 O77 O 0.27530 0.53566 0.44790
 O78 O 0.27289 0.46319 0.54824
 Cu79 Cu 0.20588 0.49949 0.49623
 Cu80 Cu 0.28019 0.49942 0.49826
 C81 C 0.24190 0.44950 0.56370
 C82 C 0.24515 0.54930 0.43066
 C83 C 0.24371 0.44932 0.43118
 C84 C 0.24335 0.54969 0.56317
 O85 O 0.28927 1.03955 0.04718
 O86 O 0.28838 0.96500 -0.05397
 O87 O 0.28670 1.03964 -0.05367
 O88 O 0.29159 0.96482 0.04689
 O89 O 0.22969 0.96349 0.04989
 O90 O 0.22493 1.03607 -0.04993
 O91 O 0.22655 0.96342 -0.04977
 O92 O 0.22743 1.03626 0.04976
 Cu93 Cu 0.29536 1.00250 -0.00369
 Cu94 Cu 0.22108 0.99956 0.00038
 C95 C 0.25807 1.05134 0.06401
 C96 C 0.25701 0.95088 -0.06762
 C97 C 0.25467 1.05122 -0.06750
 C98 C 0.26107 0.95071 0.06386
 O99 O 0.79085 0.53854 0.55563
 O100 O 0.79047 0.46269 0.45637
 O101 O 0.79197 0.53737 0.45449
 O102 O 0.78985 0.46373 0.55735
 O103 O 0.72796 0.46456 0.55514
 O104 O 0.73003 0.53707 0.45479
 O105 O 0.72862 0.46435 0.45554
 O106 O 0.72897 0.53729 0.55455
 Cu107 Cu 0.79717 0.50059 0.50610
 Cu108 Cu 0.72282 0.50087 0.50491
 C109 C 0.75959 0.55138 0.57059
 C110 C 0.75904 0.45003 0.44052
 C111 C 0.76100 0.55040 0.43866
 C112 C 0.75819 0.45085 0.57201
 C113 C 0.23258 0.18547 0.16698
 C114 C 0.19937 0.20064 0.14785
 C115 C 0.18415 0.23372 0.16725
 C116 C 0.20523 0.25506 0.20359
 C117 C 0.23981 0.24103 0.22256
 C118 C 0.25389 0.20650 0.20343
 C119 C 0.28968 0.19528 0.21909
 C120 C 0.31019 0.21581 0.25553
 C121 C 0.29581 0.24843 0.27792
 C122 C 0.26087 0.26209 0.25975
 C123 C 0.19393 0.29081 0.21936
 C124 C 0.21456 0.31141 0.25562
 C125 C 0.24729 0.29711 0.27786
 C126 C 0.26821 0.31766 0.31527
 C127 C 0.30325 0.30435 0.33029
 C128 C 0.31626 0.26916 0.31552
 H129 H 0.30310 0.17144 0.20183
 H130 H 0.33823 0.20672 0.26371
 H131 H 0.16991 0.30413 0.20233
 H132 H 0.20540 0.33940 0.26386
 H133 H 0.18509 0.18638 0.11633
 H134 H 0.32042 0.32139 0.35603
 C135 C 0.73645 0.68523 0.32999
 C136 C 0.70437 0.70155 0.35083
 C137 C 0.68824 0.73367 0.32971
 C138 C 0.70822 0.75383 0.29079
 C139 C 0.74263 0.73955 0.27149
 C140 C 0.75667 0.70502 0.29092
 C141 C 0.79081 0.69192 0.27154
 C142 C 0.81023 0.71124 0.23267
 C143 C 0.79755 0.74565 0.21348
 C144 C 0.76318 0.75997 0.23287
 C145 C 0.69543 0.78816 0.27146
 C146 C 0.71496 0.80757 0.23277
 C147 C 0.74919 0.79455 0.21356
 C148 C 0.76958 0.81454 0.17485
 C149 C 0.80169 0.79829 0.15402
 C150 C 0.81759 0.76587 0.17465
 H151 H 0.80344 0.66689 0.28654
 H152 H 0.83503 0.69832 0.21755
 H153 H 0.67050 0.80096 0.28643
 H154 H 0.70237 0.83265 0.21781
 H155 H 0.69134 0.68863 0.38450
 H156 H 0.81486 0.81139 0.12060
 C157 C 0.81484 0.23496 0.18229
 C158 C 0.80272 0.19873 0.16935
 C159 C 0.76787 0.18418 0.18452
 C160 C 0.74660 0.20424 0.22134
 C161 C 0.75932 0.24023 0.23810
 C162 C 0.79356 0.25569 0.21854
 C163 C 0.80597 0.29056 0.23737
 C164 C 0.78503 0.31053 0.27334
 C165 C 0.75150 0.29578 0.29379
 C166 C 0.73798 0.26058 0.27511
 C167 C 0.71430 0.18859 0.24418
 C168 C 0.69308 0.20880 0.27957
 C169 C 0.70348 0.24536 0.29401
 C170 C 0.68129 0.26682 0.32819
 C171 C 0.69600 0.30062 0.34733
 C172 C 0.73115 0.31485 0.33273
 H173 H 0.83256 0.30247 0.22614
 H174 H 0.79552 0.33781 0.28444
 H175 H 0.70584 0.15999 0.23683
 H176 H 0.66938 0.19464 0.29700
 H177 H 0.82041 0.18175 0.14484
 H178 H 0.67951 0.31621 0.37488
 C179 C 0.32152 0.73056 0.31515
 C180 C 0.30813 0.69513 0.33000
 C181 C 0.27301 0.68122 0.31487
 C182 C 0.25242 0.70129 0.27715
 C183 C 0.26626 0.73658 0.25902
 C184 C 0.30121 0.75101 0.27748
 C185 C 0.31571 0.78408 0.25528
 C186 C 0.29540 0.80418 0.21861
 C187 C 0.25974 0.79201 0.20244
 C188 C 0.24548 0.75713 0.22148
 C189 C 0.21973 0.68624 0.25465
 C190 C 0.19939 0.70633 0.21803
 C191 C 0.21095 0.74230 0.20215
 C192 C 0.19029 0.76303 0.16518
 C193 C 0.20596 0.79624 0.14543
 C194 C 0.23879 0.81241 0.16545
 H195 H 0.34368 0.79389 0.26380
 H196 H 0.30892 0.82841 0.20144
 H197 H 0.21042 0.65802 0.26296
 H198 H 0.17549 0.69246 0.20066
 H199 H 0.32512 0.67833 0.35579
 H200 H 0.19199 0.81009 0.11350
 C201 C 0.81352 0.23105 0.82118
 C202 C 0.80036 0.19553 0.83595
 C203 C 0.76473 0.18201 0.82255
 C204 C 0.74320 0.20269 0.78648
 C205 C 0.75685 0.23805 0.76823
 C206 C 0.79240 0.25199 0.78501
 C207 C 0.80662 0.28514 0.76271
 C208 C 0.78556 0.30581 0.72758
 C209 C 0.74942 0.29406 0.71292
 C210 C 0.73526 0.25918 0.73221
 C211 C 0.70977 0.18820 0.76556
 C212 C 0.68870 0.20879 0.73028
 C213 C 0.70014 0.24480 0.71436
 C214 C 0.67876 0.26606 0.67876
 C215 C 0.69401 0.29964 0.65944
 C216 C 0.72776 0.31509 0.67743
 H217 H 0.83489 0.29464 0.76995
 H218 H 0.79873 0.33032 0.71064
 H219 H 0.70040 0.16004 0.77392
 H220 H 0.66422 0.19527 0.71411
 H221 H 0.81787 0.17841 0.86063
 H222 H 0.67943 0.31375 0.62835
 C223 C 0.31730 0.73145 0.67789
 C224 C 0.30420 0.69561 0.66471
 C225 C 0.26829 0.68259 0.67775
 C226 C 0.24679 0.70373 0.71328
 C227 C 0.26085 0.73892 0.73138
 C228 C 0.29611 0.75295 0.71336
 C229 C 0.30939 0.78744 0.73243
 C230 C 0.28812 0.80869 0.76652
 C231 C 0.25361 0.79542 0.78560
 C232 C 0.23959 0.76017 0.76763
 C233 C 0.21231 0.69042 0.73243
 C234 C 0.19109 0.71162 0.76667
 C235 C 0.20435 0.74613 0.78570
 C236 C 0.18313 0.76767 0.82108
 C237 C 0.19617 0.80358 0.83407
 C238 C 0.23204 0.81664 0.82095
 H239 H 0.33670 0.79827 0.72227
 H240 H 0.29895 0.83599 0.77660
 H241 H 0.20149 0.66312 0.72231
 H242 H 0.16382 0.70075 0.77691
 H243 H 0.32193 0.67783 0.64145
 H244 H 0.17837 0.82138 0.85720
 C245 C 0.22664 0.18342 0.82463
 C246 C 0.19117 0.19630 0.83824
 C247 C 0.17862 0.23194 0.82459
 C248 C 0.19983 0.25334 0.78832
 C249 C 0.23463 0.23944 0.76991
 C250 C 0.24817 0.20446 0.78834
 C251 C 0.28231 0.19130 0.76903
 C252 C 0.30364 0.21246 0.73415
 C253 C 0.29079 0.24671 0.71466
 C254 C 0.25595 0.26058 0.73296
 C255 C 0.18700 0.28760 0.76885
 C256 C 0.20831 0.30873 0.73388
 C257 C 0.24240 0.29556 0.71449
 C258 C 0.26407 0.31666 0.67840
 C259 C 0.29962 0.30383 0.66505
 C260 C 0.31207 0.26814 0.67854
 H261 H 0.29285 0.16423 0.77978
 H262 H 0.33068 0.20178 0.72376
 H263 H 0.16004 0.29836 0.77945
 H264 H 0.19790 0.33586 0.72341
 H265 H 0.17312 0.17842 0.86159
 H266 H 0.31759 0.32167 0.64147
 C267 C 0.73405 0.68659 0.67767
 C268 C 0.69875 0.69964 0.66342
 C269 C 0.68590 0.73506 0.67743
 C270 C 0.70671 0.75609 0.71447
 C271 C 0.74137 0.74206 0.73335
 C272 C 0.75519 0.70731 0.71465
 C273 C 0.78917 0.69403 0.73442
 C274 C 0.81005 0.71480 0.77016
 C275 C 0.79691 0.74877 0.79000
 C276 C 0.76220 0.76276 0.77122
 C277 C 0.69357 0.79008 0.73430
 C278 C 0.71437 0.81075 0.77026
 C279 C 0.74830 0.79742 0.79011
 C280 C 0.76936 0.81802 0.82730
 C281 C 0.80476 0.80511 0.84133
 C282 C 0.81772 0.76980 0.82704
 H283 H 0.79994 0.66716 0.72337
 H284 H 0.83693 0.70397 0.78111
 H285 H 0.66674 0.80094 0.72324
 H286 H 0.70362 0.83763 0.78135
 H287 H 0.68090 0.68194 0.63963
 H288 H 0.82250 0.82283 0.86522
 C289 C 0.26560 0.11413 0.16779
 C290 C 0.23501 0.08667 0.14713
 C291 C 0.25611 0.08393 0.09513
 C292 C 0.28706 0.11063 0.11503
 C293 C 0.23415 0.11711 0.07288
 C294 C 0.21299 0.12000 0.12504
 C295 C 0.24363 0.14751 0.14507
 C296 C 0.26484 0.14427 0.09297
 H297 H 0.27809 0.11187 0.20733
 H298 H 0.22276 0.06269 0.16926
 H299 H 0.31765 0.10640 0.11081
 H300 H 0.22097 0.11835 0.03363
 H301 H 0.18217 0.12249 0.12918
 H302 H 0.27710 0.16808 0.07051
 C303 C 0.78538 0.63557 0.63537
 C304 C 0.77415 0.59612 0.65687
 C305 C 0.75767 0.58595 0.60321
 C306 C 0.76913 0.62455 0.58142
 C307 C 0.71922 0.60106 0.61937
 C308 C 0.73540 0.61159 0.67337
 C309 C 0.74661 0.65043 0.65182
 C310 C 0.73071 0.63970 0.59754
 H311 H 0.81307 0.64964 0.64003
 H312 H 0.79214 0.57783 0.68105
 H313 H 0.78303 0.62967 0.54322
 H314 H 0.69165 0.58708 0.61294
 H315 H 0.72144 0.60627 0.71144
 H316 H 0.71342 0.65704 0.57103
 C317 C 0.78879 0.87840 0.12720
 C318 C 0.76374 0.88190 0.07864
 C319 C 0.74533 0.91637 0.10318
 C320 C 0.77033 0.91295 0.15164
 C321 C 0.71501 0.89134 0.12857
 C322 C 0.73363 0.85640 0.10417
 C323 C 0.75872 0.85260 0.15272
 C324 C 0.74037 0.88726 0.17773
 H325 H 0.81962 0.87476 0.12650
 H326 H 0.77354 0.87974 0.03761
 H327 H 0.78540 0.93649 0.17104
 H328 H 0.68454 0.89708 0.12904
 H329 H 0.71853 0.83302 0.08446
 H330 H 0.73132 0.89052 0.21891
 C331 C 0.21339 0.36949 0.63677
 C332 C 0.22833 0.40881 0.65383
 C333 C 0.24291 0.41566 0.59811
 C334 C 0.22780 0.37721 0.58067
 C335 C 0.28084 0.39842 0.61224
 C336 C 0.26657 0.39121 0.66828
 C337 C 0.25170 0.35245 0.65118
 C338 C 0.26569 0.35990 0.59481
 H339 H 0.18486 0.35805 0.64432
 H340 H 0.21286 0.42930 0.67788
 H341 H 0.21179 0.37162 0.54431
 H342 H 0.30895 0.41002 0.60224
 H343 H 0.28260 0.39702 0.70457
 H344 H 0.28063 0.34010 0.56896
 C345 C 0.86832 0.28734 0.14155
 C346 C 0.90735 0.27199 0.15736
 C347 C 0.91328 0.25857 0.10103
 C348 C 0.87512 0.27410 0.08476
 C349 C 0.89508 0.22036 0.11401
 C350 C 0.88884 0.23349 0.17063
 C351 C 0.85032 0.24873 0.15477
 C352 C 0.85685 0.23594 0.09778
 H353 H 0.85800 0.31587 0.15000
 H354 H 0.92850 0.28690 0.18167
 H355 H 0.86965 0.29091 0.04914
 H356 H 0.90575 0.19241 0.10281
 H357 H 0.89457 0.21667 0.20619
 H358 H 0.83634 0.22149 0.07188
 C359 C 0.39219 0.73201 0.67005
 C360 C 0.40064 0.71696 0.61487
 C361 C 0.41709 0.75550 0.59958
 C362 C 0.40901 0.77086 0.65442
 C363 C 0.37855 0.76820 0.58034
 C364 C 0.36202 0.72970 0.59564
 C365 C 0.35338 0.74449 0.65112
 C366 C 0.36963 0.78335 0.63551
 H367 H 0.39784 0.71705 0.70721
 H368 H 0.41315 0.68930 0.60646
 H369 H 0.42870 0.78790 0.67840
 H370 H 0.37307 0.78314 0.54315
 H371 H 0.34309 0.71324 0.56973
 H372 H 0.35725 0.81136 0.64159
 C373 C 0.14719 0.73111 0.09181
 C374 C 0.11333 0.70874 0.11452
 C375 C 0.08711 0.73989 0.09587
 C376 C 0.12056 0.76201 0.07302
 C377 C 0.09137 0.76050 0.14809
 C378 C 0.11829 0.72968 0.16748
 C379 C 0.15186 0.75183 0.14410
 C380 C 0.12487 0.78269 0.12535
 H381 H 0.17026 0.71904 0.06845
 H382 H 0.10814 0.67819 0.10996
 H383 H 0.12149 0.77548 0.03389
 H384 H 0.06811 0.77257 0.17109
 H385 H 0.11632 0.71678 0.20686
 H386 H 0.12833 0.81348 0.12985
 C387 C 0.61328 0.28471 0.63818
 C388 C 0.61153 0.26591 0.58427
 C389 C 0.57822 0.24177 0.60319
 C390 C 0.57990 0.26052 0.65704
 C391 C 0.60496 0.21095 0.62147
 C392 C 0.63862 0.23534 0.60258
 C393 C 0.64084 0.25425 0.65648
 C394 C 0.60739 0.23003 0.67608
 H395 H 0.61546 0.31537 0.64511
 H396 H 0.61339 0.28114 0.54659
 H397 H 0.55542 0.27085 0.67924
 H398 H 0.60117 0.18046 0.61443
 H399 H 0.66286 0.22499 0.57989
 H400 H 0.60435 0.21568 0.71435
 C401 C 0.71405 0.12662 0.86206
 C402 C 0.73155 0.08810 0.84836
 C403 C 0.74377 0.08365 0.90554
 C404 C 0.72606 0.12126 0.91977
 C405 C 0.78146 0.10336 0.89399
 C406 C 0.76952 0.10818 0.83650
 C407 C 0.75211 0.14617 0.85028
 C408 C 0.76371 0.14107 0.90810
 H409 H 0.68545 0.13562 0.85133
 H410 H 0.71826 0.06595 0.82400
 H411 H 0.70813 0.12649 0.95432
 H412 H 0.80957 0.09424 0.90700
 H413 H 0.78748 0.10275 0.80202
 H414 H 0.77661 0.16267 0.93385
 C415 C 0.22062 0.62809 0.35388
 C416 C 0.23581 0.58883 0.33897
 C417 C 0.24800 0.58290 0.39592
 C418 C 0.23261 0.62132 0.41123
 C419 C 0.28665 0.60058 0.38441
 C420 C 0.27477 0.60686 0.32716
 C421 C 0.25962 0.64555 0.34216
 C422 C 0.27123 0.63909 0.39967
 H423 H 0.19270 0.63913 0.34342
 H424 H 0.22113 0.56777 0.31425
 H425 H 0.21514 0.62709 0.44606
 H426 H 0.31417 0.58954 0.39693
 H427 H 0.29221 0.60091 0.29234
 H428 H 0.28536 0.65950 0.42605
 C429 C 0.28353 0.86984 0.86241
 C430 C 0.27010 0.90898 0.84366
 C431 C 0.25501 0.91673 0.89874
 C432 C 0.26862 0.87843 0.91784
 C433 C 0.21670 0.89952 0.88420
 C434 C 0.23150 0.89141 0.82878
 C435 C 0.24488 0.85282 0.84752
 C436 C 0.23035 0.86114 0.90325
 H437 H 0.31176 0.85809 0.85600
 H438 H 0.28655 0.92904 0.81935
 H439 H 0.28383 0.87330 0.95494
 H440 H 0.18888 0.91150 0.89309
 H441 H 0.21614 0.89679 0.79188
 H442 H 0.21445 0.84182 0.92938
 C443 C 0.73346 0.38964 0.33805
 C444 C 0.71774 0.39988 0.39226
 C445 C 0.75652 0.41538 0.40800
 C446 C 0.77253 0.40549 0.35411
 C447 C 0.76752 0.37687 0.42953
 C448 C 0.72874 0.36132 0.41383
 C449 C 0.74416 0.35088 0.35936
 C450 C 0.78326 0.36611 0.37532
 H451 H 0.71933 0.39486 0.30017
 H452 H 0.69040 0.41353 0.39901
 H453 H 0.79066 0.42402 0.32978
 H454 H 0.78156 0.37185 0.46754
 H455 H 0.71144 0.34386 0.44075
 H456 H 0.81061 0.35221 0.36991
 C457 C 0.12719 0.28337 0.86667
 C458 C 0.08763 0.27057 0.84752
 C459 C 0.07920 0.25494 0.90227
 C460 C 0.11785 0.26799 0.92182
 C461 C 0.09499 0.21657 0.88715
 C462 C 0.10383 0.23189 0.83202
 C463 C 0.14280 0.24467 0.85120
 C464 C 0.13374 0.22966 0.90663
 H465 H 0.14015 0.31146 0.86052
 H466 H 0.06827 0.28748 0.82344
 H467 H 0.12343 0.28280 0.95918
 H468 H 0.08205 0.18871 0.89542
 H469 H 0.09808 0.21698 0.79482
 H470 H 0.15232 0.21337 0.93273
 C471 C 0.61568 0.76360 0.32731
 C472 C 0.58986 0.73328 0.35237
 C473 C 0.58659 0.75739 0.40165
 C474 C 0.61173 0.78808 0.37731
 C475 C 0.62095 0.73837 0.42561
 C476 C 0.62429 0.71419 0.37623
 C477 C 0.65023 0.74462 0.35176
 C478 C 0.64656 0.76883 0.40113
 H479 H 0.61235 0.77342 0.28646
 H480 H 0.56625 0.71867 0.33245
 H481 H 0.60614 0.81859 0.37786
 H482 H 0.62309 0.72784 0.46634
 H483 H 0.62786 0.68334 0.37587
 H484 H 0.67001 0.78347 0.42138
 C485 C 0.86363 0.77224 0.90832
 C486 C 0.87920 0.73375 0.92369
 C487 C 0.91780 0.74621 0.90314
 C488 C 0.90235 0.78473 0.88784
 C489 C 0.90855 0.73046 0.84878
 C490 C 0.86904 0.71827 0.86897
 C491 C 0.85376 0.75709 0.85330
 C492 C 0.89268 0.76928 0.83309
 H493 H 0.84564 0.78884 0.93476
 H494 H 0.87383 0.71916 0.96135
 H495 H 0.91577 0.81244 0.89544
 H496 H 0.92739 0.71318 0.82451
 H497 H 0.85556 0.69038 0.86330
 H498 H 0.89821 0.78396 0.79557
 C499 C 0.39035 0.27181 0.32972
 C500 C 0.39583 0.28312 0.38735
 C501 C 0.41301 0.24461 0.39855
 C502 C 0.40786 0.23301 0.34121
 C503 C 0.37425 0.22836 0.41251
 C504 C 0.35699 0.26682 0.40126
 C505 C 0.35132 0.25580 0.34335
 C506 C 0.36827 0.21693 0.35474
 H507 H 0.39699 0.28978 0.29544
 H508 H 0.40686 0.31070 0.40073
 H509 H 0.42916 0.21899 0.31677
 H510 H 0.36781 0.21033 0.44678
 H511 H 0.33627 0.28035 0.42724
 H512 H 0.35723 0.18889 0.34349
 C513 C 0.71766 0.86851 0.87016
 C514 C 0.73336 0.87845 0.92483
 C515 C 0.74525 0.91737 0.90467
 C516 C 0.72932 0.90829 0.85032
 C517 C 0.78380 0.90238 0.88878
 C518 C 0.77187 0.86340 0.90897
 C519 C 0.75653 0.85377 0.85399
 C520 C 0.76817 0.89294 0.83409
 H521 H 0.68993 0.85473 0.86448
 H522 H 0.71903 0.87270 0.96255
 H523 H 0.71169 0.92712 0.82644
 H524 H 0.81136 0.91607 0.89631
 H525 H 0.78882 0.84543 0.93508
 H526 H 0.78257 0.89889 0.79651
 C527 C 0.26659 0.35920 0.40030
 C528 C 0.28366 0.39761 0.38568
 C529 C 0.24557 0.41570 0.39651
 C530 C 0.22854 0.37737 0.41120
 C531 C 0.23379 0.41027 0.33927
 C532 C 0.27217 0.39184 0.32815
 C533 C 0.25539 0.35321 0.34248
 C534 C 0.21693 0.37110 0.35353
 H535 H 0.27969 0.33842 0.42673
 H536 H 0.31145 0.40821 0.39886
 H537 H 0.21050 0.37159 0.44564
 H538 H 0.22021 0.43164 0.31437
 H539 H 0.29021 0.39785 0.29376
 H540 H 0.18864 0.36060 0.34257
 C541 C 0.22311 0.13684 0.90538
 C542 C 0.21262 0.09778 0.88416
 C543 C 0.25128 0.08373 0.90120
 C544 C 0.26174 0.12267 0.92246
 C545 C 0.26806 0.09380 0.84766
 C546 C 0.22910 0.10829 0.83019
 C547 C 0.23931 0.14750 0.85117
 C548 C 0.27824 0.13362 0.86859
 H549 H 0.20521 0.15401 0.93120
 H550 H 0.18529 0.08325 0.89041
 H551 H 0.27520 0.12840 0.96077
 H552 H 0.28666 0.07571 0.82417
 H553 H 0.21561 0.10244 0.79197
 H554 H 0.30566 0.14826 0.86409
 C555 C 0.71667 0.62149 0.37680
 C556 C 0.73622 0.58688 0.35435
 C557 C 0.75961 0.58421 0.40443
 C558 C 0.74012 0.61877 0.42699
 C559 C 0.79053 0.60924 0.38046
 C560 C 0.76678 0.61258 0.32963
 C561 C 0.74732 0.64733 0.35270
 C562 C 0.77081 0.64424 0.40288
 H563 H 0.68584 0.62498 0.37538
 H564 H 0.72200 0.56299 0.33453
 H565 H 0.72896 0.62130 0.46729
 H566 H 0.82104 0.60379 0.38210
 H567 H 0.77716 0.60871 0.28919
 H568 H 0.78506 0.66795 0.42306
 C569 C 0.10847 0.76879 0.83002
 C570 C 0.09055 0.73024 0.84482
 C571 C 0.08344 0.74511 0.90015
 C572 C 0.10095 0.78336 0.88573
 C573 C 0.12164 0.73088 0.91851
 C574 C 0.12966 0.71624 0.86275
 C575 C 0.14703 0.75482 0.84796
 C576 C 0.13927 0.76908 0.90398
 H577 H 0.10303 0.78445 0.79336
 H578 H 0.07014 0.71420 0.82067
 H579 H 0.08948 0.81134 0.89503
 H580 H 0.12690 0.71537 0.95537
 H581 H 0.14098 0.68788 0.85586
 H582 H 0.15897 0.78459 0.92990
 C583 C 0.64018 0.23865 0.40479
 C584 C 0.61172 0.26904 0.41891
 C585 C 0.57968 0.24289 0.40105
 C586 C 0.60782 0.21229 0.38694
 C587 C 0.58191 0.25914 0.34559
 C588 C 0.61410 0.28532 0.36335
 C589 C 0.64302 0.25504 0.34925
 C590 C 0.61082 0.22880 0.33073
 H591 H 0.66423 0.23024 0.42946
 H592 H 0.61220 0.28619 0.45496
 H593 H 0.60489 0.18209 0.39682
 H594 H 0.55759 0.26753 0.32145
 H595 H 0.61564 0.31561 0.35348
 H596 H 0.60899 0.21262 0.29385
 C597 C 0.85634 0.23281 0.90492
 C598 C 0.89450 0.21693 0.88895
 C599 C 0.91271 0.25542 0.89995
 C600 C 0.87463 0.27125 0.91597
 C601 C 0.90642 0.26765 0.84309
 C602 C 0.88787 0.22886 0.83180
 C603 C 0.84949 0.24445 0.84749
 C604 C 0.86749 0.28330 0.85871
 H605 H 0.83599 0.21886 0.93166
 H606 H 0.90531 0.18927 0.90134
 H607 H 0.86937 0.28879 0.95088
 H608 H 0.92741 0.28209 0.81789
 H609 H 0.89333 0.21132 0.79694
 H610 H 0.85679 0.31143 0.84855
 C611 C 0.39548 0.72809 0.32938
 C612 C 0.41415 0.76685 0.34046
 C613 C 0.41898 0.75536 0.39792
 C614 C 0.40064 0.71690 0.38711
 C615 C 0.38070 0.77178 0.41172
 C616 C 0.37502 0.78309 0.35381
 C617 C 0.35690 0.74425 0.34281
 C618 C 0.36229 0.73336 0.40085
 H619 H 0.40161 0.71001 0.29529
 H620 H 0.43584 0.78073 0.31584
 H621 H 0.41085 0.68931 0.40076
 H622 H 0.37479 0.78990 0.44582
 H623 H 0.36490 0.81119 0.34240
 H624 H 0.34117 0.71995 0.42697
 C625 C 0.27095 0.88498 0.16805
 C626 C 0.29205 0.89032 0.11521
 C627 C 0.26057 0.91604 0.09634
 C628 C 0.23979 0.91142 0.14843
 C629 C 0.23911 0.88224 0.07342
 C630 C 0.27034 0.85611 0.09242
 C631 C 0.24945 0.85107 0.14457
 C632 C 0.21827 0.87757 0.12561
 H633 H 0.28361 0.88712 0.20751
 H634 H 0.32252 0.89601 0.11083
 H635 H 0.22725 0.93447 0.17131
 H636 H 0.22585 0.88110 0.03420
 H637 H 0.28288 0.83324 0.06918
 H638 H 0.18752 0.87362 0.12992
 C639 C 0.71024 0.37950 0.63060
 C640 C 0.73075 0.41353 0.65471
 C641 C 0.75505 0.41667 0.60542
 C642 C 0.73464 0.38268 0.58126
 C643 C 0.78464 0.39091 0.62954
 C644 C 0.75995 0.38710 0.67953
 C645 C 0.73952 0.35301 0.65486
 C646 C 0.76397 0.35649 0.60554
 H647 H 0.67925 0.37667 0.63082
 H648 H 0.71716 0.43729 0.67482
 H649 H 0.72408 0.38087 0.54054
 H650 H 0.81536 0.39603 0.62902
 H651 H 0.77000 0.38945 0.72041
 H652 H 0.77759 0.33288 0.58513
 C653 C 0.76769 0.14110 0.10095
 C654 C 0.78330 0.10291 0.11748
 C655 C 0.74495 0.08474 0.10549
 C656 C 0.72938 0.12287 0.08895
 C657 C 0.73204 0.09106 0.16203
 C658 C 0.77069 0.10959 0.17431
 C659 C 0.75535 0.14797 0.15805
 C660 C 0.71665 0.13004 0.14586
 H661 H 0.78193 0.16138 0.07438
 H662 H 0.81108 0.09206 0.10585
 H663 H 0.71232 0.12817 0.05354
 H664 H 0.71726 0.07009 0.18690
 H665 H 0.78778 0.10413 0.20965
 H666 H 0.68857 0.14096 0.15565
 C667 C 0.26929 0.60797 0.66770
 C668 C 0.23070 0.59024 0.65312
 C669 C 0.24521 0.58356 0.59745
 C670 C 0.28351 0.60094 0.61170
 C671 C 0.23098 0.62200 0.57993
 C672 C 0.21665 0.62953 0.63598
 C673 C 0.25529 0.64672 0.65053
 C674 C 0.26923 0.63946 0.59421
 H675 H 0.28513 0.60214 0.70405
 H676 H 0.21474 0.56963 0.67716
 H677 H 0.31137 0.58946 0.60177
 H678 H 0.21514 0.62764 0.54356
 H679 H 0.18833 0.64078 0.64338
 H680 H 0.28468 0.65940 0.56844
 C681 C 0.88972 0.73435 0.17481
 C682 C 0.89267 0.71098 0.12364
 C683 C 0.91820 0.74170 0.10019
 C684 C 0.91591 0.76472 0.15060
 C685 C 0.88401 0.76199 0.07784
 C686 C 0.85804 0.73149 0.10142
 C687 C 0.85532 0.75461 0.15195
 C688 C 0.88166 0.78506 0.12836
 H689 H 0.89347 0.72357 0.21511
 H690 H 0.89760 0.68037 0.12158
 H691 H 0.94000 0.77837 0.17069
 H692 H 0.88167 0.77355 0.03768
 H693 H 0.83412 0.71782 0.08097
 H694 H 0.87864 0.81595 0.13022
 C695 C 0.35683 0.27023 0.59628
 C696 C 0.39585 0.28258 0.61561
 C697 C 0.41099 0.24401 0.60010
 C698 C 0.37204 0.23170 0.58078
 C699 C 0.40241 0.22840 0.65485
 C700 C 0.38691 0.26727 0.67070
 C701 C 0.34770 0.25519 0.65166
 C702 C 0.36262 0.21630 0.63585
 H703 H 0.33849 0.28694 0.57037
 H704 H 0.40928 0.31020 0.60737
 H705 H 0.36608 0.21700 0.54351
 H706 H 0.42153 0.21106 0.67870
 H707 H 0.39302 0.28198 0.70794
 H708 H 0.34920 0.18842 0.64195
 C709 C 0.11261 0.26550 0.17036
 C710 C 0.10834 0.28844 0.11890
 C711 C 0.08184 0.25775 0.09772
 C712 C 0.08542 0.23515 0.14846
 C713 C 0.11513 0.23694 0.07380
 C714 C 0.14206 0.26739 0.09512
 C715 C 0.14603 0.24469 0.14592
 C716 C 0.11879 0.21427 0.12463
 H717 H 0.11075 0.27681 0.21060
 H718 H 0.10361 0.31907 0.11645
 H719 H 0.06182 0.22194 0.17024
 H720 H 0.11613 0.22502 0.03379
 H721 H 0.16549 0.28062 0.07300
 H722 H 0.12158 0.18336 0.12697
 C723 C 0.64087 0.73300 0.59543
 C724 C 0.60230 0.71940 0.61498
 C725 C 0.58598 0.75766 0.60019
 C726 C 0.62451 0.77123 0.58064
 C727 C 0.59445 0.77296 0.65507
 C728 C 0.61110 0.73439 0.67018
 C729 C 0.64991 0.74771 0.65095
 C730 C 0.63383 0.78632 0.63586
 H731 H 0.65952 0.71708 0.56906
 H732 H 0.58960 0.69149 0.60651
 H733 H 0.62983 0.78635 0.54337
 H734 H 0.57499 0.78950 0.67940
 H735 H 0.60555 0.71914 0.70726
 H736 H 0.64650 0.81449 0.64225
   
