data_POSCAR
  _audit_creation_date              2014-09-24
  _audit_creation_method            'ToBaCCo'
  _symmetry_space_group_name_H-M    'P1'
  _symmetry_Int_Tables_number       1
  _symmetry_cell_setting            triclinic
  loop_
  _symmetry_equiv_pos_as_xyz
 x,y,z
_cell_length_a 31.6357
_cell_length_b 31.3598
_cell_length_c 31.6214
_cell_angle_alpha 90.501100
_cell_angle_beta 90.399700
_cell_angle_gamma 89.670600
loop_
  _atom_site_label
  _atom_site_type_symbol
  _atom_site_fract_x
  _atom_site_fract_y
  _atom_site_fract_z
C1 C 0.17118 1.22035 0.22675
 C2 C 0.15348 1.25763 0.20971
 C3 C 0.16972 1.27509 0.17242
 C4 C 0.20487 1.25576 0.15303
 C5 C 0.22309 1.21871 0.16986
 C6 C 0.20588 1.20059 0.20657
 C7 C 0.15366 1.20156 0.26267
 C8 C 0.16968 1.16276 0.27812
 C9 C 0.20460 1.14352 0.25817
 C10 C 0.22271 1.16212 0.22248
 C11 C 0.25656 1.14214 0.20165
 C12 C 0.27369 1.16006 0.16508
 C13 C 0.25725 1.19860 0.14969
 H14 H 0.12613 1.27195 0.22470
 H15 H 0.21726 1.26894 0.12407
 H16 H 0.12667 1.21645 0.27793
 H17 H 0.21744 1.11377 0.26983
 H18 H 0.26923 1.11248 0.21374
 H19 H 0.27043 1.21229 0.12134
 C20 C 0.83520 0.78334 0.21787
 C21 C 0.85456 0.74781 0.19882
 C22 C 0.83632 0.72814 0.16306
 C23 C 0.79844 0.74457 0.14614
 C24 C 0.77894 0.78038 0.16461
 C25 C 0.79713 0.79963 0.20086
 C26 C 0.85391 0.80357 0.25293
 C27 C 0.83489 0.83965 0.27156
 C28 C 0.79672 0.85550 0.25477
 C29 C 0.77791 0.83594 0.21935
 C30 C 0.74104 0.85304 0.20115
 C31 C 0.72354 0.83464 0.16445
 C32 C 0.74231 0.79813 0.14660
 H33 H 0.88416 0.73566 0.21152
 H34 H 0.78454 0.73031 0.11805
 H35 H 0.88367 0.79161 0.26544
 H36 H 0.78220 0.88379 0.26829
 H37 H 0.72692 0.88151 0.21472
 H38 H 0.72888 0.78424 0.11804
 C39 C 0.83354 1.22109 -0.22034
 C40 C 0.85266 1.25677 -0.20137
 C41 C 0.83742 1.27326 -0.16294
 C42 C 0.80227 1.25450 -0.14389
 C43 C 0.78248 1.21916 -0.16270
 C44 C 0.79828 1.20221 -0.20099
 C45 C 0.85011 1.20296 -0.25744
 C46 C 0.83267 1.16553 -0.27482
 C47 C 0.79666 1.14774 -0.25622
 C48 C 0.77941 1.16580 -0.21942
 C49 C 0.74447 1.14716 -0.19992
 C50 C 0.72895 1.16366 -0.16164
 C51 C 0.74792 1.19975 -0.14326
 H52 H 0.88017 1.27075 -0.21582
 H53 H 0.79087 1.26708 -0.11400
 H54 H 0.87762 1.21706 -0.27193
 H55 H 0.78239 1.11940 -0.26975
 H56 H 0.72992 1.11911 -0.21388
 H57 H 0.73605 1.21262 -0.11373
 C58 C 0.15689 0.77920 -0.21870
 C59 C 0.13827 0.74411 -0.19911
 C60 C 0.15762 0.72503 -0.16380
 C61 C 0.19658 0.74065 -0.14892
 C62 C 0.21534 0.77606 -0.16785
 C63 C 0.19543 0.79546 -0.20289
 C64 C 0.13699 0.79900 -0.25315
 C65 C 0.15502 0.83494 -0.27187
 C66 C 0.19345 0.85091 -0.25621
 C67 C 0.21359 0.83168 -0.22156
 C68 C 0.25085 0.84882 -0.20441
 C69 C 0.27028 0.83011 -0.16907
 C70 C 0.25283 0.79335 -0.15135
 H71 H 0.10851 0.73212 -0.21124
 H72 H 0.21167 0.72596 -0.12175
 H73 H 0.10734 0.78655 -0.26509
 H74 H 0.20717 0.87884 -0.27058
 H75 H 0.26426 0.87739 -0.21782
 H76 H 0.26747 0.77910 -0.12380
 C77 C 0.55932 1.05996 -0.01790
 H78 H 0.55555 1.06402 0.01587
 C79 C 0.58959 1.08358 -0.03921
 H80 H 0.60895 1.10619 -0.02184
 C81 C 0.53976 1.02439 -0.08150
 H82 H 0.52104 1.00047 -0.09761
 C83 C 0.57013 1.04697 -0.10394
 H84 H 0.57399 1.04073 -0.13739
 N85 N 0.53502 1.03119 -0.03923
 C86 C 0.43742 1.01028 0.05484
 H87 H 0.44045 0.97608 0.05808
 C88 C 0.40779 1.03269 0.07890
 H89 H 0.38817 1.01573 0.10101
 C90 C 0.45845 1.07392 0.02116
 H91 H 0.47757 1.08966 -0.00211
 C92 C 0.42870 1.09750 0.04420
 H93 H 0.42568 1.13142 0.03897
 Zn94 Zn 0.49855 0.99713 -0.00681
 N95 N 0.46224 1.03110 0.02690
 C96 C 0.53700 0.96861 0.06970
 N97 N 0.53380 0.96240 0.02715
 C98 C 0.55877 0.93353 0.00673
 C99 C 0.58803 0.90904 0.02925
 C100 C 0.56623 0.94509 0.09338
 C101 C 0.43878 0.98471 -0.07069
 C102 C 0.40915 0.96271 -0.09527
 C103 C 0.42957 0.89773 -0.05989
 C104 C 0.45917 0.92089 -0.03624
 N105 N 0.46316 0.96363 -0.04201
 H106 H 0.51797 0.99277 0.08514
 H107 H 0.55635 0.93007 -0.02727
 H108 H 0.60805 0.88673 0.01234
 H109 H 0.56927 0.95091 0.12707
 H110 H 0.44187 1.01887 -0.07384
 H111 H 0.38954 0.98019 -0.11735
 H112 H 0.42583 0.86393 -0.05436
 H113 H 0.47780 0.90497 -0.01229
 C114 C 0.40288 1.07667 0.07326
 C115 C 0.59564 1.07665 -0.08256
 C116 C 0.40411 0.91877 -0.08963
 C117 C 0.59212 0.91499 0.07305
 C118 C -0.00806 0.56121 1.06789
 H119 H 0.02591 0.55859 1.07116
 C120 C -0.03018 0.59173 1.09143
 H121 H -0.01298 0.61244 1.11290
 C122 C -0.07136 0.53873 1.03410
 H123 H -0.08708 0.51892 1.01079
 C124 C -0.09463 0.56919 1.05668
 H125 H -0.12831 0.57236 1.05105
 N126 N -0.02884 0.53533 1.04008
 C127 C 0.06769 0.43796 1.01870
 H128 H 0.07025 0.44012 0.98468
 C129 C 0.09253 0.40862 1.04076
 H130 H 0.11417 0.38828 1.02345
 C131 C 0.03464 0.46059 1.08217
 H132 H 0.01120 0.48005 1.09799
 C133 C 0.05857 0.43129 1.10542
 H134 H 0.05376 0.42859 1.13917
 Zn135 Zn 0.00459 0.49874 1.00607
 N136 N 0.03963 0.46335 1.03957
 C137 C 0.07963 0.53873 0.97728
 N138 N 0.03717 0.53461 0.97154
 C139 C 0.01570 0.55913 0.94328
 C140 C 0.03702 0.58896 0.91905
 C141 C 0.10213 0.56867 0.95406
 C142 C -0.05747 0.43706 0.99389
 C143 C -0.08207 0.40735 0.97190
 C144 C -0.04820 0.42850 0.90720
 C145 C -0.02451 0.45818 0.93036
 N146 N -0.02967 0.46200 0.97292
 H147 H 0.09590 0.51986 1.00080
 H148 H -0.01820 0.55587 0.94006
 H149 H 0.01954 0.60849 0.89684
 H150 H 0.13575 0.57210 0.95943
 H151 H -0.06016 0.44003 1.02787
 H152 H -0.10370 0.38755 0.98921
 H153 H -0.04341 0.42515 0.87345
 H154 H -0.00124 0.47723 0.91447
 C155 C 0.08781 0.40492 1.08460
 C156 C -0.07392 0.59611 1.08561
 C157 C -0.07737 0.40278 0.92806
 C158 C 0.08059 0.59436 0.92484
 C159 C 1.05232 -0.00826 0.56700
 H160 H 1.05120 0.02619 0.56904
 C161 C 1.07449 -0.03147 0.59747
 H162 H 1.09057 -0.01486 0.62303
 C163 C 1.03109 -0.07206 0.53238
 H164 H 1.01308 -0.08788 0.50781
 C165 C 1.05328 -0.09649 0.56196
 H166 H 1.05237 -0.13090 0.55957
 N167 N 1.03117 -0.02873 0.53528
 C168 C 1.01392 0.06336 0.43438
 H169 H 0.97985 0.06252 0.43142
 C170 C 1.03765 0.08637 0.40551
 H171 H 1.02178 0.10337 0.38025
 C172 C 1.07633 0.04021 0.46949
 H173 H 1.09129 0.02118 0.49372
 C174 C 1.10127 0.06325 0.44151
 H175 H 1.13534 0.06187 0.44454
 Zn176 Zn 0.99852 0.00563 0.49833
 N177 N 1.03349 0.04054 0.46527
 C178 C 0.96732 0.08228 0.53552
 N179 N 0.96274 0.03922 0.53286
 C180 C 0.93522 0.01829 0.55805
 C181 C 0.91102 0.04075 0.58754
 C182 C 0.94417 0.10592 0.56514
 C183 C 0.98860 -0.05413 0.43309
 C184 C 0.96732 -0.07854 0.40269
 C185 C 0.90140 -0.04825 0.42710
 C186 C 0.92388 -0.02474 0.45740
 N187 N 0.96671 -0.02832 0.46004
 H188 H 0.99001 0.09814 0.51578
 H189 H 0.93285 -0.01606 0.55582
 H190 H 0.88965 0.02365 0.60785
 H191 H 0.94886 0.13999 0.56764
 H192 H 1.02274 -0.05542 0.43505
 H193 H 0.98531 -0.09866 0.38138
 H194 H 0.86738 -0.04479 0.42485
 H195 H 0.90714 -0.00297 0.47805
 C196 C 1.08181 0.08617 0.40879
 C197 C 1.07506 -0.07607 0.59506
 C198 C 0.92321 -0.07563 0.39954
 C199 C 0.91609 0.08490 0.59189
 C200 C 0.13478 0.37777 1.15103
 C201 C 0.11257 0.33788 1.16886
 C202 C 0.14901 0.30984 1.15198
 C203 C 0.17150 0.34931 1.13458
 C204 C 0.12555 0.30332 1.10967
 C205 C 0.08894 0.33166 1.12625
 C206 C 0.11133 0.37108 1.10871
 C207 C 0.14780 0.34306 1.09197
 H208 H 0.13848 0.40879 1.16779
 H209 H 0.09768 0.33654 1.20048
 H210 H 0.20566 0.35645 1.13830
 H211 H 0.12173 0.27239 1.09276
 H212 H 0.05478 0.32457 1.12252
 H213 H 0.16292 0.34481 1.06048
 C214 C -0.08194 0.65978 1.14400
 C215 C -0.09985 0.69908 1.12053
 C216 C -0.14225 0.69329 1.14319
 C217 C -0.12466 0.65430 1.16691
 C218 C -0.15857 0.66441 1.10700
 C219 C -0.11587 0.66988 1.08415
 C220 C -0.09816 0.63094 1.10778
 C221 C -0.14057 0.62504 1.13046
 H222 H -0.05055 0.65820 1.15979
 H223 H -0.08324 0.72984 1.11643
 H224 H -0.12855 0.64802 1.20115
 H225 H -0.19005 0.66547 1.09134
 H226 H -0.11195 0.67607 1.04990
 H227 H -0.15706 0.59421 1.13450
 C228 C -0.12518 0.37656 0.86192
 C229 C -0.10358 0.33632 0.84298
 C230 C -0.14006 0.30896 0.85962
 C231 C -0.16192 0.34881 0.87820
 C232 C -0.11617 0.30174 0.90150
 C233 C -0.07949 0.32939 0.88512
 C234 C -0.10128 0.36919 0.90380
 C235 C -0.13781 0.34185 0.92038
 H236 H -0.12881 0.40772 0.84587
 H237 H -0.08921 0.33458 0.81110
 H238 H -0.19606 0.35660 0.87505
 H239 H -0.11252 0.27060 0.91760
 H240 H -0.04535 0.32157 0.88827
 H241 H -0.15248 0.34377 0.95211
 C242 C 0.14850 0.64445 0.90747
 C243 C 0.15421 0.64492 0.85884
 C244 C 0.13760 0.69110 0.85801
 C245 C 0.13213 0.69106 0.90636
 C246 C 0.09190 0.67537 0.85166
 C247 C 0.10827 0.62877 0.85276
 C248 C 0.10286 0.62874 0.90105
 C249 C 0.08638 0.67498 0.90022
 H250 H 0.17212 0.63206 0.93044
 H251 H 0.18226 0.63277 0.84151
 H252 H 0.14189 0.71700 0.92840
 H253 H 0.06767 0.68750 0.82919
 H254 H 0.09835 0.60274 0.83091
 H255 H 0.05836 0.68721 0.91755
 C256 C 1.15534 0.11586 0.37553
 C257 C 1.15793 0.09760 0.32994
 C258 C 1.14907 0.14256 0.31253
 C259 C 1.14676 0.16106 0.35768
 C260 C 1.10116 0.13413 0.31242
 C261 C 1.10980 0.08912 0.33015
 C262 C 1.10744 0.10749 0.37533
 C263 C 1.09859 0.15238 0.35796
 H264 H 1.17789 0.10865 0.40157
 H265 H 1.18193 0.07410 0.31908
 H266 H 1.16220 0.19087 0.36876
 H267 H 1.07889 0.14161 0.28620
 H268 H 1.09434 0.05933 0.31905
 H269 H 1.07402 0.17481 0.36979
 C270 C 1.07936 -0.10322 0.67442
 C271 C 1.08835 -0.15177 0.67491
 C272 C 1.13310 -0.14274 0.69216
 C273 C 1.12423 -0.09443 0.69199
 C274 C 1.15056 -0.14075 0.64695
 C275 C 1.10559 -0.14958 0.62929
 C276 C 1.09672 -0.10125 0.62918
 C277 C 1.14144 -0.09220 0.64638
 H278 H 1.04985 -0.08753 0.68548
 H279 H 1.06576 -0.17599 0.68623
 H280 H 1.13196 -0.07185 0.71811
 H281 H 1.18009 -0.15644 0.63595
 H282 H 1.09830 -0.17268 0.60352
 H283 H 1.16318 -0.06752 0.63434
 C284 C 0.91703 -0.13559 0.33722
 C285 C 0.87587 -0.16109 0.34398
 C286 C 0.85599 -0.13878 0.30544
 C287 C 0.89685 -0.11356 0.29838
 C288 C 0.83835 -0.10289 0.33398
 C289 C 0.85863 -0.12492 0.37289
 C290 C 0.89948 -0.09966 0.36572
 C291 C 0.87949 -0.07745 0.32724
 H292 H 0.94931 -0.14959 0.33827
 H293 H 0.87410 -0.19570 0.35079
 H294 H 0.91242 -0.10890 0.26742
 H295 H 0.80598 -0.08907 0.33347
 H296 H 0.84316 -0.12951 0.40390
 H297 H 0.88129 -0.04282 0.32056
 C298 C 0.90071 0.15437 0.64218
 C299 C 0.85221 0.16117 0.64458
 C300 C 0.85296 0.14491 0.69032
 C301 C 0.90121 0.13835 0.68836
 C302 C 0.84571 0.09877 0.67482
 C303 C 0.84519 0.11474 0.62862
 C304 C 0.89336 0.10829 0.62668
 C305 C 0.89412 0.09220 0.67252
 H306 H 0.92338 0.17758 0.62908
 H307 H 0.83467 0.18970 0.63333
 H308 H 0.92433 0.14794 0.71319
 H309 H 0.82355 0.07498 0.68777
 H310 H 0.82234 0.10491 0.60364
 H311 H 0.91165 0.06371 0.68391
 C312 C 0.32324 1.08464 0.09926
 C313 C 0.32379 1.09146 0.14776
 C314 C 0.30849 1.13769 0.14133
 C315 C 0.30763 1.13098 0.09305
 C316 C 0.35439 1.15342 0.13942
 C317 C 0.37008 1.10693 0.14562
 C318 C 0.36921 1.10027 0.09738
 C319 C 0.35393 1.14648 0.09086
 H320 H 0.31055 1.05621 0.08243
 H321 H 0.31169 1.06814 0.17086
 H322 H 0.28159 1.14088 0.07150
 H323 H 0.36694 1.18190 0.15627
 H324 H 0.39616 1.09692 0.16706
 H325 H 0.36600 1.16947 0.06743
 C326 C 0.67600 1.10110 -0.08762
 C327 C 0.69258 1.09303 -0.13287
 C328 C 0.69307 1.14149 -0.14017
 C329 C 0.67682 1.14978 -0.09502
 C330 C 0.64752 1.14012 -0.15745
 C331 C 0.64665 1.09140 -0.14995
 C332 C 0.63039 1.09975 -0.10482
 C333 C 0.63085 1.14817 -0.11204
 H334 H 0.68758 1.08473 -0.05875
 H335 H 0.71832 1.07043 -0.14144
 H336 H 0.68890 1.17355 -0.07179
 H337 H 0.63607 1.15650 -0.18636
 H338 H 0.63463 1.06738 -0.17296
 H339 H 0.60506 1.17068 -0.10338
 C340 C 0.33044 0.87872 -0.08927
 C341 C 0.30236 0.89518 -0.12596
 C342 C 0.30742 0.85182 -0.14852
 C343 C 0.33523 0.83512 -0.11200
 C344 C 0.34669 0.86790 -0.17183
 C345 C 0.34191 0.91156 -0.14904
 C346 C 0.36970 0.89491 -0.11248
 C347 C 0.37494 0.85155 -0.13505
 H348 H 0.32392 0.88348 -0.05510
 H349 H 0.27215 0.91297 -0.12225
 H350 H 0.33306 0.80362 -0.09648
 H351 H 0.35315 0.86312 -0.20601
 H352 H 0.34431 0.94289 -0.16485
 H353 H 0.40519 0.83384 -0.13871
 C354 C 0.65332 0.85445 0.08185
 C355 C 0.69303 0.87744 0.09908
 C356 C 0.68706 0.85557 0.14196
 C357 C 0.64762 0.83235 0.12503
 C358 C 0.65963 0.89311 0.15780
 C359 C 0.66532 0.91515 0.11466
 C360 C 0.62592 0.89202 0.09763
 C361 C 0.61977 0.87014 0.14050
 H362 H 0.65104 0.83798 0.05073
 H363 H 0.72351 0.88041 0.08222
 H364 H 0.64056 0.79808 0.12962
 H365 H 0.66167 0.90928 0.18908
 H366 H 0.67244 0.94941 0.11009
 H367 H 0.58925 0.86721 0.15730
   
