data_POSCAR
  _audit_creation_date              2014-09-24
  _audit_creation_method            'ToBaCCo'
  _symmetry_space_group_name_H-M    'P1'
  _symmetry_Int_Tables_number       1
  _symmetry_cell_setting            triclinic
  loop_
  _symmetry_equiv_pos_as_xyz
 x,y,z
_cell_length_a 35.2679
_cell_length_b 35.3831
_cell_length_c 33.1178
_cell_angle_alpha 89.706700
_cell_angle_beta 89.503800
_cell_angle_gamma 89.373700
loop_
  _atom_site_label
  _atom_site_type_symbol
  _atom_site_fract_x
  _atom_site_fract_y
  _atom_site_fract_z
C1 C 0.31754 0.29640 0.23233
 H2 H 0.32120 0.29501 0.26470
 C3 C 0.34134 0.31899 0.20880
 H4 H 0.36304 0.33528 0.22346
 C5 C 0.28430 0.27729 0.17425
 H6 H 0.26214 0.26087 0.16081
 C7 C 0.30746 0.29951 0.14954
 H8 H 0.30146 0.30027 0.11769
 N9 N 0.28941 0.27645 0.21487
 C10 C 0.20436 0.26033 0.30951
 H11 H 0.20120 0.22998 0.30818
 C12 C 0.18177 0.28155 0.33601
 H13 H 0.16120 0.26671 0.35418
 C14 C 0.23383 0.31571 0.28483
 H15 H 0.25347 0.32906 0.26420
 C16 C 0.21187 0.33802 0.31085
 H17 H 0.21507 0.36842 0.31001
 Zn18 Zn 0.25820 0.24662 0.24887
 N19 N 0.23006 0.27753 0.28498
 C20 C 0.29051 0.21222 0.31861
 N21 N 0.29023 0.21288 0.27758
 C22 C 0.31386 0.19017 0.25569
 C23 C 0.33800 0.16441 0.27497
 C24 C 0.31419 0.18691 0.33914
 C25 C 0.19616 0.23958 0.19737
 C26 C 0.16873 0.22113 0.17479
 C27 C 0.19573 0.16146 0.19634
 C28 C 0.22265 0.18105 0.21838
 N29 N 0.22272 0.21945 0.21809
 H30 H 0.27250 0.23136 0.33557
 H31 H 0.31385 0.19208 0.22307
 H32 H 0.35676 0.14746 0.25642
 H33 H 0.31402 0.18687 0.37184
 H34 H 0.19626 0.27013 0.19852
 H35 H 0.14809 0.23834 0.15920
 H36 H 0.19610 0.13086 0.19710
 H37 H 0.24319 0.16546 0.23602
 C38 C 0.18564 0.32110 0.33743
 C39 C 0.33685 0.32064 0.16664
 C40 C 0.16842 0.18134 0.17362
 C41 C 0.33778 0.16177 0.31743
 C42 C 0.81500 0.79513 0.23317
 H43 H 0.81711 0.79396 0.26572
 C44 C 0.83900 0.81858 0.21092
 H45 H 0.85887 0.83590 0.22709
 C46 C 0.78508 0.77500 0.17349
 H47 H 0.76396 0.75804 0.15897
 C48 C 0.80851 0.79805 0.14997
 H49 H 0.80336 0.79908 0.11788
 N50 N 0.78854 0.77412 0.21431
 C51 C 0.70057 0.75453 0.30532
 H52 H 0.69880 0.72404 0.30426
 C53 C 0.67669 0.77498 0.33128
 H54 H 0.65691 0.75933 0.34962
 C55 C 0.72856 0.81091 0.28130
 H56 H 0.74835 0.82493 0.26137
 C57 C 0.70533 0.83245 0.30679
 H58 H 0.70783 0.86293 0.30639
 Zn59 Zn 0.75745 0.74288 0.24698
 N60 N 0.72620 0.77260 0.28144
 C61 C 0.78834 0.71003 0.31849
 N62 N 0.79009 0.71120 0.27749
 C63 C 0.81612 0.69024 0.25670
 C64 C 0.84055 0.66551 0.27699
 C65 C 0.81225 0.68568 0.34002
 C66 C 0.69862 0.73092 0.19192
 C67 C 0.67449 0.71005 0.16758
 C68 C 0.70456 0.65284 0.19190
 C69 C 0.72809 0.67480 0.21574
 N70 N 0.72534 0.71314 0.21468
 H71 H 0.76842 0.72789 0.33463
 H72 H 0.81769 0.69263 0.22415
 H73 H 0.86125 0.64992 0.25938
 H74 H 0.81043 0.68518 0.37267
 H75 H 0.69615 0.76142 0.19264
 H76 H 0.65327 0.72481 0.14990
 H77 H 0.70699 0.62249 0.19451
 H78 H 0.74824 0.66102 0.23542
 C79 C 0.67901 0.81469 0.33260
 C80 C 0.83698 0.81980 0.16833
 C81 C 0.67797 0.67040 0.16625
 C82 C 0.83807 0.66199 0.31931
 C83 C 0.80499 0.29892 0.72911
 H84 H 0.80569 0.30076 0.76170
 C85 C 0.83101 0.31904 0.70573
 H86 H 0.85156 0.33659 0.72063
 C87 C 0.77695 0.27416 0.67036
 H88 H 0.75596 0.25646 0.65665
 C89 C 0.80243 0.29384 0.64576
 H90 H 0.79954 0.29114 0.61355
 N91 N 0.77826 0.27750 0.71119
 C92 C 0.68452 0.27378 0.79774
 H93 H 0.68095 0.24357 0.80086
 C94 C 0.66064 0.29855 0.81889
 H95 H 0.63885 0.28710 0.83852
 C96 C 0.71733 0.32518 0.76837
 H97 H 0.73920 0.33552 0.74831
 C98 C 0.69411 0.35098 0.78897
 H99 H 0.69966 0.38061 0.78461
 Zn100 Zn 0.74342 0.25205 0.74527
 N101 N 0.71246 0.28738 0.77340
 C102 C 0.76858 0.22710 0.82244
 N103 N 0.77198 0.22222 0.78191
 C104 C 0.79721 0.19690 0.76621
 C105 C 0.81900 0.17396 0.79159
 C106 C 0.78983 0.20480 0.84902
 C107 C 0.68694 0.23859 0.68834
 C108 C 0.66213 0.21739 0.66511
 C109 C 0.68627 0.16089 0.69747
 C110 C 0.71062 0.18316 0.71997
 N111 N 0.71094 0.22126 0.71464
 H112 H 0.74971 0.24863 0.83435
 H113 H 0.80033 0.19452 0.73379
 H114 H 0.83915 0.15437 0.77809
 H115 H 0.78705 0.21052 0.88094
 H116 H 0.68717 0.26905 0.68537
 H117 H 0.64368 0.23247 0.64473
 H118 H 0.68652 0.13057 0.70213
 H119 H 0.72905 0.16990 0.74185
 C120 C 0.66500 0.33787 0.81467
 C121 C 0.83012 0.31683 0.66333
 C122 C 0.66171 0.17774 0.66917
 C123 C 0.81466 0.17644 0.83396
 C124 C 0.29956 0.80626 0.73386
 H125 H 0.30070 0.80869 0.76637
 C126 C 0.32511 0.82618 0.70964
 H127 H 0.34570 0.84418 0.72382
 C128 C 0.27134 0.77975 0.67611
 H129 H 0.25065 0.76125 0.66310
 C130 C 0.29634 0.79916 0.65071
 H131 H 0.29330 0.79546 0.61865
 N132 N 0.27310 0.78389 0.71683
 C133 C 0.18284 0.77541 0.80721
 H134 H 0.17987 0.74502 0.80850
 C135 C 0.15995 0.79842 0.83160
 H136 H 0.13900 0.78499 0.85059
 C137 C 0.21263 0.82894 0.77852
 H138 H 0.23272 0.84077 0.75731
 C139 C 0.19023 0.85302 0.80227
 H140 H 0.19338 0.88328 0.79890
 Zn141 Zn 0.24001 0.75712 0.75174
 N142 N 0.20922 0.79084 0.78214
 C143 C 0.26836 0.73182 0.82736
 N144 N 0.27047 0.72731 0.78666
 C145 C 0.29533 0.70225 0.76980
 C146 C 0.31797 0.67916 0.79420
 C147 C 0.29051 0.70934 0.85290
 C148 C 0.18238 0.74329 0.69626
 C149 C 0.15766 0.72189 0.67315
 C150 C 0.18358 0.66547 0.70410
 C151 C 0.20782 0.68794 0.72649
 N152 N 0.20726 0.72611 0.72173
 H153 H 0.24974 0.75306 0.84022
 H154 H 0.29729 0.70001 0.73727
 H155 H 0.33754 0.65934 0.78013
 H156 H 0.28859 0.71443 0.88496
 H157 H 0.18199 0.77379 0.69370
 H158 H 0.13866 0.73684 0.65323
 H159 H 0.18465 0.63508 0.70816
 H160 H 0.22693 0.67477 0.74774
 C161 C 0.16429 0.83793 0.83042
 C162 C 0.32402 0.82276 0.66734
 C163 C 0.15821 0.68218 0.67652
 C164 C 0.31501 0.68161 0.83651
 C165 C 0.04163 0.07220 0.02215
 H166 H 0.04123 0.07561 -0.01033
 C167 C 0.06387 0.09583 0.04555
 H168 H 0.08076 0.11728 0.03072
 C169 C 0.02081 0.03937 0.08055
 H170 H 0.00396 0.01734 0.09414
 C171 C 0.04266 0.06237 0.10515
 H172 H 0.04251 0.05651 0.13711
 N173 N 0.02119 0.04420 0.03981
 C174 C 0.01215 -0.04233 -0.05277
 H175 H -0.01827 -0.04581 -0.05381
 C176 C 0.03584 -0.06494 -0.07674
 H177 H 0.02335 -0.08588 -0.09613
 C178 C 0.06523 -0.01209 -0.02467
 H179 H 0.07669 0.00772 -0.00343
 C180 C 0.08998 -0.03413 -0.04803
 H181 H 0.11997 -0.03063 -0.04360
 Zn182 Zn -0.00653 0.01197 0.00571
 N183 N 0.02709 -0.01622 -0.02771
 C184 C -0.03799 0.04197 -0.06671
 N185 N -0.03941 0.04262 -0.02569
 C186 C -0.06384 0.06606 -0.00576
 C187 C -0.08946 0.08875 -0.02708
 C188 C -0.06307 0.06421 -0.08924
 C189 C -0.01508 -0.04912 0.05886
 C190 C -0.03416 -0.07603 0.08213
 C191 C -0.09345 -0.05008 0.05816
 C192 C -0.07321 -0.02369 0.03539
 N193 N -0.03473 -0.02321 0.03673
 H194 H -0.01740 0.02428 -0.08210
 H195 H -0.06350 0.06694 0.02689
 H196 H -0.10789 0.10751 -0.01011
 H197 H -0.06131 0.06334 -0.12188
 H198 H 0.01560 -0.04894 0.05825
 H199 H -0.01730 -0.09663 0.09830
 H200 H -0.12408 -0.05013 0.05629
 H201 H -0.08838 -0.00389 0.01641
 C202 C 0.07545 -0.06082 -0.07509
 C203 C 0.06476 0.09124 0.08778
 C204 C -0.07415 -0.07626 0.08301
 C205 C -0.09032 0.08719 -0.06960
 C206 C 0.05342 0.55659 0.52087
 H207 H 0.05634 0.55800 0.48835
 C208 C 0.07253 0.58225 0.54498
 H209 H 0.09038 0.60324 0.53070
 C210 C 0.02680 0.52727 0.57874
 H211 H 0.00867 0.50600 0.59183
 C212 C 0.04541 0.55236 0.60404
 H213 H 0.04147 0.54888 0.63613
 N214 N 0.03153 0.52943 0.53802
 C215 C 0.02958 0.43793 0.45054
 H216 H -0.00070 0.43422 0.44782
 C217 C 0.05458 0.41460 0.42905
 H218 H 0.04325 0.39294 0.40971
 C219 C 0.08090 0.47031 0.47961
 H220 H 0.09107 0.49164 0.49990
 C221 C 0.10697 0.44761 0.45862
 H222 H 0.13666 0.45256 0.46345
 Zn223 Zn 0.00699 0.49543 0.50318
 N224 N 0.04302 0.46546 0.47482
 C225 C -0.01658 0.52195 0.42615
 N226 N -0.02242 0.52452 0.46667
 C227 C -0.04859 0.54897 0.48228
 C228 C -0.07132 0.57084 0.45674
 C229 C -0.03865 0.54333 0.39950
 C230 C -0.00704 0.43757 0.55908
 C231 C -0.02844 0.41193 0.58167
 C232 C -0.08476 0.43618 0.54923
 C233 C -0.06230 0.46137 0.52737
 N234 N -0.02420 0.46199 0.53303
 H235 H 0.00543 0.50356 0.41433
 H236 H -0.05194 0.55126 0.51468
 H237 H -0.09202 0.59012 0.46982
 H238 H -0.03249 0.54107 0.36763
 H239 H 0.02344 0.43816 0.56239
 H240 H -0.01351 0.39337 0.60208
 H241 H -0.11510 0.43627 0.54440
 H242 H -0.07539 0.48021 0.50573
 C243 C 0.09399 0.41929 0.43253
 C244 C 0.06881 0.58052 0.58729
 C245 C -0.06811 0.41103 0.57714
 C246 C -0.06735 0.56752 0.41459
 C247 C 0.55313 0.05220 0.51611
 H248 H 0.55583 0.05296 0.48355
 C249 C 0.57311 0.07778 0.53952
 H250 H 0.59145 0.09800 0.52466
 C251 C 0.52622 0.02461 0.57479
 H252 H 0.50769 0.00402 0.58849
 C253 C 0.54569 0.04965 0.59939
 H254 H 0.54207 0.04674 0.63159
 N255 N 0.53062 0.02596 0.53399
 C256 C 0.52508 -0.06692 0.44817
 H257 H 0.49468 -0.06978 0.44569
 C258 C 0.54928 -0.09113 0.42672
 H259 H 0.53720 -0.11247 0.40751
 C260 C 0.57751 -0.03551 0.47617
 H261 H 0.58846 -0.01401 0.49578
 C262 C 0.60278 -0.05910 0.45523
 H263 H 0.63265 -0.05426 0.45893
 Zn264 Zn 0.50465 -0.00792 0.50015
 N265 N 0.53946 -0.03948 0.47195
 C266 C 0.48071 0.01792 0.42289
 N267 N 0.47569 0.02144 0.46344
 C268 C 0.45066 0.04707 0.47899
 C269 C 0.42830 0.06928 0.45343
 C270 C 0.45895 0.03959 0.39619
 C271 C 0.48938 -0.06430 0.55744
 C272 C 0.46739 -0.08859 0.58109
 C273 C 0.41144 -0.06277 0.54928
 C274 C 0.43449 -0.03897 0.52632
 N275 N 0.47271 -0.03975 0.53118
 H276 H 0.50182 -0.00149 0.41105
 H277 H 0.44794 0.05005 0.51139
 H278 H 0.40849 0.08948 0.46647
 H279 H 0.46443 0.03645 0.36428
 H280 H 0.51994 -0.06485 0.56011
 H281 H 0.48198 -0.10740 0.60154
 H282 H 0.38102 -0.06159 0.54506
 H283 H 0.42174 -0.02007 0.50452
 C284 C 0.58884 -0.08765 0.43001
 C285 C 0.56957 0.07699 0.58188
 C286 C 0.42761 -0.08794 0.57748
 C287 C 0.43147 0.06515 0.41129
 C288 C 0.54805 0.56638 0.00819
 H289 H 0.54531 0.56891 -0.02423
 C290 C 0.57226 0.59040 0.02882
 H291 H 0.58840 0.61043 0.01128
 C292 C 0.53116 0.53534 0.06910
 H293 H 0.51501 0.51396 0.08476
 C294 C 0.55507 0.55869 0.09093
 H295 H 0.55755 0.55443 0.12320
 N296 N 0.52846 0.53925 0.02838
 C297 C 0.50815 0.45138 -0.06038
 H298 H 0.47766 0.44902 -0.05781
 C299 C 0.52842 0.42750 -0.08640
 H300 H 0.51266 0.40705 -0.10318
 C301 C 0.56478 0.48052 -0.03961
 H302 H 0.57899 0.50065 -0.02079
 C303 C 0.58615 0.45730 -0.06525
 H304 H 0.61670 0.46014 -0.06606
 Zn305 Zn 0.49690 0.50770 -0.00241
 N306 N 0.52642 0.47749 -0.03799
 C307 C 0.46165 0.53819 -0.07262
 N308 N 0.46337 0.53946 -0.03167
 C309 C 0.44190 0.56451 -0.01023
 C310 C 0.41620 0.58849 -0.02977
 C311 C 0.43635 0.56168 -0.09341
 C312 C 0.48878 0.44798 0.05288
 C313 C 0.46965 0.42165 0.07689
 C314 C 0.41040 0.44959 0.05536
 C315 C 0.43065 0.47538 0.03187
 N316 N 0.46918 0.47439 0.03134
 H317 H 0.47993 0.51909 -0.08931
 H318 H 0.44475 0.56576 0.02224
 H319 H 0.40028 0.60854 -0.01173
 H320 H 0.43559 0.56038 -0.12605
 H321 H 0.51943 0.44717 0.05103
 H322 H 0.48641 0.40089 0.09287
 H323 H 0.37970 0.45065 0.05501
 H324 H 0.41545 0.49571 0.01358
 C325 C 0.56816 0.43039 -0.08944
 C326 C 0.57588 0.58706 0.07101
 C327 C 0.42972 0.42231 0.07868
 C328 C 0.41222 0.58653 -0.07198
 C329 C 0.14087 -0.13542 -0.14295
 C330 C 0.16436 -0.10371 -0.12410
 C331 C 0.14361 -0.07830 -0.10221
 C332 C 0.10081 -0.08708 -0.10012
 C333 C 0.08909 -0.08939 -0.14469
 C334 C 0.10979 -0.11462 -0.16685
 C335 C 0.12003 -0.15313 -0.10643
 C336 C 0.09914 -0.12797 -0.08446
 H337 H 0.19479 -0.10101 -0.12815
 H338 H 0.15693 -0.05375 -0.08943
 H339 H 0.06671 -0.07218 -0.15792
 H340 H 0.10480 -0.11906 -0.19877
 H341 H 0.12329 -0.18213 -0.09633
 H342 H 0.08431 -0.13612 -0.05695
 C343 C 0.16134 0.34633 0.36471
 C344 C 0.13359 0.37091 0.34021
 C345 C 0.11250 0.39541 0.36276
 C346 C 0.12040 0.39337 0.40831
 C347 C 0.11519 0.35155 0.41965
 C348 C 0.13642 0.32701 0.39718
 C349 C 0.18476 0.37473 0.38885
 C350 C 0.16364 0.39937 0.41137
 H351 H 0.13090 0.36927 0.30763
 H352 H 0.09209 0.41479 0.34929
 H353 H 0.09754 0.34212 0.44469
 H354 H 0.13681 0.29715 0.40440
 H355 H 0.21554 0.37520 0.38856
 H356 H 0.17730 0.42055 0.42943
 C357 C 0.65440 -0.16071 0.36029
 C358 C 0.62979 -0.13246 0.33640
 C359 C 0.60925 -0.10819 0.35979
 C360 C 0.61447 -0.11407 0.40543
 C361 C 0.60563 -0.15605 0.41273
 C362 C 0.62620 -0.18041 0.38930
 C363 C 0.67830 -0.13608 0.38824
 C364 C 0.65774 -0.11180 0.41172
 H365 H 0.62856 -0.13170 0.30366
 H366 H 0.59076 -0.08664 0.34690
 H367 H 0.58541 -0.16589 0.43524
 H368 H 0.62281 -0.21059 0.39269
 H369 H 0.70893 -0.13854 0.39046
 H370 H 0.67170 -0.09450 0.43381
 C371 C 0.63885 0.36416 -0.16122
 C372 C 0.64439 0.35932 -0.11551
 C373 C 0.62032 0.38052 -0.09249
 C374 C 0.59257 0.40530 -0.11679
 C375 C 0.61788 0.42836 -0.14558
 C376 C 0.64199 0.40717 -0.16870
 C377 C 0.59660 0.35610 -0.16799
 C378 C 0.57243 0.37734 -0.14495
 H379 H 0.66560 0.34065 -0.10231
 H380 H 0.62091 0.37967 -0.05972
 H381 H 0.61593 0.45888 -0.14869
 H382 H 0.65965 0.42050 -0.19138
 H383 H 0.58647 0.33617 -0.19016
 H384 H 0.54210 0.37499 -0.14852
 C385 C -0.16227 0.15273 -0.13972
 C386 C -0.15866 0.11340 -0.15323
 C387 C -0.13426 0.09064 -0.12851
 C388 C -0.11795 0.11116 -0.09464
 C389 C -0.09927 0.14385 -0.11258
 C390 C -0.12351 0.16663 -0.13724
 C391 C -0.17550 0.14921 -0.09768
 C392 C -0.15108 0.12643 -0.07292
 H393 H -0.17565 0.10111 -0.17690
 H394 H -0.13158 0.06029 -0.13256
 H395 H -0.06980 0.15087 -0.10749
 H396 H -0.11364 0.19217 -0.15216
 H397 H -0.20426 0.15544 -0.08767
 H398 H -0.16130 0.11561 -0.04418
 C399 C -0.13647 0.63505 0.34315
 C400 C -0.15765 0.61314 0.37657
 C401 C -0.13490 0.59044 0.39944
 C402 C -0.09269 0.59133 0.38715
 C403 C -0.09306 0.58091 0.34194
 C404 C -0.11582 0.60362 0.31908
 C405 C -0.10488 0.65599 0.36510
 C406 C -0.08217 0.63331 0.38791
 H407 H -0.18819 0.61417 0.38088
 H408 H -0.14621 0.57231 0.42308
 H409 H -0.08056 0.55546 0.32927
 H410 H -0.12169 0.59649 0.28800
 H411 H -0.10059 0.68625 0.36264
 H412 H -0.05852 0.64427 0.40488
 C413 C 0.36314 0.13415 0.34054
 C414 C 0.34183 0.11245 0.37401
 C415 C 0.36434 0.08924 0.39655
 C416 C 0.40648 0.08945 0.38396
 C417 C 0.40567 0.07932 0.33868
 C418 C 0.38314 0.10255 0.31611
 C419 C 0.39528 0.15441 0.36234
 C420 C 0.41775 0.13123 0.38486
 H421 H 0.31136 0.11414 0.37867
 H422 H 0.35290 0.07130 0.42029
 H423 H 0.41785 0.05389 0.32567
 H424 H 0.37722 0.09580 0.28496
 H425 H 0.40016 0.18458 0.35995
 H426 H 0.44175 0.14169 0.40162
 C427 C 0.33957 0.65592 -0.13718
 C428 C 0.32893 0.65339 -0.09194
 C429 C 0.35230 0.63050 -0.07000
 C430 C 0.38454 0.61189 -0.09494
 C431 C 0.36336 0.59145 -0.12882
 C432 C 0.34000 0.61433 -0.15078
 C433 C 0.38133 0.66771 -0.13798
 C434 C 0.40466 0.64487 -0.11607
 H435 H 0.30294 0.66452 -0.07872
 H436 H 0.34524 0.62313 -0.03906
 H437 H 0.36524 0.56122 -0.13402
 H438 H 0.32220 0.60344 -0.17454
 H439 H 0.39166 0.69226 -0.15432
 H440 H 0.43486 0.64995 -0.11377
 C441 C -0.13897 -0.15442 0.14554
 C442 C -0.13575 -0.16112 0.10190
 C443 C -0.11300 -0.13390 0.08109
 C444 C -0.09700 -0.10526 0.10736
 C445 C -0.12937 -0.08844 0.12883
 C446 C -0.15248 -0.11538 0.14946
 C447 C -0.09946 -0.15402 0.15908
 C448 C -0.07654 -0.12667 0.13856
 H449 H -0.14346 -0.18711 0.08700
 H450 H -0.10489 -0.13732 0.04959
 H451 H -0.13482 -0.05824 0.13084
 H452 H -0.17708 -0.10692 0.16738
 H453 H -0.08803 -0.17211 0.18271
 H454 H -0.04801 -0.12108 0.14857
 C455 C -0.14214 0.34056 0.63866
 C456 C -0.14123 0.33539 0.59237
 C457 C -0.11609 0.35815 0.57288
 C458 C -0.09375 0.38425 0.60078
 C459 C -0.12424 0.40570 0.62527
 C460 C -0.14941 0.38307 0.64472
 C461 C -0.10063 0.33424 0.65118
 C462 C -0.07538 0.35697 0.63173
 H463 H -0.15692 0.31454 0.57580
 H464 H -0.11138 0.35662 0.54048
 H465 H -0.12578 0.43630 0.62730
 H466 H -0.17250 0.39445 0.66301
 H467 H -0.09173 0.31318 0.67320
 H468 H -0.04543 0.35464 0.63809
 C469 C 0.35208 -0.15470 0.64174
 C470 C 0.35246 -0.16100 0.59560
 C471 C 0.37807 -0.13944 0.57526
 C472 C 0.40136 -0.11330 0.60220
 C473 C 0.37166 -0.09043 0.62633
 C474 C 0.34601 -0.11189 0.64664
 C475 C 0.39352 -0.16181 0.65407
 C476 C 0.41922 -0.14027 0.63378
 H477 H 0.33587 -0.18158 0.57968
 H478 H 0.38235 -0.14175 0.54286
 H479 H 0.37098 -0.05977 0.62750
 H480 H 0.32338 -0.09945 0.66479
 H481 H 0.40201 -0.18240 0.67677
 H482 H 0.44913 -0.14301 0.64021
 C483 C 0.36235 0.34660 0.14177
 C484 C 0.36069 0.34343 0.09534
 C485 C 0.38356 0.36810 0.07540
 C486 C 0.40654 0.39388 0.10301
 C487 C 0.37685 0.41298 0.13067
 C488 C 0.35383 0.38846 0.15057
 C489 C 0.40479 0.34151 0.15114
 C490 C 0.42784 0.36620 0.13131
 H491 H 0.34539 0.32219 0.07889
 H492 H 0.38653 0.36798 0.04274
 H493 H 0.37441 0.44335 0.13462
 H494 H 0.33164 0.39802 0.17116
 H495 H 0.41583 0.32036 0.17194
 H496 H 0.45806 0.36591 0.13663
 C497 C 0.13934 0.15891 0.15006
 C498 C 0.15797 0.12963 0.12182
 C499 C 0.13300 0.10723 0.10245
 C500 C 0.09116 0.11594 0.11229
 C501 C 0.08840 0.11349 0.15880
 C502 C 0.11353 0.13577 0.17822
 C503 C 0.11147 0.18086 0.12255
 C504 C 0.08634 0.15842 0.10322
 H505 H 0.18839 0.12695 0.11715
 H506 H 0.14224 0.08534 0.08160
 H507 H 0.06730 0.09793 0.17574
 H508 H 0.11384 0.13806 0.21090
 H509 H 0.11126 0.21108 0.11750
 H510 H 0.06501 0.16994 0.08303
 C511 C 0.13272 0.65652 0.65205
 C512 C 0.10573 0.67489 0.62090
 C513 C 0.08414 0.64963 0.60074
 C514 C 0.09124 0.60811 0.61277
 C515 C 0.13420 0.60214 0.60731
 C516 C 0.15570 0.62734 0.62746
 C517 C 0.10645 0.63284 0.67919
 C518 C 0.08483 0.60767 0.65898
 H519 H 0.10302 0.70482 0.61467
 H520 H 0.06353 0.65849 0.57833
 H521 H 0.14672 0.57990 0.58888
 H522 H 0.18646 0.62668 0.62588
 H523 H 0.10405 0.63655 0.71164
 H524 H 0.06410 0.59090 0.67504
 C525 C 0.63566 0.15235 0.64502
 C526 C 0.60997 0.17083 0.61271
 C527 C 0.58761 0.14588 0.59306
 C528 C 0.59277 0.10450 0.60667
 C529 C 0.63554 0.09662 0.60221
 C530 C 0.65778 0.12152 0.62189
 C531 C 0.60797 0.13065 0.67245
 C532 C 0.58561 0.10581 0.65273
 H533 H 0.60886 0.20058 0.60516
 H534 H 0.56783 0.15487 0.56988
 H535 H 0.64739 0.07338 0.58474
 H536 H 0.68851 0.11959 0.62086
 H537 H 0.60510 0.13560 0.70467
 H538 H 0.56366 0.09071 0.66889
 C539 C 0.65152 0.64774 0.13966
 C540 C 0.66326 0.60639 0.13109
 C541 C 0.63811 0.58730 0.10821
 C542 C 0.60343 0.61080 0.09513
 C543 C 0.58635 0.62641 0.13467
 C544 C 0.61139 0.64540 0.15785
 C545 C 0.64570 0.66485 0.09727
 C546 C 0.62041 0.64597 0.07420
 H547 H 0.69021 0.59362 0.13920
 H548 H 0.64350 0.55851 0.09831
 H549 H 0.55678 0.62345 0.14338
 H550 H 0.60319 0.65823 0.18637
 H551 H 0.65981 0.69009 0.08640
 H552 H 0.61256 0.65661 0.04470
   
