data_POSCAR
  _audit_creation_date              2014-09-24
  _audit_creation_method            'ToBaCCo'
  _symmetry_space_group_name_H-M    'P1'
  _symmetry_Int_Tables_number       1
  _symmetry_cell_setting            triclinic
  loop_
  _symmetry_equiv_pos_as_xyz
 x,y,z
_cell_length_a 61.8106
_cell_length_b 61.5069
_cell_length_c 59.8147
_cell_angle_alpha 89.940700
_cell_angle_beta 90.023500
_cell_angle_gamma 89.151000
loop_
  _atom_site_label
  _atom_site_type_symbol
  _atom_site_fract_x
  _atom_site_fract_y
  _atom_site_fract_z
N1 N 0.30212 0.26438 0.24584
 N2 N 0.29202 0.28196 0.23863
 C3 C 0.30078 0.28801 0.21900
 C4 C 0.31732 0.27343 0.21360
 C5 C 0.31764 0.25866 0.23112
 H6 H 0.29544 0.30195 0.20937
 H7 H 0.32814 0.24457 0.23295
 Cu8 Cu 0.26805 0.29505 0.25526
 Cu9 Cu 0.29412 0.24990 0.27347
 Cu10 Cu 0.25053 0.27143 0.30272
 N11 N 0.24305 0.30637 0.27161
 N12 N 0.23626 0.29703 0.29002
 C13 C 0.21849 0.30765 0.29744
 C14 C 0.21378 0.32464 0.28290
 C15 C 0.22979 0.32329 0.26670
 H16 H 0.20960 0.30322 0.31227
 H17 H 0.23135 0.33352 0.25210
 N18 N 0.26706 0.24562 0.31290
 N19 N 0.28369 0.23748 0.30176
 C20 C 0.29123 0.21970 0.31255
 C21 C 0.27874 0.21637 0.33145
 C22 C 0.26357 0.23321 0.33109
 H23 H 0.30467 0.20978 0.30683
 H24 H 0.25066 0.23603 0.34294
 H25 H 0.26193 0.25973 0.27248
 H26 H 0.28071 0.27684 0.28921
 N27 N 0.68793 -0.27361 0.24471
 N28 N 0.69852 -0.29099 0.23775
 C29 C 0.68840 -0.29903 0.21967
 C30 C 0.67038 -0.28599 0.21495
 C31 C 0.67069 -0.27004 0.23140
 H32 H 0.69396 -0.31320 0.21057
 H33 H 0.65956 -0.25649 0.23339
 Cu34 Cu 0.72488 -0.30101 0.25267
 Cu35 Cu 0.69780 -0.25626 0.26988
 Cu36 Cu 0.74467 -0.27377 0.29665
 N37 N 0.75121 -0.31069 0.26787
 N38 N 0.75878 -0.29996 0.28508
 C39 C 0.77723 -0.30960 0.29212
 C40 C 0.78170 -0.32745 0.27856
 C41 C 0.76465 -0.32757 0.26335
 H42 H 0.78674 -0.30371 0.30592
 H43 H 0.76229 -0.33886 0.24977
 N44 N 0.72814 -0.24764 0.30589
 N45 N 0.71036 -0.24090 0.29564
 C46 C 0.70339 -0.22225 0.30521
 C47 C 0.71743 -0.21697 0.32236
 C48 C 0.73289 -0.23349 0.32229
 H49 H 0.68923 -0.21310 0.29995
 H50 H 0.74695 -0.23479 0.33298
 H51 H 0.73025 -0.26430 0.26693
 H52 H 0.71383 -0.28125 0.28624
 N53 N 0.70716 0.25775 0.76521
 N54 N 0.71690 0.27494 0.77309
 C55 C 0.70590 0.28241 0.79100
 C56 C 0.68830 0.26908 0.79466
 C57 C 0.68970 0.25360 0.77785
 H58 H 0.71070 0.29625 0.80083
 H59 H 0.67910 0.24004 0.77512
 Cu60 Cu 0.74381 0.28508 0.76014
 Cu61 Cu 0.71864 0.24131 0.74005
 Cu62 Cu 0.75840 0.26686 0.70911
 N63 N 0.76630 0.29906 0.74282
 N64 N 0.77196 0.29193 0.72295
 C65 C 0.78833 0.30399 0.71519
 C66 C 0.79327 0.31972 0.73103
 C67 C 0.77873 0.31602 0.74832
 H68 H 0.79614 0.30123 0.69927
 H69 H 0.77748 0.32462 0.76401
 N70 N 0.74280 0.24112 0.69829
 N71 N 0.72792 0.23132 0.71028
 C72 C 0.72069 0.21405 0.69888
 C73 C 0.73159 0.21273 0.67868
 C74 C 0.74551 0.23022 0.67893
 H75 H 0.70861 0.20306 0.70506
 H76 H 0.75689 0.23460 0.66605
 H77 H 0.75059 0.25184 0.73826
 H78 H 0.72910 0.26980 0.72600
 N79 N 0.31101 -0.28990 0.74238
 N80 N 0.30156 -0.30818 0.74772
 C81 C 0.31186 -0.31711 0.76542
 C82 C 0.32875 -0.30371 0.77145
 C83 C 0.32768 -0.28662 0.75637
 H84 H 0.30712 -0.33202 0.77352
 H85 H 0.33765 -0.27234 0.75618
 Cu86 Cu 0.27604 -0.31799 0.73181
 Cu87 Cu 0.29997 -0.27066 0.71906
 Cu88 Cu 0.25010 -0.28328 0.69695
 N89 N 0.24662 -0.32313 0.72176
 N90 N 0.23634 -0.30912 0.70885
 C91 C 0.21605 -0.31596 0.70545
 C92 C 0.21335 -0.33552 0.71669
 C93 C 0.23329 -0.33955 0.72681
 H94 H 0.20429 -0.30733 0.69529
 H95 H 0.23766 -0.35298 0.73764
 N96 N 0.26679 -0.25797 0.68703
 N97 N 0.28589 -0.25326 0.69541
 C98 C 0.29297 -0.23488 0.68582
 C99 C 0.27760 -0.22761 0.67059
 C100 C 0.26124 -0.24274 0.67178
 H101 H 0.30814 -0.22728 0.68977
 H102 H 0.24617 -0.24240 0.66263
 H103 H 0.26846 -0.27964 0.72552
 H104 H 0.28205 -0.29284 0.70094
 N105 N 0.69846 -0.25665 0.75860
 N106 N 0.70917 -0.27294 0.76785
 C107 C 0.69815 -0.28004 0.78571
 C108 C 0.67939 -0.26760 0.78784
 C109 C 0.68012 -0.25290 0.77024
 H110 H 0.70376 -0.29282 0.79677
 H111 H 0.66841 -0.24024 0.76628
 Cu112 Cu 0.73709 -0.28237 0.75641
 Cu113 Cu 0.70956 -0.24159 0.73232
 Cu114 Cu 0.76488 -0.24921 0.72356
 N115 N 0.76439 -0.29173 0.74336
 N116 N 0.77575 -0.27822 0.73126
 C117 C 0.79505 -0.28749 0.72649
 C118 C 0.79579 -0.30818 0.73592
 C119 C 0.77584 -0.31027 0.74636
 H120 H 0.80751 -0.27956 0.71695
 H121 H 0.77041 -0.32375 0.75638
 N122 N 0.74775 -0.22564 0.70942
 N123 N 0.72671 -0.22302 0.71237
 C124 C 0.71976 -0.20595 0.70009
 C125 C 0.73724 -0.19747 0.68869
 C126 C 0.75471 -0.21043 0.69504
 H127 H 0.70314 -0.20026 0.69941
 H128 H 0.77130 -0.20894 0.68963
 H129 H 0.73499 -0.26210 0.72156
 H130 H 0.73932 -0.24406 0.74615
 N131 N 0.30138 0.26985 0.75649
 N132 N 0.29304 0.28910 0.76102
 C133 C 0.30532 0.29889 0.77648
 C134 C 0.32237 0.28502 0.78202
 C135 C 0.31936 0.26675 0.76887
 H136 H 0.30161 0.31463 0.78366
 H137 H 0.32885 0.25185 0.76910
 Cu138 Cu 0.26583 0.29888 0.74810
 Cu139 Cu 0.28721 0.24952 0.73648
 Cu140 Cu 0.23480 0.26304 0.72098
 N141 N 0.23524 0.30436 0.74325
 N142 N 0.22299 0.29008 0.73321
 C143 C 0.20242 0.29759 0.73298
 C144 C 0.20181 0.31772 0.74336
 C145 C 0.22298 0.32149 0.74963
 H146 H 0.18897 0.28912 0.72563
 H147 H 0.22896 0.33540 0.75863
 N148 N 0.24987 0.23654 0.71038
 N149 N 0.26984 0.23135 0.71639
 C150 C 0.27555 0.21238 0.70669
 C151 C 0.25840 0.20531 0.69385
 C152 C 0.24241 0.22108 0.69657
 H153 H 0.29115 0.20444 0.70862
 H154 H 0.22643 0.22117 0.68923
 H155 H 0.26723 0.27107 0.71918
 H156 H 0.25713 0.26065 0.74666
 N157 N 0.28613 -0.24864 0.22897
 N158 N 0.27620 -0.26594 0.22154
 C159 C 0.28670 -0.27356 0.20342
 C160 C 0.30421 -0.26035 0.19917
 C161 C 0.30328 -0.24466 0.21579
 H162 H 0.28176 -0.28752 0.19385
 H163 H 0.31421 -0.23131 0.21817
 Cu164 Cu 0.25031 -0.27661 0.23604
 Cu165 Cu 0.27583 -0.23243 0.25493
 Cu166 Cu 0.22991 -0.25159 0.28139
 N167 N 0.22478 -0.28740 0.25114
 N168 N 0.21689 -0.27752 0.26887
 C169 C 0.19914 -0.28797 0.27579
 C170 C 0.19563 -0.30542 0.26165
 C171 C 0.21232 -0.30451 0.24621
 H172 H 0.18939 -0.28297 0.28992
 H173 H 0.21518 -0.31541 0.23235
 N174 N 0.24542 -0.22562 0.29148
 N175 N 0.26287 -0.21834 0.28142
 C176 C 0.26947 -0.20031 0.29201
 C177 C 0.25551 -0.19595 0.30964
 C178 C 0.24047 -0.21241 0.30873
 H179 H 0.28329 -0.19092 0.28704
 H180 H 0.22686 -0.21463 0.31977
 H181 H 0.26094 -0.25834 0.27032
 H182 H 0.24364 -0.24068 0.25201
 N183 N 0.71327 0.25764 0.22775
 N184 N 0.71972 0.27740 0.22319
 C185 C 0.70494 0.28736 0.21007
 C186 C 0.68830 0.27301 0.20594
 C187 C 0.69421 0.25426 0.21752
 H188 H 0.70665 0.30358 0.20344
 H189 H 0.68574 0.23902 0.21799
 Cu190 Cu 0.74795 0.28725 0.23270
 Cu191 Cu 0.73110 0.23740 0.24526
 Cu192 Cu 0.77088 0.26262 0.27664
 N193 N 0.77533 0.29701 0.24462
 N194 N 0.78460 0.28687 0.26153
 C195 C 0.80353 0.29640 0.26619
 C196 C 0.80623 0.31347 0.25138
 C197 C 0.78798 0.31342 0.23798
 H198 H 0.81437 0.29140 0.27948
 H199 H 0.78442 0.32425 0.22417
 N200 N 0.76006 0.23344 0.28348
 N201 N 0.74572 0.22343 0.27097
 C202 C 0.74234 0.20350 0.27951
 C203 C 0.75511 0.20092 0.29838
 C204 C 0.76612 0.22024 0.30038
 H205 H 0.73098 0.19198 0.27286
 H206 H 0.77792 0.22427 0.31300
 H207 H 0.73925 0.26336 0.26380
 H208 H 0.76156 0.25208 0.24610
 C209 C 0.26850 0.00634 0.44937
 C210 C 0.27157 0.02429 0.46333
 C211 C 0.27011 0.02160 0.48658
 C212 C 0.26475 0.00132 0.49604
 C213 C 0.26109 -0.01631 0.48148
 C214 C 0.26364 -0.01407 0.45827
 C215 C 0.26363 -0.00162 0.52093
 C216 C 0.26774 -0.02215 0.53078
 C217 C 0.26699 -0.02499 0.55405
 C218 C 0.26301 -0.00691 0.56775
 C219 C 0.25950 0.01380 0.55852
 C220 C 0.25913 0.01617 0.53515
 H221 H 0.26954 0.00834 0.43140
 H222 H 0.27380 0.03532 0.49711
 H223 H 0.25663 -0.03199 0.48804
 H224 H 0.27219 -0.03600 0.52057
 H225 H 0.26240 -0.00901 0.58573
 H226 H 0.25576 0.03209 0.52822
 C227 C 0.73331 0.00754 0.55230
 C228 C 0.73180 0.02619 0.53891
 C229 C 0.73362 0.02414 0.51561
 C230 C 0.73761 0.00369 0.50559
 C231 C 0.73971 -0.01473 0.51958
 C232 C 0.73698 -0.01299 0.54281
 C233 C 0.73880 0.00149 0.48066
 C234 C 0.73272 -0.01793 0.47002
 C235 C 0.73343 -0.01996 0.44666
 C236 C 0.73920 -0.00196 0.43368
 C237 C 0.74510 0.01769 0.44377
 C238 C 0.74550 0.01899 0.46724
 H239 H 0.73202 0.00905 0.57030
 H240 H 0.73127 0.03852 0.50543
 H241 H 0.74310 -0.03059 0.51251
 H242 H 0.72687 -0.03147 0.47972
 H243 H 0.73905 -0.00331 0.41565
 H244 H 0.75123 0.03371 0.47497
 C245 C 0.44028 0.27938 -0.00355
 C246 C 0.45001 0.27536 0.01724
 C247 C 0.47268 0.27350 0.01851
 C248 C 0.48582 0.27721 -0.00044
 C249 C 0.47545 0.28196 -0.02095
 C250 C 0.45283 0.28251 -0.02272
 C251 C 0.51012 0.27707 0.00128
 C252 C 0.52326 0.27395 -0.01786
 C253 C 0.54586 0.27583 -0.01667
 C254 C 0.55560 0.27927 0.00414
 C255 C 0.54309 0.28154 0.02350
 C256 C 0.52048 0.28091 0.02194
 H257 H 0.42279 0.27980 -0.00485
 H258 H 0.47987 0.26961 0.03450
 H259 H 0.48473 0.28591 -0.03566
 H260 H 0.51613 0.27051 -0.03393
 H261 H 0.57308 0.27983 0.00533
 H262 H 0.51123 0.28410 0.03692
 C263 C 0.55244 0.71834 0.00063
 C264 C 0.53999 0.71467 0.01980
 C265 C 0.51734 0.71427 0.01795
 C266 C 0.50698 0.71816 -0.00275
 C267 C 0.51993 0.72252 -0.02160
 C268 C 0.54259 0.72197 -0.02016
 C269 C 0.48287 0.71690 -0.00490
 C270 C 0.47329 0.71054 -0.02526
 C271 C 0.45074 0.70924 -0.02749
 C272 C 0.43763 0.71336 -0.00883
 C273 C 0.44671 0.71912 0.01177
 C274 C 0.46922 0.72148 0.01345
 H275 H 0.56992 0.71866 0.00193
 H276 H 0.50801 0.71023 0.03263
 H277 H 0.51254 0.72588 -0.03764
 H278 H 0.48327 0.70604 -0.03941
 H279 H 0.42020 0.71250 -0.01041
 H280 H 0.47600 0.72654 0.02924
 C281 C 0.00551 0.44521 0.26425
 C282 C 0.02345 0.45759 0.27026
 C283 C 0.02142 0.48035 0.27084
 C284 C 0.00191 0.49090 0.26458
 C285 C -0.01551 0.47805 0.25756
 C286 C -0.01412 0.45524 0.25798
 C287 C -0.00055 0.51513 0.26595
 C288 C -0.02095 0.52488 0.27026
 C289 C -0.02337 0.54754 0.27196
 C290 C -0.00506 0.56057 0.27013
 C291 C 0.01545 0.55132 0.26626
 C292 C 0.01750 0.52870 0.26361
 H293 H 0.00689 0.42765 0.26453
 H294 H 0.03498 0.48963 0.27678
 H295 H -0.03026 0.48575 0.25158
 H296 H -0.03501 0.51494 0.27294
 H297 H -0.00683 0.57809 0.27129
 H298 H 0.03331 0.52177 0.26006
 C299 C -0.00139 0.55945 0.74175
 C300 C 0.01789 0.54719 0.74056
 C301 C 0.01687 0.52445 0.74260
 C302 C -0.00289 0.51403 0.74706
 C303 C -0.02169 0.52704 0.74970
 C304 C -0.02120 0.54965 0.74656
 C305 C -0.00400 0.48970 0.74839
 C306 C -0.02319 0.47876 0.74286
 C307 C -0.02399 0.45596 0.74309
 C308 C -0.00516 0.44389 0.74794
 C309 C 0.01418 0.45430 0.75340
 C310 C 0.01437 0.47712 0.75435
 H311 H -0.00102 0.57675 0.73850
 H312 H 0.03158 0.51496 0.74069
 H313 H -0.03679 0.51969 0.75444
 H314 H -0.03750 0.48776 0.73767
 H315 H -0.00560 0.42631 0.74731
 H316 H 0.02899 0.48495 0.75982
 C317 C 0.35775 0.27309 0.15467
 C318 C 0.36200 0.25863 0.17239
 C319 C 0.34895 0.25877 0.19149
 C320 C 0.33130 0.27337 0.19336
 C321 C 0.32711 0.28786 0.17563
 C322 C 0.34015 0.28772 0.15655
 C323 C 0.37153 0.27300 0.13435
 N324 N 0.36754 0.28727 0.11746
 N325 N 0.37986 0.28729 0.09922
 C326 C 0.39673 0.27305 0.09702
 N327 N 0.40074 0.25874 0.11390
 N328 N 0.38840 0.25872 0.13217
 C329 C 0.41043 0.27329 0.07664
 C330 C 0.42774 0.25841 0.07389
 C331 C 0.44061 0.25892 0.05462
 C332 C 0.43639 0.27428 0.03769
 C333 C 0.41911 0.28913 0.04051
 C334 C 0.40629 0.28863 0.05968
 H335 H 0.37544 0.24717 0.17154
 H336 H 0.35286 0.24744 0.20477
 H337 H 0.31366 0.29928 0.17630
 H338 H 0.33635 0.29909 0.14324
 H339 H 0.43136 0.24635 0.08660
 H340 H 0.45370 0.24715 0.05285
 H341 H 0.41567 0.30143 0.02798
 H342 H 0.39319 0.30041 0.06122
 C343 C 0.62667 0.70884 0.16031
 C344 C 0.62362 0.72495 0.17667
 C345 C 0.63786 0.72654 0.19475
 C346 C 0.65557 0.71197 0.19708
 C347 C 0.65823 0.69553 0.18085
 C348 C 0.64404 0.69404 0.16274
 C349 C 0.61223 0.70785 0.14051
 N350 N 0.61675 0.69403 0.12339
 N351 N 0.60435 0.69378 0.10517
 C352 C 0.58686 0.70729 0.10329
 N353 N 0.58221 0.72096 0.12051
 N354 N 0.59464 0.72125 0.13872
 C355 C 0.57381 0.70784 0.08246
 C356 C 0.55486 0.72072 0.08098
 C357 C 0.54345 0.72237 0.06082
 C358 C 0.55085 0.71132 0.04170
 C359 C 0.56940 0.69794 0.04334
 C360 C 0.58071 0.69616 0.06349
 H361 H 0.61039 0.73662 0.17537
 H362 H 0.63483 0.73936 0.20673
 H363 H 0.67143 0.68385 0.18175
 H364 H 0.64683 0.68135 0.15050
 H365 H 0.54903 0.72986 0.09527
 H366 H 0.52927 0.73290 0.05997
 H367 H 0.57530 0.68901 0.02892
 H368 H 0.59517 0.68602 0.06403
 C369 C 0.64250 0.27221 -0.15079
 C370 C 0.64105 0.25588 -0.16710
 C371 C 0.65572 0.25499 -0.18490
 C372 C 0.67223 0.27040 -0.18683
 C373 C 0.67346 0.28689 -0.17064
 C374 C 0.65881 0.28778 -0.15287
 C375 C 0.62739 0.27291 -0.13151
 N376 N 0.62931 0.28842 -0.11553
 N377 N 0.61610 0.28891 -0.09797
 C378 C 0.60034 0.27393 -0.09558
 N379 N 0.59833 0.25843 -0.11160
 N380 N 0.61158 0.25793 -0.12919
 C381 C 0.58597 0.27441 -0.07570
 C382 C 0.56929 0.25929 -0.07309
 C383 C 0.55610 0.25972 -0.05403
 C384 C 0.55943 0.27521 -0.03717
 C385 C 0.57596 0.29042 -0.03992
 C386 C 0.58904 0.29003 -0.05890
 H387 H 0.62868 0.24364 -0.16607
 H388 H 0.65412 0.24206 -0.19699
 H389 H 0.68580 0.29913 -0.17147
 H390 H 0.66041 0.30064 -0.14066
 H391 H 0.56646 0.24704 -0.08570
 H392 H 0.54356 0.24773 -0.05230
 H393 H 0.57867 0.30279 -0.02740
 H394 H 0.60163 0.30200 -0.06034
 C395 C 0.37069 0.69218 -0.17102
 C396 C 0.35205 0.67940 -0.17229
 C397 C 0.33870 0.68028 -0.19118
 C398 C 0.34363 0.69406 -0.20918
 C399 C 0.36257 0.70638 -0.20815
 C400 C 0.37594 0.70543 -0.18933
 C401 C 0.38412 0.69241 -0.15045
 N402 N 0.40217 0.70471 -0.14935
 N403 N 0.41365 0.70583 -0.13055
 C404 C 0.40758 0.69471 -0.11200
 N405 N 0.38966 0.68224 -0.11316
 N406 N 0.37818 0.68110 -0.13197
 C407 C 0.41964 0.69703 -0.09069
 C408 C 0.41246 0.68677 -0.07110
 C409 C 0.42288 0.69027 -0.05069
 C410 C 0.44076 0.70406 -0.04942
 C411 C 0.44839 0.71377 -0.06911
 C412 C 0.43794 0.71032 -0.08951
 H413 H 0.34753 0.66895 -0.15853
 H414 H 0.32423 0.67061 -0.19137
 H415 H 0.36708 0.71691 -0.22182
 H416 H 0.39022 0.71542 -0.18902
 H417 H 0.39851 0.67633 -0.07139
 H418 H 0.41683 0.68231 -0.03585
 H419 H 0.46201 0.72463 -0.06862
 H420 H 0.44396 0.71846 -0.10425
 C421 C 0.15914 0.36915 0.28500
 C422 C 0.15967 0.35042 0.29849
 C423 C 0.17747 0.33615 0.29799
 C424 C 0.19519 0.34020 0.28393
 C425 C 0.19479 0.35908 0.27065
 C426 C 0.17700 0.37340 0.27120
 C427 C 0.13981 0.38378 0.28491
 N428 N 0.13934 0.40222 0.27237
 N429 N 0.12167 0.41488 0.27167
 C430 C 0.10370 0.40966 0.28348
 N431 N 0.10424 0.39132 0.29615
 N432 N 0.12191 0.37868 0.29688
 C433 C 0.08358 0.42304 0.28173
 C434 C 0.06435 0.41608 0.29185
 C435 C 0.04497 0.42768 0.28874
 C436 C 0.04438 0.44658 0.27552
 C437 C 0.06373 0.45405 0.26613
 C438 C 0.08311 0.44238 0.26914
 H439 H 0.14622 0.34661 0.30933
 H440 H 0.17708 0.32175 0.30836
 H441 H 0.20821 0.36288 0.25980
 H442 H 0.17717 0.38768 0.26062
 H443 H 0.06410 0.40135 0.30177
 H444 H 0.03036 0.42171 0.29643
 H445 H 0.06371 0.46849 0.25575
 H446 H 0.09762 0.44826 0.26118
 C447 C 0.15626 0.62714 0.72117
 C448 C 0.15570 0.64796 0.71161
 C449 C 0.17455 0.66006 0.70974
 C450 C 0.19447 0.65188 0.71791
 C451 C 0.19492 0.63090 0.72749
 C452 C 0.17609 0.61859 0.72883
 C453 C 0.13608 0.61476 0.72363
 N454 N 0.13637 0.59266 0.72389
 N455 N 0.11807 0.58167 0.72626
 C456 C 0.09882 0.59237 0.72871
 N457 N 0.09859 0.61444 0.72851
 N458 N 0.11682 0.62541 0.72591
 C459 C 0.07849 0.58041 0.73192
 C460 C 0.06152 0.58993 0.74419
 C461 C 0.04214 0.57897 0.74721
 C462 C 0.03897 0.55840 0.73754
 C463 C 0.05606 0.54885 0.72525
 C464 C 0.07571 0.55965 0.72268
 H465 H 0.14063 0.65491 0.70547
 H466 H 0.17316 0.67607 0.70237
 H467 H 0.20979 0.62372 0.73378
 H468 H 0.17696 0.60257 0.73633
 H469 H 0.06333 0.60578 0.75178
 H470 H 0.02970 0.58662 0.75736
 H471 H 0.05420 0.53321 0.71726
 H472 H 0.08853 0.55201 0.71302
 C473 C -0.16304 0.63050 0.28091
 C474 C -0.16566 0.64742 0.29646
 C475 C -0.18393 0.66106 0.29586
 C476 C -0.20018 0.65826 0.27960
 C477 C -0.19764 0.64101 0.26425
 C478 C -0.17935 0.62734 0.26493
 C479 C -0.14317 0.61664 0.28107
 N480 N -0.14066 0.59995 0.26639
 N481 N -0.12249 0.58801 0.26608
 C482 C -0.10604 0.59226 0.28043
 N483 N -0.10862 0.60885 0.29520
 N484 N -0.12679 0.62076 0.29553
 C485 C -0.08536 0.57972 0.27940
 C486 C -0.06760 0.58588 0.29254
 C487 C -0.04767 0.57507 0.29053
 C488 C -0.04501 0.55778 0.27541
 C489 C -0.06290 0.55110 0.26280
 C490 C -0.08285 0.56200 0.26472
 H491 H -0.15347 0.65031 0.30908
 H492 H -0.18497 0.67388 0.30816
 H493 H -0.20959 0.63797 0.25149
 H494 H -0.17789 0.61444 0.25270
 H495 H -0.06894 0.59936 0.30410
 H496 H -0.03423 0.58036 0.30068
 H497 H -0.06127 0.53791 0.25091
 H498 H -0.09619 0.55676 0.25441
 C499 C -0.15589 0.36558 0.72937
 C500 C -0.17091 0.36564 0.74699
 C501 C -0.18774 0.35071 0.74745
 C502 C -0.19019 0.33533 0.73018
 C503 C -0.17538 0.33576 0.71224
 C504 C -0.15844 0.35057 0.71193
 C505 C -0.13733 0.38062 0.72956
 N506 N -0.12062 0.37787 0.71503
 N507 N -0.10351 0.39076 0.71582
 C508 C -0.10239 0.40703 0.73110
 N509 N -0.11919 0.40993 0.74548
 N510 N -0.13628 0.39699 0.74474
 C511 C -0.08281 0.42062 0.73277
 C512 C -0.08265 0.43914 0.74655
 C513 C -0.06373 0.45107 0.74926
 C514 C -0.04453 0.44460 0.73845
 C515 C -0.04482 0.42647 0.72420
 C516 C -0.06376 0.41468 0.72130
 H517 H -0.16946 0.37701 0.76070
 H518 H -0.19871 0.35137 0.76150
 H519 H -0.17645 0.32444 0.69849
 H520 H -0.14724 0.35015 0.69802
 H521 H -0.09705 0.44424 0.75554
 H522 H -0.06390 0.46492 0.76043
 H523 H -0.03029 0.42129 0.71546
 H524 H -0.06331 0.40055 0.71052
 C525 C 0.28283 0.16243 0.37767
 C526 C 0.29677 0.16353 0.35917
 C527 C 0.29566 0.18113 0.34443
 C528 C 0.28055 0.19815 0.34776
 C529 C 0.26692 0.19728 0.36657
 C530 C 0.26804 0.17964 0.38134
 C531 C 0.28324 0.14307 0.39250
 N532 N 0.26961 0.14164 0.41025
 N533 N 0.26930 0.12376 0.42285
 C534 C 0.28259 0.10656 0.41824
 N535 N 0.29636 0.10810 0.40064
 N536 N 0.29669 0.12596 0.38806
 C537 C 0.28127 0.08606 0.43124
 C538 C 0.29324 0.06756 0.42459
 C539 C 0.29060 0.04769 0.43549
 C540 C 0.27603 0.04587 0.45337
 C541 C 0.26472 0.06452 0.46068
 C542 C 0.26726 0.08441 0.44968
 H543 H 0.30842 0.15062 0.35584
 H544 H 0.30651 0.18110 0.33027
 H545 H 0.25519 0.21008 0.36990
 H546 H 0.25709 0.17937 0.39545
 H547 H 0.30427 0.06823 0.41056
 H548 H 0.29974 0.03363 0.42971
 H549 H 0.25328 0.06352 0.47434
 H550 H 0.25786 0.09835 0.45531
 C551 C 0.72630 0.16178 0.62947
 C552 C 0.71079 0.16418 0.64649
 C553 C 0.71232 0.18091 0.66215
 C554 C 0.72942 0.19570 0.66124
 C555 C 0.74465 0.19365 0.64387
 C556 C 0.74311 0.17688 0.62817
 C557 C 0.72533 0.14313 0.61380
 N558 N 0.74011 0.14063 0.59714
 N559 N 0.73980 0.12326 0.58385
 C560 C 0.72472 0.10763 0.58666
 N561 N 0.70984 0.11026 0.60316
 N562 N 0.71012 0.12762 0.61642
 C563 C 0.72520 0.08754 0.57295
 C564 C 0.71172 0.07009 0.57840
 C565 C 0.71342 0.05043 0.56686
 C566 C 0.72852 0.04777 0.54951
 C567 C 0.74137 0.06545 0.54338
 C568 C 0.73980 0.08512 0.55505
 H569 H 0.69753 0.15295 0.64794
 H570 H 0.70007 0.18208 0.67501
 H571 H 0.75806 0.20467 0.64260
 H572 H 0.75533 0.17555 0.61527
 H573 H 0.70023 0.07138 0.59200
 H574 H 0.70313 0.03713 0.57173
 H575 H 0.75321 0.06378 0.53013
 H576 H 0.75034 0.09826 0.55035
 C577 C 0.27831 -0.16859 0.63155
 C578 C 0.26398 -0.18536 0.62622
 C579 C 0.26386 -0.20457 0.63875
 C580 C 0.27811 -0.20751 0.65686
 C581 C 0.29265 -0.19087 0.66197
 C582 C 0.29272 -0.17165 0.64951
 C583 C 0.27793 -0.14785 0.61886
 N584 N 0.29029 -0.13092 0.62542
 N585 N 0.28950 -0.11206 0.61449
 C586 C 0.27635 -0.10929 0.59648
 N587 N 0.26410 -0.12626 0.58981
 N588 N 0.26486 -0.14513 0.60077
 C589 C 0.27488 -0.08799 0.58488
 C590 C 0.26230 -0.08543 0.56542
 C591 C 0.26014 -0.06508 0.55513
 C592 C 0.27039 -0.04683 0.56414
 C593 C 0.28328 -0.04945 0.58332
 C594 C 0.28556 -0.06980 0.59354
 H595 H 0.25268 -0.18358 0.61248
 H596 H 0.25259 -0.21710 0.63417
 H597 H 0.30376 -0.19244 0.67587
 H598 H 0.30399 -0.15911 0.65410
 H599 H 0.25390 -0.09908 0.55826
 H600 H 0.24997 -0.06349 0.54045
 H601 H 0.29159 -0.03572 0.59047
 H602 H 0.29543 -0.07116 0.60844
 C603 C 0.71672 -0.15941 0.36358
 C604 C 0.72927 -0.17773 0.36962
 C605 C 0.72932 -0.19646 0.35639
 C606 C 0.71676 -0.19737 0.33683
 C607 C 0.70389 -0.17919 0.33101
 C608 C 0.70391 -0.16043 0.34419
 C609 C 0.71741 -0.13918 0.37706
 N610 N 0.70676 -0.12087 0.37023
 N611 N 0.70802 -0.10250 0.38191
 C612 C 0.71995 -0.10165 0.40096
 N613 N 0.73046 -0.12000 0.40789
 N614 N 0.72923 -0.13837 0.39620
 C615 C 0.72215 -0.08094 0.41343
 C616 C 0.73412 -0.08024 0.43342
 C617 C 0.73726 -0.06053 0.44448
 C618 C 0.72859 -0.04104 0.43579
 C619 C 0.71617 -0.04178 0.41612
 C620 C 0.71295 -0.06151 0.40510
 H621 H 0.73930 -0.17757 0.38447
 H622 H 0.73923 -0.21021 0.36157
 H623 H 0.69410 -0.17920 0.31602
 H624 H 0.69401 -0.14664 0.33902
 H625 H 0.74140 -0.09488 0.44036
 H626 H 0.74707 -0.06044 0.45949
 H627 H 0.70904 -0.02707 0.40920
 H628 H 0.70355 -0.06144 0.38982
 C629 C 0.63412 0.72898 -0.15755
 C630 C 0.64848 0.71162 -0.16209
 C631 C 0.66273 0.71259 -0.18010
 C632 C 0.66310 0.73096 -0.19405
 C633 C 0.64832 0.74810 -0.18996
 C634 C 0.63398 0.74712 -0.17188
 C635 C 0.61993 0.72822 -0.13759
 N636 N 0.60492 0.74409 -0.13352
 N637 N 0.59260 0.74344 -0.11524
 C638 C 0.59486 0.72694 -0.10025
 N639 N 0.60984 0.71110 -0.10438
 N640 N 0.62209 0.71172 -0.12264
 C641 C 0.58148 0.72612 -0.07971
 C642 C 0.58599 0.71039 -0.06323
 C643 C 0.57348 0.70931 -0.04389
 C644 C 0.55608 0.72386 -0.04054
 C645 C 0.55148 0.73963 -0.05696
 C646 C 0.56413 0.74081 -0.07634
 H647 H 0.64890 0.69728 -0.15157
 H648 H 0.67354 0.69888 -0.18294
 H649 H 0.64816 0.76252 -0.20034
 H650 H 0.62309 0.76077 -0.16889
 H651 H 0.59922 0.69882 -0.06523
 H652 H 0.57719 0.69678 -0.03169
 H653 H 0.53822 0.75113 -0.05473
 H654 H 0.56021 0.75312 -0.08871
 C655 C 0.36814 0.29154 -0.16412
 C656 C 0.37152 0.27589 -0.18093
 C657 C 0.35694 0.27409 -0.19868
 C658 C 0.33869 0.28794 -0.20009
 C659 C 0.33573 0.30404 -0.18367
 C660 C 0.35025 0.30580 -0.16590
 C661 C 0.38255 0.29234 -0.14433
 N662 N 0.37788 0.30585 -0.12699
 N663 N 0.39003 0.30568 -0.10860
 C664 C 0.40741 0.29202 -0.10677
 N665 N 0.41225 0.27870 -0.12423
 N666 N 0.40007 0.27884 -0.14261
 C667 C 0.42005 0.29086 -0.08573
 C668 C 0.43854 0.27734 -0.08408
 C669 C 0.44953 0.27510 -0.06376
 C670 C 0.44220 0.28623 -0.04465
 C671 C 0.42410 0.30019 -0.04643
 C672 C 0.41318 0.30253 -0.06675
 H673 H 0.38519 0.26471 -0.18016
 H674 H 0.35991 0.26169 -0.21117
 H675 H 0.32186 0.31496 -0.18410
 H676 H 0.34717 0.31809 -0.15331
 H677 H 0.44431 0.26816 -0.09837
 H678 H 0.46336 0.26412 -0.06281
 H679 H 0.41828 0.30919 -0.03202
 H680 H 0.39906 0.31314 -0.06742
 C681 C 0.34949 0.73380 0.14454
 C682 C 0.33505 0.71700 0.14938
 C683 C 0.32056 0.71885 0.16717
 C684 C 0.32005 0.73759 0.18061
 C685 C 0.33466 0.75432 0.17594
 C686 C 0.34922 0.75244 0.15812
 C687 C 0.36442 0.73185 0.12524
 N688 N 0.37920 0.74743 0.12080
 N689 N 0.39236 0.74563 0.10323
 C690 C 0.39126 0.72821 0.08934
 N691 N 0.37652 0.71266 0.09383
 N692 N 0.36341 0.71444 0.11138
 C693 C 0.40560 0.72614 0.06958
 C694 C 0.40292 0.70886 0.05451
 C695 C 0.41622 0.70675 0.03580
 C696 C 0.43260 0.72181 0.03167
 C697 C 0.43542 0.73907 0.04672
 C698 C 0.42201 0.74125 0.06547
 H699 H 0.33487 0.70234 0.13938
 H700 H 0.30982 0.70548 0.17032
 H701 H 0.33472 0.76903 0.18583
 H702 H 0.36012 0.76569 0.15487
 H703 H 0.39049 0.69690 0.05712
 H704 H 0.41388 0.69310 0.02468
 H705 H 0.44782 0.75100 0.04385
 H706 H 0.42451 0.75475 0.07673
 C707 C 0.63589 0.28154 0.15891
 C708 C 0.65086 0.29814 0.16242
 C709 C 0.66744 0.29560 0.17808
 C710 C 0.66958 0.27633 0.19062
 C711 C 0.65413 0.26001 0.18767
 C712 C 0.63746 0.26259 0.17200
 C713 C 0.61956 0.28359 0.14084
 N714 N 0.60408 0.26837 0.13805
 N715 N 0.59036 0.26957 0.12088
 C716 C 0.59159 0.28601 0.10575
 N717 N 0.60689 0.30135 0.10872
 N718 N 0.62054 0.30019 0.12590
 C719 C 0.57764 0.28639 0.08561
 C720 C 0.58248 0.30024 0.06762
 C721 C 0.57080 0.29912 0.04769
 C722 C 0.55388 0.28433 0.04539
 C723 C 0.54833 0.27120 0.06366
 C724 C 0.56018 0.27212 0.08355
 H725 H 0.65005 0.31303 0.15276
 H726 H 0.67880 0.30867 0.17988
 H727 H 0.65504 0.24503 0.19711
 H728 H 0.62616 0.24949 0.16977
 H729 H 0.59577 0.31146 0.06862
 H730 H 0.57523 0.30957 0.03389
 H731 H 0.53539 0.25959 0.06222
 H732 H 0.55597 0.26133 0.09713
 C733 C -0.15116 0.64732 0.73835
 C734 C -0.14858 0.66827 0.72955
 C735 C -0.16616 0.68275 0.72819
 C736 C -0.18674 0.67680 0.73608
 C737 C -0.18924 0.65559 0.74462
 C738 C -0.17172 0.64100 0.74555
 C739 C -0.13236 0.63233 0.74042
 N740 N -0.13505 0.61046 0.74139
 N741 N -0.11803 0.59704 0.74336
 C742 C -0.09768 0.60498 0.74470
 N743 N -0.09503 0.62684 0.74383
 N744 N -0.11201 0.64023 0.74167
 C745 C -0.07868 0.59024 0.74662
 C746 C -0.05923 0.59785 0.75559
 C747 C -0.04086 0.58441 0.75635
 C748 C -0.04136 0.56316 0.74772
 C749 C -0.06102 0.55537 0.73925
 C750 C -0.07954 0.56872 0.73887
 H751 H -0.13292 0.67352 0.72369
 H752 H -0.16327 0.69877 0.72149
 H753 H -0.20472 0.65001 0.75055
 H754 H -0.17418 0.62491 0.75238
 H755 H -0.05819 0.61426 0.76201
 H756 H -0.02619 0.59078 0.76356
 H757 H -0.06196 0.53920 0.73222
 H758 H -0.09431 0.56245 0.73179
 C759 C -0.14011 0.35693 0.24736
 C760 C -0.16086 0.36379 0.24054
 C761 C -0.17826 0.34958 0.24163
 C762 C -0.17532 0.32840 0.24999
 C763 C -0.15461 0.32157 0.25694
 C764 C -0.13713 0.33563 0.25543
 C765 C -0.12174 0.37200 0.24644
 N766 N -0.10106 0.36426 0.24574
 N767 N -0.08447 0.37784 0.24553
 C768 C -0.08789 0.39969 0.24616
 N769 N -0.10857 0.40743 0.24679
 N770 N -0.12517 0.39386 0.24681
 C771 C -0.06943 0.41464 0.24728
 C772 C -0.07200 0.43537 0.25681
 C773 C -0.05415 0.44874 0.25977
 C774 C -0.03339 0.44184 0.25291
 C775 C -0.03108 0.42147 0.24241
 C776 C -0.04886 0.40794 0.23984
 H777 H -0.16362 0.38010 0.23420
 H778 H -0.19408 0.35530 0.23628
 H779 H -0.15186 0.30527 0.26327
 H780 H -0.12133 0.32994 0.26091
 H781 H -0.08765 0.44093 0.26281
 H782 H -0.05654 0.46415 0.26821
 H783 H -0.01547 0.41584 0.23638
 H784 H -0.04647 0.39215 0.23215
 C785 C 0.14631 0.35965 0.75343
 C786 C 0.14378 0.33713 0.75076
 C787 C 0.16179 0.32351 0.74744
 C788 C 0.18272 0.33208 0.74703
 C789 C 0.18528 0.35454 0.75005
 C790 C 0.16726 0.36820 0.75307
 C791 C 0.12719 0.37422 0.75601
 N792 N 0.12893 0.39601 0.75293
 N793 N 0.11160 0.40905 0.75437
 C794 C 0.09183 0.40089 0.75911
 N795 N 0.09013 0.37913 0.76244
 N796 N 0.10744 0.36607 0.76088
 C797 C 0.07238 0.41523 0.75945
 C798 C 0.05281 0.40793 0.76852
 C799 C 0.03409 0.42091 0.76735
 C800 C 0.03445 0.44137 0.75684
 C801 C 0.05420 0.44888 0.74834
 C802 C 0.07296 0.43602 0.74975
 H803 H 0.12785 0.33004 0.75088
 H804 H 0.15932 0.30624 0.74539
 H805 H 0.20119 0.36166 0.74966
 H806 H 0.16977 0.38547 0.75510
 H807 H 0.05190 0.39209 0.77634
 H808 H 0.01927 0.41481 0.77447
 H809 H 0.05504 0.46438 0.73982
 H810 H 0.08775 0.44210 0.74252
 C811 C 0.14297 0.64929 0.26373
 C812 C 0.14560 0.66471 0.28080
 C813 C 0.16273 0.67925 0.28021
 C814 C 0.17768 0.67879 0.26250
 C815 C 0.17513 0.66323 0.24551
 C816 C 0.15801 0.64866 0.24613
 C817 C 0.12449 0.63420 0.26418
 N818 N 0.12208 0.61886 0.24807
 N819 N 0.10527 0.60555 0.24839
 C820 C 0.09015 0.60703 0.26482
 N821 N 0.09261 0.62234 0.28093
 N822 N 0.10941 0.63562 0.28063
 C823 C 0.07123 0.59250 0.26514
 C824 C 0.05510 0.59521 0.28149
 C825 C 0.03708 0.58184 0.28176
 C826 C 0.03475 0.56536 0.26573
 C827 C 0.05093 0.56245 0.24948
 C828 C 0.06897 0.57593 0.24914
 H829 H 0.13437 0.66563 0.29467
 H830 H 0.16412 0.69083 0.29369
 H831 H 0.18620 0.66232 0.23155
 H832 H 0.15648 0.63700 0.23268
 H833 H 0.05631 0.60773 0.29412
 H834 H 0.02503 0.58424 0.29470
 H835 H 0.04946 0.54997 0.23684
 H836 H 0.08110 0.57339 0.23631
 C837 C 0.73727 -0.14276 0.64354
 C838 C 0.71975 -0.14612 0.65806
 C839 C 0.71972 -0.16389 0.67262
 C840 C 0.73724 -0.17870 0.67310
 C841 C 0.75475 -0.17537 0.65857
 C842 C 0.75475 -0.15763 0.64393
 C843 C 0.73729 -0.12381 0.62821
 N844 N 0.75345 -0.12113 0.61310
 N845 N 0.75344 -0.10400 0.59943
 C846 C 0.73728 -0.08882 0.60032
 N847 N 0.72113 -0.09152 0.61542
 N848 N 0.72113 -0.10864 0.62905
 C849 C 0.73725 -0.06960 0.58533
 C850 C 0.72143 -0.05313 0.58783
 C851 C 0.72142 -0.03486 0.57398
 C852 C 0.73717 -0.03261 0.55726
 C853 C 0.75289 -0.04912 0.55456
 C854 C 0.75298 -0.06740 0.56851
 H855 H 0.70600 -0.13501 0.65822
 H856 H 0.70603 -0.16581 0.68367
 H857 H 0.76843 -0.18654 0.65831
 H858 H 0.76850 -0.15557 0.63296
 H859 H 0.70905 -0.05426 0.60055
 H860 H 0.70890 -0.02255 0.57622
 H861 H 0.76531 -0.04772 0.54189
 H862 H 0.76539 -0.07979 0.56612
 C863 C 0.25756 -0.14202 0.35570
 C864 C 0.27432 -0.14556 0.34019
 C865 C 0.27370 -0.16307 0.32539
 C866 C 0.25628 -0.17751 0.32565
 C867 C 0.23956 -0.17402 0.34126
 C868 C 0.24020 -0.15650 0.35611
 C869 C 0.25821 -0.12325 0.37120
 N870 N 0.24262 -0.12013 0.38694
 N871 N 0.24325 -0.10315 0.40074
 C872 C 0.25948 -0.08856 0.39935
 N873 N 0.27505 -0.09171 0.38362
 N874 N 0.27444 -0.10867 0.36986
 C875 C 0.26029 -0.06957 0.41454
 C876 C 0.27662 -0.05410 0.41201
 C877 C 0.27756 -0.03615 0.42618
 C878 C 0.26220 -0.03318 0.44325
 C879 C 0.24589 -0.04864 0.44590
 C880 C 0.24491 -0.06664 0.43165
 H881 H 0.28799 -0.13478 0.33943
 H882 H 0.28698 -0.16520 0.31381
 H883 H 0.22582 -0.18467 0.34201
 H884 H 0.22700 -0.15425 0.36782
 H885 H 0.28877 -0.05582 0.39907
 H886 H 0.29053 -0.02470 0.42395
 H887 H 0.23375 -0.04667 0.45882
 H888 H 0.23212 -0.07824 0.43406
 C889 C 0.75795 0.14575 0.34261
 C890 C 0.75227 0.14313 0.32003
 C891 C 0.75128 0.16106 0.30566
 C892 C 0.75632 0.18190 0.31350
 C893 C 0.76235 0.18446 0.33597
 C894 C 0.76298 0.16660 0.35043
 C895 C 0.75816 0.12693 0.35804
 N896 N 0.75664 0.12995 0.38048
 N897 N 0.75611 0.11302 0.39436
 C898 C 0.75727 0.09237 0.38638
 N899 N 0.75901 0.08935 0.36396
 N900 N 0.75938 0.10628 0.35007
 C901 C 0.75570 0.07356 0.40169
 C902 C 0.76293 0.05282 0.39496
 C903 C 0.76026 0.03483 0.40893
 C904 C 0.74992 0.03709 0.42978
 C905 C 0.74315 0.05797 0.43666
 C906 C 0.74617 0.07601 0.42286
 H907 H 0.74822 0.12728 0.31353
 H908 H 0.74675 0.15857 0.28838
 H909 H 0.76617 0.20034 0.34254
 H910 H 0.76746 0.16913 0.36772
 H911 H 0.77059 0.05049 0.37885
 H912 H 0.76616 0.01912 0.40328
 H913 H 0.73482 0.06033 0.45241
 H914 H 0.74032 0.09177 0.42846
 C915 C 0.25589 0.14692 0.65421
 C916 C 0.24143 0.16432 0.65006
 C917 C 0.24215 0.18323 0.66299
 C918 C 0.25741 0.18521 0.68027
 C919 C 0.27181 0.16780 0.68444
 C920 C 0.27102 0.14887 0.67162
 C921 C 0.25539 0.12690 0.64044
 N922 N 0.26898 0.10994 0.64502
 N923 N 0.26886 0.09204 0.63254
 C924 C 0.25513 0.09028 0.61493
 N925 N 0.24146 0.10721 0.61037
 N926 N 0.24157 0.12514 0.62287
 C927 C 0.25550 0.07047 0.60082
 C928 C 0.24166 0.06854 0.58226
 C929 C 0.24264 0.05004 0.56867
 C930 C 0.25747 0.03309 0.57335
 C931 C 0.27110 0.03495 0.59203
 C932 C 0.27011 0.05337 0.60560
 H933 H 0.22959 0.16338 0.63677
 H934 H 0.23093 0.19641 0.65921
 H935 H 0.28358 0.16865 0.69780
 H936 H 0.28236 0.13578 0.67536
 H937 H 0.23016 0.08138 0.57814
 H938 H 0.23177 0.04897 0.55453
 H939 H 0.28296 0.02236 0.59589
 H940 H 0.28105 0.05427 0.61969
   
