data_POSCAR
  _audit_creation_date              2014-09-24
  _audit_creation_method            'ToBaCCo'
  _symmetry_space_group_name_H-M    'P1'
  _symmetry_Int_Tables_number       1
  _symmetry_cell_setting            triclinic
  loop_
  _symmetry_equiv_pos_as_xyz
 x,y,z
_cell_length_a 31.2773
_cell_length_b 32.8893
_cell_length_c 30.5265
_cell_angle_alpha 90.005800
_cell_angle_beta 89.936000
_cell_angle_gamma 90.102800
loop_
  _atom_site_label
  _atom_site_type_symbol
  _atom_site_fract_x
  _atom_site_fract_y
  _atom_site_fract_z
Si1 Si 1.25056 0.24993 0.25037
 Si2 Si 0.75000 -0.25059 0.25064
 Si3 Si 0.75025 0.24972 -0.24867
 Si4 Si 1.24984 -0.24976 -0.25029
 Si5 Si 0.25001 0.24987 0.74966
 Si6 Si 0.75048 0.75041 0.74943
 Si7 Si 0.74888 0.25070 0.24812
 Si8 Si 0.25032 0.75007 0.25036
 N9 N 1.07608 0.04156 0.04871
 N10 N 1.10539 0.06935 0.05737
 N11 N 1.04636 -0.04411 0.07877
 N12 N 1.05499 -0.07151 0.10913
 N13 N 1.07611 -0.04400 0.04835
 N14 N 1.10578 -0.07133 0.05725
 N15 N 1.04632 0.04141 0.07912
 N16 N 1.05456 0.06908 0.10930
 C17 C 1.09109 0.08655 0.09483
 C18 C 1.09174 -0.08861 0.09484
 N19 N 0.92452 -0.04394 0.04803
 N20 N 0.89535 -0.07200 0.05612
 N21 N 0.95410 0.04136 0.07907
 N22 N 0.94566 0.06901 0.10922
 N23 N 0.92450 0.04144 0.04857
 N24 N 0.89517 0.06914 0.05708
 N25 N 0.95417 -0.04408 0.07848
 N26 N 0.94600 -0.07224 0.10813
 Mn27 Mn 1.00023 -0.00135 0.07928
 C28 C 0.90962 -0.08965 0.09330
 C29 C 0.90919 0.08634 0.09460
 N30 N 1.07593 -0.04334 -0.04631
 N31 N 1.10519 -0.07103 -0.05514
 N32 N 1.04637 0.04236 -0.07614
 N33 N 1.05488 0.07003 -0.10625
 N34 N 1.07616 0.04214 -0.04582
 N35 N 1.10575 0.06969 -0.05452
 N36 N 1.04624 -0.04305 -0.07673
 N37 N 1.05447 -0.07056 -0.10705
 Mn38 Mn 1.07650 -0.00092 0.00122
 C39 C 1.09090 -0.08806 -0.09269
 C40 C 1.09157 0.08716 -0.09188
 N41 N 0.92443 0.04210 -0.04577
 N42 N 0.89499 0.06975 -0.05414
 N43 N 0.95415 -0.04313 -0.07678
 N44 N 0.94590 -0.07082 -0.10695
 N45 N 0.92448 -0.04338 -0.04631
 N46 N 0.89521 -0.07122 -0.05489
 N47 N 0.95415 0.04238 -0.07620
 N48 N 0.94572 0.07022 -0.10613
 Mn49 Mn 0.92409 -0.00095 0.00114
 Mn50 Mn 1.00024 -0.00035 -0.07687
 Cl51 Cl 1.00029 -0.00089 0.00120
 C52 C 0.90911 0.08733 -0.09149
 C53 C 0.90943 -0.08835 -0.09241
 N54 N 1.07577 0.54302 0.54639
 N55 N 1.10512 0.57081 0.55490
 N56 N 1.04624 0.45744 0.57696
 N57 N 1.05475 0.42983 0.60709
 N58 N 1.07587 0.45754 0.54642
 N59 N 1.10537 0.42998 0.55499
 N60 N 1.04618 0.54285 0.57698
 N61 N 1.05457 0.57052 0.60710
 C62 C 1.09098 0.58801 0.59243
 C63 C 1.09130 0.41263 0.59250
 N64 N 0.92420 0.45727 0.54736
 N65 N 0.89484 0.42951 0.55605
 N66 N 0.95411 0.54276 0.57760
 N67 N 0.94605 0.57069 0.60754
 N68 N 0.92435 0.54275 0.54728
 N69 N 0.89522 0.57067 0.55573
 N70 N 0.95404 0.45724 0.57760
 N71 N 0.94578 0.42947 0.60771
 Mn72 Mn 1.00016 0.50006 0.57770
 C73 C 0.90914 0.41214 0.59338
 C74 C 0.90959 0.58811 0.59301
 N75 N 1.07546 0.45759 0.45191
 N76 N 1.10476 0.42989 0.44324
 N77 N 1.04577 0.54302 0.42145
 N78 N 1.05429 0.57043 0.39100
 N79 N 1.07558 0.54314 0.45175
 N80 N 1.10516 0.57064 0.44269
 N81 N 1.04560 0.45747 0.42168
 N82 N 1.05378 0.42970 0.39160
 Mn83 Mn 1.07609 0.50033 0.49912
 C84 C 1.09037 0.41245 0.40596
 C85 C 1.09103 0.58777 0.40512
 N86 N 0.92400 0.54273 0.45296
 N87 N 0.89483 0.57067 0.44488
 N88 N 0.95329 0.45730 0.42230
 N89 N 0.94427 0.42984 0.39209
 N90 N 0.92386 0.45734 0.45305
 N91 N 0.89410 0.42994 0.44466
 N92 N 0.95352 0.54276 0.42231
 N93 N 0.94525 0.57074 0.39252
 Mn94 Mn 0.92372 0.50003 0.50015
 Mn95 Mn 0.99954 0.50012 0.42150
 Cl96 Cl 0.99990 0.50013 0.49960
 C97 C 0.90895 0.58814 0.40749
 C98 C 0.90769 0.41269 0.40699
 N99 N 0.57511 0.04262 0.54714
 N100 N 0.60476 0.07001 0.55618
 N101 N 0.54514 -0.04288 0.57736
 N102 N 0.55351 -0.07038 0.60766
 N103 N 0.57494 -0.04290 0.54700
 N104 N 0.60439 -0.07040 0.55582
 N105 N 0.54523 0.04262 0.57741
 N106 N 0.55374 0.07000 0.60785
 C107 C 0.59055 0.08718 0.59371
 C108 C 0.59014 -0.08763 0.59331
 N109 N 0.42351 -0.04307 0.54625
 N110 N 0.39440 -0.07117 0.55441
 N111 N 0.45302 0.04247 0.57685
 N112 N 0.44470 0.07039 0.60672
 N113 N 0.42344 0.04237 0.54633
 N114 N 0.39419 0.07023 0.55460
 N115 N 0.45305 -0.04296 0.57681
 N116 N 0.44487 -0.07099 0.60660
 Mn117 Mn 0.49909 -0.00018 0.57752
 C118 C 0.40859 -0.08858 0.59175
 C119 C 0.40830 0.08771 0.59198
 N120 N 0.57530 -0.04286 0.45255
 N121 N 0.60464 -0.07059 0.44411
 N122 N 0.54601 0.04259 0.42202
 N123 N 0.55490 0.07013 0.39184
 N124 N 0.57548 0.04257 0.45267
 N125 N 0.60514 0.07008 0.44421
 N126 N 0.54575 -0.04287 0.42198
 N127 N 0.55417 -0.07060 0.39194
 Mn128 Mn 0.57560 -0.00015 0.49983
 C129 C 0.59056 -0.08794 0.40665
 C130 C 0.59145 0.08734 0.40661
 N131 N 0.42389 0.04235 0.45196
 N132 N 0.39489 0.07042 0.44374
 N133 N 0.45350 -0.04308 0.42139
 N134 N 0.44511 -0.07075 0.39118
 N135 N 0.42371 -0.04316 0.45177
 N136 N 0.39428 -0.07086 0.44305
 N137 N 0.45373 0.04247 0.42165
 N138 N 0.44584 0.07062 0.39193
 Mn139 Mn 0.42323 -0.00039 0.49908
 Mn140 Mn 0.49976 -0.00021 0.42132
 Cl141 Cl 0.49943 -0.00023 0.49943
 C142 C 0.40942 0.08803 0.40660
 C143 C 0.40844 -0.08812 0.40554
 N144 N 0.57411 0.54408 0.04683
 N145 N 0.60360 0.57169 0.05549
 N146 N 0.54465 0.45855 0.07739
 N147 N 0.55297 0.43056 0.10719
 N148 N 0.57423 0.45866 0.04680
 N149 N 0.60344 0.43076 0.05490
 N150 N 0.54447 0.54399 0.07736
 N151 N 0.55296 0.57153 0.10759
 C152 C 0.58950 0.58888 0.09303
 C153 C 0.58936 0.41323 0.09227
 N154 N 0.42267 0.45837 0.04735
 N155 N 0.39365 0.43020 0.05561
 N156 N 0.45227 0.54391 0.07782
 N157 N 0.44386 0.57156 0.10801
 N158 N 0.42255 0.54388 0.04744
 N159 N 0.39312 0.57150 0.05617
 N160 N 0.45244 0.45839 0.07767
 N161 N 0.44449 0.43024 0.10742
 Mn162 Mn 0.49846 0.50120 0.07799
 C163 C 0.40811 0.41268 0.09278
 C164 C 0.40725 0.58882 0.09366
 N165 N 0.57424 0.45846 -0.04759
 N166 N 0.60380 0.43099 -0.05633
 N167 N 0.54437 0.54378 -0.07805
 N168 N 0.55283 0.57123 -0.10842
 N169 N 0.57406 0.54398 -0.04766
 N170 N 0.60355 0.57156 -0.05653
 N171 N 0.54448 0.45827 -0.07793
 N172 N 0.55301 0.43068 -0.10813
 Mn173 Mn 0.57456 0.50131 -0.00039
 C174 C 0.58970 0.41358 -0.09376
 C175 C 0.58941 0.58864 -0.09408
 N176 N 0.42265 0.54366 -0.04707
 N177 N 0.39363 0.57173 -0.05525
 N178 N 0.45225 0.45815 -0.07748
 N179 N 0.44407 0.43013 -0.10729
 N180 N 0.42255 0.45823 -0.04702
 N181 N 0.39333 0.43023 -0.05528
 N182 N 0.45228 0.54358 -0.07761
 N183 N 0.44425 0.57160 -0.10741
 Mn184 Mn 0.42218 0.50105 0.00017
 Mn185 Mn 0.49832 0.50093 -0.07819
 Cl186 Cl 0.49839 0.50113 -0.00010
 C187 C 0.40797 0.58914 -0.09258
 C188 C 0.40761 0.41271 -0.09257
 C189 C 1.16214 0.16566 0.16726
 C190 C 1.15923 0.20797 0.16313
 C191 C 1.18556 0.23317 0.18839
 C192 C 1.21523 0.21620 0.21755
 C193 C 1.21732 0.17382 0.22220
 C194 C 1.19103 0.14871 0.19703
 C195 C 1.13598 0.13926 0.14096
 C196 C 1.11500 0.11585 0.11952
 H197 H 1.13681 0.22142 0.14034
 H198 H 1.18308 0.26585 0.18489
 H199 H 1.23908 0.15990 0.24518
 H200 H 1.19331 0.11601 0.20073
 C201 C 1.16193 0.66657 0.66553
 C202 C 1.15896 0.70890 0.66179
 C203 C 1.18506 0.73390 0.68748
 C204 C 1.21456 0.71672 0.71667
 C205 C 1.21667 0.67432 0.72097
 C206 C 1.19060 0.64938 0.69537
 C207 C 1.13596 0.64039 0.63882
 C208 C 1.11502 0.61715 0.61715
 H209 H 1.13668 0.72251 0.63897
 H210 H 1.18260 0.76661 0.68424
 H211 H 1.23830 0.66024 0.74397
 H212 H 1.19288 0.61666 0.69877
 C213 C 0.66196 0.16570 0.66712
 C214 C 0.65915 0.20806 0.66323
 C215 C 0.68537 0.23315 0.68881
 C216 C 0.71487 0.21608 0.71812
 C217 C 0.71685 0.17366 0.72251
 C218 C 0.69067 0.14864 0.69702
 C219 C 0.63581 0.13940 0.64048
 C220 C 0.61473 0.11618 0.61876
 H221 H 0.63689 0.22165 0.64038
 H222 H 0.68294 0.26585 0.68544
 H223 H 0.73847 0.15962 0.74555
 H224 H 0.69291 0.11594 0.70058
 C225 C 0.66120 0.66665 0.16637
 C226 C 0.68982 0.64915 0.19605
 C227 C 0.71620 0.67381 0.22164
 C228 C 0.71444 0.71624 0.21751
 C229 C 0.68500 0.73373 0.18846
 C230 C 0.65859 0.70901 0.16278
 C231 C 0.63492 0.64075 0.13965
 C232 C 0.61374 0.61776 0.11792
 H233 H 0.69183 0.61641 0.19933
 H234 H 0.73780 0.65951 0.24452
 H235 H 0.68281 0.76647 0.18534
 H236 H 0.63637 0.72287 0.14007
 C237 C 0.83990 -0.17092 0.16421
 C238 C 0.84292 -0.16978 0.20993
 C239 C 0.81630 -0.19432 0.23545
 C240 C 0.78616 -0.21990 0.21548
 C241 C 0.78409 -0.22189 0.16963
 C242 C 0.81075 -0.19730 0.14407
 C243 C 0.86530 -0.14359 0.13828
 C244 C 0.88592 -0.11955 0.11731
 H245 H 0.86537 -0.14947 0.22583
 H246 H 0.81866 -0.19280 0.27081
 H247 H 0.76181 -0.24203 0.15344
 H248 H 0.80826 -0.19847 0.10870
 C249 C 0.83957 0.33061 0.66486
 C250 C 0.84276 0.33141 0.71059
 C251 C 0.81644 0.30645 0.73607
 C252 C 0.78638 0.28075 0.71611
 C253 C 0.78413 0.27912 0.67024
 C254 C 0.81050 0.30412 0.64472
 C255 C 0.86486 0.35823 0.63890
 C256 C 0.88543 0.38232 0.61779
 H257 H 0.86514 0.35173 0.72656
 H258 H 0.81894 0.30778 0.77143
 H259 H 0.76189 0.25898 0.65400
 H260 H 0.80784 0.30316 0.60935
 C261 C 0.33920 -0.16986 0.66297
 C262 C 0.34220 -0.16851 0.70868
 C263 C 0.31575 -0.19312 0.73430
 C264 C 0.28579 -0.21896 0.71445
 C265 C 0.28375 -0.22115 0.66860
 C266 C 0.31024 -0.19650 0.64294
 C267 C 0.36444 -0.14250 0.63692
 C268 C 0.38497 -0.11846 0.61584
 H269 H 0.36451 -0.14801 0.72449
 H270 H 0.31810 -0.19145 0.76966
 H271 H 0.26163 -0.24150 0.65249
 H272 H 0.30778 -0.19783 0.60757
 C273 C 0.33935 0.33060 0.16373
 C274 C 0.34257 0.33160 0.20943
 C275 C 0.31633 0.30673 0.23498
 C276 C 0.28635 0.28093 0.21508
 C277 C 0.28408 0.27907 0.16923
 C278 C 0.31037 0.30401 0.14363
 C279 C 0.36438 0.35827 0.13778
 C280 C 0.38473 0.38254 0.11682
 H281 H 0.36490 0.35205 0.22531
 H282 H 0.31883 0.30817 0.27034
 H283 H 0.26189 0.25881 0.15309
 H284 H 0.30772 0.30295 0.10827
 C285 C 0.83918 0.16870 -0.16241
 C286 C 0.84248 0.16808 -0.20814
 C287 C 0.81622 0.19302 -0.23354
 C288 C 0.78612 0.21857 -0.21350
 C289 C 0.78370 0.21999 -0.16762
 C290 C 0.81000 0.19499 -0.14218
 C291 C 0.86454 0.14115 -0.13658
 C292 C 0.88523 0.11710 -0.11564
 H293 H 0.86493 0.14791 -0.22419
 H294 H 0.81885 0.19185 -0.26890
 H295 H 0.76138 0.23999 -0.15134
 H296 H 0.80725 0.19581 -0.10681
 C297 C 0.83918 0.66919 0.33675
 C298 C 0.84207 0.66799 0.29102
 C299 C 0.81561 0.69263 0.26560
 C300 C 0.78575 0.71838 0.28568
 C301 C 0.78376 0.72038 0.33154
 C302 C 0.81026 0.69568 0.35700
 C303 C 0.86456 0.64189 0.36259
 C304 C 0.88521 0.61793 0.38350
 H305 H 0.86435 0.64761 0.27503
 H306 H 0.81792 0.69111 0.23023
 H307 H 0.76168 0.74063 0.34780
 H308 H 0.80787 0.69689 0.39238
 C309 C 0.34028 0.16988 0.33614
 C310 C 0.34332 0.16905 0.29042
 C311 C 0.31679 0.19376 0.26513
 C312 C 0.28673 0.21920 0.28533
 C313 C 0.28464 0.22090 0.33120
 C314 C 0.31121 0.19613 0.35653
 C315 C 0.36555 0.14231 0.36182
 C316 C 0.38602 0.11810 0.38263
 H317 H 0.36570 0.14885 0.27432
 H318 H 0.31915 0.19243 0.22976
 H319 H 0.26237 0.24090 0.34755
 H320 H 0.30869 0.19705 0.39191
 C321 C 0.33897 0.67047 -0.16369
 C322 C 0.34211 0.66925 -0.20939
 C323 C 0.31574 0.69384 -0.23497
 C324 C 0.28573 0.71954 -0.21507
 C325 C 0.28356 0.72162 -0.16922
 C326 C 0.30997 0.69698 -0.14361
 C327 C 0.36409 0.64309 -0.13769
 C328 C 0.38451 0.61904 -0.11666
 H329 H 0.36446 0.64885 -0.22525
 H330 H 0.31819 0.69226 -0.27033
 H331 H 0.26139 0.74185 -0.15307
 H332 H 0.30739 0.69820 -0.10823
 C333 C 1.16168 -0.16635 -0.16619
 C334 C 1.15873 -0.20869 -0.16241
 C335 C 1.18492 -0.23361 -0.18806
 C336 C 1.21448 -0.21634 -0.21727
 C337 C 1.21656 -0.17393 -0.22161
 C338 C 1.19041 -0.14908 -0.19605
 C339 C 1.13570 -0.14025 -0.13944
 C340 C 1.11481 -0.11709 -0.11766
 H341 H 1.13642 -0.22237 -0.13956
 H342 H 1.18247 -0.26632 -0.18479
 H343 H 1.23825 -0.15980 -0.24462
 H344 H 1.19268 -0.11635 -0.19948
 C345 C 1.16174 0.33361 0.33363
 C346 C 1.15922 0.29129 0.33802
 C347 C 1.18572 0.26626 0.31278
 C348 C 1.21517 0.28342 0.28338
 C349 C 1.21690 0.32580 0.27851
 C350 C 1.19044 0.35074 0.30364
 C351 C 1.13540 0.35987 0.35988
 C352 C 1.11431 0.38320 0.38128
 H353 H 1.13696 0.27770 0.36098
 H354 H 1.18351 0.23357 0.31645
 H355 H 1.23846 0.33985 0.25533
 H356 H 1.19243 0.38344 0.29975
 C357 C 0.66192 -0.16671 0.33432
 C358 C 0.65891 -0.20903 0.33831
 C359 C 0.68518 -0.23410 0.31290
 C360 C 0.71487 -0.21699 0.28372
 C361 C 0.71708 -0.17460 0.27924
 C362 C 0.69085 -0.14960 0.30456
 C363 C 0.63573 -0.14044 0.36067
 C364 C 0.61465 -0.11714 0.38209
 H365 H 0.63645 -0.22259 0.36108
 H366 H 0.68262 -0.26680 0.31627
 H367 H 0.73886 -0.16058 0.25624
 H368 H 0.69319 -0.11690 0.30098
 C369 C 0.66149 0.33433 -0.16574
 C370 C 0.65870 0.29200 -0.16130
 C371 C 0.68515 0.26672 -0.18637
 C372 C 0.71488 0.28356 -0.21572
 C373 C 0.71690 0.32595 -0.22061
 C374 C 0.69050 0.35115 -0.19563
 C375 C 0.63508 0.36087 -0.13968
 C376 C 0.61388 0.38431 -0.11841
 H377 H 0.63623 0.27859 -0.13843
 H378 H 0.68266 0.23405 -0.18265
 H379 H 0.73867 0.33983 -0.24371
 H380 H 0.69276 0.38382 -0.19961
 C381 C 1.16244 0.16587 -0.16545
 C382 C 1.15924 0.20821 -0.16189
 C383 C 1.18515 0.23331 -0.18781
 C384 C 1.21472 0.21623 -0.21710
 C385 C 1.21703 0.17381 -0.22123
 C386 C 1.19115 0.14879 -0.19541
 C387 C 1.13661 0.13957 -0.13854
 C388 C 1.11572 0.11630 -0.11673
 H389 H 1.13694 0.22178 -0.13902
 H390 H 1.18251 0.26601 -0.18465
 H391 H 1.23870 0.15977 -0.24427
 H392 H 1.19363 0.11608 -0.19873
 C393 C 1.16257 0.66707 0.33210
 C394 C 1.16035 0.70941 0.33666
 C395 C 1.18684 0.73463 0.31136
 C396 C 1.21635 0.71779 0.28167
 C397 C 1.21737 0.67529 0.27643
 C398 C 1.19090 0.65022 0.30164
 C399 C 1.13627 0.64053 0.35857
 C400 C 1.11517 0.61707 0.38014
 H401 H 1.13831 0.72292 0.35985
 H402 H 1.18461 0.76729 0.31542
 H403 H 1.23829 0.66100 0.25287
 H404 H 1.19261 0.61755 0.29739
 C405 C 0.66414 0.16614 0.33506
 C406 C 0.68708 0.15002 0.29973
 C407 C 0.71283 0.17524 0.27401
 C408 C 0.71594 0.21687 0.28342
 C409 C 0.69308 0.23298 0.31896
 C410 C 0.66726 0.20768 0.34474
 C411 C 0.63761 0.13973 0.36110
 C412 C 0.61604 0.11643 0.38218
 H413 H 0.68489 0.11794 0.29192
 H414 H 0.72978 0.16215 0.24652
 H415 H 0.69501 0.26510 0.32654
 H416 H 0.64967 0.22049 0.37202
 C417 C 0.66128 0.66691 -0.16705
 C418 C 0.65863 0.70926 -0.16315
 C419 C 0.68520 0.73421 -0.18851
 C420 C 0.71487 0.71696 -0.21756
 C421 C 0.71673 0.67455 -0.22196
 C422 C 0.69020 0.64968 -0.19669
 C423 C 0.63484 0.64077 -0.14062
 C424 C 0.61361 0.61763 -0.11903
 H425 H 0.63621 0.72295 -0.14047
 H426 H 0.68289 0.76692 -0.18519
 H427 H 0.73850 0.66041 -0.24484
 H428 H 0.69230 0.61695 -0.20021
 C429 C 0.83970 -0.16928 -0.16397
 C430 C 0.84288 -0.16820 -0.20969
 C431 C 0.81646 -0.19291 -0.23524
 C432 C 0.78635 -0.21860 -0.21533
 C433 C 0.78407 -0.22048 -0.16947
 C434 C 0.81053 -0.19573 -0.14389
 C435 C 0.86508 -0.14194 -0.13796
 C436 C 0.88572 -0.11802 -0.11681
 H437 H 0.86535 -0.14787 -0.22558
 H438 H 0.81899 -0.19144 -0.27060
 H439 H 0.76178 -0.24066 -0.15331
 H440 H 0.80789 -0.19686 -0.10852
 C441 C 0.83381 0.33483 0.33582
 C442 C 0.81038 0.35141 0.30119
 C443 C 0.78429 0.32654 0.27550
 C444 C 0.78166 0.28464 0.28382
 C445 C 0.80422 0.26836 0.31947
 C446 C 0.83037 0.29330 0.34524
 C447 C 0.86087 0.36085 0.36166
 C448 C 0.88282 0.38386 0.38260
 H449 H 0.81236 0.38362 0.29395
 H450 H 0.76657 0.34039 0.24918
 H451 H 0.80145 0.23647 0.32767
 H452 H 0.84784 0.28023 0.37241
 C453 C 0.33863 -0.17017 0.33455
 C454 C 0.34145 -0.16951 0.28880
 C455 C 0.31504 -0.19463 0.26360
 C456 C 0.28497 -0.22043 0.28376
 C457 C 0.28343 -0.22207 0.32978
 C458 C 0.30992 -0.19687 0.35497
 C459 C 0.36402 -0.14230 0.36025
 C460 C 0.38467 -0.11806 0.38119
 H461 H 0.36361 -0.14913 0.27256
 H462 H 0.31746 -0.19316 0.22822
 H463 H 0.26176 -0.24238 0.34660
 H464 H 0.30764 -0.19789 0.39037
 C465 C 0.33870 0.33076 -0.16370
 C466 C 0.30969 0.30415 -0.14362
 C467 C 0.28353 0.27912 -0.16922
 C468 C 0.28591 0.28088 -0.21509
 C469 C 0.31596 0.30667 -0.23497
 C470 C 0.34208 0.33165 -0.20941
 C471 C 0.36368 0.35847 -0.13770
 C472 C 0.38405 0.38269 -0.11666
 H473 H 0.30692 0.30313 -0.10826
 H474 H 0.26133 0.25887 -0.15304
 H475 H 0.31858 0.30806 -0.27033
 H476 H 0.36444 0.35209 -0.22530
 C477 C 1.16304 -0.16738 0.16823
 C478 C 1.19144 -0.15034 0.19849
 C479 C 1.21769 -0.17528 0.22394
 C480 C 1.21634 -0.21781 0.21914
 C481 C 1.18670 -0.23482 0.18970
 C482 C 1.16044 -0.20975 0.16416
 C483 C 1.13696 -0.14102 0.14151
 C484 C 1.11596 -0.11772 0.11980
 H485 H 1.19340 -0.11764 0.20238
 H486 H 1.23874 -0.16085 0.24729
 H487 H 1.18425 -0.26750 0.18595
 H488 H 1.13832 -0.22339 0.14115
 C489 C 1.16227 0.33384 0.66543
 C490 C 1.19098 0.35090 0.69539
 C491 C 1.21695 0.32589 0.72095
 C492 C 1.21475 0.28347 0.71656
 C493 C 1.18520 0.26640 0.68725
 C494 C 1.15919 0.29149 0.66159
 C495 C 1.13634 0.36016 0.63879
 C496 C 1.11541 0.38346 0.61719
 H497 H 1.19338 0.38361 0.69893
 H498 H 1.23859 0.33992 0.74403
 H499 H 1.18261 0.23370 0.68391
 H500 H 1.13689 0.27793 0.63871
 C501 C 0.66187 -0.16600 0.66588
 C502 C 0.69070 -0.14880 0.69564
 C503 C 0.71712 -0.17370 0.72082
 C504 C 0.71525 -0.21611 0.71624
 C505 C 0.68570 -0.23331 0.68702
 C506 C 0.65924 -0.20834 0.66174
 C507 C 0.63546 -0.13982 0.63961
 C508 C 0.61426 -0.11664 0.61814
 H509 H 0.69279 -0.11609 0.69933
 H510 H 0.73878 -0.15960 0.74384
 H511 H 0.68338 -0.26601 0.68355
 H512 H 0.63689 -0.22199 0.63896
 C513 C 0.66073 0.33148 0.16067
 C514 C 0.64254 0.30561 0.19200
 C515 C 0.66867 0.28065 0.21758
 C516 C 0.71326 0.28159 0.21224
 C517 C 0.73117 0.30682 0.17999
 C518 C 0.70507 0.33172 0.15442
 C519 C 0.63435 0.35910 0.13619
 C520 C 0.61321 0.38327 0.11601
 H521 H 0.60825 0.30518 0.19708
 H522 H 0.65392 0.26122 0.24185
 H523 H 0.76546 0.30773 0.17509
 H524 H 0.71951 0.35162 0.13027
 C525 C 0.83837 0.16766 0.16433
 C526 C 0.84451 0.17116 0.20954
 C527 C 0.81799 0.19640 0.23433
 C528 C 0.78522 0.21864 0.21416
 C529 C 0.77910 0.21490 0.16877
 C530 C 0.80565 0.18961 0.14397
 C531 C 0.86427 0.14002 0.13931
 C532 C 0.88528 0.11600 0.11874
 H533 H 0.86938 0.15391 0.22574
 H534 H 0.82283 0.19789 0.26929
 H535 H 0.75336 0.23066 0.15245
 H536 H 0.80023 0.18669 0.10906
 C537 C 0.84008 0.66972 0.66377
 C538 C 0.84296 0.66893 0.70951
 C539 C 0.81646 0.69378 0.73476
 C540 C 0.78656 0.71935 0.71453
 C541 C 0.78459 0.72095 0.66865
 C542 C 0.81114 0.69605 0.64336
 C543 C 0.86546 0.64215 0.63808
 C544 C 0.88604 0.61802 0.61719
 H545 H 0.86523 0.64869 0.72565
 H546 H 0.81873 0.69251 0.77014
 H547 H 0.76246 0.74102 0.65226
 H548 H 0.80873 0.69696 0.60797
 C549 C 0.33896 0.16927 0.66307
 C550 C 0.34226 0.16846 0.70879
 C551 C 0.31603 0.19333 0.73432
 C552 C 0.28596 0.21894 0.71442
 C553 C 0.28363 0.22060 0.66855
 C554 C 0.30990 0.19568 0.64298
 C555 C 0.36410 0.14170 0.63711
 C556 C 0.38460 0.11759 0.61609
 H557 H 0.36465 0.14818 0.72470
 H558 H 0.31861 0.19201 0.76968
 H559 H 0.26140 0.24071 0.65236
 H560 H 0.30719 0.19664 0.60762
 C561 C 0.33790 0.67059 0.16524
 C562 C 0.34087 0.66970 0.21097
 C563 C 0.31471 0.69474 0.23647
 C564 C 0.28473 0.72068 0.21663
 C565 C 0.28306 0.72257 0.17063
 C566 C 0.30930 0.69746 0.14514
 C567 C 0.36302 0.64282 0.13923
 C568 C 0.38351 0.61866 0.11808
 H569 H 0.36297 0.64918 0.22696
 H570 H 0.31724 0.69310 0.27183
 H571 H 0.26149 0.74303 0.15403
 H572 H 0.30692 0.69867 0.10976
   
