data_POSCAR
  _audit_creation_date              2014-09-24
  _audit_creation_method            'ToBaCCo'
  _symmetry_space_group_name_H-M    'P1'
  _symmetry_Int_Tables_number       1
  _symmetry_cell_setting            triclinic
  loop_
  _symmetry_equiv_pos_as_xyz
 x,y,z
_cell_length_a 35.3759
_cell_length_b 35.3942
_cell_length_c 39.4210
_cell_angle_alpha 89.956900
_cell_angle_beta 90.084400
_cell_angle_gamma 120.139600
loop_
  _atom_site_label
  _atom_site_type_symbol
  _atom_site_fract_x
  _atom_site_fract_y
  _atom_site_fract_z
C1 C 0.03948 0.51405 1.32252
 C2 C -0.00024 0.49437 1.33997
 C3 C -0.04009 0.47426 1.32262
 C4 C -0.04068 0.47353 1.28673
 C5 C -0.00055 0.49339 1.26869
 C6 C 0.03975 0.51374 1.28662
 C7 C 0.07911 0.53326 1.26817
 C8 C 0.07893 0.53294 1.23286
 C9 C 0.03941 0.51311 1.21463
 C10 C -0.00071 0.49308 1.23265
 C11 C -0.08020 0.45364 1.26840
 C12 C -0.08034 0.45336 1.23310
 C13 C -0.04097 0.47295 1.21469
 C14 C -0.04063 0.47314 1.17878
 C15 C -0.00087 0.49296 1.16139
 C16 C 0.03888 0.51284 1.17880
 H17 H 0.11046 0.54904 1.28093
 H18 H 0.11014 0.54848 1.21994
 H19 H -0.11144 0.43811 1.28127
 H20 H -0.11168 0.43764 1.22030
 H21 H -0.00014 0.49487 1.36755
 H22 H -0.00076 0.49316 1.13383
 C23 C 0.52645 0.48606 1.17894
 C24 C 0.50649 0.50570 1.16142
 C25 C 0.48672 0.52563 1.17872
 C26 C 0.48674 0.52621 1.21454
 C27 C 0.50692 0.50638 1.23265
 C28 C 0.52691 0.48622 1.21478
 C29 C 0.54666 0.46669 1.23320
 C30 C 0.54668 0.46682 1.26852
 C31 C 0.52694 0.48650 1.28679
 C32 C 0.50693 0.50653 1.26867
 C33 C 0.46705 0.54594 1.23272
 C34 C 0.46705 0.54609 1.26804
 C35 C 0.48674 0.52652 1.28649
 C36 C 0.48670 0.52625 1.32233
 C37 C 0.50648 0.50647 1.33991
 C38 C 0.52647 0.48666 1.32268
 H39 H 0.56226 0.45105 1.22042
 H40 H 0.56231 0.45127 1.28144
 H41 H 0.45139 0.56143 1.21975
 H42 H 0.45139 0.56169 1.28079
 H43 H 0.50616 0.50529 1.13388
 H44 H 0.50608 0.50636 1.36747
 C45 C 0.47348 0.96061 1.32240
 C46 C 0.49339 1.00037 1.33983
 C47 C 0.51333 1.04018 1.32245
 C48 C 0.51353 1.04066 1.28655
 C49 C 0.49340 1.00050 1.26853
 C50 C 0.47325 0.96026 1.28649
 C51 C 0.45357 0.92089 1.26805
 C52 C 0.45377 0.92098 1.23273
 C53 C 0.47366 0.96042 1.21447
 C54 C 0.49361 1.00057 1.23248
 C55 C 0.53336 1.08011 1.26820
 C56 C 0.53357 1.08016 1.23288
 C57 C 0.51395 1.04078 1.21448
 C58 C 0.51413 1.04036 1.17857
 C59 C 0.49432 1.00055 1.16120
 C60 C 0.47424 0.96084 1.17863
 H61 H 0.43784 0.88958 1.28083
 H62 H 0.43820 0.88975 1.21983
 H63 H 0.54899 1.11137 1.28104
 H64 H 0.54934 1.11145 1.22007
 H65 H 0.49354 1.00034 1.36740
 H66 H 0.49465 1.00038 1.13364
 C67 C 1.04087 0.52628 0.82186
 C68 C 1.00101 0.50611 0.83913
 C69 C 0.96133 0.48641 0.82161
 C70 C 0.96102 0.48669 0.78577
 C71 C 1.00127 0.50707 0.76788
 C72 C 1.04143 0.52700 0.78596
 C73 C 1.08090 0.54694 0.76766
 C74 C 1.08096 0.54720 0.73234
 C75 C 1.04155 0.52754 0.71389
 C76 C 1.00133 0.50734 0.73184
 C77 C 0.92162 0.46708 0.76738
 C78 C 0.92168 0.46734 0.73206
 C79 C 0.96114 0.48722 0.71381
 C80 C 0.96156 0.48745 0.67798
 C81 C 1.00128 0.50740 0.66058
 C82 C 1.04111 0.52733 0.67798
 H83 H 1.11217 0.56251 0.78056
 H84 H 1.11227 0.56296 0.71956
 H85 H 0.89033 0.45129 0.78018
 H86 H 0.89043 0.45173 0.71914
 H87 H 1.00077 0.50554 0.86669
 H88 H 1.00109 0.50718 0.63302
 C89 C 0.51327 0.47387 0.67793
 C90 C 0.49353 0.49390 0.66062
 C91 C 0.47369 0.51363 0.67813
 C92 C 0.47331 0.51345 0.71397
 C93 C 0.49326 0.49319 0.73185
 C94 C 0.51334 0.47329 0.71376
 C95 C 0.53301 0.45349 0.73197
 C96 C 0.53309 0.45334 0.76731
 C97 C 0.51349 0.47298 0.78573
 C98 C 0.49333 0.49303 0.76786
 C99 C 0.45367 0.53304 0.73240
 C100 C 0.45372 0.53286 0.76773
 C101 C 0.47342 0.51310 0.78594
 C102 C 0.47391 0.51293 0.82178
 C103 C 0.49384 0.49310 0.83908
 C104 C 0.51357 0.47326 0.82158
 H105 H 0.54858 0.43795 0.71902
 H106 H 0.54872 0.43770 0.78009
 H107 H 0.43810 0.54874 0.71961
 H108 H 0.43819 0.54844 0.78068
 H109 H 0.49378 0.49432 0.63308
 H110 H 0.49419 0.49329 0.86662
 C111 C 0.52595 0.03913 0.67746
 C112 C 0.50591 -0.00057 0.66003
 C113 C 0.48608 -0.04036 0.67741
 C114 C 0.48619 -0.04079 0.71331
 C115 C 0.50650 -0.00058 0.73127
 C116 C 0.52649 0.03957 0.71328
 C117 C 0.54633 0.07903 0.73157
 C118 C 0.54644 0.07909 0.76689
 C119 C 0.52672 0.03970 0.78523
 C120 C 0.50663 -0.00050 0.76728
 C121 C 0.46652 -0.08018 0.73174
 C122 C 0.46667 -0.08008 0.76706
 C123 C 0.48648 -0.04062 0.78530
 C124 C 0.48660 -0.04010 0.82113
 C125 C 0.50647 -0.00036 0.83850
 C126 C 0.52639 0.03933 0.82106
 H127 H 0.56194 0.11026 0.71868
 H128 H 0.56212 0.11036 0.77973
 H129 H 0.45077 -0.11148 0.71894
 H130 H 0.45104 -0.11130 0.77997
 H131 H 0.50562 -0.00040 0.63247
 H132 H 0.50625 -0.00032 0.86604
 O133 O 0.39861 0.65572 0.97217
 O134 O 0.39681 0.72756 0.96103
 C135 C 0.37692 0.74831 0.95514
 O136 O 0.34359 0.74206 0.97196
 O137 O 0.27157 0.66824 0.96085
 C138 C 0.25071 0.62753 0.95499
 O139 O 0.25693 0.60045 0.97186
 O140 O 0.33077 0.60248 0.96094
 C141 C 0.37153 0.62238 0.95525
 O142 O 0.39663 0.66837 1.03942
 O143 O 0.39870 0.74218 1.02829
 C144 C 0.37164 0.74844 1.04509
 O145 O 0.33090 0.72754 1.03924
 O146 O 0.25701 0.65555 1.02813
 C147 C 0.25068 0.62220 1.04498
 O148 O 0.27143 0.60230 1.03916
 O149 O 0.34336 0.60054 1.02824
 C150 C 0.37671 0.62764 1.04516
 Cr151 Cr 0.39530 0.69727 1.00022
 Cr152 Cr 0.30195 0.69716 1.00005
 Cr153 Cr 0.30181 0.60383 1.00005
 O154 O 0.33302 0.66608 1.00011
 O155 O 0.60334 0.33042 0.96140
 O156 O 0.60146 0.25669 0.97239
 C157 C 0.62857 0.25049 0.95560
 O158 O 0.66929 0.27126 0.96157
 O159 O 0.74320 0.34327 0.97259
 C160 C 0.74951 0.37659 0.95568
 O161 O 0.72873 0.39646 0.96146
 O162 O 0.65679 0.39825 0.97231
 C163 C 0.62332 0.37113 0.95550
 O164 O 0.60151 0.34297 1.02871
 O165 O 0.60330 0.27107 1.03972
 C166 C 0.62321 0.25034 1.04564
 O167 O 0.65664 0.25674 1.02887
 O168 O 0.72864 0.33069 1.03989
 C169 C 0.74945 0.37141 1.04573
 O170 O 0.74319 0.39844 1.02881
 O171 O 0.66936 0.39645 1.03964
 C172 C 0.62863 0.37644 1.04549
 Cr173 Cr 0.60481 0.30149 1.00056
 Cr174 Cr 0.69824 0.30169 1.00073
 Cr175 Cr 0.69832 0.39500 1.00056
 O176 O 0.66712 0.33272 1.00062
 O177 O 0.65629 0.39913 0.52739
 O178 O 0.72825 0.39739 0.53845
 C179 C 0.74912 0.37759 0.54421
 O180 O 0.74283 0.34431 0.52730
 O181 O 0.66897 0.27230 0.53829
 C182 C 0.62823 0.25139 0.54408
 O183 O 0.60111 0.25757 0.52722
 O184 O 0.60297 0.33126 0.53831
 C185 C 0.62289 0.37197 0.54418
 O186 O 0.66891 0.39743 0.46012
 O187 O 0.74277 0.39945 0.47117
 C188 C 0.74907 0.37246 0.45430
 O189 O 0.72818 0.33172 0.46002
 O190 O 0.65622 0.25775 0.47102
 C191 C 0.62277 0.25131 0.45418
 O192 O 0.60293 0.27212 0.45995
 O193 O 0.60108 0.34398 0.47104
 C194 C 0.62816 0.37748 0.45430
 Cr195 Cr 0.69786 0.39596 0.49927
 Cr196 Cr 0.69785 0.30271 0.49915
 Cr197 Cr 0.60441 0.30243 0.49913
 O198 O 0.66670 0.33370 0.49918
 O199 O 0.33063 0.60383 0.53891
 O200 O 0.25679 0.60187 0.52795
 C201 C 0.25055 0.62896 0.54474
 O202 O 0.27134 0.66965 0.53879
 O203 O 0.34343 0.74348 0.52781
 C204 C 0.37684 0.74981 0.54464
 O205 O 0.39673 0.72908 0.53877
 O206 O 0.39846 0.65714 0.52786
 C207 C 0.37138 0.62375 0.54471
 O208 O 0.34303 0.60185 0.47161
 O209 O 0.27105 0.60364 0.46063
 C210 C 0.25033 0.62356 0.45473
 O211 O 0.25681 0.65703 0.47147
 O212 O 0.33077 0.72906 0.46049
 C213 C 0.37150 0.74989 0.45466
 O214 O 0.39855 0.74350 0.47146
 O215 O 0.39645 0.66963 0.46055
 C216 C 0.37648 0.62889 0.45479
 Cr217 Cr 0.30158 0.60520 0.49977
 Cr218 Cr 0.30178 0.69860 0.49964
 Cr219 Cr 0.39514 0.69864 0.49966
 O220 O 0.33283 0.66748 0.49968
 C221 C 0.42942 0.57838 0.38140
 C222 C 0.39041 0.55016 0.39818
 C223 C 0.37259 0.56670 0.42142
 C224 C 0.46624 0.54541 0.34212
 C225 C 0.43233 0.64004 0.41064
 C226 C 0.45010 0.62338 0.38740
 C227 C 0.44933 0.56078 0.35953
 C228 C 0.39365 0.61180 0.42829
 H229 H 0.37420 0.51525 0.39379
 H230 H 0.34276 0.54403 0.43447
 H231 H 0.44939 0.67491 0.41529
 H232 H 0.48040 0.64550 0.37462
 C233 C 0.42208 0.85329 0.38084
 C234 C 0.45026 0.84253 0.39766
 C235 C 0.43370 0.80822 0.42105
 C236 C 0.45522 0.92307 0.34125
 C237 C 0.36039 0.79460 0.41038
 C238 C 0.37708 0.82898 0.38699
 C239 C 0.43974 0.89078 0.35879
 C240 C 0.38860 0.78418 0.42805
 H241 H 0.48517 0.86121 0.39317
 H242 H 0.45636 0.80109 0.43411
 H243 H 0.32554 0.77680 0.41512
 H244 H 0.35497 0.83713 0.37420
 C245 C 0.14695 0.57050 0.38085
 C246 C 0.15775 0.60947 0.39761
 C247 C 0.19208 0.62732 0.42103
 C248 C 0.07707 0.53354 0.34133
 C249 C 0.20561 0.56766 0.41046
 C250 C 0.17121 0.54987 0.38704
 C251 C 0.10942 0.55052 0.35883
 C252 C 0.21606 0.60631 0.42809
 H253 H 0.13909 0.62563 0.39308
 H254 H 0.19925 0.65712 0.43406
 H255 H 0.22337 0.55065 0.41524
 H256 H 0.16301 0.51959 0.37428
 C257 C 0.57761 0.43066 0.38101
 C258 C 0.54940 0.39155 0.39765
 C259 C 0.56596 0.37365 0.42086
 C260 C 0.54458 0.46743 0.34165
 C261 C 0.63932 0.43355 0.41031
 C262 C 0.62263 0.45139 0.38710
 C263 C 0.55999 0.45058 0.35914
 C264 C 0.61108 0.39475 0.42782
 H265 H 0.51448 0.37530 0.39317
 H266 H 0.54329 0.34373 0.43381
 H267 H 0.67419 0.45063 0.41504
 H268 H 0.64474 0.48177 0.37441
 C269 C 0.56950 0.14758 0.38074
 C270 C 0.60859 0.15855 0.39748
 C271 C 0.62650 0.19299 0.42074
 C272 C 0.53265 0.07767 0.34134
 C273 C 0.56669 0.20633 0.41006
 C274 C 0.54883 0.17181 0.38680
 C275 C 0.54954 0.11000 0.35882
 C276 C 0.60546 0.21695 0.42766
 H277 H 0.62480 0.13992 0.39304
 H278 H 0.65640 0.20028 0.43375
 H279 H 0.54964 0.22407 0.41475
 H280 H 0.51847 0.16350 0.37405
 C281 C 0.85262 0.42316 0.38085
 C282 C 0.82812 0.37815 0.38678
 C283 C 0.79364 0.36142 0.41004
 C284 C 0.92247 0.45619 0.34150
 C285 C 0.80758 0.43474 0.42096
 C286 C 0.84198 0.45134 0.39770
 C287 C 0.89016 0.44080 0.35896
 C288 C 0.78336 0.38962 0.42777
 H289 H 0.83619 0.35607 0.37393
 H290 H 0.77569 0.32655 0.41464
 H291 H 0.80053 0.45737 0.43408
 H292 H 0.86083 0.48626 0.39335
 C293 C 0.57844 0.42903 1.11945
 C294 C 0.62342 0.44980 1.11329
 C295 C 0.63998 0.43217 1.08984
 C296 C 0.54560 0.46565 1.15908
 C297 C 0.56657 0.37240 1.07916
 C298 C 0.55013 0.39009 1.10261
 C299 C 0.56093 0.44883 1.14153
 C300 C 0.61165 0.39355 1.07214
 H301 H 0.64561 0.48006 1.12611
 H302 H 0.67483 0.44928 1.08508
 H303 H 0.54383 0.34261 1.06608
 H304 H 0.51523 0.37382 1.10712
 C305 C 0.85223 0.42188 1.12010
 C306 C 0.84169 0.45008 1.10312
 C307 C 0.80757 0.43356 1.07952
 C308 C 0.92185 0.45492 1.15989
 C309 C 0.79373 0.36025 1.09034
 C310 C 0.82792 0.37690 1.11394
 C311 C 0.88960 0.43948 1.14229
 C312 C 0.78354 0.38849 1.07250
 H313 H 0.86040 0.48498 1.10762
 H314 H 0.80059 0.45623 1.06633
 H315 H 0.77592 0.32541 1.08560
 H316 H 0.83593 0.35479 1.12686
 C317 C 0.57039 0.14739 1.11984
 C318 C 0.60923 0.15800 1.10294
 C319 C 0.62698 0.19214 1.07940
 C320 C 0.53359 0.07784 1.15965
 C321 C 0.56748 0.20589 1.09008
 C322 C 0.54978 0.17168 1.11361
 C323 C 0.55051 0.11005 1.14202
 C324 C 0.60601 0.21617 1.07234
 H325 H 0.62538 0.13932 1.10747
 H326 H 0.65669 0.19917 1.06629
 H327 H 0.55049 0.22369 1.08530
 H328 H 0.51960 0.16364 1.12646
 C329 C 0.42954 0.57738 1.11900
 C330 C 0.39065 0.54908 1.10206
 C331 C 0.37287 0.56553 1.07866
 C332 C 0.46629 0.54463 1.15866
 C333 C 0.43241 0.63896 1.08960
 C334 C 0.45014 0.62238 1.11300
 C335 C 0.44941 0.55990 1.14106
 C336 C 0.39386 0.61063 1.07180
 H337 H 0.37451 0.51417 1.10646
 H338 H 0.34313 0.54280 1.06549
 H339 H 0.44940 0.67382 1.08496
 H340 H 0.48035 0.64456 1.12592
 C341 C 0.14788 0.56964 1.11907
 C342 C 0.17200 0.54888 1.11287
 C343 C 0.20620 0.56650 1.08937
 C344 C 0.07842 0.53313 1.15882
 C345 C 0.19274 0.62621 1.07870
 C346 C 0.15862 0.60855 1.10221
 C347 C 0.11057 0.54989 1.14120
 C348 C 0.21659 0.60509 1.07165
 H349 H 0.16384 0.51865 1.12571
 H350 H 0.22388 0.54941 1.08458
 H351 H 0.19988 0.65599 1.06562
 H352 H 0.14005 0.62480 1.10676
 C353 C 0.42210 0.85165 1.11898
 C354 C 0.45034 0.84108 1.10214
 C355 C 0.43382 0.80683 1.07871
 C356 C 0.45506 0.92125 1.15866
 C357 C 0.36044 0.79291 1.08941
 C358 C 0.37709 0.82723 1.11283
 C359 C 0.43968 0.88905 1.14107
 C360 C 0.38871 0.78267 1.07171
 H361 H 0.48526 0.85986 1.10663
 H362 H 0.45652 0.79983 1.06563
 H363 H 0.32557 0.77500 1.08467
 H364 H 0.35494 0.83524 1.12565
 C365 C 0.57012 0.42202 0.61810
 C366 C 0.60908 0.45034 0.60132
 C367 C 0.62682 0.43395 0.57787
 C368 C 0.53357 0.45478 0.65786
 C369 C 0.56707 0.36054 0.58845
 C370 C 0.54938 0.37706 0.61189
 C371 C 0.55034 0.43949 0.64022
 C372 C 0.60571 0.38889 0.57081
 H373 H 0.62534 0.48522 0.60587
 H374 H 0.65663 0.45670 0.56484
 H375 H 0.54999 0.32571 0.58365
 H376 H 0.51911 0.35487 0.62467
 C377 C 0.57798 0.14831 0.61796
 C378 C 0.54969 0.15888 0.60112
 C379 C 0.56615 0.19312 0.57769
 C380 C 0.54510 0.07870 0.65753
 C381 C 0.63956 0.20701 0.58843
 C382 C 0.62298 0.17271 0.61185
 C383 C 0.56045 0.11091 0.63998
 C384 C 0.61124 0.21723 0.57072
 H385 H 0.51479 0.14011 0.60560
 H386 H 0.54343 0.20013 0.56460
 H387 H 0.67442 0.22490 0.58370
 H388 H 0.64514 0.16467 0.62469
 C389 C 0.85232 0.43038 0.61823
 C390 C 0.82798 0.45096 0.61214
 C391 C 0.79366 0.43326 0.58867
 C392 C 0.92194 0.46705 0.65798
 C393 C 0.80741 0.37381 0.57781
 C394 C 0.84166 0.39156 0.60129
 C395 C 0.88972 0.45022 0.64036
 C396 C 0.78335 0.39476 0.57087
 H397 H 0.83606 0.48112 0.62504
 H398 H 0.77582 0.45022 0.58397
 H399 H 0.80034 0.34412 0.56466
 H400 H 0.86038 0.37543 0.60575
 C401 C 0.42173 0.57092 0.61861
 C402 C 0.45003 0.60978 0.60169
 C403 C 0.43356 0.62755 0.57826
 C404 C 0.45457 0.53414 0.65824
 C405 C 0.36011 0.56804 0.58912
 C406 C 0.37671 0.55033 0.61254
 C407 C 0.43925 0.55104 0.64068
 C408 C 0.38843 0.60658 0.57135
 H409 H 0.48496 0.62593 0.60611
 H410 H 0.45629 0.65727 0.56511
 H411 H 0.32523 0.55106 0.58445
 H412 H 0.35452 0.52014 0.62543
 C413 C 0.42972 0.85261 0.61883
 C414 C 0.39083 0.84200 0.60194
 C415 C 0.37305 0.80787 0.57840
 C416 C 0.46662 0.92218 0.65853
 C417 C 0.43261 0.79416 0.58911
 C418 C 0.45034 0.82836 0.61264
 C419 C 0.44966 0.88996 0.64095
 C420 C 0.39404 0.78390 0.57135
 H421 H 0.37468 0.86067 0.60646
 H422 H 0.34330 0.80084 0.56527
 H423 H 0.44961 0.77639 0.58434
 H424 H 0.48056 0.83642 0.62551
 C425 C 0.14802 0.57868 0.61919
 C426 C 0.15863 0.55046 0.60235
 C427 C 0.19264 0.56693 0.57872
 C428 C 0.07858 0.54562 0.65908
 C429 C 0.20626 0.64021 0.58920
 C430 C 0.17217 0.62362 0.61283
 C431 C 0.11076 0.56108 0.64144
 C432 C 0.21652 0.61196 0.57151
 H433 H 0.14004 0.51559 0.60700
 H434 H 0.19966 0.54424 0.56566
 H435 H 0.22395 0.67502 0.58430
 H436 H 0.16412 0.64574 0.62563
 C437 C 0.42193 0.56973 0.88153
 C438 C 0.45021 0.60858 0.89848
 C439 C 0.43371 0.62628 0.92186
 C440 C 0.45480 0.53322 0.84183
 C441 C 0.36029 0.56672 0.91088
 C442 C 0.37691 0.54907 0.88750
 C443 C 0.43947 0.54998 0.85945
 C444 C 0.38859 0.60526 0.92868
 H445 H 0.48514 0.62477 0.89411
 H446 H 0.45643 0.65600 0.93503
 H447 H 0.32540 0.54970 0.91548
 H448 H 0.35474 0.51889 0.87458
 C449 C 0.14785 0.57726 0.88069
 C450 C 0.17222 0.62223 0.88687
 C451 C 0.20643 0.63881 0.91044
 C452 C 0.07831 0.54437 0.84085
 C453 C 0.19250 0.56545 0.92120
 C454 C 0.15836 0.54900 0.89763
 C455 C 0.11051 0.55973 0.85850
 C456 C 0.21660 0.61052 0.92824
 H457 H 0.16425 0.64438 0.87398
 H458 H 0.22430 0.67365 0.91521
 H459 H 0.19946 0.54275 0.93435
 H460 H 0.13961 0.51411 0.89310
 C461 C 0.42955 0.85097 0.88091
 C462 C 0.39067 0.84034 0.89774
 C463 C 0.37297 0.80625 0.92129
 C464 C 0.46621 0.92039 0.84113
 C465 C 0.43259 0.79262 0.91071
 C466 C 0.45024 0.82678 0.88716
 C467 C 0.44937 0.88825 0.85876
 C468 C 0.39404 0.78235 0.92841
 H469 H 0.37448 0.85896 0.89315
 H470 H 0.34323 0.79919 0.93437
 H471 H 0.44962 0.77489 0.91554
 H472 H 0.48045 0.83487 0.87433
 C473 C 0.57065 0.42125 0.88128
 C474 C 0.54988 0.37629 0.88752
 C475 C 0.56753 0.35975 0.91106
 C476 C 0.53400 0.45407 0.84149
 C477 C 0.62731 0.43314 0.92169
 C478 C 0.60961 0.44954 0.89815
 C479 C 0.55083 0.43874 0.85910
 C480 C 0.60618 0.38808 0.92878
 H481 H 0.51961 0.35410 0.87468
 H482 H 0.55043 0.32492 0.91586
 H483 H 0.65711 0.45587 0.93478
 H484 H 0.62588 0.48442 0.89359
 C485 C 0.85223 0.42915 0.88138
 C486 C 0.84176 0.39044 0.89846
 C487 C 0.80769 0.37278 0.92204
 C488 C 0.92167 0.46584 0.84151
 C489 C 0.79375 0.43210 0.91105
 C490 C 0.82789 0.44970 0.88747
 C491 C 0.88951 0.44896 0.85916
 C492 C 0.78362 0.39370 0.92897
 H493 H 0.86048 0.37433 0.89402
 H494 H 0.80076 0.34316 0.93528
 H495 H 0.77591 0.44904 0.91572
 H496 H 0.83583 0.47978 0.87449
 C497 C 0.57844 0.14819 0.88100
 C498 C 0.55013 0.15860 0.89791
 C499 C 0.56654 0.19255 0.92160
 C500 C 0.54560 0.07890 0.84102
 C501 C 0.63995 0.20646 0.91102
 C502 C 0.62341 0.17244 0.88734
 C503 C 0.56094 0.11100 0.85872
 C504 C 0.61161 0.21653 0.92878
 H505 H 0.51524 0.13992 0.89327
 H506 H 0.54380 0.19944 0.93472
 H507 H 0.67479 0.22425 0.91590
 H508 H 0.64559 0.16453 0.87447
   
