data_POSCAR
  _audit_creation_date              2014-09-24
  _audit_creation_method            'ToBaCCo'
  _symmetry_space_group_name_H-M    'P1'
  _symmetry_Int_Tables_number       1
  _symmetry_cell_setting            triclinic
  loop_
  _symmetry_equiv_pos_as_xyz
 x,y,z
_cell_length_a 20.1128
_cell_length_b 20.2066
_cell_length_c 26.1039
_cell_angle_alpha 89.782700
_cell_angle_beta 90.356500
_cell_angle_gamma 90.353500
loop_
  _atom_site_label
  _atom_site_type_symbol
  _atom_site_fract_x
  _atom_site_fract_y
  _atom_site_fract_z
C1 C -0.02454 0.56070 1.02246
 C2 C -0.01606 0.55787 0.96819
 C3 C -0.01310 0.49498 0.94506
 C4 C -0.01573 0.43592 0.97338
 C5 C -0.02282 0.43814 1.02728
 C6 C -0.02791 0.50082 1.05070
 H7 H -0.02824 0.50397 1.09188
 H8 H -0.01322 0.49035 0.90395
 C9 C 0.43818 0.00611 0.52140
 C10 C 0.44046 0.00853 0.46742
 C11 C 0.50260 0.00816 0.44309
 C12 C 0.56276 0.00739 0.47095
 C13 C 0.55999 0.00393 0.52543
 C14 C 0.49767 0.00324 0.54958
 H15 H 0.49520 -0.00075 0.59095
 H16 H 0.50428 0.01197 0.40168
 C17 C 0.13225 0.01371 0.26315
 H18 H 0.13331 0.02413 0.22247
 C19 C 0.19120 0.01463 0.29171
 H20 H 0.23724 0.02703 0.27265
 C21 C 0.07008 -0.01316 0.33730
 H22 H 0.02279 -0.02443 0.35482
 C23 C 0.12771 -0.01244 0.36732
 H24 H 0.12429 -0.02295 0.40795
 N25 N 0.07343 -0.00087 0.28612
 C26 C -0.06136 -0.10145 0.18019
 H27 H -0.10549 -0.07137 0.18294
 C28 C -0.06337 -0.16030 0.15223
 H29 H -0.10895 -0.17463 0.13287
 C30 C 0.05152 -0.11957 0.20230
 H31 H 0.09603 -0.10430 0.22240
 C32 C 0.05210 -0.17792 0.17384
 H33 H 0.09720 -0.20684 0.17209
 Zn34 Zn -0.00514 -0.00475 0.24605
 N35 N -0.00467 -0.08257 0.20504
 C36 C -0.03302 0.06987 0.15546
 N37 N -0.00957 0.07238 0.20441
 C38 C 0.01102 0.13054 0.22544
 C39 C 0.00664 0.18952 0.19764
 C40 C -0.03828 0.12775 0.12625
 C41 C -0.11329 -0.06394 0.29918
 C42 C -0.16820 -0.06493 0.33166
 C43 C -0.15159 0.05180 0.34699
 C44 C -0.09712 0.05058 0.31415
 N45 N -0.07940 -0.00652 0.29059
 H46 H -0.04830 0.02321 0.13905
 H47 H 0.03097 0.13115 0.26400
 H48 H 0.02443 0.23470 0.21521
 H49 H -0.05766 0.12498 0.08750
 H50 H -0.09754 -0.10922 0.28120
 H51 H -0.19493 -0.11096 0.33778
 H52 H -0.16559 0.09842 0.36387
 H53 H -0.06931 0.09554 0.30724
 C54 C -0.00611 -0.19950 0.14925
 C55 C 0.18938 0.00038 0.34449
 C56 C -0.18785 -0.00669 0.35620
 C57 C -0.01951 0.18877 0.14754
 C58 C -0.00739 0.13205 0.77079
 H59 H -0.00868 0.13571 0.72943
 C60 C -0.00902 0.18932 0.80041
 H61 H -0.01261 0.23682 0.78136
 C62 C -0.00385 0.06507 0.84542
 H63 H -0.00301 0.01661 0.86291
 C64 C -0.00586 0.12108 0.87655
 H65 H -0.00561 0.11522 0.91782
 N66 N -0.00278 0.07159 0.79352
 C67 C 0.09672 -0.05014 0.67968
 H68 H 0.06299 -0.09199 0.67780
 C69 C 0.15503 -0.04999 0.65079
 H70 H 0.16523 -0.09158 0.62611
 C71 C 0.12377 0.05517 0.71386
 H72 H 0.11246 0.09551 0.73922
 C73 C 0.18200 0.05778 0.68511
 H74 H 0.21448 0.10057 0.68820
 Zn75 Zn 0.00323 -0.00273 0.74972
 N76 N 0.08206 0.00207 0.71027
 C77 C -0.06907 -0.00049 0.65515
 N78 N -0.07320 -0.00218 0.70712
 C79 C -0.13301 -0.00216 0.73107
 C80 C -0.19197 -0.00130 0.70266
 C81 C -0.12691 0.00061 0.62518
 C82 C 0.05547 -0.09067 0.82329
 C83 C 0.05833 -0.14836 0.85287
 C84 C -0.03846 -0.18946 0.80754
 C85 C -0.04017 -0.13059 0.77950
 N86 N 0.00592 -0.08230 0.78819
 H87 H -0.02104 0.00032 0.63685
 H88 H -0.13475 -0.00344 0.77249
 H89 H -0.23864 -0.00328 0.72295
 H90 H -0.12287 0.00198 0.58382
 H91 H 0.09229 -0.05204 0.82874
 H92 H 0.09738 -0.15401 0.88128
 H93 H -0.07632 -0.22675 0.80067
 H94 H -0.07822 -0.12380 0.75063
 C95 C 0.19859 0.00456 0.65356
 C96 C -0.00668 0.18418 0.85412
 C97 C 0.01128 -0.19873 0.84481
 C98 C -0.18940 0.00082 0.64884
 C99 C -0.02491 -0.37814 0.04896
 C100 C -0.05644 -0.36866 0.09361
 C101 C -0.05753 -0.30407 0.11987
 C102 C -0.00546 -0.26239 0.12051
 H103 H -0.08802 -0.40706 0.10945
 H104 H -0.10109 -0.29298 0.14238
 H105 H -0.00094 -0.33554 0.03185
 H106 H 0.04073 -0.27690 0.10272
 C107 C -0.02041 0.37866 0.05647
 C108 C -0.03684 0.37266 0.10624
 C109 C -0.03039 0.31064 0.13635
 C110 C -0.02612 0.24977 0.11608
 H111 H -0.05520 0.41426 0.12758
 H112 H -0.03223 0.31627 0.17749
 H113 H -0.00308 0.33483 0.03741
 H114 H -0.03080 0.24322 0.07513
 C115 C 0.37411 0.00511 0.54909
 C116 C 0.36021 -0.04158 0.58406
 C117 C 0.29650 -0.04530 0.61180
 C118 C 0.26067 0.00821 0.62351
 H119 H 0.39548 -0.08103 0.59081
 H120 H 0.28149 -0.09347 0.62604
 H121 H 0.33699 0.04145 0.53888
 H122 H 0.27960 0.05697 0.61390
 C123 C -0.37995 -0.00616 0.55767
 C124 C -0.36985 0.02791 0.60104
 C125 C -0.30938 0.02315 0.63328
 C126 C -0.25023 0.00222 0.61634
 H127 H -0.40794 0.06137 0.61420
 H128 H -0.31373 0.04241 0.67168
 H129 H -0.34291 -0.04038 0.54413
 H130 H -0.24470 -0.01098 0.57647
 C131 C -0.01604 -0.38370 0.93748
 C132 C 0.00110 -0.38058 0.88769
 C133 C -0.00255 -0.31900 0.85738
 C134 C 0.01408 -0.25959 0.87628
 H135 H 0.01702 -0.42341 0.86669
 H136 H -0.01483 -0.32389 0.81712
 H137 H -0.03224 -0.33788 0.95430
 H138 H 0.03376 -0.25583 0.91491
 C139 C -0.01696 0.37224 0.94493
 C140 C 0.02236 0.36153 0.90451
 C141 C 0.02016 0.30132 0.87263
 C142 C -0.00627 0.24328 0.88748
 H143 H 0.05673 0.39993 0.89245
 H144 H 0.04431 0.30510 0.83580
 H145 H -0.05197 0.33471 0.95725
 H146 H -0.02467 0.23719 0.92607
 C147 C -0.37808 0.00979 0.44196
 C148 C -0.31953 0.03469 0.45817
 C149 C -0.25947 0.03634 0.42585
 C150 C -0.24752 -0.00839 0.38921
 H151 H -0.31585 0.06078 0.49410
 H152 H -0.22269 0.07382 0.43492
 H153 H -0.38186 -0.00411 0.40196
 H154 H -0.28164 -0.04956 0.38411
 C155 C 0.37834 0.01243 0.43638
 C156 C 0.37144 -0.01719 0.39070
 C157 C 0.31070 -0.01356 0.35863
 C158 C 0.25002 -0.00050 0.37698
 H159 H 0.41242 -0.04480 0.37496
 H160 H 0.31646 -0.02628 0.31869
 H161 H 0.33760 0.04051 0.45172
 H162 H 0.24324 0.00566 0.41776
   
