data_POSCAR
  _audit_creation_date              2014-09-24
  _audit_creation_method            'ToBaCCo'
  _symmetry_space_group_name_H-M    'P1'
  _symmetry_Int_Tables_number       1
  _symmetry_cell_setting            triclinic
  loop_
  _symmetry_equiv_pos_as_xyz
 x,y,z
_cell_length_a 54.2808
_cell_length_b 18.5936
_cell_length_c 25.1545
_cell_angle_alpha 89.689900
_cell_angle_beta 89.911000
_cell_angle_gamma 89.781200
loop_
  _atom_site_label
  _atom_site_type_symbol
  _atom_site_fract_x
  _atom_site_fract_y
  _atom_site_fract_z
C1 C 0.68403 0.26590 0.50261
 C2 C 0.69618 0.25420 0.55124
 C3 C 0.72186 0.24326 0.55063
 C4 C 0.73572 0.24999 0.50322
 C5 C 0.72291 0.26485 0.45553
 C6 C 0.69711 0.27046 0.45460
 C7 C 0.76338 0.24255 0.50367
 C8 C 0.77658 0.22532 0.45684
 C9 C 0.80251 0.22132 0.45643
 C10 C 0.81517 0.22995 0.50466
 C11 C 0.80257 0.24399 0.55213
 C12 C 0.77691 0.25271 0.55098
 H13 H 0.66420 0.27232 0.50203
 H14 H 0.73089 0.22926 0.58747
 H15 H 0.73280 0.27317 0.41877
 H16 H 0.76680 0.21418 0.42048
 H17 H 0.83503 0.22447 0.50568
 H18 H 0.76781 0.26822 0.58736
 C19 C 0.18359 0.77064 0.50465
 C20 C 0.19560 0.75632 0.55306
 C21 C 0.22106 0.74158 0.55217
 C22 C 0.23492 0.74664 0.50464
 C23 C 0.22229 0.76434 0.45720
 C24 C 0.19663 0.77381 0.45655
 C25 C 0.26235 0.73353 0.50452
 C26 C 0.27484 0.71461 0.45720
 C27 C 0.30046 0.70442 0.45639
 C28 C 0.31361 0.70858 0.50411
 C29 C 0.30181 0.72449 0.55239
 C30 C 0.27636 0.73951 0.55172
 H31 H 0.16388 0.77976 0.50423
 H32 H 0.22988 0.72562 0.58882
 H33 H 0.23223 0.77160 0.42038
 H34 H 0.26485 0.70666 0.42066
 H35 H 0.33331 0.69920 0.50346
 H36 H 0.26769 0.75649 0.58822
 C37 C 0.31437 0.27273 -0.50455
 C38 C 0.30206 0.25808 -0.55213
 C39 C 0.27646 0.24817 -0.55115
 C40 C 0.26272 0.25742 -0.50381
 C41 C 0.27567 0.27474 -0.45684
 C42 C 0.30147 0.28036 -0.45660
 C43 C 0.23511 0.24958 -0.50360
 C44 C 0.22216 0.23389 -0.45615
 C45 C 0.19626 0.22872 -0.45533
 C46 C 0.18343 0.23455 -0.50372
 C47 C 0.19584 0.24726 -0.55175
 C48 C 0.22143 0.25737 -0.55101
 H49 H 0.33418 0.27926 -0.50502
 H50 H 0.26754 0.23254 -0.58762
 H51 H 0.26587 0.28509 -0.42027
 H52 H 0.23213 0.22482 -0.41960
 H53 H 0.16361 0.22821 -0.50430
 H54 H 0.23042 0.27180 -0.58783
 C55 C -0.18586 0.78816 -0.50417
 C56 C -0.19770 0.77291 -0.55240
 C57 C -0.22315 0.75859 -0.55158
 C58 C -0.23714 0.76471 -0.50428
 C59 C -0.22462 0.78291 -0.45695
 C60 C -0.19899 0.79247 -0.45632
 C61 C -0.26459 0.75266 -0.50442
 C62 C -0.27736 0.73545 -0.45700
 C63 C -0.30305 0.72675 -0.45646
 C64 C -0.31598 0.73049 -0.50461
 C65 C -0.30381 0.74483 -0.55268
 C66 C -0.27838 0.75827 -0.55196
 H67 H -0.16617 0.79708 -0.50370
 H68 H -0.23184 0.74209 -0.58807
 H69 H -0.23460 0.79090 -0.42030
 H70 H -0.26751 0.72794 -0.42014
 H71 H -0.33568 0.72160 -0.50475
 H72 H -0.26964 0.77378 -0.58882
 O73 O -0.03375 0.87951 0.09846
 O74 O -0.06113 0.94359 0.04712
 C75 C -0.05593 0.89868 0.08516
 O76 O 0.03502 1.13158 0.09342
 O77 O 0.06244 1.06343 0.04541
 C78 C 0.05721 1.11188 0.08069
 O79 O -0.03377 1.12369 0.09972
 O80 O -0.06111 1.06098 0.04833
 C81 C -0.05592 1.10405 0.08703
 O82 O 0.03492 0.87226 0.09433
 O83 O 0.06227 0.93994 0.04573
 C84 C 0.05710 0.89224 0.08182
 Zr85 Zr 0.00054 0.91044 0.06584
 O86 O 0.00069 0.89718 0.14941
 O87 O -0.00020 0.79785 0.05538
 Zr88 Zr 0.00061 1.09301 0.06675
 O89 O 0.00304 1.09612 0.15066
 O90 O -0.00238 1.20658 0.06350
 O91 O -0.02112 1.00187 0.07698
 O92 O 0.02181 1.00141 0.07638
 O93 O 0.03495 0.87269 -0.09357
 O94 O 0.06239 0.94013 -0.04571
 C95 C 0.05715 0.89182 -0.08094
 O96 O -0.03343 1.12859 -0.09788
 O97 O -0.06098 1.06445 -0.04727
 C98 C -0.05564 1.10984 -0.08487
 O99 O 0.03527 1.13194 -0.09461
 O100 O 0.06243 1.06334 -0.04605
 C101 C 0.05739 1.11114 -0.08217
 O102 O -0.03385 0.88349 -0.10031
 O103 O -0.06112 0.94657 -0.04843
 C104 C -0.05599 0.90353 -0.08727
 Zr105 Zr 0.00051 0.91226 -0.06685
 O106 O 0.00327 0.90633 -0.15059
 O107 O -0.00251 0.79883 -0.06246
 Zr108 Zr 0.00078 1.09496 -0.06623
 O109 O 0.00312 1.10273 -0.15004
 O110 O -0.00162 1.20839 -0.06033
 Zr111 Zr -0.03635 1.00344 -0.00013
 Zr112 Zr 0.03757 1.00211 -0.00011
 O113 O 0.02182 1.00317 -0.07663
 O114 O -0.02107 1.00433 -0.07730
 O115 O 0.02289 0.89719 -0.00049
 O116 O -0.02111 1.10728 0.00036
 O117 O -0.02142 0.89888 -0.00050
 O118 O 0.02305 1.10754 0.00028
 H119 H 0.03259 1.00149 0.10809
 H120 H -0.03257 1.14890 0.00085
 H121 H 0.03247 1.00286 -0.10865
 H122 H -0.03299 0.85776 -0.00084
 H123 H 0.01269 1.22522 0.04617
 H124 H 0.01434 1.22604 -0.04680
 H125 H -0.00827 1.06670 -0.16487
 H126 H -0.00659 0.94651 -0.16531
 H127 H 0.01227 0.78036 -0.04378
 H128 H -0.00084 0.77676 0.09160
 H129 H 0.00588 0.94344 0.16480
 H130 H -0.00818 1.05875 0.16475
 O131 O 0.46706 0.37220 0.09792
 O132 O 0.43942 0.43573 0.04695
 C133 C 0.44481 0.39082 0.08488
 O134 O 0.53462 0.62637 0.09343
 O135 O 0.56224 0.55914 0.04515
 C136 C 0.55687 0.60719 0.08065
 O137 O 0.46546 0.61633 0.09885
 O138 O 0.43850 0.55260 0.04711
 C139 C 0.44341 0.59597 0.08579
 O140 O 0.53560 0.36677 0.09275
 O141 O 0.56253 0.43602 0.04439
 C142 C 0.55765 0.38767 0.08018
 Zr143 Zr 0.50110 0.40434 0.06486
 O144 O 0.50201 0.39045 0.14829
 O145 O 0.50063 0.29183 0.05379
 Zr146 Zr 0.50027 0.58717 0.06672
 O147 O 0.50274 0.58974 0.15066
 O148 O 0.49690 0.70066 0.06434
 O149 O 0.47903 0.49500 0.07662
 O150 O 0.52188 0.49610 0.07575
 O151 O 0.53533 0.36900 -0.09498
 O152 O 0.56253 0.43721 -0.04702
 C153 C 0.55746 0.38891 -0.08242
 O154 O 0.46614 0.62205 -0.09848
 O155 O 0.43899 0.55696 -0.04756
 C156 C 0.44404 0.60240 -0.08530
 O157 O 0.53503 0.62792 -0.09432
 O158 O 0.56245 0.55973 -0.04601
 C159 C 0.55724 0.60769 -0.08189
 O160 O 0.46626 0.37769 -0.10041
 O161 O 0.43886 0.44011 -0.04828
 C162 C 0.44407 0.39723 -0.08719
 Zr163 Zr 0.50080 0.40726 -0.06797
 O164 O 0.50348 0.40293 -0.15182
 O165 O 0.49827 0.29368 -0.06464
 Zr166 Zr 0.50048 0.59017 -0.06642
 O167 O 0.50276 0.60000 -0.15007
 O168 O 0.49754 0.70341 -0.05967
 Zr169 Zr 0.46388 0.49666 -0.00054
 Zr170 Zr 0.53752 0.49806 -0.00088
 O171 O 0.52177 0.49907 -0.07739
 O172 O 0.47896 0.49878 -0.07785
 O173 O 0.52335 0.39256 -0.00176
 O174 O 0.47856 0.60116 0.00029
 O175 O 0.47911 0.39253 -0.00144
 O176 O 0.52263 0.60305 0.00019
 H177 H 0.53265 0.49598 0.10750
 H178 H 0.46691 0.64230 0.00078
 H179 H 0.53242 0.49945 -0.10939
 H180 H 0.46765 0.35115 -0.00179
 H181 H 0.51175 0.71983 0.04646
 H182 H 0.51357 0.72162 -0.04696
 H183 H 0.49296 0.56040 -0.16520
 H184 H 0.49222 0.44007 -0.16627
 H185 H 0.51297 0.27557 -0.04548
 H186 H 0.50031 0.27035 0.08990
 H187 H 0.50362 0.43888 0.16377
 H188 H 0.49075 0.55453 0.16480
 N189 N 0.35402 0.25904 0.35313
 C190 C 0.34250 0.26857 0.30592
 N191 N 0.31753 0.27119 0.30470
 N192 N 0.30453 0.26521 0.34958
 C193 C 0.31608 0.25673 0.39721
 N194 N 0.34107 0.25324 0.39787
 C195 C 0.35696 0.28196 0.25914
 C196 C 0.37064 0.29551 0.22268
 C197 C 0.38862 0.31372 0.18300
 N198 N 0.38349 0.36281 0.14441
 N199 N 0.40120 0.38572 0.11170
 C200 C 0.42464 0.36063 0.11679
 N201 N 0.42960 0.31110 0.15517
 N202 N 0.41191 0.28812 0.18771
 N203 N -0.18259 0.77073 0.30647
 C204 C -0.15813 0.78530 0.30768
 N205 N -0.14688 0.79351 0.35517
 N206 N -0.15964 0.78804 0.40013
 C207 C -0.18421 0.77412 0.39962
 N208 N -0.19539 0.76511 0.35166
 C209 C -0.14411 0.79584 0.25994
 C210 C -0.13057 0.80742 0.22289
 C211 C -0.11260 0.82385 0.18284
 N212 N -0.08941 0.79749 0.18785
 N213 N -0.07157 0.81964 0.15540
 C214 C -0.07627 0.86913 0.11684
 N215 N -0.09959 0.89495 0.11143
 N216 N -0.11745 0.87288 0.14407
 N217 N 0.68153 0.73481 0.30364
 C218 C 0.65661 0.72942 0.30461
 N219 N 0.64474 0.73166 0.35194
 N220 N 0.65731 0.73842 0.39699
 C221 C 0.68228 0.74323 0.39653
 N222 N 0.69413 0.74170 0.34882
 C223 C 0.64277 0.71677 0.25701
 C224 C 0.62967 0.70387 0.21960
 C225 C 0.61236 0.68625 0.17863
 N226 N 0.58931 0.71432 0.18048
 N227 N 0.57196 0.69122 0.14745
 C228 C 0.57701 0.63916 0.11136
 N229 N 0.60024 0.61179 0.10897
 N230 N 0.61761 0.63484 0.14218
 N231 N 0.14457 1.23930 0.35203
 C232 C 0.15662 1.23423 0.30501
 N233 N 0.18159 1.23619 0.30452
 N234 N 0.19408 1.24249 0.34987
 C235 C 0.18207 1.24680 0.39728
 N236 N 0.15705 1.24546 0.39727
 C237 C 0.14286 1.22155 0.25732
 C238 C 0.12988 1.20859 0.21975
 C239 C 0.11269 1.19094 0.17859
 N240 N 0.11786 1.13866 0.14276
 N241 N 0.10051 1.11558 0.10950
 C242 C 0.07739 1.14379 0.11124
 N243 N 0.07243 1.19671 0.14670
 N244 N 0.08975 1.21984 0.17977
 N245 N 0.68190 0.25702 -0.30727
 C246 C 0.65726 0.26939 -0.30810
 N247 N 0.64558 0.27421 -0.35548
 N248 N 0.65811 0.26767 -0.40071
 C249 C 0.68286 0.25605 -0.40052
 N250 N 0.69445 0.25036 -0.35265
 C251 C 0.64356 0.28135 -0.26006
 C252 C 0.63055 0.29383 -0.22229
 C253 C 0.61328 0.31101 -0.18095
 N254 N 0.61824 0.36310 -0.14496
 N255 N 0.60079 0.38579 -0.11152
 C256 C 0.57777 0.35739 -0.11324
 N257 N 0.57302 0.30468 -0.14888
 N258 N 0.59044 0.28193 -0.18212
 N259 N 0.18122 0.75584 -0.30544
 C260 C 0.15680 0.77148 -0.30612
 N261 N 0.14529 0.77997 -0.35342
 N262 N 0.15778 0.77367 -0.39871
 C263 C 0.18231 0.75863 -0.39867
 N264 N 0.19373 0.74943 -0.35090
 C265 C 0.14316 0.78273 -0.25793
 C266 C 0.13016 0.79486 -0.22010
 C267 C 0.11289 0.81205 -0.17877
 N268 N 0.11798 0.86376 -0.14258
 N269 N 0.10053 0.88696 -0.10935
 C270 C 0.07739 0.85949 -0.11150
 N271 N 0.07251 0.80710 -0.14732
 N272 N 0.08994 0.78384 -0.18036
 N273 N 0.31711 0.72832 -0.30667
 C274 C 0.34156 0.71299 -0.30805
 N275 N 0.35273 0.70363 -0.35561
 N276 N 0.33991 0.70875 -0.40046
 C277 C 0.31536 0.72344 -0.39976
 N278 N 0.30425 0.73356 -0.35174
 C279 C 0.35566 0.70311 -0.26037
 C280 C 0.36922 0.69207 -0.22329
 C281 C 0.38718 0.67621 -0.18310
 N282 N 0.41021 0.70334 -0.18785
 N283 N 0.42809 0.68162 -0.15530
 C284 C 0.42359 0.63182 -0.11688
 N285 N 0.40041 0.60527 -0.11170
 N286 N 0.38251 0.62692 -0.14443
 N287 N -0.18251 1.23058 -0.30459
 C288 C -0.15758 1.23502 -0.30539
 N289 N -0.14592 1.24588 -0.35235
 N290 N -0.15871 1.25124 -0.39727
 C291 C -0.18366 1.24595 -0.39703
 N292 N -0.19533 1.23614 -0.34965
 C293 C -0.14323 1.22159 -0.25852
 C294 C -0.12966 1.20781 -0.22196
 C295 C -0.11180 1.18912 -0.18223
 N296 N -0.08855 1.21469 -0.18661
 N297 N -0.07089 1.19103 -0.15425
 C298 C -0.07583 1.14080 -0.11639
 N299 N -0.09922 1.11575 -0.11161
 N300 N -0.11691 1.13936 -0.14416
 N301 N 0.68236 0.70986 -0.31279
 C302 C 0.65769 0.69855 -0.31389
 N303 N 0.64609 0.69502 -0.36140
 N304 N 0.65867 0.70304 -0.40647
 C305 C 0.68336 0.71472 -0.40588
 N306 N 0.69496 0.71787 -0.35802
 C307 C 0.64366 0.69064 -0.26582
 C308 C 0.63044 0.68305 -0.22765
 C309 C 0.61309 0.67209 -0.18530
 N310 N 0.59032 0.70189 -0.18867
 N311 N 0.57286 0.68429 -0.15376
 C312 C 0.57756 0.63630 -0.11417
 N313 N 0.60054 0.60742 -0.11031
 N314 N 0.61800 0.62495 -0.14534
 N315 N 0.14572 1.20568 -0.36217
 C316 C 0.15766 1.20153 -0.31507
 N317 N 0.18260 1.20544 -0.31445
 N318 N 0.19515 1.21367 -0.35973
 C319 C 0.18325 1.21815 -0.40728
 N320 N 0.15824 1.21388 -0.40729
 C321 C 0.14372 1.19272 -0.26694
 C322 C 0.13056 1.18467 -0.22871
 C323 C 0.11324 1.17364 -0.18627
 N324 N 0.11802 1.12577 -0.14669
 N325 N 0.10058 1.10875 -0.11145
 C326 C 0.07778 1.13891 -0.11469
 N327 N 0.07322 1.18758 -0.15391
 N328 N 0.09065 1.20468 -0.18902
 N329 N 0.35278 0.31516 -0.36409
 C330 C 0.34146 0.31330 -0.31614
 N331 N 0.31680 0.30200 -0.31388
 N332 N 0.30393 0.29246 -0.35844
 C333 C 0.31527 0.29393 -0.40673
 N334 N 0.33995 0.30560 -0.40846
 C335 C 0.35588 0.32222 -0.26891
 C336 C 0.36959 0.33011 -0.23177
 C337 C 0.38758 0.34053 -0.19085
 N338 N 0.38285 0.38415 -0.14900
 N339 N 0.40062 0.39980 -0.11444
 C340 C 0.42371 0.37251 -0.12070
 N341 N 0.42827 0.32827 -0.16235
 N342 N 0.41051 0.31255 -0.19678
 N343 N -0.14865 0.83426 -0.36306
 C344 C -0.15944 0.82388 -0.31513
 N345 N -0.18356 0.80509 -0.31304
 N346 N -0.19638 0.79642 -0.35778
 C347 C -0.18552 0.80620 -0.40607
 N348 N -0.16142 0.82554 -0.40760
 C349 C -0.14491 0.83106 -0.26788
 C350 C -0.13105 0.83791 -0.23088
 C351 C -0.11288 0.84764 -0.19021
 N352 N -0.11744 0.89071 -0.14797
 N353 N -0.09952 0.90611 -0.11373
 C354 C -0.07643 0.87915 -0.12070
 N355 N -0.07203 0.83546 -0.16273
 N356 N -0.08994 0.82000 -0.19687
 N357 N 0.31574 0.69246 0.31294
 C358 C 0.33986 0.67324 0.31466
 N359 N 0.35072 0.66221 0.36242
 N360 N 0.33799 0.67076 0.40715
 C361 C 0.31388 0.69056 0.40598
 N362 N 0.30296 0.70094 0.35787
 C363 C 0.35434 0.66653 0.26721
 C364 C 0.36815 0.66015 0.22997
 C365 C 0.38629 0.65102 0.18901
 N366 N 0.40906 0.67937 0.19532
 N367 N 0.42702 0.66428 0.16101
 C368 C 0.42283 0.62028 0.11914
 N369 N 0.39990 0.59265 0.11249
 N370 N 0.38193 0.60768 0.14691
 N371 N -0.18299 1.19255 0.31667
 C372 C -0.15803 1.18986 0.31800
 N373 N -0.14637 1.19660 0.36519
 N374 N -0.15919 1.20613 0.40969
 C375 C -0.18422 1.20923 0.40900
 N376 N -0.19585 1.20212 0.36137
 C377 C -0.14370 1.18004 0.27060
 C378 C -0.13008 1.17164 0.23322
 C379 C -0.11219 1.16089 0.19195
 N380 N -0.08935 1.18915 0.19716
 N381 N -0.07168 1.17340 0.16231
 C382 C -0.07625 1.12886 0.12093
 N383 N -0.09925 1.10124 0.11540
 N384 N -0.11693 1.11693 0.15037
 N385 N 0.64634 0.29827 0.35879
 C386 C 0.65823 0.29649 0.31146
 N387 N 0.68303 0.28721 0.31072
 N388 N 0.69549 0.27959 0.35611
 C389 C 0.68360 0.28112 0.40379
 N390 N 0.65877 0.29065 0.40402
 C391 C 0.64436 0.30457 0.26325
 C392 C 0.63122 0.31234 0.22504
 C393 C 0.61387 0.32342 0.18275
 N394 N 0.61846 0.37172 0.14340
 N395 N 0.60091 0.38927 0.10859
 C396 C 0.57816 0.35927 0.11208
 N397 N 0.57379 0.31013 0.15104
 N398 N 0.59134 0.29249 0.18572
 N399 N 0.18220 0.78940 0.31277
 C400 C 0.15761 0.80250 0.31386
 N401 N 0.14602 0.80772 0.36138
 N402 N 0.15853 0.79959 0.40646
 C403 C 0.18315 0.78609 0.40588
 N404 N 0.19475 0.78128 0.35801
 C405 C 0.14359 0.81021 0.26580
 C406 C 0.13036 0.81762 0.22769
 C407 C 0.11299 0.82839 0.18538
 N408 N 0.09028 0.79869 0.18893
 N409 N 0.07281 0.81609 0.15400
 C410 C 0.07745 0.86377 0.11420
 N411 N 0.10036 0.89252 0.11016
 N412 N 0.11784 0.87519 0.14520
   
