data_POSCAR
  _audit_creation_date              2014-09-24
  _audit_creation_method            'ToBaCCo'
  _symmetry_space_group_name_H-M    'P1'
  _symmetry_Int_Tables_number       1
  _symmetry_cell_setting            triclinic
  loop_
  _symmetry_equiv_pos_as_xyz
 x,y,z
_cell_length_a 28.6923
_cell_length_b 29.7725
_cell_length_c 31.4559
_cell_angle_alpha 88.568100
_cell_angle_beta 95.215400
_cell_angle_gamma 88.362200
loop_
  _atom_site_label
  _atom_site_type_symbol
  _atom_site_fract_x
  _atom_site_fract_y
  _atom_site_fract_z
C1 C 0.19466 0.50356 1.08446
 H2 H 0.19028 0.53052 1.06060
 C3 C 0.16512 0.50188 1.11744
 H4 H 0.13876 0.52827 1.11978
 C5 C 0.23395 0.43576 1.11033
 H6 H 0.26003 0.40953 1.10684
 C7 C 0.20517 0.43277 1.14371
 H8 H 0.21018 0.40494 1.16670
 N9 N 0.22842 0.47093 1.08170
 C10 C 0.32780 0.52120 0.99710
 H11 H 0.32490 0.49456 0.97433
 C12 C 0.36371 0.55150 0.99577
 H13 H 0.38782 0.54898 0.97131
 C14 C 0.30183 0.55518 1.05852
 H15 H 0.27893 0.55510 1.08398
 C16 C 0.33700 0.58686 1.05787
 H17 H 0.34022 0.61187 1.08226
 Zn18 Zn 0.26208 0.47135 1.03272
 N19 N 0.29825 0.52301 1.02850
 C20 C 0.21192 0.50076 0.95424
 N21 N 0.21645 0.46833 0.98575
 C22 C 0.18302 0.43733 0.98936
 C23 C 0.14189 0.43960 0.96193
 C24 C 0.17175 0.50356 0.92548
 C25 C 0.34304 0.42906 1.06661
 C26 C 0.38566 0.40581 1.06536
 C27 C 0.35394 0.36963 1.00164
 C28 C 0.31181 0.39431 1.00365
 N29 N 0.30772 0.42406 1.03537
 H30 H 0.23821 0.52586 0.95267
 H31 H 0.18703 0.41259 1.01531
 H32 H 0.11454 0.41602 0.96617
 H33 H 0.16787 0.53034 0.90138
 H34 H 0.33927 0.45387 1.09071
 H35 H 0.41438 0.41192 1.08909
 H36 H 0.35779 0.34755 0.97528
 H37 H 0.28381 0.39203 0.97842
 C38 C 0.36895 0.58430 1.02658
 C39 C 0.17032 0.46599 1.14721
 C40 C 0.39185 0.37669 1.03214
 C41 C 0.13568 0.47338 0.93010
 C42 C 0.82980 0.57218 -0.02765
 H43 H 0.83023 0.59169 0.00094
 C44 C 0.86748 0.57373 -0.05272
 H45 H 0.89633 0.59538 -0.04410
 C46 C 0.79473 0.51588 -0.07081
 H47 H 0.76793 0.49134 -0.07610
 C48 C 0.83145 0.51690 -0.09713
 H49 H 0.83186 0.49388 -0.12319
 N50 N 0.79547 0.54223 -0.03603
 C51 C 0.69105 0.55732 0.05584
 H52 H 0.69993 0.52590 0.07310
 C53 C 0.65015 0.58103 0.06310
 H54 H 0.62808 0.56832 0.08655
 C55 C 0.70651 0.60973 0.00126
 H56 H 0.72746 0.61938 -0.02418
 C57 C 0.66559 0.63479 0.00773
 H58 H 0.65565 0.66419 -0.01234
 Zn59 Zn 0.76137 0.52629 0.01026
 N60 N 0.71781 0.57129 0.02480
 C61 C 0.80738 0.53383 0.09356
 N62 N 0.80767 0.51232 0.05598
 C63 C 0.84432 0.48461 0.04792
 C64 C 0.88313 0.47833 0.07808
 C65 C 0.84486 0.52769 0.12480
 C66 C 0.68516 0.48653 -0.03047
 C67 C 0.64859 0.45670 -0.03472
 C68 C 0.69303 0.40596 0.01589
 C69 C 0.72855 0.43723 0.01984
 N70 N 0.72354 0.47689 -0.00275
 H71 H 0.77878 0.55670 0.09898
 H72 H 0.84409 0.46860 0.01741
 H73 H 0.91234 0.45674 0.07120
 H74 H 0.84443 0.54498 0.15466
 H75 H 0.68171 0.51878 -0.04726
 H76 H 0.61728 0.46549 -0.05546
 H77 H 0.69659 0.37512 0.03502
 H78 H 0.75879 0.43089 0.04253
 C79 C 0.63641 0.61944 0.03831
 C80 C 0.86932 0.54476 -0.08686
 C81 C 0.65195 0.41641 -0.01085
 C82 C 0.88346 0.50043 0.11689
 C83 C -0.10649 0.32244 0.44867
 H84 H -0.12563 0.31397 0.47570
 C85 C -0.11860 0.36167 0.42463
 H86 H -0.14789 0.38267 0.43253
 C87 C -0.04079 0.30907 0.40949
 H88 H -0.00875 0.29013 0.40581
 C89 C -0.05150 0.34845 0.38486
 H90 H -0.02821 0.35913 0.36155
 N91 N -0.06728 0.29800 0.44175
 C92 C -0.06300 0.18709 0.53528
 H93 H -0.03061 0.19438 0.55384
 C94 C -0.08220 0.14477 0.53926
 H95 H -0.06529 0.11992 0.56171
 C96 C -0.12148 0.20846 0.47974
 H97 H -0.13485 0.23211 0.45467
 C98 C -0.14232 0.16675 0.48325
 H99 H -0.17243 0.15929 0.46158
 Zn100 Zn -0.04118 0.26252 0.48882
 N101 N -0.08179 0.21729 0.50485
 C102 C -0.04525 0.30690 0.56959
 N103 N -0.02664 0.30522 0.53133
 C104 C -0.00053 0.33915 0.51753
 C105 C 0.00695 0.37712 0.54180
 C106 C -0.03817 0.34450 0.59528
 C107 C 0.00610 0.19389 0.45158
 C108 C 0.04199 0.16172 0.44903
 C109 C 0.09332 0.20759 0.49367
 C110 C 0.05607 0.23825 0.49649
 N111 N 0.01329 0.23050 0.47611
 H112 H -0.06686 0.28005 0.57942
 H113 H 0.01311 0.33740 0.48667
 H114 H 0.02686 0.40433 0.52990
 H115 H -0.05382 0.34613 0.62526
 H116 H -0.02847 0.18822 0.43631
 H117 H 0.03529 0.13173 0.43099
 H118 H 0.12696 0.21317 0.51094
 H119 H 0.06084 0.26684 0.51671
 C120 C -0.12138 0.13382 0.51223
 C121 C -0.08974 0.37582 0.39374
 C122 C 0.08584 0.16816 0.47114
 C123 C -0.01235 0.38039 0.58074
 C124 C 0.98900 0.68507 0.51542
 H125 H 0.96978 0.69144 0.48455
 C126 C 0.98021 0.64681 0.53940
 H127 H 0.95374 0.62398 0.52736
 C128 C 1.04902 0.70560 0.56756
 H129 H 1.07697 0.72772 0.57748
 C130 C 1.04070 0.66789 0.59308
 H131 H 1.06186 0.66153 0.62301
 N132 N 1.02337 0.71316 0.52936
 C133 C 0.99655 0.83531 0.45133
 H134 H 1.02768 0.83520 0.43436
 C135 C 0.96728 0.87368 0.44960
 H136 H 0.97514 0.90278 0.43050
 C137 C 0.94994 0.79871 0.49939
 H138 H 0.94458 0.77034 0.52028
 C139 C 0.91932 0.83606 0.49795
 H140 H 0.88977 0.83555 0.51703
 Zn141 Zn 1.03733 0.75639 0.48760
 N142 N 0.98795 0.79925 0.47662
 C143 C 1.01759 0.72895 0.40230
 N144 N 1.04629 0.72286 0.43899
 C145 C 1.07365 0.68497 0.44675
 C146 C 1.06909 0.64921 0.41908
 C147 C 1.01304 0.69437 0.37308
 C148 C 1.08133 0.81956 0.53670
 C149 C 1.10169 0.86151 0.53833
 C150 C 1.14098 0.84323 0.47592
 C151 C 1.11950 0.80163 0.47519
 N152 N 1.08859 0.79176 0.50414
 H153 H 0.99523 0.75881 0.39742
 H154 H 1.09523 0.68071 0.47669
 H155 H 1.08787 0.61765 0.42722
 H156 H 0.98782 0.69799 0.34535
 H157 H 1.05499 0.81176 0.55804
 H158 H 1.09248 0.88511 0.56207
 H159 H 1.16253 0.85231 0.45072
 H160 H 1.12310 0.77985 0.44860
 C161 C 0.92864 0.87449 0.47354
 C162 C 1.00642 0.63766 0.57836
 C163 C 1.12986 0.87450 0.50649
 C164 C 1.03720 0.65338 0.38275
 C165 C 0.39691 0.01062 0.26922
 H166 H 0.37972 -0.00764 0.24336
 C167 C 0.37120 0.02486 0.30222
 H168 H 0.33419 0.01830 0.30113
 C169 C 0.46648 0.03786 0.30477
 H170 H 0.50403 0.04123 0.30619
 C171 C 0.44219 0.05167 0.33900
 H172 H 0.46097 0.06631 0.36641
 N173 N 0.44387 0.01657 0.27140
 C174 C 0.45539 -0.09153 0.18569
 H175 H 0.48077 -0.11098 0.20666
 C176 C 0.43570 -0.11001 0.14777
 H177 H 0.44531 -0.14407 0.13998
 C178 C 0.41557 -0.02179 0.16747
 H179 H 0.41000 0.01333 0.17413
 C180 C 0.39496 -0.03892 0.12979
 H181 H 0.37267 -0.01717 0.10795
 Zn182 Zn 0.48185 -0.01442 0.23469
 N183 N 0.44561 -0.04782 0.19424
 C184 C 0.50659 -0.06862 0.30647
 N185 N 0.52453 -0.04953 0.27193
 C186 C 0.57128 -0.04354 0.27146
 C187 C 0.60135 -0.05315 0.30818
 C188 C 0.53532 -0.07758 0.34424
 C189 C 0.50713 0.07100 0.20246
 C190 C 0.52125 0.09889 0.16989
 C191 C 0.54899 0.03316 0.13507
 C192 C 0.53499 0.00659 0.16849
 N193 N 0.51333 0.02567 0.20062
 H194 H 0.46913 -0.07195 0.30635
 H195 H 0.58470 -0.02726 0.24424
 H196 H 0.63796 -0.04510 0.30862
 H197 H 0.51996 -0.08884 0.37267
 H198 H 0.48880 0.08534 0.22767
 H199 H 0.51437 0.13481 0.17042
 H200 H 0.56401 0.01729 0.10867
 H201 H 0.53852 -0.02962 0.16739
 C202 C 0.40597 -0.08296 0.11920
 C203 C 0.39413 0.04403 0.33815
 C204 C 0.54081 0.07979 0.13509
 C205 C 0.58292 -0.06769 0.34565
 C206 C 0.51049 -0.07398 0.67825
 H207 H 0.47397 -0.07867 0.68266
 C208 C 0.52767 -0.08591 0.63982
 H209 H 0.50477 -0.10098 0.61525
 C210 C 0.58284 -0.04225 0.70211
 H211 H 0.60289 -0.02226 0.72500
 C212 C 0.60137 -0.05357 0.66415
 H213 H 0.63643 -0.04353 0.65901
 N214 N 0.53747 -0.05077 0.70743
 C215 C 0.43593 -0.02008 0.79792
 H216 H 0.42939 0.01517 0.78971
 C217 C 0.41913 -0.03826 0.83468
 H218 H 0.39851 -0.01731 0.85403
 C219 C 0.47614 -0.08875 0.78619
 H220 H 0.50081 -0.10726 0.76875
 C221 C 0.46064 -0.10802 0.82314
 H222 H 0.47238 -0.14185 0.83308
 Zn223 Zn 0.50425 -0.01292 0.74155
 N224 N 0.46486 -0.04505 0.77522
 C225 C 0.42473 0.02371 0.69097
 N226 N 0.47156 0.02681 0.70096
 C227 C 0.49881 0.04922 0.67478
 C228 C 0.47977 0.06655 0.63511
 C229 C 0.40417 0.04106 0.65183
 C230 C 0.56667 -0.00833 0.81347
 C231 C 0.58166 0.01033 0.85247
 C232 C 0.55202 0.08284 0.82410
 C233 C 0.53723 0.06276 0.78575
 N234 N 0.54317 0.01765 0.78186
 H235 H 0.40407 0.00433 0.71140
 H236 H 0.53621 0.04997 0.68300
 H237 H 0.50235 0.08132 0.61316
 H238 H 0.36738 0.03578 0.64323
 H239 H 0.56971 -0.04431 0.80988
 H240 H 0.59703 -0.01117 0.87862
 H241 H 0.54414 0.11824 0.82774
 H242 H 0.51715 0.08246 0.76078
 C243 C 0.43333 -0.08184 0.84866
 C244 C 0.57259 -0.07340 0.63157
 C245 C 0.57245 0.05593 0.85866
 C246 C 0.43240 0.06091 0.62261
 C247 C 0.22473 -0.00516 0.47107
 C248 C 0.23484 0.04052 0.46990
 C249 C 0.19869 0.07308 0.46825
 C250 C 0.15199 0.06018 0.46804
 C251 C 0.14211 0.01432 0.47063
 C252 C 0.17865 -0.01844 0.47252
 C253 C 0.28359 0.05392 0.47534
 C254 C 0.31025 0.05621 0.44051
 C255 C 0.35868 0.06330 0.44664
 C256 C 0.37982 0.06849 0.48839
 C257 C 0.35249 0.06618 0.52346
 C258 C 0.30458 0.05953 0.51645
 H259 H 0.25292 -0.03036 0.47317
 H260 H 0.20712 0.10831 0.46763
 H261 H 0.29343 0.05062 0.40892
 H262 H 0.28401 0.05608 0.54355
 H263 H 0.10622 0.00421 0.47135
 H264 H 0.41736 0.07191 0.49356
 C265 C 0.78146 -0.05747 0.48982
 C266 C 0.74854 -0.02232 0.49059
 C267 C 0.76294 0.02222 0.49120
 C268 C 0.81063 0.03149 0.49179
 C269 C 0.84378 -0.00431 0.49027
 C270 C 0.82872 -0.04890 0.48902
 C271 C 0.69960 -0.03352 0.49327
 C272 C 0.68271 -0.03808 0.53323
 C273 C 0.63823 -0.05442 0.53719
 C274 C 0.60959 -0.06553 0.50030
 C275 C 0.62632 -0.06068 0.45974
 C276 C 0.67180 -0.04512 0.45670
 H277 H 0.77023 -0.09195 0.48978
 H278 H 0.73734 0.04953 0.49233
 H279 H 0.70472 -0.02981 0.56165
 H280 H 0.68575 -0.04179 0.42595
 H281 H 0.88066 0.00245 0.49026
 H282 H 0.57446 -0.07700 0.50293
 C283 C 0.58371 0.27313 0.99784
 C284 C 0.54595 0.24443 0.99592
 C285 C 0.50030 0.26194 0.99734
 C286 C 0.49235 0.30809 1.00158
 C287 C 0.53044 0.33704 1.00281
 C288 C 0.57622 0.31942 1.00054
 C289 C 0.55447 0.19596 0.99298
 C290 C 0.55464 0.16815 1.02940
 C291 C 0.56146 0.12143 1.02671
 C292 C 0.56836 0.10295 0.98697
 C293 C 0.56781 0.13107 0.95016
 C294 C 0.56125 0.17744 0.95359
 H295 H 0.61900 0.25950 0.99669
 H296 H 0.47109 0.23957 0.99617
 H297 H 0.54869 0.18301 1.05961
 H298 H 0.55996 0.19902 0.92520
 H299 H 0.52452 0.37288 1.00565
 H300 H 0.57205 0.06683 0.98454
 C301 C 0.51697 0.73799 0.02028
 C302 C 0.47129 0.75453 0.02469
 C303 C 0.43751 0.72510 0.03721
 C304 C 0.44787 0.67923 0.04256
 C305 C 0.49369 0.66283 0.03891
 C306 C 0.52881 0.69238 0.02865
 C307 C 0.45609 0.80072 0.01074
 C308 C 0.46105 0.81524 -0.03133
 C309 C 0.43862 0.85497 -0.04808
 C310 C 0.41136 0.88077 -0.02218
 C311 C 0.40780 0.86753 0.02043
 C312 C 0.43019 0.82753 0.03684
 H313 H 0.54318 0.76046 0.01026
 H314 H 0.40174 0.73719 0.03889
 H315 H 0.48059 0.79458 -0.05185
 H316 H 0.42556 0.81622 0.06915
 H317 H 0.50157 0.62712 0.04308
 H318 H 0.39348 0.91146 -0.03476
 C319 C 1.01143 0.52854 0.32091
 C320 C 0.99637 0.48972 0.30009
 C321 C 0.96099 0.46443 0.31618
 C322 C 0.94014 0.47843 0.35235
 C323 C 0.95510 0.51743 0.37275
 C324 C 0.99071 0.54259 0.35720
 C325 C 1.01321 0.47938 0.25853
 C326 C 1.06098 0.47446 0.25387
 C327 C 1.07697 0.46937 0.21350
 C328 C 1.04438 0.46979 0.17690
 C329 C 0.99607 0.47523 0.18145
 C330 C 0.98111 0.47904 0.22256
 H331 H 1.03814 0.54850 0.30807
 H332 H 0.94839 0.43500 0.29968
 H333 H 1.08605 0.47515 0.28177
 H334 H 0.94420 0.48361 0.22665
 H335 H 0.93850 0.52860 0.40038
 H336 H 1.05633 0.46677 0.14539
 C337 C 0.00751 0.54733 0.70637
 C338 C -0.00248 0.50808 0.72877
 C339 C -0.01248 0.46869 0.70671
 C340 C -0.01164 0.46809 0.66233
 C341 C -0.00301 0.50810 0.63979
 C342 C 0.00619 0.54794 0.66188
 C343 C -0.00157 0.50825 0.77544
 C344 C -0.04347 0.51137 0.79496
 C345 C -0.04255 0.51378 0.83937
 C346 C 0.00063 0.51010 0.86453
 C347 C 0.04267 0.50567 0.84497
 C348 C 0.04137 0.50622 0.80047
 H349 H 0.01516 0.57779 0.72348
 H350 H -0.01947 0.43814 0.72417
 H351 H -0.07671 0.51346 0.77556
 H352 H 0.07379 0.50364 0.78536
 H353 H -0.00306 0.50821 0.60537
 H354 H 0.00154 0.51068 0.89900
 N355 N 0.12253 0.13449 0.47276
 N356 N 0.11455 0.09324 0.46636
 N357 N 0.59091 0.63909 0.04253
 N358 N 0.57582 0.67618 0.02467
 N359 N 0.89962 -0.08555 0.47321
 N360 N 0.86003 -0.08685 0.48815
 N361 N 0.43778 0.35785 1.02853
 N362 N 0.44557 0.32477 1.00511
 N363 N 0.86352 0.08829 0.51214
 N364 N 0.82441 0.07733 0.49353
 N365 N 0.40706 0.61410 0.02516
 N366 N 0.41008 0.64962 0.04669
 N367 N 0.14162 -0.07922 0.50290
 N368 N 0.16977 -0.06525 0.47690
 N369 N 0.61245 0.38799 0.98733
 N370 N 0.61583 0.34756 1.00144
 N371 N 0.54779 0.10789 1.09876
 N372 N 0.55779 0.09231 1.06321
 N373 N -0.00144 0.59674 0.60117
 N374 N 0.01412 0.58939 0.63994
 N375 N 0.42452 0.90354 -0.10915
 N376 N 0.44464 0.86845 -0.09123
 N377 N 0.90580 0.41542 0.37909
 N378 N 0.90156 0.45506 0.36688
 N379 N 0.39254 0.90397 0.08260
 N380 N 0.37915 0.89387 0.04583
 N381 N -0.00624 0.42116 0.60356
 N382 N -0.01844 0.42639 0.64104
 N383 N 0.57765 0.07261 0.90115
 N384 N 0.56831 0.11360 0.90823
 N385 N 1.02418 0.61451 0.35946
 N386 N 1.00439 0.58285 0.37816
 N387 N 1.14687 0.46534 0.17897
 N388 N 1.12663 0.46453 0.21186
 N389 N 0.58589 -0.07525 0.58875
 N390 N 0.62324 -0.05706 0.57925
 N391 N -0.08833 0.54096 0.89242
 N392 N -0.08581 0.51938 0.85826
 N393 N 0.36840 0.05106 0.37440
 N394 N 0.38698 0.06037 0.41135
 N395 N 0.09174 0.47785 0.90460
 N396 N 0.08701 0.50053 0.86959
 N397 N 0.61170 -0.06530 0.38511
 N398 N 0.59625 -0.06862 0.42177
 N399 N 0.92138 0.49547 0.14961
 N400 N 0.96209 0.47908 0.14487
 N401 N 0.41513 0.06944 0.57881
 N402 N 0.37228 0.06371 0.56685
   
