data_POSCAR
  _audit_creation_date              2014-09-24
  _audit_creation_method            'ToBaCCo'
  _symmetry_space_group_name_H-M    'P1'
  _symmetry_Int_Tables_number       1
  _symmetry_cell_setting            triclinic
  loop_
  _symmetry_equiv_pos_as_xyz
 x,y,z
_cell_length_a 10.3986
_cell_length_b 10.4750
_cell_length_c 27.3426
_cell_angle_alpha 90.290600
_cell_angle_beta 90.120200
_cell_angle_gamma 95.769700
loop_
  _atom_site_label
  _atom_site_type_symbol
  _atom_site_fract_x
  _atom_site_fract_y
  _atom_site_fract_z
O1 O 0.25237 0.07466 0.05053
 O2 O -0.19627 -0.06372 0.07206
 O3 O -0.00924 0.24267 0.06294
 O4 O 0.06209 -0.20951 0.05789
 O5 O -0.20208 0.15272 0.05410
 O6 O 0.24140 -0.13901 0.02612
 O7 O -0.16220 -0.23586 0.03694
 O8 O 0.19662 0.25279 0.02649
 C9 C 0.24556 0.18884 0.05872
 C10 C -0.19027 -0.17957 0.07486
 C11 C -0.11854 0.21674 0.08011
 C12 C 0.17990 -0.18832 0.06183
 O13 O 0.19390 -0.05864 -0.06874
 O14 O -0.22957 0.08608 -0.04515
 O15 O 0.07520 0.22440 -0.06334
 O16 O -0.09724 -0.20558 -0.05731
 O17 O -0.26036 -0.13027 -0.02494
 O18 O 0.25292 0.15613 -0.04419
 O19 O 0.12135 -0.23458 -0.03849
 O20 O -0.12607 0.25664 -0.02183
 Co21 Co 0.21470 0.00781 -0.00841
 Co22 Co -0.20129 0.01155 0.01304
 Co23 Co 0.03246 0.22270 0.00053
 Co24 Co -0.01618 -0.19950 0.00014
 O25 O 0.00723 0.01106 0.00187
 C26 C 0.16097 -0.17303 -0.07532
 C27 C -0.19008 0.19763 -0.05466
 C28 C 0.18384 0.20060 -0.07603
 C29 C -0.20844 -0.17630 -0.06156
 O30 O 0.41226 0.26973 0.43916
 O31 O 0.60471 0.70056 0.44150
 O32 O 0.30552 0.56585 0.43170
 O33 O 0.72126 0.40780 0.45152
 O34 O 0.38913 0.74061 0.46118
 O35 O 0.61542 0.23847 0.47532
 O36 O 0.76476 0.62286 0.47429
 O37 O 0.24115 0.35362 0.45736
 C38 C 0.30624 0.30033 0.42650
 C39 C 0.71432 0.66729 0.43730
 C40 C 0.34203 0.67943 0.42500
 C41 C 0.67833 0.29694 0.44202
 O42 O 0.50888 0.26763 0.56467
 O43 O 0.45039 0.71779 0.55738
 O44 O 0.24890 0.43811 0.55180
 O45 O 0.70317 0.55414 0.57001
 O46 O 0.67314 0.73003 0.53685
 O47 O 0.29958 0.25635 0.52887
 O48 O 0.70334 0.33561 0.54834
 O49 O 0.26804 0.65178 0.52648
 Co50 Co 0.46211 0.27906 0.50187
 Co51 Co 0.52616 0.70079 0.49943
 Co52 Co 0.28688 0.50182 0.49239
 Co53 Co 0.70240 0.48092 0.51039
 O54 O 0.49432 0.49027 0.50122
 C55 C 0.62206 0.28696 0.57832
 C56 C 0.33239 0.70099 0.56177
 C57 C 0.25287 0.32386 0.56061
 C58 C 0.69962 0.67038 0.57413
 C59 C 0.19775 0.20502 0.14529
 C60 C 0.23560 0.22950 0.19348
 C61 C 0.36256 0.28486 0.20366
 C62 C 0.44782 0.31813 0.16494
 C63 C 0.40739 0.29609 0.11654
 C64 C 0.28215 0.23951 0.10683
 C65 C 0.40154 0.30567 0.25222
 C66 C 0.31354 0.27583 0.29025
 C67 C 0.18565 0.22333 0.27985
 C68 C 0.14835 0.19806 0.23147
 C69 C 0.09717 0.19748 0.31807
 C70 C 0.13444 0.22567 0.36630
 C71 C 0.26189 0.27455 0.37659
 C72 C 0.35120 0.29861 0.33865
 H73 H 0.10387 0.15411 0.13777
 H74 H 0.54571 0.35950 0.17211
 H75 H 0.47499 0.31800 0.08695
 H76 H 0.49910 0.34705 0.26037
 H77 H 0.05119 0.15542 0.22332
 H78 H -0.00056 0.15602 0.31062
 H79 H 0.06521 0.20645 0.39555
 H80 H 0.44938 0.33818 0.34688
 C81 C 0.86676 0.77456 0.16008
 C82 C 0.83030 0.73115 0.20685
 C83 C 0.70524 0.66725 0.21394
 C84 C 0.62191 0.64192 0.17392
 C85 C 0.65944 0.68487 0.12744
 C86 C 0.78034 0.75384 0.12073
 C87 C 0.66326 0.63469 0.26111
 C88 C 0.74426 0.66573 0.30126
 C89 C 0.87172 0.72332 0.29434
 C90 C 0.91427 0.75560 0.24692
 C91 C 0.95242 0.75073 0.33522
 C92 C 0.90496 0.72652 0.38260
 C93 C 0.77600 0.67682 0.38920
 C94 C 0.69764 0.64349 0.34845
 H95 H 0.95989 0.82911 0.15458
 H96 H 0.52611 0.59325 0.17893
 H97 H 0.59180 0.67009 0.09726
 H98 H 0.56606 0.58916 0.26674
 H99 H 1.01066 0.80311 0.24139
 H100 H 1.05055 0.79412 0.33061
 H101 H 0.96650 0.75205 0.41387
 H102 H 0.59851 0.60259 0.35367
 C103 C 0.73153 0.17036 0.85929
 C104 C 0.72854 0.21033 0.81048
 C105 C 0.77930 0.33589 0.79777
 C106 C 0.83122 0.41963 0.83480
 C107 C 0.83752 0.37740 0.88340
 C108 C 0.78912 0.25162 0.89601
 C109 C 0.77667 0.37487 0.74845
 C110 C 0.72353 0.28933 0.71198
 C111 C 0.67177 0.16430 0.72544
 C112 C 0.67416 0.12619 0.77438
 C113 C 0.61511 0.07966 0.68994
 C114 C 0.60722 0.11842 0.64150
 C115 C 0.65657 0.24219 0.62732
 C116 C 0.71677 0.32721 0.66257
 H117 H 0.69201 0.07387 0.86841
 H118 H 0.86872 0.51703 0.82605
 H119 H 0.88253 0.44211 0.91087
 H120 H 0.81530 0.47132 0.73857
 H121 H 0.63170 0.03134 0.78450
 H122 H 0.57326 -0.01547 0.69990
 H123 H 0.55873 0.05266 0.61510
 H124 H 0.75189 0.42409 0.65215
 C125 C 0.20025 0.85313 0.83552
 C126 C 0.20310 0.80600 0.78765
 C127 C 0.17522 0.67335 0.77851
 C128 C 0.14393 0.59047 0.81797
 C129 C 0.14014 0.63870 0.86590
 C130 C 0.16872 0.77056 0.87507
 C131 C 0.18056 0.62639 0.73028
 C132 C 0.21481 0.71090 0.69145
 C133 C 0.24063 0.84386 0.70108
 C134 C 0.23412 0.89034 0.74893
 C135 C 0.27759 0.92822 0.66294
 C136 C 0.29506 0.88147 0.61594
 C137 C 0.27440 0.74970 0.60608
 C138 C 0.23081 0.66468 0.64361
 H139 H 0.22165 0.95525 0.84185
 H140 H 0.12145 0.48869 0.81171
 H141 H 0.11453 0.57322 0.89565
 H142 H 0.16068 0.52442 0.72315
 H143 H 0.25606 0.99200 0.75617
 H144 H 0.29979 1.02956 0.66995
 H145 H 0.33224 0.94750 0.58776
 H146 H 0.21895 0.56240 0.63650
 C147 C 0.13343 0.22108 0.83989
 C148 C 0.17425 0.23539 0.79147
 C149 C 0.30658 0.26853 0.78157
 C150 C 0.39677 0.27441 0.81976
 C151 C 0.35703 0.24426 0.86733
 C152 C 0.22455 0.22306 0.87819
 C153 C 0.34692 0.29236 0.73357
 C154 C 0.25800 0.27399 0.69513
 C155 C 0.12729 0.23038 0.70449
 C156 C 0.08540 0.21446 0.75287
 C157 C 0.04106 0.20513 0.66521
 C158 C 0.08329 0.22759 0.61719
 C159 C 0.21187 0.27495 0.60835
 C160 C 0.29843 0.29807 0.64727
 H161 H 0.03122 0.19874 0.84726
 H162 H 0.49795 0.30074 0.81267
 H163 H 0.42943 0.24591 0.89597
 H164 H 0.44771 0.32250 0.72603
 H165 H -0.01526 0.18380 0.76040
 H166 H -0.05888 0.16986 0.67166
 H167 H 0.01497 0.21277 0.58725
 H168 H 0.39642 0.33940 0.64052
 C169 C 0.80710 0.84395 0.84974
 C170 C 0.76271 0.81618 0.80247
 C171 C 0.63914 0.74923 0.79528
 C172 C 0.55952 0.71790 0.83595
 C173 C 0.60464 0.74797 0.88344
 C174 C 0.73008 0.80777 0.89031
 C175 C 0.59906 0.71305 0.74776
 C176 C 0.68076 0.74482 0.70781
 C177 C 0.80089 0.81888 0.71512
 C178 C 0.84141 0.85327 0.76249
 C179 C 0.87996 0.85480 0.67497
 C180 C 0.84331 0.81256 0.62803
 C181 C 0.72812 0.73331 0.62110
 C182 C 0.64586 0.70152 0.66070
 H183 H 0.90346 0.89226 0.85518
 H184 H 0.46394 0.66786 0.83107
 H185 H 0.54451 0.71950 0.91459
 H186 H 0.50581 0.65865 0.74197
 H187 H 0.93487 0.90729 0.76831
 H188 H 0.97140 0.91268 0.68005
 H189 H 0.90747 0.83658 0.59755
 H190 H 0.55660 0.64022 0.65489
 C191 C 0.27185 0.85125 0.14522
 C192 C 0.28585 0.80386 0.19286
 C193 C 0.27017 0.66986 0.20066
 C194 C 0.24544 0.58604 0.16096
 C195 C 0.23063 0.63369 0.11409
 C196 C 0.24079 0.76614 0.10597
 C197 C 0.27551 0.62135 0.24810
 C198 C 0.29719 0.70448 0.28816
 C199 C 0.31269 0.83843 0.28091
 C200 C 0.30788 0.88755 0.23317
 C201 C 0.33179 0.92032 0.32172
 C202 C 0.34094 0.86999 0.36891
 C203 C 0.32780 0.73677 0.37611
 C204 C 0.30364 0.65503 0.33546
 H205 H 0.27525 0.95361 0.13934
 H206 H 0.23093 0.48375 0.16651
 H207 H 0.20245 0.56714 0.08458
 H208 H 0.26067 0.51884 0.25391
 H209 H 0.31998 0.99028 0.22748
 H210 H 0.34241 1.02316 0.31706
 H211 H 0.35803 0.93498 0.39968
 H212 H 0.29210 0.55212 0.34050
 C213 C 0.76675 0.19089 0.15714
 C214 C 0.76540 0.22177 0.20766
 C215 C 0.84262 0.33159 0.22518
 C216 C 0.92350 0.40510 0.19315
 C217 C 0.93374 0.36712 0.14466
 C218 C 0.85663 0.25947 0.12563
 C219 C 0.84249 0.36406 0.27488
 C220 C 0.77035 0.28577 0.30827
 C221 C 0.69863 0.17199 0.29196
 C222 C 0.69426 0.14171 0.24151
 C223 C 0.63320 0.09092 0.32661
 C224 C 0.63084 0.12701 0.37623
 C225 C 0.69648 0.24375 0.39214
 C226 C 0.76989 0.31986 0.35791
 H227 H 0.70847 0.10611 0.14382
 H228 H 0.98388 0.48881 0.20616
 H229 H 1.00238 0.42352 0.12168
 H230 H 0.90165 0.44871 0.28783
 H231 H 0.63760 0.05527 0.22881
 H232 H 0.58311 0.00032 0.31513
 H233 H 0.57483 0.06572 0.40179
 H234 H 0.82400 0.40860 0.36962
   
