data_POSCAR
  _audit_creation_date              2014-09-24
  _audit_creation_method            'ToBaCCo'
  _symmetry_space_group_name_H-M    'P1'
  _symmetry_Int_Tables_number       1
  _symmetry_cell_setting            triclinic
  loop_
  _symmetry_equiv_pos_as_xyz
 x,y,z
_cell_length_a 20.6171
_cell_length_b 22.1480
_cell_length_c 21.1466
_cell_angle_alpha 88.301300
_cell_angle_beta 88.982800
_cell_angle_gamma 91.292600
loop_
  _atom_site_label
  _atom_site_type_symbol
  _atom_site_fract_x
  _atom_site_fract_y
  _atom_site_fract_z
N1 N 0.18066 1.29369 0.13213
 N2 N 0.13698 1.28757 0.17808
 C3 C 0.09204 1.33027 0.17065
 C4 C 0.10867 1.36524 0.11747
 C5 C 0.16547 1.34089 0.09411
 H6 H 0.05026 1.33541 0.20155
 H7 H 0.19315 1.35593 0.05239
 Cu8 Cu 0.14298 1.22457 0.24339
 Cu9 Cu 0.25371 1.23984 0.12531
 Cu10 Cu 0.23845 1.10702 0.21618
 N11 N 0.13301 1.14937 0.29239
 N12 N 0.17007 1.10324 0.28098
 C13 C 0.15172 1.05630 0.31955
 C14 C 0.10039 1.07393 0.35699
 C15 C 0.08968 1.13343 0.33869
 H16 H 0.17358 1.01235 0.31996
 H17 H 0.05260 1.16245 0.35678
 N18 N 0.30473 1.11999 0.14856
 N19 N 0.31020 1.17021 0.11345
 C20 C 0.35695 1.16357 0.06896
 C21 C 0.38259 1.10683 0.07706
 C22 C 0.34836 1.08046 0.12794
 H23 H 0.37029 1.19689 0.03232
 H24 H 0.35294 1.03493 0.14682
 H25 H 0.19400 1.17056 0.15825
 H26 H 0.25500 1.19853 0.21509
 N27 N 0.81939 0.68942 0.13751
 N28 N 0.87250 0.69297 0.17085
 C29 C 0.91355 0.65027 0.15220
 C30 C 0.88439 0.61837 0.10452
 C31 C 0.82481 0.64449 0.09644
 H32 H 0.96217 0.64522 0.16964
 H33 H 0.78944 0.63340 0.06119
 Cu34 Cu 0.88748 0.75794 0.22957
 Cu35 Cu 0.75121 0.74781 0.14605
 Cu36 Cu 0.74931 0.83403 0.27311
 N37 N 0.88390 0.81128 0.30265
 N38 N 0.83016 0.83755 0.32093
 C39 C 0.84342 0.87375 0.36921
 C40 C 0.90916 0.87085 0.38139
 C41 C 0.93305 0.83022 0.33886
 H42 H 0.80859 0.90338 0.39010
 H43 H 0.98318 0.81792 0.33260
 N44 N 0.69150 0.84852 0.20266
 N45 N 0.69415 0.81626 0.15152
 C46 C 0.65388 0.83955 0.10822
 C47 C 0.62422 0.88884 0.13403
 C48 C 0.64870 0.89290 0.19413
 H49 H 0.64791 0.82292 0.06104
 H50 H 0.63871 0.92741 0.22789
 H51 H 0.81648 0.81911 0.20456
 H52 H 0.79281 0.75077 0.25402
 N53 N 0.84334 1.31219 -0.13051
 N54 N 0.88517 1.31143 -0.17815
 C55 C 0.93528 1.34931 -0.16703
 C56 C 0.92400 1.37563 -0.10970
 C57 C 0.86505 1.35134 -0.08769
 H58 H 0.97692 1.35712 -0.19830
 H59 H 0.84040 1.36061 -0.04356
 Cu60 Cu 0.87044 1.26170 -0.25072
 Cu61 Cu 0.76495 1.26096 -0.12797
 Cu62 Cu 0.77468 1.13908 -0.22678
 N63 N 0.86962 1.19684 -0.31034
 N64 N 0.83157 1.14890 -0.30096
 C65 C 0.84471 1.10846 -0.34535
 C66 C 0.89443 1.13223 -0.38430
 C67 C 0.90858 1.18859 -0.36097
 H68 H 0.82221 1.06398 -0.34663
 H69 H 0.94687 1.21973 -0.37738
 N70 N 0.70952 1.14345 -0.15792
 N71 N 0.70601 1.18953 -0.11988
 C72 C 0.66000 1.17697 -0.07502
 C73 C 0.63283 1.12069 -0.08594
 C74 C 0.66525 1.10087 -0.13898
 H75 H 0.64867 1.20566 -0.03601
 H76 H 0.65931 1.05744 -0.16038
 H77 H 0.82128 1.19823 -0.16644
 H78 H 0.75912 1.22947 -0.22052
 N79 N 0.18519 0.70137 -0.14496
 N80 N 0.12929 0.70167 -0.17396
 C81 C 0.09111 0.65620 -0.14984
 C82 C 0.12540 0.62566 -0.10359
 C83 C 0.18505 0.65508 -0.10231
 H84 H 0.04178 0.64705 -0.16388
 H85 H 0.22418 0.64556 -0.07034
 Cu86 Cu 0.11112 0.76308 -0.23856
 Cu87 Cu 0.25102 0.76484 -0.16001
 Cu88 Cu 0.19166 0.89512 -0.23021
 N89 N 0.09836 0.82800 -0.30090
 N90 N 0.13039 0.87973 -0.29715
 C91 C 0.10983 0.91852 -0.34214
 C92 C 0.06197 0.88952 -0.37610
 C93 C 0.05618 0.83203 -0.34874
 H94 H 0.12721 0.96480 -0.34781
 H95 H 0.02216 0.79666 -0.36131
 N96 N 0.27084 0.89434 -0.17979
 N97 N 0.29494 0.84436 -0.15522
 C98 C 0.34781 0.85873 -0.12181
 C99 C 0.35713 0.92080 -0.12569
 C100 C 0.30778 0.94187 -0.16297
 H101 H 0.37541 0.82681 -0.09420
 H102 H 0.29839 0.98857 -0.17528
 H103 H 0.17578 0.82206 -0.16620
 H104 H 0.21973 0.81008 -0.24258
 Si105 Si 0.50948 0.98200 -0.00546
 Si106 Si 0.01217 0.50187 1.01144
 Si107 Si 0.97235 0.00651 0.49743
 C108 C 0.07362 0.41376 1.09382
 C109 C 0.08499 0.45291 1.04344
 H110 H 0.10293 0.42713 1.05295
 H111 H 0.05891 0.49633 1.03702
 C112 C -0.08705 0.57304 1.06345
 C113 C -0.03006 0.54808 1.07493
 H114 H -0.11248 0.56185 1.02081
 H115 H -0.00295 0.55896 1.11658
 C116 C -0.03262 0.41915 0.92039
 C117 C -0.05003 0.44689 0.97273
 H118 H 0.01441 0.42918 0.89830
 H119 H -0.02081 0.47797 0.99246
 C120 C 0.10306 0.57625 0.94009
 C121 C 0.04048 0.56093 0.94823
 H122 H 0.13888 0.55445 0.96921
 H123 H 0.00342 0.58366 0.92161
 C124 C 1.06690 0.03775 0.40214
 C125 C 1.01777 0.05851 0.43626
 H126 H 1.08166 -0.00861 0.40939
 H127 H 0.99344 0.03068 0.46902
 C128 C 1.02351 -0.08667 0.57579
 C129 C 1.03022 -0.02947 0.55434
 H130 H 0.98554 -0.11525 0.55711
 H131 H 1.06702 0.00066 0.57233
 C132 C 0.94629 -0.09335 0.42114
 C133 C 0.92036 -0.05159 0.45762
 H134 H 0.99852 -0.09782 0.41979
 H135 H 0.86855 -0.04534 0.46031
 C136 C 0.92909 0.10411 0.56788
 C137 C 0.91571 0.04772 0.55059
 H138 H 0.97031 0.12839 0.54606
 H139 H 0.87583 0.02137 0.57186
 C140 C 0.43075 1.07857 0.03564
 C141 C 0.45901 1.02715 0.05266
 H142 H 0.44155 1.09936 -0.01044
 H143 H 0.44850 1.00557 0.09833
 C144 C 0.58607 1.08620 -0.04461
 C145 C 0.55711 1.03544 -0.06326
 H146 H 0.57724 1.10151 0.00286
 H147 H 0.56538 1.01922 -0.11039
 C148 C 0.40458 0.95808 -0.09250
 C149 C 0.44797 0.93336 -0.05451
 H150 H 0.40248 1.00684 -0.09800
 H151 H 0.47687 0.96170 -0.03164
 C152 C 0.58102 0.93201 0.10317
 C153 C 0.57064 0.93066 0.04135
 H154 H 0.56048 0.96738 0.13111
 H155 H 0.54812 0.96725 0.02339
   
