data_POSCAR
  _audit_creation_date              2014-09-24
  _audit_creation_method            'ToBaCCo'
  _symmetry_space_group_name_H-M    'P1'
  _symmetry_Int_Tables_number       1
  _symmetry_cell_setting            triclinic
  loop_
  _symmetry_equiv_pos_as_xyz
 x,y,z
_cell_length_a 21.6844
_cell_length_b 21.4998
_cell_length_c 21.4603
_cell_angle_alpha 90.020100
_cell_angle_beta 89.896700
_cell_angle_gamma 90.069000
loop_
  _atom_site_label
  _atom_site_type_symbol
  _atom_site_fract_x
  _atom_site_fract_y
  _atom_site_fract_z
O1 O 0.29207 1.04798 0.42263
 O2 O 0.31454 0.95557 0.56572
 O3 O 0.31625 0.92954 0.44591
 O4 O 0.31619 1.07305 0.53607
 O5 O 0.21704 1.06076 0.55617
 O6 O 0.21446 0.92574 0.44786
 O7 O 0.21380 0.94002 0.56956
 O8 O 0.19120 1.04383 0.43709
 Cu9 Cu 0.31939 1.00160 0.49100
 Cu10 Cu 0.19934 0.99171 0.50376
 C11 C 0.23749 1.06311 0.40694
 C12 C 0.26720 0.93143 0.59147
 C13 C 0.26618 0.90451 0.42918
 C14 C 0.26754 1.09081 0.56309
 O15 O 0.72400 -0.06561 0.44336
 O16 O 0.72420 0.05909 0.56096
 O17 O 0.72881 0.05519 0.43776
 O18 O 0.73336 -0.06287 0.56388
 O19 O 0.83507 -0.05858 0.56217
 O20 O 0.83070 0.05684 0.43681
 O21 O 0.82609 0.05997 0.56067
 O22 O 0.82586 -0.06209 0.44010
 Cu23 Cu 0.71744 -0.00329 0.50201
 Cu24 Cu 0.83939 -0.00055 0.49974
 C25 C 0.77489 -0.08414 0.42096
 C26 C 0.77495 0.07933 0.58222
 C27 C 0.77953 0.07433 0.41451
 C28 C 0.78558 -0.08037 0.58471
 O29 O 0.32428 0.45089 0.92847
 O30 O 0.31984 0.55868 1.05960
 O31 O 0.32900 0.44152 1.05257
 O32 O 0.29220 0.56744 0.94196
 O33 O 0.19279 0.54798 0.95274
 O34 O 0.22950 0.42132 1.05956
 O35 O 0.21985 0.54102 1.07116
 O36 O 0.22494 0.43103 0.93829
 Cu37 Cu 0.32558 0.50561 0.99350
 Cu38 Cu 0.20696 0.48338 1.00627
 C39 C 0.27637 0.42273 0.91061
 C40 C 0.26972 0.56734 1.08852
 C41 C 0.28447 0.41164 1.07706
 C42 C 0.23607 0.57973 0.92933
 O43 O 0.42431 0.28952 1.05638
 O44 O 0.53942 0.32321 0.93439
 O45 O 0.42108 0.30037 0.93727
 O46 O 0.53903 0.32080 1.05820
 O47 O 0.56215 0.22105 1.05354
 O48 O 0.44097 0.19953 0.93450
 O49 O 0.56172 0.22322 0.92996
 O50 O 0.44637 0.18919 1.05113
 Cu51 Cu 0.47970 0.31851 0.99684
 Cu52 Cu 0.50642 0.19848 0.99096
 C53 C 0.41483 0.23360 1.07323
 C54 C 0.56983 0.27853 0.91087
 C55 C 0.40878 0.24605 0.91794
 C56 C 0.56938 0.27454 1.07801
 O57 O 0.44231 0.70902 -0.05748
 O58 O 0.54463 0.69798 0.07735
 O59 O 0.42820 0.72341 0.06173
 O60 O 0.55875 0.69949 -0.04534
 O61 O 0.57911 0.80010 -0.04488
 O62 O 0.44369 0.82467 0.05617
 O63 O 0.56289 0.79894 0.07471
 O64 O 0.46319 0.80951 -0.06527
 Cu65 Cu 0.49252 0.69805 0.01031
 Cu66 Cu 0.51317 0.81878 0.00579
 C67 C 0.43705 0.76047 -0.08570
 C68 C 0.57118 0.74558 0.09906
 C69 C 0.41295 0.77860 0.07633
 C70 C 0.58997 0.74566 -0.06488
 O71 O 1.05679 0.42642 0.26520
 O72 O 0.94008 0.55214 0.26710
 O73 O 0.93581 0.43017 0.26760
 O74 O 1.06119 0.54856 0.26469
 O75 O 1.05594 0.54900 0.16202
 O76 O 0.93575 0.42839 0.16466
 O77 O 0.93807 0.55088 0.16416
 O78 O 1.05401 0.42576 0.16234
 Cu79 Cu 0.99870 0.48933 0.27652
 Cu80 Cu 0.99597 0.48838 0.15331
 C81 C 1.07438 0.40407 0.21325
 C82 C 0.91999 0.57346 0.21572
 C83 C 0.91553 0.40840 0.21640
 C84 C 1.07846 0.57025 0.21227
 O85 O -0.06502 0.43995 0.70976
 O86 O 0.06422 0.55028 0.69817
 O87 O 0.05424 0.43271 0.71792
 O88 O -0.05809 0.55806 0.69292
 O89 O -0.06100 0.57635 0.79392
 O90 O 0.05046 0.44876 0.81958
 O91 O 0.06044 0.56845 0.79929
 O92 O -0.06785 0.45541 0.81157
 Cu93 Cu -0.00063 0.49465 0.69515
 Cu94 Cu -0.00507 0.51463 0.81638
 C95 C -0.08777 0.42812 0.76300
 C96 C 0.08536 0.57682 0.74629
 C97 C 0.07114 0.41896 0.77291
 C98 C -0.07995 0.58763 0.73899
 O99 O 0.44436 0.92133 0.32937
 O100 O 0.55625 1.04855 0.33245
 O101 O 0.44145 1.04294 0.33356
 O102 O 0.56492 0.92839 0.30284
 O103 O 0.55555 0.94401 0.20172
 O104 O 0.43268 1.05623 0.23195
 O105 O 0.54955 1.05924 0.23017
 O106 O 0.43375 0.93190 0.22763
 Cu107 Cu 0.50366 0.98199 0.33346
 Cu108 Cu 0.49047 0.99707 0.21322
 C109 C 0.41945 0.90504 0.27863
 C110 C 0.57121 1.07641 0.28271
 C111 C 0.41770 1.07111 0.28719
 C112 C 0.58204 0.91770 0.24703
 O113 O 1.05285 0.29226 0.56348
 O114 O 0.93431 0.32220 0.44529
 O115 O 0.93428 0.30026 0.56212
 O116 O 1.05668 0.32051 0.44593
 O117 O 1.05477 0.22014 0.42495
 O118 O 0.93261 0.19911 0.54277
 O119 O 0.93199 0.22194 0.42373
 O120 O 1.04889 0.19151 0.54293
 Cu121 Cu 0.99530 0.31852 0.50508
 Cu122 Cu 0.99179 0.19806 0.47996
 C123 C 1.06967 0.23666 0.57450
 C124 C 0.91125 0.27661 0.41618
 C125 C 0.91343 0.24616 0.57295
 C126 C 1.07784 0.27396 0.41696
 O127 O -0.06230 0.69942 0.57602
 O128 O 0.03925 0.67752 0.43953
 O129 O 0.05674 0.67543 0.56194
 O130 O -0.07497 0.69691 0.45546
 O131 O -0.05280 0.79721 0.45153
 O132 O 0.07310 0.77684 0.56374
 O133 O 0.06338 0.77746 0.44263
 O134 O -0.04265 0.80030 0.57424
 Cu135 Cu -0.01173 0.67686 0.50943
 Cu136 Cu 0.01185 0.79797 0.50810
 C137 C -0.06979 0.75379 0.59803
 C138 C 0.06730 0.72434 0.41712
 C139 C 0.08650 0.72235 0.58184
 C140 C -0.08405 0.75074 0.43308
 O141 O 0.69962 0.43201 1.05730
 O142 O 0.68791 0.55281 0.93628
 O143 O 0.69833 0.43376 0.93780
 O144 O 0.67766 0.55156 1.06002
 O145 O 0.77850 0.56512 1.06458
 O146 O 0.79950 0.44657 0.94239
 O147 O 0.78834 0.56871 0.94281
 O148 O 0.80078 0.44561 1.05985
 Cu149 Cu 0.68046 0.49215 0.99787
 Cu150 Cu 0.80162 0.50899 1.00258
 C151 C 0.75278 0.41665 1.07695
 C152 C 0.73660 0.58044 0.91829
 C153 C 0.75236 0.41884 0.92082
 C154 C 0.72442 0.57764 1.08390
 O155 O 0.42775 1.06439 0.70977
 O156 O 0.54329 0.94034 0.68877
 O157 O 0.42732 0.94376 0.71570
 O158 O 0.54384 1.06280 0.68076
 O159 O 0.56513 1.06948 0.78113
 O160 O 0.45039 0.94789 0.81593
 O161 O 0.56749 0.94764 0.78840
 O162 O 0.44682 1.06579 0.81079
 Cu163 Cu 0.48370 1.00238 0.68867
 Cu164 Cu 0.51062 1.00856 0.80897
 C165 C 0.41611 1.08472 0.76423
 C166 C 0.57471 0.92256 0.73530
 C167 C 0.41867 0.92593 0.77146
 C168 C 0.57380 1.08709 0.72520
 C169 C 0.25419 0.20197 0.30006
 C170 C 0.20671 0.24678 0.29669
 C171 C 0.20865 0.29338 0.25012
 C172 C 0.25699 0.29344 0.20553
 C173 C 0.30469 0.24856 0.20985
 C174 C 0.30274 0.20160 0.25597
 C175 C 0.74282 0.77679 0.31567
 C176 C 0.78718 0.72860 0.31286
 C177 C 0.79184 0.69085 0.25898
 C178 C 0.75288 0.70309 0.20713
 C179 C 0.70793 0.75086 0.21061
 C180 C 0.70166 0.78656 0.26578
 C181 C 0.73844 0.21748 0.68899
 C182 C 0.77782 0.26987 0.68364
 C183 C 0.77737 0.31666 0.72987
 C184 C 0.73577 0.31214 0.78060
 C185 C 0.69831 0.25854 0.78786
 C186 C 0.70016 0.21089 0.74219
 C187 C 0.25486 0.79366 0.70537
 C188 C 0.30170 0.79491 0.75170
 C189 C 0.29869 0.75308 0.80291
 C190 C 0.25184 0.70740 0.80494
 C191 C 0.20282 0.70892 0.76160
 C192 C 0.20454 0.75197 0.71168
 C193 C 0.19876 0.25514 0.69412
 C194 C 0.19942 0.29917 0.74297
 C195 C 0.24484 0.29519 0.78988
 C196 C 0.29393 0.25205 0.78354
 C197 C 0.29193 0.20594 0.73603
 C198 C 0.24208 0.20600 0.69307
 C199 C 0.79384 0.75352 0.71051
 C200 C 0.74839 0.80121 0.70958
 C201 C 0.70972 0.81019 0.76217
 C202 C 0.71446 0.77018 0.81424
 C203 C 0.75942 0.72251 0.81472
 C204 C 0.80083 0.71533 0.76418
 C205 C 0.19864 0.74117 0.29813
 C206 C 0.23856 0.79327 0.29305
 C207 C 0.28226 0.79726 0.24406
 C208 C 0.28401 0.75026 0.19797
 C209 C 0.23933 0.70207 0.19897
 C210 C 0.19731 0.69583 0.24971
 C211 C 0.78424 0.25073 0.29529
 C212 C 0.77842 0.30097 0.25326
 C213 C 0.73061 0.30044 0.20843
 C214 C 0.69104 0.24795 0.20291
 C215 C 0.69451 0.19986 0.24800
 C216 C 0.73964 0.20251 0.29575
 C217 C 0.22820 0.10488 0.35425
 C218 C 0.25641 0.15979 0.35393
 H219 H 0.19748 0.09157 0.31678
 H220 H 0.28414 0.17396 0.39349
 C221 C 0.77543 0.87092 0.36982
 C222 C 0.74074 0.81959 0.36985
 H223 H 0.80688 0.87954 0.33147
 H224 H 0.70981 0.80957 0.40825
 C225 C 0.77522 0.12371 0.63429
 C226 C 0.73560 0.17108 0.63773
 H227 H 0.81017 0.11821 0.66980
 H228 H 0.70161 0.17766 0.60140
 C229 C 0.27353 0.89416 0.64814
 C230 C 0.25717 0.83405 0.64844
 H231 H 0.28761 0.91791 0.69012
 H232 H 0.24071 0.81407 0.60512
 C233 C 0.36527 0.22017 0.11737
 C234 C 0.35927 0.25374 0.16905
 H235 H 0.33261 0.18356 0.10658
 H236 H 0.39391 0.28814 0.18084
 C237 C 0.40118 0.76251 0.85657
 C238 C 0.33987 0.75766 0.85856
 H239 H 0.42569 0.76526 0.81273
 H240 H 0.31819 0.75204 0.90384
 C241 C 0.61102 0.73763 0.15364
 C242 C 0.66719 0.76266 0.15654
 H243 H 0.59603 0.70608 0.19003
 H244 H 0.68468 0.79043 0.11826
 C245 C 0.61383 0.29131 0.85990
 C246 C 0.65751 0.25040 0.84346
 H247 H 0.60885 0.33445 0.83444
 H248 H 0.66096 0.20711 0.86896
 C249 C 0.11748 0.35124 0.21127
 C250 C 0.16365 0.34564 0.25197
 H251 H 0.11223 0.31735 0.17430
 H252 H 0.16985 0.38098 0.28736
 C253 C 0.86378 0.38070 0.76949
 C254 C 0.82212 0.36926 0.72494
 H255 H 0.86389 0.35328 0.81161
 H256 H 0.82413 0.39533 0.68178
 C257 C 0.14064 0.61580 0.73969
 C258 C 0.14793 0.66880 0.77102
 H259 H 0.17517 0.60173 0.70602
 H260 H 0.11288 0.68403 0.80364
 C261 C 0.87714 0.62656 0.21469
 C262 C 0.83547 0.63691 0.25959
 H263 H 0.88077 0.65806 0.17567
 H264 H 0.83443 0.60618 0.29957
 C265 C 0.11288 0.22375 0.62509
 C266 C 0.15595 0.26490 0.64118
 H267 H 0.10880 0.17988 0.64937
 H268 H 0.15862 0.30880 0.61652
 C269 C 0.89130 0.76329 0.65304
 C270 C 0.83303 0.74347 0.65486
 H271 H 0.90967 0.79018 0.69150
 H272 H 0.81294 0.72066 0.61468
 C273 C 0.10241 0.71806 0.35914
 C274 C 0.16139 0.73562 0.35657
 H275 H 0.07775 0.70319 0.31803
 H276 H 0.18249 0.75167 0.39946
 C277 C 0.85822 0.28739 0.37533
 C278 C 0.84006 0.24445 0.33449
 H279 H 0.83239 0.33008 0.38090
 H280 H 0.86673 0.20230 0.32978
 C281 C 0.28157 0.38119 0.85647
 C282 C 0.24055 0.33645 0.84515
 H283 H 0.32085 0.38691 0.82571
 H284 H 0.20197 0.33010 0.87654
 C285 C 0.75961 0.36297 0.11788
 C286 C 0.72312 0.35466 0.16698
 H287 H 0.79626 0.33028 0.10804
 H288 H 0.68827 0.38892 0.17833
 C289 C 0.73305 0.62509 0.86704
 C290 C 0.76342 0.67915 0.86821
 H291 H 0.70272 0.61445 0.82836
 H292 H 0.79215 0.69150 0.90759
 C293 C 0.27025 0.60736 0.14353
 C294 C 0.23669 0.65895 0.14534
 H295 H 0.30223 0.59706 0.18086
 H296 H 0.20852 0.67176 0.10570
 C297 C 0.36857 0.12734 0.77401
 C298 C 0.34318 0.16013 0.72760
 H299 H 0.35216 0.13318 0.82105
 H300 H 0.36129 0.15362 0.68124
 C301 C 0.37495 0.85323 0.27975
 C302 C 0.32645 0.85020 0.24157
 H303 H 0.38136 0.81731 0.31448
 H304 H 0.31858 0.88693 0.20803
 C305 C 0.61245 0.13033 0.28736
 C306 C 0.65264 0.14520 0.24265
 H307 H 0.61009 0.15788 0.32948
 H308 H 0.65409 0.11773 0.20036
 C309 C 0.61891 0.87128 0.72752
 C310 C 0.66693 0.86414 0.76585
 H311 H 0.61107 0.83830 0.69023
 H312 H 0.67339 0.89669 0.80384
 C313 C 0.79008 0.87731 0.63369
 C314 C 0.74247 0.84388 0.65505
 H315 H 0.83475 0.87202 0.65536
 H316 H 0.69783 0.84911 0.63341
 C317 C 0.29602 0.37021 0.12568
 C318 C 0.25106 0.33469 0.14998
 H319 H 0.34167 0.37022 0.14558
 H320 H 0.20602 0.33630 0.12865
 C321 C 0.27153 0.14320 0.60110
 C322 C 0.23310 0.15362 0.64858
 H323 H 0.31075 0.17384 0.59473
 H324 H 0.19538 0.12175 0.65736
 C325 C 0.26932 0.85092 0.38703
 C326 C 0.23205 0.84548 0.33794
 H327 H 0.30642 0.81789 0.39345
 H328 H 0.19558 0.87902 0.33037
 C329 C 0.78028 0.11522 0.35944
 C330 C 0.73704 0.15810 0.34915
 H331 H 0.81855 0.11067 0.32734
 H332 H 0.69967 0.16297 0.38227
 C333 C 0.63425 0.73570 0.88916
 C334 C 0.67264 0.78009 0.86858
 H335 H 0.63461 0.69054 0.86728
 H336 H 0.67051 0.82629 0.88865
 C337 C 0.13079 0.28346 0.37519
 C338 C 0.15166 0.23889 0.33740
 H339 H 0.15425 0.32782 0.37732
 H340 H 0.12982 0.19354 0.33810
 C341 C 0.60978 0.28362 0.12789
 C342 C 0.64871 0.23975 0.14837
 H343 H 0.60781 0.32807 0.15125
 H344 H 0.64881 0.19481 0.12556
 C345 C 0.35423 0.23633 0.87907
 C346 C 0.35006 0.26028 0.82202
 H347 H 0.31735 0.20744 0.89714
 H348 H 0.38790 0.28722 0.80296
 C349 C 0.35933 0.78941 0.11744
 C350 C 0.33735 0.74412 0.15418
 H351 H 0.33833 0.83496 0.11742
 H352 H 0.35895 0.69878 0.15188
 C353 C 0.87375 0.63142 0.72806
 C354 C 0.85321 0.67051 0.77213
 H355 H 0.85340 0.63184 0.68214
 H356 H 0.87369 0.66802 0.81811
 C357 C 0.37640 0.11998 0.29749
 C358 C 0.34655 0.14802 0.25034
 H359 H 0.37073 0.13602 0.34481
 H360 H 0.35468 0.13122 0.20354
 C361 C 0.12061 0.61937 0.20795
 C362 C 0.15589 0.63996 0.25514
 H363 H 0.12302 0.64247 0.16334
 H364 H 0.15246 0.61734 0.30013
 C365 C 0.87028 0.35731 0.21574
 C366 C 0.82308 0.35370 0.25566
 H367 H 0.87511 0.32227 0.17982
 H368 H 0.81688 0.38937 0.29074
 C369 C 0.11493 0.36763 0.78264
 C370 C 0.15703 0.35356 0.73927
 H371 H 0.11172 0.34096 0.82523
 H372 H 0.15865 0.38108 0.69701
 C373 C 0.87141 0.76001 0.38264
 C374 C 0.82930 0.71763 0.36631
 H375 H 0.87556 0.80249 0.35612
 H376 H 0.82711 0.67338 0.39031
 C377 C 0.86787 0.23725 0.62230
 C378 C 0.82074 0.27630 0.63018
 H379 H 0.87421 0.19839 0.65348
 H380 H 0.81618 0.31647 0.60005
 C381 C 0.13685 0.71347 0.62676
 C382 C 0.15164 0.75772 0.66807
 H383 H 0.16186 0.67006 0.62580
 H384 H 0.12755 0.80186 0.66717
 C385 C 0.71559 0.62124 0.13602
 C386 C 0.75766 0.66439 0.15006
 H387 H 0.67445 0.61671 0.16438
 H388 H 0.79722 0.67058 0.11997
 C389 C 0.22058 0.63127 0.88723
 C390 C 0.26191 0.65314 0.84667
 H391 H 0.17491 0.65122 0.89007
 H392 H 0.30782 0.63318 0.84629
 C393 C 0.76062 0.36735 0.87727
 C394 C 0.72920 0.36493 0.82411
 H395 H 0.79364 0.33137 0.88867
 H396 H 0.69798 0.40223 0.81171
 C397 C 0.63323 0.87467 0.23428
 C398 C 0.64977 0.83107 0.27537
 H399 H 0.65706 0.87889 0.19015
 H400 H 0.62608 0.82915 0.31986
 C401 C 0.61758 0.13752 0.71123
 C402 C 0.66149 0.15444 0.75142
 H403 H 0.61204 0.16255 0.66784
 H404 H 0.66586 0.12957 0.79506
 C405 C 0.37046 0.88021 0.78499
 C406 C 0.35501 0.83697 0.74314
 H407 H 0.34727 0.88229 0.82968
 H408 H 0.37842 0.83592 0.69846
   
