data_POSCAR
  _audit_creation_date              2014-09-24
  _audit_creation_method            'ToBaCCo'
  _symmetry_space_group_name_H-M    'P1'
  _symmetry_Int_Tables_number       1
  _symmetry_cell_setting            triclinic
  loop_
  _symmetry_equiv_pos_as_xyz
 x,y,z
_cell_length_a 16.6717
_cell_length_b 17.4493
_cell_length_c 25.0314
_cell_angle_alpha 90.000000
_cell_angle_beta 89.700900
_cell_angle_gamma 90.000100
loop_
  _atom_site_label
  _atom_site_type_symbol
  _atom_site_fract_x
  _atom_site_fract_y
  _atom_site_fract_z
O1 O 0.13725 0.04351 0.06550
 O2 O -0.13722 -0.03890 0.06650
 O3 O -0.04054 0.13385 0.06681
 O4 O 0.04046 -0.12901 0.06654
 O5 O -0.15200 0.09012 0.03906
 O6 O 0.15197 -0.08544 0.03804
 O7 O -0.09397 -0.14409 0.03566
 O8 O 0.09397 0.14880 0.03510
 C9 C 0.12702 0.11266 0.07174
 C10 C -0.12705 -0.10809 0.07256
 C11 C -0.11268 0.12319 0.07458
 C12 C 0.11262 -0.11855 0.07380
 O13 O 0.13723 -0.03891 -0.06651
 O14 O -0.13725 0.04351 -0.06551
 O15 O 0.04055 0.13384 -0.06682
 O16 O -0.04046 -0.12900 -0.06655
 O17 O -0.15198 -0.08544 -0.03805
 O18 O 0.15200 0.09012 -0.03907
 O19 O 0.09397 -0.14409 -0.03566
 O20 O -0.09397 0.14880 -0.03511
 Co21 Co 0.13088 0.00232 -0.00047
 Co22 Co -0.13088 0.00233 0.00046
 Co23 Co 0.00000 0.12790 -0.00000
 Co24 Co -0.00000 -0.12310 -0.00000
 O25 O -0.00000 0.00237 -0.00000
 C26 C 0.12704 -0.10809 -0.07257
 C27 C -0.12703 0.11267 -0.07175
 C28 C 0.11268 0.12318 -0.07459
 C29 C -0.11263 -0.11855 -0.07381
 O30 O 0.40624 0.35177 0.46460
 O31 O 0.59396 0.64449 0.46429
 O32 O 0.34803 0.58605 0.46193
 O33 O 0.65218 0.41025 0.46128
 O34 O 0.45957 0.62948 0.43344
 O35 O 0.54089 0.36667 0.43326
 O36 O 0.63742 0.53925 0.43361
 O37 O 0.36290 0.45712 0.43429
 C38 C 0.37321 0.38798 0.42798
 C39 C 0.62714 0.60841 0.42746
 C40 C 0.38740 0.61912 0.42617
 C41 C 0.61306 0.37724 0.42564
 O42 O 0.59375 0.35176 0.53538
 O43 O 0.40604 0.64449 0.53570
 O44 O 0.34781 0.41025 0.53871
 O45 O 0.65197 0.58604 0.53806
 O46 O 0.54042 0.62947 0.56656
 O47 O 0.45911 0.36667 0.56673
 O48 O 0.63710 0.45712 0.56570
 O49 O 0.36258 0.53925 0.56638
 Co50 Co 0.50000 0.37263 0.49999
 Co51 Co 0.50000 0.62356 0.50000
 Co52 Co 0.36909 0.49817 0.50031
 Co53 Co 0.63091 0.49817 0.49968
 O54 O 0.50000 0.49812 0.50000
 C55 C 0.62678 0.38798 0.57201
 C56 C 0.37286 0.60841 0.57254
 C57 C 0.38693 0.37724 0.57435
 C58 C 0.61259 0.61911 0.57382
 C59 C 0.15883 0.15082 0.11764
 C60 C 0.18588 0.18150 0.15671
 C61 C 0.21843 0.21692 0.20369
 C62 C 0.16706 0.24930 0.24197
 C63 C 0.19874 0.28279 0.28801
 C64 C 0.28186 0.28390 0.29595
 C65 C 0.33323 0.25152 0.25767
 C66 C 0.30155 0.21803 0.21163
 C67 C 0.31442 0.31928 0.34295
 C68 C 0.34144 0.34990 0.38204
 H69 H 0.10268 0.24856 0.23626
 H70 H 0.15853 0.30785 0.31733
 H71 H 0.39761 0.25225 0.26338
 H72 H 0.34176 0.19297 0.18231
 C73 C 0.84104 0.85344 0.11851
 C74 C 0.81404 0.82199 0.15746
 C75 C 0.78163 0.78524 0.20420
 C76 C 0.69854 0.78384 0.21281
 C77 C 0.66701 0.74871 0.25850
 C78 C 0.71850 0.71493 0.29576
 C79 C 0.80159 0.71632 0.28716
 C80 C 0.83312 0.75146 0.24146
 C81 C 0.68609 0.67821 0.34252
 C82 C 0.65908 0.64682 0.38149
 H83 H 0.65825 0.80992 0.18426
 H84 H 0.60265 0.74781 0.26476
 H85 H 0.84188 0.69025 0.31571
 H86 H 0.89748 0.75236 0.23521
 C87 C 0.84116 0.15082 0.88235
 C88 C 0.81412 0.18150 0.84329
 C89 C 0.78156 0.21692 0.79630
 C90 C 0.69844 0.21810 0.78839
 C91 C 0.66676 0.25159 0.74235
 C92 C 0.71813 0.28390 0.70404
 C93 C 0.80126 0.28272 0.71195
 C94 C 0.83294 0.24923 0.75799
 C95 C 0.68558 0.31927 0.65704
 C96 C 0.65855 0.34990 0.61795
 H97 H 0.65823 0.19310 0.81773
 H98 H 0.60238 0.25238 0.73666
 H99 H 0.84147 0.30772 0.68261
 H100 H 0.89732 0.24843 0.76369
 C101 C 0.15895 0.85343 0.88149
 C102 C 0.18595 0.82198 0.84253
 C103 C 0.21836 0.78523 0.79579
 C104 C 0.30146 0.78368 0.78725
 C105 C 0.33300 0.74855 0.74155
 C106 C 0.28150 0.71493 0.70423
 C107 C 0.19839 0.71647 0.71277
 C108 C 0.16686 0.75161 0.75847
 C109 C 0.31391 0.67821 0.65748
 C110 C 0.34092 0.64681 0.61850
 H111 H 0.34176 0.80964 0.81584
 H112 H 0.39736 0.74754 0.73534
 H113 H 0.15809 0.69052 0.68417
 H114 H 0.10250 0.75262 0.76468
 C115 C 0.14774 0.15245 0.88348
 C116 C 0.17862 0.18041 0.84439
 C117 C 0.21392 0.21468 0.79750
 C118 C 0.29739 0.21556 0.79076
 C119 C 0.33144 0.24938 0.74532
 C120 C 0.28218 0.28251 0.70641
 C121 C 0.19871 0.28162 0.71315
 C122 C 0.16466 0.24779 0.75859
 C123 C 0.31746 0.31688 0.65955
 C124 C 0.34823 0.34497 0.62048
 H125 H 0.33605 0.19021 0.82060
 H126 H 0.39607 0.24968 0.74050
 H127 H 0.16004 0.30698 0.68332
 H128 H 0.10003 0.24751 0.76341
 C129 C 0.84893 0.84876 0.88040
 C130 C 0.81847 0.82017 0.84163
 C131 C 0.78364 0.78507 0.79514
 C132 C 0.83328 0.75123 0.75641
 C133 C 0.79968 0.71657 0.71137
 C134 C 0.71627 0.71558 0.70486
 C135 C 0.66663 0.74943 0.74359
 C136 C 0.70023 0.78408 0.78864
 C137 C 0.68145 0.68047 0.65838
 C138 C 0.65100 0.65185 0.61961
 H139 H 0.89786 0.75159 0.76106
 H140 H 0.83863 0.69066 0.68166
 H141 H 0.60205 0.74906 0.73894
 H142 H 0.66128 0.80999 0.81834
 C143 C 0.15106 0.84875 0.11959
 C144 C 0.18153 0.82016 0.15837
 C145 C 0.21635 0.78507 0.20485
 C146 C 0.16675 0.75062 0.24335
 C147 C 0.20036 0.71598 0.28839
 C148 C 0.28373 0.71559 0.29513
 C149 C 0.33333 0.75004 0.25664
 C150 C 0.29972 0.78468 0.21159
 C151 C 0.31855 0.68048 0.34161
 C152 C 0.34900 0.65186 0.38038
 H153 H 0.10220 0.75052 0.23851
 H154 H 0.16144 0.68960 0.31791
 H155 H 0.39788 0.75014 0.26147
 H156 H 0.33864 0.81105 0.18207
 C157 C 0.85226 0.15246 0.11651
 C158 C 0.82138 0.18042 0.15560
 C159 C 0.78608 0.21469 0.20249
 C160 C 0.83531 0.24826 0.24123
 C161 C 0.80126 0.28208 0.28667
 C162 C 0.71781 0.28251 0.29358
 C163 C 0.66859 0.24893 0.25484
 C164 C 0.70264 0.21511 0.20940
 C165 C 0.68254 0.31688 0.34044
 C166 C 0.65177 0.34497 0.37951
 H167 H 0.89992 0.24832 0.23627
 H168 H 0.83991 0.30779 0.31636
 H169 H 0.60398 0.24888 0.25979
 H170 H 0.66400 0.18941 0.17970
   
