data_POSCAR
  _audit_creation_date              2014-09-24
  _audit_creation_method            'ToBaCCo'
  _symmetry_space_group_name_H-M    'P1'
  _symmetry_Int_Tables_number       1
  _symmetry_cell_setting            triclinic
  loop_
  _symmetry_equiv_pos_as_xyz
 x,y,z
_cell_length_a 43.6638
_cell_length_b 43.6648
_cell_length_c 43.6599
_cell_angle_alpha 89.997400
_cell_angle_beta 89.998800
_cell_angle_gamma 90.000700
loop_
  _atom_site_label
  _atom_site_type_symbol
  _atom_site_fract_x
  _atom_site_fract_y
  _atom_site_fract_z
C1 C 0.25001 0.50000 0.99998
 C2 C 0.74999 0.50000 0.00000
 C3 C -0.00000 0.24999 0.50000
 C4 C 1.00000 0.75000 0.49999
 C5 C 0.49999 -0.00001 0.24999
 C6 C 0.50000 0.00001 0.75001
 C7 C 0.29677 0.02338 0.46330
 H8 H 0.29748 0.04083 0.48088
 C9 C 0.31762 0.02426 0.43908
 H10 H 0.33443 0.04247 0.43791
 C11 C 0.27467 -0.02228 0.44383
 H12 H 0.25836 -0.04073 0.44611
 C13 C 0.29515 -0.02227 0.41922
 H14 H 0.29438 -0.04057 0.40249
 N15 N 0.27577 0.00043 0.46518
 C16 C 0.20321 0.03670 0.52339
 H17 H 0.20250 0.01912 0.54084
 C18 C 0.18236 0.06092 0.52427
 H19 H 0.16555 0.06209 0.54249
 C20 C 0.22530 0.05617 0.47772
 H21 H 0.24162 0.05389 0.45928
 C22 C 0.20483 0.08078 0.47773
 H23 H 0.20560 0.09751 0.45943
 Zn24 Zn 0.24999 -0.00000 0.50001
 N25 N 0.22420 0.03483 0.50044
 C26 C 0.27467 0.02228 0.55619
 N27 N 0.27577 -0.00043 0.53484
 C28 C 0.29677 -0.02339 0.53672
 C29 C 0.31762 -0.02426 0.56094
 C30 C 0.29515 0.02227 0.58080
 C31 C 0.20321 -0.03670 0.47662
 C32 C 0.18236 -0.06092 0.47575
 C33 C 0.20482 -0.08078 0.52228
 C34 C 0.22530 -0.05617 0.52229
 N35 N 0.22420 -0.03483 0.49958
 H36 H 0.25836 0.04072 0.55391
 H37 H 0.29747 -0.04083 0.51914
 H38 H 0.33442 -0.04248 0.56211
 H39 H 0.29438 0.04057 0.59753
 H40 H 0.20250 -0.01913 0.45917
 H41 H 0.16555 -0.06210 0.45753
 H42 H 0.20560 -0.09752 0.54059
 H43 H 0.24161 -0.05390 0.54074
 C44 C 0.18313 0.08309 0.50118
 C45 C 0.31685 0.00117 0.41691
 C46 C 0.18312 -0.08310 0.49884
 C47 C 0.31685 -0.00117 0.58311
 C48 C 0.70322 0.02337 0.53670
 H49 H 0.70252 0.04082 0.51912
 C50 C 0.68237 0.02425 0.56092
 H51 H 0.66557 0.04247 0.56209
 C52 C 0.72532 -0.02229 0.55617
 H53 H 0.74163 -0.04073 0.55389
 C54 C 0.70484 -0.02228 0.58078
 H55 H 0.70561 -0.04058 0.59752
 N56 N 0.72422 0.00042 0.53482
 C57 C 0.79679 0.03670 0.47660
 H58 H 0.79750 0.01912 0.45915
 C59 C 0.81764 0.06091 0.47573
 H60 H 0.83444 0.06209 0.45751
 C61 C 0.77469 0.05616 0.52227
 H62 H 0.75838 0.05388 0.54072
 C63 C 0.79517 0.08077 0.52226
 H64 H 0.79439 0.09750 0.54057
 Zn65 Zn 0.75000 -0.00001 0.49999
 N66 N 0.77579 0.03482 0.49956
 C67 C 0.72532 0.02227 0.44381
 N68 N 0.72422 -0.00044 0.46516
 C69 C 0.70322 -0.02339 0.46328
 C70 C 0.68237 -0.02426 0.43906
 C71 C 0.70484 0.02226 0.41920
 C72 C 0.79678 -0.03671 0.52338
 C73 C 0.81763 -0.06093 0.52425
 C74 C 0.79516 -0.08079 0.47772
 C75 C 0.77469 -0.05618 0.47771
 N76 N 0.77579 -0.03484 0.50042
 H77 H 0.74164 0.04072 0.44609
 H78 H 0.70251 -0.04084 0.48087
 H79 H 0.66557 -0.04248 0.43789
 H80 H 0.70562 0.04057 0.40247
 H81 H 0.79749 -0.01914 0.54083
 H82 H 0.83444 -0.06211 0.54247
 H83 H 0.79439 -0.09752 0.45942
 H84 H 0.75838 -0.05390 0.45926
 C85 C 0.81687 0.08309 0.49882
 C86 C 0.68314 0.00116 0.58309
 C87 C 0.81686 -0.08311 0.50117
 C88 C 0.68314 -0.00118 0.41689
 C89 C 0.47656 0.20323 1.03667
 H90 H 0.45913 0.20252 1.01907
 C91 C 0.47566 0.18237 1.06089
 H92 H 0.45744 0.16557 1.06204
 C93 C 0.52219 0.22533 1.05620
 H94 H 0.54064 0.24164 1.05395
 C95 C 0.52216 0.20485 1.08081
 H96 H 0.54044 0.20562 1.09756
 N97 N 0.49951 0.22423 1.03483
 C98 C 0.46335 0.29680 0.97654
 H99 H 0.48098 0.29751 0.95913
 C100 C 0.43914 0.31764 0.97560
 H101 H 0.43801 0.33445 0.95738
 C102 C 0.44377 0.27469 1.02215
 H103 H 0.44601 0.25837 1.04060
 C104 C 0.41916 0.29516 1.02208
 H105 H 0.40238 0.29439 1.04034
 Zn106 Zn 0.50000 0.25001 0.99999
 N107 N 0.46517 0.27580 0.99949
 C108 C 0.47781 0.22533 0.94379
 N109 N 0.50049 0.22423 0.96516
 C110 C 0.52345 0.20323 0.96331
 C111 C 0.52435 0.18238 0.93910
 C112 C 0.47784 0.20486 0.91918
 C113 C 0.53665 0.29680 1.02345
 C114 C 0.56087 0.31764 1.02439
 C115 C 0.58084 0.29517 0.97790
 C116 C 0.55623 0.27470 0.97783
 N117 N 0.53483 0.27580 1.00050
 H118 H 0.45936 0.24165 0.94604
 H119 H 0.54087 0.20252 0.98092
 H120 H 0.54256 0.16557 0.93795
 H121 H 0.45956 0.20563 0.90242
 H122 H 0.51903 0.29750 1.04086
 H123 H 0.56200 0.33445 1.04261
 H124 H 0.59762 0.29439 0.95964
 H125 H 0.55400 0.25838 0.95939
 C126 C 0.41690 0.31687 0.99863
 C127 C 0.49871 0.18314 1.08309
 C128 C 0.58310 0.31687 1.00136
 C129 C 0.50129 0.18315 0.91689
 C130 C 0.47656 0.79677 -0.03667
 H131 H 0.45914 0.79748 -0.01907
 C132 C 0.47566 0.81763 -0.06089
 H133 H 0.45745 0.83444 -0.06204
 C134 C 0.52220 0.77468 -0.05620
 H135 H 0.54065 0.75836 -0.05394
 C136 C 0.52216 0.79515 -0.08080
 H137 H 0.54045 0.79438 -0.09756
 N138 N 0.49951 0.77578 -0.03482
 C139 C 0.46335 0.70320 0.02346
 H140 H 0.48097 0.70249 0.04087
 C141 C 0.43913 0.68236 0.02439
 H142 H 0.43800 0.66555 0.04261
 C143 C 0.44378 0.72531 -0.02216
 H144 H 0.44601 0.74163 -0.04060
 C145 C 0.41917 0.70484 -0.02209
 H146 H 0.40239 0.70561 -0.04035
 Zn147 Zn 0.50000 0.74999 0.00001
 N148 N 0.46518 0.72420 0.00051
 C149 C 0.47780 0.77467 0.05621
 N150 N 0.50049 0.77577 0.03484
 C151 C 0.52344 0.79677 0.03669
 C152 C 0.52434 0.81762 0.06091
 C153 C 0.47784 0.79514 0.08082
 C154 C 0.53665 0.70321 -0.02345
 C155 C 0.56087 0.68236 -0.02439
 C156 C 0.58084 0.70484 0.02210
 C157 C 0.55623 0.72531 0.02217
 N158 N 0.53483 0.72420 -0.00049
 H159 H 0.45936 0.75835 0.05396
 H160 H 0.54087 0.79748 0.01909
 H161 H 0.54256 0.83443 0.06206
 H162 H 0.45956 0.79437 0.09758
 H163 H 0.51903 0.70250 -0.04086
 H164 H 0.56200 0.66556 -0.04261
 H165 H 0.59762 0.70561 0.04036
 H166 H 0.55399 0.74162 0.04062
 C167 C 0.41691 0.68313 0.00136
 C168 C 0.49872 0.81686 -0.08309
 C169 C 0.58310 0.68314 -0.00135
 C170 C 0.50128 0.81685 0.08311
 C171 C 1.03665 0.47655 0.20320
 H172 H 1.01903 0.45914 0.20249
 C173 C 1.06087 0.47562 0.18235
 H174 H 1.06201 0.45740 0.16555
 C175 C 1.05623 0.52216 0.22531
 H176 H 1.05399 0.54061 0.24162
 C177 C 1.08084 0.52209 0.20483
 H178 H 1.09762 0.54035 0.20561
 N179 N 1.03483 0.49950 0.22420
 C180 C 0.97657 0.46332 0.29678
 H181 H 0.95914 0.48092 0.29749
 C182 C 0.97567 0.43911 0.31764
 H183 H 0.95745 0.43795 0.33445
 C184 C 1.02220 0.44380 0.27468
 H185 H 1.04065 0.44606 0.25836
 C186 C 1.02217 0.41920 0.29515
 H187 H 1.04045 0.40244 0.29438
 Zn188 Zn 1.00000 0.50000 0.24999
 N189 N 0.99952 0.46517 0.27578
 C190 C 0.94378 0.47784 0.22531
 N191 N 0.96518 0.50050 0.22420
 C192 C 0.96335 0.52345 0.20320
 C193 C 0.93913 0.52438 0.18236
 C194 C 0.91917 0.47791 0.20484
 C195 C 1.02344 0.53668 0.29677
 C196 C 1.02434 0.56090 0.31762
 C197 C 0.97784 0.58081 0.29514
 C198 C 0.97781 0.55620 0.27467
 N199 N 1.00049 0.53483 0.27578
 H200 H 0.94601 0.45939 0.24164
 H201 H 0.98097 0.54086 0.20249
 H202 H 0.93800 0.54260 0.16555
 H203 H 0.90239 0.45965 0.20562
 H204 H 1.04087 0.51908 0.29749
 H205 H 1.04256 0.56205 0.33443
 H206 H 0.95956 0.59756 0.29437
 H207 H 0.95936 0.55394 0.25835
 C208 C 0.99873 0.41691 0.31686
 C209 C 1.08311 0.49865 0.18313
 C210 C 1.00128 0.58310 0.31685
 C211 C 0.91690 0.50135 0.18314
 C212 C -0.03665 0.47654 0.79679
 H213 H -0.01903 0.45913 0.79750
 C214 C -0.06087 0.47561 0.81764
 H215 H -0.06200 0.45739 0.83445
 C216 C -0.05623 0.52215 0.77468
 H217 H -0.05399 0.54060 0.75835
 C218 C -0.08084 0.52209 0.79515
 H219 H -0.09762 0.54035 0.79437
 N220 N -0.03483 0.49949 0.77578
 C221 C 0.02344 0.46331 0.70321
 H222 H 0.04086 0.48091 0.70250
 C223 C 0.02433 0.43909 0.68236
 H224 H 0.04255 0.43794 0.66555
 C225 C -0.02220 0.44379 0.72532
 H226 H -0.04065 0.44604 0.74164
 C227 C -0.02217 0.41918 0.70484
 H228 H -0.04045 0.40243 0.70562
 Zn229 Zn -0.00000 0.49999 0.74999
 N230 N 0.00048 0.46516 0.72421
 C231 C 0.05623 0.47783 0.77468
 N232 N 0.03483 0.50049 0.77578
 C233 C 0.03665 0.52344 0.79678
 C234 C 0.06087 0.52438 0.81762
 C235 C 0.08084 0.47790 0.79515
 C236 C -0.02344 0.53666 0.70321
 C237 C -0.02434 0.56088 0.68235
 C238 C 0.02216 0.58079 0.70483
 C239 C 0.02220 0.55619 0.72530
 N240 N -0.00049 0.53482 0.72420
 H241 H 0.05399 0.45938 0.75836
 H242 H 0.01903 0.54085 0.79749
 H243 H 0.06201 0.54259 0.83443
 H244 H 0.09762 0.45964 0.79437
 H245 H -0.04087 0.51906 0.70250
 H246 H -0.04256 0.56203 0.66554
 H247 H 0.04045 0.59755 0.70560
 H248 H 0.04064 0.55393 0.74162
 C249 C 0.00127 0.41689 0.68314
 C250 C -0.08310 0.49864 0.81686
 C251 C -0.00128 0.58308 0.68312
 C252 C 0.08310 0.50135 0.81685
 C253 C 0.07369 0.19063 0.50022
 C254 C 0.09502 0.19274 0.47234
 C255 C 0.11792 0.17149 0.47250
 C256 C 0.11720 0.15025 0.50053
 C257 C 0.08498 0.13624 0.50053
 C258 C 0.06214 0.15744 0.50036
 C259 C 0.09489 0.19303 0.52817
 C260 C 0.11778 0.17179 0.52833
 C261 C 0.04868 0.21301 0.50006
 C262 C 0.02719 0.23036 0.50000
 C263 C 0.14150 0.12706 0.50073
 C264 C 0.16081 0.10733 0.50092
 H265 H 0.09240 0.20946 0.45412
 H266 H 0.13492 0.17001 0.45442
 H267 H 0.08049 0.11178 0.50065
 H268 H 0.03808 0.15113 0.50034
 H269 H 0.09219 0.20994 0.54620
 H270 H 0.13470 0.17049 0.54651
 C271 C 0.69063 0.57370 -0.00050
 C272 C 0.69330 0.59514 -0.02823
 C273 C 0.67206 0.61804 -0.02840
 C274 C 0.65026 0.61721 -0.00081
 C275 C 0.67123 0.61767 0.02742
 C276 C 0.69247 0.59478 0.02759
 C277 C 0.65745 0.56215 -0.00106
 C278 C 0.63625 0.58499 -0.00123
 C279 C 0.71302 0.54868 -0.00032
 C280 C 0.73036 0.52720 -0.00018
 C281 C 0.62707 0.64151 -0.00099
 C282 C 0.60734 0.66082 -0.00115
 H283 H 0.71039 0.59260 -0.04612
 H284 H 0.67094 0.63512 -0.04644
 H285 H 0.66957 0.63451 0.04564
 H286 H 0.70902 0.59200 0.04594
 H287 H 0.65114 0.53809 -0.00131
 H288 H 0.61179 0.58050 -0.00162
 C289 C 0.92630 -0.19064 0.50020
 C290 C 0.90454 -0.19365 0.52766
 C291 C 0.88164 -0.17241 0.52782
 C292 C 0.88279 -0.15027 0.50052
 C293 C 0.88265 -0.17088 0.47202
 C294 C 0.90554 -0.19212 0.47186
 C295 C 0.93785 -0.15746 0.50132
 C296 C 0.91500 -0.13627 0.50148
 C297 C 0.95131 -0.21302 0.50005
 C298 C 0.97280 -0.23037 0.49999
 C299 C 0.85849 -0.12707 0.50071
 C300 C 0.83918 -0.10734 0.50091
 H301 H 0.90687 -0.21095 0.54536
 H302 H 0.86436 -0.17151 0.54568
 H303 H 0.86602 -0.16899 0.45364
 H304 H 0.90853 -0.20844 0.45333
 H305 H 0.96190 -0.15117 0.50192
 H306 H 0.91949 -0.11182 0.50223
 C307 C 0.30937 0.42630 0.99949
 C308 C 0.30721 0.40492 1.02733
 C309 C 0.32845 0.38203 1.02716
 C310 C 0.34974 0.38279 0.99918
 C311 C 0.36376 0.41501 0.99926
 C312 C 0.34256 0.43786 0.99943
 C313 C 0.30702 0.40516 0.97150
 C314 C 0.32826 0.38226 0.97133
 C315 C 0.28699 0.45132 0.99967
 C316 C 0.26964 0.47281 0.99981
 C317 C 0.37294 0.35850 0.99900
 C318 C 0.39267 0.33918 0.99884
 H319 H 0.29045 0.40751 1.04551
 H320 H 0.32990 0.36499 1.04521
 H321 H 0.38822 0.41950 0.99920
 H322 H 0.34887 0.46192 0.99951
 H323 H 0.29015 0.40789 0.95344
 H324 H 0.32959 0.36538 0.95313
 C325 C 0.92630 0.19062 0.49978
 C326 C 0.90508 0.19261 0.52775
 C327 C 0.88218 0.17137 0.52758
 C328 C 0.88279 0.15025 0.49946
 C329 C 0.91501 0.13624 0.49928
 C330 C 0.93786 0.15744 0.49945
 C331 C 0.90500 0.19314 0.47192
 C332 C 0.88210 0.17190 0.47175
 C333 C 0.95132 0.21301 0.49993
 C334 C 0.97280 0.23036 0.50000
 C335 C 0.85850 0.12705 0.49927
 C336 C 0.83918 0.10732 0.49908
 H337 H 0.90777 0.20926 0.54602
 H338 H 0.86525 0.16981 0.54572
 H339 H 0.91951 0.11178 0.49905
 H340 H 0.96192 0.15113 0.49936
 H341 H 0.90763 0.21013 0.45395
 H342 H 0.86512 0.17068 0.45364
 C343 C 0.30937 0.57370 0.00048
 C344 C 0.30693 0.59492 0.02841
 C345 C 0.32817 0.61782 0.02858
 C346 C 0.34974 0.61721 0.00080
 C347 C 0.32855 0.61789 -0.02725
 C348 C 0.30730 0.59499 -0.02742
 C349 C 0.34256 0.56214 0.00069
 C350 C 0.36376 0.58498 0.00086
 C351 C 0.28699 0.54868 0.00031
 C352 C 0.26964 0.52719 0.00016
 C353 C 0.37294 0.64150 0.00099
 C354 C 0.39267 0.66082 0.00115
 H355 H 0.28999 0.59224 0.04641
 H356 H 0.32944 0.63476 0.04673
 H357 H 0.33006 0.63487 -0.04535
 H358 H 0.29061 0.59235 -0.04566
 H359 H 0.34887 0.53808 0.00071
 H360 H 0.38822 0.58050 0.00102
 C361 C 0.07369 -0.19063 0.49978
 C362 C 0.06214 -0.15745 0.50028
 C363 C 0.08498 -0.13625 0.50012
 C364 C 0.11720 -0.15026 0.49948
 C365 C 0.11740 -0.17138 0.47135
 C366 C 0.09451 -0.19262 0.47151
 C367 C 0.09539 -0.19316 0.52733
 C368 C 0.11829 -0.17191 0.52717
 C369 C 0.04867 -0.21302 0.49993
 C370 C 0.02719 -0.23037 0.49999
 C371 C 0.14149 -0.12706 0.49929
 C372 C 0.16081 -0.10733 0.49910
 H373 H 0.03808 -0.15114 0.50073
 H374 H 0.08050 -0.11179 0.50043
 H375 H 0.13407 -0.16981 0.45297
 H376 H 0.09156 -0.20926 0.45327
 H377 H 0.09302 -0.21015 0.54533
 H378 H 0.13553 -0.17069 0.54504
 C379 C 0.69063 0.42631 1.00050
 C380 C 0.69276 0.40536 1.02866
 C381 C 0.67152 0.38247 1.02882
 C382 C 0.65026 0.38280 1.00081
 C383 C 0.67177 0.38184 0.97300
 C384 C 0.69301 0.40474 0.97283
 C385 C 0.65744 0.43786 1.00022
 C386 C 0.63624 0.41501 1.00039
 C387 C 0.71302 0.45133 1.00032
 C388 C 0.73036 0.47281 1.00018
 C389 C 0.62706 0.35850 1.00099
 C390 C 0.60734 0.33919 1.00115
 H391 H 0.70950 0.40822 1.04683
 H392 H 0.67005 0.36571 1.04714
 H393 H 0.67046 0.36468 0.95505
 H394 H 0.70991 0.40719 0.95476
 H395 H 0.65113 0.46192 0.99992
 H396 H 0.61178 0.41950 1.00023
 C397 C 0.49970 0.07369 1.19062
 C398 C 0.47184 0.09499 1.19315
 C399 C 0.47166 0.11788 1.17191
 C400 C 0.49936 0.11720 1.15025
 C401 C 0.49918 0.08498 1.13623
 C402 C 0.49936 0.06214 1.15743
 C403 C 0.52766 0.09492 1.19260
 C404 C 0.52748 0.11782 1.17136
 C405 C 0.49988 0.04867 1.21301
 C406 C 0.49996 0.02719 1.23036
 C407 C 0.49915 0.14150 1.12705
 C408 C 0.49896 0.16082 1.10732
 H409 H 0.45388 0.09235 1.21015
 H410 H 0.45354 0.13486 1.17070
 H411 H 0.49893 0.08049 1.11177
 H412 H 0.49927 0.03808 1.15112
 H413 H 0.54595 0.09224 1.20924
 H414 H 0.54561 0.13475 1.16979
 C415 C -0.00029 0.69063 0.57368
 C416 C -0.02827 0.69300 0.59484
 C417 C -0.02845 0.67175 0.61774
 C418 C -0.00064 0.65024 0.61719
 C419 C 0.02737 0.67150 0.61794
 C420 C 0.02755 0.69275 0.59505
 C421 C -0.00040 0.65744 0.56212
 C422 C -0.00058 0.63624 0.58496
 C423 C -0.00012 0.71302 0.54867
 C424 C -0.00004 0.73037 0.52718
 C425 C -0.00084 0.62704 0.64148
 C426 C -0.00104 0.60731 0.66080
 H427 H -0.04631 0.70990 0.59212
 H428 H -0.04665 0.67044 0.63463
 H429 H 0.04543 0.67003 0.63497
 H430 H 0.04576 0.70949 0.59246
 H431 H -0.00034 0.65114 0.53806
 H432 H -0.00068 0.61178 0.58047
 C433 C 0.49971 0.92631 -0.19062
 C434 C 0.47180 0.90508 -0.19308
 C435 C 0.47161 0.88218 -0.17184
 C436 C 0.49937 0.88280 -0.15025
 C437 C 0.49929 0.91502 -0.13623
 C438 C 0.49948 0.93787 -0.15743
 C439 C 0.52762 0.90502 -0.19267
 C440 C 0.52744 0.88213 -0.17143
 C441 C 0.49988 0.95133 -0.21301
 C442 C 0.49997 0.97281 -0.23036
 C443 C 0.49916 0.85850 -0.12705
 C444 C 0.49897 0.83919 -0.10732
 H445 H 0.45380 0.90776 -0.21004
 H446 H 0.45346 0.86524 -0.17059
 H447 H 0.49912 0.91951 -0.11177
 H448 H 0.49945 0.96192 -0.15112
 H449 H 0.54587 0.90767 -0.20935
 H450 H 0.54554 0.86515 -0.16990
 C451 C 0.99971 0.30936 0.42630
 C452 C 0.99948 0.34255 0.43787
 C453 C 0.99930 0.36375 0.41502
 C454 C 0.99937 0.34974 0.38279
 C455 C 0.97161 0.32815 0.38218
 C456 C 0.97179 0.30691 0.40507
 C457 C 1.02762 0.30731 0.40501
 C458 C 1.02744 0.32856 0.38211
 C459 C 0.99988 0.28697 0.45132
 C460 C 0.99997 0.26962 0.47280
 C461 C 0.99916 0.37295 0.35850
 C462 C 0.99897 0.39267 0.33919
 H463 H 0.99946 0.34885 0.46193
 H464 H 0.99913 0.38821 0.41952
 H465 H 0.95346 0.32941 0.36523
 H466 H 0.95380 0.28996 0.40774
 H467 H 1.04586 0.29063 0.40765
 H468 H 1.04554 0.33009 0.36513
 C469 C 0.50028 0.92630 0.19063
 C470 C 0.47244 0.90493 0.19276
 C471 C 0.47262 0.88203 0.17152
 C472 C 0.50063 0.88278 0.15026
 C473 C 0.52845 0.88224 0.17177
 C474 C 0.52826 0.90514 0.19302
 C475 C 0.50039 0.93785 0.15744
 C476 C 0.50057 0.91501 0.13624
 C477 C 0.50011 0.95131 0.21302
 C478 C 0.50002 0.97280 0.23036
 C479 C 0.50084 0.85849 0.12706
 C480 C 0.50103 0.83917 0.10734
 H481 H 0.45423 0.90752 0.20950
 H482 H 0.45457 0.86501 0.17005
 H483 H 0.54664 0.86535 0.17047
 H484 H 0.54630 0.90787 0.20992
 H485 H 0.50033 0.96191 0.15113
 H486 H 0.50067 0.91949 0.11178
 C487 C 0.00028 0.30935 0.57370
 C488 C 0.02820 0.30689 0.59493
 C489 C 0.02838 0.32814 0.61783
 C490 C 0.00063 0.34973 0.61721
 C491 C -0.02745 0.32855 0.61788
 C492 C -0.02763 0.30731 0.59499
 C493 C 0.00052 0.34254 0.56213
 C494 C 0.00070 0.36374 0.58498
 C495 C 0.00011 0.28696 0.54868
 C496 C 0.00002 0.26962 0.52720
 C497 C 0.00083 0.37293 0.64150
 C498 C 0.00103 0.39266 0.66081
 H499 H 0.04619 0.28994 0.59226
 H500 H 0.04653 0.32939 0.63477
 H501 H -0.04555 0.33008 0.63486
 H502 H -0.04588 0.29063 0.59235
 H503 H 0.00054 0.34885 0.53807
 H504 H 0.00088 0.38820 0.58048
 C505 C 0.50029 0.07371 0.80937
 C506 C 0.50049 0.06215 0.84256
 C507 C 0.50067 0.08500 0.86376
 C508 C 0.50064 0.11722 0.84974
 C509 C 0.47259 0.11791 0.82854
 C510 C 0.47240 0.09502 0.80729
 C511 C 0.52823 0.09492 0.80693
 C512 C 0.52841 0.11781 0.82817
 C513 C 0.50012 0.04869 0.78698
 C514 C 0.50003 0.02720 0.76963
 C515 C 0.50085 0.14151 0.87294
 C516 C 0.50104 0.16083 0.89266
 H517 H 0.50049 0.03809 0.84887
 H518 H 0.50083 0.08051 0.88822
 H519 H 0.45450 0.13491 0.83005
 H520 H 0.45417 0.09239 0.79060
 H521 H 0.54623 0.09222 0.78999
 H522 H 0.54658 0.13474 0.82943
 C523 C 1.00029 0.69064 0.42628
 C524 C 1.02818 0.69313 0.40502
 C525 C 1.02836 0.67189 0.38213
 C526 C 1.00064 0.65026 0.38278
 C527 C 0.97254 0.67140 0.38213
 C528 C 0.97235 0.69265 0.40503
 C529 C 1.00058 0.65745 0.43785
 C530 C 1.00076 0.63625 0.41501
 C531 C 1.00011 0.71303 0.45130
 C532 C 1.00003 0.73037 0.47279
 C533 C 1.00085 0.62706 0.35848
 C534 C 1.00104 0.60733 0.33917
 H535 H 1.04615 0.71011 0.40767
 H536 H 1.04650 0.67066 0.36516
 H537 H 0.95442 0.66985 0.36517
 H538 H 0.95409 0.70930 0.40769
 H539 H 1.00064 0.65115 0.46191
 H540 H 1.00098 0.61179 0.41950
 C541 C 1.19065 0.49950 0.07369
 C542 C 1.15746 0.49951 0.06213
 C543 C 1.13626 0.49935 0.08498
 C544 C 1.15027 0.49919 0.11720
 C545 C 1.17161 0.52713 0.11800
 C546 C 1.19286 0.52730 0.09511
 C547 C 1.19295 0.47148 0.09479
 C548 C 1.17170 0.47131 0.11769
 C549 C 1.21303 0.49968 0.04867
 C550 C 1.23038 0.49982 0.02718
 C551 C 1.12707 0.49901 0.14150
 C552 C 1.10734 0.49885 0.16081
 H553 H 1.15115 0.49964 0.03807
 H554 H 1.11180 0.49933 0.08049
 H555 H 1.17019 0.54516 0.13507
 H556 H 1.20964 0.54546 0.09255
 H557 H 1.20979 0.45340 0.09203
 H558 H 1.17034 0.45309 0.13455
 C559 C 0.57370 0.00022 0.69064
 C560 C 0.59516 -0.02754 0.69290
 C561 C 0.61806 -0.02738 0.67166
 C562 C 0.61721 0.00052 0.65026
 C563 C 0.61765 0.02844 0.67164
 C564 C 0.59476 0.02828 0.69288
 C565 C 0.56214 0.00012 0.65744
 C566 C 0.58499 0.00028 0.63624
 C567 C 0.54868 0.00007 0.71302
 C568 C 0.52719 0.00001 0.73037
 C569 C 0.64151 0.00071 0.62706
 C570 C 0.66082 0.00091 0.60733
 H571 H 0.59263 -0.04567 0.70973
 H572 H 0.63515 -0.04538 0.67027
 H573 H 0.63448 0.04670 0.67025
 H574 H 0.59196 0.04639 0.70969
 H575 H 0.53809 -0.00006 0.65113
 H576 H 0.58050 0.00024 0.61178
 C577 C -0.19064 0.49951 0.92630
 C578 C -0.19273 0.52740 0.90499
 C579 C -0.17148 0.52723 0.88209
 C580 C -0.15027 0.49919 0.88279
 C581 C -0.17182 0.47141 0.88218
 C582 C -0.19307 0.47157 0.90508
 C583 C -0.15745 0.49932 0.93786
 C584 C -0.13625 0.49916 0.91501
 C585 C -0.21303 0.49968 0.95132
 C586 C -0.23038 0.49983 0.97281
 C587 C -0.12707 0.49901 0.85849
 C588 C -0.10734 0.49885 0.83917
 H589 H -0.20943 0.54562 0.90762
 H590 H -0.16998 0.54532 0.86510
 H591 H -0.17054 0.45325 0.86525
 H592 H -0.20999 0.45356 0.90777
 H593 H -0.15115 0.49932 0.96192
 H594 H -0.11180 0.49901 0.91950
 C595 C 0.42629 0.00021 0.30936
 C596 C 0.40508 -0.02776 0.30738
 C597 C 0.38218 -0.02760 0.32862
 C598 C 0.38278 0.00052 0.34974
 C599 C 0.38209 0.02823 0.32808
 C600 C 0.40498 0.02806 0.30684
 C601 C 0.43785 0.00055 0.34256
 C602 C 0.41500 0.00071 0.36376
 C603 C 0.45131 0.00006 0.28698
 C604 C 0.47280 -0.00001 0.26963
 C605 C 0.35848 0.00072 0.37294
 C606 C 0.33917 0.00091 0.39267
 H607 H 0.40777 -0.04604 0.29074
 H608 H 0.36525 -0.04574 0.33019
 H609 H 0.36510 0.04634 0.32929
 H610 H 0.40761 0.04602 0.28985
 H611 H 0.46191 0.00065 0.34887
 H612 H 0.41949 0.00096 0.38822
 C613 C 0.19065 0.50049 0.92628
 C614 C 0.19313 0.52838 0.90501
 C615 C 0.17188 0.52854 0.88211
 C616 C 0.15027 0.50080 0.88277
 C617 C 0.13626 0.50092 0.91500
 C618 C 0.15746 0.50076 0.93784
 C619 C 0.19268 0.47256 0.90503
 C620 C 0.17143 0.47272 0.88213
 C621 C 0.21303 0.50032 0.95130
 C622 C 0.23038 0.50017 0.97279
 C623 C 0.12707 0.50098 0.85848
 C624 C 0.10734 0.50114 0.83916
 H625 H 0.21009 0.54637 0.90766
 H626 H 0.17064 0.54668 0.86515
 H627 H 0.11180 0.50112 0.91949
 H628 H 0.15115 0.50082 0.96190
 H629 H 0.20935 0.45430 0.90769
 H630 H 0.16990 0.45460 0.86517
 C631 C 0.57370 -0.00022 0.30936
 C632 C 0.56214 -0.00036 0.34255
 C633 C 0.58499 -0.00052 0.36375
 C634 C 0.61721 -0.00053 0.34973
 C635 C 0.61792 0.02749 0.32848
 C636 C 0.59502 0.02765 0.30724
 C637 C 0.59489 -0.02817 0.30696
 C638 C 0.61778 -0.02833 0.32820
 C639 C 0.54868 -0.00007 0.28697
 C640 C 0.52719 -0.00000 0.26962
 C641 C 0.64151 -0.00073 0.37292
 C642 C 0.66082 -0.00092 0.39265
 H643 H 0.53808 -0.00033 0.34886
 H644 H 0.58050 -0.00064 0.38821
 H645 H 0.63493 0.04557 0.32996
 H646 H 0.59241 0.04586 0.29051
 H647 H 0.59218 -0.04620 0.29005
 H648 H 0.63470 -0.04651 0.32949
 C649 C 0.80936 0.50050 0.07370
 C650 C 0.84255 0.50059 0.06214
 C651 C 0.86375 0.50076 0.08499
 C652 C 0.84973 0.50081 0.11721
 C653 C 0.82846 0.47281 0.11796
 C654 C 0.80722 0.47265 0.09506
 C655 C 0.80699 0.52847 0.09487
 C656 C 0.82823 0.52863 0.11777
 C657 C 0.78697 0.50032 0.04868
 C658 C 0.76962 0.50018 0.02720
 C659 C 0.87293 0.50099 0.14151
 C660 C 0.89266 0.50115 0.16082
 H661 H 0.84885 0.50054 0.03808
 H662 H 0.88820 0.50084 0.08050
 H663 H 0.82992 0.45475 0.13498
 H664 H 0.79047 0.45445 0.09247
 H665 H 0.79010 0.54651 0.09215
 H666 H 0.82955 0.54682 0.13467
 C667 C 0.42630 -0.00021 0.69064
 C668 C 0.40483 -0.02793 0.69334
 C669 C 0.38193 -0.02809 0.67210
 C670 C 0.38278 -0.00052 0.65027
 C671 C 0.41500 -0.00098 0.63626
 C672 C 0.43785 -0.00082 0.65745
 C673 C 0.40524 0.02789 0.69246
 C674 C 0.38234 0.02772 0.67122
 C675 C 0.45132 -0.00006 0.71303
 C676 C 0.47280 0.00001 0.73038
 C677 C 0.35848 -0.00072 0.62708
 C678 C 0.33917 -0.00091 0.60735
 H679 H 0.40736 -0.04580 0.71044
 H680 H 0.36484 -0.04611 0.67100
 H681 H 0.41949 -0.00140 0.61180
 H682 H 0.46191 -0.00109 0.65114
 H683 H 0.40804 0.04625 0.70899
 H684 H 0.36551 0.04595 0.66955
   
