data_POSCAR
  _audit_creation_date              2014-09-24
  _audit_creation_method            'ToBaCCo'
  _symmetry_space_group_name_H-M    'P1'
  _symmetry_Int_Tables_number       1
  _symmetry_cell_setting            triclinic
  loop_
  _symmetry_equiv_pos_as_xyz
 x,y,z
_cell_length_a 47.7725
_cell_length_b 49.1405
_cell_length_c 45.8967
_cell_angle_alpha 91.703600
_cell_angle_beta 89.944000
_cell_angle_gamma 92.719100
loop_
  _atom_site_label
  _atom_site_type_symbol
  _atom_site_fract_x
  _atom_site_fract_y
  _atom_site_fract_z
C1 C 0.26966 0.45753 0.99399
 C2 C 0.25027 0.45649 1.02063
 C3 C 0.23417 0.47864 1.02357
 C4 C 0.23885 0.49975 0.99975
 C5 C 0.25025 0.46112 0.96794
 C6 C 0.23414 0.48322 0.97104
 C7 C 0.28665 0.48462 0.99748
 C8 C 0.27056 0.50665 1.00051
 H9 H 0.24918 0.43975 1.03559
 H10 H 0.22576 0.51778 1.00219
 H11 H 0.24890 0.44715 0.94914
 H12 H 0.30942 0.48622 0.99784
 C13 C 0.73132 0.54290 0.00689
 C14 C 0.75036 0.53939 0.03325
 C15 C 0.76645 0.51724 0.03052
 C16 C 0.76209 0.50060 0.00182
 C17 C 0.75106 0.54378 -0.01947
 C18 C 0.76715 0.52161 -0.02204
 C19 C 0.71432 0.51582 0.00331
 C20 C 0.73039 0.49376 0.00066
 H21 H 0.75148 0.55343 0.05201
 H22 H 0.77517 0.48254 -0.00033
 H23 H 0.75242 0.56048 -0.03449
 H24 H 0.69155 0.51424 0.00284
 C25 C 0.03937 0.22534 0.50111
 C26 C 0.03765 0.24174 0.47539
 C27 C 0.01332 0.25766 0.47505
 C28 C -0.00484 0.25428 0.50035
 C29 C 0.03780 0.24555 0.52721
 C30 C 0.01456 0.26074 0.52673
 C31 C 0.01174 0.20820 0.50195
 C32 C -0.01140 0.22334 0.50156
 H33 H 0.05414 0.24341 0.45911
 H34 H -0.02384 0.26650 0.50009
 H35 H 0.05407 0.24845 0.54368
 H36 H 0.01058 0.18608 0.50263
 C37 C 0.95981 0.77518 0.49771
 C38 C 0.96163 0.75489 0.47178
 C39 C 0.98494 0.73986 0.47239
 C40 C 1.00429 0.74648 0.49867
 C41 C 0.96166 0.75783 0.52482
 C42 C 0.98496 0.74278 0.52523
 C43 C 0.98733 0.79238 0.49719
 C44 C 1.01054 0.77742 0.49769
 H45 H 0.94538 0.75177 0.45531
 H46 H 1.02333 0.73435 0.49909
 H47 H 0.94534 0.75639 0.54128
 H48 H 0.98837 0.81449 0.49641
 C49 C 0.50163 0.04419 0.21884
 C50 C 0.47593 0.04337 0.23901
 C51 C 0.47501 0.02159 0.25687
 C52 C 0.49969 0.00278 0.25292
 C53 C 0.52693 0.04380 0.23943
 C54 C 0.52582 0.02204 0.25729
 C55 C 0.50070 0.01803 0.20322
 C56 C 0.49963 -0.00464 0.22200
 H57 H 0.46014 0.05858 0.23929
 H58 H 0.49888 -0.01490 0.26753
 H59 H 0.54389 0.05934 0.24005
 H60 H 0.50054 0.01576 0.17958
 C61 C 0.49783 -0.04572 0.77941
 C62 C 0.47221 -0.04514 0.75939
 C63 C 0.47307 -0.02342 0.74153
 C64 C 0.49931 -0.00431 0.74520
 C65 C 0.52321 -0.04483 0.75892
 C66 C 0.52390 -0.02312 0.74106
 C67 C 0.49913 -0.01806 0.79579
 C68 C 0.49990 0.00355 0.77782
 H69 H 0.45511 -0.06054 0.75918
 H70 H 0.49994 0.01337 0.73061
 H71 H 0.53909 -0.05995 0.75852
 H72 H 0.49947 -0.01575 0.81941
 C73 C 0.29465 0.01738 0.46599
 H74 H 0.29567 0.03254 0.48359
 C75 C 0.31401 0.01888 0.44327
 H76 H 0.32995 0.03532 0.44325
 C77 C 0.27306 -0.02298 0.44487
 H78 H 0.25742 -0.03953 0.44588
 C79 C 0.29208 -0.02224 0.42170
 H80 H 0.29087 -0.03807 0.40475
 N81 N 0.27459 -0.00321 0.46631
 C82 C 0.20957 0.02936 0.52238
 H83 H 0.20790 0.01397 0.53875
 C84 C 0.19228 0.05151 0.52384
 H85 H 0.17724 0.05325 0.54141
 C86 C 0.23073 0.04567 0.47909
 H87 H 0.24535 0.04311 0.46138
 C88 C 0.21384 0.06811 0.47973
 H89 H 0.21568 0.08285 0.46266
 Zn90 Zn 0.25070 -0.00401 0.49916
 N91 N 0.22850 0.02697 0.50038
 C92 C 0.27419 0.01561 0.55350
 N93 N 0.27434 -0.00424 0.53216
 C94 C 0.29289 -0.02438 0.53263
 C95 C 0.31210 -0.02534 0.55540
 C96 C 0.29311 0.01541 0.57672
 C97 C 0.20721 -0.03819 0.47570
 C98 C 0.18810 -0.06062 0.47417
 C99 C 0.20813 -0.07693 0.51833
 C100 C 0.22687 -0.05421 0.51904
 N101 N 0.22621 -0.03550 0.49778
 H102 H 0.25977 0.03181 0.55237
 H103 H 0.29286 -0.03959 0.51509
 H104 H 0.32686 -0.04141 0.55553
 H105 H 0.29302 0.03131 0.59357
 H106 H 0.20683 -0.02279 0.45936
 H107 H 0.17294 -0.06254 0.45660
 H108 H 0.20866 -0.09162 0.53544
 H109 H 0.24161 -0.05141 0.53681
 C110 C 0.19447 0.07107 0.50232
 C111 C 0.31274 -0.00111 0.42096
 C112 C 0.18858 -0.08015 0.49570
 C113 C 0.31224 -0.00524 0.57759
 C114 C 0.70657 0.02371 0.53581
 H115 H 0.70637 0.03971 0.52013
 C116 C 0.68718 0.02318 0.55859
 H117 H 0.67206 0.03888 0.56061
 C118 C 0.72575 -0.01695 0.55174
 H119 H 0.74031 -0.03293 0.54859
 C120 C 0.70671 -0.01825 0.57483
 H121 H 0.70687 -0.03507 0.58956
 N122 N 0.72537 0.00386 0.53284
 C123 C 0.79234 0.03884 0.47884
 H124 H 0.79280 0.02336 0.46160
 C125 C 0.81129 0.06135 0.47857
 H126 H 0.82643 0.06326 0.46108
 C127 C 0.77244 0.05502 0.52306
 H128 H 0.75758 0.05227 0.54060
 C129 C 0.79106 0.07786 0.52363
 H130 H 0.79037 0.09270 0.54152
 Zn131 Zn 0.74886 0.00466 0.49964
 N132 N 0.77327 0.03619 0.50073
 C133 C 0.72643 0.02530 0.44771
 N134 N 0.72491 0.00464 0.46685
 C135 C 0.70477 -0.01583 0.46434
 C136 C 0.68522 -0.01617 0.44173
 C137 C 0.70727 0.02573 0.42478
 C138 C 0.79043 -0.02835 0.51970
 C139 C 0.80765 -0.05054 0.51979
 C140 C 0.78555 -0.06757 0.47510
 C141 C 0.76871 -0.04506 0.47584
 N142 N 0.77123 -0.02617 0.49812
 H143 H 0.74208 0.04175 0.45050
 H144 H 0.70371 -0.03170 0.48020
 H145 H 0.66910 -0.03241 0.44003
 H146 H 0.70841 0.04238 0.40980
 H147 H 0.79226 -0.01284 0.53691
 H148 H 0.82281 -0.05217 0.53711
 H149 H 0.78341 -0.08254 0.45733
 H150 H 0.75381 -0.04267 0.45855
 C151 C 0.81062 0.08104 0.50115
 C152 C 0.68717 0.00192 0.57817
 C153 C 0.80511 -0.07036 0.49732
 C154 C 0.68643 0.00486 0.42185
 C155 C 0.48924 0.21557 1.01162
 H156 H 0.47359 0.21345 0.99457
 C157 C 0.48822 0.19781 1.03479
 H158 H 0.47172 0.18196 1.03569
 C159 C 0.53027 0.23844 1.03099
 H160 H 0.54690 0.25395 1.02916
 C161 C 0.53004 0.22107 1.05456
 H162 H 0.54635 0.22340 1.07094
 N163 N 0.50989 0.23554 1.01026
 C164 C 0.47430 0.29613 0.95546
 H165 H 0.48991 0.29766 0.93841
 C166 C 0.45106 0.31234 0.95502
 H167 H 0.44868 0.32642 0.93757
 C168 C 0.45857 0.27641 0.99947
 H169 H 0.46180 0.26281 1.01707
 C170 C 0.43507 0.29223 0.99985
 H171 H 0.42018 0.29058 1.01761
 Zn172 Zn 0.50991 0.25772 0.97730
 N173 N 0.47750 0.27844 0.97735
 C174 C 0.48936 0.23252 0.92431
 N175 N 0.51047 0.23385 0.94428
 C176 C 0.53159 0.21625 0.94283
 C177 C 0.53199 0.19620 0.92069
 C178 C 0.48894 0.21271 0.90180
 C179 C 0.54327 0.30141 0.99993
 C180 C 0.56607 0.32021 1.00175
 C181 C 0.58481 0.29979 0.95778
 C182 C 0.56163 0.28132 0.95677
 N183 N 0.54162 0.28228 0.97788
 H184 H 0.47237 0.24619 0.92628
 H185 H 0.54777 0.21741 0.95936
 H186 H 0.54858 0.18190 0.92007
 H187 H 0.47175 0.21132 0.88637
 H188 H 0.52686 0.30194 1.01617
 H189 H 0.56726 0.33533 1.01943
 H190 H 0.60067 0.29894 0.94094
 H191 H 0.55963 0.26638 0.93908
 C192 C 0.43127 0.31033 0.97743
 C193 C 0.50880 0.20061 1.05644
 C194 C 0.58706 0.31933 0.98054
 C195 C 0.51034 0.19426 0.90017
 C196 C 0.47079 0.78223 -0.01327
 H197 H 0.45477 0.78335 0.00334
 C198 C 0.47065 0.79965 -0.03673
 H199 H 0.45444 0.81422 -0.03830
 C200 C 0.51202 0.76243 -0.03113
 H201 H 0.52844 0.74834 -0.02857
 C202 C 0.51267 0.77951 -0.05495
 H203 H 0.52943 0.77833 -0.07078
 N204 N 0.49116 0.76397 -0.01100
 C205 C 0.45443 0.70160 0.04501
 H206 H 0.46985 0.70183 0.06227
 C207 C 0.43133 0.68306 0.04540
 H208 H 0.42891 0.66895 0.06301
 C209 C 0.43917 0.71901 0.00036
 H210 H 0.44259 0.73258 -0.01749
 C211 C 0.41581 0.70082 -0.00008
 H212 H 0.40124 0.70059 -0.01817
 Zn213 Zn 0.49050 0.74252 0.02255
 N214 N 0.45785 0.71915 0.02276
 C215 C 0.47038 0.76705 0.07526
 N216 N 0.49121 0.76714 0.05498
 C217 C 0.51260 0.78643 0.05587
 C218 C 0.51369 0.80667 0.07784
 C219 C 0.47066 0.78700 0.09763
 C220 C 0.52395 0.70118 0.00138
 C221 C 0.54693 0.68465 0.00016
 C222 C 0.56505 0.70769 0.04393
 C223 C 0.54173 0.72381 0.04433
 N224 N 0.52198 0.72056 0.02298
 H225 H 0.45321 0.75197 0.07374
 H226 H 0.52856 0.78632 0.03914
 H227 H 0.53060 0.82217 0.07812
 H228 H 0.45381 0.78714 0.11343
 H229 H 0.50775 0.69878 -0.01508
 H230 H 0.54848 0.66944 -0.01727
 H231 H 0.58080 0.71050 0.06087
 H232 H 0.53949 0.73886 0.06169
 C233 C 0.41191 0.68265 0.02259
 C234 C 0.49181 0.79829 -0.05771
 C235 C 0.56774 0.68807 0.02154
 C236 C 0.49246 0.80705 0.09879
 C237 C 1.03422 0.47019 0.21342
 H238 H 1.01768 0.45437 0.21273
 C239 C 1.05614 0.46945 0.19333
 H240 H 1.05658 0.45293 0.17719
 C241 C 1.05343 0.51151 0.23472
 H242 H 1.05197 0.52816 0.25047
 C243 C 1.07574 0.51155 0.21497
 H244 H 1.09157 0.52809 0.21575
 N245 N 1.03330 0.49093 0.23366
 C246 C 0.97908 0.45775 0.30203
 H247 H 0.96305 0.47259 0.30289
 C248 C 0.97808 0.43621 0.32130
 H249 H 0.96117 0.43436 0.33697
 C250 C 1.02115 0.44239 0.28116
 H251 H 1.03823 0.44515 0.26594
 C252 C 1.02094 0.42058 0.30001
 H253 H 1.03770 0.40648 0.29902
 Zn254 Zn 1.00138 0.49100 0.25816
 N255 N 1.00031 0.46036 0.28237
 C256 C 0.94913 0.47024 0.23381
 N257 N 0.96985 0.49022 0.23312
 C258 C 0.96965 0.51013 0.21316
 C259 C 0.94776 0.51078 0.19314
 C260 C 0.92679 0.47014 0.21410
 C261 C 1.02298 0.52640 0.30276
 C262 C 1.02376 0.54903 0.32200
 C263 C 0.98115 0.56345 0.30010
 C264 C 0.98115 0.54058 0.28129
 N265 N 1.00200 0.52272 0.28277
 H266 H 0.94999 0.45426 0.24939
 H267 H 0.98662 0.52550 0.21281
 H268 H 0.94779 0.52677 0.17737
 H269 H 0.91034 0.45421 0.21472
 H270 H 1.03902 0.51164 0.30382
 H271 H 1.04050 0.55180 0.33787
 H272 H 0.96443 0.57750 0.29882
 H273 H 0.96427 0.53699 0.26583
 C274 C 0.99924 0.41749 0.32029
 C275 C 1.07703 0.49036 0.19404
 C276 C 1.00263 0.56772 0.32063
 C277 C 0.92614 0.49063 0.19360
 C278 C -0.03423 0.48813 0.78760
 H279 H -0.01884 0.47268 0.78781
 C280 C -0.05595 0.48773 0.80800
 H281 H -0.05741 0.47185 0.82389
 C282 C -0.05063 0.52827 0.76733
 H283 H -0.04812 0.54439 0.75192
 C284 C -0.07267 0.52863 0.78737
 H285 H -0.08723 0.54486 0.78712
 N286 N -0.03201 0.50815 0.76775
 C287 C 0.01929 0.47523 0.69752
 H288 H 0.03556 0.49126 0.69657
 C289 C 0.01972 0.45280 0.67815
 H290 H 0.03642 0.45147 0.66225
 C291 C -0.02254 0.45746 0.71920
 H292 H -0.03918 0.45953 0.73494
 C293 C -0.02290 0.43467 0.70019
 H294 H -0.03967 0.41913 0.70155
 Zn295 Zn -0.00043 0.50844 0.74275
 N296 N -0.00145 0.47702 0.71774
 C297 C 0.04988 0.48880 0.76562
 N298 N 0.03161 0.50923 0.76710
 C299 C 0.03447 0.52971 0.78767
 C300 C 0.05643 0.53020 0.80779
 C301 C 0.07213 0.48852 0.78533
 C302 C -0.02097 0.54040 0.69904
 C303 C -0.02152 0.56206 0.68007
 C304 C 0.02163 0.58069 0.70165
 C305 C 0.02138 0.55866 0.72026
 N306 N 0.00014 0.53919 0.71878
 H307 H 0.04688 0.47232 0.74968
 H308 H 0.01933 0.54540 0.78873
 H309 H 0.05833 0.54638 0.82432
 H310 H 0.08635 0.47198 0.78427
 H311 H -0.03736 0.52442 0.69803
 H312 H -0.03844 0.56286 0.66446
 H313 H 0.03860 0.59611 0.70292
 H314 H 0.03829 0.55703 0.73562
 C315 C -0.00152 0.43230 0.67955
 C316 C -0.07527 0.50823 0.80795
 C317 C -0.00004 0.58240 0.68140
 C318 C 0.07533 0.50932 0.80670
 C319 C 0.10445 0.17377 0.50253
 N320 N 0.11632 0.16490 0.47735
 N321 N 0.13487 0.14549 0.47760
 C322 C 0.14207 0.13430 0.50304
 N323 N 0.13026 0.14322 0.52823
 N324 N 0.11171 0.16263 0.52797
 C325 C 0.08284 0.19307 0.50200
 C326 C 0.06378 0.20829 0.50156
 C327 C 0.16092 0.11241 0.50309
 C328 C 0.17636 0.09368 0.50290
 C329 C 0.67668 0.60461 0.01419
 N330 N 0.66788 0.61702 -0.00993
 N331 N 0.64726 0.63433 -0.00815
 C332 C 0.63475 0.63969 0.01780
 N333 N 0.64360 0.62735 0.04194
 N334 N 0.66422 0.61004 0.04015
 C335 C 0.69713 0.58423 0.01183
 C336 C 0.71326 0.56615 0.00968
 C337 C 0.61152 0.65712 0.01940
 C338 C 0.59167 0.67137 0.02051
 C339 C 0.89447 -0.17358 0.49661
 N340 N 0.88662 -0.16277 0.47120
 N341 N 0.86808 -0.14334 0.47115
 C342 C 0.85689 -0.13407 0.49653
 N343 N 0.86468 -0.14494 0.52193
 N344 N 0.88322 -0.16437 0.52197
 C345 C 0.91615 -0.19281 0.49688
 C346 C 0.93530 -0.20793 0.49721
 C347 C 0.83817 -0.11207 0.49665
 C348 C 0.82291 -0.09320 0.49688
 C349 C 0.32388 0.39557 0.98516
 N350 N 0.33790 0.39210 0.95971
 N351 N 0.35820 0.37446 0.95756
 C352 C 0.36514 0.35981 0.98084
 N353 N 0.35107 0.36321 1.00627
 N354 N 0.33077 0.38085 1.00841
 C355 C 0.30366 0.41613 0.98811
 C356 C 0.28767 0.43428 0.99073
 C357 C 0.38805 0.34199 0.97908
 C358 C 0.40763 0.32741 0.97805
 C359 C 0.91323 0.18106 0.50218
 N360 N 0.90291 0.17144 0.52763
 N361 N 0.88134 0.15322 0.52761
 C362 C 0.86949 0.14397 0.50213
 N363 N 0.87972 0.15368 0.47669
 N364 N 0.90128 0.17191 0.47671
 C365 C 0.93855 0.19798 0.50202
 C366 C 0.96083 0.21056 0.50183
 C367 C 0.84798 0.12255 0.50196
 C368 C 0.83063 0.10390 0.50167
 C369 C 0.31205 0.58044 0.01196
 N370 N 0.31860 0.59592 -0.01128
 N371 N 0.33668 0.61733 -0.00845
 C372 C 0.34882 0.62387 0.01769
 N373 N 0.34217 0.60848 0.04097
 N374 N 0.32408 0.58707 0.03813
 C375 C 0.29540 0.55553 0.00813
 C376 C 0.28308 0.53371 0.00471
 C377 C 0.37024 0.64528 0.02005
 C378 C 0.38895 0.66261 0.02152
 C379 C 0.08563 -0.17986 0.49600
 N380 N 0.09534 -0.17003 0.47041
 N381 N 0.11686 -0.15175 0.47007
 C382 C 0.12926 -0.14267 0.49533
 N383 N 0.11963 -0.15258 0.52091
 N384 N 0.09811 -0.17086 0.52125
 C385 C 0.06041 -0.19690 0.49661
 C386 C 0.03822 -0.20962 0.49712
 C387 C 0.15082 -0.12131 0.49517
 C388 C 0.16830 -0.10278 0.49527
 C389 C 0.68855 0.42002 0.99071
 N390 N 0.68074 0.40574 1.01446
 N391 N 0.66236 0.38454 1.01193
 C392 C 0.65117 0.37702 0.98560
 N393 N 0.65909 0.39120 0.96182
 N394 N 0.67747 0.41240 0.96435
 C395 C 0.70540 0.44485 0.99401
 C396 C 0.71783 0.46666 0.99697
 C397 C 0.62940 0.35594 0.98339
 C398 C 0.61039 0.33894 0.98189
 C399 C 0.50499 0.10750 1.16245
 N400 N 0.52985 0.11603 1.15075
 N401 N 0.53083 0.13518 1.13078
 C402 C 0.50698 0.14637 1.12192
 N403 N 0.48214 0.13788 1.13367
 N404 N 0.48115 0.11872 1.15364
 C405 C 0.50379 0.08593 1.18282
 C406 C 0.50278 0.06734 1.19937
 C407 C 0.50786 0.16599 1.09941
 C408 C 0.50841 0.18202 1.08004
 C409 C -0.00520 0.68485 0.58587
 N410 N 0.00931 0.66242 0.57927
 N411 N 0.01106 0.64272 0.59843
 C412 C -0.00166 0.64483 0.62479
 N413 N -0.01613 0.66728 0.63141
 N414 N -0.01789 0.68699 0.61224
 C415 C -0.00805 0.70556 0.56479
 C416 C -0.01094 0.72268 0.54688
 C417 C -0.00064 0.62314 0.64500
 C418 C -0.00016 0.60470 0.66173
 C419 C 0.49552 0.89116 -0.16399
 N420 N 0.47064 0.88087 -0.15389
 N421 N 0.46991 0.86177 -0.13386
 C422 C 0.49404 0.85239 -0.12334
 N423 N 0.51892 0.86264 -0.13348
 N424 N 0.51965 0.88174 -0.15351
 C425 C 0.49632 0.91267 -0.18443
 C426 C 0.49700 0.93120 -0.20106
 C427 C 0.49327 0.83282 -0.10078
 C428 C 0.49261 0.81683 -0.08137
 C429 C 1.00441 0.31566 0.41664
 N430 N 0.99440 0.34006 0.42501
 N431 N 0.99262 0.35983 0.40592
 C432 C 1.00078 0.35580 0.37787
 N433 N 1.01076 0.33139 0.36949
 N434 N 1.01255 0.31163 0.38858
 C435 C 1.00716 0.29467 0.43743
 C436 C 1.00986 0.27721 0.45500
 C437 C 0.99970 0.37738 0.35752
 C438 C 0.99923 0.39561 0.34051
 C439 C 0.49532 0.91984 0.18690
 N440 N 0.47055 0.90904 0.17643
 N441 N 0.46954 0.88552 0.16116
 C442 C 0.49326 0.87210 0.15591
 N443 N 0.51801 0.88284 0.16649
 N444 N 0.51903 0.90636 0.18176
 C445 C 0.49679 0.94637 0.20083
 C446 C 0.49811 0.96915 0.21133
 C447 C 0.49260 0.84827 0.13709
 C448 C 0.49235 0.82903 0.12018
 C449 C 0.00428 0.32377 0.58513
 N450 N 0.01144 0.32143 0.61351
 N451 N 0.00955 0.34251 0.63225
 C452 C 0.00045 0.36658 0.62318
 N453 N -0.00674 0.36891 0.59481
 N454 N -0.00485 0.34783 0.57607
 C455 C 0.00729 0.30138 0.56473
 C456 C 0.01032 0.28275 0.54749
 C457 C -0.00071 0.38956 0.64315
 C458 C -0.00129 0.40898 0.65981
 C459 C 0.50394 0.08065 0.81323
 N460 N 0.48013 0.09285 0.82123
 N461 N 0.48143 0.11648 0.83628
 C462 C 0.50659 0.12863 0.84377
 N463 N 0.53040 0.11649 0.83567
 N464 N 0.52909 0.09285 0.82061
 C465 C 0.50251 0.05406 0.79943
 C466 C 0.50131 0.03126 0.78899
 C467 C 0.50794 0.15264 0.86233
 C468 C 0.50906 0.17205 0.87902
 C469 C 0.99593 0.67641 0.41469
 N470 N 1.00330 0.65195 0.42442
 N471 N 1.00552 0.63076 0.40589
 C472 C 1.00045 0.63337 0.37706
 N473 N 0.99311 0.65784 0.36733
 N474 N 0.99089 0.67903 0.38586
 C475 C 0.99258 0.69897 0.43480
 C476 C 0.98932 0.71772 0.45182
 C477 C 1.00186 0.61031 0.35724
 C478 C 1.00251 0.59090 0.34057
 C479 C 1.17719 0.48593 0.08935
 N480 N 1.15573 0.50287 0.08717
 N481 N 1.13664 0.50439 0.10828
 C482 C 1.13844 0.48904 0.13223
 N483 N 1.15992 0.47212 0.13442
 N484 N 1.17901 0.47060 0.11331
 C485 C 1.19733 0.48373 0.06626
 C486 C 1.21414 0.48156 0.04682
 C487 C 1.11730 0.48992 0.15444
 C488 C 1.09917 0.49032 0.17273
 C489 C 0.58623 -0.01084 0.68144
 N490 N 0.61127 -0.02220 0.68511
 N491 N 0.63147 -0.01905 0.66528
 C492 C 0.62724 -0.00442 0.64121
 N493 N 0.60222 0.00696 0.63756
 N494 N 0.58202 0.00381 0.65739
 C495 C 0.56428 -0.01481 0.70244
 C496 C 0.54585 -0.01845 0.72004
 C497 C 0.64864 -0.00177 0.61941
 C498 C 0.66638 0.00010 0.60080
 C499 C -0.17502 0.51416 0.91302
 N500 N -0.15235 0.49897 0.91648
 N501 N -0.13314 0.49735 0.89550
 C502 C -0.13602 0.51086 0.87041
 N503 N -0.15871 0.52603 0.86694
 N504 N -0.17792 0.52765 0.88793
 C505 C -0.19541 0.51640 0.93586
 C506 C -0.21248 0.51860 0.95505
 C507 C -0.11497 0.50967 0.84813
 C508 C -0.09703 0.50890 0.82965
 C509 C 0.41248 0.00949 0.31629
 N510 N 0.41638 -0.00581 0.33993
 N511 N 0.39626 -0.00876 0.35987
 C512 C 0.37162 0.00348 0.35675
 N513 N 0.36771 0.01875 0.33309
 N514 N 0.38783 0.02170 0.31315
 C515 C 0.43444 0.01338 0.29530
 C516 C 0.45293 0.01697 0.27776
 C517 C 0.35047 0.00128 0.37885
 C518 C 0.33304 -0.00008 0.39781
 C519 C 0.17570 0.49868 0.90964
 N520 N 0.18244 0.49695 0.88094
 N521 N 0.16305 0.50009 0.86061
 C522 C 0.13633 0.50505 0.86835
 N523 N 0.12959 0.50682 0.89704
 N524 N 0.14898 0.50368 0.91738
 C525 C 0.19629 0.49403 0.93147
 C526 C 0.21354 0.48946 0.94962
 C527 C 0.11515 0.50722 0.84647
 C528 C 0.09714 0.50848 0.82823
 C529 C 0.58655 0.01209 0.31790
 N530 N 0.58008 0.00187 0.34432
 N531 N 0.59995 -0.00018 0.36439
 C532 C 0.62687 0.00794 0.35864
 N533 N 0.63335 0.01813 0.33221
 N534 N 0.61348 0.02017 0.31214
 C535 C 0.56507 0.01507 0.29659
 C536 C 0.54711 0.01801 0.27870
 C537 C 0.64807 0.00650 0.38056
 C538 C 0.66570 0.00560 0.39923
 C539 C 0.82420 0.50135 0.09248
 N540 N 0.81904 0.50749 0.12093
 N541 N 0.83848 0.50409 0.14114
 C542 C 0.86367 0.49442 0.13352
 N543 N 0.86881 0.48823 0.10508
 N544 N 0.84937 0.49163 0.08486
 C545 C 0.80376 0.50624 0.07057
 C546 C 0.78672 0.51095 0.05226
 C547 C 0.88518 0.49221 0.15503
 C548 C 0.90362 0.49108 0.17281
 C549 C 0.41138 -0.01274 0.68218
 N550 N 0.41661 0.00193 0.65804
 N551 N 0.39666 0.00427 0.63812
 C552 C 0.37089 -0.00795 0.64175
 N553 N 0.36565 -0.02258 0.66592
 N554 N 0.38560 -0.02492 0.68584
 C555 C 0.43310 -0.01604 0.70315
 C556 C 0.45134 -0.01922 0.72066
 C557 C 0.34985 -0.00643 0.61968
 C558 C 0.33248 -0.00563 0.60073
   
