data_POSCAR
  _audit_creation_date              2014-09-24
  _audit_creation_method            'ToBaCCo'
  _symmetry_space_group_name_H-M    'P1'
  _symmetry_Int_Tables_number       1
  _symmetry_cell_setting            triclinic
  loop_
  _symmetry_equiv_pos_as_xyz
 x,y,z
_cell_length_a 53.1583
_cell_length_b 26.7001
_cell_length_c 19.7461
_cell_angle_alpha 89.605400
_cell_angle_beta 90.106700
_cell_angle_gamma 90.248600
loop_
  _atom_site_label
  _atom_site_type_symbol
  _atom_site_fract_x
  _atom_site_fract_y
  _atom_site_fract_z
C1 C 0.79855 0.14373 0.46823
 C2 C 0.79960 0.14629 0.53733
 C3 C 0.78450 0.18607 0.55636
 N4 N 0.77359 0.20659 0.50093
 C5 C 0.78257 0.18154 0.44680
 C6 C 0.77983 0.20043 0.62437
 C7 C 0.75681 0.22307 0.64333
 C8 C 0.74515 0.21645 0.70557
 C9 C 0.72391 0.24535 0.70484
 C10 C 0.72317 0.26994 0.64260
 N11 N 0.74325 0.25561 0.60508
 C12 C 0.70471 0.30578 0.62313
 C13 C 0.70256 0.32348 0.55529
 C14 C 0.69116 0.36789 0.53531
 C15 C 0.69185 0.36932 0.46599
 C16 C 0.70413 0.32636 0.44552
 N17 N 0.71081 0.29864 0.50021
 C18 C 0.70853 0.31366 0.37696
 C19 C 0.72686 0.27882 0.35548
 C20 C 0.73337 0.27077 0.28841
 C21 C 0.75308 0.23765 0.28873
 C22 C 0.75794 0.22553 0.35594
 N23 N 0.74159 0.25025 0.39606
 C24 C 0.77734 0.19291 0.37791
 H25 H 0.80810 0.11636 0.43746
 H26 H 0.80959 0.12027 0.56981
 H27 H 0.74018 0.24699 0.44804
 H28 H 0.75075 0.19210 0.74686
 H29 H 0.71046 0.24721 0.74577
 H30 H 0.68346 0.39678 0.56721
 H31 H 0.68466 0.39928 0.43431
 H32 H 0.76284 0.22457 0.24423
 H33 H 0.74890 0.27118 0.55911
 H34 H 0.72527 0.28783 0.24361
 C35 C 0.29673 0.64405 0.46573
 C36 C 0.29525 0.63968 0.53486
 C37 C 0.28111 0.67988 0.55715
 N38 N 0.27360 0.70820 0.50394
 C39 C 0.28334 0.68661 0.44808
 C40 C 0.27636 0.69168 0.62579
 C41 C 0.25372 0.71603 0.64506
 C42 C 0.24825 0.73387 0.70943
 C43 C 0.22429 0.75306 0.70696
 C44 C 0.21583 0.74742 0.64109
 N45 N 0.23369 0.72441 0.60388
 C46 C 0.19203 0.76321 0.61736
 C47 C 0.18651 0.77134 0.54815
 C48 C 0.16293 0.78316 0.52253
 C49 C 0.16614 0.79432 0.45528
 C50 C 0.19146 0.78780 0.44156
 N51 N 0.20389 0.77412 0.49852
 C52 C 0.20310 0.79825 0.37881
 C53 C 0.22796 0.78402 0.36367
 C54 C 0.24118 0.79886 0.30639
 C55 C 0.26345 0.77271 0.30695
 C56 C 0.26317 0.74280 0.36463
 N57 N 0.24151 0.74983 0.39874
 C58 C 0.28159 0.70716 0.38212
 H59 H 0.30648 0.61870 0.43237
 H60 H 0.30352 0.61015 0.56531
 H61 H 0.23516 0.72777 0.43884
 H62 H 0.26016 0.73385 0.75386
 H63 H 0.21446 0.77041 0.74859
 H64 H 0.14529 0.78477 0.54968
 H65 H 0.15146 0.80632 0.42089
 H66 H 0.27800 0.77497 0.26878
 H67 H 0.23147 0.71166 0.55456
 H68 H 0.23514 0.82478 0.26730
 C69 C 0.20720 0.11351 -0.45952
 C70 C 0.20756 0.11319 -0.52891
 C71 C 0.21867 0.15786 -0.54946
 N72 N 0.22556 0.18509 -0.49489
 C73 C 0.21809 0.15838 -0.43985
 C74 C 0.22100 0.17458 -0.61747
 C75 C 0.24085 0.20716 -0.63747
 C76 C 0.24215 0.23320 -0.69856
 C77 C 0.26460 0.25882 -0.69888
 C78 C 0.27654 0.24799 -0.63803
 N79 N 0.26191 0.21646 -0.60090
 C80 C 0.30046 0.26662 -0.61846
 C81 C 0.30894 0.26292 -0.55065
 C82 C 0.33392 0.26418 -0.53006
 C83 C 0.33380 0.26357 -0.46079
 C84 C 0.30881 0.26100 -0.44141
 N85 N 0.29359 0.26025 -0.49627
 C86 C 0.30029 0.26346 -0.37409
 C87 C 0.27609 0.24761 -0.35454
 C88 C 0.26487 0.25832 -0.29315
 C89 C 0.24212 0.23360 -0.29252
 C90 C 0.24023 0.20794 -0.35341
 N91 N 0.26105 0.21695 -0.39090
 C92 C 0.22039 0.17523 -0.37222
 H93 H 0.20008 0.08379 -0.42722
 H94 H 0.20055 0.08337 -0.56071
 H95 H 0.26592 0.19918 -0.43576
 H96 H 0.22831 0.23452 -0.73873
 H97 H 0.27109 0.28335 -0.73909
 H98 H 0.35054 0.26517 -0.56158
 H99 H 0.35022 0.26472 -0.42835
 H100 H 0.22866 0.23471 -0.25158
 H101 H 0.26686 0.19896 -0.55553
 H102 H 0.27229 0.28153 -0.25300
 C103 C -0.29023 0.60427 -0.53099
 C104 C -0.29010 0.60524 -0.46157
 C105 C -0.27923 0.65043 -0.44307
 N106 N -0.27224 0.67671 -0.49890
 C107 C -0.27945 0.64889 -0.55275
 C108 C -0.27683 0.66806 -0.37572
 C109 C -0.25664 0.70017 -0.35725
 C110 C -0.25433 0.72580 -0.29640
 C111 C -0.23139 0.74992 -0.29759
 C112 C -0.22045 0.73893 -0.35924
 N113 N -0.23587 0.70863 -0.39519
 C114 C -0.19626 0.75452 -0.37976
 C115 C -0.18826 0.75155 -0.44756
 C116 C -0.16342 0.75334 -0.46835
 C117 C -0.16384 0.75396 -0.53763
 C118 C -0.18898 0.75316 -0.55684
 N119 N -0.20391 0.75099 -0.50160
 C120 C -0.19794 0.75698 -0.62422
 C121 C -0.22205 0.73880 -0.64280
 C122 C -0.23436 0.75010 -0.70298
 C123 C -0.25677 0.72429 -0.70216
 C124 C -0.25766 0.69777 -0.64142
 N125 N -0.23643 0.70699 -0.60549
 C126 C -0.27729 0.66475 -0.62116
 H127 H -0.29716 0.57389 -0.56196
 H128 H -0.29697 0.57579 -0.42842
 H129 H -0.23113 0.68917 -0.56062
 H130 H -0.26765 0.72729 -0.25514
 H131 H -0.22370 0.77301 -0.25768
 H132 H -0.14675 0.75392 -0.43683
 H133 H -0.14747 0.75474 -0.57009
 H134 H -0.27089 0.72578 -0.74164
 H135 H -0.23139 0.69086 -0.44033
 H136 H -0.22812 0.77502 -0.74306
 O137 O -0.04208 0.93835 0.11797
 O138 O -0.06728 0.98972 0.05353
 C139 C -0.06390 0.95560 0.09946
 O140 O 0.03419 1.10703 0.12886
 O141 O 0.06128 1.05809 0.06811
 C142 C 0.05654 1.09138 0.11385
 O143 O -0.03590 1.11037 0.12844
 O144 O -0.06423 1.07112 0.05870
 C145 C -0.05864 1.10026 0.10887
 O146 O 0.02822 0.92411 0.11815
 O147 O 0.05834 0.97096 0.06328
 C148 C 0.05142 0.93515 0.10402
 Zr149 Zr -0.00541 0.95849 0.08478
 O150 O -0.00407 0.95588 0.19198
 O151 O -0.01086 0.87992 0.08139
 Zr152 Zr -0.00120 1.08483 0.09007
 O153 O 0.00034 1.08464 0.19718
 O154 O -0.00148 1.16415 0.08811
 O155 O -0.02576 1.02400 0.09865
 O156 O 0.01829 1.01857 0.10211
 O157 O 0.03230 0.93247 -0.11655
 O158 O 0.06016 0.97521 -0.04913
 C159 C 0.05492 0.94295 -0.09561
 O160 O -0.03306 1.11741 -0.12169
 O161 O -0.06307 1.07404 -0.06140
 C162 C -0.05625 1.10627 -0.10737
 O163 O 0.03730 1.11387 -0.10846
 O164 O 0.06291 1.06120 -0.04727
 C165 C 0.05923 1.09697 -0.09102
 O166 O -0.03827 0.94383 -0.12845
 O167 O -0.06517 0.99136 -0.06510
 C168 C -0.06058 0.95954 -0.11256
 Zr169 Zr -0.00287 0.96279 -0.08557
 O170 O 0.00091 0.96369 -0.19224
 O171 O -0.00798 0.88411 -0.08571
 Zr172 Zr 0.00090 1.08950 -0.08009
 O173 O 0.00519 1.09323 -0.18656
 O174 O 0.00031 1.16861 -0.07464
 Zr175 Zr -0.03955 1.02851 -0.00143
 Zr176 Zr 0.03530 1.01965 0.00610
 O177 O 0.02087 1.02401 -0.09324
 O178 O -0.02309 1.02911 -0.09849
 O179 O 0.01804 0.94840 0.00147
 O180 O -0.02188 1.09892 0.00335
 O181 O -0.02635 0.95429 -0.00297
 O182 O 0.02273 1.09433 0.00754
 H183 H 0.02895 1.01577 0.14311
 H184 H -0.03260 1.12920 0.00367
 H185 H 0.03255 1.02374 -0.13228
 H186 H -0.03869 0.92643 -0.00518
 H187 H 0.01466 1.17552 0.06828
 H188 H 0.01522 1.17923 -0.04827
 H189 H -0.00831 1.07255 -0.20674
 H190 H -0.01152 0.98778 -0.21039
 H191 H 0.00689 0.86881 -0.06385
 H192 H 0.00219 0.86616 0.05119
 H193 H -0.01793 0.97691 0.20885
 H194 H -0.01261 1.06079 0.21347
 O195 O 0.45780 0.44616 0.12387
 O196 O 0.43259 0.49899 0.06172
 C197 C 0.43605 0.46494 0.10778
 O198 O 0.53803 0.60813 0.11836
 O199 O 0.56290 0.55563 0.05593
 C200 C 0.55971 0.59008 0.10126
 O201 O 0.46832 0.61826 0.12820
 O202 O 0.43780 0.58061 0.06373
 C203 C 0.44504 0.60993 0.11220
 O204 O 0.52785 0.42743 0.11667
 O205 O 0.55794 0.46981 0.05528
 C206 C 0.55101 0.43645 0.09961
 Zr207 Zr 0.49422 0.46305 0.08571
 O208 O 0.49713 0.46281 0.19269
 O209 O 0.48718 0.38495 0.08668
 Zr210 Zr 0.50142 0.58934 0.08492
 O211 O 0.50473 0.59337 0.19152
 O212 O 0.50280 0.66846 0.07744
 O213 O 0.47576 0.53081 0.09968
 O214 O 0.51950 0.52141 0.09716
 O215 O 0.52657 0.42852 -0.11821
 O216 O 0.55734 0.47040 -0.05946
 C217 C 0.54993 0.43729 -0.10299
 O218 O 0.46624 0.61881 -0.12517
 O219 O 0.43655 0.58007 -0.05849
 C220 C 0.44311 0.60982 -0.10769
 O221 O 0.53663 0.60982 -0.12002
 O222 O 0.56217 0.55650 -0.05968
 C223 C 0.55849 0.59158 -0.10448
 O224 O 0.45650 0.44785 -0.12029
 O225 O 0.43188 0.49929 -0.05564
 C226 C 0.43489 0.46595 -0.10216
 Zr227 Zr 0.49334 0.46396 -0.08481
 O228 O 0.49521 0.46379 -0.19190
 O229 O 0.48622 0.38590 -0.08497
 Zr230 Zr 0.50030 0.59012 -0.08490
 O231 O 0.50249 0.59370 -0.19177
 O232 O 0.50153 0.66933 -0.08012
 Zr233 Zr 0.46007 0.53447 0.00170
 Zr234 Zr 0.53476 0.51848 -0.00109
 O235 O 0.51838 0.52247 -0.09824
 O236 O 0.47459 0.53170 -0.09752
 O237 O 0.51567 0.44895 -0.00031
 O238 O 0.47926 0.60343 0.00082
 O239 O 0.47149 0.45905 0.00125
 O240 O 0.52401 0.59450 -0.00087
 H241 H 0.53074 0.51877 0.13712
 H242 H 0.46903 0.63443 0.00103
 H243 H 0.52918 0.52017 -0.13890
 H244 H 0.45859 0.43217 0.00174
 H245 H 0.51957 0.67792 0.05975
 H246 H 0.51771 0.67891 -0.05903
 H247 H 0.49072 0.56823 -0.20951
 H248 H 0.48139 0.48512 -0.20913
 H249 H 0.49950 0.36967 -0.05751
 H250 H 0.49995 0.36915 0.05754
 H251 H 0.48354 0.48426 0.21041
 H252 H 0.49376 0.56687 0.21060
 C253 C 0.31607 0.28890 0.33166
 C254 C 0.33242 0.32874 0.34557
 C255 C 0.35136 0.34730 0.29695
 C256 C 0.35840 0.39797 0.29812
 C257 C 0.37782 0.41567 0.25668
 C258 C 0.39094 0.38262 0.21456
 C259 C 0.38404 0.33186 0.21378
 C260 C 0.36420 0.31438 0.25405
 C261 C 0.41277 0.39979 0.17449
 C262 C 0.41370 0.44705 0.14431
 H263 H 0.33097 0.34796 0.39357
 H264 H 0.34903 0.42378 0.33174
 H265 H 0.38316 0.45478 0.25946
 H266 H 0.39413 0.30570 0.18227
 H267 H 0.35958 0.27484 0.25363
 H268 H 0.42807 0.37384 0.16632
 H269 H 0.31397 0.27799 0.27923
 H270 H 0.39728 0.47088 0.14531
 C271 C -0.18258 0.77892 0.32522
 C272 C -0.16627 0.81892 0.33830
 C273 C -0.14770 0.83734 0.28879
 C274 C -0.14118 0.88826 0.28818
 C275 C -0.12193 0.90583 0.24622
 C276 C -0.10849 0.87240 0.20536
 C277 C -0.11494 0.82146 0.20614
 C278 C -0.13463 0.80407 0.24692
 C279 C -0.08681 0.88955 0.16494
 C280 C -0.08638 0.93634 0.13364
 H281 H -0.16746 0.83829 0.38625
 H282 H -0.15082 0.91436 0.32083
 H283 H -0.11695 0.94519 0.24766
 H284 H -0.10462 0.79509 0.17550
 H285 H -0.13893 0.76440 0.24781
 H286 H -0.07115 0.86425 0.15805
 H287 H -0.18489 0.76768 0.27296
 H288 H -0.10310 0.95939 0.13355
 C289 C 0.70529 0.64823 0.32904
 C290 C 0.68027 0.63513 0.34312
 C291 C 0.66153 0.62227 0.29014
 C292 C 0.63596 0.62976 0.30396
 C293 C 0.61762 0.61856 0.25572
 C294 C 0.62437 0.59922 0.19220
 C295 C 0.64989 0.59023 0.17890
 C296 C 0.66836 0.60187 0.22721
 C297 C 0.60493 0.58590 0.14113
 C298 C 0.58148 0.60925 0.13943
 H299 H 0.67321 0.63998 0.39405
 H300 H 0.63003 0.64455 0.35231
 H301 H 0.59811 0.62408 0.26932
 H302 H 0.65552 0.57434 0.13096
 H303 H 0.68784 0.59410 0.21550
 H304 H 0.60883 0.55632 0.10540
 H305 H 0.71053 0.65097 0.27627
 H306 H 0.57814 0.64090 0.17212
 C307 C 0.20331 1.15923 0.33294
 C308 C 0.17828 1.14713 0.34807
 C309 C 0.15924 1.13340 0.29660
 C310 C 0.13378 1.13906 0.31300
 C311 C 0.11500 1.12637 0.26670
 C312 C 0.12129 1.10752 0.20258
 C313 C 0.14677 1.10050 0.18671
 C314 C 0.16563 1.11345 0.23314
 C315 C 0.10166 1.09239 0.15324
 C316 C 0.07736 1.11201 0.15418
 H317 H 0.17155 1.15260 0.39920
 H318 H 0.12836 1.15335 0.36208
 H319 H 0.09562 1.13026 0.28229
 H320 H 0.15209 1.08492 0.13831
 H321 H 0.18504 1.10688 0.21961
 H322 H 0.10643 1.06464 0.11568
 H323 H 0.20837 1.16195 0.28007
 H324 H 0.07282 1.14187 0.18883
 C325 C 0.68838 0.32419 -0.32601
 C326 C 0.66342 0.33814 -0.33847
 C327 C 0.64627 0.35808 -0.28620
 C328 C 0.62029 0.35524 -0.29781
 C329 C 0.60332 0.37530 -0.25166
 C330 C 0.61192 0.39838 -0.19200
 C331 C 0.63797 0.40192 -0.18071
 C332 C 0.65502 0.38194 -0.22727
 C333 C 0.59423 0.42142 -0.14319
 C334 C 0.56878 0.40832 -0.14033
 H335 H 0.65540 0.33092 -0.38795
 H336 H 0.61303 0.33770 -0.34320
 H337 H 0.58356 0.37377 -0.26437
 H338 H 0.64516 0.42055 -0.13609
 H339 H 0.67495 0.38630 -0.21769
 H340 H 0.60137 0.45010 -0.10952
 H341 H 0.69440 0.32287 -0.27371
 H342 H 0.56178 0.37745 -0.17022
 C343 C 0.17247 0.77550 -0.33209
 C344 C 0.16220 0.82337 -0.32997
 C345 C 0.14052 0.83664 -0.28744
 C346 C 0.13788 0.88646 -0.26710
 C347 C 0.11685 0.90126 -0.23035
 C348 C 0.09780 0.86651 -0.21394
 C349 C 0.10015 0.81681 -0.23545
 C350 C 0.12148 0.80178 -0.27141
 C351 C 0.07515 0.88234 -0.17651
 C352 C 0.07673 0.91930 -0.12733
 H353 H 0.17037 0.85242 -0.36176
 H354 H 0.15211 0.91408 -0.27999
 H355 H 0.11526 0.94024 -0.21635
 H356 H 0.08552 0.78964 -0.22429
 H357 H 0.12267 0.76340 -0.28836
 H358 H 0.05727 0.86438 -0.18707
 H359 H 0.16696 0.74736 -0.29524
 H360 H 0.09512 0.93303 -0.11244
 C361 C 0.29431 0.67906 -0.32360
 C362 C 0.32022 0.67579 -0.33660
 C363 C 0.33959 0.66296 -0.28518
 C364 C 0.36492 0.67260 -0.30064
 C365 C 0.38405 0.65955 -0.25525
 C366 C 0.37826 0.63653 -0.19279
 C367 C 0.35291 0.62660 -0.17750
 C368 C 0.33376 0.63958 -0.22308
 C369 C 0.39802 0.61973 -0.14438
 C370 C 0.42332 0.63395 -0.14862
 H371 H 0.32704 0.68645 -0.38633
 H372 H 0.37000 0.68987 -0.34855
 H373 H 0.40324 0.66657 -0.27055
 H374 H 0.34790 0.60816 -0.13034
 H375 H 0.31458 0.63008 -0.20996
 H376 H 0.39246 0.59378 -0.10465
 H377 H 0.28836 0.67654 -0.27150
 H378 H 0.42939 0.66118 -0.18593
 C379 C -0.20253 1.18878 -0.32386
 C380 C -0.17666 1.18490 -0.33590
 C381 C -0.15785 1.16971 -0.28441
 C382 C -0.13231 1.17640 -0.29968
 C383 C -0.11371 1.16027 -0.25477
 C384 C -0.12025 1.13723 -0.19291
 C385 C -0.14582 1.13008 -0.17781
 C386 C -0.16448 1.14608 -0.22301
 C387 C -0.10103 1.11764 -0.14522
 C388 C -0.07571 1.13166 -0.14763
 H389 H -0.16948 1.19544 -0.38533
 H390 H -0.12666 1.19351 -0.34724
 H391 H -0.09433 1.16477 -0.27011
 H392 H -0.15138 1.11151 -0.13120
 H393 H -0.18392 1.13863 -0.21026
 H394 H -0.10700 1.09042 -0.10753
 H395 H -0.20824 1.18982 -0.27150
 H396 H -0.06948 1.16070 -0.18219
 C397 C 0.70553 0.65346 -0.32540
 C398 C 0.68044 0.64128 -0.33994
 C399 C 0.66139 0.62852 -0.28783
 C400 C 0.63591 0.63496 -0.30403
 C401 C 0.61716 0.62270 -0.25732
 C402 C 0.62347 0.60373 -0.19285
 C403 C 0.64894 0.59605 -0.17709
 C404 C 0.66778 0.60853 -0.22396
 C405 C 0.60378 0.58949 -0.14302
 C406 C 0.57993 0.61122 -0.14362
 H407 H 0.67367 0.64584 -0.39137
 H408 H 0.63042 0.64953 -0.35323
 H409 H 0.59775 0.62703 -0.27276
 H410 H 0.65427 0.58038 -0.12840
 H411 H 0.68720 0.60157 -0.21046
 H412 H 0.60811 0.56101 -0.10548
 H413 H 0.71069 0.65662 -0.27264
 H414 H 0.57613 0.64199 -0.17798
 C415 C 0.20312 1.15941 -0.32176
 C416 C 0.17806 1.14656 -0.33517
 C417 C 0.15969 1.13404 -0.28133
 C418 C 0.13410 1.14248 -0.29397
 C419 C 0.11606 1.13104 -0.24493
 C420 C 0.12323 1.11056 -0.18194
 C421 C 0.14879 1.10123 -0.16966
 C422 C 0.16691 1.11302 -0.21872
 C423 C 0.10425 1.09597 -0.13045
 C424 C 0.08079 1.11901 -0.12706
 H425 H 0.17078 1.15107 -0.38612
 H426 H 0.12805 1.15814 -0.34206
 H427 H 0.09648 1.13723 -0.25736
 H428 H 0.15476 1.08485 -0.12196
 H429 H 0.18643 1.10476 -0.20792
 H430 H 0.10852 1.06527 -0.09620
 H431 H 0.20852 1.16241 -0.26916
 H432 H 0.07707 1.15157 -0.15841
 C433 C 0.31748 0.28369 -0.32198
 C434 C 0.32908 0.33012 -0.33108
 C435 C 0.34936 0.34838 -0.28669
 C436 C 0.35298 0.40010 -0.27945
 C437 C 0.37303 0.41841 -0.24095
 C438 C 0.39007 0.38511 -0.21028
 C439 C 0.38665 0.33342 -0.21837
 C440 C 0.36634 0.31510 -0.25578
 C441 C 0.41230 0.40333 -0.17310
 C442 C 0.41221 0.44766 -0.13644
 H443 H 0.32335 0.35354 -0.37339
 H444 H 0.34038 0.42636 -0.30403
 H445 H 0.37562 0.45853 -0.23712
 H446 H 0.39981 0.30720 -0.19599
 H447 H 0.36448 0.27504 -0.26238
 H448 H 0.42894 0.37999 -0.17229
 H449 H 0.32049 0.26233 -0.27589
 H450 H 0.39494 0.46854 -0.13067
 C451 C -0.17863 0.77508 -0.32851
 C452 C -0.16612 0.82045 -0.33979
 C453 C -0.14556 0.83903 -0.29624
 C454 C -0.14119 0.89076 -0.29239
 C455 C -0.12087 0.90941 -0.25524
 C456 C -0.10423 0.87649 -0.22221
 C457 C -0.10834 0.82469 -0.22698
 C458 C -0.12897 0.80605 -0.26317
 C459 C -0.08207 0.89531 -0.18473
 C460 C -0.08242 0.94063 -0.15025
 H461 H -0.17146 0.84305 -0.38329
 H462 H -0.15347 0.91679 -0.31857
 H463 H -0.11781 0.94951 -0.25407
 H464 H -0.09556 0.79863 -0.20271
 H465 H -0.13141 0.76591 -0.26710
 H466 H -0.06564 0.87157 -0.18065
 H467 H -0.17608 0.75510 -0.28112
 H468 H -0.09974 0.96171 -0.14732
 C469 C 0.29938 0.69120 0.32870
 C470 C 0.32521 0.68828 0.34073
 C471 C 0.34401 0.67238 0.29000
 C472 C 0.36957 0.67652 0.30678
 C473 C 0.38812 0.66077 0.26187
 C474 C 0.38148 0.64091 0.19844
 C475 C 0.35592 0.63624 0.18185
 C476 C 0.33733 0.65173 0.22699
 C477 C 0.40050 0.62231 0.15007
 C478 C 0.42597 0.63475 0.15369
 H479 H 0.33209 0.69893 0.39033
 H480 H 0.37525 0.69152 0.35535
 H481 H 0.40751 0.66322 0.27814
 H482 H 0.35030 0.62025 0.13383
 H483 H 0.31792 0.64651 0.21233
 H484 H 0.39420 0.59728 0.11050
 H485 H 0.29196 0.68598 0.27827
 H486 H 0.43261 0.66162 0.19039
 C487 C -0.20602 1.17111 0.32528
 C488 C -0.18001 1.17833 0.32881
 C489 C -0.16144 1.15848 0.28015
 C490 C -0.13611 1.15760 0.30007
 C491 C -0.11753 1.14098 0.25603
 C492 C -0.12375 1.12557 0.19012
 C493 C -0.14916 1.12516 0.17050
 C494 C -0.16789 1.14167 0.21492
 C495 C -0.10418 1.10835 0.14228
 C496 C -0.07901 1.12302 0.14802
 H497 H -0.17265 1.19883 0.37179
 H498 H -0.13064 1.16959 0.35033
 H499 H -0.09837 1.13962 0.27446
 H500 H -0.15449 1.11273 0.12035
 H501 H -0.18717 1.14203 0.19742
 H502 H -0.10970 1.08338 0.10183
 H503 H -0.21448 1.15204 0.28280
 H504 H -0.07358 1.15055 0.18530
 C505 C 0.69335 0.33944 0.32402
 C506 C 0.66715 0.33630 0.32603
 C507 C 0.64970 0.35886 0.27589
 C508 C 0.62391 0.35688 0.29031
 C509 C 0.60634 0.37701 0.24541
 C510 C 0.61409 0.39900 0.18392
 C511 C 0.63994 0.40179 0.16968
 C512 C 0.65763 0.38171 0.21498
 C513 C 0.59574 0.42115 0.13578
 C514 C 0.57032 0.40770 0.13581
 H515 H 0.65882 0.31590 0.36810
 H516 H 0.61725 0.33995 0.33703
 H517 H 0.58678 0.37605 0.26017
 H518 H 0.64646 0.41926 0.12319
 H519 H 0.67729 0.38395 0.20155
 H520 H 0.60232 0.44951 0.10043
 H521 H 0.70290 0.35781 0.28244
 H522 H 0.56378 0.37732 0.16772
 C523 C 0.18894 0.82728 0.32753
 C524 C 0.16936 0.80527 0.29117
 C525 C 0.15186 0.83334 0.24658
 C526 C 0.12937 0.80986 0.22694
 C527 C 0.11149 0.83563 0.18851
 C528 C 0.11568 0.88577 0.16915
 C529 C 0.13868 0.90852 0.18585
 C530 C 0.15661 0.88270 0.22431
 C531 C 0.09643 0.91522 0.13223
 C532 C 0.07078 0.90457 0.13728
 H533 H 0.16546 0.76593 0.30049
 H534 H 0.12539 0.77163 0.24236
 H535 H 0.09447 0.81603 0.17412
 H536 H 0.14256 0.94679 0.17034
 H537 H 0.17399 0.90176 0.23633
 H538 H 0.10243 0.94832 0.10447
 H539 H 0.19381 0.86632 0.32114
 H540 H 0.06433 0.87412 0.16929
   
