data_POSCAR
  _audit_creation_date              2014-09-24
  _audit_creation_method            'ToBaCCo'
  _symmetry_space_group_name_H-M    'P1'
  _symmetry_Int_Tables_number       1
  _symmetry_cell_setting            triclinic
  loop_
  _symmetry_equiv_pos_as_xyz
 x,y,z
_cell_length_a 51.6671
_cell_length_b 51.4647
_cell_length_c 51.7064
_cell_angle_alpha 94.522800
_cell_angle_beta 85.545500
_cell_angle_gamma 85.651200
loop_
  _atom_site_label
  _atom_site_type_symbol
  _atom_site_fract_x
  _atom_site_fract_y
  _atom_site_fract_z
C1 C 0.20693 0.53865 1.01547
 H2 H 0.20601 0.55313 1.00143
 C3 C 0.18817 0.54016 1.03661
 H4 H 0.17280 0.55592 1.03890
 C5 C 0.22732 0.49969 1.02894
 H6 H 0.24212 0.48356 1.02550
 C7 C 0.20895 0.50046 1.05035
 H8 H 0.20989 0.48500 1.06340
 N9 N 0.22595 0.51861 1.01200
 C10 C 0.28684 0.54522 0.95964
 H11 H 0.28801 0.52976 0.94405
 C12 C 0.30448 0.56444 0.95903
 H13 H 0.31923 0.56388 0.94287
 C14 C 0.26715 0.56402 1.00050
 H15 H 0.25309 0.56332 1.01697
 C16 C 0.28446 0.58362 1.00067
 H17 H 0.28355 0.59809 1.01717
 Zn18 Zn 0.24854 0.51619 0.98113
 N19 N 0.26876 0.54525 0.98022
 C20 C 0.22671 0.53282 0.93552
 N21 N 0.22725 0.51440 0.95303
 C22 C 0.21088 0.49492 0.95234
 C23 C 0.19303 0.49339 0.93349
 C24 C 0.20908 0.53202 0.91632
 C25 C 0.28956 0.48574 0.99814
 C26 C 0.30849 0.46488 0.99784
 C27 C 0.29182 0.44525 0.95916
 C28 C 0.27313 0.46653 0.96018
 N29 N 0.27228 0.48614 0.97959
 H30 H 0.23944 0.54850 0.93679
 H31 H 0.21140 0.48085 0.96681
 H32 H 0.17981 0.47802 0.93334
 H33 H 0.20841 0.54697 0.90270
 H34 H 0.28870 0.50181 1.01307
 H35 H 0.32223 0.46480 1.01263
 H36 H 0.29255 0.42978 0.94358
 H37 H 0.25964 0.46751 0.94528
 C38 C 0.30347 0.58363 0.97987
 C39 C 0.18906 0.52075 1.05410
 C40 C 0.30966 0.44448 0.97816
 C41 C 0.19199 0.51220 0.91543
 C42 C 0.78915 0.50442 -0.00693
 H43 H 0.78857 0.51921 0.00923
 C44 C 0.80797 0.50417 -0.02783
 H45 H 0.82191 0.51887 -0.02785
 C46 C 0.77212 0.46674 -0.02633
 H47 H 0.75845 0.45191 -0.02543
 C48 C 0.79067 0.46578 -0.04764
 H49 H 0.79110 0.45034 -0.06321
 N50 N 0.77162 0.48598 -0.00661
 C51 C 0.70675 0.52181 0.04646
 H52 H 0.70584 0.50755 0.06073
 C53 C 0.68792 0.54297 0.04810
 H54 H 0.67248 0.54509 0.06373
 C55 C 0.72708 0.53570 0.00778
 H56 H 0.74185 0.53238 -0.00835
 C57 C 0.70864 0.55712 0.00870
 H58 H 0.70942 0.57033 -0.00660
 Zn59 Zn 0.74803 0.48730 0.02343
 N60 N 0.72574 0.51850 0.02644
 C61 C 0.76718 0.50559 0.07117
 N62 N 0.76840 0.48558 0.05214
 C63 C 0.78626 0.46467 0.05154
 C64 C 0.80409 0.46344 0.07043
 C65 C 0.78471 0.50515 0.09044
 C66 C 0.70988 0.45929 0.00201
 C67 C 0.69194 0.44045 0.00006
 C68 C 0.70810 0.42203 0.03787
 C69 C 0.72583 0.44125 0.03911
 N70 N 0.72638 0.45934 0.02127
 H71 H 0.75329 0.52233 0.07091
 H72 H 0.78711 0.44931 0.03588
 H73 H 0.81867 0.44703 0.06940
 H74 H 0.78414 0.52146 0.10512
 H75 H 0.71044 0.47420 -0.01160
 H76 H 0.67868 0.44076 -0.01517
 H77 H 0.70747 0.40789 0.05231
 H78 H 0.73866 0.44202 0.05462
 C79 C 0.68873 0.56061 0.02888
 C80 C 0.80876 0.48466 -0.04834
 C81 C 0.69093 0.42175 0.01823
 C82 C 0.80351 0.48401 0.08986
 C83 C -0.04062 0.28856 0.45187
 H84 H -0.05627 0.28938 0.46715
 C85 C -0.04124 0.30663 0.43312
 H86 H -0.05753 0.32133 0.43391
 C87 C 0.00046 0.26937 0.43314
 H88 H 0.01702 0.25536 0.43372
 C89 C 0.00063 0.28711 0.41401
 H90 H 0.01726 0.28651 0.39978
 N91 N -0.01990 0.27056 0.45167
 C92 C -0.04712 0.21175 0.50111
 H93 H -0.03259 0.21238 0.51509
 C94 C -0.06575 0.19355 0.50251
 H95 H -0.06567 0.18018 0.51768
 C96 C -0.06430 0.22767 0.46360
 H97 H -0.06325 0.24059 0.44813
 C98 C -0.08329 0.20969 0.46427
 H99 H -0.09697 0.20893 0.44943
 Zn100 Zn -0.01882 0.25002 0.48034
 N101 N -0.04672 0.22833 0.48189
 C102 C -0.03992 0.27421 0.52995
 N103 N -0.02051 0.27365 0.51047
 C104 C -0.00209 0.29118 0.51108
 C105 C -0.00251 0.31005 0.53204
 C106 C -0.04106 0.29283 0.55131
 C107 C 0.01577 0.20858 0.45767
 C108 C 0.03691 0.18976 0.45618
 C109 C 0.05043 0.21044 0.49596
 C110 C 0.02905 0.22888 0.49672
 N111 N 0.01219 0.22757 0.47778
 H112 H -0.05472 0.26053 0.52880
 H113 H 0.01284 0.29054 0.49512
 H114 H 0.01219 0.32398 0.53230
 H115 H -0.05662 0.29331 0.56669
 H116 H 0.00179 0.20770 0.44317
 H117 H 0.03929 0.17436 0.44044
 H118 H 0.06341 0.21123 0.51143
 H119 H 0.02552 0.24364 0.51291
 C120 C -0.08387 0.19238 0.48382
 C121 C -0.02027 0.30613 0.41422
 C122 C 0.05424 0.19057 0.47565
 C123 C -0.02218 0.31091 0.55231
 C124 C 1.00059 0.71077 0.54681
 H125 H 0.98711 0.71101 0.53181
 C126 C 0.99854 0.69303 0.56577
 H127 H 0.98337 0.67961 0.56546
 C128 C 1.03746 0.72729 0.56496
 H129 H 1.05293 0.74027 0.56419
 C130 C 1.03612 0.70978 0.58430
 H131 H 1.05044 0.70945 0.59852
 N132 N 1.01979 0.72745 0.54674
 C133 C 0.99178 0.78958 0.50087
 H134 H 1.00807 0.78894 0.48630
 C135 C 0.97077 0.80825 0.50066
 H136 H 0.97081 0.82201 0.48585
 C137 C 0.97208 0.77286 0.53839
 H138 H 0.97289 0.75936 0.55333
 C139 C 0.95065 0.79127 0.53889
 H140 H 0.93492 0.79176 0.55409
 Zn141 Zn 1.02211 0.74875 0.51863
 N142 N 0.99200 0.77226 0.51943
 C143 C 1.00702 0.72708 0.47032
 N144 N 1.02542 0.72595 0.48777
 C145 C 1.04553 0.70701 0.48480
 C146 C 1.04766 0.68811 0.46365
 C147 C 1.00843 0.70855 0.44890
 C148 C 1.05014 0.78762 0.54089
 C149 C 1.06910 0.80553 0.54198
 C150 C 1.08928 0.78541 0.50077
 C151 C 1.06994 0.76783 0.50046
 N152 N 1.05080 0.76937 0.52029
 H153 H 0.99081 0.74181 0.47335
 H154 H 1.05959 0.70628 0.49924
 H155 H 1.06345 0.67280 0.46170
 H156 H 0.99342 0.70925 0.43539
 H157 H 1.03440 0.78873 0.55611
 H158 H 1.06804 0.82042 0.55814
 H159 H 1.10406 0.78455 0.48460
 H160 H 1.06975 0.75364 0.48395
 C161 C 0.95004 0.80912 0.51985
 C162 C 1.01655 0.69242 0.58459
 C163 C 1.08867 0.80460 0.52159
 C164 C 1.02881 0.68878 0.44567
 C165 C 0.48823 0.00179 0.29020
 H166 H 0.50398 -0.01343 0.28936
 C167 C 0.46727 0.00231 0.30900
 H168 H 0.46682 -0.01259 0.32267
 C169 C 0.46986 0.04020 0.27382
 H170 H 0.47119 0.05517 0.26039
 C171 C 0.44851 0.04145 0.29238
 H172 H 0.43334 0.05727 0.29306
 N173 N 0.48908 0.02044 0.27300
 C174 C 0.54093 -0.01616 0.20754
 H175 H 0.55570 -0.00236 0.20673
 C176 C 0.54195 -0.03722 0.18861
 H177 H 0.55764 -0.03969 0.17322
 C178 C 0.50171 -0.02903 0.22783
 H179 H 0.48566 -0.02536 0.24266
 C180 C 0.50199 -0.05034 0.20930
 H181 H 0.48624 -0.06310 0.21013
 Zn182 Zn 0.51913 0.01848 0.24932
 N183 N 0.52097 -0.01242 0.22659
 C184 C 0.56652 -0.00176 0.26777
 N185 N 0.54807 0.01880 0.26955
 C186 C 0.54835 0.03938 0.28770
 C187 C 0.56760 0.03973 0.30519
 C188 C 0.58612 -0.00219 0.28494
 C189 C 0.49877 0.04799 0.21172
 C190 C 0.49789 0.06696 0.19389
 C191 C 0.53672 0.08326 0.21016
 C192 C 0.53687 0.06396 0.22776
 N193 N 0.51806 0.04680 0.22816
 H194 H 0.56558 -0.01821 0.25365
 H195 H 0.53316 0.05520 0.28899
 H196 H 0.56731 0.05592 0.31997
 H197 H 0.60036 -0.01890 0.28387
 H198 H 0.48437 0.03379 0.21213
 H199 H 0.48270 0.06747 0.18059
 H200 H 0.55201 0.09654 0.20958
 H201 H 0.55239 0.06228 0.24052
 C202 C 0.52216 -0.05433 0.18937
 C203 C 0.44725 0.02232 0.31012
 C204 C 0.51714 0.08462 0.19297
 C205 C 0.58649 0.01863 0.30398
 C206 C 0.51766 -0.04360 0.70649
 H207 H 0.50310 -0.05761 0.70567
 C208 C 0.53867 -0.04566 0.68753
 H209 H 0.54039 -0.06135 0.67210
 C210 C 0.53252 -0.00516 0.72674
 H211 H 0.52965 0.01105 0.74154
 C212 C 0.55381 -0.00650 0.70818
 H213 H 0.56738 0.00853 0.70890
 N214 N 0.51491 -0.02351 0.72551
 C215 C 0.46115 -0.04789 0.78648
 H216 H 0.44613 -0.03192 0.78750
 C217 C 0.45976 -0.06678 0.80435
 H218 H 0.44355 -0.06547 0.81913
 C219 C 0.50147 -0.06824 0.76697
 H220 H 0.51807 -0.06825 0.75291
 C221 C 0.50085 -0.08754 0.78453
 H222 H 0.51687 -0.10250 0.78381
 Zn223 Zn 0.48402 -0.01996 0.74814
 N224 N 0.48187 -0.04882 0.76840
 C225 C 0.43771 -0.03486 0.72631
 N226 N 0.45596 -0.01712 0.72690
 C227 C 0.45607 0.00235 0.71056
 C228 C 0.43731 0.00454 0.69269
 C229 C 0.41857 -0.03338 0.70866
 C230 C 0.50228 0.00959 0.78908
 C231 C 0.50284 0.03030 0.80807
 C232 C 0.46485 0.05146 0.79161
 C233 C 0.46501 0.03030 0.77285
 N234 N 0.48367 0.01000 0.77187
 H235 H 0.43836 -0.05055 0.73900
 H236 H 0.47111 0.01586 0.71112
 H237 H 0.43779 0.01988 0.67950
 H238 H 0.40437 -0.04780 0.70795
 H239 H 0.51659 -0.00700 0.78812
 H240 H 0.51768 0.02973 0.82176
 H241 H 0.44988 0.06749 0.79243
 H242 H 0.45003 0.02997 0.75940
 C243 C 0.47995 -0.08659 0.80358
 C244 C 0.55676 -0.02678 0.68826
 C245 C 0.48394 0.05139 0.80939
 C246 C 0.41851 -0.01358 0.69160
 C247 C 0.22547 -0.02143 0.50508
 C248 C 0.23640 0.00186 0.49961
 C249 C 0.22022 0.02371 0.49461
 C250 C 0.19310 0.02259 0.49543
 C251 C 0.18245 -0.00099 0.50056
 C252 C 0.19845 -0.02311 0.50536
 C253 C 0.26473 0.00364 0.49972
 C254 C 0.27936 0.00926 0.47714
 C255 C 0.30630 0.01133 0.47719
 C256 C 0.31832 0.00823 0.50034
 C257 C 0.30385 0.00296 0.52320
 C258 C 0.27705 0.00030 0.52261
 H259 H 0.23804 -0.03820 0.50911
 H260 H 0.22874 0.04182 0.49100
 H261 H 0.26971 0.01197 0.45955
 H262 H 0.26555 -0.00350 0.54013
 H263 H 0.16165 -0.00228 0.50026
 H264 H 0.33918 0.00926 0.50041
 C265 C 0.78034 -0.02565 0.50488
 C266 C 0.76533 -0.00319 0.49940
 C267 C 0.77726 0.02003 0.49595
 C268 C 0.80405 0.02108 0.49839
 C269 C 0.81890 -0.00166 0.50351
 C270 C 0.80728 -0.02514 0.50671
 C271 C 0.73700 -0.00375 0.49795
 C272 C 0.72111 -0.00883 0.51992
 C273 C 0.69398 -0.00834 0.51914
 C274 C 0.68302 -0.00348 0.49578
 C275 C 0.69871 0.00141 0.47354
 C276 C 0.72576 0.00145 0.47487
 H277 H 0.77099 -0.04349 0.50769
 H278 H 0.76547 0.03747 0.49228
 H279 H 0.72987 -0.01221 0.53787
 H280 H 0.73810 0.00558 0.45802
 H281 H 0.83975 -0.00123 0.50439
 H282 H 0.66220 -0.00403 0.49476
 C283 C 0.52421 0.27702 1.00120
 C284 C 0.50166 0.26419 0.99726
 C285 C 0.47892 0.27851 0.99156
 C286 C 0.47847 0.30565 0.99001
 C287 C 0.50129 0.31820 0.99371
 C288 C 0.52431 0.30405 0.99907
 C289 C 0.50207 0.23566 0.99850
 C290 C 0.50694 0.22452 1.02172
 C291 C 0.50765 0.19731 1.02292
 C292 C 0.50390 0.18136 1.00041
 C293 C 0.49936 0.19223 0.97693
 C294 C 0.49810 0.21952 0.97625
 H295 H 0.54187 0.26576 1.00506
 H296 H 0.46160 0.26846 0.98838
 H297 H 0.51016 0.23707 1.03881
 H298 H 0.49490 0.22822 0.95824
 H299 H 0.50096 0.33921 0.99307
 H300 H 0.50390 0.16040 1.00132
 C301 C 0.51824 0.72206 0.00699
 C302 C 0.49591 0.73722 0.00156
 C303 C 0.47317 0.72512 -0.00342
 C304 C 0.47251 0.69796 -0.00282
 C305 C 0.49509 0.68297 0.00237
 C306 C 0.51814 0.69478 0.00702
 C307 C 0.49648 0.76571 0.00048
 C308 C 0.49187 0.77710 -0.02267
 C309 C 0.49228 0.80421 -0.02393
 C310 C 0.49685 0.81988 -0.00151
 C311 C 0.50115 0.80879 0.02193
 C312 C 0.50133 0.78155 0.02263
 H313 H 0.53591 0.73147 0.01024
 H314 H 0.45604 0.73691 -0.00780
 H315 H 0.48801 0.76477 -0.03968
 H316 H 0.50436 0.77268 0.04060
 H317 H 0.49460 0.66206 0.00333
 H318 H 0.49768 0.84076 -0.00246
 C319 C 1.00989 0.52125 0.27921
 C320 C 1.00313 0.49919 0.26433
 C321 C 0.99773 0.47656 0.27649
 C322 C 0.99923 0.47573 0.30341
 C323 C 1.00577 0.49806 0.31813
 C324 C 1.01099 0.52096 0.30625
 C325 C 1.00159 0.49976 0.23602
 C326 C 1.02367 0.50417 0.21992
 C327 C 1.02261 0.50379 0.19283
 C328 C 0.99890 0.49973 0.18216
 C329 C 0.97656 0.49556 0.19808
 C330 C 0.97815 0.49538 0.22504
 H331 H 1.01410 0.53866 0.26971
 H332 H 0.99240 0.45961 0.26492
 H333 H 1.04187 0.50697 0.22846
 H334 H 0.96119 0.49182 0.23755
 H335 H 1.00670 0.49764 0.33895
 H336 H 0.99770 0.50038 0.16139
 C337 C -0.00098 0.52264 0.72573
 C338 C -0.00472 0.49934 0.73735
 C339 C -0.01004 0.47696 0.72205
 C340 C -0.01145 0.47761 0.69510
 C341 C -0.00801 0.50115 0.68375
 C342 C -0.00303 0.52383 0.69890
 C343 C -0.00360 0.49841 0.76564
 C344 C -0.02600 0.49395 0.78123
 C345 C -0.02514 0.49258 0.80816
 C346 C -0.00138 0.49521 0.81920
 C347 C 0.02131 0.49931 0.80376
 C348 C 0.01993 0.50132 0.77696
 H349 H 0.00267 0.53999 0.73774
 H350 H -0.01305 0.45907 0.73119
 H351 H -0.04406 0.49153 0.77231
 H352 H 0.03728 0.50426 0.76472
 H353 H -0.00856 0.50168 0.66290
 H354 H -0.00066 0.49467 0.84004
 C355 C 0.16582 0.08477 0.46871
 C356 C 0.14246 0.09035 0.48447
 C357 C 0.13580 0.07393 0.50380
 C358 C 0.15230 0.05197 0.50735
 C359 C 0.07468 0.17000 0.47590
 C360 C 0.18241 0.06277 0.47225
 C361 C 0.12507 0.11275 0.48093
 C362 C 0.10981 0.13118 0.47866
 C363 C 0.09120 0.15233 0.47680
 C364 C 0.17576 0.04607 0.49156
 H365 H 0.17114 0.09734 0.45364
 H366 H 0.11781 0.07811 0.51617
 H367 H 0.14683 0.03975 0.52266
 H368 H 0.20023 0.05860 0.45965
 C369 C 0.58106 0.67055 0.03414
 C370 C 0.58727 0.64680 0.01899
 C371 C 0.57108 0.63894 -0.00012
 C372 C 0.54871 0.65460 -0.00402
 C373 C 0.66800 0.58089 0.02859
 C374 C 0.55863 0.68631 0.03024
 C375 C 0.61004 0.63015 0.02294
 C376 C 0.62874 0.61538 0.02548
 C377 C 0.65015 0.59717 0.02756
 C378 C 0.54214 0.67842 0.01119
 H379 H 0.59344 0.67680 0.04902
 H380 H 0.57575 0.62065 -0.01202
 H381 H 0.53666 0.64820 -0.01913
 H382 H 0.55396 0.70444 0.04238
 C383 C 0.86014 -0.06972 0.53124
 C384 C 0.85693 -0.09359 0.51743
 C385 C 0.83665 -0.09543 0.50110
 C386 C 0.81998 -0.07332 0.49815
 C387 C 0.92868 -0.17116 0.52027
 C388 C 0.84355 -0.04762 0.52830
 C389 C 0.87544 -0.11568 0.51888
 C390 C 0.89163 -0.13367 0.51971
 C391 C 0.91130 -0.15416 0.52022
 C392 C 0.82352 -0.04908 0.51142
 H393 H 0.87579 -0.06807 0.54391
 H394 H 0.83408 -0.11378 0.49020
 H395 H 0.80491 -0.07498 0.48483
 H396 H 0.84653 -0.02931 0.53904
 C397 C 0.43253 0.35748 0.96559
 C398 C 0.40888 0.35329 0.97909
 C399 C 0.40767 0.33265 0.99511
 C400 C 0.43017 0.31662 0.99809
 C401 C 0.32973 0.42336 0.97719
 C402 C 0.45503 0.34152 0.96857
 C403 C 0.38636 0.37124 0.97774
 C404 C 0.36800 0.38701 0.97709
 C405 C 0.34708 0.40628 0.97688
 C406 C 0.45418 0.32116 0.98517
 H407 H 0.43370 0.37342 0.95316
 H408 H 0.38950 0.32934 1.00578
 H409 H 0.42897 0.30127 1.01121
 H410 H 0.47316 0.34527 0.95810
 C411 C 0.82302 0.08542 0.47413
 C412 C 0.84169 0.09215 0.49117
 C413 C 0.84758 0.07600 0.51079
 C414 C 0.83514 0.05306 0.51324
 C415 C 0.89804 0.17246 0.48416
 C416 C 0.81048 0.06244 0.47659
 C417 C 0.85554 0.11512 0.48829
 C418 C 0.86806 0.13382 0.48645
 C419 C 0.88375 0.15502 0.48493
 C420 C 0.81660 0.04590 0.49605
 H421 H 0.81838 0.09774 0.45880
 H422 H 0.86197 0.08103 0.52411
 H423 H 0.83996 0.04096 0.52868
 H424 H 0.79643 0.05732 0.46295
 C425 C 0.42682 0.64823 -0.02558
 C426 C 0.40283 0.65925 -0.01365
 C427 C 0.40141 0.68343 0.00103
 C428 C 0.42399 0.69635 0.00413
 C429 C 0.32321 0.60189 -0.01919
 C430 C 0.44939 0.66107 -0.02248
 C431 C 0.38003 0.64500 -0.01553
 C432 C 0.36149 0.63224 -0.01688
 C433 C 0.34048 0.61632 -0.01823
 C434 C 0.44828 0.68513 -0.00735
 H435 H 0.42814 0.62952 -0.03699
 H436 H 0.38296 0.69207 0.01047
 H437 H 0.42258 0.71472 0.01610
 H438 H 0.46774 0.65213 -0.03185
 C439 C 0.18619 -0.09508 0.50139
 C440 C 0.16250 -0.09443 0.51664
 C441 C 0.15127 -0.07070 0.52918
 C442 C 0.16330 -0.04762 0.52605
 C443 C 0.10666 -0.17539 0.52108
 C444 C 0.19831 -0.07198 0.49826
 C445 C 0.14882 -0.11766 0.51829
 C446 C 0.13642 -0.13653 0.51941
 C447 C 0.12085 -0.15786 0.52043
 C448 C 0.18677 -0.04794 0.51024
 H449 H 0.19498 -0.11331 0.49146
 H450 H 0.13293 -0.06996 0.54102
 H451 H 0.15415 -0.02947 0.53581
 H452 H 0.21623 -0.07278 0.48578
 C453 C 0.57735 0.34997 0.98820
 C454 C 0.59333 0.34443 1.00803
 C455 C 0.58710 0.32525 1.02471
 C456 C 0.56479 0.31184 1.02170
 C457 C 0.67144 0.40323 1.01721
 C458 C 0.55507 0.33666 0.98519
 C459 C 0.61564 0.35908 1.01145
 C460 C 0.63382 0.37220 1.01377
 C461 C 0.65444 0.38851 1.01589
 C462 C 0.54842 0.31758 1.00202
 H463 H 0.58201 0.36474 0.97515
 H464 H 0.59930 0.32088 1.04019
 H465 H 0.56004 0.29741 1.03507
 H466 H 0.54310 0.34121 0.96960
 C467 C 0.53016 0.14966 1.07046
 C468 C 0.51647 0.16038 1.09374
 C469 C 0.50094 0.18395 1.09419
 C470 C 0.49865 0.19644 1.07129
 C471 C 0.51752 0.10294 1.17333
 C472 C 0.52785 0.16206 1.04757
 C473 C 0.51720 0.14623 1.11664
 C474 C 0.51754 0.13345 1.13518
 C475 C 0.51765 0.11745 1.15613
 C476 C 0.51175 0.18538 1.04765
 H477 H 0.54222 0.13142 1.06987
 H478 H 0.49015 0.19234 1.11208
 H479 H 0.48592 0.21423 1.07189
 H480 H 0.53845 0.15328 1.02974
 C481 C -0.01419 0.57867 0.65526
 C482 C 0.00571 0.59454 0.66123
 C483 C 0.02238 0.58777 0.68017
 C484 C 0.01935 0.56498 0.69283
 C485 C 0.01546 0.67307 0.60319
 C486 C -0.01721 0.55593 0.66781
 C487 C 0.00934 0.61713 0.64703
 C488 C 0.01181 0.63544 0.63413
 C489 C 0.01406 0.65611 0.61793
 C490 C -0.00031 0.54866 0.68654
 H491 H -0.02723 0.58373 0.64067
 H492 H 0.03792 0.59987 0.68486
 H493 H 0.03275 0.55977 0.70703
 H494 H -0.03278 0.54399 0.66286
 C495 C 0.47065 0.85221 -0.07156
 C496 C 0.48326 0.84062 -0.09504
 C497 C 0.49802 0.81661 -0.09549
 C498 C 0.50052 0.80444 -0.07245
 C499 C 0.48021 0.89561 -0.17632
 C500 C 0.47315 0.84011 -0.04852
 C501 C 0.48204 0.85415 -0.11829
 C502 C 0.48127 0.86634 -0.13722
 C503 C 0.48060 0.88164 -0.15868
 C504 C 0.48836 0.81623 -0.04865
 H505 H 0.45919 0.87080 -0.07098
 H506 H 0.50799 0.80755 -0.11353
 H507 H 0.51258 0.78621 -0.07311
 H508 H 0.46328 0.84948 -0.03057
 C509 C 0.97635 0.43028 0.35319
 C510 C 0.98720 0.40595 0.34171
 C511 C 1.00121 0.40429 0.31728
 C512 C 1.00470 0.42692 0.30455
 C513 C 0.98068 0.32528 0.39751
 C514 C 0.97984 0.45291 0.34053
 C515 C 0.98492 0.38300 0.35565
 C516 C 0.98331 0.36424 0.36807
 C517 C 0.98175 0.34290 0.38351
 C518 C 0.99430 0.45153 0.31619
 H519 H 0.96547 0.43179 0.37210
 H520 H 1.00981 0.38558 0.30828
 H521 H 1.01615 0.42528 0.28595
 H522 H 0.97129 0.47152 0.34981
 C523 C 0.52737 0.83501 0.08469
 C524 C 0.51210 0.85876 0.09019
 C525 C 0.49317 0.86597 0.07360
 C526 C 0.48958 0.84965 0.05151
 C527 C 0.52153 0.92638 0.16986
 C528 C 0.52378 0.81860 0.06256
 C529 C 0.51580 0.87605 0.11263
 C530 C 0.51825 0.89126 0.13107
 C531 C 0.52036 0.90986 0.15220
 C532 C 0.50492 0.82584 0.04566
 H533 H 0.54212 0.82927 0.09739
 H534 H 0.48118 0.88426 0.07771
 H535 H 0.47461 0.85557 0.03912
 H536 H 0.53603 0.80050 0.05844
 C537 C -0.00562 0.40730 0.66560
 C538 C -0.02158 0.40909 0.64503
 C539 C -0.03516 0.43297 0.64157
 C540 C -0.03237 0.45512 0.65825
 C541 C -0.02322 0.33086 0.57358
 C542 C -0.00283 0.42944 0.68233
 C543 C -0.02287 0.38691 0.62654
 C544 C -0.02347 0.36877 0.61042
 C545 C -0.02360 0.34807 0.59086
 C546 C -0.01590 0.45368 0.67860
 H547 H 0.00511 0.38895 0.66835
 H548 H -0.04754 0.43459 0.62570
 H549 H -0.04295 0.47343 0.65511
 H550 H 0.01021 0.42779 0.69765
 C551 C 0.47464 0.16468 0.91391
 C552 C 0.49082 0.14149 0.90853
 C553 C 0.50991 0.13512 0.92526
 C554 C 0.51273 0.15170 0.94738
 C555 C 0.48392 0.07237 0.82950
 C556 C 0.47745 0.18136 0.93607
 C557 C 0.48784 0.12385 0.88614
 C558 C 0.48597 0.10832 0.86781
 C559 C 0.48453 0.08930 0.84688
 C560 C 0.49645 0.17494 0.95313
 H561 H 0.45975 0.16976 0.90111
 H562 H 0.52259 0.11727 0.92124
 H563 H 0.52781 0.14644 0.95989
 H564 H 0.46450 0.19900 0.94011
 C565 C 1.03686 0.56474 0.35916
 C566 C 1.02470 0.58915 0.35515
 C567 C 1.00908 0.59151 0.33438
 C568 C 1.00519 0.56945 0.31801
 C569 C 1.02935 0.66828 0.42497
 C570 C 1.03297 0.54266 0.34284
 C571 C 1.02700 0.61140 0.37328
 C572 C 1.02833 0.62969 0.38904
 C573 C 1.02920 0.65070 0.40814
 C574 C 1.01679 0.54470 0.32230
 H575 H 1.04896 0.56268 0.37519
 H576 H 0.99944 0.61029 0.33119
 H577 H 0.99239 0.57159 0.30255
 H578 H 1.04244 0.52393 0.34641
 C579 C 1.08567 0.52877 0.16563
 C580 C 1.09061 0.51314 0.14208
 C581 C 1.07355 0.49437 0.13532
 C582 C 1.05155 0.49130 0.15190
 C583 C 1.16975 0.52060 0.07357
 C584 C 1.06363 0.52571 0.18230
 C585 C 1.11295 0.51631 0.12452
 C586 C 1.13127 0.51830 0.10910
 C587 C 1.15225 0.51988 0.09027
 C588 C 1.04625 0.50701 0.17552
 H589 H 1.09873 0.54340 0.17102
 H590 H 1.07723 0.48211 0.11719
 H591 H 1.03879 0.47645 0.14633
 H592 H 1.05994 0.53822 0.20025
 C593 C 0.66756 -0.03485 0.58164
 C594 C 0.64413 -0.01919 0.58732
 C595 C 0.63713 0.00000 0.57086
 C596 C 0.65338 0.00351 0.54877
 C597 C 0.57706 -0.02698 0.66753
 C598 C 0.68390 -0.03135 0.55950
 C599 C 0.62699 -0.02264 0.60987
 C600 C 0.61191 -0.02477 0.62842
 C601 C 0.59346 -0.02637 0.64973
 C602 C 0.67691 -0.01218 0.54276
 H603 H 0.67313 -0.04979 0.59424
 H604 H 0.61910 0.01230 0.57511
 H605 H 0.64767 0.01872 0.53652
 H606 H 0.70178 -0.04386 0.55526
 C607 C -0.06994 0.47015 0.86212
 C608 C -0.09343 0.48444 0.85888
 C609 C -0.09492 0.50054 0.83836
 C610 C -0.07286 0.50273 0.82144
 C611 C -0.17134 0.48372 0.93045
 C612 C -0.04787 0.47233 0.84527
 C613 C -0.11552 0.48359 0.87745
 C614 C -0.13358 0.48326 0.89361
 C615 C -0.15419 0.48331 0.91320
 C616 C -0.04900 0.48891 0.82493
 H617 H -0.06856 0.45764 0.87795
 H618 H -0.11297 0.51180 0.83576
 H619 H -0.07426 0.51585 0.80614
 H620 H -0.02988 0.46118 0.84822
 C621 C 0.33465 0.00546 0.40683
 C622 C 0.35495 0.02193 0.40822
 C623 C 0.35845 0.03597 0.43180
 C624 C 0.34217 0.03309 0.45408
 C625 C 0.42599 0.02345 0.32999
 C626 C 0.31830 0.00257 0.42911
 C627 C 0.37322 0.02320 0.38596
 C628 C 0.38923 0.02377 0.36782
 C629 C 0.40874 0.02387 0.34715
 C630 C 0.32216 0.01604 0.45308
 H631 H 0.33187 -0.00562 0.38871
 H632 H 0.37411 0.04875 0.43310
 H633 H 0.34539 0.04398 0.47217
 H634 H 0.30324 -0.01089 0.42779
 C635 C 0.08645 0.52211 0.82147
 C636 C 0.09277 0.50518 0.84037
 C637 C 0.07617 0.48596 0.84667
 C638 C 0.05316 0.48388 0.83448
 C639 C 0.17239 0.51178 0.89713
 C640 C 0.06339 0.52002 0.80917
 C641 C 0.11568 0.50787 0.85420
 C642 C 0.13424 0.50959 0.86680
 C643 C 0.15520 0.51102 0.88267
 C644 C 0.04636 0.50104 0.81578
 H645 H 0.09912 0.53713 0.81653
 H646 H 0.08088 0.47273 0.86124
 H647 H 0.04066 0.46880 0.83966
 H648 H 0.05856 0.53361 0.79499
 C649 C 0.65078 0.02489 0.42682
 C650 C 0.66182 0.01236 0.40310
 C651 C 0.68560 -0.00281 0.40215
 C652 C 0.69802 -0.00584 0.42496
 C653 C 0.60484 0.01753 0.32351
 C654 C 0.66311 0.02185 0.44961
 C655 C 0.64787 0.01401 0.38016
 C656 C 0.63522 0.01524 0.36160
 C657 C 0.61932 0.01653 0.34066
 C658 C 0.68669 0.00614 0.44901
 H659 H 0.63238 0.03668 0.42779
 H660 H 0.69425 -0.01271 0.38390
 H661 H 0.71603 -0.01824 0.42394
 H662 H 0.65411 0.03161 0.46777
 C663 C 0.92816 0.47386 0.15097
 C664 C 0.90490 0.48698 0.16251
 C665 C 0.90483 0.50206 0.18627
 C666 C 0.92804 0.50438 0.19821
 C667 C 0.82354 0.48435 0.10771
 C668 C 0.95135 0.47620 0.16283
 C669 C 0.88154 0.48598 0.14913
 C670 C 0.86257 0.48532 0.13700
 C671 C 0.84113 0.48473 0.12170
 C672 C 0.95162 0.49175 0.18642
 H673 H 0.92844 0.46215 0.13258
 H674 H 0.88696 0.51242 0.19530
 H675 H 0.92769 0.51670 0.21623
 H676 H 0.96913 0.46595 0.15348
 C677 C 0.34827 0.01546 0.57704
 C678 C 0.34271 -0.00436 0.59314
 C679 C 0.32399 -0.02154 0.58672
 C680 C 0.31106 -0.01905 0.56412
 C681 C 0.40024 -0.01252 0.67199
 C682 C 0.33543 0.01796 0.55448
 C683 C 0.35698 -0.00735 0.61569
 C684 C 0.36979 -0.00939 0.63405
 C685 C 0.38577 -0.01128 0.65486
 C686 C 0.31683 0.00061 0.54764
 H687 H 0.36269 0.02889 0.58183
 H688 H 0.31963 -0.03703 0.59900
 H689 H 0.29699 -0.03282 0.55924
 H690 H 0.33998 0.03354 0.54241
   
