data_POSCAR
  _audit_creation_date              2014-09-24
  _audit_creation_method            'ToBaCCo'
  _symmetry_space_group_name_H-M    'P1'
  _symmetry_Int_Tables_number       1
  _symmetry_cell_setting            triclinic
  loop_
  _symmetry_equiv_pos_as_xyz
 x,y,z
_cell_length_a 39.5560
_cell_length_b 39.6733
_cell_length_c 37.7146
_cell_angle_alpha 89.694000
_cell_angle_beta 90.034500
_cell_angle_gamma 90.058800
loop_
  _atom_site_label
  _atom_site_type_symbol
  _atom_site_fract_x
  _atom_site_fract_y
  _atom_site_fract_z
C1 C 1.27684 0.21408 0.26831
 C2 C 1.25178 0.23212 0.25021
 C3 C 1.22687 0.21498 0.23126
 C4 C 1.22704 0.17968 0.22966
 C5 C 1.25201 0.16165 0.24839
 C6 C 1.27727 0.17845 0.26824
 C7 C 1.25166 0.26920 0.25130
 C8 C 1.27665 0.28746 0.23333
 C9 C 1.27682 0.32309 0.23335
 C10 C 1.25135 0.33968 0.25303
 C11 C 1.22644 0.32143 0.27165
 C12 C 1.22654 0.28613 0.27009
 H13 H 1.29470 0.22835 0.28396
 H14 H 1.20748 0.22928 0.21756
 H15 H 1.29467 0.27334 0.21779
 H16 H 1.20719 0.27166 0.28369
 H17 H 1.25258 0.13453 0.24566
 H18 H 1.25171 0.36680 0.25571
 C19 C 0.77310 -0.28637 0.26724
 C20 C 0.74762 -0.26950 0.24857
 C21 C 0.72303 -0.28780 0.23038
 C22 C 0.72387 -0.32312 0.23030
 C23 C 0.74934 -0.33997 0.24953
 C24 C 0.77419 -0.32194 0.26875
 C25 C 0.74686 -0.23244 0.24818
 C26 C 0.77154 -0.21431 0.22960
 C27 C 0.77144 -0.17890 0.22964
 C28 C 0.74652 -0.16187 0.24923
 C29 C 0.72188 -0.17990 0.26844
 C30 C 0.72198 -0.21529 0.26723
 H31 H 0.79240 -0.27120 0.27979
 H32 H 0.70383 -0.27436 0.21546
 H33 H 0.79038 -0.22791 0.21452
 H34 H 0.70296 -0.22964 0.28146
 H35 H 0.74831 -0.36718 0.25081
 H36 H 0.74701 -0.13460 0.25044
 C37 C 0.77188 0.21520 -0.22798
 C38 C 0.74708 0.23209 -0.24765
 C39 C 0.72249 0.21369 -0.26592
 C40 C 0.72267 0.17829 -0.26505
 C41 C 0.74750 0.16154 -0.24484
 C42 C 0.77209 0.17983 -0.22600
 C43 C 0.74716 0.26913 -0.24958
 C44 C 0.77234 0.28594 -0.26879
 C45 C 0.77299 0.32151 -0.27112
 C46 C 0.74791 0.33958 -0.25237
 C47 C 0.72276 0.32281 -0.23262
 C48 C 0.72240 0.28749 -0.23178
 H49 H 0.79102 0.22973 -0.21427
 H50 H 0.70390 0.22707 -0.28173
 H51 H 0.79182 0.27080 -0.28097
 H52 H 0.70351 0.27413 -0.21634
 H53 H 0.74718 0.13429 -0.24314
 H54 H 0.74650 0.36674 -0.25433
 C55 C 1.27339 -0.28688 -0.23145
 C56 C 1.24832 -0.26866 -0.24932
 C57 C 1.22294 -0.28562 -0.26774
 C58 C 1.22267 -0.32091 -0.26911
 C59 C 1.24764 -0.33913 -0.25061
 C60 C 1.27338 -0.32251 -0.23128
 C61 C 1.24899 -0.23161 -0.24927
 C62 C 1.27400 -0.21440 -0.26831
 C63 C 1.27455 -0.17902 -0.26931
 C64 C 1.25018 -0.16103 -0.24995
 C65 C 1.22513 -0.17811 -0.23033
 C66 C 1.22456 -0.21352 -0.23052
 H67 H 1.29172 -0.27272 -0.21629
 H68 H 1.20362 -0.27117 -0.28139
 H69 H 1.29291 -0.22871 -0.28255
 H70 H 1.20569 -0.22717 -0.21533
 H71 H 1.24789 -0.36626 -0.25323
 H72 H 1.25009 -0.13374 -0.25095
 C73 C 0.21356 0.27379 0.73156
 C74 C 0.23097 0.24899 0.75048
 C75 C 0.21310 0.22404 0.76894
 C76 C 0.17735 0.22362 0.76920
 C77 C 0.16027 0.24881 0.74937
 C78 C 0.17816 0.27365 0.73029
 C79 C 0.26816 0.24906 0.75070
 C80 C 0.28583 0.27377 0.76945
 C81 C 0.32157 0.27432 0.77000
 C82 C 0.33888 0.24947 0.75020
 C83 C 0.32118 0.22490 0.73078
 C84 C 0.28577 0.22461 0.73176
 H85 H 0.22775 0.29307 0.71753
 H86 H 0.22762 0.20620 0.78448
 H87 H 0.27115 0.29131 0.78497
 H88 H 0.27172 0.20554 0.71747
 H89 H 0.13304 0.24826 0.74688
 H90 H 0.36613 0.25013 0.74796
 C91 C 0.71490 0.77664 0.73244
 C92 C 0.73296 0.75171 0.75053
 C93 C 0.71582 0.72650 0.76920
 C94 C 0.68020 0.72600 0.77087
 C95 C 0.66234 0.75120 0.75183
 C96 C 0.67923 0.77666 0.73218
 C97 C 0.77016 0.75174 0.74951
 C98 C 0.78830 0.77651 0.76774
 C99 C 0.82380 0.77652 0.76751
 C100 C 0.84093 0.75171 0.74798
 C101 C 0.82295 0.72690 0.72921
 C102 C 0.78745 0.72696 0.73049
 H103 H 0.72921 0.79472 0.71697
 H104 H 0.73079 0.70691 0.78163
 H105 H 0.77462 0.79513 0.78299
 H106 H 0.77311 0.70830 0.71593
 H107 H 0.63524 0.75272 0.75466
 H108 H 0.86831 0.75166 0.74744
 C109 C 0.71582 0.27338 0.22931
 C110 C 0.73279 0.24843 0.24867
 C111 C 0.71437 0.22379 0.26699
 C112 C 0.67886 0.22406 0.26648
 C113 C 0.66203 0.24903 0.24656
 C114 C 0.68034 0.27366 0.22763
 C115 C 0.76994 0.24815 0.24979
 C116 C 0.78739 0.27313 0.26842
 C117 C 0.82288 0.27298 0.26980
 C118 C 0.84068 0.24780 0.25152
 C119 C 0.82339 0.22281 0.23234
 C120 C 0.78789 0.22300 0.23202
 H121 H 0.73038 0.29250 0.21547
 H122 H 0.72782 0.20503 0.28249
 H123 H 0.77319 0.29211 0.28262
 H124 H 0.77409 0.20424 0.21704
 H125 H 0.63468 0.24875 0.24507
 H126 H 0.86806 0.24769 0.25214
 C127 C 0.21533 0.77618 0.23324
 C128 C 0.23356 0.75128 0.25120
 C129 C 0.21659 0.72591 0.26981
 C130 C 0.18098 0.72522 0.27156
 C131 C 0.16295 0.75039 0.25266
 C132 C 0.17966 0.77600 0.23306
 C133 C 0.27076 0.75151 0.25010
 C134 C 0.28879 0.77636 0.26832
 C135 C 0.32430 0.77656 0.26803
 C136 C 0.34154 0.75183 0.24847
 C137 C 0.32364 0.72693 0.22973
 C138 C 0.28815 0.72683 0.23105
 H139 H 0.22951 0.79438 0.21781
 H140 H 0.23168 0.70636 0.28214
 H141 H 0.27503 0.79489 0.28360
 H142 H 0.27387 0.70811 0.21650
 H143 H 0.13585 0.75178 0.25559
 H144 H 0.36891 0.75193 0.24789
 O145 O 1.05833 0.01704 0.04527
 O146 O 0.94285 -0.01928 0.04491
 O147 O 0.98339 0.05645 0.04555
 O148 O 1.01779 -0.05893 0.04551
 O149 O 0.93648 0.03751 0.02653
 O150 O 1.06475 -0.03963 0.02678
 O151 O 0.96109 -0.06570 0.02499
 O152 O 1.04008 0.06360 0.02519
 C153 C 1.05554 0.04770 0.04870
 C154 C 0.94558 -0.04996 0.04838
 C155 C 0.95275 0.05286 0.04976
 C156 C 1.04843 -0.05539 0.04985
 O157 O 1.05847 -0.01866 -0.04237
 O158 O 0.94301 0.01737 -0.04267
 O159 O 1.01778 0.05708 -0.04279
 O160 O 0.98351 -0.05846 -0.04297
 O161 O 0.93655 -0.03953 -0.02423
 O162 O 1.06476 0.03802 -0.02393
 O163 O 1.04019 -0.06530 -0.02244
 O164 O 0.96111 0.06376 -0.02246
 Co165 Co 1.05565 -0.00081 0.00143
 Co166 Co 0.94566 -0.00098 0.00114
 Co167 Co 1.00059 0.05412 0.00137
 Co168 Co 1.00064 -0.05601 0.00128
 O169 O 1.00064 -0.00093 0.00130
 C170 C 1.05557 -0.04929 -0.04592
 C171 C 0.94568 0.04808 -0.04599
 C172 C 1.04843 0.05369 -0.04705
 C173 C 0.95288 -0.05494 -0.04733
 O174 O 1.05664 0.51735 0.54393
 O175 O 0.94085 0.48277 0.54324
 O176 O 0.98097 0.55772 0.54282
 O177 O 1.01644 0.44243 0.54387
 O178 O 0.93433 0.53937 0.52288
 O179 O 1.06336 0.46073 0.52445
 O180 O 0.95973 0.43602 0.52446
 O181 O 1.03798 0.56408 0.52429
 C182 C 1.05327 0.54793 0.54779
 C183 C 0.94408 0.45217 0.54749
 C184 C 0.95021 0.55481 0.54628
 C185 C 1.04716 0.44531 0.54778
 O186 O 1.05718 0.48253 0.45594
 O187 O 0.94150 0.51742 0.45480
 O188 O 1.01740 0.55761 0.45529
 O189 O 0.98131 0.44248 0.45574
 O190 O 0.93449 0.46091 0.47502
 O191 O 1.06392 0.53912 0.47555
 O192 O 1.03803 0.43584 0.47524
 O193 O 0.96038 0.56415 0.47376
 Co194 Co 1.05421 0.49994 0.49992
 Co195 Co 0.94386 0.50011 0.49904
 Co196 Co 0.99916 0.55494 0.49908
 Co197 Co 0.99889 0.44516 0.49979
 O198 O 0.99903 0.50004 0.49945
 C199 C 1.05387 0.45193 0.45208
 C200 C 0.94493 0.54799 0.45054
 C201 C 1.04816 0.55459 0.45192
 C202 C 0.95060 0.44550 0.45182
 O203 O 0.55862 0.01821 0.54461
 O204 O 0.44286 -0.01671 0.54474
 O205 O 0.48324 0.05845 0.54430
 O206 O 0.51825 -0.05691 0.54502
 O207 O 0.43639 0.03994 0.52493
 O208 O 0.56512 -0.03844 0.52549
 O209 O 0.46142 -0.06339 0.52558
 O210 O 0.54006 0.06491 0.52491
 C211 C 0.55538 0.04880 0.54841
 C212 C 0.44599 -0.04732 0.54881
 C213 C 0.45253 0.05539 0.54817
 C214 C 0.54897 -0.05387 0.54889
 O215 O 0.55854 -0.01695 0.45676
 O216 O 0.44297 0.01840 0.45650
 O217 O 0.51856 0.05833 0.45633
 O218 O 0.48292 -0.05687 0.45699
 O219 O 0.43615 -0.03821 0.47626
 O220 O 0.56532 0.03969 0.47593
 O221 O 0.53970 -0.06354 0.47649
 O222 O 0.46176 0.06506 0.47562
 Co223 Co 0.55588 0.00064 0.50069
 Co224 Co 0.44562 0.00084 0.50062
 Co225 Co 0.50089 0.05570 0.50033
 Co226 Co 0.50059 -0.05419 0.50099
 O227 O 0.50074 0.00075 0.50066
 C228 C 0.55512 -0.04753 0.45300
 C229 C 0.44625 0.04899 0.45238
 C230 C 0.54925 0.05509 0.45246
 C231 C 0.45223 -0.05366 0.45304
 O232 O 0.55675 0.51739 0.04277
 O233 O 0.44099 0.48301 0.04347
 O234 O 0.48054 0.55775 0.04215
 O235 O 0.51722 0.44278 0.04323
 O236 O 0.43387 0.53941 0.02239
 O237 O 0.56371 0.46088 0.02269
 O238 O 0.46020 0.43616 0.02516
 O239 O 0.53743 0.56414 0.02369
 C240 C 0.55317 0.54794 0.04686
 C241 C 0.44464 0.45251 0.04814
 C242 C 0.44978 0.55494 0.04568
 C243 C 0.54800 0.44555 0.04643
 O244 O 0.55647 0.48304 -0.04537
 O245 O 0.44060 0.51675 -0.04530
 O246 O 0.51674 0.55755 -0.04550
 O247 O 0.48054 0.44230 -0.04421
 O248 O 0.43390 0.46028 -0.02420
 O249 O 0.56341 0.53962 -0.02530
 O250 O 0.53750 0.43620 -0.02608
 O251 O 0.45980 0.56371 -0.02708
 Co252 Co 0.55396 0.50021 -0.00129
 Co253 Co 0.44346 0.49988 -0.00093
 Co254 Co 0.49864 0.55489 -0.00164
 Co255 Co 0.49885 0.44526 -0.00052
 O256 O 0.49872 0.50006 -0.00110
 C257 C 0.55297 0.45247 -0.04941
 C258 C 0.44410 0.54729 -0.04995
 C259 C 0.54751 0.55493 -0.04891
 C260 C 0.44976 0.44489 -0.04760
 C261 C 1.16938 0.15787 0.15269
 C262 C 1.15430 0.12804 0.16472
 C263 C 1.16280 0.11505 0.19815
 C264 C 1.18638 0.13182 0.21942
 C265 C 1.20172 0.16182 0.20747
 C266 C 1.19291 0.17465 0.17386
 C267 C 1.13097 0.11042 0.14208
 C268 C 1.11214 0.09596 0.12212
 C269 C 1.09109 0.07922 0.09763
 C270 C 1.07417 0.06490 0.07578
 H271 H 1.16320 0.16801 0.12675
 H272 H 1.15133 0.09191 0.20769
 H273 H 1.19241 0.12151 0.24530
 H274 H 1.20466 0.19737 0.16364
 C275 C 1.16497 0.65757 0.65394
 C276 C 1.14973 0.62782 0.66597
 C277 C 1.15801 0.61486 0.69947
 C278 C 1.18159 0.63157 0.72080
 C279 C 1.19715 0.66144 0.70881
 C280 C 1.18850 0.67426 0.67515
 C281 C 1.12664 0.61018 0.64313
 C282 C 1.10813 0.59576 0.62285
 C283 C 1.08758 0.57913 0.59784
 C284 C 1.07119 0.56494 0.57549
 H285 H 1.15897 0.66767 0.62794
 H286 H 1.14642 0.59178 0.70899
 H287 H 1.18752 0.62126 0.74671
 H288 H 1.20044 0.69687 0.66490
 C289 C 0.68469 0.11360 0.67281
 C290 C 0.65131 0.12499 0.66999
 C291 C 0.64082 0.15293 0.68960
 C292 C 0.66380 0.16982 0.71142
 C293 C 0.69761 0.15899 0.71384
 C294 C 0.70769 0.13043 0.69461
 C295 C 0.62841 0.10888 0.64571
 C296 C 0.61004 0.09543 0.62454
 C297 C 0.58962 0.07957 0.59885
 C298 C 0.57329 0.06575 0.57619
 H299 H 0.69312 0.09209 0.65760
 H300 H 0.61505 0.16195 0.68763
 H301 H 0.65517 0.19146 0.72626
 H302 H 0.73362 0.12175 0.69553
 C303 C 0.68488 0.61297 0.16793
 C304 C 0.65123 0.62380 0.16669
 C305 C 0.64096 0.65112 0.18737
 C306 C 0.66439 0.66794 0.20871
 C307 C 0.69845 0.65768 0.20957
 C308 C 0.70834 0.62975 0.18925
 C309 C 0.62776 0.60777 0.14295
 C310 C 0.60892 0.59440 0.12220
 C311 C 0.58799 0.57861 0.09691
 C312 C 0.57131 0.56484 0.07449
 H313 H 0.69314 0.59196 0.15190
 H314 H 0.61498 0.65970 0.18662
 H315 H 0.65591 0.68908 0.22441
 H316 H 0.73443 0.62150 0.18901
 C317 C 0.85472 -0.15428 0.18667
 C318 C 0.84503 -0.12634 0.16631
 C319 C 0.81164 -0.11476 0.16772
 C320 C 0.78785 -0.13139 0.18893
 C321 C 0.79716 -0.15994 0.20893
 C322 C 0.83097 -0.17097 0.20789
 C323 C 0.86887 -0.11035 0.14280
 C324 C 0.88811 -0.09699 0.12233
 C325 C 0.90959 -0.08115 0.09745
 C326 C 0.92679 -0.06722 0.07544
 H327 H 0.88050 -0.16344 0.18580
 H328 H 0.80384 -0.09324 0.15193
 H329 H 0.76197 -0.12254 0.18886
 H330 H 0.83901 -0.19257 0.22338
 C331 C 0.83138 0.38874 0.69403
 C332 C 0.84609 0.37231 0.66524
 C333 C 0.83713 0.33906 0.65784
 C334 C 0.81337 0.32227 0.67887
 C335 C 0.79782 0.33843 0.70800
 C336 C 0.80754 0.37208 0.71520
 C337 C 0.86927 0.38986 0.64224
 C338 C 0.88798 0.40427 0.62200
 C339 C 0.90888 0.42094 0.59716
 C340 C 0.92565 0.43516 0.57499
 H341 H 0.83825 0.41452 0.70009
 H342 H 0.84804 0.32623 0.63528
 H343 H 0.80623 0.29714 0.67081
 H344 H 0.79774 0.38555 0.73782
 C345 C 0.33977 -0.11493 0.69967
 C346 C 0.34767 -0.12730 0.66598
 C347 C 0.33185 -0.15649 0.65360
 C348 C 0.30818 -0.17328 0.67470
 C349 C 0.29997 -0.16110 0.70859
 C350 C 0.31604 -0.13173 0.72089
 C351 C 0.37110 -0.10965 0.64336
 C352 C 0.38994 -0.09523 0.62328
 C353 C 0.41090 -0.07858 0.59850
 C354 C 0.42765 -0.06438 0.57633
 H355 H 0.35182 -0.09228 0.70946
 H356 H 0.33757 -0.16612 0.62745
 H357 H 0.29585 -0.19548 0.66423
 H358 H 0.31046 -0.12194 0.74698
 C359 C 0.31798 0.39138 0.17924
 C360 C 0.34873 0.37627 0.17047
 C361 C 0.35645 0.34433 0.18387
 C362 C 0.33322 0.32714 0.20523
 C363 C 0.30145 0.34148 0.21362
 C364 C 0.29464 0.37434 0.20066
 C365 C 0.37153 0.39276 0.14619
 C366 C 0.38992 0.40631 0.12498
 C367 C 0.41041 0.42212 0.09915
 C368 C 0.42678 0.43580 0.07628
 H369 H 0.31163 0.41605 0.16874
 H370 H 0.38035 0.33250 0.17750
 H371 H 0.34086 0.30289 0.21568
 H372 H 0.27056 0.38647 0.20510
 C373 C 0.83040 0.15839 -0.14927
 C374 C 0.84573 0.12882 -0.16125
 C375 C 0.83718 0.11590 -0.19455
 C376 C 0.81330 0.13247 -0.21575
 C377 C 0.79768 0.16219 -0.20384
 C378 C 0.80656 0.17497 -0.17037
 C379 C 0.86936 0.11133 -0.13871
 C380 C 0.88844 0.09687 -0.11889
 C381 C 0.90976 0.08001 -0.09460
 C382 C 0.92687 0.06554 -0.07291
 H383 H 0.83663 0.16847 -0.12342
 H384 H 0.84885 0.09296 -0.20405
 H385 H 0.80726 0.12222 -0.24154
 H386 H 0.79462 0.19749 -0.16022
 C387 C 0.83324 0.61109 0.30276
 C388 C 0.84759 0.62727 0.33194
 C389 C 0.83815 0.66024 0.33989
 C390 C 0.81430 0.67701 0.31901
 C391 C 0.79912 0.66112 0.28945
 C392 C 0.80929 0.62774 0.28171
 C393 C 0.87081 0.60975 0.35490
 C394 C 0.88950 0.59548 0.37526
 C395 C 0.91028 0.57902 0.40034
 C396 C 0.92686 0.56495 0.42275
 H397 H 0.84046 0.58551 0.29630
 H398 H 0.84875 0.67285 0.36277
 H399 H 0.80676 0.70186 0.32753
 H400 H 0.79975 0.61451 0.25880
 C401 C 0.35694 0.15781 0.31797
 C402 C 0.34945 0.12574 0.33118
 C403 C 0.31882 0.11039 0.32228
 C404 C 0.29538 0.12729 0.30087
 C405 C 0.30197 0.16025 0.28805
 C406 C 0.33362 0.17487 0.29661
 C407 C 0.37239 0.10929 0.35533
 C408 C 0.39091 0.09571 0.37639
 C409 C 0.41158 0.07980 0.40199
 C410 C 0.42813 0.06597 0.42461
 H411 H 0.38075 0.16983 0.32444
 H412 H 0.31263 0.08561 0.33264
 H413 H 0.27140 0.11496 0.29632
 H414 H 0.34109 0.19923 0.28629
 C415 C 0.35384 0.65603 -0.18342
 C416 C 0.34626 0.62406 -0.17000
 C417 C 0.31525 0.60908 -0.17807
 C418 C 0.29154 0.62624 -0.19889
 C419 C 0.29825 0.65909 -0.21194
 C420 C 0.33024 0.67335 -0.20419
 C421 C 0.36952 0.60740 -0.14638
 C422 C 0.38827 0.59369 -0.12566
 C423 C 0.40917 0.57772 -0.10034
 C424 C 0.42587 0.56397 -0.07781
 H425 H 0.37794 0.66778 -0.17756
 H426 H 0.30900 0.58439 -0.16750
 H427 H 0.26730 0.61420 -0.20281
 H428 H 0.33778 0.69761 -0.21474
 C429 C 1.18685 -0.11438 -0.16745
 C430 C 1.15330 -0.12548 -0.16559
 C431 C 1.14287 -0.15300 -0.18591
 C432 C 1.16604 -0.16972 -0.20757
 C433 C 1.19999 -0.15915 -0.20910
 C434 C 1.21006 -0.13105 -0.18908
 C435 C 1.13008 -0.10943 -0.14168
 C436 C 1.11139 -0.09601 -0.12086
 C437 C 1.09057 -0.08014 -0.09560
 C438 C 1.07389 -0.06629 -0.07329
 H439 H 1.19523 -0.09320 -0.15169
 H440 H 1.11695 -0.16179 -0.18468
 H441 H 1.15743 -0.19099 -0.22303
 H442 H 1.23608 -0.12257 -0.18935
 C443 C 1.16829 0.34272 0.34827
 C444 C 1.15303 0.37241 0.33613
 C445 C 1.16158 0.38547 0.30275
 C446 C 1.18538 0.36891 0.28162
 C447 C 1.20090 0.33906 0.29368
 C448 C 1.19204 0.32617 0.32725
 C449 C 1.12951 0.38983 0.35866
 C450 C 1.11055 0.40412 0.37856
 C451 C 1.08939 0.42068 0.40303
 C452 C 1.07244 0.43486 0.42491
 H453 H 1.16209 0.33253 0.37417
 H454 H 1.14998 0.40850 0.29313
 H455 H 1.19144 0.37927 0.25578
 H456 H 1.20392 0.30357 0.33754
 C457 C 0.65823 -0.11522 0.30070
 C458 C 0.65038 -0.12804 0.33437
 C459 C 0.66560 -0.15783 0.34625
 C460 C 0.68867 -0.17471 0.32472
 C461 C 0.69686 -0.16204 0.29087
 C462 C 0.68135 -0.13211 0.27904
 C463 C 0.62770 -0.11026 0.35747
 C464 C 0.60948 -0.09572 0.37791
 C465 C 0.58920 -0.07895 0.40301
 C466 C 0.57296 -0.06466 0.42537
 H467 H 0.64665 -0.09211 0.29128
 H468 H 0.65993 -0.16782 0.37238
 H469 H 0.70060 -0.19734 0.33486
 H470 H 0.68692 -0.12191 0.25301
 C471 C 0.64000 0.34834 -0.18938
 C472 C 0.65017 0.37626 -0.16950
 C473 C 0.68366 0.38754 -0.17142
 C474 C 0.70707 0.37064 -0.19260
 C475 C 0.69730 0.34212 -0.21212
 C476 C 0.66339 0.33139 -0.21060
 C477 C 0.62683 0.39241 -0.14578
 C478 C 0.60813 0.40590 -0.12501
 C479 C 0.58741 0.42180 -0.09966
 C480 C 0.57092 0.43561 -0.07716
 H481 H 0.61415 0.33938 -0.18808
 H482 H 0.69184 0.40902 -0.15599
 H483 H 0.73305 0.37926 -0.19286
 H484 H 0.65500 0.30978 -0.22566
 C485 C 1.10954 0.18185 -0.17652
 C486 C 1.12494 0.15124 -0.16777
 C487 C 1.15702 0.14390 -0.18104
 C488 C 1.17400 0.16733 -0.20235
 C489 C 1.15931 0.19891 -0.21083
 C490 C 1.12637 0.20538 -0.19788
 C491 C 1.10853 0.12812 -0.14378
 C492 C 1.09496 0.10945 -0.12285
 C493 C 1.07907 0.08861 -0.09738
 C494 C 1.06528 0.07193 -0.07482
 H495 H 1.08477 0.18791 -0.16610
 H496 H 1.16909 0.12012 -0.17468
 H497 H 1.19835 0.15996 -0.21274
 H498 H 1.11400 0.22932 -0.20233
 C499 C 1.11337 0.66683 0.30569
 C500 C 1.12959 0.65224 0.33488
 C501 C 1.16286 0.66123 0.34275
 C502 C 1.17986 0.68491 0.32180
 C503 C 1.16389 0.70038 0.29230
 C504 C 1.13024 0.69060 0.28460
 C505 C 1.11181 0.62914 0.35781
 C506 C 1.09718 0.61051 0.37799
 C507 C 1.08020 0.58969 0.40270
 C508 C 1.06566 0.57297 0.42470
 H509 H 1.08758 0.65993 0.29926
 H510 H 1.17554 0.65041 0.36560
 H511 H 1.20497 0.69209 0.33021
 H512 H 1.11694 0.70034 0.26168
 C513 C 0.61416 0.18539 0.32880
 C514 C 0.62557 0.15207 0.33117
 C515 C 0.65351 0.14186 0.31121
 C516 C 0.67039 0.16506 0.28947
 C517 C 0.65956 0.19881 0.28751
 C518 C 0.63099 0.20862 0.30710
 C519 C 0.60948 0.12891 0.35536
 C520 C 0.59605 0.11031 0.37645
 C521 C 0.58019 0.08963 0.40207
 C522 C 0.56632 0.07312 0.42470
 H523 H 0.59266 0.19360 0.34429
 H524 H 0.66254 0.11613 0.31283
 H525 H 0.69203 0.15664 0.27435
 H526 H 0.62230 0.23448 0.30651
 C527 C 0.66174 0.66223 -0.15781
 C528 C 0.62846 0.65330 -0.16572
 C529 C 0.61230 0.66794 -0.19493
 C530 C 0.62927 0.69165 -0.21603
 C531 C 0.66295 0.70131 -0.20832
 C532 C 0.67882 0.68585 -0.17875
 C533 C 0.61064 0.63016 -0.14286
 C534 C 0.59606 0.61144 -0.12273
 C535 C 0.57920 0.59046 -0.09807
 C536 C 0.56481 0.57357 -0.07611
 H537 H 0.67436 0.65138 -0.13494
 H538 H 0.58651 0.66109 -0.20140
 H539 H 0.61604 0.70140 -0.23897
 H540 H 0.70394 0.69296 -0.17031
 C541 C 0.84871 -0.14129 -0.18828
 C542 C 0.87662 -0.15146 -0.16807
 C543 C 0.88801 -0.18479 -0.16996
 C544 C 0.87128 -0.20803 -0.19148
 C545 C 0.84283 -0.19825 -0.21140
 C546 C 0.83193 -0.16451 -0.20984
 C547 C 0.89272 -0.12827 -0.14416
 C548 C 0.90622 -0.10972 -0.12326
 C549 C 0.92216 -0.08916 -0.09778
 C550 C 0.93601 -0.07279 -0.07519
 H551 H 0.83966 -0.11556 -0.18702
 H552 H 0.90947 -0.19298 -0.15427
 H553 H 0.88001 -0.23389 -0.19170
 H554 H 0.81035 -0.15613 -0.22520
 C555 C 0.84693 0.35616 0.31241
 C556 C 0.87418 0.34636 0.33377
 C557 C 0.88525 0.31287 0.33345
 C558 C 0.86891 0.28914 0.31222
 C559 C 0.84120 0.29859 0.29102
 C560 C 0.83054 0.33244 0.29114
 C561 C 0.89010 0.37017 0.35709
 C562 C 0.90356 0.38922 0.37749
 C563 C 0.91957 0.41032 0.40238
 C564 C 0.93355 0.42713 0.42450
 H565 H 0.83816 0.38201 0.31247
 H566 H 0.90620 0.30499 0.35004
 H567 H 0.87741 0.26321 0.31311
 H568 H 0.80953 0.34055 0.27478
 C569 C 0.34855 -0.14114 0.31241
 C570 C 0.37645 -0.15114 0.33271
 C571 C 0.38812 -0.18437 0.33076
 C572 C 0.37165 -0.20769 0.30911
 C573 C 0.34317 -0.19809 0.28913
 C574 C 0.33202 -0.16444 0.29072
 C575 C 0.39228 -0.12785 0.35673
 C576 C 0.40557 -0.10916 0.37765
 C577 C 0.42134 -0.08839 0.40306
 C578 C 0.43517 -0.07180 0.42550
 H579 H 0.33929 -0.11548 0.31370
 H580 H 0.40960 -0.19243 0.34651
 H581 H 0.38057 -0.23348 0.30885
 H582 H 0.31042 -0.15618 0.27532
 C583 C 0.34118 0.35361 -0.18003
 C584 C 0.37322 0.34633 -0.16653
 C585 C 0.38884 0.31589 -0.17515
 C586 C 0.37226 0.29246 -0.19664
 C587 C 0.33937 0.29889 -0.20984
 C588 C 0.32445 0.33030 -0.20146
 C589 C 0.38945 0.36944 -0.14261
 C590 C 0.40288 0.38821 -0.12186
 C591 C 0.41870 0.40928 -0.09676
 C592 C 0.43256 0.42624 -0.07466
 H593 H 0.32896 0.37728 -0.17380
 H594 H 0.41361 0.30987 -0.16459
 H595 H 0.38480 0.26865 -0.20104
 H596 H 0.30014 0.33766 -0.21205
 C597 C 1.11126 -0.18311 0.17888
 C598 C 1.12611 -0.15212 0.17049
 C599 C 1.15800 -0.14424 0.18400
 C600 C 1.17535 -0.16749 0.20519
 C601 C 1.16121 -0.19944 0.21331
 C602 C 1.12846 -0.20648 0.20011
 C603 C 1.10934 -0.12918 0.14657
 C604 C 1.09549 -0.11069 0.12569
 C605 C 1.07930 -0.09005 0.10024
 C606 C 1.06534 -0.07351 0.07768
 H607 H 1.08665 -0.18961 0.16827
 H608 H 1.16964 -0.12017 0.17790
 H609 H 1.19954 -0.15974 0.21575
 H610 H 1.11654 -0.23072 0.20425
 C611 C 1.11353 0.33800 0.69859
 C612 C 1.12630 0.34625 0.66501
 C613 C 1.15585 0.33082 0.65288
 C614 C 1.17262 0.30726 0.67413
 C615 C 1.16009 0.29877 0.70793
 C616 C 1.13032 0.31438 0.71995
 C617 C 1.10881 0.36973 0.64231
 C618 C 1.09457 0.38868 0.62219
 C619 C 1.07815 0.40982 0.59739
 C620 C 1.06411 0.42676 0.57524
 H621 H 1.09060 0.34973 0.70819
 H622 H 1.16580 0.33680 0.62683
 H623 H 1.19514 0.29528 0.66386
 H624 H 1.12023 0.30856 0.74596
 C625 C 0.61122 -0.18216 0.67768
 C626 C 0.62629 -0.15129 0.66925
 C627 C 0.65818 -0.14357 0.68284
 C628 C 0.67533 -0.16687 0.70415
 C629 C 0.66097 -0.19871 0.71231
 C630 C 0.62821 -0.20558 0.69903
 C631 C 0.60971 -0.12826 0.64527
 C632 C 0.59600 -0.10966 0.62437
 C633 C 0.57992 -0.08886 0.59898
 C634 C 0.56599 -0.07218 0.57652
 H635 H 0.58659 -0.18853 0.66703
 H636 H 0.66999 -0.11958 0.67672
 H637 H 0.69953 -0.15924 0.71477
 H638 H 0.61613 -0.22973 0.70323
 C639 C 0.65877 0.33165 0.15064
 C640 C 0.62906 0.34688 0.16263
 C641 C 0.61611 0.33841 0.19606
 C642 C 0.63279 0.31469 0.21736
 C643 C 0.66264 0.29916 0.20544
 C644 C 0.67545 0.30798 0.17184
 C645 C 0.61145 0.37027 0.13993
 C646 C 0.59693 0.38913 0.11993
 C647 C 0.58002 0.41016 0.09540
 C648 C 0.56551 0.42703 0.07352
 H649 H 0.66887 0.33781 0.12470
 H650 H 0.59307 0.35000 0.20556
 H651 H 0.62251 0.30868 0.24324
 H652 H 0.69806 0.29610 0.16166
 C653 C 0.84800 0.13997 0.18951
 C654 C 0.87603 0.14980 0.16932
 C655 C 0.88756 0.18312 0.17072
 C656 C 0.87084 0.20670 0.19176
 C657 C 0.84228 0.19725 0.21169
 C658 C 0.83123 0.16353 0.21060
 C659 C 0.89215 0.12630 0.14585
 C660 C 0.90573 0.10759 0.12523
 C661 C 0.92181 0.08697 0.10000
 C662 C 0.93578 0.07062 0.07753
 H663 H 0.83886 0.11424 0.18859
 H664 H 0.90910 0.19105 0.15502
 H665 H 0.87967 0.23254 0.19161
 H666 H 0.80956 0.15541 0.22597
 C667 C 0.84626 0.64415 0.68531
 C668 C 0.87368 0.65400 0.66422
 C669 C 0.88510 0.68739 0.66514
 C670 C 0.86896 0.71096 0.68670
 C671 C 0.84108 0.70145 0.70763
 C672 C 0.83006 0.66770 0.70690
 C673 C 0.88948 0.63033 0.64067
 C674 C 0.90288 0.61132 0.62020
 C675 C 0.91887 0.59019 0.59533
 C676 C 0.93292 0.57330 0.57334
 H677 H 0.83722 0.61837 0.68481
 H678 H 0.90620 0.69533 0.64878
 H679 H 0.87775 0.73681 0.68628
 H680 H 0.80893 0.65952 0.72304
 C681 C 0.38603 0.16114 0.69895
 C682 C 0.37339 0.15343 0.66525
 C683 C 0.34392 0.16911 0.65304
 C684 C 0.32707 0.19233 0.67435
 C685 C 0.33944 0.20023 0.70831
 C686 C 0.36917 0.18443 0.72038
 C687 C 0.39087 0.13020 0.64252
 C688 C 0.40508 0.11144 0.62239
 C689 C 0.42145 0.09051 0.59761
 C690 C 0.43549 0.07375 0.57550
 H691 H 0.40890 0.14922 0.70861
 H692 H 0.33407 0.16356 0.62690
 H693 H 0.30460 0.20448 0.66403
 H694 H 0.37913 0.18981 0.74650
 C695 C 0.34696 0.64433 0.18553
 C696 C 0.37420 0.65428 0.16425
 C697 C 0.38560 0.68768 0.16524
 C698 C 0.36957 0.71116 0.18701
 C699 C 0.34182 0.70155 0.20809
 C700 C 0.33087 0.66778 0.20734
 C701 C 0.38981 0.63069 0.14046
 C702 C 0.40299 0.61170 0.11981
 C703 C 0.41873 0.59052 0.09480
 C704 C 0.43260 0.57355 0.07274
 H705 H 0.33794 0.61854 0.18501
 H706 H 0.40657 0.69570 0.14875
 H707 H 0.37831 0.73703 0.18662
 H708 H 0.30985 0.65952 0.22359
   
