data_POSCAR
  _audit_creation_date              2014-09-24
  _audit_creation_method            'ToBaCCo'
  _symmetry_space_group_name_H-M    'P1'
  _symmetry_Int_Tables_number       1
  _symmetry_cell_setting            triclinic
  loop_
  _symmetry_equiv_pos_as_xyz
 x,y,z
_cell_length_a 20.2379
_cell_length_b 20.0071
_cell_length_c 48.4427
_cell_angle_alpha 89.987000
_cell_angle_beta 89.298700
_cell_angle_gamma 129.193800
loop_
  _atom_site_label
  _atom_site_type_symbol
  _atom_site_fract_x
  _atom_site_fract_y
  _atom_site_fract_z
C1 C -0.00613 -0.01134 0.52216
 C2 C 1.00386 0.01350 0.14217
 C3 C 0.00468 0.99811 0.83549
 O4 O 0.60606 0.06562 -0.04108
 O5 O 0.47672 0.06921 0.01285
 O6 O 0.61641 0.08487 0.01230
 O7 O 0.48887 0.08329 -0.04054
 O8 O 0.39862 -0.05895 -0.03982
 O9 O 0.52933 -0.05729 0.01362
 O10 O 0.38956 -0.07297 0.01388
 O11 O 0.51575 -0.07658 -0.03949
 Cu12 Cu 0.55582 0.08946 -0.01411
 Cu13 Cu 0.44948 -0.08015 -0.01271
 C14 C 0.58248 -0.00697 -0.04941
 C15 C 0.40924 -0.00242 0.02206
 C16 C 0.59702 0.01520 0.02154
 C17 C 0.42198 0.01279 -0.04925
 O18 O 0.05871 0.46325 0.65390
 O19 O 0.05998 0.59602 0.70763
 O20 O 0.07726 0.47769 0.70705
 O21 O 0.07564 0.60534 0.65390
 O22 O -0.06499 0.51684 0.65449
 O23 O -0.06334 0.38753 0.70894
 O24 O -0.08066 0.50601 0.70794
 O25 O -0.08189 0.37480 0.65551
 Cu26 Cu 0.08143 0.54448 0.68037
 Cu27 Cu -0.08626 0.43742 0.68170
 C28 C -0.01292 0.39446 0.64612
 C29 C -0.01104 0.57300 0.71694
 C30 C 0.00818 0.41122 0.71725
 C31 C 0.00621 0.58508 0.64545
 O32 O 0.39831 0.45752 0.36077
 O33 O 0.54792 0.60783 0.30537
 O34 O 0.38800 0.46517 0.30685
 O35 O 0.54280 0.61267 0.35872
 O36 O 0.59186 0.54056 0.35995
 O37 O 0.45012 0.40632 0.30231
 O38 O 0.60723 0.54580 0.30606
 O39 O 0.44650 0.38521 0.35593
 Cu40 Cu 0.46328 0.54171 0.33293
 Cu41 Cu 0.52914 0.46286 0.33092
 C42 C 0.39728 0.39537 0.36769
 C43 C 0.60455 0.60306 0.29663
 C44 C 0.39416 0.41290 0.29504
 C45 C 0.59198 0.60069 0.36880
 C46 C -0.02448 0.15096 0.57687
 C47 C 0.04926 0.15870 0.57502
 C48 C 0.05173 0.10377 0.55835
 C49 C -0.01928 0.03891 0.54268
 C50 C -0.09598 0.02559 0.54665
 C51 C -0.09801 0.08207 0.56313
 C52 C -0.02346 0.21474 0.59324
 C53 C -0.09558 0.18932 0.60853
 C54 C -0.09251 0.24858 0.62500
 C55 C -0.01700 0.33450 0.62687
 C56 C 0.05461 0.36058 0.61121
 C57 C 0.05116 0.30167 0.59439
 H58 H 0.11097 0.11395 0.55679
 H59 H -0.15419 -0.02725 0.53697
 H60 H -0.14874 0.22627 0.63699
 H61 H 0.11338 0.42645 0.61204
 H62 H -0.15674 0.07280 0.56456
 H63 H -0.15373 0.12302 0.60849
 H64 H 0.10588 0.20795 0.58631
 H65 H 0.10735 0.32436 0.58233
 C66 C 0.83490 0.82572 0.20739
 C67 C 0.91919 0.85655 0.20450
 C68 C 0.97147 0.91233 0.18262
 C69 C 0.94083 0.93817 0.16271
 C70 C 0.85501 0.90478 0.16586
 C71 C 0.80316 0.84888 0.18742
 C72 C 0.78006 0.77191 0.23146
 C73 C 0.72588 0.78503 0.24394
 C74 C 0.66972 0.73108 0.26532
 C75 C 0.66689 0.66314 0.27492
 C76 C 0.72293 0.65162 0.26306
 C77 C 0.77889 0.70542 0.24156
 H78 H 1.03741 0.93850 0.18193
 H79 H 0.82710 0.92427 0.15273
 H80 H 0.62807 0.74221 0.27419
 H81 H 0.72239 0.59983 0.27000
 H82 H 0.73812 0.82534 0.18880
 H83 H 0.72663 0.83700 0.23706
 H84 H 0.94589 0.84054 0.21980
 H85 H 0.81942 0.69339 0.23230
 C86 C 0.19918 0.02257 -0.11880
 C87 C 0.11388 -0.03320 -0.11007
 C88 C 0.05265 -0.03651 -0.12415
 C89 C 0.07408 0.01784 -0.14723
 C90 C 0.16093 0.07490 -0.15572
 C91 C 0.22273 0.07799 -0.14141
 C92 C 0.26177 0.02056 -0.10414
 C93 C 0.23981 -0.05887 -0.09600
 C94 C 0.29318 -0.06164 -0.07896
 C95 C 0.36985 0.01502 -0.06978
 C96 C 0.39400 0.09449 -0.07917
 C97 C 0.34049 0.09721 -0.09622
 H98 H -0.01298 -0.08491 -0.11741
 H99 H 0.18088 0.11442 -0.17412
 H100 H 0.27317 -0.12378 -0.07234
 H101 H 0.45302 0.15483 -0.07259
 H102 H 0.28832 0.12107 -0.14872
 H103 H 0.18011 -0.11907 -0.10229
 H104 H 0.09387 -0.07598 -0.09251
 H105 H 0.35883 0.15918 -0.10213
 C106 C 0.01371 0.82456 0.57519
 C107 C -0.06056 0.81590 0.57426
 C108 C -0.06369 0.87093 0.55792
 C109 C 0.00716 0.93689 0.54171
 C110 C 0.08413 0.95054 0.54454
 C111 C 0.08684 0.89398 0.56068
 C112 C 0.01385 0.76158 0.59165
 C113 C 0.08651 0.78813 0.60611
 C114 C 0.08439 0.72985 0.62285
 C115 C 0.00930 0.64383 0.62584
 C116 C -0.06281 0.61655 0.61099
 C117 C -0.06029 0.67447 0.59386
 H118 H -0.12315 0.86037 0.55721
 H119 H 0.14215 1.00399 0.53433
 H120 H 0.14098 0.75307 0.63420
 H121 H -0.12126 0.55055 0.61268
 H122 H 0.14589 0.90385 0.56135
 H123 H 0.14430 0.85460 0.60526
 H124 H -0.11695 0.76616 0.58613
 H125 H -0.11687 0.65089 0.58247
 C126 C 0.17542 0.20974 0.20365
 C127 C 0.20339 0.17714 0.18564
 C128 C 0.15130 0.11975 0.16498
 C129 C 0.06773 0.09132 0.16118
 C130 C 0.03930 0.12331 0.17970
 C131 C 0.09278 0.18287 0.20019
 C132 C 0.23117 0.26661 0.22681
 C133 C 0.19617 0.26420 0.25249
 C134 C 0.24922 0.31254 0.27471
 C135 C 0.33784 0.36183 0.27193
 C136 C 0.37321 0.36552 0.24645
 C137 C 0.32072 0.31997 0.22400
 H138 H 0.17642 0.09401 0.15335
 H139 H -0.02567 0.09985 0.17892
 H140 H 0.22101 0.30968 0.29428
 H141 H 0.44173 0.40517 0.24377
 H142 H 0.06840 0.20623 0.21364
 H143 H 0.12788 0.22334 0.25577
 H144 H 0.26450 0.19213 0.18824
 H145 H 0.35080 0.32657 0.20443
 C146 C 0.80457 -0.02529 -0.11817
 C147 C 0.88842 0.02671 -0.10888
 C148 C 0.95004 0.02874 -0.12272
 C149 C 0.93015 -0.02289 -0.14615
 C150 C 0.84481 -0.07688 -0.15506
 C151 C 0.78249 -0.07885 -0.14098
 C152 C 0.74221 -0.02090 -0.10396
 C153 C 0.66162 -0.09632 -0.09589
 C154 C 0.60821 -0.09154 -0.07900
 C155 C 0.63434 -0.01117 -0.07000
 C156 C 0.71291 0.06438 -0.07946
 C157 C 0.76624 0.05953 -0.09627
 H158 H 1.01491 0.07436 -0.11564
 H159 H 0.82700 -0.11428 -0.17367
 H160 H 0.54768 -0.15103 -0.07222
 H161 H 0.73454 0.12718 -0.07312
 H162 H 0.71803 -0.11919 -0.14865
 H163 H 0.64170 -0.15900 -0.10149
 H164 H 0.90708 0.06779 -0.09112
 H165 H 0.82758 0.11882 -0.10267
 C166 C 0.16738 -0.00912 0.09007
 C167 C 0.10574 -0.07854 0.10755
 C168 C 0.04900 -0.07561 0.12334
 C169 C 0.05429 -0.00186 0.12261
 C170 C 0.11225 0.06438 0.10350
 C171 C 0.16770 0.06088 0.08761
 C172 C 0.23143 -0.00865 0.07432
 C173 C 0.31501 0.06893 0.06994
 C174 C 0.37366 0.07098 0.05353
 C175 C 0.35057 -0.00471 0.04145
 C176 C 0.26817 -0.08282 0.04667
 C177 C 0.20925 -0.08472 0.06281
 H178 H 0.00284 -0.13046 0.13637
 H179 H 0.11709 0.12134 0.10181
 H180 H 0.43673 0.13200 0.05006
 H181 H 0.24809 -0.14236 0.03754
 H182 H 0.21167 0.11390 0.07357
 H183 H 0.33510 0.12847 0.07905
 H184 H 0.10275 -0.13427 0.10962
 H185 H 0.14546 -0.14537 0.06547
 C186 C 0.80502 0.81708 0.45951
 C187 C 0.81918 0.89343 0.46673
 C188 C 0.87734 0.94745 0.48733
 C189 C 0.91960 0.92453 0.50251
 C190 C 0.90579 0.84853 0.49450
 C191 C 0.84987 0.79621 0.47365
 C192 C 0.74792 0.76120 0.43645
 C193 C 0.70587 0.67193 0.43674
 C194 C 0.65768 0.62038 0.41431
 C195 C 0.64781 0.65611 0.39151
 C196 C 0.68726 0.74429 0.39133
 C197 C 0.73783 0.79660 0.41337
 H198 H 0.89085 1.00840 0.49081
 H199 H 0.94146 0.83054 0.50331
 H200 H 0.62602 0.55204 0.41512
 H201 H 0.68004 0.77299 0.37389
 H202 H 0.84502 0.74102 0.46788
 H203 H 0.70950 0.64129 0.45438
 H204 H 0.78656 0.91255 0.45619
 H205 H 0.77013 0.86492 0.41197
 C206 C 0.02479 0.19270 0.78883
 C207 C 0.07665 0.21679 0.81191
 C208 C 0.07507 0.15514 0.82652
 C209 C 0.02354 0.06821 0.81782
 C210 C -0.02712 0.04647 0.79421
 C211 C -0.02551 0.10747 0.77990
 C212 C 0.02063 0.25444 0.77386
 C213 C -0.05871 0.22920 0.76571
 C214 C -0.06312 0.28150 0.74813
 C215 C 0.01180 0.36017 0.73834
 C216 C 0.09103 0.38756 0.74773
 C217 C 0.09537 0.33522 0.76540
 H218 H 0.11131 0.17494 0.84529
 H219 H -0.07177 -0.01944 0.78723
 H220 H -0.12504 0.25898 0.74150
 H221 H 0.15000 0.44827 0.74073
 H222 H -0.06550 0.08723 0.76200
 H223 H -0.11743 0.16764 0.77235
 H224 H 0.11548 0.28237 0.81934
 H225 H 0.15720 0.35598 0.77133
 C226 C 0.84043 0.02973 0.08903
 C227 C 0.84034 -0.04033 0.08798
 C228 C 0.89578 -0.04184 0.10413
 C229 C 0.95321 0.02635 0.12220
 C230 C 0.95881 0.10027 0.12121
 C231 C 0.90208 0.10122 0.10519
 C232 C 0.77618 0.02723 0.07320
 C233 C 0.79803 0.10189 0.06036
 C234 C 0.73873 0.09813 0.04439
 C235 C 0.65625 0.01950 0.04064
 C236 C 0.63357 -0.05481 0.05396
 C237 C 0.69262 -0.05087 0.07021
 H238 H 0.89110 -0.09883 0.10356
 H239 H 1.00543 0.15704 0.13297
 H240 H 0.75853 0.15661 0.03425
 H241 H 0.57048 -0.11617 0.05162
 H242 H 0.90520 0.15721 0.10607
 H243 H 0.86180 0.16284 0.06191
 H244 H 0.79651 -0.09492 0.07489
 H245 H 0.67279 -0.10932 0.08036
 C246 C 0.18267 0.16622 0.45837
 C247 C 0.13718 0.18520 0.47359
 C248 C 0.08127 0.13086 0.49471
 C249 C 0.06798 0.05451 0.50193
 C250 C 0.11056 0.03329 0.48561
 C251 C 0.16875 0.08936 0.46467
 C252 C 0.24043 0.22505 0.43527
 C253 C 0.25139 0.19294 0.41131
 C254 C 0.30224 0.24830 0.38925
 C255 C 0.34108 0.33626 0.39034
 C256 C 0.33056 0.36866 0.41409
 C257 C 0.28219 0.31412 0.43646
 H258 H 0.04526 0.14772 0.50443
 H259 H 0.09736 -0.02777 0.48848
 H260 H 0.31011 0.22217 0.37110
 H261 H 0.36187 0.43677 0.41564
 H262 H 0.20169 0.07158 0.45321
 H263 H 0.21951 0.12491 0.40928
 H264 H 0.14169 0.24065 0.46854
 H265 H 0.27808 0.34231 0.45479
 C266 C -0.01941 0.79721 0.78865
 C267 C -0.07534 0.77344 0.81110
 C268 C -0.07205 0.83626 0.82561
 C269 C -0.01424 0.92387 0.81745
 C270 C 0.04058 0.94578 0.79461
 C271 C 0.03725 0.88373 0.78035
 C272 C -0.01823 0.73363 0.77354
 C273 C 0.06007 0.75460 0.76556
 C274 C 0.06253 0.70114 0.74787
 C275 C -0.01332 0.62537 0.73787
 C276 C -0.09183 0.60200 0.74708
 C277 C -0.09424 0.65563 0.76478
 H278 H -0.11215 0.81664 0.84381
 H279 H 0.08856 1.01230 0.78814
 H280 H 0.12388 0.72042 0.74144
 H281 H -0.15153 0.54360 0.73989
 H282 H 0.08026 0.90391 0.76289
 H283 H 0.11968 0.81376 0.77245
 H284 H -0.11923 0.70689 0.81803
 H285 H -0.15531 0.63815 0.77053
   
