data_POSCAR
  _audit_creation_date              2014-09-24
  _audit_creation_method            'ToBaCCo'
  _symmetry_space_group_name_H-M    'P1'
  _symmetry_Int_Tables_number       1
  _symmetry_cell_setting            triclinic
  loop_
  _symmetry_equiv_pos_as_xyz
 x,y,z
_cell_length_a 35.9352
_cell_length_b 22.0308
_cell_length_c 21.6704
_cell_angle_alpha 89.847800
_cell_angle_beta 90.090000
_cell_angle_gamma 89.911200
loop_
  _atom_site_label
  _atom_site_type_symbol
  _atom_site_fract_x
  _atom_site_fract_y
  _atom_site_fract_z
O1 O 0.05219 0.10403 0.11432
 O2 O 0.09292 0.04944 0.05501
 C3 C 0.08563 0.08836 0.09814
 O4 O -0.05213 -0.11464 0.10411
 O5 O -0.09324 -0.05427 0.05065
 C6 C -0.08571 -0.09814 0.08875
 O7 O 0.05273 -0.10874 0.11119
 O8 O 0.09342 -0.05258 0.05326
 C9 C 0.08636 -0.09286 0.09557
 O10 O -0.05162 0.11087 0.10745
 O11 O -0.09258 0.05222 0.05277
 C12 C -0.08514 0.09506 0.09180
 Zr13 Zr 0.00023 0.07397 0.08004
 O14 O -0.00100 0.06135 0.17672
 O15 O 0.00135 0.16932 0.09070
 Zr16 Zr 0.00027 -0.07817 0.07822
 O17 O -0.00094 -0.06908 0.17523
 O18 O 0.00120 -0.17381 0.08672
 O19 O 0.03376 -0.00234 0.09086
 O20 O -0.03268 -0.00220 0.09023
 O21 O -0.05192 0.11222 -0.10515
 O22 O -0.09266 0.05315 -0.05042
 C23 C -0.08535 0.09627 -0.08933
 O24 O 0.05243 -0.10466 -0.11318
 O25 O 0.09332 -0.05062 -0.05354
 C26 C 0.08592 -0.08912 -0.09699
 O27 O -0.05184 -0.11096 -0.10774
 O28 O -0.09264 -0.05336 -0.05167
 C29 C -0.08530 -0.09542 -0.09157
 O30 O 0.05242 0.10596 -0.11064
 O31 O 0.09331 0.04994 -0.05235
 C32 C 0.08593 0.08978 -0.09483
 Zr33 Zr 0.00011 0.07686 -0.07628
 O34 O -0.00416 0.07756 -0.17375
 O35 O 0.00389 0.17274 -0.07501
 Zr36 Zr 0.00016 -0.07637 -0.07802
 O37 O -0.00415 -0.07439 -0.17546
 O38 O 0.00398 -0.17226 -0.07914
 Zr39 Zr 0.05558 -0.00107 0.00063
 Zr40 Zr -0.05537 -0.00089 0.00078
 O41 O -0.03233 0.00043 -0.08841
 O42 O 0.03331 0.00034 -0.08940
 O43 O -0.03285 0.08749 0.00199
 O44 O 0.03251 -0.08869 -0.00011
 O45 O 0.03246 0.08665 0.00195
 O46 O -0.03277 -0.08932 -0.00009
 H47 H -0.04994 -0.00265 0.12586
 H48 H 0.04947 -0.12418 -0.00080
 H49 H -0.04922 0.00091 -0.12458
 H50 H 0.04934 0.12216 0.00217
 H51 H 0.00808 -0.19019 0.04593
 H52 H -0.01608 -0.18816 -0.05238
 H53 H 0.01689 -0.05006 -0.19133
 H54 H 0.01698 0.05381 -0.19016
 H55 H -0.01656 0.18800 -0.04870
 H56 H 0.00676 0.18679 0.04969
 H57 H -0.00208 0.10257 0.19481
 H58 H -0.00201 -0.11093 0.19194
 O59 O 0.55171 0.60703 0.61152
 O60 O 0.59242 0.55195 0.55270
 C61 C 0.58515 0.59119 0.59552
 O62 O 0.44755 0.39054 0.60766
 O63 O 0.40673 0.44829 0.55107
 C64 C 0.41407 0.40622 0.59128
 O65 O 0.55232 0.39673 0.61360
 O66 O 0.59309 0.45073 0.55351
 C67 C 0.58579 0.41226 0.59721
 O68 O 0.44739 0.61308 0.60396
 O69 O 0.40664 0.55369 0.54947
 C70 C 0.41393 0.59683 0.58825
 Zr71 Zr 0.49971 0.57828 0.57586
 O72 O 0.49585 0.58245 0.67320
 O73 O 0.50165 0.67385 0.56791
 Zr74 Zr 0.49982 0.42480 0.57856
 O75 O 0.49554 0.42683 0.67597
 O76 O 0.50416 0.32898 0.58084
 O77 O 0.53294 0.50162 0.58934
 O78 O 0.46746 0.50171 0.58857
 O79 O 0.44719 0.61087 0.39152
 O80 O 0.40655 0.55247 0.44744
 C81 C 0.41374 0.59486 0.40757
 O82 O 0.55225 0.39399 0.38826
 O83 O 0.59307 0.44942 0.44680
 C84 C 0.58574 0.40993 0.40423
 O85 O 0.44746 0.38784 0.39442
 O86 O 0.40671 0.44699 0.44912
 C87 C 0.41400 0.40395 0.41026
 O88 O 0.55156 0.60475 0.38442
 O89 O 0.59233 0.55059 0.44453
 C90 C 0.58501 0.58904 0.40078
 Zr91 Zr 0.49960 0.57620 0.42014
 O92 O 0.49514 0.57446 0.32273
 O93 O 0.50312 0.67207 0.41900
 Zr94 Zr 0.49975 0.42282 0.42244
 O95 O 0.49532 0.42234 0.32500
 O96 O 0.50412 0.32699 0.42319
 Zr97 Zr 0.55516 0.50024 0.49934
 Zr98 Zr 0.44451 0.50040 0.49928
 O99 O 0.46730 0.49938 0.40995
 O100 O 0.53288 0.49931 0.40923
 O101 O 0.46647 0.58893 0.49787
 O102 O 0.53209 0.41251 0.50070
 O103 O 0.53219 0.58813 0.49792
 O104 O 0.46672 0.41181 0.50067
 H105 H 0.45055 0.50222 0.62464
 H106 H 0.54899 0.37694 0.50125
 H107 H 0.45024 0.49901 0.37398
 H108 H 0.54907 0.62364 0.49742
 H109 H 0.48389 0.31260 0.55487
 H110 H 0.48390 0.31125 0.44965
 H111 H 0.51657 0.44569 0.30843
 H112 H 0.51595 0.54953 0.30694
 H113 H 0.48585 0.68733 0.45095
 H114 H 0.50125 0.68972 0.61065
 H115 H 0.51422 0.55335 0.69011
 H116 H 0.51705 0.45000 0.69188
 C117 C 0.14143 0.18872 0.20592
 C118 C 0.17790 0.17256 0.19046
 C119 C 0.18425 0.12860 0.14520
 C120 C 0.15426 0.10100 0.11529
 C121 C 0.11743 0.11711 0.13029
 C122 C 0.11137 0.16120 0.17612
 C123 C 0.20880 0.20159 0.22055
 C124 C 0.23466 0.22620 0.24549
 C125 C 0.26493 0.25534 0.27434
 C126 C 0.29080 0.28051 0.29869
 C127 C 0.32171 0.31085 0.32735
 C128 C 0.31539 0.35596 0.37144
 C129 C 0.34539 0.38614 0.39861
 C130 C 0.38220 0.37154 0.38196
 C131 C 0.38823 0.32584 0.33778
 C132 C 0.35816 0.29578 0.31068
 H133 H 0.13622 0.22275 0.24088
 H134 H 0.21239 0.11578 0.13288
 H135 H 0.15997 0.06719 0.08036
 H136 H 0.08343 0.17468 0.18883
 H137 H 0.28727 0.36798 0.38466
 H138 H 0.33971 0.42095 0.43252
 H139 H 0.41615 0.31342 0.32390
 H140 H 0.36334 0.26092 0.27656
 C141 C 0.85854 0.79259 0.18764
 C142 C 0.82209 0.80752 0.17054
 C143 C 0.81577 0.85272 0.12629
 C144 C 0.84575 0.88319 0.09944
 C145 C 0.88256 0.86883 0.11657
 C146 C 0.88861 0.82296 0.16083
 C147 C 0.79113 0.77719 0.19907
 C148 C 0.76511 0.75228 0.22325
 C149 C 0.73461 0.72363 0.25194
 C150 C 0.70856 0.69950 0.27684
 C151 C 0.67751 0.67107 0.30710
 C152 C 0.64110 0.68781 0.29157
 C153 C 0.61094 0.66098 0.32177
 C154 C 0.61685 0.61704 0.36805
 C155 C 0.65362 0.60031 0.38304
 C156 C 0.68370 0.62719 0.35275
 H157 H 0.86372 0.75768 0.22192
 H158 H 0.78765 0.86463 0.11274
 H159 H 0.84003 0.91809 0.06542
 H160 H 0.91654 0.81075 0.17509
 H161 H 0.63602 0.72180 0.25630
 H162 H 0.58304 0.67491 0.30905
 H163 H 0.65923 0.56656 0.41829
 H164 H 0.71179 0.61392 0.36513
 C165 C 0.85875 0.20489 0.81076
 C166 C 0.82232 0.19008 0.82768
 C167 C 0.81603 0.14496 0.87198
 C168 C 0.84605 0.11454 0.89913
 C169 C 0.88284 0.12888 0.88225
 C170 C 0.88884 0.17457 0.83785
 C171 C 0.79137 0.22066 0.79907
 C172 C 0.76544 0.24596 0.77479
 C173 C 0.73508 0.27520 0.74598
 C174 C 0.70914 0.29985 0.72103
 C175 C 0.67818 0.32887 0.69081
 C176 C 0.64174 0.31285 0.70650
 C177 C 0.61163 0.34017 0.67635
 C178 C 0.61761 0.38391 0.62994
 C179 C 0.65442 0.39995 0.61480
 C180 C 0.68446 0.37256 0.64505
 H181 H 0.86390 0.23974 0.77646
 H182 H 0.78792 0.13314 0.88539
 H183 H 0.84039 0.07975 0.93324
 H184 H 0.91675 0.18680 0.82380
 H185 H 0.63660 0.27903 0.74185
 H186 H 0.58371 0.32677 0.68920
 H187 H 0.66008 0.43350 0.57944
 H188 H 0.71257 0.38527 0.63255
 C189 C 0.18445 0.87101 0.85513
 C190 C 0.17801 0.82763 0.80932
 C191 C 0.14151 0.81184 0.79368
 C192 C 0.11151 0.83908 0.82390
 C193 C 0.11766 0.88253 0.87032
 C194 C 0.15452 0.89833 0.88545
 C195 C 0.20885 0.79876 0.77892
 C196 C 0.23467 0.77424 0.75376
 C197 C 0.26490 0.74517 0.72469
 C198 C 0.29074 0.72006 0.70020
 C199 C 0.32164 0.68978 0.67142
 C200 C 0.31530 0.64463 0.62737
 C201 C 0.34530 0.61451 0.60011
 C202 C 0.38212 0.62918 0.61663
 C203 C 0.38816 0.67491 0.66076
 C204 C 0.35810 0.70493 0.68795
 H205 H 0.21261 0.88354 0.86760
 H206 H 0.13623 0.77826 0.75830
 H207 H 0.08354 0.82587 0.81105
 H208 H 0.16030 0.93164 0.92084
 H209 H 0.28717 0.63255 0.61425
 H210 H 0.33961 0.57967 0.56623
 H211 H 0.41609 0.68739 0.67455
 H212 H 0.36330 0.73980 0.72205
 C213 C 0.14161 0.19181 0.79836
 C214 C 0.17812 0.17522 0.81339
 C215 C 0.18452 0.13038 0.85804
 C216 C 0.15457 0.10240 0.88775
 C217 C 0.11770 0.11895 0.87318
 C218 C 0.11159 0.16391 0.82797
 C219 C 0.20900 0.20458 0.78341
 C220 C 0.23484 0.22942 0.75851
 C221 C 0.26509 0.25876 0.72959
 C222 C 0.29093 0.28398 0.70512
 C223 C 0.32182 0.31429 0.67617
 C224 C 0.35831 0.29984 0.69349
 C225 C 0.38834 0.32960 0.66585
 C226 C 0.38227 0.37438 0.62044
 C227 C 0.34543 0.38843 0.60322
 C228 C 0.31546 0.35857 0.63094
 H229 H 0.13633 0.22648 0.76387
 H230 H 0.21268 0.11717 0.87004
 H231 H 0.16034 0.06793 0.92220
 H232 H 0.08363 0.17776 0.81557
 H233 H 0.36356 0.26565 0.72848
 H234 H 0.41628 0.31760 0.68022
 H235 H 0.33969 0.42252 0.56837
 H236 H 0.28733 0.37012 0.61715
 C237 C 0.81603 0.85697 0.86902
 C238 C 0.82227 0.81292 0.82379
 C239 C 0.85872 0.79856 0.80638
 C240 C 0.88883 0.82821 0.83394
 C241 C 0.88287 0.87278 0.87932
 C242 C 0.84607 0.88671 0.89663
 C243 C 0.79127 0.78283 0.79495
 C244 C 0.76526 0.75789 0.77065
 C245 C 0.73478 0.72897 0.74198
 C246 C 0.70876 0.70448 0.71725
 C247 C 0.67771 0.67549 0.68737
 C248 C 0.68390 0.63078 0.64280
 C249 C 0.65382 0.60318 0.61310
 C250 C 0.61703 0.61997 0.62759
 C251 C 0.61111 0.66478 0.67275
 C252 C 0.64127 0.69232 0.70236
 H253 H 0.78794 0.86844 0.88287
 H254 H 0.86387 0.76454 0.77140
 H255 H 0.91674 0.81631 0.81952
 H256 H 0.84041 0.92063 0.93147
 H257 H 0.71200 0.61738 0.63083
 H258 H 0.65945 0.56880 0.57870
 H259 H 0.58321 0.67881 0.68508
 H260 H 0.63616 0.72690 0.73679
 C261 C 0.13992 0.80761 0.20016
 C262 C 0.17636 0.82339 0.18439
 C263 C 0.18260 0.86739 0.13902
 C264 C 0.15260 0.89551 0.10932
 C265 C 0.11549 0.88007 0.12448
 C266 C 0.10976 0.83555 0.17066
 C267 C 0.20737 0.79420 0.21452
 C268 C 0.23337 0.76967 0.23953
 C269 C 0.26386 0.74079 0.26857
 C270 C 0.28990 0.71597 0.29319
 C271 C 0.32099 0.68609 0.32235
 C272 C 0.35740 0.70098 0.30529
 C273 C 0.38762 0.67152 0.33309
 C274 C 0.38180 0.62661 0.37839
 C275 C 0.34503 0.61217 0.39538
 C276 C 0.31489 0.64172 0.36752
 H277 H 0.13479 0.77355 0.23527
 H278 H 0.21074 0.87996 0.12646
 H279 H 0.15876 0.92933 0.07441
 H280 H 0.08200 0.82190 0.18427
 H281 H 0.36245 0.73525 0.27036
 H282 H 0.41549 0.68381 0.31889
 H283 H 0.33947 0.57797 0.43014
 H284 H 0.28682 0.62983 0.38111
 C285 C 0.81630 0.14382 0.13051
 C286 C 0.82263 0.18812 0.17545
 C287 C 0.85912 0.20245 0.19270
 C288 C 0.88917 0.17245 0.16535
 C289 C 0.88311 0.12755 0.12035
 C290 C 0.84628 0.11372 0.10312
 C291 C 0.79168 0.21834 0.20430
 C292 C 0.76571 0.24331 0.22868
 C293 C 0.73527 0.27220 0.25748
 C294 C 0.70927 0.29663 0.28233
 C295 C 0.67825 0.32554 0.31234
 C296 C 0.68447 0.37006 0.35709
 C297 C 0.65441 0.39764 0.38685
 C298 C 0.61760 0.38101 0.37225
 C299 C 0.61166 0.33635 0.32694
 C300 C 0.64180 0.30883 0.29727
 H301 H 0.78817 0.13236 0.11679
 H302 H 0.86434 0.23666 0.22747
 H303 H 0.91711 0.18425 0.17972
 H304 H 0.84054 0.07956 0.06855
 H305 H 0.71257 0.38335 0.36913
 H306 H 0.66005 0.43190 0.42136
 H307 H 0.58375 0.32246 0.31452
 H308 H 0.63666 0.27439 0.26271
   
