data_POSCAR
  _audit_creation_date              2014-09-24
  _audit_creation_method            'ToBaCCo'
  _symmetry_space_group_name_H-M    'P1'
  _symmetry_Int_Tables_number       1
  _symmetry_cell_setting            triclinic
  loop_
  _symmetry_equiv_pos_as_xyz
 x,y,z
_cell_length_a 30.5211
_cell_length_b 30.5712
_cell_length_c 16.7524
_cell_angle_alpha 89.796200
_cell_angle_beta 90.102100
_cell_angle_gamma 120.068100
loop_
  _atom_site_label
  _atom_site_type_symbol
  _atom_site_fract_x
  _atom_site_fract_y
  _atom_site_fract_z
O1 O 0.43977 0.95157 0.57576
 O2 O 0.48918 1.05021 0.41984
 O3 O 0.43923 0.95181 0.42024
 O4 O 0.48833 1.04994 0.57547
 O5 O 0.56088 1.05013 0.57590
 O6 O 0.51171 0.95186 0.42036
 O7 O 0.56165 1.05025 0.42026
 O8 O 0.51233 0.95176 0.57587
 Cu9 Cu 0.45682 1.00089 0.49779
 Cu10 Cu 0.54397 1.00103 0.49812
 C11 C 0.46779 0.93508 0.60219
 C12 C 0.53376 1.06680 0.39362
 C13 C 0.46714 0.93530 0.39402
 C14 C 0.53280 1.06651 0.60206
 O15 O -0.04945 0.51116 0.58030
 O16 O 0.04915 0.56037 0.42454
 O17 O -0.04933 0.51180 0.42469
 O18 O 0.04913 0.56109 0.58014
 O19 O 0.04916 0.48877 0.58087
 O20 O -0.04943 0.43941 0.42511
 O21 O 0.04905 0.48798 0.42528
 O22 O -0.04941 0.43884 0.58073
 Cu23 Cu -0.00012 0.54340 0.50240
 Cu24 Cu -0.00016 0.45645 0.50309
 C25 C -0.06602 0.46667 0.60688
 C26 C 0.06562 0.53237 0.39847
 C27 C -0.06590 0.46739 0.39847
 C28 C 0.06573 0.53328 0.60687
 O29 O 0.51166 0.55981 0.57873
 O30 O 0.56083 0.51073 0.42318
 O31 O 0.51239 0.56062 0.42322
 O32 O 0.56170 0.51147 0.57881
 O33 O 0.48923 0.43901 0.57926
 O34 O 0.43983 0.48823 0.42332
 O35 O 0.48827 0.43834 0.42363
 O36 O 0.43918 0.48734 0.57883
 Cu37 Cu 0.54397 0.54295 0.50098
 Cu38 Cu 0.45682 0.45591 0.50131
 C39 C 0.46708 0.53179 0.60505
 C40 C 0.53274 0.46625 0.39702
 C41 C 0.46786 0.53275 0.39689
 C42 C 0.53382 0.46702 0.60546
 O43 O 0.40926 0.65520 -0.06772
 O44 O 0.40711 0.73842 -0.09219
 C45 C 0.38289 0.76106 -0.10729
 O46 O 0.34409 0.75385 -0.06858
 O47 O 0.26063 0.66839 -0.09186
 C48 C 0.23788 0.62152 -0.10650
 O49 O 0.24510 0.58998 -0.06755
 O50 O 0.33065 0.59224 -0.09138
 C51 C 0.37760 0.61642 -0.10628
 O52 O 0.40725 0.66873 0.09111
 O53 O 0.40936 0.75407 0.06661
 C54 C 0.37776 0.76122 0.10525
 O55 O 0.33080 0.73843 0.09047
 O56 O 0.24527 0.65505 0.06722
 C57 C 0.23823 0.61638 0.10627
 O58 O 0.26089 0.59222 0.09140
 O59 O 0.34428 0.59022 0.06757
 C60 C 0.38308 0.62186 0.10624
 Cr61 Cr 0.40539 0.70267 -0.00054
 Cr62 Cr 0.29662 0.70250 -0.00068
 Cr63 Cr 0.29666 0.59402 -0.00001
 O64 O 0.33289 0.66640 -0.00043
 O65 O 0.59043 0.34473 -0.06816
 O66 O 0.59259 0.26156 -0.09189
 C67 C 0.61687 0.23899 -0.10678
 O68 O 0.65563 0.24609 -0.06789
 O69 O 0.73910 0.33157 -0.09147
 C70 C 0.76182 0.37846 -0.10647
 O71 O 0.75458 0.40995 -0.06789
 O72 O 0.66903 0.40770 -0.09205
 C73 C 0.62209 0.38351 -0.10700
 O74 O 0.59246 0.33100 0.09082
 O75 O 0.59032 0.24569 0.06707
 C76 C 0.62193 0.23854 0.10597
 O77 O 0.66888 0.26131 0.09114
 O78 O 0.75441 0.34471 0.06756
 C79 C 0.76148 0.38335 0.10625
 O80 O 0.73883 0.40754 0.09101
 O81 O 0.65543 0.40954 0.06688
 C82 C 0.61668 0.37784 0.10573
 Cr83 Cr 0.59431 0.29717 -0.00054
 Cr84 Cr 0.70307 0.29734 -0.00018
 Cr85 Cr 0.70304 0.40583 -0.00052
 O86 O 0.66681 0.33345 -0.00042
 C87 C 0.44895 0.89708 -0.33658
 C88 C 0.43352 0.86542 -0.28469
 C89 C 0.41577 0.82870 -0.22343
 C90 C 0.40075 0.79764 -0.17065
 C91 C 0.10167 0.55144 -0.33522
 C92 C 0.13334 0.56767 -0.28341
 C93 C 0.17009 0.58667 -0.22226
 C94 C 0.20120 0.60273 -0.16963
 C95 C 0.44787 0.55054 -0.33402
 C96 C 0.43157 0.56590 -0.28246
 C97 C 0.41248 0.58357 -0.22162
 C98 C 0.39636 0.59856 -0.16922
 C99 C 0.55148 0.10422 -0.33660
 C100 C 0.56675 0.13557 -0.28456
 C101 C 0.58429 0.17193 -0.22310
 C102 C 0.59916 0.20270 -0.17020
 C103 C 0.89804 0.44856 -0.33521
 C104 C 0.86637 0.43236 -0.28340
 C105 C 0.82962 0.41338 -0.22224
 C106 C 0.79851 0.39729 -0.16961
 C107 C 0.55199 0.44930 -0.33650
 C108 C 0.56826 0.43395 -0.28454
 C109 C 0.58729 0.41631 -0.22319
 C110 C 0.60336 0.40136 -0.17037
 C111 C 0.89634 0.44867 0.33693
 C112 C 0.86496 0.43339 0.28469
 C113 C 0.82860 0.41585 0.22298
 C114 C 0.79782 0.40101 0.16987
 C115 C 0.55190 0.10267 0.33553
 C116 C 0.56812 0.13426 0.28352
 C117 C 0.58710 0.17091 0.22213
 C118 C 0.60316 0.20194 0.16931
 C119 C 0.55138 0.44722 0.33564
 C120 C 0.56660 0.43112 0.28356
 C121 C 0.58409 0.41228 0.22206
 C122 C 0.59893 0.39638 0.16914
 C123 C 0.10338 0.55103 0.33694
 C124 C 0.13475 0.56628 0.28471
 C125 C 0.17112 0.58381 0.22300
 C126 C 0.20189 0.59867 0.16990
 C127 C 0.44797 0.89736 0.33305
 C128 C 0.43171 0.86572 0.28144
 C129 C 0.41267 0.82897 0.22056
 C130 C 0.39657 0.79787 0.16815
 C131 C 0.44905 0.55191 0.33561
 C132 C 0.43367 0.56815 0.28369
 C133 C 0.41598 0.58715 0.22239
 C134 C 0.40098 0.60319 0.16960
   
