data_POSCAR
  _audit_creation_date              2014-09-24
  _audit_creation_method            'ToBaCCo'
  _symmetry_space_group_name_H-M    'P1'
  _symmetry_Int_Tables_number       1
  _symmetry_cell_setting            triclinic
  loop_
  _symmetry_equiv_pos_as_xyz
 x,y,z
_cell_length_a 27.8949
_cell_length_b 27.6867
_cell_length_c 68.7498
_cell_angle_alpha 88.293800
_cell_angle_beta 91.792600
_cell_angle_gamma 119.855600
loop_
  _atom_site_label
  _atom_site_type_symbol
  _atom_site_fract_x
  _atom_site_fract_y
  _atom_site_fract_z
C1 C 0.02449 0.11140 0.52319
 H2 H 0.06347 0.11177 0.52338
 C3 C 0.01917 0.15039 0.53383
 H4 H 0.05411 0.18033 0.54240
 C5 C -0.06844 0.07130 0.51184
 H6 H -0.10211 0.04096 0.50300
 C7 C -0.07581 0.10936 0.52253
 H8 H -0.11536 0.10787 0.52193
 N9 N -0.01893 0.07273 0.51256
 C10 C 0.01820 -0.06205 0.50908
 H11 H 0.02416 -0.06265 0.49363
 C12 C 0.01827 -0.10312 0.52140
 H13 H 0.02454 -0.13517 0.51534
 C14 C -0.00121 -0.02186 0.53552
 H15 H -0.01043 0.00877 0.54092
 C16 C -0.00162 -0.06210 0.54831
 H17 H -0.00982 -0.06107 0.56354
 Zn18 Zn -0.00275 0.02482 0.49864
 N19 N 0.00799 -0.02286 0.51626
 C20 C 0.10900 0.06966 0.48549
 N21 N 0.06141 0.07202 0.48442
 C22 C 0.05739 0.11127 0.47328
 C23 C 0.10225 0.15037 0.46263
 C24 C 0.15502 0.10788 0.47484
 C25 C -0.11168 -0.05731 0.48796
 C26 C -0.15223 -0.09713 0.47571
 C27 C -0.08597 -0.06304 0.44989
 C28 C -0.04741 -0.02332 0.46251
 N29 N -0.06042 -0.02158 0.48123
 H30 H 0.11146 0.03853 0.49466
 H31 H 0.01907 0.11222 0.47278
 H32 H 0.09796 0.18098 0.45372
 H33 H 0.19282 0.10589 0.47582
 H34 H -0.12050 -0.05638 0.50312
 H35 H -0.19127 -0.12626 0.48217
 H36 H -0.07349 -0.06123 0.43504
 H37 H -0.00625 0.00491 0.45743
 C38 C 0.00707 -0.10411 0.54123
 C39 C -0.03145 0.14967 0.53361
 C40 C -0.13957 -0.10226 0.45632
 C41 C 0.15194 0.14916 0.46337
 C42 C 1.10510 0.02022 0.14238
 H43 H 1.10595 0.05946 0.14378
 C44 C 1.14442 0.01757 0.13122
 H45 H 1.17509 0.05490 0.12384
 C46 C 1.06354 -0.07606 0.15031
 H47 H 1.03228 -0.11211 0.15802
 C48 C 1.10209 -0.08072 0.13907
 H49 H 1.10030 -0.12056 0.13815
 N50 N 1.06581 -0.02602 0.15166
 C51 C 0.93574 0.01498 0.15893
 H52 H 0.93598 0.01883 0.17455
 C53 C 0.89516 0.01800 0.14733
 H54 H 0.86437 0.02456 0.15410
 C55 C 0.97308 -0.00244 0.13124
 H56 H 1.00226 -0.01225 0.12505
 C57 C 0.93321 -0.00006 0.11918
 H58 H 0.93304 -0.00669 0.10372
 Zn59 Zn 1.01887 -0.01273 0.16707
 N60 N 0.97315 0.00415 0.15077
 C61 C 1.06970 0.09778 0.18246
 N62 N 1.06657 0.04715 0.18321
 C63 C 1.10129 0.03759 0.19487
 C64 C 1.14000 0.07911 0.20688
 C65 C 1.10898 0.14122 0.19396
 C66 C 0.93088 -0.12153 0.17327
 C67 C 0.89019 -0.16588 0.18407
 C68 C 0.93425 -0.11581 0.21348
 C69 C 0.97335 -0.07218 0.20215
 N70 N 0.97114 -0.07567 0.18242
 H71 H 1.04269 0.10488 0.17266
 H72 H 1.09851 -0.00281 0.19489
 H73 H 1.16555 0.06933 0.21650
 H74 H 1.11182 0.18162 0.19279
 H75 H 0.92929 -0.12275 0.15754
 H76 H 0.85764 -0.20162 0.17662
 H77 H 0.93589 -0.11162 0.22913
 H78 H 1.00402 -0.03478 0.20922
 C79 C 0.89280 0.00895 0.12725
 C80 C 1.14351 -0.03323 0.12953
 C81 C 0.89155 -0.16300 0.20444
 C82 C 1.14496 0.13219 0.20641
 C83 C 0.04658 0.96724 0.86347
 H84 H 0.00519 0.93221 0.86493
 C85 C 0.08923 0.97045 0.87538
 H86 H 0.08000 0.93809 0.88627
 C87 C 0.10808 1.05197 0.84742
 H88 H 0.11507 1.08294 0.83622
 C89 C 0.15238 1.05670 0.85904
 H90 H 0.19347 1.09156 0.85670
 N91 N 0.05658 1.00739 0.84979
 C92 C -0.11692 0.95827 0.84423
 H93 H -0.12896 0.93837 0.83025
 C94 C -0.15693 0.95851 0.85596
 H95 H -0.19947 0.93782 0.85079
 C96 C -0.04618 1.01393 0.86678
 H97 H -0.00280 1.03635 0.87081
 C98 C -0.08420 1.01727 0.87850
 H99 H -0.06917 1.04043 0.89184
 Zn100 Zn -0.00557 0.99212 0.83393
 N101 N -0.06287 0.98466 0.85003
 C102 C -0.06991 0.87703 0.82137
 N103 N -0.02198 0.92676 0.82040
 C104 C 0.02113 0.93293 0.80981
 C105 C 0.01675 0.88883 0.79920
 C106 C -0.07637 0.83175 0.81070
 C107 C 0.02305 1.10161 0.82290
 C108 C 0.02451 1.14307 0.81039
 C109 C -0.00236 1.07910 0.78376
 C110 C -0.00341 1.03894 0.79674
 N111 N 0.00845 1.05050 0.81596
 H112 H -0.10290 0.87197 0.83050
 H113 H 0.05907 0.97263 0.80954
 H114 H 0.05131 0.89507 0.79059
 H115 H -0.11474 0.79246 0.81143
 H116 H 0.03121 1.10936 0.83831
 H117 H 0.03394 1.18272 0.81631
 H118 H -0.01290 1.06871 0.76859
 H119 H -0.01627 0.99774 0.79155
 C120 C -0.14078 0.98933 0.87327
 C121 C 0.14322 1.01505 0.87306
 C122 C 0.01034 1.13150 0.79062
 C123 C -0.03253 0.83754 0.79947
 C124 C 0.37034 0.01389 0.01169
 C125 C 0.37181 0.02084 -0.00815
 C126 C 0.41369 0.01229 -0.01447
 N127 N 0.43735 -0.00026 0.00084
 C128 C 0.41113 0.00097 0.01687
 C129 C 0.42649 0.01223 -0.03422
 C130 C 0.47120 0.00633 -0.04046
 C131 C 0.47913 -0.00258 -0.05954
 C132 C 0.52759 -0.00406 -0.05973
 C133 C 0.54825 0.00400 -0.04075
 N134 N 0.51397 0.01119 -0.02918
 C135 C 0.59921 0.00776 -0.03493
 C136 C 0.61733 0.01063 -0.01528
 C137 C 0.66934 0.02024 -0.00936
 C138 C 0.66974 0.01785 0.01055
 C139 C 0.61760 0.00554 0.01626
 N140 N 0.58561 0.00099 0.00045
 C141 C 0.59963 -0.00472 0.03574
 C142 C 0.54692 -0.01531 0.04139
 C143 C 0.52364 -0.03782 0.05926
 C144 C 0.47315 -0.04037 0.05927
 C145 C 0.46704 -0.01906 0.04143
 N146 N 0.51240 -0.00353 0.03068
 C147 C 0.42142 -0.01216 0.03602
 H148 H 0.34212 0.01755 0.02118
 H149 H 0.34459 0.03043 -0.01689
 H150 H 0.52197 0.01929 0.01773
 H151 H 0.45310 -0.00697 -0.07214
 H152 H 0.54581 -0.00950 -0.07255
 H153 H 0.70363 0.02782 -0.01833
 H154 H 0.70437 0.02360 0.01972
 H155 H 0.44431 -0.05599 0.07112
 H156 H 0.52201 0.02425 -0.01490
 H157 H 0.54111 -0.05126 0.07106
 C158 C -0.00562 0.35772 0.67244
 C159 C -0.00900 0.36034 0.65254
 C160 C -0.02552 0.39908 0.64807
 N161 N -0.03293 0.41975 0.66457
 C162 C -0.02064 0.39462 0.67949
 C163 C -0.03607 0.41259 0.62904
 C164 C -0.04312 0.45885 0.62453
 C165 C -0.06127 0.46865 0.60662
 C166 C -0.05872 0.51942 0.60769
 C167 C -0.03936 0.53909 0.62625
 N168 N -0.02964 0.50211 0.63637
 C169 C -0.02861 0.59131 0.63304
 C170 C -0.02226 0.60462 0.65300
 C171 C -0.00711 0.65670 0.66017
 C172 C -0.00953 0.65116 0.68006
 C173 C -0.02551 0.59604 0.68440
 N174 N -0.03361 0.56758 0.66784
 C175 C -0.03486 0.57247 0.70336
 C176 C -0.04107 0.51951 0.70785
 C177 C -0.05789 0.49206 0.72567
 C178 C -0.05493 0.44406 0.72462
 C179 C -0.03666 0.44340 0.70616
 N180 N -0.02795 0.48968 0.69609
 C181 C -0.02611 0.40194 0.69940
 H182 H 0.00619 0.33134 0.68075
 H183 H -0.00017 0.33652 0.64249
 H184 H -0.00827 0.50307 0.68283
 H185 H -0.07440 0.44225 0.59401
 H186 H -0.06977 0.53960 0.59610
 H187 H 0.00419 0.69470 0.65196
 H188 H -0.00037 0.68402 0.69017
 H189 H -0.06501 0.41321 0.73615
 H190 H -0.00904 0.50908 0.64973
 H191 H -0.07043 0.50549 0.73821
 C192 C 0.63728 0.67082 0.33982
 C193 C 0.63794 0.66661 0.32003
 C194 C 0.60340 0.61096 0.31578
 N195 N 0.58210 0.58096 0.33228
 C196 C 0.60295 0.61744 0.34703
 C197 C 0.59565 0.58812 0.29709
 C198 C 0.55140 0.53481 0.29228
 C199 C 0.54577 0.50822 0.27489
 C200 C 0.49569 0.45969 0.27531
 C201 C 0.47260 0.45717 0.29316
 N202 N 0.50649 0.50353 0.30328
 C203 C 0.42025 0.41429 0.29930
 C204 C 0.40410 0.40511 0.31898
 C205 C 0.35269 0.36455 0.32547
 C206 C 0.35527 0.36618 0.34540
 C207 C 0.40824 0.40746 0.35048
 N208 N 0.43811 0.43097 0.33431
 C209 C 0.42897 0.42033 0.36979
 C210 C 0.48030 0.46727 0.37475
 C211 C 0.50626 0.47563 0.39287
 C212 C 0.55326 0.52714 0.39213
 C213 C 0.55466 0.54887 0.37358
 N214 N 0.50991 0.51223 0.36312
 C215 C 0.59537 0.60226 0.36699
 H216 H 0.66020 0.70877 0.34798
 H217 H 0.66133 0.70054 0.30991
 H218 H 0.49726 0.52008 0.34959
 H219 H 0.57428 0.52256 0.26295
 H220 H 0.47858 0.42989 0.26370
 H221 H 0.31723 0.33590 0.31684
 H222 H 0.32205 0.33954 0.35504
 H223 H 0.58297 0.54633 0.40391
 H224 H 0.49671 0.51576 0.31601
 H225 H 0.49266 0.44761 0.40536
 C226 C -0.04172 0.26551 0.57064
 C227 C -0.08476 0.20984 0.57054
 C228 C -0.08267 0.17249 0.55769
 C229 C -0.03740 0.19038 0.54532
 C230 C 0.00459 0.24670 0.54526
 C231 C 0.00272 0.28443 0.55791
 C232 C -0.04213 0.30424 0.58481
 C233 C 0.00172 0.35952 0.58524
 C234 C 0.00245 0.39546 0.59934
 C235 C -0.03986 0.37608 0.61302
 C236 C -0.08406 0.32097 0.61221
 C237 C -0.08538 0.28474 0.59811
 C238 C 0.04520 0.34030 0.55849
 C239 C 0.04467 0.37725 0.57191
 C240 C -0.12802 0.19228 0.58375
 C241 C -0.12827 0.22908 0.59732
 H242 H 0.07960 0.35539 0.54869
 H243 H 0.07864 0.41979 0.57207
 H244 H -0.16148 0.14949 0.58382
 H245 H -0.16193 0.21362 0.60746
 H246 H -0.11480 0.12908 0.55794
 H247 H 0.03926 0.26079 0.53562
 H248 H 0.03656 0.43788 0.60011
 H249 H -0.11651 0.30625 0.62283
 C250 C 0.76357 0.72072 0.24156
 C251 C 0.81887 0.73667 0.24614
 C252 C 0.86044 0.77298 0.23348
 C253 C 0.84702 0.79321 0.21636
 C254 C 0.79122 0.77536 0.21165
 C255 C 0.74928 0.73950 0.22433
 C256 C 0.72004 0.68513 0.25539
 C257 C 0.66494 0.67088 0.25121
 C258 C 0.62403 0.63871 0.26479
 C259 C 0.63813 0.62068 0.28228
 C260 C 0.69335 0.63456 0.28607
 C261 C 0.73457 0.66714 0.27275
 C262 C 0.69358 0.72343 0.22046
 C263 C 0.65215 0.68981 0.23369
 C264 C 0.83164 0.71719 0.26352
 C265 C 0.79016 0.68286 0.27658
 H266 H 0.68202 0.73764 0.20722
 H267 H 0.60982 0.67897 0.23026
 H268 H 0.87414 0.72910 0.26717
 H269 H 0.80180 0.66913 0.28992
 H270 H 0.90335 0.78649 0.23710
 H271 H 0.78080 0.79144 0.19861
 H272 H 0.58149 0.62812 0.26193
 H273 H 0.70408 0.62052 0.29955
 C274 C 0.27070 0.01664 -0.08999
 C275 C 0.27175 0.06706 -0.09434
 C276 C 0.23088 0.06690 -0.10688
 C277 C 0.18920 0.01668 -0.11493
 C278 C 0.19002 -0.03311 -0.11082
 C279 C 0.23023 -0.03349 -0.09823
 C280 C 0.31202 0.01605 -0.07623
 C281 C 0.30980 -0.03474 -0.07148
 C282 C 0.34788 -0.03544 -0.05788
 C283 C 0.38815 0.01419 -0.04924
 C284 C 0.39063 0.06496 -0.05433
 C285 C 0.35223 0.06607 -0.06777
 C286 C 0.23006 -0.08325 -0.09343
 C287 C 0.26908 -0.08390 -0.08023
 C288 C 0.31295 0.11633 -0.08574
 C289 C 0.35258 0.11586 -0.07272
 H290 H 0.19902 -0.12217 -0.09974
 H291 H 0.26712 -0.12326 -0.07673
 H292 H 0.31432 0.15553 -0.08898
 H293 H 0.38338 0.15471 -0.06631
 H294 H 0.23045 0.10534 -0.10985
 H295 H 0.15891 -0.07178 -0.11726
 H296 H 0.34613 -0.07444 -0.05383
 H297 H 0.42166 0.10305 -0.04753
 C298 C -0.01039 0.76267 0.57923
 C299 C -0.04851 0.78162 0.58002
 C300 C -0.04245 0.82513 0.56753
 C301 C 0.00134 0.84976 0.55430
 C302 C 0.03893 0.82986 0.55357
 C303 C 0.03336 0.78640 0.56608
 C304 C -0.01616 0.71742 0.59256
 C305 C 0.02243 0.69896 0.59200
 C306 C 0.01752 0.65687 0.60505
 C307 C -0.02547 0.63362 0.61855
 C308 C -0.06444 0.65176 0.61868
 C309 C -0.05978 0.69396 0.60577
 C310 C 0.07083 0.76644 0.56583
 C311 C 0.06550 0.72350 0.57858
 C312 C -0.09186 0.75680 0.59331
 C313 C -0.09741 0.71368 0.60597
 H314 H 0.10475 0.78435 0.55576
 H315 H 0.09549 0.70959 0.57799
 H316 H -0.12159 0.77102 0.59401
 H317 H -0.13122 0.69590 0.61609
 H318 H -0.07217 0.83946 0.56794
 H319 H 0.07289 0.84879 0.54352
 H320 H 0.04746 0.64275 0.60500
 H321 H -0.09765 0.63357 0.62905
 C322 C 0.26569 0.25773 0.24413
 C323 C 0.27688 0.21851 0.23609
 C324 C 0.23826 0.17919 0.22322
 C325 C 0.18754 0.17729 0.21886
 C326 C 0.17731 0.21746 0.22697
 C327 C 0.21646 0.25804 0.23949
 C328 C 0.30595 0.29874 0.25790
 C329 C 0.29515 0.33849 0.26578
 C330 C 0.33350 0.37719 0.27895
 C331 C 0.38137 0.37510 0.28458
 C332 C 0.39128 0.33461 0.27675
 C333 C 0.35409 0.29683 0.26314
 C334 C 0.20707 0.29842 0.24770
 C335 C 0.24591 0.33820 0.26052
 C336 C 0.32610 0.21874 0.24134
 C337 C 0.36385 0.25696 0.25476
 H338 H 0.16932 0.29924 0.24422
 H339 H 0.23704 0.36858 0.26654
 H340 H 0.33513 0.18858 0.23523
 H341 H 0.40095 0.25527 0.25862
 H342 H 0.24775 0.14985 0.21671
 H343 H 0.13844 0.21640 0.22400
 H344 H 0.32580 0.40819 0.28516
 H345 H 0.42798 0.33284 0.28126
 C346 C 0.74505 -0.00016 -0.09051
 C347 C 0.79794 0.04617 -0.09275
 C348 C 0.83553 0.04237 -0.10475
 C349 C 0.82032 -0.00687 -0.11506
 C350 C 0.76592 -0.05222 -0.11318
 C351 C 0.72872 -0.04952 -0.10056
 C352 C 0.70643 0.00273 -0.07706
 C353 C 0.65476 -0.04479 -0.07384
 C354 C 0.61956 -0.04274 -0.06017
 C355 C 0.63517 0.00686 -0.05026
 C356 C 0.68601 0.05479 -0.05427
 C357 C 0.72245 0.05258 -0.06732
 C358 C 0.67597 -0.09569 -0.09741
 C359 C 0.63983 -0.09354 -0.08413
 C360 C 0.81242 0.09540 -0.08283
 C361 C 0.77512 0.09871 -0.07046
 H362 H 0.66286 -0.13414 -0.10501
 H363 H 0.59996 -0.13038 -0.08186
 H364 H 0.85304 0.13163 -0.08457
 H365 H 0.78800 0.13734 -0.06301
 H366 H 0.87607 0.07869 -0.10652
 H367 H 0.75340 -0.09091 -0.12054
 H368 H 0.58028 -0.07960 -0.05707
 H369 H 0.69789 0.09292 -0.04661
 C370 C 0.26461 -0.03262 0.09267
 C371 C 0.28097 0.00875 0.10670
 C372 C 0.24145 0.00686 0.11924
 C373 C 0.18578 -0.03569 0.11773
 C374 C 0.17036 -0.07793 0.10399
 C375 C 0.20964 -0.07633 0.09129
 C376 C 0.30546 -0.02907 0.07875
 C377 C 0.28876 -0.06942 0.06428
 C378 C 0.32726 -0.06451 0.05059
 C379 C 0.38176 -0.01946 0.05130
 C380 C 0.39817 0.02001 0.06607
 C381 C 0.36006 0.01553 0.07983
 C382 C 0.19479 -0.11653 0.07687
 C383 C 0.23368 -0.11312 0.06358
 C384 C 0.33620 0.05206 0.10759
 C385 C 0.37510 0.05538 0.09437
 H386 H 0.15257 -0.15047 0.07565
 H387 H 0.22033 -0.14456 0.05252
 H388 H 0.34929 0.08412 0.11840
 H389 H 0.41710 0.08986 0.09538
 H390 H 0.25370 0.03910 0.12995
 H391 H 0.12752 -0.11051 0.10265
 H392 H 0.31486 -0.09486 0.03916
 H393 H 0.44018 0.05469 0.06652
 C394 C 0.74787 0.76950 0.41994
 C395 C 0.72781 0.78685 0.43509
 C396 C 0.76541 0.82925 0.44743
 C397 C 0.82338 0.85599 0.44447
 C398 C 0.84189 0.83725 0.42886
 C399 C 0.80469 0.79409 0.41683
 C400 C 0.70861 0.72496 0.40694
 C401 C 0.72897 0.70701 0.39201
 C402 C 0.69163 0.66533 0.37953
 C403 C 0.63430 0.64302 0.38144
 C404 C 0.61441 0.66091 0.39663
 C405 C 0.65152 0.70170 0.40954
 C406 C 0.82349 0.77482 0.40177
 C407 C 0.78627 0.73181 0.38963
 C408 C 0.67035 0.76191 0.43745
 C409 C 0.63287 0.72032 0.42483
 H410 H 0.86739 0.79324 0.39931
 H411 H 0.80247 0.71834 0.37815
 H412 H 0.65417 0.77498 0.44906
 H413 H 0.58896 0.70267 0.42705
 H414 H 0.74859 0.84310 0.45854
 H415 H 0.88548 0.85341 0.42655
 H416 H 0.70697 0.65117 0.36797
 H417 H 0.57026 0.64363 0.39815
 C418 C -0.00670 0.24810 0.75269
 C419 C 0.03849 0.26763 0.76580
 C420 C 0.04414 0.22946 0.77820
 C421 C 0.00508 0.17217 0.77745
 C422 C -0.04010 0.15353 0.76424
 C423 C -0.04615 0.19124 0.75183
 C424 C -0.01269 0.28786 0.73951
 C425 C -0.05774 0.26814 0.72632
 C426 C -0.06262 0.30590 0.71354
 C427 C -0.02261 0.36279 0.71383
 C428 C 0.02180 0.38216 0.72731
 C429 C 0.02707 0.34473 0.74020
 C430 C -0.09089 0.17317 0.73856
 C431 C -0.09657 0.21098 0.72601
 C432 C 0.07719 0.32489 0.76616
 C433 C 0.07159 0.36278 0.75357
 H434 H -0.12164 0.12938 0.73780
 H435 H -0.13148 0.19530 0.71590
 H436 H 0.11223 0.34053 0.77620
 H437 H 0.10252 0.40652 0.75425
 H438 H 0.07917 0.24414 0.78824
 H439 H -0.07100 0.10972 0.76382
 H440 H -0.09685 0.29121 0.70315
 H441 H 0.05257 0.42606 0.72746
 C442 C 0.76089 -0.00169 0.09060
 C443 C 0.77691 -0.04218 0.08940
 C444 C 0.81977 -0.03849 0.10156
 C445 C 0.84664 0.00524 0.11487
 C446 C 0.82940 0.04496 0.11617
 C447 C 0.78671 0.04190 0.10394
 C448 C 0.71700 -0.00442 0.07737
 C449 C 0.70204 0.03700 0.07814
 C450 C 0.66207 0.03561 0.06489
 C451 C 0.63759 -0.00665 0.05099
 C452 C 0.65167 -0.04884 0.05082
 C453 C 0.69181 -0.04764 0.06387
 C454 C 0.76985 0.08196 0.10452
 C455 C 0.72831 0.07961 0.09182
 C456 C 0.75017 -0.08524 0.07592
 C457 C 0.70828 -0.08795 0.06338
 H458 H 0.78935 0.11576 0.11474
 H459 H 0.71706 0.11173 0.09258
 H460 H 0.76209 -0.11681 0.07492
 H461 H 0.68912 -0.12148 0.05304
 H462 H 0.83218 -0.06977 0.10073
 H463 H 0.85005 0.07880 0.12634
 H464 H 0.65105 0.06803 0.06496
 H465 H 0.63259 -0.08137 0.04009
 C466 C 0.28171 0.26810 0.42727
 C467 C 0.25410 0.28589 0.43937
 C468 C 0.21322 0.24709 0.45172
 C469 C 0.19959 0.19076 0.45195
 C470 C 0.22896 0.17394 0.44020
 C471 C 0.26980 0.21243 0.42768
 C472 C 0.32238 0.30808 0.41341
 C473 C 0.34840 0.28980 0.40073
 C474 C 0.38484 0.32729 0.38689
 C475 C 0.39482 0.38236 0.38566
 C476 C 0.36964 0.40047 0.39877
 C477 C 0.33303 0.36334 0.41263
 C478 C 0.29770 0.19608 0.41510
 C479 C 0.33629 0.23409 0.40184
 C480 C 0.26679 0.34179 0.43849
 C481 C 0.30565 0.37989 0.42535
 H482 H 0.28897 0.15331 0.41528
 H483 H 0.35620 0.21954 0.39218
 H484 H 0.24586 0.35600 0.44782
 H485 H 0.31362 0.42241 0.42492
 H486 H 0.19118 0.26039 0.46090
 H487 H 0.21832 0.13057 0.44019
 H488 H 0.40435 0.31353 0.37672
 H489 H 0.37731 0.44289 0.39771
 C490 C -0.04099 0.71278 0.76205
 C491 C -0.08537 0.72326 0.76214
 C492 C -0.08380 0.76218 0.77515
 C493 C -0.03773 0.79123 0.78767
 C494 C 0.00569 0.77909 0.78773
 C495 C 0.00432 0.73995 0.77493
 C496 C -0.04099 0.67416 0.74773
 C497 C 0.00406 0.66476 0.74735
 C498 C 0.00497 0.62987 0.73317
 C499 C -0.03836 0.60530 0.71935
 C500 C -0.08363 0.61432 0.72007
 C501 C -0.08518 0.64881 0.73428
 C502 C 0.04809 0.72864 0.77437
 C503 C 0.04791 0.69158 0.76084
 C504 C -0.12948 0.69600 0.74876
 C505 C -0.12933 0.65950 0.73504
 H506 H 0.08318 0.74924 0.78429
 H507 H 0.08281 0.68458 0.76072
 H508 H -0.16396 0.70368 0.74868
 H509 H -0.16372 0.64004 0.72478
 H510 H -0.11704 0.77180 0.77491
 H511 H 0.04103 0.80104 0.79746
 H512 H 0.03988 0.62298 0.73247
 H513 H -0.11687 0.59532 0.70934
   
