data_POSCAR
  _audit_creation_date              2014-09-24
  _audit_creation_method            'ToBaCCo'
  _symmetry_space_group_name_H-M    'P1'
  _symmetry_Int_Tables_number       1
  _symmetry_cell_setting            triclinic
  loop_
  _symmetry_equiv_pos_as_xyz
 x,y,z
_cell_length_a 59.8556
_cell_length_b 59.7980
_cell_length_c 59.5312
_cell_angle_alpha 89.957400
_cell_angle_beta 89.999700
_cell_angle_gamma 98.852800
loop_
  _atom_site_label
  _atom_site_type_symbol
  _atom_site_fract_x
  _atom_site_fract_y
  _atom_site_fract_z
O1 O 0.02573 0.27707 -0.01336
 O2 O -0.01931 0.27612 0.02893
 O3 O 0.02414 0.27552 0.03017
 O4 O -0.01778 0.27751 -0.01481
 O5 O -0.02396 0.24013 -0.01599
 O6 O 0.01815 0.23816 0.02879
 O7 O -0.02527 0.23877 0.02791
 O8 O 0.01921 0.23971 -0.01497
 Cu9 Cu 0.00377 0.28031 0.00787
 Cu10 Cu -0.00362 0.23544 0.00636
 C11 C 0.03005 0.25855 -0.02142
 C12 C -0.02989 0.25729 0.03573
 C13 C 0.02837 0.25650 0.03704
 C14 C -0.02789 0.25915 -0.02315
 O15 O 0.52502 0.78375 0.47793
 O16 O 0.48226 0.78348 0.52250
 O17 O 0.52587 0.78344 0.52171
 O18 O 0.48176 0.78382 0.47864
 O19 O 0.47571 0.74643 0.47871
 O20 O 0.51994 0.74604 0.52167
 O21 O 0.47664 0.74609 0.52243
 O22 O 0.51955 0.74635 0.47808
 Cu23 Cu 0.50429 0.78738 0.50025
 Cu24 Cu 0.49735 0.74247 0.50013
 C25 C 0.52963 0.76509 0.47051
 C26 C 0.47222 0.76473 0.53008
 C27 C 0.53043 0.76468 0.52899
 C28 C 0.47123 0.76518 0.47136
 O29 O 1.01643 0.71591 0.02161
 O30 O 0.97278 0.71773 -0.02180
 O31 O 1.01586 0.71564 -0.02236
 O32 O 0.97309 0.71781 0.02176
 O33 O 0.97988 0.75518 0.02093
 O34 O 1.02441 0.75289 -0.02135
 O35 O 0.98129 0.75500 -0.02292
 O36 O 1.02291 0.75327 0.02221
 Cu37 Cu 0.99384 0.71301 -0.00015
 Cu38 Cu 1.00285 0.75783 -0.00031
 C39 C 1.02696 0.73432 0.02948
 C40 C 0.96979 0.73670 -0.02989
 C41 C 1.02755 0.73389 -0.02927
 C42 C 0.96902 0.73686 0.02865
 O43 O 0.51835 0.22455 0.53016
 O44 O 0.47481 0.22239 0.48616
 O45 O 0.51849 0.22220 0.48652
 O46 O 0.47492 0.22451 0.52971
 O47 O 0.48075 0.26186 0.52789
 O48 O 0.52403 0.25953 0.48431
 O49 O 0.48082 0.25974 0.48412
 O50 O 0.52425 0.26190 0.52821
 Cu51 Cu 0.49608 0.21966 0.50830
 Cu52 Cu 0.50308 0.26452 0.50597
 C53 C 0.52862 0.24359 0.53675
 C54 C 0.47042 0.24071 0.47766
 C55 C 0.52857 0.24047 0.47796
 C56 C 0.47044 0.24356 0.53618
 O57 O 0.72108 0.01890 -0.02752
 O58 O 0.72019 -0.02573 0.01535
 O59 O 0.71845 0.01775 0.01625
 O60 O 0.72261 -0.02420 -0.02816
 O61 O 0.75988 -0.01663 -0.02655
 O62 O 0.75569 0.02397 0.01923
 O63 O 0.75746 -0.01882 0.01726
 O64 O 0.75823 0.02688 -0.02430
 Cu65 Cu 0.71683 -0.00400 -0.00621
 Cu66 Cu 0.76157 0.00454 -0.00347
 C67 C 0.73980 0.03059 -0.03306
 C68 C 0.73869 -0.02992 0.02359
 C69 C 0.73636 0.02781 0.02546
 C70 C 0.74192 -0.02748 -0.03500
 O71 O 0.21932 0.47168 0.51964
 O72 O 0.21871 0.51444 0.47512
 O73 O 0.22035 0.47119 0.47614
 O74 O 0.21743 0.51488 0.51911
 O75 O 0.25470 0.52313 0.51900
 O76 O 0.25767 0.47789 0.47759
 O77 O 0.25606 0.52097 0.47542
 O78 O 0.25655 0.47991 0.52141
 Cu79 Cu 0.21519 0.49239 0.49741
 Cu80 Cu 0.26000 0.50120 0.49848
 C81 C 0.23806 0.46864 0.52818
 C82 C 0.23731 0.52474 0.46748
 C83 C 0.23948 0.46699 0.46968
 C84 C 0.23556 0.52652 0.52627
 O85 O 0.27933 1.02437 0.01975
 O86 O 0.27843 0.98106 -0.02436
 O87 O 0.27817 1.02453 -0.02381
 O88 O 0.27965 0.98064 0.01937
 O89 O 0.24231 0.97486 0.02058
 O90 O 0.24084 1.01859 -0.02276
 O91 O 0.24109 0.97510 -0.02337
 O92 O 0.24202 1.01807 0.02101
 Cu93 Cu 0.28264 1.00321 -0.00234
 Cu94 Cu 0.23782 0.99601 -0.00107
 C95 C 0.26082 1.02860 0.02791
 C96 C 0.25960 0.97082 -0.03147
 C97 C 0.25926 1.02907 -0.03063
 C98 C 0.26123 0.97040 0.02742
 O99 O 0.78179 0.52835 0.51476
 O100 O 0.78170 0.48361 0.47218
 O101 O 0.77977 0.52681 0.47122
 O102 O 0.78377 0.48510 0.51599
 O103 O 0.74651 0.47676 0.51675
 O104 O 0.74249 0.52013 0.47353
 O105 O 0.74436 0.47706 0.47320
 O106 O 0.74461 0.52009 0.51740
 Cu107 Cu 0.78551 0.50668 0.49338
 Cu108 Cu 0.74075 0.49781 0.49545
 C109 C 0.76321 0.53171 0.52342
 C110 C 0.76298 0.47291 0.46526
 C111 C 0.76048 0.53066 0.46484
 C112 C 0.76582 0.47364 0.52380
 C113 C 0.24590 0.25033 0.25296
 C114 C 0.26091 0.23541 0.25282
 C115 C 0.26165 0.21918 0.23422
 C116 C 0.27740 0.23465 0.27121
 C117 C 0.24611 0.26757 0.27095
 C118 C 0.22848 0.25018 0.23516
 C119 C 0.25514 0.19598 0.23811
 C120 C 0.25511 0.18052 0.22054
 C121 C 0.26221 0.18798 0.19894
 C122 C 0.26925 0.21121 0.19521
 C123 C 0.26877 0.22674 0.21270
 C124 C 0.27012 0.22816 0.29298
 C125 C 0.28587 0.22791 0.31030
 C126 C 0.30908 0.23449 0.30615
 C127 C 0.31625 0.24084 0.28426
 C128 C 0.30055 0.24064 0.26689
 C129 C 0.26565 0.28311 0.27553
 C130 C 0.26551 0.29935 0.29238
 C131 C 0.24571 0.30058 0.30476
 C132 C 0.22609 0.28518 0.29988
 C133 C 0.22630 0.26889 0.28312
 C134 C 0.22690 0.27010 0.22323
 C135 C 0.21031 0.27040 0.20677
 C136 C 0.19489 0.25077 0.20196
 C137 C 0.19643 0.23085 0.21407
 C138 C 0.21296 0.23062 0.23063
 H139 H 0.24967 0.18992 0.25467
 H140 H 0.24976 0.16270 0.22390
 H141 H 0.27474 0.21740 0.17870
 H142 H 0.27395 0.24462 0.20952
 H143 H 0.25228 0.22336 0.29652
 H144 H 0.27987 0.22299 0.32702
 H145 H 0.30641 0.24564 0.25014
 H146 H 0.28096 0.28277 0.26593
 H147 H 0.28086 0.31106 0.29555
 H148 H 0.21054 0.28565 0.30903
 H149 H 0.21100 0.25717 0.27971
 H150 H 0.23860 0.28542 0.22661
 H151 H 0.20962 0.28604 0.19781
 H152 H 0.18472 0.21549 0.21096
 H153 H 0.21348 0.21523 0.24007
 H154 H 0.33403 0.24583 0.28054
 C155 C 0.75190 0.74394 0.24482
 C156 C 0.73796 0.75993 0.24596
 C157 C 0.73755 0.77656 0.22754
 C158 C 0.72231 0.76162 0.26515
 C159 C 0.75157 0.72579 0.26195
 C160 C 0.76873 0.74407 0.22642
 C161 C 0.74504 0.79959 0.23151
 C162 C 0.74516 0.81532 0.21414
 C163 C 0.73720 0.80834 0.19267
 C164 C 0.72922 0.78529 0.18887
 C165 C 0.72957 0.76949 0.20614
 C166 C 0.72962 0.76103 0.28757
 C167 C 0.71444 0.76204 0.30527
 C168 C 0.69191 0.76460 0.30089
 C169 C 0.68485 0.76612 0.27853
 C170 C 0.69985 0.76448 0.26086
 C171 C 0.73150 0.71145 0.26758
 C172 C 0.73161 0.69472 0.28402
 C173 C 0.75186 0.69183 0.29489
 C174 C 0.77197 0.70593 0.28880
 C175 C 0.77181 0.72268 0.27250
 C176 C 0.76896 0.72462 0.21334
 C177 C 0.78515 0.72427 0.19649
 C178 C 0.80151 0.74340 0.19242
 C179 C 0.80127 0.76285 0.20563
 C180 C 0.78517 0.76311 0.22258
 H181 H 0.75115 0.80528 0.24799
 H182 H 0.75125 0.83299 0.21757
 H183 H 0.72305 0.77945 0.17247
 H184 H 0.72358 0.75176 0.20289
 H185 H 0.74705 0.75971 0.29141
 H186 H 0.72038 0.76118 0.32239
 H187 H 0.69379 0.76520 0.24377
 H188 H 0.71577 0.71328 0.25932
 H189 H 0.71586 0.68405 0.28818
 H190 H 0.78788 0.70420 0.29675
 H191 H 0.78750 0.73346 0.26832
 H192 H 0.75655 0.70968 0.21619
 H193 H 0.78484 0.70900 0.18666
 H194 H 0.81373 0.77780 0.20311
 H195 H 0.78569 0.77809 0.23290
 H196 H 0.66757 0.76807 0.27469
 C197 C 0.73395 0.23447 0.25119
 C198 C 0.75168 0.25173 0.25076
 C199 C 0.77010 0.25245 0.23391
 C200 C 0.75336 0.27070 0.26709
 C201 C 0.71693 0.23240 0.26941
 C202 C 0.73079 0.21693 0.23347
 C203 C 0.78196 0.23410 0.23135
 C204 C 0.79884 0.23468 0.21506
 C205 C 0.80452 0.25383 0.20129
 C206 C 0.79307 0.27246 0.20436
 C207 C 0.77604 0.27176 0.22052
 C208 C 0.77291 0.27627 0.28018
 C209 C 0.77441 0.29376 0.29594
 C210 C 0.75637 0.30603 0.29887
 C211 C 0.73702 0.30073 0.28533
 C212 C 0.73564 0.28339 0.26946
 C213 C 0.69455 0.23499 0.26458
 C214 C 0.67876 0.23469 0.28191
 C215 C 0.68498 0.23118 0.30425
 C216 C 0.70722 0.22777 0.30892
 C217 C 0.72314 0.22857 0.29163
 C218 C 0.72670 0.22272 0.21117
 C219 C 0.72492 0.20628 0.19431
 C220 C 0.72759 0.18391 0.19947
 C221 C 0.73131 0.17812 0.22191
 C222 C 0.73258 0.19445 0.23881
 H223 H 0.77813 0.21930 0.24196
 H224 H 0.80750 0.22016 0.21336
 H225 H 0.79705 0.28749 0.19408
 H226 H 0.76723 0.28618 0.22237
 H227 H 0.78686 0.26681 0.27844
 H228 H 0.78957 0.29744 0.30603
 H229 H 0.72067 0.27982 0.25906
 H230 H 0.68952 0.23792 0.24749
 H231 H 0.66169 0.23720 0.27784
 H232 H 0.71247 0.22509 0.32599
 H233 H 0.74036 0.22645 0.29557
 H234 H 0.72517 0.24002 0.20683
 H235 H 0.72212 0.21121 0.17715
 H236 H 0.73327 0.16097 0.22636
 H237 H 0.73570 0.18974 0.25597
 H238 H 0.72294 0.31002 0.28692
 C239 C 0.25880 0.75776 0.24916
 C240 C 0.24244 0.73924 0.24731
 C241 C 0.22438 0.73812 0.22999
 C242 C 0.24147 0.71948 0.26265
 C243 C 0.27515 0.76087 0.26819
 C244 C 0.26124 0.77570 0.23172
 C245 C 0.21096 0.75534 0.22833
 C246 C 0.19425 0.75440 0.21186
 C247 C 0.19026 0.73596 0.19698
 C248 C 0.20329 0.71840 0.19909
 C249 C 0.22020 0.71948 0.21545
 C250 C 0.22132 0.71144 0.27406
 C251 C 0.22046 0.69368 0.28944
 C252 C 0.23975 0.68355 0.29368
 C253 C 0.25971 0.69114 0.28164
 C254 C 0.26050 0.70880 0.26614
 C255 C 0.29830 0.76747 0.26389
 C256 C 0.31395 0.76966 0.28147
 C257 C 0.30678 0.76504 0.30369
 C258 C 0.28358 0.75904 0.30809
 C259 C 0.26788 0.75740 0.29056
 C260 C 0.26694 0.77081 0.20959
 C261 C 0.26846 0.78754 0.19302
 C262 C 0.26393 0.80932 0.19826
 C263 C 0.25849 0.81422 0.22051
 C264 C 0.25747 0.79761 0.23717
 H265 H 0.21341 0.76952 0.23984
 H266 H 0.18433 0.76806 0.21091
 H267 H 0.20063 0.70394 0.18794
 H268 H 0.23021 0.70590 0.21661
 H269 H 0.20639 0.71932 0.27149
 H270 H 0.20479 0.68822 0.29833
 H271 H 0.27607 0.71442 0.25712
 H272 H 0.30435 0.77047 0.24684
 H273 H 0.33173 0.77433 0.27760
 H274 H 0.27756 0.75575 0.32511
 H275 H 0.25006 0.75311 0.29444
 H276 H 0.27004 0.75399 0.20518
 H277 H 0.27263 0.78329 0.17601
 H278 H 0.25509 0.83090 0.22503
 H279 H 0.25313 0.80164 0.25421
 H280 H 0.27480 0.68356 0.28431
 C281 C 0.76866 0.26481 0.74794
 C282 C 0.74976 0.24907 0.75016
 C283 C 0.72973 0.24858 0.73524
 C284 C 0.74835 0.23179 0.76817
 C285 C 0.78686 0.26612 0.76495
 C286 C 0.77208 0.28091 0.72867
 C287 C 0.71979 0.26813 0.73185
 C288 C 0.70181 0.26793 0.71680
 C289 C 0.69316 0.24803 0.70512
 C290 C 0.70260 0.22829 0.70920
 C291 C 0.72065 0.22857 0.72407
 C292 C 0.74186 0.23690 0.78997
 C293 C 0.74122 0.22078 0.80709
 C294 C 0.74652 0.19916 0.80245
 C295 C 0.75300 0.19413 0.78060
 C296 C 0.75429 0.21046 0.76368
 C297 C 0.80363 0.25226 0.76313
 C298 C 0.81973 0.25216 0.78015
 C299 C 0.81942 0.26613 0.79912
 C300 C 0.80272 0.28023 0.80066
 C301 C 0.78646 0.28005 0.78381
 C302 C 0.76799 0.27326 0.70650
 C303 C 0.76948 0.28862 0.68866
 C304 C 0.77590 0.31189 0.69252
 C305 C 0.78128 0.31942 0.71449
 C306 C 0.77929 0.30410 0.73239
 H307 H 0.72620 0.28367 0.74062
 H308 H 0.69481 0.28338 0.71422
 H309 H 0.69635 0.21266 0.70054
 H310 H 0.72786 0.21322 0.72629
 H311 H 0.73749 0.25341 0.79372
 H312 H 0.73619 0.22503 0.82384
 H313 H 0.75999 0.20649 0.74710
 H314 H 0.80394 0.24120 0.74877
 H315 H 0.83238 0.24113 0.77847
 H316 H 0.80188 0.29102 0.81513
 H317 H 0.77331 0.29050 0.78564
 H318 H 0.76322 0.25539 0.70302
 H319 H 0.76560 0.28230 0.67185
 H320 H 0.78631 0.33726 0.71796
 H321 H 0.78279 0.31055 0.74920
 H322 H 0.75747 0.17769 0.77670
 C323 C 0.23713 0.73881 0.74789
 C324 C 0.25448 0.75663 0.74775
 C325 C 0.27355 0.75786 0.73152
 C326 C 0.25534 0.77569 0.76396
 C327 C 0.22040 0.73543 0.76663
 C328 C 0.23416 0.72188 0.72930
 C329 C 0.28550 0.73957 0.72887
 C330 C 0.30283 0.74058 0.71301
 C331 C 0.30884 0.76006 0.69974
 C332 C 0.29734 0.77861 0.70298
 C333 C 0.27989 0.77752 0.71872
 C334 C 0.27497 0.78247 0.77663
 C335 C 0.27566 0.79970 0.79256
 C336 C 0.25671 0.81055 0.79612
 C337 C 0.23728 0.80417 0.78294
 C338 C 0.23668 0.78705 0.76688
 C339 C 0.19715 0.73072 0.76195
 C340 C 0.18132 0.72841 0.77941
 C341 C 0.18847 0.73111 0.80185
 C342 C 0.21172 0.73518 0.80657
 C343 C 0.22753 0.73686 0.78917
 C344 C 0.23515 0.72883 0.70670
 C345 C 0.23374 0.71288 0.68943
 C346 C 0.23045 0.68965 0.69436
 C347 C 0.22828 0.68265 0.71690
 C348 C 0.23026 0.69863 0.73421
 H349 H 0.28125 0.72443 0.73895
 H350 H 0.31149 0.72607 0.71113
 H351 H 0.30156 0.79389 0.69311
 H352 H 0.27102 0.79188 0.72063
 H353 H 0.28961 0.77405 0.77454
 H354 H 0.29092 0.80423 0.80236
 H355 H 0.22153 0.78245 0.75692
 H356 H 0.19122 0.72929 0.74475
 H357 H 0.16348 0.72524 0.77534
 H358 H 0.21767 0.73695 0.82376
 H359 H 0.24536 0.73965 0.79328
 H360 H 0.23736 0.74664 0.70243
 H361 H 0.23511 0.71873 0.67219
 H362 H 0.22573 0.66483 0.72117
 H363 H 0.22921 0.69283 0.75147
 H364 H 0.22248 0.81233 0.78506
 C365 C 0.25611 0.24774 0.75554
 C366 C 0.24112 0.26269 0.75552
 C367 C 0.24024 0.27893 0.73690
 C368 C 0.22468 0.26335 0.77396
 C369 C 0.25578 0.23022 0.77330
 C370 C 0.27347 0.24801 0.73767
 C371 C 0.24585 0.30220 0.74094
 C372 C 0.24575 0.31766 0.72337
 C373 C 0.23948 0.31012 0.70158
 C374 C 0.23335 0.28679 0.69770
 C375 C 0.23389 0.27129 0.71522
 C376 C 0.23201 0.26949 0.79579
 C377 C 0.21630 0.26962 0.81316
 C378 C 0.19307 0.26326 0.80898
 C379 C 0.18584 0.25725 0.78704
 C380 C 0.20150 0.25758 0.76963
 C381 C 0.23613 0.21477 0.77772
 C382 C 0.23615 0.19822 0.79430
 C383 C 0.25593 0.19655 0.80653
 C384 C 0.27567 0.21186 0.80181
 C385 C 0.27558 0.22849 0.78534
 C386 C 0.27501 0.22817 0.72561
 C387 C 0.29131 0.22807 0.70884
 C388 C 0.30648 0.24784 0.70383
 C389 C 0.30505 0.26765 0.71613
 C390 C 0.28882 0.26768 0.73300
 H391 H 0.25071 0.30832 0.75762
 H392 H 0.25039 0.33554 0.72687
 H393 H 0.22850 0.28051 0.68107
 H394 H 0.22937 0.25336 0.71191
 H395 H 0.24988 0.27411 0.79934
 H396 H 0.22233 0.27428 0.82992
 H397 H 0.19561 0.25285 0.75284
 H398 H 0.22083 0.21541 0.76819
 H399 H 0.22072 0.18658 0.79734
 H400 H 0.29121 0.21106 0.81087
 H401 H 0.29096 0.24013 0.78204
 H402 H 0.26343 0.21278 0.72907
 H403 H 0.29193 0.21251 0.69975
 H404 H 0.31659 0.28310 0.71287
 H405 H 0.28830 0.28302 0.74251
 H406 H 0.16804 0.25245 0.78330
 C407 C 0.74985 0.76103 0.74335
 C408 C 0.76453 0.74577 0.74353
 C409 C 0.76498 0.72908 0.72525
 C410 C 0.78059 0.74472 0.76224
 C411 C 0.75008 0.77835 0.76128
 C412 C 0.73248 0.76088 0.72550
 C413 C 0.75909 0.70595 0.72988
 C414 C 0.75876 0.69002 0.71270
 C415 C 0.76486 0.69693 0.69068
 C416 C 0.77126 0.72013 0.68618
 C417 C 0.77115 0.73611 0.70332
 C418 C 0.77277 0.73822 0.78384
 C419 C 0.78811 0.73734 0.80141
 C420 C 0.81147 0.74328 0.79767
 C421 C 0.81919 0.74975 0.77598
 C422 C 0.80387 0.75018 0.75835
 C423 C 0.76976 0.79355 0.76620
 C424 C 0.76963 0.80976 0.78311
 C425 C 0.74972 0.81128 0.79519
 C426 C 0.72997 0.79622 0.78994
 C427 C 0.73016 0.77997 0.77314
 C428 C 0.73110 0.78071 0.71335
 C429 C 0.71454 0.78100 0.69686
 C430 C 0.69895 0.76143 0.69225
 C431 C 0.70028 0.74162 0.70461
 C432 C 0.71677 0.74140 0.72119
 H433 H 0.75433 0.70027 0.74674
 H434 H 0.75392 0.67226 0.71669
 H435 H 0.77600 0.72593 0.66936
 H436 H 0.77588 0.75393 0.69954
 H437 H 0.75481 0.73380 0.78703
 H438 H 0.78170 0.73234 0.81797
 H439 H 0.81013 0.75515 0.74172
 H440 H 0.78518 0.79296 0.75687
 H441 H 0.78509 0.82120 0.78657
 H442 H 0.71432 0.79689 0.79886
 H443 H 0.71476 0.76849 0.76949
 H444 H 0.74294 0.79597 0.71658
 H445 H 0.71400 0.79656 0.68771
 H446 H 0.68843 0.72631 0.70166
 H447 H 0.71714 0.72609 0.73081
 H448 H 0.83709 0.75426 0.77258
 C449 C 0.26144 0.07654 0.07735
 N450 N 0.24176 0.06375 0.07093
 N451 N 0.24156 0.04831 0.05479
 C452 C 0.26107 0.04490 0.04462
 N453 N 0.28078 0.05765 0.05112
 N454 N 0.28094 0.07326 0.06711
 C455 C 0.26158 0.09346 0.09521
 N456 N 0.27967 0.10993 0.09809
 N457 N 0.27971 0.12525 0.11435
 C458 C 0.26177 0.12449 0.12844
 N459 N 0.24374 0.10796 0.12561
 N460 N 0.24360 0.09280 0.10921
 C461 C 0.26189 0.14108 0.14661
 N462 N 0.24709 0.13702 0.16393
 N463 N 0.24727 0.15191 0.18058
 C464 C 0.26209 0.17154 0.18042
 N465 N 0.27680 0.17567 0.16298
 N466 N 0.27678 0.16065 0.14644
 C467 C 0.76326 0.58181 0.57236
 N468 N 0.78187 0.58098 0.55954
 N469 N 0.78189 0.56495 0.54400
 C470 C 0.76323 0.54929 0.54060
 N471 N 0.74458 0.55020 0.55334
 N472 N 0.74463 0.56610 0.56901
 C473 C 0.76331 0.59929 0.58967
 N474 N 0.74687 0.59735 0.60557
 N475 N 0.74704 0.61305 0.62147
 C476 C 0.76355 0.63136 0.62192
 N477 N 0.77992 0.63338 0.60595
 N478 N 0.77986 0.61758 0.59016
 C479 C 0.76379 0.64852 0.63959
 N480 N 0.77724 0.66890 0.63780
 N481 N 0.77748 0.68437 0.65393
 C482 C 0.76443 0.67996 0.67257
 N483 N 0.75102 0.65953 0.67433
 N484 N 0.75063 0.64415 0.65812
 C485 C 0.73814 0.92106 0.07202
 N486 N 0.75776 0.93420 0.06598
 N487 N 0.75795 0.94994 0.05011
 C488 C 0.73848 0.95329 0.03983
 N489 N 0.71882 0.94016 0.04591
 N490 N 0.71868 0.92426 0.06164
 C491 C 0.73799 0.90394 0.08972
 N492 N 0.71988 0.88747 0.09251
 N493 N 0.71980 0.87201 0.10867
 C494 C 0.73773 0.87263 0.12275
 N495 N 0.75579 0.88915 0.12000
 N496 N 0.75597 0.90445 0.10371
 C497 C 0.73758 0.85586 0.14080
 N498 N 0.75261 0.85955 0.15796
 N499 N 0.75242 0.84448 0.17447
 C500 C 0.73733 0.82504 0.17434
 N501 N 0.72237 0.82130 0.15708
 N502 N 0.72242 0.83648 0.14067
 C503 C 0.23879 0.42081 0.57928
 N504 N 0.25737 0.43634 0.57507
 N505 N 0.25717 0.45152 0.55871
 C506 C 0.23832 0.45185 0.54611
 N507 N 0.21972 0.43638 0.55037
 N508 N 0.21998 0.42107 0.56660
 C509 C 0.23901 0.40410 0.59732
 N510 N 0.22254 0.38580 0.59864
 N511 N 0.22274 0.37066 0.61504
 C512 C 0.23931 0.37338 0.63082
 N513 N 0.25574 0.39171 0.62953
 N514 N 0.25565 0.40675 0.61302
 C515 C 0.23940 0.35689 0.64907
 N516 N 0.25275 0.36197 0.66736
 N517 N 0.25270 0.34713 0.68405
 C518 C 0.23946 0.32655 0.68302
 N519 N 0.22621 0.32144 0.66464
 N520 N 0.22609 0.33637 0.64803
 C521 C 0.92098 0.25630 0.08403
 N522 N 0.92648 0.23669 0.07583
 N523 N 0.94234 0.23700 0.06008
 C524 C 0.95336 0.25694 0.05200
 N525 N 0.94783 0.27656 0.06023
 N526 N 0.93191 0.27624 0.07592
 C527 C 0.90358 0.25596 0.10148
 N528 N 0.89681 0.27548 0.10843
 N529 N 0.88107 0.27517 0.12430
 C530 C 0.87160 0.25535 0.13387
 N531 N 0.87840 0.23584 0.12694
 N532 N 0.89408 0.23614 0.11102
 C533 C 0.85429 0.25500 0.15140
 N534 N 0.84619 0.23547 0.16226
 N535 N 0.83048 0.23513 0.17815
 C536 C 0.82218 0.25429 0.18377
 N537 N 0.83030 0.27382 0.17285
 N538 N 0.84608 0.27418 0.15701
 C539 C 0.42425 0.76396 0.58124
 N540 N 0.43038 0.74438 0.57365
 N541 N 0.44562 0.74466 0.55730
 C542 C 0.45532 0.76452 0.54798
 N543 N 0.44922 0.78411 0.55559
 N544 N 0.43392 0.78383 0.57190
 C545 C 0.40740 0.76357 0.59924
 N546 N 0.40003 0.78291 0.60585
 N547 N 0.38462 0.78247 0.62208
 C548 C 0.37609 0.76270 0.63232
 N549 N 0.38350 0.74338 0.62574
 N550 N 0.39885 0.74381 0.60948
 C551 C 0.35894 0.76213 0.65005
 N552 N 0.35135 0.74258 0.66110
 N553 N 0.33559 0.74197 0.67698
 C554 C 0.32676 0.76088 0.68242
 N555 N 0.33443 0.78044 0.67135
 N556 N 0.35023 0.78107 0.65550
 C557 C 0.07466 0.73346 0.07892
 N558 N 0.06401 0.71378 0.06996
 N559 N 0.04847 0.71400 0.05394
 C560 C 0.04311 0.73390 0.04623
 N561 N 0.05383 0.75354 0.05518
 N562 N 0.06926 0.75332 0.07125
 C563 C 0.09174 0.73342 0.09662
 N564 N 0.10055 0.75304 0.10695
 N565 N 0.11607 0.75319 0.12299
 C566 C 0.12345 0.73376 0.12924
 N567 N 0.11468 0.71412 0.11890
 N568 N 0.09906 0.71395 0.10290
 C569 C 0.14066 0.73413 0.14687
 N570 N 0.14994 0.71536 0.15171
 N571 N 0.16569 0.71591 0.16761
 C572 C 0.17270 0.73521 0.17935
 N573 N 0.16332 0.75393 0.17448
 N574 N 0.14766 0.75342 0.15853
 C575 C 0.57673 0.24565 0.58791
 N576 N 0.57134 0.26511 0.57917
 N577 N 0.55608 0.26448 0.56279
 C578 C 0.54565 0.24437 0.55458
 N579 N 0.55104 0.22493 0.56334
 N580 N 0.56632 0.22556 0.57967
 C581 C 0.59357 0.24623 0.60593
 N582 N 0.59958 0.22671 0.61384
 N583 N 0.61497 0.22713 0.63006
 C584 C 0.62487 0.24708 0.63902
 N585 N 0.61882 0.26662 0.63116
 N586 N 0.60345 0.26620 0.61490
 C587 C 0.64213 0.24742 0.65661
 N588 N 0.65172 0.26718 0.66619
 N589 N 0.66772 0.26738 0.68179
 C590 C 0.67478 0.24785 0.68839
 N591 N 0.66506 0.22811 0.67881
 N592 N 0.64904 0.22789 0.66326
 C593 C 0.74079 0.08182 0.91902
 N594 N 0.72311 0.06466 0.92013
 N595 N 0.72272 0.04843 0.93554
 C596 C 0.74014 0.04861 0.95017
 N597 N 0.75788 0.06570 0.94898
 N598 N 0.75814 0.08209 0.93376
 C599 C 0.74126 0.09961 0.90196
 N600 N 0.75448 0.12000 0.90473
 N601 N 0.75493 0.13610 0.88916
 C602 C 0.74241 0.13226 0.87014
 N603 N 0.72928 0.11183 0.86734
 N604 N 0.72859 0.09585 0.88304
 C605 C 0.74329 0.14972 0.85271
 N606 N 0.73739 0.14392 0.83124
 N607 N 0.73850 0.15966 0.81528
 C608 C 0.74525 0.18183 0.82023
 N609 N 0.75097 0.18766 0.84176
 N610 N 0.75015 0.17187 0.85768
 C611 C 0.23740 0.57096 0.41475
 N612 N 0.25711 0.56580 0.42304
 N613 N 0.25704 0.55115 0.43992
 C614 C 0.23726 0.54110 0.44911
 N615 N 0.21753 0.54624 0.44082
 N616 N 0.21761 0.56094 0.42397
 C617 C 0.23756 0.58713 0.39616
 N618 N 0.21801 0.59334 0.38861
 N619 N 0.21825 0.60818 0.37187
 C620 C 0.23804 0.61728 0.36202
 N621 N 0.25757 0.61101 0.36952
 N622 N 0.25734 0.59622 0.38629
 C623 C 0.23837 0.63395 0.34385
 N624 N 0.25806 0.64247 0.33351
 N625 N 0.25845 0.65799 0.31740
 C626 C 0.23918 0.66564 0.31100
 N627 N 0.21948 0.65700 0.32132
 N628 N 0.21907 0.64144 0.33741
 C629 C 0.25866 0.92324 0.91698
 N630 N 0.27854 0.93316 0.92606
 N631 N 0.27883 0.94826 0.94254
 C632 C 0.25924 0.95394 0.95059
 N633 N 0.23935 0.94399 0.94156
 N634 N 0.23906 0.92893 0.92504
 C635 C 0.25837 0.90671 0.89871
 N636 N 0.23864 0.89788 0.88860
 N637 N 0.23842 0.88291 0.87201
 C638 C 0.25790 0.87618 0.86495
 N639 N 0.27762 0.88500 0.87506
 N640 N 0.27786 0.90002 0.89161
 C641 C 0.25765 0.85948 0.84683
 N642 N 0.27687 0.85154 0.84094
 N643 N 0.27659 0.83613 0.82475
 C644 C 0.25711 0.82810 0.81376
 N645 N 0.23791 0.83617 0.81964
 N646 N 0.23816 0.85154 0.83587
 C647 C 0.76200 0.42358 0.41540
 N648 N 0.78193 0.43373 0.42422
 N649 N 0.78229 0.44947 0.44012
 C650 C 0.76273 0.45555 0.44781
 N651 N 0.74282 0.44537 0.43902
 N652 N 0.74246 0.42970 0.42309
 C653 C 0.76146 0.40628 0.39783
 N654 N 0.74162 0.39756 0.38790
 N655 N 0.74101 0.38184 0.37198
 C656 C 0.76021 0.37420 0.36546
 N657 N 0.78008 0.38290 0.37540
 N658 N 0.78070 0.39870 0.39128
 C659 C 0.75939 0.35673 0.34803
 N660 N 0.77810 0.34758 0.34272
 N661 N 0.77718 0.33153 0.32707
 C662 C 0.75755 0.32408 0.31607
 N663 N 0.73888 0.33334 0.32139
 N664 N 0.73977 0.34932 0.33708
 C665 C 0.08006 0.25959 0.92946
 N666 N 0.06508 0.24051 0.93331
 N667 N 0.04927 0.24014 0.94911
 C668 C 0.04773 0.25890 0.96148
 N669 N 0.06266 0.27800 0.95759
 N670 N 0.07862 0.27831 0.94192
 C671 C 0.09729 0.26000 0.91187
 N672 N 0.11508 0.27707 0.91088
 N673 N 0.13062 0.27746 0.89478
 C674 C 0.12878 0.26092 0.87898
 N675 N 0.11096 0.24391 0.87994
 N676 N 0.09555 0.24340 0.89615
 C677 C 0.14559 0.26150 0.86096
 N678 N 0.14110 0.24823 0.84254
 N679 N 0.15618 0.24887 0.82601
 C680 C 0.17641 0.26265 0.82736
 N681 N 0.18094 0.27583 0.84589
 N682 N 0.16576 0.27535 0.86233
 C683 C 0.57912 0.76568 0.42090
 N684 N 0.56937 0.78435 0.42482
 N685 N 0.55365 0.78417 0.44069
 C686 C 0.54690 0.76523 0.45301
 N687 N 0.55656 0.74651 0.44901
 N688 N 0.57247 0.74677 0.43331
 C689 C 0.59647 0.76593 0.40343
 N690 N 0.61035 0.74999 0.40315
 N691 N 0.62605 0.75023 0.38724
 C692 C 0.62827 0.76629 0.37091
 N693 N 0.61433 0.78217 0.37115
 N694 N 0.59880 0.78208 0.38720
 C695 C 0.64513 0.76624 0.35301
 N696 N 0.64323 0.77773 0.33362
 N697 N 0.65816 0.77727 0.31710
 C698 C 0.67572 0.76552 0.31945
 N699 N 0.67773 0.75420 0.33896
 N700 N 0.66264 0.75445 0.35539
 C701 C 0.92169 0.73900 0.91962
 N702 N 0.93740 0.75737 0.92407
 N703 N 0.95264 0.75667 0.94026
 C704 C 0.95286 0.73751 0.95244
 N705 N 0.93721 0.71911 0.94795
 N706 N 0.92183 0.71988 0.93189
 C707 C 0.90498 0.73979 0.90172
 N708 N 0.88654 0.72350 0.90016
 N709 N 0.87142 0.72422 0.88384
 C710 C 0.87431 0.74113 0.86839
 N711 N 0.89278 0.75736 0.86992
 N712 N 0.90779 0.75676 0.88635
 C713 C 0.85790 0.74177 0.85018
 N714 N 0.86317 0.75543 0.83213
 N715 N 0.84842 0.75586 0.81545
 C716 C 0.82776 0.74280 0.81626
 N717 N 0.82245 0.72923 0.83441
 N718 N 0.83728 0.72865 0.85101
 C719 C 0.42148 0.23863 0.42732
 N720 N 0.43618 0.25788 0.43126
 N721 N 0.45167 0.25856 0.44741
 C722 C 0.45318 0.23995 0.46005
 N723 N 0.43854 0.22067 0.45606
 N724 N 0.42289 0.22005 0.44004
 C725 C 0.40449 0.23794 0.40945
 N726 N 0.38682 0.22076 0.40836
 N727 N 0.37143 0.22022 0.39211
 C728 C 0.37328 0.23673 0.37625
 N729 N 0.39100 0.25385 0.37730
 N730 N 0.40626 0.25451 0.39366
 C731 C 0.35655 0.23608 0.35814
 N732 N 0.36102 0.24946 0.33977
 N733 N 0.34595 0.24885 0.32323
 C734 C 0.32576 0.23500 0.32451
 N735 N 0.32126 0.22170 0.34298
 N736 N 0.33642 0.22215 0.35944
 C737 C 0.74553 0.92499 0.91418
 N738 N 0.76471 0.93729 0.92251
 N739 N 0.76363 0.95247 0.93872
 C740 C 0.74333 0.95591 0.94712
 N741 N 0.72420 0.94362 0.93875
 N742 N 0.72528 0.92844 0.92260
 C743 C 0.74653 0.90815 0.89640
 N744 N 0.72726 0.89532 0.88896
 N745 N 0.72798 0.87999 0.87288
 C746 C 0.74799 0.87692 0.86359
 N747 N 0.76729 0.88976 0.87099
 N748 N 0.76657 0.90509 0.88713
 C749 C 0.74861 0.85995 0.84586
 N750 N 0.76835 0.85732 0.83573
 N751 N 0.76874 0.84190 0.81963
 C752 C 0.74941 0.82849 0.81307
 N753 N 0.72970 0.83118 0.82328
 N754 N 0.72930 0.84661 0.83933
 C755 C 0.24215 0.41682 0.42131
 N756 N 0.26147 0.42930 0.42911
 N757 N 0.26066 0.44524 0.44459
 C758 C 0.24050 0.44931 0.45278
 N759 N 0.22120 0.43684 0.44498
 N760 N 0.22201 0.42087 0.42955
 C761 C 0.24293 0.39932 0.40416
 N762 N 0.22360 0.38627 0.39718
 N763 N 0.22419 0.37046 0.38154
 C764 C 0.24413 0.36715 0.37224
 N765 N 0.26348 0.38020 0.37921
 N766 N 0.26289 0.39598 0.39491
 C767 C 0.24466 0.34982 0.35487
 N768 N 0.26435 0.34720 0.34462
 N769 N 0.26470 0.33157 0.32873
 C770 C 0.24540 0.31792 0.32250
 N771 N 0.22575 0.32058 0.33284
 N772 N 0.22537 0.33623 0.34869
 C773 C 0.25786 0.07831 0.92149
 N774 N 0.23832 0.06663 0.92971
 N775 N 0.23876 0.05065 0.94525
 C776 C 0.25875 0.04573 0.95311
 N777 N 0.27828 0.05741 0.94484
 N778 N 0.27784 0.07341 0.92934
 C779 C 0.25744 0.09597 0.90441
 N780 N 0.27698 0.10847 0.89717
 N781 N 0.27665 0.12451 0.88170
 C782 C 0.25678 0.12862 0.87285
 N783 N 0.23723 0.11611 0.88007
 N784 N 0.23755 0.10009 0.89559
 C785 C 0.25649 0.14627 0.85574
 N786 N 0.23680 0.14958 0.84589
 N787 N 0.23662 0.16553 0.83028
 C788 C 0.25609 0.17884 0.82395
 N789 N 0.27574 0.17550 0.83389
 N790 N 0.27595 0.15952 0.84945
 C791 C 0.75668 0.57829 0.41408
 N792 N 0.77701 0.57434 0.42192
 N793 N 0.77818 0.55919 0.43812
 C794 C 0.75905 0.54745 0.44711
 N795 N 0.73870 0.55140 0.43930
 N796 N 0.73753 0.56655 0.42306
 C797 C 0.75557 0.59499 0.39616
 N798 N 0.73538 0.59865 0.38765
 N799 N 0.73454 0.61384 0.37139
 C800 C 0.75385 0.62591 0.36307
 N801 N 0.77400 0.62223 0.37159
 N802 N 0.77484 0.60704 0.38782
 C803 C 0.75313 0.64280 0.34526
 N804 N 0.77255 0.65526 0.33776
 N805 N 0.77209 0.67072 0.32175
 C806 C 0.75219 0.67436 0.31253
 N807 N 0.73274 0.66181 0.32003
 N808 N 0.73319 0.64633 0.33609
 C809 C 0.07566 0.73170 0.92192
 N810 N 0.06163 0.71261 0.92801
 N811 N 0.04614 0.71328 0.94399
 C812 C 0.04393 0.73310 0.95426
 N813 N 0.05791 0.75219 0.94807
 N814 N 0.07357 0.75148 0.93229
 C815 C 0.09272 0.73103 0.90433
 N816 N 0.11058 0.74793 0.90258
 N817 N 0.12604 0.74744 0.88656
 C818 C 0.12405 0.73018 0.87154
 N819 N 0.10614 0.71332 0.87322
 N820 N 0.09082 0.71367 0.88942
 C821 C 0.14089 0.72995 0.85365
 N822 N 0.13597 0.71718 0.83494
 N823 N 0.15110 0.71748 0.81846
 C824 C 0.17181 0.73034 0.82023
 N825 N 0.17676 0.74295 0.83905
 N826 N 0.16155 0.74286 0.85539
 C827 C 0.57618 0.23760 0.42711
 N828 N 0.56714 0.25678 0.43061
 N829 N 0.55216 0.25777 0.44700
 C830 C 0.54551 0.23953 0.46033
 N831 N 0.55450 0.22032 0.45679
 N832 N 0.56966 0.21941 0.44055
 C833 C 0.59250 0.23650 0.40890
 N834 N 0.60560 0.21987 0.40846
 N835 N 0.62037 0.21891 0.39187
 C836 C 0.62238 0.23438 0.37499
 N837 N 0.60920 0.25092 0.37539
 N838 N 0.59461 0.25203 0.39209
 C839 C 0.63850 0.23328 0.35660
 N840 N 0.63670 0.24489 0.33725
 N841 N 0.65133 0.24400 0.32055
 C842 C 0.66847 0.23166 0.32263
 N843 N 0.67031 0.22012 0.34204
 N844 N 0.65552 0.22081 0.35867
 C845 C 0.92650 0.26139 0.92401
 N846 N 0.93475 0.28048 0.93551
 N847 N 0.94923 0.27977 0.95241
 C848 C 0.95585 0.25991 0.95852
 N849 N 0.94751 0.24081 0.94709
 N850 N 0.93314 0.24154 0.93010
 C851 C 0.91076 0.26221 0.90520
 N852 N 0.90507 0.24395 0.89167
 N853 N 0.89087 0.24471 0.87454
 C854 C 0.88174 0.26373 0.87040
 N855 N 0.88738 0.28197 0.88397
 N856 N 0.90169 0.28125 0.90101
 C857 C 0.86587 0.26450 0.85170
 N858 N 0.85418 0.28211 0.84959
 N859 N 0.83951 0.28266 0.83285
 C860 C 0.83607 0.26570 0.81746
 N861 N 0.84790 0.24815 0.81953
 N862 N 0.86247 0.24753 0.83636
 C863 C 0.42124 0.76593 0.42245
 N864 N 0.43636 0.78479 0.42674
 N865 N 0.45221 0.78456 0.44242
 C866 C 0.45367 0.76540 0.45420
 N867 N 0.43862 0.74649 0.44985
 N868 N 0.42262 0.74679 0.43432
 C869 C 0.40381 0.76621 0.40515
 N870 N 0.38568 0.74952 0.40421
 N871 N 0.36991 0.74978 0.38845
 C872 C 0.37181 0.76661 0.37293
 N873 N 0.38998 0.78326 0.37383
 N874 N 0.40563 0.78312 0.38972
 C875 C 0.35472 0.76662 0.35525
 N876 N 0.35922 0.77974 0.33669
 N877 N 0.34394 0.77933 0.32036
 C878 C 0.32349 0.76598 0.32207
 N879 N 0.31894 0.75301 0.34076
 N880 N 0.33431 0.75325 0.35699
 C881 C 0.26276 0.92226 0.07811
 N882 N 0.28139 0.92915 0.06540
 N883 N 0.28093 0.94451 0.04923
 C884 C 0.26175 0.95332 0.04504
 N885 N 0.24309 0.94630 0.05765
 N886 N 0.24362 0.93113 0.07396
 C887 C 0.26330 0.90559 0.09615
 N888 N 0.24695 0.90280 0.11216
 N889 N 0.24742 0.88776 0.12860
 C890 C 0.26414 0.87481 0.12953
 N891 N 0.28044 0.87753 0.11347
 N892 N 0.28010 0.89274 0.09714
 C893 C 0.26443 0.85805 0.14751
 N894 N 0.27737 0.84138 0.14566
 N895 N 0.27726 0.82592 0.16180
 C896 C 0.26440 0.82667 0.18051
 N897 N 0.25159 0.84347 0.18240
 N898 N 0.25153 0.85879 0.16616
 C899 C 0.77035 0.42466 0.57303
 N900 N 0.78845 0.44058 0.56822
 N901 N 0.78704 0.45615 0.55247
 C902 C 0.76741 0.45650 0.54114
 N903 N 0.74929 0.44065 0.54603
 N904 N 0.75076 0.42495 0.56162
 C905 C 0.77188 0.40746 0.59035
 N906 N 0.75586 0.38880 0.59179
 N907 N 0.75713 0.37325 0.60758
 C908 C 0.77437 0.37589 0.62264
 N909 N 0.79037 0.39458 0.62125
 N910 N 0.78921 0.41003 0.60531
 C911 C 0.77538 0.35903 0.64041
 N912 N 0.78895 0.36401 0.65857
 N913 N 0.78927 0.34897 0.67505
 C914 C 0.77623 0.32829 0.67388
 N915 N 0.76284 0.32327 0.65559
 N916 N 0.76235 0.33838 0.63921
 C917 C 0.73206 0.07374 0.07757
 N918 N 0.71415 0.06746 0.06374
 N919 N 0.71545 0.05275 0.04716
 C920 C 0.73479 0.04399 0.04367
 N921 N 0.75272 0.05038 0.05742
 N922 N 0.75134 0.06489 0.07413
 C923 C 0.73070 0.08980 0.09596
 N924 N 0.74603 0.09166 0.11291
 N925 N 0.74495 0.10627 0.12961
 C926 C 0.72864 0.11971 0.12985
 N927 N 0.71333 0.11792 0.11285
 N928 N 0.71427 0.10313 0.09626
 C929 C 0.72782 0.13608 0.14807
 N930 N 0.71589 0.15350 0.14574
 N931 N 0.71572 0.16867 0.16210
 C932 C 0.72727 0.16685 0.18150
 N933 N 0.73903 0.14930 0.18386
 N934 N 0.73939 0.13427 0.16742
 C935 C 0.23246 0.57608 0.57516
 N936 N 0.25150 0.57604 0.56277
 N937 N 0.25250 0.56023 0.54720
 C938 C 0.23440 0.54404 0.54329
 N939 N 0.21530 0.54417 0.55556
 N940 N 0.21439 0.55984 0.57130
 C941 C 0.23154 0.59328 0.59259
 N942 N 0.21543 0.59015 0.60883
 N943 N 0.21488 0.60558 0.62489
 C944 C 0.23027 0.62480 0.62513
 N945 N 0.24627 0.62799 0.60879
 N946 N 0.24697 0.61246 0.59288
 C947 C 0.22985 0.64172 0.64291
 N948 N 0.24136 0.66297 0.64040
 N949 N 0.24127 0.67827 0.65665
 C950 C 0.22987 0.67284 0.67611
 N951 N 0.21840 0.65154 0.67862
 N952 N 0.21828 0.63631 0.66227
 C953 C 0.91890 0.73917 0.07715
 N954 N 0.92275 0.71907 0.06859
 N955 N 0.93876 0.71835 0.05318
 C956 C 0.95148 0.73770 0.04574
 N957 N 0.94762 0.75780 0.05428
 N958 N 0.93164 0.75852 0.06973
 C959 C 0.90124 0.73992 0.09415
 N960 N 0.89822 0.75984 0.10373
 N961 N 0.88225 0.76048 0.11921
 C962 C 0.86866 0.74122 0.12562
 N963 N 0.87165 0.72132 0.11601
 N964 N 0.88766 0.72067 0.10058
 C965 C 0.85112 0.74187 0.14276
 N966 N 0.83680 0.72280 0.14830
 N967 N 0.82100 0.72333 0.16396
 C968 C 0.81890 0.74291 0.17476
 N969 N 0.83326 0.76198 0.16916
 N970 N 0.84903 0.76148 0.15345
 C971 C 0.42131 0.24556 0.58571
 N972 N 0.42561 0.22548 0.57750
 N973 N 0.44126 0.22488 0.56171
 C974 C 0.45315 0.24433 0.55351
 N975 N 0.44883 0.26443 0.56168
 N976 N 0.43320 0.26503 0.57752
 C977 C 0.40412 0.24611 0.60321
 N978 N 0.40054 0.26604 0.61240
 N979 N 0.38500 0.26644 0.62837
 C980 C 0.37245 0.24693 0.63568
 N981 N 0.37601 0.22703 0.62646
 N982 N 0.39157 0.22662 0.61054
 C983 C 0.35534 0.24727 0.65329
 N984 N 0.34214 0.22782 0.65975
 N985 N 0.32663 0.22803 0.67575
 C986 C 0.32372 0.24769 0.68599
 N987 N 0.33698 0.26714 0.67949
 N988 N 0.35247 0.26695 0.66344
 C989 C 0.07729 0.25444 0.08682
 N990 N 0.07305 0.27454 0.07855
 N991 N 0.05738 0.27518 0.06278
 C992 C 0.04539 0.25575 0.05465
 N993 N 0.04961 0.23565 0.06292
 N994 N 0.06525 0.23500 0.07874
 C995 C 0.09471 0.25378 0.10408
 N996 N 0.09834 0.23378 0.11309
 N997 N 0.11423 0.23322 0.12868
 C998 C 0.12709 0.25263 0.13577
 N999 N 0.12346 0.27262 0.12675
 N1000 N 0.10754 0.27318 0.11120
 C1001 C 0.14467 0.25208 0.15289
 N1002 N 0.15822 0.27139 0.15910
 N1003 N 0.17417 0.27095 0.17462
 C1004 C 0.17720 0.25118 0.18459
 N1005 N 0.16359 0.23186 0.17835
 N1006 N 0.14765 0.23229 0.16278
 C1007 C 0.58074 0.76393 0.57756
 N1008 N 0.57640 0.78382 0.56888
 N1009 N 0.56034 0.78409 0.55343
 C1010 C 0.54807 0.76447 0.54607
 N1011 N 0.55242 0.74458 0.55474
 N1012 N 0.56844 0.74432 0.57023
 C1013 C 0.59843 0.76359 0.59460
 N1014 N 0.60200 0.74375 0.60400
 N1015 N 0.61803 0.74340 0.61947
 C1016 C 0.63111 0.76288 0.62606
 N1017 N 0.62755 0.78272 0.61664
 N1018 N 0.61149 0.78307 0.60120
 C1019 C 0.64875 0.76249 0.64314
 N1020 N 0.66250 0.78180 0.64901
 N1021 N 0.67846 0.78144 0.66454
 C1022 C 0.68129 0.76178 0.67485
 N1023 N 0.66748 0.74248 0.66892
 N1024 N 0.65155 0.74281 0.65336
   
