data_POSCAR
  _audit_creation_date              2014-09-24
  _audit_creation_method            'ToBaCCo'
  _symmetry_space_group_name_H-M    'P1'
  _symmetry_Int_Tables_number       1
  _symmetry_cell_setting            triclinic
  loop_
  _symmetry_equiv_pos_as_xyz
 x,y,z
_cell_length_a 31.2499
_cell_length_b 30.9931
_cell_length_c 31.0582
_cell_angle_alpha 92.200200
_cell_angle_beta 81.539900
_cell_angle_gamma 94.357600
loop_
  _atom_site_label
  _atom_site_type_symbol
  _atom_site_fract_x
  _atom_site_fract_y
  _atom_site_fract_z
O1 O 0.54403 0.51327 -0.00692
 O2 O 0.42684 0.50711 -0.01558
 O3 O 0.48315 0.45078 -0.00607
 O4 O 0.48802 0.56906 -0.01687
 O5 O 0.50281 0.56077 -0.08835
 O6 O 0.49894 0.44273 -0.07745
 O7 O 0.44241 0.49848 -0.08690
 O8 O 0.55919 0.50584 -0.07841
 Cu9 Cu 0.48394 0.51074 -0.00417
 Cu10 Cu 0.50233 0.50098 -0.08989
 C11 C 0.57154 0.51083 -0.04127
 C12 C 0.41471 0.50224 -0.05292
 C13 C 0.49061 0.42665 -0.03993
 C14 C 0.49602 0.58500 -0.05454
 O15 O -0.06643 0.53543 0.51440
 O16 O -0.05515 0.41806 0.51183
 O17 O -0.06356 0.47769 0.57295
 O18 O -0.05665 0.47564 0.45312
 O19 O 0.01455 0.48727 0.44706
 O20 O 0.00758 0.48992 0.56669
 O21 O 0.01605 0.42990 0.50579
 O22 O 0.00470 0.54765 0.50798
 Cu23 Cu -0.06756 0.47561 0.51369
 Cu24 Cu 0.01784 0.48999 0.50629
 C25 C -0.03292 0.56159 0.51139
 C26 C -0.01771 0.40397 0.50853
 C27 C -0.02910 0.48378 0.59020
 C28 C -0.01980 0.48097 0.42969
 O29 O 0.53741 0.01654 0.57276
 O30 O 0.55460 0.04696 0.45810
 O31 O 0.49072 0.04869 0.52131
 O32 O 0.60156 0.01287 0.50901
 O33 O 0.57751 -0.05281 0.48967
 O34 O 0.46695 -0.01750 0.50317
 O35 O 0.52970 -0.01870 0.43953
 O36 O 0.51392 -0.04956 0.55421
 Cu37 Cu 0.54881 0.03784 0.51721
 Cu38 Cu 0.51986 -0.04140 0.49473
 C39 C 0.52221 -0.02142 0.58319
 C40 C 0.54402 0.01960 0.42942
 C41 C 0.45993 0.02149 0.51415
 C42 C 0.60839 -0.02601 0.49719
 C43 C 0.48876 -0.02019 -0.07728
 C44 C 0.49416 -0.06309 -0.06779
 C45 C 0.49258 -0.07634 -0.02499
 C46 C 0.48738 -0.04527 0.00963
 C47 C 0.48190 -0.00158 0.00069
 C48 C 0.48179 0.01081 -0.04278
 C49 C 0.47379 0.05369 -0.05049
 C50 C 0.46793 0.08422 -0.01653
 C51 C 0.47051 0.07339 0.02649
 C52 C 0.47637 0.02979 0.03534
 C53 C 0.48689 -0.05677 0.05303
 C54 C 0.48223 -0.02599 0.08678
 C55 C 0.47667 0.01745 0.07877
 C56 C 0.47207 0.04895 0.11299
 C57 C 0.46653 0.09183 0.10377
 C58 C 0.46613 0.10457 0.06118
 H59 H 0.47123 0.06407 -0.08281
 H60 H 0.46094 0.11634 -0.02451
 H61 H 0.49017 -0.08970 0.06163
 H62 H 0.48313 -0.03691 0.11926
 H63 H 0.50140 -0.08640 -0.09425
 H64 H 0.46266 0.11579 0.13019
 C65 C 0.02869 0.50658 0.91647
 C66 C 0.07021 0.50789 0.92843
 C67 C 0.07673 0.50703 0.97213
 C68 C 0.04012 0.50613 1.00519
 C69 C -0.00240 0.50381 0.99365
 C70 C -0.00818 0.50377 0.94912
 C71 C -0.05057 0.50192 0.93867
 C72 C -0.08654 0.49864 0.97094
 C73 C -0.08176 0.49967 1.01526
 C74 C -0.03923 0.50227 1.02680
 C75 C 0.04490 0.50904 1.04956
 C76 C 0.00895 0.50837 1.08190
 C77 C -0.03342 0.50372 1.07141
 C78 C -0.07027 0.50187 1.10415
 C79 C -0.11177 0.49878 1.09207
 C80 C -0.11821 0.49775 1.04845
 H81 H -0.05666 0.50289 0.90540
 H82 H -0.11815 0.49558 0.96052
 H83 H 0.07656 0.51299 1.05992
 H84 H 0.01497 0.51202 1.11527
 H85 H 0.09782 0.50829 0.90283
 H86 H -0.13982 0.49730 1.11730
 C87 C -0.00641 -0.09961 0.50718
 C88 C -0.04913 -0.08811 0.50878
 C89 C -0.05853 -0.04530 0.50375
 C90 C -0.02428 -0.01268 0.49659
 C91 C 0.01907 -0.02339 0.49604
 C92 C 0.02809 -0.06694 0.50147
 C93 C 0.07146 -0.07668 0.50026
 C94 C 0.10508 -0.04443 0.49459
 C95 C 0.09694 -0.00114 0.48885
 C96 C 0.05351 0.00954 0.48976
 C97 C -0.03220 0.03023 0.48879
 C98 C 0.00146 0.06233 0.48252
 C99 C 0.04445 0.05304 0.48419
 C100 C 0.07889 0.08574 0.47896
 C101 C 0.12150 0.07454 0.47751
 C102 C 0.13102 0.03181 0.48272
 H103 H 0.08014 -0.10937 0.50353
 H104 H 0.13755 -0.05410 0.49487
 H105 H -0.06447 0.03953 0.48665
 H106 H -0.00669 0.09441 0.47573
 H107 H -0.07562 -0.11264 0.51572
 H108 H 0.14771 0.09965 0.47232
 C109 C -0.38157 0.51383 0.96127
 C110 C -0.36529 0.51408 1.00083
 C111 C -0.31826 0.51619 1.00413
 C112 C -0.30488 0.49970 1.04104
 C113 C -0.26090 0.50124 1.04554
 C114 C -0.22923 0.51974 1.01324
 C115 C -0.24265 0.53732 0.97688
 C116 C -0.28667 0.53538 0.97216
 C117 C -0.18239 0.52259 1.01744
 C118 C -0.16385 0.49253 1.04009
 H119 H -0.38799 0.51027 1.03059
 H120 H -0.32858 0.48541 1.06648
 H121 H -0.25202 0.48877 1.07480
 H122 H -0.21897 0.55241 0.95192
 H123 H -0.29579 0.54970 0.94392
 H124 H -0.16167 0.54862 1.00142
 H125 H -0.35951 0.51425 0.93095
 H126 H -0.18426 0.46656 1.05642
 C127 C 0.37088 0.50183 0.94238
 C128 C 0.33773 0.50671 0.97746
 C129 C 0.29176 0.51064 0.97186
 C130 C 0.25870 0.50040 1.00648
 C131 C 0.21509 0.50463 1.00254
 C132 C 0.20368 0.51961 0.96382
 C133 C 0.23686 0.53072 0.92964
 C134 C 0.28032 0.52627 0.93348
 C135 C 0.15810 0.52508 0.95781
 C136 C 0.12165 0.50436 0.98233
 H137 H 0.34550 0.50715 1.01036
 H138 H 0.26664 0.48904 1.03669
 H139 H 0.19077 0.49690 1.03017
 H140 H 0.22913 0.54291 0.89968
 H141 H 0.30480 0.53607 0.90662
 H142 H 0.15320 0.54534 0.93156
 H143 H 0.36273 0.49810 0.90969
 H144 H 0.12594 0.48398 1.00859
 C145 C -0.03825 -0.39415 0.51133
 C146 C -0.00345 -0.36270 0.50794
 C147 C -0.00889 -0.31583 0.50492
 C148 C 0.02361 -0.28561 0.51634
 C149 C 0.01992 -0.24115 0.51311
 C150 C -0.01644 -0.22603 0.49809
 C151 C -0.04848 -0.25633 0.48590
 C152 C -0.04484 -0.30068 0.48923
 C153 C -0.02171 -0.17941 0.49311
 C154 C 0.00104 -0.14567 0.51316
 H155 H 0.02902 -0.37255 0.50841
 H156 H 0.05199 -0.29645 0.52781
 H157 H 0.04603 -0.21908 0.52160
 H158 H -0.07647 -0.24564 0.47357
 H159 H -0.06982 -0.32283 0.47852
 H160 H -0.04533 -0.17123 0.47302
 H161 H -0.07104 -0.38426 0.51407
 H162 H 0.02433 -0.15275 0.53389
 C163 C -0.01406 0.35695 0.50838
 C164 C 0.02594 0.33876 0.50278
 C165 C 0.03034 0.29158 0.50354
 C166 C 0.06853 0.27471 0.48237
 C167 C 0.07403 0.23039 0.48265
 C168 C 0.04138 0.20200 0.50447
 C169 C 0.00368 0.21903 0.52660
 C170 C -0.00193 0.26331 0.52608
 C171 C 0.04614 0.15497 0.50616
 C172 C 0.07256 0.13209 0.47453
 H173 H 0.05529 0.35982 0.49589
 H174 H 0.09420 0.29592 0.46544
 H175 H 0.10423 0.21880 0.46654
 H176 H -0.02160 0.19794 0.54427
 H177 H -0.03116 0.27526 0.54409
 H178 H 0.02709 0.13731 0.53271
 H179 H -0.04383 0.33633 0.51213
 H180 H 0.09244 0.14891 0.44802
 C181 C 0.51382 -0.03256 -0.37324
 C182 C 0.52049 -0.00266 -0.33957
 C183 C 0.50933 -0.01203 -0.29272
 C184 C 0.50711 0.02291 -0.26255
 C185 C 0.49695 0.01586 -0.21797
 C186 C 0.48917 -0.02650 -0.20264
 C187 C 0.49092 -0.06144 -0.23272
 C188 C 0.50127 -0.05442 -0.27731
 C189 C 0.47935 -0.03554 -0.15575
 C190 C 0.49383 -0.00791 -0.12352
 H191 H 0.53267 0.03013 -0.34781
 H192 H 0.51297 0.05588 -0.27352
 H193 H 0.49468 0.04366 -0.19584
 H194 H 0.48510 -0.09437 -0.22162
 H195 H 0.50355 -0.08239 -0.29914
 H196 H 0.46245 -0.06637 -0.14657
 H197 H 0.50017 -0.06501 -0.36597
 H198 H 0.51142 0.02258 -0.13243
 C199 C 0.54705 0.03335 0.38431
 C200 C 0.52856 0.00750 0.35317
 C201 C 0.52352 0.02204 0.30945
 C202 C 0.50926 -0.00885 0.27952
 C203 C 0.50183 0.00336 0.23863
 C204 C 0.50816 0.04700 0.22692
 C205 C 0.52315 0.07784 0.25643
 C206 C 0.53046 0.06566 0.29744
 C207 C 0.50105 0.06102 0.18376
 C208 C 0.47337 0.03776 0.15855
 H209 H 0.51556 -0.02495 0.36183
 H210 H 0.50378 -0.04266 0.28781
 H211 H 0.49183 -0.02164 0.21620
 H212 H 0.52858 0.11160 0.24796
 H213 H 0.54069 0.09080 0.31953
 H214 H 0.51863 0.09044 0.17114
 H215 H 0.56165 0.06539 0.37679
 H216 H 0.45412 0.00938 0.17130
 C217 C 0.49679 -0.36805 -0.05978
 C218 C 0.49059 -0.33908 -0.02429
 C219 C 0.48800 -0.29209 -0.02915
 C220 C 0.49755 -0.26336 0.00472
 C221 C 0.49463 -0.21882 0.00146
 C222 C 0.48173 -0.20225 -0.03581
 C223 C 0.47130 -0.23111 -0.06921
 C224 C 0.47443 -0.27553 -0.06605
 C225 C 0.47714 -0.15560 -0.04058
 C226 C 0.49786 -0.12257 -0.01772
 H227 H 0.48844 -0.35112 0.00831
 H228 H 0.50732 -0.27543 0.03381
 H229 H 0.50159 -0.19782 0.02854
 H230 H 0.46061 -0.21924 -0.09793
 H231 H 0.46522 -0.29672 -0.09213
 H232 H 0.45719 -0.14677 -0.06415
 H233 H 0.50235 -0.35626 -0.09261
 H234 H 0.51863 -0.13041 0.00533
 C235 C 0.49041 0.37948 -0.03619
 C236 C 0.48221 0.35953 0.00400
 C237 C 0.48424 0.31244 0.00915
 C238 C 0.46269 0.29339 0.04735
 C239 C 0.46442 0.24922 0.05387
 C240 C 0.48802 0.22314 0.02220
 C241 C 0.51036 0.24238 -0.01555
 C242 C 0.50849 0.28652 -0.02214
 C243 C 0.49120 0.17633 0.02789
 C244 C 0.46069 0.15081 0.05507
 H245 H 0.47295 0.37914 0.03304
 H246 H 0.44444 0.31280 0.07231
 H247 H 0.44799 0.23606 0.08411
 H248 H 0.52933 0.22315 -0.04011
 H249 H 0.52685 0.30018 -0.05131
 H250 H 0.51793 0.16084 0.00872
 H251 H 0.49704 0.36035 -0.06596
 H252 H 0.43406 0.16525 0.07529
 C253 C -0.34759 -0.04071 0.49216
 C254 C -0.31248 -0.01333 0.50155
 C255 C -0.26753 -0.02649 0.49774
 C256 C -0.23386 0.00599 0.49850
 C257 C -0.19096 -0.00463 0.49581
 C258 C -0.18088 -0.04818 0.49279
 C259 C -0.21436 -0.08072 0.49145
 C260 C -0.25737 -0.07012 0.49429
 C261 C -0.13583 -0.06044 0.49015
 C262 C -0.10436 -0.03467 0.50853
 H263 H -0.31802 0.01995 0.51143
 H264 H -0.24073 0.03982 0.50092
 H265 H -0.16582 0.02142 0.49542
 H266 H -0.20728 -0.11449 0.48897
 H267 H -0.28225 -0.09630 0.49452
 H268 H -0.12743 -0.09080 0.47382
 H269 H -0.34324 -0.07360 0.48051
 H270 H -0.11324 -0.00542 0.52666
 C271 C 0.41571 0.03559 0.51810
 C272 C 0.38142 0.00693 0.50882
 C273 C 0.33638 0.01862 0.50901
 C274 C 0.30495 -0.01468 0.50204
 C275 C 0.26222 -0.00562 0.50046
 C276 C 0.25004 0.03719 0.50549
 C277 C 0.28111 0.07048 0.51336
 C278 C 0.32399 0.06144 0.51483
 C279 C 0.20511 0.04787 0.50393
 C280 C 0.17683 0.02228 0.48118
 H281 H 0.38806 -0.02640 0.50033
 H282 H 0.31347 -0.04798 0.49781
 H283 H 0.23883 -0.03236 0.49598
 H284 H 0.27229 0.10367 0.51773
 H285 H 0.34698 0.08825 0.52001
 H286 H 0.19404 0.07703 0.52101
 H287 H 0.41085 0.06892 0.52770
 H288 H 0.18804 -0.00586 0.46247
 C289 C -0.01623 0.47987 1.38180
 C290 C -0.05263 0.47750 1.36033
 C291 C -0.05013 0.47725 1.31223
 C292 C -0.08525 0.49096 1.29422
 C293 C -0.08438 0.49107 1.24908
 C294 C -0.04834 0.47709 1.22085
 C295 C -0.01370 0.46221 1.23884
 C296 C -0.01440 0.46248 1.28405
 C297 C -0.04672 0.47627 1.17284
 C298 C -0.06802 0.50516 1.15151
 H299 H -0.08444 0.47808 1.37965
 H300 H -0.11348 0.50180 1.31518
 H301 H -0.11242 0.50125 1.23656
 H302 H 0.01410 0.45058 1.21782
 H303 H 0.01269 0.45033 1.29669
 H304 H -0.02737 0.45288 1.15363
 H305 H 0.01596 0.48248 1.36329
 H306 H -0.08760 0.52849 1.17041
 C307 C -0.03213 0.48299 0.63801
 C308 C 0.00446 0.48978 0.65909
 C309 C 0.00337 0.48740 0.70689
 C310 C 0.03821 0.50732 0.72581
 C311 C 0.03913 0.50517 0.77054
 C312 C 0.00517 0.48276 0.79748
 C313 C -0.02920 0.46197 0.77846
 C314 C -0.03028 0.46436 0.73369
 C315 C 0.00535 0.47945 0.84500
 C316 C 0.02635 0.51084 0.86952
 H317 H 0.03548 0.49836 0.63970
 H318 H 0.06492 0.52461 0.70585
 H319 H 0.06700 0.52030 0.78359
 H320 H -0.05542 0.44394 0.79837
 H321 H -0.05701 0.44736 0.72024
 H322 H -0.01289 0.45223 0.86153
 H323 H -0.06393 0.47695 0.65668
 H324 H 0.04497 0.53806 0.85354
   
