data_POSCAR
  _audit_creation_date              2014-09-24
  _audit_creation_method            'ToBaCCo'
  _symmetry_space_group_name_H-M    'P1'
  _symmetry_Int_Tables_number       1
  _symmetry_cell_setting            triclinic
  loop_
  _symmetry_equiv_pos_as_xyz
 x,y,z
_cell_length_a 31.9097
_cell_length_b 32.0113
_cell_length_c 32.1109
_cell_angle_alpha 90.031900
_cell_angle_beta 89.928800
_cell_angle_gamma 90.065400
loop_
  _atom_site_label
  _atom_site_type_symbol
  _atom_site_fract_x
  _atom_site_fract_y
  _atom_site_fract_z
C1 C 0.32224 0.37662 1.37501
 C2 C 0.34255 0.34092 1.39016
 C3 C 0.37789 0.32518 1.36953
 C4 C 0.39303 0.34531 1.33380
 C5 C 0.37280 0.38101 1.31859
 C6 C 0.33743 0.39671 1.33921
 H7 H 0.33041 0.32499 1.41749
 H8 H 0.42000 0.33283 1.31737
 H9 H 0.32142 0.42395 1.32699
 C10 C 1.17633 0.62701 0.88386
 C11 C 1.15645 0.66263 0.89983
 C12 C 1.12043 0.67833 0.88038
 C13 C 1.10424 0.65836 0.84505
 C14 C 1.12408 0.62276 0.82908
 C15 C 1.16002 0.60708 0.84852
 H16 H 1.16935 0.67857 0.92675
 H17 H 1.07682 0.67093 0.82958
 H18 H 1.17570 0.57991 0.83563
 C19 C 0.67577 -0.12806 0.11628
 C20 C 0.65612 -0.16383 0.10030
 C21 C 0.61997 -0.17970 0.11962
 C22 C 0.60347 -0.15966 0.15485
 C23 C 0.62312 -0.12392 0.17080
 C24 C 0.65915 -0.10812 0.15148
 H25 H 0.66934 -0.17969 0.07344
 H26 H 0.57595 -0.17223 0.17030
 H27 H 0.67466 -0.08083 0.16436
 C28 C -0.17732 1.12359 -0.37436
 C29 C -0.16233 1.10358 -0.33855
 C30 C -0.12694 1.11926 -0.31797
 C31 C -0.10654 1.15490 -0.33327
 C32 C -0.12154 1.17495 -0.36905
 C33 C -0.15689 1.15919 -0.38962
 H34 H -0.17854 1.07642 -0.32634
 H35 H -0.07956 1.16738 -0.31689
 H36 H -0.16899 1.17498 -0.41697
 C37 C 0.67519 0.62783 0.61675
 C38 C 0.65547 0.66337 0.60060
 C39 C 0.61941 0.67927 0.61991
 C40 C 0.60306 0.65953 0.65533
 C41 C 0.62279 0.62398 0.67148
 C42 C 0.65876 0.60814 0.65213
 H43 H 0.66859 0.67905 0.57362
 H44 H 0.57561 0.67223 0.67071
 H45 H 0.67442 0.58104 0.66506
 C46 C 0.82288 0.37622 0.12598
 C47 C 0.83812 0.39602 0.16186
 C48 C 0.87338 0.38003 0.18232
 C49 C 0.89342 0.34429 0.16685
 C50 C 0.87819 0.32444 0.13102
 C51 C 0.84295 0.34051 0.11056
 H52 H 0.82218 0.42327 0.17419
 H53 H 0.92032 0.33158 0.18314
 H54 H 0.83066 0.32488 0.08317
 C55 C 0.32069 0.12285 0.87396
 C56 C 0.33581 0.10303 0.83797
 C57 C 0.37123 0.11887 0.81748
 C58 C 0.39155 0.15444 0.83302
 C59 C 0.37647 0.17426 0.86891
 C60 C 0.34111 0.15841 0.88940
 H61 H 0.31973 0.07588 0.82551
 H62 H 0.41855 0.16711 0.81680
 H63 H 0.32912 0.17422 0.91684
 C64 C 0.17573 0.87310 0.38299
 C65 C 0.15620 0.83731 0.39904
 C66 C 0.12017 0.82128 0.37981
 C67 C 0.10362 0.84111 0.34460
 C68 C 0.12312 0.87689 0.32855
 C69 C 0.15907 0.89289 0.34779
 H70 H 0.16938 0.82148 0.42587
 H71 H 0.07619 0.82829 0.32928
 H72 H 0.17449 0.92020 0.33484
 Zn73 Zn 0.05088 0.97785 0.01575
 Zn74 Zn -0.03214 0.96948 -0.02717
 Zn75 Zn -0.02573 1.01177 0.05598
 Zn76 Zn 0.00959 1.05312 -0.01909
 O77 O 0.00054 1.00296 0.00627
 O78 O 0.05440 0.92819 -0.00880
 O79 O -0.08077 0.95487 -0.00251
 O80 O 0.00330 0.99252 0.09964
 O81 O -0.00639 0.92126 -0.04109
 O82 O 0.06066 0.96815 0.06971
 O83 O -0.07548 0.98652 0.05851
 O84 O -0.00932 1.09667 0.01052
 O85 O -0.04628 0.99467 -0.07539
 O86 O -0.03570 1.06581 0.06624
 O87 O -0.01580 1.05635 -0.06831
 O88 O 0.06376 1.06307 -0.02966
 O89 O 0.09458 1.00711 -0.00372
 C90 C 0.02961 0.90725 -0.03154
 C91 C -0.09568 0.96374 0.03314
 C92 C 0.03876 0.97478 0.10206
 C93 C -0.02791 1.09862 0.04544
 C94 C -0.03792 1.03095 -0.08922
 C95 C 0.09657 1.04188 -0.02258
 Zn96 Zn 0.47431 0.01247 0.44324
 Zn97 Zn 0.46756 -0.02988 0.52632
 Zn98 Zn 0.55068 -0.02168 0.48346
 Zn99 Zn 0.50941 0.05368 0.51848
 O100 O 0.50038 0.00356 0.49297
 O101 O 0.42450 -0.01262 0.44068
 O102 O 0.49317 -0.07811 0.54024
 O103 O 0.56053 -0.03152 0.42949
 O104 O 0.41901 -0.04438 0.50161
 O105 O 0.50338 -0.00690 0.39956
 O106 O 0.55411 -0.07130 0.50807
 O107 O 0.56359 0.06354 0.52898
 O108 O 0.45325 -0.00472 0.57455
 O109 O 0.59436 0.00758 0.50284
 O110 O 0.48390 0.05691 0.56774
 O111 O 0.49063 0.09728 0.48895
 O112 O 0.46451 0.06655 0.43308
 C113 C 0.40420 -0.03540 0.46599
 C114 C 0.52920 -0.09217 0.53079
 C115 C 0.53876 -0.02483 0.39714
 C116 C 0.59638 0.04234 0.52174
 C117 C 0.46162 0.03150 0.58853
 C118 C 0.47221 0.09932 0.45400
 Zn119 Zn 1.01099 0.44599 0.48116
 Zn120 Zn 1.05227 0.52150 0.51596
 Zn121 Zn 0.96928 0.52947 0.47305
 Zn122 Zn 0.97569 0.48741 0.55623
 O123 O 1.00196 0.49618 0.50652
 O124 O 1.06518 0.43615 0.47071
 O125 O 1.05579 0.57113 0.49131
 O126 O 0.95512 0.50418 0.42489
 O127 O 1.09597 0.49226 0.49660
 O128 O 0.98564 0.44259 0.43189
 O129 O 0.99496 0.57769 0.45907
 O130 O 0.92594 0.51256 0.55875
 O131 O 1.06204 0.53135 0.56994
 O132 O 0.92069 0.54401 0.49767
 O133 O 1.00474 0.50677 0.59988
 O134 O 0.96570 0.43336 0.56651
 O135 O 0.99204 0.40246 0.51080
 C136 C 1.09798 0.45742 0.47783
 C137 C 1.03093 0.59189 0.46853
 C138 C 0.96348 0.46793 0.41102
 C139 C 0.90576 0.53522 0.53333
 C140 C 1.04017 0.52465 0.60229
 C141 C 0.97345 0.40053 0.54572
 Zn142 Zn 0.55130 0.52277 0.98472
 Zn143 Zn 0.50988 0.44742 1.01964
 Zn144 Zn 0.46823 0.53103 1.02776
 Zn145 Zn 0.47473 0.48867 0.94463
 O146 O 0.50093 0.49757 0.99429
 O147 O 0.59496 0.49348 1.00398
 O148 O 0.48453 0.44421 1.06893
 O149 O 0.49402 0.57929 1.04164
 O150 O 0.56404 0.43749 1.02999
 O151 O 0.55489 0.57240 1.00936
 O152 O 0.45403 0.50583 1.07602
 O153 O 0.42502 0.51377 0.94218
 O154 O 0.49089 0.40382 0.99011
 O155 O 0.41960 0.54553 1.00315
 O156 O 0.46473 0.43463 0.93438
 O157 O 0.50376 0.50800 0.90094
 O158 O 0.56107 0.53259 0.93073
 C159 C 0.59690 0.45867 1.02277
 C160 C 0.46240 0.46958 1.08987
 C161 C 0.53008 0.59332 1.03212
 C162 C 0.40475 0.53653 0.96752
 C163 C 0.47238 0.40183 0.95520
 C164 C 0.53917 0.52590 0.89844
 C165 C 1.21592 0.41502 0.42921
 C166 C 1.21376 0.45268 0.45124
 C167 C 1.17558 0.46607 0.46799
 C168 C 1.28664 0.39044 0.39394
 C169 C 1.14178 0.40372 0.44129
 C170 C 1.17996 0.39041 0.42461
 C171 C 1.25467 0.40195 0.41035
 C172 C 1.13904 0.44192 0.46283
 H173 H 1.24143 0.47196 0.45498
 H174 H 1.17454 0.49566 0.48433
 H175 H 1.11429 0.38439 0.43672
 H176 H 1.18131 0.36118 0.40763
 C177 C 0.28481 0.58370 0.92907
 C178 C 0.30773 0.55724 0.90297
 C179 C 0.34656 0.54186 0.91566
 C180 C 0.21263 0.61285 0.90110
 C181 C 0.33984 0.57920 0.98103
 C182 C 0.30086 0.59463 0.96818
 C183 C 0.24528 0.59990 0.91486
 C184 C 0.36319 0.55272 0.95479
 H185 H 0.29565 0.54862 0.87263
 H186 H 0.36360 0.52154 0.89467
 H187 H 0.35176 0.58815 1.01131
 H188 H 0.28338 0.61518 0.98861
 C189 C -0.21560 0.91587 0.07144
 C190 C -0.19280 0.94231 0.09766
 C191 C -0.15397 0.95793 0.08503
 C192 C -0.28785 0.88628 0.09918
 C193 C -0.16047 0.92087 0.01950
 C194 C -0.19945 0.90520 0.03228
 C195 C -0.25516 0.89943 0.08555
 C196 C -0.13723 0.94733 0.04585
 H197 H -0.20497 0.95073 0.12805
 H198 H -0.13701 0.97823 0.10611
 H199 H -0.14848 0.91212 -0.01083
 H200 H -0.21683 0.88468 0.01176
 C201 C 0.71432 0.08459 0.57043
 C202 C 0.67838 0.10912 0.57525
 C203 C 0.64020 0.09588 0.55854
 C204 C 0.78507 0.10902 0.60566
 C205 C 0.67396 0.03374 0.53139
 C206 C 0.71213 0.04707 0.54816
 C207 C 0.75308 0.09759 0.58928
 C208 C 0.63744 0.05781 0.53677
 H209 H 0.67975 0.13824 0.59241
 H210 H 0.61272 0.11514 0.56329
 H211 H 0.67291 0.00426 0.51486
 H212 H 0.73979 0.02785 0.54424
 C213 C 0.42881 0.21789 0.40878
 C214 C 0.45014 0.21555 0.44676
 C215 C 0.46501 0.17710 0.46117
 C216 C 0.39618 0.28924 0.38306
 C217 C 0.43773 0.14329 0.39929
 C218 C 0.42293 0.18175 0.38496
 C219 C 0.41156 0.25697 0.39486
 C220 C 0.45862 0.14044 0.43776
 H221 H 0.45478 0.24333 0.46549
 H222 H 0.48092 0.17600 0.49092
 H223 H 0.43228 0.11572 0.38049
 H224 H 0.40639 0.18320 0.35554
 C225 C 0.92974 0.28210 0.59134
 C226 C 0.92383 0.31831 0.61502
 C227 C 0.93872 0.35673 0.60055
 C228 C 0.89689 0.21083 0.61730
 C229 C 0.96616 0.32272 0.53881
 C230 C 0.95119 0.28431 0.55336
 C231 C 0.91238 0.24306 0.60539
 C232 C 0.95974 0.35946 0.56208
 H233 H 0.90719 0.31696 0.64443
 H234 H 0.93325 0.38437 0.61924
 H235 H 0.98217 0.32372 0.50908
 H236 H 0.95585 0.25646 0.53474
 C237 C 0.07156 0.78785 -0.07635
 C238 C 0.09684 0.81158 -0.04983
 C239 C 0.08300 0.85023 -0.03524
 C240 C 0.10155 0.71627 -0.10457
 C241 C 0.01808 0.84169 -0.07347
 C242 C 0.03209 0.80289 -0.08812
 C243 C 0.08700 0.74861 -0.09190
 C244 C 0.04351 0.86587 -0.04696
 H245 H 0.12746 0.80030 -0.04060
 H246 H 0.10340 0.86792 -0.01485
 H247 H -0.01245 0.85283 -0.08305
 H248 H 0.01230 0.78477 -0.10874
 C249 C 0.57220 0.71268 1.07707
 C250 C 0.59751 0.68897 1.05055
 C251 C 0.58361 0.65033 1.03592
 C252 C 0.60225 0.78430 1.10534
 C253 C 0.51859 0.65885 1.07411
 C254 C 0.53266 0.69764 1.08880
 C255 C 0.58769 0.75194 1.09265
 C256 C 0.54404 0.63469 1.04759
 H257 H 0.62818 0.70025 1.04134
 H258 H 0.60402 0.63266 1.01552
 H259 H 0.48801 0.64771 1.08366
 H260 H 0.51285 0.71575 1.10942
 C261 C 0.41576 0.42911 1.20886
 C262 C 0.44134 0.40293 1.18503
 C263 C 0.45650 0.41626 1.14649
 C264 C 0.38729 0.40000 1.28057
 C265 C 0.42068 0.48244 1.15531
 C266 C 0.40547 0.46894 1.19401
 C267 C 0.39991 0.41429 1.24816
 C268 C 0.44631 0.45614 1.13107
 H269 H 0.44946 0.37204 1.19618
 H270 H 0.47616 0.39519 1.12875
 H271 H 0.41227 0.51328 1.14433
 H272 H 0.38562 0.48945 1.21221
 C273 C 0.58212 -0.07117 0.27918
 C274 C 0.60701 -0.07553 0.31474
 C275 C 0.59331 -0.05969 0.35295
 C276 C 0.60778 -0.10472 0.20836
 C277 C 0.52991 -0.03438 0.32001
 C278 C 0.54370 -0.05029 0.28180
 C279 C 0.59574 -0.08908 0.24036
 C280 C 0.55441 -0.03924 0.35613
 H281 H 0.63681 -0.09163 0.31305
 H282 H 0.61293 -0.06399 0.38010
 H283 H 0.49980 -0.01886 0.32139
 H284 H 0.52418 -0.04676 0.25445
 C285 C -0.08437 1.07134 -0.20816
 C286 C -0.09462 1.03145 -0.19334
 C287 C -0.07948 1.01799 -0.15465
 C288 C -0.11261 1.10034 -0.27991
 C289 C -0.04384 1.08432 -0.14577
 C290 C -0.05893 1.09762 -0.18429
 C291 C -0.10010 1.08611 -0.24747
 C292 C -0.05397 1.04438 -0.13039
 H293 H -0.11437 1.01087 -0.21157
 H294 H -0.08784 0.98710 -0.14371
 H295 H -0.02428 1.10546 -0.12800
 H296 H -0.05084 1.12855 -0.19542
 C297 C 1.08352 0.57040 0.72041
 C298 C 1.10845 0.57498 0.68483
 C299 C 1.09474 0.55935 0.64655
 C300 C 1.10902 0.60364 0.79139
 C301 C 1.03127 0.53384 0.67946
 C302 C 1.04506 0.54953 0.71774
 C303 C 1.09711 0.58812 0.75931
 C304 C 1.05580 0.53892 0.64334
 H305 H 1.13828 0.59109 0.68656
 H306 H 1.11438 0.56382 0.61939
 H307 H 1.00113 0.51832 0.67806
 H308 H 1.02552 0.54584 0.74510
 C309 C 0.78583 0.58302 0.57127
 C310 C 0.80204 0.59352 0.53210
 C311 C 0.84102 0.57787 0.51944
 C312 C 0.71358 0.61266 0.59870
 C313 C 0.84742 0.54115 0.58514
 C314 C 0.80857 0.55676 0.59764
 C315 C 0.74627 0.59946 0.58522
 C316 C 0.86421 0.55159 0.54594
 H317 H 0.78469 0.61391 0.51146
 H318 H 0.85306 0.58650 0.48910
 H319 H 0.86434 0.52100 0.60632
 H320 H 0.79635 0.54848 0.62804
 C321 C 0.71472 0.41598 1.07112
 C322 C 0.71266 0.45365 1.04913
 C323 C 0.67452 0.46714 1.03247
 C324 C 0.78536 0.39110 1.10612
 C325 C 0.64054 0.40489 1.05920
 C326 C 0.67868 0.39148 1.07578
 C327 C 0.75343 0.40276 1.08984
 C328 C 0.63791 0.44309 1.03770
 H329 H 0.74038 0.47285 1.04534
 H330 H 0.67357 0.49672 1.01616
 H331 H 0.61300 0.38564 1.06382
 H332 H 0.67995 0.36225 1.09273
 C333 C 0.21439 1.08425 -0.07177
 C334 C 0.21227 1.04668 -0.04960
 C335 C 0.17414 1.03331 -0.03266
 C336 C 0.28507 1.10891 -0.10717
 C337 C 0.14029 1.09550 -0.05945
 C338 C 0.17843 1.10878 -0.07632
 C339 C 0.25311 1.09734 -0.09073
 C340 C 0.13760 1.05739 -0.03777
 H341 H 0.23994 1.02746 -0.04588
 H342 H 0.17314 1.00380 -0.01622
 H343 H 0.11280 1.11476 -0.06399
 H344 H 0.17974 1.13794 -0.09339
 C345 C 0.28425 -0.08290 0.42770
 C346 C 0.30713 -0.05646 0.40152
 C347 C 0.34598 -0.04095 0.41415
 C348 C 0.21206 -0.11245 0.40000
 C349 C 0.33931 -0.07813 0.47958
 C350 C 0.30032 -0.09368 0.46681
 C351 C 0.24471 -0.09928 0.41359
 C352 C 0.36264 -0.05167 0.45328
 H353 H 0.29502 -0.04797 0.37117
 H354 H 0.36301 -0.02065 0.39311
 H355 H 0.35125 -0.08697 0.50987
 H356 H 0.28287 -0.11421 0.48729
 C357 C 0.57086 -0.21141 0.57603
 C358 C 0.59626 -0.18784 0.54945
 C359 C 0.58251 -0.14925 0.53470
 C360 C 0.60066 -0.28286 0.60464
 C361 C 0.51743 -0.15755 0.57287
 C362 C 0.53136 -0.19629 0.58768
 C363 C 0.58621 -0.25058 0.59179
 C364 C 0.54299 -0.13352 0.54632
 H365 H 0.62691 -0.19919 0.54030
 H366 H 0.60300 -0.13167 0.51427
 H367 H 0.48688 -0.14633 0.58238
 H368 H 0.51147 -0.21429 0.60835
 C369 C 1.07226 0.71139 0.42335
 C370 C 1.03278 0.69612 0.41185
 C371 C 1.01899 0.65727 0.42660
 C372 C 1.10165 0.78319 0.39495
 C373 C 1.08419 0.64914 0.46442
 C374 C 1.09781 0.68785 0.44971
 C375 C 1.08741 0.75073 0.40771
 C376 C 1.04467 0.63328 0.45297
 H377 H 1.01278 0.71409 0.39135
 H378 H 0.98843 0.64595 0.41723
 H379 H 1.10477 0.63159 0.48469
 H380 H 1.12844 0.69932 0.45875
 C381 C -0.07134 1.21711 0.09108
 C382 C -0.04989 1.21486 0.05310
 C383 C -0.03505 1.17643 0.03854
 C384 C -0.10371 1.28848 0.11721
 C385 C -0.06261 1.14247 0.10025
 C386 C -0.07738 1.18091 0.11473
 C387 C -0.08847 1.25620 0.10521
 C388 C -0.04158 1.13971 0.06179
 H389 H -0.04512 1.24269 0.03450
 H390 H -0.01902 1.17540 0.00881
 H391 H -0.06817 1.11485 0.11892
 H392 H -0.09401 1.18230 0.14414
 C393 C 0.42861 0.28338 0.90963
 C394 C 0.42283 0.31957 0.88593
 C395 C 0.43773 0.35799 0.90039
 C396 C 0.39589 0.21211 0.88353
 C397 C 0.46489 0.32404 0.96218
 C398 C 0.44992 0.28563 0.94763
 C399 C 0.41130 0.24434 0.89553
 C400 C 0.45862 0.36075 0.93887
 H401 H 0.40631 0.31819 0.85650
 H402 H 0.43238 0.38560 0.88167
 H403 H 0.48081 0.32507 0.99193
 H404 H 0.45448 0.25780 0.96627
 C405 C 0.58221 0.57188 0.78027
 C406 C 0.54382 0.55090 0.78305
 C407 C 0.53014 0.53512 0.82134
 C408 C 0.60762 0.60505 0.70922
 C409 C 0.59359 0.56077 0.85405
 C410 C 0.60719 0.57648 0.81576
 C411 C 0.59572 0.58960 0.74135
 C412 C 0.55472 0.54022 0.85737
 H413 H 0.52425 0.54717 0.75575
 H414 H 0.50005 0.51951 0.82282
 H415 H 0.61327 0.56526 0.88115
 H416 H 0.63697 0.59267 0.81393
 C417 C 0.41443 0.07153 0.70748
 C418 C 0.44002 0.09790 0.68382
 C419 C 0.45535 0.08473 0.64528
 C420 C 0.38576 0.10017 0.77932
 C421 C 0.41969 0.01836 0.65377
 C422 C 0.40431 0.03169 0.69245
 C423 C 0.39846 0.08612 0.74683
 C424 C 0.44534 0.04484 0.62970
 H425 H 0.44802 0.12880 0.69511
 H426 H 0.47502 0.10593 0.62766
 H427 H 0.41141 -0.01250 0.64267
 H428 H 0.38446 0.01104 0.71052
 C429 C 0.08208 0.92903 0.22008
 C430 C 0.10706 0.92465 0.18452
 C431 C 0.09337 0.94029 0.14628
 C432 C 0.10776 0.89588 0.29096
 C433 C 0.02978 0.96542 0.17919
 C434 C 0.04357 0.94971 0.21743
 C435 C 0.09571 0.91133 0.25893
 C436 C 0.05438 0.96054 0.14308
 H437 H 0.13694 0.90870 0.18624
 H438 H 0.11306 0.93598 0.11913
 H439 H -0.00040 0.98079 0.17780
 H440 H 0.02398 0.95325 0.24479
 C441 C 0.91662 0.42757 0.29215
 C442 C 0.90649 0.46743 0.30708
 C443 C 0.92177 0.48087 0.34573
 C444 C 0.88798 0.39876 0.22041
 C445 C 0.95736 0.41457 0.35438
 C446 C 0.94212 0.40129 0.31587
 C447 C 0.90070 0.41287 0.25285
 C448 C 0.94733 0.45448 0.36987
 H449 H 0.88670 0.48801 0.28896
 H450 H 0.91348 0.51175 0.35676
 H451 H 0.97695 0.39344 0.37205
 H452 H 0.95012 0.37038 0.30465
   
