data_POSCAR
  _audit_creation_date              2014-09-24
  _audit_creation_method            'ToBaCCo'
  _symmetry_space_group_name_H-M    'P1'
  _symmetry_Int_Tables_number       1
  _symmetry_cell_setting            triclinic
  loop_
  _symmetry_equiv_pos_as_xyz
 x,y,z
_cell_length_a 39.6654
_cell_length_b 38.3610
_cell_length_c 54.2652
_cell_angle_alpha 89.796400
_cell_angle_beta 90.127400
_cell_angle_gamma 119.479000
loop_
  _atom_site_label
  _atom_site_type_symbol
  _atom_site_fract_x
  _atom_site_fract_y
  _atom_site_fract_z
C1 C -0.01960 0.47364 1.25485
 C2 C 0.01991 0.49349 1.25437
 C3 C 0.04351 0.50408 1.27731
 C4 C 0.04161 0.50659 1.23073
 C5 C -0.04277 0.46008 1.23175
 C6 C -0.04174 0.46581 1.27824
 C7 C 0.07316 0.54342 1.28092
 C8 C 0.09581 0.55406 1.30223
 C9 C 0.08978 0.52555 1.32092
 C10 C 0.05982 0.48562 1.31665
 C11 C 0.03734 0.47518 1.29521
 C12 C 0.03500 0.53062 1.21403
 C13 C 0.05545 0.54272 1.19185
 C14 C 0.08336 0.53153 1.18608
 C15 C 0.09035 0.50800 1.20306
 C16 C 0.06975 0.49577 1.22519
 C17 C -0.03737 0.43568 1.21480
 C18 C -0.05832 0.42444 1.19274
 C19 C -0.08531 0.43712 1.18732
 C20 C -0.09132 0.46068 1.20465
 C21 C -0.07035 0.47192 1.22666
 C22 C -0.07214 0.42718 1.28339
 C23 C -0.09428 0.41968 1.30475
 C24 C -0.08658 0.45074 1.32142
 C25 C -0.05607 0.48946 1.31620
 C26 C -0.03409 0.49697 1.29474
 H27 H 0.07891 0.56615 1.26712
 H28 H 0.11918 0.58460 1.30296
 H29 H 0.05186 0.46205 1.33009
 H30 H 0.01483 0.44440 1.29267
 H31 H 0.01394 0.53996 1.21817
 H32 H 0.04914 0.56055 1.17913
 H33 H 0.07559 0.47763 1.23797
 H34 H -0.01664 0.42570 1.21855
 H35 H -0.05288 0.40645 1.17973
 H36 H -0.11243 0.47027 1.20126
 H37 H -0.07519 0.49048 1.23958
 H38 H -0.07885 0.40281 1.27076
 H39 H -0.11799 0.38970 1.30793
 H40 H -0.04912 0.51399 1.32872
 H41 H -0.01133 0.52721 1.29089
 H42 H 0.11214 0.49949 1.19940
 C43 C 0.52646 0.50797 1.24875
 C44 C 0.50466 0.52631 1.24860
 C45 C 0.49220 0.53740 1.27164
 C46 C 0.49062 0.53431 1.22517
 C47 C 0.53843 0.49736 1.22546
 C48 C 0.54007 0.49845 1.27195
 C49 C 0.47069 0.50839 1.28955
 C50 C 0.46023 0.51944 1.31155
 C51 C 0.47074 0.55966 1.31593
 C52 C 0.49149 0.58840 1.29767
 C53 C 0.50205 0.57736 1.27577
 C54 C 0.45525 0.50519 1.21536
 C55 C 0.44080 0.51297 1.19380
 C56 C 0.46122 0.55033 1.18185
 C57 C 0.49716 0.57916 1.19162
 C58 C 0.51184 0.57107 1.21300
 C59 C 0.57411 0.52416 1.21487
 C60 C 0.58658 0.51374 1.19350
 C61 C 0.56374 0.47604 1.18249
 C62 C 0.52755 0.44956 1.19303
 C63 C 0.51494 0.46025 1.21427
 C64 C 0.56263 0.52859 1.28893
 C65 C 0.57371 0.51885 1.31125
 C66 C 0.56263 0.47881 1.31689
 C67 C 0.54092 0.44892 1.29953
 C68 C 0.52984 0.45866 1.27728
 H69 H 0.46234 0.47727 1.28658
 H70 H 0.44448 0.49661 1.32528
 H71 H 0.49936 0.61947 1.30024
 H72 H 0.51848 0.60025 1.26222
 H73 H 0.43878 0.47651 1.22450
 H74 H 0.41356 0.48968 1.18653
 H75 H 0.53941 0.59371 1.22030
 H76 H 0.59237 0.55307 1.22327
 H77 H 0.61416 0.53524 1.18561
 H78 H 0.50938 0.42014 1.18528
 H79 H 0.48719 0.43933 1.22225
 H80 H 0.57122 0.55956 1.28501
 H81 H 0.59030 0.54251 1.32429
 H82 H 0.53259 0.41793 1.30311
 H83 H 0.51260 0.43494 1.26444
 H84 H 0.51352 0.60838 1.18314
 C85 C 0.49609 1.02124 1.24710
 C86 C 0.47307 0.98069 1.24771
 C87 C 0.46136 0.95810 1.27134
 C88 C 0.45852 0.95677 1.22479
 C89 C 0.51118 1.04349 1.22359
 C90 C 0.50729 1.04552 1.26996
 C91 C 0.48910 0.96139 1.28859
 C92 C 0.47776 0.93969 1.31063
 C93 C 0.43818 0.91364 1.31601
 C94 C 0.41063 0.91046 1.29825
 C95 C 0.42213 0.93223 1.27626
 C96 C 0.46469 0.92423 1.22087
 C97 C 0.45134 0.90154 1.19938
 C98 C 0.43134 0.91081 1.18143
 C99 C 0.42471 0.94312 1.18557
 C100 C 0.43800 0.96575 1.20712
 C101 C 0.50517 1.07563 1.21793
 C102 C 0.51937 1.09709 1.19602
 C103 C 0.54041 1.08724 1.17906
 C104 C 0.54651 1.05485 1.18518
 C105 C 0.53227 1.03351 1.20716
 C106 C 0.47915 1.04406 1.28612
 C107 C 0.49002 1.06716 1.30754
 C108 C 0.52952 1.09261 1.31339
 C109 C 0.55750 1.09397 1.29670
 C110 C 0.54646 1.07094 1.27528
 H111 H 0.51964 0.98088 1.28501
 H112 H 0.50036 0.94474 1.32365
 H113 H 0.38004 0.88993 1.30055
 H114 H 0.40028 0.92884 1.26299
 H115 H 0.48014 0.91659 1.23439
 H116 H 0.45626 0.87639 1.19697
 H117 H 0.43233 0.99032 1.21000
 H118 H 0.48940 1.08418 1.23056
 H119 H 0.51499 1.12248 1.19316
 H120 H 0.56113 1.04467 1.17279
 H121 H 0.53762 1.00902 1.21132
 H122 H 0.44867 1.02485 1.28219
 H123 H 0.46710 1.06357 1.31982
 H124 H 0.58812 1.11397 1.29942
 H125 H 0.56861 1.07286 1.26281
 H126 H 0.40963 0.95119 1.17204
 C127 C 1.01928 0.49857 0.74569
 C128 C 0.97994 0.48104 0.74552
 C129 C 0.95722 0.46826 0.72228
 C130 C 0.95746 0.47298 0.76873
 C131 C 1.04149 0.50815 0.76907
 C132 C 1.04228 0.50882 0.72264
 C133 C 0.92992 0.48052 0.71730
 C134 C 0.90749 0.46791 0.69591
 C135 C 0.91182 0.44262 0.67906
 C136 C 0.93912 0.43023 0.68415
 C137 C 0.96139 0.44268 0.70565
 C138 C 0.96494 0.50390 0.78538
 C139 C 0.94414 0.49561 0.80741
 C140 C 0.91519 0.45632 0.81305
 C141 C 0.90723 0.42565 0.79604
 C142 C 0.92809 0.43394 0.77408
 C143 C 1.03488 0.47813 0.78625
 C144 C 1.05583 0.48761 0.80828
 C145 C 1.08412 0.52754 0.81372
 C146 C 1.09071 0.55733 0.79597
 C147 C 1.06985 0.54765 0.77395
 C148 C 1.06745 0.49362 0.71875
 C149 C 1.08964 0.50307 0.69733
 C150 C 1.08771 0.52856 0.67917
 C151 C 1.06245 0.54409 0.68351
 C152 C 1.04007 0.53429 0.70495
 H153 H 0.92594 0.49987 0.73004
 H154 H 0.88622 0.47736 0.69282
 H155 H 0.94340 0.41101 0.67149
 H156 H 0.98168 0.43213 0.70940
 H157 H 0.98704 0.53437 0.78138
 H158 H 0.95112 0.51986 0.82017
 H159 H 0.92165 0.40976 0.76135
 H160 H 1.01326 0.44732 0.78267
 H161 H 1.04843 0.46353 0.82130
 H162 H 1.11303 0.58814 0.79839
 H163 H 1.07571 0.57114 0.76069
 H164 H 1.06993 0.47430 0.73239
 H165 H 1.10951 0.49152 0.69579
 H166 H 1.05862 0.56274 0.67009
 H167 H 1.02096 0.54660 0.70775
 H168 H 0.88460 0.39524 0.79960
 C169 C 0.49600 0.51761 0.75345
 C170 C 0.51668 0.49784 0.75425
 C171 C 0.52684 0.48366 0.73146
 C172 C 0.53060 0.48973 0.77790
 C173 C 0.48222 0.52798 0.77627
 C174 C 0.48674 0.53057 0.72972
 C175 C 0.49817 0.45929 0.71449
 C176 C 0.50817 0.44643 0.69305
 C177 C 0.54698 0.45729 0.68831
 C178 C 0.57551 0.48115 0.70557
 C179 C 0.56550 0.49409 0.72695
 C180 C 0.52283 0.45074 0.78347
 C181 C 0.53651 0.44280 0.80532
 C182 C 0.55844 0.47377 0.82204
 C183 C 0.56634 0.51289 0.81636
 C184 C 0.55277 0.52083 0.79443
 C185 C 0.49081 0.56763 0.78020
 C186 C 0.47855 0.57802 0.80166
 C187 C 0.45727 0.54892 0.81963
 C188 C 0.44801 0.50902 0.81542
 C189 C 0.46021 0.49862 0.79388
 C190 C 0.51605 0.55378 0.71275
 C191 C 0.50704 0.56612 0.69063
 C192 C 0.46860 0.55602 0.68519
 C193 C 0.43941 0.53316 0.70237
 C194 C 0.44843 0.52066 0.72442
 H195 H 0.46807 0.45031 0.71782
 H196 H 0.48555 0.42835 0.68005
 H197 H 0.60554 0.48944 0.70269
 H198 H 0.58800 0.51258 0.73993
 H199 H 0.50613 0.42640 0.77085
 H200 H 0.53054 0.41250 0.80888
 H201 H 0.55975 0.55129 0.79028
 H202 H 0.50742 0.59067 0.76673
 H203 H 0.48549 0.60885 0.80409
 H204 H 0.43185 0.48595 0.82895
 H205 H 0.45266 0.46770 0.79100
 H206 H 0.54594 0.56244 0.71667
 H207 H 0.53017 0.58339 0.67774
 H208 H 0.40965 0.52550 0.69898
 H209 H 0.42545 0.50313 0.73737
 H210 H 0.58288 0.53736 0.82890
 C211 C 0.48481 -0.01957 0.75161
 C212 C 0.50633 0.02114 0.75098
 C213 C 0.51727 0.04362 0.72732
 C214 C 0.51937 0.04542 0.77386
 C215 C 0.47147 -0.04201 0.77517
 C216 C 0.47216 -0.04383 0.72871
 C217 C 0.55644 0.06968 0.72209
 C218 C 0.56733 0.09062 0.69979
 C219 C 0.53921 0.08611 0.68233
 C220 C 0.49989 0.06055 0.68785
 C221 C 0.48901 0.03966 0.71020
 C222 C 0.54169 0.03921 0.79164
 C223 C 0.55333 0.06223 0.81315
 C224 C 0.54292 0.09190 0.81721
 C225 C 0.52113 0.09840 0.79915
 C226 C 0.50963 0.07552 0.77767
 C227 C 0.44810 -0.03510 0.79149
 C228 C 0.43483 -0.05729 0.81328
 C229 C 0.44452 -0.08719 0.81936
 C230 C 0.46813 -0.09372 0.80261
 C231 C 0.48111 -0.07163 0.78080
 C232 C 0.43262 -0.06892 0.72436
 C233 C 0.41989 -0.09098 0.70262
 C234 C 0.44645 -0.08895 0.68454
 C235 C 0.48641 -0.06425 0.68952
 C236 C 0.49901 -0.04203 0.71130
 H237 H 0.57862 0.07347 0.73520
 H238 H 0.59779 0.11069 0.69633
 H239 H 0.47755 0.05627 0.67475
 H240 H 0.45857 0.02025 0.71411
 H241 H 0.55001 0.01653 0.78886
 H242 H 0.56997 0.05643 0.82677
 H243 H 0.49271 0.08099 0.76409
 H244 H 0.44003 -0.01254 0.78732
 H245 H 0.41801 -0.04974 0.82560
 H246 H 0.47539 -0.11714 0.80550
 H247 H 0.49868 -0.07777 0.76820
 H248 H 0.41145 -0.07113 0.73776
 H249 H 0.38906 -0.11066 0.70064
 H250 H 0.50831 -0.06039 0.67628
 H251 H 0.52976 -0.02302 0.71445
 H252 H 0.51326 0.12150 0.80152
 O253 O 0.37928 0.65366 0.98151
 O254 O 0.37279 0.71681 0.97243
 C255 C 0.35283 0.73330 0.96699
 O256 O 0.32247 0.72632 0.97879
 O257 O 0.26268 0.65644 0.96990
 C258 C 0.24703 0.61923 0.96570
 O259 O 0.25283 0.59555 0.97925
 O260 O 0.32098 0.60226 0.97269
 C261 C 0.35706 0.62316 0.96865
 O262 O 0.37445 0.66474 1.03020
 O263 O 0.37097 0.72977 1.02134
 C264 C 0.34457 0.73247 1.03307
 O265 O 0.30901 0.71216 1.02749
 O266 O 0.24703 0.64416 1.01868
 C267 C 0.24467 0.61598 1.03232
 O268 O 0.26463 0.59895 1.02851
 O269 O 0.33074 0.60141 1.02197
 C270 C 0.35836 0.62760 1.03487
 Cr271 Cr 0.37234 0.69010 1.00133
 Cr272 Cr 0.28642 0.68382 0.99876
 Cr273 Cr 0.29317 0.60161 1.00058
 O274 O 0.31737 0.65854 1.00025
 O275 O 0.62779 0.35942 0.98169
 O276 O 0.62316 0.29083 0.97199
 C277 C 0.63889 0.27040 0.96573
 O278 O 0.66781 0.27226 0.97710
 O279 O 0.73377 0.33721 0.97018
 C280 C 0.75371 0.37461 0.96662
 O281 O 0.75186 0.40001 0.98072
 O282 O 0.68938 0.40518 0.97442
 C283 C 0.65351 0.38919 0.96964
 O284 O 0.62899 0.34434 1.03041
 O285 O 0.62173 0.27451 1.02070
 C286 C 0.64484 0.26565 1.03184
 O287 O 0.68031 0.28094 1.02620
 O288 O 0.74791 0.34376 1.01937
 C289 C 0.75460 0.37306 1.03337
 O290 O 0.73951 0.39511 1.02986
 O291 O 0.67958 0.40475 1.02363
 C292 C 0.64966 0.38098 1.03586
 Cr293 Cr 0.62751 0.31817 1.00118
 Cr294 Cr 0.70657 0.30980 0.99829
 Cr295 Cr 0.71391 0.39912 1.00210
 O296 O 0.68258 0.34229 1.00055
 O297 O 0.66760 0.39057 0.53183
 O298 O 0.73089 0.38826 0.52228
 C299 C 0.73364 0.36017 0.53298
 O300 O 0.71406 0.32387 0.52646
 O301 O 0.64811 0.26056 0.51656
 C302 C 0.62071 0.25746 0.53028
 O303 O 0.60445 0.27851 0.52708
 O304 O 0.60675 0.34719 0.52169
 C305 C 0.63151 0.37383 0.53586
 O306 O 0.65774 0.39960 0.48317
 O307 O 0.71918 0.39393 0.47367
 C308 C 0.73495 0.37358 0.46723
 O309 O 0.72801 0.34115 0.47797
 O310 O 0.66059 0.27979 0.46803
 C311 C 0.62458 0.26357 0.46388
 O312 O 0.60175 0.26883 0.47778
 O313 O 0.60893 0.33982 0.47244
 C314 C 0.62921 0.37738 0.46931
 Cr315 Cr 0.69275 0.39104 0.50265
 Cr316 Cr 0.68680 0.30249 0.49734
 Cr317 Cr 0.60745 0.30949 0.49975
 O318 O 0.66244 0.33439 0.49991
 O319 O 0.35444 0.61368 0.52144
 O320 O 0.28642 0.60621 0.52911
 C321 C 0.26461 0.62086 0.53362
 O322 O 0.26516 0.64900 0.52083
 O323 O 0.32538 0.71898 0.52852
 C324 C 0.36104 0.74101 0.53328
 O325 O 0.38760 0.74047 0.52043
 O326 O 0.39555 0.67812 0.52879
 C327 C 0.38159 0.64134 0.53393
 O328 O 0.34188 0.61312 0.47230
 O329 O 0.27256 0.60199 0.48006
 C330 C 0.26365 0.62425 0.46734
 O331 O 0.27720 0.66118 0.47181
 O332 O 0.33523 0.73289 0.47941
 C333 C 0.36524 0.74131 0.46669
 O334 O 0.38730 0.72699 0.47148
 O335 O 0.39902 0.66691 0.47990
 C336 C 0.37741 0.63565 0.46745
 Cr337 Cr 0.31461 0.61085 0.50071
 Cr338 Cr 0.30201 0.68972 0.50014
 Cr339 Cr 0.39034 0.70185 0.50014
 O340 O 0.33564 0.66745 0.50030
 C341 C 0.43871 0.59484 0.38293
 C342 C 0.47527 0.61980 0.37243
 C343 C 0.48584 0.60808 0.35081
 C344 C 0.46016 0.57175 0.33938
 C345 C 0.42401 0.54761 0.35048
 N346 N 0.41434 0.55968 0.37153
 C347 C 0.42484 0.60594 0.40538
 N348 N 0.38638 0.58494 0.41081
 C349 C 0.37081 0.59341 0.43061
 C350 C 0.39438 0.62502 0.44645
 C351 C 0.43424 0.64675 0.44150
 C352 C 0.44960 0.63722 0.42115
 H353 H 0.51420 0.62748 0.34305
 H354 H 0.40306 0.51962 0.34216
 H355 H 0.33992 0.57573 0.43371
 H356 H 0.45359 0.67114 0.45334
 H357 H 0.49545 0.64843 0.38030
 H358 H 0.48049 0.65417 0.41817
 C359 C 0.40356 0.84481 0.38186
 C360 C 0.37749 0.85368 0.36964
 C361 C 0.38895 0.87664 0.34812
 C362 C 0.42647 0.89102 0.33830
 C363 C 0.45162 0.88139 0.35142
 N364 N 0.43958 0.85878 0.37225
 C365 C 0.39289 0.81926 0.40424
 N366 N 0.41486 0.80229 0.41048
 C367 C 0.40693 0.77790 0.43038
 C368 C 0.37500 0.76910 0.44550
 C369 C 0.35226 0.78677 0.43969
 C370 C 0.36116 0.81194 0.41921
 H371 H 0.36835 0.88383 0.33979
 H372 H 0.48027 0.88990 0.34473
 H373 H 0.42540 0.76513 0.43417
 H374 H 0.32756 0.78114 0.45094
 H375 H 0.34826 0.84264 0.37619
 H376 H 0.34348 0.82560 0.41550
 C377 C 0.15945 0.55934 0.38461
 C378 C 0.13760 0.51875 0.37841
 C379 C 0.11428 0.50738 0.35737
 C380 C 0.11204 0.53615 0.34198
 C381 C 0.13418 0.57664 0.34956
 N382 N 0.15656 0.58668 0.37013
 C383 C 0.18533 0.57395 0.40647
 N384 N 0.19883 0.61252 0.41375
 C385 C 0.22337 0.62897 0.43312
 C386 C 0.23609 0.60628 0.44656
 C387 C 0.22264 0.56643 0.43943
 C388 C 0.19745 0.55021 0.41942
 H389 H 0.09978 0.47589 0.35297
 H390 H 0.13285 0.60072 0.34013
 H391 H 0.23299 0.65984 0.43787
 H392 H 0.23197 0.54790 0.44909
 H393 H 0.13813 0.49560 0.38952
 H394 H 0.18852 0.51979 0.41407
 C395 C 0.59349 0.44478 0.38492
 C396 C 0.62054 0.48021 0.37300
 C397 C 0.61034 0.49171 0.35102
 C398 C 0.57344 0.46799 0.34076
 C399 C 0.54719 0.43309 0.35338
 N400 N 0.55780 0.42246 0.37469
 C401 C 0.60296 0.42947 0.40749
 N402 N 0.58096 0.38987 0.41306
 C403 C 0.58818 0.37288 0.43291
 C404 C 0.61938 0.39612 0.44865
 C405 C 0.64193 0.43725 0.44363
 C406 C 0.63378 0.45405 0.42318
 H407 H 0.63169 0.51851 0.34168
 H408 H 0.51824 0.41420 0.34634
 H409 H 0.56985 0.34109 0.43608
 H410 H 0.66615 0.45641 0.45535
 H411 H 0.64963 0.49831 0.37996
 H412 H 0.65139 0.48586 0.41995
 C413 C 0.56385 0.16305 0.37826
 C414 C 0.52734 0.15117 0.36793
 C415 C 0.51589 0.12775 0.34669
 C416 C 0.54073 0.11616 0.33520
 C417 C 0.57731 0.12927 0.34622
 N418 N 0.58757 0.15182 0.36701
 C419 C 0.57802 0.18829 0.40063
 N420 N 0.61678 0.20820 0.40530
 C421 C 0.63226 0.23205 0.42534
 C422 C 0.60821 0.23703 0.44223
 C423 C 0.56811 0.21640 0.43796
 C424 C 0.55291 0.19193 0.41734
 H425 H 0.48817 0.12059 0.33881
 H426 H 0.59748 0.12057 0.33908
 H427 H 0.66333 0.24726 0.42791
 H428 H 0.54839 0.21900 0.45061
 H429 H 0.50799 0.16059 0.37558
 H430 H 0.52185 0.17576 0.41491
 C431 C 0.84056 0.42588 0.38487
 C432 C 0.85480 0.46281 0.37256
 C433 C 0.87874 0.47101 0.35205
 C434 C 0.88903 0.44288 0.34377
 C435 C 0.87501 0.40681 0.35694
 N436 N 0.85151 0.39936 0.37677
 C437 C 0.81399 0.41446 0.40634
 N438 N 0.80798 0.38214 0.42011
 C439 C 0.78338 0.36883 0.43966
 C440 C 0.76273 0.38834 0.44641
 C441 C 0.76840 0.42171 0.43249
 C442 C 0.79375 0.43474 0.41247
 H443 H 0.88860 0.49914 0.34241
 H444 H 0.88279 0.38455 0.35159
 H445 H 0.77989 0.34291 0.44979
 H446 H 0.75279 0.43746 0.43682
 H447 H 0.84795 0.48542 0.37854
 H448 H 0.79644 0.45980 0.40180
 C449 C 0.60454 0.44014 1.11963
 C450 C 0.63092 0.46430 1.13776
 C451 C 0.61764 0.47605 1.15815
 C452 C 0.57814 0.46404 1.16058
 C453 C 0.55271 0.43977 1.14201
 N454 N 0.56632 0.42843 1.12240
 C455 C 0.61705 0.42608 1.09799
 N456 N 0.59196 0.39013 1.08775
 C457 C 0.60165 0.37513 1.06802
 C458 C 0.63846 0.39696 1.05721
 C459 C 0.66453 0.43442 1.06724
 C460 C 0.65400 0.44902 1.08760
 H461 H 0.63824 0.49378 1.17227
 H462 H 0.52210 0.43005 1.14292
 H463 H 0.58053 0.34628 1.06075
 H464 H 0.69317 0.45235 1.05945
 H465 H 0.66133 0.47319 1.13662
 H466 H 0.67441 0.47817 1.09484
 C467 C 0.85090 0.40601 1.11949
 C468 C 0.85757 0.37749 1.13160
 C469 C 0.87867 0.38768 1.15357
 C470 C 0.89298 0.42606 1.16366
 C471 C 0.88577 0.45366 1.15094
 N472 N 0.86514 0.44304 1.12961
 C473 C 0.82739 0.39685 1.09667
 N474 N 0.81202 0.42061 1.09065
 C475 C 0.78947 0.41407 1.07042
 C476 C 0.78101 0.38179 1.05468
 C477 C 0.79717 0.35732 1.06022
 C478 C 0.82042 0.36477 1.08109
 H479 H 0.88295 0.36523 1.16299
 H480 H 0.89666 0.48375 1.15784
 H481 H 0.77783 0.43388 1.06687
 H482 H 0.79164 0.33221 1.04854
 H483 H 0.84587 0.34731 1.12474
 H484 H 0.83285 0.34573 1.08468
 C485 C 0.58620 0.15665 1.11417
 C486 C 0.60283 0.13444 1.12351
 C487 C 0.58756 0.11122 1.14469
 C488 C 0.55539 0.10958 1.15689
 C489 C 0.53901 0.13152 1.14623
 N490 N 0.55456 0.15394 1.12561
 C491 C 0.60196 0.18319 1.09235
 N492 N 0.57869 0.19414 1.07997
 C493 C 0.59137 0.21964 1.06040
 C494 C 0.62986 0.23626 1.05234
 C495 C 0.65435 0.22537 1.06483
 C496 C 0.64062 0.19903 1.08479
 H497 H 0.60247 0.09618 1.15186
 H498 H 0.51318 0.13025 1.15364
 H499 H 0.57148 0.22731 1.05143
 H500 H 0.68437 0.23768 1.05945
 H501 H 0.62739 0.13475 1.11469
 H502 H 0.66060 0.19234 1.09449
 C503 C 0.41379 0.57811 1.11855
 C504 C 0.38895 0.55329 1.13711
 C505 C 0.40438 0.54422 1.15766
 C506 C 0.44454 0.55946 1.15977
 C507 C 0.46836 0.58420 1.14071
 N508 N 0.45264 0.59297 1.12098
 C509 C 0.39887 0.58956 1.09683
 N510 N 0.42093 0.62636 1.08651
 C511 C 0.40870 0.63912 1.06678
 C512 C 0.37241 0.61399 1.05608
 C513 C 0.34955 0.57563 1.06615
 C514 C 0.36258 0.56338 1.08654
 H515 H 0.38487 0.52600 1.17214
 H516 H 0.49941 0.59633 1.14132
 H517 H 0.42740 0.66879 1.05944
 H518 H 0.32141 0.55524 1.05844
 H519 H 0.35801 0.54190 1.13616
 H520 H 0.34463 0.53357 1.09392
 C521 C 0.14750 0.56914 1.11853
 C522 C 0.13887 0.59562 1.13125
 C523 C 0.11785 0.58331 1.15317
 C524 C 0.10541 0.54475 1.16259
 C525 C 0.11481 0.51927 1.14937
 N526 N 0.13541 0.53197 1.12807
 C527 C 0.17079 0.58098 1.09560
 N528 N 0.19080 0.56184 1.08949
 C529 C 0.21373 0.57176 1.06917
 C530 C 0.21764 0.60278 1.05352
 C531 C 0.19646 0.62221 1.05913
 C532 C 0.17299 0.61136 1.08003
 H533 H 0.11209 0.60432 1.16303
 H534 H 0.10554 0.48917 1.15580
 H535 H 0.22932 0.55578 1.06553
 H536 H 0.19832 0.64612 1.04752
 H537 H 0.14905 0.62590 1.12485
 H538 H 0.15669 0.62653 1.08373
 C539 C 0.39014 0.83842 1.11657
 C540 C 0.36726 0.85264 1.12766
 C541 C 0.38076 0.87646 1.14869
 C542 C 0.41710 0.88650 1.15864
 C543 C 0.43946 0.87253 1.14664
 N544 N 0.42562 0.84922 1.12626
 C545 C 0.37715 0.81200 1.09467
 N546 N 0.40413 0.80862 1.08098
 C547 C 0.39459 0.78405 1.06112
 C548 C 0.35569 0.76058 1.05406
 C549 C 0.32736 0.76354 1.06792
 C550 C 0.33788 0.78901 1.08820
 H551 H 0.36248 0.88647 1.15738
 H552 H 0.46799 0.88023 1.15337
 H553 H 0.41742 0.78263 1.05107
 H554 H 0.29694 0.74572 1.06334
 H555 H 0.33938 0.84590 1.12027
 H556 H 0.31523 0.78960 1.09892
 C557 C 0.57838 0.41847 0.62261
 C558 C 0.54411 0.39211 0.63508
 C559 C 0.53386 0.40477 0.65644
 C560 C 0.55763 0.44355 0.66556
 C561 C 0.59186 0.46881 0.65270
 N562 N 0.60125 0.45580 0.63191
 C563 C 0.59086 0.40655 0.59997
 N564 N 0.62920 0.42554 0.59406
 C565 C 0.64286 0.41599 0.57369
 C566 C 0.61726 0.38571 0.55773
 C567 C 0.57755 0.36628 0.56326
 C568 C 0.56426 0.37663 0.58423
 H569 H 0.50769 0.38394 0.66607
 H570 H 0.61093 0.49905 0.65894
 H571 H 0.67368 0.43193 0.57010
 H572 H 0.55665 0.34294 0.55142
 H573 H 0.52575 0.36172 0.62886
 H574 H 0.53345 0.36164 0.58775
 C575 C 0.57375 0.15182 0.61438
 C576 C 0.59553 0.13505 0.62403
 C577 C 0.58399 0.11325 0.64598
 C578 C 0.55099 0.10819 0.65854
 C579 C 0.52993 0.12526 0.64827
 N580 N 0.54180 0.14648 0.62689
 C581 C 0.58536 0.17692 0.59177
 N582 N 0.57023 0.20153 0.58776
 C583 C 0.58024 0.22658 0.56803
 C584 C 0.60737 0.22816 0.55083
 C585 C 0.62267 0.20238 0.55424
 C586 C 0.61162 0.17661 0.57452
 H587 H 0.60093 0.10033 0.65311
 H588 H 0.50461 0.12261 0.65748
 H589 H 0.56754 0.24578 0.56613
 H590 H 0.64340 0.20226 0.54133
 H591 H 0.62171 0.13929 0.61525
 H592 H 0.62355 0.15677 0.57639
 C593 C 0.83841 0.40208 0.61536
 C594 C 0.84848 0.37597 0.62742
 C595 C 0.87264 0.38926 0.64803
 C596 C 0.88726 0.42858 0.65659
 C597 C 0.87739 0.45402 0.64362
 N598 N 0.85357 0.44031 0.62372
 C599 C 0.81182 0.38972 0.59388
 N600 N 0.81011 0.41866 0.58020
 C601 C 0.78582 0.41009 0.56066
 C602 C 0.76100 0.37017 0.55384
 C603 C 0.76217 0.33980 0.56767
 C604 C 0.78729 0.34935 0.58768
 H605 H 0.87928 0.36849 0.65751
 H606 H 0.88863 0.48482 0.64921
 H607 H 0.78587 0.43452 0.55059
 H608 H 0.74326 0.30854 0.56328
 H609 H 0.83821 0.34569 0.62120
 H610 H 0.78651 0.32511 0.59831
 C611 C 0.43897 0.59656 0.61912
 C612 C 0.47417 0.62164 0.63111
 C613 C 0.48393 0.60834 0.65251
 C614 C 0.45905 0.56999 0.66197
 C615 C 0.42465 0.54547 0.64908
 N616 N 0.41564 0.55917 0.62835
 C617 C 0.42618 0.60937 0.59682
 N618 N 0.39795 0.58091 0.58240
 C619 C 0.38372 0.59021 0.56211
 C620 C 0.39778 0.63039 0.55534
 C621 C 0.42684 0.66021 0.56996
 C622 C 0.44097 0.64992 0.59066
 H623 H 0.51067 0.62840 0.66187
 H624 H 0.40497 0.51538 0.65538
 H625 H 0.36118 0.56620 0.55149
 H626 H 0.43829 0.69163 0.56566
 H627 H 0.49427 0.65111 0.62415
 H628 H 0.46243 0.67373 0.60191
 C629 C 0.40654 0.84284 0.61891
 C630 C 0.38279 0.85464 0.63126
 C631 C 0.39600 0.87720 0.65276
 C632 C 0.43322 0.88886 0.66224
 C633 C 0.45651 0.87739 0.64864
 N634 N 0.44268 0.85494 0.62788
 C635 C 0.39360 0.81754 0.59647
 N636 N 0.42072 0.81647 0.58162
 C637 C 0.41117 0.79306 0.56118
 C638 C 0.37214 0.76840 0.55470
 C639 C 0.34370 0.76903 0.56974
 C640 C 0.35422 0.79332 0.59059
 H641 H 0.37720 0.88668 0.66123
 H642 H 0.48500 0.88435 0.65490
 H643 H 0.43410 0.79340 0.55023
 H644 H 0.31321 0.75020 0.56567
 H645 H 0.35451 0.84733 0.62432
 H646 H 0.33150 0.79201 0.60218
 C647 C 0.15961 0.56056 0.61601
 C648 C 0.14816 0.52381 0.62775
 C649 C 0.12421 0.51312 0.64838
 C650 C 0.11089 0.53857 0.65754
 C651 C 0.12203 0.57453 0.64446
 N652 N 0.14583 0.58442 0.62458
 C653 C 0.18625 0.57434 0.59459
 N654 N 0.18740 0.60367 0.57980
 C655 C 0.21173 0.61866 0.56018
 C656 C 0.23720 0.60424 0.55454
 C657 C 0.23666 0.57417 0.56962
 C658 C 0.21146 0.55929 0.58963
 H659 H 0.11519 0.48403 0.65645
 H660 H 0.11374 0.59602 0.65056
 H661 H 0.21126 0.64198 0.54916
 H662 H 0.25608 0.56244 0.56617
 H663 H 0.15688 0.50296 0.62100
 H664 H 0.21266 0.53703 0.60129
 C665 C 0.42076 0.58200 0.88559
 C666 C 0.45767 0.60765 0.87578
 C667 C 0.46964 0.59664 0.85448
 C668 C 0.44500 0.56035 0.84266
 C669 C 0.40835 0.53557 0.85301
 N670 N 0.39729 0.54696 0.87379
 C671 C 0.40583 0.59254 0.90775
 N672 N 0.36691 0.57325 0.91179
 C673 C 0.35075 0.58184 0.93127
 C674 C 0.37422 0.61174 0.94813
 C675 C 0.41448 0.63142 0.94463
 C676 C 0.43038 0.62178 0.92466
 H677 H 0.49829 0.61654 0.84728
 H678 H 0.38817 0.50759 0.84433
 H679 H 0.31957 0.56575 0.93327
 H680 H 0.43377 0.65435 0.95732
 H681 H 0.47702 0.63632 0.88397
 H682 H 0.46152 0.63703 0.92280
 C683 C 0.14876 0.55854 0.88017
 C684 C 0.13305 0.51947 0.87094
 C685 C 0.11138 0.50907 0.84923
 C686 C 0.10539 0.53745 0.83617
 C687 C 0.12181 0.57630 0.84626
 N688 N 0.14253 0.58549 0.86751
 C689 C 0.17296 0.57227 0.90276
 N690 N 0.19333 0.61233 0.90729
 C691 C 0.21662 0.62789 0.92728
 C692 C 0.22071 0.60257 0.94429
 C693 C 0.19968 0.56111 0.94022
 C694 C 0.17567 0.54583 0.91963
 H695 H 0.10115 0.47917 0.84223
 H696 H 0.11729 0.59930 0.83795
 H697 H 0.23222 0.66005 0.92966
 H698 H 0.20168 0.54041 0.95296
 H699 H 0.13805 0.49714 0.87977
 H700 H 0.15943 0.51374 0.91735
 C701 C 0.40259 0.84167 0.88400
 C702 C 0.38206 0.85944 0.87386
 C703 C 0.39615 0.88337 0.85282
 C704 C 0.43058 0.88963 0.84131
 C705 C 0.45018 0.87123 0.85232
 N706 N 0.43592 0.84831 0.87288
 C707 C 0.38897 0.81486 0.90590
 N708 N 0.40686 0.79326 0.91143
 C709 C 0.39620 0.76755 0.93085
 C710 C 0.36550 0.76210 0.94618
 C711 C 0.34685 0.78433 0.94105
 C712 C 0.35855 0.81081 0.92110
 H713 H 0.37859 0.89505 0.84504
 H714 H 0.47751 0.87583 0.84526
 H715 H 0.41150 0.75113 0.93409
 H716 H 0.32324 0.78137 0.95249
 H717 H 0.35486 0.85436 0.88142
 H718 H 0.34389 0.82784 0.91802
 C719 C 0.60303 0.44679 0.88703
 C720 C 0.62563 0.48332 0.87466
 C721 C 0.61097 0.49230 0.85365
 C722 C 0.57374 0.46532 0.84498
 C723 C 0.55167 0.42973 0.85829
 N724 N 0.56667 0.42150 0.87860
 C725 C 0.61733 0.43445 0.90884
 N726 N 0.59117 0.40404 0.92325
 C727 C 0.60185 0.38969 0.94295
 C728 C 0.64115 0.40589 0.94908
 C729 C 0.66864 0.43736 0.93452
 C730 C 0.65695 0.45160 0.91443
 H731 H 0.62912 0.52004 0.84394
 H732 H 0.52251 0.40843 0.85261
 H733 H 0.57962 0.36530 0.95357
 H734 H 0.69931 0.45053 0.93836
 H735 H 0.65423 0.50497 0.88097
 H736 H 0.67900 0.47491 0.90316
 C737 C 0.85080 0.42855 0.88042
 C738 C 0.86033 0.46439 0.86792
 C739 C 0.88157 0.47363 0.84608
 C740 C 0.89325 0.44728 0.83653
 C741 C 0.88313 0.41181 0.84960
 N742 N 0.86236 0.40342 0.87079
 C743 C 0.82715 0.41629 0.90317
 N744 N 0.80721 0.37668 0.90913
 C745 C 0.78421 0.36278 0.92939
 C746 C 0.78024 0.38945 0.94519
 C747 C 0.80121 0.43054 0.93970
 C748 C 0.82471 0.44407 0.91881
 H749 H 0.88804 0.50091 0.83635
 H750 H 0.89189 0.39083 0.84309
 H751 H 0.76880 0.33088 0.93295
 H752 H 0.79926 0.45226 0.95143
 H753 H 0.85069 0.48464 0.87441
 H754 H 0.84092 0.47591 0.91524
 C755 C 0.57819 0.16486 0.88207
 C756 C 0.54028 0.14958 0.87304
 C757 C 0.52876 0.12552 0.85208
 C758 C 0.55462 0.11617 0.84012
 C759 C 0.59183 0.13095 0.85016
 N760 N 0.60254 0.15465 0.87051
 C761 C 0.59248 0.19174 0.90377
 N762 N 0.62358 0.19511 0.91650
 C763 C 0.63873 0.21965 0.93632
 C764 C 0.62257 0.24302 0.94437
 C765 C 0.59073 0.24029 0.93136
 C766 C 0.57573 0.21491 0.91110
 H767 H 0.49946 0.11390 0.84534
 H768 H 0.61272 0.12452 0.84151
 H769 H 0.66345 0.22096 0.94567
 H770 H 0.57754 0.25803 0.93667
 H771 H 0.51942 0.15558 0.88209
 H772 H 0.55188 0.21438 0.90110
   
