data_POSCAR
  _audit_creation_date              2014-09-24
  _audit_creation_method            'ToBaCCo'
  _symmetry_space_group_name_H-M    'P1'
  _symmetry_Int_Tables_number       1
  _symmetry_cell_setting            triclinic
  loop_
  _symmetry_equiv_pos_as_xyz
 x,y,z
_cell_length_a 46.9485
_cell_length_b 47.7894
_cell_length_c 8.5494
_cell_angle_alpha 89.543200
_cell_angle_beta 89.759400
_cell_angle_gamma 90.007100
loop_
  _atom_site_label
  _atom_site_type_symbol
  _atom_site_fract_x
  _atom_site_fract_y
  _atom_site_fract_z
C1 C 0.33324 0.26315 0.40260
 C2 C 0.33334 0.23443 0.40132
 C3 C 0.30794 0.22622 0.33300
 N4 N 0.29245 0.24895 0.29244
 C5 C 0.30779 0.27152 0.33536
 C6 C 0.30031 0.19839 0.29796
 C7 C 0.27305 0.19062 0.24357
 C8 C 0.26637 0.16493 0.17846
 C9 C 0.23750 0.16497 0.15217
 C10 C 0.22725 0.19068 0.20175
 N11 N 0.24905 0.20614 0.25755
 C12 C 0.19818 0.19849 0.20515
 C13 C 0.18885 0.22636 0.22352
 C14 C 0.16074 0.23462 0.24346
 C15 C 0.16072 0.26335 0.24399
 C16 C 0.18881 0.27167 0.22479
 N17 N 0.20590 0.24906 0.21139
 C18 C 0.19807 0.29962 0.20866
 C19 C 0.22705 0.30754 0.20759
 C20 C 0.23718 0.33363 0.16185
 C21 C 0.26604 0.33359 0.18885
 C22 C 0.27276 0.30749 0.25039
 N23 N 0.24885 0.29178 0.26205
 C24 C 0.30002 0.29948 0.30358
 H25 H 0.35004 0.27633 0.44707
 H26 H 0.35024 0.22114 0.44482
 H27 H 0.24697 0.27278 0.32111
 H28 H 0.28078 0.14785 0.15327
 H29 H 0.22538 0.14792 0.10322
 H30 H 0.14219 0.22133 0.25565
 H31 H 0.14216 0.27657 0.25651
 H32 H 0.28040 0.35088 0.16629
 H33 H 0.24712 0.22472 0.31887
 H34 H 0.22503 0.35097 0.11498
 C35 C 0.83886 0.23525 0.23801
 C36 C 0.83889 0.26398 0.23782
 C37 C 0.81076 0.27230 0.22193
 N38 N 0.79364 0.24969 0.21137
 C39 C 0.81071 0.22701 0.22188
 C40 C 0.80147 0.30022 0.20540
 C41 C 0.77249 0.30813 0.20537
 C42 C 0.76237 0.33417 0.15933
 C43 C 0.73349 0.33413 0.18702
 C44 C 0.72676 0.30805 0.24927
 N45 N 0.75066 0.29240 0.26074
 C46 C 0.69949 0.30005 0.30339
 C47 C 0.69174 0.27213 0.33660
 C48 C 0.66628 0.26381 0.40529
 C49 C 0.66622 0.23509 0.40539
 C50 C 0.69168 0.22683 0.33681
 N51 N 0.70713 0.24951 0.29443
 C52 C 0.69940 0.19894 0.30364
 C53 C 0.72667 0.19114 0.24815
 C54 C 0.73345 0.16531 0.18470
 C55 C 0.76234 0.16535 0.15758
 C56 C 0.77243 0.19124 0.20424
 N57 N 0.75058 0.20676 0.25984
 C58 C 0.80139 0.19917 0.20486
 H59 H 0.85743 0.22197 0.24789
 H60 H 0.85749 0.27720 0.24708
 H61 H 0.75245 0.22547 0.32000
 H62 H 0.77453 0.35149 0.11182
 H63 H 0.71913 0.35140 0.16447
 H64 H 0.64949 0.27704 0.45012
 H65 H 0.64934 0.22183 0.45022
 H66 H 0.77456 0.14815 0.11045
 H67 H 0.75250 0.27345 0.32024
 H68 H 0.71911 0.14813 0.16126
 C69 C 0.83498 0.73484 0.88556
 C70 C 0.83501 0.76355 0.88586
 C71 C 0.80910 0.77196 0.82406
 N72 N 0.79332 0.74939 0.78583
 C73 C 0.80895 0.72664 0.82448
 C74 C 0.80120 0.79995 0.79372
 C75 C 0.77368 0.80804 0.74480
 C76 C 0.76678 0.83416 0.68415
 C77 C 0.73780 0.83427 0.66100
 C78 C 0.72776 0.80822 0.70801
 N79 N 0.74976 0.79243 0.75991
 C80 C 0.69874 0.80037 0.71162
 C81 C 0.68933 0.77250 0.73024
 C82 C 0.66116 0.76436 0.74915
 C83 C 0.66100 0.73563 0.75066
 C84 C 0.68909 0.72721 0.73314
 N85 N 0.70629 0.74976 0.71978
 C86 C 0.69817 0.69923 0.71771
 C87 C 0.72710 0.69104 0.71376
 C88 C 0.73675 0.66480 0.67009
 C89 C 0.76576 0.66462 0.69183
 C90 C 0.77309 0.69081 0.74837
 N91 N 0.74937 0.70671 0.76164
 C92 C 0.80077 0.69870 0.79593
 H93 H 0.85220 0.72152 0.92503
 H94 H 0.85221 0.77670 0.92586
 H95 H 0.74796 0.72584 0.81778
 H96 H 0.78110 0.85138 0.65928
 H97 H 0.72552 0.85165 0.61557
 H98 H 0.64265 0.77770 0.75931
 H99 H 0.64233 0.72248 0.76168
 H100 H 0.77978 0.64705 0.67064
 H101 H 0.74809 0.77346 0.81949
 H102 H 0.72419 0.64748 0.62788
 C103 C 0.33830 0.76447 0.73657
 C104 C 0.33832 0.73573 0.73644
 C105 C 0.31017 0.72749 0.72020
 N106 N 0.29307 0.75013 0.70939
 C107 C 0.31016 0.77276 0.72013
 C108 C 0.30083 0.69966 0.70361
 C109 C 0.27185 0.69183 0.70425
 C110 C 0.26159 0.66603 0.65710
 C111 C 0.23278 0.66601 0.68669
 C112 C 0.22620 0.69181 0.75127
 N113 N 0.25017 0.70735 0.76191
 C114 C 0.19908 0.69960 0.80871
 C115 C 0.19147 0.72749 0.84282
 C116 C 0.16630 0.73570 0.91461
 C117 C 0.16628 0.76442 0.91424
 C118 C 0.19144 0.77281 0.84220
 N119 N 0.20669 0.75019 0.79824
 C120 C 0.19905 0.80075 0.80738
 C121 C 0.22620 0.80863 0.75021
 C122 C 0.23289 0.83458 0.68571
 C123 C 0.26171 0.83452 0.65647
 C124 C 0.27186 0.80855 0.70350
 N125 N 0.25012 0.79294 0.76089
 C126 C 0.30083 0.80063 0.70316
 H127 H 0.35688 0.77772 0.74658
 H128 H 0.35690 0.72245 0.74621
 H129 H 0.25209 0.77409 0.82130
 H130 H 0.27363 0.64891 0.60768
 H131 H 0.21834 0.64888 0.66406
 H132 H 0.14963 0.72241 0.96151
 H133 H 0.14960 0.77761 0.96085
 H134 H 0.27382 0.85174 0.60734
 H135 H 0.25221 0.72600 0.82252
 H136 H 0.21853 0.85185 0.66316
 O137 O 1.02856 0.03123 -0.08985
 O138 O 0.97336 -0.02176 -0.16346
 O139 O 0.97320 0.03119 -0.09274
 O140 O 1.02883 -0.02171 -0.15997
 O141 O 1.02817 -0.03231 0.09217
 O142 O 0.97255 0.02055 0.15934
 O143 O 0.97276 -0.03239 0.08862
 O144 O 1.02798 0.02063 0.16234
 Cu145 Cu 1.00105 0.00586 -0.15140
 Cu146 Cu 1.00030 -0.00703 0.15051
 C147 C 1.03754 0.03495 0.04801
 C148 C 0.96376 -0.03606 -0.04928
 C149 C 0.96354 0.03486 0.04420
 C150 C 1.03787 -0.03597 -0.04469
 O151 O 0.47216 0.47806 0.33642
 O152 O 0.52729 0.53122 0.40971
 O153 O 0.52764 0.47825 0.33848
 O154 O 0.47193 0.53101 0.40644
 O155 O 0.47133 0.52039 0.65858
 O156 O 0.52704 0.46764 0.59062
 O157 O 0.52672 0.52059 0.66185
 O158 O 0.47164 0.46748 0.58857
 Cu159 Cu 0.49983 0.50576 0.34789
 Cu160 Cu 0.49914 0.49287 0.64980
 C161 C 0.46261 0.46377 0.45081
 C162 C 0.53623 0.53498 0.54772
 C163 C 0.53669 0.46397 0.45365
 C164 C 0.46227 0.53467 0.54339
 O165 O -0.02762 0.53286 0.09077
 O166 O 0.02743 0.47963 0.16668
 O167 O 0.02774 0.53260 0.09473
 O168 O -0.02808 0.47981 0.16293
 O169 O -0.02740 0.46960 -0.08875
 O170 O 0.02844 0.52244 -0.15714
 O171 O 0.02807 0.46946 -0.08507
 O172 O -0.02705 0.52269 -0.16102
 Cu173 Cu -0.00022 0.50729 0.15347
 Cu174 Cu 0.00058 0.49494 -0.14784
 C175 C -0.03659 0.53683 -0.04728
 C176 C 0.03706 0.46554 0.05307
 C177 C 0.03747 0.53649 -0.04230
 C178 C -0.03713 0.46574 0.04831
 O179 O 0.47202 1.03259 0.58075
 O180 O 0.52716 0.97958 0.65896
 O181 O 0.52729 1.03260 0.58624
 O182 O 0.47165 0.97961 0.65374
 O183 O 0.47264 0.96931 0.40214
 O184 O 0.52830 1.02230 0.33461
 O185 O 0.52808 0.96927 0.40739
 O186 O 0.47291 1.02229 0.32912
 Cu187 Cu 0.49943 1.00718 0.64478
 Cu188 Cu 0.50059 0.99467 0.34361
 C189 C 0.46320 1.03645 0.44236
 C190 C 0.53691 0.96543 0.54584
 C191 C 0.53712 1.03646 0.44953
 C192 C 0.46275 0.96549 0.53885
 C193 C 1.09773 0.09560 0.11313
 C194 C 1.09080 0.12375 0.07729
 C195 C 1.11166 0.14506 0.09425
 C196 C 1.13925 0.13813 0.14857
 C197 C 1.14621 0.10995 0.18392
 C198 C 1.12540 0.08861 0.16578
 C199 C 1.13286 0.06058 0.20124
 C200 C 1.16013 0.05380 0.25280
 C201 C 1.18049 0.07465 0.27043
 C202 C 1.17371 0.10244 0.23714
 C203 C 1.10429 0.17301 0.05614
 C204 C 1.07703 0.17976 0.00405
 C205 C 1.05661 0.15894 -0.01196
 C206 C 1.06330 0.13123 0.02408
 C207 C 1.16043 0.15996 0.16857
 C208 C 1.17807 0.17802 0.18556
 C209 C 1.07651 0.07381 0.09323
 C210 C 1.05878 0.05592 0.07445
 H211 H 1.11773 0.04365 0.18962
 H212 H 1.16548 0.03225 0.27928
 H213 H 1.20166 0.06926 0.31039
 H214 H 1.19024 0.11791 0.25340
 H215 H 1.11949 0.18989 0.06566
 H216 H 1.07173 0.20127 -0.02378
 H217 H 1.03548 0.16425 -0.05278
 H218 H 1.04666 0.11579 0.01012
 C219 C 0.59617 0.59571 0.61844
 C220 C 0.58922 0.62401 0.58621
 C221 C 0.61004 0.64527 0.60623
 C222 C 0.63764 0.63815 0.65961
 C223 C 0.64459 0.60984 0.69165
 C224 C 0.62381 0.58856 0.67085
 C225 C 0.63128 0.56041 0.70324
 C226 C 0.65854 0.55345 0.75437
 C227 C 0.67887 0.57426 0.77447
 C228 C 0.67207 0.60216 0.74413
 C229 C 0.60264 0.67336 0.57180
 C230 C 0.57540 0.68029 0.52028
 C231 C 0.55501 0.65952 0.50143
 C232 C 0.56173 0.63167 0.53363
 C233 C 0.65888 0.65989 0.68090
 C234 C 0.67666 0.67782 0.69806
 C235 C 0.57499 0.57397 0.59550
 C236 C 0.55734 0.55605 0.57488
 H237 H 0.61619 0.54350 0.68920
 H238 H 0.66393 0.53180 0.77824
 H239 H 0.70003 0.56877 0.81385
 H240 H 0.68860 0.61756 0.76195
 H241 H 0.61783 0.69021 0.58348
 H242 H 0.57009 0.70189 0.49479
 H243 H 0.53388 0.66498 0.46110
 H244 H 0.54514 0.61627 0.51709
 C245 C -0.09751 0.40505 0.11100
 C246 C -0.12540 0.41174 0.16187
 C247 C -0.14607 0.39019 0.17933
 C248 C -0.13873 0.36212 0.14534
 C249 C -0.11089 0.35547 0.09328
 C250 C -0.09019 0.37700 0.07658
 C251 C -0.06249 0.36987 0.02442
 C252 C -0.05541 0.34226 -0.00967
 C253 C -0.07569 0.32123 0.00572
 C254 C -0.10316 0.32764 0.05648
 C255 C -0.17383 0.39736 0.23021
 C256 C -0.18104 0.42503 0.26192
 C257 C -0.16084 0.44611 0.24476
 C258 C -0.13330 0.43966 0.19527
 C259 C -0.15975 0.34009 0.16517
 C260 C -0.17730 0.32189 0.18287
 C261 C -0.07641 0.42699 0.09157
 C262 C -0.05861 0.44488 0.07335
 H263 H -0.04604 0.38551 0.00855
 H264 H -0.03413 0.33721 -0.04949
 H265 H -0.07014 0.29986 -0.02259
 H266 H -0.11823 0.31059 0.06591
 H267 H -0.19027 0.38172 0.24554
 H268 H -0.20246 0.43015 0.29936
 H269 H -0.16660 0.46758 0.26893
 H270 H -0.11837 0.45681 0.18264
 C271 C 0.40212 0.90501 0.60134
 C272 C 0.37419 0.91194 0.65049
 C273 C 0.35342 0.89052 0.66963
 C274 C 0.36069 0.86232 0.63873
 C275 C 0.38855 0.85544 0.58779
 C276 C 0.40936 0.87684 0.56985
 C277 C 0.43714 0.86944 0.52013
 C278 C 0.44415 0.84171 0.48881
 C279 C 0.42376 0.82081 0.50558
 C280 C 0.39624 0.82748 0.55428
 C281 C 0.32567 0.89794 0.71955
 C282 C 0.31856 0.92574 0.74835
 C283 C 0.33885 0.94669 0.72951
 C284 C 0.36640 0.94000 0.68127
 C285 C 0.33960 0.84040 0.66052
 C286 C 0.32204 0.82226 0.67944
 C287 C 0.42337 0.92681 0.58138
 C288 C 0.44125 0.94464 0.56336
 H289 H 0.45372 0.88496 0.50479
 H290 H 0.46549 0.83645 0.45048
 H291 H 0.42930 0.79930 0.48071
 H292 H 0.38108 0.81052 0.56453
 H293 H 0.30918 0.88239 0.73634
 H294 H 0.29719 0.93103 0.78567
 H295 H 0.33321 0.96826 0.75212
 H296 H 0.38145 0.95703 0.66813
 C297 C -0.09715 0.59722 -0.11454
 C298 C -0.10076 0.61804 0.00091
 C299 C -0.12220 0.63878 -0.01743
 C300 C -0.13961 0.63882 -0.15214
 C301 C -0.13569 0.61830 -0.26896
 C302 C -0.11451 0.59732 -0.24956
 C303 C -0.11120 0.57682 -0.36673
 C304 C -0.12814 0.57720 -0.50018
 C305 C -0.14870 0.59783 -0.51994
 C306 C -0.15256 0.61818 -0.40586
 C307 C -0.12565 0.65916 0.10037
 C308 C -0.10827 0.65923 0.23212
 C309 C -0.08710 0.63913 0.24935
 C310 C -0.08333 0.61869 0.13558
 C311 C -0.16123 0.66023 -0.17186
 C312 C -0.17907 0.67816 -0.18763
 C313 C -0.07571 0.57563 -0.09347
 C314 C -0.05788 0.55780 -0.07416
 H315 H -0.09553 0.56031 -0.35641
 H316 H -0.12528 0.56139 -0.58886
 H317 H -0.16185 0.59799 -0.62367
 H318 H -0.16892 0.63373 -0.42563
 H319 H -0.14187 0.67518 0.09261
 H320 H -0.11122 0.67501 0.32106
 H321 H -0.07347 0.63943 0.35099
 H322 H -0.06657 0.60350 0.15404
 C323 C 0.40243 1.09648 0.37270
 C324 C 0.41065 1.12481 0.35353
 C325 C 0.38952 1.14590 0.33665
 C326 C 0.36030 1.13855 0.34001
 C327 C 0.35208 1.11023 0.35898
 C328 C 0.37321 1.08912 0.37523
 C329 C 0.36446 1.06095 0.39428
 C330 C 0.33567 1.05385 0.39687
 C331 C 0.31501 1.07450 0.38143
 C332 C 0.32300 1.10240 0.36269
 C333 C 0.39825 1.17405 0.31692
 C334 C 0.42702 1.18122 0.31534
 C335 C 0.44769 1.16061 0.33188
 C336 C 0.43973 1.13269 0.35076
 C337 C 0.33867 1.16012 0.32506
 C338 C 0.32070 1.17800 0.31260
 C339 C 0.42398 1.07503 0.39399
 C340 C 0.44189 1.05732 0.41430
 H341 H 0.37973 1.04414 0.40744
 H342 H 0.32937 1.03220 0.41135
 H343 H 0.29267 1.06889 0.38397
 H344 H 0.30616 1.11773 0.35216
 H345 H 0.38300 1.19080 0.30266
 H346 H 0.43328 1.20288 0.30060
 H347 H 0.47002 1.16627 0.32985
 H348 H 0.45659 1.11740 0.36298
 C349 C 1.09847 -0.09629 -0.10775
 C350 C 1.08980 -0.12440 -0.12794
 C351 C 1.11059 -0.14577 -0.14523
 C352 C 1.13993 -0.13891 -0.14180
 C353 C 1.14859 -0.11081 -0.12106
 C354 C 1.12780 -0.08942 -0.10422
 C355 C 1.13697 -0.06147 -0.08429
 C356 C 1.16586 -0.05484 -0.08088
 C357 C 1.18620 -0.07577 -0.09662
 C358 C 1.17779 -0.10347 -0.11655
 C359 C 1.10141 -0.17371 -0.16552
 C360 C 1.07252 -0.18037 -0.16786
 C361 C 1.05218 -0.15947 -0.15136
 C362 C 1.06059 -0.13177 -0.13158
 C363 C 1.16117 -0.16073 -0.15919
 C364 C 1.17887 -0.17880 -0.17437
 C365 C 1.07719 -0.07458 -0.08748
 C366 C 1.05932 -0.05681 -0.06902
 H367 H 1.12194 -0.04447 -0.07085
 H368 H 1.17250 -0.03335 -0.06566
 H369 H 1.20863 -0.07052 -0.09369
 H370 H 1.19440 -0.11903 -0.12737
 H371 H 1.11640 -0.19069 -0.17913
 H372 H 1.06590 -0.20187 -0.18302
 H373 H 1.02976 -0.16473 -0.15376
 H374 H 1.04397 -0.11626 -0.11874
 C375 C 0.59730 0.40370 0.38896
 C376 C 0.58877 0.37554 0.36918
 C377 C 0.60967 0.35428 0.35106
 C378 C 0.63896 0.36132 0.35293
 C379 C 0.64749 0.38947 0.37365
 C380 C 0.62659 0.41073 0.39123
 C381 C 0.63560 0.43875 0.41024
 C382 C 0.66446 0.44555 0.41283
 C383 C 0.68492 0.42475 0.39650
 C384 C 0.67666 0.39698 0.37720
 C385 C 0.60062 0.32628 0.33144
 C386 C 0.57176 0.31946 0.32992
 C387 C 0.55133 0.34026 0.34726
 C388 C 0.55961 0.36802 0.36648
 C389 C 0.66031 0.33961 0.33568
 C390 C 0.67808 0.32160 0.32135
 C391 C 0.57594 0.42531 0.41008
 C392 C 0.55809 0.44309 0.42905
 H393 H 0.62049 0.45568 0.42296
 H394 H 0.67096 0.46711 0.42690
 H395 H 0.70731 0.43016 0.39758
 H396 H 0.69335 0.38153 0.36573
 H397 H 0.61570 0.30937 0.31747
 H398 H 0.56523 0.29795 0.31403
 H399 H 0.52894 0.33490 0.34515
 H400 H 0.54293 0.38346 0.37906
 C401 C 0.90326 -0.09622 -0.11943
 C402 C 0.87394 -0.08924 -0.11734
 C403 C 0.85309 -0.11050 -0.13655
 C404 C 0.86170 -0.13861 -0.15821
 C405 C 0.89103 -0.14555 -0.16131
 C406 C 0.91186 -0.12432 -0.14088
 C407 C 0.94103 -0.13182 -0.14265
 C408 C 0.94940 -0.15949 -0.16436
 C409 C 0.92905 -0.18023 -0.18507
 C410 C 0.90018 -0.17344 -0.18446
 C411 C 0.82390 -0.10300 -0.13346
 C412 C 0.81559 -0.07529 -0.11202
 C413 C 0.83600 -0.05451 -0.09386
 C414 C 0.86486 -0.06129 -0.09615
 C415 C 0.84040 -0.16040 -0.17582
 C416 C 0.82264 -0.17845 -0.18989
 C417 C 0.92457 -0.07463 -0.09659
 C418 C 0.94241 -0.05691 -0.07603
 H419 H 0.95767 -0.11645 -0.12685
 H420 H 0.97180 -0.16485 -0.16503
 H421 H 0.93566 -0.20170 -0.20206
 H422 H 0.88518 -0.19027 -0.20181
 H423 H 0.80722 -0.11842 -0.14636
 H424 H 0.79319 -0.06990 -0.10955
 H425 H 0.82946 -0.03302 -0.07729
 H426 H 0.87993 -0.04441 -0.08061
 C427 C 0.40216 0.40338 0.38528
 C428 C 0.37287 0.41045 0.38498
 C429 C 0.35198 0.38913 0.36892
 C430 C 0.36053 0.36087 0.35262
 C431 C 0.38983 0.35381 0.35320
 C432 C 0.41069 0.37513 0.36989
 C433 C 0.43985 0.36756 0.37039
 C434 C 0.44817 0.33973 0.35511
 C435 C 0.42778 0.31888 0.33903
 C436 C 0.39893 0.32573 0.33745
 C437 C 0.32282 0.39670 0.36986
 C438 C 0.31456 0.42456 0.38516
 C439 C 0.33500 0.44540 0.40001
 C440 C 0.36384 0.43854 0.40047
 C441 C 0.33919 0.33909 0.33600
 C442 C 0.32142 0.32107 0.32171
 C443 C 0.42349 0.42505 0.40558
 C444 C 0.44130 0.44286 0.42471
 H445 H 0.45650 0.38302 0.38276
 H446 H 0.47056 0.33434 0.35538
 H447 H 0.43435 0.29729 0.32696
 H448 H 0.38390 0.30880 0.32416
 H449 H 0.30613 0.38123 0.35989
 H450 H 0.29217 0.43001 0.38522
 H451 H 0.32849 0.46702 0.41144
 H452 H 0.37894 0.45548 0.41344
 C453 C 0.09816 0.59683 -0.10563
 C454 C 0.08964 0.62511 -0.12204
 C455 C 0.11052 0.64642 -0.13974
 C456 C 0.13980 0.63934 -0.13986
 C457 C 0.14833 0.61105 -0.12328
 C458 C 0.12743 0.58972 -0.10635
 C459 C 0.13643 0.56158 -0.09026
 C460 C 0.16527 0.55471 -0.09139
 C461 C 0.18573 0.57558 -0.10740
 C462 C 0.17748 0.60347 -0.12307
 C463 C 0.10148 0.67453 -0.15713
 C464 C 0.07264 0.68141 -0.15564
 C465 C 0.05222 0.66057 -0.13810
 C466 C 0.06049 0.63271 -0.12148
 C467 C 0.16112 0.66111 -0.15723
 C468 C 0.17888 0.67917 -0.17258
 C469 C 0.07681 0.57515 -0.08549
 C470 C 0.05892 0.55735 -0.06699
 H471 H 0.12132 0.54462 -0.07620
 H472 H 0.17177 0.53308 -0.07900
 H473 H 0.20811 0.57015 -0.10744
 H474 H 0.19419 0.61897 -0.13390
 H475 H 0.11654 0.69145 -0.17178
 H476 H 0.06612 0.70304 -0.16844
 H477 H 0.02984 0.66600 -0.13722
 H478 H 0.04382 0.61725 -0.10793
 C479 C 0.59789 1.09666 0.38582
 C480 C 0.58954 1.12485 0.36255
 C481 C 0.61058 1.14601 0.34480
 C482 C 0.63983 1.13887 0.35147
 C483 C 0.64818 1.11070 0.37534
 C484 C 0.62713 1.08951 0.39247
 C485 C 0.63595 1.06148 0.41628
 C486 C 0.66476 1.05458 0.42308
 C487 C 0.68535 1.07531 0.40691
 C488 C 0.67729 1.10308 0.38305
 C489 C 0.60174 1.17403 0.32095
 C490 C 0.57293 1.18099 0.31630
 C491 C 0.55234 1.16029 0.33358
 C492 C 0.56042 1.13250 0.35641
 C493 C 0.66130 1.16053 0.33523
 C494 C 0.67915 1.17851 0.32100
 C495 C 0.57640 1.07514 0.40625
 C496 C 0.55850 1.05738 0.42489
 H497 H 0.62072 1.04462 0.42998
 H498 H 0.67113 1.03303 0.44086
 H499 H 0.70771 1.06985 0.41235
 H500 H 0.69410 1.11846 0.37175
 H501 H 0.61694 1.19084 0.30605
 H502 H 0.56656 1.20255 0.29834
 H503 H 0.52999 1.16576 0.32874
 H504 H 0.54361 1.11715 0.36921
 C505 C 0.09710 0.40466 0.11942
 C506 C 0.12504 0.41134 0.16862
 C507 C 0.14566 0.38975 0.18587
 C508 C 0.13827 0.36165 0.15329
 C509 C 0.11037 0.35502 0.10336
 C510 C 0.08971 0.37656 0.08689
 C511 C 0.06192 0.36938 0.03723
 C512 C 0.05478 0.34174 0.00462
 C513 C 0.07501 0.32070 0.02030
 C514 C 0.10253 0.32715 0.06877
 C515 C 0.17343 0.39692 0.23548
 C516 C 0.18067 0.42460 0.26648
 C517 C 0.16056 0.44572 0.24891
 C518 C 0.13300 0.43928 0.20088
 C519 C 0.15930 0.33958 0.17204
 C520 C 0.17683 0.32133 0.18835
 C521 C 0.07607 0.42665 0.09941
 C522 C 0.05836 0.44460 0.08014
 H523 H 0.04544 0.38501 0.02313
 H524 H 0.03345 0.33663 -0.03341
 H525 H 0.06938 0.29926 -0.00550
 H526 H 0.11755 0.31007 0.07830
 H527 H 0.18980 0.38125 0.25078
 H528 H 0.20204 0.42969 0.30411
 H529 H 0.16635 0.46721 0.27226
 H530 H 0.11808 0.45643 0.18933
 C531 C 0.59707 0.90476 0.61750
 C532 C 0.62482 0.91169 0.66865
 C533 C 0.64555 0.89027 0.68894
 C534 C 0.63853 0.86209 0.65615
 C535 C 0.61082 0.85521 0.60396
 C536 C 0.58999 0.87657 0.58546
 C537 C 0.56240 0.86913 0.53396
 C538 C 0.55557 0.84141 0.50154
 C539 C 0.57599 0.82056 0.51855
 C540 C 0.60334 0.82728 0.56859
 C541 C 0.67312 0.89772 0.74037
 C542 C 0.68008 0.92552 0.76997
 C543 C 0.65981 0.94645 0.75041
 C544 C 0.63249 0.93975 0.69974
 C545 C 0.65980 0.84022 0.67516
 C546 C 0.67747 0.82209 0.69140
 C547 C 0.57591 0.92660 0.59516
 C548 C 0.55819 0.94448 0.57424
 H549 H 0.54583 0.88461 0.51799
 H550 H 0.53437 0.83610 0.46226
 H551 H 0.57062 0.79907 0.49239
 H552 H 0.61853 0.81037 0.57873
 H553 H 0.68957 0.88219 0.75817
 H554 H 0.70134 0.93084 0.80801
 H555 H 0.66531 0.96799 0.77465
 H556 H 0.61750 0.95678 0.68502
 C557 C 0.90314 0.09536 0.10828
 C558 C 0.91027 0.12362 0.07607
 C559 C 0.88940 0.14491 0.09385
 C560 C 0.86157 0.13783 0.14499
 C561 C 0.85444 0.10957 0.17716
 C562 C 0.87527 0.08826 0.15838
 C563 C 0.86760 0.06014 0.19033
 C564 C 0.84013 0.05326 0.23971
 C565 C 0.81972 0.07408 0.25704
 C566 C 0.82671 0.10195 0.22717
 C567 C 0.89696 0.17296 0.05902
 C568 C 0.92443 0.17981 0.00954
 C569 C 0.94492 0.15903 -0.00605
 C570 C 0.93799 0.13120 0.02556
 C571 C 0.84033 0.15959 0.16496
 C572 C 0.82265 0.17760 0.18250
 C573 C 0.92440 0.07363 0.08785
 C574 C 0.94219 0.05579 0.06909
 H575 H 0.88267 0.04319 0.17662
 H576 H 0.83462 0.03166 0.26383
 H577 H 0.79831 0.06861 0.29353
 H578 H 0.81015 0.11740 0.24330
 H579 H 0.88174 0.18984 0.06883
 H580 H 0.92983 0.20136 -0.01732
 H581 H 0.96625 0.16444 -0.04407
 H582 H 0.95456 0.11575 0.00915
 C583 C 0.40190 0.59525 0.60537
 C584 C 0.40923 0.62347 0.57308
 C585 C 0.38848 0.64488 0.59064
 C586 C 0.36060 0.63800 0.64173
 C587 C 0.35326 0.60977 0.67347
 C588 C 0.37394 0.58832 0.65483
 C589 C 0.36607 0.56024 0.68686
 C590 C 0.33851 0.55355 0.73551
 C591 C 0.31828 0.57453 0.75345
 C592 C 0.32548 0.60235 0.72360
 C593 C 0.39624 0.67289 0.55643
 C594 C 0.42378 0.67959 0.50754
 C595 C 0.44412 0.65868 0.49125
 C596 C 0.43704 0.63090 0.52328
 C597 C 0.33955 0.65993 0.66256
 C598 C 0.32200 0.67805 0.68073
 C599 C 0.42307 0.57341 0.58607
 C600 C 0.44087 0.55555 0.56797
 H601 H 0.38107 0.54320 0.67445
 H602 H 0.33281 0.53197 0.75939
 H603 H 0.29690 0.56926 0.79117
 H604 H 0.30906 0.61793 0.74015
 H605 H 0.38113 0.68986 0.56653
 H606 H 0.42935 0.70115 0.48248
 H607 H 0.46549 0.66400 0.45318
 H608 H 0.45360 0.61537 0.50866
   
