data_POSCAR
  _audit_creation_date              2014-09-24
  _audit_creation_method            'ToBaCCo'
  _symmetry_space_group_name_H-M    'P1'
  _symmetry_Int_Tables_number       1
  _symmetry_cell_setting            triclinic
  loop_
  _symmetry_equiv_pos_as_xyz
 x,y,z
_cell_length_a 26.3590
_cell_length_b 26.3655
_cell_length_c 26.3420
_cell_angle_alpha 89.933200
_cell_angle_beta 90.131400
_cell_angle_gamma 89.991800
loop_
  _atom_site_label
  _atom_site_type_symbol
  _atom_site_fract_x
  _atom_site_fract_y
  _atom_site_fract_z
O1 O -0.12947 0.06912 0.00211
 O2 O 0.13142 0.06811 -0.00117
 O3 O -0.00080 0.13038 0.06908
 O4 O 0.00287 0.13083 -0.06885
 O5 O 0.00235 0.06874 -0.13021
 O6 O -0.00179 0.06796 0.13049
 O7 O 0.06952 0.12990 -0.00193
 O8 O -0.06774 0.13105 0.00192
 Zr9 Zr 0.00072 0.08934 0.00011
 O10 O 0.04659 0.04596 -0.04579
 O11 O -0.04533 0.04593 0.04589
 C12 C -0.11464 0.11603 0.00333
 C13 C 0.11646 0.11506 -0.00267
 C14 C -0.00241 0.11502 0.11595
 C15 C 0.00356 0.11586 -0.11591
 H16 H 0.06809 0.06686 0.06787
 O17 O 0.04631 0.04540 0.04610
 H18 H -0.06685 0.06815 -0.06766
 O19 O -0.04523 0.04634 -0.04602
 O20 O 0.13037 -0.06953 0.00206
 O21 O -0.13047 -0.06757 -0.00223
 O22 O 0.06895 -0.00269 0.13095
 O23 O 0.06894 0.00253 -0.13010
 O24 O -0.06782 -0.00093 -0.13056
 O25 O -0.06864 0.00164 0.13040
 O26 O 0.00087 -0.13061 0.06818
 O27 O -0.00209 -0.12990 -0.06858
 O28 O 0.00178 -0.06964 0.13063
 O29 O -0.00160 -0.06834 -0.13074
 O30 O 0.13045 -0.00333 0.06884
 O31 O -0.12993 0.00219 0.06783
 O32 O -0.13008 -0.00105 -0.06948
 O33 O 0.13113 0.00137 -0.06846
 O34 O 0.06772 -0.13055 0.00176
 O35 O -0.06955 -0.13008 -0.00247
 Zr36 Zr 0.08961 -0.00044 0.00016
 Zr37 Zr -0.08871 0.00050 -0.00051
 Zr38 Zr 0.00025 -0.00054 0.08941
 Zr39 Zr 0.00045 0.00021 -0.08908
 Zr40 Zr -0.00049 -0.08900 -0.00013
 O41 O -0.04603 -0.04567 -0.04645
 O42 O 0.04599 -0.04641 0.04599
 C43 C 0.11485 -0.11630 0.00281
 C44 C -0.11648 -0.11480 -0.00324
 C45 C 0.11579 -0.00435 0.11582
 C46 C 0.11596 0.00319 -0.11539
 C47 C -0.11496 -0.00180 -0.11644
 C48 C -0.11549 0.00281 0.11495
 C49 C 0.00213 -0.11659 0.11543
 C50 C -0.00265 -0.11524 -0.11559
 H51 H -0.06774 -0.06739 0.06719
 O52 O -0.04596 -0.04571 0.04569
 H53 H 0.06751 -0.06753 -0.06747
 O54 O 0.04593 -0.04594 -0.04574
 O55 O 0.37052 0.56852 0.00380
 O56 O 0.63145 0.57006 -0.00159
 O57 O 0.49909 0.63111 0.07030
 O58 O 0.50189 0.63132 -0.06770
 O59 O 0.50162 0.56911 -0.12915
 O60 O 0.50022 0.56871 0.13152
 O61 O 0.56900 0.63134 -0.00166
 O62 O 0.43164 0.63104 0.00332
 Zr63 Zr 0.50056 0.59004 0.00118
 O64 O 0.54635 0.54695 -0.04518
 O65 O 0.45520 0.54626 0.04720
 C66 C 0.38488 0.61557 0.00488
 C67 C 0.61607 0.61689 -0.00295
 C68 C 0.49883 0.61590 0.11733
 C69 C 0.50251 0.61608 -0.11459
 H70 H 0.56881 0.56833 0.06816
 O71 O 0.54705 0.54662 0.04662
 H72 H 0.43277 0.56810 -0.06621
 O73 O 0.45476 0.54651 -0.04473
 O74 O 0.63180 0.43232 0.00207
 O75 O 0.37093 0.43184 -0.00028
 O76 O 0.57101 0.49847 0.13117
 O77 O 0.56851 0.50353 -0.12979
 O78 O 0.43180 0.49918 -0.12926
 O79 O 0.43303 0.50199 0.13180
 O80 O 0.50437 0.37038 0.06905
 O81 O 0.49946 0.37054 -0.06770
 O82 O 0.50411 0.43156 0.13149
 O83 O 0.49875 0.43202 -0.12991
 O84 O 0.63188 0.49941 0.06863
 O85 O 0.37130 0.50161 0.06963
 O86 O 0.36995 0.49861 -0.06776
 O87 O 0.63120 0.50321 -0.06865
 O88 O 0.56964 0.37082 0.00198
 O89 O 0.43256 0.36986 -0.00067
 Zr90 Zr 0.59035 0.50111 0.00032
 Zr91 Zr 0.41197 0.50033 0.00098
 Zr92 Zr 0.50175 0.50036 0.09026
 Zr93 Zr 0.50040 0.50065 -0.08819
 Zr94 Zr 0.50112 0.41171 0.00071
 O95 O 0.45464 0.45440 -0.04527
 O96 O 0.54753 0.45483 0.04649
 C97 C 0.61663 0.38542 0.00277
 C98 C 0.38558 0.38486 -0.00111
 C99 C 0.61791 0.49805 0.11585
 C100 C 0.61563 0.50465 -0.11546
 C101 C 0.38472 0.49813 -0.11487
 C102 C 0.38604 0.50254 0.11666
 C103 C 0.50568 0.38481 0.11610
 C104 C 0.49841 0.38508 -0.11476
 H105 H 0.43433 0.43277 0.06864
 O106 O 0.45565 0.45466 0.04689
 H107 H 0.56836 0.43368 -0.06712
 O108 O 0.54677 0.45511 -0.04523
 O109 O -0.12992 0.56818 0.50079
 O110 O 0.13103 0.56936 0.49946
 O111 O -0.00206 0.63104 0.56867
 O112 O 0.00200 0.63079 0.43109
 O113 O 0.00334 0.56838 0.36984
 O114 O -0.00266 0.56903 0.63049
 O115 O 0.06860 0.63065 0.49806
 O116 O -0.06898 0.63065 0.50148
 Zr117 Zr 0.00009 0.58957 0.50010
 O118 O 0.04659 0.54620 0.45475
 O119 O -0.04567 0.54613 0.54607
 C120 C -0.11591 0.61539 0.50188
 C121 C 0.11566 0.61615 0.49761
 C122 C -0.00374 0.61595 0.61560
 C123 C 0.00389 0.61548 0.38424
 H124 H 0.06756 0.56809 0.56826
 O125 O 0.04607 0.54633 0.54650
 H126 H -0.06680 0.56733 0.43194
 O127 O -0.04513 0.54589 0.45390
 O128 O 0.13153 0.43171 0.50330
 O129 O -0.12925 0.43155 0.49823
 O130 O 0.06890 0.49914 0.63197
 O131 O 0.06983 0.50250 0.37068
 O132 O -0.06716 0.49714 0.36962
 O133 O -0.06881 0.50210 0.63069
 O134 O 0.00343 0.37019 0.56959
 O135 O -0.00026 0.36982 0.43259
 O136 O 0.00216 0.43167 0.63173
 O137 O -0.00005 0.43103 0.37005
 O138 O 0.13066 0.49826 0.57011
 O139 O -0.12984 0.50183 0.56787
 O140 O -0.12955 0.49778 0.43079
 O141 O 0.13176 0.50239 0.43262
 O142 O 0.06938 0.37023 0.50293
 O143 O -0.06767 0.36952 0.49891
 Zr144 Zr 0.09002 0.50048 0.50110
 Zr145 Zr -0.08829 0.50002 0.49969
 Zr146 Zr 0.00030 0.50033 0.58997
 Zr147 Zr 0.00114 0.49988 0.41130
 Zr148 Zr 0.00088 0.41122 0.50090
 O149 O -0.04497 0.45391 0.45423
 O150 O 0.04666 0.45452 0.54705
 C151 C 0.11639 0.38479 0.50400
 C152 C -0.11459 0.38458 0.49780
 C153 C 0.11585 0.49751 0.61708
 C154 C 0.11676 0.50375 0.38562
 C155 C -0.11422 0.49615 0.38400
 C156 C -0.11561 0.50281 0.61506
 C157 C 0.00411 0.38480 0.61664
 C158 C -0.00081 0.38418 0.38545
 H159 H -0.06679 0.43267 0.56793
 O160 O -0.04522 0.45442 0.54630
 H161 H 0.06879 0.43289 0.43362
 O162 O 0.04695 0.45443 0.45515
 O163 O 0.37129 0.06859 0.50269
 O164 O 0.63216 0.06804 0.49853
 O165 O 0.50002 0.13063 0.56893
 O166 O 0.50337 0.13013 0.43128
 O167 O 0.50302 0.06776 0.37003
 O168 O 0.49917 0.06853 0.63061
 O169 O 0.57009 0.12970 0.49769
 O170 O 0.43282 0.13069 0.50201
 Zr171 Zr 0.50141 0.08907 0.50027
 O172 O 0.54724 0.04549 0.45444
 O173 O 0.45547 0.04596 0.54634
 C174 C 0.38594 0.11557 0.50364
 C175 C 0.61704 0.11492 0.49681
 C176 C 0.49844 0.11553 0.61587
 C177 C 0.50413 0.11479 0.38443
 H178 H 0.56910 0.06715 0.56786
 O179 O 0.54736 0.04552 0.54621
 H180 H 0.43383 0.06742 0.43275
 O181 O 0.45556 0.04572 0.45438
 O182 O 0.63182 -0.06949 0.50220
 O183 O 0.37089 -0.06814 0.49884
 O184 O 0.57011 -0.00188 0.63127
 O185 O 0.56949 0.00189 0.37019
 O186 O 0.43280 -0.00193 0.37009
 O187 O 0.43248 0.00182 0.63104
 O188 O 0.50347 -0.13024 0.56913
 O189 O 0.49834 -0.13063 0.43210
 O190 O 0.50327 -0.06870 0.63125
 O191 O 0.49931 -0.06920 0.36978
 O192 O 0.63155 -0.00318 0.56909
 O193 O 0.37111 0.00170 0.56858
 O194 O 0.37069 -0.00167 0.43149
 O195 O 0.63189 0.00123 0.43162
 O196 O 0.56937 -0.13073 0.50295
 O197 O 0.43207 -0.13058 0.49907
 Zr198 Zr 0.59063 -0.00057 0.50035
 Zr199 Zr 0.41230 0.00006 0.50022
 Zr200 Zr 0.50136 -0.00011 0.58979
 Zr201 Zr 0.50121 -0.00057 0.41137
 Zr202 Zr 0.50093 -0.08933 0.50055
 O203 O 0.45499 -0.04627 0.45436
 O204 O 0.54712 -0.04618 0.54645
 C205 C 0.61648 -0.11631 0.50381
 C206 C 0.38523 -0.11520 0.49826
 C207 C 0.61693 -0.00381 0.61610
 C208 C 0.61652 0.00286 0.38476
 C209 C 0.38581 -0.00255 0.38460
 C210 C 0.38558 0.00258 0.61569
 C211 C 0.50468 -0.11553 0.61610
 C212 C 0.49755 -0.11607 0.38500
 H213 H 0.43383 -0.06747 0.56809
 O214 O 0.45542 -0.04584 0.54636
 H215 H 0.56859 -0.06820 0.43293
 O216 O 0.54709 -0.04647 0.45462
 C217 C 0.22875 0.23237 -0.00573
 C218 C 0.17807 0.24366 -0.01786
 C219 C 0.14178 0.20532 -0.01706
 C220 C 0.15559 0.15535 -0.00491
 C221 C 0.20696 0.14517 0.00527
 N222 N 0.24169 0.18341 0.00478
 C223 C 0.26834 0.27235 -0.00423
 N224 N 0.31801 0.25923 -0.00994
 C225 C 0.35612 0.29411 -0.00895
 C226 C 0.34512 0.34578 -0.00184
 C227 C 0.29422 0.35987 0.00491
 C228 C 0.25599 0.32349 0.00405
 H229 H 0.10287 0.21490 -0.02626
 H230 H 0.21940 0.10712 0.01444
 H231 H 0.39483 0.28143 -0.01405
 H232 H 0.28379 0.39907 0.01136
 H233 H 0.16625 0.28149 -0.02849
 H234 H 0.21741 0.33559 0.01081
 C235 C 0.22768 -0.26652 0.49402
 C236 C 0.17685 -0.25508 0.48267
 C237 C 0.14057 -0.29340 0.48371
 C238 C 0.15457 -0.34344 0.49533
 C239 C 0.20603 -0.35370 0.50482
 N240 N 0.24074 -0.31551 0.50410
 C241 C 0.26736 -0.22675 0.49519
 N242 N 0.31688 -0.24017 0.48900
 C243 C 0.35520 -0.20556 0.48989
 C244 C 0.34454 -0.15391 0.49744
 C245 C 0.29380 -0.13949 0.50460
 C246 C 0.25534 -0.17560 0.50381
 H247 H 0.10153 -0.28378 0.47510
 H248 H 0.21862 -0.39181 0.51357
 H249 H 0.39378 -0.21845 0.48441
 H250 H 0.28368 -0.10027 0.51139
 H251 H 0.16493 -0.21718 0.47245
 H252 H 0.21689 -0.16330 0.51092
 C253 C 0.76741 0.77497 -0.00726
 C254 C 0.75497 0.82668 -0.00443
 C255 C 0.79337 0.86293 -0.00349
 C256 C 0.84474 0.84836 -0.00462
 C257 C 0.85559 0.79605 -0.00668
 N258 N 0.81729 0.76138 -0.00788
 C259 C 0.72780 0.73483 -0.00810
 N260 N 0.74059 0.68646 0.00506
 C261 C 0.70605 0.64805 0.00629
 C262 C 0.65495 0.65741 -0.00578
 C263 C 0.64122 0.70669 -0.02052
 C264 C 0.67736 0.74521 -0.02214
 H265 H 0.78243 0.90248 -0.00130
 H266 H 0.89436 0.78254 -0.00740
 H267 H 0.71841 0.61053 0.01756
 H268 H 0.60250 0.71551 -0.03123
 H269 H 0.71615 0.83954 -0.00189
 H270 H 0.66553 0.78235 -0.03489
 C271 C 0.76838 0.27220 0.49411
 C272 C 0.75588 0.32335 0.50199
 C273 C 0.79406 0.35973 0.50301
 C274 C 0.84500 0.34559 0.49679
 C275 C 0.85613 0.29392 0.49000
 N276 N 0.81808 0.25904 0.48888
 C277 C 0.72895 0.23221 0.49271
 N278 N 0.74194 0.18347 0.50403
 C279 C 0.70730 0.14519 0.50480
 C280 C 0.65602 0.15518 0.49413
 C281 C 0.64217 0.20491 0.48110
 C282 C 0.67837 0.24327 0.47999
 H283 H 0.78356 0.39895 0.50920
 H284 H 0.89489 0.28123 0.48531
 H285 H 0.71974 0.10731 0.51463
 H286 H 0.60330 0.21425 0.47147
 H287 H 0.71722 0.33544 0.50836
 H288 H 0.66659 0.28093 0.46873
 C289 C 0.76843 0.22832 0.00780
 C290 C 0.75727 0.17779 0.02050
 C291 C 0.79550 0.14144 0.01922
 C292 C 0.84520 0.15511 0.00607
 C293 C 0.85530 0.20633 -0.00459
 N294 N 0.81716 0.24111 -0.00367
 C295 C 0.72859 0.26792 0.00651
 N296 N 0.74202 0.31759 0.01142
 C297 C 0.70729 0.35580 0.01029
 C298 C 0.65551 0.34488 0.00380
 C299 C 0.64109 0.29396 -0.00204
 C300 C 0.67730 0.25562 -0.00101
 H301 H 0.78610 0.10261 0.02885
 H302 H 0.89318 0.21862 -0.01452
 H303 H 0.72019 0.39452 0.01470
 H304 H 0.60176 0.28358 -0.00792
 H305 H 0.71964 0.16616 0.03188
 H306 H 0.66496 0.21701 -0.00712
 C307 C 0.76796 -0.27439 0.50633
 C308 C 0.75553 -0.32606 0.50292
 C309 C 0.79393 -0.36230 0.50171
 C310 C 0.84531 -0.34775 0.50313
 C311 C 0.85614 -0.29546 0.50563
 N312 N 0.81783 -0.26080 0.50712
 C313 C 0.72833 -0.23427 0.50767
 N314 N 0.74104 -0.18573 0.49517
 C315 C 0.70648 -0.14731 0.49442
 C316 C 0.65541 -0.15684 0.50630
 C317 C 0.64177 -0.20631 0.52038
 C318 C 0.67794 -0.24483 0.52155
 H319 H 0.78300 -0.40183 0.49916
 H320 H 0.89491 -0.28195 0.50657
 H321 H 0.71879 -0.10965 0.48367
 H322 H 0.60310 -0.21531 0.53088
 H323 H 0.71670 -0.33891 0.50019
 H324 H 0.66617 -0.28214 0.53378
 C325 C 0.22861 0.26728 0.50763
 C326 C 0.17726 0.25494 0.50047
 C327 C 0.14097 0.29326 0.49961
 C328 C 0.15533 0.34422 0.50524
 C329 C 0.20715 0.35517 0.51149
 N330 N 0.24195 0.31698 0.51245
 C331 C 0.26859 0.22769 0.50861
 N332 N 0.31731 0.24062 0.49722
 C333 C 0.35555 0.20591 0.49607
 C334 C 0.34561 0.15458 0.50643
 C335 C 0.29591 0.14075 0.51945
 C336 C 0.25757 0.17702 0.52095
 H337 H 0.10163 0.28282 0.49393
 H338 H 0.22003 0.39391 0.51577
 H339 H 0.39341 0.21836 0.48625
 H340 H 0.28658 0.10185 0.52884
 H341 H 0.16490 0.21631 0.49448
 H342 H 0.21998 0.16521 0.53226
 C343 C 0.22680 0.76620 0.00738
 C344 C 0.17557 0.75383 -0.00058
 C345 C 0.13928 0.79215 -0.00184
 C346 C 0.15360 0.84305 0.00422
 C347 C 0.20530 0.85401 0.01127
 N348 N 0.24007 0.81586 0.01259
 C349 C 0.26685 0.72681 0.00875
 N350 N 0.31566 0.74011 -0.00173
 C351 C 0.35412 0.70569 -0.00242
 C352 C 0.34431 0.65426 0.00750
 C353 C 0.29449 0.64002 0.01962
 C354 C 0.25590 0.67603 0.02064
 H355 H 0.10000 0.78178 -0.00812
 H356 H 0.21814 0.89272 0.01594
 H357 H 0.39205 0.71843 -0.01156
 H358 H 0.28525 0.60101 0.02860
 H359 H 0.16335 0.71521 -0.00688
 H360 H 0.21818 0.66394 0.03120
 C361 C -0.00542 0.22687 0.23362
 C362 C -0.01690 0.17607 0.24495
 C363 C -0.01609 0.13988 0.20652
 C364 C -0.00456 0.15391 0.15645
 C365 C 0.00507 0.20535 0.14629
 N366 N 0.00455 0.23997 0.18459
 C367 C -0.00408 0.26648 0.27353
 N368 N -0.00995 0.31609 0.26016
 C369 C -0.00895 0.35432 0.29487
 C370 C -0.00163 0.34353 0.34663
 C371 C 0.00520 0.29270 0.36102
 C372 C 0.00431 0.25432 0.32480
 H373 H -0.02480 0.10088 0.21609
 H374 H 0.01377 0.21797 0.10818
 H375 H -0.01419 0.39296 0.28197
 H376 H 0.01178 0.28245 0.40031
 H377 H -0.02705 0.16410 0.28285
 H378 H 0.01115 0.21579 0.33711
 C379 C 0.49565 0.26749 0.77308
 C380 C 0.50378 0.25531 0.82438
 C381 C 0.50443 0.29365 0.86064
 C382 C 0.49763 0.34450 0.84629
 C383 C 0.49059 0.35533 0.79449
 N384 N 0.48982 0.31712 0.75973
 C385 C 0.49454 0.22781 0.73318
 N386 N 0.50495 0.24076 0.68419
 C387 C 0.50577 0.20601 0.64599
 C388 C 0.49605 0.15459 0.65622
 C389 C 0.48407 0.14074 0.70623
 C390 C 0.48293 0.17705 0.74454
 H391 H 0.51083 0.28333 0.89994
 H392 H 0.48545 0.39399 0.78161
 H393 H 0.51479 0.21849 0.60791
 H394 H 0.47524 0.10178 0.71584
 H395 H 0.51061 0.21678 0.83671
 H396 H 0.47242 0.16519 0.78237
 C397 C -0.00679 0.76758 0.77235
 C398 C 0.00131 0.75517 0.82357
 C399 C 0.00248 0.79342 0.85983
 C400 C -0.00380 0.84433 0.84550
 C401 C -0.01083 0.85537 0.79377
 N402 N -0.01209 0.81724 0.75899
 C403 C -0.00823 0.72809 0.73249
 N404 N 0.00309 0.74095 0.68372
 C405 C 0.00395 0.70622 0.64556
 C406 C -0.00660 0.65499 0.65573
 C407 C -0.01966 0.64126 0.70548
 C408 C -0.02088 0.67757 0.74372
 H409 H 0.00884 0.78299 0.89912
 H410 H -0.01559 0.89410 0.78095
 H411 H 0.01379 0.71854 0.60764
 H412 H -0.02920 0.60243 0.71493
 H413 H 0.00775 0.71654 0.83579
 H414 H -0.03214 0.66592 0.78141
 C415 C 0.49439 -0.27380 0.23332
 C416 C 0.49780 -0.32547 0.24584
 C417 C 0.49897 -0.36172 0.20749
 C418 C 0.49749 -0.34720 0.15605
 C419 C 0.49492 -0.29492 0.14511
 N420 N 0.49350 -0.26023 0.18339
 C421 C 0.49316 -0.23371 0.27294
 N422 N 0.50614 -0.18527 0.26032
 C423 C 0.50707 -0.14694 0.29494
 C424 C 0.49489 -0.15646 0.34598
 C425 C 0.48030 -0.20582 0.35952
 C426 C 0.47897 -0.24424 0.32329
 H427 H 0.50154 -0.40124 0.21851
 H428 H 0.49392 -0.28144 0.10629
 H429 H 0.51820 -0.10936 0.28271
 H430 H 0.46951 -0.21478 0.39815
 H431 H 0.50060 -0.33828 0.28473
 H432 H 0.46635 -0.28146 0.33495
 C433 C 0.00660 0.76718 0.22590
 C434 C 0.00322 0.75481 0.17416
 C435 C 0.00204 0.79324 0.13786
 C436 C 0.00347 0.84461 0.15238
 C437 C 0.00599 0.85538 0.20473
 N438 N 0.00744 0.81705 0.23946
 C439 C 0.00787 0.72749 0.26610
 N440 N -0.00458 0.74018 0.31466
 C441 C -0.00540 0.70558 0.35311
 C442 C 0.00637 0.65446 0.34363
 C443 C 0.02039 0.64084 0.29414
 C444 C 0.02161 0.67705 0.25558
 H445 H -0.00051 0.78233 0.09830
 H446 H 0.00697 0.89414 0.21823
 H447 H -0.01608 0.71790 0.39077
 H448 H 0.03081 0.60214 0.28516
 H449 H 0.00048 0.71601 0.16131
 H450 H 0.03380 0.66526 0.21828
 C451 C 0.50711 -0.27222 0.76787
 C452 C 0.49864 -0.32331 0.75557
 C453 C 0.49727 -0.35948 0.79396
 C454 C 0.50369 -0.34514 0.84486
 C455 C 0.51112 -0.29354 0.85577
 N456 N 0.51257 -0.25886 0.81752
 C457 C 0.50869 -0.23245 0.72831
 N458 N 0.49764 -0.18366 0.74114
 C459 C 0.49692 -0.14551 0.70636
 C460 C 0.50734 -0.15571 0.65512
 C461 C 0.52011 -0.20547 0.64141
 C462 C 0.52121 -0.24373 0.67777
 H463 H 0.49066 -0.39868 0.78363
 H464 H 0.51606 -0.28075 0.89449
 H465 H 0.48729 -0.10756 0.71866
 H466 H 0.52951 -0.21493 0.60255
 H467 H 0.49208 -0.33548 0.71693
 H468 H 0.53224 -0.28146 0.66617
 C469 C 0.51037 0.26696 0.22759
 C470 C 0.52288 0.25615 0.17695
 C471 C 0.52161 0.29470 0.14085
 C472 C 0.50863 0.34433 0.15490
 C473 C 0.49818 0.35406 0.20624
 N474 N 0.49910 0.31563 0.24074
 C475 C 0.50904 0.22689 0.26699
 N476 N 0.51360 0.24014 0.31677
 C477 C 0.51218 0.20532 0.35491
 C478 C 0.50567 0.15362 0.34382
 C479 C 0.50032 0.13933 0.29278
 C480 C 0.50168 0.17565 0.25448
 H481 H 0.53105 0.28558 0.10191
 H482 H 0.48839 0.39187 0.21882
 H483 H 0.51630 0.21812 0.39373
 H484 H 0.49453 0.10004 0.28229
 H485 H 0.53408 0.21857 0.16502
 H486 H 0.49591 0.16344 0.21573
 C487 C 0.00821 0.22674 0.76838
 C488 C 0.00528 0.17510 0.75573
 C489 C 0.00412 0.13866 0.79399
 C490 C 0.00513 0.15296 0.84547
 C491 C 0.00734 0.20521 0.85654
 N492 N 0.00874 0.24009 0.81835
 C493 C 0.00926 0.26700 0.72881
 N494 N -0.00443 0.31525 0.74134
 C495 C -0.00562 0.35365 0.70670
 C496 C 0.00699 0.34439 0.65574
 C497 C 0.02233 0.29525 0.64233
 C498 C 0.02394 0.25677 0.67857
 H499 H 0.00187 0.09918 0.78286
 H500 H 0.00803 0.21851 0.89540
 H501 H -0.01732 0.39107 0.71883
 H502 H 0.03351 0.28651 0.60377
 H503 H 0.00280 0.16245 0.71680
 H504 H 0.03713 0.21975 0.66701
 C505 C 0.23335 -0.00819 0.22781
 C506 C 0.24437 -0.02073 0.17722
 C507 C 0.20591 -0.01977 0.14099
 C508 C 0.15614 -0.00704 0.15483
 C509 C 0.14621 0.00344 0.20613
 N510 N 0.18457 0.00280 0.24079
 C511 C 0.27339 -0.00664 0.26728
 N512 N 0.26027 -0.01194 0.31701
 C513 C 0.29517 -0.01066 0.35514
 C514 C 0.34682 -0.00363 0.34408
 C515 C 0.36092 0.00266 0.29312
 C516 C 0.32452 0.00148 0.25484
 H517 H 0.21521 -0.02922 0.10210
 H518 H 0.10831 0.01304 0.21856
 H519 H 0.28251 -0.01543 0.39391
 H520 H 0.40013 0.00902 0.28267
 H521 H 0.28206 -0.03174 0.16546
 H522 H 0.33656 0.00790 0.21616
 C523 C 0.27365 0.49424 0.76939
 C524 C 0.32527 0.49754 0.75679
 C525 C 0.36174 0.49850 0.79506
 C526 C 0.34751 0.49695 0.84654
 C527 C 0.29526 0.49459 0.85757
 N528 N 0.26033 0.49334 0.81935
 C529 C 0.23342 0.49305 0.72972
 N530 N 0.18507 0.50656 0.74209
 C531 C 0.14674 0.50756 0.70729
 C532 C 0.15617 0.49491 0.65637
 C533 C 0.20542 0.47975 0.64314
 C534 C 0.24382 0.47834 0.67952
 H535 H 0.40121 0.50100 0.78394
 H536 H 0.28201 0.49358 0.89643
 H537 H 0.10923 0.51911 0.71928
 H538 H 0.21430 0.46854 0.60462
 H539 H 0.33788 0.50039 0.71789
 H540 H 0.28092 0.46526 0.66809
 C541 C 0.77461 -0.00669 0.76772
 C542 C 0.82622 -0.00342 0.75515
 C543 C 0.86256 -0.00206 0.79349
 C544 C 0.84811 -0.00320 0.84489
 C545 C 0.79587 -0.00557 0.85586
 N546 N 0.76110 -0.00720 0.81760
 C547 C 0.73450 -0.00809 0.72818
 N548 N 0.68628 0.00567 0.74062
 C549 C 0.64791 0.00655 0.70595
 C550 C 0.65726 -0.00649 0.65515
 C551 C 0.70637 -0.02195 0.64184
 C552 C 0.74481 -0.02323 0.67812
 H553 H 0.90206 0.00039 0.78248
 H554 H 0.78249 -0.00633 0.89468
 H555 H 0.61049 0.01836 0.71795
 H556 H 0.71510 -0.03343 0.60337
 H557 H 0.83889 -0.00087 0.71625
 H558 H 0.78187 -0.03650 0.66674
 C559 C -0.26583 0.49304 0.22603
 C560 C -0.25348 0.49640 0.17433
 C561 C -0.29194 0.49776 0.13809
 C562 C -0.34327 0.49650 0.15270
 C563 C -0.35402 0.49396 0.20501
 N564 N -0.31565 0.49237 0.23968
 C565 C -0.22618 0.49176 0.26613
 N566 N -0.23874 0.50492 0.31451
 C567 C -0.20411 0.50584 0.35291
 C568 C -0.15316 0.49346 0.34349
 C569 C -0.13966 0.47868 0.29421
 C570 C -0.17592 0.47736 0.25570
 H571 H -0.28108 0.50031 0.09853
 H572 H -0.39276 0.49313 0.21854
 H573 H -0.21626 0.51715 0.39045
 H574 H -0.10106 0.46774 0.28539
 H575 H -0.21466 0.49903 0.16151
 H576 H -0.16435 0.46461 0.21851
 C577 C 0.22816 0.00746 0.76738
 C578 C 0.17751 0.01981 0.75612
 C579 C 0.14121 0.01856 0.79442
 C580 C 0.15499 0.00576 0.84429
 C581 C 0.20631 -0.00464 0.85445
 N582 N 0.24104 -0.00373 0.81626
 C583 C 0.26782 0.00631 0.72751
 N584 N 0.31754 0.01102 0.74104
 C585 C 0.35579 0.00996 0.70638
 C586 C 0.34492 0.00373 0.65450
 C587 C 0.29395 -0.00182 0.63994
 C588 C 0.25555 -0.00086 0.67610
 H589 H 0.10232 0.02796 0.78491
 H590 H 0.21873 -0.01431 0.89243
 H591 H 0.39453 0.01418 0.71941
 H592 H 0.28356 -0.00746 0.60055
 H593 H 0.16572 0.03094 0.71839
 H594 H 0.21691 -0.00675 0.66360
 C595 C 0.26870 0.50639 0.22879
 C596 C 0.25632 0.49860 0.17751
 C597 C 0.29460 0.49752 0.14127
 C598 C 0.34556 0.50355 0.15562
 C599 C 0.35658 0.51027 0.20741
 N600 N 0.31842 0.51147 0.24217
 C601 C 0.22911 0.50784 0.26867
 N602 N 0.24195 0.49682 0.31759
 C603 C 0.20719 0.49607 0.35574
 C604 C 0.15589 0.50641 0.34546
 C605 C 0.14216 0.51910 0.29554
 C606 C 0.17850 0.52024 0.25731
 H607 H 0.28412 0.49145 0.10196
 H608 H 0.39533 0.51484 0.22028
 H609 H 0.21955 0.48649 0.39377
 H610 H 0.10329 0.52843 0.28594
 H611 H 0.21768 0.49236 0.16519
 H612 H 0.16677 0.53126 0.21952
 C613 C 0.76724 0.00670 0.22700
 C614 C 0.75469 0.00002 0.17560
 C615 C 0.79293 -0.00093 0.13930
 C616 C 0.84396 0.00413 0.15376
 C617 C 0.85510 0.00996 0.20562
 N618 N 0.81701 0.01100 0.24041
 C619 C 0.72788 0.00768 0.26704
 N620 N 0.74103 -0.00406 0.31572
 C621 C 0.70656 -0.00516 0.35410
 C622 C 0.65528 0.00562 0.34432
 C623 C 0.64122 0.01900 0.29467
 C624 C 0.67726 0.02043 0.25619
 H625 H 0.78239 -0.00622 0.09990
 H626 H 0.89390 0.01382 0.21856
 H627 H 0.71915 -0.01529 0.39191
 H628 H 0.60233 0.02871 0.28551
 H629 H 0.71597 -0.00553 0.16322
 H630 H 0.66531 0.03200 0.21864
 C631 C -0.27298 0.50835 0.76660
 C632 C -0.32384 0.51981 0.75538
 C633 C -0.35991 0.51882 0.79391
 C634 C -0.34567 0.50714 0.84394
 C635 C -0.29417 0.49757 0.85398
 N636 N -0.25969 0.49824 0.81560
 C637 C -0.23344 0.50706 0.72666
 N638 N -0.18378 0.51232 0.74012
 C639 C -0.14553 0.51110 0.70550
 C640 C -0.15635 0.50411 0.65372
 C641 C -0.20726 0.49801 0.63920
 C642 C -0.24568 0.49916 0.67535
 H643 H -0.39898 0.52749 0.78446
 H644 H -0.28140 0.48874 0.89206
 H645 H -0.10684 0.51580 0.71851
 H646 H -0.21755 0.49177 0.59987
 H647 H -0.33598 0.53006 0.71751
 H648 H -0.28427 0.49283 0.66294
   
