data_POSCAR
  _audit_creation_date              2014-09-24
  _audit_creation_method            'ToBaCCo'
  _symmetry_space_group_name_H-M    'P1'
  _symmetry_Int_Tables_number       1
  _symmetry_cell_setting            triclinic
  loop_
  _symmetry_equiv_pos_as_xyz
 x,y,z
_cell_length_a 15.7213
_cell_length_b 15.7210
_cell_length_c 26.6842
_cell_angle_alpha 90.345300
_cell_angle_beta 89.730900
_cell_angle_gamma 89.994300
loop_
  _atom_site_label
  _atom_site_type_symbol
  _atom_site_fract_x
  _atom_site_fract_y
  _atom_site_fract_z
O1 O 0.08355 0.57199 1.04776
 O2 O 0.05546 0.40637 0.95105
 O3 O 0.08327 0.56969 0.94958
 O4 O 0.05624 0.40845 1.04787
 O5 O -0.08223 0.43199 1.04851
 O6 O -0.05466 0.59551 0.95157
 O7 O -0.08271 0.43157 0.95048
 O8 O -0.05496 0.59534 1.04824
 Cu9 Cu 0.08359 0.48702 0.99900
 Cu10 Cu -0.08259 0.51571 0.99969
 C11 C 0.01900 0.61191 1.06448
 C12 C -0.01840 0.39056 0.93439
 C13 C 0.01902 0.61080 0.93405
 C14 C -0.01762 0.39235 1.06473
 O15 O 0.43038 0.08142 0.54899
 O16 O 0.59574 0.05515 0.45191
 O17 O 0.43179 0.08323 0.45090
 O18 O 0.59377 0.05415 0.54854
 O19 O 0.57043 -0.08436 0.54728
 O20 O 0.40664 -0.05495 0.45073
 O21 O 0.56996 -0.08275 0.44917
 O22 O 0.40691 -0.05706 0.54757
 Cu23 Cu 0.51499 0.08246 0.50015
 Cu24 Cu 0.48635 -0.08372 0.49854
 C25 C 0.39051 0.01656 0.56487
 C26 C 0.61140 -0.01831 0.43403
 C27 C 0.39114 0.01912 0.43443
 C28 C 0.61008 -0.02006 0.56434
 C29 C -0.00019 0.00387 0.25035
 C30 C -0.00126 -0.00412 0.75032
 C31 C -0.02956 -0.20247 0.14584
 C32 C 0.04643 -0.19232 0.17251
 N33 N 0.11231 -0.24628 0.16357
 C34 C 0.10557 -0.31006 0.12910
 C35 C 0.02918 -0.32076 0.10255
 N36 N -0.03659 -0.26643 0.11179
 N37 N -0.09445 -0.14705 0.15352
 C38 C -0.08712 -0.08205 0.18699
 C39 C -0.01187 -0.07254 0.21513
 N40 N 0.05361 -0.12779 0.20627
 H41 H 0.15912 -0.35206 0.12267
 H42 H -0.13929 -0.03769 0.19144
 C43 C 0.03077 0.20877 0.14625
 C44 C -0.04563 0.19883 0.17288
 N45 N -0.11157 0.25234 0.16397
 C46 C -0.10453 0.31548 0.12954
 C47 C -0.02779 0.32592 0.10294
 N48 N 0.03808 0.27206 0.11217
 N49 N 0.09571 0.15370 0.15394
 C50 C 0.08802 0.08929 0.18739
 C51 C 0.01231 0.08006 0.21549
 N52 N -0.05320 0.13486 0.20654
 H53 H -0.15818 0.35710 0.12311
 H54 H 0.14018 0.04505 0.19171
 C55 C 0.20573 -0.03328 0.64624
 C56 C 0.19522 0.04271 0.67333
 N57 N 0.24879 0.10886 0.66479
 C58 C 0.31250 0.10242 0.63027
 C59 C 0.32346 0.02611 0.60319
 N60 N 0.26958 -0.03998 0.61207
 N61 N 0.15066 -0.09844 0.65356
 C62 C 0.08561 -0.09132 0.68702
 C63 C 0.07560 -0.01595 0.71545
 N64 N 0.13059 0.04972 0.70702
 H65 H 0.35414 0.15622 0.62415
 H66 H 0.04148 -0.14366 0.69114
 C67 C -0.20551 0.02705 0.64582
 C68 C -0.19592 -0.04934 0.67203
 N69 N -0.24981 -0.11501 0.66274
 C70 C -0.31303 -0.10766 0.62836
 C71 C -0.32320 -0.03085 0.60228
 N72 N -0.26892 0.03469 0.61185
 N73 N -0.15009 0.09171 0.65383
 C74 C -0.08574 0.08381 0.68729
 C75 C -0.07699 0.00824 0.71511
 N76 N -0.13205 -0.05708 0.70575
 H77 H -0.35499 -0.16105 0.62165
 H78 H -0.04127 0.13578 0.69192
 C79 C -0.03151 -0.21099 0.85312
 C80 C 0.04623 -0.19760 0.82850
 N81 N 0.11380 -0.24793 0.83927
 C82 C 0.10716 -0.31124 0.87362
 C83 C 0.02877 -0.32577 0.89800
 N84 N -0.03867 -0.27494 0.88677
 N85 N -0.09783 -0.15814 0.84425
 C86 C -0.09028 -0.09283 0.81141
 C87 C -0.01342 -0.08081 0.78481
 N88 N 0.05348 -0.13321 0.79508
 H89 H 0.16240 -0.34997 0.88146
 H90 H -0.14355 -0.05020 0.80635
 C91 C 0.02877 0.20272 0.85449
 C92 C -0.04695 0.19315 0.82748
 N93 N -0.11215 0.24824 0.83569
 C94 C -0.10499 0.31261 0.86975
 C95 C -0.02886 0.32275 0.89663
 N96 N 0.03622 0.26726 0.88814
 N97 N 0.09299 0.14629 0.84748
 C98 C 0.08531 0.08091 0.81429
 C99 C 0.01042 0.07203 0.78575
 N100 N -0.05447 0.12823 0.79401
 H101 H -0.15803 0.35549 0.87561
 H102 H 0.13701 0.03589 0.81029
 C103 C -0.20857 0.03298 0.35358
 C104 C -0.19479 -0.04448 0.32857
 N105 N -0.24543 -0.11210 0.33894
 C106 C -0.30945 -0.10578 0.37326
 C107 C -0.32440 -0.02767 0.39801
 N108 N -0.27323 0.03983 0.38720
 N109 N -0.15546 0.09934 0.34507
 C110 C -0.08956 0.09211 0.31219
 C111 C -0.07718 0.01559 0.28517
 N112 N -0.12982 -0.05137 0.29511
 H113 H -0.34841 -0.16107 0.38077
 H114 H -0.04682 0.14542 0.30735
 C115 C 0.20514 -0.02734 0.35407
 C116 C 0.19593 0.04872 0.32747
 N117 N 0.25069 0.11394 0.33609
 C118 C 0.31437 0.10646 0.37017
 C119 C 0.32412 0.02999 0.39665
 N120 N 0.26899 -0.03510 0.38774
 N121 N 0.14900 -0.09158 0.34670
 C122 C 0.08420 -0.08357 0.31356
 C123 C 0.07564 -0.00828 0.28546
 N124 N 0.13158 0.05659 0.29404
 H125 H 0.35699 0.15951 0.37637
 H126 H 0.03932 -0.13527 0.30932
   
