data_POSCAR
  _audit_creation_date              2014-09-24
  _audit_creation_method            'ToBaCCo'
  _symmetry_space_group_name_H-M    'P1'
  _symmetry_Int_Tables_number       1
  _symmetry_cell_setting            triclinic
  loop_
  _symmetry_equiv_pos_as_xyz
 x,y,z
_cell_length_a 26.1659
_cell_length_b 27.8164
_cell_length_c 14.4238
_cell_angle_alpha 90.003000
_cell_angle_beta 89.724500
_cell_angle_gamma 89.873600
loop_
  _atom_site_label
  _atom_site_type_symbol
  _atom_site_fract_x
  _atom_site_fract_y
  _atom_site_fract_z
C1 C 0.65584 0.34379 0.49914
 C2 C 0.67609 0.32832 0.58310
 C3 C 0.71388 0.29248 0.58404
 C4 C 0.73018 0.26987 0.50040
 C5 C 0.70752 0.28571 0.41640
 C6 C 0.67178 0.32313 0.41610
 C7 C 0.77012 0.23038 0.50047
 C8 C 0.79323 0.21417 0.41656
 C9 C 0.82895 0.17660 0.41674
 C10 C 0.84428 0.15630 0.50032
 C11 C 0.82350 0.17220 0.58382
 C12 C 0.78587 0.20805 0.58428
 H13 H 0.62733 0.37225 0.49821
 H14 H 0.73005 0.28322 0.65032
 H15 H 0.71658 0.26960 0.35039
 H16 H 0.78448 0.23018 0.35043
 H17 H 0.87272 0.12777 0.50057
 H18 H 0.76946 0.21749 0.65051
 C19 C 0.15576 0.84373 0.50264
 C20 C 0.17140 0.82364 0.58623
 C21 C 0.20719 0.78615 0.58656
 C22 C 0.23000 0.76970 0.50268
 C23 C 0.21402 0.79189 0.41873
 C24 C 0.17633 0.82771 0.41909
 C25 C 0.26975 0.73003 0.50281
 C26 C 0.28572 0.70755 0.41900
 C27 C 0.32331 0.67171 0.41925
 C28 C 0.34386 0.65589 0.50259
 C29 C 0.32827 0.67623 0.58626
 C30 C 0.29250 0.71381 0.58665
 H31 H 0.12726 0.87220 0.50243
 H32 H 0.21623 0.77038 0.65278
 H33 H 0.23027 0.78239 0.35242
 H34 H 0.26953 0.71686 0.35282
 H35 H 0.37233 0.62738 0.50214
 H36 H 0.28345 0.72982 0.65281
 C37 C 0.34338 0.34301 -0.49882
 C38 C 0.32791 0.32261 -0.58203
 C39 C 0.29206 0.28534 -0.58185
 C40 C 0.26900 0.26947 -0.49775
 C41 C 0.28489 0.29190 -0.41417
 C42 C 0.32264 0.32749 -0.41511
 C43 C 0.22898 0.23024 -0.49734
 C44 C 0.21284 0.20784 -0.41348
 C45 C 0.17499 0.17222 -0.41395
 C46 C 0.15451 0.15676 -0.49768
 C47 C 0.17032 0.17718 -0.58096
 C48 C 0.20614 0.21439 -0.58111
 H49 H 0.37191 0.37130 -0.49920
 H50 H 0.28326 0.26936 -0.64791
 H51 H 0.26849 0.28275 -0.34781
 H52 H 0.22922 0.21707 -0.34738
 H53 H 0.12597 0.12844 -0.49826
 H54 H 0.21516 0.23034 -0.64725
 C55 C -0.15460 0.84344 -0.50117
 C56 C -0.17502 0.82814 -0.58507
 C57 C -0.21276 0.79248 -0.58610
 C58 C -0.22891 0.76981 -0.50266
 C59 C -0.20616 0.78546 -0.41852
 C60 C -0.17038 0.82278 -0.41810
 C61 C -0.26892 0.73058 -0.50322
 C62 C -0.29207 0.71449 -0.41948
 C63 C -0.32795 0.67732 -0.41988
 C64 C -0.34347 0.65718 -0.50330
 C65 C -0.32269 0.67288 -0.58685
 C66 C -0.28482 0.70843 -0.58722
 H67 H -0.12612 0.87180 -0.50033
 H68 H -0.22905 0.78342 -0.65236
 H69 H -0.21521 0.76929 -0.35259
 H70 H -0.28328 0.73023 -0.35320
 H71 H -0.37205 0.62893 -0.50319
 H72 H -0.26836 0.71778 -0.65343
 N73 N -0.05400 0.94959 0.16473
 N74 N -0.08629 0.93999 0.23252
 N75 N 0.05378 0.91473 0.10335
 N76 N 0.08572 0.88023 0.12870
 N77 N 0.05360 0.94963 0.16474
 N78 N 0.08558 0.94003 0.23258
 N79 N -0.05365 0.91469 0.10333
 N80 N -0.08553 0.88017 0.12866
 C81 C -0.10652 0.89730 0.20810
 C82 C 0.10617 0.89734 0.20821
 N83 N 0.05430 0.94728 -0.16080
 N84 N 0.08467 0.93565 -0.23034
 N85 N -0.05299 0.91297 -0.09783
 N86 N -0.08255 0.87689 -0.12397
 N87 N -0.05311 0.94712 -0.16086
 N88 N -0.08300 0.93539 -0.23046
 N89 N 0.05408 0.91313 -0.09779
 N90 N 0.08405 0.87713 -0.12388
 Mn91 Mn 0.00030 0.91344 0.00289
 C92 C 0.10385 0.89257 -0.20544
 C93 C -0.10200 0.89224 -0.20562
 N94 N 0.05316 1.05289 0.16238
 N95 N 0.08317 1.06453 0.23182
 N96 N -0.05403 1.08702 0.09971
 N97 N -0.08376 1.12314 0.12621
 N98 N -0.05424 1.05284 0.16266
 N99 N -0.08436 1.06457 0.23253
 N100 N 0.05302 1.08704 0.09937
 N101 N 0.08270 1.12305 0.12534
 Mn102 Mn -0.00037 1.00119 0.16391
 C103 C 0.10221 1.10763 0.20685
 C104 C -0.10341 1.10777 0.20797
 N105 N -0.05357 1.05041 -0.16292
 N106 N -0.08579 1.05988 -0.23043
 N107 N 0.05366 1.08547 -0.10176
 N108 N 0.08539 1.12011 -0.12727
 N109 N 0.05404 1.05057 -0.16316
 N110 N 0.08619 1.06031 -0.23115
 N111 N -0.05377 1.08528 -0.10145
 N112 N -0.08597 1.11964 -0.12639
 Mn113 Mn 0.00041 0.99890 -0.16223
 Mn114 Mn -0.00028 1.08664 -0.00117
 Cl115 Cl 0.00001 1.00004 0.00085
 C116 C -0.10653 1.10246 -0.20572
 C117 C 0.10632 1.10308 -0.20687
 N118 N 0.55393 0.55060 0.16177
 N119 N 0.58637 0.56025 0.22881
 N120 N 0.44607 0.58511 0.10199
 N121 N 0.41388 0.61944 0.12768
 N122 N 0.44633 0.55021 0.16337
 N123 N 0.41417 0.55961 0.23154
 N124 N 0.55351 0.58546 0.10032
 N125 N 0.58550 0.61997 0.12476
 C126 C 0.60661 0.60292 0.20381
 C127 C 0.39339 0.60218 0.20738
 N128 N 0.44573 0.55275 -0.16229
 N129 N 0.41548 0.56444 -0.23149
 N130 N 0.55289 0.58706 -0.10062
 N131 N 0.58282 0.62299 -0.12656
 N132 N 0.55313 0.55296 -0.16373
 N133 N 0.58345 0.56456 -0.23330
 N134 N 0.44581 0.58688 -0.09920
 N135 N 0.41587 0.62289 -0.12492
 Mn136 Mn 0.49956 0.58658 0.00075
 C137 C 0.39622 0.60752 -0.20635
 C138 C 0.60256 0.60758 -0.20825
 N139 N 0.44697 0.44696 0.16119
 N140 N 0.41679 0.43528 0.23096
 N141 N 0.55419 0.41316 0.09641
 N142 N 0.58408 0.37714 0.12220
 N143 N 0.55436 0.44734 0.15937
 N144 N 0.58461 0.43571 0.22855
 N145 N 0.44713 0.41289 0.09803
 N146 N 0.41730 0.37691 0.12416
 Mn147 Mn 0.50040 0.49883 0.16174
 C148 C 0.39768 0.39223 0.20602
 C149 C 0.60377 0.39260 0.20349
 N150 N 0.55379 0.44964 -0.16618
 N151 N 0.58587 0.44005 -0.23445
 N152 N 0.44655 0.41462 -0.10294
 N153 N 0.41436 0.38026 -0.12715
 N154 N 0.44618 0.44947 -0.16441
 N155 N 0.41357 0.43999 -0.23121
 N156 N 0.55400 0.41479 -0.10470
 N157 N 0.58607 0.38034 -0.13038
 Mn158 Mn 0.49971 0.50116 -0.16448
 Mn159 Mn 0.50047 0.41342 -0.00344
 Cl160 Cl 0.50003 0.50000 -0.00136
 C161 C 0.60657 0.39742 -0.21022
 C162 C 0.39320 0.39742 -0.20604
 C163 C 0.34922 0.34199 0.33364
 C164 C 0.36986 0.36281 0.27049
 C165 C -0.15651 0.84848 0.33568
 C166 C -0.13585 0.86923 0.27249
 C167 C 0.65771 0.65175 0.32934
 C168 C 0.63650 0.63097 0.26709
 C169 C 0.14956 1.15783 0.33475
 C170 C 0.12945 1.13707 0.27140
 C171 C 0.65726 0.34865 -0.33766
 C172 C 0.63625 0.36941 -0.27464
 C173 C 0.15155 0.84232 -0.33401
 C174 C 0.13135 0.86308 -0.27026
 C175 C 0.34822 0.65771 -0.33413
 C176 C 0.36858 0.63700 -0.27073
 C177 C -0.15713 1.15106 -0.33225
 C178 C -0.13618 1.13037 -0.26957
 C179 C 0.65081 0.65781 -0.33578
 C180 C 0.63028 0.63698 -0.27264
 C181 C 0.15644 1.15199 -0.33449
 C182 C 0.13569 1.13123 -0.27130
 C183 C 0.34218 0.34872 -0.33151
 C184 C 0.36333 0.36947 -0.26925
 C185 C -0.14956 0.84201 -0.33358
 C186 C -0.12934 0.86277 -0.27023
 C187 C 0.34284 0.65059 0.33510
 C188 C 0.36379 0.63000 0.27195
 C189 C -0.15105 1.15800 0.33691
 C190 C -0.13082 1.13728 0.27306
 C191 C 0.65114 0.34239 0.33157
 C192 C 0.63107 0.36313 0.26806
 C193 C 0.15676 0.84875 0.33508
 C194 C 0.13575 0.86940 0.27232
   
