data_POSCAR
  _audit_creation_date              2014-09-24
  _audit_creation_method            'ToBaCCo'
  _symmetry_space_group_name_H-M    'P1'
  _symmetry_Int_Tables_number       1
  _symmetry_cell_setting            triclinic
  loop_
  _symmetry_equiv_pos_as_xyz
 x,y,z
_cell_length_a 27.3806
_cell_length_b 27.3886
_cell_length_c 27.4006
_cell_angle_alpha 89.842500
_cell_angle_beta 89.982500
_cell_angle_gamma 89.929400
loop_
  _atom_site_label
  _atom_site_type_symbol
  _atom_site_fract_x
  _atom_site_fract_y
  _atom_site_fract_z
C1 C 0.16302 0.16485 0.22623
 C2 C 0.14038 0.20324 0.20044
 C3 C 0.16226 0.22327 0.15880
 C4 C 0.20591 0.20359 0.14104
 C5 C 0.22831 0.16361 0.16454
 C6 C 0.20730 0.14565 0.20805
 H7 H 0.10638 0.21889 0.21336
 H8 H 0.22163 0.21909 0.10816
 H9 H 0.22455 0.11540 0.22691
 C10 C -0.15815 0.83915 0.22639
 C11 C -0.20013 0.85943 0.20448
 C12 C -0.22503 0.83442 0.16745
 C13 C -0.20752 0.78914 0.15131
 C14 C -0.16402 0.77008 0.17041
 C15 C -0.13993 0.79468 0.20814
 H16 H -0.21441 0.89422 0.21676
 H17 H -0.22585 0.77046 0.12170
 H18 H -0.10657 0.77907 0.22273
 C19 C -0.16220 0.15935 -0.22516
 C20 C -0.20391 0.13893 -0.20299
 C21 C -0.22827 0.16349 -0.16528
 C22 C -0.21092 0.20875 -0.14913
 C23 C -0.16783 0.22815 -0.16867
 C24 C -0.14388 0.20368 -0.20668
 H25 H -0.21817 0.10417 -0.21528
 H26 H -0.22902 0.22714 -0.11915
 H27 H -0.11078 0.21950 -0.22156
 C28 C 0.16446 0.83691 -0.22836
 C29 C 0.14021 0.79860 -0.20378
 C30 C 0.16029 0.77762 -0.16165
 C31 C 0.20345 0.79645 -0.14207
 C32 C 0.22741 0.83531 -0.16510
 C33 C 0.20887 0.85434 -0.20895
 H34 H 0.10636 0.78385 -0.21795
 H35 H 0.21817 0.78114 -0.10862
 H36 H 0.22784 0.88448 -0.22625
 C37 C 0.16340 1.16116 0.77590
 C38 C 0.20499 1.14118 0.79885
 C39 C 0.22835 1.16604 0.83702
 C40 C 0.20995 1.21101 0.85295
 C41 C 0.16691 1.22987 0.83273
 C42 C 0.14411 1.20525 0.79414
 H43 H 0.21998 1.10662 0.78676
 H44 H 0.22718 1.22956 0.88330
 H45 H 0.11104 1.22068 0.77873
 C46 C 0.83536 0.83573 0.76829
 C47 C 0.79266 0.85590 0.78870
 C48 C 0.77454 0.83878 0.83335
 C49 C 0.79804 0.80004 0.85726
 C50 C 0.83879 0.77684 0.83613
 C51 C 0.85727 0.79536 0.79176
 H52 H 0.77465 0.88666 0.77139
 H53 H 0.78339 0.78728 0.89177
 H54 H 0.88945 0.77876 0.77582
 C55 C 0.15943 0.83806 1.22431
 C56 C 0.13942 0.79457 1.20560
 C57 C 0.16248 0.76933 1.16754
 C58 C 0.20644 0.78705 1.14818
 C59 C 0.22561 0.83152 1.16454
 C60 C 0.20203 0.85688 1.20230
 H61 H 0.10571 0.78000 1.22036
 H62 H 0.22387 0.76803 1.11821
 H63 H 0.21758 0.89102 1.21475
 C64 C 0.83598 1.16705 1.23051
 C65 C 0.79277 1.14661 1.21160
 C66 C 0.77386 1.16250 1.16682
 C67 C 0.79677 1.20065 1.14149
 C68 C 0.83819 1.22398 1.16097
 C69 C 0.85778 1.20628 1.20522
 H70 H 0.77505 1.11643 1.23012
 H71 H 0.78144 1.21257 1.10698
 H72 H 0.89041 1.22297 1.21999
 O73 O 0.43154 0.91525 0.91175
 O74 O 0.37797 0.95751 0.96056
 C75 C 0.38779 0.92641 0.92632
 O76 O 0.56924 0.90752 1.08604
 O77 O 0.62244 0.95660 1.04353
 C78 C 0.61290 0.92242 1.07490
 O79 O 0.43148 0.90347 1.08176
 O80 O 0.37821 0.95439 1.04152
 C81 C 0.38774 0.91845 1.07086
 O82 O 0.56906 0.91956 0.90781
 O83 O 0.62223 0.95925 0.95886
 C84 C 0.61277 0.93033 0.92278
 Zr85 Zr 0.50030 0.93982 0.93761
 O86 O 0.50576 0.86269 0.93607
 O87 O 0.49538 0.94174 0.86058
 Zr88 Zr 0.50031 0.93273 1.06071
 O89 O 0.50559 0.85573 1.05701
 O90 O 0.49500 0.92926 1.13774
 O91 O 0.45666 0.92688 0.99862
 O92 O 0.54278 0.92748 0.99865
 O93 O 0.56870 1.08885 0.91895
 O94 O 0.62224 1.03984 0.96122
 C95 C 0.61242 1.07404 0.92993
 O96 O 0.43177 1.08224 1.09267
 O97 O 0.37821 1.03757 1.04624
 C98 C 0.38809 1.07003 1.07911
 O99 O 0.56903 1.07747 1.09650
 O100 O 0.62220 1.03724 1.04574
 C101 C 0.61272 1.06664 1.08146
 O102 O 0.43141 1.09273 0.92314
 O103 O 0.37810 1.04202 0.96340
 C104 C 0.38771 1.07786 0.93399
 Zr105 Zr 0.50005 1.06349 0.94432
 O106 O 0.50521 1.14050 0.94801
 O107 O 0.49472 1.06697 0.86729
 Zr108 Zr 0.50023 1.05622 1.06763
 O109 O 0.50571 1.13323 1.07137
 O110 O 0.49494 1.05168 1.14459
 Zr111 Zr 0.42769 0.99819 1.00247
 Zr112 Zr 0.57258 0.99816 1.00243
 O113 O 0.54245 1.06875 1.00637
 O114 O 0.45651 1.06941 1.00654
 O115 O 0.54354 1.00224 0.93131
 O116 O 0.45797 0.99399 1.07301
 O117 O 0.45795 1.00218 0.93197
 O118 O 0.54375 0.99394 1.07367
 H119 H 0.56509 0.89901 0.99710
 H120 H 0.43600 0.99231 1.10169
 H121 H 0.56451 1.09735 1.00781
 H122 H 0.43594 1.00385 0.90332
 H123 H 0.52357 0.94659 1.15134
 H124 H 0.52166 1.03021 1.15604
 H125 H 0.47776 1.14710 1.05313
 H126 H 0.47900 1.15200 0.97001
 H127 H 0.52362 1.05012 0.85363
 H128 H 0.51840 0.96704 0.84903
 H129 H 0.47552 0.84927 0.95059
 H130 H 0.47993 0.84438 1.03436
 O131 O 0.08360 0.57178 -0.08683
 O132 O 0.03655 0.62347 -0.04058
 C133 C 0.06945 0.61502 -0.07349
 O134 O -0.09356 0.43403 -0.08793
 O135 O -0.04449 0.37930 -0.04740
 C136 C -0.07925 0.38995 -0.07764
 O137 O -0.08720 0.57149 -0.08959
 O138 O -0.04424 0.62319 -0.03961
 C139 C -0.07498 0.61467 -0.07446
 O140 O 0.08914 0.43431 -0.08620
 O141 O 0.03908 0.37936 -0.04731
 C142 C 0.07454 0.39017 -0.07671
 Zr143 Zr 0.05850 0.50197 -0.06410
 O144 O 0.05256 0.49934 -0.14115
 O145 O 0.13518 0.50556 -0.07176
 Zr146 Zr -0.06501 0.50185 -0.06357
 O147 O -0.06515 0.49862 -0.14074
 O148 O -0.14208 0.50807 -0.06314
 O149 O -0.00328 0.54583 -0.07178
 O150 O -0.00314 0.45976 -0.07425
 O151 O 0.08710 0.42787 0.07938
 O152 O 0.03867 0.37604 0.03494
 C153 C 0.07311 0.38460 0.06616
 O154 O -0.08896 0.56501 0.08876
 O155 O -0.04291 0.62001 0.04517
 C156 C -0.07529 0.60912 0.07792
 O157 O -0.09077 0.42788 0.08192
 O158 O -0.04416 0.37604 0.03532
 C159 C -0.07741 0.38469 0.06779
 O160 O 0.08395 0.56506 0.08770
 O161 O 0.03732 0.62008 0.04467
 C162 C 0.07017 0.60920 0.07699
 Zr163 Zr 0.05920 0.49743 0.05926
 O164 O 0.05814 0.48969 0.13617
 O165 O 0.13639 0.50212 0.06006
 Zr166 Zr -0.06469 0.49741 0.05976
 O167 O -0.06460 0.49029 0.13670
 O168 O -0.14189 0.50197 0.05910
 Zr169 Zr -0.00307 0.57207 0.00056
 Zr170 Zr -0.00292 0.42720 -0.00459
 O171 O -0.00260 0.45498 0.06700
 O172 O -0.00274 0.54046 0.07072
 O173 O 0.06846 0.45630 -0.00388
 O174 O -0.07376 0.54202 -0.00047
 O175 O 0.06772 0.54199 -0.00097
 O176 O -0.07435 0.45602 -0.00329
 H177 H -0.00302 0.43837 -0.10336
 H178 H -0.10237 0.56420 0.00018
 H179 H -0.00225 0.43212 0.09509
 H180 H 0.09648 0.56389 -0.00022
 H181 H -0.15492 0.48113 -0.04278
 H182 H -0.15432 0.47369 0.04050
 H183 H -0.04392 0.51674 0.14987
 H184 H 0.04039 0.51811 0.14963
 H185 H 0.14921 0.47554 0.03927
 H186 H 0.14893 0.50275 -0.03858
 H187 H 0.04160 0.53186 -0.15257
 H188 H -0.04337 0.52483 -0.15270
 O189 O 0.91316 0.08418 0.57193
 O190 O 0.96051 0.03790 0.62361
 C191 C 0.92669 0.06987 0.61504
 O192 O 0.91899 -0.08557 0.42811
 O193 O 0.96155 -0.03501 0.37638
 C194 C 0.93108 -0.07008 0.38498
 O195 O 0.91303 -0.08544 0.56522
 O196 O 0.96052 -0.04402 0.62043
 C197 C 0.92634 -0.07471 0.60934
 O198 O 0.91501 0.09239 0.43512
 O199 O 0.96101 0.04940 0.37972
 C200 C 0.92820 0.08158 0.39096
 Zr201 Zr 0.93991 0.06323 0.50242
 O202 O 0.86271 0.06236 0.49799
 O203 O 0.93969 0.14014 0.50994
 Zr204 Zr 0.94128 -0.06024 0.49767
 O205 O 0.86422 -0.06141 0.49175
 O206 O 0.94279 -0.13749 0.50081
 O207 O 0.93106 -0.00036 0.54354
 O208 O 0.93152 0.00313 0.45781
 O209 O 1.08778 0.09369 0.43455
 O210 O 1.04287 0.04927 0.37954
 C211 C 1.07483 0.08226 0.39045
 O212 O 1.09336 -0.08409 0.56510
 O213 O 1.04432 -0.04418 0.62014
 C214 C 1.07917 -0.07416 0.60919
 O215 O 1.08698 -0.08408 0.42755
 O216 O 1.04275 -0.03464 0.37598
 C217 C 1.07399 -0.06919 0.38442
 O218 O 1.09005 0.08559 0.57181
 O219 O 1.04458 0.03759 0.62360
 C220 C 1.07737 0.07056 0.61498
 Zr221 Zr 1.06362 0.06427 0.50220
 O222 O 1.14081 0.06459 0.49753
 O223 O 1.06249 0.14118 0.50965
 Zr224 Zr 1.06480 -0.05903 0.49742
 O225 O 1.14186 -0.05793 0.49122
 O226 O 1.06572 -0.13627 0.50042
 Zr227 Zr 1.00242 -0.00103 0.57240
 Zr228 Zr 1.00210 0.00528 0.42747
 O229 O 1.07291 0.00438 0.45744
 O230 O 1.07377 0.00090 0.54338
 O231 O 1.00158 0.07528 0.45916
 O232 O 1.00316 -0.07038 0.53952
 O233 O 1.00177 0.07082 0.54486
 O234 O 1.00302 -0.06723 0.45372
 H235 H 0.90276 0.00355 0.43587
 H236 H 1.00335 -0.09988 0.56053
 H237 H 1.10157 0.00514 0.43537
 H238 H 1.00161 0.09871 0.56782
 H239 H 0.96217 -0.14909 0.47266
 H240 H 1.04537 -0.14830 0.47319
 H241 H 1.15461 -0.03844 0.51873
 H242 H 1.15349 0.04482 0.52502
 H243 H 1.04309 0.15454 0.48224
 H244 H 0.95896 0.15382 0.48261
 H245 H 0.85045 0.04235 0.52548
 H246 H 0.85105 -0.04063 0.51812
 N247 N 1.16524 0.11154 0.29631
 C248 C 1.14149 0.14553 0.26884
 N249 N 1.09606 0.15977 0.28319
 N250 N 1.07509 0.14038 0.32261
 C251 C 1.09913 0.10665 0.34979
 N252 N 1.14452 0.09252 0.33602
 N253 N 0.85023 -0.09252 0.28089
 C254 C 0.86505 -0.13741 0.26569
 N255 N 0.90222 -0.15960 0.29019
 N256 N 0.92328 -0.13816 0.32831
 C257 C 0.90828 -0.09345 0.34314
 N258 N 0.87161 -0.07083 0.31871
 N259 N 0.84399 0.09268 0.71787
 C260 C 0.86066 0.13615 0.73510
 N261 N 0.89944 0.15720 0.71226
 N262 N 0.92040 0.13599 0.67393
 C263 C 0.90349 0.09279 0.65698
 N264 N 0.86508 0.07132 0.67963
 N265 N 1.16904 -0.10838 0.70263
 C266 C 1.14397 -0.14197 0.72942
 N267 N 1.09798 -0.15387 0.71502
 N268 N 1.07769 -0.13268 0.67622
 C269 C 1.10291 -0.09937 0.64969
 N270 N 1.14898 -0.08760 0.66340
 N271 N 0.28694 1.15529 1.09955
 C272 C 0.26978 1.14105 1.14397
 N273 N 0.29258 1.10328 1.16702
 N274 N 0.33062 1.08081 1.14660
 C275 C 0.34710 1.09501 1.10214
 N276 N 0.32474 1.13265 1.07898
 N277 N 0.31155 0.86688 0.83330
 C278 C 0.26977 0.85812 0.85853
 N279 N 0.26706 0.87188 0.90601
 N280 N 0.30463 0.89392 0.92747
 C281 C 0.34654 0.90233 0.90242
 N282 N 0.34947 0.88820 0.85503
 N283 N 0.73426 0.90437 1.12905
 C284 C 0.73232 0.85709 1.14387
 N285 N 0.69077 0.83123 1.13605
 N286 N 0.65236 0.85214 1.11455
 C287 C 0.65452 0.89933 1.09938
 N288 N 0.69620 0.92499 1.10686
 N289 N 0.73284 1.09322 0.87419
 C290 C 0.72990 1.14036 0.85907
 N291 N 0.68815 1.16577 0.86748
 N292 N 0.65045 1.14453 0.88978
 C293 C 0.65358 1.09748 0.90522
 N294 N 0.69548 1.07226 0.89718
 N295 N 0.16464 0.30704 0.12691
 C296 C 0.13942 0.26494 0.13380
 N297 N 0.09260 0.26216 0.11785
 N298 N 0.07181 0.30011 0.09552
 C299 C 0.09683 0.34241 0.08906
 N300 N 0.14357 0.34528 0.10530
 N301 N -0.09719 0.27014 -0.13415
 C302 C -0.14513 0.27135 -0.14652
 N303 N -0.17159 0.31213 -0.13654
 N304 N -0.15058 0.35052 -0.11530
 C305 C -0.10268 0.34897 -0.10251
 N306 N -0.07645 0.30810 -0.11222
 N307 N 0.08986 0.73860 -0.12219
 C308 C 0.13656 0.73551 -0.13849
 N309 N 0.16101 0.69265 -0.13356
 N310 N 0.13941 0.65406 -0.11328
 C311 C 0.09285 0.65722 -0.09657
 N312 N 0.06852 0.70021 -0.10117
 N313 N -0.16679 0.68566 0.13970
 C314 C -0.14101 0.72712 0.14810
 N315 N -0.09352 0.72914 0.13410
 N316 N -0.07260 0.69132 0.11199
 C317 C -0.09818 0.64977 0.10383
 N318 N -0.14558 0.64745 0.11829
 N319 N 1.10352 0.15898 0.71161
 C320 C 1.14149 0.13775 0.73570
 N321 N 1.15817 0.09387 0.71938
 N322 N 1.13777 0.07226 0.68091
 C323 C 1.10018 0.09393 0.65699
 N324 N 1.08334 0.13757 0.67300
 N325 N 0.83537 -0.10527 0.70279
 C326 C 0.85703 -0.14322 0.72659
 N327 N 0.90137 -0.15885 0.71045
 N328 N 0.92328 -0.13723 0.67278
 C329 C 0.90150 -0.09937 0.64945
 N330 N 0.85709 -0.08387 0.66484
 N331 N 1.15532 -0.09493 0.28113
 C332 C 1.13736 -0.13797 0.26412
 N333 N 1.09809 -0.15782 0.28725
 N334 N 1.07792 -0.13590 0.32564
 C335 C 1.09611 -0.09311 0.34234
 N336 N 1.13500 -0.07284 0.31937
 N337 N 0.83599 0.11131 0.29869
 C338 C 0.85811 0.14740 0.27264
 N339 N 0.90320 0.16248 0.28708
 N340 N 0.92541 0.14199 0.32525
 C341 C 0.90309 0.10601 0.35087
 N342 N 0.85796 0.09113 0.33714
 N343 N 0.09502 0.27080 -0.13361
 C344 C 0.14313 0.27266 -0.14527
 N345 N 0.16886 0.31364 -0.13454
 N346 N 0.14698 0.35161 -0.11330
 C347 C 0.09892 0.34942 -0.10122
 N348 N 0.07340 0.30834 -0.11168
 N349 N -0.15768 0.28035 0.09320
 C350 C -0.14037 0.26419 0.13695
 N351 N -0.10215 0.28838 0.15736
 N352 N -0.08231 0.32691 0.13529
 C353 C -0.09978 0.34275 0.09181
 N354 N -0.13766 0.31877 0.07095
 N355 N -0.10351 0.71028 -0.16408
 C356 C -0.13931 0.73605 -0.14117
 N357 N -0.15371 0.72107 -0.09602
 N358 N -0.13312 0.68240 -0.07470
 C359 C -0.09777 0.65677 -0.09799
 N360 N -0.08328 0.67130 -0.14302
 N361 N 0.09082 0.72955 0.13201
 C362 C 0.13841 0.72673 0.14559
 N363 N 0.16339 0.68470 0.13726
 N364 N 0.14135 0.64674 0.11634
 C365 C 0.09387 0.64982 0.10230
 N366 N 0.06906 0.69194 0.11037
 N367 N 0.31127 1.16952 0.87164
 C368 C 0.27014 1.14351 0.86221
 N369 N 0.26768 1.09633 0.87720
 N370 N 0.30493 1.07586 0.90084
 C371 C 0.34624 1.10162 0.90985
 N372 N 0.34891 1.14876 0.89461
 N373 N 0.26664 0.90081 1.12559
 C374 C 0.26822 0.85345 1.14013
 N375 N 0.30935 0.82703 1.13139
 N376 N 0.34774 0.84755 1.10944
 C377 C 0.34590 0.89489 1.09463
 N378 N 0.30461 0.92103 1.10298
 N379 N 0.73342 1.12230 1.09810
 C380 C 0.73159 1.13756 1.14511
 N381 N 0.69054 1.12888 1.17163
 N382 N 0.65240 1.10630 1.15154
 C383 C 0.65446 1.09075 1.10456
 N384 N 0.69568 1.09905 1.07831
 N385 N 0.73414 0.87654 0.90362
 C386 C 0.73217 0.86269 0.85617
 N387 N 0.69073 0.87151 0.83031
 N388 N 0.65240 0.89293 0.85139
 C389 C 0.65459 0.90708 0.89879
 N390 N 0.69617 0.89864 0.92442
   
