data_POSCAR
  _audit_creation_date              2014-09-24
  _audit_creation_method            'ToBaCCo'
  _symmetry_space_group_name_H-M    'P1'
  _symmetry_Int_Tables_number       1
  _symmetry_cell_setting            triclinic
  loop_
  _symmetry_equiv_pos_as_xyz
 x,y,z
_cell_length_a 57.8258
_cell_length_b 56.7258
_cell_length_c 56.8220
_cell_angle_alpha 90.454400
_cell_angle_beta 90.384000
_cell_angle_gamma 89.483800
loop_
  _atom_site_label
  _atom_site_type_symbol
  _atom_site_fract_x
  _atom_site_fract_y
  _atom_site_fract_z
N1 N 0.18446 1.23607 0.16919
 N2 N 0.16834 1.23582 0.18535
 C3 C 0.15280 1.25304 0.18082
 C4 C 0.15947 1.26482 0.16062
 C5 C 0.17977 1.25343 0.15385
 H6 H 0.13770 1.25653 0.19141
 H7 H 0.19032 1.25713 0.13873
 Cu8 Cu 0.16910 1.21258 0.21038
 Cu9 Cu 0.20997 1.21340 0.16871
 Cu10 Cu 0.21166 1.17201 0.21333
 N11 N 0.17038 1.18955 0.23558
 N12 N 0.18704 1.17370 0.23655
 C13 C 0.18368 1.15970 0.25519
 C14 C 0.16372 1.16707 0.26670
 C15 C 0.15583 1.18619 0.25363
 H16 H 0.19495 1.14513 0.25974
 H17 H 0.14051 1.19675 0.25675
 N18 N 0.23496 1.17323 0.18820
 N19 N 0.23434 1.18900 0.17126
 C20 C 0.25218 1.18494 0.15662
 C21 C 0.26470 1.16563 0.16465
 C22 C 0.25322 1.15873 0.18476
 H23 H 0.25565 1.19520 0.14114
 H24 H 0.25754 1.14393 0.19584
 H25 H 0.19298 1.18669 0.18590
 H26 H 0.21052 1.20720 0.20446
 N27 N 0.80690 0.75676 0.18642
 N28 N 0.82470 0.75885 0.20077
 C29 C 0.84076 0.74249 0.19515
 C30 C 0.83252 0.72927 0.17632
 C31 C 0.81087 0.73876 0.17137
 H32 H 0.85726 0.74052 0.20403
 H33 H 0.79926 0.73366 0.15726
 Cu34 Cu 0.82535 0.78296 0.22525
 Cu35 Cu 0.78086 0.77885 0.18755
 Cu36 Cu 0.79716 0.83279 0.21124
 N37 N 0.82891 0.81148 0.24394
 N38 N 0.81850 0.83119 0.23786
 C39 C 0.82529 0.84860 0.25246
 C40 C 0.84065 0.83927 0.26894
 C41 C 0.84239 0.81551 0.26291
 H42 H 0.81917 0.86660 0.25117
 H43 H 0.85324 0.80223 0.27104
 N44 N 0.76967 0.82870 0.19088
 N45 N 0.76307 0.80806 0.18248
 C46 C 0.74346 0.81096 0.16992
 C47 C 0.73727 0.83463 0.17052
 C48 C 0.75433 0.84529 0.18403
 H49 H 0.73443 0.79682 0.16104
 H50 H 0.75558 0.86377 0.18857
 H51 H 0.80611 0.80252 0.19234
 H52 H 0.78672 0.79945 0.21823
 N53 N 0.79734 1.24343 -0.17860
 N54 N 0.81087 1.24454 -0.19703
 C55 C 0.82506 1.26308 -0.19451
 C56 C 0.82017 1.27428 -0.17331
 C57 C 0.80239 1.26127 -0.16376
 H58 H 0.83820 1.26774 -0.20704
 H59 H 0.79427 1.26402 -0.14687
 Cu60 Cu 0.80966 1.22103 -0.22203
 Cu61 Cu 0.77523 1.21810 -0.17450
 Cu62 Cu 0.77961 1.17132 -0.21357
 N63 N 0.81481 1.19302 -0.24123
 N64 N 0.80352 1.17346 -0.23742
 C65 C 0.81111 1.15664 -0.25236
 C66 C 0.82812 1.16613 -0.26653
 C67 C 0.82987 1.18941 -0.25888
 H68 H 0.80451 1.13889 -0.25284
 H69 H 0.84161 1.20266 -0.26511
 N70 N 0.75646 1.17270 -0.18831
 N71 N 0.75465 1.19062 -0.17350
 C72 C 0.73737 1.18641 -0.15838
 C73 C 0.72776 1.16472 -0.16390
 C74 C 0.74037 1.15661 -0.18304
 H75 H 0.73233 1.19823 -0.14430
 H76 H 0.73809 1.14020 -0.19248
 H77 H 0.79693 1.19453 -0.19155
 H78 H 0.77218 1.20688 -0.20916
 N79 N 0.19457 0.75736 -0.17479
 N80 N 0.17913 0.75747 -0.19184
 C81 C 0.16378 0.74021 -0.18809
 C82 C 0.16991 0.72858 -0.16756
 C83 C 0.18962 0.74001 -0.15966
 H84 H 0.14896 0.73674 -0.19923
 H85 H 0.19956 0.73623 -0.14396
 Cu86 Cu 0.17989 0.78067 -0.21689
 Cu87 Cu 0.21937 0.78023 -0.17289
 Cu88 Cu 0.22042 0.82307 -0.21585
 N89 N 0.18028 0.80572 -0.24012
 N90 N 0.19615 0.82212 -0.23968
 C91 C 0.19203 0.83740 -0.25722
 C92 C 0.17233 0.83037 -0.26944
 C93 C 0.16543 0.81007 -0.25796
 H94 H 0.20248 0.85271 -0.26043
 H95 H 0.15054 0.79936 -0.26195
 N96 N 0.24352 0.82117 -0.19031
 N97 N 0.24311 0.80485 -0.17392
 C98 C 0.26057 0.80868 -0.15860
 C99 C 0.27261 0.82841 -0.16563
 C100 C 0.26126 0.83580 -0.18586
 H101 H 0.26409 0.79800 -0.14332
 H102 H 0.26524 0.85106 -0.19628
 H103 H 0.20120 0.80659 -0.19023
 H104 H 0.22075 0.78748 -0.20841
 C105 C 0.53593 1.02987 -0.00283
 H106 H 0.53651 1.03015 0.01621
 C107 C 0.55153 1.04328 -0.01557
 H108 H 0.56418 1.05377 -0.00618
 C109 C 0.51935 1.01490 -0.03809
 H110 H 0.50706 1.00351 -0.04680
 C111 C 0.53466 1.02802 -0.05154
 H112 H 0.53365 1.02693 -0.07055
 N113 N 0.52018 1.01614 -0.01418
 C114 C 0.46557 1.00539 0.03705
 H115 H 0.46525 0.98633 0.03736
 C116 C 0.44961 1.01842 0.05025
 H117 H 0.43695 1.00921 0.06060
 C118 C 0.48179 1.04042 0.02216
 H119 H 0.49406 1.04893 0.01087
 C120 C 0.46611 1.05415 0.03505
 H121 H 0.46683 1.07317 0.03387
 Zn122 Zn 0.50090 0.99736 0.00466
 N123 N 0.48127 1.01650 0.02343
 C124 C 0.52006 0.98003 0.04756
 N125 N 0.52063 0.97862 0.02366
 C126 C 0.53648 0.96481 0.01242
 C127 C 0.55248 0.95150 0.02528
 C128 C 0.53580 0.96705 0.06112
 C129 C 0.46565 0.98935 -0.02812
 C130 C 0.45008 0.97635 -0.04175
 C131 C 0.46723 0.94058 -0.02644
 C132 C 0.48252 0.95428 -0.01312
 N133 N 0.48154 0.97821 -0.01430
 H134 H 0.50767 0.99149 0.05617
 H135 H 0.53684 0.96441 -0.00661
 H136 H 0.56522 0.94096 0.01597
 H137 H 0.53506 0.96832 0.08012
 H138 H 0.46495 1.00841 -0.02834
 H139 H 0.43734 0.98557 -0.05235
 H140 H 0.46836 0.92155 -0.02540
 H141 H 0.49491 0.94575 -0.00164
 C142 C 0.44965 1.04315 0.04924
 C143 C 0.55108 1.04240 -0.04028
 C144 C 0.45069 0.95161 -0.04096
 C145 C 0.55236 0.95261 0.04997
 C146 C -0.01056 0.53609 1.02859
 H147 H 0.00810 0.53483 1.02953
 C148 C -0.02232 0.55242 1.04270
 H149 H -0.01251 0.56331 1.05481
 C150 C -0.04583 0.52316 1.01166
 H151 H -0.05488 0.51207 0.99918
 C152 C -0.05828 0.53944 1.02527
 H153 H -0.07685 0.54066 1.02301
 N154 N -0.02241 0.52170 1.01366
 C155 C 0.02558 0.46322 1.00116
 H156 H 0.02567 0.46303 0.98212
 C157 C 0.03845 0.44645 1.01360
 H158 H 0.04830 0.43329 1.00395
 C159 C 0.01177 0.48006 1.03673
 H160 H 0.00103 0.49289 1.04570
 C161 C 0.02438 0.46362 1.04988
 H162 H 0.02359 0.46438 1.06890
 Zn163 Zn -0.00490 0.50101 0.99435
 N164 N 0.01276 0.47971 1.01282
 C165 C 0.03802 0.51800 0.97727
 N166 N 0.01459 0.52002 0.97596
 C167 C 0.00425 0.53683 0.96249
 C168 C 0.01756 0.55231 0.94939
 C169 C 0.05201 0.53317 0.96449
 C170 C -0.03893 0.46747 0.98592
 C171 C -0.05308 0.45244 0.97278
 C172 C -0.03726 0.46873 0.93724
 C173 C -0.02341 0.48348 0.95108
 N174 N -0.02456 0.48264 0.97496
 H175 H 0.04595 0.50489 0.98847
 H176 H -0.01442 0.53835 0.96216
 H177 H 0.00897 0.56582 0.93909
 H178 H 0.07063 0.53123 0.96565
 H179 H -0.03917 0.46688 1.00494
 H180 H -0.06407 0.44019 0.98187
 H181 H -0.03621 0.46972 0.91826
 H182 H -0.01154 0.49530 0.94269
 C183 C 0.03796 0.44651 1.03831
 C184 C -0.04653 0.55438 1.04108
 C185 C -0.05228 0.45287 0.94809
 C186 C 0.04179 0.55066 0.95036
 C187 C 1.03786 -0.00413 0.53981
 H188 H 1.03696 0.01480 0.54216
 C189 C 1.05150 -0.01773 0.55494
 H190 H 1.06095 -0.00910 0.56903
 C191 C 1.02571 -0.03834 0.51914
 H192 H 1.01540 -0.04630 0.50535
 C193 C 1.03911 -0.05264 0.53392
 H194 H 1.03926 -0.07154 0.53108
 N195 N 1.02539 -0.01455 0.52232
 C196 C 1.01280 0.03957 0.46978
 H197 H 0.99411 0.03932 0.46895
 C198 C 1.02512 0.05353 0.45419
 H199 H 1.01572 0.06390 0.44132
 C200 C 1.04767 0.02514 0.48669
 H201 H 1.05641 0.01367 0.49902
 C202 C 1.06068 0.03887 0.47147
 H203 H 1.07936 0.03817 0.47265
 Zn204 Zn 1.00616 0.00515 0.50383
 N205 N 1.02417 0.02568 0.48552
 C206 C 0.98797 0.04638 0.52592
 N207 N 0.98709 0.02245 0.52482
 C208 C 0.97370 0.01009 0.53984
 C209 C 0.96005 0.02183 0.55644
 C210 C 0.97483 0.05883 0.54248
 C211 C 0.99987 -0.02308 0.46411
 C212 C 0.98793 -0.03574 0.44682
 C213 C 0.95246 -0.02825 0.46797
 C214 C 0.96502 -0.01530 0.48462
 N215 N 0.98834 -0.01312 0.48251
 H216 H 0.99924 0.05585 0.51430
 H217 H 0.97371 -0.00896 0.53895
 H218 H 0.94916 0.01157 0.56782
 H219 H 0.97627 0.07783 0.54340
 H220 H 1.01837 -0.02086 0.46273
 H221 H 0.99731 -0.04343 0.43217
 H222 H 0.93390 -0.02978 0.46975
 H223 H 0.95603 -0.00683 0.49900
 C224 C 1.04942 0.05311 0.45473
 C225 C 1.05217 -0.04235 0.55217
 C226 C 0.96394 -0.03845 0.44870
 C227 C 0.96058 0.04656 0.55808
 C228 C 0.12458 0.32114 1.12594
 C229 C 0.14566 0.31226 1.11734
 C230 C 0.15720 0.29384 1.12880
 C231 C 0.14801 0.28373 1.14928
 C232 C 0.12695 0.29291 1.15796
 C233 C 0.11542 0.31130 1.14644
 C234 C 0.11211 0.34035 1.11346
 N235 N 0.09122 0.34826 1.12113
 N236 N 0.07987 0.36526 1.10971
 C237 C 0.08892 0.37510 1.09013
 N238 N 0.10985 0.36724 1.08252
 N239 N 0.12120 0.35024 1.09393
 C240 C 0.07609 0.39373 1.07718
 C241 C 0.08573 0.40422 1.05720
 C242 C 0.07344 0.42144 1.04472
 C243 C 0.05123 0.42858 1.05188
 C244 C 0.04166 0.41823 1.07195
 C245 C 0.05395 0.40103 1.08446
 H246 H 0.15326 0.31943 1.10161
 H247 H 0.17331 0.28767 1.12135
 H248 H 0.11906 0.28594 1.17359
 H249 H 0.09923 0.31774 1.15360
 H250 H 0.10278 0.39913 1.05115
 H251 H 0.08143 0.42931 1.02953
 H252 H 0.02446 0.42311 1.07776
 H253 H 0.04595 0.39330 1.09971
 C254 C -0.13160 0.67488 1.13740
 C255 C -0.11929 0.69123 1.15120
 C256 C -0.13096 0.70863 1.16412
 C257 C -0.15521 0.71025 1.16332
 C258 C -0.16755 0.69386 1.14962
 C259 C -0.15588 0.67626 1.13691
 C260 C -0.11911 0.65676 1.12337
 N261 N -0.13041 0.63793 1.11406
 N262 N -0.11913 0.62177 1.10130
 C263 C -0.09612 0.62385 1.09720
 N264 N -0.08486 0.64270 1.10647
 N265 N -0.09610 0.65878 1.11933
 C266 C -0.08356 0.60606 1.08283
 C267 C -0.06153 0.61101 1.07395
 C268 C -0.04963 0.59433 1.06034
 C269 C -0.05934 0.57216 1.05548
 C270 C -0.08137 0.56720 1.06444
 C271 C -0.09339 0.58400 1.07785
 H272 H -0.10058 0.69062 1.15204
 H273 H -0.12091 0.72109 1.17434
 H274 H -0.18625 0.69453 1.14878
 H275 H -0.16588 0.66394 1.12644
 H276 H -0.05354 0.62792 1.07727
 H277 H -0.03293 0.59899 1.05335
 H278 H -0.08924 0.55019 1.06138
 H279 H -0.11028 0.57958 1.08456
 C280 C -0.14388 0.33235 0.85950
 C281 C -0.13464 0.32087 0.83962
 C282 C -0.14644 0.30229 0.82876
 C283 C -0.16776 0.29468 0.83755
 C284 C -0.17718 0.30643 0.85719
 C285 C -0.16541 0.32503 0.86802
 C286 C -0.13093 0.35141 0.87162
 N287 N -0.13990 0.36258 0.89078
 N288 N -0.12799 0.37922 0.90209
 C289 C -0.10659 0.38541 0.89476
 N290 N -0.09767 0.37433 0.87553
 N291 N -0.10959 0.35770 0.86420
 C292 C -0.09304 0.40339 0.90782
 C293 C -0.07041 0.40886 0.90094
 C294 C -0.05732 0.42514 0.91380
 C295 C -0.06655 0.43636 0.93383
 C296 C -0.08930 0.43119 0.94049
 C297 C -0.10239 0.41490 0.92764
 H298 H -0.11812 0.32605 0.83254
 H299 H -0.13856 0.29366 0.81375
 H300 H -0.19367 0.30129 0.86431
 H301 H -0.17311 0.33351 0.88324
 H302 H -0.06262 0.40031 0.88581
 H303 H -0.03975 0.42851 0.90838
 H304 H -0.09702 0.43979 0.95563
 H305 H -0.11979 0.41123 0.93339
 C306 C 0.13359 0.67204 0.86622
 C307 C 0.15217 0.68326 0.87761
 C308 C 0.16402 0.70144 0.86661
 C309 C 0.15762 0.70889 0.84391
 C310 C 0.13916 0.69749 0.83244
 C311 C 0.12729 0.67931 0.84346
 C312 C 0.12067 0.65314 0.87817
 N313 N 0.10216 0.64283 0.86760
 N314 N 0.09029 0.62619 0.87853
 C315 C 0.09643 0.61912 0.90051
 N316 N 0.11500 0.62935 0.91104
 N317 N 0.12685 0.64600 0.90011
 C318 C 0.08289 0.60099 0.91293
 C319 C 0.08931 0.59374 0.93568
 C320 C 0.07616 0.57720 0.94768
 C321 C 0.05625 0.56754 0.93724
 C322 C 0.04997 0.57457 0.91439
 C323 C 0.06314 0.59107 0.90236
 H324 H 0.15750 0.67815 0.89516
 H325 H 0.17803 0.70976 0.87613
 H326 H 0.13378 0.70252 0.81491
 H327 H 0.11311 0.67103 0.83412
 H328 H 0.10439 0.60101 0.94438
 H329 H 0.08130 0.57238 0.96537
 H330 H 0.03488 0.56722 0.90576
 H331 H 0.05772 0.59617 0.88484
 C332 C 1.13242 0.13625 0.32644
 C333 C 1.12263 0.15634 0.31591
 C334 C 1.13298 0.16660 0.29638
 C335 C 1.15351 0.15708 0.28678
 C336 C 1.16342 0.13711 0.29768
 C337 C 1.15300 0.12686 0.31716
 C338 C 1.12101 0.12487 0.34665
 N339 N 1.12955 0.10445 0.35569
 N340 N 1.11898 0.09386 0.37342
 C341 C 1.09943 0.10324 0.38291
 N342 N 1.09097 0.12374 0.37398
 N343 N 1.10152 0.13433 0.35623
 C344 C 1.08724 0.09098 0.40209
 C345 C 1.06753 0.10112 0.41260
 C346 C 1.05551 0.08906 0.42998
 C347 C 1.06287 0.06655 0.43722
 C348 C 1.08278 0.05659 0.42698
 C349 C 1.09484 0.06867 0.40968
 H350 H 1.10678 0.16409 0.32261
 H351 H 1.12462 0.18195 0.28890
 H352 H 1.17917 0.12905 0.29122
 H353 H 1.16110 0.11143 0.32487
 H354 H 1.06126 0.11833 0.40729
 H355 H 1.04043 0.09736 0.43776
 H356 H 1.08872 0.03914 0.43188
 H357 H 1.10991 0.06028 0.40195
 C358 C 1.13892 -0.13477 0.67354
 C359 C 1.15951 -0.12594 0.68326
 C360 C 1.17061 -0.13750 0.70185
 C361 C 1.16144 -0.15830 0.71133
 C362 C 1.14094 -0.16728 0.70125
 C363 C 1.12985 -0.15566 0.68266
 C364 C 1.12677 -0.12200 0.65435
 N365 N 1.10633 -0.12991 0.64554
 N366 N 1.09515 -0.11807 0.62874
 C367 C 1.10392 -0.09782 0.62000
 N368 N 1.12441 -0.09000 0.62871
 N369 N 1.13559 -0.10182 0.64552
 C370 C 1.09113 -0.08421 0.60184
 C371 C 1.10022 -0.06316 0.59302
 C372 C 1.08775 -0.04980 0.57664
 C373 C 1.06590 -0.05716 0.56867
 C374 C 1.05698 -0.07841 0.57714
 C375 C 1.06945 -0.09179 0.59353
 H376 H 1.16704 -0.10991 0.67665
 H377 H 1.18632 -0.12982 0.70871
 H378 H 1.13313 -0.18321 0.70767
 H379 H 1.11404 -0.16303 0.67556
 H380 H 1.11691 -0.05684 0.59891
 H381 H 1.09524 -0.03368 0.57019
 H382 H 1.04008 -0.08442 0.57156
 H383 H 1.06190 -0.10789 0.59994
 C384 C 0.87618 -0.12444 0.32368
 C385 C 0.87666 -0.14915 0.32254
 C386 C 0.86509 -0.16113 0.30445
 C387 C 0.85227 -0.14869 0.28728
 C388 C 0.85154 -0.12387 0.28884
 C389 C 0.86355 -0.11193 0.30663
 C390 C 0.88897 -0.11173 0.34240
 N391 N 0.89617 -0.08929 0.33901
 N392 N 0.90793 -0.07789 0.35574
 C393 C 0.91279 -0.08838 0.37661
 N394 N 0.90548 -0.11077 0.38007
 N395 N 0.89390 -0.12226 0.36325
 C396 C 0.92588 -0.07569 0.39512
 C397 C 0.92352 -0.08171 0.41892
 C398 C 0.93572 -0.06946 0.43640
 C399 C 0.95089 -0.05135 0.43032
 C400 C 0.95346 -0.04549 0.40654
 C401 C 0.94089 -0.05738 0.38911
 H402 H 0.88633 -0.15925 0.33544
 H403 H 0.86605 -0.18017 0.30428
 H404 H 0.84213 -0.11341 0.27609
 H405 H 0.86280 -0.09285 0.30714
 H406 H 0.91199 -0.09568 0.42406
 H407 H 0.93355 -0.07429 0.45465
 H408 H 0.96497 -0.03146 0.40149
 H409 H 0.94313 -0.05242 0.37091
 C410 C 0.86710 0.13123 0.68028
 C411 C 0.86884 0.15569 0.68358
 C412 C 0.85611 0.16721 0.70114
 C413 C 0.84095 0.15460 0.71566
 C414 C 0.83907 0.13007 0.71198
 C415 C 0.85210 0.11856 0.69468
 C416 C 0.88095 0.11888 0.66207
 N417 N 0.88463 0.09524 0.66323
 N418 N 0.89718 0.08408 0.64697
 C419 C 0.90645 0.09607 0.62877
 N420 N 0.90270 0.11970 0.62754
 N421 N 0.89027 0.13090 0.64391
 C422 C 0.92037 0.08357 0.61071
 C423 C 0.92414 0.09373 0.58862
 C424 C 0.93703 0.08172 0.57151
 C425 C 0.94673 0.05939 0.57621
 C426 C 0.94313 0.04940 0.59846
 C427 C 0.92997 0.06126 0.61542
 H428 H 0.88030 0.16595 0.67276
 H429 H 0.85810 0.18607 0.70301
 H430 H 0.82785 0.11944 0.72261
 H431 H 0.85029 0.09968 0.69251
 H432 H 0.91681 0.11084 0.58440
 H433 H 0.93909 0.08981 0.55447
 H434 H 0.95074 0.03252 0.60297
 H435 H 0.92759 0.05307 0.63237
 C436 C 0.32370 1.13181 0.13208
 C437 C 0.31645 1.12509 0.15459
 C438 C 0.29749 1.13620 0.16524
 C439 C 0.28528 1.15429 0.15364
 C440 C 0.29274 1.16120 0.13124
 C441 C 0.31170 1.15011 0.12061
 C442 C 0.34334 1.11954 0.12044
 N443 N 0.35032 1.12600 0.09866
 N444 N 0.36759 1.11463 0.08795
 C445 C 0.37864 1.09629 0.09855
 N446 N 0.37173 1.08990 0.12038
 N447 N 0.35447 1.10128 0.13109
 C448 C 0.39743 1.08321 0.08632
 C449 C 0.40834 1.06374 0.09698
 C450 C 0.42548 1.05093 0.08509
 C451 C 0.43213 1.05730 0.06228
 C452 C 0.42146 1.07695 0.05175
 C453 C 0.40431 1.08975 0.06362
 H454 H 0.32533 1.11113 0.16400
 H455 H 0.29249 1.13049 0.18257
 H456 H 0.28384 1.17498 0.12165
 H457 H 0.31679 1.15577 0.10326
 H458 H 0.40355 1.05825 0.11448
 H459 H 0.43359 1.03606 0.09379
 H460 H 0.42597 1.08213 0.03407
 H461 H 0.39627 1.10461 0.05484
 C462 C 0.67223 1.12934 -0.12843
 C463 C 0.67904 1.15204 -0.12132
 C464 C 0.69693 1.16355 -0.13286
 C465 C 0.70849 1.15266 -0.15181
 C466 C 0.70153 1.12999 -0.15898
 C467 C 0.68365 1.11850 -0.14745
 C468 C 0.65353 1.11691 -0.11594
 N469 N 0.64698 1.09497 -0.12281
 N470 N 0.63044 1.08364 -0.11141
 C471 C 0.61973 1.09376 -0.09262
 N472 N 0.62623 1.11574 -0.08579
 N473 N 0.64277 1.12708 -0.09721
 C474 C 0.60165 1.08092 -0.07964
 C475 C 0.59093 1.09121 -0.05988
 C476 C 0.57436 1.07883 -0.04727
 C477 C 0.56809 1.05589 -0.05414
 C478 C 0.57859 1.04571 -0.07405
 C479 C 0.59518 1.05806 -0.08664
 H480 H 0.67061 1.16095 -0.10675
 H481 H 0.70163 1.18098 -0.12680
 H482 H 0.70990 1.12091 -0.17343
 H483 H 0.67887 1.10103 -0.15342
 H484 H 0.59541 1.10880 -0.05403
 H485 H 0.56636 1.08726 -0.03219
 H486 H 0.57437 1.02795 -0.07960
 H487 H 0.60309 1.04956 -0.10173
 C488 C 0.32957 0.86249 -0.12998
 C489 C 0.32286 0.86935 -0.15276
 C490 C 0.30459 0.85815 -0.16440
 C491 C 0.29253 0.83980 -0.15356
 C492 C 0.29946 0.83273 -0.13090
 C493 C 0.31774 0.84393 -0.11927
 C494 C 0.34847 0.87487 -0.11732
 N495 N 0.35495 0.86829 -0.09529
 N496 N 0.37154 0.87976 -0.08369
 C497 C 0.38238 0.89832 -0.09361
 N498 N 0.37598 0.90484 -0.11568
 N499 N 0.35939 0.89337 -0.12728
 C500 C 0.40043 0.91148 -0.08044
 C501 C 0.41106 0.93119 -0.09045
 C502 C 0.42752 0.94404 -0.07775
 C503 C 0.43379 0.93748 -0.05476
 C504 C 0.42342 0.91759 -0.04487
 C505 C 0.40693 0.90475 -0.05755
 H506 H 0.33164 0.88351 -0.16161
 H507 H 0.29999 0.86398 -0.18190
 H508 H 0.29062 0.81877 -0.12187
 H509 H 0.32243 0.83816 -0.10174
 H510 H 0.40656 0.93684 -0.10806
 H511 H 0.43544 0.95909 -0.08597
 H512 H 0.42766 0.91225 -0.02709
 H513 H 0.39910 0.88969 -0.04927
 C514 C 0.67885 0.86841 0.13675
 C515 C 0.69149 0.88018 0.15441
 C516 C 0.71033 0.86919 0.16541
 C517 C 0.71700 0.84612 0.15908
 C518 C 0.70422 0.83425 0.14158
 C519 C 0.68539 0.84527 0.13053
 C520 C 0.65919 0.88033 0.12470
 N521 N 0.64763 0.86949 0.10682
 N522 N 0.63028 0.88040 0.09570
 C523 C 0.62372 0.90261 0.10201
 N524 N 0.63521 0.91340 0.11996
 N525 N 0.65257 0.90250 0.13106
 C526 C 0.60481 0.91502 0.08926
 C527 C 0.59794 0.93792 0.09603
 C528 C 0.58068 0.94994 0.08352
 C529 C 0.56991 0.93939 0.06391
 C530 C 0.57653 0.91638 0.05733
 C531 C 0.59374 0.90432 0.06988
 H532 H 0.68693 0.89799 0.15970
 H533 H 0.71956 0.87882 0.17897
 H534 H 0.70889 0.81654 0.13611
 H535 H 0.67606 0.83566 0.11700
 H536 H 0.60608 0.94672 0.11085
 H537 H 0.57617 0.96776 0.08885
 H538 H 0.56834 0.90767 0.04247
 H539 H 0.59852 0.88668 0.06422
   
