data_POSCAR
  _audit_creation_date              2014-09-24
  _audit_creation_method            'ToBaCCo'
  _symmetry_space_group_name_H-M    'P1'
  _symmetry_Int_Tables_number       1
  _symmetry_cell_setting            triclinic
  loop_
  _symmetry_equiv_pos_as_xyz
 x,y,z
_cell_length_a 24.6106
_cell_length_b 23.6556
_cell_length_c 23.5401
_cell_angle_alpha 89.306700
_cell_angle_beta 89.999900
_cell_angle_gamma 90.000000
loop_
  _atom_site_label
  _atom_site_type_symbol
  _atom_site_fract_x
  _atom_site_fract_y
  _atom_site_fract_z
C1 C 0.33212 0.32701 0.23105
 H2 H 0.33449 0.32546 0.27694
 C3 C 0.36824 0.36087 0.20007
 H4 H 0.39818 0.38565 0.22237
 C5 C 0.29028 0.29606 0.14620
 H6 H 0.26064 0.27001 0.12519
 C7 C 0.32519 0.32982 0.11366
 H8 H 0.32172 0.33016 0.06779
 N9 N 0.29387 0.29580 0.20388
 C10 C 0.16648 0.26947 0.33023
 H11 H 0.16471 0.22377 0.33178
 C12 C 0.13242 0.30115 0.36499
 H13 H 0.10442 0.27959 0.39328
 C14 C 0.20456 0.35309 0.29051
 H15 H 0.23227 0.37317 0.26097
 C16 C 0.17067 0.38637 0.32393
 H17 H 0.17271 0.43200 0.32028
 Zn18 Zn 0.24790 0.25005 0.24967
 N19 N 0.20245 0.29572 0.29486
 C20 C 0.28994 0.20439 0.35344
 N21 N 0.29359 0.20427 0.29575
 C22 C 0.33182 0.17284 0.26884
 C23 C 0.36788 0.13915 0.30009
 C24 C 0.32480 0.17081 0.38625
 C25 C 0.16657 0.23084 0.16882
 C26 C 0.13232 0.19923 0.13418
 C27 C 0.17004 0.11394 0.17560
 C28 C 0.20415 0.14713 0.20888
 N29 N 0.20238 0.20450 0.20433
 H30 H 0.26035 0.23065 0.37425
 H31 H 0.33426 0.17410 0.22295
 H32 H 0.39780 0.11417 0.27798
 H33 H 0.32128 0.17079 0.43211
 H34 H 0.16504 0.27653 0.16711
 H35 H 0.10446 0.22085 0.10579
 H36 H 0.17181 0.06831 0.17944
 H37 H 0.23173 0.12699 0.23852
 C38 C 0.13478 0.36030 0.36227
 C39 C 0.36475 0.36248 0.14068
 C40 C 0.13426 0.14007 0.13718
 C41 C 0.36436 0.13796 0.35949
 C42 C 0.83308 0.82983 0.22949
 H43 H 0.83523 0.82866 0.27540
 C44 C 0.86892 0.86401 0.19848
 H45 H 0.89803 0.88926 0.22134
 C46 C 0.79194 0.79789 0.14476
 H47 H 0.76262 0.77139 0.12381
 C48 C 0.82660 0.83185 0.11210
 H49 H 0.82294 0.83170 0.06623
 N50 N 0.79534 0.79795 0.20243
 C51 C 0.66783 0.77075 0.32874
 H52 H 0.66623 0.72504 0.33005
 C53 C 0.63367 0.80209 0.36371
 H54 H 0.60576 0.78026 0.39189
 C55 C 0.70563 0.85473 0.28953
 H56 H 0.73329 0.87509 0.26013
 C57 C 0.67162 0.88767 0.32317
 H58 H 0.67351 0.93333 0.31980
 Zn59 Zn 0.74958 0.75194 0.24839
 N60 N 0.70376 0.79733 0.29356
 C61 C 0.79110 0.70609 0.35234
 N62 N 0.79525 0.70625 0.29469
 C63 C 0.83346 0.67459 0.26800
 C64 C 0.86885 0.64028 0.29943
 C65 C 0.82527 0.67190 0.38532
 C66 C 0.66853 0.73196 0.16738
 C67 C 0.63442 0.69998 0.13294
 C68 C 0.67231 0.61511 0.17505
 C69 C 0.70626 0.64866 0.20814
 N70 N 0.70434 0.70600 0.20315
 H71 H 0.76153 0.73249 0.37301
 H72 H 0.83629 0.67601 0.22214
 H73 H 0.89872 0.61511 0.27748
 H74 H 0.82130 0.67165 0.43115
 H75 H 0.66686 0.77764 0.16534
 H76 H 0.60653 0.72132 0.10436
 H77 H 0.67417 0.56951 0.17926
 H78 H 0.73379 0.62879 0.23801
 C79 C 0.63584 0.86125 0.36139
 C80 C 0.86603 0.86524 0.13883
 C81 C 0.63653 0.64085 0.13638
 C82 C 0.86468 0.63868 0.35879
 C83 C 0.83347 0.32540 0.73200
 H84 H 0.83629 0.32399 0.77786
 C85 C 0.86885 0.35972 0.70056
 H86 H 0.89873 0.38489 0.72252
 C87 C 0.79111 0.29390 0.64766
 H88 H 0.76154 0.26750 0.62698
 C89 C 0.82527 0.32809 0.61468
 H90 H 0.82131 0.32834 0.56885
 N91 N 0.79525 0.29375 0.70531
 C92 C 0.66853 0.26805 0.83262
 H93 H 0.66686 0.22236 0.83465
 C94 C 0.63442 0.30003 0.86706
 H95 H 0.60653 0.27869 0.89563
 C96 C 0.70626 0.35135 0.79186
 H97 H 0.73379 0.37121 0.76199
 C98 C 0.67231 0.38490 0.82495
 H99 H 0.67418 0.43050 0.82073
 Zn100 Zn 0.74958 0.24806 0.75161
 N101 N 0.70435 0.29401 0.79685
 C102 C 0.79194 0.20212 0.85524
 N103 N 0.79534 0.20205 0.79757
 C104 C 0.83307 0.17017 0.77051
 C105 C 0.86891 0.13599 0.80152
 C106 C 0.82660 0.16815 0.88791
 C107 C 0.66783 0.22926 0.67125
 C108 C 0.63367 0.19791 0.63628
 C109 C 0.67161 0.11233 0.67684
 C110 C 0.70562 0.14527 0.71048
 N111 N 0.70375 0.20267 0.70645
 H112 H 0.76263 0.22861 0.87619
 H113 H 0.83522 0.17133 0.72461
 H114 H 0.89803 0.11073 0.77866
 H115 H 0.82294 0.16830 0.93377
 H116 H 0.66624 0.27496 0.66994
 H117 H 0.60576 0.21974 0.60810
 H118 H 0.67350 0.06667 0.68021
 H119 H 0.73328 0.12491 0.73988
 C120 C 0.63653 0.35916 0.86361
 C121 C 0.86469 0.36131 0.64121
 C122 C 0.63583 0.13875 0.63862
 C123 C 0.86603 0.13476 0.86117
 C124 C 0.33182 0.82716 0.73116
 H125 H 0.33425 0.82590 0.77705
 C126 C 0.36788 0.86085 0.69991
 H127 H 0.39780 0.88582 0.72203
 C128 C 0.28995 0.79561 0.64656
 H129 H 0.26035 0.76935 0.62575
 C130 C 0.32480 0.82918 0.61375
 H131 H 0.32128 0.82921 0.56789
 N132 N 0.29359 0.79573 0.70425
 C133 C 0.16657 0.76917 0.83118
 H134 H 0.16504 0.72347 0.83289
 C135 C 0.13231 0.80078 0.86582
 H136 H 0.10446 0.77915 0.89421
 C137 C 0.20415 0.85287 0.79112
 H138 H 0.23173 0.87302 0.76149
 C139 C 0.17004 0.88606 0.82440
 H140 H 0.17181 0.93170 0.82056
 Zn141 Zn 0.24789 0.74995 0.75033
 N142 N 0.20238 0.79550 0.79567
 C143 C 0.29027 0.70393 0.85380
 N144 N 0.29386 0.70420 0.79611
 C145 C 0.33211 0.67299 0.76895
 C146 C 0.36823 0.63912 0.79993
 C147 C 0.32518 0.67017 0.88634
 C148 C 0.16647 0.73054 0.66977
 C149 C 0.13242 0.69885 0.63501
 C150 C 0.17066 0.61364 0.67607
 C151 C 0.20455 0.64691 0.70950
 N152 N 0.20245 0.70428 0.70514
 H153 H 0.26064 0.72999 0.87481
 H154 H 0.33448 0.67454 0.72306
 H155 H 0.39818 0.61434 0.77763
 H156 H 0.32171 0.66984 0.93221
 H157 H 0.16471 0.77623 0.66822
 H158 H 0.10442 0.72041 0.60671
 H159 H 0.17270 0.56800 0.67973
 H160 H 0.23226 0.62683 0.73903
 C161 C 0.13426 0.85993 0.86283
 C162 C 0.36436 0.86204 0.64051
 C163 C 0.13477 0.63971 0.63773
 C164 C 0.36474 0.63751 0.85931
 C165 C -0.00050 0.00000 0.00000
 C166 C 0.00017 0.50000 0.50000
 C167 C 0.50110 -0.00000 0.50000
 C168 C 0.50171 0.50000 -0.00000
 C169 C 0.06845 -0.01900 -0.09005
 C170 C 0.11847 -0.05235 -0.06825
 C171 C 0.09842 -0.10460 -0.10023
 C172 C 0.04883 -0.07171 -0.12238
 C173 C 0.06634 -0.12473 -0.04772
 C174 C 0.08603 -0.07202 -0.01537
 C175 C 0.03603 -0.03872 -0.03717
 C176 C 0.01628 -0.09139 -0.06947
 H177 H 0.07028 0.02391 -0.10932
 H178 H 0.16084 -0.03627 -0.06768
 H179 H 0.03355 -0.07175 -0.16674
 H180 H 0.06511 -0.16816 -0.02943
 H181 H 0.10319 -0.07333 0.02811
 H182 H -0.02533 -0.10918 -0.07099
 C183 C 0.08705 0.42846 0.48421
 C184 C 0.06743 0.37561 0.45206
 C185 C 0.09914 0.39580 0.39935
 C186 C 0.11914 0.44819 0.43112
 C187 C 0.04933 0.42842 0.37741
 C188 C 0.01713 0.40865 0.43052
 C189 C 0.03677 0.46147 0.46264
 C190 C 0.06887 0.48128 0.40956
 H191 H 0.10448 0.42738 0.52759
 H192 H 0.06649 0.33220 0.47044
 H193 H 0.16144 0.46446 0.43143
 H194 H 0.03383 0.42823 0.33314
 H195 H -0.02435 0.39055 0.42913
 H196 H 0.07054 0.52417 0.39022
 C197 C 0.58801 -0.07149 0.48386
 C198 C 0.56846 -0.12417 0.45138
 C199 C 0.60013 -0.10360 0.39877
 C200 C 0.62007 -0.05139 0.43089
 C201 C 0.55027 -0.07091 0.37706
 C202 C 0.51810 -0.09105 0.43006
 C203 C 0.53770 -0.03840 0.46250
 C204 C 0.56977 -0.01824 0.40953
 H205 H 0.60538 -0.07286 0.52726
 H206 H 0.56758 -0.16769 0.46946
 H207 H 0.66236 -0.03506 0.43130
 H208 H 0.53476 -0.07083 0.33279
 H209 H 0.47664 -0.10921 0.42866
 H210 H 0.57137 0.02477 0.39047
 C211 C 0.57050 0.48060 -0.09024
 C212 C 0.62071 0.44764 -0.06832
 C213 C 0.60076 0.39500 -0.09974
 C214 C 0.55101 0.42750 -0.12204
 C215 C 0.56892 0.37523 -0.04696
 C216 C 0.58850 0.42831 -0.01518
 C217 C 0.53829 0.46120 -0.03710
 C218 C 0.51868 0.40815 -0.06888
 H219 H 0.57209 0.52338 -0.10985
 H220 H 0.66302 0.46389 -0.06803
 H221 H 0.53561 0.42699 -0.16635
 H222 H 0.56790 0.33197 -0.02824
 H223 H 0.60582 0.42749 0.02825
 H224 H 0.47719 0.39006 -0.07025
 C225 C -0.08761 0.07126 -0.01981
 C226 C -0.06864 0.12235 -0.05612
 C227 C -0.09844 0.10002 -0.10509
 C228 C -0.11906 0.05117 -0.07260
 C229 C -0.05088 0.06876 -0.12591
 C230 C -0.01762 0.08933 -0.07451
 C231 C -0.03709 0.03735 -0.03926
 C232 C -0.06935 0.01620 -0.09147
 H233 H -0.10584 0.07438 0.02309
 H234 H -0.06946 0.16733 -0.04314
 H235 H -0.16204 0.03691 -0.07339
 H236 H -0.03543 0.06820 -0.17016
 H237 H 0.02342 0.10838 -0.07755
 H238 H -0.07188 -0.02689 -0.10922
 C239 C -0.06832 0.51669 0.40858
 C240 C -0.11866 0.55031 0.42839
 C241 C -0.09854 0.60189 0.39423
 C242 C -0.04857 0.56875 0.37397
 C243 C -0.06695 0.62320 0.44602
 C244 C -0.08672 0.57119 0.48064
 C245 C -0.03639 0.53766 0.46081
 C246 C -0.01659 0.58968 0.42623
 H247 H -0.07000 0.47335 0.39138
 H248 H -0.16099 0.53413 0.42911
 H249 H -0.03199 0.56726 0.33019
 H250 H -0.06636 0.66737 0.46137
 H251 H -0.10419 0.57330 0.52392
 H252 H 0.02486 0.60780 0.42416
 C253 C 0.43253 0.01670 0.40878
 C254 C 0.38207 0.04995 0.42885
 C255 C 0.40177 0.10170 0.39471
 C256 C 0.45188 0.06894 0.37422
 C257 C 0.43339 0.12314 0.44642
 C258 C 0.41402 0.07096 0.48101
 C259 C 0.46448 0.03775 0.46097
 C260 C 0.48390 0.08995 0.42645
 H261 H 0.43101 -0.02657 0.39140
 H262 H 0.33984 0.03347 0.42969
 H263 H 0.46832 0.06766 0.33037
 H264 H 0.43374 0.16730 0.46184
 H265 H 0.39662 0.07302 0.52432
 H266 H 0.52530 0.10825 0.42440
 C267 C 0.41473 0.57078 -0.01935
 C268 C 0.43408 0.62277 -0.05423
 C269 C 0.40225 0.60114 -0.10571
 C270 C 0.38260 0.54955 -0.07129
 C271 C 0.45225 0.56822 -0.12624
 C272 C 0.48448 0.58942 -0.07423
 C273 C 0.46509 0.53742 -0.03937
 C274 C 0.43298 0.51614 -0.09135
 H275 H 0.39739 0.57311 0.02397
 H276 H 0.43454 0.66699 -0.03901
 H277 H 0.34036 0.53314 -0.07022
 H278 H 0.46849 0.56673 -0.17016
 H279 H 0.52589 0.60763 -0.07660
 H280 H 0.43147 0.47276 -0.10848
 C281 C -0.08761 -0.07125 0.01981
 C282 C -0.06864 -0.12234 0.05612
 C283 C -0.09844 -0.10001 0.10510
 C284 C -0.11905 -0.05117 0.07260
 C285 C -0.05088 -0.06875 0.12591
 C286 C -0.01762 -0.08933 0.07451
 C287 C -0.03709 -0.03735 0.03926
 C288 C -0.06935 -0.01620 0.09147
 H289 H -0.10584 -0.07438 -0.02308
 H290 H -0.06946 -0.16732 0.04314
 H291 H -0.16204 -0.03691 0.07340
 H292 H -0.03543 -0.06820 0.17016
 H293 H 0.02343 -0.10837 0.07755
 H294 H -0.07188 0.02689 0.10922
 C295 C -0.08672 0.42881 0.51936
 C296 C -0.06694 0.37680 0.55398
 C297 C -0.09853 0.39810 0.60577
 C298 C -0.11866 0.44968 0.57160
 C299 C -0.04857 0.43124 0.62603
 C300 C -0.01659 0.41032 0.57376
 C301 C -0.03639 0.46234 0.53919
 C302 C -0.06832 0.48331 0.59142
 H303 H -0.10419 0.42669 0.47607
 H304 H -0.06635 0.33262 0.53862
 H305 H -0.16099 0.46586 0.57088
 H306 H -0.03199 0.43274 0.66981
 H307 H 0.02487 0.39220 0.57584
 H308 H -0.07001 0.52665 0.60862
 C309 C 0.41402 -0.07096 0.51899
 C310 C 0.43339 -0.12315 0.55358
 C311 C 0.40177 -0.10170 0.60529
 C312 C 0.38207 -0.04995 0.57116
 C313 C 0.45188 -0.06894 0.62578
 C314 C 0.48391 -0.08996 0.57355
 C315 C 0.46448 -0.03775 0.53903
 C316 C 0.43253 -0.01671 0.59122
 H317 H 0.39662 -0.07302 0.47568
 H318 H 0.43375 -0.16730 0.53816
 H319 H 0.33984 -0.03348 0.57032
 H320 H 0.46832 -0.06766 0.66963
 H321 H 0.52530 -0.10825 0.57560
 H322 H 0.43101 0.02657 0.60860
 C323 C 0.41473 0.42922 0.01935
 C324 C 0.43408 0.37723 0.05423
 C325 C 0.40225 0.39886 0.10571
 C326 C 0.38260 0.45045 0.07129
 C327 C 0.45226 0.43178 0.12624
 C328 C 0.48448 0.41058 0.07423
 C329 C 0.46509 0.46258 0.03937
 C330 C 0.43298 0.48386 0.09135
 H331 H 0.39740 0.42689 -0.02397
 H332 H 0.43455 0.33301 0.03900
 H333 H 0.34036 0.46686 0.07022
 H334 H 0.46850 0.43327 0.17016
 H335 H 0.52590 0.39237 0.07660
 H336 H 0.43148 0.52724 0.10848
 C337 C 0.06845 0.01900 0.09005
 C338 C 0.11847 0.05235 0.06825
 C339 C 0.09841 0.10460 0.10024
 C340 C 0.04883 0.07171 0.12238
 C341 C 0.06634 0.12473 0.04772
 C342 C 0.08603 0.07203 0.01538
 C343 C 0.03603 0.03873 0.03717
 C344 C 0.01628 0.09140 0.06947
 H345 H 0.07028 -0.02391 0.10932
 H346 H 0.16083 0.03627 0.06768
 H347 H 0.03355 0.07175 0.16674
 H348 H 0.06511 0.16816 0.02944
 H349 H 0.10319 0.07334 -0.02811
 H350 H -0.02533 0.10918 0.07100
 C351 C 0.01712 0.59135 0.56948
 C352 C 0.04932 0.57158 0.62258
 C353 C 0.09913 0.60421 0.60065
 C354 C 0.06743 0.62439 0.54793
 C355 C 0.11914 0.55181 0.56888
 C356 C 0.06887 0.51872 0.59044
 C357 C 0.03677 0.53853 0.53736
 C358 C 0.08705 0.57154 0.51579
 H359 H -0.02436 0.60945 0.57086
 H360 H 0.03382 0.57177 0.66686
 H361 H 0.06649 0.66780 0.52956
 H362 H 0.16144 0.53554 0.56857
 H363 H 0.07054 0.47584 0.60978
 H364 H 0.10447 0.57263 0.47241
 C365 C 0.58801 0.07149 0.51614
 C366 C 0.56845 0.12417 0.54863
 C367 C 0.60013 0.10360 0.60123
 C368 C 0.62007 0.05139 0.56911
 C369 C 0.55026 0.07091 0.62294
 C370 C 0.51810 0.09105 0.56994
 C371 C 0.53770 0.03840 0.53750
 C372 C 0.56977 0.01824 0.59047
 H373 H 0.60538 0.07287 0.47274
 H374 H 0.56757 0.16769 0.53055
 H375 H 0.66235 0.03507 0.56870
 H376 H 0.53475 0.07083 0.66721
 H377 H 0.47664 0.10921 0.57135
 H378 H 0.57137 -0.02477 0.60953
 C379 C 0.57050 0.51940 0.09024
 C380 C 0.62071 0.55237 0.06831
 C381 C 0.60076 0.60500 0.09974
 C382 C 0.55101 0.57250 0.12204
 C383 C 0.56891 0.62477 0.04696
 C384 C 0.58850 0.57170 0.01517
 C385 C 0.53828 0.53880 0.03709
 C386 C 0.51867 0.59186 0.06887
 H387 H 0.57210 0.47663 0.10984
 H388 H 0.66302 0.53612 0.06802
 H389 H 0.53561 0.57301 0.16635
 H390 H 0.56789 0.66803 0.02824
 H391 H 0.60581 0.57252 -0.02826
 H392 H 0.47719 0.60994 0.07025
   
