data_POSCAR
  _audit_creation_date              2014-09-24
  _audit_creation_method            'ToBaCCo'
  _symmetry_space_group_name_H-M    'P1'
  _symmetry_Int_Tables_number       1
  _symmetry_cell_setting            triclinic
  loop_
  _symmetry_equiv_pos_as_xyz
 x,y,z
_cell_length_a 21.9882
_cell_length_b 22.0029
_cell_length_c 22.1412
_cell_angle_alpha 89.995500
_cell_angle_beta 89.204500
_cell_angle_gamma 88.553200
loop_
  _atom_site_label
  _atom_site_type_symbol
  _atom_site_fract_x
  _atom_site_fract_y
  _atom_site_fract_z
C1 C 0.01908 0.41211 0.15743
 H2 H 0.05153 0.44584 0.14435
 C3 C 0.02326 0.35427 0.13150
 H4 H 0.05952 0.34505 0.09902
 C5 C -0.06800 0.38484 0.21368
 H6 H -0.10290 0.39599 0.24680
 C7 C -0.06675 0.32690 0.18742
 H8 H -0.10079 0.29533 0.20211
 N9 N -0.02377 0.42523 0.20058
 C10 C 0.04106 0.60670 0.22784
 H11 H 0.06963 0.59326 0.26507
 C12 C 0.04556 0.66537 0.20434
 H13 H 0.07827 0.69605 0.22285
 C14 C -0.03860 0.58489 0.16080
 H15 H -0.07225 0.55376 0.14509
 C16 C -0.03649 0.64374 0.13690
 H17 H -0.06768 0.65727 0.10164
 Zn18 Zn -0.01426 0.49511 0.25134
 N19 N -0.00129 0.56809 0.20674
 C20 C 0.10936 0.46886 0.26840
 N21 N 0.05618 0.48047 0.29901
 C22 C 0.05513 0.48584 0.36026
 C23 C 0.10923 0.48105 0.39259
 C24 C 0.16417 0.46332 0.29882
 C25 C -0.12501 0.55393 0.28798
 C26 C -0.18256 0.55775 0.31536
 C27 C -0.15647 0.46828 0.37337
 C28 C -0.09991 0.46536 0.34382
 N29 N -0.08583 0.50685 0.30062
 H30 H 0.11019 0.46731 0.21989
 H31 H 0.01299 0.49672 0.38392
 H32 H 0.10818 0.48787 0.44105
 H33 H 0.20613 0.45728 0.27307
 H34 H -0.11328 0.58715 0.25433
 H35 H -0.21398 0.59324 0.30086
 H36 H -0.16720 0.43374 0.40640
 H37 H -0.06832 0.42822 0.35332
 C38 C 0.00520 0.68502 0.15970
 C39 C -0.01872 0.30935 0.14777
 C40 C -0.19986 0.51342 0.35742
 C41 C 0.16473 0.47091 0.36150
 C42 C -0.01142 0.58019 0.85133
 H43 H -0.01103 0.54182 0.88161
 C44 C -0.00652 0.63884 0.87463
 H45 H -0.00550 0.64415 0.92314
 C46 C -0.01406 0.61960 0.75189
 H47 H -0.01709 0.61158 0.70386
 C48 C -0.00752 0.67876 0.77307
 H49 H -0.00496 0.71580 0.74101
 N50 N -0.01538 0.57172 0.79083
 C51 C -0.00661 0.37316 0.77099
 H52 H 0.01272 0.37626 0.72597
 C53 C -0.01175 0.31635 0.79801
 H54 H 0.00622 0.27665 0.77427
 C55 C -0.05333 0.42135 0.85583
 H56 H -0.07221 0.46190 0.87703
 C57 C -0.05861 0.36503 0.88517
 H58 H -0.07877 0.36311 0.93001
 Zn59 Zn -0.01935 0.49572 0.75133
 N60 N -0.02566 0.42457 0.80045
 C61 C 0.10324 0.47138 0.73713
 N62 N 0.05390 0.49022 0.70517
 C63 C 0.06018 0.51320 0.64839
 C64 C 0.11791 0.51640 0.62127
 C65 C 0.16153 0.47400 0.71200
 C66 C -0.14031 0.51770 0.73822
 C67 C -0.19772 0.51788 0.71274
 C68 C -0.15188 0.47813 0.62075
 C69 C -0.09525 0.47801 0.64856
 N70 N -0.09062 0.49831 0.70606
 H71 H 0.09740 0.45612 0.78324
 H72 H 0.02097 0.53132 0.62496
 H73 H 0.12221 0.53475 0.57607
 H74 H 0.20000 0.46019 0.73919
 H75 H -0.13522 0.53295 0.78428
 H76 H -0.23467 0.53681 0.73962
 H77 H -0.15341 0.45897 0.57586
 H78 H -0.05559 0.45965 0.62491
 C79 C -0.03763 0.31157 0.85606
 C80 C -0.00315 0.68923 0.83523
 C81 C -0.20521 0.49771 0.65289
 C82 C 0.16960 0.49700 0.65339
 C83 C 0.13288 0.00992 0.43188
 H84 H 0.10422 0.01322 0.47188
 C85 C 0.10665 0.00867 0.37414
 H86 H 0.05762 0.01027 0.37003
 C87 C 0.23136 0.00349 0.38733
 H88 H 0.28009 0.00082 0.39234
 C89 C 0.20742 0.00217 0.32969
 H90 H 0.23815 0.00015 0.29110
 N91 N 0.19454 0.00710 0.43718
 C92 C 0.25580 0.00336 0.62776
 H93 H 0.29928 0.02056 0.61334
 C94 C 0.24507 -0.00690 0.68885
 H95 H 0.27896 0.00526 0.72148
 C96 C 0.15859 -0.03216 0.60247
 H97 H 0.12576 -0.04299 0.56845
 C98 C 0.14677 -0.04529 0.66356
 H99 H 0.10379 -0.06447 0.67640
 Zn100 Zn 0.24378 0.00811 0.50752
 N101 N 0.21198 -0.00652 0.58617
 C102 C 0.25566 0.12553 0.54834
 N103 N 0.28090 0.08416 0.50906
 C104 C 0.32571 0.09959 0.46941
 C105 C 0.34675 0.15890 0.46853
 C106 C 0.27683 0.18440 0.55043
 C107 C 0.26225 -0.10855 0.49467
 C108 C 0.28909 -0.16576 0.49666
 C109 C 0.38725 -0.11933 0.50603
 C110 C 0.35797 -0.06203 0.50432
 N111 N 0.29647 -0.05839 0.49891
 H112 H 0.21850 0.11303 0.57786
 H113 H 0.34465 0.06634 0.43810
 H114 H 0.38167 0.17138 0.43627
 H115 H 0.25775 0.21630 0.58323
 H116 H 0.21327 -0.10382 0.49205
 H117 H 0.26048 -0.20510 0.49517
 H118 H 0.43619 -0.12262 0.51004
 H119 H 0.38372 -0.02114 0.50923
 C120 C 0.18975 -0.03064 0.70757
 C121 C 0.14447 0.00399 0.32227
 C122 C 0.35212 -0.17177 0.50269
 C123 C 0.32209 0.20155 0.50955
 C124 C 0.84930 0.03569 0.57824
 H125 H 0.86942 0.05344 0.53730
 C126 C 0.87833 0.04359 0.63352
 H127 H 0.92181 0.06557 0.63453
 C128 C 0.76709 -0.01200 0.62776
 H129 H 0.72317 -0.03283 0.62528
 C130 C 0.79390 -0.00396 0.68397
 H131 H 0.77140 -0.02032 0.72443
 N132 N 0.79542 0.00670 0.57617
 C133 C 0.75920 -0.00170 0.38203
 H134 H 0.71047 0.00335 0.38855
 C135 C 0.78368 -0.00250 0.32375
 H136 H 0.75237 -0.00054 0.28684
 C137 C 0.85675 -0.01568 0.42409
 H138 H 0.88498 -0.02160 0.46330
 C139 C 0.88335 -0.01775 0.36601
 H140 H 0.93231 -0.02308 0.36225
 Zn141 Zn 0.74964 -0.00040 0.50436
 N142 N 0.79563 -0.00640 0.43089
 C143 C 0.72683 0.11875 0.46709
 N144 N 0.70129 0.07292 0.49934
 C145 C 0.64863 0.08275 0.53130
 C146 C 0.61825 0.13948 0.52898
 C147 C 0.69870 0.17628 0.46453
 C148 C 0.74221 -0.12559 0.51072
 C149 C 0.71723 -0.18347 0.50963
 C150 C 0.61750 -0.13564 0.50578
 C151 C 0.64450 -0.07863 0.50568
 N152 N 0.70599 -0.07455 0.50839
 H153 H 0.77013 0.11119 0.44430
 H154 H 0.63082 0.04725 0.55970
 H155 H 0.57636 0.14668 0.55460
 H156 H 0.71984 0.21191 0.43853
 H157 H 0.79108 -0.12125 0.51201
 H158 H 0.74776 -0.22276 0.50935
 H159 H 0.56842 -0.13732 0.50436
 H160 H 0.61621 -0.03804 0.50221
 C161 C 0.84687 -0.00942 0.31431
 C162 C 0.85053 0.02340 0.68715
 C163 C 0.65385 -0.18949 0.50677
 C164 C 0.64361 0.18717 0.49552
 C165 C 0.59326 0.17767 0.94887
 H166 H 0.55944 0.16788 0.91559
 C167 C 0.65322 0.15684 0.93980
 H168 H 0.66393 0.13121 0.89940
 C169 C 0.62091 0.22774 1.03856
 H170 H 0.60926 0.25795 1.07557
 C171 C 0.68118 0.20654 1.03195
 H172 H 0.71404 0.21769 1.06596
 N173 N 0.57803 0.21260 0.99761
 C174 C 0.37921 0.24120 0.97967
 H175 H 0.38328 0.28824 0.96639
 C176 C 0.32238 0.21449 0.97805
 H177 H 0.28353 0.24189 0.96393
 C178 C 0.42539 0.15053 1.01645
 H179 H 0.46579 0.12582 1.03091
 C180 C 0.36867 0.12276 1.01820
 H181 H 0.36724 0.07588 1.03222
 Zn182 Zn 0.50156 0.25550 0.99818
 N183 N 0.42949 0.20903 0.99776
 C184 C 0.48121 0.26450 0.87815
 N185 N 0.50085 0.29901 0.92473
 C186 C 0.52185 0.35591 0.91511
 C187 C 0.51889 0.38160 0.85744
 C188 C 0.47910 0.28756 0.81999
 C189 C 0.49423 0.26424 1.12009
 C190 C 0.49078 0.28906 1.17787
 C191 C 0.48972 0.38912 1.13294
 C192 C 0.49231 0.36231 1.07578
 N193 N 0.49558 0.30077 1.07049
 H194 H 0.46707 0.21850 0.88613
 H195 H 0.54195 0.38094 0.95126
 H196 H 0.53441 0.42735 0.84987
 H197 H 0.46256 0.25978 0.78362
 H198 H 0.49632 0.21539 1.11453
 H199 H 0.48932 0.25926 1.21678
 H200 H 0.48974 0.43809 1.13645
 H201 H 0.49134 0.39082 1.03630
 C202 C 0.31570 0.15479 0.99899
 C203 C 0.69816 0.17042 0.98207
 C204 C 0.48815 0.35221 1.18471
 C205 C 0.49703 0.34693 0.80961
 C206 C 0.43570 0.84503 1.01295
 H207 H 0.47395 0.87029 1.02854
 C208 C 0.37690 0.87055 1.01803
 H209 H 0.37156 0.91599 1.03646
 C210 C 0.39640 0.75343 0.97596
 H211 H 0.40412 0.70710 0.96109
 C212 C 0.33707 0.77699 0.98007
 H213 H 0.30125 0.74842 0.96459
 N214 N 0.44433 0.78741 0.99189
 C215 C 0.63361 0.75795 1.03750
 H216 H 0.62631 0.71228 1.05334
 C217 C 0.69044 0.78271 1.04426
 H218 H 0.72586 0.75675 1.06680
 C219 C 0.59713 0.84626 0.98657
 H220 H 0.56126 0.86958 0.96217
 C221 C 0.65391 0.87269 0.99199
 H222 H 0.66166 0.91689 0.97229
 Zn223 Zn 0.51928 0.74325 0.99661
 N224 N 0.58839 0.78961 1.00903
 C225 C 0.56500 0.72575 0.87936
 N226 N 0.53338 0.69822 0.92470
 C227 C 0.50791 0.64339 0.91625
 C228 C 0.51248 0.61493 0.86017
 C229 C 0.56958 0.69940 0.82197
 C230 C 0.50061 0.73526 1.11486
 C231 C 0.49818 0.71296 1.17318
 C232 C 0.51913 0.61199 1.13361
 C233 C 0.52213 0.63666 1.07546
 N234 N 0.51211 0.69737 1.06745
 H235 H 0.58407 0.76985 0.88671
 H236 H 0.48126 0.62309 0.95186
 H237 H 0.49033 0.57199 0.85396
 H238 H 0.59145 0.72380 0.78555
 H239 H 0.49499 0.78357 1.10735
 H240 H 0.48993 0.74435 1.21026
 H241 H 0.52586 0.56346 1.13954
 H242 H 0.53405 0.60766 1.03761
 C243 C 0.70125 0.83992 1.02010
 C244 C 0.32584 0.83671 1.00138
 C245 C 0.50711 0.65067 1.18323
 C246 C 0.54127 0.64423 0.81141
 B247 B 1.00739 1.05977 0.04109
 B248 B 1.01061 1.06246 -0.03658
 B249 B 1.07246 1.03362 0.00458
 B250 B 1.04506 0.99357 0.06562
 B251 B 0.96581 0.99790 0.06351
 B252 B 0.94389 1.03752 -0.00168
 B253 B 1.00720 0.93385 -0.04001
 B254 B 1.00484 0.93283 0.03952
 B255 B 0.94392 0.95896 -0.00119
 B256 B 0.97215 1.00000 -0.06534
 B257 B 1.05023 0.99699 -0.06136
 B258 B 1.07221 0.95480 0.00060
 B259 B 0.54390 0.49944 0.45477
 B260 B 0.55015 0.49812 0.53341
 B261 B 0.52743 0.56521 0.49552
 B262 B 0.48044 0.54478 0.43575
 B263 B 0.47478 0.46740 0.43559
 B264 B 0.51774 0.43738 0.49517
 B265 B 0.42265 0.51159 0.54441
 B266 B 0.41549 0.51180 0.46662
 B267 B 0.43909 0.44524 0.50390
 B268 B 0.48597 0.46526 0.56285
 B269 B 0.49231 0.54348 0.56296
 B270 B 0.45029 0.57256 0.50472
 C271 C 1.04569 1.22619 0.10650
 C272 C 0.98866 1.24883 0.12561
 C273 C 0.94129 1.20723 0.12408
 C274 C 0.95181 1.14765 0.10271
 C275 C 1.00738 1.12515 0.07981
 C276 C 1.05584 1.16619 0.08536
 C277 C 1.11405 1.16451 0.12095
 C278 C 1.10214 1.22868 0.14146
 H279 H 0.89521 1.22043 0.13684
 H280 H 0.91486 1.11964 0.09847
 H281 H 1.15536 1.16406 0.09221
 H282 H 1.11454 1.13272 0.15942
 H283 H 1.13467 1.26155 0.12207
 H284 H 1.09362 1.23285 0.19095
 C285 C 0.95334 0.78497 0.13764
 C286 C 1.00537 0.74859 0.13795
 C287 C 1.05775 0.77626 0.11607
 C288 C 1.05443 0.83588 0.09186
 C289 C 1.00010 0.86909 0.08118
 C290 C 0.94921 0.84151 0.11028
 C291 C 0.88272 0.84304 0.13005
 C292 C 0.89108 0.78199 0.16115
 H293 H 1.10128 0.75219 0.11737
 H294 H 1.09501 0.85556 0.07847
 H295 H 0.85145 0.83579 0.09322
 H296 H 0.86900 0.87996 0.16176
 H297 H 0.86529 0.74470 0.14042
 H298 H 0.88908 0.78467 0.21126
 C299 C 0.99605 1.24597 -0.05762
 C300 C 0.96476 1.25185 -0.11202
 C301 C 0.95607 1.19861 -0.14473
 C302 C 0.97939 1.14241 -0.12489
 C303 C 1.00887 1.13298 -0.06954
 C304 C 1.02197 1.18876 -0.03936
 C305 C 1.08192 1.22330 -0.03913
 C306 C 1.04939 1.28273 -0.04509
 H307 H 0.93564 1.20102 -0.18895
 H308 H 0.97745 1.10743 -0.15682
 H309 H 1.10925 1.22131 0.00227
 H310 H 1.11001 1.21542 -0.08072
 H311 H 1.06658 1.31013 -0.08365
 H312 H 1.04377 1.30799 -0.00191
 C313 C 0.97896 0.80377 -0.16815
 C314 C 1.00539 0.75198 -0.14124
 C315 C 1.03161 0.76038 -0.08518
 C316 C 1.02395 0.81538 -0.05468
 C317 C 0.99984 0.86925 -0.07956
 C318 C 0.97494 0.86099 -0.13850
 C319 C 0.91055 0.86744 -0.16408
 C320 C 0.91856 0.80758 -0.19609
 H321 H 1.05262 0.72273 -0.06114
 H322 H 1.03143 0.81204 -0.00855
 H323 H 0.90229 0.90245 -0.19824
 H324 H 0.87214 0.86723 -0.13220
 H325 H 0.92197 0.81185 -0.24606
 H326 H 0.88716 0.77229 -0.17932
 C327 C 1.14018 0.95607 0.21951
 C328 C 1.11965 0.99988 0.26042
 C329 C 1.07477 1.04003 0.23911
 C330 C 1.05473 1.03684 0.17875
 C331 C 1.07599 0.99229 0.13523
 C332 C 1.11718 0.94836 0.16196
 C333 C 1.16059 0.89266 0.15729
 C334 C 1.18604 0.90667 0.21877
 H335 H 1.05540 1.07481 0.26874
 H336 H 1.01790 1.06761 0.16963
 H337 H 1.19496 0.89297 0.12028
 H338 H 1.13922 0.84818 0.16286
 H339 H 1.23324 0.92343 0.21646
 H340 H 1.17698 0.87177 0.25387
 C341 C 1.16344 1.03047 -0.20166
 C342 C 1.17243 0.97312 -0.22775
 C343 C 1.15102 0.92299 -0.19553
 C344 C 1.11515 0.93170 -0.14254
 C345 C 1.09487 0.99065 -0.12221
 C346 C 1.12225 1.03971 -0.15341
 C347 C 1.09716 1.09499 -0.18664
 C348 C 1.14656 1.08732 -0.23362
 H349 H 1.15887 0.87744 -0.21295
 H350 H 1.10245 0.89112 -0.11941
 H351 H 1.05347 1.08689 -0.20880
 H352 H 1.10027 1.13942 -0.16357
 H353 H 1.12909 1.08019 -0.27994
 H354 H 1.18264 1.12161 -0.23029
 C355 C 0.84682 1.02520 0.20766
 C356 C 0.87263 0.99210 0.25508
 C357 C 0.92687 0.96029 0.23945
 C358 C 0.95126 0.96121 0.17997
 C359 C 0.92783 0.99828 0.13187
 C360 C 0.87377 1.03198 0.15122
 C361 C 0.81928 1.07343 0.13391
 C362 C 0.79289 1.06488 0.19681
 H363 H 0.94943 0.93113 0.27202
 H364 H 0.99062 0.93223 0.17383
 H365 H 0.78815 1.05532 0.09978
 H366 H 0.82671 1.12253 0.12709
 H367 H 0.74956 1.04005 0.19595
 H368 H 0.79259 1.10664 0.22509
 C369 C 0.93899 0.99807 -0.24812
 C370 C 0.88268 1.02523 -0.25462
 C371 C 0.85868 1.05275 -0.20252
 C372 C 0.88974 1.04779 -0.14682
 C373 C 0.94158 1.00815 -0.13598
 C374 C 0.96814 0.98976 -0.19319
 C375 C 1.01782 0.95789 -0.23113
 C376 C 0.98132 0.96520 -0.28794
 H377 H 0.81736 1.08043 -0.20506
 H378 H 0.87403 1.08030 -0.11477
 H379 H 1.02822 0.90947 -0.22235
 H380 H 1.05761 0.98616 -0.23652
 H381 H 0.96226 0.92216 -0.30475
 H382 H 1.00225 0.99508 -0.32253
 C383 C 1.24142 1.08802 0.04671
 C384 C 1.25749 1.12859 0.00181
 C385 C 1.21089 1.14148 -0.04002
 C386 C 1.15439 1.11101 -0.03705
 C387 C 1.13787 1.07018 0.00912
 C388 C 1.18469 1.06266 0.05248
 C389 C 1.20530 1.03512 0.11104
 C390 C 1.26598 1.06556 0.10415
 H391 H 1.21912 1.17132 -0.07796
 H392 H 1.12402 1.11813 -0.07281
 H393 H 1.18021 1.05242 0.15134
 H394 H 1.21246 0.98594 0.10722
 H395 H 1.30450 1.03231 0.09868
 H396 H 1.27261 1.10282 0.13712
 C397 C 0.76574 1.07919 -0.03141
 C398 C 0.75986 1.14089 -0.02097
 C399 C 0.81378 1.17049 -0.00638
 C400 C 0.87051 1.13814 -0.00431
 C401 C 0.87592 1.07354 -0.00855
 C402 C 0.81929 1.04580 -0.02424
 C403 C 0.79215 0.99836 -0.06714
 C404 C 0.73693 1.03901 -0.07518
 H405 H 0.81270 1.21913 0.00106
 H406 H 0.91020 1.16498 0.00024
 H407 H 0.77530 0.95673 -0.04775
 H408 H 0.81441 0.98509 -0.10971
 H409 H 0.69384 1.02012 -0.05736
 H410 H 0.73526 1.05852 -0.12143
 C411 C 1.25707 0.92626 -0.00092
 C412 C 1.26599 0.86326 0.00341
 C413 C 1.21342 0.82868 -0.00099
 C414 C 1.15561 0.85598 -0.00877
 C415 C 1.14357 0.91974 -0.00710
 C416 C 1.19854 0.95255 -0.01200
 C417 C 1.22797 0.98084 -0.06776
 C418 C 1.28943 0.96178 -0.04726
 H419 H 1.21568 0.77965 0.00190
 H420 H 1.12164 0.82388 -0.01140
 H421 H 1.22480 1.03004 -0.07314
 H422 H 1.21934 0.95631 -0.10980
 H423 H 1.31528 0.99917 -0.02697
 H424 H 1.31543 0.93396 -0.08128
 C425 C 0.80757 0.83852 -0.01907
 C426 C 0.76287 0.86331 0.01942
 C427 C 0.77704 0.91425 0.05296
 C428 C 0.83458 0.93963 0.04595
 C429 C 0.88091 0.91804 0.00601
 C430 C 0.86574 0.86376 -0.02476
 C431 C 0.89183 0.79926 -0.02489
 C432 C 0.82912 0.77451 -0.01983
 H433 H 0.74320 0.93608 0.08226
 H434 H 0.83973 0.98086 0.06670
 H435 H 0.92052 0.78694 0.01391
 H436 H 0.91115 0.78450 -0.06853
 H437 H 0.82149 0.75011 0.02341
 H438 H 0.81447 0.75025 -0.06100
 C439 C 0.71101 0.45331 0.39154
 C440 C 0.73599 0.50996 0.38008
 C441 C 0.69581 0.56049 0.38124
 C442 C 0.63375 0.55410 0.39501
 C443 C 0.60796 0.49766 0.41172
 C444 C 0.64840 0.44624 0.40472
 C445 C 0.65106 0.39604 0.35739
 C446 C 0.71812 0.40130 0.35017
 H447 H 0.71183 0.60550 0.37123
 H448 H 0.60622 0.59492 0.39306
 H449 H 0.62768 0.40960 0.31512
 H450 H 0.64023 0.35032 0.37526
 H451 H 0.73267 0.41402 0.30362
 H452 H 0.74448 0.36303 0.37081
 C453 C 0.23171 0.52629 0.43119
 C454 C 0.22339 0.47778 0.39247
 C455 C 0.27455 0.44214 0.37773
 C456 C 0.33201 0.45641 0.40006
 C457 C 0.34504 0.50973 0.43347
 C458 C 0.29022 0.54449 0.44866
 C459 C 0.26447 0.60885 0.43549
 C460 C 0.20251 0.58623 0.42456
 H461 H 0.27021 0.40199 0.34996
 H462 H 0.36520 0.42090 0.39318
 H463 H 0.28120 0.62996 0.39370
 H464 H 0.26275 0.64040 0.47375
 H465 H 0.18583 0.59584 0.37821
 H466 H 0.16932 0.59615 0.46178
 C467 C 0.68376 0.49538 0.65973
 C468 C 0.73874 0.49658 0.62713
 C469 C 0.73134 0.49648 0.56419
 C470 C 0.67339 0.49680 0.53821
 C471 C 0.61726 0.49152 0.57029
 C472 C 0.62752 0.48588 0.63374
 C473 C 0.60173 0.47646 0.69687
 C474 C 0.66306 0.48979 0.72309
 H475 H 0.76950 0.50270 0.53363
 H476 H 0.67487 0.50791 0.49262
 H477 H 0.59363 0.42936 0.70870
 H478 H 0.56495 0.50761 0.71213
 H479 H 0.68500 0.45040 0.74649
 H480 H 0.66274 0.53368 0.74791
 C481 C 0.24735 0.55037 0.58943
 C482 C 0.23172 0.50200 0.62673
 C483 C 0.27799 0.45988 0.64054
 C484 C 0.33610 0.46417 0.61425
 C485 C 0.35631 0.51660 0.58329
 C486 C 0.30848 0.56108 0.57354
 C487 C 0.29473 0.62762 0.59073
 C488 C 0.22847 0.61431 0.59862
 H489 H 0.26796 0.41979 0.66687
 H490 H 0.36460 0.42419 0.61851
 H491 H 0.30284 0.66226 0.55620
 H492 H 0.30798 0.64338 0.63518
 H493 H 0.19953 0.63186 0.56151
 H494 H 0.20989 0.62367 0.64483
 C495 C 0.45865 0.65181 0.28516
 C496 C 0.50223 0.62748 0.24558
 C497 C 0.53574 0.57726 0.26505
 C498 C 0.52382 0.55158 0.32146
 C499 C 0.48146 0.57613 0.36543
 C500 C 0.44702 0.62742 0.34297
 C501 C 0.38017 0.64160 0.33000
 C502 C 0.39555 0.66707 0.26932
 H503 H 0.56917 0.55525 0.23545
 H504 H 0.54667 0.50877 0.32673
 H505 H 0.36058 0.67987 0.35607
 H506 H 0.35097 0.60160 0.32833
 H507 H 0.38734 0.71700 0.26548
 H508 H 0.37859 0.63958 0.23121
 C509 C 0.47762 0.59615 0.73537
 C510 C 0.53267 0.62130 0.74925
 C511 C 0.57544 0.62584 0.70182
 C512 C 0.56206 0.60378 0.64332
 C513 C 0.50455 0.57990 0.62785
 C514 C 0.46316 0.57993 0.67683
 C515 C 0.40078 0.60649 0.68685
 C516 C 0.41637 0.62072 0.75106
 H517 H 0.61987 0.64391 0.71018
 H518 H 0.59878 0.60324 0.61217
 H519 H 0.36414 0.57295 0.68562
 H520 H 0.39498 0.64879 0.66097
 H521 H 0.39270 0.59182 0.78471
 H522 H 0.41569 0.67023 0.76136
 C523 C 0.43965 0.42396 0.25922
 C524 C 0.48219 0.37900 0.24563
 C525 C 0.51966 0.36118 0.29318
 C526 C 0.51422 0.38975 0.35048
 C527 C 0.47095 0.43534 0.36611
 C528 C 0.43508 0.45291 0.31454
 C529 C 0.39089 0.49740 0.28387
 C530 C 0.39538 0.46118 0.22598
 H531 H 0.55455 0.32617 0.28606
 H532 H 0.54531 0.37501 0.38294
 H533 H 0.41125 0.54114 0.27446
 H534 H 0.34328 0.50086 0.29980
 H535 H 0.41528 0.48730 0.18799
 H536 H 0.35372 0.43579 0.21564
 C537 C 0.52038 0.34617 0.69939
 C538 C 0.49154 0.37245 0.74900
 C539 C 0.45560 0.42405 0.73801
 C540 C 0.45325 0.44923 0.67969
 C541 C 0.48899 0.42838 0.62929
 C542 C 0.52372 0.37507 0.64411
 C543 C 0.57708 0.33439 0.62735
 C544 C 0.57367 0.30539 0.68973
 H545 H 0.42871 0.44481 0.77422
 H546 H 0.42111 0.48491 0.67582
 H547 H 0.62000 0.35905 0.62016
 H548 H 0.56516 0.30046 0.59344
 H549 H 0.61235 0.31681 0.71912
 H550 H 0.56125 0.25674 0.68903
 C551 C 0.56868 0.74356 0.47674
 C552 C 0.62527 0.74932 0.50284
 C553 C 0.65396 0.69480 0.52127
 C554 C 0.62621 0.63807 0.51341
 C555 C 0.56671 0.63115 0.49050
 C556 C 0.54098 0.68716 0.46927
 C557 C 0.52218 0.70874 0.40769
 C558 C 0.55011 0.76910 0.41827
 H559 H 0.69817 0.69518 0.54204
 H560 H 0.65220 0.60078 0.52889
 H561 H 0.47235 0.71559 0.40447
 H562 H 0.54610 0.68363 0.37051
 H563 H 0.51603 0.80701 0.42355
 H564 H 0.58922 0.77828 0.38748
 C565 C 0.55101 0.25485 0.48669
 C566 C 0.61338 0.24823 0.49422
 C567 C 0.64570 0.30203 0.50105
 C568 C 0.61543 0.35961 0.50058
 C569 C 0.55217 0.36797 0.48961
 C570 C 0.52330 0.31161 0.47766
 C571 C 0.48268 0.28237 0.43111
 C572 C 0.51025 0.22091 0.44747
 H573 H 0.69422 0.29978 0.50878
 H574 H 0.64331 0.39684 0.50930
 H575 H 0.49392 0.28869 0.38323
 H576 H 0.43355 0.28651 0.43916
 H577 H 0.53486 0.19739 0.40957
 H578 H 0.47938 0.19208 0.47449
 C579 C 0.41890 0.74769 0.54961
 C580 C 0.37884 0.76653 0.50550
 C581 C 0.35945 0.72136 0.46638
 C582 C 0.38311 0.66141 0.47027
 C583 C 0.42348 0.64178 0.51399
 C584 C 0.43967 0.68835 0.55570
 C585 C 0.48491 0.71160 0.60146
 C586 C 0.45946 0.77585 0.59293
 H587 H 0.32634 0.73278 0.43231
 H588 H 0.37127 0.62882 0.43820
 H589 H 0.53314 0.70754 0.58715
 H590 H 0.47749 0.69803 0.64887
 H591 H 0.49244 0.80660 0.57109
 H592 H 0.43429 0.79454 0.63294
 C593 C 0.31832 0.31126 0.48063
 C594 C 0.34580 0.26296 0.51182
 C595 C 0.39380 0.27528 0.54989
 C596 C 0.41860 0.33322 0.55067
 C597 C 0.39659 0.38251 0.51553
 C598 C 0.33963 0.37090 0.48928
 C599 C 0.27618 0.38656 0.51333
 C600 C 0.25337 0.32819 0.48942
 H601 H 0.41508 0.23900 0.57584
 H602 H 0.46020 0.33489 0.57258
 H603 H 0.25336 0.42737 0.49512
 H604 H 0.27317 0.38314 0.56275
 H605 H 0.22957 0.33318 0.44567
 H606 H 0.22871 0.30123 0.52391
   
