data_POSCAR
  _audit_creation_date              2014-09-24
  _audit_creation_method            'ToBaCCo'
  _symmetry_space_group_name_H-M    'P1'
  _symmetry_Int_Tables_number       1
  _symmetry_cell_setting            triclinic
  loop_
  _symmetry_equiv_pos_as_xyz
 x,y,z
_cell_length_a 33.6236
_cell_length_b 32.5874
_cell_length_c 25.5491
_cell_angle_alpha 89.766400
_cell_angle_beta 89.990500
_cell_angle_gamma 119.845300
loop_
  _atom_site_label
  _atom_site_type_symbol
  _atom_site_fract_x
  _atom_site_fract_y
  _atom_site_fract_z
C1 C -0.12090 0.45014 -0.07488
 C2 C -0.12052 0.40821 -0.07477
 C3 C -0.07523 0.41957 -0.06842
 N4 N -0.04811 0.46694 -0.06360
 C5 C -0.07583 0.48578 -0.06861
 C6 C -0.05849 0.38739 -0.06774
 C7 C -0.01761 0.39916 -0.04003
 C8 C 0.01040 0.37954 -0.04760
 C9 C 0.04237 0.39608 -0.00815
 C10 C 0.03362 0.42598 0.02188
 N11 N -0.00234 0.42844 0.00169
 C12 C 0.05616 0.44757 0.06888
 C13 C 0.05673 0.48852 0.08756
 C14 C 0.06827 0.50675 0.13773
 C15 C 0.06860 0.54910 0.13719
 C16 C 0.05714 0.55506 0.08676
 N17 N 0.04958 0.51789 0.05671
 C18 C 0.05593 0.59490 0.06726
 C19 C 0.03347 0.59247 0.01974
 C20 C 0.04159 0.63094 -0.01106
 C21 C 0.00917 0.61401 -0.05005
 C22 C -0.01843 0.56567 -0.04145
 N23 N -0.00246 0.55270 0.00035
 C24 C -0.05977 0.53502 -0.06806
 H25 H -0.15126 0.45353 -0.07684
 H26 H -0.15052 0.37336 -0.07667
 H27 H -0.01886 0.51958 0.01856
 H28 H 0.00848 0.35591 -0.07833
 H29 H 0.06911 0.38722 -0.00242
 H30 H 0.07526 0.49110 0.17138
 H31 H 0.07577 0.57226 0.17035
 H32 H 0.00648 0.63521 -0.08100
 H33 H -0.01891 0.44478 0.01907
 H34 H 0.06800 0.66744 -0.00588
 C35 C 0.53129 0.40857 -0.07416
 C36 C 0.57468 0.44730 -0.07372
 C37 C 0.56966 0.48589 -0.06215
 N38 N 0.52477 0.47219 -0.05570
 C39 C 0.50103 0.42496 -0.06398
 C40 C 0.60545 0.53333 -0.05925
 C41 C 0.59941 0.56744 -0.03191
 C42 C 0.62572 0.61611 -0.03830
 C43 C 0.61310 0.63624 0.00084
 C44 C 0.57927 0.59931 0.02983
 N45 N 0.57066 0.55752 0.00914
 C46 C 0.55895 0.60425 0.07600
 C47 C 0.51628 0.56744 0.09369
 C48 C 0.49596 0.56507 0.14172
 C49 C 0.45199 0.52762 0.13896
 C50 C 0.44764 0.50773 0.09002
 N51 N 0.48684 0.53196 0.06258
 C52 C 0.40644 0.47338 0.06756
 C53 C 0.40568 0.44812 0.02256
 C54 C 0.36788 0.42272 -0.00908
 C55 C 0.38089 0.40170 -0.04683
 C56 C 0.42623 0.41431 -0.03672
 N57 N 0.44113 0.44307 0.00542
 C58 C 0.45238 0.39775 -0.06391
 H59 H 0.52343 0.37241 -0.07945
 H60 H 0.60627 0.44672 -0.07946
 H61 H 0.47250 0.45500 0.02423
 H62 H 0.65157 0.63529 -0.06782
 H63 H 0.62728 0.67378 0.00710
 H64 H 0.51069 0.58820 0.17497
 H65 H 0.42597 0.51682 0.16904
 H66 H 0.35935 0.38025 -0.07850
 H67 H 0.55053 0.52415 0.02591
 H68 H 0.33446 0.41973 -0.00546
 C69 C 0.41426 0.87709 0.07434
 C70 C 0.45475 0.87615 0.07364
 C71 C 0.48917 0.92205 0.06352
 N72 N 0.47127 0.95083 0.05825
 C73 C 0.42561 0.92365 0.06514
 C74 C 0.53657 0.93820 0.06136
 C75 C 0.56748 0.98302 0.04003
 C76 C 0.61447 1.00748 0.04847
 C77 C 0.63264 1.04528 0.01462
 C78 C 0.59621 1.04330 -0.01286
 N79 N 0.55647 1.00582 0.00344
 C80 C 0.60096 1.07216 -0.05618
 C81 C 0.56634 1.08281 -0.07012
 C82 C 0.56949 1.11359 -0.10931
 C83 C 0.53120 1.11792 -0.10540
 C84 C 0.50331 1.08647 -0.06690
 N85 N 0.52613 1.06663 -0.04408
 C86 C 0.45964 1.07860 -0.04952
 C87 C 0.43921 1.05015 -0.00418
 C88 C 0.41145 1.05596 0.03190
 C89 C 0.39271 1.01681 0.06397
 C90 C 0.40992 0.98832 0.04740
 N91 N 0.43913 1.00934 0.00675
 C92 C 0.39566 0.94222 0.06653
 H93 H 0.38052 0.84678 0.08025
 H94 H 0.45824 0.84516 0.07914
 H95 H 0.45318 0.99352 -0.01657
 H96 H 0.63391 0.99862 0.07538
 H97 H 0.66868 1.07087 0.00988
 H98 H 0.59692 1.13321 -0.13669
 H99 H 0.52813 1.14516 -0.12567
 H100 H 0.36914 1.01017 0.09598
 H101 H 0.52479 0.99272 -0.01493
 H102 H 0.40537 1.08543 0.03550
 C103 C 0.87277 0.40556 0.56572
 C104 C 0.87299 0.44785 0.56683
 C105 C 0.91785 0.48294 0.55755
 N106 N 0.94481 0.46362 0.55036
 C107 C 0.91750 0.41643 0.55582
 C108 C 0.93492 0.53212 0.55910
 C109 C 0.97797 0.56391 0.53669
 C110 C 1.00442 0.61148 0.54882
 C111 C 1.04034 0.63060 0.51386
 C112 C 1.03476 0.59420 0.48116
 N113 N 0.99731 0.55343 0.49624
 C114 C 1.06088 0.59921 0.43561
 C115 C 1.06313 0.55974 0.41647
 C116 C 1.07177 0.55272 0.36520
 C117 C 1.07140 0.51045 0.36441
 C118 C 1.06264 0.49301 0.41524
 N119 N 1.05666 0.52274 0.44678
 C120 C 1.06078 0.45083 0.43291
 C121 C 1.03391 0.42670 0.47725
 C122 C 1.03911 0.39464 0.50831
 C123 C 1.00305 0.37576 0.54308
 C124 C 0.97691 0.39690 0.53249
 N125 N 0.99651 0.42866 0.49310
 C126 C 0.93416 0.38439 0.55566
 H127 H 0.84296 0.37090 0.57098
 H128 H 0.84338 0.45202 0.57306
 H129 H 0.98223 0.44660 0.47395
 H130 H 0.99851 0.63061 0.57951
 H131 H 1.06733 0.66722 0.51267
 H132 H 1.07558 0.57432 0.33125
 H133 H 1.07512 0.49362 0.32981
 H134 H 0.99704 0.34957 0.57284
 H135 H 0.98261 0.52159 0.47576
 H136 H 1.06609 0.38578 0.50652
 C137 C 0.49810 0.57303 0.36257
 C138 C 0.45424 0.53526 0.36363
 C139 C 0.44901 0.51312 0.41155
 N140 N 0.48754 0.53633 0.44012
 C141 C 0.51746 0.57337 0.41064
 C142 C 0.40750 0.47678 0.43176
 C143 C 0.40581 0.44798 0.47402
 C144 C 0.36681 0.41789 0.50227
 C145 C 0.37956 0.39469 0.53789
 C146 C 0.42602 0.41122 0.53021
 N147 N 0.44167 0.44370 0.49119
 C148 C 0.45254 0.39468 0.55638
 C149 C 0.50100 0.42242 0.55844
 C150 C 0.53095 0.40634 0.57159
 C151 C 0.57414 0.44540 0.57312
 C152 C 0.56923 0.48397 0.56039
 N153 N 0.52461 0.46985 0.55117
 C154 C 0.60472 0.53169 0.55938
 C155 C 0.59892 0.56703 0.53415
 C156 C 0.62507 0.61533 0.54310
 C157 C 0.61298 0.63748 0.50558
 C158 C 0.57959 0.60209 0.47502
 N159 N 0.57079 0.55926 0.49309
 C160 C 0.55984 0.60941 0.42975
 H161 H 0.51346 0.59749 0.33025
 H162 H 0.42891 0.52545 0.33300
 H163 H 0.55108 0.52689 0.47445
 H164 H 0.33272 0.41297 0.49754
 H165 H 0.35709 0.36897 0.56644
 H166 H 0.52289 0.37024 0.57844
 H167 H 0.60552 0.44512 0.58161
 H168 H 0.62722 0.67528 0.50137
 H169 H 0.47406 0.45878 0.47399
 H170 H 0.65055 0.63294 0.57324
 C171 C 0.41969 -0.11820 0.41405
 C172 C 0.46156 -0.11611 0.41315
 C173 C 0.49442 -0.06934 0.42209
 N174 N 0.47387 -0.04311 0.42932
 C175 C 0.42827 -0.07268 0.42366
 C176 C 0.54256 -0.05040 0.42422
 C177 C 0.57002 -0.00763 0.45169
 C178 C 0.61660 0.02317 0.44387
 C179 C 0.63147 0.05462 0.48470
 C180 C 0.59347 0.04298 0.51557
 N181 N 0.55591 0.00585 0.49457
 C182 C 0.59473 0.06257 0.56502
 C183 C 0.55597 0.06319 0.58479
 C184 C 0.54965 0.07376 0.63551
 C185 C 0.50787 0.07197 0.63629
 C186 C 0.49034 0.06031 0.58602
 N187 N 0.51974 0.05494 0.55482
 C188 C 0.44918 0.05663 0.56781
 C189 C 0.43011 0.03501 0.51946
 C190 C 0.40005 0.04311 0.49019
 C191 C 0.38530 0.01126 0.44975
 C192 C 0.40604 -0.01621 0.45603
 N193 N 0.43452 -0.00036 0.49775
 C194 C 0.39524 -0.05791 0.42770
 H195 H 0.38680 -0.15019 0.41107
 H196 H 0.46657 -0.14627 0.40949
 H197 H 0.45118 -0.01694 0.51451
 H198 H 0.63807 0.02270 0.41261
 H199 H 0.66639 0.08244 0.49141
 H200 H 0.57214 0.08118 0.66870
 H201 H 0.49206 0.07773 0.67021
 H202 H 0.36162 0.00858 0.41952
 H203 H 0.52395 -0.01343 0.51265
 H204 H 0.38957 0.06906 0.49745
 O205 O 0.17071 0.39543 0.20058
 O206 O 0.25854 0.41996 0.30154
 O207 O 0.17222 0.39740 0.30201
 O208 O 0.25755 0.41870 0.19865
 O209 O 0.27609 0.49392 0.19677
 O210 O 0.19182 0.47293 0.29905
 O211 O 0.27665 0.49506 0.30038
 O212 O 0.19107 0.47119 0.19905
 Cu213 Cu 0.21308 0.40028 0.25079
 Cu214 Cu 0.23659 0.49107 0.24859
 C215 C 0.16558 0.42916 0.18330
 C216 C 0.28160 0.46177 0.31911
 C217 C 0.16716 0.43157 0.31749
 C218 C 0.28060 0.46006 0.17941
 O219 O 0.62946 0.78025 0.20084
 O220 O 0.62189 0.85974 0.29621
 O221 O 0.62973 0.78400 0.30069
 O222 O 0.61795 0.85256 0.19307
 O223 O 0.54246 0.80924 0.19761
 O224 O 0.55430 0.73957 0.30385
 O225 O 0.54642 0.81576 0.29884
 O226 O 0.55399 0.73560 0.20236
 Cu227 Cu 0.63231 0.82431 0.24767
 Cu228 Cu 0.54170 0.77059 0.25107
 C229 C 0.59308 0.74395 0.18589
 C230 C 0.58337 0.85148 0.31402
 C231 C 0.59383 0.74905 0.31950
 C232 C 0.57839 0.84233 0.17672
 O233 O 0.22855 0.84479 0.19675
 O234 O 0.15260 0.76786 0.30104
 O235 O 0.23054 0.84534 0.29923
 O236 O 0.15046 0.76643 0.20012
 O237 O 0.18674 0.72560 0.19833
 O238 O 0.26766 0.80532 0.29874
 O239 O 0.18809 0.72621 0.30028
 O240 O 0.26624 0.80536 0.19702
 Cu241 Cu 0.18718 0.81040 0.24922
 Cu242 Cu 0.23090 0.76153 0.24840
 C243 C 0.26049 0.83855 0.17935
 C244 C 0.15687 0.73362 0.31803
 C245 C 0.26247 0.83883 0.31617
 C246 C 0.15435 0.73214 0.18286
 O247 O 0.76416 0.59884 0.80151
 O248 O 0.84050 0.60166 0.69736
 O249 O 0.76277 0.59788 0.69835
 O250 O 0.84221 0.60222 0.79912
 O251 O 0.80731 0.52413 0.80057
 O252 O 0.72633 0.51973 0.69949
 O253 O 0.80604 0.52357 0.69882
 O254 O 0.72737 0.52070 0.80209
 Cu255 Cu 0.80566 0.60792 0.74914
 Cu256 Cu 0.76302 0.51410 0.75049
 C257 C 0.73323 0.55964 0.81999
 C258 C 0.83633 0.56323 0.68025
 C259 C 0.73185 0.55843 0.68084
 C260 C 0.83859 0.56410 0.81688
 O261 O 0.37098 0.15162 0.80628
 O262 O 0.37094 0.22594 0.69660
 O263 O 0.37032 0.14566 0.70446
 O264 O 0.37184 0.23093 0.79920
 O265 O 0.44758 0.26875 0.79912
 O266 O 0.44597 0.18555 0.70055
 O267 O 0.44664 0.26629 0.69783
 O268 O 0.44661 0.18812 0.80181
 Cu269 Cu 0.36337 0.18476 0.75142
 Cu270 Cu 0.45430 0.23105 0.74958
 C271 C 0.40908 0.15719 0.82236
 C272 C 0.40878 0.25922 0.67919
 C273 C 0.40778 0.15089 0.68650
 C274 C 0.40991 0.26386 0.81601
 O275 O 0.84276 0.22030 0.79841
 O276 O 0.75970 0.14284 0.70080
 O277 O 0.83936 0.21809 0.69572
 O278 O 0.76238 0.14489 0.80133
 O279 O 0.73039 0.18989 0.80332
 O280 O 0.80730 0.26304 0.69680
 O281 O 0.72620 0.18643 0.70134
 O282 O 0.81121 0.26572 0.79840
 Cu283 Cu 0.80464 0.17737 0.74910
 Cu284 Cu 0.76555 0.23085 0.74997
 C285 C 0.84117 0.25605 0.81522
 C286 C 0.72849 0.15088 0.68484
 C287 C 0.83624 0.25281 0.67802
 C288 C 0.73293 0.15445 0.81987
 N289 N 0.09688 0.37736 0.13306
 N290 N 0.06661 0.38098 0.10296
 C291 C 0.08101 0.42761 0.09791
 C292 C 0.12139 0.45237 0.12526
 N293 N 0.12991 0.41991 0.14680
 H294 H 0.14222 0.49031 0.12989
 N295 N 0.63575 0.71304 0.13983
 N296 N 0.62802 0.67601 0.11118
 C297 C 0.58221 0.64984 0.10468
 C298 C 0.56214 0.67248 0.12988
 N299 N 0.59664 0.71141 0.15151
 H300 H 0.52611 0.66163 0.13270
 N301 N 0.27785 0.89174 0.10522
 N302 N 0.31281 0.91921 0.07433
 C303 C 0.34876 0.91441 0.08949
 C304 C 0.33437 0.88264 0.13097
 N305 N 0.29006 0.86938 0.13924
 H306 H 0.35448 0.87201 0.15454
 N307 N 0.88434 0.59994 0.60408
 N308 N 0.91023 0.59254 0.57075
 C309 C 0.90809 0.55152 0.58491
 C310 C 0.87960 0.53384 0.62822
 N311 N 0.86563 0.56509 0.63869
 H312 H 0.87128 0.50256 0.65114
 N313 N 0.37690 0.27590 0.60160
 N314 N 0.38793 0.31086 0.56768
 C315 C 0.42847 0.34761 0.58313
 C316 C 0.44181 0.33377 0.62794
 N317 N 0.40895 0.28902 0.63787
 H318 H 0.47182 0.35439 0.65185
 N319 N 0.69702 0.08183 0.62921
 N320 N 0.66196 0.05747 0.59756
 C321 C 0.63710 0.07961 0.59661
 C322 C 0.65844 0.11888 0.62872
 N323 N 0.69560 0.11876 0.64826
 H324 H 0.64822 0.14489 0.63688
 N325 N 0.38405 0.11827 0.90719
 N326 N 0.39800 0.09844 0.94262
 C327 C 0.43522 0.09776 0.92332
 C328 C 0.44170 0.11618 0.87279
 N329 N 0.41025 0.12945 0.86515
 H330 H 0.46367 0.11649 0.84192
 N331 N 0.72347 0.59095 0.90156
 N332 N 0.69075 0.58450 0.93488
 C333 C 0.65111 0.54832 0.91668
 C334 C 0.66094 0.53228 0.87095
 N335 N 0.70634 0.56001 0.86306
 H336 H 0.63734 0.50508 0.84466
 N337 N 0.89695 0.27162 0.88362
 N338 N 0.92395 0.30606 0.91573
 C339 C 0.91754 0.34321 0.90630
 C340 C 0.88501 0.32978 0.86686
 N341 N 0.87328 0.28519 0.85410
 H342 H 0.87266 0.35076 0.84725
 N343 N 0.61690 0.90876 0.38360
 N344 N 0.60683 0.93520 0.41373
 C345 C 0.56414 0.92609 0.40110
 C346 C 0.54819 0.89213 0.36187
 N347 N 0.58217 0.88263 0.35235
 H348 H 0.51664 0.87795 0.33985
 N349 N 0.32452 0.50758 0.39394
 N350 N 0.35684 0.51131 0.42628
 C351 C 0.36552 0.47629 0.41421
 C352 C 0.33776 0.45110 0.37277
 N353 N 0.31277 0.47187 0.36148
 H354 H 0.33855 0.42342 0.35031
 N355 N 0.09547 0.71143 0.38106
 N356 N 0.06922 0.67599 0.41284
 C357 C 0.08253 0.64324 0.40873
 C358 C 0.11876 0.66062 0.37327
 N359 N 0.12542 0.70293 0.35702
 H360 H 0.13875 0.64470 0.36083
 N361 N 0.89385 0.60439 0.88581
 N362 N 0.92136 0.59761 0.91718
 C363 C 0.91523 0.55415 0.90711
 C364 C 0.88218 0.53432 0.86814
 N365 N 0.87001 0.56680 0.85623
 H366 H 0.87012 0.50109 0.84796
 N367 N 0.37452 0.28537 0.88545
 N368 N 0.38512 0.32051 0.91845
 C369 C 0.42910 0.35408 0.90898
 C370 C 0.44501 0.33776 0.86842
 N371 N 0.41005 0.29508 0.85522
 H372 H 0.47765 0.35575 0.84828
 N373 N 0.69328 0.07998 0.86668
 N374 N 0.65800 0.05714 0.89873
 C375 C 0.64237 0.08696 0.91064
 C376 C 0.67015 0.12953 0.88535
 N377 N 0.70091 0.12331 0.85795
 H378 H 0.66873 0.16194 0.88670
 N379 N 0.10388 0.38211 0.37654
 N380 N 0.07464 0.38634 0.40777
 C381 C 0.08503 0.43213 0.40598
 C382 C 0.12230 0.45585 0.37289
 N383 N 0.13268 0.42354 0.35532
 H384 H 0.14085 0.49312 0.36303
 N385 N 0.63719 0.71998 0.36805
 N386 N 0.62935 0.68268 0.39671
 C387 C 0.58351 0.65642 0.40332
 C388 C 0.56362 0.67947 0.37853
 N389 N 0.59812 0.71854 0.35666
 H390 H 0.52754 0.66821 0.37505
 N391 N 0.27992 0.89254 0.38872
 N392 N 0.31473 0.92037 0.41914
 C393 C 0.35095 0.91553 0.40515
 C394 C 0.33637 0.88259 0.36482
 N395 N 0.29214 0.86952 0.35596
 H396 H 0.35637 0.87169 0.34159
 N397 N 0.60347 0.88406 0.09385
 N398 N 0.59253 0.90868 0.06150
 C399 C 0.55537 0.90856 0.08183
 C400 C 0.54353 0.88242 0.12768
 N401 N 0.57452 0.86813 0.13370
 H402 H 0.51704 0.87691 0.15555
 N403 N 0.32186 0.50299 0.10185
 N404 N 0.35425 0.50626 0.06988
 C405 C 0.36433 0.47278 0.08485
 C406 C 0.33732 0.44898 0.12758
 N407 N 0.31133 0.46898 0.13674
 H408 H 0.33917 0.42282 0.15210
 N409 N 0.08593 0.70465 0.12991
 N410 N 0.05883 0.66865 0.09957
 C411 C 0.07707 0.64003 0.09701
 C412 C 0.11677 0.66009 0.12672
 N413 N 0.12086 0.70021 0.14658
 H414 H 0.14009 0.64677 0.13358
 N415 N 0.36850 0.07906 0.63496
 N416 N 0.37823 0.05297 0.60362
 C417 C 0.42435 0.07485 0.59956
 C418 C 0.44261 0.11559 0.62922
 N419 N 0.40664 0.11672 0.65067
 H420 H 0.47836 0.14176 0.63468
 N421 N 0.72244 0.58865 0.59818
 N422 N 0.68991 0.58193 0.56453
 C423 C 0.65015 0.54613 0.58335
 C424 C 0.65963 0.53061 0.62983
 N425 N 0.70501 0.55830 0.63751
 H426 H 0.63581 0.50388 0.65670
 N427 N 0.88326 0.26433 0.60102
 N428 N 0.90891 0.29822 0.56721
 C429 C 0.90751 0.33734 0.58156
 C430 C 0.87986 0.32609 0.62542
 N431 N 0.86550 0.28042 0.63606
 H432 H 0.87226 0.34909 0.64858
   
