data_POSCAR
  _audit_creation_date              2014-09-24
  _audit_creation_method            'ToBaCCo'
  _symmetry_space_group_name_H-M    'P1'
  _symmetry_Int_Tables_number       1
  _symmetry_cell_setting            triclinic
  loop_
  _symmetry_equiv_pos_as_xyz
 x,y,z
_cell_length_a 31.1780
_cell_length_b 31.1779
_cell_length_c 31.2225
_cell_angle_alpha 90.084900
_cell_angle_beta 90.084800
_cell_angle_gamma 90.000000
loop_
  _atom_site_label
  _atom_site_type_symbol
  _atom_site_fract_x
  _atom_site_fract_y
  _atom_site_fract_z
O1 O 0.45908 1.03556 -0.54106
 O2 O 0.54256 1.03552 -0.45769
 O3 O 0.54258 1.03508 -0.54109
 O4 O 0.45905 1.03504 -0.45768
 O5 O 0.45914 0.96431 -0.45789
 O6 O 0.54251 0.96435 -0.54113
 O7 O 0.54265 0.96485 -0.45773
 O8 O 0.45901 0.96482 -0.54127
 Cu9 Cu 0.50082 1.04238 -0.49936
 Cu10 Cu 0.50084 0.95750 -0.49951
 C11 C 0.44473 1.00024 -0.55548
 C12 C 0.55701 1.00023 -0.44331
 C13 C 0.55683 0.99967 -0.55541
 C14 C 0.44479 0.99962 -0.44351
 O15 O -0.54324 1.45800 -0.03515
 O16 O -0.45965 1.54159 -0.03529
 O17 O -0.45973 1.45810 -0.03572
 O18 O -0.54316 1.54153 -0.03572
 O19 O -0.54310 1.54177 0.03485
 O20 O -0.45951 1.45818 0.03491
 O21 O -0.45959 1.54167 0.03534
 O22 O -0.54302 1.45825 0.03541
 Cu23 Cu -0.50147 1.49979 -0.04253
 Cu24 Cu -0.50130 1.49998 0.04219
 C25 C -0.55751 1.44371 0.00020
 C26 C -0.44529 1.55593 0.00006
 C27 C -0.44529 1.44384 -0.00045
 C28 C -0.55752 1.55606 -0.00049
 O29 O -0.03497 0.45881 0.45873
 O30 O -0.03495 0.54245 0.54227
 O31 O -0.03545 0.54231 0.45887
 O32 O -0.03549 0.45894 0.54211
 O33 O 0.03525 0.45884 0.54232
 O34 O 0.03528 0.54237 0.45891
 O35 O 0.03572 0.54235 0.54231
 O36 O 0.03576 0.45888 0.45893
 Cu37 Cu -0.04230 0.50063 0.50049
 Cu38 Cu 0.04258 0.50062 0.50064
 C39 C 0.00044 0.44453 0.44452
 C40 C 0.00043 0.55680 0.55669
 C41 C -0.00013 0.55663 0.44459
 C42 C -0.00018 0.44458 0.55649
 O43 O -0.11024 1.00131 -0.05820
 O44 O 0.11034 0.99838 -0.05803
 O45 O -0.00145 1.05783 -0.11027
 O46 O 0.00148 0.94178 -0.11034
 O47 O 0.00151 0.88955 -0.05819
 O48 O -0.00142 1.11014 -0.05804
 O49 O 0.05804 0.99834 -0.11026
 O50 O -0.05801 1.00127 -0.11035
 Zr51 Zr 0.00004 0.99983 -0.07547
 O52 O 0.03898 0.96093 -0.03903
 O53 O -0.03886 1.03878 -0.03904
 C54 C -0.09772 1.00197 -0.09785
 C55 C 0.09777 0.99766 -0.09770
 C56 C -0.00213 1.09756 -0.09770
 C57 C 0.00218 0.90207 -0.09784
 H58 H 0.05709 1.05689 -0.05705
 O59 O 0.03880 1.03860 -0.03880
 H60 H -0.05700 0.94280 -0.05722
 O61 O -0.03868 0.96112 -0.03891
 O62 O 0.11043 1.00140 0.05785
 O63 O -0.11015 0.99846 0.05770
 O64 O 0.05811 1.11018 0.00141
 O65 O 0.05811 0.88959 -0.00167
 O66 O -0.05795 0.88959 0.00118
 O67 O -0.05795 1.11018 -0.00160
 O68 O 0.00165 1.05800 0.11000
 O69 O -0.00129 0.94197 0.10992
 O70 O 0.00160 1.11023 0.05785
 O71 O -0.00134 0.88964 0.05771
 O72 O 0.11039 1.05793 0.00141
 O73 O -0.11020 1.05790 -0.00168
 O74 O -0.11020 0.94187 0.00118
 O75 O 0.11038 0.94185 -0.00160
 O76 O 0.05820 1.00145 0.11000
 O77 O -0.05783 0.99851 0.10991
 Zr78 Zr 0.07551 0.99989 -0.00012
 Zr79 Zr -0.07532 0.99989 -0.00022
 Zr80 Zr 0.00009 1.07530 -0.00012
 Zr81 Zr 0.00009 0.92447 -0.00022
 Zr82 Zr 0.00015 0.99995 0.07512
 O83 O -0.03880 0.96100 0.03864
 O84 O 0.03905 1.03885 0.03875
 C85 C 0.09791 1.00212 0.09750
 C86 C -0.09756 0.99781 0.09737
 C87 C 0.09783 1.09764 0.00211
 C88 C 0.09782 0.90213 -0.00232
 C89 C -0.09766 0.90215 0.00185
 C90 C -0.09766 1.09762 -0.00232
 C91 C 0.00232 1.09771 0.09750
 C92 C -0.00199 0.90224 0.09737
 H93 H -0.05691 1.05698 0.05679
 O94 O -0.03862 1.03866 0.03851
 H95 H 0.05718 0.94289 0.05679
 O96 O 0.03886 0.96118 0.03851
 C97 C 0.36308 0.96203 0.36273
 C98 C 0.34734 1.00100 0.34704
 C99 C 0.36340 1.03969 0.36321
 C100 C 0.39508 1.03945 0.39493
 C101 C 0.41114 1.00044 0.41093
 C102 C 0.39478 0.96170 0.39447
 C103 C 0.31473 1.00137 0.31437
 C104 C 0.28741 1.00182 0.28701
 C105 C 0.25543 1.00241 0.25499
 C106 C 0.22811 1.00289 0.22764
 C107 C 0.19546 1.00331 0.19500
 C108 C 0.15211 1.00343 0.20648
 C109 C 0.12035 1.00331 0.17482
 C110 C 0.13156 1.00304 0.13113
 C111 C 0.17532 1.00318 0.11998
 C112 C 0.20700 1.00330 0.15172
 H113 H 0.35087 0.93189 0.35042
 H114 H 0.35143 1.07004 0.35129
 H115 H 0.40697 1.06983 0.40690
 H116 H 0.40645 0.93114 0.40608
 H117 H 0.14283 1.00346 0.23991
 H118 H 0.08705 1.00325 0.18464
 H119 H 0.18519 1.00302 0.08674
 H120 H 0.24048 1.00323 0.14249
 C121 C -0.36183 1.03793 0.36286
 C122 C -0.34616 0.99896 0.34701
 C123 C -0.36213 0.96027 0.36308
 C124 C -0.39368 0.96049 0.39485
 C125 C -0.40968 0.99949 0.41099
 C126 C -0.39339 1.03824 0.39464
 C127 C -0.31370 0.99861 0.31428
 C128 C -0.28652 0.99817 0.28687
 C129 C -0.25468 0.99759 0.25480
 C130 C -0.22745 0.99712 0.22743
 C131 C -0.19490 0.99669 0.19480
 C132 C -0.15151 0.99657 0.20630
 C133 C -0.11983 0.99667 0.17466
 C134 C -0.13115 0.99692 0.13096
 C135 C -0.17493 0.99678 0.11978
 C136 C -0.20653 0.99668 0.15151
 H137 H -0.34968 1.06808 0.35064
 H138 H -0.35022 0.92992 0.35104
 H139 H -0.40552 0.93010 0.40672
 H140 H -0.40502 1.06880 0.40637
 H141 H -0.14216 0.99655 0.23973
 H142 H -0.08652 0.99672 0.18450
 H143 H -0.18487 0.99693 0.08653
 H144 H -0.24004 0.99676 0.14226
 C145 C -0.36290 0.96195 -0.36323
 C146 C -0.34716 1.00089 -0.34739
 C147 C -0.36321 1.03956 -0.36340
 C148 C -0.39489 1.03941 -0.39512
 C149 C -0.41110 1.00039 -0.41142
 C150 C -0.39460 0.96162 -0.39497
 C151 C -0.31455 1.00122 -0.31472
 C152 C -0.28724 1.00164 -0.28736
 C153 C -0.25525 1.00222 -0.25533
 C154 C -0.22793 1.00268 -0.22798
 C155 C -0.19528 1.00310 -0.19534
 C156 C -0.20681 1.00316 -0.15206
 C157 C -0.17514 1.00306 -0.12032
 C158 C -0.13137 1.00286 -0.13147
 C159 C -0.12017 1.00305 -0.17516
 C160 C -0.15192 1.00315 -0.20682
 H161 H -0.35068 0.93181 -0.35104
 H162 H -0.35123 1.06990 -0.35135
 H163 H -0.40661 1.06995 -0.40679
 H164 H -0.40610 0.93093 -0.40654
 H165 H -0.24030 1.00315 -0.14282
 H166 H -0.18500 1.00296 -0.08708
 H167 H -0.08687 1.00293 -0.18498
 H168 H -0.14265 1.00312 -0.24025
 C169 C 0.36305 1.03781 -0.36203
 C170 C 0.34730 0.99883 -0.34641
 C171 C 0.36340 0.96015 -0.36249
 C172 C 0.39513 0.96039 -0.39408
 C173 C 0.41119 0.99941 -0.41002
 C174 C 0.39479 1.03815 -0.39363
 C175 C 0.31462 0.99845 -0.31390
 C176 C 0.28726 0.99799 -0.28667
 C177 C 0.25523 0.99739 -0.25478
 C178 C 0.22789 0.99691 -0.22754
 C179 C 0.19525 0.99648 -0.19499
 C180 C 0.15189 0.99642 -0.20656
 C181 C 0.12015 0.99653 -0.17498
 C182 C 0.13139 0.99674 -0.13126
 C183 C 0.17516 0.99654 -0.12001
 C184 C 0.20681 0.99643 -0.15167
 H185 H 0.35080 1.06794 -0.34979
 H186 H 0.35143 0.92979 -0.35063
 H187 H 0.40704 0.93002 -0.40599
 H188 H 0.40646 1.06872 -0.40520
 H189 H 0.14259 0.99644 -0.24001
 H190 H 0.08685 0.99664 -0.18487
 H191 H 0.18504 0.99666 -0.08674
 H192 H 0.24030 0.99646 -0.14236
 C193 C 0.36248 1.36333 -0.03792
 C194 C 0.34685 1.34761 0.00098
 C195 C 0.36292 1.36381 0.03958
 C196 C 0.39453 1.39560 0.03938
 C197 C 0.41064 1.41176 0.00040
 C198 C 0.39411 1.39513 -0.03829
 C199 C 0.31432 1.31485 0.00135
 C200 C 0.28707 1.28743 0.00181
 C201 C 0.25516 1.25533 0.00241
 C202 C 0.22788 1.22794 0.00288
 C203 C 0.19528 1.19525 0.00331
 C204 C 0.15191 1.20675 0.00342
 C205 C 0.12019 1.17506 0.00330
 C206 C 0.13145 1.13130 0.00304
 C207 C 0.17523 1.12012 0.00319
 C208 C 0.20686 1.15190 0.00331
 H209 H 0.35023 1.35099 -0.06801
 H210 H 0.35103 1.35185 0.06989
 H211 H 0.40628 1.40741 0.06986
 H212 H 0.40553 1.40660 -0.06896
 H213 H 0.14260 1.24023 0.00344
 H214 H 0.08689 1.18491 0.00323
 H215 H 0.18513 1.08683 0.00303
 H216 H 0.24036 1.14265 0.00324
 C217 C 0.36277 0.63597 -0.03980
 C218 C 0.34685 0.65217 -0.00119
 C219 C 0.36263 0.63645 0.03770
 C220 C 0.39425 0.60464 0.03804
 C221 C 0.41064 0.58801 -0.00067
 C222 C 0.39438 0.60418 -0.03963
 C223 C 0.31431 0.68492 -0.00154
 C224 C 0.28707 0.71235 -0.00197
 C225 C 0.25516 0.74445 -0.00256
 C226 C 0.22788 0.77184 -0.00303
 C227 C 0.19528 0.80453 -0.00345
 C228 C 0.20686 0.84788 -0.00342
 C229 C 0.17522 0.87966 -0.00332
 C230 C 0.13145 0.86847 -0.00321
 C231 C 0.12019 0.82472 -0.00351
 C232 C 0.15191 0.79303 -0.00361
 H233 H 0.35076 0.64792 -0.07010
 H234 H 0.35049 0.64879 0.06779
 H235 H 0.40580 0.59317 0.06870
 H236 H 0.40601 0.59236 -0.07012
 H237 H 0.24036 0.85713 -0.00332
 H238 H 0.18512 0.91295 -0.00313
 H239 H 0.08688 0.81487 -0.00347
 H240 H 0.14259 0.75955 -0.00366
 C241 C -0.36348 0.63735 -0.03821
 C242 C -0.34761 0.65313 0.00070
 C243 C -0.36368 0.63720 0.03934
 C244 C -0.39548 0.60559 0.03915
 C245 C -0.41165 0.58947 0.00021
 C246 C -0.39529 0.60572 -0.03849
 C247 C -0.31486 0.68567 0.00103
 C248 C -0.28744 0.71291 0.00145
 C249 C -0.25534 0.74483 0.00203
 C250 C -0.22794 0.77210 0.00249
 C251 C -0.19526 0.80470 0.00292
 C252 C -0.15191 0.79312 0.00293
 C253 C -0.12013 0.82476 0.00285
 C254 C -0.13132 0.86853 0.00271
 C255 C -0.17507 0.87979 0.00295
 C256 C -0.20676 0.84807 0.00304
 H257 H -0.35126 0.64947 -0.06832
 H258 H -0.35163 0.64920 0.06964
 H259 H -0.40736 0.59379 0.06950
 H260 H -0.40704 0.59400 -0.06900
 H261 H -0.14265 0.75962 0.00286
 H262 H -0.08684 0.81486 0.00270
 H263 H -0.18492 0.91310 0.00289
 H264 H -0.24024 0.85739 0.00305
 C265 C -0.36384 1.36257 -0.03981
 C266 C -0.34762 1.34664 -0.00117
 C267 C -0.36333 1.36243 0.03774
 C268 C -0.39514 1.39406 0.03806
 C269 C -0.41165 1.41030 -0.00063
 C270 C -0.39563 1.39418 -0.03959
 C271 C -0.31486 1.31411 -0.00153
 C272 C -0.28744 1.28686 -0.00197
 C273 C -0.25534 1.25495 -0.00256
 C274 C -0.22795 1.22768 -0.00303
 C275 C -0.19527 1.19508 -0.00346
 C276 C -0.15191 1.20666 -0.00343
 C277 C -0.12014 1.17502 -0.00333
 C278 C -0.13132 1.13124 -0.00322
 C279 C -0.17508 1.11999 -0.00352
 C280 C -0.20677 1.15170 -0.00362
 H281 H -0.35190 1.35057 -0.07011
 H282 H -0.35099 1.35031 0.06784
 H283 H -0.40677 1.40577 0.06857
 H284 H -0.40763 1.40598 -0.06992
 H285 H -0.14266 1.24015 -0.00333
 H286 H -0.08684 1.18492 -0.00314
 H287 H -0.18493 1.08668 -0.00348
 H288 H -0.24025 1.14239 -0.00367
 C289 C -0.03777 1.36289 0.36272
 C290 C 0.00121 1.34714 0.34703
 C291 C 0.03989 1.36320 0.36320
 C292 C 0.03966 1.39488 0.39492
 C293 C 0.00064 1.41094 0.41093
 C294 C -0.03810 1.39458 0.39446
 C295 C 0.00157 1.31453 0.31436
 C296 C 0.00202 1.28722 0.28700
 C297 C 0.00262 1.25524 0.25497
 C298 C 0.00309 1.22791 0.22763
 C299 C 0.00351 1.19527 0.19499
 C300 C 0.00351 1.20680 0.15171
 C301 C 0.00340 1.17512 0.11997
 C302 C 0.00324 1.13136 0.13112
 C303 C 0.00350 1.12015 0.17481
 C304 C 0.00362 1.15191 0.20647
 H305 H -0.06791 1.35067 0.35042
 H306 H 0.07024 1.35124 0.35128
 H307 H 0.07003 1.40677 0.40689
 H308 H -0.06866 1.40626 0.40608
 H309 H 0.00345 1.24028 0.14247
 H310 H 0.00324 1.18498 0.08673
 H311 H 0.00343 1.08686 0.18464
 H312 H 0.00364 1.14264 0.23990
 C313 C 0.03801 1.36284 -0.36204
 C314 C -0.00097 1.34708 -0.34642
 C315 C -0.03965 1.36319 -0.36250
 C316 C -0.03941 1.39491 -0.39408
 C317 C -0.00039 1.41098 -0.41003
 C318 C 0.03835 1.39458 -0.39364
 C319 C -0.00135 1.31441 -0.31390
 C320 C -0.00181 1.28705 -0.28667
 C321 C -0.00241 1.25502 -0.25479
 C322 C -0.00288 1.22768 -0.22754
 C323 C -0.00331 1.19504 -0.19499
 C324 C -0.00337 1.15167 -0.20657
 C325 C -0.00326 1.11994 -0.17498
 C326 C -0.00305 1.13118 -0.13127
 C327 C -0.00326 1.17495 -0.12001
 C328 C -0.00337 1.20660 -0.15168
 H329 H 0.06815 1.35059 -0.34980
 H330 H -0.07001 1.35122 -0.35063
 H331 H -0.06978 1.40683 -0.40600
 H332 H 0.06892 1.40625 -0.40521
 H333 H -0.00335 1.14238 -0.24002
 H334 H -0.00315 1.08663 -0.18488
 H335 H -0.00314 1.18483 -0.08675
 H336 H -0.00334 1.24009 -0.14237
 C337 C 0.03977 0.63658 -0.36339
 C338 C 0.00109 0.65262 -0.34739
 C339 C -0.03785 0.63689 -0.36322
 C340 C -0.03818 0.60519 -0.39497
 C341 C 0.00060 0.58869 -0.41141
 C342 C 0.03961 0.60490 -0.39511
 C343 C 0.00142 0.68524 -0.31471
 C344 C 0.00185 0.71255 -0.28735
 C345 C 0.00242 0.74453 -0.25532
 C346 C 0.00288 0.77186 -0.22798
 C347 C 0.00330 0.80451 -0.19534
 C348 C 0.00337 0.79298 -0.15205
 C349 C 0.00326 0.82465 -0.12031
 C350 C 0.00306 0.86841 -0.13147
 C351 C 0.00325 0.87962 -0.17516
 C352 C 0.00336 0.84786 -0.20681
 H353 H 0.07010 0.64855 -0.35134
 H354 H -0.06799 0.64911 -0.35103
 H355 H -0.06887 0.59369 -0.40654
 H356 H 0.07015 0.59318 -0.40679
 H357 H 0.00334 0.75949 -0.14282
 H358 H 0.00316 0.81479 -0.08707
 H359 H 0.00314 0.91292 -0.18498
 H360 H 0.00333 0.85714 -0.24024
 C361 C -0.03953 0.63767 0.36309
 C362 C -0.00084 0.65365 0.34702
 C363 C 0.03813 0.63797 0.36287
 C364 C 0.03844 0.60641 0.39465
 C365 C -0.00031 0.59012 0.41100
 C366 C -0.03931 0.60613 0.39485
 C367 C -0.00119 0.68610 0.31429
 C368 C -0.00163 0.71329 0.28688
 C369 C -0.00221 0.74513 0.25481
 C370 C -0.00268 0.77235 0.22744
 C371 C -0.00311 0.80491 0.19481
 C372 C -0.00324 0.84829 0.20630
 C373 C -0.00315 0.87997 0.17467
 C374 C -0.00288 0.86866 0.13097
 C375 C -0.00301 0.82487 0.11979
 C376 C -0.00310 0.79327 0.15152
 H377 H -0.06988 0.64959 0.35105
 H378 H 0.06828 0.65013 0.35065
 H379 H 0.06900 0.59478 0.40638
 H380 H -0.06970 0.59429 0.40673
 H381 H -0.00327 0.85765 0.23974
 H382 H -0.00310 0.91329 0.18451
 H383 H -0.00284 0.81493 0.08654
 H384 H -0.00302 0.75976 0.14227
   
