data_POSCAR
  _audit_creation_date              2014-09-24
  _audit_creation_method            'ToBaCCo'
  _symmetry_space_group_name_H-M    'P1'
  _symmetry_Int_Tables_number       1
  _symmetry_cell_setting            triclinic
  loop_
  _symmetry_equiv_pos_as_xyz
 x,y,z
_cell_length_a 41.4310
_cell_length_b 41.4183
_cell_length_c 41.4375
_cell_angle_alpha 89.963000
_cell_angle_beta 89.986400
_cell_angle_gamma 89.965500
loop_
  _atom_site_label
  _atom_site_type_symbol
  _atom_site_fract_x
  _atom_site_fract_y
  _atom_site_fract_z
C1 C 0.27287 0.25021 0.22678
 N2 N 0.24972 0.27341 0.22678
 C3 C 0.22651 0.27337 0.24989
 N4 N 0.22644 0.25013 0.27300
 C5 C 0.24959 0.22694 0.27299
 N6 N 0.27280 0.22698 0.24988
 C7 C 0.72615 -0.25060 0.22613
 N8 N 0.74942 -0.27368 0.22604
 C9 C 0.77266 -0.27363 0.24911
 N10 N 0.77262 -0.25050 0.27229
 C11 C 0.74936 -0.22742 0.27239
 N12 N 0.72613 -0.22747 0.24931
 C13 C 0.72774 0.25067 0.77260
 N14 N 0.72784 0.22744 0.74952
 C15 C 0.75102 0.22745 0.72638
 N16 N 0.77411 0.25068 0.72632
 C17 C 0.77400 0.27391 0.74941
 N18 N 0.75082 0.27389 0.77255
 C19 C 0.27401 -0.25041 0.77459
 N20 N 0.27411 -0.22731 0.75135
 C21 C 0.25092 -0.22722 0.72823
 N22 N 0.22763 -0.25024 0.72835
 C23 C 0.22752 -0.27334 0.75158
 N24 N 0.25071 -0.27343 0.77470
 C25 C 0.72617 -0.25037 0.77438
 N26 N 0.72614 -0.22725 0.75115
 C27 C 0.74933 -0.22726 0.72800
 N28 N 0.77254 -0.25040 0.72808
 C29 C 0.77258 -0.27352 0.75130
 N30 N 0.74939 -0.27351 0.77445
 C31 C 0.27298 0.25011 0.77282
 N32 N 0.27297 0.22692 0.74969
 C33 C 0.24977 0.22688 0.72658
 N34 N 0.22657 0.25004 0.72660
 C35 C 0.22658 0.27322 0.74973
 N36 N 0.24978 0.27325 0.77284
 C37 C 0.27329 -0.25110 0.22581
 N38 N 0.27338 -0.22801 0.24904
 C39 C 0.25016 -0.22792 0.27215
 N40 N 0.22685 -0.25093 0.27203
 C41 C 0.22675 -0.27403 0.24881
 N42 N 0.24998 -0.27411 0.22570
 C43 C 0.72805 0.25109 0.22700
 N44 N 0.75114 0.27433 0.22705
 C45 C 0.77431 0.27432 0.25020
 N46 N 0.77439 0.25107 0.27330
 C47 C 0.75130 0.22783 0.27324
 N48 N 0.72814 0.22785 0.25009
 O49 O 0.27676 0.03056 0.46830
 O50 O 0.27709 -0.03226 0.53124
 O51 O 0.27698 -0.03233 0.46836
 O52 O 0.27684 0.03062 0.53114
 O53 O 0.22346 0.03044 0.53123
 O54 O 0.22361 -0.03250 0.46846
 O55 O 0.22371 -0.03243 0.53133
 O56 O 0.22338 0.03039 0.46839
 Cu57 Cu 0.28230 -0.00085 0.49975
 Cu58 Cu 0.21815 -0.00105 0.49986
 C59 C 0.25001 0.04109 0.45774
 C60 C 0.25046 -0.04293 0.54192
 C61 C 0.25032 -0.04303 0.45780
 C62 C 0.25012 0.04116 0.54178
 O63 O 0.72388 0.03118 0.53126
 O64 O 0.72346 -0.03169 0.46846
 O65 O 0.72344 -0.03170 0.53134
 O66 O 0.72391 0.03120 0.46843
 O67 O 0.77729 0.03080 0.46843
 O68 O 0.77682 -0.03210 0.53134
 O69 O 0.77684 -0.03209 0.46847
 O70 O 0.77726 0.03078 0.53127
 Cu71 Cu 0.71829 -0.00022 0.49987
 Cu72 Cu 0.78244 -0.00070 0.49988
 C73 C 0.75064 0.04160 0.54186
 C74 C 0.75008 -0.04249 0.45786
 C75 C 0.75006 -0.04250 0.54197
 C76 C 0.75068 0.04163 0.45783
 O77 O 0.46902 0.27736 0.03129
 O78 O 0.53187 0.27742 -0.03158
 O79 O 0.46901 0.27729 -0.03157
 O80 O 0.53189 0.27750 0.03128
 O81 O 0.53203 0.22410 0.03137
 O82 O 0.46915 0.22390 -0.03147
 O83 O 0.53201 0.22402 -0.03148
 O84 O 0.46917 0.22397 0.03138
 Cu85 Cu 0.50043 0.28278 -0.00015
 Cu86 Cu 0.50060 0.21861 -0.00004
 C87 C 0.45848 0.25065 0.04194
 C88 C 0.54254 0.25073 -0.04214
 C89 C 0.45846 0.25056 -0.04212
 C90 C 0.54258 0.25083 0.04193
 O91 O 0.53148 0.72242 0.03183
 O92 O 0.46868 0.72245 -0.03107
 O93 O 0.53155 0.72251 -0.03103
 O94 O 0.46860 0.72235 0.03178
 O95 O 0.46851 0.77574 0.03183
 O96 O 0.53147 0.77591 -0.03099
 O97 O 0.46860 0.77585 -0.03102
 O98 O 0.53139 0.77582 0.03187
 Cu99 Cu 0.50009 0.71705 0.00037
 Cu100 Cu 0.49999 0.78122 0.00043
 C101 C 0.54203 0.74912 0.04246
 C102 C 0.45804 0.74916 -0.04166
 C103 C 0.54213 0.74923 -0.04162
 C104 C 0.45792 0.74902 0.04240
 O105 O 0.03100 0.46979 0.27606
 O106 O -0.03189 0.53266 0.27584
 O107 O -0.03184 0.46978 0.27614
 O108 O 0.03101 0.53267 0.27577
 O109 O 0.03096 0.53246 0.22240
 O110 O -0.03190 0.46956 0.22277
 O111 O -0.03194 0.53245 0.22247
 O112 O 0.03095 0.46957 0.22269
 Cu113 Cu -0.00043 0.50126 0.28134
 Cu114 Cu -0.00049 0.50100 0.21720
 C115 C 0.04158 0.45906 0.24941
 C116 C -0.04254 0.54316 0.24912
 C117 C -0.04246 0.45904 0.24952
 C118 C 0.04161 0.54316 0.24902
 O119 O 0.03055 0.53227 0.72428
 O120 O -0.03229 0.46942 0.72375
 O121 O -0.03234 0.53231 0.72420
 O122 O 0.03056 0.46940 0.72383
 O123 O 0.03049 0.46899 0.77720
 O124 O -0.03241 0.53190 0.77757
 O125 O -0.03236 0.46901 0.77712
 O126 O 0.03048 0.53186 0.77765
 Cu127 Cu -0.00088 0.50090 0.71863
 Cu128 Cu -0.00096 0.50041 0.78277
 C129 C 0.04114 0.54265 0.75105
 C130 C -0.04291 0.45859 0.75035
 C131 C -0.04300 0.54272 0.75095
 C132 C 0.04114 0.45857 0.75045
 C133 C 0.34259 0.25039 0.15743
 N134 N 0.36206 0.22436 0.15344
 N135 N 0.38486 0.22443 0.13075
 C136 C 0.38887 0.25053 0.11138
 N137 N 0.36940 0.27656 0.11537
 N138 N 0.34660 0.27649 0.13806
 C139 C 0.31804 0.25031 0.18184
 C140 C 0.29741 0.25026 0.20236
 C141 C 0.41340 0.25059 0.08693
 C142 C 0.43399 0.25063 0.06639
 C143 C 0.65778 0.74924 0.15807
 N144 N 0.66276 0.73372 0.12969
 N145 N 0.63999 0.73367 0.10698
 C146 C 0.61156 0.74915 0.11197
 N147 N 0.60659 0.76467 0.14035
 N148 N 0.62936 0.76471 0.16306
 C149 C 0.68231 0.74930 0.18251
 C150 C 0.70292 0.74935 0.20303
 C151 C 0.58706 0.74912 0.08751
 C152 C 0.56649 0.74911 0.06694
 C153 C 0.65818 0.25068 -0.15789
 N154 N 0.64638 0.27894 -0.14629
 N155 N 0.62364 0.27896 -0.12353
 C156 C 0.61202 0.25072 -0.11170
 N157 N 0.62382 0.22247 -0.12331
 N158 N 0.64655 0.22245 -0.14606
 C159 C 0.68266 0.25066 -0.18237
 C160 C 0.70324 0.25066 -0.20294
 C161 C 0.58755 0.25074 -0.08721
 C162 C 0.56700 0.25074 -0.06662
 C163 C 0.34232 0.74938 -0.15729
 N164 N 0.36151 0.72317 -0.15310
 N165 N 0.38427 0.72312 -0.13038
 C166 C 0.38852 0.74927 -0.11116
 N167 N 0.36933 0.77548 -0.11535
 N168 N 0.34657 0.77553 -0.13807
 C169 C 0.31781 0.74944 -0.18174
 C170 C 0.29722 0.74950 -0.20228
 C171 C 0.41301 0.74921 -0.08670
 C172 C 0.43358 0.74918 -0.06613
 C173 C 0.15708 0.34307 0.24982
 N174 N 0.12538 0.33490 0.25000
 N175 N 0.10268 0.35771 0.24992
 C176 C 0.11100 0.38937 0.24967
 N177 N 0.14270 0.39754 0.24949
 N178 N 0.16539 0.37473 0.24956
 C179 C 0.18151 0.31851 0.24987
 C180 C 0.20205 0.29789 0.24989
 C181 C 0.08657 0.41393 0.24957
 C182 C 0.06603 0.43455 0.24950
 C183 C 0.15753 0.65760 0.75162
 N184 N 0.14157 0.65009 0.77919
 N185 N 0.11865 0.62753 0.77911
 C186 C 0.11101 0.61180 0.75145
 N187 N 0.12698 0.61931 0.72388
 N188 N 0.14990 0.64187 0.72396
 C189 C 0.18219 0.68190 0.75168
 C190 C 0.20289 0.70233 0.75167
 C191 C 0.08637 0.58749 0.75135
 C192 C 0.06569 0.56703 0.75123
 C193 C -0.15877 0.65843 0.24892
 N194 N -0.12713 0.66683 0.24917
 N195 N -0.10427 0.64419 0.24917
 C196 C -0.11235 0.61246 0.24894
 N197 N -0.14398 0.60406 0.24869
 N198 N -0.16685 0.62670 0.24868
 C199 C -0.18338 0.68280 0.24896
 C200 C -0.20406 0.70329 0.24902
 C201 C -0.08774 0.58808 0.24898
 C202 C -0.06708 0.56758 0.24904
 C203 C -0.15807 0.34241 0.74948
 N204 N -0.16649 0.37406 0.74979
 N205 N -0.14386 0.39691 0.74993
 C206 C -0.11214 0.38881 0.74978
 N207 N -0.10373 0.35716 0.74948
 N208 N -0.12635 0.33430 0.74933
 C209 C -0.18243 0.31781 0.74940
 C210 C -0.20291 0.29715 0.74938
 C211 C -0.08779 0.41341 0.74998
 C212 C -0.06731 0.43405 0.75015
 C213 C 0.24958 0.15717 0.34235
 N214 N 0.22979 0.13123 0.33980
 N215 N 0.22986 0.10839 0.36247
 C216 C 0.24972 0.11081 0.38836
 N217 N 0.26951 0.13676 0.39092
 N218 N 0.26944 0.15960 0.36825
 C219 C 0.24954 0.18174 0.31793
 C220 C 0.24954 0.20238 0.29742
 C221 C 0.24980 0.08623 0.41277
 C222 C 0.24989 0.06560 0.43329
 C223 C 0.75112 0.15765 0.65714
 N224 N 0.73126 0.13176 0.65978
 N225 N 0.73120 0.10893 0.63713
 C226 C 0.75101 0.11130 0.61118
 N227 N 0.77087 0.13719 0.60854
 N228 N 0.77092 0.16002 0.63118
 C229 C 0.75114 0.18224 0.68150
 C230 C 0.75111 0.20289 0.70198
 C231 C 0.75091 0.08674 0.58678
 C232 C 0.75080 0.06612 0.56627
 C233 C 0.25097 -0.15797 0.65836
 N234 N 0.27414 -0.15775 0.63523
 N235 N 0.27405 -0.13515 0.61232
 C236 C 0.25079 -0.11210 0.61185
 N237 N 0.22763 -0.11232 0.63498
 N238 N 0.22772 -0.13492 0.65789
 C239 C 0.25102 -0.18233 0.68298
 C240 C 0.25101 -0.20281 0.70366
 C241 C 0.25069 -0.08777 0.58720
 C242 C 0.25059 -0.06731 0.56651
 C243 C 0.74947 -0.15801 0.34203
 N244 N 0.77224 -0.15827 0.36554
 N245 N 0.77234 -0.13557 0.38832
 C246 C 0.74967 -0.11194 0.38828
 N247 N 0.72690 -0.11167 0.36477
 N248 N 0.72680 -0.13437 0.34199
 C249 C 0.74939 -0.18243 0.31750
 C250 C 0.74935 -0.20296 0.29690
 C251 C 0.74980 -0.08749 0.41279
 C252 C 0.74992 -0.06695 0.43337
 C253 C 0.65787 0.74954 -0.15739
 N254 N 0.64569 0.77774 -0.14606
 N255 N 0.62295 0.77768 -0.12330
 C256 C 0.61170 0.74941 -0.11119
 N257 N 0.62387 0.72121 -0.12253
 N258 N 0.64661 0.72127 -0.14528
 C259 C 0.68237 0.74960 -0.18189
 C260 C 0.70296 0.74962 -0.20246
 C261 C 0.58721 0.74934 -0.08668
 C262 C 0.56663 0.74929 -0.06610
 C263 C 0.34265 0.25025 -0.15774
 N264 N 0.36213 0.22423 -0.15371
 N265 N 0.38490 0.22428 -0.13099
 C266 C 0.38888 0.25037 -0.11163
 N267 N 0.36941 0.27639 -0.11566
 N268 N 0.34663 0.27633 -0.13838
 C269 C 0.31812 0.25018 -0.18219
 C270 C 0.29751 0.25014 -0.20273
 C271 C 0.41339 0.25042 -0.08716
 C272 C 0.43398 0.25048 -0.06660
 C273 C 0.34175 0.74882 0.15773
 N274 N 0.36100 0.72265 0.15357
 N275 N 0.38384 0.72268 0.13091
 C276 C 0.38812 0.74888 0.11173
 N277 N 0.36887 0.77505 0.11590
 N278 N 0.34603 0.77502 0.13855
 C279 C 0.31717 0.74881 0.18215
 C280 C 0.29653 0.74884 0.20268
 C281 C 0.41272 0.74891 0.08733
 C282 C 0.43337 0.74896 0.06682
 C283 C 0.65845 0.25108 0.15749
 N284 N 0.66348 0.23573 0.12902
 N285 N 0.64071 0.23569 0.10631
 C286 C 0.61221 0.25101 0.11138
 N287 N 0.60718 0.26637 0.13985
 N288 N 0.62996 0.26640 0.16256
 C289 C 0.68297 0.25109 0.18195
 C290 C 0.70356 0.25110 0.20251
 C291 C 0.58768 0.25096 0.08694
 C292 C 0.56708 0.25091 0.06639
 C293 C -0.15900 0.65832 0.75139
 N294 N -0.12734 0.66663 0.75113
 N295 N -0.10454 0.64392 0.75107
 C296 C -0.11270 0.61221 0.75129
 N297 N -0.14436 0.60390 0.75156
 N298 N -0.16717 0.62661 0.75161
 C299 C -0.18356 0.68277 0.75139
 C300 C -0.20419 0.70332 0.75137
 C301 C -0.08814 0.58775 0.75119
 C302 C -0.06752 0.56720 0.75109
 C303 C -0.15772 0.34284 0.25017
 N304 N -0.16611 0.37450 0.24987
 N305 N -0.14348 0.39735 0.24976
 C306 C -0.11176 0.38924 0.24994
 N307 N -0.10336 0.35758 0.25024
 N308 N -0.12599 0.33473 0.25035
 C309 C -0.18209 0.31824 0.25022
 C310 C -0.20259 0.29758 0.25024
 C311 C -0.08738 0.41384 0.24980
 C312 C -0.06688 0.43449 0.24967
 C313 C 0.15693 0.34278 0.74988
 N314 N 0.12526 0.33453 0.74972
 N315 N 0.10250 0.35729 0.74982
 C316 C 0.11072 0.38898 0.75008
 N317 N 0.14240 0.39723 0.75024
 N318 N 0.16516 0.37447 0.75014
 C319 C 0.18145 0.31828 0.74980
 C320 C 0.20204 0.29771 0.74976
 C321 C 0.08621 0.41348 0.75019
 C322 C 0.06563 0.43407 0.75030
 C323 C 0.15800 0.65823 0.24869
 N324 N 0.14180 0.65107 0.27623
 N325 N 0.11888 0.62850 0.27626
 C326 C 0.11147 0.61240 0.24875
 N327 N 0.12767 0.61955 0.22121
 N328 N 0.15058 0.64213 0.22118
 C329 C 0.18269 0.68252 0.24868
 C330 C 0.20342 0.70295 0.24871
 C331 C 0.08683 0.58805 0.24881
 C332 C 0.06616 0.56757 0.24889
 C333 C 0.74942 -0.15791 0.65815
 N334 N 0.77259 -0.15780 0.63502
 N335 N 0.77269 -0.13514 0.61217
 C336 C 0.74962 -0.11190 0.61175
 N337 N 0.72644 -0.11201 0.63487
 N338 N 0.72634 -0.13467 0.65773
 C339 C 0.74934 -0.18231 0.68276
 C340 C 0.74931 -0.20282 0.70343
 C341 C 0.74975 -0.08748 0.58716
 C342 C 0.74988 -0.06695 0.56652
 C343 C 0.25032 -0.15855 0.34188
 N344 N 0.27313 -0.15870 0.36536
 N345 N 0.27315 -0.13601 0.38816
 C346 C 0.25036 -0.11249 0.38817
 N347 N 0.22755 -0.11234 0.36469
 N348 N 0.22753 -0.13503 0.34190
 C349 C 0.25029 -0.18298 0.31733
 C350 C 0.25025 -0.20350 0.29671
 C351 C 0.25037 -0.08805 0.41271
 C352 C 0.25036 -0.06751 0.43331
 C353 C 0.75131 0.15790 0.34251
 N354 N 0.73144 0.13202 0.33986
 N355 N 0.73135 0.10914 0.36250
 C356 C 0.75113 0.11145 0.38847
 N357 N 0.77100 0.13733 0.39112
 N358 N 0.77109 0.16021 0.36848
 C359 C 0.75137 0.18254 0.31815
 C360 C 0.75137 0.20323 0.29766
 C361 C 0.75099 0.08685 0.41287
 C362 C 0.75086 0.06619 0.43339
 C363 C 0.24982 0.15719 0.65717
 N364 N 0.23002 0.13125 0.65972
 N365 N 0.23007 0.10844 0.63705
 C366 C 0.24994 0.11088 0.61114
 N367 N 0.26974 0.13682 0.60859
 N368 N 0.26969 0.15963 0.63126
 C369 C 0.24978 0.18174 0.68160
 C370 C 0.24976 0.20236 0.70213
 C371 C 0.25000 0.08631 0.58673
 C372 C 0.25006 0.06569 0.56621
   
