data_POSCAR
  _audit_creation_date              2014-09-24
  _audit_creation_method            'ToBaCCo'
  _symmetry_space_group_name_H-M    'P1'
  _symmetry_Int_Tables_number       1
  _symmetry_cell_setting            triclinic
  loop_
  _symmetry_equiv_pos_as_xyz
 x,y,z
_cell_length_a 47.4816
_cell_length_b 48.9202
_cell_length_c 44.6544
_cell_angle_alpha 90.299900
_cell_angle_beta 89.790800
_cell_angle_gamma 89.681000
loop_
  _atom_site_label
  _atom_site_type_symbol
  _atom_site_fract_x
  _atom_site_fract_y
  _atom_site_fract_z
C1 C 0.22075 0.21569 0.26113
 N2 N 0.24223 0.20203 0.24739
 C3 C 0.25302 0.21064 0.22089
 N4 N 0.24211 0.23350 0.20815
 C5 C 0.22073 0.24761 0.22151
 N6 N 0.21004 0.23850 0.24793
 C7 C -0.16904 0.80240 0.21472
 N8 N -0.16370 0.77592 0.20690
 C9 C -0.17984 0.76300 0.18613
 N10 N -0.20139 0.77684 0.17311
 C11 C -0.20706 0.80325 0.18052
 N12 N -0.19075 0.81579 0.20135
 C13 C -0.22802 0.21517 -0.25749
 N14 N -0.21547 0.23519 -0.24113
 C15 C -0.22704 0.24419 -0.21493
 N16 N -0.25138 0.23276 -0.20499
 C17 C -0.26428 0.21272 -0.22104
 N18 N -0.25241 0.20421 -0.24722
 C19 C 0.18009 0.79011 -0.21408
 N20 N 0.17171 0.76600 -0.20209
 C21 C 0.18695 0.75391 -0.17997
 N22 N 0.21066 0.76636 -0.16975
 C23 C 0.21931 0.79051 -0.18154
 N24 N 0.20384 0.80207 -0.20367
 C25 C 0.23599 1.21252 0.74185
 N26 N 0.22170 1.23440 0.75315
 C27 C 0.22984 1.24687 0.77893
 N28 N 0.25294 1.23719 0.79348
 C29 C 0.26774 1.21545 0.78242
 N30 N 0.25902 1.20318 0.75670
 C31 C 0.81221 0.79406 0.77976
 N32 N 0.82087 0.76842 0.78687
 C33 C 0.80715 0.75350 0.80783
 N34 N 0.78432 0.76452 0.82197
 C35 C 0.77517 0.79014 0.81508
 N36 N 0.78928 0.80473 0.79401
 C37 C 0.17661 0.81277 1.20130
 N38 N 0.20188 0.82145 1.19059
 C39 C 0.21581 0.80701 1.16897
 N40 N 0.20419 0.78370 1.15802
 C41 C 0.17898 0.77468 1.16841
 N42 N 0.16546 0.78938 1.19003
 C43 C 0.77874 1.20946 1.26670
 N44 N 0.79442 1.22736 1.25057
 C45 C 0.78588 1.23613 1.22324
 N46 N 0.76110 1.22684 1.21213
 C47 C 0.74503 1.20903 1.22785
 N48 N 0.75405 1.20032 1.25506
 O49 O 0.52102 0.95975 0.95836
 O50 O 0.47800 0.96812 1.05330
 O51 O 0.56303 0.98976 1.02433
 O52 O 0.43224 0.98931 0.97484
 O53 O 0.53228 0.96719 1.05171
 O54 O 0.46903 0.96692 0.95671
 O55 O 0.46117 0.96204 1.00890
 O56 O 0.55715 0.98461 0.97087
 C57 C 0.54705 0.96198 0.96223
 C58 C 0.46307 0.95467 1.03547
 C59 C 0.55698 0.97035 1.04204
 C60 C 0.44253 0.97184 0.95506
 O61 O 0.47846 1.01998 0.94291
 O62 O 0.53259 1.01916 1.06065
 O63 O 0.53453 1.03804 0.97031
 O64 O 0.44565 1.00874 1.03048
 O65 O 0.48028 1.02201 1.05849
 O66 O 0.52900 1.00899 0.93667
 O67 O 0.45995 1.03306 0.98416
 O68 O 0.54353 1.04198 1.02148
 Co69 Co 0.49971 0.99006 0.95368
 Co70 Co 0.50542 0.99443 1.05086
 Co71 Co 0.54616 1.01254 0.99657
 Co72 Co 0.46319 0.99770 0.99602
 O73 O 0.50505 0.99955 1.00190
 C74 C 0.46523 1.03785 0.95754
 C75 C 0.54240 1.04028 1.04913
 C76 C 0.53553 1.03266 0.94353
 C77 C 0.45478 1.02307 1.05168
 O78 O 0.02356 0.45658 0.05953
 O79 O 0.03198 0.49549 -0.04178
 O80 O 0.03289 0.44527 -0.03418
 O81 O -0.00108 0.53682 0.02734
 O82 O 0.01113 0.45820 -0.07420
 O83 O 0.02261 0.50805 0.05504
 O84 O 0.00903 0.53141 -0.02566
 O85 O 0.04252 0.44449 0.01787
 C86 C 0.04384 0.44636 0.04550
 C87 C 0.03113 0.52082 -0.03696
 C88 C 0.02903 0.44161 -0.06199
 C89 C 0.01881 0.53176 0.04534
 O90 O -0.03164 0.50708 0.05983
 O91 O -0.03544 0.46099 -0.04612
 O92 O -0.00947 0.42421 0.03051
 O93 O -0.04472 0.50931 -0.03204
 O94 O -0.01524 0.50496 -0.06602
 O95 O -0.03091 0.45576 0.05753
 O96 O -0.05277 0.51337 0.01860
 O97 O -0.02021 0.42567 -0.02329
 Co98 Co -0.00425 0.48168 0.05270
 Co99 Co -0.00153 0.47740 -0.04209
 Co100 Co 0.00985 0.43873 -0.00196
 Co101 Co -0.02106 0.51955 -0.00270
 O102 O -0.00521 0.48029 0.00340
 C103 C -0.05289 0.51500 0.04616
 C104 C -0.03846 0.43660 -0.03951
 C105 C -0.02783 0.43120 0.04990
 C106 C -0.03827 0.51460 -0.05821
 O107 O 1.05772 0.02291 0.47331
 O108 O 0.94277 0.02150 0.53228
 O109 O 0.97437 0.05118 0.47321
 O110 O 1.02933 0.04501 0.55421
 O111 O 0.94241 0.02141 0.47833
 O112 O 1.06087 0.02201 0.52838
 O113 O 0.97606 0.04859 0.54691
 O114 O 1.02464 0.05218 0.46767
 C115 C 1.05019 0.04700 0.46808
 C116 C 0.95058 0.04457 0.54200
 C117 C 0.94899 0.04571 0.47370
 C118 C 1.05431 0.04120 0.54610
 O119 O 1.04618 -0.02936 0.53007
 O120 O 0.96726 -0.02877 0.47725
 O121 O 1.02407 0.00221 0.44112
 O122 O 0.97201 -0.00241 0.56602
 O123 O 0.96504 -0.03062 0.53078
 O124 O 1.03777 -0.02817 0.47304
 O125 O 1.02377 -0.00735 0.56616
 O126 O 0.97344 0.00174 0.44400
 Co127 Co 1.04577 -0.00208 0.50124
 Co128 Co 0.95818 -0.00290 0.50471
 Co129 Co 0.99912 0.02544 0.46047
 Co130 Co 1.00016 0.02006 0.55313
 O131 O 1.00113 0.01010 0.50508
 C132 C 1.03884 -0.02716 0.55704
 C133 C 0.96871 -0.02270 0.45040
 C134 C 1.03318 -0.02151 0.44659
 C135 C 0.96586 -0.02602 0.55795
 C136 C 1.20689 0.16963 0.32565
 C137 C 1.18278 0.18167 0.33811
 C138 C 1.17217 0.20601 0.32614
 C139 C 1.18519 0.21787 0.30123
 C140 C 1.20892 0.20534 0.28773
 C141 C 1.21990 0.18132 0.30078
 C142 C 1.16776 0.16764 0.36144
 C143 C 1.15490 0.15474 0.37986
 C144 C 1.13932 0.13854 0.39999
 C145 C 1.12537 0.12399 0.41583
 C146 C 1.10774 0.10600 0.43296
 C147 C 1.07967 0.11327 0.43851
 C148 C 1.06124 0.09442 0.45122
 C149 C 1.07062 0.06793 0.45843
 C150 C 1.09919 0.06120 0.45414
 C151 C 1.11762 0.08012 0.44135
 H152 H 1.21522 0.15073 0.33467
 H153 H 1.15341 0.21543 0.33555
 H154 H 1.17610 0.23638 0.29212
 H155 H 1.23820 0.17103 0.29143
 H156 H 1.07176 0.13318 0.43199
 H157 H 1.03939 0.10027 0.45440
 H158 H 1.10704 0.04101 0.45959
 H159 H 1.13929 0.07422 0.43701
 C160 C 0.85849 -0.14296 0.26501
 C161 C 0.88090 -0.15645 0.27887
 C162 C 0.88687 -0.18371 0.27146
 C163 C 0.87043 -0.19744 0.25024
 C164 C 0.84769 -0.18404 0.23610
 C165 C 0.84204 -0.15654 0.24386
 C166 C 0.89729 -0.14211 0.30095
 C167 C 0.91007 -0.12918 0.31947
 C168 C 0.92387 -0.11307 0.34120
 C169 C 0.93459 -0.09861 0.35984
 C170 C 0.94601 -0.08058 0.38226
 C171 C 0.94616 -0.08839 0.41236
 C172 C 0.95436 -0.06980 0.43453
 C173 C 0.96235 -0.04309 0.42684
 C174 C 0.96305 -0.03571 0.39645
 C175 C 0.95490 -0.05435 0.37431
 H176 H 0.85365 -0.12186 0.27062
 H177 H 0.90416 -0.19437 0.28213
 H178 H 0.87559 -0.21853 0.24502
 H179 H 0.82487 -0.14533 0.23368
 H180 H 0.93922 -0.10860 0.41878
 H181 H 0.95373 -0.07612 0.45773
 H182 H 0.96929 -0.01535 0.38983
 H183 H 0.95480 -0.04805 0.35109
 C184 C 0.78575 0.17128 0.67549
 C185 C 0.81228 0.18050 0.66660
 C186 C 0.82471 0.20242 0.68176
 C187 C 0.81104 0.21456 0.70630
 C188 C 0.78473 0.20477 0.71625
 C189 C 0.77203 0.18330 0.69999
 C190 C 0.82770 0.16589 0.64371
 C191 C 0.84107 0.15271 0.62568
 C192 C 0.85744 0.13638 0.60603
 C193 C 0.87224 0.12186 0.59070
 C194 C 0.89106 0.10402 0.57437
 C195 C 0.91975 0.11025 0.57315
 C196 C 0.93895 0.09131 0.56140
 C197 C 0.92974 0.06576 0.55079
 C198 C 0.90071 0.06019 0.55065
 C199 C 0.88148 0.07919 0.56253
 H200 H 0.77598 0.15425 0.66400
 H201 H 0.84533 0.20964 0.67513
 H202 H 0.82155 0.23108 0.71792
 H203 H 0.75177 0.17518 0.70657
 H204 H 0.92742 0.12935 0.58234
 H205 H 0.96114 0.09633 0.56158
 H206 H 0.89298 0.04076 0.54245
 H207 H 0.85932 0.07411 0.56348
 C208 C 1.15707 -0.15778 0.72838
 C209 C 1.13097 -0.16802 0.71948
 C210 C 1.12103 -0.19245 0.73175
 C211 C 1.13710 -0.20643 0.75311
 C212 C 1.16326 -0.19604 0.76246
 C213 C 1.17308 -0.17162 0.74965
 C214 C 1.11459 -0.15291 0.69804
 C215 C 1.10199 -0.13915 0.68014
 C216 C 1.08849 -0.12200 0.65922
 C217 C 1.07799 -0.10668 0.64133
 C218 C 1.06665 -0.08774 0.61987
 C219 C 1.04788 -0.06714 0.62903
 C220 C 1.03853 -0.04758 0.60854
 C221 C 1.04791 -0.04835 0.57859
 C222 C 1.06636 -0.06946 0.56951
 C223 C 1.07569 -0.08896 0.59004
 H224 H 1.16498 -0.13892 0.71902
 H225 H 1.10083 -0.20057 0.72500
 H226 H 1.12890 -0.22514 0.76252
 H227 H 1.19311 -0.16301 0.75618
 H228 H 1.04082 -0.06594 0.65210
 H229 H 1.02420 -0.03171 0.61621
 H230 H 1.07395 -0.07070 0.54664
 H231 H 1.09032 -0.10473 0.58273
 C232 C 0.30404 1.18689 1.16248
 C233 C 0.31372 1.16251 1.17513
 C234 C 0.30422 1.15473 1.20346
 C235 C 0.28464 1.17094 1.21891
 C236 C 0.27411 1.19526 1.20617
 C237 C 0.28445 1.20320 1.17786
 C238 C 0.33266 1.14493 1.15869
 C239 C 0.34817 1.12979 1.14501
 C240 C 0.36608 1.11173 1.12913
 C241 C 0.38131 1.09615 1.11569
 C242 C 0.39958 1.07752 1.09981
 C243 C 0.42791 1.07528 1.10794
 C244 C 0.44581 1.05735 1.09245
 C245 C 0.43555 1.04139 1.06859
 C246 C 0.40698 1.04367 1.06068
 C247 C 0.38912 1.06164 1.07622
 H248 H 0.31132 1.19310 1.14053
 H249 H 0.31162 1.13589 1.21346
 H250 H 0.27746 1.16403 1.24063
 H251 H 0.27709 1.22175 1.16722
 H252 H 0.43621 1.08747 1.12618
 H253 H 0.46770 1.05612 1.09905
 H254 H 0.39848 1.03172 1.04238
 H255 H 0.36720 1.06322 1.06978
 C256 C 0.28220 0.80758 0.86495
 C257 C 0.28991 0.83271 0.85262
 C258 C 0.27483 0.84326 0.82847
 C259 C 0.25184 0.82910 0.81693
 C260 C 0.24337 0.80397 0.82941
 C261 C 0.25916 0.79323 0.85341
 C262 C 0.31241 0.84856 0.86534
 C263 C 0.33053 0.86291 0.87569
 C264 C 0.35092 0.88074 0.88768
 C265 C 0.36762 0.89662 0.89808
 C266 C 0.38671 0.91615 0.91096
 C267 C 0.37595 0.93913 0.92598
 C268 C 0.39419 0.95770 0.93958
 C269 C 0.42348 0.95351 0.93837
 C270 C 0.43420 0.93071 0.92264
 C271 C 0.41588 0.91211 0.90904
 H272 H 0.29372 0.79925 0.88374
 H273 H 0.28058 0.86273 0.81879
 H274 H 0.24055 0.83818 0.79841
 H275 H 0.25351 0.77400 0.86365
 H276 H 0.35342 0.94250 0.92753
 H277 H 0.38530 0.97508 0.95147
 H278 H 0.45667 0.92694 0.92138
 H279 H 0.42444 0.89442 0.89742
 C280 C 0.74321 0.85926 1.15984
 C281 C 0.72683 0.84628 1.13812
 C282 C 0.73221 0.81897 1.13060
 C283 C 0.75397 0.80466 1.14467
 C284 C 0.77078 0.81751 1.16657
 C285 C 0.76500 0.84506 1.17398
 C286 C 0.70450 0.86104 1.12360
 C287 C 0.68583 0.87365 1.11168
 C288 C 0.66398 0.88874 1.09813
 C289 C 0.64530 0.90194 1.08700
 C290 C 0.62297 0.91811 1.07438
 C291 C 0.62915 0.93880 1.05390
 C292 C 0.60761 0.95555 1.04297
 C293 C 0.57960 0.95180 1.05244
 C294 C 0.57355 0.93059 1.07260
 C295 C 0.59513 0.91390 1.08351
 H296 H 0.73918 0.88042 1.16584
 H297 H 0.71960 0.80872 1.11381
 H298 H 0.75757 0.78355 1.13823
 H299 H 0.77728 0.85581 1.19064
 H300 H 0.65065 0.94225 1.04672
 H301 H 0.61298 0.97168 1.02748
 H302 H 0.55222 0.92713 1.08028
 H303 H 0.59014 0.89796 1.09940
 C304 C 0.67570 1.16424 0.78522
 C305 C 0.66489 1.17112 0.81343
 C306 C 0.67662 1.19282 0.82957
 C307 C 0.69956 1.20717 0.81790
 C308 C 0.71129 1.19986 0.78988
 C309 C 0.69861 1.17847 0.77348
 C310 C 0.64313 1.15465 0.82661
 C311 C 0.62576 1.14021 0.83816
 C312 C 0.60645 1.12277 0.85258
 C313 C 0.59094 1.10768 0.86599
 C314 C 0.57373 1.08970 0.88361
 C315 C 0.56506 1.09805 0.91219
 C316 C 0.55156 1.07970 0.93118
 C317 C 0.54656 1.05266 0.92185
 C318 C 0.55415 1.04470 0.89260
 C319 C 0.56782 1.06314 0.87362
 H320 H 0.66683 1.14742 0.77256
 H321 H 0.66845 1.19826 0.85151
 H322 H 0.70846 1.22351 0.83124
 H323 H 0.70669 1.17219 0.75179
 H324 H 0.56960 1.11849 0.92021
 H325 H 0.54581 1.08644 0.95354
 H326 H 0.55054 1.02400 0.88488
 H327 H 0.57458 1.05642 0.85157
 C328 C 0.17183 0.30688 0.20317
 C329 C 0.18271 0.31539 0.17558
 C330 C 0.20666 0.30253 0.16368
 C331 C 0.21938 0.28091 0.17896
 C332 C 0.20827 0.27175 0.20641
 C333 C 0.18454 0.28524 0.21853
 C334 C 0.16843 0.33623 0.15868
 C335 C 0.15593 0.35304 0.14413
 C336 C 0.14048 0.37196 0.12687
 C337 C 0.12639 0.38744 0.11218
 C338 C 0.10827 0.40501 0.09498
 C339 C 0.10788 0.40307 0.06368
 C340 C 0.08778 0.41764 0.04727
 C341 C 0.06771 0.43418 0.06206
 C342 C 0.06908 0.43689 0.09341
 C343 C 0.08920 0.42237 0.10973
 H344 H 0.15322 0.31663 0.21254
 H345 H 0.21520 0.30888 0.14230
 H346 H 0.23764 0.27109 0.16896
 H347 H 0.17543 0.27877 0.23958
 H348 H 0.12247 0.38958 0.05204
 H349 H 0.08721 0.41508 0.02317
 H350 H 0.05397 0.44950 0.10546
 H351 H 0.08924 0.42396 0.13394
 C352 C -0.17278 0.29593 -0.18917
 C353 C -0.18363 0.30387 -0.16125
 C354 C -0.20909 0.29285 -0.15118
 C355 C -0.22346 0.27375 -0.16879
 C356 C -0.21252 0.26534 -0.19675
 C357 C -0.18708 0.27685 -0.20680
 C358 C -0.16813 0.32273 -0.14274
 C359 C -0.15449 0.33820 -0.12753
 C360 C -0.13768 0.35598 -0.11015
 C361 C -0.12259 0.37082 -0.09578
 C362 C -0.10356 0.38812 -0.07930
 C363 C -0.08588 0.37679 -0.05757
 C364 C -0.06541 0.39287 -0.04368
 C365 C -0.06230 0.42054 -0.05142
 C366 C -0.08084 0.43202 -0.07247
 C367 C -0.10129 0.41588 -0.08637
 H368 H -0.15308 0.30429 -0.19720
 H369 H -0.21768 0.29881 -0.12959
 H370 H -0.24296 0.26535 -0.16031
 H371 H -0.17802 0.27092 -0.22816
 H372 H -0.08739 0.35532 -0.05196
 H373 H -0.05149 0.38344 -0.02753
 H374 H -0.07894 0.45325 -0.07894
 H375 H -0.11479 0.42486 -0.10321
 C376 C 0.14320 0.69089 -0.16384
 C377 C 0.15785 0.67932 -0.13986
 C378 C 0.18245 0.69175 -0.12944
 C379 C 0.19218 0.71580 -0.14272
 C380 C 0.17734 0.72782 -0.16658
 C381 C 0.15284 0.71492 -0.17713
 C382 C 0.14677 0.65549 -0.12518
 C383 C 0.13646 0.63607 -0.11281
 C384 C 0.12302 0.61408 -0.09825
 C385 C 0.11021 0.59617 -0.08579
 C386 C 0.09311 0.57608 -0.07093
 C387 C 0.07378 0.58473 -0.04911
 C388 C 0.05450 0.56633 -0.03710
 C389 C 0.05426 0.53890 -0.04669
 C390 C 0.07461 0.52996 -0.06758
 C391 C 0.09386 0.54854 -0.07976
 H392 H 0.12406 0.68152 -0.17203
 H393 H 0.19391 0.68306 -0.11081
 H394 H 0.21110 0.72512 -0.13401
 H395 H 0.14089 0.72351 -0.19545
 H396 H 0.07293 0.60597 -0.04212
 H397 H 0.03916 0.57381 -0.02100
 H398 H 0.07483 0.50899 -0.07546
 H399 H 0.10865 0.54163 -0.09675
 C400 C -0.18408 0.69482 0.14563
 C401 C -0.16037 0.68124 0.15674
 C402 C -0.14356 0.69393 0.17837
 C403 C -0.15015 0.72034 0.18847
 C404 C -0.17362 0.73442 0.17692
 C405 C -0.19070 0.72118 0.15565
 C406 C -0.15226 0.65509 0.14447
 C407 C -0.14473 0.63374 0.13339
 C408 C -0.13470 0.60951 0.11968
 C409 C -0.12478 0.58961 0.10753
 C410 C -0.11098 0.56703 0.09269
 C411 C -0.09246 0.55038 0.10879
 C412 C -0.07489 0.53187 0.09371
 C413 C -0.07554 0.52989 0.06227
 C414 C -0.09557 0.54536 0.04643
 C415 C -0.11309 0.56394 0.06159
 H416 H -0.19715 0.68524 0.12877
 H417 H -0.12505 0.68365 0.18700
 H418 H -0.13657 0.72987 0.20486
 H419 H -0.20897 0.73133 0.14632
 H420 H -0.09054 0.55270 0.13284
 H421 H -0.05974 0.52019 0.10652
 H422 H -0.09650 0.54435 0.02222
 H423 H -0.12723 0.57686 0.04889
 C424 C 1.18979 0.19332 0.67799
 C425 C 1.20216 0.16873 0.66864
 C426 C 1.22698 0.15958 0.68219
 C427 C 1.23889 0.17455 0.70571
 C428 C 1.22589 0.19880 0.71626
 C429 C 1.20151 0.20827 0.70150
 C430 C 1.18772 0.15190 0.64716
 C431 C 1.17402 0.13797 0.63038
 C432 C 1.15627 0.12189 0.61226
 C433 C 1.13974 0.10838 0.59819
 C434 C 1.11853 0.09255 0.58321
 C435 C 1.12589 0.07194 0.56270
 C436 C 1.10496 0.05552 0.55001
 C437 C 1.07646 0.05949 0.55785
 C438 C 1.06933 0.08067 0.57796
 C439 C 1.09021 0.09702 0.59052
 H440 H 1.17051 0.20055 0.66772
 H441 H 1.23667 0.14047 0.67519
 H442 H 1.25773 0.16656 0.71621
 H443 H 1.19088 0.22688 0.70855
 H444 H 1.14777 0.06828 0.55693
 H445 H 1.11112 0.03946 0.53450
 H446 H 1.04762 0.08435 0.58442
 H447 H 1.08428 0.11288 0.60641
 C448 C 0.83449 -0.14820 0.73094
 C449 C 0.85848 -0.15939 0.71720
 C450 C 0.86679 -0.18612 0.72380
 C451 C 0.85136 -0.20160 0.74424
 C452 C 0.82726 -0.19054 0.75854
 C453 C 0.81896 -0.16361 0.75142
 C454 C 0.87475 -0.14339 0.69653
 C455 C 0.88840 -0.12996 0.67926
 C456 C 0.90418 -0.11404 0.65906
 C457 C 0.91722 -0.10009 0.64177
 C458 C 0.93201 -0.08287 0.62104
 C459 C 0.93268 -0.08950 0.59052
 C460 C 0.94472 -0.07147 0.56999
 C461 C 0.95607 -0.04650 0.57979
 C462 C 0.95625 -0.04048 0.61062
 C463 C 0.94425 -0.05855 0.63110
 H464 H 0.82786 -0.12750 0.72593
 H465 H 0.88532 -0.19499 0.71326
 H466 H 0.85857 -0.22218 0.74889
 H467 H 0.80060 -0.15425 0.76176
 H468 H 0.92324 -0.10827 0.58249
 H469 H 0.94432 -0.07668 0.54639
 H470 H 0.96497 -0.02147 0.61884
 H471 H 0.94385 -0.05322 0.65468
 C472 C 1.15810 -0.13294 0.25722
 C473 C 1.13204 -0.14229 0.26758
 C474 C 1.12089 -0.16651 0.25607
 C475 C 1.13563 -0.18137 0.23425
 C476 C 1.16194 -0.17223 0.22347
 C477 C 1.17297 -0.14775 0.23535
 C478 C 1.11673 -0.12721 0.29018
 C479 C 1.10385 -0.11479 0.30922
 C480 C 1.08898 -0.10032 0.33173
 C481 C 1.07677 -0.08783 0.35121
 C482 C 1.06311 -0.07259 0.37484
 C483 C 1.06523 -0.08148 0.40448
 C484 C 1.05445 -0.06537 0.42783
 C485 C 1.04152 -0.04005 0.42179
 C486 C 1.03847 -0.03180 0.39183
 C487 C 1.04925 -0.04798 0.36851
 H488 H 1.16694 -0.11420 0.26605
 H489 H 1.10075 -0.17395 0.26397
 H490 H 1.12626 -0.20002 0.22588
 H491 H 1.19306 -0.13993 0.22780
 H492 H 1.07591 -0.10050 0.40962
 H493 H 1.05704 -0.07233 0.45064
 H494 H 1.02851 -0.01249 0.38646
 H495 H 1.04746 -0.04091 0.34564
 C496 C 0.82605 0.19681 0.33160
 C497 C 0.81156 0.17613 0.34652
 C498 C 0.78525 0.16770 0.33607
 C499 C 0.77384 0.17934 0.31021
 C500 C 0.78879 0.19945 0.29421
 C501 C 0.81480 0.20844 0.30575
 C502 C 0.82510 0.16190 0.37068
 C503 C 0.83774 0.14942 0.38960
 C504 C 0.85393 0.13414 0.41005
 C505 C 0.86886 0.12049 0.42589
 C506 C 0.88787 0.10347 0.44262
 C507 C 0.87925 0.07768 0.45237
 C508 C 0.89897 0.05927 0.46398
 C509 C 0.92757 0.06641 0.46571
 C510 C 0.93576 0.09290 0.45740
 C511 C 0.91602 0.11127 0.44583
 H512 H 0.84651 0.20340 0.33942
 H513 H 0.77393 0.15157 0.34738
 H514 H 0.75372 0.17190 0.30234
 H515 H 0.82698 0.22397 0.29445
 H516 H 0.85755 0.07138 0.44983
 H517 H 0.89203 0.03908 0.47042
 H518 H 0.95761 0.09902 0.45863
 H519 H 0.92295 0.13112 0.43818
 C520 C 0.17182 0.29778 -0.21099
 C521 C 0.17852 0.30906 -0.18313
 C522 C 0.20305 0.30067 -0.16843
 C523 C 0.22051 0.28060 -0.18124
 C524 C 0.21356 0.26846 -0.20897
 C525 C 0.18914 0.27773 -0.22385
 C526 C 0.15941 0.32819 -0.16907
 C527 C 0.14290 0.34361 -0.15714
 C528 C 0.12327 0.36105 -0.14270
 C529 C 0.10651 0.37547 -0.12971
 C530 C 0.08681 0.39218 -0.11312
 C531 C 0.08925 0.39401 -0.08198
 C532 C 0.07029 0.40998 -0.06546
 C533 C 0.04855 0.42441 -0.07986
 C534 C 0.04609 0.42242 -0.11116
 C535 C 0.06516 0.40636 -0.12771
 H536 H 0.15287 0.30411 -0.22257
 H537 H 0.20842 0.30928 -0.14680
 H538 H 0.23908 0.27425 -0.16903
 H539 H 0.18296 0.26920 -0.24526
 H540 H 0.10587 0.38309 -0.07044
 H541 H 0.07277 0.41113 -0.04139
 H542 H 0.02953 0.43328 -0.12281
 H543 H 0.06303 0.40501 -0.15182
 C544 C -0.15334 0.27899 0.19963
 C545 C -0.16178 0.28686 0.17097
 C546 C -0.18785 0.27845 0.15990
 C547 C -0.20536 0.26198 0.17729
 C548 C -0.19701 0.25358 0.20614
 C549 C -0.17077 0.26252 0.21712
 C550 C -0.14377 0.30378 0.15305
 C551 C -0.12872 0.31825 0.13833
 C552 C -0.11126 0.33575 0.12163
 C553 C -0.09657 0.35141 0.10802
 C554 C -0.07945 0.37113 0.09278
 C555 C -0.06025 0.36303 0.07051
 C556 C -0.04341 0.38253 0.05632
 C557 C -0.04564 0.41032 0.06434
 C558 C -0.06517 0.41818 0.08661
 C559 C -0.08190 0.39872 0.10069
 H560 H -0.13323 0.28551 0.20846
 H561 H -0.19462 0.28455 0.13776
 H562 H -0.22532 0.25570 0.16790
 H563 H -0.16345 0.25667 0.23913
 H564 H -0.05822 0.34169 0.06423
 H565 H -0.02866 0.37587 0.03920
 H566 H -0.06748 0.43939 0.09330
 H567 H -0.09669 0.40520 0.11789
 C568 C -0.18203 0.68626 -0.15148
 C569 C -0.15883 0.67537 -0.16701
 C570 C -0.14765 0.68940 -0.19146
 C571 C -0.15916 0.71448 -0.20002
 C572 C -0.18207 0.72598 -0.18416
 C573 C -0.19365 0.71139 -0.16003
 C574 C -0.14527 0.65077 -0.15679
 C575 C -0.13310 0.63078 -0.14775
 C576 C -0.11819 0.60814 -0.13626
 C577 C -0.10516 0.58951 -0.12533
 C578 C -0.08953 0.56822 -0.11059
 C579 C -0.06329 0.55954 -0.12170
 C580 C -0.04688 0.54107 -0.10530
 C581 C -0.05654 0.53134 -0.07757
 C582 C -0.08329 0.53948 -0.06714
 C583 C -0.09964 0.55779 -0.08355
 H584 H -0.19076 0.67561 -0.13240
 H585 H -0.12964 0.68122 -0.20357
 H586 H -0.14976 0.72504 -0.21878
 H587 H -0.21126 0.71963 -0.14735
 H588 H -0.05519 0.56764 -0.14253
 H589 H -0.02629 0.53519 -0.11373
 H590 H -0.09125 0.53231 -0.04584
 H591 H -0.11982 0.56447 -0.07467
 C592 C 0.12800 0.71830 0.15532
 C593 C 0.14152 0.70361 0.13247
 C594 C 0.16773 0.71219 0.12181
 C595 C 0.18033 0.73556 0.13381
 C596 C 0.16679 0.75077 0.15670
 C597 C 0.14047 0.74165 0.16738
 C598 C 0.12803 0.68007 0.11971
 C599 C 0.11598 0.66064 0.10932
 C600 C 0.10108 0.63825 0.09751
 C601 C 0.08771 0.61939 0.08771
 C602 C 0.07109 0.59721 0.07635
 C603 C 0.04923 0.60248 0.05624
 C604 C 0.03226 0.58117 0.04607
 C605 C 0.03696 0.55426 0.05590
 C606 C 0.05917 0.54911 0.07592
 C607 C 0.07610 0.57049 0.08610
 H608 H 0.10768 0.71182 0.16372
 H609 H 0.17834 0.70092 0.10408
 H610 H 0.20056 0.74173 0.12493
 H611 H 0.12927 0.75257 0.18494
 H612 H 0.04515 0.62312 0.04862
 H613 H 0.01536 0.58580 0.03065
 H614 H 0.06338 0.52861 0.08384
 H615 H 0.09293 0.56622 0.10174
 C616 C 0.32175 1.20310 0.84358
 C617 C 0.33641 1.18045 0.83207
 C618 C 0.32941 1.17002 0.80385
 C619 C 0.30751 1.18178 0.78744
 C620 C 0.29218 1.20419 0.79905
 C621 C 0.29982 1.21495 0.82717
 C622 C 0.35749 1.16679 0.84976
 C623 C 0.37450 1.15431 0.86440
 C624 C 0.39358 1.13845 0.88131
 C625 C 0.40903 1.12382 0.89552
 C626 C 0.42628 1.10499 0.91216
 C627 C 0.44621 1.08865 0.89723
 C628 C 0.46007 1.06762 0.91244
 C629 C 0.45404 1.06261 0.94278
 C630 C 0.43506 1.08000 0.95800
 C631 C 0.42120 1.10100 0.94272
 H632 H 0.32690 1.21128 0.86546
 H633 H 0.34054 1.15243 0.79475
 H634 H 0.30231 1.17298 0.76587
 H635 H 0.28851 1.23217 0.83681
 H636 H 0.45024 1.09148 0.87355
 H637 H 0.47467 1.05463 0.90017
 H638 H 0.42997 1.07663 0.98135
 H639 H 0.40573 1.11343 0.95448
 C640 C 0.28035 0.85079 1.15540
 C641 C 0.29403 0.83606 1.13260
 C642 C 0.28250 0.81158 1.12215
 C643 C 0.25723 0.80197 1.13422
 C644 C 0.24309 0.81678 1.15691
 C645 C 0.25507 0.84123 1.16751
 C646 C 0.31934 0.84662 1.11924
 C647 C 0.34015 0.85610 1.10788
 C648 C 0.36399 0.86819 1.09454
 C649 C 0.38379 0.87959 1.08328
 C650 C 0.40658 0.89475 1.07020
 C651 C 0.40626 0.90096 1.03963
 C652 C 0.42591 0.91919 1.02779
 C653 C 0.44600 0.93158 1.04650
 C654 C 0.44710 0.92405 1.07684
 C655 C 0.42746 0.90580 1.08860
 H656 H 0.28906 0.86982 1.16359
 H657 H 0.29287 0.80006 1.10446
 H658 H 0.24868 0.78307 1.12552
 H659 H 0.24481 0.85315 1.18494
 H660 H 0.39010 0.89264 1.02521
 H661 H 0.42443 0.92463 1.00436
 H662 H 0.46228 0.93324 1.09182
 H663 H 0.42782 0.90123 1.11232
 C664 C 0.68089 1.16474 1.21442
 C665 C 0.67237 1.17373 1.18614
 C666 C 0.68654 1.19528 1.17236
 C667 C 0.70963 1.20733 1.18637
 C668 C 0.71897 1.19791 1.21440
 C669 C 0.70399 1.17680 1.22854
 C670 C 0.65065 1.15948 1.17013
 C671 C 0.63343 1.14696 1.15593
 C672 C 0.61444 1.13155 1.13859
 C673 C 0.59923 1.11765 1.12335
 C674 C 0.58233 1.10009 1.10487
 C675 C 0.58265 1.10309 1.07371
 C676 C 0.56880 1.08416 1.05550
 C677 C 0.55458 1.06190 1.06828
 C678 C 0.55356 1.05962 1.09967
 C679 C 0.56740 1.07857 1.11782
 H680 H 0.67014 1.14795 1.22521
 H681 H 0.68020 1.20231 1.15041
 H682 H 0.72055 1.22359 1.17488
 H683 H 0.71058 1.16905 1.25009
 H684 H 0.59428 1.11960 1.06346
 H685 H 0.56994 1.08647 1.03141
 H686 H 0.54271 1.04276 1.11019
 H687 H 0.56713 1.07599 1.14191
 C688 C 0.71393 0.80045 0.86925
 C689 C 0.70482 0.82678 0.86164
 C690 C 0.71835 0.84083 0.83854
 C691 C 0.74100 0.82881 0.82325
 C692 C 0.75055 0.80245 0.83085
 C693 C 0.73662 0.78833 0.85394
 C694 C 0.68213 0.83990 0.87783
 C695 C 0.66354 0.85194 0.89097
 C696 C 0.64234 0.86727 0.90582
 C697 C 0.62482 0.88147 0.91799
 C698 C 0.60473 0.89982 0.93182
 C699 C 0.57582 0.89690 0.92661
 C700 C 0.55674 0.91656 0.93751
 C701 C 0.56646 0.93948 0.95353
 C702 C 0.59544 0.94166 0.95951
 C703 C 0.61439 0.92199 0.94874
 H704 H 0.70366 0.78939 0.88714
 H705 H 0.71152 0.86123 0.83247
 H706 H 0.75112 0.84030 0.80561
 H707 H 0.74339 0.76803 0.86040
 H708 H 0.56810 0.87988 0.91344
 H709 H 0.53457 0.91431 0.93252
 H710 H 0.60359 0.95899 0.97185
 H711 H 0.63670 0.92451 0.95287
   
