data_POSCAR
  _audit_creation_date              2014-09-24
  _audit_creation_method            'ToBaCCo'
  _symmetry_space_group_name_H-M    'P1'
  _symmetry_Int_Tables_number       1
  _symmetry_cell_setting            triclinic
  loop_
  _symmetry_equiv_pos_as_xyz
 x,y,z
_cell_length_a 38.1638
_cell_length_b 37.6838
_cell_length_c 38.0049
_cell_angle_alpha 90.132500
_cell_angle_beta 89.944600
_cell_angle_gamma 90.076000
loop_
  _atom_site_label
  _atom_site_type_symbol
  _atom_site_fract_x
  _atom_site_fract_y
  _atom_site_fract_z
O1 O 0.37094 0.32722 -0.02252
 O2 O 0.32716 0.37925 0.04487
 O3 O 0.37485 0.33147 0.04434
 O4 O 0.32476 0.37731 -0.02279
 O5 O 0.28245 0.33746 -0.02023
 O6 O 0.33397 0.29020 0.04918
 O7 O 0.28491 0.33957 0.04962
 O8 O 0.33066 0.28541 -0.01935
 Cu9 Cu 0.35325 0.35783 0.01044
 Cu10 Cu 0.30355 0.30909 0.01495
 C11 C 0.35954 0.29696 -0.03170
 C12 C 0.29895 0.36872 0.05912
 C13 C 0.36368 0.30293 0.05791
 C14 C 0.29505 0.36613 -0.03280
 O15 O 0.62969 0.67207 -0.04366
 O16 O 0.68105 0.62894 0.02395
 O17 O 0.63297 0.67730 0.02333
 O18 O 0.67564 0.62282 -0.04248
 O19 O 0.71787 0.66251 -0.04832
 O20 O 0.67281 0.71938 0.01872
 O21 O 0.72314 0.66879 0.01970
 O22 O 0.67025 0.71345 -0.04994
 Cu23 Cu 0.65082 0.64646 -0.00891
 Cu24 Cu 0.70027 0.69534 -0.01531
 C25 C 0.64063 0.70026 -0.05810
 C26 C 0.71123 0.64004 0.03256
 C27 C 0.64416 0.70785 0.03165
 C28 C 0.70437 0.63253 -0.05613
 O29 O 0.66934 0.36948 0.96564
 O30 O 0.62560 0.32741 1.03936
 O31 O 0.67481 0.37383 1.03259
 O32 O 0.62318 0.31995 0.97278
 O33 O 0.66289 0.27754 0.97283
 O34 O 0.71632 0.33336 1.03435
 O35 O 0.66524 0.28476 1.04084
 O36 O 0.71091 0.32875 0.96563
 Cu37 Cu 0.64438 0.35168 1.00250
 Cu38 Cu 0.69314 0.30192 1.00358
 C39 C 0.69784 0.35734 0.95353
 C40 C 0.63667 0.29838 1.05180
 C41 C 0.70464 0.36372 1.04332
 C42 C 0.63322 0.28936 0.96312
 O43 O 0.37734 0.67624 1.03226
 O44 O 0.32814 0.62788 0.96652
 O45 O 0.37688 0.67461 0.96545
 O46 O 0.32814 0.62904 1.03413
 O47 O 0.28720 0.67031 1.03361
 O48 O 0.33764 0.71764 0.96363
 O49 O 0.28765 0.66948 0.96374
 O50 O 0.33890 0.71981 1.03177
 Cu51 Cu 0.35627 0.64773 0.99985
 Cu52 Cu 0.30847 0.69852 0.99854
 C53 C 0.36797 0.70689 1.04216
 C54 C 0.30002 0.63985 0.95344
 C55 C 0.36641 0.70406 0.95331
 C56 C 0.29902 0.64092 1.04511
 O57 O -0.03469 0.37759 0.32284
 O58 O 0.03447 0.32742 0.36524
 O59 O 0.03185 0.37668 0.31780
 O60 O -0.03233 0.33059 0.37109
 O61 O -0.03784 0.28865 0.33081
 O62 O 0.02841 0.33665 0.27560
 O63 O 0.03105 0.28491 0.32550
 O64 O -0.03935 0.33696 0.28107
 Cu65 Cu 0.00057 0.35697 0.34819
 Cu66 Cu -0.00442 0.30730 0.29913
 C67 C -0.04844 0.36651 0.29451
 C68 C 0.04387 0.29720 0.35395
 C69 C 0.04007 0.36615 0.28721
 C70 C -0.04623 0.30192 0.36056
 O71 O 0.03106 0.67271 0.62856
 O72 O -0.03122 0.62102 0.67934
 O73 O -0.03593 0.66878 0.63113
 O74 O 0.03534 0.62280 0.67491
 O75 O 0.03677 0.66315 0.71713
 O76 O -0.03679 0.71032 0.67217
 O77 O -0.03114 0.66080 0.72196
 O78 O 0.03183 0.71484 0.66884
 Cu79 Cu -0.00020 0.64247 0.64943
 Cu80 Cu 0.00028 0.69160 0.69921
 C81 C 0.04155 0.70287 0.63903
 C82 C -0.04108 0.63100 0.70965
 C83 C -0.04825 0.69755 0.64328
 C84 C 0.04742 0.63396 0.70393
 O85 O 0.95979 0.67466 0.37969
 O86 O 1.02576 0.63114 0.32589
 O87 O 1.02611 0.67928 0.37477
 O88 O 0.95868 0.62876 0.32977
 O89 O 0.95335 0.67075 0.28970
 O90 O 1.02320 0.72246 0.33594
 O91 O 1.02208 0.67221 0.28492
 O92 O 0.95534 0.71815 0.34107
 Cu93 Cu 0.99326 0.64931 0.35622
 Cu94 Cu 0.98831 0.70020 0.30869
 C95 C 0.94689 0.70413 0.37038
 C96 C 1.03453 0.64288 0.29593
 C97 C 1.03539 0.70991 0.36450
 C98 C 0.94454 0.64066 0.30206
 O99 O 1.04377 0.36801 0.67173
 O100 O 0.97130 0.32518 0.62789
 O101 O 0.97733 0.36737 0.68074
 O102 O 1.03766 0.31877 0.62486
 O103 O 1.04106 0.27536 0.66342
 O104 O 0.97734 0.32455 0.72010
 O105 O 0.97267 0.28014 0.66498
 O106 O 1.04568 0.32651 0.71263
 Cu107 Cu 1.00744 0.34895 0.64769
 Cu108 Cu 1.00938 0.29721 0.69430
 C109 C 1.05631 0.35605 0.70010
 C110 C 0.96038 0.29502 0.63747
 C111 C 0.96707 0.35494 0.71002
 C112 C 1.04935 0.28855 0.63378
 O113 O 0.32955 -0.04348 0.37218
 O114 O 0.37286 0.02458 0.32071
 O115 O 0.32358 0.02406 0.36764
 O116 O 0.37793 -0.04249 0.32563
 O117 O 0.33895 -0.04887 0.28311
 O118 O 0.28280 0.01944 0.32690
 O119 O 0.33436 0.01960 0.27780
 O120 O 0.28898 -0.04992 0.33124
 Cu121 Cu 0.35469 -0.00846 0.35064
 Cu122 Cu 0.30701 -0.01528 0.30051
 C123 C 0.30180 -0.05816 0.36105
 C124 C 0.36261 0.03272 0.29006
 C125 C 0.29377 0.03265 0.35573
 C126 C 0.36839 -0.05653 0.29688
 O127 O 0.67745 -0.02101 0.63333
 O128 O 0.62389 0.04648 0.67535
 O129 O 0.67087 0.04593 0.62744
 O130 O 0.62622 -0.02161 0.67796
 O131 O 0.66454 -0.01728 0.72124
 O132 O 0.71131 0.05224 0.66856
 O133 O 0.66242 0.05297 0.71809
 O134 O 0.71779 -0.01659 0.67451
 Cu135 Cu 0.64576 0.01171 0.64965
 Cu136 Cu 0.69299 0.01818 0.70010
 C137 C 0.70718 -0.02969 0.64551
 C138 C 0.63364 0.06161 0.70355
 C139 C 0.69882 0.06019 0.63848
 C140 C 0.63664 -0.03062 0.70824
 O141 O 0.32410 1.03412 0.62324
 O142 O 0.37208 0.96729 0.67113
 O143 O 0.32576 0.96652 0.62271
 O144 O 0.37149 1.03529 0.67175
 O145 O 0.33081 1.03491 0.71308
 O146 O 0.28390 0.96405 0.66285
 O147 O 0.33182 0.96489 0.71272
 O148 O 0.28131 1.03316 0.66221
 Cu149 Cu 0.35242 1.00112 0.64340
 Cu150 Cu 0.30273 0.99950 0.69205
 C151 C 0.29399 1.04411 0.63314
 C152 C 0.36082 0.95443 0.69977
 C153 C 0.29703 0.95378 0.63376
 C154 C 0.35989 1.04628 0.70106
 O155 O 0.67390 1.03510 0.37643
 O156 O 0.63018 0.96148 0.33293
 O157 O 0.67787 0.96769 0.38062
 O158 O 0.62729 1.02910 0.32765
 O159 O 0.66746 1.02886 0.28597
 O160 O 0.72036 0.96664 0.34132
 O161 O 0.67107 0.95964 0.29180
 O162 O 0.71598 1.03547 0.33653
 Cu163 Cu 0.64831 0.99842 0.35826
 Cu164 Cu 0.69793 0.99759 0.30966
 C165 C 0.70278 1.04722 0.36507
 C166 C 0.64226 0.94847 0.30466
 C167 C 0.70803 0.95738 0.37108
 C168 C 0.63775 1.03897 0.29754
 C169 C 0.87408 0.74881 0.51132
 C170 C 0.86990 0.76772 0.48006
 C171 C 0.85267 0.80053 0.48155
 C172 C 0.83933 0.81427 0.51378
 C173 C 0.84937 0.79675 0.54535
 C174 C 0.86847 0.76484 0.54412
 C175 C 0.81708 0.84761 0.51383
 C176 C 0.80767 0.86567 0.54547
 C177 C 0.78809 0.89728 0.54434
 C178 C 0.78084 0.91224 0.51145
 C179 C 0.78530 0.89317 0.48022
 C180 C 0.80306 0.86071 0.48169
 H181 H 0.88736 0.72338 0.51034
 H182 H 0.85072 0.81559 0.45772
 H183 H 0.84321 0.80769 0.57073
 H184 H 0.81454 0.85533 0.57086
 H185 H 0.76670 0.93718 0.51046
 H186 H 0.80472 0.84539 0.45790
 C187 C 0.09823 0.22744 0.49097
 C188 C 0.11378 0.21902 0.45866
 C189 C 0.14228 0.19541 0.45837
 C190 C 0.15436 0.17956 0.49016
 C191 C 0.13887 0.19088 0.52237
 C192 C 0.11220 0.21624 0.52295
 C193 C 0.18183 0.15062 0.49009
 C194 C 0.19754 0.13931 0.52214
 C195 C 0.21839 0.10881 0.52345
 C196 C 0.22510 0.09070 0.49207
 C197 C 0.21525 0.10424 0.45931
 C198 C 0.19220 0.13323 0.45843
 H199 H 0.07602 0.24537 0.49139
 H200 H 0.15449 0.18965 0.43351
 H201 H 0.14630 0.17965 0.54717
 H202 H 0.19416 0.15402 0.54611
 H203 H 0.24154 0.06725 0.49289
 H204 H 0.18255 0.14153 0.43320
 C205 C 0.08949 0.77851 0.50121
 C206 C 0.10822 0.78236 0.53261
 C207 C 0.14069 0.79989 0.53154
 C208 C 0.15401 0.81406 0.49952
 C209 C 0.13548 0.80641 0.46792
 C210 C 0.10425 0.78683 0.46856
 C211 C 0.18789 0.83487 0.49919
 C212 C 0.20620 0.84193 0.46737
 C213 C 0.23759 0.86130 0.46752
 C214 C 0.25311 0.86912 0.49993
 C215 C 0.23410 0.86689 0.53134
 C216 C 0.20138 0.84979 0.53078
 H217 H 0.06478 0.76425 0.50176
 H218 H 0.15583 0.80141 0.55536
 H219 H 0.14501 0.81490 0.44274
 H220 H 0.19643 0.83303 0.44241
 H221 H 0.27817 0.88274 0.50010
 H222 H 0.18611 0.84921 0.55457
 C223 C 0.88320 0.25413 0.49868
 C224 C 0.87810 0.23527 0.52992
 C225 C 0.85651 0.20513 0.52899
 C226 C 0.83983 0.19439 0.49722
 C227 C 0.85076 0.21089 0.46542
 C228 C 0.87425 0.23957 0.46605
 C229 C 0.81021 0.16773 0.49761
 C230 C 0.79758 0.15183 0.46605
 C231 C 0.76628 0.13208 0.46600
 C232 C 0.74804 0.12830 0.49770
 C233 C 0.76324 0.13728 0.52988
 C234 C 0.79310 0.15888 0.52968
 H235 H 0.89877 0.27823 0.49929
 H236 H 0.85261 0.19065 0.55301
 H237 H 0.84063 0.20258 0.44032
 H238 H 0.81176 0.15453 0.44173
 H239 H 0.72364 0.11348 0.49781
 H240 H 0.80201 0.16909 0.55452
 C241 C 0.50007 0.89335 0.75524
 C242 C 0.46832 0.87878 0.76633
 C243 C 0.46890 0.85282 0.79251
 C244 C 0.50076 0.84363 0.80959
 C245 C 0.53177 0.86272 0.80057
 C246 C 0.53158 0.88741 0.77293
 C247 C 0.50162 0.81312 0.83510
 C248 C 0.53350 0.79558 0.84318
 C249 C 0.53354 0.76494 0.86403
 C250 C 0.50138 0.74954 0.87282
 C251 C 0.47001 0.76837 0.86976
 C252 C 0.47033 0.80046 0.85106
 H253 H 0.49977 0.91167 0.73330
 H254 H 0.44468 0.83955 0.79865
 H255 H 0.55604 0.85821 0.81428
 H256 H 0.55814 0.80504 0.83312
 H257 H 0.50133 0.72464 0.88710
 H258 H 0.44645 0.81546 0.84922
 C259 C 0.50082 0.08700 0.22127
 C260 C 0.46847 0.10214 0.21280
 C261 C 0.46820 0.13363 0.19326
 C262 C 0.49985 0.15210 0.18564
 C263 C 0.53156 0.13843 0.19989
 C264 C 0.53228 0.10568 0.21744
 C265 C 0.49987 0.18635 0.16487
 C266 C 0.53164 0.20031 0.15106
 C267 C 0.53249 0.23340 0.13414
 C268 C 0.50115 0.25232 0.13088
 C269 C 0.46875 0.23646 0.13781
 C270 C 0.46827 0.20461 0.15686
 H271 H 0.50107 0.06211 0.23556
 H272 H 0.44322 0.14345 0.18486
 H273 H 0.55543 0.15356 0.19853
 H274 H 0.55546 0.18518 0.15238
 H275 H 0.50156 0.27772 0.11749
 H276 H 0.44322 0.19446 0.16475
 C277 C 0.49209 0.12995 0.74918
 C278 C 0.52407 0.14177 0.76276
 C279 C 0.52378 0.16092 0.79436
 C280 C 0.49240 0.16526 0.81417
 C281 C 0.46128 0.14899 0.80129
 C282 C 0.46098 0.13135 0.76864
 C283 C 0.49255 0.18477 0.84894
 C284 C 0.46098 0.19834 0.86372
 C285 C 0.46106 0.21538 0.89672
 C286 C 0.49303 0.21920 0.91440
 C287 C 0.52498 0.21109 0.89835
 C288 C 0.52450 0.19170 0.86692
 H289 H 0.49202 0.11520 0.72468
 H290 H 0.54839 0.17131 0.80342
 H291 H 0.43772 0.14909 0.81692
 H292 H 0.43675 0.19684 0.84926
 H293 H 0.49345 0.23334 0.93930
 H294 H 0.54917 0.18262 0.85681
 C295 C 0.50848 0.86926 0.25340
 C296 C 0.54112 0.86343 0.23756
 C297 C 0.54221 0.84460 0.20559
 C298 C 0.51076 0.83555 0.18759
 C299 C 0.47881 0.84887 0.20142
 C300 C 0.47735 0.86534 0.23446
 C301 C 0.51068 0.81449 0.15363
 C302 C 0.47870 0.80058 0.14018
 C303 C 0.47718 0.78374 0.10734
 C304 C 0.50837 0.77955 0.08845
 C305 C 0.54109 0.78706 0.10347
 C306 C 0.54209 0.80621 0.13521
 H307 H 0.50757 0.88256 0.27873
 H308 H 0.56742 0.83797 0.19494
 H309 H 0.45527 0.84772 0.18609
 H310 H 0.45513 0.80148 0.15560
 H311 H 0.50751 0.76560 0.06346
 H312 H 0.56728 0.81361 0.14540
 C313 C 0.74795 0.49162 0.87277
 C314 C 0.76411 0.45866 0.86776
 C315 C 0.79599 0.45754 0.84922
 C316 C 0.81342 0.48938 0.83929
 C317 C 0.79928 0.52190 0.85181
 C318 C 0.76649 0.52331 0.86834
 C319 C 0.84719 0.48925 0.81832
 C320 C 0.86104 0.52155 0.80480
 C321 C 0.89378 0.52274 0.78819
 C322 C 0.91239 0.49108 0.78433
 C323 C 0.89684 0.45811 0.79097
 C324 C 0.86500 0.45726 0.80952
 H325 H 0.72270 0.49252 0.88589
 H326 H 0.80705 0.43199 0.84362
 H327 H 0.81413 0.54599 0.85007
 H328 H 0.84605 0.54561 0.80571
 H329 H 0.93741 0.49178 0.77076
 H330 H 0.85421 0.43175 0.81586
 C331 C 0.25230 0.51016 0.12931
 C332 C 0.23851 0.47764 0.14021
 C333 C 0.20678 0.47767 0.15868
 C334 C 0.18696 0.50935 0.16300
 C335 C 0.19981 0.54096 0.14704
 C336 C 0.23263 0.54146 0.13008
 C337 C 0.15232 0.50896 0.18232
 C338 C 0.13764 0.54080 0.19611
 C339 C 0.10504 0.54048 0.21350
 C340 C 0.08759 0.50797 0.21728
 C341 C 0.10347 0.47570 0.20865
 C342 C 0.13455 0.47646 0.18910
 H343 H 0.27703 0.51035 0.11528
 H344 H 0.19771 0.45265 0.16862
 H345 H 0.18409 0.56469 0.14686
 H346 H 0.15194 0.56543 0.19454
 H347 H 0.06304 0.50738 0.23170
 H348 H 0.14461 0.45154 0.17989
 C349 C 0.78008 0.50171 0.08825
 C350 C 0.78841 0.53470 0.10301
 C351 C 0.80766 0.53548 0.13439
 C352 C 0.81506 0.50368 0.15302
 C353 C 0.80076 0.47139 0.13981
 C354 C 0.78357 0.47016 0.10721
 C355 C 0.83574 0.50399 0.18690
 C356 C 0.84996 0.47197 0.20036
 C357 C 0.86690 0.47116 0.23309
 C358 C 0.86978 0.50278 0.25218
 C359 C 0.86254 0.53558 0.23672
 C360 C 0.84347 0.53604 0.20517
 H361 H 0.76601 0.50107 0.06346
 H362 H 0.81603 0.56090 0.14401
 H363 H 0.80182 0.44750 0.15521
 H364 H 0.84903 0.44801 0.18499
 H365 H 0.88339 0.50237 0.27723
 H366 H 0.83547 0.56136 0.19516
 C367 C 0.24829 0.49952 0.88810
 C368 C 0.23547 0.53162 0.87530
 C369 C 0.20781 0.53075 0.85122
 C370 C 0.19097 0.49815 0.84242
 C371 C 0.20150 0.46684 0.86066
 C372 C 0.23048 0.46746 0.88350
 C373 C 0.16408 0.49689 0.81328
 C374 C 0.15484 0.46432 0.79670
 C375 C 0.13351 0.46401 0.76663
 C376 C 0.12494 0.49648 0.75111
 C377 C 0.12889 0.52857 0.76918
 C378 C 0.14827 0.52856 0.80057
 H379 H 0.27111 0.50010 0.90507
 H380 H 0.20032 0.55542 0.83925
 H381 H 0.18781 0.44210 0.85708
 H382 H 0.16449 0.43933 0.80627
 H383 H 0.11048 0.49634 0.72654
 H384 H 0.15083 0.55308 0.81484
 C385 C 0.28131 0.39409 0.08432
 C386 C 0.25729 0.41900 0.06396
 C387 C 0.24322 0.44527 0.08356
 C388 C 0.25360 0.44458 0.12261
 C389 C 0.24328 0.40665 0.13465
 C390 C 0.25798 0.38007 0.11444
 C391 C 0.30818 0.41807 0.10307
 C392 C 0.29382 0.44397 0.12310
 H393 H 0.24798 0.41351 0.03764
 H394 H 0.22344 0.46295 0.07292
 H395 H 0.22709 0.40092 0.15740
 H396 H 0.25392 0.35209 0.11979
 H397 H 0.33627 0.41357 0.10260
 H398 H 0.30972 0.46121 0.13955
 C399 C 0.73380 0.61540 0.05421
 C400 C 0.71180 0.58558 0.07079
 C401 C 0.73071 0.56082 0.08770
 C402 C 0.77051 0.56690 0.08674
 C403 C 0.77989 0.57138 0.04770
 C404 C 0.76096 0.59664 0.03093
 C405 C 0.75544 0.63022 0.08516
 C406 C 0.77485 0.60475 0.10235
 H407 H 0.68336 0.58502 0.07140
 H408 H 0.71817 0.53951 0.10224
 H409 H 0.80123 0.55736 0.03489
 H410 H 0.76681 0.60457 0.00413
 H411 H 0.75564 0.65799 0.09277
 H412 H 0.79151 0.61135 0.12449
 C413 C 0.71726 0.38066 0.92804
 C414 C 0.72925 0.41400 0.94763
 C415 C 0.74603 0.43780 0.92733
 C416 C 0.74857 0.42750 0.88819
 C417 C 0.76711 0.39098 0.88898
 C418 C 0.75067 0.36645 0.91005
 C419 C 0.69449 0.39437 0.89769
 C420 C 0.71077 0.41878 0.87698
 H421 H 0.72453 0.41884 0.97536
 H422 H 0.75688 0.46196 0.93841
 H423 H 0.79075 0.38452 0.87455
 H424 H 0.76031 0.33958 0.91324
 H425 H 0.66805 0.38508 0.89248
 H426 H 0.69819 0.43027 0.85408
 C427 C 0.28055 0.61524 0.92897
 C428 C 0.30614 0.59168 0.90811
 C429 C 0.29060 0.56585 0.88899
 C430 C 0.25054 0.56500 0.89220
 C431 C 0.24261 0.56396 0.93186
 C432 C 0.25805 0.58996 0.95072
 C433 C 0.25515 0.62946 0.90072
 C434 C 0.23921 0.60294 0.88127
 H435 H 0.33422 0.59624 0.90681
 H436 H 0.30544 0.54851 0.87168
 H437 H 0.22368 0.54601 0.94369
 H438 H 0.25103 0.59480 0.97790
 H439 H 0.25029 0.65745 0.89629
 H440 H 0.22090 0.60872 0.86027
 C441 C 0.06608 0.27471 0.37826
 C442 C 0.04324 0.24675 0.39638
 C443 C 0.05996 0.22781 0.42149
 C444 C 0.09867 0.23785 0.42654
 C445 C 0.11462 0.23378 0.38919
 C446 C 0.09742 0.25330 0.36380
 C447 C 0.08205 0.29711 0.40814
 C448 C 0.09906 0.27812 0.43277
 H449 H 0.01698 0.23993 0.38776
 H450 H 0.04745 0.20569 0.43481
 H451 H 0.13718 0.21747 0.38300
 H452 H 0.10535 0.25345 0.33637
 H453 H 0.08218 0.32592 0.40882
 H454 H 0.11317 0.29089 0.45415
 C455 C 0.06229 0.72534 0.61337
 C456 C 0.07329 0.70396 0.58063
 C457 C 0.08963 0.72326 0.55570
 C458 C 0.09357 0.76283 0.56459
 C459 C 0.05649 0.77566 0.57398
 C460 C 0.04037 0.75629 0.59935
 C461 C 0.09656 0.74295 0.62595
 C462 C 0.11306 0.76276 0.60038
 H463 H 0.07043 0.67542 0.57785
 H464 H 0.10028 0.71101 0.53212
 H465 H 0.04470 0.79938 0.56299
 H466 H 0.01526 0.76404 0.61034
 H467 H 0.10676 0.74035 0.65246
 H468 H 0.13719 0.77696 0.60566
 C469 C 0.92422 0.72300 0.39682
 C470 C 0.94580 0.73124 0.42978
 C471 C 0.92761 0.74743 0.45566
 C472 C 0.88857 0.75321 0.44746
 C473 C 0.88908 0.77466 0.41274
 C474 C 0.90791 0.75880 0.38629
 C475 C 0.89324 0.70071 0.41006
 C476 C 0.87469 0.71641 0.43644
 H477 H 0.97315 0.72417 0.43297
 H478 H 0.94011 0.75537 0.48005
 H479 H 0.87592 0.79973 0.40861
 H480 H 0.91048 0.77044 0.36033
 H481 H 0.88612 0.67504 0.39917
 H482 H 0.85168 0.70410 0.44800
 C483 C 0.93614 0.27647 0.61225
 C484 C 0.90457 0.29906 0.60134
 C485 C 0.88498 0.28435 0.57520
 C486 C 0.89834 0.24809 0.56219
 C487 C 0.93703 0.25416 0.55250
 C488 C 0.95617 0.26964 0.57799
 C489 C 0.92041 0.24014 0.62217
 C490 C 0.90038 0.22523 0.59594
 H491 H 0.89782 0.32420 0.61357
 H492 H 0.86148 0.29700 0.56519
 H493 H 0.94856 0.24720 0.52733
 H494 H 0.98313 0.27755 0.57353
 H495 H 0.92456 0.22733 0.64735
 H496 H 0.88799 0.19956 0.59914
 C497 C 0.38758 0.05408 0.26747
 C498 C 0.40598 0.03023 0.24040
 C499 C 0.43135 0.04675 0.22146
 C500 C 0.43631 0.08612 0.23074
 C501 C 0.39920 0.10228 0.22613
 C502 C 0.37363 0.08535 0.24553
 C503 C 0.41714 0.07054 0.28965
 C504 C 0.44203 0.08718 0.27073
 H505 H 0.39785 0.00323 0.23466
 H506 H 0.44522 0.03352 0.20021
 H507 H 0.39313 0.12460 0.20930
 H508 H 0.34634 0.09337 0.24514
 H509 H 0.41755 0.07122 0.31821
 H510 H 0.46327 0.10156 0.28338
 C511 C 0.60787 0.08671 0.72069
 C512 C 0.58321 0.10354 0.69338
 C513 C 0.55717 0.12336 0.70738
 C514 C 0.55705 0.12453 0.74777
 C515 C 0.55783 0.08562 0.75975
 C516 C 0.58431 0.06630 0.74605
 C517 C 0.62094 0.11858 0.74264
 C518 C 0.59418 0.13854 0.75702
 H519 H 0.58739 0.10219 0.66514
 H520 H 0.53956 0.13877 0.69102
 H521 H 0.54098 0.07511 0.78030
 H522 H 0.59086 0.04045 0.75649
 H523 H 0.64840 0.12522 0.74603
 H524 H 0.59922 0.16237 0.77223
 C525 C 0.38556 0.93049 0.71942
 C526 C 0.37175 0.90035 0.74314
 C527 C 0.39805 0.88153 0.75963
 C528 C 0.43542 0.89492 0.75045
 C529 C 0.43663 0.89317 0.71015
 C530 C 0.41103 0.91169 0.69408
 C531 C 0.40834 0.95285 0.74394
 C532 C 0.43419 0.93459 0.75990
 H533 H 0.34415 0.89429 0.74655
 H534 H 0.39248 0.85944 0.77696
 H535 H 0.45522 0.87713 0.69544
 H536 H 0.40792 0.91109 0.66568
 H537 H 0.40205 0.97982 0.75152
 H538 H 0.45057 0.94671 0.77999
 C539 C 0.61886 0.92306 0.28512
 C540 C 0.58666 0.94339 0.27240
 C541 C 0.56290 0.92323 0.25545
 C542 C 0.57213 0.88352 0.25343
 C543 C 0.60849 0.88329 0.23533
 C544 C 0.63297 0.90419 0.25197
 C545 C 0.60418 0.89305 0.30812
 C546 C 0.57983 0.87248 0.29163
 H547 H 0.58257 0.97153 0.27672
 H548 H 0.53946 0.93478 0.24415
 H549 H 0.61487 0.86830 0.21184
 H550 H 0.65973 0.90669 0.24264
 H551 H 0.61277 0.88793 0.33485
 H552 H 0.56771 0.84980 0.30433
 C553 C 0.38349 0.27381 0.94619
 C554 C 0.41528 0.29475 0.93237
 C555 C 0.43901 0.27489 0.91499
 C556 C 0.42999 0.23523 0.91276
 C557 C 0.42300 0.22357 0.95090
 C558 C 0.39893 0.24357 0.96815
 C559 C 0.36879 0.25512 0.91318
 C560 C 0.39318 0.23475 0.89555
 H561 H 0.41816 0.32337 0.93413
 H562 H 0.46172 0.28677 0.90239
 H563 H 0.43477 0.20027 0.96276
 H564 H 0.38991 0.23689 0.99441
 H565 H 0.34176 0.25740 0.90465
 H566 H 0.38649 0.21970 0.87217
 C567 C 0.61533 0.71914 0.91830
 C568 C 0.58429 0.73166 0.94047
 C569 C 0.55911 0.74817 0.92200
 C570 C 0.56580 0.74972 0.88207
 C571 C 0.60173 0.76859 0.87925
 C572 C 0.62772 0.75251 0.89842
 C573 C 0.59920 0.69525 0.88981
 C574 C 0.57333 0.71117 0.87097
 H575 H 0.58175 0.72710 0.96850
 H576 H 0.53616 0.75914 0.93489
 H577 H 0.60665 0.79237 0.86406
 H578 H 0.65438 0.76251 0.89918
 H579 H 0.60786 0.66834 0.88444
 H580 H 0.55994 0.69783 0.84949
 C581 C 0.39443 0.72877 0.06251
 C582 C 0.40953 0.75875 0.03981
 C583 C 0.43565 0.77750 0.05545
 C584 C 0.44466 0.76506 0.09286
 C585 C 0.40903 0.76665 0.11260
 C586 C 0.38276 0.74746 0.09659
 C587 C 0.42632 0.70646 0.07373
 C588 C 0.45202 0.72520 0.08951
 H589 H 0.39894 0.76619 0.01439
 H590 H 0.44760 0.80044 0.04302
 H591 H 0.40419 0.78178 0.13636
 H592 H 0.35626 0.74622 0.10691
 H593 H 0.42802 0.67781 0.07132
 H594 H 0.47521 0.71238 0.10007
 C595 C 0.61231 0.27903 0.07621
 C596 C 0.62431 0.24366 0.09251
 C597 C 0.59907 0.22743 0.11265
 C598 C 0.56407 0.24813 0.11425
 C599 C 0.57475 0.28532 0.12740
 C600 C 0.59986 0.30140 0.10758
 C601 C 0.57887 0.26971 0.05598
 C602 C 0.55427 0.25316 0.07535
 H603 H 0.65036 0.23266 0.08909
 H604 H 0.60418 0.20269 0.12613
 H605 H 0.56395 0.29761 0.15088
 H606 H 0.61044 0.32735 0.11409
 H607 H 0.57447 0.27631 0.02857
 H608 H 0.52974 0.24443 0.06383
 C609 C 0.27233 0.06479 0.60692
 C610 C 0.25196 0.09791 0.61907
 C611 C 0.23310 0.11384 0.59253
 C612 C 0.23669 0.09495 0.55635
 C613 C 0.27639 0.09388 0.55007
 C614 C 0.29479 0.07818 0.57596
 C615 C 0.24429 0.04092 0.59034
 C616 C 0.22590 0.05644 0.56407
 H617 H 0.25218 0.10780 0.64590
 H618 H 0.21735 0.13725 0.59732
 H619 H 0.28924 0.10602 0.52758
 H620 H 0.32322 0.07743 0.57520
 H621 H 0.23747 0.01487 0.60036
 H622 H 0.20404 0.04319 0.55131
 C623 C 0.72123 0.07111 0.38760
 C624 C 0.75572 0.08815 0.37456
 C625 C 0.77185 0.10926 0.39932
 C626 C 0.75198 0.11103 0.43478
 C627 C 0.71487 0.12330 0.42458
 C628 C 0.69889 0.10258 0.40004
 C629 C 0.73149 0.05149 0.42129
 C630 C 0.74797 0.07184 0.44529
 H631 H 0.76634 0.08436 0.34832
 H632 H 0.79614 0.12308 0.39377
 H633 H 0.70256 0.14698 0.43520
 H634 H 0.67301 0.10861 0.38981
 H635 H 0.72573 0.02377 0.42629
 H636 H 0.75742 0.06081 0.46986
 C637 C 0.73070 0.94795 0.62210
 C638 C 0.75870 0.97094 0.60425
 C639 C 0.77850 0.95349 0.58012
 C640 C 0.76907 0.91407 0.57566
 C641 C 0.77188 0.89889 0.61344
 C642 C 0.75162 0.91676 0.63783
 C643 C 0.70977 0.93088 0.59193
 C644 C 0.72949 0.91327 0.56828
 H645 H 0.76449 0.99802 0.61209
 H646 H 0.80050 0.96606 0.56695
 H647 H 0.78816 0.87653 0.62068
 H648 H 0.75073 0.90949 0.66542
 H649 H 0.68137 0.93042 0.59035
 H650 H 0.71764 0.89829 0.54692
 C651 C 0.28315 0.91759 0.38622
 C652 C 0.25000 0.89795 0.37357
 C653 C 0.23408 0.87811 0.39931
 C654 C 0.25284 0.88005 0.43537
 C655 C 0.29079 0.86887 0.42729
 C656 C 0.30657 0.88839 0.40163
 C657 C 0.27112 0.93929 0.41800
 C658 C 0.25477 0.92016 0.44295
 H659 H 0.24007 0.89926 0.34687
 H660 H 0.21056 0.86289 0.39404
 H661 H 0.30386 0.84688 0.44016
 H662 H 0.33307 0.88309 0.39266
 H663 H 0.27591 0.96746 0.42123
 H664 H 0.24402 0.93273 0.46624
 C665 C 0.07992 0.38096 0.72001
 C666 C 0.09890 0.36837 0.75354
 C667 C 0.11784 0.39472 0.77001
 C668 C 0.11564 0.43115 0.75136
 C669 C 0.12745 0.42341 0.71339
 C670 C 0.10894 0.39725 0.69712
 C671 C 0.05781 0.41253 0.73213
 C672 C 0.07596 0.43800 0.74898
 H673 H 0.09771 0.34138 0.76335
 H674 H 0.13243 0.38983 0.79396
 H675 H 0.14923 0.43684 0.70071
 H676 H 0.11493 0.38839 0.67059
 H677 H 0.02996 0.41512 0.72719
 H678 H 0.06300 0.46126 0.75969
 C679 C 0.05632 0.61876 0.27251
 C680 C 0.07017 0.58642 0.29287
 C681 C 0.08729 0.56249 0.27285
 C682 C 0.08925 0.57184 0.23360
 C683 C 0.05120 0.57899 0.22235
 C684 C 0.03422 0.60330 0.24248
 C685 C 0.08910 0.63374 0.25392
 C686 C 0.10646 0.60913 0.23339
 H687 H 0.06863 0.58331 0.32122
 H688 H 0.09985 0.53942 0.28434
 H689 H 0.03923 0.56727 0.19915
 H690 H 0.00815 0.61263 0.23594
 H691 H 0.09769 0.66109 0.25638
 H692 H 0.12966 0.61600 0.21841
 C693 C 0.92686 0.39127 0.27622
 C694 C 0.89619 0.40338 0.29940
 C695 C 0.87565 0.42851 0.28418
 C696 C 0.88750 0.43954 0.24701
 C697 C 0.92627 0.45004 0.25093
 C698 C 0.94639 0.42537 0.26661
 C699 C 0.90966 0.37891 0.24161
 C700 C 0.88885 0.40417 0.22626
 H701 H 0.89063 0.39255 0.32526
 H702 H 0.85251 0.43907 0.29710
 H703 H 0.93717 0.47504 0.24205
 H704 H 0.97381 0.43020 0.27236
 H705 H 0.91294 0.35257 0.23051
 H706 H 0.87458 0.39872 0.20223
 C707 C 0.93878 0.60474 0.73186
 C708 C 0.92725 0.57206 0.71044
 C709 C 0.91136 0.54666 0.72962
 C710 C 0.90832 0.55512 0.76904
 C711 C 0.94572 0.56429 0.78104
 C712 C 0.96145 0.59010 0.76180
 C713 C 0.90503 0.61727 0.75028
 C714 C 0.88897 0.59130 0.76994
 H715 H 0.92950 0.56965 0.68206
 H716 H 0.90042 0.52304 0.71742
 H717 H 0.95811 0.55269 0.80400
 H718 H 0.98694 0.60079 0.76878
 H719 H 0.89497 0.64413 0.74848
 H720 H 0.86541 0.59671 0.78492
 C721 C 0.72209 0.60726 0.92239
 C722 C 0.75691 0.61836 0.90498
 C723 C 0.77258 0.59168 0.88613
 C724 C 0.75199 0.55621 0.88672
 C725 C 0.74726 0.54848 0.92614
 C726 C 0.73130 0.57456 0.94439
 C727 C 0.69967 0.59293 0.89195
 C728 C 0.71523 0.56632 0.87341
 H729 H 0.76793 0.64488 0.90657
 H730 H 0.79672 0.59628 0.87188
 H731 H 0.75581 0.52427 0.93885
 H732 H 0.72507 0.57164 0.97209
 H733 H 0.67404 0.60330 0.88507
 H734 H 0.70286 0.55407 0.85071
 C735 C 0.27576 0.38869 0.94402
 C736 C 0.26682 0.42326 0.96322
 C737 C 0.24974 0.44724 0.94343
 C738 C 0.24441 0.43608 0.90477
 C739 C 0.28095 0.42496 0.89155
 C740 C 0.29716 0.40030 0.91180
 C741 C 0.24045 0.37584 0.92850
 C742 C 0.22405 0.40072 0.90770
 H743 H 0.27512 0.42948 0.98973
 H744 H 0.24163 0.47264 0.95426
 H745 H 0.29269 0.43504 0.86752
 H746 H 0.32264 0.38945 0.90500
 H747 H 0.22944 0.34972 0.93322
 H748 H 0.19905 0.39557 0.89516
 C749 C 0.27946 0.61863 0.06843
 C750 C 0.29974 0.60890 0.10189
 C751 C 0.28306 0.58483 0.12262
 C752 C 0.24733 0.57225 0.10839
 C753 C 0.22649 0.60699 0.10306
 C754 C 0.24333 0.63129 0.08197
 C755 C 0.27190 0.58304 0.05035
 C756 C 0.25467 0.55946 0.07060
 H757 H 0.32477 0.62054 0.10911
 H758 H 0.29394 0.57608 0.14752
 H759 H 0.20106 0.61236 0.11458
 H760 H 0.23211 0.65700 0.07588
 H761 H 0.28097 0.57603 0.02422
 H762 H 0.24767 0.53332 0.06073
 C763 C 0.72591 0.38869 0.06236
 C764 C 0.74387 0.37611 0.09645
 C765 C 0.76390 0.40189 0.11252
 C766 C 0.76384 0.43793 0.09288
 C767 C 0.77575 0.42828 0.05540
 C768 C 0.75617 0.40270 0.03966
 C769 C 0.70521 0.42190 0.07384
 C770 C 0.72479 0.44703 0.08972
 H771 H 0.74139 0.34942 0.10685
 H772 H 0.77841 0.39657 0.13641
 H773 H 0.79901 0.43928 0.04304
 H774 H 0.76331 0.39157 0.01428
 H775 H 0.67699 0.42486 0.07169
 H776 H 0.71308 0.47091 0.10062
 C777 C 0.92801 0.71656 0.62128
 C778 C 0.90963 0.75002 0.63590
 C779 C 0.88881 0.76697 0.61165
 C780 C 0.88859 0.74888 0.57504
 C781 C 0.92771 0.74688 0.56531
 C782 C 0.94779 0.72958 0.58875
 C783 C 0.89799 0.69356 0.60679
 C784 C 0.87757 0.71036 0.58271
 H785 H 0.91235 0.75936 0.66279
 H786 H 0.87417 0.79066 0.61830
 H787 H 0.93895 0.75856 0.54181
 H788 H 0.97551 0.72525 0.58417
 H789 H 0.89272 0.66660 0.61534
 H790 H 0.85491 0.69768 0.57082
 C791 C 0.93111 0.28412 0.38466
 C792 C 0.90266 0.30838 0.40028
 C793 C 0.88321 0.29288 0.42603
 C794 C 0.89345 0.25428 0.43398
 C795 C 0.89108 0.23523 0.39795
 C796 C 0.91096 0.25087 0.37208
 C797 C 0.95235 0.27148 0.41635
 C798 C 0.93313 0.25534 0.44138
 H799 H 0.89775 0.33528 0.39136
 H800 H 0.86176 0.30657 0.43901
 H801 H 0.87581 0.21148 0.39299
 H802 H 0.91212 0.24052 0.34543
 H803 H 0.98027 0.27567 0.41949
 H804 H 0.94533 0.24426 0.46466
 C805 C 0.06824 0.26849 0.60794
 C806 C 0.04402 0.24200 0.58919
 C807 C 0.05926 0.22426 0.56216
 C808 C 0.09791 0.23371 0.55623
 C809 C 0.09899 0.27427 0.55229
 C810 C 0.08350 0.29225 0.57875
 C811 C 0.09964 0.24574 0.61974
 C812 C 0.11530 0.22736 0.59259
 H813 H 0.01809 0.23500 0.59865
 H814 H 0.04579 0.20322 0.54803
 H815 H 0.11253 0.28792 0.53111
 H816 H 0.08429 0.32105 0.57976
 H817 H 0.10901 0.24453 0.64666
 H818 H 0.13812 0.21087 0.59687
 C819 C 0.05572 0.73126 0.38822
 C820 C 0.08651 0.75339 0.37367
 C821 C 0.10358 0.77309 0.39904
 C822 C 0.08808 0.76859 0.43655
 C823 C 0.04918 0.77788 0.43212
 C824 C 0.03249 0.75866 0.40698
 C825 C 0.07240 0.70903 0.41775
 C826 C 0.08915 0.72829 0.44241
 H827 H 0.09415 0.75366 0.34616
 H828 H 0.12560 0.79006 0.39261
 H829 H 0.03639 0.79946 0.44607
 H830 H 0.00581 0.76460 0.39912
 H831 H 0.07318 0.68022 0.41822
 H832 H 0.10366 0.71568 0.46353
 C833 C 0.61230 0.94553 0.72866
 C834 C 0.60006 0.91336 0.70715
 C835 C 0.57460 0.89396 0.72306
 C836 C 0.56343 0.90795 0.75947
 C837 C 0.59806 0.90985 0.78053
 C838 C 0.62371 0.92985 0.76438
 C839 C 0.57877 0.96614 0.73684
 C840 C 0.55400 0.94723 0.75373
 H841 H 0.61104 0.90599 0.68180
 H842 H 0.56394 0.87004 0.71119
 H843 H 0.60210 0.89742 0.80589
 H844 H 0.64942 0.93397 0.77585
 H845 H 0.57389 0.99300 0.72818
 H846 H 0.52928 0.95917 0.76150
 C847 C 0.39468 0.92041 0.27848
 C848 C 0.42727 0.94240 0.26965
 C849 C 0.45303 0.92384 0.25382
 C850 C 0.44499 0.88415 0.24886
 C851 C 0.43446 0.87076 0.28566
 C852 C 0.40823 0.88968 0.30110
 C853 C 0.38392 0.90302 0.24344
 C854 C 0.41020 0.88383 0.22788
 H855 H 0.43029 0.97029 0.27610
 H856 H 0.47726 0.93645 0.24565
 H857 H 0.44621 0.84781 0.29818
 H858 H 0.39764 0.88294 0.32675
 H859 H 0.35785 0.90486 0.23223
 H860 H 0.40570 0.86947 0.20361
 C861 C 0.61229 0.05958 0.27485
 C862 C 0.57976 0.07136 0.29581
 C863 C 0.55508 0.08769 0.27636
 C864 C 0.56397 0.09087 0.23709
 C865 C 0.59981 0.11033 0.23691
 C866 C 0.62511 0.09384 0.25685
 C867 C 0.59809 0.03685 0.24451
 C868 C 0.57298 0.05298 0.22499
 H869 H 0.57693 0.06898 0.32413
 H870 H 0.53165 0.09881 0.28828
 H871 H 0.60535 0.13440 0.22240
 H872 H 0.65161 0.10400 0.25925
 H873 H 0.60870 0.01112 0.23736
 H874 H 0.56185 0.04061 0.20171
 C875 C 0.38354 0.07068 0.72171
 C876 C 0.39405 0.10405 0.70124
 C877 C 0.41831 0.12449 0.71793
 C878 C 0.43023 0.10998 0.75385
 C879 C 0.39573 0.10545 0.77477
 C880 C 0.37127 0.08467 0.75789
 C881 C 0.41813 0.05165 0.72929
 C882 C 0.44193 0.07158 0.74655
 H883 H 0.38282 0.11140 0.67606
 H884 H 0.42767 0.14931 0.70691
 H885 H 0.39062 0.11717 0.80031
 H886 H 0.34571 0.07904 0.76909
 H887 H 0.42419 0.02502 0.72038
 H888 H 0.46744 0.06105 0.75369
 C889 C 0.62004 0.73103 0.05355
 C890 C 0.63480 0.75176 0.08527
 C891 C 0.60994 0.77159 0.10284
 C892 C 0.57263 0.76855 0.08685
 C893 C 0.57775 0.77894 0.04812
 C894 C 0.60247 0.75962 0.03097
 C895 C 0.58981 0.70912 0.06929
 C896 C 0.56566 0.72843 0.08658
 H897 H 0.66213 0.75108 0.09309
 H898 H 0.61659 0.78769 0.12553
 H899 H 0.56470 0.80132 0.03590
 H900 H 0.61100 0.76630 0.00456
 H901 H 0.58846 0.68034 0.06911
 H902 H 0.54414 0.71587 0.10057
 C903 C 0.38851 0.28347 0.08173
 C904 C 0.37538 0.25015 0.10119
 C905 C 0.40077 0.23371 0.12087
 C906 C 0.43700 0.25218 0.11901
 C907 C 0.44462 0.25393 0.07924
 C908 C 0.41989 0.27063 0.06018
 C909 C 0.40429 0.30701 0.11073
 C910 C 0.42955 0.29074 0.13010
 H911 H 0.34862 0.24049 0.09987
 H912 H 0.39510 0.21005 0.13598
 H913 H 0.46760 0.24247 0.06685
 H914 H 0.42261 0.27443 0.03204
 H915 H 0.39578 0.33397 0.11606
 H916 H 0.44253 0.30385 0.15197
 C917 C 0.60721 0.26654 0.94329
 C918 C 0.59043 0.23851 0.96723
 C919 C 0.56447 0.21937 0.95174
 C920 C 0.55747 0.22940 0.91324
 C921 C 0.55116 0.26966 0.91350
 C922 C 0.57657 0.28879 0.92917
 C923 C 0.61984 0.24529 0.91102
 C924 C 0.59377 0.22567 0.89516
 H925 H 0.60003 0.23226 0.99334
 H926 H 0.55154 0.19748 0.96501
 H927 H 0.52908 0.28239 0.90070
 H928 H 0.57573 0.31759 0.92931
 H929 H 0.64667 0.24556 0.90156
 H930 H 0.59897 0.20939 0.87222
 C931 C 0.39095 0.72339 0.92908
 C932 C 0.40304 0.70083 0.89772
 C933 C 0.42794 0.71674 0.87756
 C934 C 0.43879 0.75397 0.89036
 C935 C 0.40389 0.77476 0.89219
 C936 C 0.37883 0.75869 0.91266
 C937 C 0.42454 0.73278 0.94900
 C938 C 0.44900 0.74917 0.92923
 H939 H 0.39238 0.67485 0.89145
 H940 H 0.43846 0.70428 0.85404
 H941 H 0.39883 0.79960 0.87887
 H942 H 0.35291 0.76987 0.91645
 H943 H 0.42904 0.72657 0.97647
 H944 H 0.47364 0.75804 0.94044
 C945 C 0.72993 0.93739 0.39766
 C946 C 0.75997 0.96035 0.41193
 C947 C 0.77879 0.94485 0.43799
 C948 C 0.76639 0.90729 0.44772
 C949 C 0.72713 0.91090 0.45577
 C950 C 0.70834 0.92664 0.43018
 C951 C 0.74792 0.90274 0.38602
 C952 C 0.76719 0.88687 0.41221
 H953 H 0.76744 0.98573 0.40075
 H954 H 0.80178 0.95740 0.44935
 H955 H 0.71473 0.90048 0.47932
 H956 H 0.68009 0.92924 0.43236
 H957 H 0.74600 0.89187 0.35963
 H958 H 0.78160 0.86259 0.40748
 C959 C 0.27815 0.92863 0.60962
 C960 C 0.26856 0.94792 0.57562
 C961 C 0.25255 0.92728 0.55151
 C962 C 0.24827 0.88822 0.56240
 C963 C 0.28521 0.87605 0.57333
 C964 C 0.30075 0.89711 0.59789
 C965 C 0.24354 0.91174 0.62226
 C966 C 0.22785 0.89037 0.59754
 H967 H 0.27433 0.97563 0.57058
 H968 H 0.24339 0.93806 0.52677
 H969 H 0.29773 0.85230 0.56314
 H970 H 0.32650 0.89138 0.60859
 H971 H 0.23266 0.91567 0.64837
 H972 H 0.20373 0.87630 0.60316
 C973 C 0.27059 0.05478 0.37957
 C974 C 0.24768 0.08478 0.36439
 C975 C 0.22802 0.10229 0.38953
 C976 C 0.23344 0.08792 0.42737
 C977 C 0.22535 0.04812 0.42409
 C978 C 0.24445 0.03107 0.39919
 C979 C 0.29238 0.07331 0.40826
 C980 C 0.27325 0.09054 0.43264
 H981 H 0.24697 0.09163 0.33669
 H982 H 0.21071 0.12402 0.38286
 H983 H 0.20433 0.03503 0.43833
 H984 H 0.23877 0.00392 0.39158
 H985 H 0.32079 0.07502 0.40822
 H986 H 0.28557 0.10638 0.45311
 C987 C 0.71791 0.08350 0.61284
 C988 C 0.75107 0.10349 0.62490
 C989 C 0.76702 0.12244 0.59850
 C990 C 0.74824 0.11933 0.56252
 C991 C 0.74634 0.07901 0.55618
 C992 C 0.73003 0.06072 0.58180
 C993 C 0.69456 0.11221 0.59646
 C994 C 0.71032 0.13080 0.57020
 H995 H 0.76109 0.10285 0.65160
 H996 H 0.79076 0.13754 0.60314
 H997 H 0.75704 0.06572 0.53321
 H998 H 0.72560 0.03237 0.57972
 H999 H 0.66807 0.11790 0.60526
 H1000 H 0.69728 0.15238 0.55662
 C1001 C 0.92001 0.61608 0.28296
 C1002 C 0.89965 0.62997 0.25079
 C1003 C 0.87938 0.60455 0.23461
 C1004 C 0.88169 0.56760 0.25218
 C1005 C 0.92129 0.55981 0.25250
 C1006 C 0.94089 0.58448 0.26897
 C1007 C 0.89180 0.59983 0.30687
 C1008 C 0.87187 0.57459 0.29086
 H1009 H 0.90072 0.65725 0.24176
 H1010 H 0.86345 0.61067 0.21185
 H1011 H 0.93318 0.53684 0.24012
 H1012 H 0.96900 0.58160 0.27179
 H1013 H 0.88735 0.60810 0.33390
 H1014 H 0.85038 0.56137 0.30424
 C1015 C 0.94569 0.37911 0.73350
 C1016 C 0.93023 0.41015 0.71248
 C1017 C 0.91320 0.43428 0.73222
 C1018 C 0.91300 0.42643 0.77187
 C1019 C 0.89679 0.38874 0.77406
 C1020 C 0.91404 0.36390 0.75376
 C1021 C 0.96843 0.39617 0.76218
 C1022 C 0.95157 0.42083 0.78199
 H1023 H 0.93039 0.41197 0.68397
 H1024 H 0.89926 0.45628 0.72029
 H1025 H 0.87424 0.38180 0.78997
 H1026 H 0.90606 0.33628 0.75248
 H1027 H 0.99474 0.38738 0.76845
 H1028 H 0.96391 0.43354 0.80447
 C1029 C 0.07137 0.60920 0.72351
 C1030 C 0.05090 0.57567 0.73327
 C1031 C 0.07007 0.55076 0.74984
 C1032 C 0.10898 0.56042 0.75449
 C1033 C 0.12188 0.57058 0.71743
 C1034 C 0.10233 0.59595 0.70134
 C1035 C 0.08800 0.62169 0.75837
 C1036 C 0.10788 0.59616 0.77465
 H1037 H 0.02344 0.57150 0.72717
 H1038 H 0.05841 0.52613 0.75887
 H1039 H 0.14504 0.55925 0.70521
 H1040 H 0.10878 0.60620 0.67545
 H1041 H 0.08473 0.64817 0.76916
 H1042 H 0.12118 0.60137 0.79929
 C1043 C 0.05981 0.39212 0.26408
 C1044 C 0.07511 0.42286 0.28595
 C1045 C 0.09027 0.44863 0.26675
 C1046 C 0.08901 0.44260 0.22681
 C1047 C 0.10643 0.40566 0.22204
 C1048 C 0.09100 0.37919 0.24172
 C1049 C 0.03524 0.40962 0.23731
 C1050 C 0.05027 0.43592 0.21811
 H1051 H 0.07617 0.42344 0.31449
 H1052 H 0.10375 0.47075 0.27918
 H1053 H 0.12852 0.40034 0.20492
 H1054 H 0.10003 0.35191 0.24126
 H1055 H 0.00897 0.40010 0.23182
 H1056 H 0.03646 0.44924 0.19698
   
