data_POSCAR
  _audit_creation_date              2014-09-24
  _audit_creation_method            'ToBaCCo'
  _symmetry_space_group_name_H-M    'P1'
  _symmetry_Int_Tables_number       1
  _symmetry_cell_setting            triclinic
  loop_
  _symmetry_equiv_pos_as_xyz
 x,y,z
_cell_length_a 34.7105
_cell_length_b 34.7100
_cell_length_c 84.8428
_cell_angle_alpha 87.725500
_cell_angle_beta 90.943700
_cell_angle_gamma 120.118900
loop_
  _atom_site_label
  _atom_site_type_symbol
  _atom_site_fract_x
  _atom_site_fract_y
  _atom_site_fract_z
C1 C -0.00295 0.07833 0.51993
 H2 H 0.02855 0.07908 0.51944
 C3 C -0.00695 0.10889 0.52891
 H4 H 0.02154 0.13277 0.53549
 C5 C -0.07832 0.04593 0.51194
 H6 H -0.10578 0.02179 0.50509
 C7 C -0.08390 0.07581 0.52089
 H8 H -0.11579 0.07438 0.52089
 N9 N -0.03833 0.04758 0.51173
 C10 C -0.01001 -0.06019 0.50623
 H11 H -0.00803 -0.06063 0.49353
 C12 C -0.00757 -0.09278 0.51570
 H13 H -0.00357 -0.11820 0.51021
 C14 C -0.02058 -0.02820 0.52874
 H15 H -0.02680 -0.00376 0.53379
 C16 C -0.01851 -0.06018 0.53863
 H17 H -0.02216 -0.05931 0.55124
 Zn18 Zn -0.02703 0.00990 0.49950
 N19 N -0.01666 -0.02892 0.51285
 C20 C 0.06016 0.04398 0.48609
 N21 N 0.02303 0.04771 0.48673
 C22 C 0.02010 0.08028 0.47833
 C23 C 0.05495 0.11027 0.46853
 C24 C 0.09587 0.07324 0.47631
 C25 C -0.11498 -0.05720 0.49342
 C26 C -0.15017 -0.08783 0.48429
 C27 C -0.10447 -0.05411 0.46108
 C28 C -0.07039 -0.02420 0.47069
 N29 N -0.07601 -0.02635 0.48654
 H30 H 0.06208 0.01827 0.49306
 H31 H -0.00957 0.08285 0.47926
 H32 H 0.05195 0.13621 0.46211
 H33 H 0.12475 0.06920 0.47565
 H34 H -0.11851 -0.05847 0.50611
 H35 H -0.18070 -0.11031 0.49049
 H36 H -0.09631 -0.05205 0.44875
 H37 H -0.03867 -0.00043 0.46545
 C38 C -0.01265 -0.09346 0.53212
 C39 C -0.04779 0.10796 0.52946
 C40 C -0.14562 -0.08770 0.46768
 C41 C 0.09337 0.10678 0.46727
 C42 C 1.09436 0.02768 0.14465
 H43 H 1.09359 0.05846 0.14465
 C44 C 1.12532 0.02470 0.13534
 H45 H 1.14782 0.05322 0.12797
 C46 C 1.06550 -0.04680 0.15432
 H47 H 1.04247 -0.07423 0.16196
 C48 C 1.09614 -0.05126 0.14515
 H49 H 1.09653 -0.08227 0.14580
 N50 N 1.06535 -0.00766 0.15390
 C51 C 0.95935 0.02250 0.16119
 H52 H 0.96071 0.02643 0.17381
 C53 C 0.92644 0.02513 0.15228
 H54 H 0.90266 0.03142 0.15807
 C55 C 0.98690 0.00674 0.13841
 H56 H 1.00966 -0.00163 0.13308
 C57 C 0.95425 0.00847 0.12913
 H58 H 0.95280 0.00234 0.11665
 Zn59 Zn 1.02844 0.00325 0.16684
 N60 N 0.98875 0.01346 0.15416
 C61 C 1.06410 0.09103 0.17879
 N62 N 1.06720 0.05350 0.17858
 C63 C 1.10036 0.05077 0.18636
 C64 C 1.13153 0.08619 0.19507
 C65 C 1.09464 0.12736 0.18743
 C66 C 0.95789 -0.08228 0.17423
 C67 C 0.92657 -0.11691 0.18400
 C68 C 0.96978 -0.07787 0.20659
 C69 C 0.99976 -0.04364 0.19642
 N70 N 0.99311 -0.04618 0.18057
 H71 H 1.03826 0.09304 0.17219
 H72 H 1.10243 0.02077 0.18579
 H73 H 1.15707 0.08284 0.20142
 H74 H 1.09190 0.15709 0.18745
 H75 H 0.95301 -0.08316 0.16160
 H76 H 0.89760 -0.14410 0.17869
 H77 H 0.97589 -0.07497 0.21916
 H78 H 1.02753 -0.01453 0.20130
 C79 C 0.92323 0.01728 0.13608
 C80 C 1.12692 -0.01494 0.13563
 C81 C 0.93180 -0.11463 0.20048
 C82 C 1.12894 0.12516 0.19572
 C83 C 0.05658 0.96865 0.85420
 H84 H 0.02539 0.93739 0.85420
 C85 C 0.09219 0.97219 0.86309
 H86 H 0.08793 0.94357 0.87012
 C87 C 0.09960 1.04387 0.84497
 H88 H 0.10229 1.07139 0.83768
 C89 C 0.13623 1.04895 0.85379
 H90 H 0.16713 1.08054 0.85323
 N91 N 0.06086 1.00408 0.84536
 C92 C -0.07691 0.97231 0.83983
 H93 H -0.08181 0.96788 0.82726
 C94 C -0.11091 0.96975 0.84922
 H95 H -0.14143 0.96363 0.84348
 C96 C -0.02927 0.98963 0.86191
 H97 H 0.00285 0.99817 0.86681
 C98 C -0.06189 0.98825 0.87167
 H99 H -0.05438 0.99380 0.88407
 Zn100 Zn 0.01083 0.99260 0.83299
 N101 N -0.03705 0.98214 0.84628
 C102 C -0.04298 0.90468 0.82118
 N103 N -0.00232 0.94242 0.82111
 C104 C 0.03253 0.94540 0.81297
 C105 C 0.02713 0.91001 0.80416
 C106 C -0.04992 0.86838 0.81244
 C107 C 0.02379 1.07758 0.82593
 C108 C 0.02573 1.11217 0.81633
 C109 C 0.02785 1.07388 0.79350
 C110 C 0.02498 1.03965 0.80351
 N111 N 0.02260 1.04186 0.81940
 H112 H -0.06994 0.90245 0.82807
 H113 H 0.06468 0.97555 0.81332
 H114 H 0.05519 0.91350 0.79754
 H115 H -0.08237 0.83848 0.81265
 H116 H 0.02119 1.07820 0.83859
 H117 H 0.02425 1.13904 0.82181
 H118 H 0.02980 1.07128 0.78091
 H119 H 0.02343 1.01084 0.79849
 C120 C -0.10351 0.97891 0.86541
 C121 C 0.13282 1.01257 0.86286
 C122 C 0.02699 1.11028 0.79983
 C123 C -0.01451 0.87082 0.80381
 C124 C 0.39766 -0.00332 -0.00919
 C125 C 0.39682 -0.00505 0.00697
 C126 C 0.43609 -0.00295 0.01193
 N127 N 0.46091 0.00039 -0.00070
 C128 C 0.43762 0.00024 -0.01363
 C129 C 0.44797 -0.00421 0.02792
 C130 C 0.48767 -0.00298 0.03308
 C131 C 0.49687 -0.00833 0.04873
 C132 C 0.53724 -0.00662 0.04897
 C133 C 0.55181 -0.00049 0.03346
 N134 N 0.52171 0.00241 0.02388
 C135 C 0.59138 0.00056 0.02875
 C136 C 0.60286 -0.00111 0.01293
 C137 C 0.63905 -0.00492 0.00849
 C138 C 0.63782 -0.00700 -0.00760
 C139 C 0.60164 -0.00314 -0.01261
 N140 N 0.58025 0.00019 -0.00002
 C141 C 0.59051 -0.00053 -0.02861
 C142 C 0.55426 0.00488 -0.03357
 C143 C 0.54932 0.01785 -0.04879
 C144 C 0.51068 0.01957 -0.04899
 C145 C 0.49279 0.00752 -0.03390
 N146 N 0.51937 -0.00183 -0.02458
 C147 C 0.45240 0.00497 -0.02940
 H148 H 0.37183 -0.00428 -0.01676
 H149 H 0.37022 -0.00752 0.01419
 H150 H 0.51211 -0.01593 -0.01323
 H151 H 0.47625 -0.01381 0.05895
 H152 H 0.55336 -0.01074 0.05941
 H153 H 0.66376 -0.00645 0.01601
 H154 H 0.66139 -0.01042 -0.01474
 H155 H 0.49752 0.02908 -0.05912
 H156 H 0.52535 0.00992 0.01190
 H157 H 0.57161 0.02594 -0.05872
 C158 C -0.00842 0.62030 0.65888
 C159 C -0.00776 0.61851 0.67505
 C160 C -0.01948 0.57518 0.67958
 N161 N -0.02777 0.55034 0.66675
 C162 C -0.02098 0.57788 0.65407
 C163 C -0.02460 0.55887 0.69537
 C164 C -0.02850 0.51738 0.69991
 C165 C -0.03875 0.49832 0.71504
 C166 C -0.03631 0.46002 0.71488
 C167 C -0.02537 0.45623 0.69959
 N168 N -0.02012 0.49164 0.69061
 C169 C -0.01822 0.42195 0.69453
 C170 C -0.01713 0.41286 0.67848
 C171 C -0.00918 0.38018 0.67318
 C172 C -0.01420 0.37986 0.65712
 C173 C -0.02515 0.41227 0.65310
 N174 N -0.02724 0.43216 0.66618
 C175 C -0.03529 0.42118 0.63766
 C176 C -0.04080 0.45796 0.63341
 C177 C -0.05757 0.46348 0.61907
 C178 C -0.05548 0.50409 0.61919
 C179 C -0.03768 0.52221 0.63362
 N180 N -0.02849 0.49407 0.64216
 C181 C -0.02879 0.56457 0.63825
 H182 H -0.00087 0.64947 0.65154
 H183 H 0.00051 0.64600 0.68260
 H184 H -0.01046 0.50132 0.65258
 H185 H -0.04654 0.51099 0.72523
 H186 H -0.04186 0.43772 0.72495
 H187 H -0.00134 0.35823 0.68015
 H188 H -0.01054 0.35798 0.64931
 H189 H -0.06598 0.51858 0.60973
 H190 H -0.00677 0.50020 0.67931
 H191 H -0.06986 0.44070 0.60947
 C192 C 0.63342 0.61746 0.32788
 C193 C 0.62852 0.61799 0.34386
 C194 C 0.58579 0.58403 0.34761
 N195 N 0.56430 0.56320 0.33441
 C196 C 0.59344 0.58332 0.32234
 C197 C 0.56645 0.57504 0.36281
 C198 C 0.52439 0.53785 0.36679
 C199 C 0.50204 0.53203 0.38088
 C200 C 0.46379 0.49110 0.38056
 C201 C 0.46380 0.47293 0.36630
 N202 N 0.50103 0.50144 0.35805
 C203 C 0.43071 0.43026 0.36155
 C204 C 0.42579 0.41675 0.34578
 C205 C 0.39663 0.37404 0.34089
 C206 C 0.39907 0.37575 0.32475
 C207 C 0.43003 0.41931 0.32031
 N208 N 0.44620 0.44435 0.33317
 C209 C 0.44073 0.43566 0.30455
 C210 C 0.47815 0.47728 0.30017
 C211 C 0.48661 0.49632 0.28504
 C212 C 0.52722 0.53491 0.28543
 C213 C 0.54218 0.53891 0.30088
 N214 N 0.51235 0.50330 0.30972
 C215 C 0.58337 0.57383 0.30624
 H216 H 0.66275 0.64042 0.32110
 H217 H 0.65341 0.64125 0.35176
 H218 H 0.51734 0.49492 0.32114
 H219 H 0.51231 0.55475 0.39047
 H220 H 0.43883 0.47642 0.38979
 H221 H 0.37542 0.34473 0.34816
 H222 H 0.38023 0.34809 0.31714
 H223 H 0.54366 0.55734 0.27543
 H224 H 0.51207 0.49432 0.34786
 H225 H 0.46599 0.48350 0.27469
 C226 C -0.05757 0.20167 0.55853
 C227 C -0.09222 0.15704 0.55840
 C228 C -0.08968 0.12678 0.54866
 C229 C -0.05226 0.14049 0.53896
 C230 C -0.01811 0.18532 0.53885
 C231 C -0.02077 0.21558 0.54850
 C232 C -0.05871 0.23331 0.56952
 C233 C -0.04455 0.27754 0.56455
 C234 C -0.04293 0.30806 0.57518
 C235 C -0.05527 0.29509 0.59106
 C236 C -0.07024 0.25059 0.59594
 C237 C -0.07203 0.22004 0.58529
 C238 C -0.05125 0.32806 0.60259
 C239 C -0.08330 0.31579 0.61458
 C240 C -0.07838 0.34624 0.62584
 C241 C -0.04145 0.38951 0.62530
 C242 C -0.00979 0.40223 0.61324
 C243 C -0.01459 0.37177 0.60199
 H244 H -0.12117 0.14550 0.56591
 H245 H -0.11637 0.09238 0.54904
 H246 H 0.01088 0.19695 0.53136
 H247 H 0.00662 0.24963 0.54843
 H248 H -0.03467 0.28855 0.55241
 H249 H -0.03202 0.34185 0.57097
 H250 H -0.07931 0.23965 0.60813
 H251 H -0.08244 0.18637 0.58952
 H252 H -0.11222 0.28265 0.61524
 H253 H -0.10318 0.33604 0.63506
 H254 H 0.01900 0.43549 0.61272
 H255 H 0.01102 0.38210 0.59308
 C256 C 0.82690 0.78796 0.23112
 C257 C 0.85313 0.83251 0.23545
 C258 C 0.88717 0.86377 0.22559
 C259 C 0.89662 0.85129 0.21122
 C260 C 0.87105 0.80650 0.20704
 C261 C 0.83647 0.77530 0.21681
 C262 C 0.78953 0.75520 0.24145
 C263 C 0.77894 0.71043 0.24290
 C264 C 0.74427 0.68003 0.25280
 C265 C 0.71961 0.69370 0.26166
 C266 C 0.73007 0.73841 0.26013
 C267 C 0.76427 0.76861 0.25007
 C268 C 0.68373 0.66184 0.27267
 C269 C 0.64546 0.66518 0.27509
 C270 C 0.61277 0.63652 0.28594
 C271 C 0.61723 0.60341 0.29433
 C272 C 0.65482 0.59937 0.29183
 C273 C 0.68790 0.62844 0.28117
 H274 H 0.84743 0.84342 0.24651
 H275 H 0.90544 0.89801 0.22915
 H276 H 0.87765 0.79544 0.19618
 H277 H 0.81675 0.74143 0.21299
 H278 H 0.79787 0.69891 0.23658
 H279 H 0.73675 0.64574 0.25346
 H280 H 0.71233 0.75043 0.26690
 H281 H 0.77075 0.80253 0.24904
 H282 H 0.64063 0.68986 0.26857
 H283 H 0.58393 0.64010 0.28779
 H284 H 0.65888 0.57419 0.29836
 H285 H 0.71718 0.62534 0.27989
 C286 C 0.23947 0.01833 -0.10879
 C287 C 0.21374 -0.01820 -0.11827
 C288 C 0.18001 -0.01937 -0.12776
 C289 C 0.17118 0.01597 -0.12803
 C290 C 0.19798 0.05334 -0.11903
 C291 C 0.23180 0.05449 -0.10948
 C292 C 0.27280 0.01759 -0.09777
 C293 C 0.31445 0.05596 -0.09562
 C294 C 0.34538 0.05484 -0.08509
 C295 C 0.33524 0.01536 -0.07649
 C296 C 0.29354 -0.02289 -0.07865
 C297 C 0.26273 -0.02179 -0.08915
 C298 C 0.36743 0.01399 -0.06505
 C299 C 0.37251 -0.02375 -0.06364
 C300 C 0.40069 -0.02629 -0.05222
 C301 C 0.42433 0.00885 -0.04205
 C302 C 0.42036 0.04709 -0.04366
 C303 C 0.39209 0.04963 -0.05506
 H304 H 0.21951 -0.04610 -0.11827
 H305 H 0.16055 -0.04817 -0.13484
 H306 H 0.19173 0.08092 -0.11894
 H307 H 0.25088 0.08295 -0.10222
 H308 H 0.32330 0.08665 -0.10221
 H309 H 0.37743 0.08473 -0.08381
 H310 H 0.28431 -0.05355 -0.07197
 H311 H 0.23057 -0.05164 -0.09030
 H312 H 0.35456 -0.05141 -0.07133
 H313 H 0.40366 -0.05589 -0.05117
 H314 H 0.43852 0.07452 -0.03589
 H315 H 0.38857 0.07893 -0.05574
 C316 C -0.01758 0.80109 0.56221
 C317 C -0.04785 0.81620 0.56425
 C318 C -0.04609 0.85035 0.55449
 C319 C -0.01416 0.87017 0.54238
 C320 C 0.01575 0.85473 0.54014
 C321 C 0.01414 0.82060 0.54999
 C322 C -0.01915 0.76535 0.57291
 C323 C -0.01232 0.73183 0.56709
 C324 C -0.01478 0.69781 0.57721
 C325 C -0.02426 0.69652 0.59333
 C326 C -0.03068 0.73022 0.59914
 C327 C -0.02806 0.76425 0.58907
 C328 C -0.02710 0.66052 0.60416
 C329 C -0.06040 0.64114 0.61585
 C330 C -0.06164 0.60912 0.62666
 C331 C -0.02948 0.59606 0.62602
 C332 C 0.00305 0.61431 0.61411
 C333 C 0.00422 0.64626 0.60324
 H334 H -0.07333 0.80125 0.57331
 H335 H -0.07023 0.86085 0.55627
 H336 H 0.04090 0.86960 0.53097
 H337 H 0.03825 0.81007 0.54821
 H338 H -0.00594 0.73141 0.55467
 H339 H -0.01006 0.67206 0.57237
 H340 H -0.03712 0.73064 0.61156
 H341 H -0.03254 0.79004 0.59400
 H342 H -0.08541 0.65091 0.61668
 H343 H -0.08719 0.59506 0.63571
 H344 H 0.02813 0.60457 0.61347
 H345 H 0.03043 0.66082 0.59443
 C346 C 0.22326 0.23045 0.22471
 C347 C 0.23725 0.20810 0.21489
 C348 C 0.20683 0.17469 0.20523
 C349 C 0.16170 0.16286 0.20514
 C350 C 0.14792 0.18607 0.21461
 C351 C 0.17837 0.21945 0.22432
 C352 C 0.25505 0.26364 0.23579
 C353 C 0.24193 0.26399 0.25134
 C354 C 0.27236 0.29350 0.26207
 C355 C 0.31664 0.32343 0.25751
 C356 C 0.32962 0.32355 0.24189
 C357 C 0.29916 0.29397 0.23115
 C358 C 0.34921 0.35371 0.26912
 C359 C 0.39305 0.36133 0.26954
 C360 C 0.42306 0.38837 0.28093
 C361 C 0.40975 0.40827 0.29204
 C362 C 0.36632 0.40130 0.29152
 C363 C 0.33633 0.37432 0.28016
 H364 H 0.27150 0.21550 0.21502
 H365 H 0.21858 0.15782 0.19790
 H366 H 0.11333 0.17752 0.21487
 H367 H 0.16672 0.23646 0.23162
 H368 H 0.20842 0.24052 0.25535
 H369 H 0.26149 0.29206 0.27408
 H370 H 0.36330 0.34668 0.23795
 H371 H 0.31008 0.29490 0.21919
 H372 H 0.40380 0.34550 0.26132
 H373 H 0.45645 0.39331 0.28123
 H374 H 0.35564 0.41661 0.29999
 H375 H 0.30306 0.36966 0.28000
 C376 C 0.79969 -0.01544 -0.10610
 C377 C 0.78633 -0.04348 -0.11894
 C378 C 0.81802 -0.04526 -0.12841
 C379 C 0.86398 -0.01976 -0.12502
 C380 C 0.87678 0.00790 -0.11190
 C381 C 0.84512 0.01028 -0.10270
 C382 C 0.76652 -0.01301 -0.09611
 C383 C 0.77159 0.02848 -0.09265
 C384 C 0.74159 0.03107 -0.08258
 C385 C 0.70629 -0.00776 -0.07550
 C386 C 0.70103 -0.04935 -0.07919
 C387 C 0.73062 -0.05194 -0.08949
 C388 C 0.67602 -0.00484 -0.06396
 C389 C 0.63085 -0.03824 -0.06281
 C390 C 0.60316 -0.03661 -0.05140
 C391 C 0.61986 -0.00132 -0.04103
 C392 C 0.66439 0.03287 -0.04247
 C393 C 0.69232 0.03089 -0.05368
 H394 H 0.75133 -0.06375 -0.12174
 H395 H 0.80600 -0.06803 -0.13800
 H396 H 0.91143 0.02956 -0.10900
 H397 H 0.85617 0.03213 -0.09282
 H398 H 0.79880 0.05892 -0.09778
 H399 H 0.74617 0.06359 -0.08035
 H400 H 0.67483 -0.07994 -0.07378
 H401 H 0.72636 -0.08427 -0.09189
 H402 H 0.61680 -0.06570 -0.07073
 H403 H 0.56870 -0.06302 -0.05058
 H404 H 0.67773 0.06058 -0.03464
 H405 H 0.72696 0.05688 -0.05400
 C406 C 0.22487 -0.01908 0.10633
 C407 C 0.23589 0.01856 0.11508
 C408 C 0.20443 0.01927 0.12489
 C409 C 0.16105 -0.01758 0.12614
 C410 C 0.15040 -0.05590 0.11782
 C411 C 0.18206 -0.05666 0.10801
 C412 C 0.25763 -0.01818 0.09509
 C413 C 0.26391 -0.05494 0.09397
 C414 C 0.29534 -0.05338 0.08345
 C415 C 0.32093 -0.01513 0.07377
 C416 C 0.31416 0.02136 0.07480
 C417 C 0.28298 0.01988 0.08535
 C418 C 0.35432 -0.01313 0.06252
 C419 C 0.39503 0.02673 0.05998
 C420 C 0.42558 0.02938 0.04886
 C421 C 0.41615 -0.00780 0.04016
 C422 C 0.37614 -0.04796 0.04288
 C423 C 0.34540 -0.05059 0.05394
 H424 H 0.26892 0.04762 0.11429
 H425 H 0.21403 0.04887 0.13145
 H426 H 0.11719 -0.08470 0.11848
 H427 H 0.17260 -0.08604 0.10133
 H428 H 0.24508 -0.08455 0.10144
 H429 H 0.30010 -0.08186 0.08307
 H430 H 0.33251 0.05092 0.06727
 H431 H 0.27824 0.04838 0.08572
 H432 H 0.40330 0.05593 0.06659
 H433 H 0.45647 0.06052 0.04694
 H434 H 0.36847 -0.07695 0.03623
 H435 H 0.31421 -0.08160 0.05548
 C436 C 0.75667 0.81286 0.43910
 C437 C 0.78980 0.85342 0.43239
 C438 C 0.82130 0.88674 0.44182
 C439 C 0.82146 0.88076 0.45848
 C440 C 0.78663 0.84000 0.46507
 C441 C 0.75507 0.80685 0.45555
 C442 C 0.72487 0.77657 0.42890
 C443 C 0.71221 0.73191 0.43260
 C444 C 0.68433 0.69809 0.42254
 C445 C 0.66858 0.70812 0.40850
 C446 C 0.68061 0.75269 0.40494
 C447 C 0.70825 0.78644 0.41504
 C448 C 0.64081 0.67257 0.39736
 C449 C 0.60599 0.67359 0.38896
 C450 C 0.58146 0.64151 0.37789
 C451 C 0.59103 0.60766 0.37512
 C452 C 0.62501 0.60583 0.38365
 C453 C 0.64980 0.63808 0.39464
 H454 H 0.79204 0.85930 0.41973
 H455 H 0.84446 0.91754 0.43572
 H456 H 0.78437 0.83151 0.47752
 H457 H 0.72954 0.77612 0.46114
 H458 H 0.72475 0.72314 0.44309
 H459 H 0.67524 0.66406 0.42575
 H460 H 0.66954 0.76173 0.39414
 H461 H 0.71677 0.82037 0.41194
 H462 H 0.59770 0.69920 0.39094
 H463 H 0.55521 0.64320 0.37138
 H464 H 0.63285 0.57995 0.38153
 H465 H 0.67677 0.63666 0.40070
 C466 C 0.01634 0.20803 0.76973
 C467 C -0.00217 0.16367 0.76521
 C468 C 0.00156 0.13228 0.77491
 C469 C 0.02470 0.14447 0.78928
 C470 C 0.04409 0.18908 0.79366
 C471 C 0.03972 0.22038 0.78406
 C472 C 0.01088 0.24096 0.75955
 C473 C 0.04485 0.28588 0.75832
 C474 C 0.03982 0.31642 0.74853
 C475 C 0.00096 0.30276 0.73953
 C476 C -0.03309 0.25790 0.74085
 C477 C -0.02837 0.22756 0.75082
 C478 C -0.00372 0.33472 0.72853
 C479 C -0.04567 0.33082 0.72579
 C480 C -0.05038 0.35929 0.71483
 C481 C -0.01315 0.39284 0.70665
 C482 C 0.02886 0.39760 0.70955
 C483 C 0.03352 0.36866 0.72029
 H484 H -0.01963 0.15300 0.75414
 H485 H -0.01459 0.09818 0.77122
 H486 H 0.06266 0.19992 0.80452
 H487 H 0.05405 0.25408 0.78803
 H488 H 0.07573 0.29741 0.76472
 H489 H 0.06648 0.35081 0.74804
 H490 H -0.06324 0.24585 0.73397
 H491 H -0.05568 0.19352 0.75168
 H492 H -0.07495 0.30576 0.73211
 H493 H -0.08306 0.35518 0.71269
 H494 H 0.05786 0.42315 0.70320
 H495 H 0.06617 0.37224 0.72181
 C496 C 0.81729 0.01336 0.10789
 C497 C 0.82715 -0.02118 0.10750
 C498 C 0.86157 -0.01975 0.11667
 C499 C 0.88649 0.01597 0.12656
 C500 C 0.87619 0.05018 0.12719
 C501 C 0.84212 0.04910 0.11781
 C502 C 0.78189 0.01236 0.09762
 C503 C 0.78996 0.05002 0.08831
 C504 C 0.75767 0.04808 0.07778
 C505 C 0.71635 0.00857 0.07648
 C506 C 0.70795 -0.02868 0.08619
 C507 C 0.74046 -0.02688 0.09656
 C508 C 0.68281 0.00585 0.06472
 C509 C 0.65638 -0.03364 0.05662
 C510 C 0.62605 -0.03572 0.04517
 C511 C 0.62212 0.00184 0.04139
 C512 C 0.64774 0.04102 0.04958
 C513 C 0.67767 0.04299 0.06118
 H514 H 0.80876 -0.04889 0.09986
 H515 H 0.86861 -0.04674 0.11610
 H516 H 0.89504 0.07810 0.13471
 H517 H 0.83497 0.07601 0.11836
 H518 H 0.82185 0.08051 0.08878
 H519 H 0.76567 0.07719 0.07032
 H520 H 0.67622 -0.05932 0.08577
 H521 H 0.73325 -0.05620 0.10377
 H522 H 0.65984 -0.06267 0.05884
 H523 H 0.60629 -0.06630 0.03899
 H524 H 0.64469 0.07015 0.04691
 H525 H 0.69672 0.07361 0.06739
 C526 C 0.19977 0.19987 0.43634
 C527 C 0.15496 0.18261 0.43203
 C528 C 0.12071 0.15193 0.44193
 C529 C 0.13024 0.13798 0.45652
 C530 C 0.17504 0.15484 0.46080
 C531 C 0.20943 0.18542 0.45082
 C532 C 0.23596 0.23333 0.42581
 C533 C 0.27436 0.26939 0.43207
 C534 C 0.30710 0.30206 0.42208
 C535 C 0.30187 0.29954 0.40563
 C536 C 0.26402 0.26312 0.39937
 C537 C 0.23158 0.23028 0.40933
 C538 C 0.33531 0.33493 0.39494
 C539 C 0.32142 0.35214 0.38222
 C540 C 0.35253 0.38404 0.37167
 C541 C 0.39806 0.39884 0.37349
 C542 C 0.41218 0.38256 0.38640
 C543 C 0.38104 0.35098 0.39710
 H544 H 0.14620 0.19341 0.42108
 H545 H 0.08662 0.13911 0.43813
 H546 H 0.18355 0.14507 0.47201
 H547 H 0.24358 0.19766 0.45442
 H548 H 0.27855 0.27308 0.44470
 H549 H 0.33589 0.32997 0.42719
 H550 H 0.25962 0.25995 0.38673
 H551 H 0.20302 0.20245 0.40409
 H552 H 0.28641 0.34083 0.38045
 H553 H 0.34109 0.39661 0.36187
 H554 H 0.44721 0.39369 0.38800
 H555 H 0.39255 0.33812 0.40679
 C556 C -0.02918 0.76514 0.77484
 C557 C 0.00848 0.78782 0.78443
 C558 C 0.01271 0.82140 0.79407
 C559 C -0.02062 0.83308 0.79436
 C560 C -0.05885 0.80961 0.78510
 C561 C -0.06304 0.77606 0.77540
 C562 C -0.03206 0.73161 0.76382
 C563 C -0.04731 0.73084 0.74833
 C564 C -0.04761 0.70110 0.73764
 C565 C -0.03273 0.67138 0.74219
 C566 C -0.01822 0.67161 0.75777
 C567 C -0.01786 0.70141 0.76846
 C568 C -0.03142 0.64108 0.73060
 C569 C 0.00490 0.63371 0.73019
 C570 C 0.00694 0.60659 0.71886
 C571 C -0.02726 0.58640 0.70779
 C572 C -0.06380 0.59316 0.70828
 C573 C -0.06590 0.62021 0.71959
 H574 H 0.03532 0.78049 0.78415
 H575 H 0.04231 0.83852 0.80123
 H576 H -0.08494 0.81806 0.78501
 H577 H -0.09265 0.75882 0.76826
 H578 H -0.05776 0.75418 0.74432
 H579 H -0.05832 0.70227 0.72566
 H580 H -0.00725 0.64863 0.76171
 H581 H -0.00653 0.70080 0.78039
 H582 H 0.03225 0.64977 0.73837
 H583 H 0.03546 0.60183 0.71858
 H584 H -0.09055 0.57761 0.69983
 H585 H -0.09460 0.62468 0.71974
   
