data_POSCAR
  _audit_creation_date              2014-09-24
  _audit_creation_method            'ToBaCCo'
  _symmetry_space_group_name_H-M    'P1'
  _symmetry_Int_Tables_number       1
  _symmetry_cell_setting            triclinic
  loop_
  _symmetry_equiv_pos_as_xyz
 x,y,z
_cell_length_a 31.3187
_cell_length_b 31.3183
_cell_length_c 30.1143
_cell_angle_alpha 90.013100
_cell_angle_beta 89.903900
_cell_angle_gamma 89.975600
loop_
  _atom_site_label
  _atom_site_type_symbol
  _atom_site_fract_x
  _atom_site_fract_y
  _atom_site_fract_z
C1 C 0.31520 0.30804 0.23235
 H2 H 0.31736 0.30855 0.26820
 C3 C 0.34239 0.33358 0.20692
 H4 H 0.36551 0.35398 0.22316
 C5 C 0.28256 0.28071 0.16724
 H6 H 0.25961 0.25971 0.15186
 C7 C 0.30916 0.30574 0.14058
 H8 H 0.30630 0.30426 0.10476
 N9 N 0.28558 0.28279 0.21229
 C10 C 0.18514 0.26618 0.31143
 H11 H 0.18309 0.23171 0.31254
 C12 C 0.15811 0.29094 0.33793
 H13 H 0.13521 0.27556 0.35968
 C14 C 0.21719 0.32849 0.28149
 H15 H 0.23977 0.34307 0.25903
 C16 C 0.19076 0.35440 0.30740
 H17 H 0.19340 0.38882 0.30515
 Zn18 Zn 0.24983 0.24950 0.24941
 N19 N 0.21437 0.28520 0.28440
 C20 C 0.28347 0.21848 0.33108
 N21 N 0.28580 0.21601 0.28600
 C22 C 0.31497 0.19041 0.26559
 C23 C 0.34247 0.16498 0.29072
 C24 C 0.31040 0.19359 0.35744
 C25 C 0.18424 0.23340 0.18852
 C26 C 0.15657 0.20891 0.16260
 C27 C 0.18907 0.14513 0.19253
 C28 C 0.21615 0.17079 0.21788
 N29 N 0.21367 0.21410 0.21501
 H30 H 0.26089 0.23977 0.34673
 H31 H 0.31661 0.18960 0.22971
 H32 H 0.36529 0.14435 0.27421
 H33 H 0.30814 0.19545 0.39330
 H34 H 0.18247 0.26788 0.18745
 H35 H 0.13348 0.22450 0.14131
 H36 H 0.19141 0.11068 0.19478
 H37 H 0.23892 0.15600 0.23992
 C38 C 0.16111 0.33544 0.33601
 C39 C 0.33916 0.33257 0.16063
 C40 C 0.15916 0.16437 0.16451
 C41 C 0.34000 0.16646 0.33705
 C42 C 0.81610 0.80945 0.23177
 H43 H 0.81835 0.81011 0.26761
 C44 C 0.84305 0.83511 0.20617
 H45 H 0.86604 0.85572 0.22238
 C46 C 0.78348 0.78167 0.16687
 H47 H 0.76064 0.76045 0.15164
 C48 C 0.80982 0.80679 0.14001
 H49 H 0.80677 0.80509 0.10421
 N50 N 0.78661 0.78393 0.21190
 C51 C 0.68627 0.76708 0.31114
 H52 H 0.68433 0.73261 0.31224
 C53 C 0.65913 0.79174 0.33764
 H54 H 0.63628 0.77628 0.35937
 C55 C 0.71812 0.82950 0.28124
 H56 H 0.74067 0.84416 0.25879
 C57 C 0.69158 0.85532 0.30714
 H58 H 0.69412 0.88975 0.30490
 Zn59 Zn 0.75104 0.75059 0.24919
 N60 N 0.71544 0.78620 0.28414
 C61 C 0.78461 0.71963 0.33093
 N62 N 0.78711 0.71726 0.28586
 C63 C 0.81632 0.69164 0.26552
 C64 C 0.84360 0.66602 0.29071
 C65 C 0.81130 0.69454 0.35736
 C66 C 0.68545 0.73401 0.18841
 C67 C 0.65788 0.70931 0.16258
 C68 C 0.69067 0.64578 0.19274
 C69 C 0.71765 0.67165 0.21799
 N70 N 0.71499 0.71494 0.21494
 H71 H 0.76199 0.74092 0.34654
 H72 H 0.81809 0.69089 0.22964
 H73 H 0.86639 0.64532 0.27425
 H74 H 0.80884 0.69628 0.39320
 H75 H 0.68353 0.76849 0.18721
 H76 H 0.63473 0.72473 0.14123
 H77 H 0.69317 0.61135 0.19512
 H78 H 0.74048 0.65703 0.24007
 C79 C 0.66199 0.83625 0.33574
 C80 C 0.83969 0.83395 0.15986
 C81 C 0.66068 0.66479 0.16466
 C82 C 0.84086 0.66733 0.33703
 C83 C 0.81647 0.30708 0.73382
 H84 H 0.81875 0.30772 0.76966
 C85 C 0.84343 0.33269 0.70820
 H86 H 0.86651 0.35327 0.72428
 C87 C 0.78370 0.27943 0.66894
 H88 H 0.76078 0.25830 0.65371
 C89 C 0.81007 0.30452 0.64209
 H90 H 0.80705 0.30295 0.60629
 N91 N 0.78687 0.28166 0.71397
 C92 C 0.68644 0.26546 0.81324
 H93 H 0.68439 0.23100 0.81455
 C94 C 0.65931 0.29036 0.83948
 H95 H 0.63636 0.27511 0.86126
 C96 C 0.71851 0.32760 0.78296
 H97 H 0.74110 0.34206 0.76043
 C98 C 0.69197 0.35366 0.80860
 H99 H 0.69458 0.38807 0.80609
 Zn100 Zn 0.75115 0.24848 0.75126
 N101 N 0.71571 0.28433 0.78614
 C102 C 0.78466 0.21735 0.83298
 N103 N 0.78708 0.21496 0.78790
 C104 C 0.81620 0.18930 0.76751
 C105 C 0.84353 0.16366 0.79262
 C106 C 0.81139 0.19227 0.85939
 C107 C 0.68548 0.23239 0.69049
 C108 C 0.65787 0.20793 0.66447
 C109 C 0.69041 0.14412 0.69430
 C110 C 0.71744 0.16976 0.71974
 N111 N 0.71493 0.21308 0.71694
 H112 H 0.76210 0.23869 0.84860
 H113 H 0.81790 0.18855 0.73164
 H114 H 0.86624 0.14300 0.77592
 H115 H 0.80887 0.19419 0.89525
 H116 H 0.68370 0.26688 0.68947
 H117 H 0.63481 0.22355 0.64318
 H118 H 0.69280 0.10967 0.69645
 H119 H 0.74022 0.15495 0.74175
 C120 C 0.66225 0.33486 0.83724
 C121 C 0.83999 0.33157 0.66193
 C122 C 0.66053 0.16339 0.66627
 C123 C 0.84095 0.16498 0.83902
 C124 C 0.31482 0.80882 0.73289
 H125 H 0.31698 0.80952 0.76874
 C126 C 0.34197 0.83428 0.70733
 H127 H 0.36505 0.85482 0.72346
 C128 C 0.28228 0.78106 0.66793
 H129 H 0.25941 0.75990 0.65266
 C130 C 0.30884 0.80600 0.64113
 H131 H 0.30600 0.80431 0.60533
 N132 N 0.28529 0.78338 0.71297
 C133 C 0.18496 0.76671 0.81228
 H134 H 0.18306 0.73224 0.81354
 C135 C 0.15775 0.79146 0.83860
 H136 H 0.13489 0.77608 0.86038
 C137 C 0.21673 0.82903 0.78205
 H138 H 0.23925 0.84362 0.75953
 C139 C 0.19011 0.85494 0.80778
 H140 H 0.19258 0.88936 0.80533
 Zn141 Zn 0.24967 0.75008 0.75022
 N142 N 0.21411 0.78574 0.78517
 C143 C 0.28343 0.71897 0.83186
 N144 N 0.28579 0.71672 0.78677
 C145 C 0.31505 0.69130 0.76625
 C146 C 0.34259 0.66580 0.79126
 C147 C 0.31039 0.69399 0.85811
 C148 C 0.18414 0.73359 0.68936
 C149 C 0.15665 0.70892 0.66341
 C150 C 0.18941 0.64536 0.69353
 C151 C 0.21631 0.67119 0.71890
 N152 N 0.21363 0.71449 0.71593
 H153 H 0.26075 0.74010 0.84760
 H154 H 0.31670 0.69065 0.73037
 H155 H 0.36546 0.64530 0.77466
 H156 H 0.30809 0.69565 0.89397
 H157 H 0.18221 0.76807 0.68821
 H158 H 0.13354 0.72436 0.64203
 H159 H 0.19194 0.61092 0.69584
 H160 H 0.23911 0.65655 0.74100
 C161 C 0.16051 0.83598 0.83643
 C162 C 0.33877 0.83300 0.66104
 C163 C 0.15948 0.66440 0.66540
 C164 C 0.34006 0.66703 0.83759
 C165 C 0.05684 0.06598 0.01673
 H166 H 0.05741 0.06823 -0.01912
 C167 C 0.08247 0.09299 0.04219
 H168 H 0.10300 0.11607 0.02597
 C169 C 0.02932 0.03327 0.08180
 H170 H 0.00822 0.01036 0.09716
 C171 C 0.05443 0.05969 0.10849
 H172 H 0.05292 0.05672 0.14430
 N173 N 0.03146 0.03640 0.03675
 C174 C 0.01505 -0.06403 -0.06232
 H175 H -0.01941 -0.06605 -0.06353
 C176 C 0.03990 -0.09115 -0.08863
 H177 H 0.02460 -0.11406 -0.11036
 C178 C 0.07726 -0.03203 -0.03224
 H179 H 0.09177 -0.00945 -0.00978
 C180 C 0.10326 -0.05855 -0.05797
 H181 H 0.13767 -0.05595 -0.05557
 Zn182 Zn -0.00180 0.00069 -0.00037
 N183 N 0.03398 -0.03480 -0.03529
 C184 C -0.03289 0.03427 -0.08209
 N185 N -0.03528 0.03666 -0.03700
 C186 C -0.06091 0.06583 -0.01661
 C187 C -0.08645 0.09323 -0.04174
 C188 C -0.05790 0.06109 -0.10846
 C189 C -0.01796 -0.06494 0.06058
 C190 C -0.04247 -0.09257 0.08662
 C191 C -0.10623 -0.06000 0.05676
 C192 C -0.08055 -0.03296 0.03130
 N193 N -0.03724 -0.03549 0.03409
 H194 H -0.01160 0.01168 -0.09773
 H195 H -0.06167 0.06751 0.01927
 H196 H -0.10710 0.11603 -0.02524
 H197 H -0.05611 0.05876 -0.14431
 H198 H 0.01652 -0.06675 0.06159
 H199 H -0.02689 -0.11566 0.10792
 H200 H -0.14067 -0.05761 0.05459
 H201 H -0.09533 -0.01017 0.00926
 C202 C 0.08440 -0.08822 -0.08654
 C203 C 0.08143 0.08961 0.08847
 C204 C -0.08701 -0.08992 0.08480
 C205 C -0.08506 0.09066 -0.08807
 C206 C 0.05826 0.56521 0.51739
 H207 H 0.05892 0.56742 0.48154
 C208 C 0.08371 0.59235 0.54289
 H209 H 0.10422 0.61547 0.52671
 C210 C 0.03060 0.53255 0.58242
 H211 H 0.00949 0.50963 0.59775
 C212 C 0.05554 0.55910 0.60915
 H213 H 0.05389 0.55620 0.64497
 N214 N 0.03288 0.53562 0.53738
 C215 C 0.01630 0.43526 0.43830
 H216 H -0.01817 0.43325 0.43724
 C217 C 0.04103 0.40819 0.41182
 H218 H 0.02563 0.38530 0.39014
 C219 C 0.07864 0.46725 0.46810
 H220 H 0.09323 0.48982 0.49051
 C221 C 0.10452 0.44077 0.44221
 H222 H 0.13895 0.44338 0.44442
 Zn223 Zn -0.00036 0.49993 0.50024
 N224 N 0.03534 0.46447 0.46526
 C225 C -0.03123 0.53365 0.41855
 N226 N -0.03380 0.53594 0.46363
 C227 C -0.05945 0.56509 0.48400
 C228 C -0.08482 0.59262 0.45884
 C229 C -0.05607 0.56060 0.39215
 C230 C -0.01645 0.43426 0.56110
 C231 C -0.04091 0.40660 0.58715
 C232 C -0.10472 0.43918 0.55744
 C233 C -0.07909 0.46626 0.53197
 N234 N -0.03577 0.46374 0.53469
 H235 H -0.00990 0.51109 0.40293
 H236 H -0.06033 0.56670 0.51988
 H237 H -0.10549 0.61543 0.47531
 H238 H -0.05412 0.55837 0.35630
 H239 H 0.01804 0.43248 0.56206
 H240 H -0.02528 0.38349 0.60840
 H241 H -0.13917 0.44157 0.55533
 H242 H -0.09390 0.48908 0.50999
 C243 C 0.08554 0.41114 0.41368
 C244 C 0.08249 0.58908 0.58918
 C245 C -0.08544 0.40924 0.58541
 C246 C -0.08323 0.59018 0.41250
 C247 C 0.55895 0.06539 0.51768
 H248 H 0.55972 0.06773 0.48184
 C249 C 0.58450 0.09229 0.54336
 H250 H 0.60516 0.11537 0.52732
 C251 C 0.53101 0.03259 0.58250
 H252 H 0.50977 0.00970 0.59768
 C253 C 0.55603 0.05890 0.60941
 H254 H 0.55430 0.05585 0.64520
 N255 N 0.53340 0.03582 0.53747
 C256 C 0.51693 -0.06426 0.43804
 H257 H 0.48247 -0.06624 0.43688
 C258 C 0.54171 -0.09127 0.41153
 H259 H 0.52635 -0.11406 0.38972
 C260 C 0.57922 -0.03243 0.46814
 H261 H 0.59378 -0.00994 0.49066
 C262 C 0.60515 -0.05884 0.44222
 H263 H 0.63957 -0.05626 0.44453
 Zn264 Zn 0.50019 0.00032 0.50010
 N265 N 0.53593 -0.03515 0.46515
 C266 C 0.46934 0.03408 0.41839
 N267 N 0.46691 0.03647 0.46347
 C268 C 0.44128 0.06563 0.48385
 C269 C 0.41569 0.09297 0.45871
 C270 C 0.44429 0.06085 0.39201
 C271 C 0.48352 -0.06539 0.56085
 C272 C 0.45877 -0.09291 0.58676
 C273 C 0.39530 -0.06005 0.55660
 C274 C 0.42121 -0.03313 0.53128
 N275 N 0.46450 -0.03582 0.53430
 H276 H 0.49065 0.01150 0.40275
 H277 H 0.44049 0.06730 0.51973
 H278 H 0.39498 0.11572 0.47520
 H279 H 0.44606 0.05848 0.35616
 H280 H 0.51799 -0.06733 0.56204
 H281 H 0.47415 -0.11607 0.60815
 H282 H 0.36087 -0.05750 0.55427
 H283 H 0.40662 -0.01027 0.50918
 C284 C 0.58622 -0.08835 0.41352
 C285 C 0.58319 0.08881 0.58963
 C286 C 0.41426 -0.09005 0.58474
 C287 C 0.41706 0.09035 0.41238
 C288 C 0.55903 0.56556 0.01704
 H289 H 0.55965 0.56773 -0.01881
 C290 C 0.58456 0.59268 0.04248
 H291 H 0.60508 0.61575 0.02624
 C292 C 0.53142 0.53298 0.08214
 H293 H 0.51030 0.51009 0.09752
 C294 C 0.55643 0.55952 0.10882
 H295 H 0.55484 0.55665 0.14463
 N296 N 0.53363 0.53601 0.03709
 C297 C 0.51705 0.43560 -0.06195
 H298 H 0.48258 0.43369 -0.06319
 C299 C 0.54183 0.40836 -0.08819
 H300 H 0.52648 0.38546 -0.10989
 C301 C 0.57932 0.46743 -0.03184
 H302 H 0.59388 0.48998 -0.00939
 C303 C 0.60526 0.44078 -0.05749
 H304 H 0.63968 0.44326 -0.05505
 Zn305 Zn 0.50034 0.50036 -0.00004
 N306 N 0.53604 0.46480 -0.03493
 C307 C 0.46917 0.53399 -0.08171
 N308 N 0.46695 0.53643 -0.03663
 C309 C 0.44149 0.56566 -0.01614
 C310 C 0.41589 0.59308 -0.04116
 C311 C 0.44409 0.56085 -0.10799
 C312 C 0.48382 0.43481 0.06095
 C313 C 0.45912 0.40722 0.08684
 C314 C 0.39559 0.43989 0.05658
 C315 C 0.42145 0.46688 0.03128
 N316 N 0.46475 0.46429 0.03434
 H317 H 0.49033 0.51133 -0.09743
 H318 H 0.44087 0.56736 0.01974
 H319 H 0.39534 0.61592 -0.02458
 H320 H 0.44570 0.55847 -0.14384
 H321 H 0.51830 0.43295 0.06217
 H322 H 0.47454 0.38410 0.10824
 H323 H 0.36116 0.44233 0.05418
 H324 H 0.40683 0.48968 0.00914
 C325 C 0.58634 0.41113 -0.08603
 C326 C 0.58341 0.58944 0.08877
 C327 C 0.41460 0.40994 0.08473
 C328 C 0.41706 0.59047 -0.08750
 C329 C 0.13323 -0.13777 -0.13643
 C330 C 0.11076 -0.11539 -0.11369
 C331 C 0.13406 0.36168 0.36339
 C332 C 0.11175 0.38403 0.38633
 C333 C 0.63485 -0.13761 0.36313
 C334 C 0.61248 -0.11535 0.38611
 C335 C 0.63504 0.36127 -0.13572
 C336 C 0.61263 0.38380 -0.11307
 C337 C -0.13431 0.14067 -0.13686
 C338 C -0.11171 0.11801 -0.11461
 C339 C -0.13206 0.64048 0.36363
 C340 C -0.10966 0.61770 0.38592
 C341 C 0.36748 0.13997 0.36359
 C342 C 0.39024 0.11751 0.38583
 C343 C 0.36752 0.64038 -0.13601
 C344 C 0.39026 0.61777 -0.11390
 C345 C -0.13506 -0.14053 0.13431
 C346 C -0.11298 -0.11763 0.11171
 C347 C -0.13336 0.35854 0.63492
 C348 C -0.11135 0.38148 0.61233
 C349 C 0.36574 -0.14030 0.63409
 C350 C 0.38803 -0.11758 0.61156
 C351 C 0.36613 0.35941 0.13384
 C352 C 0.38841 0.38225 0.11143
 C353 C 0.13136 0.13841 0.13776
 C354 C 0.10841 0.11634 0.11531
 C355 C 0.13195 0.63825 0.63858
 C356 C 0.10922 0.61600 0.61607
 C357 C 0.63287 0.13747 0.63933
 C358 C 0.61004 0.11545 0.61670
 C359 C 0.63304 0.63861 0.13798
 C360 C 0.61022 0.61636 0.11558
   
