data_POSCAR
  _audit_creation_date              2014-09-24
  _audit_creation_method            'ToBaCCo'
  _symmetry_space_group_name_H-M    'P1'
  _symmetry_Int_Tables_number       1
  _symmetry_cell_setting            triclinic
  loop_
  _symmetry_equiv_pos_as_xyz
 x,y,z
_cell_length_a 22.0967
_cell_length_b 21.8481
_cell_length_c 22.4847
_cell_angle_alpha 89.785900
_cell_angle_beta 89.618200
_cell_angle_gamma 89.312200
loop_
  _atom_site_label
  _atom_site_type_symbol
  _atom_site_fract_x
  _atom_site_fract_y
  _atom_site_fract_z
C1 C 0.46426 0.99899 -0.55604
 C2 C 0.52778 0.98568 -0.55915
 C3 C 0.56080 0.98444 -0.50549
 C4 C 0.53452 0.99418 -0.44895
 C5 C 0.47049 0.99882 -0.44577
 C6 C 0.43738 1.00315 -0.49878
 H7 H 0.38853 1.00714 -0.49472
 H8 H 0.60948 0.97778 -0.50786
 C9 C -0.55505 1.46431 0.02197
 C10 C -0.56023 1.52448 -0.00088
 C11 C -0.50845 1.55925 -0.01055
 C12 C -0.45032 1.53670 0.00262
 C13 C -0.44489 1.47628 0.02518
 C14 C -0.49698 1.44180 0.03552
 H15 H -0.49124 1.39428 0.04860
 H16 H -0.51464 1.60664 -0.02397
 C17 C 0.01596 0.46648 0.44350
 C18 C -0.00252 0.52906 0.44205
 C19 C -0.00985 0.56128 0.49561
 C20 C 0.00090 0.53353 0.55081
 C21 C 0.01808 0.47130 0.55301
 C22 C 0.02566 0.43909 0.49962
 H23 H 0.03528 0.39040 0.50249
 H24 H -0.02123 0.60973 0.49417
 O25 O -0.15700 1.00755 -0.08253
 O26 O 0.15514 0.99434 -0.08166
 O27 O 0.00016 1.08636 -0.15519
 O28 O 0.00139 0.91835 -0.15641
 O29 O -0.00346 0.84454 -0.08287
 O30 O -0.00016 1.15814 -0.08034
 O31 O 0.08320 0.99925 -0.15573
 O32 O -0.08362 1.00604 -0.15608
 Zr33 Zr -0.00057 1.00180 -0.10835
 O34 O 0.05273 0.94446 -0.05693
 O35 O -0.05536 1.05780 -0.05677
 C36 C -0.13982 1.00799 -0.13780
 C37 C 0.13887 0.99574 -0.13702
 C38 C -0.00003 1.14245 -0.13583
 C39 C -0.00067 0.86185 -0.13802
 H40 H 0.08119 1.08020 -0.08029
 O41 O 0.05452 1.05410 -0.05579
 H42 H -0.08284 0.92268 -0.08227
 O43 O -0.05672 0.94808 -0.05705
 O44 O 0.15378 0.99601 0.07804
 O45 O -0.15888 1.00258 0.07656
 O46 O 0.08088 1.15415 0.00177
 O47 O 0.07569 0.84156 -0.00707
 O48 O -0.08469 0.84644 -0.00096
 O49 O -0.07927 1.15925 -0.00398
 O50 O 0.00065 1.08290 0.15179
 O51 O -0.00545 0.91506 0.15099
 O52 O 0.00175 1.15623 0.07785
 O53 O -0.00802 0.84293 0.07630
 O54 O 0.15483 1.07913 0.00227
 O55 O -0.15554 1.08844 -0.00350
 O56 O -0.15843 0.92164 -0.00096
 O57 O 0.15202 0.91243 -0.00427
 O58 O 0.08048 0.99830 0.15165
 O59 O -0.08731 0.99886 0.15088
 Zr60 Zr 0.10473 0.99716 -0.00182
 Zr61 Zr -0.10813 1.00362 -0.00266
 Zr62 Zr -0.00008 1.10619 -0.00157
 Zr63 Zr -0.00367 0.89442 -0.00301
 Zr64 Zr -0.00278 0.99928 0.10396
 O65 O -0.05814 0.94655 0.05169
 O66 O 0.05348 1.05307 0.05278
 C67 C 0.13670 0.99712 0.13334
 C68 C -0.14312 1.00024 0.13194
 C69 C 0.13664 1.13590 0.00375
 C70 C 0.13195 0.85694 -0.00743
 C71 C -0.14045 0.86479 0.00017
 C72 C -0.13559 1.14412 -0.00437
 C73 C 0.00244 1.13938 0.13312
 C74 C -0.00815 0.85909 0.13174
 H75 H -0.08157 1.08302 0.07749
 O76 O -0.05602 1.05607 0.05226
 H77 H 0.07655 0.91569 0.07654
 O78 O 0.05140 0.94337 0.05179
 C79 C 0.33269 1.00058 0.30575
 C80 C 0.32988 1.04294 0.35237
 C81 C 0.37485 1.04407 0.39562
 C82 C 0.42459 1.00276 0.39422
 C83 C 0.42899 0.96225 0.34559
 C84 C 0.38358 0.96119 0.30203
 C85 C 0.28218 0.99762 0.26194
 C86 C 0.29419 0.98887 0.20118
 C87 C 0.24698 0.98836 0.15997
 C88 C 0.18618 0.99631 0.17826
 C89 C 0.17401 1.00406 0.23921
 C90 C 0.22139 1.00480 0.28047
 H91 H 0.37044 1.07772 0.43070
 H92 H 0.46504 0.92840 0.34309
 H93 H 0.25843 0.98203 0.11348
 H94 H 0.12795 1.01010 0.25506
 H95 H 0.38708 0.92770 0.26677
 H96 H 0.34030 0.98376 0.18521
 H97 H 0.29257 1.07538 0.35563
 H98 H 0.21035 1.01071 0.32710
 C99 C -0.34545 0.98645 0.29872
 C100 C -0.39491 1.02791 0.29827
 C101 C -0.44048 1.02493 0.34222
 C102 C -0.43717 0.98061 0.38781
 C103 C -0.39011 0.93640 0.38478
 C104 C -0.34514 0.93930 0.34113
 C105 C -0.29324 0.99267 0.25663
 C106 C -0.23337 0.98203 0.27595
 C107 C -0.18434 0.98552 0.23614
 C108 C -0.19395 0.99952 0.17592
 C109 C -0.25378 1.01138 0.15701
 C110 C -0.30262 1.00815 0.19679
 H111 H -0.47513 1.06039 0.34325
 H112 H -0.38690 0.90039 0.41794
 H113 H -0.13909 0.97632 0.25236
 H114 H -0.26321 1.02276 0.11106
 H115 H -0.30915 0.90522 0.34150
 H116 H -0.22437 0.97106 0.32207
 H117 H -0.39666 1.06473 0.26595
 H118 H -0.34794 1.01632 0.18030
 C119 C -0.33461 1.00858 -0.31110
 C120 C -0.32765 1.03937 -0.36540
 C121 C -0.37209 1.03632 -0.40896
 C122 C -0.42556 1.00238 -0.40013
 C123 C -0.43396 0.97423 -0.34421
 C124 C -0.38894 0.97711 -0.30042
 C125 C -0.28459 1.00857 -0.26676
 C126 C -0.29717 1.01305 -0.20567
 C127 C -0.25019 1.01349 -0.16429
 C128 C -0.18912 1.00934 -0.18274
 C129 C -0.17647 1.00495 -0.24390
 C130 C -0.22359 1.00451 -0.28534
 H131 H -0.36439 1.06104 -0.45014
 H132 H -0.47243 0.94572 -0.33540
 H133 H -0.26199 1.01706 -0.11761
 H134 H -0.13021 1.00125 -0.25980
 H135 H -0.39558 0.95235 -0.25913
 H136 H -0.34342 1.01704 -0.18980
 H137 H -0.28749 1.06582 -0.37451
 H138 H -0.21221 1.00005 -0.33204
 C139 C 0.34003 0.99957 -0.30406
 C140 C 0.36045 1.05508 -0.32839
 C141 C 0.40722 1.05543 -0.37089
 C142 C 0.43413 1.00032 -0.39006
 C143 C 0.41396 0.94498 -0.36541
 C144 C 0.36828 0.94466 -0.32199
 C145 C 0.28799 0.99837 -0.26178
 C146 C 0.29212 0.96505 -0.20844
 C147 C 0.24331 0.96369 -0.16853
 C148 C 0.18869 0.99452 -0.18158
 C149 C 0.18397 1.02676 -0.23558
 C150 C 0.23340 1.02921 -0.27502
 H151 H 0.42034 1.09840 -0.39108
 H152 H 0.43213 0.90180 -0.38148
 H153 H 0.24827 0.93838 -0.12729
 H154 H 0.14265 1.05136 -0.24655
 H155 H 0.35293 0.90122 -0.30454
 H156 H 0.33358 0.94086 -0.19718
 H157 H 0.33942 1.09802 -0.31530
 H158 H 0.22886 1.05470 -0.31618
 C159 C 0.30833 1.33086 0.02254
 C160 C 0.30826 1.37745 -0.02054
 C161 C 0.35131 1.42342 -0.01904
 C162 C 0.39561 1.42393 0.02571
 C163 C 0.39359 1.37831 0.07030
 C164 C 0.35057 1.33229 0.06861
 C165 C 0.26495 1.28040 0.01851
 C166 C 0.28375 1.21930 0.02716
 C167 C 0.24248 1.17170 0.02164
 C168 C 0.18185 1.18472 0.00771
 C169 C 0.16344 1.24601 -0.00086
 C170 C 0.20450 1.29322 0.00452
 H171 H 0.35254 1.45527 -0.05591
 H172 H 0.42553 1.37795 0.10664
 H173 H 0.25785 1.12500 0.02873
 H174 H 0.11706 1.25784 -0.01171
 H175 H 0.35051 1.29758 0.10313
 H176 H 0.33048 1.20837 0.03738
 H177 H 0.27658 1.37677 -0.05708
 H178 H 0.18882 1.33995 -0.00178
 C179 C 0.29223 0.64928 -0.00790
 C180 C 0.31880 0.62843 -0.06096
 C181 C 0.36404 0.58354 -0.05930
 C182 C 0.38190 0.55807 -0.00474
 C183 C 0.35215 0.57563 0.04781
 C184 C 0.30779 0.62152 0.04631
 C185 C 0.25196 0.70309 -0.00878
 C186 C 0.26596 0.75485 0.02510
 C187 C 0.22827 0.80653 0.02365
 C188 C 0.17565 0.80625 -0.01074
 C189 C 0.16216 0.75470 -0.04515
 C190 C 0.20047 0.70366 -0.04467
 H191 H 0.38749 0.57099 -0.10001
 H192 H 0.36638 0.55709 0.09030
 H193 H 0.23904 0.84574 0.05080
 H194 H 0.12172 0.75384 -0.07212
 H195 H 0.28729 0.63705 0.08756
 H196 H 0.30615 0.75522 0.05242
 H197 H 0.30728 0.64961 -0.10309
 H198 H 0.18939 0.66420 -0.07134
 C199 C -0.31339 0.66982 -0.00198
 C200 C -0.35691 0.66820 -0.04684
 C201 C -0.40000 0.62233 -0.04716
 C202 C -0.40095 0.57695 -0.00232
 C203 C -0.35511 0.57718 0.04095
 C204 C -0.31191 0.62319 0.04110
 C205 C -0.26991 0.72037 0.00006
 C206 C -0.20878 0.70786 0.01124
 C207 C -0.16727 0.75510 0.01206
 C208 C -0.18598 0.81606 0.00186
 C209 C -0.24743 0.82881 -0.00834
 C210 C -0.28908 0.78123 -0.00942
 H211 H -0.43278 0.62256 -0.08277
 H212 H -0.35501 0.54479 0.07746
 H213 H -0.12026 0.74352 0.02021
 H214 H -0.26315 0.87524 -0.01633
 H215 H -0.27888 0.62378 0.07646
 H216 H -0.19284 0.66132 0.01818
 H217 H -0.35776 0.70267 -0.08160
 H218 H -0.33632 0.79197 -0.01740
 C219 C -0.29723 1.35071 0.01741
 C220 C -0.30768 1.39099 -0.03032
 C221 C -0.35249 1.43625 -0.02590
 C222 C -0.38693 1.44197 0.02645
 C223 C -0.37286 1.40510 0.07583
 C224 C -0.32847 1.35957 0.07125
 C225 C -0.25680 1.29721 0.00981
 C226 C -0.27553 1.23885 0.02835
 C227 C -0.23719 1.18810 0.02146
 C228 C -0.17939 1.19526 -0.00350
 C229 C -0.16140 1.25347 -0.02328
 C230 C -0.19987 1.30393 -0.01693
 H231 H -0.36328 1.46366 -0.06473
 H232 H -0.39904 1.40900 0.11658
 H233 H -0.25194 1.14382 0.03736
 H234 H -0.11708 1.26023 -0.04289
 H235 H -0.32014 1.32973 0.10897
 H236 H -0.31984 1.23257 0.04817
 H237 H -0.28404 1.38490 -0.07227
 H238 H -0.18462 1.34846 -0.03163
 C239 C 0.01800 1.33768 0.30282
 C240 C -0.02311 1.38732 0.30187
 C241 C -0.02165 1.43241 0.34598
 C242 C 0.02091 1.42874 0.39236
 C243 C 0.06445 1.38088 0.39040
 C244 C 0.06289 1.33608 0.34649
 C245 C 0.01320 1.28665 0.25969
 C246 C 0.02067 1.22543 0.27837
 C247 C 0.01647 1.17730 0.23772
 C248 C 0.00500 1.18944 0.17744
 C249 C -0.00289 1.25075 0.15903
 C250 C 0.00101 1.29867 0.19964
 H251 H -0.05734 1.46665 0.34629
 H252 H 0.09969 1.37747 0.42355
 H253 H 0.02280 1.13075 0.25339
 H254 H -0.01197 1.26200 0.11297
 H255 H 0.09645 1.29955 0.34723
 H256 H 0.02925 1.21471 0.32463
 H257 H -0.05850 1.38959 0.26883
 H258 H -0.00450 1.34527 0.18383
 C259 C 0.01780 1.34502 -0.30141
 C260 C 0.06917 1.35022 -0.33806
 C261 C 0.07161 1.39534 -0.38211
 C262 C 0.02253 1.43584 -0.39075
 C263 C -0.02725 1.43312 -0.35174
 C264 C -0.02946 1.38827 -0.30722
 C265 C 0.01225 1.29283 -0.25943
 C266 C -0.00923 1.30225 -0.20134
 C267 C -0.01408 1.25314 -0.16177
 C268 C 0.00175 1.19328 -0.17956
 C269 C 0.02209 1.18363 -0.23811
 C270 C 0.02761 1.23300 -0.27756
 H271 H 0.11046 1.39654 -0.41172
 H272 H -0.06622 1.46282 -0.35829
 H273 H -0.02994 1.26223 -0.11697
 H274 H 0.03494 1.13820 -0.25305
 H275 H -0.06969 1.38516 -0.27964
 H276 H -0.02122 1.34783 -0.18618
 H277 H 0.10670 1.31821 -0.33375
 H278 H 0.04349 1.22437 -0.32245
 C279 C -0.00016 0.66487 -0.30861
 C280 C -0.05498 0.64236 -0.33043
 C281 C -0.05486 0.59737 -0.37452
 C282 C 0.00001 0.57301 -0.39606
 C283 C 0.05473 0.59366 -0.37262
 C284 C 0.05469 0.63969 -0.32955
 C285 C -0.00029 0.71564 -0.26529
 C286 C 0.03214 0.76936 -0.27711
 C287 C 0.03104 0.81782 -0.23648
 C288 C -0.00131 0.81259 -0.18279
 C289 C -0.03345 0.75865 -0.17101
 C290 C -0.03351 0.71095 -0.21218
 H291 H -0.09741 0.58264 -0.39298
 H292 H 0.09747 0.57604 -0.38961
 H293 H 0.05641 0.85877 -0.24640
 H294 H -0.05902 0.75358 -0.13004
 H295 H 0.09741 0.65620 -0.31304
 H296 H 0.05772 0.77400 -0.31811
 H297 H -0.09776 0.66136 -0.31502
 H298 H -0.05880 0.66995 -0.20223
 C299 C -0.00762 0.65754 0.29837
 C300 C -0.06171 0.63777 0.32482
 C301 C -0.06046 0.59313 0.36951
 C302 C -0.00536 0.56620 0.38698
 C303 C 0.04839 0.58372 0.35846
 C304 C 0.04734 0.62954 0.31481
 C305 C -0.00836 0.70947 0.25606
 C306 C 0.02493 0.76237 0.26797
 C307 C 0.02343 0.81211 0.22855
 C308 C -0.01018 0.80900 0.17592
 C309 C -0.04344 0.75600 0.16410
 C310 C -0.04318 0.70697 0.20424
 H311 H -0.10218 0.58096 0.39194
 H312 H 0.09141 0.56435 0.37233
 H313 H 0.04980 0.85227 0.23836
 H314 H -0.06983 0.75262 0.12386
 H315 H 0.08950 0.64414 0.29476
 H316 H 0.05165 0.76530 0.30804
 H317 H -0.10449 0.65904 0.31292
 H318 H -0.06931 0.66666 0.19442
   
