data_POSCAR
  _audit_creation_date              2014-09-24
  _audit_creation_method            'ToBaCCo'
  _symmetry_space_group_name_H-M    'P1'
  _symmetry_Int_Tables_number       1
  _symmetry_cell_setting            triclinic
  loop_
  _symmetry_equiv_pos_as_xyz
 x,y,z
_cell_length_a 34.3255
_cell_length_b 36.0700
_cell_length_c 32.8272
_cell_angle_alpha 89.834000
_cell_angle_beta 90.025400
_cell_angle_gamma 89.977100
loop_
  _atom_site_label
  _atom_site_type_symbol
  _atom_site_fract_x
  _atom_site_fract_y
  _atom_site_fract_z
O1 O 0.25469 0.28664 0.20163
 O2 O 0.29448 0.21011 0.26325
 O3 O 0.25101 0.21547 0.19816
 O4 O 0.29845 0.28187 0.26672
 O5 O 0.24480 0.28519 0.30379
 O6 O 0.19951 0.21413 0.23820
 O7 O 0.24331 0.21311 0.30379
 O8 O 0.20140 0.28655 0.23925
 Cu9 Cu 0.27998 0.24837 0.22866
 Cu10 Cu 0.21693 0.24964 0.27515
 C11 C 0.22094 0.29922 0.20946
 C12 C 0.27614 0.19918 0.29465
 C13 C 0.21707 0.20347 0.20616
 C14 C 0.27958 0.29515 0.29655
 O15 O 0.75023 0.20382 0.29120
 O16 O 0.80062 0.28183 0.24204
 O17 O 0.75253 0.27669 0.30900
 O18 O 0.79523 0.21375 0.23325
 O19 O 0.74580 0.22629 0.19247
 O20 O 0.70078 0.28605 0.27045
 O21 O 0.74586 0.29930 0.21262
 O22 O 0.69690 0.21810 0.25677
 Cu23 Cu 0.77906 0.24450 0.27423
 Cu24 Cu 0.71805 0.25745 0.22774
 C25 C 0.71497 0.19747 0.28188
 C26 C 0.78205 0.30391 0.21879
 C27 C 0.71921 0.29130 0.30344
 C28 C 0.77778 0.20954 0.19953
 O29 O 0.76057 0.78753 0.69749
 O30 O 0.79730 0.71096 0.76212
 O31 O 0.75517 0.71540 0.69574
 O32 O 0.80335 0.78184 0.76370
 O33 O 0.74673 0.79363 0.79254
 O34 O 0.70381 0.71520 0.73611
 O35 O 0.74742 0.71982 0.80323
 O36 O 0.70426 0.78526 0.73013
 Cu37 Cu 0.78445 0.74852 0.72585
 Cu38 Cu 0.72063 0.75306 0.77022
 C39 C 0.72558 0.79841 0.70207
 C40 C 0.77931 0.70362 0.79497
 C41 C 0.72128 0.70372 0.70442
 C42 C 0.78286 0.80050 0.78846
 O43 O 0.29989 0.78470 0.73851
 O44 O 0.25098 0.71611 0.80390
 O45 O 0.29598 0.71398 0.73956
 O46 O 0.25473 0.79012 0.80103
 O47 O 0.19979 0.78540 0.76659
 O48 O 0.24594 0.71867 0.69767
 O49 O 0.20073 0.71526 0.76176
 O50 O 0.24564 0.79114 0.70285
 Cu51 Cu 0.28033 0.75083 0.77534
 Cu52 Cu 0.21795 0.75283 0.72791
 C53 C 0.28083 0.80000 0.70994
 C54 C 0.21785 0.70361 0.79357
 C55 C 0.27866 0.70453 0.70700
 C56 C 0.21961 0.79999 0.79495
 C57 C 1.03240 0.05962 0.05742
 C58 C 0.99655 0.07528 0.06851
 C59 C 0.96116 0.06212 0.05295
 C60 C 0.96148 0.03288 0.02431
 C61 C 0.99748 0.01830 0.01072
 C62 C 1.03272 0.02981 0.02929
 C63 C 1.06695 0.01016 0.02017
 C64 C 1.06764 -0.01591 -0.01100
 C65 C 1.03440 -0.02263 -0.03497
 C66 C 0.99826 -0.00784 -0.02163
 C67 C 0.92689 0.01677 0.00999
 C68 C 0.92763 -0.00972 -0.02074
 C69 C 0.96283 -0.01984 -0.03970
 C70 C 0.96406 -0.04243 -0.07508
 C71 C 1.00054 -0.05213 -0.09111
 C72 C 1.03564 -0.04460 -0.07080
 H73 H 1.09352 0.01460 0.03720
 H74 H 1.09458 -0.03071 -0.01573
 H75 H 0.89888 0.02423 0.02266
 H76 H 0.90015 -0.02200 -0.02911
 H77 H 0.99616 0.09906 0.08863
 H78 H 1.00151 -0.06684 -0.11983
 C79 C 0.46290 0.42838 0.46001
 C80 C 0.49858 0.41350 0.44728
 C81 C 0.53418 0.42618 0.46273
 C82 C 0.53446 0.45616 0.49052
 C83 C 0.49864 0.47127 0.50428
 C84 C 0.46283 0.45618 0.49048
 C85 C 0.42799 0.46887 0.50809
 C86 C 0.42796 0.49837 0.53527
 C87 C 0.46272 0.51665 0.54564
 C88 C 0.49859 0.50199 0.53141
 C89 C 0.56948 0.47189 0.50437
 C90 C 0.56941 0.50173 0.53110
 C91 C 0.53434 0.51813 0.54389
 C92 C 0.53398 0.55004 0.56904
 C93 C 0.49825 0.56462 0.58187
 C94 C 0.46270 0.54870 0.57051
 H95 H 0.40036 0.45588 0.50129
 H96 H 0.40028 0.50667 0.54805
 H97 H 0.59748 0.46176 0.49426
 H98 H 0.59735 0.51179 0.54149
 H99 H 0.49878 0.39188 0.42441
 H100 H 0.49808 0.58986 0.59977
 C101 C 0.03246 0.56223 -0.05270
 C102 C -0.00381 0.57201 -0.06917
 C103 C -0.03873 0.55711 -0.05417
 C104 C -0.03710 0.52958 -0.02329
 C105 C -0.00102 0.52122 -0.00435
 C106 C 0.03370 0.53841 -0.01829
 C107 C 0.06851 0.53200 0.00316
 C108 C 0.06994 0.50671 0.03514
 C109 C 0.03659 0.48696 0.04714
 C110 C 0.00038 0.49554 0.02861
 C111 C -0.07030 0.50940 -0.01166
 C112 C -0.06879 0.48382 0.02016
 C113 C -0.03426 0.47803 0.04242
 C114 C -0.03291 0.45435 0.07717
 C115 C 0.00364 0.44499 0.09352
 C116 C 0.03845 0.45920 0.07761
 H117 H 0.09499 0.54679 -0.00423
 H118 H 0.09746 0.50307 0.05075
 H119 H -0.09766 0.51267 -0.02765
 H120 H -0.09494 0.46821 0.02653
 H121 H -0.00486 0.59183 -0.09399
 H122 H 0.00521 0.42554 0.11861
 C123 C 0.53218 1.04017 0.41949
 C124 C 0.49558 1.05270 0.40647
 C125 C 0.46097 1.03984 0.42406
 C126 C 0.46292 1.01200 0.45448
 C127 C 0.49961 1.00087 0.47017
 C128 C 0.53443 1.01486 0.45260
 C129 C 0.57034 1.00365 0.46916
 C130 C 0.57210 0.97888 0.50169
 C131 C 0.53801 0.96574 0.52058
 C132 C 0.50138 0.97622 0.50407
 C133 C 0.42915 0.99454 0.46915
 C134 C 0.43090 0.96983 0.50163
 C135 C 0.46642 0.96203 0.52121
 C136 C 0.46806 0.93962 0.55670
 C137 C 0.50445 0.92999 0.57283
 C138 C 0.53938 0.94203 0.55513
 H139 H 0.59765 1.01419 0.45763
 H140 H 0.60068 0.97043 0.51184
 H141 H 0.40099 0.99964 0.45541
 H142 H 0.40398 0.95690 0.51109
 H143 H 0.49411 1.07356 0.38269
 H144 H 0.50568 0.91315 0.60023
 C145 C 1.14408 0.14059 0.15908
 C146 C 1.16036 0.13611 0.12116
 C147 C 1.19600 0.15144 0.11040
 C148 C 1.21552 0.17268 0.13973
 C149 C 1.19869 0.17925 0.17873
 C150 C 1.16245 0.16244 0.18844
 O151 O 1.10982 0.12384 0.16293
 C152 C 1.10422 0.10883 0.12650
 C153 C 1.13407 0.11591 0.09970
 C154 C 1.13275 0.10543 0.05901
 C155 C 1.09930 0.08685 0.04541
 C156 C 1.06867 0.07768 0.07279
 C157 C 1.07138 0.08908 0.11402
 H158 H 1.20825 0.14744 0.08035
 H159 H 1.24311 0.18507 0.13131
 H160 H 1.14860 0.16656 0.21772
 H161 H 1.15603 0.11244 0.03815
 H162 H 1.09696 0.08020 0.01337
 H163 H 1.04819 0.08349 0.13552
 C164 C 0.64903 0.63545 0.66103
 C165 C 0.66074 0.63473 0.62097
 C166 C 0.69295 0.65426 0.60687
 C167 C 0.71365 0.67576 0.63511
 C168 C 0.70149 0.67787 0.67639
 C169 C 0.66884 0.65707 0.68951
 O170 O 0.61720 0.61553 0.66796
 C171 C 0.60849 0.60218 0.63143
 C172 C 0.63402 0.61334 0.60155
 C173 C 0.62880 0.60466 0.56065
 C174 C 0.59594 0.58356 0.55018
 C175 C 0.56984 0.57064 0.58062
 C176 C 0.57626 0.58037 0.62183
 H177 H 0.70151 0.65340 0.57516
 H178 H 0.73835 0.69174 0.62446
 H179 H 0.65868 0.65824 0.72071
 H180 H 0.64869 0.61463 0.53752
 H181 H 0.59050 0.57763 0.51836
 H182 H 0.55623 0.57184 0.64556
 C183 C -0.14018 0.35774 0.16783
 C184 C -0.15997 0.38976 0.15827
 C185 C -0.19919 0.39474 0.16737
 C186 C -0.21875 0.36544 0.18692
 C187 C -0.19835 0.33293 0.19920
 C188 C -0.15821 0.32948 0.18988
 O189 O -0.10412 0.35711 0.15335
 C190 C -0.10083 0.38972 0.13489
 C191 C -0.13376 0.41118 0.13790
 C192 C -0.13550 0.44727 0.12301
 C193 C -0.10197 0.46164 0.10413
 C194 C -0.06852 0.43907 0.09769
 C195 C -0.06828 0.40248 0.11376
 H196 H -0.21447 0.41979 0.15865
 H197 H -0.24950 0.36856 0.19349
 H198 H -0.14199 0.30464 0.19750
 H199 H -0.16127 0.46417 0.12697
 H200 H -0.10214 0.49038 0.09457
 H201 H -0.04350 0.38425 0.11006
 C202 C 0.35590 0.84735 0.64517
 C203 C 0.34039 0.88245 0.64227
 C204 C 0.30450 0.89182 0.65919
 C205 C 0.28405 0.86394 0.68028
 C206 C 0.30031 0.82806 0.68477
 C207 C 0.33662 0.81965 0.66684
 O208 O 0.39010 0.84395 0.62679
 C209 C 0.39659 0.87771 0.61223
 C210 C 0.36735 0.90247 0.62125
 C211 C 0.36947 0.93982 0.61084
 C212 C 0.40289 0.95199 0.59004
 C213 C 0.43263 0.92660 0.57871
 C214 C 0.42940 0.88896 0.59049
 H215 H 0.29277 0.91956 0.65643
 H216 H 0.25631 0.87051 0.69420
 H217 H 0.34952 0.79237 0.66991
 H218 H 0.34661 0.95904 0.61916
 H219 H 0.40567 0.98116 0.58269
 H220 H 0.45192 0.86904 0.58313
 C221 C -0.15321 0.63349 -0.15638
 C222 C -0.16707 0.63335 -0.11708
 C223 C -0.19947 0.65379 -0.10520
 C224 C -0.21801 0.67565 -0.13490
 C225 C -0.20360 0.67717 -0.17543
 C226 C -0.17098 0.65525 -0.18630
 O227 O -0.12090 0.61369 -0.16089
 C228 C -0.11402 0.60102 -0.12357
 C229 C -0.14128 0.61239 -0.09558
 C230 C -0.13773 0.60512 -0.05412
 C231 C -0.10451 0.58578 -0.04096
 C232 C -0.07606 0.57332 -0.06925
 C233 C -0.08137 0.58082 -0.11130
 H234 H -0.20960 0.65357 -0.07398
 H235 H -0.24272 0.69240 -0.12589
 H236 H -0.15894 0.65604 -0.21677
 H237 H -0.15894 0.61532 -0.03249
 H238 H -0.10023 0.58166 -0.00858
 H239 H -0.05987 0.57255 -0.13362
 C240 C 0.34341 1.12495 0.33487
 C241 C 0.33289 1.12452 0.37530
 C242 C 0.30262 1.14597 0.39062
 C243 C 0.28274 1.16923 0.36327
 C244 C 0.29396 1.17116 0.32169
 C245 C 0.32443 1.14823 0.30729
 O246 O 0.37407 1.10377 0.32688
 C247 C 0.38338 1.08996 0.36311
 C248 C 0.35928 1.10201 0.39381
 C249 C 0.36601 1.09387 0.43460
 C250 C 0.39907 1.07267 0.44415
 C251 C 0.42398 1.05907 0.41298
 C252 C 0.41564 1.06780 0.37179
 H253 H 0.29512 1.14542 0.42264
 H254 H 0.25974 1.18684 0.37484
 H255 H 0.33391 1.14932 0.27585
 H256 H 0.34740 1.10472 0.45836
 H257 H 0.40590 1.06777 0.47591
 H258 H 0.43456 1.05880 0.34736
 C259 C 1.14437 -0.14586 -0.15141
 C260 C 1.16576 -0.11584 -0.13862
 C261 C 1.20593 -0.11356 -0.14425
 C262 C 1.22448 -0.14317 -0.16438
 C263 C 1.20225 -0.17279 -0.18087
 C264 C 1.16157 -0.17397 -0.17399
 O265 O 1.10718 -0.14416 -0.14089
 C266 C 1.10471 -0.11196 -0.12181
 C267 C 1.13935 -0.09290 -0.12059
 C268 C 1.14193 -0.05691 -0.10564
 C269 C 1.10755 -0.04036 -0.09090
 C270 C 1.07221 -0.06089 -0.08825
 C271 C 1.07117 -0.09723 -0.10455
 H272 H 1.22242 -0.09011 -0.13315
 H273 H 1.25567 -0.14186 -0.16919
 H274 H 1.14383 -0.19662 -0.18513
 H275 H 1.16904 -0.04163 -0.10672
 H276 H 1.10859 -0.01164 -0.08154
 H277 H 1.04486 -0.11377 -0.10407
 C278 C 0.64959 0.35455 0.35842
 C279 C 0.66127 0.34949 0.39814
 C280 C 0.69308 0.32751 0.40868
 C281 C 0.71323 0.30963 0.37704
 C282 C 0.70092 0.31356 0.33595
 C283 C 0.66890 0.33683 0.32666
 O284 O 0.61800 0.37546 0.35482
 C285 C 0.60929 0.38360 0.39311
 C286 C 0.63466 0.36825 0.42090
 C287 C 0.62926 0.37130 0.46278
 C288 C 0.59636 0.39088 0.47644
 C289 C 0.57024 0.40757 0.44828
 C290 C 0.57699 0.40377 0.40600
 H291 H 0.70162 0.32370 0.44016
 H292 H 0.73747 0.29170 0.38471
 H293 H 0.65858 0.34026 0.29570
 H294 H 0.64904 0.35826 0.48413
 H295 H 0.59082 0.39264 0.50886
 H296 H 0.55709 0.41546 0.38380
 C297 C 0.85766 -0.14385 -0.15878
 C298 C 0.83709 -0.11196 -0.15080
 C299 C 0.79757 -0.10850 -0.15966
 C300 C 0.77882 -0.13894 -0.17794
 C301 C 0.80038 -0.17091 -0.18943
 C302 C 0.84046 -0.17315 -0.17956
 O303 O 0.89400 -0.14292 -0.14523
 C304 C 0.89677 -0.10942 -0.12905
 C305 C 0.86326 -0.08884 -0.13270
 C306 C 0.86134 -0.05184 -0.12091
 C307 C 0.89509 -0.03588 -0.10397
 C308 C 0.92875 -0.05778 -0.09599
 C309 C 0.92941 -0.09503 -0.10966
 H310 H 0.78163 -0.08353 -0.15222
 H311 H 0.74809 -0.13674 -0.18512
 H312 H 0.85761 -0.19748 -0.18681
 H313 H 0.83526 -0.03553 -0.12575
 H314 H 0.89478 -0.00662 -0.09675
 H315 H 0.95464 -0.11260 -0.10518
 C316 C 0.34985 0.33911 0.36950
 C317 C 0.33743 0.37539 0.36827
 C318 C 0.30528 0.38677 0.34553
 C319 C 0.28536 0.35968 0.32296
 C320 C 0.29849 0.32246 0.32290
 C321 C 0.33104 0.31199 0.34658
 O322 O 0.38126 0.33414 0.39245
 C323 C 0.38911 0.36804 0.40571
 C324 C 0.36343 0.39436 0.39150
 C325 C 0.36808 0.43200 0.39913
 C326 C 0.40059 0.44291 0.42216
 C327 C 0.42692 0.41620 0.43830
 C328 C 0.42080 0.37815 0.42984
 H329 H 0.29609 0.41547 0.34493
 H330 H 0.26052 0.36776 0.30460
 H331 H 0.34159 0.28368 0.34672
 H332 H 0.34818 0.45234 0.38662
 H333 H 0.40571 0.47222 0.42671
 H334 H 0.44074 0.35709 0.44079
 C335 C 0.14362 0.65619 -0.14065
 C336 C 0.15977 0.62139 -0.13720
 C337 C 0.19560 0.61222 -0.15437
 C338 C 0.21538 0.64002 -0.17620
 C339 C 0.19856 0.67561 -0.18112
 C340 C 0.16230 0.68384 -0.16303
 O341 O 0.10945 0.65929 -0.12211
 C342 C 0.10365 0.62563 -0.10691
 C343 C 0.13333 0.60127 -0.11562
 C344 C 0.13196 0.56401 -0.10473
 C345 C 0.09868 0.55143 -0.08402
 C346 C 0.06825 0.57631 -0.07331
 C347 C 0.07095 0.61399 -0.08520
 H348 H 0.20777 0.58468 -0.15121
 H349 H 0.24314 0.63365 -0.19021
 H350 H 0.14901 0.71092 -0.16648
 H351 H 0.15518 0.54511 -0.11283
 H352 H 0.09640 0.52223 -0.07663
 H353 H 0.04800 0.63358 -0.07826
 C354 C 0.64078 1.14204 0.33973
 C355 C 0.65553 1.10675 0.33549
 C356 C 0.69004 1.09946 0.31471
 C357 C 0.71002 1.12978 0.29761
 C358 C 0.69460 1.16610 0.30072
 C359 C 0.65951 1.17229 0.32199
 O360 O 0.60812 1.14323 0.36121
 C361 C 0.60187 1.10793 0.37050
 C362 C 0.62971 1.08436 0.35516
 C363 C 0.62753 1.04604 0.35973
 C364 C 0.59536 1.03154 0.38096
 C365 C 0.56703 1.05545 0.39833
 C366 C 0.57048 1.09423 0.39275
 H367 H 0.70127 1.07154 0.31196
 H368 H 0.73700 1.12499 0.28135
 H369 H 0.64746 1.19991 0.32503
 H370 H 0.64931 1.02793 0.34665
 H371 H 0.59232 1.00176 0.38370
 H372 H 0.54901 1.11318 0.40495
 C373 C 0.15414 0.37397 0.16937
 C374 C 0.16662 0.37629 0.12964
 C375 C 0.19793 0.35588 0.11487
 C376 C 0.21684 0.33172 0.14203
 C377 C 0.20366 0.32786 0.18281
 C378 C 0.17213 0.34974 0.19671
 O379 O 0.12272 0.39435 0.17673
 C380 C 0.11495 0.40955 0.14077
 C381 C 0.14077 0.39918 0.11087
 C382 C 0.13582 0.40878 0.07019
 C383 C 0.10266 0.42950 0.05983
 C384 C 0.07582 0.44128 0.09016
 C385 C 0.08256 0.43136 0.13138
 H386 H 0.20697 0.35789 0.08336
 H387 H 0.24070 0.31497 0.13084
 H388 H 0.16118 0.34719 0.22753
 H389 H 0.15577 0.39919 0.04697
 H390 H 0.09717 0.43523 0.02795
 H391 H 0.06231 0.43898 0.15520
 C392 C 0.65569 0.84679 0.63242
 C393 C 0.66991 0.88246 0.63353
 C394 C 0.70420 0.89168 0.65389
 C395 C 0.72409 0.86310 0.67450
 C396 C 0.70888 0.82660 0.67498
 C397 C 0.67451 0.81830 0.65328
 O398 O 0.62221 0.84384 0.61258
 C399 C 0.61482 0.87841 0.60119
 C400 C 0.64278 0.90328 0.61356
 C401 C 0.63883 0.94136 0.60778
 C402 C 0.60480 0.95416 0.58838
 C403 C 0.57629 0.92882 0.57403
 C404 C 0.58154 0.89041 0.58081
 H405 H 0.71476 0.91993 0.65463
 H406 H 0.75013 0.86964 0.69168
 H407 H 0.66209 0.79069 0.65385
 H408 H 0.66055 0.96058 0.61891
 H409 H 0.60039 0.98373 0.58492
 H410 H 0.55977 0.87048 0.57135
 C411 C 0.84546 0.14139 0.14953
 C412 C 0.83493 0.14505 0.10930
 C413 C 0.80451 0.16796 0.09671
 C414 C 0.78458 0.18823 0.12678
 C415 C 0.79575 0.18556 0.16834
 C416 C 0.82631 0.16130 0.17969
 O417 O 0.87605 0.11955 0.15522
 C418 C 0.88530 0.10928 0.11774
 C419 C 0.86120 0.12415 0.08841
 C420 C 0.86748 0.11885 0.04695
 C421 C 0.89998 0.09761 0.03540
 C422 C 0.92497 0.08173 0.06523
 C423 C 0.91726 0.08766 0.10698
 H424 H 0.79690 0.17070 0.06484
 H425 H 0.76142 0.20684 0.11756
 H426 H 0.83575 0.15871 0.21105
 H427 H 0.84872 0.13148 0.02432
 H428 H 0.90627 0.09422 0.00330
 H429 H 0.93633 0.07665 0.13036
 C430 C 0.34899 0.63454 0.66352
 C431 C 0.33601 0.63262 0.62393
 C432 C 0.30353 0.65201 0.61017
 C433 C 0.28391 0.67462 0.63823
 C434 C 0.29733 0.67784 0.67902
 C435 C 0.33017 0.65708 0.69181
 O436 O 0.38112 0.61495 0.67009
 C437 C 0.38875 0.60055 0.63381
 C438 C 0.36217 0.61064 0.60443
 C439 C 0.36620 0.60077 0.56372
 C440 C 0.39903 0.57976 0.55288
 C441 C 0.42646 0.56832 0.58279
 C442 C 0.42106 0.57898 0.62387
 H443 H 0.29401 0.65028 0.57879
 H444 H 0.25902 0.69047 0.62780
 H445 H 0.34135 0.65907 0.72257
 H446 H 0.34547 0.60985 0.54094
 H447 H 0.40357 0.57302 0.52111
 H448 H 0.44204 0.57154 0.64715
   
