data_POSCAR
  _audit_creation_date              2014-09-24
  _audit_creation_method            'ToBaCCo'
  _symmetry_space_group_name_H-M    'P1'
  _symmetry_Int_Tables_number       1
  _symmetry_cell_setting            triclinic
  loop_
  _symmetry_equiv_pos_as_xyz
 x,y,z
_cell_length_a 17.9453
_cell_length_b 16.8610
_cell_length_c 17.0903
_cell_angle_alpha 90.118300
_cell_angle_beta 90.174700
_cell_angle_gamma 89.838500
loop_
  _atom_site_label
  _atom_site_type_symbol
  _atom_site_fract_x
  _atom_site_fract_y
  _atom_site_fract_z
C1 C 0.42190 1.00000 -0.54325
 C2 C 0.42187 0.99973 -0.46023
 C3 C 0.49044 1.00006 -0.42025
 C4 C 0.55922 1.00025 -0.45958
 C5 C 0.55932 0.99968 -0.54277
 C6 C 0.49061 0.99977 -0.58272
 H7 H 0.49059 0.99966 -0.64637
 H8 H 0.49009 1.00017 -0.35664
 C9 C -0.58049 1.45996 0.00070
 C10 C -0.58041 1.54362 -0.00047
 C11 C -0.51229 1.58391 -0.00059
 C12 C -0.44441 1.54291 -0.00009
 C13 C -0.44456 1.45939 0.00005
 C14 C -0.51254 1.41908 0.00069
 H15 H -0.51258 1.35465 0.00117
 H16 H -0.51192 1.64838 -0.00107
 C17 C 0.07371 0.45656 0.43043
 C18 C 0.07332 0.53977 0.42913
 C19 C 0.07814 0.58181 0.49911
 C20 C 0.07339 0.54250 0.57049
 C21 C 0.07255 0.45931 0.57177
 C22 C 0.07770 0.41720 0.50187
 H23 H 0.07551 0.35272 0.50313
 H24 H 0.07627 0.64632 0.49783
 O25 O -0.20332 1.00246 -0.10908
 O26 O 0.18138 0.99778 -0.10845
 O27 O -0.01122 1.10969 -0.19945
 O28 O -0.00477 0.89198 -0.20036
 O29 O -0.00660 0.79694 -0.10358
 O30 O -0.01287 1.20379 -0.10138
 O31 O 0.08870 0.99871 -0.20290
 O32 O -0.11089 1.00247 -0.20327
 Zr33 Zr -0.01104 1.00054 -0.13797
 O34 O 0.05727 0.92915 -0.07109
 O35 O -0.07973 1.07157 -0.07098
 C36 C -0.17999 1.00334 -0.18146
 C37 C 0.15785 0.99737 -0.18087
 C38 C -0.01105 1.18213 -0.17352
 C39 C -0.00215 0.81943 -0.17523
 H40 H 0.08853 1.10487 -0.10267
 O41 O 0.05678 1.07068 -0.06987
 H42 H -0.10978 0.89494 -0.10518
 O43 O -0.07889 0.92942 -0.07136
 O44 O 0.18179 1.00168 0.10905
 O45 O -0.20293 0.99768 0.10883
 O46 O 0.08750 1.20336 0.00376
 O47 O 0.08828 0.79622 -0.00333
 O48 O -0.10999 0.79661 0.00118
 O49 O -0.11069 1.20336 -0.00110
 O50 O -0.00430 1.10775 0.20063
 O51 O -0.01003 0.89006 0.19971
 O52 O -0.00685 1.20280 0.10385
 O53 O -0.01168 0.79596 0.10162
 O54 O 0.18105 1.10899 0.00348
 O55 O -0.20361 1.10895 -0.00182
 O56 O -0.20322 0.89123 0.00164
 O57 O 0.18145 0.89047 -0.00286
 O58 O 0.08952 1.00087 0.20335
 O59 O -0.11018 0.99747 0.20327
 Zr60 Zr 0.12235 0.99977 0.00025
 Zr61 Zr -0.14407 1.00002 -0.00004
 Zr62 Zr -0.01142 1.13700 0.00087
 Zr63 Zr -0.01091 0.86275 -0.00062
 Zr64 Zr -0.01051 0.99921 0.13823
 O65 O -0.07919 0.92834 0.07106
 O66 O 0.05728 1.07047 0.07147
 C67 C 0.15858 1.00213 0.18143
 C68 C -0.17937 0.99672 0.18127
 C69 C 0.15663 1.18170 0.00479
 C70 C 0.15733 0.81780 -0.00423
 C71 C -0.17905 0.81848 0.00228
 C72 C -0.17968 1.18165 -0.00237
 C73 C -0.00197 1.18029 0.17551
 C74 C -0.00968 0.81762 0.17378
 H75 H -0.10974 1.10502 0.10524
 O76 O -0.07887 1.07048 0.07147
 H77 H 0.08932 0.89473 0.10311
 O78 O 0.05732 0.92897 0.07025
 C79 C 0.35892 1.00069 0.41050
 C80 C 0.30972 1.00143 0.36144
 C81 C 0.25712 1.00219 0.29855
 C82 C 0.21332 1.00249 0.24414
 C83 C -0.37782 0.99880 0.41106
 C84 C -0.32902 0.99789 0.36184
 C85 C -0.27705 0.99692 0.29865
 C86 C -0.23375 0.99646 0.24404
 C87 C -0.37807 1.00121 -0.41281
 C88 C -0.32946 1.00218 -0.36309
 C89 C -0.27770 1.00319 -0.29940
 C90 C -0.23448 1.00364 -0.24445
 C91 C 0.35561 0.99889 -0.41113
 C92 C 0.30728 0.99809 -0.36146
 C93 C 0.25553 0.99729 -0.29815
 C94 C 0.21225 0.99697 -0.24356
 C95 C 0.35335 1.41168 0.00220
 C96 C 0.30459 1.36269 0.00359
 C97 C 0.25285 1.29980 0.00493
 C98 C 0.20991 1.24495 0.00542
 C99 C 0.35671 0.58924 -0.00175
 C100 C 0.30709 0.63758 -0.00304
 C101 C 0.25446 0.69995 -0.00432
 C102 C 0.21096 0.75456 -0.00480
 C103 C -0.37798 0.59070 0.00069
 C104 C -0.32868 0.63908 0.00151
 C105 C -0.27616 0.70122 0.00236
 C106 C -0.23265 0.75556 0.00268
 C107 C -0.37832 1.41091 -0.00081
 C108 C -0.32922 1.36202 -0.00168
 C109 C -0.27688 1.29939 -0.00253
 C110 C -0.23342 1.24476 -0.00284
 C111 C 0.05850 1.41076 0.36745
 C112 C 0.04284 1.36153 0.31974
 C113 C 0.02434 1.29793 0.27109
 C114 C 0.01038 1.24253 0.22982
 C115 C 0.05310 1.41308 -0.36155
 C116 C 0.03443 1.36438 -0.31484
 C117 C 0.01349 1.30088 -0.26750
 C118 C -0.00087 1.24513 -0.22717
 C119 C 0.05796 0.58847 -0.36675
 C120 C 0.04224 0.63785 -0.31922
 C121 C 0.02381 0.70162 -0.27072
 C122 C 0.00999 0.75713 -0.22954
 C123 C 0.05442 0.58620 0.36222
 C124 C 0.03605 0.63509 0.31534
 C125 C 0.01524 0.69875 0.26786
 C126 C 0.00081 0.75458 0.22745
   
