data_POSCAR
  _audit_creation_date              2014-09-24
  _audit_creation_method            'ToBaCCo'
  _symmetry_space_group_name_H-M    'P1'
  _symmetry_Int_Tables_number       1
  _symmetry_cell_setting            triclinic
  loop_
  _symmetry_equiv_pos_as_xyz
 x,y,z
_cell_length_a 47.1667
_cell_length_b 47.3176
_cell_length_c 50.6620
_cell_angle_alpha 88.787000
_cell_angle_beta 88.979900
_cell_angle_gamma 89.332700
loop_
  _atom_site_label
  _atom_site_type_symbol
  _atom_site_fract_x
  _atom_site_fract_y
  _atom_site_fract_z
C1 C 1.26380 0.20637 0.26266
 C2 C 1.24143 0.21975 0.24943
 C3 C 1.22110 0.20361 0.23711
 C4 C 1.22310 0.17398 0.23761
 C5 C 1.24554 0.16067 0.25127
 C6 C 1.26607 0.17657 0.26442
 C7 C 1.23917 0.25084 0.24908
 C8 C 1.25849 0.26710 0.23416
 C9 C 1.25735 0.29700 0.23430
 C10 C 1.23629 0.30991 0.25047
 C11 C 1.21708 0.29367 0.26587
 C12 C 1.21845 0.26411 0.26462
 H13 H 1.27963 0.21969 0.27107
 H14 H 1.20411 0.21427 0.22660
 H15 H 1.27352 0.25595 0.22169
 H16 H 1.20367 0.25126 0.27610
 H17 H 1.24574 0.13784 0.25274
 H18 H 1.23573 0.33260 0.25260
 C19 C 0.74641 -0.29358 0.26706
 C20 C 0.72902 -0.28000 0.24857
 C21 C 0.70920 -0.29539 0.23491
 C22 C 0.70664 -0.32457 0.23947
 C23 C 0.72411 -0.33816 0.25817
 C24 C 0.74427 -0.32293 0.27238
 C25 C 0.73064 -0.24923 0.24464
 C26 C 0.75132 -0.23745 0.22773
 C27 C 0.75339 -0.20796 0.22465
 C28 C 0.73466 -0.19048 0.23899
 C29 C 0.71405 -0.20216 0.25620
 C30 C 0.71201 -0.23166 0.25867
 H31 H 0.76041 -0.28056 0.27817
 H32 H 0.69602 -0.28459 0.22048
 H33 H 0.76557 -0.25128 0.21687
 H34 H 0.69610 -0.24107 0.27170
 H35 H 0.72224 -0.36078 0.26097
 H36 H 0.73687 -0.16774 0.23754
 C37 C 0.76919 0.21302 -0.23203
 C38 C 0.74699 0.22624 -0.24573
 C39 C 0.72695 0.20991 -0.25829
 C40 C 0.72893 0.18028 -0.25749
 C41 C 0.75115 0.16717 -0.24350
 C42 C 0.77137 0.18336 -0.23063
 C43 C 0.74515 0.25725 -0.24797
 C44 C 0.76206 0.27170 -0.26662
 C45 C 0.75966 0.30133 -0.27026
 C46 C 0.74005 0.31597 -0.25389
 C47 C 0.72306 0.30158 -0.23499
 C48 C 0.72568 0.27211 -0.23231
 H49 H 0.78486 0.22590 -0.22275
 H50 H 0.71034 0.22043 -0.26943
 H51 H 0.77746 0.25948 -0.27777
 H52 H 0.71282 0.26065 -0.21783
 H53 H 0.75235 0.14431 -0.24223
 H54 H 0.73646 0.33843 -0.25672
 C55 C 1.27009 -0.27966 -0.24301
 C56 C 1.25069 -0.26172 -0.25575
 C57 C 1.22916 -0.27304 -0.27066
 C58 C 1.22707 -0.30235 -0.27342
 C59 C 1.24631 -0.32035 -0.26010
 C60 C 1.26814 -0.30936 -0.24459
 C61 C 1.25317 -0.23088 -0.25376
 C62 C 1.27644 -0.21710 -0.26543
 C63 C 1.27870 -0.18758 -0.26442
 C64 C 1.25775 -0.17210 -0.25069
 C65 C 1.23449 -0.18579 -0.23852
 C66 C 1.23222 -0.21525 -0.24047
 H67 H 1.28566 -0.27000 -0.23075
 H68 H 1.21423 -0.25889 -0.28039
 H69 H 1.29260 -0.22945 -0.27556
 H70 H 1.21458 -0.22622 -0.23107
 H71 H 1.24507 -0.34284 -0.26322
 H72 H 1.25905 -0.14928 -0.25015
 C73 C 0.22442 0.27554 0.73655
 C74 C 0.23943 0.25632 0.75235
 C75 C 0.22516 0.23994 0.77153
 C76 C 0.19551 0.24267 0.77546
 C77 C 0.18070 0.26212 0.75899
 C78 C 0.19495 0.27843 0.73952
 C79 C 0.27048 0.25468 0.74993
 C80 C 0.28685 0.27559 0.76110
 C81 C 0.31676 0.27442 0.75965
 C82 C 0.32960 0.25173 0.74601
 C83 C 0.31325 0.23075 0.73450
 C84 C 0.28360 0.23227 0.73682
 H85 H 0.23585 0.28852 0.72214
 H86 H 0.23784 0.22643 0.78427
 H87 H 0.27583 0.29183 0.77212
 H88 H 0.27066 0.21608 0.72842
 H89 H 0.15783 0.26380 0.76021
 H90 H 0.35235 0.25097 0.74296
 C91 C 0.72518 0.76528 0.73693
 C92 C 0.73919 0.74412 0.75146
 C93 C 0.72373 0.72267 0.76416
 C94 C 0.69386 0.72220 0.76318
 C95 C 0.68013 0.74360 0.74799
 C96 C 0.69541 0.76527 0.73450
 C97 C 0.77031 0.74446 0.75352
 C98 C 0.78316 0.76490 0.76871
 C99 C 0.81273 0.76506 0.77158
 C100 C 0.82940 0.74464 0.75843
 C101 C 0.81674 0.72410 0.74285
 C102 C 0.78704 0.72409 0.74077
 H103 H 0.73808 0.78077 0.72648
 H104 H 0.73548 0.70612 0.77437
 H105 H 0.76990 0.78012 0.77900
 H106 H 0.77686 0.70867 0.72871
 H107 H 0.65727 0.74486 0.74851
 H108 H 0.85223 0.74469 0.76037
 C109 C 0.72877 0.28863 0.23660
 C110 C 0.74520 0.26885 0.25063
 C111 C 0.73200 0.24811 0.26652
 C112 C 0.70226 0.24714 0.26862
 C113 C 0.68597 0.26699 0.25420
 C114 C 0.69904 0.28770 0.23800
 C115 C 0.77627 0.26945 0.24784
 C116 C 0.79188 0.28919 0.26152
 C117 C 0.82150 0.29053 0.25820
 C118 C 0.83522 0.27192 0.24066
 C119 C 0.81963 0.25225 0.22655
 C120 C 0.79012 0.25100 0.23055
 H121 H 0.73924 0.30460 0.22441
 H122 H 0.74494 0.23303 0.27746
 H123 H 0.78090 0.30321 0.27502
 H124 H 0.77777 0.23579 0.22009
 H125 H 0.66306 0.26568 0.25487
 H126 H 0.85792 0.27337 0.23736
 C127 C 0.23893 0.77795 0.23653
 C128 C 0.25205 0.75719 0.25217
 C129 C 0.23576 0.73762 0.26652
 C130 C 0.20589 0.73865 0.26601
 C131 C 0.19296 0.75957 0.24968
 C132 C 0.20915 0.77935 0.23459
 C133 C 0.28316 0.75558 0.25320
 C134 C 0.29807 0.77611 0.26651
 C135 C 0.32773 0.77445 0.26820
 C136 C 0.34239 0.75231 0.25557
 C137 C 0.32758 0.73171 0.24189
 C138 C 0.29786 0.73341 0.24107
 H139 H 0.25245 0.79181 0.22479
 H140 H 0.24686 0.72117 0.27749
 H141 H 0.28643 0.79329 0.27570
 H142 H 0.28608 0.71795 0.23037
 H143 H 0.17018 0.76196 0.25035
 H144 H 0.36524 0.75065 0.25699
 O145 O 1.05165 0.01861 0.02600
 O146 O 0.95354 -0.02481 0.03862
 O147 O 0.97054 0.05722 0.01034
 O148 O 1.02429 -0.05504 0.03177
 O149 O 0.95802 0.02343 0.03452
 O150 O 1.05831 -0.03040 0.01402
 O151 O 0.97308 -0.06237 0.02362
 O152 O 1.01166 0.03729 0.03658
 C153 C 1.03650 0.03134 0.04255
 C154 C 0.95733 -0.05064 0.04012
 C155 C 0.95620 0.04909 0.02958
 C156 C 1.04906 -0.04636 0.03242
 O157 O 1.04262 -0.01572 -0.03638
 O158 O 0.94943 0.02099 -0.01981
 O159 O 1.02199 0.06768 -0.00465
 O160 O 0.98151 -0.05755 -0.02641
 O161 O 0.94488 -0.03128 -0.01386
 O162 O 1.04083 0.03255 -0.02561
 O163 O 1.03413 -0.05649 -0.01961
 O164 O 0.99032 0.03808 -0.03219
 Co165 Co 1.04418 0.00060 -0.00460
 Co166 Co 0.95535 -0.00289 0.00911
 Co167 Co 1.00195 0.03598 0.00211
 Co168 Co 1.00318 -0.05299 0.00244
 O169 O 0.99966 -0.00676 0.00313
 C170 C 1.04264 -0.04167 -0.03875
 C171 C 0.96473 0.03376 -0.03696
 C172 C 1.04204 0.05857 -0.02020
 C173 C 0.95596 -0.05004 -0.02868
 O174 O 1.05429 0.52596 0.52541
 O175 O 0.92895 0.48160 0.51059
 O176 O 0.97480 0.55516 0.52236
 O177 O 1.01522 0.46282 0.53730
 O178 O 0.95970 0.51408 0.53627
 O179 O 1.05487 0.47339 0.51888
 O180 O 0.96610 0.46354 0.52928
 O181 O 1.02619 0.56129 0.51331
 C182 C 1.04582 0.55109 0.52771
 C183 C 0.93966 0.46175 0.52545
 C184 C 0.96379 0.53977 0.54050
 C185 C 1.04136 0.46380 0.53845
 O186 O 1.05044 0.48288 0.46774
 O187 O 0.93690 0.53313 0.49481
 O188 O 1.01652 0.55133 0.46141
 O189 O 0.97702 0.45334 0.47693
 O190 O 0.95625 0.49265 0.46779
 O191 O 1.05594 0.53446 0.47516
 O192 O 1.02722 0.44815 0.48621
 O193 O 0.96881 0.54567 0.46850
 Co194 Co 1.04896 0.50411 0.49694
 Co195 Co 0.95968 0.50245 0.50201
 Co196 Co 0.99675 0.54959 0.49216
 Co197 Co 0.99684 0.46115 0.50651
 O198 O 1.00238 0.50578 0.49849
 C199 C 1.04280 0.45778 0.46762
 C200 C 0.94346 0.54731 0.47496
 C201 C 1.04245 0.54876 0.45864
 C202 C 0.96271 0.46822 0.46126
 O203 O 0.56179 0.03635 0.51757
 O204 O 0.45719 -0.02939 0.52097
 O205 O 0.47451 0.05717 0.51810
 O206 O 0.54428 -0.05001 0.51549
 O207 O 0.46101 0.01789 0.53404
 O208 O 0.55865 -0.01189 0.53096
 O209 O 0.49710 -0.04518 0.53369
 O210 O 0.52246 0.05229 0.53252
 C211 C 0.54802 0.04768 0.53589
 C212 C 0.47163 -0.04118 0.53855
 C213 C 0.46344 0.04354 0.53679
 C214 C 0.55596 -0.03766 0.53371
 O215 O 0.56283 -0.02671 0.47856
 O216 O 0.45458 0.03552 0.48257
 O217 O 0.54052 0.05924 0.48187
 O218 O 0.47681 -0.05017 0.48423
 O219 O 0.46080 -0.01165 0.46880
 O220 O 0.55675 0.02132 0.46591
 O221 O 0.52356 -0.04341 0.46644
 O222 O 0.49276 0.05306 0.46707
 Co223 Co 0.55525 0.00465 0.49845
 Co224 Co 0.46310 0.00314 0.50140
 Co225 Co 0.50769 0.05042 0.49986
 Co226 Co 0.51028 -0.04224 0.49999
 O227 O 0.50910 0.00401 0.49992
 C228 C 0.54877 -0.03858 0.46136
 C229 C 0.46741 0.04785 0.46397
 C230 C 0.55306 0.04706 0.46343
 C231 C 0.46500 -0.03713 0.46584
 O232 O 0.54145 0.53128 0.01283
 O233 O 0.43384 0.46442 0.01599
 O234 O 0.45484 0.55065 0.01405
 O235 O 0.52069 0.44472 0.01938
 O236 O 0.43905 0.51213 0.03019
 O237 O 0.53673 0.48436 0.03100
 O238 O 0.47231 0.44992 0.03240
 O239 O 0.50235 0.54656 0.02775
 C240 C 0.52794 0.54283 0.03102
 C241 C 0.44639 0.45286 0.03482
 C242 C 0.44371 0.53751 0.03309
 C243 C 0.53285 0.45905 0.03618
 O244 O 0.54334 0.46375 -0.01801
 O245 O 0.43380 0.52983 -0.02105
 O246 O 0.51995 0.55012 -0.02429
 O247 O 0.45715 0.44364 -0.01930
 O248 O 0.44044 0.48225 -0.03488
 O249 O 0.53731 0.51072 -0.03646
 O250 O 0.50530 0.44768 -0.03269
 O251 O 0.47259 0.54412 -0.03749
 Co252 Co 0.53472 0.49752 -0.00268
 Co253 Co 0.44176 0.49720 -0.00242
 Co254 Co 0.48751 0.54317 -0.00476
 Co255 Co 0.48880 0.45124 -0.00028
 O256 O 0.48822 0.49726 -0.00254
 C257 C 0.53102 0.45113 -0.03571
 C258 C 0.44695 0.54064 -0.04016
 C259 C 0.53296 0.53609 -0.04138
 C260 C 0.44593 0.45695 -0.03802
 C261 C 1.15312 0.14984 0.21002
 C262 C 1.16191 0.12676 0.19497
 C263 C 1.19051 0.11847 0.19465
 C264 C 1.21031 0.13344 0.20894
 C265 C 1.20179 0.15702 0.22371
 C266 C 1.17289 0.16485 0.22431
 C267 C 1.14191 0.11239 0.17888
 C268 C 1.12566 0.10062 0.16471
 C269 C 1.10740 0.08708 0.14722
 C270 C 1.09273 0.07566 0.13142
 C271 C 1.07664 0.06219 0.11135
 C272 C 1.04951 0.07215 0.10474
 C273 C 1.03556 0.06109 0.08309
 C274 C 1.04879 0.04015 0.06771
 C275 C 1.07549 0.02947 0.07523
 C276 C 1.08927 0.04042 0.09687
 H277 H 1.13106 0.15647 0.21043
 H278 H 1.19761 0.10074 0.18297
 H279 H 1.23242 0.12707 0.20781
 H280 H 1.16557 0.18264 0.23578
 H281 H 1.03955 0.08908 0.11574
 H282 H 1.01506 0.06977 0.07770
 H283 H 1.08616 0.01326 0.06386
 H284 H 1.11024 0.03255 0.10174
 C285 C 1.18008 0.68851 0.66744
 C286 C 1.16518 0.66411 0.67473
 C287 C 1.17029 0.65069 0.69913
 C288 C 1.19032 0.66159 0.71612
 C289 C 1.20548 0.68607 0.70889
 C290 C 1.20008 0.69942 0.68436
 C291 C 1.14572 0.65218 0.65658
 C292 C 1.13020 0.64182 0.64090
 C293 C 1.11311 0.62888 0.62214
 C294 C 1.09964 0.61676 0.60595
 C295 C 1.08518 0.60067 0.58662
 C296 C 1.09353 0.57262 0.58282
 C297 C 1.08062 0.55667 0.56371
 C298 C 1.05905 0.56852 0.54797
 C299 C 1.05052 0.59673 0.55202
 C300 C 1.06358 0.61275 0.57126
 H301 H 1.17653 0.69889 0.64850
 H302 H 1.15895 0.63170 0.70491
 H303 H 1.19383 0.65101 0.73496
 H304 H 1.21173 0.71801 0.67801
 H305 H 1.11023 0.56307 0.59455
 H306 H 1.08768 0.53501 0.56124
 H307 H 1.03390 0.60640 0.54030
 H308 H 1.05699 0.63450 0.57404
 C309 C 0.66073 0.15645 0.71166
 C310 C 0.67054 0.13402 0.69628
 C311 C 0.69908 0.12570 0.69717
 C312 C 0.71793 0.14019 0.71286
 C313 C 0.70845 0.16328 0.72781
 C314 C 0.67954 0.17097 0.72736
 C315 C 0.65183 0.12080 0.67825
 C316 C 0.63671 0.11025 0.66235
 C317 C 0.61978 0.09839 0.64285
 C318 C 0.60610 0.08860 0.62546
 C319 C 0.59085 0.07721 0.60383
 C320 C 0.56198 0.08336 0.60066
 C321 C 0.54779 0.07348 0.57870
 C322 C 0.56245 0.05749 0.55961
 C323 C 0.59132 0.05105 0.56324
 C324 C 0.60539 0.06087 0.58519
 H325 H 0.63868 0.16309 0.71110
 H326 H 0.70693 0.10850 0.68519
 H327 H 0.74010 0.13399 0.71252
 H328 H 0.67155 0.18843 0.73892
 H329 H 0.55054 0.09606 0.61496
 H330 H 0.52552 0.07865 0.57646
 H331 H 0.60311 0.03860 0.54900
 H332 H 0.62774 0.05601 0.58743
 C333 C 0.67528 0.61902 0.19707
 C334 C 0.64837 0.63051 0.19209
 C335 C 0.64002 0.65595 0.20362
 C336 C 0.65872 0.67021 0.21961
 C337 C 0.68607 0.65920 0.22420
 C338 C 0.69402 0.63324 0.21308
 C339 C 0.63011 0.61722 0.17376
 C340 C 0.61532 0.60662 0.15764
 C341 C 0.59876 0.59473 0.13792
 C342 C 0.58537 0.58491 0.12037
 C343 C 0.57043 0.57348 0.09861
 C344 C 0.54132 0.57856 0.09580
 C345 C 0.52730 0.56845 0.07386
 C346 C 0.54236 0.55330 0.05444
 C347 C 0.57151 0.54804 0.05762
 C348 C 0.58543 0.55808 0.07956
 H349 H 0.68202 0.59944 0.18806
 H350 H 0.61926 0.66505 0.19984
 H351 H 0.65191 0.68998 0.22819
 H352 H 0.71505 0.62444 0.21601
 H353 H 0.52953 0.59052 0.11042
 H354 H 0.50481 0.57268 0.07196
 H355 H 0.58361 0.53625 0.04311
 H356 H 0.60796 0.55408 0.08153
 C357 C 0.82415 -0.19361 0.19043
 C358 C 0.81741 -0.16994 0.17465
 C359 C 0.78970 -0.15908 0.17479
 C360 C 0.76882 -0.17164 0.19084
 C361 C 0.77540 -0.19527 0.20698
 C362 C 0.80326 -0.20625 0.20650
 C363 C 0.83885 -0.15638 0.15852
 C364 C 0.85626 -0.14437 0.14487
 C365 C 0.87588 -0.12957 0.12864
 C366 C 0.89191 -0.11634 0.11450
 C367 C 0.91006 -0.09991 0.09720
 C368 C 0.90781 -0.07040 0.09695
 C369 C 0.92376 -0.05431 0.07882
 C370 C 0.94217 -0.06757 0.06064
 C371 C 0.94486 -0.09723 0.06149
 C372 C 0.92883 -0.11329 0.07966
 H373 H 0.84557 -0.20213 0.19050
 H374 H 0.78425 -0.14081 0.16258
 H375 H 0.74748 -0.16296 0.19055
 H376 H 0.80902 -0.22422 0.21895
 H377 H 0.89327 -0.05986 0.11042
 H378 H 0.92124 -0.03152 0.07868
 H379 H 0.95886 -0.10804 0.04776
 H380 H 0.93066 -0.13614 0.07965
 C381 C 0.80212 0.31601 0.66766
 C382 C 0.80828 0.34458 0.67025
 C383 C 0.79851 0.35893 0.69251
 C384 C 0.78257 0.34480 0.71212
 C385 C 0.77605 0.31581 0.70994
 C386 C 0.78624 0.30175 0.68719
 C387 C 0.82477 0.35909 0.65010
 C388 C 0.83870 0.37113 0.63325
 C389 C 0.85522 0.38523 0.61367
 C390 C 0.86957 0.39739 0.59721
 C391 C 0.88705 0.41220 0.57802
 C392 C 0.87466 0.42964 0.55865
 C393 C 0.89176 0.44524 0.54097
 C394 C 0.92147 0.44361 0.54256
 C395 C 0.93373 0.42551 0.56167
 C396 C 0.91660 0.40995 0.57930
 H397 H 0.80940 0.30473 0.65038
 H398 H 0.80340 0.38105 0.69483
 H399 H 0.77644 0.35661 0.72938
 H400 H 0.78110 0.27999 0.68360
 H401 H 0.85180 0.43154 0.55749
 H402 H 0.88174 0.45897 0.52644
 H403 H 0.95655 0.42382 0.56336
 H404 H 0.92642 0.39652 0.59421
 C405 C 0.33735 -0.13557 0.71842
 C406 C 0.34556 -0.14438 0.69319
 C407 C 0.33241 -0.16756 0.68214
 C408 C 0.31093 -0.18174 0.69608
 C409 C 0.30227 -0.17295 0.72135
 C410 C 0.31583 -0.14979 0.73246
 C411 C 0.36633 -0.12897 0.67776
 C412 C 0.38283 -0.11640 0.66357
 C413 C 0.40090 -0.10203 0.64550
 C414 C 0.41511 -0.09002 0.62887
 C415 C 0.43039 -0.07599 0.60768
 C416 C 0.45911 -0.08206 0.60279
 C417 C 0.47292 -0.07022 0.58057
 C418 C 0.45798 -0.05241 0.56296
 C419 C 0.42936 -0.04589 0.56847
 C420 C 0.41569 -0.05761 0.59067
 H421 H 0.34734 -0.11756 0.72710
 H422 H 0.33841 -0.17438 0.66251
 H423 H 0.30060 -0.19916 0.68678
 H424 H 0.30980 -0.14272 0.75198
 H425 H 0.47064 -0.09639 0.61579
 H426 H 0.49502 -0.07551 0.57684
 H427 H 0.41738 -0.03206 0.55539
 H428 H 0.39344 -0.05285 0.59423
 C429 C 0.28875 0.35700 0.19408
 C430 C 0.31491 0.34542 0.18633
 C431 C 0.32237 0.31816 0.19498
 C432 C 0.30368 0.30237 0.21097
 C433 C 0.27684 0.31345 0.21874
 C434 C 0.26996 0.34133 0.21013
 C435 C 0.33374 0.36105 0.16881
 C436 C 0.34931 0.37376 0.15369
 C437 C 0.36717 0.38832 0.13539
 C438 C 0.38190 0.40054 0.11921
 C439 C 0.39866 0.41494 0.09908
 C440 C 0.42811 0.41077 0.09740
 C441 C 0.44390 0.42359 0.07682
 C442 C 0.43035 0.44058 0.05761
 C443 C 0.40088 0.44510 0.05982
 C444 C 0.38519 0.43236 0.08038
 H445 H 0.28261 0.37804 0.18731
 H446 H 0.34269 0.30902 0.18930
 H447 H 0.31100 0.28180 0.21778
 H448 H 0.24952 0.35085 0.21454
 H449 H 0.43879 0.39730 0.11174
 H450 H 0.46658 0.41976 0.07565
 H451 H 0.38984 0.45820 0.04544
 H452 H 0.36244 0.43576 0.08144
 C453 C 0.82386 0.16589 -0.17654
 C454 C 0.83724 0.14159 -0.18629
 C455 C 0.82957 0.13129 -0.21082
 C456 C 0.80840 0.14504 -0.22542
 C457 C 0.79457 0.16928 -0.21562
 C458 C 0.80271 0.17966 -0.19110
 C459 C 0.85784 0.12660 -0.17050
 C460 C 0.87439 0.11394 -0.15659
 C461 C 0.89277 0.09902 -0.13940
 C462 C 0.90743 0.08624 -0.12384
 C463 C 0.92343 0.07098 -0.10409
 C464 C 0.95122 0.07872 -0.09840
 C465 C 0.96536 0.06570 -0.07721
 C466 C 0.95169 0.04501 -0.06140
 C467 C 0.92420 0.03667 -0.06793
 C468 C 0.91021 0.04958 -0.08911
 H469 H 0.82948 0.17394 -0.15749
 H470 H 0.83975 0.11248 -0.21855
 H471 H 0.80290 0.13674 -0.24439
 H472 H 0.79224 0.19804 -0.18285
 H473 H 0.96162 0.09535 -0.10981
 H474 H 0.98648 0.07260 -0.07258
 H475 H 0.91319 0.02068 -0.05623
 H476 H 0.88872 0.04344 -0.09330
 C477 C 0.80468 0.66228 0.31792
 C478 C 0.79524 0.63815 0.33155
 C479 C 0.76930 0.62633 0.32522
 C480 C 0.75264 0.63880 0.30550
 C481 C 0.76156 0.66359 0.29174
 C482 C 0.78815 0.67486 0.29826
 C483 C 0.81235 0.62573 0.35203
 C484 C 0.82731 0.61589 0.36899
 C485 C 0.84558 0.60483 0.38846
 C486 C 0.86187 0.59561 0.40462
 C487 C 0.88215 0.58469 0.42317
 C488 C 0.91113 0.58722 0.41741
 C489 C 0.93108 0.57564 0.43468
 C490 C 0.92226 0.56134 0.45794
 C491 C 0.89311 0.55937 0.46390
 C492 C 0.87315 0.57097 0.44655
 H493 H 0.82496 0.67139 0.32243
 H494 H 0.76175 0.60765 0.33577
 H495 H 0.73219 0.62956 0.30216
 H496 H 0.79694 0.69291 0.28770
 H497 H 0.91831 0.59782 0.39938
 H498 H 0.95340 0.57746 0.42960
 H499 H 0.88576 0.54842 0.48167
 H500 H 0.85074 0.56891 0.45118
 C501 C 0.32183 0.16425 0.31553
 C502 C 0.33093 0.13680 0.31007
 C503 C 0.31883 0.12241 0.28933
 C504 C 0.29759 0.13539 0.27416
 C505 C 0.28797 0.16323 0.27941
 C506 C 0.30069 0.17732 0.30050
 C507 C 0.35192 0.12331 0.32658
 C508 C 0.36896 0.11264 0.34134
 C509 C 0.38812 0.10065 0.35969
 C510 C 0.40354 0.09063 0.37627
 C511 C 0.42057 0.07873 0.39717
 C512 C 0.40807 0.06022 0.41572
 C513 C 0.42353 0.04996 0.43717
 C514 C 0.45184 0.05804 0.44045
 C515 C 0.46457 0.07613 0.42141
 C516 C 0.44894 0.08651 0.39992
 H517 H 0.33073 0.17548 0.33180
 H518 H 0.32577 0.10110 0.28487
 H519 H 0.28958 0.12370 0.25784
 H520 H 0.29359 0.19803 0.30655
 H521 H 0.38615 0.05407 0.41384
 H522 H 0.41320 0.03587 0.45136
 H523 H 0.48636 0.08264 0.42340
 H524 H 0.45883 0.10090 0.38572
 C525 C 0.33261 0.66507 -0.20852
 C526 C 0.32403 0.63838 -0.19956
 C527 C 0.29761 0.62821 -0.20672
 C528 C 0.27949 0.64499 -0.22222
 C529 C 0.28732 0.67257 -0.23065
 C530 C 0.31460 0.68195 -0.22391
 C531 C 0.34165 0.62235 -0.18165
 C532 C 0.35625 0.60983 -0.16588
 C533 C 0.37298 0.59607 -0.14656
 C534 C 0.38679 0.58496 -0.12935
 C535 C 0.40250 0.57236 -0.10795
 C536 C 0.43163 0.57711 -0.10583
 C537 C 0.44634 0.56641 -0.08397
 C538 C 0.43197 0.55100 -0.06391
 C539 C 0.40285 0.54588 -0.06649
 C540 C 0.38824 0.55651 -0.08835
 H541 H 0.35316 0.67307 -0.20329
 H542 H 0.29064 0.60760 -0.19969
 H543 H 0.25872 0.63673 -0.22607
 H544 H 0.32261 0.70215 -0.23086
 H545 H 0.44286 0.58944 -0.12085
 H546 H 0.46878 0.57059 -0.08254
 H547 H 0.39128 0.53390 -0.05146
 H548 H 0.36571 0.55276 -0.08975
 C549 C 1.16374 -0.16170 -0.20948
 C550 C 1.17226 -0.14066 -0.19243
 C551 C 1.20094 -0.13365 -0.19116
 C552 C 1.22111 -0.14794 -0.20656
 C553 C 1.21285 -0.16950 -0.22339
 C554 C 1.18389 -0.17603 -0.22490
 C555 C 1.15187 -0.12714 -0.17529
 C556 C 1.13532 -0.11606 -0.16025
 C557 C 1.11667 -0.10331 -0.14187
 C558 C 1.10147 -0.09254 -0.12549
 C559 C 1.08433 -0.07975 -0.10514
 C560 C 1.08257 -0.05030 -0.10360
 C561 C 1.06821 -0.03784 -0.08239
 C562 C 1.05554 -0.05475 -0.06238
 C563 C 1.05665 -0.08433 -0.06453
 C564 C 1.07102 -0.09673 -0.08578
 H565 H 1.14159 -0.16729 -0.21060
 H566 H 1.20777 -0.11750 -0.17790
 H567 H 1.24327 -0.14269 -0.20471
 H568 H 1.17684 -0.19227 -0.23794
 H569 H 1.09290 -0.03697 -0.11843
 H570 H 1.06768 -0.01500 -0.08129
 H571 H 1.04701 -0.09788 -0.04949
 H572 H 1.07234 -0.11957 -0.08675
 C573 C 1.17242 0.30878 0.32721
 C574 C 1.15798 0.33353 0.31958
 C575 C 1.16265 0.34523 0.29426
 C576 C 1.18175 0.33227 0.27669
 C577 C 1.19643 0.30741 0.28423
 C578 C 1.19148 0.29581 0.30970
 C579 C 1.13924 0.34742 0.33814
 C580 C 1.12417 0.35931 0.35399
 C581 C 1.10737 0.37390 0.37279
 C582 C 1.09396 0.38724 0.38887
 C583 C 1.07930 0.40460 0.40791
 C584 C 1.08320 0.43383 0.40674
 C585 C 1.07083 0.45100 0.42590
 C586 C 1.05430 0.43923 0.44668
 C587 C 1.04982 0.40986 0.44741
 C588 C 1.06236 0.39262 0.42814
 H589 H 1.16918 0.29966 0.34681
 H590 H 1.15167 0.36445 0.28816
 H591 H 1.18490 0.34157 0.25716
 H592 H 1.20278 0.27698 0.31631
 H593 H 1.09625 0.44335 0.39122
 H594 H 1.07458 0.47353 0.42460
 H595 H 1.03713 0.40020 0.46309
 H596 H 1.05921 0.36999 0.42926
 C597 C 0.67337 -0.17300 0.31485
 C598 C 0.66182 -0.14806 0.30410
 C599 C 0.66695 -0.14087 0.27752
 C600 C 0.68376 -0.15856 0.26177
 C601 C 0.69557 -0.18364 0.27249
 C602 C 0.69014 -0.19068 0.29919
 C603 C 0.64522 -0.12982 0.32075
 C604 C 0.63173 -0.11528 0.33572
 C605 C 0.61646 -0.09923 0.35438
 C606 C 0.60387 -0.08640 0.37125
 C607 C 0.58938 -0.07220 0.39241
 C608 C 0.60467 -0.05550 0.40949
 C609 C 0.59129 -0.04400 0.43167
 C610 C 0.56245 -0.04920 0.43705
 C611 C 0.54703 -0.06530 0.41934
 C612 C 0.56048 -0.07680 0.39719
 H613 H 0.66963 -0.17867 0.33545
 H614 H 0.65808 -0.12158 0.26903
 H615 H 0.68740 -0.15275 0.24121
 H616 H 0.69932 -0.20957 0.30812
 H617 H 0.62709 -0.05192 0.40600
 H618 H 0.60362 -0.03150 0.44486
 H619 H 0.52476 -0.06953 0.42292
 H620 H 0.54850 -0.08983 0.38414
 C621 C 0.69036 0.35772 -0.19105
 C622 C 0.66350 0.34652 -0.18557
 C623 C 0.65590 0.32087 -0.19659
 C624 C 0.67515 0.30636 -0.21283
 C625 C 0.70231 0.31731 -0.21826
 C626 C 0.70963 0.34325 -0.20730
 C627 C 0.64410 0.36094 -0.16803
 C628 C 0.62823 0.37292 -0.15293
 C629 C 0.61022 0.38686 -0.13470
 C630 C 0.59546 0.39872 -0.11861
 C631 C 0.57873 0.41284 -0.09869
 C632 C 0.59204 0.43058 -0.08110
 C633 C 0.57637 0.44333 -0.06086
 C634 C 0.54712 0.43846 -0.05789
 C635 C 0.53374 0.42103 -0.07595
 C636 C 0.54951 0.40823 -0.09621
 H637 H 0.69652 0.37749 -0.18252
 H638 H 0.63517 0.31201 -0.19250
 H639 H 0.66874 0.28665 -0.22127
 H640 H 0.73047 0.35207 -0.21086
 H641 H 0.61462 0.43431 -0.08283
 H642 H 0.58723 0.45678 -0.04738
 H643 H 0.51123 0.41698 -0.07419
 H644 H 0.53899 0.39451 -0.10971
 C645 C 1.17872 0.18520 -0.17475
 C646 C 1.15362 0.19550 -0.16334
 C647 C 1.14202 0.22113 -0.17239
 C648 C 1.15557 0.23655 -0.19269
 C649 C 1.18121 0.22668 -0.20438
 C650 C 1.19238 0.20052 -0.19500
 C651 C 1.13973 0.17954 -0.14251
 C652 C 1.12828 0.16569 -0.12527
 C653 C 1.11495 0.14887 -0.10550
 C654 C 1.10351 0.13389 -0.08912
 C655 C 1.08965 0.11523 -0.07035
 C656 C 1.09321 0.08599 -0.07262
 C657 C 1.07832 0.06757 -0.05571
 C658 C 1.05961 0.07820 -0.03632
 C659 C 1.05674 0.10762 -0.03364
 C660 C 1.07166 0.12604 -0.05064
 H661 H 1.18769 0.16515 -0.16811
 H662 H 1.12260 0.22935 -0.16358
 H663 H 1.14635 0.25681 -0.19819
 H664 H 1.21117 0.19105 -0.20379
 H665 H 1.10706 0.07741 -0.08783
 H666 H 1.08096 0.04502 -0.05823
 H667 H 1.04250 0.11638 -0.01886
 H668 H 1.06875 0.14866 -0.04875
 C669 C 1.14572 0.69300 0.29026
 C670 C 1.15707 0.68112 0.31330
 C671 C 1.18438 0.68824 0.32071
 C672 C 1.20039 0.70710 0.30522
 C673 C 1.18945 0.71941 0.28175
 C674 C 1.16165 0.71196 0.27465
 C675 C 1.14075 0.66195 0.32976
 C676 C 1.12766 0.64608 0.34421
 C677 C 1.11283 0.62783 0.36183
 C678 C 1.10043 0.61265 0.37743
 C679 C 1.08577 0.59512 0.39668
 C680 C 1.10114 0.57763 0.41402
 C681 C 1.08703 0.56201 0.43387
 C682 C 1.05734 0.56377 0.43664
 C683 C 1.04204 0.58096 0.41875
 C684 C 1.05619 0.59654 0.39894
 H685 H 1.12458 0.68751 0.28427
 H686 H 1.19326 0.67943 0.33872
 H687 H 1.22091 0.71276 0.31255
 H688 H 1.15233 0.71977 0.25652
 H689 H 1.12406 0.57643 0.41249
 H690 H 1.09939 0.54895 0.44731
 H691 H 1.01916 0.58276 0.42034
 H692 H 1.04410 0.61007 0.38567
 C693 C 0.68456 0.17684 0.30230
 C694 C 0.66069 0.18424 0.31757
 C695 C 0.65054 0.21215 0.31694
 C696 C 0.66411 0.23257 0.30109
 C697 C 0.68808 0.22538 0.28562
 C698 C 0.69820 0.19727 0.28642
 C699 C 0.64670 0.16346 0.33420
 C700 C 0.63465 0.14670 0.34857
 C701 C 0.62024 0.12790 0.36600
 C702 C 0.60777 0.11266 0.38152
 C703 C 0.59277 0.09557 0.40089
 C704 C 0.57411 0.10859 0.41877
 C705 C 0.56072 0.09263 0.43873
 C706 C 0.56583 0.06336 0.44112
 C707 C 0.58405 0.05025 0.42267
 C708 C 0.59751 0.06632 0.40269
 H709 H 0.69260 0.15529 0.30264
 H710 H 0.63218 0.21815 0.32878
 H711 H 0.65605 0.25409 0.30118
 H712 H 0.71640 0.19101 0.27450
 H713 H 0.57027 0.13120 0.41755
 H714 H 0.54668 0.10328 0.45254
 H715 H 0.58835 0.02773 0.42402
 H716 H 0.61193 0.05603 0.38896
 C717 C 0.67340 0.66825 -0.18469
 C718 C 0.64621 0.66109 -0.19244
 C719 C 0.63490 0.67360 -0.21522
 C720 C 0.65060 0.69344 -0.23005
 C721 C 0.67809 0.70131 -0.22236
 C722 C 0.68918 0.68802 -0.19939
 C723 C 0.62963 0.64183 -0.17625
 C724 C 0.61608 0.62626 -0.16185
 C725 C 0.60055 0.60878 -0.14401
 C726 C 0.58751 0.59468 -0.12794
 C727 C 0.57218 0.57900 -0.10772
 C728 C 0.57819 0.55032 -0.10283
 C729 C 0.56485 0.53595 -0.08167
 C730 C 0.54551 0.55025 -0.06505
 C731 C 0.53905 0.57884 -0.07060
 C732 C 0.55231 0.59308 -0.09176
 H733 H 0.68225 0.65896 -0.16687
 H734 H 0.61387 0.66810 -0.22151
 H735 H 0.64124 0.70183 -0.24794
 H736 H 0.70950 0.69374 -0.19167
 H737 H 0.59360 0.53922 -0.11502
 H738 H 0.57019 0.51393 -0.07790
 H739 H 0.52410 0.59036 -0.05829
 H740 H 0.54752 0.61527 -0.09532
 C741 C 0.85872 -0.20298 -0.17620
 C742 C 0.84828 -0.17516 -0.17565
 C743 C 0.82696 -0.16659 -0.19303
 C744 C 0.81582 -0.18584 -0.21059
 C745 C 0.82585 -0.21399 -0.21100
 C746 C 0.84763 -0.22226 -0.19375
 C747 C 0.85928 -0.15563 -0.15700
 C748 C 0.86890 -0.13976 -0.14118
 C749 C 0.88103 -0.12192 -0.12250
 C750 C 0.89252 -0.10754 -0.10653
 C751 C 0.90800 -0.09173 -0.08760
 C752 C 0.89432 -0.07253 -0.07077
 C753 C 0.90983 -0.05842 -0.05175
 C754 C 0.93914 -0.06353 -0.04934
 C755 C 0.95261 -0.08252 -0.06670
 C756 C 0.93717 -0.09644 -0.08559
 H757 H 0.87521 -0.20988 -0.16283
 H758 H 0.81879 -0.14510 -0.19290
 H759 H 0.79933 -0.17871 -0.22384
 H760 H 0.85555 -0.24383 -0.19331
 H761 H 0.87170 -0.06872 -0.07213
 H762 H 0.89887 -0.04390 -0.03873
 H763 H 0.97515 -0.08690 -0.06557
 H764 H 0.94801 -0.11121 -0.09847
 C765 C 0.87865 0.32261 0.29973
 C766 C 0.86766 0.34984 0.30366
 C767 C 0.84211 0.35802 0.29197
 C768 C 0.82736 0.33893 0.27678
 C769 C 0.83795 0.31132 0.27312
 C770 C 0.86394 0.30348 0.28452
 C771 C 0.88184 0.36883 0.32080
 C772 C 0.89342 0.38420 0.33584
 C773 C 0.90671 0.40139 0.35432
 C774 C 0.91789 0.41515 0.37091
 C775 C 0.93108 0.43020 0.39176
 C776 C 0.95281 0.41700 0.40604
 C777 C 0.96379 0.42994 0.42810
 C778 C 0.95316 0.45633 0.43623
 C779 C 0.93209 0.47003 0.42119
 C780 C 0.92103 0.45694 0.39911
 H781 H 0.89832 0.31598 0.30882
 H782 H 0.83338 0.37903 0.29490
 H783 H 0.80762 0.34574 0.26794
 H784 H 0.87249 0.28231 0.28231
 H785 H 0.96074 0.39631 0.40058
 H786 H 0.98013 0.41895 0.43918
 H787 H 0.92350 0.49033 0.42701
 H788 H 0.90413 0.46730 0.38825
 C789 C 0.34606 -0.17618 0.32309
 C790 C 0.37179 -0.16502 0.31385
 C791 C 0.38328 -0.17360 0.28959
 C792 C 0.36902 -0.19332 0.27463
 C793 C 0.34309 -0.20462 0.28380
 C794 C 0.33182 -0.19583 0.30822
 C795 C 0.38648 -0.14539 0.32985
 C796 C 0.39811 -0.12948 0.34430
 C797 C 0.41104 -0.11167 0.36239
 C798 C 0.42164 -0.09733 0.37883
 C799 C 0.43387 -0.08146 0.39958
 C800 C 0.42783 -0.05258 0.40208
 C801 C 0.43826 -0.03788 0.42348
 C802 C 0.45465 -0.05205 0.44266
 C803 C 0.46100 -0.08092 0.43968
 C804 C 0.45067 -0.09549 0.41830
 H805 H 0.33710 -0.16986 0.34193
 H806 H 0.40324 -0.16513 0.28230
 H807 H 0.37808 -0.19951 0.25580
 H808 H 0.31217 -0.20450 0.31603
 H809 H 0.41474 -0.04155 0.38774
 H810 H 0.43315 -0.01561 0.42523
 H811 H 0.47377 -0.09232 0.45402
 H812 H 0.45540 -0.11785 0.41659
 C813 C 0.33760 0.34192 -0.20900
 C814 C 0.36421 0.33456 -0.19923
 C815 C 0.37599 0.30801 -0.20448
 C816 C 0.36083 0.28848 -0.21878
 C817 C 0.33329 0.29504 -0.22790
 C818 C 0.32232 0.32249 -0.22324
 C819 C 0.37820 0.35326 -0.18185
 C820 C 0.38907 0.36835 -0.16620
 C821 C 0.40084 0.38521 -0.14673
 C822 C 0.41019 0.39884 -0.12916
 C823 C 0.42061 0.41410 -0.10721
 C824 C 0.43621 0.39972 -0.08782
 C825 C 0.44462 0.41377 -0.06538
 C826 C 0.43747 0.44241 -0.06205
 C827 C 0.42225 0.45689 -0.08188
 C828 C 0.41378 0.44274 -0.10432
 H829 H 0.32837 0.36254 -0.20515
 H830 H 0.39651 0.30201 -0.19672
 H831 H 0.37021 0.26769 -0.22099
 H832 H 0.30206 0.32942 -0.23083
 H833 H 0.44149 0.37751 -0.08985
 H834 H 0.45653 0.40215 -0.05054
 H835 H 0.41660 0.47901 -0.07989
 H836 H 0.40159 0.45401 -0.11918
 C837 C 1.15687 -0.18578 0.18904
 C838 C 1.17084 -0.16078 0.18205
 C839 C 1.19702 -0.15505 0.19305
 C840 C 1.20945 -0.17445 0.21067
 C841 C 1.19595 -0.20020 0.21767
 C842 C 1.16916 -0.20525 0.20666
 C843 C 1.15843 -0.14141 0.16314
 C844 C 1.14739 -0.12593 0.14706
 C845 C 1.13340 -0.10886 0.12807
 C846 C 1.12022 -0.09543 0.11187
 C847 C 1.10272 -0.08105 0.09275
 C848 C 1.11455 -0.06423 0.07238
 C849 C 1.09712 -0.05224 0.05288
 C850 C 1.06776 -0.05721 0.05355
 C851 C 1.05612 -0.07356 0.07450
 C852 C 1.07347 -0.08536 0.09388
 H853 H 1.13662 -0.19051 0.18047
 H854 H 1.20789 -0.13558 0.18799
 H855 H 1.22930 -0.16858 0.21926
 H856 H 1.15807 -0.22485 0.21038
 H857 H 1.13721 -0.06081 0.07130
 H858 H 1.10664 -0.03964 0.03706
 H859 H 1.03358 -0.07760 0.07575
 H860 H 1.06409 -0.09834 0.10953
 C861 C 1.14316 0.33521 0.71603
 C862 C 1.15037 0.33729 0.68914
 C863 C 1.17178 0.31992 0.67869
 C864 C 1.18609 0.30064 0.69505
 C865 C 1.17918 0.29848 0.72213
 C866 C 1.15747 0.31589 0.73246
 C867 C 1.13579 0.35702 0.67205
 C868 C 1.12386 0.37310 0.65710
 C869 C 1.11009 0.39127 0.63889
 C870 C 1.09833 0.40609 0.62276
 C871 C 1.08415 0.42280 0.60287
 C872 C 1.09985 0.43622 0.58263
 C873 C 1.08595 0.45033 0.56198
 C874 C 1.05615 0.45105 0.56132
 C875 C 1.04057 0.43821 0.58217
 C876 C 1.05451 0.42414 0.60277
 H877 H 1.12659 0.34856 0.72430
 H878 H 1.17740 0.32125 0.65788
 H879 H 1.20243 0.28724 0.68647
 H880 H 1.15190 0.31488 0.75328
 H881 H 1.12281 0.43523 0.58249
 H882 H 1.09850 0.46009 0.54624
 H883 H 1.01761 0.43845 0.58224
 H884 H 1.04217 0.41374 0.61830
 C885 C 0.67986 -0.16651 0.69786
 C886 C 0.65400 -0.17251 0.68634
 C887 C 0.64144 -0.19874 0.69126
 C888 C 0.65479 -0.21905 0.70736
 C889 C 0.68125 -0.21364 0.71892
 C890 C 0.69335 -0.18674 0.71395
 C891 C 0.64080 -0.15222 0.66869
 C892 C 0.62980 -0.13574 0.65341
 C893 C 0.61691 -0.11717 0.63485
 C894 C 0.60585 -0.10212 0.61839
 C895 C 0.59252 -0.08533 0.59793
 C896 C 0.59685 -0.05611 0.59578
 C897 C 0.58467 -0.04033 0.57508
 C898 C 0.56816 -0.05371 0.55625
 C899 C 0.56361 -0.08297 0.55887
 C900 C 0.57571 -0.09862 0.57953
 H901 H 0.68971 -0.14617 0.69434
 H902 H 0.62152 -0.20375 0.68222
 H903 H 0.64478 -0.23943 0.70947
 H904 H 0.71286 -0.18064 0.72303
 H905 H 0.60985 -0.04559 0.60991
 H906 H 0.58846 -0.01782 0.57360
 H907 H 0.55084 -0.09384 0.54480
 H908 H 0.57218 -0.12119 0.58099
 C909 C 0.67315 0.33192 0.17981
 C910 C 0.64808 0.34368 0.19012
 C911 C 0.63985 0.33764 0.21630
 C912 C 0.65656 0.31968 0.23205
 C913 C 0.68169 0.30755 0.22175
 C914 C 0.68986 0.31399 0.19549
 C915 C 0.63052 0.36117 0.17339
 C916 C 0.61621 0.37527 0.15856
 C917 C 0.59998 0.39109 0.14027
 C918 C 0.58659 0.40396 0.12383
 C919 C 0.57123 0.41849 0.10327
 C920 C 0.55353 0.40325 0.08703
 C921 C 0.54048 0.41664 0.06555
 C922 C 0.54506 0.44548 0.05999
 C923 C 0.56222 0.46087 0.07686
 C924 C 0.57530 0.44740 0.09834
 H925 H 0.67962 0.33632 0.15952
 H926 H 0.62045 0.34662 0.22446
 H927 H 0.64988 0.31534 0.25227
 H928 H 0.70883 0.30464 0.18685
 H929 H 0.55030 0.38085 0.09064
 H930 H 0.52724 0.40430 0.05302
 H931 H 0.56605 0.48314 0.07312
 H932 H 0.58904 0.45937 0.11074
 C933 C 0.87286 0.20190 0.19476
 C934 C 0.85989 0.19679 0.17069
 C935 C 0.83411 0.21015 0.16474
 C936 C 0.82119 0.22833 0.18281
 C937 C 0.83387 0.23341 0.20718
 C938 C 0.85996 0.22014 0.21289
 C939 C 0.87271 0.17762 0.15215
 C940 C 0.88302 0.16150 0.13644
 C941 C 0.89477 0.14256 0.11794
 C942 C 0.90472 0.12634 0.10214
 C943 C 0.91668 0.10691 0.08336
 C944 C 0.92998 0.11711 0.06021
 C945 C 0.94234 0.09827 0.04235
 C946 C 0.94158 0.06897 0.04750
 C947 C 0.92779 0.05887 0.07060
 C948 C 0.91544 0.07774 0.08842
 H949 H 0.89280 0.19163 0.19959
 H950 H 0.82393 0.20644 0.14614
 H951 H 0.80135 0.23859 0.17764
 H952 H 0.87011 0.22344 0.23157
 H953 H 0.93104 0.13964 0.05608
 H954 H 0.95283 0.10664 0.02473
 H955 H 0.92691 0.03641 0.07508
 H956 H 0.90518 0.06961 0.10627
 C957 C 0.84094 0.65548 0.71134
 C958 C 0.86559 0.66397 0.69774
 C959 C 0.87496 0.69180 0.69983
 C960 C 0.85949 0.71119 0.71502
 C961 C 0.83432 0.70303 0.72828
 C962 C 0.82543 0.67483 0.72652
 C963 C 0.88043 0.64460 0.68056
 C964 C 0.89250 0.62884 0.66552
 C965 C 0.90633 0.61110 0.64706
 C966 C 0.91792 0.59679 0.63051
 C967 C 0.93155 0.58099 0.60968
 C968 C 0.92376 0.55310 0.60482
 C969 C 0.93515 0.53902 0.58289
 C970 C 0.95427 0.55284 0.56549
 C971 C 0.96269 0.58047 0.57111
 C972 C 0.95142 0.59440 0.59301
 H973 H 0.83344 0.63402 0.70989
 H974 H 0.89392 0.69869 0.68927
 H975 H 0.86673 0.73279 0.71569
 H976 H 0.80637 0.66776 0.73677
 H977 H 0.90833 0.54251 0.61753
 H978 H 0.92821 0.51779 0.57902
 H979 H 0.97751 0.59163 0.55818
 H980 H 0.95762 0.61596 0.59652
 C981 C 0.32998 0.17921 0.67999
 C982 C 0.35523 0.16676 0.68884
 C983 C 0.36625 0.17442 0.71309
 C984 C 0.35231 0.19484 0.72826
 C985 C 0.32720 0.20788 0.71927
 C986 C 0.31602 0.19961 0.69510
 C987 C 0.37054 0.14739 0.67223
 C988 C 0.38335 0.13198 0.65752
 C989 C 0.39825 0.11495 0.63935
 C990 C 0.41082 0.10132 0.62300
 C991 C 0.42553 0.08621 0.60251
 C992 C 0.42231 0.05699 0.60028
 C993 C 0.43514 0.04286 0.57915
 C994 C 0.45117 0.05791 0.55997
 C995 C 0.45480 0.08713 0.56275
 C996 C 0.44203 0.10117 0.58388
 H997 H 0.32140 0.17357 0.66114
 H998 H 0.38582 0.16495 0.72008
 H999 H 0.36122 0.20054 0.74694
 H1000 H 0.29696 0.20953 0.68749
 H1001 H 0.40951 0.04524 0.61458
 H1002 H 0.43208 0.02032 0.57754
 H1003 H 0.46719 0.09922 0.54839
 H1004 H 0.44462 0.12379 0.58542
 C1005 C 0.38032 0.69402 0.19719
 C1006 C 0.36894 0.66684 0.19690
 C1007 C 0.34514 0.66036 0.21265
 C1008 C 0.33224 0.68121 0.22804
 C1009 C 0.34295 0.70886 0.22777
 C1010 C 0.36746 0.71491 0.21258
 C1011 C 0.38029 0.64639 0.17884
 C1012 C 0.38925 0.62999 0.16277
 C1013 C 0.39928 0.61183 0.14287
 C1014 C 0.40762 0.59739 0.12498
 C1015 C 0.41747 0.58163 0.10259
 C1016 C 0.43275 0.59555 0.08242
 C1017 C 0.44129 0.58109 0.05988
 C1018 C 0.43465 0.55241 0.05718
 C1019 C 0.41961 0.53838 0.07769
 C1020 C 0.41098 0.55298 0.10027
 H1021 H 0.39862 0.69931 0.18491
 H1022 H 0.33613 0.63941 0.21252
 H1023 H 0.31363 0.67584 0.23983
 H1024 H 0.37600 0.73606 0.21175
 H1025 H 0.43784 0.61772 0.08399
 H1026 H 0.45304 0.59240 0.04453
 H1027 H 0.41434 0.51626 0.07618
 H1028 H 0.39908 0.54203 0.11576
   
