data_POSCAR
  _audit_creation_date              2014-09-24
  _audit_creation_method            'ToBaCCo'
  _symmetry_space_group_name_H-M    'P1'
  _symmetry_Int_Tables_number       1
  _symmetry_cell_setting            triclinic
  loop_
  _symmetry_equiv_pos_as_xyz
 x,y,z
_cell_length_a 28.9878
_cell_length_b 31.3027
_cell_length_c 16.7674
_cell_angle_alpha 89.765600
_cell_angle_beta 89.930500
_cell_angle_gamma 89.721500
loop_
  _atom_site_label
  _atom_site_type_symbol
  _atom_site_fract_x
  _atom_site_fract_y
  _atom_site_fract_z
C1 C 0.68162 0.35492 0.50509
 C2 C 0.69284 0.33587 0.57813
 C3 C 0.72419 0.30161 0.57880
 C4 C 0.73984 0.28236 0.50735
 C5 C 0.72634 0.30176 0.43431
 C6 C 0.69911 0.33897 0.43357
 C7 C 0.77048 0.24314 0.51029
 C8 C 0.79433 0.22826 0.44189
 C9 C 0.82400 0.19258 0.44604
 C10 C 0.83171 0.17295 0.52003
 C11 C 0.80945 0.18722 0.58863
 C12 C 0.77677 0.22011 0.58254
 H13 H 0.65784 0.38179 0.50323
 H14 H 0.73627 0.29097 0.63636
 H15 H 0.73668 0.28901 0.37740
 H16 H 0.78950 0.24308 0.38438
 H17 H 0.85634 0.14683 0.52465
 H18 H 0.75743 0.22743 0.63574
 C19 C 0.16985 0.84020 0.52013
 C20 C 0.18675 0.82427 0.59291
 C21 C 0.21144 0.78538 0.59331
 C22 C 0.21971 0.76260 0.52177
 C23 C 0.20013 0.77869 0.45055
 C24 C 0.17573 0.81731 0.44958
 C25 C 0.24860 0.72254 0.52046
 C26 C 0.27014 0.70898 0.44913
 C27 C 0.29602 0.67117 0.44650
 C28 C 0.30143 0.64667 0.51564
 C29 C 0.28214 0.65990 0.58846
 C30 C 0.25566 0.69776 0.59013
 H31 H 0.14968 0.86948 0.51881
 H32 H 0.22583 0.77448 0.64926
 H33 H 0.20276 0.76123 0.39525
 H34 H 0.26814 0.72794 0.39522
 H35 H 0.32331 0.61849 0.51340
 H36 H 0.23946 0.70662 0.64576
 C37 C 0.35123 0.31873 -0.48440
 C38 C 0.32807 0.31079 -0.55573
 C39 C 0.29115 0.28212 -0.55587
 C40 C 0.28046 0.25727 -0.48778
 C41 C 0.30472 0.26588 -0.41635
 C42 C 0.33898 0.29737 -0.41427
 C43 C 0.24405 0.22323 -0.49225
 C44 C 0.22203 0.20735 -0.42286
 C45 C 0.18678 0.17653 -0.42752
 C46 C 0.17363 0.16186 -0.50308
 C47 C 0.19506 0.17664 -0.57205
 C48 C 0.23082 0.20618 -0.56679
 H49 H 0.37832 0.34249 -0.48297
 H50 H 0.27128 0.27958 -0.61008
 H51 H 0.29786 0.24855 -0.36188
 H52 H 0.23255 0.21799 -0.36463
 H53 H 0.14536 0.13949 -0.50892
 H54 H 0.24775 0.21539 -0.62160
 C55 C -0.19029 0.85356 -0.48796
 C56 C -0.20391 0.83768 -0.56227
 C57 C -0.23166 0.80092 -0.56473
 C58 C -0.25079 0.78302 -0.49407
 C59 C -0.23708 0.80095 -0.42039
 C60 C -0.20526 0.83438 -0.41740
 C61 C -0.28460 0.74628 -0.49706
 C62 C -0.29762 0.72361 -0.42705
 C63 C -0.32943 0.69004 -0.42997
 C64 C -0.34755 0.67744 -0.50320
 C65 C -0.33478 0.69847 -0.57325
 C66 C -0.30465 0.73325 -0.57007
 H67 H -0.16623 0.87995 -0.48495
 H68 H -0.23917 0.78793 -0.62265
 H69 H -0.24977 0.78927 -0.36403
 H70 H -0.28314 0.73065 -0.36949
 H71 H -0.37127 0.65079 -0.50579
 H72 H -0.29754 0.74932 -0.62565
 N73 N -0.05700 0.92725 -0.07151
 N74 N -0.08616 0.89656 -0.09051
 N75 N 0.03919 0.95449 -0.13405
 N76 N 0.07094 0.94768 -0.18875
 N77 N 0.04021 0.92434 -0.07935
 N78 N 0.07295 0.89604 -0.09595
 N79 N -0.05739 0.95730 -0.12644
 N80 N -0.08666 0.94785 -0.18368
 C81 C -0.10470 0.91010 -0.16042
 C82 C 0.09239 0.91158 -0.16394
 N83 N 0.04428 1.07625 -0.08223
 N84 N 0.07424 1.10574 -0.10360
 N85 N -0.05505 1.04905 -0.12762
 N86 N -0.08721 1.05860 -0.18043
 N87 N -0.05223 1.07914 -0.07376
 N88 N -0.08212 1.10999 -0.08911
 N89 N 0.04202 1.04621 -0.13620
 N90 N 0.07072 1.05446 -0.19527
 Mn91 Mn -0.00783 1.00174 -0.13167
 C92 C 0.09125 1.09156 -0.17384
 C93 C -0.10444 1.09662 -0.15526
 N94 N 0.04424 0.92436 0.09402
 N95 N 0.06879 0.89084 0.11728
 N96 N -0.04936 0.95883 0.15503
 N97 N -0.08002 0.95360 0.21211
 N98 N -0.05252 0.92825 0.10191
 N99 N -0.08561 0.90121 0.12210
 N100 N 0.04716 0.95511 0.14699
 N101 N 0.07380 0.94328 0.20683
 Mn102 Mn -0.00631 0.92551 0.01120
 C103 C 0.08753 0.90345 0.18723
 C104 C -0.10310 0.91810 0.19039
 N105 N -0.04686 1.08016 0.09731
 N106 N -0.07162 1.11339 0.12054
 N107 N 0.05059 1.04720 0.14417
 N108 N 0.07971 1.05754 0.20119
 N109 N 0.04973 1.07694 0.08866
 N110 N 0.07845 1.10808 0.10653
 N111 N -0.04578 1.05076 0.15332
 N112 N -0.06949 1.06348 0.21604
 Mn113 Mn -0.00129 1.07839 0.00739
 Mn114 Mn 0.00070 1.00290 0.15014
 Cl115 Cl -0.00368 1.00203 0.00936
 C116 C -0.08573 1.10248 0.19470
 C117 C 0.09718 1.09534 0.17660
 N118 N 0.54579 0.45979 -0.13161
 N119 N 0.57350 0.45042 -0.19138
 N120 N 0.45483 0.42135 -0.06917
 N121 N 0.43411 0.38531 -0.08840
 N122 N 0.44982 0.44982 -0.12642
 N123 N 0.42545 0.43380 -0.18546
 N124 N 0.55075 0.43186 -0.07368
 N125 N 0.58214 0.40296 -0.09270
 C126 C 0.59635 0.41507 -0.16619
 C127 C 0.41475 0.39409 -0.15994
 N128 N 0.45327 0.45808 0.15340
 N129 N 0.42294 0.44865 0.20931
 N130 N 0.55302 0.43646 0.09737
 N131 N 0.58654 0.40975 0.11717
 N132 N 0.54986 0.46756 0.14929
 N133 N 0.58123 0.46285 0.20560
 N134 N 0.45696 0.42665 0.10237
 N135 N 0.42970 0.39487 0.12302
 Mn136 Mn 0.50395 0.42880 0.01439
 C137 C 0.40780 0.40920 0.18918
 C138 C 0.60467 0.42723 0.18384
 N139 N 0.43840 0.54120 -0.13476
 N140 N 0.40528 0.54356 -0.18822
 N141 N 0.53179 0.58260 -0.08962
 N142 N 0.56024 0.61359 -0.11107
 N143 N 0.53453 0.55080 -0.14025
 N144 N 0.56483 0.55906 -0.19674
 N145 N 0.43505 0.57274 -0.08368
 N146 N 0.39920 0.59735 -0.10135
 Mn147 Mn 0.49207 0.50052 -0.13365
 C148 C 0.38032 0.57811 -0.16599
 C149 C 0.58136 0.59792 -0.17730
 N150 N 0.53861 0.55869 0.14011
 N151 N 0.56717 0.57194 0.19566
 N152 N 0.43795 0.57829 0.08937
 N153 N 0.40847 0.60837 0.11179
 N154 N 0.44232 0.54925 0.14581
 N155 N 0.41565 0.55857 0.20708
 N156 N 0.53378 0.58780 0.08391
 N157 N 0.55837 0.62206 0.10101
 Mn158 Mn 0.49601 0.50838 0.14763
 Mn159 Mn 0.48458 0.58089 -0.00027
 Cl160 Cl 0.49410 0.50472 0.00705
 C161 C 0.57992 0.61101 0.16979
 C162 C 0.39422 0.59502 0.18474
 C163 C 0.35442 0.31350 0.29877
 C164 C 0.34188 0.33422 0.37094
 C165 C 0.34423 0.37875 0.37523
 C166 C 0.36240 0.40254 0.31287
 C167 C 0.37786 0.38295 0.24255
 C168 C 0.36980 0.33839 0.23226
 C169 C 0.35331 0.26853 0.29163
 C170 C 0.36264 0.24884 0.21902
 C171 C 0.37322 0.27335 0.15229
 C172 C 0.37675 0.31760 0.15847
 H173 H 0.34550 0.24799 0.34167
 H174 H 0.36095 0.21440 0.21423
 H175 H 0.37892 0.25798 0.09538
 H176 H 0.38310 0.33489 0.10396
 H177 H 0.33382 0.39521 0.42912
 H178 H 0.36627 0.43660 0.32166
 C179 C -0.19208 0.90285 0.35571
 C180 C -0.18811 0.85789 0.36732
 C181 C -0.16472 0.83356 0.30957
 C182 C -0.13979 0.85341 0.24856
 C183 C -0.13874 0.89804 0.24186
 C184 C -0.16787 0.92289 0.29180
 C185 C -0.22168 0.92803 0.40377
 C186 C -0.22670 0.97172 0.39012
 C187 C -0.20335 0.99116 0.32744
 C188 C -0.17446 0.96713 0.27832
 H189 H -0.24235 0.91403 0.45075
 H190 H -0.24965 0.99043 0.42729
 H191 H -0.20845 1.02487 0.31584
 H192 H -0.15885 0.98334 0.22813
 H193 H -0.16195 0.79917 0.31589
 H194 H -0.11860 0.83382 0.20983
 C195 C 0.67457 0.65314 0.30344
 C196 C 0.64821 0.68217 0.34968
 C197 C 0.60279 0.69181 0.32743
 C198 C 0.58231 0.67120 0.26313
 C199 C 0.60663 0.64015 0.22015
 C200 C 0.65349 0.63188 0.23816
 C201 C 0.72097 0.64366 0.32225
 C202 C 0.74620 0.61460 0.27657
 C203 C 0.72565 0.59415 0.21222
 C204 C 0.67959 0.60231 0.19340
 H205 H 0.73816 0.65870 0.37195
 H206 H 0.78183 0.60780 0.29136
 H207 H 0.74538 0.57153 0.17721
 H208 H 0.66472 0.58570 0.14315
 H209 H 0.58231 0.71380 0.36267
 H210 H 0.54620 0.67727 0.25053
 C211 C 0.14219 1.18513 0.30976
 C212 C 0.17718 1.16206 0.35038
 C213 C 0.18838 1.12060 0.32640
 C214 C 0.16372 1.10080 0.26600
 C215 C 0.12698 1.12174 0.22791
 C216 C 0.11634 1.16478 0.24845
 C217 C 0.13082 1.22737 0.33192
 C218 C 0.09465 1.24915 0.29498
 C219 C 0.06873 1.22917 0.23641
 C220 C 0.07901 1.18740 0.21366
 H221 H 0.14970 1.24389 0.37799
 H222 H 0.08635 1.28154 0.31251
 H223 H 0.04025 1.24606 0.20873
 H224 H 0.05686 1.17346 0.16945
 H225 H 0.21460 1.10250 0.35803
 H226 H 0.17196 1.06792 0.25153
 C227 C 0.65104 0.32580 -0.29251
 C228 C 0.67330 0.35202 -0.35084
 C229 C 0.67350 0.39643 -0.34013
 C230 C 0.65126 0.41519 -0.27619
 C231 C 0.62773 0.39073 -0.21947
 C232 C 0.62920 0.34526 -0.22493
 C233 C 0.64606 0.28116 -0.30323
 C234 C 0.62407 0.25595 -0.24639
 C235 C 0.60540 0.27447 -0.17863
 C236 C 0.60733 0.31851 -0.16817
 H237 H 0.65769 0.26505 -0.35633
 H238 H 0.62107 0.22186 -0.25546
 H239 H 0.58833 0.25466 -0.13461
 H240 H 0.59127 0.33040 -0.11498
 H241 H 0.69075 0.41718 -0.38254
 H242 H 0.65090 0.44974 -0.27280
 C243 C 0.18075 0.89079 -0.32771
 C244 C 0.17555 0.84586 -0.33571
 C245 C 0.15286 0.82323 -0.27469
 C246 C 0.12885 0.84489 -0.21475
 C247 C 0.12830 0.88965 -0.21237
 C248 C 0.15778 0.91266 -0.26466
 C249 C 0.21011 0.91411 -0.37913
 C250 C 0.21650 0.95784 -0.36894
 C251 C 0.19461 0.97906 -0.30674
 C252 C 0.16564 0.95687 -0.25483
 H253 H 0.22943 0.89853 -0.42609
 H254 H 0.23934 0.97516 -0.40850
 H255 H 0.20079 1.01277 -0.29783
 H256 H 0.15099 0.97438 -0.20539
 H257 H 0.14917 0.78885 -0.27819
 H258 H 0.10761 0.82660 -0.17398
 C259 C 0.29410 0.59232 -0.33557
 C260 C 0.29372 0.63772 -0.34061
 C261 C 0.31132 0.66116 -0.27614
 C262 C 0.33618 0.64092 -0.21557
 C263 C 0.34282 0.59656 -0.21597
 C264 C 0.31806 0.57164 -0.27195
 C265 C 0.26933 0.56712 -0.39054
 C266 C 0.26894 0.52273 -0.38397
 C267 C 0.29204 0.50257 -0.32159
 C268 C 0.31592 0.52664 -0.26552
 H269 H 0.24911 0.58157 -0.43776
 H270 H 0.24981 0.50393 -0.42658
 H271 H 0.29077 0.46814 -0.31574
 H272 H 0.33113 0.50966 -0.21577
 H273 H 0.31072 0.69578 -0.27704
 H274 H 0.35350 0.66056 -0.17191
 C275 C -0.15836 1.19064 -0.26975
 C276 C -0.17813 1.16731 -0.33364
 C277 C -0.18113 1.12284 -0.32771
 C278 C -0.16061 1.10095 -0.26486
 C279 C -0.13725 1.12267 -0.20418
 C280 C -0.14004 1.16821 -0.20221
 C281 C -0.15468 1.23565 -0.27258
 C282 C -0.13720 1.25831 -0.20816
 C283 C -0.12294 1.23680 -0.13988
 C284 C -0.12422 1.19234 -0.13663
 H285 H -0.16501 1.25403 -0.32415
 H286 H -0.13525 1.29281 -0.21088
 H287 H -0.11059 1.25468 -0.08912
 H288 H -0.11433 1.17793 -0.08088
 H289 H -0.19674 1.10458 -0.37529
 H290 H -0.16068 1.06635 -0.26651
 C291 C 0.66858 0.62444 -0.34115
 C292 C 0.65585 0.66740 -0.35650
 C293 C 0.62505 0.68809 -0.30496
 C294 C 0.60380 0.66587 -0.24277
 C295 C 0.61286 0.62232 -0.23028
 C296 C 0.64752 0.60187 -0.27678
 C297 C 0.70191 0.60345 -0.38858
 C298 C 0.71488 0.56140 -0.37213
 C299 C 0.69538 0.53971 -0.30794
 C300 C 0.66211 0.55959 -0.26048
 H301 H 0.71867 0.61953 -0.43791
 H302 H 0.74067 0.54577 -0.40870
 H303 H 0.70643 0.50741 -0.29448
 H304 H 0.64895 0.54187 -0.20994
 H305 H 0.61532 0.72107 -0.31586
 H306 H 0.57779 0.68216 -0.20762
 C307 C 0.15128 1.18219 -0.29084
 C308 C 0.16604 1.15832 -0.35872
 C309 C 0.15979 1.11384 -0.35800
 C310 C 0.13812 1.09334 -0.29531
 C311 C 0.12258 1.11572 -0.22837
 C312 C 0.13223 1.16037 -0.22305
 C313 C 0.15149 1.22741 -0.29071
 C314 C 0.13958 1.25026 -0.22266
 C315 C 0.12645 1.22880 -0.15379
 C316 C 0.12249 1.18447 -0.15377
 H317 H 0.15974 1.24578 -0.34341
 H318 H 0.14082 1.28482 -0.22326
 H319 H 0.11848 1.24667 -0.10033
 H320 H 0.11307 1.17004 -0.09790
 H321 H 0.17180 1.09422 -0.40702
 H322 H 0.13243 1.05931 -0.30064
 C323 C 0.40808 0.31251 -0.32679
 C324 C 0.35966 0.31171 -0.33825
 C325 C 0.33077 0.33273 -0.28380
 C326 C 0.34923 0.35740 -0.22274
 C327 C 0.39698 0.36130 -0.21417
 C328 C 0.42696 0.33783 -0.26466
 C329 C 0.43816 0.28947 -0.37719
 C330 C 0.48584 0.29206 -0.36762
 C331 C 0.50438 0.31751 -0.30793
 C332 C 0.47541 0.34016 -0.25660
 H333 H 0.42500 0.26919 -0.42402
 H334 H 0.50854 0.27436 -0.40688
 H335 H 0.54139 0.31971 -0.30148
 H336 H 0.49129 0.35940 -0.21081
 H337 H 0.29372 0.33272 -0.29228
 H338 H 0.32611 0.37546 -0.18469
 C339 C -0.15145 0.82359 -0.29979
 C340 C -0.18502 0.84844 -0.34082
 C341 C -0.19470 0.88995 -0.31520
 C342 C -0.17030 0.90790 -0.25248
 C343 C -0.13530 0.88507 -0.21315
 C344 C -0.12620 0.84198 -0.23540
 C345 C -0.14068 0.78155 -0.32424
 C346 C -0.10638 0.75792 -0.28593
 C347 C -0.08159 0.77578 -0.22366
 C348 C -0.09094 0.81740 -0.19894
 H349 H -0.15827 0.76654 -0.37341
 H350 H -0.09865 0.72572 -0.30526
 H351 H -0.05460 0.75741 -0.19477
 H352 H -0.06978 0.82960 -0.15161
 H353 H -0.21992 0.90935 -0.34660
 H354 H -0.17737 0.94086 -0.23689
 C355 C 0.35798 0.67800 0.33957
 C356 C 0.31885 0.65702 0.37187
 C357 C 0.30356 0.61901 0.33726
 C358 C 0.32700 0.60090 0.27321
 C359 C 0.36627 0.62034 0.24117
 C360 C 0.38193 0.65951 0.27360
 C361 C 0.37523 0.71582 0.37388
 C362 C 0.41479 0.73521 0.34362
 C363 C 0.43824 0.71715 0.27955
 C364 C 0.42230 0.67957 0.24501
 H365 H 0.35875 0.73052 0.42477
 H366 H 0.42758 0.76419 0.37055
 H367 H 0.46921 0.73214 0.25691
 H368 H 0.44223 0.66644 0.19641
 H369 H 0.27407 0.60241 0.36200
 H370 H 0.31532 0.57051 0.25019
 C371 C -0.12774 1.19755 0.32239
 C372 C -0.15569 1.17442 0.37751
 C373 C -0.16129 1.13031 0.36694
 C374 C -0.14002 1.10893 0.30497
 C375 C -0.11162 1.13025 0.25070
 C376 C -0.10547 1.17529 0.25825
 C377 C -0.11789 1.24136 0.33356
 C378 C -0.08919 1.26331 0.28109
 C379 C -0.06843 1.24204 0.21801
 C380 C -0.07571 1.19850 0.20723
 H381 H -0.13103 1.25905 0.38387
 H382 H -0.08235 1.29690 0.29034
 H383 H -0.04571 1.25922 0.17803
 H384 H -0.05687 1.18389 0.15923
 H385 H -0.18263 1.11189 0.40749
 H386 H -0.14499 1.07475 0.30059
 C387 C 0.69303 0.40563 0.34816
 C388 C 0.68603 0.36109 0.35845
 C389 C 0.65976 0.33886 0.30249
 C390 C 0.63659 0.36067 0.24188
 C391 C 0.63867 0.40536 0.23598
 C392 C 0.66910 0.42801 0.28659
 C393 C 0.72305 0.42843 0.39863
 C394 C 0.72871 0.47236 0.38966
 C395 C 0.70542 0.49424 0.32951
 C396 C 0.67637 0.47239 0.27766
 H397 H 0.74269 0.41244 0.44489
 H398 H 0.75158 0.48947 0.42915
 H399 H 0.71019 0.52827 0.32271
 H400 H 0.66048 0.49052 0.22997
 H401 H 0.65428 0.30482 0.30930
 H402 H 0.61399 0.34270 0.20320
 C403 C 0.11542 0.81572 0.33993
 C404 C 0.15515 0.83404 0.37493
 C405 C 0.17342 0.87167 0.34300
 C406 C 0.15229 0.89209 0.27885
 C407 C 0.11230 0.87552 0.24426
 C408 C 0.09358 0.83667 0.27412
 C409 C 0.09559 0.77813 0.37147
 C410 C 0.05543 0.76133 0.33885
 C411 C 0.03385 0.78188 0.27528
 C412 C 0.05234 0.81929 0.24348
 H413 H 0.11057 0.76158 0.42197
 H414 H 0.04067 0.73248 0.36364
 H415 H 0.00231 0.76896 0.25091
 H416 H 0.03348 0.83430 0.19553
 H417 H 0.20351 0.88615 0.36980
 H418 H 0.16645 0.92206 0.25770
   
