data_POSCAR
  _audit_creation_date              2014-09-24
  _audit_creation_method            'ToBaCCo'
  _symmetry_space_group_name_H-M    'P1'
  _symmetry_Int_Tables_number       1
  _symmetry_cell_setting            triclinic
  loop_
  _symmetry_equiv_pos_as_xyz
 x,y,z
_cell_length_a 39.9394
_cell_length_b 39.5963
_cell_length_c 41.8318
_cell_angle_alpha 90.367000
_cell_angle_beta 90.019800
_cell_angle_gamma 89.600600
loop_
  _atom_site_label
  _atom_site_type_symbol
  _atom_site_fract_x
  _atom_site_fract_y
  _atom_site_fract_z
C1 C 0.42025 0.27081 0.01242
 C2 C 0.42186 0.27147 -0.02024
 C3 C 0.39103 0.28331 -0.03096
 N4 N 0.37084 0.29039 -0.00580
 C5 C 0.38864 0.28247 0.02071
 C6 C 0.38077 0.28467 -0.06336
 C7 C 0.35248 0.30435 -0.07239
 C8 C 0.33227 0.29872 -0.09887
 C9 C 0.30881 0.32433 -0.09939
 C10 C 0.31513 0.34487 -0.07313
 N11 N 0.34128 0.33206 -0.05641
 C12 C 0.29701 0.37454 -0.06460
 C13 C 0.29376 0.38413 -0.03202
 C14 C 0.28128 0.41493 -0.02094
 C15 C 0.27771 0.41206 0.01145
 C16 C 0.28871 0.37995 0.01928
 N17 N 0.29872 0.36290 -0.00723
 C18 C 0.28646 0.36581 0.05002
 C19 C 0.30553 0.33726 0.05887
 C20 C 0.30028 0.31753 0.08566
 C21 C 0.32588 0.29402 0.08638
 C22 C 0.34576 0.30001 0.05989
 N23 N 0.33319 0.32630 0.04328
 C24 C 0.37562 0.28268 0.05205
 H25 H 0.44005 0.26247 0.02825
 H26 H 0.44339 0.26399 -0.03436
 H27 H 0.34484 0.33821 0.02416
 H28 H 0.33356 0.27783 -0.11562
 H29 H 0.28868 0.32676 -0.11656
 H30 H 0.27504 0.43720 -0.03460
 H31 H 0.26807 0.43139 0.02746
 H32 H 0.32930 0.27466 0.10425
 H33 H 0.35261 0.34329 -0.03655
 H34 H 0.28023 0.31979 0.10293
 C35 C 0.76974 0.63396 -0.00587
 C36 C 0.76551 0.62919 0.02630
 C37 C 0.73196 0.63512 0.03253
 N38 N 0.71538 0.64284 0.00533
 C39 C 0.73836 0.64145 -0.01836
 C40 C 0.71635 0.63026 0.06225
 C41 C 0.68518 0.64553 0.06938
 C42 C 0.66335 0.63583 0.09332
 C43 C 0.63753 0.65908 0.09355
 C44 C 0.64434 0.68217 0.06967
 N45 N 0.67323 0.67354 0.05488
 C46 C 0.62517 0.71135 0.06283
 C47 C 0.62611 0.72702 0.03256
 C48 C 0.61023 0.75719 0.02499
 C49 C 0.61416 0.76156 -0.00728
 C50 C 0.63267 0.73416 -0.01837
 N51 N 0.63986 0.71301 0.00600
 C52 C 0.63926 0.72709 -0.05090
 C53 C 0.66209 0.70169 -0.06120
 C54 C 0.66514 0.68982 -0.09234
 C55 C 0.69055 0.66626 -0.09246
 C56 C 0.70314 0.66484 -0.06152
 N57 N 0.68571 0.68675 -0.04273
 C58 C 0.73049 0.64440 -0.05132
 H59 H 0.79318 0.63168 -0.01870
 H60 H 0.78486 0.62226 0.04321
 H61 H 0.69149 0.69332 -0.01926
 H62 H 0.66565 0.61429 0.10897
 H63 H 0.61612 0.65885 0.10939
 H64 H 0.59667 0.77408 0.04087
 H65 H 0.60399 0.78229 -0.02104
 H66 H 0.69853 0.65194 -0.11323
 H67 H 0.68598 0.68801 0.03814
 H68 H 0.65075 0.69719 -0.11306
 C69 C 0.58394 0.27475 0.98449
 C70 C 0.58304 0.27477 1.01723
 C71 C 0.61140 0.29166 1.02753
 N72 N 0.62947 0.30223 1.00220
 C73 C 0.61273 0.29178 0.97587
 C74 C 0.62211 0.29383 1.05962
 C75 C 0.64923 0.31435 1.06906
 C76 C 0.66840 0.30953 1.09625
 C77 C 0.69157 0.33505 1.09699
 C78 C 0.68547 0.35528 1.07057
 N79 N 0.65992 0.34208 1.05337
 C80 C 0.70296 0.38527 1.06271
 C81 C 0.70432 0.39694 1.03070
 C82 C 0.71528 0.42866 1.02146
 C83 C 0.71602 0.42864 0.98876
 C84 C 0.70514 0.39714 0.97890
 N85 N 0.69780 0.37777 1.00452
 C86 C 0.70493 0.38587 0.94681
 C87 C 0.68773 0.35648 0.93711
 C88 C 0.69296 0.33891 0.90873
 C89 C 0.66999 0.31317 0.90794
 C90 C 0.65156 0.31565 0.93594
 N91 N 0.66247 0.34212 0.95355
 C92 C 0.62474 0.29444 0.94429
 H93 H 0.56579 0.26302 0.96882
 H94 H 0.56399 0.26304 1.03174
 H95 H 0.65126 0.35178 0.97417
 H96 H 0.66647 0.28926 1.11336
 H97 H 0.71115 0.33772 1.11467
 H98 H 0.72209 0.44979 1.03659
 H99 H 0.72374 0.44949 0.97392
 H100 H 0.66740 0.29460 0.88903
 H101 H 0.64847 0.35307 1.03355
 H102 H 0.71151 0.34388 0.89055
 C103 C 0.23861 0.62207 1.01908
 C104 C 0.24021 0.61872 0.98650
 C105 C 0.27232 0.62780 0.97770
 N106 N 0.29065 0.63551 1.00396
 C107 C 0.27030 0.63134 1.02940
 C108 C 0.28557 0.62615 0.94640
 C109 C 0.31511 0.64319 0.93804
 C110 C 0.33279 0.63886 0.90974
 C111 C 0.35697 0.66354 0.90926
 C112 C 0.35326 0.68210 0.93728
 N113 N 0.32778 0.66953 0.95458
 C114 C 0.37005 0.71224 0.94476
 C115 C 0.36952 0.72641 0.97582
 C116 C 0.37878 0.75907 0.98372
 C117 C 0.37691 0.76156 1.01634
 C118 C 0.36811 0.72991 1.02749
 N119 N 0.36297 0.70864 1.00261
 C120 C 0.36731 0.71999 1.06004
 C121 C 0.34712 0.69264 1.07001
 C122 C 0.34990 0.67626 1.09914
 C123 C 0.32570 0.65177 1.09960
 C124 C 0.30861 0.65371 1.07074
 N125 N 0.32186 0.67872 1.05285
 C126 C 0.28116 0.63313 1.06172
 H127 H 0.21666 0.61754 1.03355
 H128 H 0.21983 0.61057 0.97139
 H129 H 0.31246 0.68753 1.03120
 H130 H 0.32801 0.62068 0.89088
 H131 H 0.37443 0.66806 0.89000
 H132 H 0.38607 0.77919 0.96791
 H133 H 0.38196 0.78408 1.03026
 H134 H 0.32178 0.63414 1.11886
 H135 H 0.31672 0.68120 0.97433
 H136 H 0.36791 0.68084 1.11797
 C137 C -0.01892 0.29556 0.43523
 C138 C 0.01532 0.29571 0.43549
 C139 C 0.02528 0.30515 0.40519
 N140 N -0.00168 0.31068 0.38626
 C141 C -0.02885 0.30443 0.40452
 C142 C 0.05877 0.30548 0.39462
 C143 C 0.06841 0.32237 0.36656
 C144 C 0.09857 0.31807 0.35051
 C145 C 0.09878 0.34123 0.32612
 C146 C 0.06852 0.35847 0.32775
 N147 N 0.05021 0.34691 0.35240
 C148 C 0.05895 0.38540 0.30800
 C149 C 0.02526 0.39580 0.30514
 C150 C 0.01464 0.42636 0.29275
 C151 C -0.01964 0.42502 0.29138
 C152 C -0.02873 0.39333 0.30231
 N153 N -0.00122 0.37573 0.31128
 C154 C -0.06150 0.37974 0.30177
 C155 C -0.07052 0.35335 0.32275
 C156 C -0.09772 0.33217 0.31863
 C157 C -0.09774 0.31036 0.34406
 C158 C -0.07096 0.31914 0.36352
 N159 N -0.05419 0.34507 0.35004
 C160 C -0.06217 0.30345 0.39287
 H161 H -0.03459 0.28937 0.45542
 H162 H 0.03111 0.28948 0.45568
 H163 H -0.03422 0.35814 0.36021
 H164 H 0.11845 0.30026 0.35575
 H165 H 0.11880 0.34486 0.30908
 H166 H 0.03000 0.44734 0.28542
 H167 H -0.03595 0.44503 0.28302
 H168 H -0.11501 0.28972 0.34711
 H169 H 0.02806 0.35765 0.36101
 H170 H -0.11517 0.33170 0.29884
 C171 C 0.02011 0.72998 0.58804
 C172 C -0.01399 0.73138 0.58940
 C173 C -0.02399 0.71077 0.61445
 N174 N 0.00341 0.69563 0.62730
 C175 C 0.03039 0.70789 0.61161
 C176 C -0.05796 0.70309 0.62232
 C177 C -0.06624 0.67681 0.64398
 C178 C -0.09687 0.66036 0.64538
 C179 C -0.09576 0.63922 0.67126
 C180 C -0.06472 0.64341 0.68553
 N181 N -0.04683 0.66621 0.66863
 C182 C -0.05399 0.62743 0.71414
 C183 C -0.01983 0.62815 0.72342
 C184 C -0.00779 0.62465 0.75440
 C185 C 0.02638 0.62245 0.75223
 C186 C 0.03413 0.62605 0.72021
 N187 N 0.00597 0.62974 0.70260
 C188 C 0.06651 0.62297 0.70730
 C189 C 0.07470 0.63727 0.67749
 C190 C 0.10343 0.63062 0.65988
 C191 C 0.10300 0.65241 0.63438
 C192 C 0.07355 0.67102 0.63667
 N193 N 0.05650 0.66169 0.66297
 C194 C 0.06406 0.69726 0.61592
 H195 H 0.03532 0.74227 0.57023
 H196 H -0.02928 0.74452 0.57212
 H197 H 0.03561 0.67399 0.67247
 H198 H -0.11808 0.66282 0.62952
 H199 H -0.11575 0.62265 0.67854
 H200 H -0.02214 0.62343 0.77629
 H201 H 0.04362 0.61891 0.77191
 H202 H 0.12210 0.65411 0.61613
 H203 H -0.02419 0.67675 0.67573
 H204 H 0.12288 0.61224 0.66482
 C205 C 0.98852 0.64426 0.23260
 C206 C 1.02289 0.64500 0.23183
 C207 C 1.03368 0.64263 0.26329
 N208 N 1.00714 0.64188 0.28324
 C209 C 0.97963 0.64239 0.26450
 C210 C 1.06709 0.63788 0.27376
 C211 C 1.07676 0.64986 0.30446
 C212 C 1.10567 0.64075 0.32088
 C213 C 1.10574 0.65896 0.34902
 C214 C 1.07697 0.67870 0.34911
 N215 N 1.05936 0.67289 0.32202
 C216 C 1.06796 0.70240 0.37311
 C217 C 1.03443 0.71299 0.37777
 C218 C 1.02442 0.73955 0.39740
 C219 C 0.99011 0.73923 0.39803
 C220 C 0.98020 0.71247 0.37879
 N221 N 1.00735 0.69650 0.36632
 C222 C 0.94681 0.70144 0.37503
 C223 C 0.93798 0.67722 0.35162
 C224 C 0.90947 0.65740 0.35185
 C225 C 0.90945 0.63922 0.32365
 C226 C 0.93808 0.64832 0.30719
 N227 N 0.95535 0.67133 0.32444
 C228 C 0.94703 0.63730 0.27625
 H229 H 0.97195 0.64474 0.21212
 H230 H 1.03820 0.64645 0.21055
 H231 H 0.97602 0.68488 0.31654
 H232 H 1.12458 0.62250 0.31385
 H233 H 1.12464 0.65737 0.36750
 H234 H 1.04016 0.75721 0.41018
 H235 H 0.97434 0.75663 0.41135
 H236 H 0.89051 0.62142 0.31618
 H237 H 1.03810 0.68615 0.31467
 H238 H 0.89064 0.65606 0.37038
 C239 C 0.98046 0.42515 0.72102
 C240 C 1.01468 0.42594 0.72023
 C241 C 1.02544 0.39427 0.70981
 N242 N 0.99871 0.37439 0.70366
 C243 C 0.97124 0.39326 0.71066
 C244 C 1.05932 0.38328 0.70840
 C245 C 1.06833 0.35295 0.69210
 C246 C 1.09660 0.33331 0.69804
 C247 C 1.09650 0.30727 0.67615
 C248 C 1.06779 0.31115 0.65797
 N249 N 1.05059 0.33883 0.66794
 C250 C 1.05863 0.29002 0.63217
 C251 C 1.02527 0.28707 0.62158
 C252 C 1.01538 0.26957 0.59439
 C253 C 0.98108 0.26965 0.59447
 C254 C 0.97118 0.28721 0.62168
 N255 N 0.99823 0.29791 0.63823
 C256 C 0.93778 0.29051 0.63224
 C257 C 0.92844 0.31141 0.65818
 C258 C 0.89888 0.30876 0.67529
 C259 C 0.89913 0.33420 0.69785
 C260 C 0.92866 0.35185 0.69356
 N261 N 0.94641 0.33773 0.66939
 C262 C 0.93805 0.38124 0.71049
 H263 H 0.96418 0.44574 0.72837
 H264 H 1.02976 0.44754 0.72665
 H265 H 0.96796 0.34753 0.65907
 H266 H 1.11513 0.33678 0.71660
 H267 H 1.11509 0.28733 0.67428
 H268 H 1.03121 0.25753 0.57662
 H269 H 0.96525 0.25769 0.57677
 H270 H 0.87975 0.33897 0.71540
 H271 H 1.02957 0.34927 0.65687
 H272 H 0.87934 0.29025 0.67207
 C273 C 0.35235 0.01782 0.23604
 C274 C 0.35239 -0.01681 0.23674
 C275 C 0.35410 -0.02586 0.26870
 N276 N 0.35398 0.00190 0.28753
 C277 C 0.35327 0.02854 0.26758
 C278 C 0.35922 -0.05886 0.28049
 C279 C 0.34576 -0.06794 0.31060
 C280 C 0.35307 -0.09733 0.32713
 C281 C 0.33339 -0.09706 0.35409
 C282 C 0.31480 -0.06723 0.35373
 N283 N 0.32261 -0.04968 0.32712
 C284 C 0.28934 -0.05803 0.37592
 C285 C 0.28206 -0.02341 0.38313
 C286 C 0.26436 -0.01203 0.40977
 C287 C 0.26512 0.02242 0.40946
 C288 C 0.28392 0.03155 0.38315
 N289 N 0.29493 0.00349 0.36751
 C290 C 0.29228 0.06543 0.37573
 C291 C 0.31473 0.07457 0.35127
 C292 C 0.33008 0.10577 0.34869
 C293 C 0.34906 0.10479 0.32118
 C294 C 0.34425 0.07323 0.30749
 N295 N 0.32321 0.05510 0.32592
 C296 C 0.35736 0.06216 0.27785
 H297 H 0.35211 0.03338 0.21486
 H298 H 0.35208 -0.03348 0.21613
 H299 H 0.31255 0.03206 0.31984
 H300 H 0.37075 -0.11705 0.32075
 H301 H 0.33356 -0.11659 0.37202
 H302 H 0.25373 -0.02664 0.42895
 H303 H 0.25446 0.03872 0.42771
 H304 H 0.36422 0.12518 0.31222
 H305 H 0.31012 -0.02825 0.31890
 H306 H 0.32799 0.12701 0.36499
 C307 C 0.59019 -0.02449 0.72355
 C308 C 0.59216 0.00993 0.72634
 C309 C 0.62387 0.01870 0.71614
 N310 N 0.64150 -0.00919 0.70741
 C311 C 0.62109 -0.03577 0.71245
 C312 C 0.63669 0.05187 0.71631
 C313 C 0.66346 0.06151 0.69652
 C314 C 0.68050 0.09183 0.69876
 C315 C 0.70228 0.09269 0.67327
 C316 C 0.69783 0.06289 0.65623
 N317 N 0.67413 0.04408 0.67057
 C318 C 0.71383 0.05464 0.62711
 C319 C 0.71277 0.02187 0.61358
 C320 C 0.72193 0.01365 0.58252
 C321 C 0.72016 -0.02081 0.57997
 C322 C 0.70968 -0.03247 0.60948
 N323 N 0.70513 -0.00637 0.62998
 C324 C 0.70790 -0.06679 0.61809
 C325 C 0.69128 -0.07756 0.64605
 C326 C 0.69564 -0.10870 0.66048
 C327 C 0.67371 -0.10971 0.68579
 C328 C 0.65665 -0.07903 0.68631
 N329 N 0.66762 -0.05955 0.66204
 C330 C 0.63078 -0.07007 0.70800
 H331 H 0.56826 -0.03939 0.72872
 H332 H 0.57228 0.02666 0.73435
 H333 H 0.65725 -0.03656 0.65498
 H334 H 0.67721 0.11151 0.71658
 H335 H 0.71912 0.11313 0.66771
 H336 H 0.72937 0.03064 0.56369
 H337 H 0.72614 -0.03562 0.55887
 H338 H 0.67103 -0.13055 0.70217
 H339 H 0.66295 0.02253 0.66121
 H340 H 0.71298 -0.12861 0.65375
 C341 C 0.40636 0.98242 0.73812
 C342 C 0.40498 1.01688 0.73877
 C343 C 0.38016 1.02677 0.71737
 N344 N 0.36517 0.99882 0.70520
 C345 C 0.38126 0.97173 0.71769
 C346 C 0.36852 1.06057 0.71240
 C347 C 0.33883 1.06675 0.69476
 C348 C 0.31767 1.09450 0.69856
 C349 C 0.29462 1.09311 0.67427
 C350 C 0.30239 1.06479 0.65596
 N351 N 0.32906 1.04860 0.66890
 C352 C 0.28646 1.05566 0.62695
 C353 C 0.29060 1.02284 0.61375
 C354 C 0.28608 1.01392 0.58189
 C355 C 0.28941 0.97950 0.58011
 C356 C 0.29683 0.96866 0.61070
 N357 N 0.29778 0.99513 0.63124
 C358 C 0.29926 0.93460 0.61994
 C359 C 0.31547 0.92511 0.64860
 C360 C 0.31271 0.89411 0.66354
 C361 C 0.33367 0.89502 0.68966
 C362 C 0.34829 0.92670 0.69021
 N363 N 0.33719 0.94482 0.66504
 C364 C 0.37212 0.93747 0.71298
 H365 H 0.42326 0.96715 0.75226
 H366 H 0.41938 1.03212 0.75517
 H367 H 0.34626 0.96811 0.65774
 H368 H 0.31831 1.11384 0.71689
 H369 H 0.27453 1.11114 0.67055
 H370 H 0.28090 1.03041 0.56194
 H371 H 0.28682 0.96417 0.55874
 H372 H 0.33744 0.87474 0.70655
 H373 H 0.34247 1.02885 0.65827
 H374 H 0.29713 0.87306 0.65663
 C375 C 0.59052 0.98712 0.26998
 C376 C 0.59020 1.02170 0.27038
 C377 C 0.61760 1.03193 0.28846
 N378 N 0.63485 1.00432 0.29848
 C379 C 0.61826 0.97697 0.28741
 C380 C 0.62917 1.06579 0.29158
 C381 C 0.65911 1.07364 0.30825
 C382 C 0.67664 1.10379 0.30606
 C383 C 0.70122 1.10297 0.32906
 C384 C 0.69797 1.07259 0.34488
 N385 N 0.67242 1.05485 0.33207
 C386 C 0.71660 1.06303 0.37206
 C387 C 0.71806 1.02962 0.38342
 C388 C 0.73161 1.02018 0.41256
 C389 C 0.73028 0.98563 0.41361
 C390 C 0.71634 0.97509 0.38490
 N391 N 0.70878 1.00206 0.36651
 C392 C 0.71293 0.94108 0.37502
 C393 C 0.69299 0.93154 0.34859
 C394 C 0.69420 0.90020 0.33371
 C395 C 0.67069 0.90084 0.30968
 C396 C 0.65550 0.93247 0.31071
 N397 N 0.66914 0.95096 0.33463
 C398 C 0.62905 0.94300 0.29044
 H399 H 0.57281 0.97128 0.25742
 H400 H 0.57258 1.03708 0.25723
 H401 H 0.66050 0.97425 0.34290
 H402 H 0.67205 1.12474 0.29018
 H403 H 0.71897 1.12286 0.33401
 H404 H 0.74146 1.03650 0.43112
 H405 H 0.73878 0.97011 0.43324
 H406 H 0.66550 0.88030 0.29326
 H407 H 0.66188 1.03339 0.34203
 H408 H 0.71054 0.87915 0.33936
 O409 O 0.86593 0.80931 0.46751
 O410 O 0.81608 0.85293 0.52853
 O411 O 0.86157 0.80666 0.52922
 O412 O 0.81788 0.85467 0.46647
 O413 O 0.77926 0.81516 0.46341
 O414 O 0.82378 0.76639 0.52543
 O415 O 0.77722 0.81359 0.52555
 O416 O 0.82741 0.76978 0.46313
 Cu417 Cu 0.84417 0.83487 0.49808
 Cu418 Cu 0.79808 0.78718 0.49400
 C419 C 0.85551 0.78208 0.45509
 C420 C 0.78838 0.84089 0.53756
 C421 C 0.85015 0.77831 0.53801
 C422 C 0.79084 0.84337 0.45458
 O423 O 0.18666 0.14025 0.53170
 O424 O 0.14314 0.19141 0.47207
 O425 O 0.19030 0.14669 0.47018
 O426 O 0.14024 0.18675 0.53366
 O427 O 0.17855 0.22629 0.53944
 O428 O 0.22870 0.18623 0.47518
 O429 O 0.18063 0.23181 0.47770
 O430 O 0.22533 0.17947 0.53700
 Cu431 Cu 0.16130 0.16228 0.50148
 Cu432 Cu 0.20722 0.20994 0.50790
 C433 C 0.21361 0.15077 0.54422
 C434 C 0.15408 0.22035 0.46495
 C435 C 0.21796 0.15956 0.46177
 C436 C 0.15057 0.21356 0.54708
 O437 O 0.19120 0.85420 0.46913
 O438 O 0.14904 0.80372 0.53032
 O439 O 0.19307 0.85137 0.53125
 O440 O 0.14520 0.80794 0.46893
 O441 O 0.18528 0.76954 0.46388
 O442 O 0.23336 0.81303 0.52787
 O443 O 0.18833 0.76446 0.52608
 O444 O 0.23158 0.81597 0.46579
 Cu445 Cu 0.16573 0.83321 0.50026
 Cu446 Cu 0.21365 0.78680 0.49558
 C447 C 0.21872 0.84386 0.45720
 C448 C 0.16122 0.77529 0.53837
 C449 C 0.22125 0.83994 0.54018
 C450 C 0.15679 0.78138 0.45587
 O451 O 0.86318 0.18584 0.53387
 O452 O 0.81744 0.13885 0.47278
 O453 O 0.86067 0.18738 0.47207
 O454 O 0.81737 0.13952 0.53452
 O455 O 0.77687 0.17776 0.53526
 O456 O 0.82098 0.22648 0.47363
 O457 O 0.77725 0.17748 0.47290
 O458 O 0.82311 0.22455 0.53580
 Cu459 Cu 0.84367 0.15908 0.50323
 Cu460 Cu 0.79545 0.20546 0.50455
 C461 C 0.85131 0.21316 0.54515
 C462 C 0.78967 0.14986 0.46243
 C463 C 0.84845 0.21522 0.46247
 C464 C 0.78946 0.15027 0.54524
 O465 O 0.46052 0.86297 0.82456
 O466 O 0.52396 0.82398 0.87690
 O467 O 0.52421 0.87150 0.83401
 O468 O 0.45982 0.81674 0.86772
 O469 O 0.47061 0.77779 0.83104
 O470 O 0.53502 0.83343 0.79653
 O471 O 0.53445 0.78551 0.83971
 O472 O 0.47116 0.82460 0.78731
 Cu473 Cu 0.49118 0.84762 0.85456
 Cu474 Cu 0.50400 0.80149 0.80989
 C475 C 0.45500 0.85040 0.79703
 C476 C 0.53972 0.79783 0.86736
 C477 C 0.54027 0.86213 0.80934
 C478 C 0.45412 0.78806 0.85521
 O479 O 0.53319 0.18051 0.13836
 O480 O 0.46925 0.13476 0.18373
 O481 O 0.46828 0.17731 0.13675
 O482 O 0.53419 0.13583 0.18350
 O483 O 0.53003 0.17575 0.22047
 O484 O 0.46686 0.21999 0.17100
 O485 O 0.46515 0.17721 0.21803
 O486 O 0.53200 0.22155 0.17433
 Cu487 Cu 0.50148 0.15300 0.15705
 Cu488 Cu 0.49853 0.20290 0.19951
 C489 C 0.54336 0.20893 0.14846
 C490 C 0.45622 0.14813 0.20854
 C491 C 0.45663 0.20577 0.14549
 C492 C 0.54257 0.14805 0.21036
 O493 O 0.47222 0.17310 0.86180
 O494 O 0.54562 0.13344 0.82338
 O495 O 0.53666 0.17933 0.86755
 O496 O 0.48261 0.12513 0.81932
 O497 O 0.47927 0.16424 0.78197
 O498 O 0.53629 0.21816 0.82988
 O499 O 0.54356 0.17178 0.78529
 O500 O 0.47153 0.21278 0.82496
 Cu501 Cu 0.50930 0.14905 0.84694
 Cu502 Cu 0.50740 0.19574 0.80180
 C503 C 0.45985 0.20010 0.85038
 C504 C 0.55638 0.14525 0.79716
 C505 C 0.54584 0.20778 0.85716
 C506 C 0.47249 0.13485 0.79219
 O507 O 0.53076 0.86567 0.18622
 O508 O 0.46889 0.81702 0.14089
 O509 O 0.46618 0.86326 0.18560
 O510 O 0.53297 0.82014 0.14124
 O511 O 0.53467 0.77998 0.17765
 O512 O 0.46709 0.82377 0.22259
 O513 O 0.46946 0.77721 0.17762
 O514 O 0.53229 0.82612 0.22319
 Cu515 Cu 0.49946 0.84553 0.15990
 Cu516 Cu 0.50104 0.79773 0.20400
 C517 C 0.54187 0.85447 0.21253
 C518 C 0.45913 0.78857 0.15104
 C519 C 0.45556 0.85142 0.21181
 C520 C 0.54487 0.79251 0.15149
 O521 O 0.86393 0.53292 0.81652
 O522 O 0.81628 0.47236 0.86421
 O523 O 0.85900 0.46806 0.81826
 O524 O 0.82119 0.53735 0.86423
 O525 O 0.77948 0.54081 0.82973
 O526 O 0.81851 0.47172 0.78242
 O527 O 0.77463 0.47521 0.82956
 O528 O 0.82226 0.53712 0.78205
 Cu529 Cu 0.84423 0.50265 0.84429
 Cu530 Cu 0.79448 0.50654 0.80245
 C531 C 0.85171 0.54474 0.79082
 C532 C 0.78732 0.46352 0.85514
 C533 C 0.84564 0.45840 0.79234
 C534 C 0.79351 0.55027 0.85550
 O535 O 0.11286 0.51746 0.15032
 O536 O 0.16314 0.44686 0.11831
 O537 O 0.11391 0.45302 0.15830
 O538 O 0.16077 0.51100 0.10778
 O539 O 0.19761 0.51961 0.14636
 O540 O 0.15066 0.46031 0.19720
 O541 O 0.20078 0.45491 0.15626
 O542 O 0.14987 0.52511 0.18891
 Cu543 Cu 0.13402 0.48146 0.12978
 Cu544 Cu 0.17851 0.49065 0.17609
 C545 C 0.12239 0.53282 0.17544
 C546 C 0.19081 0.43927 0.13144
 C547 C 0.12389 0.44715 0.18646
 C548 C 0.18723 0.52482 0.11807
 O549 O 0.82065 0.52833 0.13933
 O550 O 0.86170 0.46383 0.18873
 O551 O 0.81692 0.46309 0.14333
 O552 O 0.86558 0.52848 0.18434
 O553 O 0.82585 0.53431 0.22070
 O554 O 0.77634 0.46890 0.17883
 O555 O 0.82180 0.46906 0.22496
 O556 O 0.78086 0.53451 0.17560
 Cu557 Cu 0.84510 0.49528 0.16027
 Cu558 Cu 0.79708 0.50205 0.20363
 C559 C 0.79390 0.54252 0.14902
 C560 C 0.84928 0.45601 0.21561
 C561 C 0.78819 0.45522 0.15364
 C562 C 0.85437 0.54223 0.20972
 O563 O 0.18948 0.53127 0.85966
 O564 O 0.14366 0.46648 0.81472
 O565 O 0.18974 0.46533 0.85826
 O566 O 0.14330 0.53163 0.81612
 O567 O 0.18275 0.53335 0.77915
 O568 O 0.22868 0.46496 0.82078
 O569 O 0.18184 0.46760 0.77655
 O570 O 0.22939 0.53077 0.82312
 Cu571 Cu 0.16278 0.49861 0.84102
 Cu572 Cu 0.20965 0.49917 0.79613
 C573 C 0.21725 0.54202 0.84917
 C574 C 0.15449 0.45647 0.78776
 C575 C 0.21694 0.45375 0.84686
 C576 C 0.15492 0.54373 0.79046
 C577 C 0.26123 0.38087 0.07206
 C578 C 0.26773 0.38897 0.10261
 C579 C 0.24453 0.40953 0.12256
 C580 C 0.21175 0.41305 0.11625
 H581 H 0.29230 0.38359 0.11236
 H582 H 0.25550 0.42365 0.14214
 H583 H 0.23804 0.38912 0.06118
 H584 H 0.20016 0.39837 0.09743
 C585 C 0.73251 0.60603 0.08454
 C586 C 0.73455 0.61089 0.11622
 C587 C 0.75142 0.58652 0.13762
 C588 C 0.77792 0.56792 0.12840
 H589 H 0.72259 0.63270 0.12713
 H590 H 0.74228 0.58479 0.16192
 H591 H 0.74420 0.58392 0.07387
 H592 H 0.78867 0.57140 0.10490
 C593 C 0.72620 0.40452 0.92371
 C594 C 0.71592 0.41316 0.89428
 C595 C 0.73583 0.43410 0.87202
 C596 C 0.76869 0.43993 0.87544
 H597 H 0.69093 0.40636 0.88667
 H598 H 0.72247 0.44541 0.85221
 H599 H 0.74986 0.41359 0.93272
 H600 H 0.78272 0.42822 0.89453
 C601 C 0.26955 0.60416 0.92213
 C602 C 0.23898 0.61074 0.91055
 C603 C 0.22090 0.58699 0.88958
 C604 C 0.23601 0.56730 0.86770
 H605 H 0.22534 0.63272 0.91916
 H606 H 0.19392 0.58623 0.89210
 H607 H 0.28332 0.58200 0.91420
 H608 H 0.26254 0.56988 0.86304
 C609 C 0.08319 0.28452 0.41258
 C610 C 0.11413 0.29474 0.42031
 C611 C 0.13736 0.27403 0.43973
 C612 C 0.13467 0.24044 0.44212
 H613 H 0.12203 0.31994 0.41400
 H614 H 0.15678 0.28711 0.45286
 H615 H 0.07392 0.26088 0.42174
 H616 H 0.11611 0.22692 0.42833
 C617 C 0.09064 0.71367 0.59676
 C618 C 0.09583 0.74695 0.59973
 C619 C 0.11751 0.76682 0.57853
 C620 C 0.14319 0.75423 0.56154
 H621 H 0.08065 0.76125 0.61658
 H622 H 0.11156 0.79350 0.57697
 H623 H 0.10481 0.69852 0.57986
 H624 H 0.15090 0.72814 0.56420
 C625 C 0.92138 0.71478 0.39797
 C626 C 0.89001 0.72332 0.38965
 C627 C 0.86688 0.73995 0.41245
 C628 C 0.87732 0.76470 0.43188
 H629 H 0.88089 0.71823 0.36576
 H630 H 0.84066 0.73322 0.41172
 H631 H 0.92952 0.71973 0.42226
 H632 H 0.90300 0.77323 0.43037
 C633 C 0.91251 0.26860 0.61684
 C634 C 0.88506 0.28122 0.60267
 C635 C 0.86256 0.26107 0.58190
 C636 C 0.87170 0.23151 0.56864
 H637 H 0.87936 0.30788 0.60529
 H638 H 0.83872 0.27235 0.57552
 H639 H 0.91876 0.24207 0.61501
 H640 H 0.89604 0.22063 0.57345
 C641 C 0.37721 0.08581 0.25783
 C642 C 0.40463 0.07511 0.24204
 C643 C 0.42618 0.09645 0.22210
 C644 C 0.43107 0.12948 0.22708
 H645 H 0.41181 0.04872 0.24303
 H646 H 0.44099 0.08329 0.20419
 H647 H 0.37000 0.11218 0.25715
 H648 H 0.41828 0.14254 0.24639
 C649 C 0.62022 0.07828 0.73630
 C650 C 0.61332 0.07316 0.76726
 C651 C 0.59296 0.09612 0.78755
 C652 C 0.58253 0.12706 0.77903
 H653 H 0.62080 0.04942 0.77796
 H654 H 0.58452 0.08570 0.81001
 H655 H 0.61392 0.10185 0.72484
 H656 H 0.59086 0.13836 0.75701
 C657 C 0.38896 0.91106 0.73245
 C658 C 0.38845 0.91208 0.76451
 C659 C 0.41011 0.89141 0.78552
 C660 C 0.43035 0.86630 0.77555
 H661 H 0.37366 0.93160 0.77621
 H662 H 0.41045 0.89878 0.81050
 H663 H 0.40249 0.89153 0.71964
 H664 H 0.42987 0.85754 0.75105
 C665 C 0.61301 0.91788 0.26895
 C666 C 0.59685 0.89083 0.28013
 C667 C 0.57645 0.86783 0.26002
 C668 C 0.56534 0.87569 0.23070
 H669 H 0.59784 0.88556 0.30550
 H670 H 0.56841 0.84451 0.27093
 H671 H 0.61266 0.92383 0.24379
 H672 H 0.57169 0.89952 0.21994
 C673 C 0.39858 0.26407 0.91445
 C674 C 0.40096 0.26956 0.88284
 C675 C 0.42314 0.24915 0.86169
 C676 C 0.43277 0.21733 0.86811
 H677 H 0.39003 0.29205 0.87250
 H678 H 0.43276 0.26155 0.84064
 H679 H 0.41371 0.24384 0.92410
 H680 H 0.42240 0.20412 0.88834
 C681 C 0.61984 0.74647 0.92502
 C682 C 0.59648 0.73156 0.90693
 C683 C 0.57477 0.74985 0.88421
 C684 C 0.56395 0.78159 0.88904
 H685 H 0.59352 0.70442 0.90814
 H686 H 0.56516 0.73544 0.86415
 H687 H 0.62335 0.77353 0.92400
 H688 H 0.57117 0.79525 0.91044
 C689 C 0.38692 0.73704 0.08338
 C690 C 0.41606 0.75226 0.07664
 C691 C 0.43553 0.77274 0.09941
 C692 C 0.43656 0.76806 0.13108
 H693 H 0.42645 0.75084 0.05280
 H694 H 0.45174 0.79141 0.08877
 H695 H 0.37876 0.73669 0.10803
 H696 H 0.42297 0.74760 0.14202
 C697 C 0.60622 0.27062 0.08293
 C698 C 0.59578 0.28076 0.11198
 C699 C 0.57527 0.25992 0.13388
 C700 C 0.56785 0.22728 0.12890
 H701 H 0.60034 0.30658 0.11938
 H702 H 0.56464 0.27288 0.15442
 H703 H 0.60045 0.24561 0.07425
 H704 H 0.57823 0.21353 0.10883
 C705 C 0.26695 0.08050 0.61117
 C706 C 0.24023 0.07327 0.59293
 C707 C 0.22096 0.09836 0.57443
 C708 C 0.23217 0.12907 0.56659
 H709 H 0.23095 0.04767 0.59184
 H710 H 0.19730 0.08972 0.56482
 H711 H 0.27251 0.10677 0.61577
 H712 H 0.25623 0.13788 0.57492
 C713 C 0.73745 0.08831 0.38878
 C714 C 0.72407 0.11555 0.40326
 C715 C 0.74299 0.13809 0.42506
 C716 C 0.77213 0.12918 0.43858
 H717 H 0.69770 0.12108 0.39994
 H718 H 0.73127 0.16186 0.43171
 H719 H 0.76367 0.08207 0.39132
 H720 H 0.78354 0.10496 0.43337
 C721 C 0.72805 0.90909 0.59855
 C722 C 0.71722 0.87866 0.58890
 C723 C 0.73676 0.85622 0.56718
 C724 C 0.76969 0.85975 0.56211
 H725 H 0.69225 0.87072 0.59538
 H726 H 0.72320 0.83670 0.55447
 H727 H 0.75160 0.91858 0.58982
 H728 H 0.78388 0.87839 0.57521
 C729 C 0.27277 0.91564 0.39244
 C730 C 0.24030 0.91730 0.40097
 C731 C 0.22275 0.89248 0.42118
 C732 C 0.23671 0.86473 0.43387
 H733 H 0.22514 0.93854 0.39332
 H734 H 0.19701 0.89870 0.42706
 H735 H 0.28568 0.89201 0.39585
 H736 H 0.26210 0.85731 0.42820
 C737 C 0.08315 0.40220 0.72603
 C738 C 0.11610 0.40389 0.71954
 C739 C 0.13937 0.42487 0.73869
 C740 C 0.13402 0.43235 0.76959
 H741 H 0.12609 0.39232 0.69803
 H742 H 0.16139 0.43444 0.72678
 H743 H 0.07380 0.41836 0.74498
 H744 H 0.11286 0.42167 0.78202
 C745 C 0.09092 0.61987 0.25488
 C746 C 0.08292 0.59762 0.23177
 C747 C 0.10849 0.57707 0.21518
 C748 C 0.10002 0.55842 0.18970
 H749 H 0.05708 0.59195 0.22640
 H750 H 0.13373 0.57594 0.22467
 H751 H 0.11723 0.62215 0.26068
 H752 H 0.07492 0.56055 0.17998
 C753 C 0.91404 0.39208 0.28007
 C754 C 0.92174 0.40426 0.25106
 C755 C 0.89799 0.42065 0.22885
 C756 C 0.86783 0.43308 0.23705
 H757 H 0.94721 0.40214 0.24237
 H758 H 0.90775 0.42574 0.20522
 H759 H 0.88789 0.38952 0.28627
 H760 H 0.85790 0.42926 0.26080
 C761 C 0.92186 0.61054 0.73317
 C762 C 0.92934 0.58390 0.75179
 C763 C 0.90579 0.56639 0.77315
 C764 C 0.87236 0.56640 0.77022
 H765 H 0.95446 0.57354 0.75189
 H766 H 0.91735 0.55058 0.79115
 H767 H 0.89597 0.61844 0.73153
 H768 H 0.86020 0.57992 0.75101
 C769 C 0.74939 0.62638 0.92525
 C770 C 0.76547 0.59712 0.93119
 C771 C 0.78471 0.57758 0.90734
 C772 C 0.77664 0.57526 0.87631
 H773 H 0.76458 0.58585 0.95463
 H774 H 0.80419 0.56131 0.91683
 H775 H 0.74948 0.63538 0.90092
 H776 H 0.75533 0.58904 0.86693
 C777 C 0.27890 0.39372 0.91257
 C778 C 0.28560 0.39548 0.88109
 C779 C 0.26644 0.41804 0.85939
 C780 C 0.23468 0.42756 0.86514
 H781 H 0.30759 0.38312 0.87131
 H782 H 0.27927 0.42749 0.83851
 H783 H 0.25932 0.41013 0.92153
 H784 H 0.22116 0.41700 0.88510
 C785 C 0.26503 0.61403 0.08583
 C786 C 0.24918 0.58489 0.08004
 C787 C 0.23059 0.56675 0.10483
 C788 C 0.20630 0.54572 0.09584
 H789 H 0.24971 0.57355 0.05643
 H790 H 0.23616 0.57092 0.12989
 H791 H 0.26663 0.62240 0.11049
 H792 H 0.19999 0.54353 0.07068
 C793 C 0.72197 0.40318 0.08584
 C794 C 0.71542 0.40474 0.11738
 C795 C 0.73593 0.42520 0.13972
 C796 C 0.76860 0.43081 0.13486
 H797 H 0.69274 0.39384 0.12682
 H798 H 0.72352 0.43617 0.16036
 H799 H 0.74208 0.41882 0.07719
 H800 H 0.78137 0.41860 0.11505
 C801 C 0.91544 0.72031 0.60660
 C802 C 0.91587 0.75376 0.60120
 C803 C 0.89234 0.77244 0.58034
 C804 C 0.86824 0.75849 0.56233
 H805 H 0.93578 0.76877 0.61151
 H806 H 0.89713 0.79922 0.57809
 H807 H 0.89297 0.70676 0.60063
 H808 H 0.86232 0.73199 0.56422
 C809 C 0.91481 0.28351 0.41018
 C810 C 0.88137 0.28759 0.41058
 C811 C 0.85944 0.26638 0.43066
 C812 C 0.86745 0.23462 0.43885
 H813 H 0.86983 0.30897 0.39883
 H814 H 0.83630 0.27765 0.43921
 H815 H 0.92515 0.26481 0.42617
 H816 H 0.88968 0.22261 0.42912
 C817 C 0.08406 0.26769 0.61685
 C818 C 0.11273 0.27973 0.60493
 C819 C 0.13621 0.25996 0.58455
 C820 C 0.12879 0.23016 0.57091
 H821 H 0.11884 0.30602 0.60902
 H822 H 0.15968 0.27198 0.57871
 H823 H 0.07714 0.24165 0.61313
 H824 H 0.10508 0.21813 0.57535
 C825 C 0.09328 0.71505 0.39638
 C826 C 0.12449 0.72409 0.38844
 C827 C 0.14708 0.74036 0.41184
 C828 C 0.13579 0.76427 0.43196
 H829 H 0.13380 0.71980 0.36445
 H830 H 0.17351 0.73411 0.41106
 H831 H 0.08505 0.71911 0.42080
 H832 H 0.10985 0.77238 0.43051
 C833 C 0.61429 0.90355 0.72438
 C834 C 0.60018 0.90720 0.75329
 C835 C 0.58010 0.88021 0.76773
 C836 C 0.56441 0.88579 0.79549
 H837 H 0.60302 0.93058 0.76659
 H838 H 0.57651 0.85669 0.75481
 H839 H 0.61420 0.87853 0.71370
 H840 H 0.56787 0.90969 0.80782
 C841 C 0.37861 0.91719 0.26291
 C842 C 0.40250 0.92620 0.24199
 C843 C 0.42345 0.90285 0.22295
 C844 C 0.43055 0.87074 0.23049
 H845 H 0.40809 0.95255 0.23827
 H846 H 0.43590 0.91419 0.20271
 H847 H 0.37540 0.89062 0.26769
 H848 H 0.42016 0.85938 0.25171
 C849 C 0.61208 0.09229 0.27585
 C850 C 0.57906 0.09761 0.27916
 C851 C 0.56067 0.12374 0.26116
 C852 C 0.56625 0.12874 0.23003
 H853 H 0.56490 0.08276 0.29604
 H854 H 0.53893 0.13522 0.27241
 H855 H 0.62628 0.11109 0.26312
 H856 H 0.58537 0.11403 0.21781
 C857 C 0.38483 0.08888 0.72637
 C858 C 0.41797 0.09095 0.73046
 C859 C 0.43309 0.11839 0.74923
 C860 C 0.45485 0.11024 0.77212
 H861 H 0.43461 0.07145 0.72141
 H862 H 0.42533 0.14437 0.74563
 H863 H 0.37054 0.11132 0.73236
 H864 H 0.45978 0.08376 0.77691
 C865 C 0.60126 0.72520 0.08690
 C866 C 0.60867 0.72886 0.11802
 C867 C 0.58569 0.74658 0.14023
 C868 C 0.56972 0.77487 0.13150
 H869 H 0.63187 0.71884 0.12754
 H870 H 0.58303 0.73697 0.16427
 H871 H 0.57748 0.73478 0.07824
 H872 H 0.57459 0.78552 0.10815
 C873 C 0.39312 0.26166 0.07622
 C874 C 0.40023 0.27287 0.10578
 C875 C 0.42197 0.25444 0.12865
 C876 C 0.43158 0.22213 0.12490
 H877 H 0.39197 0.29794 0.11285
 H878 H 0.43121 0.26875 0.14893
 H879 H 0.40319 0.23785 0.06780
 H880 H 0.42213 0.20700 0.10536
 C881 C 0.61052 0.27096 0.92020
 C882 C 0.59666 0.28162 0.89280
 C883 C 0.57788 0.25947 0.87043
 C884 C 0.56709 0.22854 0.87807
 H885 H 0.59822 0.30813 0.88676
 H886 H 0.57111 0.27004 0.84748
 H887 H 0.60954 0.24474 0.92701
 H888 H 0.57237 0.21795 0.90126
 C889 C 0.39044 0.72848 0.91976
 C890 C 0.38164 0.75836 0.90751
 C891 C 0.40466 0.77896 0.88839
 C892 C 0.42872 0.76613 0.86951
 H893 H 0.35855 0.77028 0.91540
 H894 H 0.40187 0.80611 0.89068
 H895 H 0.41387 0.71641 0.91321
 H896 H 0.43023 0.73922 0.86488
 C897 C 0.73106 0.91409 0.39284
 C898 C 0.76392 0.91633 0.39928
 C899 C 0.78304 0.89304 0.42013
 C900 C 0.77186 0.86338 0.43096
 H901 H 0.77750 0.93798 0.39053
 H902 H 0.80758 0.90162 0.42744
 H903 H 0.71675 0.89249 0.40037
 H904 H 0.74794 0.85364 0.42327
 C905 C 0.28013 0.90985 0.60030
 C906 C 0.29125 0.87893 0.59200
 C907 C 0.27240 0.85602 0.57027
 C908 C 0.23941 0.85919 0.56482
 H909 H 0.31599 0.87089 0.59947
 H910 H 0.28648 0.83640 0.55799
 H911 H 0.25698 0.91924 0.59021
 H912 H 0.22480 0.87793 0.57764
 C913 C 0.27711 0.09284 0.39544
 C914 C 0.24384 0.09747 0.39516
 C915 C 0.22501 0.11861 0.41818
 C916 C 0.23817 0.14285 0.43670
 H917 H 0.22891 0.08186 0.37933
 H918 H 0.19858 0.11302 0.42022
 H919 H 0.29315 0.10739 0.41106
 H920 H 0.26400 0.15033 0.43393
 C921 C 0.73209 0.08172 0.61010
 C922 C 0.76371 0.07715 0.60007
 C923 C 0.78269 0.10097 0.58003
 C924 C 0.77071 0.13028 0.56871
 H925 H 0.77630 0.05356 0.60560
 H926 H 0.80751 0.09262 0.57295
 H927 H 0.71917 0.10548 0.60668
 H928 H 0.74611 0.13941 0.57533
 C929 C 0.92204 0.61863 0.25663
 C930 C 0.93089 0.59177 0.23877
 C931 C 0.90748 0.57090 0.22006
 C932 C 0.87504 0.56690 0.22719
 H933 H 0.95700 0.58434 0.23736
 H934 H 0.91858 0.55587 0.20104
 H935 H 0.89598 0.62606 0.25840
 H936 H 0.86400 0.57992 0.24747
 C937 C 0.91358 0.39924 0.73137
 C938 C 0.88245 0.40768 0.72213
 C939 C 0.85972 0.42884 0.74199
 C940 C 0.86320 0.43225 0.77371
 H941 H 0.87425 0.40136 0.69816
 H942 H 0.84044 0.44310 0.72970
 H943 H 0.92313 0.40841 0.75397
 H944 H 0.88178 0.41757 0.78643
 C945 C 0.09058 0.60130 0.72505
 C946 C 0.12298 0.60857 0.72962
 C947 C 0.14536 0.58583 0.74784
 C948 C 0.13468 0.56913 0.77360
 H949 H 0.13377 0.63076 0.71886
 H950 H 0.17113 0.58330 0.74008
 H951 H 0.08039 0.57875 0.73578
 H952 H 0.10964 0.57377 0.78265
 C953 C 0.08514 0.40233 0.28896
 C954 C 0.08212 0.40529 0.25734
 C955 C 0.10730 0.42286 0.23811
 C956 C 0.10289 0.42576 0.20664
 H957 H 0.06015 0.39512 0.24554
 H958 H 0.12833 0.43491 0.24983
 H959 H 0.10774 0.41072 0.30086
 H960 H 0.08137 0.41400 0.19545
   
