data_POSCAR
  _audit_creation_date              2014-09-24
  _audit_creation_method            'ToBaCCo'
  _symmetry_space_group_name_H-M    'P1'
  _symmetry_Int_Tables_number       1
  _symmetry_cell_setting            triclinic
  loop_
  _symmetry_equiv_pos_as_xyz
 x,y,z
_cell_length_a 26.9310
_cell_length_b 27.2065
_cell_length_c 27.2587
_cell_angle_alpha 89.992300
_cell_angle_beta 89.973800
_cell_angle_gamma 90.027200
loop_
  _atom_site_label
  _atom_site_type_symbol
  _atom_site_fract_x
  _atom_site_fract_y
  _atom_site_fract_z
C1 C 0.28518 0.24902 0.21547
 N2 N 0.28490 0.21384 0.25082
 C3 C 0.24967 0.21391 0.28651
 N4 N 0.21446 0.24967 0.28662
 C5 C 0.21428 0.28511 0.25148
 N6 N 0.24976 0.28452 0.21605
 C7 C 0.71442 -0.24904 0.21338
 N8 N 0.71478 -0.21385 0.24882
 C9 C 0.74959 -0.21428 0.28485
 N10 N 0.78448 -0.25029 0.28524
 C11 C 0.78503 -0.28569 0.25004
 N12 N 0.74978 -0.28473 0.21434
 C13 C 0.71550 0.24904 0.78455
 N14 N 0.71547 0.21413 0.74897
 C15 C 0.75027 0.21468 0.71288
 N16 N 0.78525 0.25071 0.71256
 C17 C 0.78590 0.28592 0.74798
 N18 N 0.75083 0.28465 0.78386
 C19 C 0.28674 -0.24915 0.78680
 N20 N 0.25138 -0.28487 0.78586
 C21 C 0.21585 -0.28535 0.75050
 N22 N 0.21595 -0.24976 0.71559
 C23 C 0.25098 -0.21387 0.71582
 N24 N 0.28614 -0.21373 0.75155
 C25 C 0.71399 -0.24920 0.78620
 N26 N 0.71436 -0.21402 0.75072
 C27 C 0.74908 -0.21459 0.71454
 N28 N 0.78384 -0.25074 0.71405
 C29 C 0.78437 -0.28613 0.74928
 N30 N 0.74922 -0.28500 0.78511
 C31 C 0.28483 0.24853 0.78519
 N32 N 0.24929 0.28395 0.78466
 C33 C 0.21386 0.28451 0.74921
 N34 N 0.21420 0.24915 0.71401
 C35 C 0.24952 0.21349 0.71404
 N36 N 0.28471 0.21342 0.74975
 C37 C 0.28587 -0.24943 0.21323
 N38 N 0.25034 -0.28502 0.21404
 C39 C 0.21501 -0.28599 0.24973
 N40 N 0.21567 -0.25070 0.28504
 C41 C 0.25071 -0.21479 0.28481
 N42 N 0.28559 -0.21436 0.24880
 C43 C 0.71627 0.24971 0.21516
 N44 N 0.71623 0.21482 0.25077
 C45 C 0.75098 0.21536 0.28687
 N46 N 0.78597 0.25139 0.28717
 C47 C 0.78666 0.28661 0.25172
 N48 N 0.75161 0.28533 0.21583
 O49 O 0.29114 0.04675 0.45208
 O50 O 0.29169 -0.04850 0.54800
 O51 O 0.29166 -0.04869 0.45204
 O52 O 0.29122 0.04684 0.54778
 O53 O 0.20928 0.04676 0.54753
 O54 O 0.20973 -0.04935 0.45243
 O55 O 0.20975 -0.04912 0.54778
 O56 O 0.20920 0.04664 0.45241
 Cu57 Cu 0.29965 -0.00091 0.49994
 Cu58 Cu 0.20127 -0.00136 0.50002
 C59 C 0.25010 0.06310 0.43596
 C60 C 0.25079 -0.06503 0.56436
 C61 C 0.25075 -0.06535 0.43585
 C62 C 0.25018 0.06320 0.56396
 O63 O 0.79100 0.04727 0.54734
 O64 O 0.79070 -0.04855 0.45203
 O65 O 0.79122 0.04747 0.45228
 O66 O 0.79056 -0.04872 0.54737
 O67 O 0.70863 -0.04813 0.54759
 O68 O 0.70928 0.04744 0.45189
 O69 O 0.70876 -0.04800 0.45167
 O70 O 0.70905 0.04727 0.54752
 Cu71 Cu 0.79908 -0.00073 0.49976
 Cu72 Cu 0.70071 -0.00038 0.49965
 C73 C 0.75006 0.06371 0.56368
 C74 C 0.74969 -0.06458 0.43545
 C75 C 0.75034 0.06395 0.43587
 C76 C 0.74950 -0.06476 0.56386
 O77 O 0.45223 0.28867 0.04780
 O78 O 0.54886 0.28854 -0.04756
 O79 O 0.45203 0.28856 -0.04739
 O80 O 0.54908 0.28877 0.04759
 O81 O 0.54885 0.20766 0.04805
 O82 O 0.45230 0.20745 -0.04758
 O83 O 0.54865 0.20742 -0.04772
 O84 O 0.45246 0.20757 0.04823
 Cu85 Cu 0.50054 0.29677 0.00010
 Cu86 Cu 0.50055 0.19937 0.00027
 C87 C 0.43587 0.24815 0.06441
 C88 C 0.56523 0.24798 -0.06402
 C89 C 0.43564 0.24798 -0.06383
 C90 C 0.56553 0.24827 0.06412
 O91 O 0.54851 0.79228 0.04821
 O92 O 0.45236 0.79222 -0.04782
 O93 O 0.45220 0.79216 0.04820
 O94 O 0.54859 0.79236 -0.04781
 O95 O 0.54909 0.71121 -0.04735
 O96 O 0.45179 0.71101 0.04767
 O97 O 0.45201 0.71107 -0.04740
 O98 O 0.54898 0.71113 0.04774
 Cu99 Cu 0.50041 0.80039 0.00022
 Cu100 Cu 0.50048 0.70298 0.00018
 C101 C 0.56525 0.75171 0.06427
 C102 C 0.43573 0.75162 -0.06396
 C103 C 0.43544 0.75155 0.06422
 C104 C 0.56533 0.75180 -0.06392
 O105 O 0.04797 0.45379 0.29223
 O106 O -0.04852 0.54961 0.29176
 O107 O -0.04825 0.45341 0.29247
 O108 O 0.04782 0.54984 0.29150
 O109 O 0.04838 0.54857 0.21053
 O110 O -0.04915 0.45365 0.21148
 O111 O -0.04889 0.54886 0.21077
 O112 O 0.04768 0.45321 0.21127
 Cu113 Cu -0.00024 0.50176 0.30012
 Cu114 Cu -0.00049 0.50108 0.20289
 C115 C 0.06424 0.43704 0.25180
 C116 C -0.06524 0.56552 0.25119
 C117 C -0.06514 0.43711 0.25211
 C118 C 0.06469 0.56549 0.25086
 O119 O 0.04697 0.54798 0.78938
 O120 O -0.05009 0.45278 0.78831
 O121 O 0.04675 0.45255 0.78892
 O122 O -0.05015 0.54795 0.78882
 O123 O -0.04910 0.54883 0.70784
 O124 O 0.04711 0.45264 0.70796
 O125 O -0.04906 0.45260 0.70732
 O126 O 0.04734 0.54854 0.70843
 Cu127 Cu -0.00166 0.50033 0.79698
 Cu128 Cu -0.00091 0.50075 0.69976
 C129 C 0.06377 0.56455 0.74908
 C130 C -0.06601 0.43629 0.74766
 C131 C 0.06337 0.43614 0.74849
 C132 C -0.06617 0.56469 0.74831
 C133 C 0.33279 0.29105 0.14857
 C134 C 0.32369 0.24872 0.17675
 C135 C 0.35173 0.20615 0.16756
 C136 C 0.38788 0.20583 0.13077
 C137 C 0.39724 0.24828 0.10292
 C138 C 0.36944 0.29093 0.11229
 H139 H 0.31193 0.32448 0.15487
 H140 H 0.34547 0.17290 0.18852
 H141 H 0.40885 0.17246 0.12446
 H142 H 0.37574 0.32416 0.09129
 C143 C 0.67393 0.71212 0.14279
 C144 C 0.67788 0.75133 0.17640
 C145 C 0.64420 0.79080 0.17223
 C146 C 0.60812 0.79119 0.13539
 C147 C 0.60397 0.75168 0.10258
 C148 C 0.63702 0.71207 0.10675
 H149 H 0.69886 0.68094 0.14456
 H150 H 0.64584 0.82182 0.19709
 H151 H 0.58291 0.82211 0.13303
 H152 H 0.63472 0.68124 0.08171
 C153 C 0.66827 0.29085 -0.14824
 C154 C 0.67726 0.24856 -0.17648
 C155 C 0.64922 0.20596 -0.16725
 C156 C 0.61315 0.20561 -0.13037
 C157 C 0.60387 0.24806 -0.10251
 C158 C 0.63170 0.29070 -0.11189
 H159 H 0.68912 0.32430 -0.15458
 H160 H 0.65540 0.17274 -0.18826
 H161 H 0.59215 0.17224 -0.12404
 H162 H 0.62547 0.32392 -0.09088
 C163 C 0.35699 0.79068 -0.17206
 C164 C 0.32339 0.75113 -0.17634
 C165 C 0.32740 0.71183 -0.14283
 C166 C 0.36422 0.71181 -0.10672
 C167 C 0.39714 0.75154 -0.10238
 C168 C 0.39300 0.79110 -0.13514
 H169 H 0.35532 0.82175 -0.19684
 H170 H 0.30253 0.68059 -0.14469
 H171 H 0.36653 0.68094 -0.08173
 H172 H 0.41814 0.82209 -0.13267
 C173 C 0.16682 0.35201 0.20930
 C174 C 0.17586 0.32399 0.25169
 C175 C 0.14793 0.33355 0.29419
 C176 C 0.11199 0.37061 0.29439
 C177 C 0.10271 0.39832 0.25187
 C178 C 0.13038 0.38852 0.20929
 H179 H 0.18759 0.34542 0.17591
 H180 H 0.15415 0.31272 0.32748
 H181 H 0.09110 0.37722 0.32770
 H182 H 0.12414 0.40938 0.17602
 C183 C 0.14913 0.66707 0.70757
 C184 C 0.17723 0.67593 0.75010
 C185 C 0.16778 0.64772 0.79229
 C186 C 0.13068 0.61177 0.79207
 C187 C 0.10280 0.60277 0.74945
 C188 C 0.11257 0.63062 0.70714
 H189 H 0.15562 0.68805 0.67442
 H190 H 0.18866 0.65379 0.82568
 H191 H 0.12409 0.59074 0.82518
 H192 H 0.09158 0.62459 0.67379
 C193 C -0.14473 0.67334 0.28996
 C194 C -0.17830 0.67740 0.25046
 C195 C -0.17408 0.64378 0.21130
 C196 C -0.13702 0.60784 0.21135
 C197 C -0.10408 0.60378 0.25099
 C198 C -0.10849 0.63660 0.29043
 H199 H -0.14656 0.69820 0.32093
 H200 H -0.19893 0.64548 0.18012
 H201 H -0.13452 0.58276 0.18058
 H202 H -0.08337 0.63433 0.32138
 C203 C -0.14426 0.32780 0.70811
 C204 C -0.17773 0.32310 0.74765
 C205 C -0.17389 0.35657 0.78698
 C206 C -0.13735 0.39300 0.78706
 C207 C -0.10450 0.39771 0.74741
 C208 C -0.10849 0.36505 0.70778
 H209 H -0.14585 0.30305 0.67703
 H210 H -0.19868 0.35443 0.81821
 H211 H -0.13515 0.41792 0.81798
 H212 H -0.08339 0.36781 0.67685
 C213 C 0.20700 0.16632 0.35305
 C214 C 0.24973 0.17538 0.32484
 C215 C 0.29256 0.14719 0.33351
 C216 C 0.29277 0.11097 0.36985
 C217 C 0.24993 0.10165 0.39775
 C218 C 0.20699 0.12956 0.38887
 H219 H 0.17337 0.18730 0.34711
 H220 H 0.32614 0.15340 0.31252
 H221 H 0.32637 0.08993 0.37579
 H222 H 0.17347 0.12331 0.40995
 C223 C 0.79286 0.16739 0.64616
 C224 C 0.75017 0.17625 0.67449
 C225 C 0.70746 0.14780 0.66601
 C226 C 0.70732 0.11149 0.62976
 C227 C 0.75013 0.10234 0.60178
 C228 C 0.79295 0.13054 0.61044
 H229 H 0.82641 0.18856 0.65196
 H230 H 0.67393 0.15385 0.68711
 H231 H 0.67381 0.09024 0.62398
 H232 H 0.82644 0.12443 0.58928
 C233 C 0.29363 -0.14722 0.66823
 C234 C 0.25093 -0.17552 0.67730
 C235 C 0.20819 -0.16710 0.64894
 C236 C 0.20807 -0.13098 0.61250
 C237 C 0.25090 -0.10303 0.60313
 C238 C 0.29374 -0.11161 0.63125
 H239 H 0.32720 -0.15297 0.68933
 H240 H 0.17464 -0.18816 0.65514
 H241 H 0.17454 -0.12526 0.59133
 H242 H 0.32723 -0.09048 0.62498
 C243 C 0.70695 -0.14741 0.33204
 C244 C 0.74958 -0.17590 0.32333
 C245 C 0.79222 -0.16743 0.35182
 C246 C 0.79236 -0.13102 0.38798
 C247 C 0.74962 -0.10284 0.39694
 C248 C 0.70685 -0.11152 0.36874
 H249 H 0.67346 -0.15317 0.31083
 H250 H 0.82571 -0.18863 0.34589
 H251 H 0.82582 -0.12525 0.40924
 H252 H 0.67342 -0.09024 0.37472
 C253 C 0.67369 0.71208 -0.14297
 C254 C 0.67760 0.75129 -0.17662
 C255 C 0.64404 0.79084 -0.17225
 C256 C 0.60811 0.79131 -0.13520
 C257 C 0.60399 0.75179 -0.10237
 C258 C 0.63694 0.71211 -0.10673
 H259 H 0.69852 0.68084 -0.14486
 H260 H 0.64564 0.82185 -0.19713
 H261 H 0.58298 0.82228 -0.13272
 H262 H 0.63467 0.68127 -0.08169
 C263 C 0.33236 0.29063 -0.14790
 C264 C 0.32333 0.24829 -0.17606
 C265 C 0.35146 0.20577 -0.16687
 C266 C 0.38762 0.20552 -0.13009
 C267 C 0.39693 0.24800 -0.10227
 C268 C 0.36903 0.29059 -0.11164
 H269 H 0.31144 0.32402 -0.15419
 H270 H 0.34527 0.17251 -0.18781
 H271 H 0.40866 0.17220 -0.12380
 H272 H 0.37527 0.32383 -0.09068
 C273 C 0.35629 0.79041 0.17223
 C274 C 0.32249 0.75098 0.17627
 C275 C 0.32645 0.71186 0.14254
 C276 C 0.36345 0.71186 0.10654
 C277 C 0.39661 0.75144 0.10251
 C278 C 0.39246 0.79086 0.13542
 H279 H 0.35467 0.82136 0.19717
 H280 H 0.30144 0.68071 0.14419
 H281 H 0.36574 0.68110 0.08141
 H282 H 0.41774 0.82176 0.13319
 C283 C 0.64994 0.20653 0.16713
 C284 C 0.67800 0.24915 0.17620
 C285 C 0.66892 0.29137 0.14787
 C286 C 0.63222 0.29113 0.11164
 C287 C 0.60434 0.24846 0.10246
 C288 C 0.61375 0.20608 0.13039
 H289 H 0.65617 0.17336 0.18821
 H290 H 0.68977 0.32484 0.15406
 H291 H 0.62591 0.32430 0.09058
 H292 H 0.59274 0.17270 0.12423
 C293 C -0.14552 0.67260 0.70928
 C294 C -0.17908 0.67683 0.74881
 C295 C -0.17495 0.64322 0.78800
 C296 C -0.13799 0.60718 0.78798
 C297 C -0.10502 0.60298 0.74834
 C298 C -0.10936 0.63575 0.70884
 H299 H -0.14729 0.69744 0.67828
 H300 H -0.19979 0.64502 0.81921
 H301 H -0.13556 0.58215 0.81880
 H302 H -0.08423 0.63339 0.67789
 C303 C -0.17301 0.35729 0.21272
 C304 C -0.17694 0.32382 0.25205
 C305 C -0.14353 0.32854 0.29161
 C306 C -0.10775 0.36581 0.29196
 C307 C -0.10366 0.39848 0.25233
 C308 C -0.13644 0.39374 0.21264
 H309 H -0.19774 0.35514 0.18146
 H310 H -0.14517 0.30381 0.32271
 H311 H -0.08271 0.36858 0.32292
 H312 H -0.13419 0.41864 0.18171
 C313 C 0.16611 0.35137 0.79131
 C314 C 0.17532 0.32330 0.74898
 C315 C 0.14740 0.33273 0.70645
 C316 C 0.11134 0.36967 0.70616
 C317 C 0.10191 0.39744 0.74861
 C318 C 0.12953 0.38779 0.79123
 H319 H 0.18685 0.34489 0.82471
 H320 H 0.15373 0.31188 0.67320
 H321 H 0.09050 0.37618 0.67282
 H322 H 0.12318 0.40869 0.82446
 C323 C 0.17380 0.64365 0.21085
 C324 C 0.17816 0.67721 0.25005
 C325 C 0.14453 0.67319 0.28954
 C326 C 0.10814 0.63655 0.28999
 C327 C 0.10361 0.60375 0.25055
 C328 C 0.13659 0.60778 0.21088
 H329 H 0.19868 0.64532 0.17966
 H330 H 0.14643 0.69801 0.32054
 H331 H 0.08302 0.63432 0.32096
 H332 H 0.13401 0.58274 0.18010
 C333 C 0.79177 -0.16781 0.64746
 C334 C 0.74912 -0.17620 0.67601
 C335 C 0.70656 -0.14761 0.66733
 C336 C 0.70653 -0.11171 0.63061
 C337 C 0.74932 -0.10309 0.60236
 C338 C 0.79199 -0.13138 0.61130
 H339 H 0.82522 -0.18908 0.65337
 H340 H 0.67306 -0.15331 0.68857
 H341 H 0.67314 -0.09036 0.62466
 H342 H 0.82547 -0.12567 0.59001
 C343 C 0.20816 -0.16809 0.35201
 C344 C 0.25080 -0.17653 0.32346
 C345 C 0.29348 -0.14810 0.33227
 C346 C 0.29362 -0.11231 0.36908
 C347 C 0.25084 -0.10364 0.39731
 C348 C 0.20806 -0.13178 0.38827
 H349 H 0.17463 -0.18924 0.34601
 H350 H 0.32697 -0.15383 0.31104
 H351 H 0.32708 -0.09107 0.37510
 H352 H 0.17459 -0.12602 0.40954
 C353 C 0.70804 0.14842 0.33367
 C354 C 0.75079 0.17688 0.32529
 C355 C 0.79339 0.16794 0.35368
 C356 C 0.79338 0.13098 0.38933
 C357 C 0.75053 0.10275 0.39787
 C358 C 0.70779 0.11201 0.36984
 H359 H 0.67457 0.15452 0.31253
 H360 H 0.82696 0.18911 0.34797
 H361 H 0.82681 0.12479 0.41052
 H362 H 0.67426 0.09076 0.37552
 C363 C 0.20700 0.16610 0.64730
 C364 C 0.24969 0.17508 0.67556
 C365 C 0.29255 0.14697 0.66674
 C366 C 0.29283 0.11092 0.63022
 C367 C 0.25002 0.10167 0.60227
 C368 C 0.20705 0.12951 0.61130
 H369 H 0.17334 0.18700 0.65332
 H370 H 0.32610 0.15312 0.68776
 H371 H 0.32645 0.08994 0.62419
 H372 H 0.17355 0.12331 0.59021
   
