data_POSCAR
  _audit_creation_date              2014-09-24
  _audit_creation_method            'ToBaCCo'
  _symmetry_space_group_name_H-M    'P1'
  _symmetry_Int_Tables_number       1
  _symmetry_cell_setting            triclinic
  loop_
  _symmetry_equiv_pos_as_xyz
 x,y,z
_cell_length_a 22.5474
_cell_length_b 30.2205
_cell_length_c 7.1561
_cell_angle_alpha 90.274700
_cell_angle_beta 90.343700
_cell_angle_gamma 90.148000
loop_
  _atom_site_label
  _atom_site_type_symbol
  _atom_site_fract_x
  _atom_site_fract_y
  _atom_site_fract_z
O1 O 0.20922 0.29283 0.06368
 O2 O 0.31632 0.20648 0.19202
 O3 O 0.20927 0.20614 0.05958
 O4 O 0.31672 0.29234 0.19279
 O5 O 0.28529 0.29248 0.48392
 O6 O 0.17719 0.20620 0.34966
 O7 O 0.28432 0.20592 0.48251
 O8 O 0.17804 0.29308 0.35529
 Cu9 Cu 0.26644 0.24945 0.09875
 Cu10 Cu 0.22729 0.24936 0.44599
 C11 C 0.17600 0.30843 0.19068
 C12 C 0.31861 0.19113 0.35664
 C13 C 0.17517 0.19071 0.18434
 C14 C 0.31942 0.30748 0.35828
 O15 O 0.71018 0.20791 0.43667
 O16 O 0.81869 0.29356 0.30801
 O17 O 0.71126 0.29448 0.43572
 O18 O 0.81762 0.20715 0.31418
 O19 O 0.78742 0.20652 0.02051
 O20 O 0.68023 0.29383 0.14277
 O21 O 0.78729 0.29331 0.01602
 O22 O 0.67977 0.20678 0.14316
 Cu23 Cu 0.76813 0.25093 0.40184
 Cu24 Cu 0.72987 0.25004 0.05238
 C25 C 0.67709 0.19197 0.30854
 C26 C 0.82134 0.30872 0.14296
 C27 C 0.67797 0.30960 0.30734
 C28 C 0.82036 0.19133 0.14996
 O29 O 0.71526 0.79403 0.51739
 O30 O 0.82147 0.70674 0.64370
 O31 O 0.71417 0.70752 0.51561
 O32 O 0.82227 0.79375 0.64918
 O33 O 0.79137 0.79329 0.94053
 O34 O 0.68277 0.70785 0.80678
 O35 O 0.79028 0.70667 0.93530
 O36 O 0.68407 0.79377 0.80879
 Cu37 Cu 0.77224 0.75055 0.55337
 Cu38 Cu 0.73356 0.75041 0.90111
 C39 C 0.68147 0.80906 0.64409
 C40 C 0.82340 0.69115 0.80792
 C41 C 0.67997 0.69267 0.64136
 C42 C 0.82495 0.80894 0.81489
 O43 O 0.21296 0.70751 0.98441
 O44 O 0.32063 0.79404 0.85852
 O45 O 0.21278 0.79421 0.98071
 O46 O 0.31999 0.70692 0.85785
 O47 O 0.28897 0.70637 0.56490
 O48 O 0.18331 0.79408 0.68673
 O49 O 0.29067 0.79294 0.56455
 O50 O 0.18153 0.70764 0.69216
 Cu51 Cu 0.27044 0.75074 0.94859
 Cu52 Cu 0.23244 0.75013 0.59890
 C53 C 0.17888 0.69245 0.85701
 C54 C 0.32359 0.80885 0.69318
 C55 C 0.18009 0.80976 0.85123
 C56 C 0.32217 0.69114 0.69329
 C57 C 1.03114 0.03959 0.03160
 C58 C 0.96860 0.03903 0.02443
 C59 C 0.93871 -0.00099 -0.00771
 C60 C 0.97010 -0.04051 -0.03321
 C61 C 1.03269 -0.04003 -0.02543
 C62 C 1.06256 0.00005 0.00667
 H63 H 1.11064 0.00047 0.01226
 H64 H 0.89062 -0.00139 -0.01305
 C65 C 0.52975 0.54103 0.50929
 C66 C 0.46822 0.53899 0.54380
 C67 C 0.43880 0.49813 0.53568
 C68 C 0.46946 0.45921 0.49129
 C69 C 0.53100 0.46125 0.45679
 C70 C 0.56041 0.50211 0.46493
 H71 H 0.60789 0.50338 0.44204
 H72 H 0.39132 0.49687 0.55852
 C73 C -0.03136 0.45885 0.01056
 C74 C 0.03057 0.46055 0.03955
 C75 C 0.06056 0.50110 0.02751
 C76 C 0.02997 0.54012 -0.01516
 C77 C -0.03196 0.53842 -0.04433
 C78 C -0.06194 0.49787 -0.03240
 H79 H -0.10968 0.49689 -0.05172
 H80 H 0.10829 0.50208 0.04707
 C81 C 0.46955 0.96123 0.54429
 C82 C 0.53128 0.95996 0.51322
 C83 C 0.56148 0.99917 0.46998
 C84 C 0.53135 1.03956 0.45945
 C85 C 0.46961 1.04083 0.49049
 C86 C 0.43942 1.00163 0.53380
 H87 H 0.39181 1.00231 0.55436
 H88 H 0.60909 0.99847 0.44929
 C89 C 1.10217 0.13603 0.28448
 C90 C 1.13636 0.15554 0.14227
 C91 C 1.13300 0.13747 -0.03958
 C92 C 1.09756 0.10035 -0.07650
 C93 C 1.06486 0.08071 0.06705
 C94 C 1.06734 0.09876 0.24737
 H95 H 1.10361 0.14861 0.42649
 H96 H 1.15848 0.15144 -0.15293
 H97 H 1.09630 0.08649 -0.21641
 H98 H 1.04355 0.08330 0.36074
 C99 C 0.63539 0.63629 0.42193
 C100 C 0.63770 0.65641 0.59949
 C101 C 0.60159 0.63972 0.74259
 C102 C 0.56540 0.60300 0.71088
 C103 C 0.56398 0.58241 0.53513
 C104 C 0.59891 0.59941 0.39027
 H105 H 0.66278 0.64833 0.30913
 H106 H 0.60250 0.65420 0.88132
 H107 H 0.54002 0.58969 0.82577
 H108 H 0.59860 0.58367 0.25393
 C109 C -0.13644 0.36269 -0.07478
 C110 C -0.13908 0.34348 0.10424
 C111 C -0.10316 0.36141 0.24795
 C112 C -0.06728 0.39818 0.21540
 C113 C -0.06576 0.41768 0.03839
 C114 C -0.10030 0.39961 -0.10688
 H115 H -0.16325 0.34993 -0.18916
 H116 H -0.10381 0.34789 0.38788
 H117 H -0.04207 0.41229 0.33042
 H118 H -0.09984 0.41447 -0.24434
 C119 C 0.38176 0.85580 0.47060
 C120 C 0.36403 0.84616 0.65400
 C121 C 0.38289 0.87399 0.80107
 C122 C 0.41743 0.91133 0.76504
 C123 C 0.43505 0.92079 0.58231
 C124 C 0.41757 0.89270 0.43531
 H125 H 0.36776 0.83497 0.35483
 H126 H 0.36947 0.86764 0.94358
 H127 H 0.43032 0.93296 0.87950
 H128 H 0.43066 0.89989 0.29319
 C129 C -0.11961 0.64329 0.03095
 C130 C -0.13699 0.65347 -0.15280
 C131 C -0.11837 0.62601 -0.30039
 C132 C -0.08419 0.58855 -0.26466
 C133 C -0.06673 0.57864 -0.08165
 C134 C -0.08416 0.60628 0.06602
 H135 H -0.13345 0.66386 0.14705
 H136 H -0.13159 0.63280 -0.44318
 H137 H -0.07133 0.56725 -0.37960
 H138 H -0.07113 0.59872 0.20830
 C139 C 0.36322 1.13544 0.57597
 C140 C 0.36057 1.15489 0.39793
 C141 C 0.39644 1.13783 0.25460
 C142 C 0.43292 1.10149 0.28688
 C143 C 0.43482 1.08169 0.46336
 C144 C 0.39996 1.09896 0.60816
 H145 H 0.33604 1.14778 0.68900
 H146 H 0.39524 1.15179 0.11551
 H147 H 0.45824 1.08792 0.17210
 H148 H 0.40063 1.08378 0.74502
 C149 C 1.13416 -0.13721 0.06737
 C150 C 1.14132 -0.15482 -0.11390
 C151 C 1.11063 -0.13478 -0.26354
 C152 C 1.07531 -0.09768 -0.23381
 C153 C 1.06809 -0.08052 -0.05359
 C154 C 1.09766 -0.10042 0.09705
 H155 H 1.15702 -0.15154 0.18604
 H156 H 1.11528 -0.14677 -0.40563
 H157 H 1.05465 -0.08174 -0.35255
 H158 H 1.09301 -0.08712 0.23704
 C159 C 0.61911 0.35642 0.52929
 C160 C 0.63770 0.34695 0.34629
 C161 C 0.61952 0.37475 0.19974
 C162 C 0.58472 0.41191 0.23599
 C163 C 0.56610 0.42115 0.41832
 C164 C 0.58298 0.39307 0.56470
 H165 H 0.63254 0.33556 0.64463
 H166 H 0.63362 0.36848 0.05761
 H167 H 0.57226 0.43350 0.12197
 H168 H 0.56912 0.40007 0.70648
 C169 C 0.87032 -0.13951 0.04006
 C170 C 0.86392 -0.15595 -0.14378
 C171 C 0.89520 -0.13486 -0.28857
 C172 C 0.93000 -0.09759 -0.25174
 C173 C 0.93617 -0.08150 -0.06901
 C174 C 0.90636 -0.10268 0.07691
 H175 H 0.84705 -0.15471 0.15531
 H176 H 0.89113 -0.14600 -0.43223
 H177 H 0.95096 -0.08065 -0.36686
 H178 H 0.91019 -0.09018 0.21865
 C179 C 0.36376 0.36393 0.57801
 C180 C 0.36154 0.34383 0.40040
 C181 C 0.39770 0.36056 0.25749
 C182 C 0.43387 0.39728 0.28943
 C183 C 0.43523 0.41783 0.46524
 C184 C 0.40023 0.40081 0.60990
 H185 H 0.33634 0.35186 0.69067
 H186 H 0.39687 0.34608 0.11874
 H187 H 0.45929 0.41059 0.17469
 H188 H 0.40047 0.41653 0.74629
 C189 C 0.13485 0.63620 0.07435
 C190 C 0.13709 0.65584 -0.10334
 C191 C 0.10149 0.63833 -0.24806
 C192 C 0.06574 0.60139 -0.21746
 C193 C 0.06431 0.58139 -0.04132
 C194 C 0.09886 0.59912 0.10483
 H195 H 0.16187 0.64882 0.18845
 H196 H 0.10241 0.65240 -0.38695
 H197 H 0.04059 0.58755 -0.33319
 H198 H 0.09854 0.58387 0.24152
 C199 C 0.61796 1.12666 0.20162
 C200 C 0.63677 1.15461 0.34830
 C201 C 0.61906 1.14510 0.53184
 C202 C 0.58329 1.10820 0.56761
 C203 C 0.56583 1.07999 0.42097
 C204 C 0.58347 1.08933 0.23813
 H205 H 0.63136 1.13292 0.05903
 H206 H 0.63303 1.16603 0.64733
 H207 H 0.57020 1.10111 0.70981
 H208 H 0.57062 1.06760 0.12392
 C209 C 0.11881 0.35587 -0.03354
 C210 C 0.13613 0.34590 0.15049
 C211 C 0.11715 0.37338 0.29754
 C212 C 0.08272 0.41066 0.26103
 C213 C 0.06535 0.42038 0.07774
 C214 C 0.08312 0.39271 -0.06942
 H215 H 0.13292 0.33528 -0.14925
 H216 H 0.13029 0.36676 0.44054
 H217 H 0.06964 0.43201 0.37558
 H218 H 0.07021 0.40013 -0.21194
 C219 C 0.63704 0.86506 0.42587
 C220 C 0.63975 0.84551 0.60371
 C221 C 0.60421 0.86267 0.74766
 C222 C 0.56797 0.89917 0.71613
 C223 C 0.56600 0.91906 0.53983
 C224 C 0.60055 0.90172 0.39446
 H225 H 0.66397 0.85265 0.31240
 H226 H 0.60547 0.84862 0.88660
 H227 H 0.54285 0.91277 0.83128
 H228 H 0.59980 0.91694 0.25772
 C229 C 0.87377 0.13977 -0.06885
 C230 C 0.86086 0.15385 0.11405
 C231 C 0.88498 0.13037 0.26583
 C232 C 0.92027 0.09325 0.23580
 C233 C 0.93330 0.07945 0.05380
 C234 C 0.91001 0.10284 -0.09867
 H235 H 0.85563 0.15709 -0.18831
 H236 H 0.87531 0.13996 0.40847
 H237 H 0.93676 0.07487 0.35475
 H238 H 0.91930 0.09216 -0.24021
 C239 C 0.38066 0.64408 0.47131
 C240 C 0.36216 0.65363 0.65434
 C241 C 0.38011 0.62573 0.80086
 C242 C 0.41463 0.58843 0.76456
 C243 C 0.43317 0.57912 0.58221
 C244 C 0.41649 0.60727 0.43585
 H245 H 0.36738 0.66500 0.35600
 H246 H 0.36608 0.63206 0.94300
 H247 H 0.42697 0.56680 0.87857
 H248 H 0.43032 0.60024 0.29406
   
