data_POSCAR
  _audit_creation_date              2014-09-24
  _audit_creation_method            'ToBaCCo'
  _symmetry_space_group_name_H-M    'P1'
  _symmetry_Int_Tables_number       1
  _symmetry_cell_setting            triclinic
  loop_
  _symmetry_equiv_pos_as_xyz
 x,y,z
_cell_length_a 48.1363
_cell_length_b 48.3551
_cell_length_c 48.2258
_cell_angle_alpha 89.991400
_cell_angle_beta 89.955600
_cell_angle_gamma 89.975000
loop_
  _atom_site_label
  _atom_site_type_symbol
  _atom_site_fract_x
  _atom_site_fract_y
  _atom_site_fract_z
N1 N 0.14196 0.16146 0.21921
 N2 N 0.16139 0.14229 0.21891
 C3 C 0.15727 0.12491 0.24042
 C4 C 0.13412 0.13385 0.25472
 C5 C 0.12485 0.15700 0.24087
 H6 H 0.17010 0.10721 0.24538
 H7 H 0.10705 0.16963 0.24610
 Cu8 Cu 0.18998 0.14220 0.19027
 Cu9 Cu 0.14021 0.19082 0.19154
 Cu10 Cu 0.19124 0.19067 0.14055
 N11 N 0.21866 0.14212 0.16169
 N12 N 0.21897 0.16124 0.14226
 C13 C 0.24063 0.15667 0.12516
 C14 C 0.25449 0.13349 0.13443
 C15 C 0.24016 0.12466 0.15759
 H16 H 0.24587 0.16923 0.10735
 H17 H 0.24509 0.10698 0.17043
 N18 N 0.16143 0.21870 0.14233
 N19 N 0.14202 0.21874 0.16174
 C20 C 0.12478 0.24028 0.15733
 C21 C 0.13383 0.25426 0.13416
 C22 C 0.15702 0.24021 0.12510
 H23 H 0.10696 0.24545 0.16998
 H24 H 0.16966 0.24533 0.10728
 H25 H 0.15968 0.16925 0.16020
 H26 H 0.18210 0.19143 0.18251
 N27 N -0.14222 0.83864 0.21888
 N28 N -0.16163 0.85782 0.21859
 C29 C -0.15748 0.87518 0.24006
 C30 C -0.13430 0.86630 0.25429
 C31 C -0.12508 0.84313 0.24046
 H32 H -0.17026 0.89290 0.24499
 H33 H -0.10728 0.83052 0.24573
 Cu34 Cu -0.19026 0.85787 0.19010
 Cu35 Cu -0.14050 0.80924 0.19131
 Cu36 Cu -0.19160 0.80930 0.14048
 N37 N -0.21892 0.85791 0.16161
 N38 N -0.21928 0.83875 0.14222
 C39 C -0.24098 0.84328 0.12518
 C40 C -0.25478 0.86648 0.13448
 C41 C -0.24044 0.87532 0.15758
 H42 H -0.24630 0.83068 0.10742
 H43 H -0.24529 0.89302 0.17039
 N44 N -0.16179 0.78132 0.14223
 N45 N -0.14235 0.78132 0.16159
 C46 C -0.12512 0.75978 0.15721
 C47 C -0.13421 0.74575 0.13411
 C48 C -0.15739 0.75977 0.12504
 H49 H -0.10730 0.75463 0.16983
 H50 H -0.17006 0.75460 0.10728
 H51 H -0.16001 0.83075 0.15998
 H52 H -0.18242 0.80863 0.18241
 N53 N -0.14253 0.16155 -0.21884
 N54 N -0.16195 0.14240 -0.21856
 C55 C -0.15774 0.12499 -0.23998
 C56 C -0.13457 0.13385 -0.25424
 C57 C -0.12535 0.15702 -0.24042
 H58 H -0.17050 0.10727 -0.24489
 H59 H -0.10749 0.16956 -0.24565
 Cu60 Cu -0.19058 0.14232 -0.19001
 Cu61 Cu -0.14081 0.19092 -0.19120
 Cu62 Cu -0.19188 0.19075 -0.14025
 N63 N -0.21921 0.14220 -0.16144
 N64 N -0.21954 0.16130 -0.14198
 C65 C -0.24116 0.15665 -0.12484
 C66 C -0.25493 0.13345 -0.13414
 C67 C -0.24061 0.12469 -0.15731
 H68 H -0.24642 0.16913 -0.10698
 H69 H -0.24543 0.10699 -0.17012
 N70 N -0.16212 0.21880 -0.14205
 N71 N -0.14270 0.21885 -0.16144
 C72 C -0.12550 0.24040 -0.15706
 C73 C -0.13460 0.25439 -0.13391
 C74 C -0.15776 0.24033 -0.12484
 H75 H -0.10769 0.24559 -0.16971
 H76 H -0.17043 0.24545 -0.10704
 H77 H -0.16026 0.16926 -0.15985
 H78 H -0.18267 0.19151 -0.18215
 N79 N 0.14244 0.83868 -0.21879
 N80 N 0.16188 0.85781 -0.21837
 C81 C 0.15789 0.87519 -0.23984
 C82 C 0.13478 0.86642 -0.25423
 C83 C 0.12542 0.84326 -0.24047
 H84 H 0.17079 0.89282 -0.24470
 H85 H 0.10757 0.83077 -0.24582
 Cu86 Cu 0.19063 0.85769 -0.18993
 Cu87 Cu 0.14056 0.80926 -0.19126
 Cu88 Cu 0.19139 0.80908 -0.14018
 N89 N 0.21895 0.85762 -0.16105
 N90 N 0.21918 0.83842 -0.14169
 C91 C 0.24081 0.84287 -0.12454
 C92 C 0.25475 0.86602 -0.13375
 C93 C 0.24050 0.87493 -0.15689
 H94 H 0.24600 0.83027 -0.10673
 H95 H 0.24548 0.89257 -0.16971
 N96 N 0.16152 0.78116 -0.14211
 N97 N 0.14219 0.78125 -0.16156
 C98 C 0.12487 0.75976 -0.15729
 C99 C 0.13380 0.74566 -0.13414
 C100 C 0.15698 0.75960 -0.12496
 H101 H 0.10710 0.75469 -0.17000
 H102 H 0.16954 0.75437 -0.10714
 H103 H 0.16003 0.83076 -0.15989
 H104 H 0.18242 0.80848 -0.18216
 N105 N 0.16184 1.14244 0.78122
 N106 N 0.14265 1.16181 0.78143
 C107 C 0.12527 1.15772 0.75991
 C108 C 0.13418 1.13460 0.74572
 C109 C 0.15736 1.12536 0.75964
 H110 H 0.10750 1.17048 0.75492
 H111 H 0.17000 1.10758 0.75447
 Cu112 Cu 0.14243 1.19037 0.80991
 Cu113 Cu 0.19117 1.14067 0.80892
 Cu114 Cu 0.19102 1.19145 0.85982
 N115 N 0.14249 1.21879 0.83852
 N116 N 0.16162 1.21904 0.85799
 C117 C 0.15703 1.24058 0.87508
 C118 C 0.13384 1.25443 0.86576
 C119 C 0.12503 1.24024 0.84258
 H120 H 0.16960 1.24578 0.89292
 H121 H 0.10730 1.24518 0.82974
 N122 N 0.21899 1.16176 0.85810
 N123 N 0.21904 1.14243 0.83873
 C124 C 0.24059 1.12521 0.84319
 C125 C 0.25454 1.13424 0.86636
 C126 C 0.24051 1.15733 0.87539
 H127 H 0.24580 1.10745 0.83059
 H128 H 0.24564 1.16990 0.89321
 H129 H 0.16933 1.16019 0.84021
 H130 H 0.19180 1.18246 0.81791
 N131 N 0.83898 0.85771 0.78109
 N132 N 0.85819 0.83833 0.78129
 C133 C 0.87560 0.84244 0.75978
 C134 C 0.86674 0.86559 0.74563
 C135 C 0.84351 0.87482 0.75953
 H136 H 0.89338 0.82971 0.75482
 H137 H 0.83087 0.89257 0.75431
 Cu138 Cu 0.85820 0.80987 0.80981
 Cu139 Cu 0.80952 0.85944 0.80876
 Cu140 Cu 0.80952 0.80854 0.85960
 N141 N 0.85820 0.78132 0.83824
 N142 N 0.83899 0.78102 0.85768
 C143 C 0.84353 0.75945 0.87473
 C144 C 0.86676 0.74567 0.86541
 C145 C 0.87561 0.75987 0.84226
 H146 H 0.83090 0.75415 0.89252
 H147 H 0.89339 0.75498 0.82946
 N148 N 0.78155 0.83824 0.85790
 N149 N 0.78155 0.85761 0.83856
 C150 C 0.75998 0.87480 0.84303
 C151 C 0.74595 0.86571 0.86616
 C152 C 0.75997 0.84260 0.87517
 H153 H 0.75480 0.89258 0.83045
 H154 H 0.75481 0.82998 0.89295
 H155 H 0.83114 0.83983 0.84016
 H156 H 0.80880 0.81759 0.81778
 N157 N 0.16120 0.85703 1.21858
 N158 N 0.14203 0.83764 1.21839
 C159 C 0.12452 0.84183 1.23979
 C160 C 0.13339 0.86492 1.25398
 C161 C 0.15662 0.87416 1.24010
 H162 H 0.10673 0.82910 1.24473
 H163 H 0.16921 0.89193 1.24531
 Cu164 Cu 0.14191 0.80920 1.18989
 Cu165 Cu 0.19063 0.85872 1.19093
 Cu166 Cu 0.19062 0.80789 1.14008
 N167 N 0.14200 0.78071 1.16146
 N168 N 0.16115 0.78041 1.14197
 C169 C 0.15652 0.75891 1.12487
 C170 C 0.13330 0.74517 1.13424
 C171 C 0.12446 0.75940 1.15737
 H172 H 0.16909 0.75363 1.10704
 H173 H 0.10668 0.75454 1.17018
 N174 N 0.21861 0.83752 1.14182
 N175 N 0.21862 0.85687 1.16118
 C176 C 0.24021 0.87402 1.15675
 C177 C 0.25425 0.86493 1.13363
 C178 C 0.24020 0.84187 1.12458
 H179 H 0.24540 0.89178 1.16935
 H180 H 0.24538 0.82926 1.10680
 H181 H 0.16893 0.83920 1.15950
 H182 H 0.19125 0.81693 1.18185
 N183 N 0.83880 1.14290 1.21865
 N184 N 0.85790 1.16235 1.21831
 C185 C 0.87546 1.15832 1.23968
 C186 C 0.86676 1.13519 1.25395
 C187 C 0.84352 1.12585 1.24021
 H188 H 0.89321 1.17113 1.24452
 H189 H 0.83106 1.10799 1.24547
 Cu190 Cu 0.85772 1.19075 1.18976
 Cu191 Cu 0.80929 1.14098 1.19109
 Cu192 Cu 0.80895 1.19170 1.14008
 N193 N 0.85753 1.21914 1.16122
 N194 N 0.83832 1.21931 1.14182
 C195 C 0.84280 1.24081 1.12466
 C196 C 0.86600 1.25466 1.13387
 C197 C 0.87493 1.24055 1.15703
 H198 H 0.83020 1.24595 1.10681
 H199 H 0.89272 1.24553 1.16975
 N200 N 0.78108 1.16195 1.14202
 N201 N 0.78120 1.14265 1.16143
 C202 C 0.75968 1.12539 1.15710
 C203 C 0.74557 1.13434 1.13397
 C204 C 0.75949 1.15747 1.12485
 H205 H 0.75460 1.10763 1.16976
 H206 H 0.75423 1.17001 1.10704
 H207 H 0.83084 1.16055 1.15951
 H208 H 0.80837 1.18275 1.18185
 O209 O 0.46058 1.04964 1.04918
 O210 O 0.43037 1.02326 1.02357
 C211 C 0.43575 1.04218 1.04175
 O212 O 0.53921 1.04790 0.94945
 O213 O 0.56950 1.02259 0.97609
 C214 C 0.56405 1.04054 0.95696
 O215 O 0.46096 1.05003 0.95170
 O216 O 0.43060 1.02361 0.97723
 C217 C 0.43616 1.04257 0.95915
 O218 O 0.53891 1.04749 1.05129
 O219 O 0.56938 1.02282 1.02416
 C220 C 0.56377 1.04047 1.04352
 Zr221 Zr 0.49990 1.03516 1.03501
 O222 O 0.50254 1.07879 1.03175
 O223 O 0.49903 1.03909 1.07866
 Zr224 Zr 0.50006 1.03467 0.96500
 O225 O 0.50292 1.07836 0.96499
 O226 O 0.49725 1.03433 0.92119
 O227 O 0.47509 1.04024 0.99999
 O228 O 0.52419 1.03989 1.00003
 O229 O 0.53917 0.95161 1.05099
 O230 O 0.56947 0.97703 1.02447
 C231 C 0.56401 0.95902 1.04355
 O232 O 0.46084 0.94924 0.95191
 O233 O 0.43052 0.97606 0.97701
 C234 C 0.43599 0.95688 0.95910
 O235 O 0.53917 0.95132 0.94996
 O236 O 0.56949 0.97674 0.97649
 C237 C 0.56397 0.95871 0.95747
 O238 O 0.46094 0.94955 1.04887
 O239 O 0.43058 0.97585 1.02326
 C240 C 0.43613 0.95692 1.04138
 Zr241 Zr 0.50004 0.96491 1.03551
 O242 O 0.50289 0.92121 1.03547
 O243 O 0.49751 0.96516 1.07934
 Zr244 Zr 0.50002 0.96456 0.96535
 O245 O 0.50290 0.92086 0.96598
 O246 O 0.49726 0.96429 0.92153
 Zr247 Zr 0.45878 0.99976 1.00027
 Zr248 Zr 0.54123 0.99980 1.00028
 O249 O 0.52414 0.95973 1.00045
 O250 O 0.47524 0.95934 1.00046
 O251 O 0.52457 1.00007 1.04077
 O252 O 0.47601 0.99961 0.96012
 O253 O 0.47597 0.99998 1.04039
 O254 O 0.52478 0.99958 0.95977
 H255 H 0.53688 1.05602 1.00001
 H256 H 0.46352 0.99958 0.94379
 H257 H 0.53670 0.94350 1.00055
 H258 H 0.46340 0.99984 1.05665
 H259 H 0.51288 1.02309 0.91409
 H260 H 0.51268 0.97573 0.91431
 H261 H 0.48685 0.91378 0.97665
 H262 H 0.48730 0.91404 1.02423
 H263 H 0.51308 0.97656 1.08633
 H264 H 0.49500 1.02058 1.08631
 H265 H 0.48458 1.08567 1.02454
 H266 H 0.48744 1.08554 0.97641
 O267 O 0.04992 0.46102 -0.04889
 O268 O 0.02376 0.43089 -0.02297
 C269 C 0.04259 0.43632 -0.04130
 O270 O 0.04784 0.53892 0.05089
 O271 O 0.02251 0.56911 0.02418
 C272 C 0.04044 0.56362 0.04336
 O273 O 0.05006 0.46098 0.04870
 O274 O 0.02356 0.43084 0.02310
 C275 C 0.04257 0.43627 0.04126
 O276 O 0.04765 0.53893 -0.05101
 O277 O 0.02279 0.56916 -0.02389
 C278 C 0.04053 0.56367 -0.04327
 Zr279 Zr 0.03529 0.50002 -0.03468
 O280 O 0.07911 0.50271 -0.03136
 O281 O 0.03929 0.49914 -0.07833
 Zr282 Zr 0.03466 0.49997 0.03533
 O283 O 0.07854 0.50282 0.03543
 O284 O 0.03420 0.49710 0.07914
 O285 O 0.04030 0.47523 0.00031
 O286 O 0.03998 0.52410 0.00032
 O287 O -0.04857 0.53903 -0.05070
 O288 O -0.02310 0.56915 -0.02411
 C289 C -0.04111 0.56371 -0.04322
 O290 O -0.05110 0.46111 0.04829
 O291 O -0.02420 0.43091 0.02315
 C292 C -0.04343 0.43641 0.04104
 O293 O -0.04898 0.53904 0.05042
 O294 O -0.02342 0.56920 0.02388
 C295 C -0.04153 0.56375 0.04294
 O296 O -0.05070 0.46112 -0.04871
 O297 O -0.02433 0.43090 -0.02309
 C298 C -0.04329 0.43639 -0.04125
 Zr299 Zr -0.03528 0.50005 -0.03525
 O300 O -0.07919 0.50290 -0.03516
 O301 O -0.03504 0.49757 -0.07909
 Zr302 Zr -0.03570 0.50007 0.03492
 O303 O -0.07959 0.50298 0.03426
 O304 O -0.03611 0.49722 0.07873
 Zr305 Zr -0.00036 0.45895 -0.00002
 Zr306 Zr -0.00029 0.54106 0.00003
 O307 O -0.04054 0.52405 -0.00019
 O308 O -0.04094 0.47539 -0.00019
 O309 O 0.00003 0.52453 -0.04046
 O310 O -0.00056 0.47606 0.04014
 O311 O -0.00002 0.47614 -0.04013
 O312 O -0.00054 0.52465 0.04054
 H313 H 0.05616 0.53676 0.00034
 H314 H -0.00062 0.46364 0.05648
 H315 H -0.05683 0.53659 -0.00025
 H316 H -0.00010 0.46362 -0.05638
 H317 H 0.02304 0.51276 0.08626
 H318 H -0.02451 0.51246 0.08600
 H319 H -0.08672 0.48701 0.02361
 H320 H -0.08638 0.48730 -0.02400
 H321 H -0.02374 0.51318 -0.08610
 H322 H 0.02057 0.49580 -0.08597
 H323 H 0.08601 0.48486 -0.02405
 H324 H 0.08579 0.48740 0.02405
 O325 O 1.04880 -0.05019 0.46068
 O326 O 1.02339 -0.02361 0.43041
 C327 C 1.04136 -0.04273 0.43591
 O328 O 0.94983 -0.04787 0.53886
 O329 O 0.97642 -0.02248 0.56908
 C330 C 0.95737 -0.04053 0.56363
 O331 O 0.95185 -0.04993 0.46077
 O332 O 0.97733 -0.02349 0.43045
 C333 C 0.95924 -0.04247 0.43598
 O334 O 1.05104 -0.04794 0.53876
 O335 O 1.02448 -0.02251 0.56904
 C336 C 1.04354 -0.04055 0.56354
 Zr337 Zr 1.03557 -0.03462 0.49972
 O338 O 1.03540 -0.07831 0.50262
 O339 O 1.07946 -0.03448 0.49676
 Zr340 Zr 0.96522 -0.03450 0.49979
 O341 O 0.96523 -0.07821 0.50263
 O342 O 0.92132 -0.03411 0.49700
 O343 O 1.00038 -0.03997 0.47505
 O344 O 1.00040 -0.03958 0.52379
 O345 O 1.05112 0.04874 0.53867
 O346 O 1.02453 0.02340 0.56899
 C347 C 1.04360 0.04141 0.56347
 O348 O 0.95201 0.05095 0.46067
 O349 O 0.97742 0.02437 0.43040
 C350 C 0.95940 0.04345 0.43589
 O351 O 0.94981 0.04878 0.53880
 O352 O 0.97644 0.02344 0.56907
 C353 C 0.95732 0.04142 0.56358
 O354 O 1.04902 0.05080 0.46056
 O355 O 1.02347 0.02434 0.43034
 C356 C 1.04157 0.04334 0.43578
 Zr357 Zr 1.03565 0.03538 0.49965
 O358 O 1.03556 0.07908 0.50245
 O359 O 1.07954 0.03508 0.49675
 Zr360 Zr 0.96532 0.03552 0.49973
 O361 O 0.96559 0.07922 0.50260
 O362 O 0.92142 0.03549 0.49690
 Zr363 Zr 1.00042 0.00042 0.45855
 Zr364 Zr 1.00046 0.00046 0.54091
 O365 O 1.00050 0.04049 0.52373
 O366 O 1.00049 0.04083 0.47496
 O367 O 1.04104 0.00039 0.52441
 O368 O 0.96020 0.00050 0.47573
 O369 O 1.04065 0.00036 0.47562
 O370 O 0.95986 0.00053 0.52449
 H371 H 1.00040 -0.05584 0.53629
 H372 H 0.94389 0.00053 0.46321
 H373 H 1.00050 0.05674 0.53624
 H374 H 1.05695 0.00032 0.46306
 H375 H 0.91417 -0.02327 0.51288
 H376 H 0.91423 0.02414 0.51238
 H377 H 0.97676 0.08632 0.48693
 H378 H 1.02436 0.08625 0.48683
 H379 H 1.08671 0.02404 0.51247
 H380 H 1.08666 -0.02337 0.51240
 H381 H 1.02405 -0.08546 0.48711
 H382 H 0.97649 -0.08538 0.48705
 C383 C 1.09993 0.10009 0.32322
 C384 C 1.10310 0.06855 0.32508
 C385 C 1.09146 0.05741 0.34831
 C386 C 1.07779 0.07889 0.36740
 C387 C 1.05693 0.09423 0.34888
 C388 C 1.06857 0.10538 0.32566
 C389 C 1.11234 0.11121 0.35033
 C390 C 1.10070 0.10006 0.37355
 C391 C 1.11246 0.11218 0.29825
 C392 C 1.12271 0.12228 0.27778
 C393 C 1.06519 0.06683 0.39234
 C394 C 1.05458 0.05652 0.41250
 H395 H 1.11347 0.05605 0.30950
 H396 H 1.09186 0.03537 0.35261
 H397 H 1.03493 0.09605 0.35351
 H398 H 1.05654 0.11675 0.31042
 H399 H 1.12885 0.12647 0.35121
 H400 H 1.10725 0.10577 0.39431
 C401 C 0.90064 -0.09923 0.32383
 C402 C 0.93190 -0.10498 0.32641
 C403 C 0.94360 -0.09382 0.34957
 C404 C 0.92288 -0.07803 0.36788
 C405 C 0.89963 -0.09880 0.37414
 C406 C 0.88794 -0.10994 0.35099
 C407 C 0.89793 -0.06764 0.32541
 C408 C 0.90963 -0.05648 0.34858
 C409 C 0.88804 -0.11134 0.29896
 C410 C 0.87777 -0.12145 0.27856
 C411 C 0.93552 -0.06601 0.39275
 C412 C 0.94618 -0.05566 0.41281
 H413 H 0.94385 -0.11664 0.31130
 H414 H 0.96555 -0.09591 0.35429
 H415 H 0.89289 -0.10421 0.39493
 H416 H 0.87119 -0.12494 0.35194
 H417 H 0.88782 -0.05513 0.30967
 H418 H 0.90952 -0.03440 0.35268
 C419 C 0.89986 0.09903 0.67602
 C420 C 0.88961 0.11227 0.64895
 C421 C 0.90093 0.10083 0.62572
 C422 C 0.92139 0.07727 0.63184
 C423 C 0.90502 0.05661 0.64965
 C424 C 0.89370 0.06805 0.67287
 C425 C 0.93165 0.10129 0.67482
 C426 C 0.94298 0.08985 0.65158
 C427 C 0.88760 0.11136 0.70099
 C428 C 0.87748 0.12157 0.72145
 C429 C 0.93359 0.06486 0.60691
 C430 C 0.94403 0.05435 0.58679
 H431 H 0.87483 0.12921 0.64809
 H432 H 0.89589 0.10797 0.60498
 H433 H 0.90269 0.03485 0.64457
 H434 H 0.88164 0.05611 0.68766
 H435 H 0.94417 0.11097 0.69082
 H436 H 0.96520 0.08972 0.64770
 C437 C 1.10063 -0.09853 0.67600
 C438 C 1.10442 -0.06706 0.67431
 C439 C 1.09316 -0.05555 0.65110
 C440 C 1.07922 -0.07664 0.63182
 C441 C 1.05793 -0.09168 0.65014
 C442 C 1.06919 -0.10319 0.67337
 C443 C 1.11298 -0.10977 0.64888
 C444 C 1.10173 -0.09827 0.62567
 C445 C 1.11284 -0.11093 0.70097
 C446 C 1.12288 -0.12121 0.72143
 C447 C 1.06712 -0.06415 0.60688
 C448 C 1.05676 -0.05357 0.58675
 H449 H 1.11484 -0.05484 0.69007
 H450 H 1.09393 -0.03349 0.64698
 H451 H 1.03594 -0.09310 0.64533
 H452 H 1.05684 -0.11447 0.68845
 H453 H 1.12908 -0.12548 0.64800
 H454 H 1.10816 -0.10414 0.60490
 C455 C 0.32303 1.09936 1.10020
 C456 C 0.32974 1.07020 1.11087
 C457 C 0.35296 1.05894 1.09923
 C458 C 0.36723 1.07793 1.07803
 C459 C 0.37275 1.10498 1.09371
 C460 C 0.34954 1.11624 1.10535
 C461 C 0.32125 1.09634 1.06855
 C462 C 0.34447 1.08508 1.05691
 C463 C 0.29804 1.11159 1.11276
 C464 C 0.27757 1.12180 1.12301
 C465 C 0.39221 1.06572 1.06543
 C466 C 0.41239 1.05531 1.05483
 H467 H 0.31729 1.05930 1.12614
 H468 H 0.36036 1.03839 1.10452
 H469 H 0.39310 1.11449 1.09547
 H470 H 0.35003 1.13539 1.11709
 H471 H 0.30330 1.10242 1.05638
 H472 H 0.34637 1.08154 1.03476
 C473 C 0.32333 0.90002 0.90042
 C474 C 0.35058 0.88888 0.88817
 C475 C 0.37380 0.90006 0.89983
 C476 C 0.36754 0.92130 0.92264
 C477 C 0.34887 0.90600 0.94342
 C478 C 0.32566 0.89482 0.93175
 C479 C 0.32523 0.93155 0.89720
 C480 C 0.34844 0.94274 0.90887
 C481 C 0.29832 0.88785 0.88786
 C482 C 0.27783 0.87766 0.87766
 C483 C 0.39251 0.93339 0.93531
 C484 C 0.41267 0.94373 0.94600
 H485 H 0.35155 0.87360 0.87171
 H486 H 0.39463 0.89435 0.89336
 H487 H 0.35341 0.90422 0.96540
 H488 H 0.31035 0.88347 0.94374
 H489 H 0.30966 0.94401 0.88674
 H490 H 0.35273 0.96478 0.90840
 C491 C 0.67666 0.90095 1.10087
 C492 C 0.66821 0.92842 1.11442
 C493 C 0.64500 0.93997 1.10312
 C494 C 0.63246 0.92292 1.07938
 C495 C 0.62756 0.89406 1.09168
 C496 C 0.65078 0.88252 1.10298
 C497 C 0.67955 0.90755 1.06986
 C498 C 0.65632 0.91910 1.05856
 C499 C 0.70164 0.88848 1.11312
 C500 C 0.72213 0.87818 1.12318
 C501 C 0.60748 0.93546 1.06721
 C502 C 0.58731 0.94605 1.05680
 H503 H 0.67956 0.93805 1.13129
 H504 H 0.63647 0.95947 1.11033
 H505 H 0.60765 0.88352 1.09140
 H506 H 0.65076 0.86211 1.11237
 H507 H 0.69820 0.90353 1.05782
 H508 H 0.65507 0.92492 1.03685
 C509 C 0.67657 1.09885 0.89953
 C510 C 0.67528 1.06730 0.89628
 C511 C 0.65209 1.05572 0.90759
 C512 C 0.63241 1.07680 0.92106
 C513 C 0.62614 1.09797 0.89820
 C514 C 0.64934 1.10955 0.88687
 C515 C 0.67365 1.10401 0.93081
 C516 C 0.65045 1.09242 0.94213
 C517 C 0.70156 1.11134 0.88728
 C518 C 0.72203 1.12169 0.87721
 C519 C 0.60748 1.06418 0.93328
 C520 C 0.58735 1.05354 0.94370
 H521 H 0.69125 1.05511 0.88611
 H522 H 0.64823 1.03360 0.90714
 H523 H 0.60531 1.10348 0.89157
 H524 H 0.64836 1.12496 0.87053
 H525 H 0.68852 1.11570 0.94300
 H526 H 0.64547 1.09420 0.96403
 C527 C 0.09942 0.32396 0.09942
 C528 C 0.11037 0.35097 0.11206
 C529 C 0.09917 0.37415 0.10051
 C530 C 0.07811 0.36806 0.07744
 C531 C 0.05650 0.34887 0.09081
 C532 C 0.06770 0.32568 0.10237
 C533 C 0.10496 0.32658 0.06818
 C534 C 0.09376 0.34976 0.05662
 C535 C 0.11158 0.29902 0.11185
 C536 C 0.12169 0.27858 0.12203
 C537 C 0.06604 0.39296 0.06490
 C538 C 0.05572 0.41307 0.05430
 H539 H 0.12552 0.35181 0.12870
 H540 H 0.10472 0.39484 0.10725
 H541 H 0.03434 0.35308 0.09110
 H542 H 0.05514 0.31005 0.11256
 H543 H 0.11650 0.31147 0.05615
 H544 H 0.09569 0.35448 0.03470
 C545 C -0.10022 0.32407 -0.09920
 C546 C -0.12075 0.34827 -0.09697
 C547 C -0.10957 0.37146 -0.08546
 C548 C -0.07895 0.36820 -0.07730
 C549 C -0.06416 0.35883 -0.10392
 C550 C -0.07535 0.33563 -0.11544
 C551 C -0.08936 0.31968 -0.06961
 C552 C -0.07817 0.34288 -0.05809
 C553 C -0.11237 0.29913 -0.11160
 C554 C -0.12248 0.27870 -0.12178
 C555 C -0.06688 0.39313 -0.06482
 C556 C -0.05652 0.41323 -0.05426
 H557 H -0.14221 0.34727 -0.10381
 H558 H -0.12143 0.39031 -0.08244
 H559 H -0.04637 0.36938 -0.11284
 H560 H -0.06715 0.32633 -0.13423
 H561 H -0.09023 0.30005 -0.05870
 H562 H -0.06947 0.34311 -0.03733
 C563 C 0.09865 0.67603 -0.10007
 C564 C 0.09568 0.67716 -0.06839
 C565 C 0.08408 0.65396 -0.05726
 C566 C 0.07657 0.63190 -0.07891
 C567 C 0.10366 0.62636 -0.09474
 C568 C 0.11527 0.64954 -0.10586
 C569 C 0.06926 0.67001 -0.11084
 C570 C 0.05765 0.64682 -0.09971
 C571 C 0.11118 0.70095 -0.11212
 C572 C 0.12150 0.72138 -0.12213
 C573 C 0.06402 0.60697 -0.06692
 C574 C 0.05346 0.58685 -0.05659
 H575 H 0.10208 0.69466 -0.05582
 H576 H 0.08055 0.65161 -0.03514
 H577 H 0.11300 0.60603 -0.09688
 H578 H 0.13453 0.64906 -0.11756
 H579 H 0.05844 0.68292 -0.12575
 H580 H 0.03688 0.63990 -0.10506
 C581 C -0.09939 0.67608 0.09993
 C582 C -0.10308 0.67397 0.06839
 C583 C -0.09155 0.65077 0.05719
 C584 C -0.07747 0.63195 0.07865
 C585 C -0.10001 0.62589 0.10033
 C586 C -0.11153 0.64909 0.11152
 C587 C -0.06795 0.67381 0.10472
 C588 C -0.05642 0.65061 0.09352
 C589 C -0.11182 0.70101 0.11202
 C590 C -0.12205 0.72145 0.12204
 C591 C -0.06500 0.60705 0.06657
 C592 C -0.05449 0.58694 0.05618
 H593 H -0.11370 0.68939 0.05593
 H594 H -0.09229 0.64633 0.03514
 H595 H -0.10640 0.60520 0.10631
 H596 H -0.12779 0.64827 0.12711
 H597 H -0.05578 0.68915 0.11577
 H598 H -0.03437 0.64609 0.09497
 C599 C 1.09989 0.09990 0.67595
 C600 C 1.11201 0.11145 0.64886
 C601 C 1.10097 0.09980 0.62563
 C602 C 1.07889 0.07776 0.63175
 C603 C 1.05732 0.09234 0.65013
 C604 C 1.06837 0.10399 0.67337
 C605 C 1.10430 0.06851 0.67418
 C606 C 1.09325 0.05687 0.65095
 C607 C 1.11190 0.11241 0.70091
 C608 C 1.12196 0.12260 0.72138
 C609 C 1.06699 0.06513 0.60680
 C610 C 1.05675 0.05448 0.58667
 H611 H 1.12785 0.12740 0.64801
 H612 H 1.10731 0.10580 0.60488
 H613 H 1.03530 0.09334 0.64537
 H614 H 1.05582 0.11496 0.68852
 H615 H 1.11500 0.05645 0.68988
 H616 H 1.09447 0.03484 0.64676
 C617 C 0.90114 -0.09950 0.67597
 C618 C 0.89005 -0.07032 0.67005
 C619 C 0.90111 -0.05856 0.64687
 C620 C 0.92216 -0.07713 0.63187
 C621 C 0.90659 -0.10422 0.62617
 C622 C 0.89553 -0.11597 0.64936
 C623 C 0.93284 -0.09628 0.67716
 C624 C 0.94391 -0.08452 0.65397
 C625 C 0.88910 -0.11214 0.70088
 C626 C 0.87901 -0.12239 0.72132
 C627 C 0.93406 -0.06439 0.60696
 C628 C 0.94429 -0.05365 0.58685
 H629 H 0.87498 -0.05973 0.68303
 H630 H 0.89553 -0.03791 0.63998
 H631 H 0.90454 -0.11343 0.60575
 H632 H 0.88400 -0.13525 0.64881
 H633 H 0.94547 -0.10262 0.69469
 H634 H 0.96603 -0.08080 0.65162
 C635 C 1.09856 -0.10067 0.32360
 C636 C 1.10113 -0.06905 0.32471
 C637 C 1.08974 -0.05763 0.34792
 C638 C 1.07691 -0.07896 0.36772
 C639 C 1.10038 -0.09955 0.37387
 C640 C 1.11176 -0.11097 0.35067
 C641 C 1.06738 -0.10652 0.32678
 C642 C 1.05599 -0.09509 0.34998
 C643 C 1.11084 -0.11297 0.29867
 C644 C 1.12106 -0.12309 0.27825
 C645 C 1.06458 -0.06662 0.39259
 C646 C 1.05418 -0.05609 0.41270
 H647 H 1.11096 -0.05670 0.30867
 H648 H 1.08982 -0.03551 0.35176
 H649 H 1.10751 -0.10465 0.39461
 H650 H 1.12863 -0.12586 0.35152
 H651 H 1.05528 -0.11843 0.31203
 H652 H 1.03413 -0.09723 0.35510
 C653 C 0.90180 0.10101 0.32359
 C654 C 0.88951 0.11228 0.35071
 C655 C 0.90095 0.10094 0.37391
 C656 C 0.92356 0.07945 0.36772
 C657 C 0.94466 0.09449 0.34921
 C658 C 0.93322 0.10583 0.32601
 C659 C 0.89817 0.06952 0.32541
 C660 C 0.90961 0.05817 0.34862
 C661 C 0.88946 0.11326 0.29866
 C662 C 0.87918 0.12330 0.27822
 C663 C 0.93597 0.06723 0.39262
 C664 C 0.94647 0.05675 0.41270
 H665 H 0.87318 0.12775 0.35161
 H666 H 0.89442 0.10666 0.39468
 H667 H 0.96669 0.09595 0.35381
 H668 H 0.94542 0.11704 0.31077
 H669 H 0.88759 0.05722 0.30983
 H670 H 0.90884 0.03613 0.35290
 C671 C 0.09923 0.32403 -0.09963
 C672 C 0.10606 0.35068 -0.11555
 C673 C 0.09490 0.37386 -0.10395
 C674 C 0.07801 0.36813 -0.07758
 C675 C 0.09793 0.35255 -0.05825
 C676 C 0.10909 0.32938 -0.06985
 C677 C 0.06740 0.32339 -0.09780
 C678 C 0.05624 0.34657 -0.08620
 C679 C 0.11136 0.29913 -0.11210
 C680 C 0.12152 0.27871 -0.12227
 C681 C 0.06599 0.39304 -0.06503
 C682 C 0.05569 0.41314 -0.05441
 H683 H 0.11850 0.35129 -0.13432
 H684 H 0.09775 0.39431 -0.11278
 H685 H 0.10268 0.35905 -0.03723
 H686 H 0.12344 0.31604 -0.05876
 H687 H 0.05475 0.30620 -0.10488
 H688 H 0.03402 0.34924 -0.08335
 C689 C -0.09975 0.32423 0.09928
 C690 C -0.12125 0.34250 0.08454
 C691 C -0.11018 0.36571 0.07296
 C692 C -0.07872 0.36835 0.07726
 C693 C -0.06643 0.34139 0.06571
 C694 C -0.07750 0.31818 0.07729
 C695 C -0.08552 0.34334 0.12033
 C696 C -0.07445 0.36656 0.10874
 C697 C -0.11175 0.29932 0.11171
 C698 C -0.12180 0.27890 0.12187
 C699 C -0.06681 0.39322 0.06473
 C700 C -0.05656 0.41330 0.05410
 H701 H -0.14321 0.33760 0.08321
 H702 H -0.12263 0.38068 0.06169
 H703 H -0.05039 0.34061 0.04988
 H704 H -0.07097 0.29751 0.07139
 H705 H -0.08412 0.33895 0.14236
 H706 H -0.06352 0.38204 0.12083
 C707 C -0.09847 0.67608 -0.10037
 C708 C -0.10166 0.67443 -0.06873
 C709 C -0.09024 0.65121 -0.05745
 C710 C -0.07678 0.63196 -0.07893
 C711 C -0.05574 0.65016 -0.09440
 C712 C -0.06715 0.67335 -0.10569
 C713 C -0.11116 0.64912 -0.11137
 C714 C -0.09976 0.62592 -0.10009
 C715 C -0.11077 0.70097 -0.11260
 C716 C -0.12096 0.72139 -0.12267
 C717 C -0.06443 0.60703 -0.06682
 C718 C -0.05399 0.58690 -0.05646
 H719 H -0.11188 0.69013 -0.05627
 H720 H -0.09069 0.64703 -0.03533
 H721 H -0.03377 0.64536 -0.09615
 H722 H -0.05496 0.68843 -0.11711
 H723 H -0.12774 0.64834 -0.12659
 H724 H -0.10658 0.60526 -0.10564
 C725 C 0.09820 0.67575 0.10023
 C726 C 0.10160 0.67385 0.06863
 C727 C 0.09007 0.65067 0.05745
 C728 C 0.07629 0.63170 0.07898
 C729 C 0.05529 0.65019 0.09417
 C730 C 0.06682 0.67335 0.10536
 C731 C 0.11059 0.64876 0.11153
 C732 C 0.09907 0.62559 0.10034
 C733 C 0.11061 0.70061 0.11233
 C734 C 0.12092 0.72097 0.12234
 C735 C 0.06383 0.60684 0.06695
 C736 C 0.05333 0.58676 0.05661
 H737 H 0.11205 0.68937 0.05615
 H738 H 0.09062 0.64634 0.03536
 H739 H 0.03327 0.64560 0.09580
 H740 H 0.05469 0.68861 0.11660
 H741 H 0.12706 0.64791 0.12687
 H742 H 0.10566 0.60489 0.10607
 C743 C 0.32404 1.09976 0.90120
 C744 C 0.32544 1.10321 0.93280
 C745 C 0.34862 1.09192 0.94436
 C746 C 0.36811 1.07833 0.92315
 C747 C 0.37442 1.10099 0.90179
 C748 C 0.35122 1.11227 0.89024
 C749 C 0.32677 1.06854 0.89616
 C750 C 0.34997 1.05725 0.90772
 C751 C 0.29917 1.11196 0.88878
 C752 C 0.27877 1.12210 0.87855
 C753 C 0.39293 1.06619 0.93564
 C754 C 0.41300 1.05577 0.94620
 H755 H 0.30954 1.11345 0.94504
 H756 H 0.35261 1.09248 0.96651
 H757 H 0.39525 1.10754 0.89619
 H758 H 0.35217 1.12851 0.87472
 H759 H 0.31178 1.05635 0.88462
 H760 H 0.35486 1.03539 0.90610
 C761 C 0.32392 0.89938 1.09902
 C762 C 0.34673 0.90592 1.12026
 C763 C 0.36995 0.91726 1.10881
 C764 C 0.36805 0.92094 1.07726
 C765 C 0.34167 0.93817 1.07254
 C766 C 0.31845 0.92682 1.08399
 C767 C 0.33792 0.88077 1.07735
 C768 C 0.36114 0.89212 1.06590
 C769 C 0.29900 0.88714 1.11133
 C770 C 0.27855 0.87701 1.12149
 C771 C 0.39291 0.93317 1.06485
 C772 C 0.41297 0.94366 1.05432
 H773 H 0.34475 0.90211 1.14236
 H774 H 0.38788 0.92320 1.12108
 H775 H 0.34127 0.95759 1.06124
 H776 H 0.29815 0.93650 1.08250
 H777 H 0.33022 0.86052 1.07144
 H778 H 0.37335 0.88160 1.05017
 C779 C 0.67599 1.09922 1.09989
 C780 C 0.65115 1.09866 1.11986
 C781 C 0.62795 1.08693 1.10882
 C782 C 0.63187 1.07692 1.07890
 C783 C 0.65694 1.05731 1.07990
 C784 C 0.68015 1.06904 1.09095
 C785 C 0.66532 1.11410 1.07387
 C786 C 0.64211 1.10236 1.06281
 C787 C 0.70088 1.11181 1.11189
 C788 C 0.72130 1.12211 1.12191
 C789 C 0.60699 1.06420 1.06701
 C790 C 0.58691 1.05349 1.05675
 H791 H 0.65175 1.10678 1.14084
 H792 H 0.60864 1.08501 1.12031
 H793 H 0.65654 1.03613 1.07242
 H794 H 0.69964 1.05792 1.09294
 H795 H 0.67521 1.13217 1.06484
 H796 H 0.63210 1.11037 1.04431
 C797 C 0.67627 0.90044 0.90059
 C798 C 0.67409 0.93172 0.89560
 C799 C 0.65088 0.94332 0.90682
 C800 C 0.63214 0.92249 0.92189
 C801 C 0.65105 0.90854 0.94337
 C802 C 0.67427 0.89693 0.93216
 C803 C 0.64910 0.88836 0.88918
 C804 C 0.62588 0.89996 0.90040
 C805 C 0.70120 0.88800 0.88845
 C806 C 0.72165 0.87781 0.87833
 C807 C 0.60727 0.93507 0.93396
 C808 C 0.58718 0.94569 0.94431
 H809 H 0.68950 0.94372 0.88441
 H810 H 0.64639 0.96527 0.90525
 H811 H 0.64663 0.90789 0.96545
 H812 H 0.68976 0.88633 0.94461
 H813 H 0.64818 0.87206 0.87373
 H814 H 0.60505 0.89361 0.89458
   
