data_POSCAR
  _audit_creation_date              2014-09-24
  _audit_creation_method            'ToBaCCo'
  _symmetry_space_group_name_H-M    'P1'
  _symmetry_Int_Tables_number       1
  _symmetry_cell_setting            triclinic
  loop_
  _symmetry_equiv_pos_as_xyz
 x,y,z
_cell_length_a 23.8015
_cell_length_b 24.5834
_cell_length_c 24.3920
_cell_angle_alpha 90.029500
_cell_angle_beta 91.558500
_cell_angle_gamma 89.978500
loop_
  _atom_site_label
  _atom_site_type_symbol
  _atom_site_fract_x
  _atom_site_fract_y
  _atom_site_fract_z
C1 C 0.24986 0.25166 0.24998
 C2 C 0.75005 0.75175 0.24990
 C3 C 0.75008 0.25204 0.75014
 C4 C 0.25034 0.75223 0.74964
 C5 C 0.07724 0.07810 0.02360
 H6 H 0.07983 0.08004 -0.02057
 C7 C 0.10882 0.11389 0.05645
 H8 H 0.13664 0.14234 0.03698
 C9 C 0.03924 0.03700 0.10210
 H10 H 0.01197 0.00713 0.11987
 C11 C 0.07008 0.07198 0.13649
 H12 H 0.06730 0.06660 0.18029
 N13 N 0.04351 0.04044 0.04675
 C14 C 0.02361 -0.08794 -0.07616
 H15 H -0.02168 -0.09179 -0.07807
 C16 C 0.05656 -0.12043 -0.10955
 H17 H 0.03604 -0.14982 -0.13638
 C18 C 0.10488 -0.04652 -0.03682
 H19 H 0.12369 -0.01857 -0.00753
 C20 C 0.13942 -0.07822 -0.06941
 H21 H 0.18442 -0.07450 -0.06357
 Zn22 Zn 0.00054 -0.00537 -0.00070
 N23 N 0.04804 -0.05068 -0.04196
 C24 C -0.03913 0.03696 -0.10323
 N25 N -0.04250 0.04066 -0.04782
 C26 C -0.07569 0.07858 -0.02427
 C27 C -0.10762 0.11440 -0.05675
 C28 C -0.07038 0.07193 -0.13727
 C29 C -0.02269 -0.08795 0.07444
 C30 C -0.05568 -0.12019 0.10793
 C31 C -0.13845 -0.07730 0.06833
 C32 C -0.10387 -0.04588 0.03560
 N33 N -0.04704 -0.05050 0.04042
 H34 H -0.01234 0.00683 -0.12133
 H35 H -0.07764 0.08065 0.01995
 H36 H -0.13501 0.14302 -0.03691
 H37 H -0.06837 0.06637 -0.18112
 H38 H 0.02258 -0.09208 0.07615
 H39 H -0.03526 -0.14975 0.13463
 H40 H -0.18345 -0.07321 0.06276
 H41 H -0.12263 -0.01774 0.00647
 C42 C 0.11538 -0.11418 -0.10841
 C43 C 0.10451 0.11227 0.11388
 C44 C -0.11444 -0.11348 0.10710
 C45 C -0.10423 0.11253 -0.11424
 C46 C 0.07756 0.57976 0.52474
 H47 H 0.07989 0.58170 0.48055
 C48 C 0.10947 0.61547 0.55742
 H49 H 0.13721 0.64384 0.53775
 C50 C 0.04006 0.53867 0.60347
 H51 H 0.01290 0.50880 0.62141
 C52 C 0.07125 0.57355 0.63769
 H53 H 0.06880 0.56813 0.68152
 N54 N 0.04390 0.54215 0.54808
 C55 C 0.02347 0.41334 0.42579
 H56 H -0.02183 0.40950 0.42417
 C57 C 0.05618 0.38077 0.39229
 H58 H 0.03552 0.35129 0.36567
 C59 C 0.10497 0.45499 0.46443
 H60 H 0.12395 0.48309 0.49347
 C61 C 0.13929 0.42320 0.43171
 H62 H 0.18431 0.42698 0.43723
 Zn63 Zn 0.00077 0.49620 0.50083
 N64 N 0.04811 0.45075 0.45969
 C65 C -0.03823 0.53815 0.39799
 N66 N -0.04224 0.54191 0.45335
 C67 C -0.07612 0.57953 0.47645
 C68 C -0.10818 0.61487 0.44355
 C69 C -0.06952 0.57269 0.36354
 C70 C -0.02240 0.41374 0.57613
 C71 C -0.05538 0.38118 0.60933
 C72 C -0.13822 0.42355 0.56926
 C73 C -0.10364 0.45528 0.53682
 N74 N -0.04680 0.45107 0.54200
 H75 H -0.01087 0.50831 0.38024
 H76 H -0.07856 0.58169 0.52063
 H77 H -0.13612 0.64325 0.46301
 H78 H -0.06692 0.56706 0.31976
 H79 H 0.02289 0.40986 0.57807
 H80 H -0.03491 0.35171 0.63608
 H81 H -0.18321 0.42731 0.56339
 H82 H -0.12242 0.48326 0.50756
 C83 C 0.11498 0.38707 0.39302
 C84 C 0.10558 0.61383 0.61489
 C85 C -0.11420 0.38746 0.60811
 C86 C -0.10416 0.61290 0.38610
 C87 C 0.57578 0.07900 0.52419
 H88 H 0.57773 0.08110 0.47998
 C89 C 0.60772 0.11477 0.55674
 H90 H 0.63511 0.14338 0.53695
 C91 C 0.53921 0.03737 0.60309
 H92 H 0.51240 0.00726 0.62114
 C93 C 0.57047 0.07228 0.63718
 H94 H 0.56846 0.06667 0.68102
 N95 N 0.54259 0.04109 0.54768
 C96 C 0.52295 -0.08758 0.42540
 H97 H 0.47768 -0.09176 0.42374
 C98 C 0.55596 -0.11985 0.39190
 H99 H 0.53556 -0.14946 0.36523
 C100 C 0.60409 -0.04538 0.46414
 H101 H 0.62283 -0.01718 0.49323
 C102 C 0.63870 -0.07680 0.43138
 H103 H 0.68368 -0.07266 0.43690
 Zn104 Zn 0.49962 -0.00497 0.50052
 N105 N 0.54727 -0.05007 0.45938
 C106 C 0.46091 0.03732 0.39775
 N107 N 0.45659 0.04076 0.45310
 C108 C 0.42273 0.07835 0.47626
 C109 C 0.39105 0.11405 0.44341
 C110 C 0.42999 0.07222 0.36336
 C111 C 0.47670 -0.08742 0.57600
 C112 C 0.44384 -0.11985 0.60944
 C113 C 0.36087 -0.07797 0.56911
 C114 C 0.39536 -0.04629 0.53650
 N115 N 0.45220 -0.05029 0.54173
 H116 H 0.48829 0.00750 0.37997
 H117 H 0.42009 0.08028 0.52043
 H118 H 0.36313 0.14244 0.46288
 H119 H 0.43283 0.06684 0.31956
 H120 H 0.52201 -0.09118 0.57793
 H121 H 0.46448 -0.14912 0.63631
 H122 H 0.31587 -0.07439 0.56308
 H123 H 0.37651 -0.01850 0.50710
 C124 C 0.61470 -0.11308 0.39267
 C125 C 0.60434 0.11285 0.61423
 C126 C 0.38493 -0.11372 0.60840
 C127 C 0.39542 0.11244 0.38599
 C128 C 0.57548 0.57969 0.02357
 H129 H 0.57769 0.58185 -0.02062
 C130 C 0.60761 0.61508 0.05637
 H131 H 0.63538 0.64349 0.03679
 C132 C 0.53813 0.53820 0.10217
 H133 H 0.51097 0.50827 0.12001
 C134 C 0.56951 0.57278 0.13651
 H135 H 0.56718 0.56711 0.18032
 N136 N 0.54183 0.54200 0.04679
 C137 C 0.52231 0.41343 -0.07567
 H138 H 0.47703 0.40940 -0.07759
 C139 C 0.55542 0.38086 -0.10880
 H140 H 0.53507 0.35124 -0.13548
 C141 C 0.60338 0.45537 -0.03650
 H142 H 0.62206 0.48351 -0.00732
 C143 C 0.63808 0.42365 -0.06888
 H144 H 0.68306 0.42759 -0.06303
 Zn145 Zn 0.49886 0.49614 -0.00058
 N146 N 0.54656 0.45096 -0.04166
 C147 C 0.45939 0.53817 -0.10330
 N148 N 0.45567 0.54194 -0.04792
 C149 C 0.42209 0.57972 -0.02466
 C150 C 0.39021 0.61537 -0.05741
 C151 C 0.42821 0.57298 -0.13760
 C152 C 0.47618 0.41336 0.07447
 C153 C 0.44346 0.38079 0.10790
 C154 C 0.36036 0.42328 0.06850
 C155 C 0.39469 0.45505 0.03585
 N156 N 0.45155 0.45077 0.04059
 H157 H 0.48645 0.50815 -0.12119
 H158 H 0.41984 0.58185 0.01953
 H159 H 0.36257 0.64391 -0.03779
 H160 H 0.43057 0.56736 -0.18141
 H161 H 0.52148 0.40948 0.07609
 H162 H 0.46411 0.35129 0.13448
 H163 H 0.31534 0.42709 0.06297
 H164 H 0.37572 0.48317 0.00683
 C165 C 0.61421 0.38734 -0.10762
 C166 C 0.60392 0.61306 0.11383
 C167 C 0.38466 0.38712 0.10714
 C168 C 0.39404 0.61350 -0.11488
 C169 C 0.21356 -0.21056 -0.21148
 C170 C 0.15627 -0.18933 -0.23653
 C171 C 0.12533 -0.15732 -0.20348
 C172 C 0.15157 -0.14797 -0.14636
 C173 C 0.16307 -0.20469 -0.12372
 C174 C 0.19445 -0.23672 -0.15638
 C175 C 0.24134 -0.15627 -0.19057
 C176 C 0.20957 -0.12456 -0.15802
 H177 H 0.14078 -0.19581 -0.27784
 H178 H 0.08659 -0.13831 -0.21813
 H179 H 0.14713 -0.21903 -0.08502
 H180 H 0.20274 -0.27767 -0.14299
 H181 H 0.28223 -0.14133 -0.20056
 H182 H 0.22418 -0.08483 -0.14461
 C183 C 0.21185 0.29048 0.29029
 C184 C 0.24044 0.34414 0.31052
 C185 C 0.20908 0.37619 0.34314
 C186 C 0.15085 0.35309 0.35503
 C187 C 0.12436 0.34376 0.29785
 C188 C 0.15513 0.31148 0.26484
 C189 C 0.19319 0.26403 0.34493
 C190 C 0.16208 0.29620 0.37773
 H191 H 0.28160 0.35797 0.29981
 H192 H 0.22406 0.41584 0.35639
 H193 H 0.08560 0.36278 0.28327
 H194 H 0.14011 0.30424 0.22345
 H195 H 0.20192 0.22288 0.35763
 H196 H 0.14626 0.28196 0.41651
 C197 C 0.71204 -0.20936 0.29012
 C198 C 0.74056 -0.15569 0.31043
 C199 C 0.70910 -0.12369 0.34305
 C200 C 0.65084 -0.14686 0.35477
 C201 C 0.62450 -0.15613 0.29753
 C202 C 0.65538 -0.18833 0.26456
 C203 C 0.69330 -0.23584 0.34472
 C204 C 0.66207 -0.20375 0.37745
 H205 H 0.78172 -0.14183 0.29973
 H206 H 0.72400 -0.08405 0.35638
 H207 H 0.58580 -0.13706 0.28287
 H208 H 0.64050 -0.19538 0.22311
 H209 H 0.70211 -0.27696 0.35746
 H210 H 0.64621 -0.21802 0.41621
 C211 C 0.71197 0.29088 -0.20966
 C212 C 0.74043 0.34454 -0.18926
 C213 C 0.70882 0.37657 -0.15681
 C214 C 0.65050 0.35342 -0.14529
 C215 C 0.62439 0.34410 -0.20261
 C216 C 0.65538 0.31188 -0.23541
 C217 C 0.69307 0.26442 -0.15511
 C218 C 0.66167 0.29654 -0.12252
 H219 H 0.78167 0.35835 -0.19970
 H220 H 0.72370 0.41620 -0.14340
 H221 H 0.58575 0.36316 -0.21745
 H222 H 0.64063 0.30477 -0.27691
 H223 H 0.70197 0.22334 -0.14230
 H224 H 0.64572 0.28232 -0.08378
 C225 C -0.20791 0.21311 -0.21157
 C226 C -0.23436 0.15946 -0.19019
 C227 C -0.19974 0.12754 -0.15897
 C228 C -0.14050 0.15011 -0.15016
 C229 C -0.11928 0.16067 -0.20797
 C230 C -0.15379 0.19246 -0.23953
 C231 C -0.18361 0.23952 -0.15787
 C232 C -0.14890 0.20735 -0.12682
 H233 H -0.27727 0.14685 -0.19717
 H234 H -0.21378 0.08951 -0.14133
 H235 H -0.07905 0.14704 -0.22264
 H236 H -0.14154 0.20217 -0.28054
 H237 H -0.19033 0.28094 -0.14519
 H238 H -0.12734 0.22260 -0.09017
 C239 C -0.20788 0.71287 0.28817
 C240 C -0.23429 0.65929 0.30975
 C241 C -0.19966 0.62753 0.34114
 C242 C -0.14042 0.65015 0.34981
 C243 C -0.11926 0.66043 0.29191
 C244 C -0.15381 0.69208 0.26022
 C245 C -0.18350 0.73950 0.34173
 C246 C -0.14877 0.70747 0.37287
 H247 H -0.27716 0.64656 0.30265
 H248 H -0.21365 0.58951 0.35886
 H249 H -0.07905 0.64673 0.27723
 H250 H -0.14164 0.70161 0.21914
 H251 H -0.19011 0.78097 0.35424
 H252 H -0.12717 0.72289 0.40943
 C253 C 0.29198 0.21280 0.28823
 C254 C 0.26552 0.15921 0.30972
 C255 C 0.30010 0.12736 0.34103
 C256 C 0.35934 0.14990 0.34977
 C257 C 0.38056 0.16029 0.29190
 C258 C 0.34607 0.19208 0.26028
 C259 C 0.31637 0.23933 0.34184
 C260 C 0.35104 0.20719 0.37295
 H261 H 0.22263 0.14655 0.30272
 H262 H 0.28604 0.08935 0.35870
 H263 H 0.42079 0.14665 0.27725
 H264 H 0.35832 0.20182 0.21927
 H265 H 0.30984 0.28081 0.35438
 H266 H 0.37264 0.22247 0.40957
 C267 C 0.29060 0.71457 -0.21337
 C268 C 0.31507 0.74046 -0.15899
 C269 C 0.34951 0.70817 -0.12784
 C270 C 0.35801 0.65109 -0.15110
 C271 C 0.29897 0.62856 -0.16030
 C272 C 0.26449 0.66040 -0.19171
 C273 C 0.34545 0.69341 -0.24051
 C274 C 0.37963 0.66162 -0.20862
 H275 H 0.30888 0.78169 -0.14560
 H276 H 0.37087 0.72335 -0.09104
 H277 H 0.28484 0.59054 -0.14269
 H278 H 0.22181 0.64709 -0.19832
 H279 H 0.35879 0.70239 -0.28129
 H280 H 0.41995 0.64787 -0.22298
 C281 C -0.21187 -0.20949 0.20966
 C282 C -0.24031 -0.15578 0.18936
 C283 C -0.20881 -0.12389 0.15675
 C284 C -0.15058 -0.14719 0.14501
 C285 C -0.12425 -0.15646 0.20225
 C286 C -0.15517 -0.18856 0.23522
 C287 C -0.19318 -0.23608 0.15507
 C288 C -0.16190 -0.20408 0.12233
 H289 H -0.28145 -0.14182 0.20006
 H290 H -0.22365 -0.08422 0.14342
 H291 H -0.08553 -0.13746 0.21692
 H292 H -0.14030 -0.19561 0.27667
 H293 H -0.20205 -0.27719 0.14234
 H294 H -0.14607 -0.21842 0.08357
 C295 C -0.21182 0.29091 0.71004
 C296 C -0.19294 0.26450 0.65543
 C297 C -0.16157 0.29664 0.62288
 C298 C -0.15039 0.35349 0.64577
 C299 C -0.20870 0.37667 0.65738
 C300 C -0.24028 0.34462 0.68977
 C301 C -0.15522 0.31184 0.73581
 C302 C -0.12424 0.34409 0.70306
 H303 H -0.20181 0.22343 0.64254
 H304 H -0.14562 0.28245 0.58411
 H305 H -0.22359 0.41632 0.64405
 H306 H -0.28152 0.35845 0.70026
 H307 H -0.14046 0.30468 0.77729
 H308 H -0.08561 0.36312 0.71793
 C309 C 0.28727 -0.21019 0.71079
 C310 C 0.34125 -0.19011 0.73531
 C311 C 0.37385 -0.15629 0.70077
 C312 C 0.34867 -0.14778 0.64643
 C313 C 0.33836 -0.20177 0.62448
 C314 C 0.30543 -0.23548 0.65880
 C315 C 0.26013 -0.15905 0.69115
 C316 C 0.29336 -0.12544 0.65704
 H317 H 0.35597 -0.19540 0.77697
 H318 H 0.41127 -0.13548 0.71624
 H319 H 0.35494 -0.21623 0.58605
 H320 H 0.29814 -0.27668 0.64579
 H321 H 0.21934 -0.14416 0.70143
 H322 H 0.27957 -0.08483 0.64570
 C323 C 0.28782 0.29050 0.20971
 C324 C 0.30653 0.26405 0.15505
 C325 C 0.33762 0.29623 0.12230
 C326 C 0.34878 0.35313 0.14506
 C327 C 0.29050 0.37620 0.15694
 C328 C 0.25916 0.34414 0.18952
 C329 C 0.34450 0.31152 0.23520
 C330 C 0.37525 0.34381 0.20225
 H331 H 0.29783 0.22291 0.14230
 H332 H 0.35347 0.28200 0.08350
 H333 H 0.27548 0.41584 0.14371
 H334 H 0.21797 0.35793 0.20021
 H335 H 0.35952 0.30430 0.27659
 H336 H 0.41397 0.36285 0.21686
 C337 C 0.20778 0.21277 0.21170
 C338 C 0.23433 0.15920 0.19016
 C339 C 0.19981 0.12730 0.15884
 C340 C 0.14053 0.14979 0.15011
 C341 C 0.11929 0.16018 0.20799
 C342 C 0.15373 0.19201 0.23963
 C343 C 0.18335 0.23926 0.15811
 C344 C 0.14874 0.20708 0.12697
 H345 H 0.27725 0.14657 0.19714
 H346 H 0.21393 0.08930 0.14113
 H347 H 0.07908 0.14651 0.22263
 H348 H 0.14146 0.20176 0.28065
 H349 H 0.18982 0.28075 0.14561
 H350 H 0.12711 0.22235 0.09037
 C351 C 0.20968 0.71476 0.71287
 C352 C 0.23552 0.66045 0.69116
 C353 C 0.20084 0.62867 0.65991
 C354 C 0.14181 0.65136 0.65099
 C355 C 0.12052 0.66207 0.70863
 C356 C 0.15494 0.69383 0.74032
 C357 C 0.18494 0.74066 0.65863
 C358 C 0.15031 0.70839 0.62765
 H359 H 0.27817 0.64696 0.69780
 H360 H 0.21475 0.59052 0.64236
 H361 H 0.08027 0.64844 0.72323
 H362 H 0.14195 0.70295 0.78118
 H363 H 0.19072 0.78195 0.64533
 H364 H 0.12863 0.72360 0.59105
 C365 C 0.70806 0.21319 0.71177
 C366 C 0.73449 0.15955 0.69027
 C367 C 0.69986 0.12769 0.65897
 C368 C 0.64063 0.15035 0.65022
 C369 C 0.61941 0.16086 0.70805
 C370 C 0.65394 0.19256 0.73968
 C371 C 0.68378 0.23969 0.65812
 C372 C 0.64905 0.20759 0.62701
 H373 H 0.77740 0.14688 0.69721
 H374 H 0.71388 0.08967 0.64125
 H375 H 0.57917 0.14727 0.72269
 H376 H 0.64169 0.20222 0.78071
 H377 H 0.69052 0.28111 0.64553
 H378 H 0.62750 0.22291 0.59039
 C379 C 0.70790 0.71293 0.21163
 C380 C 0.73420 0.65925 0.19006
 C381 C 0.69950 0.62753 0.15870
 C382 C 0.64030 0.65030 0.15003
 C383 C 0.61917 0.66072 0.20793
 C384 C 0.65380 0.69232 0.23959
 C385 C 0.68357 0.73954 0.15807
 C386 C 0.64877 0.70757 0.12695
 H387 H 0.77706 0.64643 0.19714
 H388 H 0.71340 0.58946 0.14098
 H389 H 0.57895 0.64712 0.22262
 H390 H 0.64166 0.70191 0.28068
 H391 H 0.69026 0.78098 0.14554
 H392 H 0.62716 0.72300 0.09041
   
