data_POSCAR
  _audit_creation_date              2014-09-24
  _audit_creation_method            'ToBaCCo'
  _symmetry_space_group_name_H-M    'P1'
  _symmetry_Int_Tables_number       1
  _symmetry_cell_setting            triclinic
  loop_
  _symmetry_equiv_pos_as_xyz
 x,y,z
_cell_length_a 36.8147
_cell_length_b 37.4267
_cell_length_c 16.8639
_cell_angle_alpha 89.741000
_cell_angle_beta 89.945000
_cell_angle_gamma 118.438500
loop_
  _atom_site_label
  _atom_site_type_symbol
  _atom_site_fract_x
  _atom_site_fract_y
  _atom_site_fract_z
C1 C 0.49858 1.00225 0.46468
 C2 C 0.49706 1.00207 0.54534
 C3 C 0.47704 0.96359 0.59160
 C4 C 0.51536 1.04017 0.59220
 C5 C 0.51980 1.04058 0.41812
 C6 C 0.47869 0.96407 0.41818
 C7 C 0.44506 0.95689 0.64443
 C8 C 0.42640 0.92148 0.69023
 C9 C 0.43961 0.89168 0.68474
 C10 C 0.47218 0.89905 0.63171
 C11 C 0.49064 0.93453 0.58577
 C12 C 0.50388 1.07054 0.57948
 C13 C 0.52090 1.10578 0.62560
 C14 C 0.54927 1.11092 0.68636
 C15 C 0.56044 1.08029 0.69867
 C16 C 0.54361 1.04531 0.65239
 C17 C 0.56177 1.06808 0.42968
 C18 C 0.58116 1.10370 0.38417
 C19 C 0.55894 1.11247 0.32662
 C20 C 0.51712 1.08432 0.31409
 C21 C 0.49784 1.04882 0.35945
 C22 C 0.50230 0.95573 0.36350
 C23 C 0.48398 0.92079 0.31716
 C24 C 0.44161 0.89341 0.32415
 C25 C 0.41783 0.90196 0.37889
 C26 C 0.43626 0.93704 0.42529
 H27 H 0.43451 0.97929 0.65027
 H28 H 0.40247 0.91884 0.73049
 H29 H 0.48365 0.87736 0.62566
 H30 H 0.51585 0.93953 0.54624
 H31 H 0.48156 1.06685 0.53415
 H32 H 0.51157 1.12853 0.61301
 H33 H 0.55276 1.02218 0.66344
 H34 H 0.57951 1.06180 0.47349
 H35 H 0.61356 1.12450 0.39400
 H36 H 0.49934 1.08902 0.26813
 H37 H 0.46562 1.02765 0.34875
 H38 H 0.53502 0.97638 0.35669
 H39 H 0.50303 0.91524 0.27524
 H40 H 0.38495 0.88247 0.38505
 H41 H 0.41731 0.94348 0.46584
 H42 H 0.58219 1.08328 0.74474
 C43 C 0.00206 0.49058 0.45723
 C44 C 0.00207 0.48751 0.53765
 C45 C 0.04091 0.50386 0.58400
 C46 C -0.03678 0.46765 0.58448
 C47 C -0.03677 0.47183 0.41079
 C48 C 0.04089 0.51207 0.41074
 C49 C 0.04791 0.47752 0.63328
 C50 C 0.08359 0.49214 0.67921
 C51 C 0.11282 0.53352 0.67773
 C52 C 0.10596 0.55996 0.62753
 C53 C 0.07012 0.54524 0.58155
 C54 C -0.06568 0.42661 0.57385
 C55 C -0.10145 0.40838 0.62070
 C56 C -0.10871 0.43098 0.67948
 C57 C -0.07945 0.47198 0.68971
 C58 C -0.04390 0.49006 0.64295
 C59 C -0.06757 0.48331 0.42119
 C60 C -0.10384 0.46501 0.37634
 C61 C -0.11018 0.43479 0.32018
 C62 C -0.07852 0.42403 0.30950
 C63 C -0.04238 0.44245 0.35416
 C64 C 0.04674 0.54473 0.36169
 C65 C 0.08269 0.56516 0.31640
 C66 C 0.11361 0.55322 0.31928
 C67 C 0.10727 0.51996 0.36738
 C68 C 0.07125 0.49955 0.41280
 H69 H 0.02567 0.44550 0.63607
 H70 H 0.08808 0.47108 0.71694
 H71 H 0.12806 0.59186 0.62297
 H72 H 0.06506 0.56612 0.54440
 H73 H -0.06026 0.40860 0.53000
 H74 H -0.12259 0.37662 0.61115
 H75 H -0.02180 0.52170 0.65237
 H76 H -0.06345 0.50649 0.46381
 H77 H -0.12708 0.47451 0.38591
 H78 H -0.08041 0.40214 0.26610
 H79 H -0.01868 0.43356 0.34476
 H80 H 0.02331 0.55438 0.35842
 H81 H 0.08550 0.58951 0.27785
 H82 H 0.13025 0.50970 0.36968
 H83 H 0.06688 0.47383 0.44902
 H84 H -0.08398 0.49015 0.73451
 C85 C 0.50049 0.50078 0.46249
 C86 C 0.49961 0.50162 0.54304
 C87 C 0.47996 0.52254 0.58570
 C88 C 0.51737 0.48106 0.59284
 C89 C 0.51967 0.47969 0.41874
 C90 C 0.48211 0.52090 0.41307
 C91 C 0.49535 0.56464 0.57893
 C92 C 0.47614 0.58370 0.61934
 C93 C 0.44081 0.56105 0.66657
 C94 C 0.42593 0.51867 0.67361
 C95 C 0.44550 0.49987 0.63394
 C96 C 0.54830 0.50376 0.64761
 C97 C 0.56506 0.48498 0.69591
 C98 C 0.55084 0.44282 0.69174
 C99 C 0.51962 0.42009 0.63612
 C100 C 0.50306 0.43910 0.58753
 C101 C 0.49588 0.44944 0.36410
 C102 C 0.51364 0.43060 0.31904
 C103 C 0.55572 0.44208 0.32662
 C104 C 0.57948 0.47194 0.38264
 C105 C 0.56158 0.49073 0.42802
 C106 C 0.43987 0.50932 0.41784
 C107 C 0.42292 0.52778 0.36884
 C108 C 0.44795 0.55779 0.31346
 C109 C 0.49024 0.56950 0.30970
 C110 C 0.50709 0.55102 0.35855
 H111 H 0.52229 0.58269 0.54256
 H112 H 0.48884 0.61631 0.61302
 H113 H 0.40001 0.49963 0.71107
 H114 H 0.43352 0.46736 0.64040
 H115 H 0.55967 0.53621 0.65263
 H116 H 0.58901 0.50360 0.73748
 H117 H 0.47887 0.42102 0.54599
 H118 H 0.46349 0.44054 0.35609
 H119 H 0.49459 0.40756 0.27678
 H120 H 0.61174 0.48084 0.39179
 H121 H 0.58051 0.51425 0.46954
 H122 H 0.42003 0.48582 0.45909
 H123 H 0.39044 0.51868 0.37509
 H124 H 0.51024 0.59266 0.26799
 H125 H 0.53973 0.56025 0.35394
 H126 H 0.50777 0.38781 0.62872
 O127 O 0.40085 0.66716 -0.07033
 O128 O 0.39808 0.73546 -0.08813
 C129 C 0.37903 0.75587 -0.09702
 O130 O 0.34794 0.75002 -0.05475
 O131 O 0.27977 0.68353 -0.08444
 C132 C 0.26090 0.64646 -0.10392
 O133 O 0.26700 0.61920 -0.07045
 O134 O 0.33695 0.61952 -0.09861
 C135 C 0.37556 0.63698 -0.11067
 O136 O 0.39857 0.67481 0.08783
 O137 O 0.40036 0.74513 0.07031
 C138 C 0.37494 0.75051 0.11296
 O139 O 0.33630 0.73186 0.10144
 O140 O 0.26623 0.66694 0.07175
 C141 C 0.25998 0.63392 0.10511
 O142 O 0.27950 0.61506 0.08644
 O143 O 0.34792 0.61288 0.05805
 C144 C 0.37919 0.63669 0.09886
 Cr145 Cr 0.39720 0.70458 -0.00010
 Cr146 Cr 0.30871 0.70692 0.00825
 Cr147 Cr 0.30896 0.61891 -0.00595
 O148 O 0.33821 0.67672 0.00068
 O149 O 0.60469 0.34165 -0.06388
 O150 O 0.60737 0.27421 -0.08953
 C151 C 0.62709 0.25505 -0.10499
 O152 O 0.65952 0.26088 -0.06819
 O153 O 0.72674 0.32911 -0.09477
 C154 C 0.74516 0.36695 -0.10926
 O155 O 0.73868 0.39234 -0.07021
 O156 O 0.66805 0.39181 -0.08982
 C157 C 0.62959 0.37295 -0.10300
 O158 O 0.60829 0.33043 0.09348
 O159 O 0.60766 0.26144 0.06771
 C160 C 0.63390 0.25475 0.10485
 O161 O 0.67218 0.27315 0.08909
 O162 O 0.74119 0.33984 0.06205
 C163 C 0.74776 0.37151 0.10046
 O164 O 0.72789 0.39082 0.08820
 O165 O 0.65872 0.39323 0.06864
 C166 C 0.62748 0.36809 0.10830
 Cr167 Cr 0.60935 0.30309 0.00187
 Cr168 Cr 0.69869 0.30192 -0.00283
 Cr169 Cr 0.69717 0.38973 -0.00080
 O170 O 0.66841 0.33159 -0.00061
 C171 C 0.42329 0.85712 -0.27098
 C172 C 0.38953 0.84477 -0.21875
 C173 C 0.37525 0.81150 -0.16676
 C174 C 0.39372 0.78669 -0.15431
 H175 H 0.37203 0.86106 -0.21685
 H176 H 0.34830 0.80582 -0.13175
 H177 H 0.43720 0.83753 -0.27712
 H178 H 0.42077 0.79150 -0.18763
 C179 C 0.14950 0.54737 -0.27019
 C180 C 0.17344 0.58602 -0.24889
 C181 C 0.20690 0.59662 -0.19091
 C182 C 0.22959 0.63492 -0.16670
 H183 H 0.16741 0.60990 -0.27073
 H184 H 0.21209 0.57269 -0.16595
 H185 H 0.15571 0.52421 -0.24447
 H186 H 0.22412 0.65862 -0.19202
 C187 C 0.42283 0.58177 -0.29311
 C188 C 0.38627 0.56341 -0.25494
 C189 C 0.36936 0.58488 -0.20634
 C190 C 0.39264 0.62071 -0.17113
 H191 H 0.36645 0.53105 -0.25952
 H192 H 0.33671 0.56806 -0.19243
 H193 H 0.43941 0.61468 -0.29437
 H194 H 0.42572 0.63676 -0.18054
 C195 C 0.56809 0.14706 -0.26126
 C196 C 0.55738 0.17673 -0.25934
 C197 C 0.57522 0.21098 -0.20272
 C198 C 0.61172 0.22353 -0.16659
 H199 H 0.53276 0.17516 -0.29631
 H200 H 0.55719 0.22629 -0.19068
 H201 H 0.59081 0.14796 -0.21957
 H202 H 0.63096 0.20978 -0.18051
 C203 C 0.85489 0.41355 -0.26661
 C204 C 0.82247 0.37614 -0.27246
 C205 C 0.78799 0.35975 -0.21453
 C206 C 0.77676 0.38319 -0.17220
 H207 H 0.82152 0.35550 -0.31788
 H208 H 0.77126 0.32704 -0.20727
 H209 H 0.85562 0.43272 -0.21812
 H210 H 0.79171 0.41568 -0.18226
 C211 C 0.56843 0.42563 -0.25636
 C212 C 0.55555 0.38563 -0.24741
 C213 C 0.57366 0.36929 -0.18857
 C214 C 0.61316 0.38916 -0.16500
 H215 H 0.52881 0.36325 -0.27839
 H216 H 0.55355 0.33912 -0.16552
 H217 H 0.59322 0.44638 -0.21848
 H218 H 0.63426 0.41808 -0.19174
 C219 C 0.85279 0.41752 0.27595
 C220 C 0.84144 0.38619 0.22556
 C221 C 0.80424 0.36955 0.17485
 C222 C 0.78112 0.38771 0.15987
 H223 H 0.85942 0.37051 0.21999
 H224 H 0.79739 0.34165 0.14427
 H225 H 0.83216 0.43026 0.28439
 H226 H 0.78779 0.41611 0.18784
 C227 C 0.58054 0.14992 0.27780
 C228 C 0.56062 0.16818 0.24408
 C229 C 0.57919 0.20308 0.18852
 C230 C 0.61914 0.22309 0.16715
 H231 H 0.52800 0.15652 0.25555
 H232 H 0.55770 0.21174 0.16203
 H233 H 0.61350 0.16230 0.27026
 H234 H 0.64155 0.21578 0.19346
 C235 C 0.57332 0.42236 0.27448
 C236 C 0.61337 0.43964 0.25392
 C237 C 0.63004 0.42244 0.19410
 C238 C 0.61159 0.38318 0.17303
 H239 H 0.63462 0.46953 0.27570
 H240 H 0.65902 0.44354 0.16639
 H241 H 0.55158 0.39423 0.24674
 H242 H 0.58381 0.36127 0.20302
 C243 C 0.15143 0.57297 0.26948
 C244 C 0.16717 0.61123 0.24172
 C245 C 0.20273 0.63076 0.18645
 C246 C 0.22766 0.61530 0.16643
 H247 H 0.15274 0.62949 0.25769
 H248 H 0.20783 0.65921 0.15997
 H249 H 0.16619 0.55479 0.25559
 H250 H 0.22397 0.58751 0.19327
 C251 C 0.42381 0.85778 0.27050
 C252 C 0.38599 0.82566 0.27828
 C253 C 0.36873 0.79185 0.22075
 C254 C 0.39211 0.78119 0.17596
 H255 H 0.36560 0.82442 0.32553
 H256 H 0.33541 0.77522 0.21574
 H257 H 0.44306 0.85874 0.22113
 H258 H 0.42528 0.79613 0.18358
 C259 C 0.43156 0.57789 0.25915
 C260 C 0.39186 0.56110 0.23687
 C261 C 0.37614 0.57974 0.17797
 C262 C 0.39479 0.61955 0.16052
 H263 H 0.37011 0.53096 0.25741
 H264 H 0.34744 0.55946 0.14890
 H265 H 0.45388 0.60628 0.23246
 H266 H 0.42223 0.64054 0.19210
   
