data_POSCAR
  _audit_creation_date              2014-09-24
  _audit_creation_method            'ToBaCCo'
  _symmetry_space_group_name_H-M    'P1'
  _symmetry_Int_Tables_number       1
  _symmetry_cell_setting            triclinic
  loop_
  _symmetry_equiv_pos_as_xyz
 x,y,z
_cell_length_a 34.6207
_cell_length_b 31.7619
_cell_length_c 32.2293
_cell_angle_alpha 90.959600
_cell_angle_beta 88.989800
_cell_angle_gamma 89.661300
loop_
  _atom_site_label
  _atom_site_type_symbol
  _atom_site_fract_x
  _atom_site_fract_y
  _atom_site_fract_z
C1 C 0.22360 0.14757 0.20053
 C2 C 0.20915 0.12166 0.23201
 C3 C 0.17270 0.12930 0.25087
 C4 C 0.15067 0.16403 0.23715
 C5 C 0.16483 0.19025 0.20563
 C6 C 0.20136 0.18190 0.18723
 C7 C 0.26011 0.13955 0.18229
 C8 C 0.27495 0.16549 0.15056
 C9 C 0.25217 0.19951 0.13751
 C10 C 0.21577 0.20804 0.15567
 C11 C 0.19379 0.24262 0.14289
 C12 C 0.15721 0.25140 0.16101
 C13 C 0.14311 0.22498 0.19243
 H14 H 0.22661 0.09535 0.24202
 H15 H 0.12267 0.17154 0.25064
 H16 H 0.27606 0.11256 0.19281
 H17 H 0.26293 0.21978 0.11318
 H18 H 0.20590 0.26296 0.11953
 H19 H 0.11511 0.23162 0.20676
 C20 C -0.20246 0.87271 0.19268
 C21 C -0.19120 0.88748 0.23171
 C22 C -0.16865 0.86242 0.25743
 C23 C -0.15597 0.82247 0.24236
 C24 C -0.16652 0.80769 0.20294
 C25 C -0.19029 0.83267 0.17818
 C26 C -0.22691 0.89703 0.16869
 C27 C -0.24116 0.88137 0.13099
 C28 C -0.22774 0.84175 0.11578
 C29 C -0.20231 0.81744 0.13919
 C30 C -0.18937 0.77775 0.12472
 C31 C -0.16472 0.75302 0.14871
 C32 C -0.15392 0.76806 0.18817
 H33 H -0.20097 0.91836 0.24256
 H34 H -0.13729 0.80270 0.26025
 H35 H -0.23659 0.92753 0.18068
 H36 H -0.23687 0.82924 0.08618
 H37 H -0.19846 0.76602 0.09466
 H38 H -0.13641 0.74883 0.20798
 C39 C -0.22189 0.15270 -0.20563
 C40 C -0.20725 0.12590 -0.23733
 C41 C -0.17176 0.13425 -0.25719
 C42 C -0.15126 0.17072 -0.24560
 C43 C -0.16536 0.19764 -0.21377
 C44 C -0.20072 0.18850 -0.19355
 C45 C -0.25732 0.14402 -0.18584
 C46 C -0.27222 0.17066 -0.15368
 C47 C -0.25037 0.20603 -0.14163
 C48 C -0.21498 0.21525 -0.16141
 C49 C -0.19367 0.25091 -0.14959
 C50 C -0.15811 0.26009 -0.16944
 C51 C -0.14456 0.23355 -0.20185
 H52 H -0.22344 0.09824 -0.24651
 H53 H -0.12464 0.17886 -0.26153
 H54 H -0.27229 0.11589 -0.19546
 H55 H -0.26108 0.22678 -0.11688
 H56 H -0.20529 0.27175 -0.12550
 H57 H -0.11739 0.24058 -0.21742
 C58 C 0.18452 0.88760 -0.17370
 C59 C 0.17237 0.90140 -0.21218
 C60 C 0.14937 0.87598 -0.23757
 C61 C 0.13575 0.83714 -0.22192
 C62 C 0.14639 0.82363 -0.18212
 C63 C 0.17184 0.84859 -0.15852
 C64 C 0.21088 0.91159 -0.15127
 C65 C 0.22655 0.89638 -0.11477
 C66 C 0.21304 0.85810 -0.09860
 C67 C 0.18537 0.83431 -0.12016
 C68 C 0.17191 0.79597 -0.10464
 C69 C 0.14517 0.77144 -0.12671
 C70 C 0.13287 0.78529 -0.16585
 H71 H 0.18278 0.93138 -0.22342
 H72 H 0.11666 0.81751 -0.23996
 H73 H 0.22124 0.94108 -0.16370
 H74 H 0.22435 0.84662 -0.06974
 H75 H 0.18228 0.78514 -0.07508
 H76 H 0.11357 0.76605 -0.18408
 C77 C 0.15246 1.20914 0.79553
 C78 C 0.13308 1.19312 0.76093
 C79 C 0.14557 1.15598 0.74025
 C80 C 0.17847 1.13470 0.75543
 C81 C 0.19817 1.15043 0.79033
 C82 C 0.18505 1.18780 0.81032
 C83 C 0.13950 1.24635 0.81543
 C84 C 0.15869 1.26292 0.85042
 C85 C 0.19126 1.24118 0.86480
 C86 C 0.20449 1.20390 0.84515
 C87 C 0.23689 1.18259 0.86003
 C88 C 0.25056 1.14520 0.84048
 C89 C 0.23081 1.12944 0.80561
 H90 H 0.10798 1.20995 0.74993
 H91 H 0.18908 1.10595 0.74081
 H92 H 0.11453 1.26178 0.80294
 H93 H 0.20645 1.25327 0.89160
 H94 H 0.25096 1.19561 0.88692
 H95 H 0.24096 1.10071 0.79027
 C96 C 0.84131 0.80356 0.81455
 C97 C 0.85766 0.82269 0.77987
 C98 C 0.83741 0.85400 0.75847
 C99 C 0.80101 0.86734 0.77426
 C100 C 0.78437 0.84847 0.80943
 C101 C 0.80458 0.81613 0.82939
 C102 C 0.86126 0.77135 0.83405
 C103 C 0.84496 0.75047 0.86806
 C104 C 0.80826 0.76359 0.88339
 C105 C 0.78813 0.79628 0.86418
 C106 C 0.75160 0.80907 0.87896
 C107 C 0.73103 0.84122 0.85946
 C108 C 0.74775 0.86102 0.82468
 H109 H 0.88642 0.81281 0.77050
 H110 H 0.78517 0.89182 0.75864
 H111 H 0.88949 0.76181 0.82192
 H112 H 0.79475 0.74864 0.90972
 H113 H 0.73897 0.79376 0.90576
 H114 H 0.73286 0.88637 0.80957
 C115 C 0.15312 0.82992 1.15615
 C116 C 0.13859 0.84528 1.19445
 C117 C 0.15867 0.87638 1.21697
 C118 C 0.19296 0.89284 1.19994
 C119 C 0.20767 0.87798 1.16154
 C120 C 0.18749 0.84661 1.13944
 C121 C 0.13444 0.79711 1.13498
 C122 C 0.15009 0.78015 1.09736
 C123 C 0.18288 0.79913 1.07977
 C124 C 0.20202 0.83147 1.10085
 C125 C 0.23663 0.84733 1.08480
 C126 C 0.25777 0.87705 1.10735
 C127 C 0.24280 0.89306 1.14539
 H128 H 0.11168 0.83281 1.20638
 H129 H 0.20861 0.91675 1.21706
 H130 H 0.10803 0.78508 1.14848
 H131 H 0.19501 0.78701 1.05064
 H132 H 0.24812 0.83507 1.05544
 H133 H 0.25839 0.91695 1.16250
 C134 C 0.86298 1.18104 1.19565
 C135 C 0.88105 1.16873 1.23189
 C136 C 0.86646 1.13580 1.25593
 C137 C 0.83245 1.11500 1.24266
 C138 C 0.81392 1.12713 1.20591
 C139 C 0.82958 1.16015 1.18233
 C140 C 0.87767 1.21473 1.17303
 C141 C 0.85975 1.22764 1.13650
 C142 C 0.82699 1.20619 1.12283
 C143 C 0.81170 1.17273 1.14555
 C144 C 0.77839 1.15235 1.13226
 C145 C 0.76142 1.12027 1.15588
 C146 C 0.77981 1.10734 1.19240
 H147 H 0.90684 1.18526 1.24153
 H148 H 0.82015 1.08953 1.26022
 H149 H 0.90219 1.23155 1.18513
 H150 H 0.81282 1.21627 1.09490
 H151 H 0.76613 1.16165 1.10316
 H152 H 0.76730 1.08223 1.21050
 N153 N 0.53115 1.08073 0.94400
 N154 N 0.56186 1.10257 0.93266
 N155 N 0.44457 1.05358 0.94053
 N156 N 0.41181 1.06215 0.92201
 N157 N 0.45235 1.08255 0.96867
 N158 N 0.42481 1.11164 0.97003
 N159 N 0.52273 1.05247 0.91529
 N160 N 0.54741 1.05454 0.88372
 C161 C 0.57136 1.08612 0.89474
 C162 C 0.39961 1.09827 0.94093
 N163 N 0.45116 0.93263 0.96429
 N164 N 0.42182 0.90689 0.96898
 N165 N 0.52152 0.96176 0.91197
 N166 N 0.54651 0.95982 0.88050
 N167 N 0.52882 0.93210 0.93865
 N168 N 0.55892 0.90933 0.92616
 N169 N 0.44290 0.96272 0.93843
 N170 N 0.40710 0.95852 0.92522
 Mn171 Mn 0.48270 1.00763 0.92605
 C172 C 0.39453 0.92338 0.94470
 C173 C 0.56940 0.92670 0.88966
 N174 N 0.47484 1.07963 1.05479
 N175 N 0.44437 1.10193 1.06746
 N176 N 0.56046 1.04837 1.05630
 N177 N 0.59326 1.05434 1.07565
 N178 N 0.55375 1.07889 1.03037
 N179 N 0.58212 1.10663 1.03152
 N180 N 0.48245 1.04985 1.08136
 N181 N 0.45760 1.05140 1.11285
 Mn182 Mn 0.50305 1.08109 0.99947
 C183 C 0.43430 1.08419 1.10402
 C184 C 0.60667 1.09059 1.05971
 N185 N 0.55158 0.92975 1.02344
 N186 N 0.58109 0.90401 1.01660
 N187 N 0.48157 0.95924 1.07800
 N188 N 0.45533 0.95877 1.10822
 N189 N 0.47356 0.93109 1.04917
 N190 N 0.44141 0.91120 1.05880
 N191 N 0.55971 0.95819 1.05189
 N192 N 0.59525 0.95277 1.06503
 Mn193 Mn 0.50132 0.93099 0.99389
 Mn194 Mn 0.52120 1.00386 1.06731
 Cl195 Cl 0.50204 1.00606 0.99664
 C196 C 0.60808 0.91879 1.04266
 C197 C 0.43073 0.92838 1.09597
 N198 N 0.05620 0.46881 -0.05194
 N199 N 0.07983 0.43854 -0.06543
 N200 N 0.01645 0.55591 -0.06376
 N201 N 0.01392 0.58866 -0.08842
 N202 N 0.04887 0.55712 -0.04319
 N203 N 0.06919 0.59068 -0.05333
 N204 N 0.02374 0.46783 -0.07249
 N205 N 0.02446 0.43715 -0.10055
 C206 C 0.05960 0.41929 -0.09591
 C207 C 0.04696 0.61021 -0.08150
 N208 N -0.08357 0.54074 -0.00585
 N209 N -0.11063 0.56989 -0.00089
 N210 N -0.05706 0.45767 -0.05000
 N211 N -0.06715 0.42772 -0.07677
 N212 N -0.07590 0.45334 -0.01462
 N213 N -0.09904 0.42064 -0.01615
 N214 N -0.06414 0.54591 -0.04071
 N215 N -0.07727 0.57896 -0.06036
 Mn216 Mn -0.02036 0.50687 -0.05730
 C217 C -0.10626 0.59348 -0.03508
 C218 C -0.09331 0.40483 -0.05487
 N219 N 0.06822 0.55172 0.04348
 N220 N 0.08471 0.58919 0.04398
 N221 N 0.05686 0.45821 0.06930
 N222 N 0.06941 0.42493 0.08916
 N223 N 0.07645 0.46311 0.03447
 N224 N 0.10290 0.43313 0.02973
 N225 N 0.04910 0.54574 0.07844
 N226 N 0.05233 0.57847 0.10367
 Mn227 Mn 0.06301 0.51026 -0.00440
 C228 C 0.07472 0.60510 0.08202
 C229 C 0.09817 0.40960 0.06413
 N230 N -0.05547 0.44773 0.07069
 N231 N -0.07256 0.41110 0.07510
 N232 N -0.03106 0.53697 0.10051
 N233 N -0.03118 0.56993 0.12611
 N234 N -0.06325 0.53569 0.07964
 N235 N -0.08600 0.56767 0.09031
 N236 N -0.02314 0.44884 0.09127
 N237 N -0.01732 0.41300 0.11035
 Mn238 Mn -0.06988 0.49434 0.03264
 Mn239 Mn 0.01305 0.49737 0.08533
 Cl240 Cl -0.00348 0.50224 0.01392
 C241 C -0.04851 0.38997 0.10012
 C242 C -0.06579 0.58854 0.11960
 N243 N 1.06919 0.01580 0.44618
 N244 N 1.08998 0.02412 0.41235
 N245 N 1.05350 0.04360 0.53808
 N246 N 1.06196 0.06772 0.57065
 N247 N 1.08002 0.01416 0.53254
 N248 N 1.10702 0.01743 0.56064
 N249 N 1.04148 0.04394 0.45145
 N250 N 1.04242 0.07175 0.42165
 C251 C 1.07261 0.05914 0.39741
 C252 C 1.09565 0.05092 0.58414
 N253 N 0.94433 0.01416 0.55572
 N254 N 0.92319 0.02174 0.58967
 N255 N 0.95845 0.04264 0.46445
 N256 N 0.94903 0.06579 0.43216
 N257 N 0.93256 0.01312 0.47007
 N258 N 0.90508 0.01534 0.44258
 N259 N 0.97091 0.04313 0.55133
 N260 N 0.96906 0.07075 0.58225
 Mn261 Mn 1.00608 0.04392 0.50126
 C262 C 0.93929 0.05708 0.60592
 C263 C 0.91537 0.04824 0.41923
 N264 N 1.08030 -0.07682 0.53147
 N265 N 1.10489 -0.08134 0.56225
 N266 N 1.04339 -0.10474 0.44740
 N267 N 1.04374 -0.12931 0.41391
 N268 N 1.06975 -0.07535 0.44411
 N269 N 1.08856 -0.07894 0.40826
 N270 N 1.05418 -0.10656 0.53295
 N271 N 1.06052 -0.13244 0.56348
 Mn272 Mn 1.07540 -0.03060 0.48851
 C273 C 1.09214 -0.11667 0.58144
 C274 C 1.07212 -0.11283 0.38985
 N275 N 0.93415 -0.07702 0.46753
 N276 N 0.90579 -0.08428 0.44146
 N277 N 0.97238 -0.10616 0.54812
 N278 N 0.97066 -0.13312 0.57886
 N279 N 0.94597 -0.07664 0.55344
 N280 N 0.92554 -0.08260 0.58761
 N281 N 0.96134 -0.10570 0.46255
 N282 N 0.95221 -0.13355 0.43380
 Mn283 Mn 0.93890 -0.03158 0.51186
 Mn284 Mn 1.00787 -0.10613 0.49764
 Cl285 Cl 1.00712 -0.03097 0.49979
 C286 C 0.91773 -0.11974 0.42081
 C287 C 0.94132 -0.11781 0.60317
 C288 C 1.16050 0.10213 0.28297
 C289 C 1.12664 0.10487 0.30385
 C290 C 1.11703 0.07651 0.33855
 C291 C 1.08425 0.08277 0.36034
 H292 H 1.10547 0.12855 0.29652
 H293 H 1.13701 0.05185 0.34708
 H294 H 1.18018 0.07726 0.29182
 H295 H 1.06512 0.10820 0.35173
 C296 C 0.84084 -0.12100 0.29669
 C297 C 0.85859 -0.14261 0.32609
 C298 C 0.87181 -0.12151 0.36404
 C299 C 0.89745 -0.14101 0.38729
 H300 H 0.86527 -0.17570 0.32218
 H301 H 0.86358 -0.08909 0.37085
 H302 H 0.83346 -0.08833 0.30362
 H303 H 0.90711 -0.17258 0.37878
 C304 C 0.84212 0.10503 0.70915
 C305 C 0.87902 0.10250 0.69621
 C306 C 0.89112 0.07511 0.66087
 C307 C 0.92619 0.07973 0.64373
 H308 H 0.90086 0.12137 0.71110
 H309 H 0.87086 0.05303 0.64751
 H310 H 0.82113 0.08458 0.69462
 H311 H 0.94544 0.10336 0.65624
 C312 C 1.14190 -0.10899 0.72241
 C313 C 1.12761 -0.13172 0.69107
 C314 C 1.12160 -0.11237 0.65027
 C315 C 1.10703 -0.13518 0.61939
 H316 H 1.12064 -0.16462 0.69474
 H317 H 1.12652 -0.07896 0.64634
 H318 H 1.15018 -0.07685 0.71568
 H319 H 1.10046 -0.16806 0.62445
 C320 C 0.31122 1.15863 1.13067
 C321 C 0.33757 1.12997 1.14178
 C322 C 0.37374 1.12363 1.11753
 C323 C 0.39969 1.09504 1.12910
 H324 H 0.33316 1.11055 1.16859
 H325 H 0.37853 1.14125 1.08940
 H326 H 0.31854 1.17822 1.10443
 H327 H 0.39456 1.07730 1.15709
 C328 C 0.25915 0.92000 0.90304
 C329 C 0.28978 0.90073 0.91874
 C330 C 0.32608 0.92369 0.92529
 C331 C 0.35663 0.90365 0.94009
 H332 H 0.28947 0.86697 0.92311
 H333 H 0.32829 0.95645 0.91666
 H334 H 0.26085 0.95345 0.89700
 H335 H 0.35380 0.87131 0.94991
 C336 C 0.72991 0.90520 1.11206
 C337 C 0.70775 0.89161 1.08110
 C338 C 0.67279 0.91554 1.07113
 C339 C 0.64597 0.89878 1.04695
 H340 H 0.71226 0.86124 1.06614
 H341 H 0.66740 0.94573 1.08646
 H342 H 0.72252 0.93556 1.12617
 H343 H 0.65112 0.86866 1.03147
 C344 C 0.69239 1.16309 0.86753
 C345 C 0.66674 1.13336 0.85690
 C346 C 0.63128 1.12625 0.88194
 C347 C 0.60568 1.09738 0.86980
 H348 H 0.67107 1.11372 0.82954
 H349 H 0.62663 1.14375 0.91078
 H350 H 0.68511 1.18309 0.89420
 H351 H 0.61063 1.08005 0.84091
 C352 C 0.13358 0.28867 0.14944
 C353 C 0.13932 0.31122 0.11501
 C354 C 0.11532 0.34866 0.10665
 C355 C 0.12137 0.37173 0.07274
 H356 H 0.16154 0.30234 0.09250
 H357 H 0.09265 0.35769 0.12874
 H358 H 0.10999 0.29785 0.17033
 H359 H 0.14401 0.36272 0.05064
 C360 C -0.13470 0.29745 -0.15771
 C361 C -0.13580 0.31493 -0.11964
 C362 C -0.11203 0.35179 -0.10840
 C363 C -0.11445 0.36765 -0.06981
 H364 H -0.15407 0.30150 -0.09574
 H365 H -0.09319 0.36601 -0.13136
 H366 H -0.11472 0.30984 -0.18066
 H367 H -0.13369 0.35300 -0.04748
 C368 C 0.13268 0.73082 -0.10816
 C369 C 0.10041 0.70971 -0.11768
 C370 C 0.09034 0.67028 -0.09587
 C371 C 0.05738 0.64958 -0.10300
 H372 H 0.08091 0.72174 -0.14060
 H373 H 0.11027 0.65809 -0.07338
 H374 H 0.15050 0.71842 -0.08380
 H375 H 0.03731 0.66176 -0.12532
 C376 C -0.15207 0.71112 0.13218
 C377 C -0.12100 0.69026 0.14549
 C378 C -0.10996 0.64897 0.12727
 C379 C -0.07808 0.62876 0.13908
 H380 H -0.10281 0.70381 0.16910
 H381 H -0.12785 0.63527 0.10335
 H382 H -0.16846 0.69741 0.10702
 H383 H -0.05987 0.64264 0.16258
 C384 C 1.12424 0.14232 0.70544
 C385 C 1.13245 0.10861 0.68114
 C386 C 1.10807 0.09754 0.64523
 C387 C 1.11781 0.06492 0.62047
 H388 H 1.15723 0.08886 0.68683
 H389 H 1.08241 0.11594 0.63903
 H390 H 1.09912 0.16087 0.69732
 H391 H 1.14366 0.04698 0.62705
 C392 C 0.85221 -0.12783 0.72193
 C393 C 0.88367 -0.14203 0.70091
 C394 C 0.89733 -0.12175 0.66294
 C395 C 0.92765 -0.13745 0.64141
 H396 H 0.89946 -0.16957 0.71020
 H397 H 0.88237 -0.09392 0.65240
 H398 H 0.83653 -0.10146 0.70922
 H399 H 0.94250 -0.16539 0.65179
 C400 C 1.14501 -0.10742 0.25824
 C401 C 1.12004 -0.12770 0.28298
 C402 C 1.10899 -0.11023 0.32417
 C403 C 1.08318 -0.12960 0.34847
 H404 H 1.10826 -0.15780 0.27372
 H405 H 1.12215 -0.08116 0.33473
 H406 H 1.15726 -0.07811 0.26948
 H407 H 1.06957 -0.15832 0.33772
 C408 C 0.88718 0.12586 0.29194
 C409 C 0.87759 0.09670 0.31968
 C410 C 0.90235 0.08915 0.35588
 C411 C 0.89222 0.06025 0.38338
 H412 H 0.85177 0.07808 0.31631
 H413 H 0.92896 0.10652 0.35965
 H414 H 0.91331 0.14354 0.29794
 H415 H 0.86566 0.04295 0.37887
 C416 C 0.14684 0.30013 -0.12815
 C417 C 0.11590 0.32363 -0.13737
 C418 C 0.10528 0.36147 -0.11256
 C419 C 0.07274 0.38241 -0.12042
 H420 H 0.09732 0.31536 -0.16270
 H421 H 0.12358 0.37172 -0.08742
 H422 H 0.16379 0.31038 -0.10187
 H423 H 0.05426 0.37150 -0.14514
 C424 C -0.12775 0.26557 0.11406
 C425 C -0.09338 0.28362 0.11911
 C426 C -0.08554 0.32508 0.10186
 C427 C -0.05474 0.34685 0.11373
 H428 H -0.07138 0.26916 0.13765
 H429 H -0.10631 0.33896 0.08122
 H430 H -0.14844 0.28033 0.09391
 H431 H -0.03421 0.33324 0.13478
 C432 C -0.13397 0.71659 -0.11613
 C433 C -0.14518 0.69200 -0.08494
 C434 C -0.12109 0.65559 -0.07475
 C435 C -0.13007 0.63052 -0.04343
 H436 H -0.17182 0.69727 -0.06763
 H437 H -0.09555 0.64881 -0.09376
 H438 H -0.10647 0.70897 -0.13130
 H439 H -0.15503 0.63728 -0.02361
 C440 C 0.13595 0.74354 0.07772
 C441 C 0.11120 0.71685 0.09548
 C442 C 0.10264 0.67585 0.07601
 C443 C 0.08386 0.64714 0.09804
 H444 H 0.09933 0.72289 0.12622
 H445 H 0.11257 0.66871 0.04456
 H446 H 0.14843 0.73433 0.04775
 H447 H 0.07429 0.65470 0.12953
 C448 C 0.28511 1.12162 0.85518
 C449 C 0.30751 1.13384 0.88684
 C450 C 0.34166 1.10891 0.89871
 C451 C 0.36448 1.12169 0.92965
 H452 H 0.30153 1.16253 0.90423
 H453 H 0.34853 1.08011 0.88155
 H454 H 0.29276 1.09264 0.83866
 H455 H 0.35771 1.15059 0.94667
 C456 C 0.29589 0.88919 1.09044
 C457 C 0.32551 0.90029 1.11414
 C458 C 0.36381 0.90614 1.09498
 C459 C 0.39346 0.92077 1.11664
 H460 H 0.32215 0.90323 1.14753
 H461 H 0.36764 0.89906 1.06210
 H462 H 0.30082 0.88502 1.05726
 H463 H 0.38956 0.93001 1.14896
 C464 C 0.72509 1.09939 1.14249
 C465 C 0.70042 1.11657 1.11563
 C466 C 0.66531 1.09459 1.10192
 C467 C 0.64239 1.11135 1.07325
 H468 H 0.70545 1.14764 1.10358
 H469 H 0.65821 1.06446 1.11532
 H470 H 0.71818 1.06908 1.15559
 H471 H 0.64975 1.14128 1.05964
 C472 C 0.69276 0.85329 0.87748
 C473 C 0.66657 0.87747 0.85904
 C474 C 0.62982 0.88744 0.88073
 C475 C 0.60431 0.91461 0.86560
 H476 H 0.67178 0.89002 0.82849
 H477 H 0.62416 0.87326 0.91060
 H478 H 0.68549 0.84093 0.90780
 H479 H 0.61005 0.92978 0.83629
   
