data_POSCAR
  _audit_creation_date              2014-09-24
  _audit_creation_method            'ToBaCCo'
  _symmetry_space_group_name_H-M    'P1'
  _symmetry_Int_Tables_number       1
  _symmetry_cell_setting            triclinic
  loop_
  _symmetry_equiv_pos_as_xyz
 x,y,z
_cell_length_a 26.3270
_cell_length_b 26.0667
_cell_length_c 22.3276
_cell_angle_alpha 89.699600
_cell_angle_beta 90.200700
_cell_angle_gamma 90.218500
loop_
  _atom_site_label
  _atom_site_type_symbol
  _atom_site_fract_x
  _atom_site_fract_y
  _atom_site_fract_z
C1 C -0.09208 0.31194 -0.03184
 C2 C -0.11424 0.31365 0.02477
 C3 C -0.08682 0.30078 0.07608
 C4 C -0.03702 0.28193 0.07093
 C5 C -0.01332 0.28128 0.01395
 C6 C -0.04068 0.29715 -0.03776
 C7 C -0.01537 0.29965 -0.09307
 C8 C 0.03651 0.28880 -0.09693
 C9 C 0.06438 0.27360 -0.04594
 C10 C 0.03876 0.26817 0.00951
 C11 C -0.00973 0.26575 0.12166
 C12 C 0.04067 0.25058 0.11683
 C13 C 0.06590 0.25290 0.06149
 C14 C 0.11838 0.24348 0.05804
 C15 C 0.14374 0.25048 0.00349
 C16 C 0.11757 0.26593 -0.04821
 H17 H -0.03526 0.31148 -0.13335
 H18 H 0.05484 0.29263 -0.14008
 H19 H -0.02725 0.26502 0.16549
 H20 H 0.06030 0.23890 0.15734
 H21 H -0.15240 0.32874 0.02934
 H22 H 0.18460 0.24571 0.00179
 C23 C 0.36364 0.80984 0.53298
 C24 C 0.33840 0.80637 0.47758
 C25 C 0.36563 0.80598 0.42350
 C26 C 0.41892 0.81206 0.42475
 C27 C 0.44446 0.81792 0.48028
 C28 C 0.41675 0.81629 0.53444
 C29 C 0.44292 0.81988 0.58926
 C30 C 0.49562 0.82459 0.59083
 C31 C 0.52385 0.82584 0.53763
 C32 C 0.49813 0.82261 0.48188
 C33 C 0.44745 0.81123 0.37167
 C34 C 0.50025 0.81570 0.37325
 C35 C 0.52619 0.82128 0.42793
 C36 C 0.57961 0.82446 0.42997
 C37 C 0.60433 0.83014 0.48521
 C38 C 0.57727 0.82916 0.53904
 H39 H 0.42276 0.81904 0.63146
 H40 H 0.51417 0.82720 0.63409
 H41 H 0.42910 0.80699 0.32849
 H42 H 0.52067 0.81475 0.33125
 H43 H 0.29795 0.79868 0.47689
 H44 H 0.64545 0.83004 0.48671
 C45 C 0.88581 0.74522 -0.06603
 C46 C 0.86157 0.74769 -0.01020
 C47 C 0.88874 0.74001 0.04324
 C48 C 0.94065 0.72760 0.04119
 C49 C 0.96507 0.72299 -0.01490
 C50 C 0.93781 0.73265 -0.06862
 C51 C 0.96282 0.72801 -0.12383
 C52 C 1.01340 0.71250 -0.12627
 C53 C 1.04068 0.70167 -0.07351
 C54 C 1.01662 0.70783 -0.01730
 C55 C 0.96830 0.71816 0.09404
 C56 C 1.01883 0.70266 0.09172
 C57 C 1.04338 0.69665 0.03646
 C58 C 1.09364 0.67850 0.03329
 C59 C 1.11695 0.67275 -0.02220
 C60 C 1.09103 0.68354 -0.07533
 H61 H 0.94310 0.73529 -0.16565
 H62 H 1.03096 0.70860 -0.16981
 H63 H 0.95068 0.72156 0.13759
 H64 H 1.03846 0.69491 0.13349
 H65 H 0.82192 0.75846 -0.00809
 H66 H 1.15504 0.65706 -0.02421
 C67 C 0.41744 0.17327 0.57114
 C68 C 0.39246 0.16746 0.51610
 C69 C 0.41925 0.16934 0.46201
 C70 C 0.47261 0.17328 0.46281
 C71 C 0.49862 0.17677 0.51823
 C72 C 0.47088 0.17747 0.57251
 C73 C 0.49713 0.18369 0.62688
 C74 C 0.54982 0.18932 0.62782
 C75 C 0.57795 0.18893 0.57442
 C76 C 0.55222 0.18247 0.51917
 C77 C 0.50045 0.17511 0.40925
 C78 C 0.55314 0.18052 0.41018
 C79 C 0.57964 0.18440 0.46468
 C80 C 0.63280 0.19111 0.46576
 C81 C 0.65808 0.19520 0.52102
 C82 C 0.63107 0.19585 0.57511
 H83 H 0.47702 0.18425 0.66910
 H84 H 0.56843 0.19399 0.67079
 H85 H 0.48160 0.17233 0.36619
 H86 H 0.57301 0.18169 0.36781
 H87 H 0.35134 0.16714 0.51503
 H88 H 0.69849 0.20312 0.52157
 C89 C 0.74886 0.11461 0.06993
 C90 C 0.74452 0.14742 0.02020
 C91 C 0.73085 0.12887 -0.03614
 C92 C 0.72298 0.07574 -0.04411
 C93 C 0.72617 0.04223 0.00609
 C94 C 0.73913 0.06178 0.06330
 C95 C 0.73914 0.02862 0.11315
 C96 C 0.72448 -0.02258 0.10736
 C97 C 0.71094 -0.04255 0.05120
 C98 C 0.71332 -0.01032 -0.00020
 C99 C 0.70999 0.05558 -0.10040
 C100 C 0.69923 0.00349 -0.10704
 C101 C 0.69973 -0.02980 -0.05728
 C102 C 0.68518 -0.08172 -0.06252
 C103 C 0.68227 -0.11274 -0.01156
 C104 C 0.69331 -0.09344 0.04518
 H105 H 0.74886 0.04250 0.15738
 H106 H 0.72362 -0.04650 0.14716
 H107 H 0.70793 0.08014 -0.13962
 H108 H 0.68920 -0.01035 -0.15120
 H109 H 0.74984 0.18838 0.02594
 H110 H 0.66787 -0.15165 -0.01569
 C111 C 0.18326 0.35926 0.44001
 C112 C 0.18288 0.33437 0.49600
 C113 C 0.18051 0.36253 0.54937
 C114 C 0.17519 0.41624 0.54690
 C115 C 0.17340 0.44155 0.49078
 C116 C 0.17780 0.41300 0.43725
 C117 C 0.17832 0.43905 0.38200
 C118 C 0.17524 0.49237 0.37953
 C119 C 0.17170 0.52131 0.43223
 C120 C 0.17056 0.49581 0.48831
 C121 C 0.17350 0.44541 0.59967
 C122 C 0.17086 0.49876 0.59725
 C123 C 0.16965 0.52463 0.54199
 C124 C 0.16877 0.57867 0.53921
 C125 C 0.16737 0.60320 0.48334
 C126 C 0.17050 0.57524 0.43009
 H127 H 0.18129 0.41833 0.34025
 H128 H 0.17591 0.51083 0.33597
 H129 H 0.17450 0.42713 0.64333
 H130 H 0.16990 0.51967 0.63902
 H131 H 0.19018 0.29355 0.49829
 H132 H 0.16918 0.64469 0.48138
 C133 C 0.32122 1.08929 0.06097
 C134 C 0.32626 1.12011 0.01035
 C135 C 0.31668 1.10096 -0.04677
 C136 C 0.30095 1.04941 -0.05409
 C137 C 0.29478 1.01802 -0.00252
 C138 C 0.30434 1.03834 0.05533
 C139 C 0.29777 1.00702 0.10601
 C140 C 0.28298 0.95613 0.09997
 C141 C 0.27517 0.93473 0.04304
 C142 C 0.28086 0.96577 -0.00871
 C143 C 0.29220 1.02809 -0.11099
 C144 C 0.27839 0.97644 -0.11703
 C145 C 0.27308 0.94453 -0.06641
 C146 C 0.26144 0.89167 -0.07181
 C147 C 0.25734 0.86123 -0.01982
 C148 C 0.26293 0.88259 0.03716
 H149 H 0.30423 1.02169 0.15071
 H150 H 0.27886 0.93331 0.14035
 H151 H 0.29640 1.05121 -0.15113
 H152 H 0.27261 0.96142 -0.16168
 H153 H 0.34031 1.15909 0.01525
 H154 H 0.24668 0.82119 -0.02353
 C155 C 0.83558 0.42316 0.57415
 C156 C 0.84075 0.39456 0.52161
 C157 C 0.83754 0.41797 0.46510
 C158 C 0.83313 0.47173 0.46069
 C159 C 0.83016 0.50146 0.51339
 C160 C 0.83086 0.47701 0.57026
 C161 C 0.82512 0.50682 0.62198
 C162 C 0.81835 0.55974 0.61782
 C163 C 0.81701 0.58459 0.56179
 C164 C 0.82317 0.55533 0.50911
 C165 C 0.82985 0.49623 0.40459
 C166 C 0.82327 0.54918 0.40037
 C167 C 0.81957 0.57935 0.45211
 C168 C 0.81132 0.63275 0.44798
 C169 C 0.80732 0.66161 0.50079
 C170 C 0.80854 0.63783 0.55748
 H171 H 0.82570 0.48932 0.66608
 H172 H 0.81402 0.58110 0.65895
 H173 H 0.83226 0.47452 0.36348
 H174 H 0.82090 0.56634 0.35617
 H175 H 0.84137 0.35310 0.52461
 H176 H 0.79829 0.70203 0.49763
 O177 O 0.25644 0.25873 0.18974
 O178 O 0.33065 0.21714 0.32076
 O179 O 0.33476 0.20063 0.20902
 O180 O 0.25375 0.27787 0.30659
 O181 O 0.20371 0.21109 0.32287
 O182 O 0.28088 0.13574 0.21747
 O183 O 0.27967 0.15031 0.33293
 O184 O 0.20220 0.19530 0.20555
 Cu185 Cu 0.29845 0.24583 0.25497
 Cu186 Cu 0.23596 0.16665 0.27044
 C187 C 0.21707 0.23363 0.17484
 C188 C 0.31814 0.17646 0.34870
 C189 C 0.32163 0.15511 0.19679
 C190 C 0.21681 0.25697 0.33402
 O191 O 0.75433 0.71968 0.17824
 O192 O 0.67437 0.76751 0.30014
 O193 O 0.67716 0.77993 0.18830
 O194 O 0.75108 0.70520 0.29792
 O195 O 0.80120 0.77200 0.31298
 O196 O 0.73185 0.84422 0.19527
 O197 O 0.72567 0.83420 0.31117
 O198 O 0.80901 0.78263 0.19409
 Cu199 Cu 0.71001 0.73549 0.23981
 Cu200 Cu 0.77285 0.81439 0.25435
 C201 C 0.79422 0.74415 0.16395
 C202 C 0.68589 0.80948 0.32555
 C203 C 0.69168 0.82456 0.17325
 C204 C 0.78651 0.72709 0.32708
 O205 O 0.78354 0.32347 0.33378
 O206 O 0.73641 0.24640 0.20889
 O207 O 0.71738 0.24996 0.32578
 O208 O 0.80129 0.32018 0.22277
 O209 O 0.86087 0.26155 0.23576
 O210 O 0.77870 0.19465 0.34506
 O211 O 0.79472 0.18766 0.22736
 O212 O 0.84492 0.26747 0.35047
 Cu213 Cu 0.75278 0.28995 0.27090
 Cu214 Cu 0.82550 0.22147 0.29104
 C215 C 0.82263 0.30921 0.36274
 C216 C 0.75843 0.20491 0.19557
 C217 C 0.73476 0.21221 0.35555
 C218 C 0.84534 0.30311 0.21218
 O219 O 0.27390 0.73828 0.16333
 O220 O 0.22584 0.66291 0.29102
 O221 O 0.21389 0.66001 0.17836
 O222 O 0.28938 0.73876 0.28177
 O223 O 0.22384 0.78993 0.29556
 O224 O 0.15117 0.71600 0.18293
 O225 O 0.16042 0.71535 0.29921
 O226 O 0.21257 0.79439 0.17767
 Cu227 Cu 0.25791 0.69529 0.22740
 Cu228 Cu 0.18081 0.75978 0.23925
 C229 C 0.25071 0.77895 0.14832
 C230 C 0.18473 0.67603 0.31628
 C231 C 0.16988 0.67454 0.16302
 C232 C 0.26851 0.77570 0.30914
 O233 O 0.76985 0.20607 0.82604
 O234 O 0.83530 0.28190 0.70725
 O235 O 0.84174 0.27709 0.82489
 O236 O 0.76966 0.20842 0.70767
 O237 O 0.70940 0.26704 0.71192
 O238 O 0.78261 0.33697 0.82590
 O239 O 0.77489 0.34038 0.71218
 O240 O 0.71049 0.26564 0.82816
 Cu241 Cu 0.81024 0.23736 0.76680
 Cu242 Cu 0.73815 0.30805 0.77090
 C243 C 0.72810 0.22318 0.84628
 C244 C 0.81543 0.32366 0.68905
 C245 C 0.82508 0.31968 0.84368
 C246 C 0.72792 0.22675 0.68892
 O247 O 0.15874 0.72640 0.65811
 O248 O 0.20837 0.81067 0.77810
 O249 O 0.22117 0.80196 0.65998
 O250 O 0.14717 0.73021 0.77375
 O251 O 0.20841 0.67252 0.77890
 O252 O 0.28497 0.74852 0.67481
 O253 O 0.26872 0.75407 0.79557
 O254 O 0.22385 0.67403 0.67104
 Cu255 Cu 0.17774 0.77337 0.71692
 Cu256 Cu 0.25414 0.70913 0.73356
 C257 C 0.18304 0.68620 0.64403
 C258 C 0.24615 0.79535 0.80871
 C259 C 0.26500 0.78569 0.64634
 C260 C 0.16442 0.68764 0.79299
 O261 O 0.24774 0.29337 0.69278
 O262 O 0.32127 0.23131 0.81148
 O263 O 0.32481 0.23449 0.69855
 O264 O 0.24279 0.29561 0.80887
 O265 O 0.19038 0.22929 0.80869
 O266 O 0.27258 0.16793 0.69445
 O267 O 0.26869 0.16507 0.81129
 O268 O 0.19510 0.22721 0.68958
 Cu269 Cu 0.28882 0.27073 0.75443
 Cu270 Cu 0.22601 0.19076 0.75176
 C271 C 0.21030 0.27013 0.66915
 C272 C 0.30901 0.18687 0.82966
 C273 C 0.31243 0.19130 0.67692
 C274 C 0.20254 0.27386 0.82694
 O275 O 0.71802 0.84821 0.66698
 O276 O 0.79884 0.80072 0.79100
 O277 O 0.79348 0.78683 0.67385
 O278 O 0.72302 0.86556 0.78227
 O279 O 0.66634 0.80340 0.79242
 O280 O 0.74165 0.72191 0.69251
 O281 O 0.74220 0.74018 0.80997
 O282 O 0.66549 0.78297 0.68153
 Cu283 Cu 0.76409 0.83167 0.72766
 Cu284 Cu 0.69923 0.75512 0.74642
 C285 C 0.67849 0.82295 0.65262
 C286 C 0.78338 0.76310 0.82256
 C287 C 0.77843 0.74149 0.66338
 C288 C 0.68170 0.84843 0.80390
 N289 N 0.33705 0.10737 0.11226
 N290 N 0.35350 0.12561 0.15917
 N291 N 0.79301 0.66579 0.60951
 N292 N 0.80072 0.71370 0.61518
 N293 N 0.67864 0.87940 0.09156
 N294 N 0.66097 0.85281 0.13223
 N295 N 0.19445 0.33877 0.60499
 N296 N 0.18733 0.29152 0.61676
 N297 N 0.89521 0.31532 0.12783
 N298 N 0.87809 0.33246 0.17481
 N299 N 0.33728 0.79712 0.58720
 N300 N 0.29049 0.80660 0.59534
 N301 N 0.11757 0.66134 0.08071
 N302 N 0.14140 0.64308 0.12318
 N303 N 0.65611 0.21201 0.62902
 N304 N 0.70293 0.20356 0.63904
 N305 N 0.71624 0.16221 0.92323
 N306 N 0.69873 0.19462 0.88861
 N307 N 0.18104 0.60178 0.37527
 N308 N 0.16716 0.64788 0.36683
 N309 N 0.25054 0.86899 0.87096
 N310 N 0.26164 0.82225 0.86132
 N311 N 0.82855 0.38693 0.41339
 N312 N 0.84012 0.33965 0.41141
 N313 N 0.14429 0.28242 0.90606
 N314 N 0.17022 0.30197 0.86611
 N315 N 0.60906 0.81342 0.37781
 N316 N 0.65515 0.82764 0.37317
 N317 N 0.85836 0.75795 0.88027
 N318 N 0.81147 0.74718 0.87421
 N319 N 0.39194 0.17655 0.40706
 N320 N 0.34631 0.16148 0.40037
 N321 N 0.66860 0.89944 0.88683
 N322 N 0.65128 0.88015 0.84090
 N323 N 0.19927 0.33188 0.38777
 N324 N 0.19256 0.28385 0.38156
 N325 N 0.32853 0.13064 0.90801
 N326 N 0.34289 0.16100 0.86924
 N327 N 0.79851 0.65587 0.39123
 N328 N 0.80694 0.70303 0.37968
 N329 N 0.11239 0.67021 0.87436
 N330 N 0.13370 0.65485 0.82898
 N331 N 0.65973 0.20277 0.41151
 N332 N 0.70655 0.19228 0.40508
 N333 N 0.88150 0.33034 0.92324
 N334 N 0.85449 0.34976 0.88421
 N335 N 0.34071 0.79057 0.36906
 N336 N 0.29378 0.79866 0.35915
 N337 N 0.25144 0.85284 0.08938
 N338 N 0.26671 0.80707 0.09675
 N339 N 0.82417 0.39700 0.62921
 N340 N 0.83661 0.35055 0.63916
 N341 N 0.76072 0.13579 0.12746
 N342 N 0.74391 0.17970 0.14171
 N343 N 0.17830 0.60855 0.59186
 N344 N 0.16577 0.65556 0.59529
 N345 N 0.86437 0.74867 0.09949
 N346 N 0.82060 0.73036 0.11075
 N347 N 0.38824 0.18505 0.62336
 N348 N 0.34235 0.17051 0.62985
 N349 N 0.14613 0.22981 0.11105
 N350 N 0.18983 0.24843 0.12222
 N351 N 0.60435 0.82246 0.59433
 N352 N 0.64995 0.83777 0.60107
   
