data_POSCAR
  _audit_creation_date              2014-09-24
  _audit_creation_method            'ToBaCCo'
  _symmetry_space_group_name_H-M    'P1'
  _symmetry_Int_Tables_number       1
  _symmetry_cell_setting            triclinic
  loop_
  _symmetry_equiv_pos_as_xyz
 x,y,z
_cell_length_a 30.8566
_cell_length_b 22.6881
_cell_length_c 23.4640
_cell_angle_alpha 90.217300
_cell_angle_beta 90.140600
_cell_angle_gamma 85.525600
loop_
  _atom_site_label
  _atom_site_type_symbol
  _atom_site_fract_x
  _atom_site_fract_y
  _atom_site_fract_z
C1 C 1.22189 0.20933 0.19369
 C2 C 1.25503 0.24097 0.15927
 C3 C 1.27864 0.27751 0.19144
 C4 C 1.26698 0.27812 0.25593
 C5 C 1.24809 0.17678 0.24093
 C6 C 1.27165 0.21235 0.27381
 C7 C 1.19472 0.25885 0.22387
 C8 C 1.21754 0.29451 0.25722
 H9 H 1.25854 0.23647 0.11339
 H10 H 1.28591 0.30755 0.28244
 H11 H 1.25013 0.12902 0.24554
 H12 H 1.15941 0.26106 0.22426
 C13 C 0.72277 -0.29344 0.19072
 C14 C 0.74892 -0.25256 0.15544
 C15 C 0.77380 -0.21757 0.18744
 C16 C 0.76937 -0.22639 0.25280
 C17 C 0.75597 -0.32823 0.22818
 C18 C 0.77972 -0.29364 0.26197
 C19 C 0.69654 -0.25314 0.23185
 C20 C 0.72013 -0.21731 0.26367
 H21 H 0.74935 -0.25388 0.10926
 H22 H 0.78915 -0.19778 0.27914
 H23 H 0.75849 -0.37609 0.22974
 H24 H 0.66172 -0.25479 0.23769
 C25 C 0.72264 0.21030 -0.30745
 C26 C 0.75673 0.23682 -0.33899
 C27 C 0.78108 0.27554 -0.30445
 C28 C 0.76654 0.27906 -0.24437
 C29 C 0.74453 0.18008 -0.25943
 C30 C 0.76890 0.21751 -0.22436
 C31 C 0.69671 0.26019 -0.28315
 C32 C 0.71989 0.29757 -0.24710
 H33 H 0.76121 0.23178 -0.38471
 H34 H 0.78489 0.30871 -0.21726
 H35 H 0.74702 0.13227 -0.25473
 H36 H 0.66140 0.26406 -0.28526
 C37 C 1.22293 -0.28779 -0.30720
 C38 C 1.25818 -0.25936 -0.34053
 C39 C 1.28140 -0.22282 -0.30783
 C40 C 1.26740 -0.21922 -0.24434
 C41 C 1.24641 -0.31955 -0.25741
 C42 C 1.26974 -0.28407 -0.22437
 C43 C 1.19592 -0.23583 -0.28074
 C44 C 1.21842 -0.20057 -0.24660
 H45 H 1.26253 -0.26448 -0.38623
 H46 H 1.28610 -0.18986 -0.21746
 H47 H 1.24818 -0.36727 -0.25234
 H48 H 1.16060 -0.23232 -0.28224
 C49 C 0.22311 0.20959 0.80996
 C50 C 0.24725 0.24868 0.84458
 C51 C 0.27319 0.28634 0.81196
 C52 C 0.26909 0.27834 0.74999
 C53 C 0.19664 0.24942 0.76866
 C54 C 0.21988 0.28638 0.73800
 C55 C 0.25682 0.17556 0.77221
 C56 C 0.28034 0.21137 0.73967
 H57 H 0.24841 0.24548 0.89065
 H58 H 0.28844 0.30780 0.72431
 H59 H 0.16217 0.24576 0.76122
 H60 H 0.26054 0.12763 0.76954
 C61 C 0.72003 0.71092 0.80598
 C62 C 0.75141 0.74116 0.83968
 C63 C 0.77678 0.77902 0.80601
 C64 C 0.76593 0.77823 0.74460
 C65 C 0.69456 0.75785 0.77648
 C66 C 0.71910 0.79469 0.74197
 C67 C 0.74547 0.67885 0.76192
 C68 C 0.77069 0.71559 0.72770
 H69 H 0.75434 0.73750 0.88571
 H70 H 0.78507 0.80709 0.71807
 H71 H 0.65925 0.76000 0.77440
 H72 H 0.74850 0.63089 0.75862
 C73 C 0.72110 0.21217 0.30693
 C74 C 0.74861 0.25054 0.34343
 C75 C 0.77316 0.28641 0.31239
 C76 C 0.76734 0.28070 0.24692
 C77 C 0.69446 0.25522 0.26881
 C78 C 0.71805 0.29141 0.23761
 C79 C 0.75300 0.17837 0.26677
 C80 C 0.77663 0.21398 0.23452
 H81 H 0.74964 0.24758 0.38952
 H82 H 0.78695 0.31016 0.22165
 H83 H 0.65961 0.25359 0.26295
 H84 H 0.75595 0.13049 0.26302
 C85 C 0.22129 0.70911 0.30777
 C86 C 0.24825 0.74955 0.34315
 C87 C 0.27254 0.78518 0.31131
 C88 C 0.26650 0.77761 0.24592
 C89 C 0.19420 0.75001 0.26816
 C90 C 0.21690 0.78680 0.23651
 C91 C 0.25380 0.67507 0.26843
 C92 C 0.27693 0.71053 0.23504
 H93 H 0.24986 0.74712 0.38924
 H94 H 0.28558 0.80695 0.21979
 H95 H 0.15957 0.74652 0.26209
 H96 H 0.25745 0.62712 0.26603
 O97 O 1.05741 0.09744 0.10045
 O98 O 1.10601 0.03908 0.04711
 C99 C 1.09662 0.07917 0.08532
 O100 O 0.93828 -0.10393 0.09618
 O101 O 0.88862 -0.04316 0.04626
 C102 C 0.89886 -0.08531 0.08246
 O103 O 1.05985 -0.10709 0.10069
 O104 O 1.10751 -0.05837 0.04653
 C105 C 1.09881 -0.09492 0.08636
 O106 O 0.93681 0.11275 0.09726
 O107 O 0.88791 0.06070 0.04766
 C108 C 0.89773 0.10057 0.08459
 Zr109 Zr 0.99666 0.07276 0.07016
 O110 O 0.99242 0.06819 0.16014
 O111 O 1.00001 0.16544 0.07511
 Zr112 Zr 0.99829 -0.07574 0.06805
 O113 O 0.99394 -0.07866 0.15799
 O114 O 1.00462 -0.16931 0.06436
 O115 O 1.03632 -0.00474 0.08063
 O116 O 0.95943 0.00173 0.07944
 O117 O 0.93552 0.11396 -0.10099
 O118 O 0.88729 0.06116 -0.05177
 C119 C 0.89648 0.10170 -0.08804
 O120 O 1.05941 -0.10386 -0.10877
 O121 O 1.10726 -0.05595 -0.05349
 C122 C 1.09833 -0.09118 -0.09456
 O123 O 0.93823 -0.10357 -0.10294
 O124 O 0.88845 -0.04527 -0.05081
 C125 C 0.89874 -0.08689 -0.08800
 O126 O 1.05654 0.09882 -0.10371
 O127 O 1.10530 0.04096 -0.05009
 C128 C 1.09569 0.08092 -0.08799
 Zr129 Zr 0.99596 0.07429 -0.07357
 O130 O 0.99144 0.07273 -0.16367
 O131 O 0.99932 0.16716 -0.07422
 Zr132 Zr 0.99800 -0.07436 -0.07492
 O133 O 0.99281 -0.07554 -0.16487
 O134 O 1.00501 -0.16797 -0.07409
 Zr135 Zr 1.06215 -0.00591 -0.00245
 Zr136 Zr 0.93146 0.00503 -0.00267
 O137 O 0.95885 0.00311 -0.08477
 O138 O 1.03575 -0.00296 -0.08555
 O139 O 0.95714 0.08859 -0.00149
 O140 O 1.03649 -0.08913 -0.00363
 O141 O 1.03372 0.08153 -0.00161
 O142 O 0.95910 -0.08316 -0.00354
 H143 H 0.94020 0.00313 0.11327
 H144 H 1.05707 -0.12492 -0.00426
 H145 H 0.93921 0.00462 -0.11830
 H146 H 1.05227 0.11525 -0.00108
 H147 H 0.97857 -0.18242 0.04486
 H148 H 0.98016 -0.18180 -0.05273
 H149 H 1.01346 -0.04824 -0.17985
 H150 H 1.01844 0.05187 -0.17856
 H151 H 0.97579 0.18471 -0.04947
 H152 H 0.97971 0.18341 0.04626
 H153 H 1.02017 0.04897 0.17456
 H154 H 1.01489 -0.05188 0.17348
 O155 O 1.05931 0.59617 0.60696
 O156 O 1.10752 0.53908 0.55173
 C157 C 1.09830 0.57867 0.59037
 O158 O 0.94187 0.39264 0.60296
 O159 O 0.89113 0.45335 0.55500
 C160 C 0.90210 0.41034 0.59020
 O161 O 1.06300 0.39187 0.60495
 O162 O 1.10968 0.44198 0.55060
 C163 C 1.10164 0.40482 0.59006
 O164 O 0.93816 0.61119 0.60639
 O165 O 0.88946 0.55850 0.55716
 C166 C 0.89902 0.59882 0.59376
 Zr167 Zr 0.99830 0.57162 0.57792
 O168 O 0.99513 0.56590 0.66791
 O169 O 1.00127 0.66431 0.58370
 Zr170 Zr 1.00092 0.42302 0.57431
 O171 O 0.99757 0.42026 0.66434
 O172 O 1.00784 0.32948 0.57068
 O173 O 1.03863 0.49433 0.58664
 O174 O 0.96164 0.49995 0.58729
 O175 O 0.93604 0.61347 0.40803
 O176 O 0.88827 0.56029 0.45786
 C177 C 0.89731 0.60032 0.42103
 O178 O 1.05990 0.39690 0.39573
 O179 O 1.10823 0.44451 0.45047
 C180 C 1.09900 0.40932 0.40938
 O181 O 0.93865 0.39855 0.40292
 O182 O 0.88959 0.45700 0.45612
 C183 C 0.89944 0.41623 0.41824
 O184 O 1.05677 0.59957 0.40303
 O185 O 1.10638 0.54164 0.45525
 C186 C 1.09621 0.58175 0.41762
 Zr187 Zr 0.99659 0.57476 0.43452
 O188 O 0.99111 0.57595 0.34450
 O189 O 0.99965 0.66770 0.43599
 Zr190 Zr 0.99894 0.42578 0.43141
 O191 O 0.99334 0.42338 0.34158
 O192 O 1.00583 0.33216 0.43334
 Zr193 Zr 1.06351 0.49412 0.50296
 Zr194 Zr 0.93293 0.50393 0.50575
 O195 O 0.95981 0.50336 0.42320
 O196 O 1.03623 0.49774 0.42053
 O197 O 0.95816 0.58782 0.50713
 O198 O 1.03832 0.41063 0.50176
 O199 O 1.03485 0.58143 0.50568
 O200 O 0.96084 0.41592 0.50337
 H201 H 0.94257 0.50071 0.62124
 H202 H 1.05905 0.37502 0.50039
 H203 H 0.94034 0.50542 0.38950
 H204 H 1.05324 0.61533 0.50588
 H205 H 0.98305 0.31628 0.54849
 H206 H 0.97921 0.31838 0.45059
 H207 H 1.01111 0.45413 0.32642
 H208 H 1.01718 0.55359 0.32868
 H209 H 0.97524 0.68474 0.45957
 H210 H 0.98059 0.68243 0.55537
 H211 H 1.02317 0.54689 0.68158
 H212 H 1.01960 0.44566 0.67944
 O213 O 0.56262 0.09691 0.60179
 O214 O 0.61078 0.03881 0.54755
 C215 C 0.60172 0.07902 0.58574
 O216 O 0.44437 -0.10596 0.60041
 O217 O 0.39369 -0.04568 0.55188
 C218 C 0.40471 -0.08822 0.58735
 O219 O 0.56478 -0.10862 0.60307
 O220 O 0.61174 -0.05934 0.54858
 C221 C 0.60350 -0.09602 0.58852
 O222 O 0.44182 0.11157 0.60187
 O223 O 0.39252 0.05904 0.55347
 C224 C 0.40262 0.09909 0.59008
 Zr225 Zr 0.50144 0.07190 0.57315
 O226 O 0.49853 0.06761 0.66325
 O227 O 0.50455 0.16467 0.57731
 Zr228 Zr 0.50346 -0.07659 0.57138
 O229 O 0.50004 -0.07814 0.66145
 O230 O 0.51008 -0.17019 0.56853
 O231 O 0.54151 -0.00538 0.58286
 O232 O 0.46451 0.00059 0.58356
 O233 O 0.43806 0.11170 0.40317
 O234 O 0.39052 0.05925 0.45395
 C235 C 0.39924 0.09925 0.41690
 O236 O 0.56262 -0.10614 0.39453
 O237 O 0.61099 -0.05732 0.44817
 C238 C 0.60175 -0.09366 0.40824
 O239 O 0.44088 -0.10397 0.40077
 O240 O 0.39197 -0.04433 0.45306
 C241 C 0.40160 -0.08589 0.41574
 O242 O 0.55871 0.09724 0.39774
 O243 O 0.60875 0.04041 0.45055
 C244 C 0.59814 0.08000 0.41257
 Zr245 Zr 0.49888 0.07305 0.42989
 O246 O 0.49326 0.07298 0.33988
 O247 O 0.50199 0.16598 0.43008
 Zr248 Zr 0.50131 -0.07565 0.42845
 O249 O 0.49559 -0.07681 0.33856
 O250 O 0.50785 -0.16928 0.42971
 Zr251 Zr 0.56639 -0.00665 0.49926
 Zr252 Zr 0.43549 0.00353 0.50213
 O253 O 0.46205 0.00173 0.41949
 O254 O 0.53877 -0.00408 0.41684
 O255 O 0.46086 0.08729 0.50255
 O256 O 0.54076 -0.08993 0.49897
 O257 O 0.53765 0.08067 0.50067
 O258 O 0.46331 -0.08454 0.50068
 H259 H 0.44565 0.00174 0.61773
 H260 H 0.56121 -0.12585 0.49827
 H261 H 0.44237 0.00344 0.38601
 H262 H 0.55601 0.11462 0.50055
 H263 H 0.48484 -0.18356 0.54739
 H264 H 0.48238 -0.18287 0.44992
 H265 H 0.51720 -0.05111 0.32319
 H266 H 0.51886 0.04933 0.32433
 H267 H 0.47764 0.18337 0.45356
 H268 H 0.48337 0.18240 0.54939
 H269 H 0.52657 0.04872 0.67705
 H270 H 0.52180 -0.05215 0.67623
 O271 O 0.55924 0.59394 0.09934
 O272 O 0.60800 0.53835 0.04352
 C273 C 0.59830 0.57697 0.08294
 O274 O 0.44203 0.39243 0.09536
 O275 O 0.39153 0.45248 0.04633
 C276 C 0.40234 0.41012 0.08223
 O277 O 0.56303 0.39208 0.09842
 O278 O 0.61033 0.44128 0.04412
 C279 C 0.60181 0.40509 0.08428
 O280 O 0.43890 0.60886 0.09825
 O281 O 0.39001 0.55710 0.04846
 C282 C 0.39976 0.59671 0.08578
 Zr283 Zr 0.49871 0.57019 0.06878
 O284 O 0.49513 0.56732 0.15889
 O285 O 0.50192 0.66306 0.07159
 Zr286 Zr 0.50125 0.42145 0.06582
 O287 O 0.49779 0.41563 0.15563
 O288 O 0.50829 0.32797 0.06003
 O289 O 0.53879 0.49289 0.07834
 O290 O 0.46219 0.49854 0.07853
 O291 O 0.43701 0.61254 -0.09970
 O292 O 0.38916 0.55868 -0.05079
 C293 C 0.39816 0.59971 -0.08649
 O294 O 0.56061 0.39248 -0.11138
 O295 O 0.60856 0.44072 -0.05676
 C296 C 0.59962 0.40486 -0.09736
 O297 O 0.43935 0.39522 -0.10442
 O298 O 0.39029 0.45501 -0.05249
 C299 C 0.40007 0.41330 -0.08949
 O300 O 0.55832 0.59855 -0.10427
 O301 O 0.60768 0.53887 -0.05344
 C302 C 0.59781 0.58018 -0.09002
 Zr303 Zr 0.49772 0.57245 -0.07459
 O304 O 0.49268 0.56989 -0.16463
 O305 O 0.50055 0.66529 -0.07703
 Zr306 Zr 0.49974 0.42379 -0.07697
 O307 O 0.49410 0.42444 -0.16691
 O308 O 0.50638 0.33017 -0.07684
 Zr309 Zr 0.56444 0.49231 -0.00496
 Zr310 Zr 0.43359 0.50229 -0.00302
 O311 O 0.46054 0.50133 -0.08556
 O312 O 0.53753 0.49541 -0.08769
 O313 O 0.45895 0.58608 -0.00218
 O314 O 0.53899 0.40891 -0.00619
 O315 O 0.53566 0.57957 -0.00310
 O316 O 0.46138 0.41422 -0.00514
 H317 H 0.44333 0.49944 0.11269
 H318 H 0.55967 0.37322 -0.00680
 H319 H 0.44079 0.50332 -0.11898
 H320 H 0.55399 0.61354 -0.00263
 H321 H 0.48148 0.31470 0.04256
 H322 H 0.48159 0.31632 -0.05537
 H323 H 0.51567 0.45055 -0.18165
 H324 H 0.52055 0.55182 -0.17978
 H325 H 0.48009 0.68249 -0.04798
 H326 H 0.47794 0.68103 0.04779
 H327 H 0.52190 0.54526 0.17308
 H328 H 0.51583 0.44591 0.17148
 C329 C 1.17125 0.13412 0.08036
 C330 C 1.16188 0.19342 0.11255
 C331 C 1.19242 0.17024 0.16071
 C332 C 1.20238 0.11135 0.12898
 C333 C 1.15421 0.14455 0.19188
 C334 C 1.12356 0.16801 0.14380
 C335 C 1.13303 0.10913 0.11190
 C336 C 1.16364 0.08555 0.15973
 H337 H 1.17909 0.12764 0.03467
 H338 H 1.16145 0.23800 0.09316
 H339 H 1.23523 0.08861 0.12301
 H340 H 1.14730 0.14876 0.23820
 H341 H 1.09106 0.19160 0.15037
 H342 H 1.16477 0.04149 0.17975
 C343 C 1.17394 0.63044 0.58264
 C344 C 1.16488 0.69258 0.60965
 C345 C 1.19381 0.67269 0.66046
 C346 C 1.20350 0.61102 0.63400
 C347 C 1.15432 0.65111 0.69224
 C348 C 1.12531 0.67126 0.64146
 C349 C 1.13455 0.60962 0.61492
 C350 C 1.16352 0.58941 0.66542
 H351 H 1.18226 0.61990 0.53764
 H352 H 1.16586 0.73525 0.58689
 H353 H 1.23615 0.58699 0.63097
 H354 H 1.14631 0.65949 0.73781
 H355 H 1.09299 0.69613 0.64500
 H356 H 1.16287 0.54771 0.68942
 C357 C 0.67788 0.13362 0.58130
 C358 C 0.66802 0.19378 0.61164
 C359 C 0.69477 0.17245 0.66050
 C360 C 0.70677 0.11491 0.63349
 C361 C 0.65733 0.14982 0.69019
 C362 C 0.62785 0.17038 0.64017
 C363 C 0.63822 0.10970 0.61132
 C364 C 0.66721 0.08901 0.66214
 H365 H 0.68850 0.12599 0.53663
 H366 H 0.66973 0.23807 0.59214
 H367 H 0.74058 0.09428 0.63195
 H368 H 0.64982 0.15720 0.73609
 H369 H 0.59564 0.19539 0.64455
 H370 H 0.66850 0.04730 0.68626
 C371 C 0.65471 0.65900 0.08083
 C372 C 0.64801 0.69467 0.13641
 C373 C 0.69279 0.66879 0.15757
 C374 C 0.70002 0.63342 0.10196
 C375 C 0.67179 0.61680 0.18566
 C376 C 0.62697 0.64281 0.16461
 C377 C 0.63393 0.60732 0.10924
 C378 C 0.67855 0.58088 0.12973
 H379 H 0.64563 0.67785 0.03862
 H380 H 0.63545 0.74185 0.13838
 H381 H 0.73035 0.63020 0.07645
 H382 H 0.67885 0.59954 0.22918
 H383 H 0.59682 0.64651 0.19052
 H384 H 0.69098 0.53385 0.12599
 C385 C 0.85890 -0.18223 0.09965
 C386 C 0.85501 -0.19207 0.16455
 C387 C 0.80550 -0.17897 0.16000
 C388 C 0.80914 -0.16922 0.09512
 C389 C 0.80989 -0.11276 0.17108
 C390 C 0.85991 -0.12558 0.17531
 C391 C 0.86347 -0.11616 0.11054
 C392 C 0.81402 -0.10268 0.10588
 H393 H 0.87919 -0.21067 0.06986
 H394 H 0.87181 -0.22910 0.18872
 H395 H 0.78862 -0.18647 0.06095
 H396 H 0.78949 -0.08450 0.20088
 H397 H 0.88112 -0.10717 0.20808
 H398 H 0.79740 -0.06563 0.08150
 C399 C 0.83527 0.33960 0.58766
 C400 C 0.84727 0.28817 0.62946
 C401 C 0.81121 0.31279 0.67026
 C402 C 0.79871 0.36388 0.62873
 C403 C 0.84329 0.35052 0.70132
 C404 C 0.87960 0.32611 0.66029
 C405 C 0.86739 0.37736 0.61863
 C406 C 0.83136 0.40214 0.65942
 H407 H 0.83203 0.33537 0.54073
 H408 H 0.85398 0.24100 0.61737
 H409 H 0.76505 0.37924 0.61600
 H410 H 0.84721 0.35516 0.74811
 H411 H 0.91302 0.31009 0.67354
 H412 H 0.82469 0.44929 0.67145
 C413 C 0.33938 -0.15990 0.58378
 C414 C 0.35070 -0.20982 0.62736
 C415 C 0.31339 -0.18452 0.66573
 C416 C 0.30157 -0.13494 0.62242
 C417 C 0.34409 -0.14530 0.69732
 C418 C 0.38172 -0.17041 0.65875
 C419 C 0.37012 -0.12071 0.61534
 C420 C 0.33284 -0.09520 0.65366
 H421 H 0.33764 -0.16546 0.53683
 H422 H 0.35796 -0.25733 0.61694
 H423 H 0.26815 -0.12074 0.60782
 H424 H 0.34636 -0.13933 0.74416
 H425 H 0.41488 -0.18526 0.67390
 H426 H 0.32537 -0.04780 0.66404
 C427 C 0.33703 0.33740 0.08115
 C428 C 0.34835 0.28931 0.12660
 C429 C 0.31072 0.31565 0.16401
 C430 C 0.29894 0.36345 0.11879
 C431 C 0.34113 0.35645 0.19415
 C432 C 0.37907 0.33026 0.15656
 C433 C 0.36750 0.37818 0.11124
 C434 C 0.32990 0.40474 0.14859
 H435 H 0.33540 0.32984 0.03445
 H436 H 0.35598 0.24151 0.11789
 H437 H 0.26556 0.37687 0.10352
 H438 H 0.34312 0.36432 0.24075
 H439 H 0.41220 0.31622 0.17236
 H440 H 0.32201 0.45243 0.15719
 C441 C 0.81943 0.17058 -0.09805
 C442 C 0.82743 0.22149 -0.14004
 C443 C 0.80089 0.19161 -0.18590
 C444 C 0.79221 0.14128 -0.14444
 C445 C 0.84198 0.15627 -0.20807
 C446 C 0.86896 0.18572 -0.16198
 C447 C 0.86045 0.13514 -0.12056
 C448 C 0.83369 0.10570 -0.16643
 H449 H 0.81027 0.17597 -0.05253
 H450 H 0.82486 0.26932 -0.12931
 H451 H 0.76025 0.12319 -0.13741
 H452 H 0.85123 0.15080 -0.25359
 H453 H 0.90075 0.20418 -0.16930
 H454 H 0.83638 0.05789 -0.17717
 C455 C 0.81310 0.62431 0.38408
 C456 C 0.80548 0.69186 0.37254
 C457 C 0.80896 0.67976 0.30798
 C458 C 0.81600 0.61267 0.31914
 C459 C 0.85811 0.68566 0.30966
 C460 C 0.85531 0.69735 0.37462
 C461 C 0.86226 0.63035 0.38540
 C462 C 0.86531 0.61862 0.32080
 H463 H 0.79483 0.59903 0.41508
 H464 H 0.78047 0.72264 0.39315
 H465 H 0.80081 0.57611 0.29713
 H466 H 0.87661 0.71081 0.27884
 H467 H 0.87162 0.73191 0.39822
 H468 H 0.89007 0.58798 0.29949
 C469 C 0.32284 0.16963 0.40484
 C470 C 0.33169 0.21728 0.35975
 C471 C 0.30420 0.18578 0.31613
 C472 C 0.29467 0.13864 0.36061
 C473 C 0.34449 0.14754 0.29559
 C474 C 0.37234 0.17875 0.33934
 C475 C 0.36305 0.13137 0.38384
 C476 C 0.33537 0.10017 0.34023
 H477 H 0.31409 0.17827 0.45011
 H478 H 0.33015 0.26567 0.36754
 H479 H 0.26226 0.12248 0.36899
 H480 H 0.35337 0.13885 0.25035
 H481 H 0.40447 0.19552 0.33035
 H482 H 0.33693 0.05173 0.33252
 C483 C 0.37084 0.68196 -0.16109
 C484 C 0.34290 0.65192 -0.20552
 C485 C 0.30257 0.68883 -0.18323
 C486 C 0.33013 0.71921 -0.13898
 C487 C 0.29367 0.63998 -0.14034
 C488 C 0.33438 0.60283 -0.16247
 C489 C 0.36212 0.63289 -0.11821
 C490 C 0.32192 0.66980 -0.09547
 H491 H 0.40282 0.69933 -0.16973
 H492 H 0.35136 0.64504 -0.25116
 H493 H 0.32819 0.76734 -0.12970
 H494 H 0.26144 0.62314 -0.13221
 H495 H 0.33630 0.55466 -0.17174
 H496 H 0.31359 0.67664 -0.04984
 C497 C 1.15858 -0.08327 -0.17524
 C498 C 1.20216 -0.11790 -0.15826
 C499 C 1.19279 -0.16611 -0.20189
 C500 C 1.14984 -0.13160 -0.21918
 C501 C 1.16897 -0.19987 -0.15624
 C502 C 1.17759 -0.15137 -0.11202
 C503 C 1.13467 -0.11753 -0.13021
 C504 C 1.12599 -0.16568 -0.17395
 H505 H 1.15310 -0.03522 -0.18359
 H506 H 1.23381 -0.09853 -0.15242
 H507 H 1.13846 -0.12295 -0.26351
 H508 H 1.17360 -0.24824 -0.14870
 H509 H 1.18840 -0.15926 -0.06736
 H510 H 1.09475 -0.18590 -0.18073
 C511 C 1.15882 0.41433 0.32681
 C512 C 1.20246 0.37987 0.34391
 C513 C 1.19252 0.33028 0.30201
 C514 C 1.14948 0.36464 0.28460
 C515 C 1.16895 0.29833 0.34919
 C516 C 1.17818 0.34817 0.39172
 C517 C 1.13517 0.38190 0.37347
 C518 C 1.12590 0.33236 0.33140
 H519 H 1.15356 0.46207 0.31687
 H520 H 1.23424 0.39916 0.34860
 H521 H 1.13760 0.37193 0.24029
 H522 H 1.17339 0.25023 0.35822
 H523 H 1.18952 0.34163 0.43634
 H524 H 1.09451 0.31222 0.32579
 C525 C 0.67976 -0.15817 0.39582
 C526 C 0.67043 -0.20860 0.35406
 C527 C 0.69633 -0.17925 0.30744
 C528 C 0.70638 -0.12909 0.34860
 C529 C 0.65467 -0.14336 0.28714
 C530 C 0.62880 -0.17318 0.33329
 C531 C 0.63813 -0.12314 0.37457
 C532 C 0.66410 -0.09316 0.32860
 H533 H 0.68948 -0.16387 0.44116
 H534 H 0.67339 -0.25643 0.36451
 H535 H 0.73861 -0.11133 0.35450
 H536 H 0.64433 -0.13685 0.24209
 H537 H 0.59699 -0.19187 0.32644
 H538 H 0.66033 -0.04564 0.31744
 C539 C 0.65760 0.41065 -0.18028
 C540 C 0.70284 0.38057 -0.16361
 C541 C 0.69481 0.32900 -0.20406
 C542 C 0.65010 0.35925 -0.22103
 C543 C 0.67354 0.29581 -0.15566
 C544 C 0.68084 0.34775 -0.11445
 C545 C 0.63622 0.37728 -0.13240
 C546 C 0.62883 0.32583 -0.17297
 H547 H 0.64878 0.45718 -0.19159
 H548 H 0.73346 0.40298 -0.16016
 H549 H 0.63712 0.36541 -0.26498
 H550 H 0.68047 0.24821 -0.14564
 H551 H 0.69292 0.34323 -0.06996
 H552 H 0.59848 0.30291 -0.17717
 C553 C 1.17602 0.08364 -0.13417
 C554 C 1.17018 0.12192 -0.18850
 C555 C 1.19265 0.17157 -0.15800
 C556 C 1.19895 0.13378 -0.10395
 C557 C 1.14837 0.19859 -0.13596
 C558 C 1.12589 0.14911 -0.16667
 C559 C 1.13190 0.11123 -0.11292
 C560 C 1.15419 0.16048 -0.08197
 H561 H 1.18750 0.03616 -0.13232
 H562 H 1.17694 0.10612 -0.23266
 H563 H 1.22927 0.12798 -0.07838
 H564 H 1.13708 0.24627 -0.13602
 H565 H 1.09573 0.15534 -0.19255
 H566 H 1.14594 0.17762 -0.03875
 C567 C 1.15636 0.66013 0.42033
 C568 C 1.19974 0.63273 0.39470
 C569 C 1.19154 0.67131 0.34143
 C570 C 1.14866 0.69905 0.36705
 C571 C 1.16710 0.62265 0.31241
 C572 C 1.17481 0.58357 0.36598
 C573 C 1.13202 0.61184 0.39086
 C574 C 1.12417 0.65053 0.33782
 H575 H 1.15070 0.67657 0.46444
 H576 H 1.23113 0.62589 0.41784
 H577 H 1.13797 0.74692 0.36795
 H578 H 1.17170 0.60727 0.26771
 H579 H 1.18579 0.53591 0.36677
 H580 H 1.09299 0.65787 0.31424
 C581 C 0.62449 0.15214 0.33515
 C582 C 0.64880 0.19972 0.36611
 C583 C 0.69153 0.17363 0.33911
 C584 C 0.66731 0.12595 0.30825
 C585 C 0.70058 0.13276 0.39054
 C586 C 0.65730 0.15849 0.41763
 C587 C 0.63324 0.11115 0.38638
 C588 C 0.67587 0.08457 0.36000
 H589 H 0.59309 0.15995 0.31215
 H590 H 0.63791 0.24744 0.36896
 H591 H 0.67162 0.11280 0.26288
 H592 H 0.73224 0.12555 0.41299
 H593 H 0.65166 0.17269 0.46241
 H594 H 0.68711 0.03702 0.35858
 C595 C 0.62357 0.66845 -0.15016
 C596 C 0.66060 0.69756 -0.11919
 C597 C 0.69128 0.67377 -0.16305
 C598 C 0.65708 0.64557 -0.19500
 C599 C 0.70331 0.61974 -0.13048
 C600 C 0.67046 0.64104 -0.08341
 C601 C 0.63403 0.61136 -0.11560
 C602 C 0.66707 0.58812 -0.16122
 H603 H 0.59105 0.69050 -0.16006
 H604 H 0.65936 0.74372 -0.10300
 H605 H 0.65266 0.64827 -0.24196
 H606 H 0.73744 0.60185 -0.12356
 H607 H 0.67879 0.63787 -0.03765
 H608 H 0.67233 0.54390 -0.18073
 C609 C 0.83402 -0.16112 -0.08563
 C610 C 0.79515 -0.13608 -0.12266
 C611 C 0.80699 -0.18390 -0.16813
 C612 C 0.84531 -0.20929 -0.13136
 C613 C 0.83653 -0.14246 -0.19865
 C614 C 0.82528 -0.09415 -0.15281
 C615 C 0.86361 -0.11971 -0.11609
 C616 C 0.87513 -0.16769 -0.16167
 H617 H 0.83304 -0.16850 -0.03893
 H618 H 0.76187 -0.12326 -0.10679
 H619 H 0.85367 -0.25692 -0.12284
 H620 H 0.83832 -0.13420 -0.24512
 H621 H 0.81690 -0.04655 -0.16127
 H622 H 0.90815 -0.18115 -0.17812
 C623 C 0.81464 0.39590 0.39998
 C624 C 0.80706 0.39130 0.33467
 C625 C 0.80525 0.32398 0.34042
 C626 C 0.81236 0.32823 0.40540
 C627 C 0.85451 0.31424 0.33063
 C628 C 0.85686 0.38189 0.32525
 C629 C 0.86385 0.38584 0.39012
 C630 C 0.86186 0.31863 0.39567
 H631 H 0.79854 0.42976 0.42878
 H632 H 0.78421 0.42083 0.30915
 H633 H 0.79456 0.30665 0.43955
 H634 H 0.87063 0.28037 0.30183
 H635 H 0.87549 0.40453 0.29261
 H636 H 0.88462 0.28892 0.42116
 C637 C 0.31626 -0.10446 0.39678
 C638 C 0.30893 -0.11047 0.33152
 C639 C 0.30560 -0.17744 0.33869
 C640 C 0.31251 -0.17172 0.40367
 C641 C 0.35490 -0.18914 0.32971
 C642 C 0.35873 -0.12187 0.32287
 C643 C 0.36551 -0.11646 0.38775
 C644 C 0.36203 -0.18331 0.39473
 H645 H 0.30050 -0.06943 0.42462
 H646 H 0.28689 -0.08065 0.30516
 H647 H 0.29403 -0.19158 0.43822
 H648 H 0.37067 -0.22418 0.30187
 H649 H 0.37801 -0.10093 0.28978
 H650 H 0.38399 -0.21325 0.42108
 C651 C 0.31461 0.39587 -0.10909
 C652 C 0.30800 0.38447 -0.17364
 C653 C 0.30483 0.32125 -0.16209
 C654 C 0.30965 0.32929 -0.10004
 C655 C 0.35167 0.30681 -0.17036
 C656 C 0.35778 0.37280 -0.18124
 C657 C 0.36408 0.38227 -0.11650
 C658 C 0.35925 0.31598 -0.10593
 H659 H 0.29796 0.43251 -0.08402
 H660 H 0.28549 0.41076 -0.20254
 H661 H 0.28929 0.31136 -0.06635
 H662 H 0.36532 0.26888 -0.19648
 H663 H 0.37713 0.39033 -0.21626
 H664 H 0.37983 0.28596 -0.07793
 C665 C 1.18133 -0.14942 0.10323
 C666 C 1.20039 -0.12093 0.15753
 C667 C 1.19252 -0.17709 0.19138
 C668 C 1.17413 -0.20593 0.13794
 C669 C 1.14650 -0.15069 0.20754
 C670 C 1.15393 -0.09477 0.17343
 C671 C 1.13544 -0.12391 0.12041
 C672 C 1.12817 -0.17991 0.15446
 H673 H 1.19517 -0.14856 0.05965
 H674 H 1.23033 -0.09687 0.15915
 H675 H 1.18279 -0.25197 0.12347
 H676 H 1.13169 -0.15007 0.25065
 H677 H 1.14404 -0.04966 0.18892
 H678 H 1.09849 -0.20461 0.15357
 C679 C 1.18344 0.34776 0.60443
 C680 C 1.20483 0.37708 0.65663
 C681 C 1.19628 0.32285 0.69294
 C682 C 1.17565 0.29319 0.64154
 C683 C 1.15143 0.35214 0.71044
 C684 C 1.15947 0.40615 0.67387
 C685 C 1.13869 0.37608 0.62305
 C686 C 1.13086 0.32198 0.65953
 H687 H 1.19605 0.34645 0.56014
 H688 H 1.23554 0.39947 0.65600
 H689 H 1.18271 0.24638 0.62839
 H690 H 1.13795 0.35475 0.75430
 H691 H 1.15147 0.45230 0.68769
 H692 H 1.10054 0.29870 0.66113
 C693 C 0.63118 -0.17531 0.66291
 C694 C 0.67591 -0.20631 0.64756
 C695 C 0.69621 -0.17365 0.69739
 C696 C 0.65150 -0.14231 0.71229
 C697 C 0.70603 -0.12238 0.65787
 C698 C 0.68487 -0.15462 0.60718
 C699 C 0.64016 -0.12402 0.62317
 C700 C 0.66075 -0.09124 0.67248
 H701 H 0.60055 -0.19780 0.66548
 H702 H 0.68249 -0.25402 0.63750
 H703 H 0.63737 -0.13604 0.75558
 H704 H 0.73705 -0.10076 0.65636
 H705 H 0.69812 -0.15933 0.56333
 H706 H 0.65277 -0.04432 0.68326
 C707 C 0.62857 0.32904 0.16140
 C708 C 0.67145 0.29445 0.14420
 C709 C 0.69489 0.32676 0.19159
 C710 C 0.65200 0.36181 0.20826
 C711 C 0.70541 0.37569 0.14969
 C712 C 0.68117 0.34365 0.10162
 C713 C 0.63827 0.37791 0.11929
 C714 C 0.66187 0.41077 0.16605
 H715 H 0.59710 0.30911 0.16685
 H716 H 0.67571 0.24622 0.13544
 H717 H 0.63996 0.36967 0.25241
 H718 H 0.73738 0.39450 0.14546
 H719 H 0.69261 0.33653 0.05714
 H720 H 0.65694 0.45877 0.17535
 C721 C 0.83497 0.10176 0.16196
 C722 C 0.84674 0.14632 0.20836
 C723 C 0.80743 0.18781 0.19052
 C724 C 0.79519 0.14354 0.14430
 C725 C 0.83512 0.21931 0.14769
 C726 C 0.87480 0.17754 0.16539
 C727 C 0.86288 0.13293 0.11911
 C728 C 0.82363 0.17447 0.10078
 H729 H 0.83499 0.05316 0.16736
 H730 H 0.85619 0.13526 0.25296
 H731 H 0.76190 0.13008 0.13619
 H732 H 0.83516 0.26786 0.14219
 H733 H 0.90773 0.19187 0.17440
 H734 H 0.81431 0.18552 0.05617
 C735 C 0.83549 0.60319 0.67080
 C736 C 0.84362 0.65339 0.71336
 C737 C 0.80318 0.68946 0.69026
 C738 C 0.79464 0.63953 0.64790
 C739 C 0.83069 0.71909 0.64570
 C740 C 0.87159 0.68257 0.66856
 C741 C 0.86319 0.63240 0.62626
 C742 C 0.82282 0.66857 0.60283
 H743 H 0.83763 0.55535 0.68097
 H744 H 0.85211 0.64759 0.75912
 H745 H 0.76259 0.62208 0.63961
 H746 H 0.82874 0.76694 0.63545
 H747 H 0.90349 0.70035 0.67712
 H748 H 0.81449 0.67428 0.55703
 C749 C 0.34220 0.10010 0.67031
 C750 C 0.35291 0.14768 0.71430
 C751 C 0.31180 0.18546 0.69619
 C752 C 0.30066 0.13813 0.65235
 C753 C 0.33731 0.21710 0.65094
 C754 C 0.37883 0.17895 0.66886
 C755 C 0.36790 0.13132 0.62503
 C756 C 0.32686 0.16921 0.60647
 H757 H 0.34450 0.05180 0.67813
 H758 H 0.36351 0.13932 0.75898
 H759 H 0.26803 0.12171 0.64608
 H760 H 0.33526 0.26549 0.64334
 H761 H 0.41120 0.19600 0.67577
 H762 H 0.31635 0.17752 0.56177
 C763 C 0.33968 0.59844 0.16712
 C764 C 0.35011 0.64740 0.20983
 C765 C 0.30846 0.68399 0.19154
 C766 C 0.29762 0.63526 0.14897
 C767 C 0.33331 0.71496 0.14510
 C768 C 0.37534 0.67803 0.16322
 C769 C 0.36470 0.62901 0.12064
 C770 C 0.32312 0.66571 0.10192
 H771 H 0.34254 0.55038 0.17618
 H772 H 0.36119 0.64030 0.25450
 H773 H 0.26519 0.61794 0.14351
 H774 H 0.33069 0.76314 0.13633
 H775 H 0.40751 0.69596 0.16925
 H776 H 0.31207 0.67278 0.05729
   
