data_POSCAR
  _audit_creation_date              2014-09-24
  _audit_creation_method            'ToBaCCo'
  _symmetry_space_group_name_H-M    'P1'
  _symmetry_Int_Tables_number       1
  _symmetry_cell_setting            triclinic
  loop_
  _symmetry_equiv_pos_as_xyz
 x,y,z
_cell_length_a 26.7740
_cell_length_b 26.9006
_cell_length_c 47.9572
_cell_angle_alpha 91.786800
_cell_angle_beta 89.065200
_cell_angle_gamma 77.820800
loop_
  _atom_site_label
  _atom_site_type_symbol
  _atom_site_fract_x
  _atom_site_fract_y
  _atom_site_fract_z
C1 C -0.01227 0.63292 1.00154
 C2 C -0.02195 0.61226 1.02721
 C3 C -0.02770 0.56157 1.02733
 C4 C -0.01807 0.52976 1.00306
 C5 C -0.00585 0.55094 0.97795
 C6 C -0.00592 0.60303 0.97656
 C7 C -0.02042 0.47463 1.00397
 C8 C -0.03292 0.44826 0.98008
 C9 C -0.03285 0.39617 0.98048
 C10 C -0.02418 0.37088 1.00567
 C11 C -0.01214 0.39623 1.02986
 C12 C -0.00952 0.44766 1.02869
 H13 H -0.00988 0.67230 1.00101
 H14 H -0.03853 0.54668 1.04671
 H15 H 0.00272 0.52722 0.95912
 H16 H -0.04249 0.46782 0.96089
 H17 H -0.02838 0.33187 1.00649
 H18 H 0.00175 0.46618 1.04718
 C19 C 0.37928 -0.01307 0.50075
 C20 C 0.40258 -0.00225 0.52556
 C21 C 0.45158 0.00838 0.52423
 C22 C 0.47950 0.00411 0.49874
 C23 C 0.45573 -0.00851 0.47422
 C24 C 0.40503 -0.01477 0.47489
 C25 C 0.53290 0.01317 0.49776
 C26 C 0.55288 0.03084 0.47352
 C27 C 0.60326 0.03831 0.47211
 C28 C 0.63301 0.03069 0.49622
 C29 C 0.61337 0.01503 0.52112
 C30 C 0.56427 0.00429 0.52117
 H31 H 0.34095 -0.01986 0.50165
 H32 H 0.46772 0.01971 0.54334
 H33 H 0.47614 -0.01300 0.45434
 H34 H 0.52924 0.03905 0.45545
 H35 H 0.67242 0.03363 0.49522
 H36 H 0.55051 -0.01082 0.53976
 C37 C 0.09922 0.01989 0.27743
 H38 H 0.10040 0.04827 0.26213
 C39 C 0.13591 0.01185 0.29817
 H40 H 0.16478 0.03453 0.29846
 C41 C 0.05765 -0.04102 0.29678
 H42 H 0.02639 -0.06077 0.29634
 C43 C 0.09332 -0.05012 0.31787
 H44 H 0.08937 -0.07712 0.33363
 N45 N 0.06105 -0.00642 0.27717
 C46 C -0.03268 -0.05038 0.21123
 H47 H -0.06229 -0.01621 0.21042
 C48 C -0.03277 -0.09124 0.19254
 H49 H -0.06256 -0.08789 0.17731
 C50 C 0.04421 -0.09423 0.23080
 H51 H 0.07494 -0.09465 0.24518
 C52 C 0.04597 -0.13565 0.21225
 H53 H 0.07785 -0.16796 0.21271
 Zn54 Zn 0.00695 0.00668 0.25179
 N55 N 0.00539 -0.05259 0.22986
 C56 C 0.05765 0.04689 0.20961
 N57 N 0.01561 0.05740 0.22677
 C58 C -0.02048 0.10088 0.22454
 C59 C -0.01488 0.13606 0.20450
 C60 C 0.06491 0.08095 0.18934
 C61 C -0.09008 -0.00044 0.27488
 C62 C -0.13166 0.01331 0.29362
 C63 C -0.09786 0.08560 0.30926
 C64 C -0.05687 0.07020 0.29043
 N65 N -0.05366 0.02786 0.27373
 H66 H 0.08527 0.01152 0.21146
 H67 H -0.05442 0.10786 0.23779
 H68 H -0.04512 0.16944 0.20319
 H69 H 0.09862 0.07138 0.17581
 H70 H -0.08610 -0.03476 0.26199
 H71 H -0.15887 -0.01107 0.29422
 H72 H -0.09899 0.11913 0.32258
 H73 H -0.02682 0.09144 0.28950
 C74 C 0.00729 -0.13440 0.19278
 C75 C 0.13295 -0.02343 0.31887
 C76 C -0.13573 0.05674 0.31152
 C77 C 0.02835 0.12626 0.18632
 C78 C -0.03366 0.07979 0.77177
 H79 H -0.06246 0.08443 0.75598
 C80 C -0.03551 0.11817 0.79224
 H81 H -0.06537 0.15221 0.79179
 C82 C 0.03912 0.02763 0.79163
 H83 H 0.06675 -0.00813 0.79095
 C84 C 0.04098 0.06334 0.81293
 H85 H 0.07032 0.05482 0.82839
 N86 N 0.00280 0.03623 0.77194
 C87 C 0.07040 -0.07338 0.70592
 H88 H 0.04177 -0.09629 0.70456
 C89 C 0.11228 -0.08298 0.68735
 H90 H 0.11590 -0.11368 0.67179
 C91 C 0.09919 -0.00403 0.72706
 H92 H 0.09339 0.02741 0.74215
 C93 C 0.14149 -0.01209 0.70876
 H94 H 0.16849 0.01250 0.71072
 Zn95 Zn 0.00300 -0.01919 0.74669
 N96 N 0.06451 -0.03432 0.72518
 C97 C -0.04870 0.03357 0.70318
 N98 N -0.05077 -0.00389 0.72122
 C99 C -0.08746 -0.03182 0.71936
 C100 C -0.12400 -0.02261 0.69860
 C101 C -0.08422 0.04397 0.68206
 C102 C 0.03209 -0.11765 0.76950
 C103 C 0.02877 -0.15497 0.78855
 C104 C -0.05387 -0.09905 0.80598
 C105 C -0.04628 -0.06480 0.78608
 N106 N -0.00442 -0.07420 0.76886
 H107 H -0.01862 0.05470 0.70488
 H108 H -0.08777 -0.06221 0.73351
 H109 H -0.15196 -0.04617 0.69785
 H110 H -0.08119 0.07366 0.66776
 H111 H 0.06523 -0.12279 0.75571
 H112 H 0.05912 -0.18862 0.78894
 H113 H -0.08732 -0.08944 0.81968
 H114 H -0.07366 -0.02912 0.78481
 C115 C 0.14779 -0.05143 0.68819
 C116 C 0.00277 0.11227 0.81542
 C117 C -0.01571 -0.14777 0.80984
 C118 C -0.12235 0.01545 0.67919
 C119 C -0.02639 -0.35925 0.05266
 C120 C -0.00847 -0.31424 0.05645
 C121 C -0.01297 -0.28484 0.08324
 C122 C 0.02428 -0.25683 0.08952
 C123 C 0.02011 -0.22639 0.11390
 C124 C -0.02194 -0.22276 0.13234
 C125 C -0.05954 -0.25038 0.12596
 C126 C -0.05492 -0.28160 0.10173
 C127 C -0.02888 -0.18765 0.15711
 C128 C 0.01246 -0.17599 0.17136
 H129 H 0.01412 -0.30200 0.04017
 H130 H 0.05656 -0.25818 0.07539
 H131 H 0.04898 -0.20441 0.11775
 H132 H -0.09267 -0.24752 0.13966
 H133 H -0.08491 -0.30178 0.09707
 H134 H -0.06746 -0.17088 0.16433
 H135 H -0.04088 -0.37490 0.07092
 H136 H 0.05050 -0.19816 0.16653
 C137 C -0.00441 0.37069 0.05691
 C138 C 0.00973 0.31784 0.05890
 C139 C 0.01082 0.29085 0.08546
 C140 C 0.03492 0.23919 0.08555
 C141 C 0.03366 0.21107 0.10947
 C142 C 0.00837 0.23419 0.13401
 C143 C -0.01563 0.28588 0.13395
 C144 C -0.01447 0.31400 0.11000
 C145 C 0.00313 0.20497 0.15923
 C146 C 0.03570 0.15840 0.16465
 H147 H 0.02098 0.29469 0.04006
 H148 H 0.05398 0.22016 0.06684
 H149 H 0.05103 0.17093 0.10819
 H150 H -0.03610 0.30441 0.15242
 H151 H -0.03484 0.35325 0.11068
 H152 H -0.02723 0.22175 0.17388
 H153 H -0.00918 0.39466 0.07570
 H154 H 0.06909 0.14592 0.15115
 C155 C 0.37584 -0.00045 0.55298
 C156 C 0.34036 -0.03060 0.55829
 C157 C 0.31065 -0.02884 0.58478
 C158 C 0.30557 0.01156 0.60468
 C159 C 0.27445 0.01286 0.62852
 C160 C 0.24771 -0.02593 0.63305
 C161 C 0.25304 -0.06641 0.61316
 C162 C 0.28419 -0.06775 0.58939
 C163 C 0.21221 -0.02077 0.65758
 C164 C 0.18960 -0.05984 0.66687
 H165 H 0.33482 -0.05824 0.54238
 H166 H 0.32416 0.04302 0.60167
 H167 H 0.27055 0.04485 0.64328
 H168 H 0.23220 -0.09642 0.61516
 H169 H 0.28689 -0.09900 0.57425
 H170 H 0.20184 0.01642 0.66789
 H171 H 0.38686 0.02274 0.56965
 H172 H 0.19969 -0.09723 0.65685
 C173 C -0.35850 0.00870 0.54584
 C174 C -0.31460 0.02809 0.55051
 C175 C -0.28609 0.02134 0.57675
 C176 C -0.25892 0.05820 0.58518
 C177 C -0.23014 0.05251 0.60935
 C178 C -0.22690 0.00893 0.62533
 C179 C -0.25465 -0.02768 0.61699
 C180 C -0.28386 -0.02168 0.59294
 C181 C -0.19515 -0.00009 0.65056
 C182 C -0.15580 0.02545 0.65667
 H183 H -0.30272 0.05302 0.53569
 H184 H -0.26026 0.09181 0.57310
 H185 H -0.21110 0.08269 0.61531
 H186 H -0.25301 -0.06157 0.62887
 H187 H -0.30350 -0.05137 0.58672
 H188 H -0.20196 -0.02995 0.66368
 H189 H -0.37366 -0.00919 0.56305
 H190 H -0.14910 0.05404 0.64257
 C191 C 0.00019 -0.37647 0.95029
 C192 C -0.01251 -0.32433 0.94528
 C193 C -0.00824 -0.30286 0.91756
 C194 C -0.04092 -0.25649 0.91189
 C195 C -0.03654 -0.23302 0.88673
 C196 C 0.00133 -0.25511 0.86672
 C197 C 0.03380 -0.30184 0.87224
 C198 C 0.02903 -0.32568 0.89743
 C199 C 0.00906 -0.22866 0.84088
 C200 C -0.02383 -0.18335 0.83460
 H201 H -0.03128 -0.29778 0.96147
 H202 H -0.06982 -0.23808 0.92711
 H203 H -0.06218 -0.19696 0.88333
 H204 H 0.06346 -0.31948 0.85725
 H205 H 0.05553 -0.36092 0.90144
 H206 H 0.04223 -0.24365 0.82751
 H207 H 0.01114 -0.40255 0.93250
 H208 H -0.01600 -0.16808 0.82129
 C209 C -0.04152 0.36875 0.95433
 C210 C -0.01833 0.31760 0.94919
 C211 C -0.02191 0.28884 0.92274
 C212 C 0.01491 0.24413 0.91694
 C213 C 0.01291 0.21483 0.89265
 C214 C -0.02651 0.22933 0.87361
 C215 C -0.06350 0.27404 0.87936
 C216 C -0.06133 0.30362 0.90371
 C217 C -0.03030 0.19776 0.84819
 C218 C 0.00515 0.15280 0.84234
 H219 H 0.00702 0.29828 0.96467
 H220 H 0.04550 0.23174 0.93132
 H221 H 0.04211 0.18059 0.88900
 H222 H -0.09445 0.28582 0.86513
 H223 H -0.09110 0.33720 0.90776
 H224 H -0.06206 0.20925 0.83441
 H225 H -0.06203 0.39052 0.93792
 H226 H 0.00065 0.13506 0.82798
 C227 C -0.37715 0.05024 0.44621
 C228 C -0.32917 0.06236 0.44224
 C229 C -0.30362 0.06255 0.41457
 C230 C -0.26000 0.08356 0.41290
 C231 C -0.23102 0.07959 0.38814
 C232 C -0.24526 0.05467 0.36424
 C233 C -0.28946 0.03449 0.36575
 C234 C -0.31836 0.03826 0.39060
 C235 C -0.21275 0.04496 0.33843
 C236 C -0.17395 0.07110 0.33253
 H237 H -0.30843 0.07204 0.46003
 H238 H -0.24729 0.10180 0.43112
 H239 H -0.19643 0.09424 0.38841
 H240 H -0.30094 0.01445 0.34782
 H241 H -0.35081 0.02023 0.39108
 H242 H -0.21952 0.01526 0.32424
 H243 H -0.40062 0.04932 0.42812
 H244 H -0.17215 0.10418 0.34558
 C245 C 0.37985 -0.02269 0.44826
 C246 C 0.32694 -0.00806 0.44527
 C247 C 0.29992 -0.01266 0.41892
 C248 C 0.24704 -0.00983 0.42052
 C249 C 0.21898 -0.01135 0.39637
 C250 C 0.24326 -0.01569 0.36993
 C251 C 0.29610 -0.01806 0.36823
 C252 C 0.32434 -0.01682 0.39248
 C253 C 0.21380 -0.01468 0.34399
 C254 C 0.16738 -0.03048 0.34294
 H255 H 0.30335 0.00828 0.46316
 H256 H 0.22715 -0.00585 0.44059
 H257 H 0.17806 -0.00753 0.39857
 H258 H 0.31551 -0.02054 0.34808
 H259 H 0.36476 -0.01765 0.39028
 H260 H 0.22976 -0.00210 0.32528
 H261 H 0.40400 -0.03793 0.43039
 H262 H 0.15542 -0.04931 0.36072
   
