data_POSCAR
  _audit_creation_date              2014-09-24
  _audit_creation_method            'ToBaCCo'
  _symmetry_space_group_name_H-M    'P1'
  _symmetry_Int_Tables_number       1
  _symmetry_cell_setting            triclinic
  loop_
  _symmetry_equiv_pos_as_xyz
 x,y,z
_cell_length_a 34.8999
_cell_length_b 35.1779
_cell_length_c 35.0756
_cell_angle_alpha 82.713100
_cell_angle_beta 94.886300
_cell_angle_gamma 102.539900
loop_
  _atom_site_label
  _atom_site_type_symbol
  _atom_site_fract_x
  _atom_site_fract_y
  _atom_site_fract_z
C1 C 0.56685 0.57556 -0.01007
 C2 C 0.57688 0.53844 -0.00477
 C3 C 0.54615 0.50499 0.00008
 C4 C 0.50628 0.50801 -0.00396
 C5 C 0.49771 0.54569 -0.01155
 C6 C 0.52750 0.57989 -0.01286
 C7 C 0.47341 0.47222 -0.00093
 C8 C 0.43568 0.47486 0.00881
 C9 C 0.40414 0.44235 0.00971
 C10 C 0.41098 0.40585 0.00358
 C11 C 0.44849 0.40178 -0.00451
 C12 C 0.47910 0.43521 -0.00789
 H13 H 0.59014 0.60126 -0.00865
 H14 H 0.55324 0.47643 0.00558
 H15 H 0.46762 0.54854 -0.01808
 H16 H 0.43035 0.50209 0.01620
 H17 H 0.38677 0.38065 0.00406
 H18 H 0.50732 0.43187 -0.01574
 C19 C 0.00686 0.59032 0.42911
 C20 C 0.00924 0.59826 0.46773
 C21 C 0.00661 0.56637 0.49678
 C22 C -0.00075 0.52737 0.48795
 C23 C -0.00460 0.52065 0.44880
 C24 C 0.00110 0.55189 0.41897
 C25 C -0.00301 0.49390 0.51959
 C26 C 0.00633 0.45824 0.51311
 C27 C 0.00346 0.42650 0.54207
 C28 C -0.00644 0.43122 0.57880
 C29 C -0.01499 0.46650 0.58659
 C30 C -0.01414 0.49731 0.55667
 H31 H 0.00620 0.61400 0.40639
 H32 H 0.01225 0.57210 0.52648
 H33 H -0.01044 0.49099 0.44163
 H34 H 0.01567 0.45463 0.48548
 H35 H -0.00655 0.40748 0.60175
 H36 H -0.02281 0.52360 0.56252
 C37 C 0.58273 -0.00713 0.57275
 C38 C 0.54333 -0.00963 0.57993
 C39 C 0.51562 -0.00838 0.54883
 C40 C 0.52701 -0.00090 0.51068
 C41 C 0.56698 0.00259 0.50405
 C42 C 0.59514 -0.00203 0.53483
 C43 C 0.49688 0.00315 0.47824
 C44 C 0.50117 -0.00686 0.44143
 C45 C 0.47218 -0.00376 0.41152
 C46 C 0.43775 0.00780 0.41889
 C47 C 0.43261 0.01735 0.45541
 C48 C 0.46280 0.01639 0.48430
 H49 H 0.60409 -0.00688 0.59700
 H50 H 0.48491 -0.01337 0.55477
 H51 H 0.57574 0.00755 0.47478
 H52 H 0.52646 -0.01802 0.43590
 H53 H 0.41483 0.00913 0.39621
 H54 H 0.45935 0.02612 0.51161
 O55 O 0.46489 -0.01415 -0.06374
 O56 O 0.45154 -0.02665 0.04053
 O57 O 0.45054 0.03037 -0.01454
 O58 O 0.46404 -0.07090 -0.00939
 O59 O 0.52798 -0.05059 0.00157
 O60 O 0.51433 0.05110 -0.00328
 O61 O 0.51553 -0.00667 0.05141
 O62 O 0.52869 0.00657 -0.05234
 Cu63 Cu 0.45130 -0.02218 -0.01284
 Cu64 Cu 0.52801 0.00239 0.00054
 C65 C 0.49929 -0.00253 -0.07576
 C66 C 0.48144 -0.01912 0.06381
 C67 C 0.47997 0.05808 -0.00969
 C68 C 0.49832 -0.07807 -0.00362
 O69 O -0.05342 0.52740 1.00019
 O70 O 0.05190 0.52392 1.00606
 O71 O -0.00208 0.52725 0.95019
 O72 O 0.00079 0.52675 1.05514
 O73 O -0.01458 0.46215 1.06242
 O74 O -0.01827 0.46270 0.95647
 O75 O 0.03607 0.45936 1.01234
 O76 O -0.06894 0.46280 1.00702
 Cu77 Cu 0.00093 0.53274 1.00213
 Cu78 Cu -0.01786 0.45529 1.01017
 C79 C -0.07919 0.49565 1.00308
 C80 C 0.06200 0.49095 1.01019
 C81 C -0.01078 0.49523 0.93523
 C82 C -0.00678 0.49461 1.07680
 O83 O 0.00863 -0.02983 0.46325
 O84 O 0.01486 0.07415 0.47530
 O85 O 0.06416 0.03288 0.46012
 O86 O -0.04139 0.01210 0.47564
 O87 O -0.02867 -0.00054 0.53809
 O88 O 0.07731 0.02084 0.52258
 O89 O 0.02741 0.06105 0.53773
 O90 O 0.02186 -0.04215 0.52563
 Cu91 Cu 0.01024 0.02352 0.46231
 Cu92 Cu 0.02575 0.00839 0.53725
 C93 C 0.01456 -0.05371 0.49243
 C94 C 0.02195 0.08526 0.50878
 C95 C 0.08883 0.03048 0.48861
 C96 C -0.05313 0.00273 0.50949
 C97 C -0.35563 0.56477 0.97503
 C98 C -0.31631 0.56227 0.97497
 C99 C -0.30268 0.53036 0.99513
 C100 C -0.32949 0.50085 1.01577
 C101 C -0.36908 0.50317 1.01575
 C102 C -0.38302 0.53538 0.99555
 C103 C -0.26020 0.53010 0.99456
 C104 C -0.24457 0.49838 1.00485
 C105 C -0.20198 0.49887 1.00360
 C106 C -0.19022 0.46327 1.00290
 C107 C -0.15045 0.46223 1.00230
 C108 C -0.12142 0.49687 1.00249
 C109 C -0.13308 0.53252 1.00339
 C110 C -0.17282 0.53354 1.00420
 H111 H -0.36454 0.58933 0.95750
 H112 H -0.29644 0.58539 0.95866
 H113 H -0.32009 0.47633 1.03281
 H114 H -0.38800 0.48041 1.03325
 H115 H -0.24142 0.55723 0.98346
 H116 H -0.26361 0.47037 1.01292
 H117 H -0.21192 0.43609 1.00275
 H118 H -0.14245 0.43424 1.00179
 H119 H -0.11141 0.55965 1.00413
 H120 H -0.18025 0.56147 1.00616
 C121 C 0.33848 0.41842 1.03868
 C122 C 0.29969 0.42170 1.04199
 C123 C 0.28514 0.45344 1.02224
 C124 C 0.31056 0.48211 0.99917
 C125 C 0.34939 0.47891 0.99603
 C126 C 0.36370 0.44688 1.01545
 C127 C 0.24296 0.45417 1.02479
 C128 C 0.22741 0.48595 1.01412
 C129 C 0.18483 0.48597 1.01469
 C130 C 0.17331 0.52204 1.01303
 C131 C 0.13354 0.52370 1.01189
 C132 C 0.10424 0.48925 1.01222
 C133 C 0.11568 0.45312 1.01386
 C134 C 0.15544 0.45145 1.01487
 H135 H 0.34873 0.39353 1.05420
 H136 H 0.28083 0.39907 1.05981
 H137 H 0.30053 0.50643 0.98242
 H138 H 0.36789 0.50089 0.97729
 H139 H 0.22433 0.42730 1.03668
 H140 H 0.24651 0.51370 1.00533
 H141 H 0.19521 0.54912 1.01249
 H142 H 0.12576 0.55203 1.01056
 H143 H 0.09385 0.42605 1.01379
 H144 H 0.16271 0.42312 1.01482
 C145 C -0.00125 -0.35480 0.51072
 C146 C 0.00006 -0.31631 0.51793
 C147 C 0.01590 -0.28450 0.49166
 C148 C 0.03238 -0.29186 0.45889
 C149 C 0.03104 -0.33022 0.45153
 C150 C 0.01335 -0.36266 0.47680
 C151 C 0.01526 -0.24419 0.49953
 C152 C 0.01550 -0.21428 0.47157
 C153 C 0.01427 -0.17375 0.47837
 C154 C 0.00432 -0.14793 0.44703
 C155 C 0.00393 -0.10912 0.45161
 C156 C 0.01361 -0.09517 0.48772
 C157 C 0.02353 -0.12097 0.51916
 C158 C 0.02406 -0.15975 0.51456
 H159 H -0.01584 -0.37818 0.53093
 H160 H -0.01243 -0.31143 0.54367
 H161 H 0.04684 -0.26809 0.43898
 H162 H 0.04506 -0.33406 0.42635
 H163 H 0.01215 -0.23994 0.52902
 H164 H 0.01494 -0.21981 0.44184
 H165 H -0.00308 -0.15778 0.41878
 H166 H -0.00373 -0.08999 0.42677
 H167 H 0.03154 -0.11103 0.54731
 H168 H 0.03304 -0.17814 0.53928
 C169 C 0.03968 0.38524 0.51063
 C170 C 0.04467 0.34865 0.50275
 C171 C 0.02017 0.31409 0.51838
 C172 C -0.01017 0.31681 0.54117
 C173 C -0.01529 0.35327 0.54884
 C174 C 0.00968 0.38792 0.53389
 C175 C 0.02593 0.27569 0.50964
 C176 C 0.01744 0.24321 0.53448
 C177 C 0.02135 0.20395 0.52652
 C178 C 0.02526 0.17577 0.55784
 C179 C 0.02639 0.13756 0.55196
 C180 C 0.02309 0.12647 0.51452
 C181 C 0.01949 0.15473 0.48303
 C182 C 0.01863 0.19315 0.48894
 H183 H 0.05956 0.41137 0.49886
 H184 H 0.06802 0.34729 0.48484
 H185 H -0.03057 0.29086 0.55247
 H186 H -0.03936 0.35437 0.56595
 H187 H 0.03893 0.27468 0.48294
 H188 H 0.00825 0.24548 0.56269
 H189 H 0.02711 0.18327 0.58706
 H190 H 0.02906 0.11650 0.57687
 H191 H 0.01670 0.14703 0.45385
 H192 H 0.01456 0.21382 0.46412
 C193 C 0.50371 0.01008 -0.37246
 C194 C 0.49371 0.01029 -0.33483
 C195 C 0.51156 -0.01026 -0.30403
 C196 C 0.53840 -0.03257 -0.31165
 C197 C 0.54817 -0.03308 -0.34937
 C198 C 0.53132 -0.01134 -0.38016
 C199 C 0.50154 -0.00787 -0.26444
 C200 C 0.52755 -0.00936 -0.23422
 C201 C 0.51887 -0.00541 -0.19453
 C202 C 0.55039 0.00696 -0.16833
 C203 C 0.54385 0.00927 -0.13009
 C204 C 0.50557 -0.00116 -0.11709
 C205 C 0.47389 -0.01306 -0.14342
 C206 C 0.48043 -0.01527 -0.18177
 H207 H 0.49056 0.02757 -0.39543
 H208 H 0.47277 0.02746 -0.32965
 H209 H 0.55166 -0.04985 -0.28860
 H210 H 0.56885 -0.05056 -0.35444
 H211 H 0.47308 -0.00172 -0.26079
 H212 H 0.55726 -0.01150 -0.23889
 H213 H 0.58026 0.01455 -0.17741
 H214 H 0.56894 0.01836 -0.11050
 H215 H 0.44410 -0.02168 -0.13419
 H216 H 0.45547 -0.02594 -0.20084
 C217 C 0.51381 0.00397 0.35536
 C218 C 0.51834 -0.00098 0.31726
 C219 C 0.48723 -0.02196 0.29527
 C220 C 0.45191 -0.03951 0.31289
 C221 C 0.44731 -0.03429 0.35094
 C222 C 0.47800 -0.01200 0.37231
 C223 C 0.49293 -0.02412 0.25422
 C224 C 0.46332 -0.03332 0.22771
 C225 C 0.46881 -0.03159 0.18594
 C226 C 0.43584 -0.03171 0.15996
 C227 C 0.43970 -0.02832 0.12027
 C228 C 0.47674 -0.02456 0.10572
 C229 C 0.50957 -0.02553 0.13162
 C230 C 0.50567 -0.02939 0.17127
 H231 H 0.53789 0.02140 0.37118
 H232 H 0.54599 0.01253 0.30461
 H233 H 0.42770 -0.05728 0.29770
 H234 H 0.41969 -0.04762 0.36369
 H235 H 0.52274 -0.01478 0.24541
 H236 H 0.43331 -0.03984 0.23613
 H237 H 0.40704 -0.03375 0.17037
 H238 H 0.41384 -0.02783 0.10098
 H239 H 0.53839 -0.02342 0.12122
 H240 H 0.53169 -0.03074 0.18995
 C241 C 0.48323 -0.37717 -0.00135
 C242 C 0.47567 -0.33978 -0.00117
 C243 C 0.50272 -0.30635 -0.01502
 C244 C 0.53672 -0.31114 -0.03097
 C245 C 0.54443 -0.34846 -0.03114
 C246 C 0.51827 -0.38233 -0.01557
 C247 C 0.49424 -0.26720 -0.01278
 C248 C 0.52244 -0.23457 -0.01153
 C249 C 0.51477 -0.19522 -0.00837
 C250 C 0.54633 -0.16568 0.00259
 C251 C 0.54094 -0.12782 0.00480
 C252 C 0.50377 -0.11860 -0.00398
 C253 C 0.47209 -0.14813 -0.01478
 C254 C 0.47751 -0.18594 -0.01719
 H255 H 0.46234 -0.40164 0.01183
 H256 H 0.44902 -0.33693 0.01094
 H257 H 0.55733 -0.28622 -0.04381
 H258 H 0.57057 -0.35045 -0.04460
 H259 H 0.46397 -0.26606 -0.00966
 H260 H 0.55293 -0.23674 -0.01115
 H261 H 0.57539 -0.17188 0.00931
 H262 H 0.56599 -0.10570 0.01308
 H263 H 0.44316 -0.14185 -0.02219
 H264 H 0.45257 -0.20728 -0.02689
 C265 C 0.48002 0.35713 -0.03670
 C266 C 0.48723 0.32002 -0.03964
 C267 C 0.46993 0.28732 -0.01500
 C268 C 0.44588 0.29261 0.01327
 C269 C 0.43883 0.32966 0.01633
 C270 C 0.45569 0.36237 -0.00866
 C271 C 0.47858 0.24848 -0.01845
 C272 C 0.45337 0.21472 -0.00850
 C273 C 0.46146 0.17544 -0.01082
 C274 C 0.42951 0.14367 -0.01331
 C275 C 0.43559 0.10577 -0.01363
 C276 C 0.47388 0.09864 -0.01096
 C277 C 0.50597 0.13043 -0.00850
 C278 C 0.49987 0.16847 -0.00843
 H279 H 0.49320 0.38162 -0.05662
 H280 H 0.50610 0.31677 -0.06147
 H281 H 0.43321 0.26842 0.03373
 H282 H 0.42079 0.33285 0.03888
 H283 H 0.50569 0.24795 -0.03107
 H284 H 0.42467 0.21564 0.00045
 H285 H 0.39965 0.14817 -0.01486
 H286 H 0.41019 0.08195 -0.01540
 H287 H 0.53583 0.12587 -0.00619
 H288 H 0.52524 0.19203 -0.00541
 C289 C -0.34715 0.01903 0.49499
 C290 C -0.30806 0.01901 0.48897
 C291 C -0.28573 -0.00177 0.51564
 C292 C -0.30369 -0.02325 0.54833
 C293 C -0.34254 -0.02291 0.55466
 C294 C -0.36516 -0.00169 0.52821
 C295 C -0.24433 -0.00081 0.50781
 C296 C -0.21765 -0.01171 0.53449
 C297 C -0.17597 -0.00952 0.52698
 C298 C -0.14840 -0.01021 0.55852
 C299 C -0.10863 -0.00714 0.55296
 C300 C -0.09554 -0.00335 0.51563
 C301 C -0.12323 -0.00385 0.48407
 C302 C -0.16304 -0.00716 0.48964
 H303 H -0.36235 0.03682 0.47416
 H304 H -0.29507 0.03576 0.46344
 H305 H -0.28842 -0.04118 0.56889
 H306 H -0.35519 -0.04103 0.57964
 H307 H -0.23538 0.01120 0.47924
 H308 H -0.22565 -0.02068 0.56386
 H309 H -0.15756 -0.01247 0.58761
 H310 H -0.08804 -0.00693 0.57788
 H311 H -0.11412 -0.00148 0.45496
 H312 H -0.18334 -0.00808 0.46456
 C313 C 0.37743 0.00900 0.49868
 C314 C 0.34072 0.01488 0.50630
 C315 C 0.32042 0.03779 0.47968
 C316 C 0.33850 0.05615 0.44576
 C317 C 0.37526 0.05010 0.43805
 C318 C 0.39486 0.02609 0.46425
 C319 C 0.28037 0.04074 0.48834
 C320 C 0.25355 0.05119 0.46165
 C321 C 0.21192 0.04863 0.46957
 C322 C 0.18377 0.04684 0.43844
 C323 C 0.14387 0.04174 0.44455
 C324 C 0.13123 0.03830 0.48203
 C325 C 0.15942 0.04153 0.51314
 C326 C 0.19938 0.04698 0.50700
 H327 H 0.39168 -0.00994 0.51926
 H328 H 0.32767 0.00057 0.53273
 H329 H 0.32464 0.07521 0.42508
 H330 H 0.38842 0.06421 0.41163
 H331 H 0.27189 0.03042 0.51739
 H332 H 0.26105 0.05856 0.43196
 H333 H 0.19256 0.04843 0.40930
 H334 H 0.12287 0.03958 0.41994
 H335 H 0.15060 0.03968 0.54229
 H336 H 0.22008 0.04984 0.53173
 C337 C 0.02371 0.57409 1.35362
 C338 C 0.02487 0.56823 1.31521
 C339 C 0.00416 0.53360 1.30107
 C340 C -0.01779 0.50455 1.32667
 C341 C -0.01880 0.51025 1.36542
 C342 C 0.00168 0.54537 1.37971
 C343 C 0.00596 0.53029 1.25939
 C344 C -0.01059 0.49871 1.24133
 C345 C -0.00892 0.49820 1.19914
 C346 C -0.01324 0.46220 1.18416
 C347 C -0.01225 0.46080 1.14449
 C348 C -0.00709 0.49546 1.11895
 C349 C -0.00325 0.53139 1.13392
 C350 C -0.00446 0.53277 1.17338
 H351 H 0.04164 0.60085 1.36289
 H352 H 0.04232 0.59110 1.29640
 H353 H -0.03479 0.47759 1.31713
 H354 H -0.03725 0.48755 1.38342
 H355 H 0.02257 0.55565 1.24283
 H356 H -0.02498 0.47200 1.25754
 H357 H -0.01721 0.43508 1.20324
 H358 H -0.01557 0.43261 1.13385
 H359 H 0.00009 0.55861 1.11504
 H360 H -0.00276 0.56100 1.18328
 C361 C -0.04635 0.43996 0.64904
 C362 C -0.05059 0.44247 0.68785
 C363 C -0.03190 0.47604 0.70520
 C364 C -0.01052 0.50808 0.68209
 C365 C -0.00629 0.50553 0.64319
 C366 C -0.02341 0.47110 0.62646
 C367 C -0.03513 0.47579 0.74730
 C368 C -0.01106 0.50062 0.76926
 C369 C -0.01295 0.49834 0.81166
 C370 C 0.00132 0.53245 0.82970
 C371 C 0.00159 0.53145 0.86968
 C372 C -0.01189 0.49609 0.89274
 C373 C -0.02593 0.46180 0.87477
 C374 C -0.02650 0.46287 0.83466
 H375 H -0.06058 0.41331 0.63682
 H376 H -0.06774 0.41758 0.70465
 H377 H 0.00328 0.53509 0.69369
 H378 H 0.01155 0.53004 0.62655
 H379 H -0.05758 0.45311 0.76084
 H380 H 0.01118 0.52378 0.75620
 H381 H 0.01230 0.56005 0.81276
 H382 H 0.01280 0.55839 0.88256
 H383 H -0.03631 0.43406 0.89172
 H384 H -0.03657 0.43570 0.82199
   
