data_POSCAR
  _audit_creation_date              2014-09-24
  _audit_creation_method            'ToBaCCo'
  _symmetry_space_group_name_H-M    'P1'
  _symmetry_Int_Tables_number       1
  _symmetry_cell_setting            triclinic
  loop_
  _symmetry_equiv_pos_as_xyz
 x,y,z
_cell_length_a 37.9540
_cell_length_b 37.9943
_cell_length_c 21.3767
_cell_angle_alpha 89.852300
_cell_angle_beta 90.073900
_cell_angle_gamma 120.022800
loop_
  _atom_site_label
  _atom_site_type_symbol
  _atom_site_fract_x
  _atom_site_fract_y
  _atom_site_fract_z
O1 O 0.45096 0.96070 0.55880
 O2 O 0.49102 1.04074 0.43824
 O3 O 0.45175 0.96161 0.43693
 O4 O 0.49091 1.03981 0.56012
 O5 O 0.54952 1.04064 0.55882
 O6 O 0.50957 0.96083 0.43844
 O7 O 0.54879 1.03993 0.43688
 O8 O 0.50957 0.96152 0.56029
 Cu9 Cu 0.46532 1.00072 0.49850
 Cu10 Cu 0.53521 1.00074 0.49862
 C11 C 0.47351 0.94768 0.58035
 C12 C 0.52661 1.05380 0.41664
 C13 C 0.47398 0.94782 0.41692
 C14 C 0.52694 1.05359 0.58029
 O15 O 0.03998 0.49074 0.56234
 O16 O -0.04006 0.45071 0.44193
 O17 O 0.03912 0.49069 0.44047
 O18 O -0.03922 0.45151 0.56386
 O19 O -0.04012 0.50917 0.56209
 O20 O 0.03993 0.54923 0.44169
 O21 O -0.03925 0.50926 0.44023
 O22 O 0.03908 0.54840 0.56362
 Cu23 Cu -0.00005 0.46508 0.50219
 Cu24 Cu -0.00009 0.53485 0.50190
 C25 C 0.05300 0.52627 0.58387
 C26 C -0.05306 0.47325 0.42024
 C27 C 0.05292 0.52670 0.42024
 C28 C -0.05314 0.47364 0.58387
 O29 O 0.54951 0.50887 0.44063
 O30 O 0.50952 0.54870 0.56103
 O31 O 0.54882 0.50887 0.56257
 O32 O 0.50957 0.54805 0.43917
 O33 O 0.45097 0.49026 0.44066
 O34 O 0.49106 0.45030 0.56123
 O35 O 0.45172 0.49012 0.56253
 O36 O 0.49091 0.45109 0.43934
 Cu37 Cu 0.53521 0.53446 0.50084
 Cu38 Cu 0.46532 0.46460 0.50096
 C39 C 0.52694 0.47333 0.41917
 C40 C 0.47394 0.52613 0.58254
 C41 C 0.52665 0.47283 0.58282
 C42 C 0.47352 0.52584 0.41910
 O43 O 0.39284 0.66793 -0.07123
 O44 O 0.39443 0.73657 -0.05418
 C45 C 0.36912 0.74279 -0.08420
 O46 O 0.33146 0.72485 -0.07175
 O47 O 0.26276 0.65780 -0.05404
 C48 C 0.25647 0.62624 -0.08372
 O49 O 0.27439 0.60654 -0.07107
 O50 O 0.34156 0.60504 -0.05355
 C51 C 0.37311 0.63030 -0.08351
 O52 O 0.39445 0.65787 0.05358
 O53 O 0.39290 0.72494 0.07064
 C54 C 0.37322 0.74290 0.08291
 O55 O 0.34167 0.73664 0.05296
 O56 O 0.27453 0.66802 0.07071
 C57 C 0.25661 0.63042 0.08344
 O58 O 0.26280 0.60511 0.05369
 O59 O 0.33149 0.60668 0.07120
 C60 C 0.36915 0.62637 0.08361
 Cr61 Cr 0.39128 0.69565 -0.00030
 Cr62 Cr 0.30379 0.69564 -0.00052
 Cr63 Cr 0.30374 0.60821 0.00005
 O64 O 0.33294 0.66650 -0.00026
 O65 O 0.60694 0.33204 -0.07138
 O66 O 0.60539 0.26341 -0.05400
 C67 C 0.63071 0.25716 -0.08373
 O68 O 0.66834 0.27499 -0.07109
 O69 O 0.73704 0.34206 -0.05386
 C70 C 0.74338 0.37365 -0.08375
 O71 O 0.72551 0.39338 -0.07133
 O72 O 0.65835 0.39490 -0.05432
 C73 C 0.62673 0.36964 -0.08405
 O74 O 0.60538 0.34196 0.05339
 O75 O 0.60687 0.27485 0.07079
 C76 C 0.62662 0.25700 0.08346
 O77 O 0.65824 0.26333 0.05373
 O78 O 0.72538 0.33195 0.07097
 C79 C 0.74324 0.36954 0.08346
 O80 O 0.73700 0.39483 0.05350
 O81 O 0.66832 0.39328 0.07054
 C82 C 0.63069 0.37351 0.08314
 Cr83 Cr 0.60853 0.30425 -0.00030
 Cr84 Cr 0.69606 0.30427 -0.00007
 Cr85 Cr 0.69610 0.39172 -0.00040
 O86 O 0.66690 0.33342 -0.00026
 C87 C 0.42867 0.85915 -0.27903
 N88 N 0.40426 0.87145 -0.30616
 N89 N 0.41854 0.89958 -0.35109
 C90 C 0.45771 0.91636 -0.37064
 N91 N 0.48209 0.90398 -0.34366
 N92 N 0.46784 0.87592 -0.29861
 C93 C 0.41307 0.82855 -0.22890
 N94 N 0.43822 0.81842 -0.19862
 N95 N 0.42418 0.79104 -0.15261
 C96 C 0.38447 0.77270 -0.13530
 N97 N 0.35929 0.78274 -0.16573
 N98 N 0.37335 0.81021 -0.21163
 C99 C 0.13997 0.56922 -0.27815
 N100 N 0.12422 0.59218 -0.29942
 N101 N 0.09616 0.57835 -0.34442
 C102 C 0.08268 0.54098 -0.36967
 N103 N 0.09848 0.51805 -0.34836
 N104 N 0.12664 0.53194 -0.30352
 C105 C 0.17059 0.58426 -0.22811
 N106 N 0.18839 0.56256 -0.20988
 N107 N 0.21590 0.57602 -0.16409
 C108 C 0.22650 0.61160 -0.13469
 N109 N 0.20869 0.63330 -0.15294
 N110 N 0.18128 0.61991 -0.19887
 C111 C 0.43015 0.57082 -0.27735
 N112 N 0.46688 0.59522 -0.30440
 N113 N 0.48077 0.58099 -0.34914
 C114 C 0.45840 0.54186 -0.36859
 N115 N 0.42161 0.51747 -0.34169
 N116 N 0.40777 0.53168 -0.29682
 C117 C 0.41509 0.58638 -0.22746
 N118 N 0.37978 0.56126 -0.19727
 N119 N 0.36638 0.57528 -0.15150
 C120 C 0.38774 0.61496 -0.13435
 N121 N 0.42299 0.64012 -0.16469
 N122 N 0.43645 0.62607 -0.21034
 C123 C 0.57152 0.14153 -0.27882
 N124 N 0.53240 0.12488 -0.29862
 N125 N 0.51824 0.09702 -0.34379
 C126 C 0.54267 0.08474 -0.37066
 N127 N 0.58179 0.10140 -0.35088
 N128 N 0.59597 0.12933 -0.30584
 C129 C 0.58701 0.17190 -0.22856
 N130 N 0.62668 0.19011 -0.21103
 N131 N 0.64065 0.21740 -0.16506
 C132 C 0.61543 0.22737 -0.13481
 N133 N 0.57577 0.20916 -0.15237
 N134 N 0.56182 0.18196 -0.19845
 C135 C 0.85989 0.43066 -0.27816
 N136 N 0.87563 0.40771 -0.29917
 N137 N 0.90369 0.42154 -0.34416
 C138 C 0.91718 0.45892 -0.36968
 N139 N 0.90138 0.48184 -0.34862
 N140 N 0.87323 0.46795 -0.30379
 C141 C 0.82927 0.41562 -0.22812
 N142 N 0.81149 0.43733 -0.21014
 N143 N 0.78398 0.42387 -0.16436
 C144 C 0.77335 0.38828 -0.13472
 N145 N 0.79114 0.36656 -0.15272
 N146 N 0.81855 0.37995 -0.19865
 C147 C 0.56968 0.42895 -0.27894
 N148 N 0.59267 0.46764 -0.30024
 N149 N 0.57882 0.48183 -0.34533
 C150 C 0.54139 0.45790 -0.37065
 N151 N 0.51843 0.41919 -0.34930
 N152 N 0.53235 0.40497 -0.30437
 C153 C 0.58475 0.41343 -0.22878
 N154 N 0.56299 0.37394 -0.21050
 N155 N 0.57646 0.35993 -0.16460
 C156 C 0.61210 0.38494 -0.13515
 N157 N 0.63385 0.42443 -0.15344
 N158 N 0.62045 0.43840 -0.19949
 C159 C 0.85891 0.42868 0.27905
 N160 N 0.87557 0.46776 0.29869
 N161 N 0.90344 0.48191 0.34396
 C162 C 0.91575 0.45753 0.37111
 N163 N 0.89908 0.41845 0.35150
 N164 N 0.87113 0.40426 0.30636
 C165 C 0.82853 0.41320 0.22867
 N166 N 0.81031 0.37357 0.21128
 N167 N 0.78302 0.35961 0.16519
 C168 C 0.77305 0.38480 0.13466
 N169 N 0.79127 0.42442 0.15207
 N170 N 0.81847 0.43836 0.19828
 C171 C 0.56959 0.14067 0.27836
 N172 N 0.59260 0.12499 0.29967
 N173 N 0.57877 0.09697 0.34477
 C174 C 0.54133 0.08346 0.37010
 N175 N 0.51836 0.09921 0.34875
 N176 N 0.53226 0.12733 0.30381
 C177 C 0.58464 0.17125 0.22819
 N178 N 0.56288 0.18899 0.20991
 N179 N 0.57635 0.21645 0.16401
 C180 C 0.61198 0.22707 0.13454
 N181 N 0.63373 0.20932 0.15284
 N182 N 0.62034 0.18196 0.19889
 C183 C 0.57150 0.42998 0.27822
 N184 N 0.59595 0.46661 0.30526
 N185 N 0.58178 0.48036 0.35031
 C186 C 0.54266 0.45792 0.37010
 N187 N 0.51823 0.42121 0.34322
 N188 N 0.53238 0.40752 0.29804
 C189 C 0.58698 0.41509 0.22796
 N190 N 0.56179 0.37986 0.19784
 N191 N 0.57573 0.36659 0.15176
 C192 C 0.61540 0.38803 0.13421
 N193 N 0.64063 0.42321 0.16446
 N194 N 0.62665 0.43653 0.21043
 C195 C 0.14095 0.57129 0.27905
 N196 N 0.12428 0.53221 0.29894
 N197 N 0.09641 0.51805 0.34421
 C198 C 0.08412 0.54243 0.37111
 N199 N 0.10080 0.58152 0.35125
 N200 N 0.12875 0.59571 0.30611
 C201 C 0.17133 0.58678 0.22866
 N202 N 0.18958 0.62641 0.21103
 N203 N 0.21687 0.64037 0.16493
 C204 C 0.22681 0.61517 0.13464
 N205 N 0.20856 0.57554 0.15230
 N206 N 0.18136 0.56161 0.19851
 C207 C 0.43025 0.85938 0.27677
 N208 N 0.46697 0.87169 0.30384
 N209 N 0.48085 0.89981 0.34859
 C210 C 0.45846 0.91656 0.36804
 N211 N 0.42168 0.90417 0.34112
 N212 N 0.40785 0.87613 0.29623
 C213 C 0.41521 0.82877 0.22687
 N214 N 0.37990 0.81861 0.19666
 N215 N 0.36650 0.79120 0.15088
 C216 C 0.38786 0.77286 0.13374
 N217 N 0.42310 0.78293 0.16409
 N218 N 0.43656 0.81043 0.20975
 C219 C 0.42869 0.56952 0.27844
 N220 N 0.46786 0.59191 0.29803
 N221 N 0.48210 0.57810 0.34310
 C222 C 0.45772 0.54135 0.37008
 N223 N 0.41855 0.51897 0.35051
 N224 N 0.40428 0.53283 0.30557
 C225 C 0.41310 0.58453 0.22830
 N226 N 0.37338 0.56317 0.21103
 N227 N 0.35932 0.57658 0.16513
 C228 C 0.38450 0.61179 0.13470
 N229 N 0.42422 0.63315 0.15199
 N230 N 0.43825 0.61979 0.19801
   
