data_POSCAR
  _audit_creation_date              2014-09-24
  _audit_creation_method            'ToBaCCo'
  _symmetry_space_group_name_H-M    'P1'
  _symmetry_Int_Tables_number       1
  _symmetry_cell_setting            triclinic
  loop_
  _symmetry_equiv_pos_as_xyz
 x,y,z
_cell_length_a 46.7628
_cell_length_b 48.6956
_cell_length_c 28.7879
_cell_angle_alpha 89.995400
_cell_angle_beta 89.934500
_cell_angle_gamma 118.598700
loop_
  _atom_site_label
  _atom_site_type_symbol
  _atom_site_fract_x
  _atom_site_fract_y
  _atom_site_fract_z
C1 C 0.48803 0.93298 0.54037
 C2 C 0.48047 0.91795 0.49697
 C3 C 0.48842 0.93469 0.45538
 C4 C 0.50514 0.96770 0.45622
 C5 C 0.51363 0.98367 0.49935
 C6 C 0.50574 0.96633 0.54153
 C7 C 0.51863 0.98271 0.58315
 C8 C 0.53608 1.01514 0.58400
 C9 C 0.54155 1.03299 0.54330
 C10 C 0.53135 1.01704 0.50019
 C11 C 0.51511 0.98505 0.41491
 C12 C 0.53261 1.01746 0.41572
 C13 C 0.54009 1.03420 0.45783
 C14 C 0.55862 1.06744 0.45878
 C15 C 0.56903 1.08249 0.50186
 C16 C 0.55980 1.06621 0.54418
 H17 H 0.51668 0.97066 0.61549
 H18 H 0.54640 1.02596 0.61696
 H19 H 0.51037 0.97366 0.38137
 H20 H 0.54123 1.02906 0.38269
 H21 H 0.46663 0.89264 0.49520
 H22 H 0.58193 1.10786 0.50261
 C23 C -0.07028 0.47681 0.45738
 C24 C -0.08661 0.46562 0.49947
 C25 C -0.07059 0.47503 0.54244
 C26 C -0.03628 0.49548 0.54274
 C27 C -0.01937 0.50686 0.49999
 C28 C -0.03651 0.49779 0.45728
 C29 C -0.01952 0.51015 0.41556
 C30 C 0.01389 0.53010 0.41550
 C31 C 0.03169 0.53841 0.45715
 C32 C 0.01490 0.52706 0.49983
 C33 C -0.01800 0.50330 0.58411
 C34 C 0.01538 0.52350 0.58399
 C35 C 0.03237 0.53560 0.54227
 C36 C 0.06642 0.55595 0.54179
 C37 C 0.08253 0.56713 0.49944
 C38 C 0.06584 0.55811 0.45722
 H39 H -0.03190 0.50460 0.38241
 H40 H 0.02562 0.53907 0.38237
 H41 H -0.02901 0.49345 0.61722
 H42 H 0.02773 0.52926 0.61714
 H43 H -0.11273 0.45025 0.49851
 H44 H 0.10873 0.58208 0.49926
 C45 C 0.45734 0.52659 0.54255
 C46 C 0.45403 0.53855 0.49968
 C47 C 0.45883 0.52712 0.45755
 C48 C 0.46936 0.50433 0.45752
 C49 C 0.47458 0.49296 0.50030
 C50 C 0.46824 0.50378 0.54295
 C51 C 0.47472 0.49272 0.58466
 C52 C 0.48553 0.47066 0.58465
 C53 C 0.49292 0.46026 0.54301
 C54 C 0.48662 0.47102 0.50034
 C55 C 0.47542 0.49312 0.41573
 C56 C 0.48624 0.47107 0.41579
 C57 C 0.49247 0.46004 0.45763
 C58 C 0.50407 0.43804 0.45773
 C59 C 0.50899 0.42674 0.49992
 C60 C 0.50500 0.43833 0.54277
 H61 H 0.47203 0.50123 0.61813
 H62 H 0.48780 0.46180 0.61806
 H63 H 0.47205 0.50139 0.38238
 H64 H 0.48967 0.46277 0.38248
 H65 H 0.44525 0.55552 0.49874
 H66 H 0.51895 0.41068 0.49905
 O67 O 0.38374 0.66297 -0.04019
 O68 O 0.38570 0.71641 -0.05539
 C69 C 0.37184 0.73259 -0.06479
 O70 O 0.34805 0.73098 -0.04122
 O71 O 0.29258 0.68058 -0.05387
 C72 C 0.27635 0.65158 -0.06246
 O73 O 0.27929 0.63098 -0.03884
 O74 O 0.33223 0.62715 -0.05319
 C75 C 0.36230 0.63988 -0.06285
 O76 O 0.38363 0.67304 0.05217
 O77 O 0.38862 0.72782 0.03688
 C78 C 0.36952 0.73436 0.06013
 O79 O 0.33935 0.72231 0.05155
 O80 O 0.28262 0.67350 0.03898
 C81 C 0.27680 0.64920 0.06241
 O82 O 0.28998 0.63234 0.05348
 O83 O 0.34147 0.62588 0.03929
 C84 C 0.36683 0.64428 0.06198
 Cr85 Cr 0.38364 0.69434 -0.00159
 Cr86 Cr 0.31644 0.70085 -0.00113
 Cr87 Cr 0.31173 0.63081 0.00017
 O88 O 0.33726 0.67533 -0.00080
 O89 O 0.60790 0.32467 -0.04084
 O90 O 0.61749 0.27676 -0.05342
 C91 C 0.63630 0.26541 -0.06189
 O92 O 0.66190 0.27245 -0.03839
 O93 O 0.71029 0.32790 -0.05353
 C94 C 0.72166 0.35668 -0.06279
 O95 O 0.71429 0.37461 -0.03941
 O96 O 0.65587 0.36679 -0.05426
 C97 C 0.62608 0.34933 -0.06379
 O98 O 0.61028 0.31728 0.05216
 O99 O 0.61739 0.26795 0.03938
 C100 C 0.63985 0.26698 0.06313
 O101 O 0.66983 0.28377 0.05388
 O102 O 0.72042 0.33805 0.03874
 C103 C 0.72096 0.36046 0.06212
 O104 O 0.70260 0.37219 0.05303
 O105 O 0.64551 0.36723 0.03785
 C106 C 0.62217 0.34616 0.06110
 Cr107 Cr 0.61502 0.29769 -0.00067
 Cr108 Cr 0.68952 0.30621 0.00017
 Cr109 Cr 0.67890 0.36850 -0.00070
 O110 O 0.66110 0.32412 -0.00048
 C111 C 0.45325 0.87470 -0.34018
 C112 C 0.44974 0.90171 -0.34379
 C113 C 0.46140 0.92111 -0.38283
 C114 C 0.47702 0.91406 -0.41923
 C115 C 0.47973 0.88653 -0.41584
 C116 C 0.46833 0.86735 -0.37672
 C117 C 0.44124 0.85414 -0.29878
 N118 N 0.44859 0.83057 -0.29277
 N119 N 0.43787 0.81197 -0.25576
 C120 C 0.41924 0.81605 -0.22315
 N121 N 0.41183 0.83962 -0.22912
 N122 N 0.42265 0.85831 -0.26613
 C123 C 0.40727 0.79510 -0.18216
 C124 C 0.38421 0.79605 -0.15172
 C125 C 0.37268 0.77582 -0.11354
 C126 C 0.38415 0.75438 -0.10479
 C127 C 0.40737 0.75364 -0.13508
 C128 C 0.41870 0.77366 -0.17332
 H129 H 0.43791 0.90789 -0.31648
 H130 H 0.45738 0.94121 -0.38507
 H131 H 0.49161 0.88023 -0.44295
 H132 H 0.47130 0.84663 -0.37527
 H133 H 0.37485 0.81224 -0.15757
 H134 H 0.35480 0.77701 -0.09088
 H135 H 0.41667 0.73736 -0.12951
 H136 H 0.43651 0.77232 -0.19593
 C137 C 0.12626 0.58383 -0.33571
 C138 C 0.12181 0.60590 -0.36188
 C139 C 0.10212 0.59674 -0.40144
 C140 C 0.08634 0.56534 -0.41539
 C141 C 0.09081 0.54325 -0.38964
 C142 C 0.11047 0.55236 -0.35004
 C143 C 0.14758 0.59365 -0.29414
 N144 N 0.15183 0.57242 -0.26860
 N145 N 0.17132 0.58133 -0.23163
 C146 C 0.18740 0.61184 -0.21861
 N147 N 0.18307 0.63305 -0.24408
 N148 N 0.16358 0.62415 -0.28102
 C149 C 0.20954 0.62188 -0.17793
 C150 C 0.22696 0.65364 -0.16558
 C151 C 0.24839 0.66322 -0.12791
 C152 C 0.25290 0.64127 -0.10158
 C153 C 0.23525 0.60946 -0.11365
 C154 C 0.21384 0.59989 -0.15137
 H155 H 0.13365 0.63033 -0.35199
 H156 H 0.09915 0.61412 -0.42125
 H157 H 0.07916 0.51898 -0.40039
 H158 H 0.11345 0.53476 -0.33088
 H159 H 0.22427 0.67123 -0.18521
 H160 H 0.26158 0.68790 -0.11963
 H161 H 0.23815 0.59193 -0.09418
 H162 H 0.20080 0.57523 -0.15984
 C163 C 0.42977 0.55916 -0.33753
 C164 C 0.41770 0.52695 -0.34476
 C165 C 0.42699 0.51615 -0.38394
 C166 C 0.44867 0.53730 -0.41686
 C167 C 0.45984 0.56950 -0.41017
 C168 C 0.45090 0.58029 -0.37072
 C169 C 0.42019 0.57071 -0.29588
 N170 N 0.43696 0.60131 -0.28347
 N171 N 0.42830 0.61181 -0.24620
 C172 C 0.40240 0.59218 -0.21987
 N173 N 0.38561 0.56157 -0.23228
 N174 N 0.39438 0.55104 -0.26943
 C175 C 0.39245 0.60402 -0.17892
 C176 C 0.36161 0.58613 -0.15862
 C177 C 0.35187 0.59771 -0.12084
 C178 C 0.37291 0.62727 -0.10212
 C179 C 0.40394 0.64496 -0.12196
 C180 C 0.41352 0.63354 -0.16010
 H181 H 0.40107 0.51003 -0.32011
 H182 H 0.41652 0.49115 -0.38910
 H183 H 0.47631 0.58649 -0.43492
 H184 H 0.46037 0.60524 -0.36646
 H185 H 0.34476 0.56334 -0.17236
 H186 H 0.32783 0.58348 -0.10627
 H187 H 0.42065 0.66788 -0.10848
 H188 H 0.43749 0.64787 -0.17482
 C189 C 0.58281 0.12181 -0.33370
 C190 C 0.55152 0.09636 -0.33991
 C191 C 0.54409 0.07766 -0.37960
 C192 C 0.56775 0.08395 -0.41426
 C193 C 0.59893 0.10985 -0.40817
 C194 C 0.60646 0.12824 -0.36817
 C195 C 0.59058 0.14197 -0.29205
 N196 N 0.62200 0.16175 -0.28037
 N197 N 0.62901 0.18029 -0.24338
 C198 C 0.60489 0.17998 -0.21667
 N199 N 0.57347 0.16019 -0.22832
 N200 N 0.56647 0.14151 -0.26515
 C201 C 0.61270 0.20119 -0.17626
 C202 C 0.58879 0.20726 -0.15653
 C203 C 0.59643 0.22806 -0.11935
 C204 C 0.62802 0.24289 -0.10062
 C205 C 0.65181 0.23645 -0.11987
 C206 C 0.64429 0.21599 -0.15748
 H207 H 0.53266 0.09094 -0.31415
 H208 H 0.51941 0.05887 -0.38391
 H209 H 0.61783 0.11551 -0.43397
 H210 H 0.63075 0.14781 -0.36460
 H211 H 0.56426 0.19633 -0.17029
 H212 H 0.57754 0.23247 -0.10520
 H213 H 0.67642 0.24764 -0.10637
 H214 H 0.66324 0.21173 -0.17179
 C215 C 0.86978 0.44150 -0.33718
 C216 C 0.86693 0.42114 -0.37357
 C217 C 0.88661 0.43224 -0.41296
 C218 C 0.91029 0.46395 -0.41674
 C219 C 0.91273 0.48442 -0.38051
 C220 C 0.89279 0.47332 -0.34119
 C221 C 0.84859 0.42945 -0.29562
 N222 N 0.84751 0.44923 -0.26322
 N223 N 0.82813 0.43818 -0.22620
 C224 C 0.80913 0.40689 -0.21995
 N225 N 0.81034 0.38716 -0.25227
 N226 N 0.82960 0.39820 -0.28930
 C227 C 0.78732 0.39437 -0.17908
 C228 C 0.77103 0.36205 -0.17011
 C229 C 0.75004 0.34997 -0.13216
 C230 C 0.74463 0.36986 -0.10230
 C231 C 0.76098 0.40222 -0.11110
 C232 C 0.78220 0.41435 -0.14899
 H233 H 0.84933 0.39652 -0.37185
 H234 H 0.88387 0.41572 -0.44007
 H235 H 0.92946 0.50925 -0.38314
 H236 H 0.89535 0.48972 -0.31402
 H237 H 0.77445 0.34596 -0.19244
 H238 H 0.73779 0.32492 -0.12654
 H239 H 0.75738 0.41819 -0.08876
 H240 H 0.79431 0.43936 -0.15494
 C241 C 0.53840 0.41109 -0.33755
 C242 C 0.54761 0.44271 -0.34556
 C243 C 0.53635 0.45164 -0.38460
 C244 C 0.51537 0.42919 -0.41665
 C245 C 0.50698 0.39761 -0.40920
 C246 C 0.51797 0.38864 -0.36983
 C247 C 0.55054 0.40175 -0.29616
 N248 N 0.53750 0.37122 -0.28346
 N249 N 0.54864 0.36292 -0.24639
 C250 C 0.57337 0.38479 -0.22059
 N251 N 0.58636 0.41529 -0.23331
 N252 N 0.57514 0.42360 -0.27021
 C253 C 0.58633 0.37567 -0.17989
 C254 C 0.61607 0.39722 -0.15981
 C255 C 0.62882 0.38863 -0.12211
 C256 C 0.61199 0.35838 -0.10318
 C257 C 0.58202 0.33689 -0.12281
 C258 C 0.56941 0.34540 -0.16096
 H259 H 0.56366 0.46067 -0.32172
 H260 H 0.54485 0.47634 -0.39039
 H261 H 0.49116 0.37966 -0.43327
 H262 H 0.51068 0.36412 -0.36495
 H263 H 0.62979 0.42069 -0.17356
 H264 H 0.65192 0.40579 -0.10773
 H265 H 0.56852 0.31337 -0.10913
 H266 H 0.54639 0.32827 -0.17553
 C267 C 0.87091 0.44483 0.33423
 C268 C 0.86734 0.46521 0.36547
 C269 C 0.88673 0.47580 0.40518
 C270 C 0.91023 0.46645 0.41424
 C271 C 0.91406 0.44625 0.38321
 C272 C 0.89459 0.43554 0.34349
 C273 C 0.84965 0.43300 0.29276
 N274 N 0.85110 0.41147 0.26424
 N275 N 0.83153 0.40049 0.22751
 C276 C 0.80969 0.41059 0.21770
 N277 N 0.80835 0.43221 0.24613
 N278 N 0.82788 0.44315 0.28286
 C279 C 0.78748 0.39809 0.17729
 C280 C 0.76590 0.40965 0.16647
 C281 C 0.74454 0.39759 0.12895
 C282 C 0.74416 0.37361 0.10132
 C283 C 0.76584 0.36213 0.11196
 C284 C 0.78729 0.37426 0.14948
 H285 H 0.84933 0.47279 0.35956
 H286 H 0.88337 0.49124 0.42900
 H287 H 0.93194 0.43861 0.39002
 H288 H 0.89799 0.41987 0.32022
 H289 H 0.76539 0.42800 0.18707
 H290 H 0.72817 0.40697 0.12182
 H291 H 0.76619 0.34366 0.09142
 H292 H 0.80355 0.36479 0.15683
 C293 C 0.58141 0.12593 0.33965
 C294 C 0.54976 0.10107 0.34617
 C295 C 0.54222 0.08167 0.38515
 C296 C 0.56621 0.08643 0.41848
 C297 C 0.59764 0.11193 0.41239
 C298 C 0.60520 0.13117 0.37334
 C299 C 0.58968 0.14640 0.29816
 N300 N 0.62093 0.16852 0.28997
 N301 N 0.62853 0.18696 0.25279
 C302 C 0.60521 0.18414 0.22216
 N303 N 0.57392 0.16202 0.23032
 N304 N 0.56632 0.14352 0.26751
 C305 C 0.61386 0.20489 0.18095
 C306 C 0.58958 0.20437 0.15160
 C307 C 0.59794 0.22439 0.11321
 C308 C 0.63077 0.24524 0.10318
 C309 C 0.65500 0.24554 0.13236
 C310 C 0.64666 0.22568 0.17077
 H311 H 0.53071 0.09661 0.32123
 H312 H 0.51732 0.06336 0.38976
 H313 H 0.61678 0.11651 0.43726
 H314 H 0.62978 0.15022 0.36966
 H315 H 0.56408 0.18868 0.15845
 H316 H 0.57866 0.22356 0.09147
 H317 H 0.68053 0.26135 0.12579
 H318 H 0.66601 0.22668 0.19251
 C319 C 0.53590 0.41016 0.33469
 C320 C 0.50998 0.38785 0.36151
 C321 C 0.49935 0.39691 0.40123
 C322 C 0.51426 0.42841 0.41464
 C323 C 0.54023 0.45069 0.38821
 C324 C 0.55084 0.44171 0.34851
 C325 C 0.54770 0.40066 0.29301
 N326 N 0.57257 0.42231 0.26709
 N327 N 0.58357 0.41382 0.23006
 C328 C 0.57018 0.38331 0.21733
 N329 N 0.54523 0.36165 0.24316
 N330 N 0.53421 0.37014 0.28020
 C331 C 0.58289 0.37385 0.17659
 C332 C 0.56966 0.34217 0.16421
 C333 C 0.58219 0.33322 0.12651
 C334 C 0.60823 0.35574 0.10020
 C335 C 0.62124 0.38745 0.11229
 C336 C 0.60873 0.39639 0.15002
 H337 H 0.49799 0.36336 0.35199
 H338 H 0.47951 0.37936 0.42158
 H339 H 0.55241 0.47504 0.39855
 H340 H 0.57096 0.45950 0.32892
 H341 H 0.54975 0.32417 0.18385
 H342 H 0.57157 0.30859 0.11820
 H343 H 0.64132 0.40541 0.09285
 H344 H 0.61951 0.42100 0.15849
 C345 C 0.12495 0.58606 0.33382
 C346 C 0.10697 0.55430 0.34620
 C347 C 0.08737 0.54530 0.38586
 C348 C 0.08531 0.56781 0.41391
 C349 C 0.10314 0.59951 0.40184
 C350 C 0.12264 0.60857 0.36193
 C351 C 0.14650 0.59552 0.29246
 N352 N 0.16102 0.62549 0.27672
 N353 N 0.18083 0.63394 0.24001
 C354 C 0.18703 0.61279 0.21760
 N355 N 0.17245 0.58284 0.23331
 N356 N 0.15259 0.57438 0.26987
 C357 C 0.20960 0.62214 0.17739
 C358 C 0.22017 0.60159 0.15980
 C359 C 0.24189 0.61040 0.12251
 C360 C 0.25340 0.63990 0.10157
 C361 C 0.24262 0.66039 0.11881
 C362 C 0.22106 0.65166 0.15646
 H363 H 0.10814 0.53635 0.32540
 H364 H 0.07406 0.52075 0.39506
 H365 H 0.10201 0.61719 0.42341
 H366 H 0.13627 0.63321 0.35354
 H367 H 0.21192 0.57871 0.17512
 H368 H 0.24962 0.59401 0.11005
 H369 H 0.25111 0.68333 0.10355
 H370 H 0.21335 0.66803 0.16910
 C371 C 0.45656 0.87959 0.33080
 C372 C 0.48188 0.88008 0.35775
 C373 C 0.49244 0.89827 0.39798
 C374 C 0.47819 0.91659 0.41164
 C375 C 0.45318 0.91648 0.38473
 C376 C 0.44241 0.89811 0.34466
 C377 C 0.44450 0.85935 0.28915
 N378 N 0.41660 0.85453 0.26775
 N379 N 0.40530 0.83569 0.23106
 C380 C 0.42146 0.82093 0.21409
 N381 N 0.44947 0.82591 0.23531
 N382 N 0.46071 0.84466 0.27210
 C383 C 0.40850 0.79942 0.17390
 C384 C 0.42737 0.78766 0.15226
 C385 C 0.41488 0.76686 0.11498
 C386 C 0.38313 0.75714 0.09871
 C387 C 0.36432 0.76900 0.12023
 C388 C 0.37691 0.79000 0.15724
 H389 H 0.49322 0.86602 0.34822
 H390 H 0.51165 0.89798 0.41864
 H391 H 0.44178 0.93034 0.39511
 H392 H 0.42291 0.89833 0.32470
 H393 H 0.45183 0.79449 0.16412
 H394 H 0.42998 0.75810 0.09929
 H395 H 0.33979 0.76204 0.10850
 H396 H 0.36168 0.79853 0.17316
 C397 C 0.43411 0.56127 0.33447
 C398 C 0.46051 0.58153 0.36243
 C399 C 0.46880 0.57034 0.40209
 C400 C 0.45105 0.53868 0.41431
 C401 C 0.42471 0.51837 0.38663
 C402 C 0.41638 0.52951 0.34698
 C403 C 0.42476 0.57328 0.29305
 N404 N 0.39869 0.55399 0.26679
 N405 N 0.38997 0.56488 0.23005
 C406 C 0.40695 0.59555 0.21796
 N407 N 0.43308 0.61481 0.24413
 N408 N 0.44179 0.60392 0.28087
 C409 C 0.39696 0.60783 0.17750
 C410 C 0.41471 0.63957 0.16512
 C411 C 0.40504 0.65130 0.12751
 C412 C 0.37736 0.63160 0.10132
 C413 C 0.35970 0.59981 0.11352
 C414 C 0.36939 0.58806 0.15115
 H415 H 0.47463 0.60612 0.35396
 H416 H 0.48900 0.58638 0.42339
 H417 H 0.41046 0.49393 0.39601
 H418 H 0.39587 0.51327 0.32640
 H419 H 0.43606 0.65547 0.18459
 H420 H 0.41922 0.67592 0.11915
 H421 H 0.33825 0.58398 0.09413
 H422 H 0.35514 0.56349 0.15969
   
