data_POSCAR
  _audit_creation_date              2014-09-24
  _audit_creation_method            'ToBaCCo'
  _symmetry_space_group_name_H-M    'P1'
  _symmetry_Int_Tables_number       1
  _symmetry_cell_setting            triclinic
  loop_
  _symmetry_equiv_pos_as_xyz
 x,y,z
_cell_length_a 48.5917
_cell_length_b 48.4178
_cell_length_c 48.7996
_cell_angle_alpha 89.914000
_cell_angle_beta 89.913500
_cell_angle_gamma 90.058100
loop_
  _atom_site_label
  _atom_site_type_symbol
  _atom_site_fract_x
  _atom_site_fract_y
  _atom_site_fract_z
C1 C 0.17040 0.17210 0.20574
 C2 C 0.19420 0.16098 0.19327
 C3 C 0.20546 0.17233 0.16904
 C4 C 0.19234 0.19548 0.15739
 C5 C 0.16892 0.20711 0.16951
 C6 C 0.15818 0.19550 0.19358
 H7 H 0.20394 0.14319 0.20241
 H8 H 0.20060 0.20516 0.13914
 H9 H 0.13958 0.20431 0.20207
 C10 C -0.16708 0.83177 0.20685
 C11 C -0.15566 0.80848 0.19369
 C12 C -0.16867 0.79616 0.17112
 C13 C -0.19335 0.80732 0.16126
 C14 C -0.20482 0.83085 0.17345
 C15 C -0.19185 0.84270 0.19630
 H16 H -0.13729 0.79877 0.20168
 H17 H -0.20304 0.79836 0.14336
 H18 H -0.20073 0.86119 0.20502
 C19 C -0.17053 0.16709 -0.20818
 C20 C -0.16024 0.19215 -0.19767
 C21 C -0.17227 0.20475 -0.17477
 C22 C -0.19543 0.19266 -0.16250
 C23 C -0.20629 0.16747 -0.17216
 C24 C -0.19340 0.15492 -0.19494
 H25 H -0.14204 0.20156 -0.20647
 H26 H -0.20365 0.20215 -0.14417
 H27 H -0.20267 0.13674 -0.20387
 C28 C 0.17450 0.82985 -0.20631
 C29 C 0.16191 0.80650 -0.19482
 C30 C 0.17170 0.79516 -0.17026
 C31 C 0.19459 0.80718 -0.15739
 C32 C 0.20812 0.83031 -0.16883
 C33 C 0.19765 0.84139 -0.19349
 H34 H 0.14375 0.79782 -0.20440
 H35 H 0.20252 0.79737 -0.13909
 H36 H 0.20666 0.85978 -0.20239
 C37 C 0.17299 1.16980 0.79431
 C38 C 0.16051 1.19347 0.80534
 C39 C 0.17116 1.20605 0.82897
 C40 C 0.19458 1.19477 0.84153
 C41 C 0.20731 1.17114 0.83074
 C42 C 0.19644 1.15881 0.80709
 H43 H 0.14233 1.20196 0.79565
 H44 H 0.20279 1.20426 0.85988
 H45 H 0.20609 1.14048 0.79877
 C46 C 0.82853 0.83240 0.79164
 C47 C 0.83953 0.80796 0.80310
 C48 C 0.82923 0.79671 0.82783
 C49 C 0.80680 0.81005 0.84051
 C50 C 0.79498 0.83377 0.82909
 C51 C 0.80595 0.84484 0.80491
 H52 H 0.85795 0.79923 0.79422
 H53 H 0.79734 0.80133 0.85866
 H54 H 0.79624 0.86297 0.79627
 C55 C 0.17040 0.82755 1.20648
 C56 C 0.15822 0.80388 1.19470
 C57 C 0.16888 0.79199 1.17071
 C58 C 0.19225 0.80358 1.15838
 C59 C 0.20489 0.82696 1.16967
 C60 C 0.19393 0.83879 1.19355
 H61 H 0.13968 0.79506 1.20340
 H62 H 0.20050 0.79452 1.13981
 H63 H 0.20436 0.85649 1.20223
 C64 C 0.83121 1.17015 1.20894
 C65 C 0.84144 1.19478 1.19716
 C66 C 0.82879 1.20679 1.17420
 C67 C 0.80514 1.19453 1.16318
 C68 C 0.79461 1.17001 1.17433
 C69 C 0.80772 1.15795 1.19698
 H70 H 0.86003 1.20424 1.20495
 H71 H 0.79559 1.20344 1.14517
 H72 H 0.79852 1.13968 1.20594
 O73 O 0.46205 0.95128 0.95398
 O74 O 0.43174 0.97689 0.97951
 C75 C 0.43727 0.95820 0.96132
 O76 O 0.53875 0.95151 1.05229
 O77 O 0.56900 0.97740 1.02686
 C78 C 0.56352 0.95903 1.04545
 O79 O 0.46132 0.94923 1.04959
 O80 O 0.43146 0.97647 1.02527
 C81 C 0.43666 0.95681 1.04259
 O82 O 0.53954 0.95392 0.95208
 O83 O 0.56932 0.97774 0.97975
 C84 C 0.56418 0.96064 0.96000
 Zr85 Zr 0.50067 0.96637 0.96764
 O86 O 0.50375 0.92276 0.96722
 O87 O 0.49798 0.96702 0.92436
 Zr88 Zr 0.50012 0.96491 1.03697
 O89 O 0.50306 0.92130 1.03597
 O90 O 0.49683 0.96406 1.08023
 O91 O 0.47585 0.96019 1.00204
 O92 O 0.52425 0.96062 1.00237
 O93 O 0.53959 1.04958 0.95414
 O94 O 0.56946 1.02365 0.97987
 C95 C 0.56424 1.04193 0.96115
 O96 O 0.46124 1.04989 1.05130
 O97 O 0.43134 1.02414 1.02544
 C98 C 0.43658 1.04291 1.04364
 O99 O 0.53867 1.04768 1.05413
 O100 O 0.56895 1.02305 1.02765
 C101 C 0.56345 1.04058 1.04695
 O102 O 0.46212 1.05183 0.95585
 O103 O 0.43182 1.02489 0.98012
 C104 C 0.43733 1.04437 0.96268
 Zr105 Zr 0.50071 1.03631 0.96906
 O106 O 0.50373 1.07991 0.97046
 O107 O 0.49814 1.03757 0.92578
 Zr108 Zr 0.50009 1.03475 1.03834
 O109 O 0.50305 1.07836 1.03921
 O110 O 0.49675 1.03363 1.08159
 Zr111 Zr 0.45956 1.00053 1.00267
 Zr112 Zr 0.54121 1.00062 1.00326
 O113 O 0.52431 1.04060 1.00395
 O114 O 0.47586 1.04089 1.00362
 O115 O 0.52522 1.00146 0.96313
 O116 O 0.47619 0.99972 1.04247
 O117 O 0.47689 1.00142 0.96315
 O118 O 0.52459 0.99974 1.04318
 H119 H 0.53673 0.94445 1.00217
 H120 H 0.46360 0.99945 1.05845
 H121 H 0.53687 1.05673 1.00429
 H122 H 0.46456 1.00171 0.94700
 H123 H 0.51218 0.97517 1.08766
 H124 H 0.51227 1.02247 1.08859
 H125 H 0.48788 1.08577 1.02789
 H126 H 0.48769 1.08683 0.98091
 H127 H 0.51324 1.02603 0.91848
 H128 H 0.51304 0.97891 0.91749
 H129 H 0.48791 0.91534 0.97764
 H130 H 0.48765 0.91438 1.02468
 O131 O 0.04469 0.53917 -0.05275
 O132 O 0.02028 0.56919 -0.02579
 C133 C 0.03791 0.56393 -0.04503
 O134 O -0.05376 0.46182 -0.05120
 O135 O -0.02715 0.43138 -0.02687
 C136 C -0.04631 0.43693 -0.04449
 O137 O -0.05063 0.53954 -0.05337
 O138 O -0.02643 0.56937 -0.02601
 C139 C -0.04377 0.56424 -0.04552
 O140 O 0.04696 0.46138 -0.05042
 O141 O 0.02004 0.43109 -0.02607
 C142 C 0.03940 0.43653 -0.04358
 Zr143 Zr 0.03152 0.50025 -0.03749
 O144 O 0.03188 0.49740 -0.08078
 O145 O 0.07499 0.50326 -0.03708
 Zr146 Zr -0.03821 0.50052 -0.03785
 O147 O -0.03826 0.49772 -0.08113
 O148 O -0.08165 0.50391 -0.03758
 O149 O -0.00318 0.52504 -0.04294
 O150 O -0.00342 0.47652 -0.04287
 O151 O 0.04630 0.46073 0.04442
 O152 O 0.01933 0.43079 0.01989
 C153 C 0.03863 0.43599 0.03748
 O154 O -0.05161 0.53888 0.04688
 O155 O -0.02604 0.56910 0.02105
 C156 C -0.04411 0.56371 0.03990
 O157 O -0.05446 0.46118 0.04404
 O158 O -0.02755 0.43105 0.01965
 C159 C -0.04694 0.43638 0.03714
 O160 O 0.04421 0.53839 0.04731
 O161 O 0.01934 0.56893 0.02130
 C162 C 0.03712 0.56330 0.04030
 Zr163 Zr 0.03100 0.49970 0.03175
 O164 O 0.03048 0.49634 0.07501
 O165 O 0.07448 0.50257 0.03211
 Zr166 Zr -0.03859 0.50001 0.03145
 O167 O -0.03859 0.49666 0.07472
 O168 O -0.08203 0.50324 0.03140
 Zr169 Zr -0.00336 0.54110 -0.00281
 Zr170 Zr -0.00380 0.45910 -0.00333
 O171 O -0.00395 0.47588 0.03645
 O172 O -0.00370 0.52442 0.03712
 O173 O 0.03650 0.47530 -0.00299
 O174 O -0.04330 0.52424 -0.00308
 O175 O 0.03641 0.52391 -0.00269
 O176 O -0.04394 0.47561 -0.00338
 H177 H -0.00330 0.46417 -0.05904
 H178 H -0.05937 0.53682 -0.00306
 H179 H -0.00411 0.46333 0.05250
 H180 H 0.05263 0.53633 -0.00251
 H181 H -0.08900 0.48796 -0.02720
 H182 H -0.08924 0.48821 0.01973
 H183 H -0.02766 0.51227 0.08196
 H184 H 0.01955 0.51197 0.08217
 H185 H 0.08169 0.48738 0.02064
 H186 H 0.08206 0.48758 -0.02617
 H187 H 0.02070 0.51285 -0.08797
 H188 H -0.02628 0.51265 -0.08820
 O189 O 1.05112 -0.05128 0.46140
 O190 O 1.02688 -0.02408 0.43145
 C191 C 1.04427 -0.04365 0.43678
 O192 O 0.95327 -0.04815 0.53819
 O193 O 0.97955 -0.02315 0.56830
 C194 C 0.96041 -0.04101 0.56284
 O195 O 0.95571 -0.04995 0.46109
 O196 O 0.98148 -0.02391 0.43124
 C197 C 0.96330 -0.04281 0.43651
 O198 O 1.05356 -0.04877 0.53853
 O199 O 1.02739 -0.02340 0.56846
 C200 C 1.04635 -0.04146 0.56314
 Zr201 Zr 1.03844 -0.03544 0.49995
 O202 O 1.03829 -0.07905 0.50302
 O203 O 1.08191 -0.03543 0.49694
 Zr204 Zr 0.96892 -0.03495 0.49975
 O205 O 0.96895 -0.07859 0.50259
 O206 O 0.92546 -0.03479 0.49679
 O207 O 1.00373 -0.04049 0.47541
 O208 O 1.00354 -0.04028 0.52365
 O209 O 1.05431 0.04744 0.53868
 O210 O 1.02773 0.02226 0.56853
 C211 C 1.04696 0.04011 0.56327
 O212 O 0.95685 0.05085 0.46128
 O213 O 0.98113 0.02363 0.43141
 C214 C 0.96369 0.04315 0.43670
 O215 O 0.95403 0.04816 0.53839
 O216 O 0.97990 0.02258 0.56839
 C217 C 0.96100 0.04069 0.56302
 O218 O 1.05209 0.05035 0.46155
 O219 O 1.02778 0.02332 0.43156
 C220 C 1.04532 0.04275 0.43693
 Zr221 Zr 1.03905 0.03450 0.50003
 O222 O 1.03966 0.07809 0.50322
 O223 O 1.08252 0.03377 0.49706
 Zr224 Zr 0.96945 0.03501 0.49985
 O225 O 0.96978 0.07862 0.50300
 O226 O 0.92600 0.03514 0.49670
 Zr227 Zr 1.00414 -0.00008 0.45924
 Zr228 Zr 1.00377 -0.00033 0.54055
 O229 O 1.00419 0.03971 0.52374
 O230 O 1.00440 0.04025 0.47549
 O231 O 1.04404 -0.00058 0.52441
 O232 O 0.96424 0.00014 0.47606
 O233 O 1.04390 -0.00045 0.47625
 O234 O 0.96365 -0.00000 0.52418
 H235 H 1.00337 -0.05649 0.53608
 H236 H 0.94813 0.00027 0.46363
 H237 H 1.00426 0.05584 0.53621
 H238 H 1.06006 -0.00059 0.46384
 H239 H 0.91835 -0.02320 0.51189
 H240 H 0.91868 0.02411 0.51216
 H241 H 0.98108 0.08584 0.48772
 H242 H 1.02803 0.08551 0.48831
 H243 H 1.08951 0.02289 0.51274
 H244 H 1.08911 -0.02455 0.51250
 H245 H 1.02640 -0.08619 0.48820
 H246 H 0.97937 -0.08577 0.48671
 C247 C 1.13465 0.13463 0.27647
 C248 C 1.13250 0.16321 0.27222
 C249 C 1.14411 0.17555 0.24898
 C250 C 1.15874 0.15971 0.22950
 C251 C 1.16109 0.13101 0.23426
 C252 C 1.14905 0.11870 0.25723
 C253 C 1.12165 0.12133 0.30057
 N254 N 1.11642 0.09377 0.30059
 N255 N 1.10448 0.08172 0.32208
 C256 C 1.09742 0.09667 0.34453
 N257 N 1.10277 0.12422 0.34459
 N258 N 1.11455 0.13632 0.32300
 C259 C 1.08402 0.08313 0.36827
 C260 C 1.08416 0.09560 0.39427
 C261 C 1.07178 0.08244 0.41669
 C262 C 1.05862 0.05679 0.41342
 C263 C 1.05823 0.04454 0.38734
 C264 C 1.07098 0.05743 0.36509
 H265 H 1.12157 0.17607 0.28675
 H266 H 1.14237 0.19773 0.24701
 H267 H 1.17104 0.11753 0.21965
 H268 H 1.15100 0.09658 0.25987
 H269 H 1.09412 0.11536 0.39737
 H270 H 1.07230 0.09247 0.43650
 H271 H 1.04828 0.02480 0.38413
 H272 H 1.07038 0.04736 0.34530
 C273 C 0.87226 -0.13178 0.27598
 C274 C 0.84360 -0.13030 0.27293
 C275 C 0.83069 -0.14202 0.25017
 C276 C 0.84603 -0.15607 0.22990
 C277 C 0.87487 -0.15761 0.23333
 C278 C 0.88775 -0.14545 0.25588
 C279 C 0.88594 -0.11907 0.29995
 N280 N 0.91335 -0.11356 0.29953
 N281 N 0.92562 -0.10193 0.32102
 C282 C 0.91103 -0.09552 0.34389
 N283 N 0.88364 -0.10114 0.34436
 N284 N 0.87133 -0.11260 0.32281
 C285 C 0.92462 -0.08246 0.36772
 C286 C 0.91198 -0.08275 0.39364
 C287 C 0.92473 -0.07025 0.41610
 C288 C 0.95018 -0.05681 0.41300
 C289 C 0.96283 -0.05650 0.38708
 C290 C 0.95029 -0.06937 0.36473
 H291 H 0.83106 -0.11995 0.28813
 H292 H 0.80848 -0.14094 0.24928
 H293 H 0.88792 -0.16717 0.21809
 H294 H 0.90992 -0.14686 0.25759
 H295 H 0.89227 -0.09277 0.39663
 H296 H 0.91444 -0.07074 0.43579
 H297 H 0.98253 -0.04643 0.38408
 H298 H 0.96052 -0.06872 0.34501
 C299 C 0.86700 0.12911 0.72245
 C300 C 0.85401 0.11302 0.74261
 C301 C 0.84139 0.12546 0.76519
 C302 C 0.84184 0.15443 0.76861
 C303 C 0.85512 0.17039 0.74822
 C304 C 0.86725 0.15792 0.72540
 C305 C 0.88042 0.11591 0.69858
 N306 N 0.88552 0.13052 0.67533
 N307 N 0.89777 0.11867 0.65393
 C308 C 0.90561 0.09177 0.65497
 N309 N 0.90055 0.07717 0.67824
 N310 N 0.88811 0.08896 0.69956
 C311 C 0.91962 0.07869 0.63138
 C312 C 0.93559 0.05482 0.63514
 C313 C 0.94919 0.04267 0.61299
 C314 C 0.94670 0.05377 0.58648
 C315 C 0.93054 0.07755 0.58269
 C316 C 0.91733 0.09000 0.60495
 H317 H 0.85353 0.09073 0.74092
 H318 H 0.83237 0.11202 0.78050
 H319 H 0.85532 0.19271 0.74911
 H320 H 0.87705 0.17090 0.71014
 H321 H 0.93792 0.04573 0.65529
 H322 H 0.96161 0.02452 0.61667
 H323 H 0.92830 0.08671 0.56256
 H324 H 0.90511 0.10835 0.60141
 C325 C 1.13847 -0.13145 0.72285
 C326 C 1.14332 -0.16008 0.72317
 C327 C 1.15509 -0.17270 0.74614
 C328 C 1.16258 -0.15688 0.76904
 C329 C 1.15805 -0.12824 0.76860
 C330 C 1.14600 -0.11569 0.74581
 C331 C 1.12528 -0.11808 0.69892
 N332 N 1.11474 -0.09219 0.70099
 N333 N 1.10258 -0.08020 0.67964
 C334 C 1.10057 -0.09351 0.65526
 N335 N 1.11121 -0.11936 0.65313
 N336 N 1.12325 -0.13143 0.67454
 C337 C 1.08688 -0.08016 0.63161
 C338 C 1.09022 -0.09067 0.60497
 C339 C 1.07727 -0.07798 0.58270
 C340 C 1.06042 -0.05472 0.58662
 C341 C 1.05698 -0.04434 0.61329
 C342 C 1.07020 -0.05679 0.63549
 H343 H 1.13768 -0.17282 0.70584
 H344 H 1.15849 -0.19480 0.74598
 H345 H 1.16335 -0.11563 0.78613
 H346 H 1.14260 -0.09359 0.74621
 H347 H 1.10300 -0.10859 0.60129
 H348 H 1.08028 -0.08657 0.56244
 H349 H 1.04410 -0.02652 0.61706
 H350 H 1.06709 -0.04826 0.65575
 C351 C 0.27597 1.13617 1.13147
 C352 C 0.27264 1.13538 1.16001
 C353 C 0.24952 1.14717 1.17238
 C354 C 0.22917 1.16059 1.15657
 C355 C 0.23303 1.16171 1.12788
 C356 C 0.25593 1.14945 1.11555
 C357 C 0.30004 1.12292 1.11834
 N358 N 0.29949 1.11607 1.09136
 N359 N 0.32097 1.10373 1.07963
 C360 C 0.34396 1.09791 1.09433
 N361 N 0.34458 1.10491 1.12127
 N362 N 0.32302 1.11707 1.13305
 C363 C 0.36772 1.08400 1.08132
 C364 C 0.39396 1.08524 1.09333
 C365 C 0.41638 1.07212 1.08099
 C366 C 0.41295 1.05710 1.05660
 C367 C 0.38665 1.05569 1.04473
 C368 C 0.36434 1.06919 1.05682
 H369 H 0.28782 1.12539 1.17287
 H370 H 0.24836 1.14657 1.19451
 H371 H 0.21779 1.17087 1.11454
 H372 H 0.25790 1.15036 1.09346
 H373 H 0.39722 1.09657 1.11217
 H374 H 0.43636 1.07351 1.09071
 H375 H 0.38331 1.04426 1.02599
 H376 H 0.34435 1.06772 1.04714
 C377 C 0.27767 0.86662 0.87025
 C378 C 0.25738 0.85306 0.88572
 C379 C 0.23474 0.84085 0.87292
 C380 C 0.23140 0.84226 0.84418
 C381 C 0.25193 0.85608 0.82885
 C382 C 0.27479 0.86783 0.84168
 C383 C 0.30157 0.87963 0.88387
 N384 N 0.32477 0.88572 0.86951
 N385 N 0.34621 0.89759 0.88175
 C386 C 0.34526 0.90405 0.90882
 N387 N 0.32205 0.89799 0.92316
 N388 N 0.30068 0.88594 0.91096
 C389 C 0.36889 0.91764 0.92234
 C390 C 0.36524 0.93191 0.94712
 C391 C 0.38742 0.94519 0.95966
 C392 C 0.41384 0.94409 0.94797
 C393 C 0.41756 0.92956 0.92333
 C394 C 0.39527 0.91666 0.91053
 H395 H 0.25899 0.85184 0.90782
 H396 H 0.21932 0.83141 0.88592
 H397 H 0.25112 0.85701 0.80671
 H398 H 0.29015 0.87808 0.82917
 H399 H 0.34514 0.93317 0.95665
 H400 H 0.38386 0.95623 0.97861
 H401 H 0.43764 0.92843 0.91374
 H402 H 0.39875 0.90574 0.89149
 C403 C 0.72395 0.86915 1.13729
 C404 C 0.74707 0.88500 1.14455
 C405 C 0.76998 0.87256 1.15661
 C406 C 0.77042 0.84397 1.16145
 C407 C 0.74737 0.82806 1.15421
 C408 C 0.72427 0.84056 1.14242
 C409 C 0.69988 0.88243 1.12412
 N410 N 0.67537 0.86903 1.12221
 N411 N 0.65385 0.88104 1.11022
 C412 C 0.65598 0.90688 1.09950
 N413 N 0.68049 0.92023 1.10140
 N414 N 0.70195 0.90829 1.11350
 C415 C 0.63221 0.92020 1.08584
 C416 C 0.63614 0.94361 1.06924
 C417 C 0.61387 0.95609 1.05609
 C418 C 0.58705 0.94570 1.05951
 C419 C 0.58308 0.92238 1.07626
 C420 C 0.60544 0.90967 1.08916
 H421 H 0.74750 0.90706 1.14094
 H422 H 0.78761 0.88525 1.16170
 H423 H 0.74718 0.80599 1.15784
 H424 H 0.70683 0.82776 1.13701
 H425 H 0.65650 0.95218 1.06613
 H426 H 0.61771 0.97395 1.04327
 H427 H 0.56271 0.91378 1.07925
 H428 H 0.60171 0.89170 1.10187
 C429 C 0.72462 1.12990 0.86700
 C430 C 0.74445 1.11371 0.85367
 C431 C 0.76694 1.12600 0.84058
 C432 C 0.77060 1.15497 0.84079
 C433 C 0.75057 1.17104 0.85444
 C434 C 0.72786 1.15870 0.86712
 C435 C 0.70074 1.11681 0.88078
 N436 N 0.67811 1.13186 0.88737
 N437 N 0.65665 1.12008 0.89976
 C438 C 0.65698 1.09278 0.90623
 N439 N 0.67964 1.07775 0.89970
 N440 N 0.70104 1.08950 0.88716
 C441 C 0.63320 1.07971 0.92017
 C442 C 0.63613 1.05414 0.93352
 C443 C 0.61377 1.04196 0.94695
 C444 C 0.58789 1.05490 0.94698
 C445 C 0.58487 1.08032 0.93341
 C446 C 0.60734 1.09270 0.92033
 H447 H 0.74259 1.09142 0.85328
 H448 H 0.78201 1.11245 0.83136
 H449 H 0.75163 1.19336 0.85453
 H450 H 0.71287 1.17178 0.87716
 H451 H 0.65579 1.04364 0.93384
 H452 H 0.61670 1.02226 0.95709
 H453 H 0.56520 1.09082 0.93316
 H454 H 0.60439 1.11236 0.91014
 C455 C 0.12964 0.27659 0.13074
 C456 C 0.11409 0.25358 0.13920
 C457 C 0.12680 0.23120 0.15212
 C458 C 0.15534 0.23123 0.15659
 C459 C 0.17090 0.25419 0.14820
 C460 C 0.15817 0.27671 0.13555
 C461 C 0.11622 0.30022 0.11681
 N462 N 0.12978 0.32453 0.11337
 N463 N 0.11775 0.34574 0.10078
 C464 C 0.09170 0.34350 0.09097
 N465 N 0.07816 0.31917 0.09436
 N466 N 0.09015 0.29800 0.10706
 C467 C 0.07831 0.36711 0.07698
 C468 C 0.05391 0.36327 0.06201
 C469 C 0.04123 0.38556 0.04892
 C470 C 0.05247 0.41226 0.05077
 C471 C 0.07687 0.41609 0.06572
 C472 C 0.08973 0.39374 0.07855
 H473 H 0.09208 0.25286 0.13588
 H474 H 0.11439 0.21363 0.15820
 H475 H 0.19291 0.25477 0.15160
 H476 H 0.17075 0.29407 0.12926
 H477 H 0.04464 0.34301 0.06028
 H478 H 0.02243 0.38190 0.03759
 H479 H 0.08613 0.43637 0.06745
 H480 H 0.10847 0.39742 0.08995
 C481 C -0.13524 0.27638 -0.13768
 C482 C -0.11907 0.25365 -0.14551
 C483 C -0.13108 0.23065 -0.15791
 C484 C -0.15957 0.22973 -0.16258
 C485 C -0.17580 0.25242 -0.15486
 C486 C -0.16373 0.27561 -0.14269
 C487 C -0.12240 0.30047 -0.12401
 N488 N -0.13633 0.32460 -0.12097
 N489 N -0.12468 0.34612 -0.10852
 C490 C -0.09868 0.34435 -0.09846
 N491 N -0.08480 0.32021 -0.10148
 N492 N -0.09639 0.29876 -0.11402
 C493 C -0.08563 0.36811 -0.08444
 C494 C -0.06144 0.36435 -0.06914
 C495 C -0.04892 0.38664 -0.05599
 C496 C -0.06010 0.41333 -0.05805
 C497 C -0.08430 0.41714 -0.07334
 C498 C -0.09703 0.39473 -0.08626
 H499 H -0.09707 0.25358 -0.14201
 H500 H -0.11814 0.21330 -0.16335
 H501 H -0.19780 0.25223 -0.15835
 H502 H -0.17678 0.29274 -0.13686
 H503 H -0.05217 0.34412 -0.06719
 H504 H -0.03028 0.38295 -0.04442
 H505 H -0.09349 0.43742 -0.07525
 H506 H -0.11562 0.39833 -0.09793
 C507 C 0.13103 0.72516 -0.13358
 C508 C 0.13858 0.74809 -0.11761
 C509 C 0.15189 0.77070 -0.12952
 C510 C 0.15773 0.77101 -0.15771
 C511 C 0.15007 0.74821 -0.17375
 C512 C 0.13699 0.72544 -0.16178
 C513 C 0.11699 0.70118 -0.12081
 N514 N 0.11413 0.67698 -0.13459
 N515 N 0.10162 0.65543 -0.12297
 C516 C 0.09135 0.65721 -0.09713
 N517 N 0.09416 0.68142 -0.08340
 N518 N 0.10675 0.70292 -0.09496
 C519 C 0.07746 0.63329 -0.08408
 C520 C 0.06251 0.63674 -0.05965
 C521 C 0.04953 0.61426 -0.04716
 C522 C 0.05138 0.58772 -0.05865
 C523 C 0.06634 0.58423 -0.08308
 C524 C 0.07912 0.60680 -0.09573
 H525 H 0.13433 0.74855 -0.09582
 H526 H 0.15732 0.78814 -0.11674
 H527 H 0.15452 0.74787 -0.19550
 H528 H 0.13140 0.70815 -0.17468
 H529 H 0.06073 0.65686 -0.05016
 H530 H 0.03826 0.61768 -0.02830
 H531 H 0.06808 0.56407 -0.09250
 H532 H 0.09052 0.60343 -0.11451
 C533 C -0.13176 0.72556 0.13204
 C534 C -0.16004 0.72571 0.13826
 C535 C -0.17210 0.74871 0.15075
 C536 C -0.15608 0.77185 0.15759
 C537 C -0.12784 0.77167 0.15147
 C538 C -0.11584 0.74885 0.13871
 C539 C -0.11889 0.70137 0.11861
 N540 N -0.09339 0.70337 0.10734
 N541 N -0.08175 0.68171 0.09520
 C542 C -0.09504 0.65706 0.09394
 N543 N -0.12051 0.65500 0.10529
 N544 N -0.13222 0.67672 0.11732
 C545 C -0.08202 0.63305 0.08032
 C546 C -0.09251 0.60623 0.08404
 C547 C -0.08008 0.58364 0.07116
 C548 C -0.05709 0.58743 0.05403
 C549 C -0.04673 0.61429 0.05023
 C550 C -0.05892 0.63678 0.06335
 H551 H -0.17290 0.70815 0.13331
 H552 H -0.19390 0.74828 0.15541
 H553 H -0.11508 0.78936 0.15630
 H554 H -0.09401 0.74941 0.13424
 H555 H -0.11023 0.60264 0.09705
 H556 H -0.08865 0.56325 0.07445
 H557 H -0.02911 0.61800 0.03713
 H558 H -0.05039 0.65717 0.05993
 C559 C 1.13766 0.13022 0.72362
 C560 C 1.14198 0.15894 0.72388
 C561 C 1.15344 0.17181 0.74683
 C562 C 1.16114 0.15619 0.76983
 C563 C 1.15715 0.12746 0.76948
 C564 C 1.14538 0.11463 0.74669
 C565 C 1.12490 0.11662 0.69960
 N566 N 1.11466 0.09058 0.70161
 N567 N 1.10284 0.07845 0.68016
 C568 C 1.10088 0.09179 0.65573
 N569 N 1.11124 0.11779 0.65368
 N570 N 1.12293 0.12998 0.67518
 C571 C 1.08744 0.07838 0.63198
 C572 C 1.09089 0.08901 0.60537
 C573 C 1.07802 0.07643 0.58301
 C574 C 1.06114 0.05313 0.58681
 C575 C 1.05766 0.04256 0.61345
 C576 C 1.07081 0.05491 0.63573
 H577 H 1.13621 0.17155 0.70647
 H578 H 1.15649 0.19397 0.74654
 H579 H 1.16269 0.11498 0.78706
 H580 H 1.14240 0.09247 0.74714
 H581 H 1.10365 0.10701 0.60178
 H582 H 1.08107 0.08516 0.56279
 H583 H 1.04476 0.02470 0.61713
 H584 H 1.06762 0.04627 0.65596
 C585 C 0.86559 -0.13048 0.72146
 C586 C 0.86602 -0.15925 0.72488
 C587 C 0.85389 -0.17152 0.74789
 C588 C 0.84044 -0.15536 0.76794
 C589 C 0.83968 -0.12646 0.76392
 C590 C 0.85227 -0.11425 0.74120
 C591 C 0.87929 -0.11732 0.69770
 N592 N 0.88683 -0.09032 0.69866
 N593 N 0.89945 -0.07845 0.67747
 C594 C 0.90489 -0.09301 0.65433
 N595 N 0.89724 -0.11999 0.65329
 N596 N 0.88479 -0.13194 0.67459
 C597 C 0.91900 -0.07976 0.63087
 C598 C 0.91686 -0.09090 0.60440
 C599 C 0.93005 -0.07817 0.58224
 C600 C 0.94606 -0.05430 0.58618
 C601 C 0.94842 -0.04337 0.61274
 C602 C 0.93482 -0.05579 0.63478
 H603 H 0.87607 -0.17233 0.70992
 H604 H 0.85436 -0.19381 0.74931
 H605 H 0.83060 -0.11282 0.77895
 H606 H 0.85161 -0.09199 0.73914
 H607 H 0.90473 -0.10931 0.60074
 H608 H 0.92794 -0.08722 0.56207
 H609 H 0.96072 -0.02514 0.61652
 H610 H 0.93701 -0.04681 0.65498
 C611 C 1.13490 -0.13495 0.27713
 C612 C 1.14937 -0.11902 0.25787
 C613 C 1.16146 -0.13135 0.23497
 C614 C 1.15899 -0.16004 0.23030
 C615 C 1.14444 -0.17589 0.24990
 C616 C 1.13282 -0.16354 0.27306
 C617 C 1.12169 -0.12169 0.30107
 N618 N 1.11480 -0.13668 0.32363
 N619 N 1.10268 -0.12470 0.34504
 C620 C 1.09675 -0.09729 0.34467
 N621 N 1.10360 -0.08234 0.32210
 N622 N 1.11589 -0.09427 0.30079
 C623 C 1.08303 -0.08393 0.36826
 C624 C 1.06915 -0.05874 0.36478
 C625 C 1.05626 -0.04594 0.38696
 C626 C 1.05735 -0.05778 0.41325
 C627 C 1.07122 -0.08300 0.41676
 C628 C 1.08374 -0.09606 0.39443
 H629 H 1.15131 -0.09689 0.26044
 H630 H 1.17152 -0.11791 0.22033
 H631 H 1.14270 -0.19808 0.24807
 H632 H 1.12188 -0.17640 0.28763
 H633 H 1.06806 -0.04897 0.34483
 H634 H 1.04568 -0.02658 0.38352
 H635 H 1.07230 -0.09272 0.43673
 H636 H 1.09432 -0.11545 0.39774
 C637 C 0.87087 0.13309 0.27761
 C638 C 0.85656 0.11685 0.25858
 C639 C 0.84332 0.12899 0.23623
 C640 C 0.84435 0.15784 0.23191
 C641 C 0.85896 0.17398 0.25113
 C642 C 0.87179 0.16179 0.27373
 C643 C 0.88484 0.12009 0.30126
 N644 N 0.89226 0.13529 0.32344
 N645 N 0.90476 0.12349 0.34473
 C646 C 0.91053 0.09604 0.34462
 N647 N 0.90318 0.08088 0.32240
 N648 N 0.89053 0.09264 0.30121
 C649 C 0.92446 0.08282 0.36818
 C650 C 0.93706 0.05690 0.36515
 C651 C 0.95007 0.04424 0.38734
 C652 C 0.95044 0.05703 0.41317
 C653 C 0.93780 0.08293 0.41625
 C654 C 0.92513 0.09580 0.39392
 H655 H 0.85553 0.09463 0.26095
 H656 H 0.83336 0.11535 0.22177
 H657 H 0.85971 0.19625 0.24955
 H658 H 0.88260 0.17490 0.28811
 H659 H 0.93702 0.04642 0.34556
 H660 H 0.95951 0.02421 0.38433
 H661 H 0.93785 0.09332 0.43589
 H662 H 0.91552 0.11575 0.39691
 C663 C 0.13153 0.27662 -0.13468
 C664 C 0.11599 0.25370 -0.14325
 C665 C 0.12882 0.23099 -0.15543
 C666 C 0.15749 0.23057 -0.15902
 C667 C 0.17305 0.25347 -0.15056
 C668 C 0.16020 0.27633 -0.13866
 C669 C 0.11796 0.30050 -0.12137
 N670 N 0.13159 0.32475 -0.11790
 N671 N 0.11941 0.34613 -0.10574
 C672 C 0.09313 0.34409 -0.09640
 N673 N 0.07952 0.31983 -0.09984
 N674 N 0.09166 0.29851 -0.11211
 C675 C 0.07959 0.36776 -0.08270
 C676 C 0.05504 0.36392 -0.06791
 C677 C 0.04220 0.38619 -0.05500
 C678 C 0.05342 0.41291 -0.05683
 C679 C 0.07796 0.41678 -0.07164
 C680 C 0.09099 0.39442 -0.08430
 H681 H 0.09387 0.25329 -0.14056
 H682 H 0.11638 0.21349 -0.16155
 H683 H 0.19517 0.25373 -0.15329
 H684 H 0.17278 0.29362 -0.13227
 H685 H 0.04577 0.34365 -0.06616
 H686 H 0.02330 0.38248 -0.04379
 H687 H 0.08719 0.43707 -0.07337
 H688 H 0.10985 0.39809 -0.09558
 C689 C -0.13502 0.27699 0.13354
 C690 C -0.16335 0.27651 0.13948
 C691 C -0.17514 0.25379 0.15280
 C692 C -0.15878 0.23127 0.16075
 C693 C -0.13045 0.23188 0.15511
 C694 C -0.11871 0.25442 0.14155
 C695 C -0.12249 0.30066 0.11884
 N696 N -0.09675 0.29866 0.10814
 N697 N -0.08540 0.31983 0.09484
 C698 C -0.09926 0.34398 0.09175
 N699 N -0.12499 0.34603 0.10248
 N700 N -0.13641 0.32478 0.11568
 C701 C -0.08639 0.36757 0.07720
 C702 C -0.09772 0.39421 0.07901
 C703 C -0.08503 0.41656 0.06590
 C704 C -0.06090 0.41270 0.05045
 C705 C -0.04986 0.38596 0.04826
 C706 C -0.06237 0.36370 0.06159
 H707 H -0.17649 0.29354 0.13355
 H708 H -0.19703 0.25384 0.15703
 H709 H -0.11743 0.21463 0.16071
 H710 H -0.09683 0.25413 0.13736
 H711 H -0.11619 0.39789 0.09089
 H712 H -0.09412 0.43687 0.06791
 H713 H -0.03130 0.38224 0.03654
 H714 H -0.05318 0.34344 0.05964
 C715 C -0.13334 0.72618 -0.13547
 C716 C -0.14649 0.74614 -0.11931
 C717 C -0.15903 0.76905 -0.13134
 C718 C -0.15850 0.77302 -0.16004
 C719 C -0.14512 0.75282 -0.17613
 C720 C -0.13295 0.72966 -0.16402
 C721 C -0.11994 0.70203 -0.12249
 N722 N -0.11331 0.67930 -0.13739
 N723 N -0.10131 0.65761 -0.12557
 C724 C -0.09529 0.65783 -0.09838
 N725 N -0.10184 0.68060 -0.08353
 N726 N -0.11398 0.70219 -0.09531
 C727 C -0.08188 0.63385 -0.08512
 C728 C -0.06930 0.63675 -0.05938
 C729 C -0.05673 0.61419 -0.04670
 C730 C -0.05677 0.58811 -0.05930
 C731 C -0.06943 0.58514 -0.08500
 C732 C -0.08168 0.60783 -0.09788
 H733 H -0.14710 0.74410 -0.09721
 H734 H -0.16801 0.78422 -0.11776
 H735 H -0.14481 0.75416 -0.19826
 H736 H -0.12305 0.71456 -0.17707
 H737 H -0.06900 0.65652 -0.04905
 H738 H -0.04725 0.61714 -0.02683
 H739 H -0.06969 0.56532 -0.09526
 H740 H -0.09129 0.60492 -0.11768
 C741 C 0.12880 0.72236 0.13320
 C742 C 0.11352 0.74556 0.14142
 C743 C 0.12652 0.76802 0.15386
 C744 C 0.15509 0.76789 0.15806
 C745 C 0.17042 0.74479 0.14979
 C746 C 0.15739 0.72216 0.13766
 C747 C 0.11501 0.69862 0.11987
 N748 N 0.12800 0.67391 0.11744
 N749 N 0.11561 0.65262 0.10535
 C750 C 0.08978 0.65519 0.09504
 N751 N 0.07682 0.67991 0.09744
 N752 N 0.08915 0.70115 0.10966
 C753 C 0.07613 0.63162 0.08130
 C754 C 0.05278 0.63587 0.06487
 C755 C 0.04018 0.61372 0.05153
 C756 C 0.05038 0.58674 0.05462
 C757 C 0.07358 0.58245 0.07127
 C758 C 0.08640 0.60467 0.08433
 H759 H 0.09147 0.74635 0.13834
 H760 H 0.11429 0.78572 0.15982
 H761 H 0.19247 0.74417 0.15295
 H762 H 0.16976 0.70464 0.13149
 H763 H 0.04441 0.65639 0.06202
 H764 H 0.02239 0.61776 0.03882
 H765 H 0.08203 0.56195 0.07401
 H766 H 0.10429 0.60068 0.09693
 C767 C 0.27754 1.13525 0.87091
 C768 C 0.25410 1.14282 0.88603
 C769 C 0.23143 1.15473 0.87301
 C770 C 0.23159 1.15899 0.84454
 C771 C 0.25494 1.15138 0.82937
 C772 C 0.27778 1.13980 0.84244
 C773 C 0.30146 1.12244 0.88474
 N774 N 0.32634 1.12101 0.87208
 N775 N 0.34777 1.10931 0.88451
 C776 C 0.34518 1.09841 0.91005
 N777 N 0.32031 1.09983 0.92269
 N778 N 0.29892 1.11166 0.91034
 C779 C 0.36885 1.08497 0.92372
 C780 C 0.36464 1.06746 0.94633
 C781 C 0.38685 1.05429 0.95891
 C782 C 0.41386 1.05864 0.94946
 C783 C 0.41810 1.07639 0.92701
 C784 C 0.39582 1.08927 0.91418
 H785 H 0.25328 1.13965 0.90799
 H786 H 0.21356 1.16021 0.88512
 H787 H 0.25561 1.15464 0.80741
 H788 H 0.29549 1.13413 0.83020
 H789 H 0.34411 1.06358 0.95410
 H790 H 0.38280 1.04063 0.97602
 H791 H 0.43862 1.08012 0.91913
 H792 H 0.39976 1.10271 0.89685
 C793 C 0.27564 0.86366 1.13079
 C794 C 0.25220 0.85676 1.11538
 C795 C 0.22937 0.84454 1.12797
 C796 C 0.22937 0.83930 1.15627
 C797 C 0.25275 0.84617 1.17171
 C798 C 0.27573 0.85807 1.15907
 C799 C 0.29972 0.87687 1.11747
 N800 N 0.32446 0.87793 1.13035
 N801 N 0.34604 0.89002 1.11843
 C802 C 0.34372 0.90169 1.09321
 N803 N 0.31897 0.90064 1.08035
 N804 N 0.29745 0.88842 1.09220
 C805 C 0.36757 0.91552 1.08011
 C806 C 0.36369 0.93347 1.05780
 C807 C 0.38609 0.94693 1.04573
 C808 C 0.41296 0.94243 1.05540
 C809 C 0.41687 0.92428 1.07757
 C810 C 0.39440 0.91111 1.08990
 H811 H 0.25150 0.86072 1.09355
 H812 H 0.21151 0.83960 1.11566
 H813 H 0.25330 0.84212 1.19354
 H814 H 0.29343 0.86318 1.17153
 H815 H 0.34328 0.93745 1.04987
 H816 H 0.38230 0.96087 1.02880
 H817 H 0.43727 0.92042 1.08560
 H818 H 0.39809 0.89734 1.10700
 C819 C 0.72399 1.13076 1.13802
 C820 C 0.74747 1.11529 1.14486
 C821 C 0.77027 1.12804 1.15682
 C822 C 0.77021 1.15657 1.16194
 C823 C 0.74684 1.17210 1.15503
 C824 C 0.72388 1.15930 1.14335
 C825 C 0.69991 1.11719 1.12520
 N826 N 0.67525 1.13029 1.12366
 N827 N 0.65368 1.11806 1.11197
 C828 C 0.65591 1.09229 1.10123
 N829 N 0.68058 1.07922 1.10276
 N830 N 0.70210 1.09138 1.11456
 C831 C 0.63211 1.07884 1.08779
 C832 C 0.63600 1.05549 1.07117
 C833 C 0.61371 1.04311 1.05797
 C834 C 0.58694 1.05354 1.06136
 C835 C 0.58298 1.07669 1.07826
 C836 C 0.60536 1.08930 1.09121
 H837 H 0.74823 1.09328 1.14107
 H838 H 0.78815 1.11564 1.16172
 H839 H 0.74623 1.19411 1.15895
 H840 H 0.70615 1.17182 1.13825
 H841 H 0.65635 1.04696 1.06802
 H842 H 0.61750 1.02534 1.04507
 H843 H 0.56264 1.08530 1.08124
 H844 H 0.60166 1.10720 1.10397
 C845 C 0.72525 0.87216 0.86796
 C846 C 0.72518 0.86701 0.83961
 C847 C 0.74787 0.85467 0.82697
 C848 C 0.77096 0.84697 0.84245
 C849 C 0.77100 0.85193 0.87078
 C850 C 0.74845 0.86452 0.88339
 C851 C 0.70131 0.88544 0.88136
 N852 N 0.70322 0.89515 0.90738
 N853 N 0.68174 0.90713 0.91946
 C854 C 0.65740 0.90980 0.90608
 N855 N 0.65546 0.90004 0.88007
 N856 N 0.67698 0.88816 0.86795
 C857 C 0.63351 0.92302 0.91964
 C858 C 0.60701 0.92099 0.90829
 C859 C 0.58445 0.93314 0.92138
 C860 C 0.58796 0.94781 0.94596
 C861 C 0.61452 0.95005 0.95715
 C862 C 0.63699 0.93769 0.94421
 H863 H 0.70766 0.87267 0.82712
 H864 H 0.74724 0.85082 0.80512
 H865 H 0.78866 0.84635 0.88313
 H866 H 0.74915 0.86813 0.90527
 H867 H 0.60362 0.90978 0.88941
 H868 H 0.56429 0.93112 0.91217
 H869 H 0.61796 0.96116 0.97609
 H870 H 0.65713 0.93976 0.95346
   
