data_POSCAR
  _audit_creation_date              2014-09-24
  _audit_creation_method            'ToBaCCo'
  _symmetry_space_group_name_H-M    'P1'
  _symmetry_Int_Tables_number       1
  _symmetry_cell_setting            triclinic
  loop_
  _symmetry_equiv_pos_as_xyz
 x,y,z
_cell_length_a 28.0945
_cell_length_b 29.0797
_cell_length_c 28.0000
_cell_angle_alpha 93.484300
_cell_angle_beta 92.036300
_cell_angle_gamma 94.221500
loop_
  _atom_site_label
  _atom_site_type_symbol
  _atom_site_fract_x
  _atom_site_fract_y
  _atom_site_fract_z
N1 N 0.17206 1.28273 0.14361
 N2 N 0.13909 1.27938 0.17558
 C3 C 0.10967 1.31345 0.17080
 C4 C 0.12497 1.33966 0.13355
 C5 C 0.16495 1.31902 0.11743
 H6 H 0.07927 1.31829 0.19264
 H7 H 0.18731 1.32919 0.08872
 Cu8 Cu 0.13714 1.22946 0.21884
 Cu9 Cu 0.21963 1.23769 0.13621
 Cu10 Cu 0.23959 1.18024 0.23901
 N11 N 0.14196 1.18294 0.26544
 N12 N 0.18258 1.16475 0.27417
 C13 C 0.17630 1.13364 0.30744
 C14 C 0.12879 1.13142 0.31972
 C15 C 0.10816 1.16351 0.29232
 H16 H 0.20384 1.11262 0.31982
 H17 H 0.07130 1.17182 0.29137
 N18 N 0.28441 1.18216 0.18635
 N19 N 0.27576 1.20260 0.14649
 C20 C 0.30815 1.19144 0.11440
 C21 C 0.33852 1.16207 0.13479
 C22 C 0.32269 1.15736 0.18064
 H23 H 0.30777 1.20177 0.07797
 H24 H 0.33527 1.13416 0.20625
 H25 H 0.19637 1.18484 0.17990
 H26 H 0.22299 1.24125 0.20799
 N27 N 0.79915 0.72460 0.14929
 N28 N 0.81860 0.71540 0.19069
 C29 C 0.85051 0.68373 0.18349
 C30 C 0.85132 0.67230 0.13485
 C31 C 0.81792 0.69865 0.11421
 H32 H 0.87294 0.67158 0.21151
 H33 H 0.80993 0.70070 0.07636
 Cu34 Cu 0.80606 0.75017 0.24940
 Cu35 Cu 0.75475 0.77303 0.14416
 Cu36 Cu 0.73215 0.83458 0.25050
 N37 N 0.80973 0.79799 0.30113
 N38 N 0.78039 0.83108 0.30162
 C39 C 0.79247 0.86134 0.33911
 C40 C 0.83255 0.84713 0.36293
 C41 C 0.84191 0.80619 0.33797
 H42 H 0.77435 0.89225 0.34696
 H43 H 0.87145 0.78519 0.34408
 N44 N 0.70193 0.84583 0.18827
 N45 N 0.71072 0.82315 0.14762
 C46 C 0.68753 0.84187 0.11143
 C47 C 0.66363 0.87837 0.13027
 C48 C 0.67344 0.87966 0.17908
 H49 H 0.68951 0.83117 0.07394
 H50 H 0.66201 0.90434 0.20592
 H51 H 0.78171 0.81321 0.20393
 H52 H 0.73045 0.77036 0.21167
 N53 N 0.81765 1.28712 -0.16902
 N54 N 0.85840 1.28320 -0.18999
 C55 C 0.88773 1.32113 -0.17805
 C56 C 0.86415 1.35056 -0.14789
 C57 C 0.81955 1.32789 -0.14322
 H58 H 0.92426 1.32595 -0.18874
 H59 H 0.79110 1.33944 -0.12153
 Cu60 Cu 0.87024 1.22737 -0.22803
 Cu61 Cu 0.76644 1.23765 -0.17506
 Cu62 Cu 0.80320 1.13033 -0.21316
 N63 N 0.87708 1.17164 -0.26842
 N64 N 0.85054 1.13346 -0.26243
 C65 C 0.86401 1.09942 -0.29254
 C66 C 0.90124 1.11714 -0.31898
 C67 C 0.90839 1.16328 -0.30258
 H68 H 0.84883 1.06409 -0.29376
 H69 H 0.93475 1.18885 -0.31396
 N70 N 0.74403 1.13810 -0.17891
 N71 N 0.72887 1.17890 -0.16654
 C72 C 0.68712 1.17269 -0.14477
 C73 C 0.67564 1.12571 -0.14314
 C74 C 0.71251 1.10486 -0.16514
 H75 H 0.66747 1.20031 -0.12967
 H76 H 0.71600 1.06818 -0.17085
 H77 H 0.81767 1.19224 -0.17069
 H78 H 0.78804 1.19370 -0.23120
 N79 N 0.19038 0.71588 -0.16045
 N80 N 0.15131 0.72213 -0.18574
 C81 C 0.11413 0.69776 -0.16770
 C82 C 0.13102 0.67519 -0.12904
 C83 C 0.17964 0.68728 -0.12585
 H84 H 0.07736 0.69776 -0.18048
 H85 H 0.20537 0.67707 -0.09966
 Cu86 Cu 0.15393 0.76433 -0.23726
 Cu87 Cu 0.25216 0.74728 -0.17194
 Cu88 Cu 0.24943 0.83791 -0.24660
 N89 N 0.15707 0.80618 -0.28909
 N90 N 0.19538 0.83437 -0.29273
 C91 C 0.18754 0.86303 -0.32752
 C92 C 0.14152 0.85285 -0.34677
 C93 C 0.12337 0.81613 -0.32158
 H94 H 0.21241 0.89130 -0.33571
 H95 H 0.08763 0.79947 -0.32480
 N96 N 0.30502 0.82901 -0.20408
 N97 N 0.30549 0.79491 -0.17507
 C98 C 0.34246 0.80362 -0.14311
 C99 C 0.36682 0.84489 -0.15272
 C100 C 0.34235 0.85973 -0.19191
 H101 H 0.34802 0.78406 -0.11203
 H102 H 0.34763 0.89344 -0.20602
 H103 H 0.21958 0.80468 -0.18946
 H104 H 0.24088 0.76927 -0.24108
 C105 C 0.47180 1.04758 0.03585
 C106 C 0.50832 1.02284 0.06501
 C107 C 0.53555 0.99524 0.03783
 C108 C 0.52307 0.99444 -0.01627
 C109 C 0.50161 1.07309 -0.00059
 C110 C 0.52845 1.04549 -0.02809
 C111 C 0.44285 1.00836 0.00653
 C112 C 0.46928 0.98084 -0.02097
 H113 H 0.51137 1.02549 0.10358
 H114 H 0.54416 0.97144 -0.03872
 H115 H 0.50288 1.11023 -0.00231
 H116 H 0.40421 1.00373 0.00650
 C117 C 0.02923 0.48229 1.04334
 C118 C 0.05936 0.51579 1.01407
 C119 C 0.03334 0.54309 0.98700
 C120 C -0.02092 0.53409 0.99135
 C121 C -0.00185 0.51407 1.07248
 C122 C -0.02802 0.54140 1.04548
 C123 C -0.00527 0.45519 1.00676
 C124 C -0.03138 0.48203 0.97973
 H125 H 0.09799 0.51905 1.01652
 H126 H -0.04237 0.55574 0.96890
 H127 H -0.00109 0.51643 1.11119
 H128 H -0.00798 0.41782 1.00188
 C129 C 1.03842 0.01509 0.45606
 C130 C 1.01900 0.04619 0.49583
 C131 C 0.99565 0.02286 0.52989
 C132 C 0.99371 -0.02997 0.52083
 C133 C 1.06929 -0.01751 0.48255
 C134 C 1.04634 -0.04086 0.51690
 C135 C 0.99524 -0.01638 0.43629
 C136 C 0.97167 -0.03943 0.47007
 H137 H 1.02317 0.08351 0.49626
 H138 H 0.97413 -0.04904 0.54805
 H139 H 1.10556 -0.02252 0.47392
 H140 H 0.98505 -0.02106 0.39852
 C141 C 0.12409 0.40105 1.07734
 C142 C 0.10460 0.37835 1.11579
 C143 C 0.06347 0.39605 1.13549
 C144 C 0.04023 0.43115 1.11371
 C145 C 0.05809 0.45082 1.07240
 C146 C 0.10142 0.43600 1.05632
 C147 C 0.11478 0.42049 1.00716
 C148 C 0.13946 0.38211 1.02990
 H149 H 0.04723 0.38127 1.16604
 H150 H 0.00671 0.44070 1.12774
 H151 H 0.14010 0.44611 0.99155
 H152 H 0.08336 0.40772 0.98351
 H153 H 0.17890 0.38572 1.02699
 H154 H 0.12228 0.34708 1.01948
 C155 C -0.12303 0.62643 1.06242
 C156 C -0.11496 0.64309 1.11023
 C157 C -0.07261 0.63184 1.13388
 C158 C -0.04323 0.60017 1.11226
 C159 C -0.05561 0.57861 1.06653
 C160 C -0.09404 0.59496 1.04112
 C161 C -0.13535 0.56884 1.01433
 C162 C -0.16707 0.60325 1.03759
 H163 H -0.06276 0.64620 1.16972
 H164 H -0.01169 0.59173 1.13218
 H165 H -0.14207 0.53323 1.02615
 H166 H -0.13338 0.57132 0.97499
 H167 H -0.19229 0.58758 1.06284
 H168 H -0.18328 0.62556 1.01160
 C169 C -0.13612 0.41246 0.91897
 C170 C -0.11556 0.39405 0.87777
 C171 C -0.07187 0.41593 0.86457
 C172 C -0.04623 0.44919 0.89609
 C173 C -0.06420 0.46180 0.94085
 C174 C -0.11087 0.44553 0.94992
 C175 C -0.13052 0.42487 0.99327
 C176 C -0.15808 0.38864 0.95956
 H177 H -0.05530 0.40453 0.83208
 H178 H -0.01028 0.46111 0.88771
 H179 H -0.15404 0.44807 1.01269
 H180 H -0.10281 0.41043 1.01609
 H181 H -0.19737 0.39109 0.95975
 H182 H -0.14620 0.35327 0.96277
 C183 C 0.05636 0.62888 0.89218
 C184 C 0.10316 0.64702 0.90401
 C185 C 0.12305 0.63708 0.94884
 C186 C 0.09943 0.60485 0.97700
 C187 C 0.05542 0.58152 0.96093
 C188 C 0.03309 0.59684 0.91996
 C189 C 0.01050 0.56982 0.87699
 C190 C 0.03564 0.60501 0.84664
 H191 H 0.15778 0.65253 0.96144
 H192 H 0.11668 0.59706 1.01041
 H193 H -0.02902 0.57064 0.87542
 H194 H 0.02391 0.53494 0.87197
 H195 H 0.01059 0.62636 0.82786
 H196 H 0.06321 0.59035 0.82392
 C197 C 1.13285 0.07220 0.37780
 C198 C 1.10628 0.10102 0.35061
 C199 C 1.05621 0.09731 0.35489
 C200 C 1.03471 0.06865 0.38800
 C201 C 1.06232 0.04257 0.41784
 C202 C 1.11158 0.04388 0.41063
 C203 C 1.15262 0.05417 0.44612
 C204 C 1.17574 0.08482 0.41029
 H205 H 1.03333 0.11725 0.33378
 H206 H 0.99641 0.06813 0.39151
 H207 H 1.17273 0.02337 0.45210
 H208 H 1.14248 0.07349 0.47927
 H209 H 1.20863 0.07126 0.39576
 H210 H 1.17918 0.12205 0.42256
 C211 C 1.14114 -0.08406 0.59952
 C212 C 1.11748 -0.12179 0.61991
 C213 C 1.06837 -0.13123 0.60730
 C214 C 1.04542 -0.10552 0.57338
 C215 C 1.07082 -0.06991 0.55058
 C216 C 1.11869 -0.05914 0.56567
 C217 C 1.16278 -0.05457 0.53737
 C218 C 1.18731 -0.08121 0.57470
 H219 H 1.04748 -0.15884 0.62281
 H220 H 1.00812 -0.11479 0.56400
 H221 H 1.17759 -0.01808 0.53697
 H222 H 1.15878 -0.07390 0.50177
 H223 H 1.21587 -0.05976 0.59599
 H224 H 1.19751 -0.11555 0.56062
 C225 C 0.85179 -0.08364 0.41712
 C226 C 0.86050 -0.12878 0.40054
 C227 C 0.90105 -0.14753 0.42115
 C228 C 0.93552 -0.11914 0.44931
 C229 C 0.92990 -0.07177 0.45766
 C230 C 0.88583 -0.05585 0.44480
 C231 C 0.87369 -0.01298 0.42202
 C232 C 0.83669 -0.04317 0.39121
 H233 H 0.90860 -0.18293 0.41255
 H234 H 0.96865 -0.13312 0.46013
 H235 H 0.90297 0.00242 0.40106
 H236 H 0.85765 0.01165 0.44754
 H237 H 0.84509 -0.04549 0.35266
 H238 H 0.79944 -0.03533 0.39871
 C239 C 0.91428 0.04670 0.63211
 C240 C 0.92749 0.09297 0.64717
 C241 C 0.96894 0.11366 0.62757
 C242 C 0.99242 0.09039 0.59079
 C243 C 0.97495 0.04594 0.57216
 C244 C 0.93740 0.02392 0.59563
 C245 C 0.89209 -0.00068 0.57518
 C246 C 0.86667 0.02416 0.61492
 H247 H 0.98286 0.14829 0.63937
 H248 H 1.02335 0.10798 0.57613
 H249 H 0.89135 -0.03861 0.57849
 H250 H 0.88233 0.01003 0.53888
 H251 H 0.85130 0.00035 0.64093
 H252 H 0.84203 0.04923 0.60171
 C253 C 0.40528 1.10949 0.13587
 C254 C 0.37300 1.13388 0.11003
 C255 C 0.37188 1.12762 0.05974
 C256 C 0.40442 1.10043 0.03657
 C257 C 0.43915 1.07851 0.06278
 C258 C 0.43775 1.08250 0.11295
 C259 C 0.47659 1.09882 0.14936
 C260 C 0.44097 1.12776 0.17425
 H261 H 0.34612 1.14381 0.03800
 H262 H 0.40269 1.09667 -0.00219
 H263 H 0.50628 1.11975 0.13388
 H264 H 0.48789 1.07060 0.17124
 H265 H 0.44994 1.16559 0.17340
 H266 H 0.43149 1.11574 0.20988
 C267 C 0.63528 1.05756 -0.10642
 C268 C 0.63407 1.10263 -0.12105
 C269 C 0.59237 1.12550 -0.11254
 C270 C 0.55629 1.10586 -0.08472
 C271 C 0.56146 1.06318 -0.06419
 C272 C 0.59997 1.03839 -0.07857
 C273 C 0.63533 1.01493 -0.04931
 C274 C 0.67388 1.03587 -0.07983
 H275 H 0.58855 1.15944 -0.12541
 H276 H 0.52565 1.12527 -0.07757
 H277 H 0.63036 0.97667 -0.05468
 H278 H 0.63823 1.02863 -0.01127
 H279 H 0.69081 1.00966 -0.10276
 H280 H 0.69923 1.06175 -0.05954
 C281 C 0.38267 0.88368 -0.07192
 C282 C 0.39734 0.87555 -0.11865
 C283 C 0.43503 0.90494 -0.13431
 C284 C 0.46010 0.93819 -0.10209
 C285 C 0.44668 0.94366 -0.05418
 C286 C 0.40640 0.91719 -0.04071
 C287 C 0.40061 0.88822 0.00115
 C288 C 0.37502 0.85121 -0.03311
 H289 H 0.44524 0.90193 -0.17124
 H290 H 0.48922 0.96009 -0.11480
 H291 H 0.37680 0.90323 0.02784
 H292 H 0.43518 0.87815 0.01617
 H293 H 0.33656 0.84457 -0.02587
 H294 H 0.39505 0.81979 -0.03818
 C295 C 0.61925 0.90098 0.05682
 C296 C 0.63699 0.91150 0.10388
 C297 C 0.62839 0.95509 0.12534
 C298 C 0.59741 0.98370 0.10281
 C299 C 0.57394 0.96921 0.05844
 C300 C 0.58844 0.92914 0.03468
 C301 C 0.55930 0.88877 0.01057
 C302 C 0.59300 0.85796 0.03479
 H303 H 0.64383 0.96642 0.16041
 H304 H 0.59043 1.01614 0.12127
 H305 H 0.56190 0.88745 -0.02900
 H306 H 0.52236 0.88528 0.02351
 H307 H 0.61500 0.83903 0.00912
 H308 H 0.57558 0.83651 0.06174
   
