data_POSCAR
  _audit_creation_date              2014-09-24
  _audit_creation_method            'ToBaCCo'
  _symmetry_space_group_name_H-M    'P1'
  _symmetry_Int_Tables_number       1
  _symmetry_cell_setting            triclinic
  loop_
  _symmetry_equiv_pos_as_xyz
 x,y,z
_cell_length_a 63.1721
_cell_length_b 63.0855
_cell_length_c 25.8876
_cell_angle_alpha 89.865500
_cell_angle_beta 89.938700
_cell_angle_gamma 92.483900
loop_
  _atom_site_label
  _atom_site_type_symbol
  _atom_site_fract_x
  _atom_site_fract_y
  _atom_site_fract_z
C1 C 0.01463 0.23437 -0.01630
 C2 C 0.01410 0.23346 0.03610
 C3 C -0.00639 0.23287 0.06399
 C4 C 0.03377 0.23377 0.06726
 C5 C 0.03462 0.23290 -0.04558
 C6 C -0.00507 0.23607 -0.04638
 C7 C -0.01611 0.25172 0.07583
 C8 C -0.03640 0.25125 0.09745
 C9 C -0.04743 0.23177 0.10933
 C10 C -0.03684 0.21286 0.09873
 C11 C -0.01681 0.21347 0.07567
 C12 C 0.04876 0.25075 0.06267
 C13 C 0.06755 0.25087 0.09102
 C14 C 0.07172 0.23403 0.12469
 C15 C 0.05649 0.21722 0.12985
 C16 C 0.03765 0.21714 0.10154
 C17 C 0.04604 0.21434 -0.04354
 C18 C 0.06499 0.21302 -0.07102
 C19 C 0.07293 0.23037 -0.10033
 C20 C 0.06146 0.24894 -0.10232
 C21 C 0.04230 0.25010 -0.07560
 C22 C -0.01484 0.21795 -0.06861
 C23 C -0.03449 0.21919 -0.09297
 C24 C -0.04463 0.23858 -0.09529
 C25 C -0.03439 0.25683 -0.07435
 C26 C -0.01472 0.25559 -0.05025
 H27 H -0.00811 0.26687 0.06737
 H28 H -0.04279 0.26640 0.10682
 H29 H -0.04441 0.19734 0.10443
 H30 H -0.00964 0.19873 0.06574
 H31 H 0.04587 0.26392 0.03710
 H32 H 0.07875 0.26426 0.08691
 H33 H 0.02634 0.20386 0.10560
 H34 H 0.04024 0.20089 -0.02071
 H35 H 0.07365 0.19860 -0.06874
 H36 H 0.06724 0.26245 -0.12493
 H37 H 0.03364 0.26452 -0.07759
 H38 H -0.00754 0.20277 -0.06570
 H39 H -0.04210 0.20485 -0.10838
 H40 H -0.04168 0.27203 -0.07626
 H41 H -0.00723 0.26973 -0.03355
 H42 H 0.05932 0.20390 0.15498
 C43 C 0.49018 0.75791 0.46297
 C44 C 0.48950 0.75515 0.51522
 C45 C 0.46893 0.75140 0.54193
 C46 C 0.50912 0.75634 0.54653
 C47 C 0.51045 0.75750 0.43410
 C48 C 0.47049 0.76193 0.43420
 C49 C 0.46132 0.76663 0.57581
 C50 C 0.44018 0.76522 0.59221
 C51 C 0.42648 0.74863 0.57466
 C52 C 0.43460 0.73264 0.54373
 C53 C 0.45571 0.73392 0.52794
 C54 C 0.52283 0.77439 0.54343
 C55 C 0.54285 0.77441 0.56605
 C56 C 0.54954 0.75637 0.59235
 C57 C 0.53526 0.73876 0.59806
 C58 C 0.51514 0.73880 0.57549
 C59 C 0.51724 0.77473 0.40302
 C60 C 0.53765 0.77555 0.38178
 C61 C 0.55151 0.75914 0.39140
 C62 C 0.54422 0.74141 0.42022
 C63 C 0.52382 0.74051 0.44093
 C64 C 0.46074 0.74594 0.40392
 C65 C 0.43986 0.74785 0.38699
 C66 C 0.42859 0.76593 0.39952
 C67 C 0.43916 0.78260 0.42640
 C68 C 0.45986 0.78056 0.44381
 H69 H 0.47132 0.78024 0.58685
 H70 H 0.43421 0.77774 0.61602
 H71 H 0.42440 0.71955 0.53034
 H72 H 0.46146 0.72190 0.50228
 H73 H 0.51829 0.78819 0.52178
 H74 H 0.55328 0.78840 0.56206
 H75 H 0.50474 0.72473 0.57818
 H76 H 0.50714 0.78797 0.39722
 H77 H 0.54291 0.78939 0.35968
 H78 H 0.55443 0.72836 0.42730
 H79 H 0.51869 0.72686 0.46389
 H80 H 0.46870 0.73138 0.39664
 H81 H 0.43219 0.73464 0.36676
 H82 H 0.43117 0.79696 0.43556
 H83 H 0.46724 0.79305 0.46710
 H84 H 0.53998 0.72460 0.61790
 C85 C 0.98698 0.75069 -0.03893
 C86 C 0.98656 0.74900 0.01368
 C87 C 1.00626 0.74462 0.04219
 C88 C 0.96663 0.75152 0.04310
 C89 C 0.96719 0.74817 -0.06955
 C90 C 1.00743 0.75494 -0.06613
 C91 C 1.01727 0.72648 0.02979
 C92 C 1.03806 0.72446 0.04644
 C93 C 1.04827 0.74057 0.07580
 C94 C 1.03662 0.75794 0.09166
 C95 C 1.01567 0.75989 0.07517
 C96 C 0.95980 0.73647 0.08021
 C97 C 0.93968 0.73756 0.10261
 C98 C 0.92621 0.75364 0.08785
 C99 C 0.93356 0.76933 0.05300
 C100 C 0.95371 0.76846 0.03147
 C101 C 0.96113 0.76416 -0.10349
 C102 C 0.94085 0.76326 -0.12539
 C103 C 0.92644 0.74625 -0.11387
 C104 C 0.93315 0.72959 -0.08266
 C105 C 0.95334 0.73051 -0.06091
 C106 C 1.02087 0.77185 -0.04978
 C107 C 1.04200 0.77315 -0.06510
 C108 C 1.05011 0.75800 -0.09891
 C109 C 1.03579 0.74251 -0.12007
 C110 C 1.01468 0.74086 -0.10327
 H111 H 1.01015 0.71447 0.00465
 H112 H 1.04641 0.71063 0.03472
 H113 H 1.04407 0.77063 0.11416
 H114 H 1.00741 0.77404 0.08485
 H115 H 0.96959 0.72338 0.09004
 H116 H 0.93427 0.72536 0.12963
 H117 H 0.95893 0.78061 0.00410
 H118 H 0.97162 0.77789 -0.11065
 H119 H 0.93609 0.77634 -0.14923
 H120 H 0.92259 0.71606 -0.07410
 H121 H 0.95789 0.71782 -0.03549
 H122 H 1.01530 0.78334 -0.02246
 H123 H 1.05196 0.78612 -0.05015
 H124 H 1.04118 0.73045 -0.14603
 H125 H 1.00446 0.72777 -0.11660
 H126 H 0.92353 0.78206 0.04180
 C127 C 0.51555 0.23556 0.48590
 C128 C 0.51616 0.24003 0.53731
 C129 C 0.53671 0.24427 0.56371
 C130 C 0.49634 0.24194 0.56725
 C131 C 0.49574 0.23770 0.45644
 C132 C 0.53516 0.23102 0.45729
 C133 C 0.54335 0.23081 0.60313
 C134 C 0.56418 0.23272 0.62155
 C135 C 0.57856 0.24806 0.60054
 C136 C 0.57145 0.26228 0.56328
 C137 C 0.55064 0.26054 0.54546
 C138 C 0.48130 0.22492 0.56884
 C139 C 0.46145 0.22745 0.59106
 C140 C 0.45637 0.24697 0.61278
 C141 C 0.47185 0.26369 0.61342
 C142 C 0.49171 0.26118 0.59081
 C143 C 0.48821 0.25797 0.44761
 C144 C 0.46843 0.26027 0.42495
 C145 C 0.45573 0.24231 0.41172
 C146 C 0.46339 0.22200 0.41988
 C147 C 0.48346 0.21972 0.44151
 C148 C 0.54326 0.24536 0.42009
 C149 C 0.56389 0.24365 0.40140
 C150 C 0.57664 0.22737 0.41908
 C151 C 0.56782 0.21214 0.45356
 C152 C 0.54729 0.21398 0.47255
 H153 H 0.53278 0.21819 0.61764
 H154 H 0.56933 0.22160 0.65035
 H155 H 0.58213 0.27447 0.54721
 H156 H 0.54564 0.27128 0.51559
 H157 H 0.48477 0.20984 0.55162
 H158 H 0.45000 0.21416 0.59101
 H159 H 0.50313 0.27448 0.58983
 H160 H 0.49750 0.27197 0.45935
 H161 H 0.46274 0.27605 0.41911
 H162 H 0.45382 0.20799 0.40964
 H163 H 0.48906 0.20398 0.44851
 H164 H 0.53420 0.25872 0.40825
 H165 H 0.57021 0.25578 0.37533
 H166 H 0.57699 0.19913 0.46703
 H167 H 0.54120 0.20271 0.50110
 H168 H 0.46832 0.27893 0.62977
 C169 C 0.74633 -0.00073 -0.02468
 C170 C 0.74923 -0.00173 0.02772
 C171 C 0.75265 -0.02233 0.05420
 C172 C 0.74940 0.01781 0.05987
 C173 C 0.74732 0.01997 -0.05282
 C174 C 0.74169 -0.02041 -0.05504
 C175 C 0.74053 -0.02858 0.09747
 C176 C 0.74205 -0.04895 0.11852
 C177 C 0.75553 -0.06374 0.09614
 C178 C 0.76858 -0.05671 0.05463
 C179 C 0.76740 -0.03625 0.03467
 C180 C 0.73290 0.03198 0.05594
 C181 C 0.73473 0.05191 0.07929
 C182 C 0.75288 0.05789 0.10794
 C183 C 0.76876 0.04315 0.11454
 C184 C 0.76701 0.02326 0.09080
 C185 C 0.76376 0.03514 -0.04318
 C186 C 0.76294 0.05568 -0.06299
 C187 C 0.74616 0.06141 -0.09541
 C188 C 0.73067 0.04548 -0.10854
 C189 C 0.73115 0.02512 -0.08707
 C190 C 0.75482 -0.02586 -0.09611
 C191 C 0.75248 -0.04589 -0.11921
 C192 C 0.73688 -0.06104 -0.10164
 C193 C 0.72280 -0.05461 -0.06276
 C194 C 0.72513 -0.03460 -0.04008
 H195 H 0.72919 -0.01802 0.11358
 H196 H 0.73149 -0.05343 0.15000
 H197 H 0.78013 -0.06684 0.03782
 H198 H 0.77762 -0.03146 0.00271
 H199 H 0.71901 0.02791 0.03293
 H200 H 0.72205 0.06276 0.07447
 H201 H 0.77988 0.01256 0.09437
 H202 H 0.77694 0.03128 -0.01869
 H203 H 0.77584 0.06687 -0.05377
 H204 H 0.71727 0.04899 -0.13261
 H205 H 0.71836 0.01365 -0.09547
 H206 H 0.76767 -0.01507 -0.10832
 H207 H 0.76400 -0.04978 -0.14819
 H208 H 0.70969 -0.06485 -0.04974
 H209 H 0.71442 -0.03044 -0.00939
 H210 H 0.78295 0.04733 0.13634
 C211 C 0.24113 0.49909 0.45855
 C212 C 0.24255 0.49986 0.51100
 C213 C 0.24506 0.48020 0.54126
 C214 C 0.24257 0.52005 0.54011
 C215 C 0.23653 0.51793 0.42676
 C216 C 0.24555 0.47926 0.43108
 C217 C 0.22931 0.46386 0.53980
 C218 C 0.23254 0.44454 0.56415
 C219 C 0.25148 0.44135 0.59088
 C220 C 0.26686 0.45807 0.59411
 C221 C 0.26365 0.47739 0.56947
 C222 C 0.22899 0.52202 0.58259
 C223 C 0.22858 0.54112 0.60963
 C224 C 0.24177 0.55855 0.59458
 C225 C 0.25575 0.55638 0.55288
 C226 C 0.25630 0.53722 0.52623
 C227 C 0.24960 0.52352 0.38458
 C228 C 0.24654 0.54217 0.35705
 C229 C 0.23034 0.55557 0.37123
 C230 C 0.21669 0.54953 0.41203
 C231 C 0.21961 0.53074 0.43919
 C232 C 0.26634 0.47238 0.42885
 C233 C 0.27038 0.45263 0.40781
 C234 C 0.25362 0.43939 0.38969
 C235 C 0.23285 0.44645 0.39100
 C236 C 0.22887 0.46645 0.41098
 H237 H 0.21470 0.46596 0.51892
 H238 H 0.22025 0.43206 0.56197
 H239 H 0.28163 0.45598 0.61430
 H240 H 0.27593 0.48990 0.57094
 H241 H 0.21841 0.50889 0.59418
 H242 H 0.21762 0.54245 0.64154
 H243 H 0.26735 0.53582 0.49453
 H244 H 0.26270 0.51386 0.37412
 H245 H 0.25736 0.54655 0.32596
 H246 H 0.20390 0.55947 0.42317
 H247 H 0.20899 0.52644 0.47075
 H248 H 0.27932 0.48214 0.44449
 H249 H 0.28647 0.44736 0.40725
 H250 H 0.21976 0.43641 0.37697
 H251 H 0.21275 0.47158 0.41277
 H252 H 0.26634 0.56947 0.54117
 C253 C 0.24590 1.00033 -0.03009
 C254 C 0.24784 1.00041 0.02231
 C255 C 0.24617 1.02030 0.05180
 C256 C 0.25081 0.98084 0.05284
 C257 C 0.24417 0.98036 -0.06045
 C258 C 0.24571 1.02053 -0.05949
 C259 C 0.26403 1.02953 0.07605
 C260 C 0.26264 1.04864 0.10263
 C261 C 0.24310 1.05859 0.10701
 C262 C 0.22507 1.04868 0.08363
 C263 C 0.22669 1.02991 0.05578
 C264 C 0.26660 0.96678 0.03976
 C265 C 0.26817 0.94769 0.06662
 C266 C 0.25432 0.94260 0.10773
 C267 C 0.23922 0.95715 0.12229
 C268 C 0.23749 0.97610 0.09509
 C269 C 0.23000 0.96367 -0.04595
 C270 C 0.22948 0.94453 -0.07290
 C271 C 0.24258 0.94180 -0.11643
 C272 C 0.25587 0.95917 -0.13245
 C273 C 0.25674 0.97809 -0.10457
 C274 C 0.22874 1.02466 -0.09214
 C275 C 0.22844 1.04374 -0.11957
 C276 C 0.24519 1.05924 -0.11496
 C277 C 0.26242 1.05455 -0.08271
 C278 C 0.26271 1.03542 -0.05574
 H279 H 0.27913 1.02207 0.07369
 H280 H 0.27680 1.05509 0.12136
 H281 H 0.20983 1.05587 0.08447
 H282 H 0.21275 1.02285 0.03719
 H283 H 0.27739 0.97039 0.00810
 H284 H 0.28013 0.93683 0.05515
 H285 H 0.22527 0.98675 0.10603
 H286 H 0.21946 0.96537 -0.01335
 H287 H 0.21821 0.93217 -0.06036
 H288 H 0.26661 0.95790 -0.16475
 H289 H 0.26769 0.99083 -0.11674
 H290 H 0.21550 1.01325 -0.09563
 H291 H 0.21450 1.04654 -0.14237
 H292 H 0.27626 1.06517 -0.07955
 H293 H 0.27633 1.03213 -0.03214
 H294 H 0.22825 0.95352 0.15357
 C295 C 0.74186 0.49963 0.48280
 C296 C 0.74392 0.50055 0.53518
 C297 C 0.74554 0.52138 0.56210
 C298 C 0.74315 0.48105 0.56737
 C299 C 0.74278 0.47941 0.45365
 C300 C 0.73860 0.51928 0.45280
 C301 C 0.76188 0.53631 0.54951
 C302 C 0.76156 0.55704 0.56830
 C303 C 0.74517 0.56311 0.60109
 C304 C 0.72950 0.54779 0.61611
 C305 C 0.72966 0.52710 0.59667
 C306 C 0.76058 0.47600 0.59784
 C307 C 0.76001 0.45733 0.62727
 C308 C 0.74176 0.44377 0.62777
 C309 C 0.72417 0.44912 0.59809
 C310 C 0.72492 0.46752 0.56780
 C311 C 0.72693 0.47377 0.41769
 C312 C 0.72794 0.45502 0.38922
 C313 C 0.74497 0.44160 0.39570
 C314 C 0.76092 0.44740 0.43152
 C315 C 0.75986 0.46612 0.46007
 C316 C 0.71973 0.52998 0.45846
 C317 C 0.71780 0.55007 0.43661
 C318 C 0.73483 0.55986 0.40952
 C319 C 0.75345 0.54882 0.40239
 C320 C 0.75521 0.52851 0.42330
 H321 H 0.77449 0.53209 0.52364
 H322 H 0.77406 0.56840 0.55690
 H323 H 0.71667 0.55205 0.64130
 H324 H 0.71691 0.51582 0.60680
 H325 H 0.77474 0.48631 0.59805
 H326 H 0.77371 0.45356 0.65008
 H327 H 0.71127 0.47128 0.54478
 H328 H 0.71364 0.48380 0.41199
 H329 H 0.71525 0.45092 0.36251
 H330 H 0.77446 0.43768 0.43677
 H331 H 0.77255 0.47042 0.48662
 H332 H 0.70682 0.52307 0.48135
 H333 H 0.70335 0.55837 0.44272
 H334 H 0.76672 0.55609 0.38139
 H335 H 0.76991 0.52047 0.41890
 H336 H 0.70997 0.43885 0.59772
 O337 O 0.25042 0.26268 0.35057
 O338 O 0.25647 0.21002 0.29292
 O339 O 0.27953 0.23420 0.35448
 O340 O 0.22802 0.23823 0.28854
 O341 O 0.24446 0.25244 0.22081
 O342 O 0.29544 0.24972 0.28767
 O343 O 0.27372 0.22484 0.22690
 O344 O 0.26628 0.27742 0.28269
 Cu345 Cu 0.25203 0.23484 0.32862
 Cu346 Cu 0.27158 0.25267 0.24786
 C347 C 0.25712 0.27910 0.32608
 C348 C 0.26617 0.20847 0.25019
 C349 C 0.29634 0.24119 0.33202
 C350 C 0.22750 0.24577 0.24300
 O351 O 0.75378 0.79146 0.34458
 O352 O 0.75862 0.73542 0.38226
 O353 O 0.78375 0.76408 0.34187
 O354 O 0.72845 0.76220 0.38710
 O355 O 0.71757 0.75395 0.30838
 O356 O 0.77301 0.75305 0.26504
 O357 O 0.74619 0.72539 0.30604
 O358 O 0.74451 0.78137 0.26595
 Cu359 Cu 0.75712 0.76442 0.37169
 Cu360 Cu 0.74417 0.75246 0.27860
 C361 C 0.74880 0.79599 0.29841
 C362 C 0.75318 0.72085 0.35054
 C363 C 0.78787 0.75843 0.29602
 C364 C 0.71356 0.75780 0.35543
 O365 O 0.79312 0.24854 0.23979
 O366 O 0.73647 0.24339 0.27574
 O367 O 0.76289 0.21988 0.22825
 O368 O 0.76704 0.27161 0.29239
 O369 O 0.75767 0.28753 0.22058
 O370 O 0.75485 0.23528 0.15471
 O371 O 0.72813 0.25855 0.20209
 O372 O 0.78446 0.26527 0.16840
 Cu373 Cu 0.76580 0.24439 0.26636
 Cu374 Cu 0.75555 0.26327 0.17913
 C375 C 0.79840 0.25780 0.19774
 C376 C 0.72258 0.24988 0.24456
 C377 C 0.75811 0.21858 0.18075
 C378 C 0.76273 0.28839 0.26814
 O379 O 0.24387 0.76712 0.17074
 O380 O 0.23630 0.71532 0.23469
 O381 O 0.21130 0.74205 0.19200
 O382 O 0.26885 0.74073 0.21414
 O383 O 0.26489 0.75661 0.28912
 O384 O 0.20738 0.75772 0.26727
 O385 O 0.23250 0.73109 0.30988
 O386 O 0.23993 0.78298 0.24577
 Cu387 Cu 0.24044 0.73967 0.19541
 Cu388 Cu 0.23577 0.75869 0.28555
 C389 C 0.24323 0.78395 0.19737
 C390 C 0.23316 0.71428 0.28312
 C391 C 0.19949 0.75014 0.22579
 C392 C 0.27674 0.74857 0.25538
 O393 O 0.72711 0.26244 0.83309
 O394 O 0.78305 0.26863 0.87004
 O395 O 0.75676 0.29219 0.81993
 O396 O 0.75413 0.23842 0.87852
 O397 O 0.76132 0.22480 0.80232
 O398 O 0.76810 0.27834 0.74728
 O399 O 0.79236 0.25317 0.79766
 O400 O 0.73634 0.25057 0.75656
 Cu401 Cu 0.75429 0.26686 0.85777
 Cu402 Cu 0.76543 0.25041 0.76841
 C403 C 0.72210 0.25566 0.78845
 C404 C 0.79726 0.26148 0.84100
 C405 C 0.76335 0.29438 0.77366
 C406 C 0.75708 0.22242 0.84996
 O407 O 0.21103 0.74031 0.78525
 O408 O 0.26880 0.74483 0.76743
 O409 O 0.24041 0.76805 0.80917
 O410 O 0.23910 0.71666 0.74249
 O411 O 0.23465 0.73270 0.66772
 O412 O 0.23616 0.78412 0.73432
 O413 O 0.26428 0.76033 0.69190
 O414 O 0.20644 0.75583 0.70972
 Cu415 Cu 0.24032 0.74076 0.78352
 Cu416 Cu 0.23494 0.75996 0.69348
 C417 C 0.19891 0.74742 0.75081
 C418 C 0.27639 0.75321 0.72638
 C419 C 0.23835 0.78489 0.78309
 C420 C 0.23672 0.71585 0.69377
 O421 O 0.26554 0.28214 0.72320
 O422 O 0.26968 0.23091 0.78931
 O423 O 0.29414 0.25389 0.72830
 O424 O 0.24148 0.25974 0.78538
 O425 O 0.22672 0.24291 0.71900
 O426 O 0.27965 0.23783 0.66065
 O427 O 0.25524 0.21467 0.72181
 O428 O 0.25063 0.26597 0.65619
 Cu429 Cu 0.26921 0.25828 0.76326
 Cu430 Cu 0.25162 0.23873 0.68256
 C431 C 0.25729 0.28287 0.67854
 C432 C 0.26305 0.21400 0.76692
 C433 C 0.29597 0.24499 0.68469
 C434 C 0.22511 0.25224 0.76222
 O435 O 0.74348 0.78591 0.72312
 O436 O 0.74360 0.73036 0.67913
 O437 O 0.77159 0.75686 0.72024
 O438 O 0.71590 0.75986 0.67907
 O439 O 0.72667 0.77118 0.60236
 O440 O 0.78212 0.76742 0.64277
 O441 O 0.75382 0.74122 0.60165
 O442 O 0.75452 0.79679 0.64630
 Cu443 Cu 0.74258 0.75715 0.70811
 Cu444 Cu 0.75534 0.77020 0.61564
 C445 C 0.74906 0.80087 0.69238
 C446 C 0.74864 0.72625 0.63282
 C447 C 0.78640 0.76167 0.68846
 C448 C 0.71178 0.76617 0.63363
 C449 C 0.25895 0.09306 0.13400
 C450 C 0.25741 0.11264 0.15888
 C451 C 0.23865 0.11722 0.18560
 C452 C 0.22157 0.10235 0.18589
 C453 C 0.22294 0.08315 0.15965
 C454 C 0.24169 0.07807 0.13358
 C455 C 0.23715 0.13671 0.21092
 C456 C 0.25392 0.15198 0.20827
 C457 C 0.27245 0.14766 0.18016
 C458 C 0.27422 0.12789 0.15637
 C459 C 0.28878 0.16333 0.17563
 C460 C 0.28668 0.18319 0.19832
 C461 C 0.26850 0.18745 0.22701
 C462 C 0.25225 0.17172 0.23232
 H463 H 0.27327 0.09011 0.11262
 H464 H 0.20705 0.10560 0.20619
 H465 H 0.20947 0.07198 0.16177
 H466 H 0.22281 0.14015 0.23180
 H467 H 0.28850 0.12451 0.13517
 H468 H 0.30303 0.16033 0.15400
 H469 H 0.29936 0.19517 0.19391
 H470 H 0.23805 0.17510 0.25383
 C471 C 0.74745 0.60229 0.58323
 C472 C 0.74656 0.62346 0.59960
 C473 C 0.74257 0.62790 0.65216
 C474 C 0.73925 0.61109 0.68722
 C475 C 0.73997 0.59008 0.67053
 C476 C 0.74422 0.58546 0.61858
 C477 C 0.74201 0.64904 0.66886
 C478 C 0.74531 0.66583 0.63365
 C479 C 0.74899 0.66138 0.58098
 C480 C 0.74960 0.64024 0.56427
 C481 C 0.75209 0.67817 0.54588
 C482 C 0.75197 0.69919 0.56273
 C483 C 0.74853 0.70388 0.61507
 C484 C 0.74505 0.68702 0.65029
 H485 H 0.75041 0.59888 0.54288
 H486 H 0.73613 0.61420 0.72761
 H487 H 0.73753 0.57739 0.69844
 H488 H 0.73907 0.65241 0.70924
 H489 H 0.75253 0.63687 0.52389
 H490 H 0.75463 0.67504 0.50538
 H491 H 0.75453 0.71179 0.53464
 H492 H 0.74232 0.69036 0.69075
 C493 C 0.75081 0.90922 0.16527
 C494 C 0.75093 0.88794 0.18178
 C495 C 0.75517 0.87184 0.14584
 C496 C 0.75968 0.87726 0.09449
 C497 C 0.76007 0.89841 0.07860
 C498 C 0.75556 0.91485 0.11344
 C499 C 0.75499 0.85057 0.16176
 C500 C 0.75115 0.84516 0.21358
 C501 C 0.74746 0.86125 0.25001
 C502 C 0.74713 0.88252 0.23379
 C503 C 0.74435 0.85576 0.30213
 C504 C 0.74493 0.83457 0.31799
 C505 C 0.74821 0.81844 0.28188
 C506 C 0.75121 0.82388 0.22962
 H507 H 0.74793 0.92138 0.19357
 H508 H 0.76288 0.86510 0.06639
 H509 H 0.76297 0.90161 0.03806
 H510 H 0.75807 0.83825 0.13391
 H511 H 0.74412 0.89484 0.26168
 H512 H 0.74161 0.86787 0.33068
 H513 H 0.74257 0.83075 0.35846
 H514 H 0.75403 0.81159 0.20154
 C515 C 0.25011 0.40174 0.58699
 C516 C 0.25328 0.38187 0.60929
 C517 C 0.26182 0.38070 0.65965
 C518 C 0.26722 0.39941 0.68658
 C519 C 0.26399 0.41913 0.66409
 C520 C 0.25528 0.42047 0.61436
 C521 C 0.26467 0.36088 0.68244
 C522 C 0.25897 0.34222 0.65566
 C523 C 0.25059 0.34335 0.60516
 C524 C 0.24788 0.36318 0.58216
 C525 C 0.24486 0.32459 0.57875
 C526 C 0.24715 0.30489 0.60241
 C527 C 0.25532 0.30362 0.65279
 C528 C 0.26134 0.32241 0.67897
 H529 H 0.24372 0.40264 0.54822
 H530 H 0.27378 0.39879 0.72519
 H531 H 0.26796 0.43337 0.68595
 H532 H 0.27113 0.35999 0.72116
 H533 H 0.24138 0.36408 0.54347
 H534 H 0.23845 0.32515 0.53998
 H535 H 0.24245 0.29065 0.58132
 H536 H 0.26766 0.32168 0.71783
 C537 C 0.91873 0.24815 0.12141
 C538 C 0.89789 0.24729 0.14051
 C539 C 0.89047 0.22963 0.16990
 C540 C 0.90387 0.21295 0.17884
 C541 C 0.92438 0.21357 0.15852
 C542 C 0.93245 0.23122 0.12947
 C543 C 0.86968 0.22876 0.18926
 C544 C 0.85596 0.24506 0.17809
 C545 C 0.86322 0.26250 0.14745
 C546 C 0.88420 0.26365 0.12949
 C547 C 0.84925 0.27835 0.13454
 C548 C 0.82821 0.27682 0.15122
 C549 C 0.82088 0.25969 0.18213
 C550 C 0.83493 0.24397 0.19598
 H551 H 0.92349 0.26155 0.09723
 H552 H 0.89847 0.19930 0.20154
 H553 H 0.93411 0.20048 0.16844
 H554 H 0.86406 0.21522 0.21212
 H555 H 0.88975 0.27710 0.10623
 H556 H 0.85452 0.29176 0.11089
 H557 H 0.81764 0.28910 0.14012
 H558 H 0.82928 0.23054 0.21917
 C559 C 0.39556 0.75204 0.63459
 C560 C 0.37362 0.75244 0.64322
 C561 C 0.35948 0.75031 0.60097
 C562 C 0.36745 0.74729 0.55114
 C563 C 0.38921 0.74634 0.54316
 C564 C 0.40344 0.74889 0.58456
 C565 C 0.33760 0.75098 0.60920
 C566 C 0.32958 0.75312 0.65931
 C567 C 0.34362 0.75472 0.70178
 C568 C 0.36558 0.75468 0.69339
 C569 C 0.33542 0.75601 0.75200
 C570 C 0.31351 0.75550 0.76008
 C571 C 0.29950 0.75424 0.71802
 C572 C 0.30765 0.75326 0.66767
 H573 H 0.40649 0.75381 0.66671
 H574 H 0.35685 0.74554 0.51839
 H575 H 0.39502 0.74393 0.50433
 H576 H 0.32681 0.74949 0.57671
 H577 H 0.37637 0.75606 0.72590
 H578 H 0.34592 0.75713 0.78503
 H579 H 0.30751 0.75626 0.79921
 H580 H 0.29690 0.75196 0.63509
 C581 C 0.07990 0.74638 0.13410
 C582 C 0.10182 0.74599 0.14307
 C583 C 0.11538 0.73908 0.10357
 C584 C 0.10686 0.73279 0.05584
 C585 C 0.08509 0.73318 0.04729
 C586 C 0.07136 0.73990 0.08623
 C587 C 0.13725 0.73857 0.11232
 C588 C 0.14580 0.74489 0.16009
 C589 C 0.13231 0.75191 0.19955
 C590 C 0.11040 0.75239 0.19084
 C591 C 0.14098 0.75834 0.24712
 C592 C 0.16280 0.75780 0.25556
 C593 C 0.17637 0.75074 0.21669
 C594 C 0.16768 0.74431 0.16895
 H595 H 0.06948 0.75149 0.16450
 H596 H 0.11703 0.72762 0.02501
 H597 H 0.07902 0.72855 0.00968
 H598 H 0.14760 0.73324 0.08198
 H599 H 0.10005 0.75774 0.22116
 H600 H 0.13090 0.76379 0.27780
 H601 H 0.16905 0.76284 0.29270
 H602 H 0.17794 0.73890 0.13854
 C603 C 0.60720 0.24815 0.66751
 C604 C 0.62872 0.24906 0.68122
 C605 C 0.64443 0.25002 0.64218
 C606 C 0.63836 0.25029 0.59015
 C607 C 0.61694 0.24980 0.57689
 C608 C 0.60120 0.24867 0.61533
 C609 C 0.66594 0.25091 0.65573
 C610 C 0.67197 0.25129 0.70785
 C611 C 0.65625 0.25064 0.74687
 C612 C 0.63475 0.24932 0.73333
 C613 C 0.66232 0.25154 0.79889
 C614 C 0.68373 0.25322 0.81220
 C615 C 0.69950 0.25372 0.77380
 C616 C 0.69349 0.25259 0.72160
 H617 H 0.59512 0.24748 0.69732
 H618 H 0.65016 0.25104 0.55971
 H619 H 0.61262 0.25010 0.53644
 H620 H 0.67797 0.25157 0.62575
 H621 H 0.62272 0.24875 0.76331
 H622 H 0.65050 0.25110 0.82928
 H623 H 0.68796 0.25398 0.85270
 H624 H 0.70552 0.25313 0.69168
 C625 C 0.75258 0.09996 0.91631
 C626 C 0.75118 0.12092 0.89846
 C627 C 0.74257 0.12470 0.84914
 C628 C 0.73481 0.10758 0.81937
 C629 C 0.73567 0.08683 0.83792
 C630 C 0.74486 0.08255 0.88632
 C631 C 0.74185 0.14553 0.83030
 C632 C 0.74920 0.16270 0.86066
 C633 C 0.75700 0.15903 0.91092
 C634 C 0.75814 0.13815 0.92933
 C635 C 0.76369 0.17635 0.94169
 C636 C 0.76293 0.19708 0.92260
 C637 C 0.75598 0.20078 0.87201
 C638 C 0.74900 0.18351 0.84136
 H639 H 0.75888 0.09741 0.95463
 H640 H 0.72810 0.11023 0.78150
 H641 H 0.72999 0.07412 0.81288
 H642 H 0.73557 0.14837 0.79204
 H643 H 0.76447 0.13531 0.96755
 H644 H 0.76972 0.17385 0.98029
 H645 H 0.76847 0.21017 0.94673
 H646 H 0.74342 0.18629 0.80242
 C647 C 0.22655 0.59478 0.37491
 C648 C 0.22675 0.61474 0.35100
 C649 C 0.22861 0.61624 0.29664
 C650 C 0.23000 0.59775 0.26714
 C651 C 0.23010 0.57796 0.29134
 C652 C 0.22855 0.57632 0.34533
 C653 C 0.22950 0.63620 0.27271
 C654 C 0.22887 0.65470 0.30248
 C655 C 0.22683 0.65322 0.35679
 C656 C 0.22565 0.63324 0.38070
 C657 C 0.22631 0.67179 0.38631
 C658 C 0.22814 0.69166 0.36234
 C659 C 0.23047 0.69330 0.30843
 C660 C 0.23061 0.67468 0.27874
 H661 H 0.22566 0.59364 0.41667
 H662 H 0.23139 0.59862 0.22546
 H663 H 0.23151 0.56389 0.26789
 H664 H 0.23108 0.63735 0.23105
 H665 H 0.22425 0.63210 0.42240
 H666 H 0.22474 0.67096 0.42797
 H667 H 0.22793 0.70575 0.38612
 H668 H 0.23234 0.67569 0.23713
 C669 C 0.23854 0.90286 0.88425
 C670 C 0.23925 0.88329 0.85892
 C671 C 0.24356 0.88271 0.80541
 C672 C 0.24749 0.90170 0.77837
 C673 C 0.24727 0.92113 0.80403
 C674 C 0.24266 0.92211 0.85736
 C675 C 0.24404 0.86316 0.77989
 C676 C 0.24068 0.84415 0.80748
 C677 C 0.23686 0.84473 0.86129
 C678 C 0.23601 0.86428 0.88659
 C679 C 0.23401 0.82570 0.88897
 C680 C 0.23480 0.80627 0.86354
 C681 C 0.23821 0.80551 0.80992
 C682 C 0.24116 0.82456 0.78211
 H683 H 0.23583 0.90286 0.92557
 H684 H 0.25079 0.90155 0.73728
 H685 H 0.24991 0.93540 0.78122
 H686 H 0.24718 0.86273 0.73870
 H687 H 0.23294 0.86470 0.92782
 H688 H 0.23117 0.82585 0.93026
 H689 H 0.23241 0.79180 0.88580
 H690 H 0.24397 0.82415 0.74081
 C691 C 0.75352 0.40313 0.38765
 C692 C 0.75457 0.38435 0.35884
 C693 C 0.74811 0.38403 0.30657
 C694 C 0.74087 0.40258 0.28394
 C695 C 0.73992 0.42122 0.31282
 C696 C 0.74615 0.42173 0.36499
 C697 C 0.74891 0.36519 0.27788
 C698 C 0.75604 0.34662 0.30087
 C699 C 0.76263 0.34703 0.35309
 C700 C 0.76188 0.36586 0.38167
 C701 C 0.76972 0.32854 0.37612
 C702 C 0.77001 0.30969 0.34808
 C703 C 0.76328 0.30889 0.29629
 C704 C 0.75647 0.32756 0.27275
 H705 H 0.75812 0.40315 0.42797
 H706 H 0.73594 0.40269 0.24387
 H707 H 0.73451 0.43535 0.29405
 H708 H 0.74386 0.36495 0.23785
 H709 H 0.76686 0.36608 0.42176
 H710 H 0.77487 0.32859 0.41604
 H711 H 0.77537 0.29563 0.36728
 H712 H 0.75120 0.32720 0.23292
 C713 C 0.10923 0.24513 0.87795
 C714 C 0.12871 0.24386 0.85227
 C715 C 0.13208 0.22663 0.81880
 C716 C 0.11601 0.21081 0.81228
 C717 C 0.09683 0.21199 0.83883
 C718 C 0.09325 0.22918 0.87160
 C719 C 0.15151 0.22537 0.79288
 C720 C 0.16781 0.24084 0.80096
 C721 C 0.16454 0.25783 0.83523
 C722 C 0.14495 0.25937 0.86014
 C723 C 0.18106 0.27288 0.84458
 C724 C 0.20072 0.27101 0.82070
 C725 C 0.20409 0.25433 0.78621
 C726 C 0.18747 0.23939 0.77607
 H727 H 0.10662 0.25829 0.90375
 H728 H 0.11834 0.19746 0.78695
 H729 H 0.08464 0.19959 0.83336
 H730 H 0.15406 0.21220 0.76705
 H731 H 0.14244 0.27247 0.88622
 H732 H 0.17886 0.28595 0.87084
 H733 H 0.21329 0.28272 0.82897
 H734 H 0.19003 0.22632 0.74997
 C735 C 0.59028 0.75591 0.40714
 C736 C 0.61143 0.75733 0.39048
 C737 C 0.61616 0.76358 0.33910
 C738 C 0.59966 0.76853 0.30553
 C739 C 0.57865 0.76723 0.32258
 C740 C 0.57377 0.76077 0.37331
 C741 C 0.63727 0.76478 0.32215
 C742 C 0.65373 0.76004 0.35607
 C743 C 0.64900 0.75409 0.40766
 C744 C 0.62788 0.75263 0.42444
 C745 C 0.66552 0.74967 0.44163
 C746 C 0.68656 0.75139 0.42491
 C747 C 0.69139 0.75693 0.37353
 C748 C 0.67487 0.76117 0.33922
 H749 H 0.58666 0.75127 0.44665
 H750 H 0.60301 0.77338 0.26607
 H751 H 0.56615 0.77097 0.29589
 H752 H 0.64090 0.76946 0.28266
 H753 H 0.62425 0.74788 0.46388
 H754 H 0.66217 0.74487 0.48110
 H755 H 0.69905 0.74790 0.45188
 H756 H 0.67851 0.76557 0.29957
 C757 C 0.89909 0.75280 0.81800
 C758 C 0.87787 0.75309 0.80191
 C759 C 0.86144 0.74701 0.83680
 C760 C 0.86649 0.74066 0.88701
 C761 C 0.88760 0.74034 0.90261
 C762 C 0.90411 0.74638 0.86841
 C763 C 0.84023 0.74739 0.82106
 C764 C 0.83518 0.75375 0.77080
 C765 C 0.85158 0.75974 0.73578
 C766 C 0.87281 0.75938 0.75154
 C767 C 0.84645 0.76604 0.68556
 C768 C 0.82528 0.76653 0.67020
 C769 C 0.80882 0.76073 0.70475
 C770 C 0.81395 0.75429 0.75508
 H771 H 0.91170 0.75733 0.79121
 H772 H 0.85411 0.73602 0.91430
 H773 H 0.89102 0.73564 0.94187
 H774 H 0.82767 0.74277 0.84795
 H775 H 0.88538 0.76402 0.72468
 H776 H 0.85880 0.77066 0.65818
 H777 H 0.82182 0.77156 0.63120
 H778 H 0.80144 0.74976 0.78214
 C779 C 0.41644 0.23551 0.41422
 C780 C 0.39611 0.23885 0.39475
 C781 C 0.39387 0.25144 0.34992
 C782 C 0.41189 0.26072 0.32587
 C783 C 0.43198 0.25762 0.34603
 C784 C 0.43442 0.24495 0.39003
 C785 C 0.37369 0.25463 0.32983
 C786 C 0.35564 0.24552 0.35405
 C787 C 0.35774 0.23324 0.39935
 C788 C 0.37799 0.22994 0.41942
 C789 C 0.33952 0.22434 0.42345
 C790 C 0.31946 0.22727 0.40233
 C791 C 0.31729 0.23911 0.35670
 C792 C 0.33552 0.24837 0.33318
 H793 H 0.41831 0.22597 0.44869
 H794 H 0.41043 0.27046 0.29164
 H795 H 0.44571 0.26503 0.32710
 H796 H 0.37203 0.26415 0.29523
 H797 H 0.37964 0.22043 0.45403
 H798 H 0.34079 0.21492 0.45825
 H799 H 0.30568 0.21996 0.42123
 H800 H 0.33411 0.25763 0.29811
 C801 C 0.74355 0.91272 0.82954
 C802 C 0.74294 0.89164 0.81166
 C803 C 0.73463 0.87515 0.84368
 C804 C 0.72691 0.87996 0.89270
 C805 C 0.72747 0.90088 0.91019
 C806 C 0.73582 0.91776 0.87921
 C807 C 0.73420 0.85407 0.82636
 C808 C 0.74190 0.84923 0.77714
 C809 C 0.75003 0.86572 0.74475
 C810 C 0.75052 0.88681 0.76220
 C811 C 0.75758 0.86081 0.69544
 C812 C 0.75716 0.83978 0.67842
 C813 C 0.74925 0.82320 0.71041
 C814 C 0.74161 0.82812 0.75984
 H815 H 0.74942 0.92512 0.80365
 H816 H 0.72065 0.86747 0.91794
 H817 H 0.72218 0.90343 0.94934
 H818 H 0.72788 0.84144 0.85120
 H819 H 0.75685 0.89944 0.73736
 H820 H 0.76385 0.87324 0.67004
 H821 H 0.76316 0.83649 0.64020
 H822 H 0.73539 0.81554 0.78492
 C823 C 0.24783 0.40016 0.39499
 C824 C 0.25212 0.37965 0.37829
 C825 C 0.26622 0.37700 0.33651
 C826 C 0.27612 0.39485 0.31293
 C827 C 0.27204 0.41517 0.33042
 C828 C 0.25776 0.41794 0.37110
 C829 C 0.27018 0.35658 0.31890
 C830 C 0.26036 0.33876 0.34271
 C831 C 0.24664 0.34135 0.38522
 C832 C 0.24257 0.36180 0.40272
 C833 C 0.23709 0.32340 0.40917
 C834 C 0.24079 0.30311 0.39060
 C835 C 0.25404 0.30042 0.34764
 C836 C 0.26392 0.31837 0.32424
 H837 H 0.23705 0.40233 0.42699
 H838 H 0.28703 0.39308 0.28107
 H839 H 0.27985 0.42880 0.31189
 H840 H 0.28083 0.35456 0.28654
 H841 H 0.23193 0.36381 0.43509
 H842 H 0.22659 0.32507 0.44190
 H843 H 0.23299 0.28953 0.40934
 H844 H 0.27430 0.31652 0.29133
 C845 C 0.25564 0.09724 0.87786
 C846 C 0.25530 0.11669 0.85171
 C847 C 0.24400 0.11814 0.80491
 C848 C 0.23314 0.10013 0.78524
 C849 C 0.23342 0.08081 0.81160
 C850 C 0.24476 0.07891 0.85832
 C851 C 0.24367 0.13757 0.77863
 C852 C 0.25433 0.15564 0.79892
 C853 C 0.26550 0.15425 0.84602
 C854 C 0.26596 0.13477 0.87204
 C855 C 0.27593 0.17241 0.86645
 C856 C 0.27521 0.19182 0.84063
 C857 C 0.26418 0.19338 0.79374
 C858 C 0.25385 0.17514 0.77302
 H859 H 0.26372 0.09683 0.91468
 H860 H 0.22448 0.10094 0.74922
 H861 H 0.22539 0.06724 0.79374
 H862 H 0.23501 0.13866 0.74261
 H863 H 0.27456 0.13371 0.90815
 H864 H 0.28455 0.17162 0.90253
 H865 H 0.28332 0.20563 0.85739
 H866 H 0.24517 0.17615 0.73704
 C867 C 0.74873 0.59752 0.40661
 C868 C 0.74700 0.61875 0.39133
 C869 C 0.73004 0.62438 0.35914
 C870 C 0.71497 0.60873 0.34340
 C871 C 0.71659 0.58772 0.35966
 C872 C 0.73350 0.58195 0.39107
 C873 C 0.72828 0.64557 0.34369
 C874 C 0.74299 0.66129 0.36089
 C875 C 0.75976 0.65570 0.39373
 C876 C 0.76177 0.63445 0.40834
 C877 C 0.77412 0.67152 0.41189
 C878 C 0.77169 0.69274 0.39851
 C879 C 0.75528 0.69843 0.36538
 C880 C 0.74108 0.68259 0.34627
 H881 H 0.76161 0.59316 0.43163
 H882 H 0.70183 0.61277 0.31895
 H883 H 0.70469 0.57590 0.34752
 H884 H 0.71531 0.64986 0.31886
 H885 H 0.77465 0.63018 0.43346
 H886 H 0.78702 0.66754 0.43718
 H887 H 0.78286 0.70471 0.41342
 H888 H 0.72830 0.68691 0.32093
 C889 C 0.08009 0.75080 0.84346
 C890 C 0.10203 0.75065 0.83441
 C891 C 0.11632 0.75653 0.87439
 C892 C 0.10854 0.76315 0.92197
 C893 C 0.08680 0.76412 0.93001
 C894 C 0.07215 0.75777 0.89124
 C895 C 0.13819 0.75599 0.86607
 C896 C 0.14605 0.75050 0.81754
 C897 C 0.13185 0.74541 0.77676
 C898 C 0.10991 0.74511 0.78573
 C899 C 0.13989 0.74103 0.72754
 C900 C 0.16177 0.74185 0.71880
 C901 C 0.17589 0.74639 0.75950
 C902 C 0.16794 0.75052 0.80887
 H903 H 0.06932 0.74645 0.81235
 H904 H 0.11928 0.76767 0.95306
 H905 H 0.08157 0.76888 0.96791
 H906 H 0.14911 0.76026 0.89706
 H907 H 0.09901 0.74096 0.75466
 H908 H 0.12927 0.73725 0.69571
 H909 H 0.16770 0.73866 0.68044
 H910 H 0.17883 0.75440 0.84015
 C911 C 0.60618 0.23335 0.35468
 C912 C 0.62782 0.23460 0.34213
 C913 C 0.64299 0.22926 0.37958
 C914 C 0.63623 0.22267 0.42884
 C915 C 0.61468 0.22167 0.44118
 C916 C 0.59941 0.22713 0.40445
 C917 C 0.66466 0.23084 0.36740
 C918 C 0.67137 0.23790 0.31837
 C919 C 0.65617 0.24322 0.28096
 C920 C 0.63451 0.24141 0.29295
 C921 C 0.66288 0.25046 0.23221
 C922 C 0.68444 0.25258 0.22062
 C923 C 0.69976 0.24739 0.25742
 C924 C 0.69305 0.23993 0.30628
 H925 H 0.59461 0.23733 0.32573
 H926 H 0.64762 0.21861 0.45813
 H927 H 0.61004 0.21714 0.48005
 H928 H 0.67628 0.22679 0.39621
 H929 H 0.62289 0.24556 0.26423
 H930 H 0.65145 0.25461 0.20309
 H931 H 0.68912 0.25829 0.18263
 H932 H 0.70468 0.23590 0.33506
 C933 C 0.91834 0.25102 0.90826
 C934 C 0.89770 0.25162 0.88860
 C935 C 0.89241 0.24076 0.84235
 C936 C 0.90790 0.22952 0.81657
 C937 C 0.92840 0.22890 0.83662
 C938 C 0.93381 0.23962 0.88258
 C939 C 0.87168 0.24113 0.82298
 C940 C 0.85615 0.25205 0.84957
 C941 C 0.86151 0.26291 0.89580
 C942 C 0.88225 0.26270 0.91488
 C943 C 0.84597 0.27363 0.92258
 C944 C 0.82520 0.27338 0.90423
 C945 C 0.81958 0.26250 0.85856
 C946 C 0.83524 0.25202 0.83111
 H947 H 0.92224 0.25905 0.94422
 H948 H 0.90414 0.22112 0.78106
 H949 H 0.94011 0.22015 0.81599
 H950 H 0.86760 0.23274 0.78759
 H951 H 0.88631 0.27098 0.95045
 H952 H 0.84981 0.28203 0.95805
 H953 H 0.81348 0.28161 0.92613
 H954 H 0.83111 0.24350 0.79598
 C955 C 0.39681 0.75801 0.34274
 C956 C 0.37485 0.75792 0.33392
 C957 C 0.36143 0.76679 0.37111
 C958 C 0.37014 0.77564 0.41627
 C959 C 0.39193 0.77563 0.42478
 C960 C 0.40553 0.76676 0.38837
 C961 C 0.33950 0.76659 0.36278
 C962 C 0.33075 0.75763 0.31769
 C963 C 0.34412 0.74877 0.28040
 C964 C 0.36609 0.74899 0.28870
 C965 C 0.33524 0.73982 0.23541
 C966 C 0.31335 0.73968 0.22737
 C967 C 0.29991 0.74848 0.26416
 C968 C 0.30880 0.75742 0.30935
 H969 H 0.40708 0.75132 0.31406
 H970 H 0.36008 0.78238 0.44532
 H971 H 0.39806 0.78208 0.46077
 H972 H 0.32925 0.77338 0.39142
 H973 H 0.37633 0.74216 0.26011
 H974 H 0.34523 0.73295 0.20640
 H975 H 0.30696 0.73271 0.19221
 H976 H 0.29866 0.76427 0.33808
 C977 C 0.25541 0.90312 0.10432
 C978 C 0.25401 0.88319 0.12844
 C979 C 0.25228 0.88188 0.18286
 C980 C 0.25220 0.90052 0.21220
 C981 C 0.25332 0.92029 0.18781
 C982 C 0.25477 0.92175 0.13376
 C983 C 0.25028 0.86200 0.20699
 C984 C 0.24974 0.84340 0.17740
 C985 C 0.25162 0.84469 0.12302
 C986 C 0.25383 0.86458 0.09889
 C987 C 0.25102 0.82604 0.09365
 C988 C 0.24841 0.80629 0.11786
 C989 C 0.24633 0.80484 0.17186
 C990 C 0.24713 0.82352 0.20138
 H991 H 0.25621 0.90413 0.06254
 H992 H 0.25094 0.89981 0.25392
 H993 H 0.25295 0.93450 0.21116
 H994 H 0.24884 0.86101 0.24870
 H995 H 0.25512 0.86557 0.05715
 H996 H 0.25244 0.82673 0.05195
 H997 H 0.24787 0.79215 0.09419
 H998 H 0.24562 0.82264 0.24306
 C999 C 0.75686 0.40915 0.65270
 C1000 C 0.75577 0.38994 0.68038
 C1001 C 0.73900 0.38576 0.71576
 C1002 C 0.72348 0.40078 0.72225
 C1003 C 0.72440 0.41962 0.69359
 C1004 C 0.74109 0.42398 0.65876
 C1005 C 0.73784 0.36653 0.74336
 C1006 C 0.75286 0.35112 0.73488
 C1007 C 0.76937 0.35519 0.69872
 C1008 C 0.77090 0.37466 0.67236
 C1009 C 0.78388 0.33952 0.68870
 C1010 C 0.78186 0.31986 0.71347
 C1011 C 0.76566 0.31565 0.74973
 C1012 C 0.75135 0.33148 0.76092
 H1013 H 0.76963 0.41234 0.62536
 H1014 H 0.71047 0.39784 0.74901
 H1015 H 0.71214 0.43090 0.69883
 H1016 H 0.72501 0.36338 0.77058
 H1017 H 0.78363 0.37774 0.64481
 H1018 H 0.79657 0.34234 0.66100
 H1019 H 0.79307 0.30789 0.70439
 H1020 H 0.73864 0.32823 0.78837
 C1021 C 0.75037 0.09746 0.10048
 C1022 C 0.75318 0.11800 0.12103
 C1023 C 0.76113 0.12064 0.17177
 C1024 C 0.76617 0.10281 0.20095
 C1025 C 0.76340 0.08249 0.18019
 C1026 C 0.75547 0.07957 0.12992
 C1027 C 0.76392 0.14104 0.19266
 C1028 C 0.75885 0.15890 0.16359
 C1029 C 0.75098 0.15638 0.11281
 C1030 C 0.74820 0.13592 0.09176
 C1031 C 0.74590 0.17439 0.08417
 C1032 C 0.74852 0.19469 0.10572
 C1033 C 0.75614 0.19731 0.15642
 C1034 C 0.76138 0.17925 0.18491
 H1035 H 0.74454 0.09541 0.06136
 H1036 H 0.77224 0.10458 0.23991
 H1037 H 0.76726 0.06898 0.20371
 H1038 H 0.76997 0.14301 0.23164
 H1039 H 0.74210 0.13395 0.05284
 H1040 H 0.73972 0.17278 0.04530
 H1041 H 0.74431 0.20829 0.08295
 H1042 H 0.76731 0.18098 0.22402
 C1043 C 0.24001 0.59800 0.59328
 C1044 C 0.23908 0.61753 0.61861
 C1045 C 0.23902 0.61818 0.67322
 C1046 C 0.23965 0.59924 0.70150
 C1047 C 0.24044 0.57983 0.67593
 C1048 C 0.24075 0.57906 0.62172
 C1049 C 0.23835 0.63773 0.69865
 C1050 C 0.23766 0.65662 0.67015
 C1051 C 0.23746 0.65593 0.61554
 C1052 C 0.23819 0.63639 0.59011
 C1053 C 0.23661 0.67483 0.58724
 C1054 C 0.23615 0.69427 0.61275
 C1055 C 0.23659 0.69517 0.66702
 C1056 C 0.23726 0.67622 0.69547
 H1057 H 0.23993 0.59747 0.55141
 H1058 H 0.23960 0.59944 0.74335
 H1059 H 0.24112 0.56540 0.69851
 H1060 H 0.23842 0.63824 0.74053
 H1061 H 0.23814 0.63588 0.54821
 H1062 H 0.23639 0.67458 0.54538
 H1063 H 0.23565 0.70863 0.58988
 H1064 H 0.23753 0.67668 0.73733
 C1065 C 0.89944 0.75335 0.15925
 C1066 C 0.87836 0.75413 0.17622
 C1067 C 0.86177 0.75456 0.13956
 C1068 C 0.86653 0.75449 0.08669
 C1069 C 0.88754 0.75420 0.07021
 C1070 C 0.90410 0.75359 0.10623
 C1071 C 0.84071 0.75524 0.15623
 C1072 C 0.83599 0.75593 0.20908
 C1073 C 0.85256 0.75591 0.24578
 C1074 C 0.87363 0.75480 0.22915
 C1075 C 0.84775 0.75708 0.29855
 C1076 C 0.82673 0.75820 0.31483
 C1077 C 0.81013 0.75791 0.27867
 C1078 C 0.81492 0.75677 0.22577
 H1079 H 0.91225 0.75307 0.18707
 H1080 H 0.85403 0.75486 0.05810
 H1081 H 0.89091 0.75433 0.02918
 H1082 H 0.82801 0.75544 0.12807
 H1083 H 0.88633 0.75467 0.25730
 H1084 H 0.86024 0.75715 0.32723
 H1085 H 0.82344 0.75899 0.35583
 H1086 H 0.80226 0.75669 0.19752
 C1087 C 0.41687 0.24216 0.60638
 C1088 C 0.39644 0.24460 0.62626
 C1089 C 0.39393 0.25496 0.67413
 C1090 C 0.41185 0.26285 0.70098
 C1091 C 0.43211 0.26038 0.68086
 C1092 C 0.43483 0.24991 0.63365
 C1093 C 0.37358 0.25717 0.69453
 C1094 C 0.35570 0.24915 0.66773
 C1095 C 0.35816 0.23896 0.61965
 C1096 C 0.37853 0.23678 0.59914
 C1097 C 0.34019 0.23103 0.59306
 C1098 C 0.31997 0.23302 0.61405
 C1099 C 0.31734 0.24300 0.66201
 C1100 C 0.33536 0.25111 0.68848
 H1101 H 0.41879 0.23437 0.56949
 H1102 H 0.41019 0.27083 0.73769
 H1103 H 0.44571 0.26635 0.70266
 H1104 H 0.37168 0.26504 0.73135
 H1105 H 0.38043 0.22891 0.56232
 H1106 H 0.34178 0.22320 0.55614
 H1107 H 0.30638 0.22668 0.59276
 H1108 H 0.33361 0.25889 0.72543
 C1109 C 0.11109 0.24087 0.13013
 C1110 C 0.13028 0.24076 0.15735
 C1111 C 0.13045 0.23350 0.20906
 C1112 C 0.11140 0.22658 0.23267
 C1113 C 0.09234 0.22681 0.20534
 C1114 C 0.09197 0.23392 0.15383
 C1115 C 0.14965 0.23323 0.23624
 C1116 C 0.16869 0.24016 0.21236
 C1117 C 0.16846 0.24752 0.16073
 C1118 C 0.14928 0.24775 0.13355
 C1119 C 0.18746 0.25448 0.13700
 C1120 C 0.20656 0.25406 0.16398
 C1121 C 0.20706 0.24663 0.21522
 C1122 C 0.18797 0.23976 0.23923
 H1123 H 0.11110 0.24609 0.09020
 H1124 H 0.11121 0.22104 0.27233
 H1125 H 0.07783 0.22164 0.22476
 H1126 H 0.14978 0.22761 0.27586
 H1127 H 0.14915 0.25335 0.09390
 H1128 H 0.18757 0.26019 0.09749
 H1129 H 0.22099 0.25944 0.14448
 H1130 H 0.18811 0.23401 0.27872
 C1131 C 0.58850 0.76402 0.58071
 C1132 C 0.60951 0.76314 0.59762
 C1133 C 0.61391 0.75356 0.64562
 C1134 C 0.59715 0.74515 0.67599
 C1135 C 0.57623 0.74616 0.65892
 C1136 C 0.57168 0.75560 0.61120
 C1137 C 0.63496 0.75247 0.66236
 C1138 C 0.65165 0.76083 0.63165
 C1139 C 0.64720 0.77054 0.58381
 C1140 C 0.62617 0.77163 0.56711
 C1141 C 0.66387 0.77893 0.55330
 C1142 C 0.68482 0.77739 0.56946
 C1143 C 0.68950 0.76773 0.61686
 C1144 C 0.67276 0.75957 0.64794
 H1145 H 0.58526 0.77095 0.54334
 H1146 H 0.60022 0.73780 0.71295
 H1147 H 0.56357 0.73972 0.68330
 H1148 H 0.63834 0.74505 0.69911
 H1149 H 0.62279 0.77904 0.53034
 H1150 H 0.66073 0.78649 0.51663
 H1151 H 0.69738 0.78386 0.54480
 H1152 H 0.67613 0.75207 0.68456
   
