data_POSCAR
  _audit_creation_date              2014-09-24
  _audit_creation_method            'ToBaCCo'
  _symmetry_space_group_name_H-M    'P1'
  _symmetry_Int_Tables_number       1
  _symmetry_cell_setting            triclinic
  loop_
  _symmetry_equiv_pos_as_xyz
 x,y,z
_cell_length_a 38.0785
_cell_length_b 41.7297
_cell_length_c 40.3837
_cell_angle_alpha 89.322400
_cell_angle_beta 89.891400
_cell_angle_gamma 91.080100
loop_
  _atom_site_label
  _atom_site_type_symbol
  _atom_site_fract_x
  _atom_site_fract_y
  _atom_site_fract_z
N1 N 0.14747 0.23416 0.21946
 N2 N 0.15057 0.20717 0.23632
 C3 C 0.12444 0.20490 0.25902
 C4 C 0.10434 0.23195 0.25548
 C5 C 0.11934 0.24983 0.23036
 H6 H 0.11996 0.18501 0.27600
 H7 H 0.11007 0.27230 0.22043
 Cu8 Cu 0.18784 0.17753 0.22563
 Cu9 Cu 0.17851 0.24675 0.18341
 Cu10 Cu 0.24547 0.19546 0.16393
 N11 N 0.22732 0.15014 0.21571
 N12 N 0.25005 0.15745 0.19203
 C13 C 0.27499 0.13494 0.19117
 C14 C 0.26710 0.11246 0.21540
 C15 C 0.23682 0.12256 0.23059
 H16 H 0.29697 0.13487 0.17418
 H17 H 0.22308 0.11091 0.25100
 N18 N 0.23647 0.23533 0.13874
 N19 N 0.21209 0.25570 0.14751
 C20 C 0.21185 0.28041 0.12576
 C21 C 0.23684 0.27497 0.10209
 C22 C 0.25203 0.24623 0.11064
 H23 H 0.19341 0.29978 0.12580
 H24 H 0.27199 0.23385 0.09697
 H25 H 0.19224 0.20068 0.16991
 H26 H 0.22170 0.22143 0.20020
 N27 N 0.65364 0.73022 0.74319
 N28 N 0.66145 0.70400 0.75985
 C29 C 0.63930 0.70053 0.78585
 C30 C 0.61640 0.72568 0.78480
 C31 C 0.62593 0.74405 0.75752
 H32 H 0.63873 0.68055 0.80314
 H33 H 0.61314 0.76529 0.74836
 Cu34 Cu 0.69771 0.67546 0.74430
 Cu35 Cu 0.67845 0.74367 0.70315
 Cu36 Cu 0.74632 0.69611 0.67712
 N37 N 0.73689 0.64984 0.72960
 N38 N 0.75692 0.65889 0.70444
 C39 C 0.78228 0.63723 0.70008
 C40 C 0.77729 0.61332 0.72343
 C41 C 0.74837 0.62173 0.74178
 H42 H 0.80186 0.63813 0.68065
 H43 H 0.73660 0.60835 0.76217
 N44 N 0.73160 0.73465 0.65265
 N45 N 0.70645 0.75344 0.66316
 C46 C 0.70177 0.77721 0.64077
 C47 C 0.72467 0.77260 0.61498
 C48 C 0.74320 0.74552 0.62296
 H49 H 0.68203 0.79542 0.64221
 H50 H 0.76288 0.73425 0.60795
 H51 H 0.69355 0.69853 0.68864
 H52 H 0.72477 0.72135 0.71569
 N53 N 0.34250 0.77883 0.74386
 N54 N 0.33207 0.80420 0.76000
 C55 C 0.35404 0.80958 0.78566
 C56 C 0.37948 0.78651 0.78489
 C57 C 0.37161 0.76744 0.75820
 H58 H 0.35262 0.82950 0.80246
 H59 H 0.38635 0.74730 0.74949
 Cu60 Cu 0.29286 0.82955 0.74412
 Cu61 Cu 0.31903 0.76298 0.70457
 Cu62 Cu 0.25419 0.81013 0.67161
 N63 N 0.25875 0.85725 0.72267
 N64 N 0.24340 0.84916 0.69472
 C65 C 0.22334 0.87335 0.68402
 C66 C 0.22611 0.89758 0.70664
 C67 C 0.24915 0.88718 0.73060
 H68 H 0.21007 0.87426 0.66038
 H69 H 0.25996 0.90101 0.75078
 N70 N 0.26840 0.76970 0.65163
 N71 N 0.29232 0.75095 0.66483
 C72 C 0.29675 0.72544 0.64511
 C73 C 0.27491 0.72890 0.61826
 C74 C 0.25737 0.75707 0.62287
 H75 H 0.31564 0.70675 0.64905
 H76 H 0.23869 0.76782 0.60617
 H77 H 0.30522 0.80841 0.68945
 H78 H 0.27109 0.78387 0.71226
 N79 N 0.85314 0.27145 0.23413
 N80 N 0.84315 0.29617 0.25150
 C81 C 0.86798 0.30336 0.27405
 C82 C 0.89449 0.28171 0.27089
 C83 C 0.88482 0.26206 0.24508
 H84 H 0.86832 0.32449 0.28934
 H85 H 0.90081 0.24425 0.23340
 Cu86 Cu 0.80192 0.32049 0.24014
 Cu87 Cu 0.82662 0.25654 0.19575
 Cu88 Cu 0.75531 0.30173 0.17197
 N89 N 0.76397 0.34689 0.22425
 N90 N 0.74476 0.33895 0.19846
 C91 C 0.72005 0.36125 0.19358
 C92 C 0.72477 0.38438 0.21727
 C93 C 0.75276 0.37484 0.23631
 H94 H 0.70094 0.36115 0.17381
 H95 H 0.76409 0.38730 0.25717
 N96 N 0.76992 0.26333 0.14817
 N97 N 0.79647 0.24544 0.15763
 C98 C 0.80024 0.22142 0.13584
 C99 C 0.77515 0.22493 0.11159
 C100 C 0.75641 0.25160 0.11990
 H101 H 0.82057 0.20370 0.13671
 H102 H 0.73510 0.26198 0.10604
 H103 H 0.80851 0.30166 0.18364
 H104 H 0.77878 0.27491 0.20901
 N105 N 0.85126 0.72442 0.26239
 N106 N 0.84385 0.69766 0.24670
 C107 C 0.86692 0.69420 0.22168
 C108 C 0.89009 0.71984 0.22239
 C109 C 0.87978 0.73861 0.24843
 H110 H 0.86792 0.67391 0.20533
 H111 H 0.89238 0.76045 0.25690
 Cu112 Cu 0.80702 0.66844 0.26248
 Cu113 Cu 0.82422 0.73825 0.30045
 Cu114 Cu 0.75663 0.68751 0.32755
 N115 N 0.76910 0.64031 0.27796
 N116 N 0.74846 0.64848 0.30253
 C117 C 0.72350 0.62552 0.30716
 C118 C 0.72950 0.60174 0.28465
 C119 C 0.75846 0.61158 0.26644
 H120 H 0.70293 0.62594 0.32564
 H121 H 0.77031 0.59909 0.24608
 N122 N 0.76908 0.72803 0.34958
 N123 N 0.79396 0.74798 0.33855
 C124 C 0.79648 0.77320 0.35905
 C125 C 0.77251 0.76835 0.38420
 C126 C 0.75556 0.73962 0.37777
 H127 H 0.81542 0.79274 0.35684
 H128 H 0.73553 0.72786 0.39281
 H129 H 0.80955 0.69286 0.31704
 H130 H 0.77847 0.71347 0.28853
 N131 N 0.37803 0.21019 -0.23223
 N132 N 0.37194 0.18111 -0.24347
 C133 C 0.40052 0.17113 -0.25983
 C134 C 0.42542 0.19536 -0.25835
 C135 C 0.41061 0.22002 -0.24123
 H136 H 0.40259 0.14852 -0.27246
 H137 H 0.42218 0.24333 -0.23616
 Cu138 Cu 0.32646 0.15984 -0.23775
 Cu139 Cu 0.34265 0.23315 -0.20765
 Cu140 Cu 0.27537 0.18457 -0.17557
 N141 N 0.28621 0.13462 -0.22234
 N142 N 0.26616 0.14439 -0.19802
 C143 C 0.23940 0.12321 -0.19330
 C144 C 0.24344 0.09892 -0.21566
 C145 C 0.27323 0.10669 -0.23381
 H146 H 0.21835 0.12566 -0.17555
 H147 H 0.28402 0.09353 -0.25426
 N148 N 0.28856 0.22644 -0.15712
 N149 N 0.31255 0.24590 -0.17054
 C150 C 0.31546 0.27261 -0.15215
 C151 C 0.29244 0.26923 -0.12597
 C152 C 0.27583 0.23989 -0.12963
 H153 H 0.33438 0.29190 -0.15631
 H154 H 0.25663 0.22894 -0.11308
 H155 H 0.32867 0.18983 -0.18682
 H156 H 0.29619 0.20699 -0.21631
 N157 N 0.62814 0.28909 -0.22831
 N158 N 0.63895 0.31534 -0.24397
 C159 C 0.61309 0.32625 -0.26344
 C160 C 0.58479 0.30571 -0.25953
 C161 C 0.59486 0.28203 -0.23760
 H162 H 0.61519 0.34682 -0.27993
 H163 H 0.57976 0.26108 -0.22966
 Cu164 Cu 0.68649 0.33181 -0.23958
 Cu165 Cu 0.65933 0.26590 -0.19837
 Cu166 Cu 0.73298 0.31012 -0.17318
 N167 N 0.72728 0.35641 -0.22582
 N168 N 0.74614 0.34745 -0.20019
 C169 C 0.77273 0.36876 -0.19587
 C170 C 0.76963 0.39231 -0.21980
 C171 C 0.74059 0.38405 -0.23841
 H172 H 0.79193 0.36783 -0.17621
 H173 H 0.72977 0.39723 -0.25911
 N174 N 0.71542 0.27147 -0.14956
 N175 N 0.68849 0.25374 -0.15984
 C176 C 0.68361 0.22875 -0.13868
 C177 C 0.70837 0.23152 -0.11398
 C178 C 0.72806 0.25866 -0.12139
 H179 H 0.66291 0.21076 -0.14042
 H180 H 0.74983 0.26829 -0.10726
 H181 H 0.67952 0.30925 -0.18437
 H182 H 0.70898 0.28450 -0.21001
 N183 N 0.16876 0.77087 0.25856
 N184 N 0.18055 0.79496 0.24007
 C185 C 0.15841 0.79953 0.21445
 C186 C 0.13133 0.77729 0.21766
 C187 C 0.13847 0.75953 0.24579
 H188 H 0.16077 0.81863 0.19619
 H189 H 0.12240 0.74048 0.25661
 Cu190 Cu 0.22089 0.82062 0.25407
 Cu191 Cu 0.19227 0.75701 0.29890
 Cu192 Cu 0.25380 0.80994 0.33082
 N193 N 0.24990 0.85337 0.27510
 N194 N 0.26214 0.84941 0.30532
 C195 C 0.27596 0.87745 0.31586
 C196 C 0.27256 0.89981 0.29070
 C197 C 0.25555 0.88403 0.26538
 H198 H 0.28442 0.88201 0.34096
 H199 H 0.24463 0.89479 0.24327
 N200 N 0.24153 0.76849 0.35240
 N201 N 0.21882 0.74776 0.33958
 C202 C 0.21543 0.72212 0.36005
 C203 C 0.23668 0.72736 0.38702
 C204 C 0.25284 0.75688 0.38170
 H205 H 0.19761 0.70199 0.35647
 H206 H 0.27071 0.76921 0.39822
 H207 H 0.20493 0.80411 0.30981
 H208 H 0.24114 0.77948 0.29243
 N209 N 0.46825 0.40039 0.48584
 N210 N 0.44314 0.41094 0.50512
 C211 C 0.43700 0.38933 0.52972
 C212 C 0.45910 0.36402 0.52485
 C213 C 0.47855 0.37159 0.49698
 H214 H 0.41748 0.39141 0.54902
 H215 H 0.49862 0.35728 0.48571
 Cu216 Cu 0.41982 0.45091 0.49430
 Cu217 Cu 0.48570 0.42417 0.44735
 Cu218 Cu 0.44533 0.49585 0.42867
 N219 N 0.39732 0.49129 0.48360
 N220 N 0.40852 0.50937 0.45864
 C221 C 0.38845 0.53552 0.45610
 C222 C 0.36317 0.53326 0.48040
 C223 C 0.36916 0.50500 0.49744
 H224 H 0.39076 0.55374 0.43693
 H225 H 0.35371 0.49491 0.51764
 N226 N 0.48309 0.47813 0.40141
 N227 N 0.49958 0.45154 0.40938
 C228 C 0.52413 0.44581 0.38621
 C229 C 0.52219 0.46956 0.36249
 C230 C 0.49606 0.48969 0.37251
 H231 H 0.54107 0.42532 0.38585
 H232 H 0.48712 0.51087 0.35964
 H233 H 0.47169 0.46894 0.46347
 H234 H 0.43925 0.44709 0.43697
 N235 N -0.01764 -0.10151 0.98921
 N236 N -0.04494 -0.09464 1.00767
 C237 C -0.04914 -0.11734 1.03142
 C238 C -0.02351 -0.13962 1.02697
 C239 C -0.00390 -0.12922 1.00005
 H240 H -0.06998 -0.11835 1.04965
 H241 H 0.01840 -0.14088 0.98919
 Cu242 Cu -0.07443 -0.05850 0.99725
 Cu243 Cu -0.00228 -0.07404 0.95256
 Cu244 Cu -0.05464 -0.00949 0.93256
 N245 N -0.10439 -0.02340 0.98450
 N246 N -0.09628 -0.00344 0.96004
 C247 C -0.12168 0.01860 0.95722
 C248 C -0.14683 0.01137 0.98104
 C249 C -0.13539 -0.01528 0.99769
 H250 H -0.12229 0.03762 0.93882
 H251 H -0.14877 -0.02779 1.01777
 N252 N -0.01139 -0.01975 0.90787
 N253 N 0.00918 -0.04367 0.91635
 C254 C 0.03595 -0.04513 0.89455
 C255 C 0.03157 -0.02139 0.87115
 C256 C 0.00135 -0.00575 0.87994
 H257 H 0.05580 -0.06331 0.89441
 H258 H -0.01097 0.01352 0.86643
 H259 H -0.02527 -0.03219 0.96832
 H260 H -0.05216 -0.05832 0.94054
 N261 N 1.02251 0.60323 0.98739
 N262 N 1.04871 0.59425 1.00639
 C263 C 1.05277 0.61524 1.03126
 C264 C 1.02822 0.63865 1.02711
 C265 C 1.00937 0.63065 0.99912
 H266 H 1.07311 0.61456 1.04988
 H267 H 0.98839 0.64401 0.98782
 Cu268 Cu 1.07721 0.55804 0.99455
 Cu269 Cu 1.00852 0.57931 0.94809
 Cu270 Cu 1.05969 0.51424 0.92744
 N271 N 1.10632 0.52228 0.98263
 N272 N 1.09876 0.50441 0.95686
 C273 C 1.12335 0.48176 0.95377
 C274 C 1.14743 0.48623 0.97887
 C275 C 1.13625 0.51207 0.99655
 H276 H 1.12460 0.46462 0.93394
 H277 H 1.14948 0.52305 1.01732
 N278 N 1.01910 0.52804 0.90090
 N279 N 0.99886 0.55207 0.90934
 C280 C 0.97333 0.55533 0.88648
 C281 C 0.97842 0.53272 0.86252
 C282 C 1.00748 0.51578 0.87212
 H283 H 0.95328 0.57332 0.88668
 H284 H 1.01920 0.49615 0.85911
 H285 H 1.02864 0.53574 0.96254
 H286 H 1.05789 0.56273 0.93724
 N287 N 0.51700 0.10858 0.48469
 N288 N 0.54231 0.09975 0.50481
 C289 C 0.54599 0.12152 0.52903
 C290 C 0.52195 0.14515 0.52327
 C291 C 0.50392 0.13650 0.49506
 H292 H 0.56516 0.12077 0.54872
 H293 H 0.48308 0.14945 0.48303
 Cu294 Cu 0.56906 0.06176 0.49538
 Cu295 Cu 0.50304 0.08337 0.44632
 Cu296 Cu 0.55294 0.01648 0.42907
 N297 N 0.59812 0.02539 0.48548
 N298 N 0.59118 0.00711 0.45983
 C299 C 0.61535 -0.01604 0.45815
 C300 C 0.63855 -0.01143 0.48396
 C301 C 0.62728 0.01498 0.50065
 H302 H 0.61678 -0.03384 0.43897
 H303 H 0.63978 0.02603 0.52177
 N304 N 0.51300 0.03016 0.40131
 N305 N 0.49323 0.05483 0.40872
 C306 C 0.46743 0.05734 0.38608
 C307 C 0.47173 0.03355 0.36330
 C308 C 0.50075 0.01670 0.37329
 H309 H 0.44753 0.07548 0.38571
 H310 H 0.51181 -0.00382 0.36126
 H311 H 0.52133 0.03949 0.46226
 H312 H 0.55229 0.06514 0.43737
 N313 N -0.02807 0.09357 0.51500
 N314 N -0.05305 0.08205 0.49574
 C315 C -0.05822 0.10273 0.47033
 C316 C -0.03553 0.12847 0.47448
 C317 C -0.01683 0.12215 0.50295
 H318 H -0.07793 0.10005 0.45128
 H319 H 0.00288 0.13741 0.51432
 Cu320 Cu -0.07813 0.04271 0.50833
 Cu321 Cu -0.01277 0.07147 0.55513
 Cu322 Cu -0.05869 0.00173 0.57751
 N323 N -0.10473 0.00427 0.52112
 N324 N -0.09609 -0.01234 0.54773
 C325 C -0.11839 -0.03761 0.55133
 C326 C -0.14238 -0.03620 0.52595
 C327 C -0.13336 -0.00941 0.50723
 H328 H -0.11815 -0.05477 0.57160
 H329 H -0.14688 -0.00042 0.48561
 N330 N -0.01992 0.01999 0.60411
 N331 N -0.00142 0.04570 0.59478
 C332 C 0.02391 0.05148 0.61733
 C333 C 0.02044 0.02875 0.64206
 C334 C -0.00744 0.00913 0.63328
 H335 H 0.04283 0.07111 0.61632
 H336 H -0.01751 -0.01154 0.64690
 H337 H -0.02886 0.02579 0.54227
 H338 H -0.06090 0.04995 0.56581
 N339 N 0.47799 0.60420 0.01459
 N340 N 0.45282 0.59424 -0.00536
 C341 C 0.44780 0.61666 -0.02915
 C342 C 0.47065 0.64189 -0.02316
 C343 C 0.48944 0.63348 0.00466
 H344 H 0.42845 0.61521 -0.04866
 H345 H 0.50973 0.64753 0.01672
 Cu346 Cu 0.42774 0.55386 0.00331
 Cu347 Cu 0.49396 0.57882 0.05224
 Cu348 Cu 0.45070 0.50622 0.06687
 N349 N 0.40369 0.51294 0.01182
 N350 N 0.41398 0.49388 0.03600
 C351 C 0.39338 0.46733 0.03690
 C352 C 0.36871 0.47030 0.01238
 C353 C 0.37554 0.49943 -0.00315
 H354 H 0.39507 0.44814 0.05502
 H355 H 0.36085 0.51009 -0.02320
 N356 N 0.48853 0.52270 0.09536
 N357 N 0.50612 0.54972 0.08910
 C358 C 0.53055 0.55416 0.11285
 C359 C 0.52734 0.52906 0.13509
 C360 C 0.50060 0.50956 0.12362
 H361 H 0.54827 0.57461 0.11458
 H362 H 0.49066 0.48768 0.13511
 H363 H 0.47866 0.53496 0.03369
 H364 H 0.44656 0.55541 0.06093
 N365 N 0.51720 -0.09843 0.01978
 N366 N 0.54394 -0.08854 0.00133
 C367 C 0.54972 -0.11023 -0.02248
 C368 C 0.52575 -0.13501 -0.01804
 C369 C 0.50549 -0.12707 0.00889
 H370 H 0.57023 -0.10860 -0.04098
 H371 H 0.48390 -0.14090 0.01955
 Cu372 Cu 0.56959 -0.04914 0.01173
 Cu373 Cu 0.49942 -0.07346 0.05652
 Cu374 Cu 0.54451 -0.00264 0.07430
 N375 N 0.59524 -0.00974 0.02214
 N376 N 0.58441 0.00901 0.04595
 C377 C 0.60637 0.03461 0.04816
 C378 C 0.63237 0.03128 0.02482
 C379 C 0.62484 0.00300 0.00866
 H380 H 0.60427 0.05354 0.06609
 H381 H 0.63991 -0.00749 -0.01101
 N382 N 0.50354 -0.01849 0.10010
 N383 N 0.48555 -0.04485 0.09267
 C384 C 0.45953 -0.04944 0.11508
 C385 C 0.46193 -0.02513 0.13772
 C386 C 0.49001 -0.00597 0.12784
 H387 H 0.44150 -0.06976 0.11595
 H388 H 0.50023 0.01497 0.14037
 H389 H 0.51757 -0.02936 0.03955
 H390 H 0.54696 -0.05171 0.06826
 N391 N 1.01688 0.38513 0.51904
 N392 N 1.04235 0.39415 0.49871
 C393 C 1.04296 0.37415 0.47278
 C394 C 1.01694 0.35125 0.47764
 C395 C 1.00084 0.35859 0.50720
 H396 H 1.06213 0.37501 0.45298
 H397 H 0.97986 0.34528 0.51953
 Cu398 Cu 1.07566 0.42806 0.51028
 Cu399 Cu 1.00820 0.40754 0.56023
 Cu400 Cu 1.05555 0.47853 0.57159
 N401 N 1.10263 0.46729 0.51764
 N402 N 1.09400 0.48767 0.54077
 C403 C 1.11762 0.51219 0.54089
 C404 C 1.14216 0.50638 0.51659
 C405 C 1.13222 0.47782 0.50245
 H406 H 1.11801 0.53162 0.55838
 H407 H 1.14602 0.46531 0.48324
 N408 N 1.01593 0.46479 0.60027
 N409 N 0.99732 0.43816 0.59550
 C410 C 0.97224 0.43548 0.61907
 C411 C 0.97606 0.46123 0.63982
 C412 C 1.00385 0.47937 0.62752
 H413 H 0.95346 0.41584 0.62159
 H414 H 1.01453 0.50129 0.63777
 H415 H 1.02599 0.45008 0.53959
 H416 H 1.05686 0.42976 0.56843
 C417 C 0.32533 -0.02105 0.27395
 C418 C 0.34472 0.00312 0.25712
 C419 C 0.32776 0.03081 0.24581
 C420 C 0.29192 0.03498 0.25267
 C421 C 0.27333 0.01132 0.27052
 C422 C 0.28949 -0.01695 0.28054
 C423 C 0.38329 0.00130 0.25492
 C424 C 0.40010 -0.00402 0.22453
 C425 C 0.43701 -0.00409 0.22283
 C426 C 0.45679 0.00105 0.25150
 C427 C 0.44033 0.00646 0.28181
 C428 C 0.40350 0.00654 0.28347
 H429 H 0.33835 -0.04227 0.28303
 H430 H 0.34278 0.04957 0.23317
 H431 H 0.38459 -0.00747 0.20235
 H432 H 0.39053 0.01088 0.30686
 H433 H 0.24587 0.01475 0.27630
 H434 H 0.48521 0.00127 0.25011
 C435 C 0.16144 -0.02463 0.72679
 C436 C 0.14752 -0.00106 0.74740
 C437 C 0.16986 0.02304 0.76004
 C438 C 0.20560 0.02418 0.75099
 C439 C 0.21888 0.00074 0.73026
 C440 C 0.19712 -0.02376 0.71837
 C441 C 0.10905 0.00108 0.75127
 C442 C 0.09276 -0.00188 0.78249
 C443 C 0.05594 -0.00002 0.78512
 C444 C 0.03583 0.00490 0.75663
 C445 C 0.05181 0.00804 0.72559
 C446 C 0.08843 0.00619 0.72299
 H447 H 0.14427 -0.04268 0.71602
 H448 H 0.15901 0.04186 0.77496
 H449 H 0.10857 -0.00577 0.80439
 H450 H 0.10090 0.00838 0.69890
 H451 H 0.24611 0.00219 0.72242
 H452 H 0.00750 0.00608 0.75861
 C453 C 0.66265 0.46580 0.24145
 C454 C 0.64510 0.49395 0.24931
 C455 C 0.66432 0.52157 0.25787
 C456 C 0.70116 0.52125 0.25823
 C457 C 0.71850 0.49300 0.25073
 C458 C 0.69950 0.46519 0.24254
 C459 C 0.60660 0.49463 0.24878
 C460 C 0.58751 0.48917 0.27805
 C461 C 0.55072 0.49081 0.27786
 C462 C 0.53325 0.49740 0.24820
 C463 C 0.55215 0.50282 0.21887
 C464 C 0.58896 0.50164 0.21923
 H465 H 0.64766 0.44438 0.23526
 H466 H 0.65061 0.54336 0.26353
 H467 H 0.60132 0.48433 0.30095
 H468 H 0.60380 0.50577 0.19662
 H469 H 0.74694 0.49263 0.25127
 H470 H 0.50485 0.49850 0.24797
 C471 C 0.83693 0.47309 0.75642
 C472 C 0.85643 0.50142 0.75046
 C473 C 0.83905 0.53032 0.74480
 C474 C 0.80216 0.53090 0.74530
 C475 C 0.78297 0.50249 0.75102
 C476 C 0.80008 0.47358 0.75654
 C477 C 0.89502 0.50076 0.75035
 C478 C 0.91307 0.49178 0.72171
 C479 C 0.94995 0.49131 0.72153
 C480 C 0.96846 0.49908 0.75034
 C481 C 0.95065 0.50748 0.77922
 C482 C 0.91380 0.50872 0.77903
 H483 H 0.85041 0.45076 0.76054
 H484 H 0.85418 0.55222 0.74051
 H485 H 0.89848 0.48585 0.69954
 H486 H 0.89971 0.51511 0.80126
 H487 H 0.75452 0.50289 0.75125
 H488 H 0.99689 0.49839 0.75034
 C489 C 0.26857 0.33096 -0.04440
 C490 C 0.26082 0.34830 -0.01584
 C491 C 0.25693 0.33222 0.01473
 C492 C 0.26088 0.29881 0.01674
 C493 C 0.26831 0.28179 -0.01189
 C494 C 0.27198 0.29755 -0.04244
 C495 C 0.25716 0.38329 -0.01785
 C496 C 0.22434 0.39676 -0.02445
 C497 C 0.22077 0.43012 -0.02496
 C498 C 0.25054 0.44994 -0.02034
 C499 C 0.28329 0.43674 -0.01398
 C500 C 0.28652 0.40329 -0.01241
 H501 H 0.27118 0.34333 -0.06804
 H502 H 0.25105 0.34570 0.03676
 H503 H 0.20148 0.38137 -0.02818
 H504 H 0.31176 0.39280 -0.00724
 H505 H 0.27072 0.25598 -0.01049
 H506 H 0.24821 0.47577 -0.02115
 C507 C 0.73565 0.16927 -0.03250
 C508 C 0.74449 0.15148 -0.00413
 C509 C 0.75147 0.16723 0.02578
 C510 C 0.74937 0.20078 0.02730
 C511 C 0.74091 0.21826 -0.00125
 C512 C 0.73419 0.20279 -0.03116
 C513 C 0.74677 0.11642 -0.00598
 C514 C 0.77856 0.10235 -0.01486
 C515 C 0.78098 0.06898 -0.01639
 C516 C 0.75093 0.04971 -0.01016
 C517 C 0.71901 0.06352 -0.00163
 C518 C 0.71706 0.09701 0.00074
 H519 H 0.73080 0.15709 -0.05564
 H520 H 0.75802 0.15343 0.04772
 H521 H 0.80159 0.11731 -0.01980
 H522 H 0.69249 0.10801 0.00727
 H523 H 0.73972 0.24416 -0.00023
 H524 H 0.75234 0.02387 -0.01170
 C525 C 0.24945 0.66768 0.47424
 C526 C 0.25165 0.65112 0.50466
 C527 C 0.25647 0.66827 0.53406
 C528 C 0.25876 0.70188 0.53311
 C529 C 0.25667 0.71811 0.50276
 C530 C 0.25213 0.70135 0.47329
 C531 C 0.24881 0.61589 0.50592
 C532 C 0.27866 0.59741 0.50049
 C533 C 0.27627 0.56382 0.50283
 C534 C 0.24387 0.54895 0.50972
 C535 C 0.21367 0.56717 0.51439
 C536 C 0.21642 0.60069 0.51318
 H537 H 0.24587 0.65442 0.45156
 H538 H 0.25783 0.65550 0.55753
 H539 H 0.30368 0.60919 0.49522
 H540 H 0.19329 0.61488 0.51723
 H541 H 0.25838 0.74406 0.50208
 H542 H 0.24227 0.52303 0.51131
 C543 C 0.74889 0.82814 0.46696
 C544 C 0.74360 0.84556 0.49597
 C545 C 0.74010 0.82939 0.52649
 C546 C 0.74194 0.79580 0.52803
 C547 C 0.74697 0.77864 0.49892
 C548 C 0.75046 0.79455 0.46838
 C549 C 0.74211 0.88073 0.49445
 C550 C 0.71063 0.89576 0.48601
 C551 C 0.70896 0.92925 0.48539
 C552 C 0.73942 0.94765 0.49169
 C553 C 0.77097 0.93291 0.49970
 C554 C 0.77218 0.89933 0.50157
 H555 H 0.75147 0.84070 0.44342
 H556 H 0.73637 0.84295 0.54890
 H557 H 0.68727 0.88146 0.48087
 H558 H 0.79651 0.88766 0.50782
 H559 H 0.74833 0.75274 0.50005
 H560 H 0.73863 0.97358 0.49055
 C561 C -0.03009 0.26348 0.34238
 C562 C -0.00756 0.24411 0.36116
 C563 C 0.02128 0.22981 0.34571
 C564 C 0.02868 0.23632 0.31225
 C565 C 0.00599 0.25591 0.29395
 C566 C -0.02339 0.26915 0.30872
 C567 C -0.01120 0.24266 0.39755
 C568 C -0.01616 0.21323 0.41433
 C569 C -0.01790 0.21233 0.44913
 C570 C -0.01454 0.24080 0.46689
 C571 C -0.00928 0.27017 0.45050
 C572 C -0.00781 0.27105 0.41576
 H573 H -0.05177 0.27532 0.35424
 H574 H 0.03938 0.21568 0.36021
 H575 H -0.01807 0.19124 0.40042
 H576 H -0.00345 0.29370 0.40287
 H577 H 0.01155 0.26167 0.26822
 H578 H -0.01531 0.24000 0.49371
 C579 C -0.02243 0.74421 0.15882
 C580 C 0.00845 0.75038 0.14064
 C581 C 0.04003 0.75730 0.15725
 C582 C 0.04069 0.75774 0.19204
 C583 C 0.00962 0.75217 0.20985
 C584 C -0.02193 0.74546 0.19353
 C585 C 0.00741 0.75009 0.10425
 C586 C 0.00198 0.77868 0.08661
 C587 C 0.00035 0.77859 0.05188
 C588 C 0.00379 0.74978 0.03499
 C589 C 0.00891 0.72105 0.05235
 C590 C 0.01092 0.72126 0.08712
 H591 H -0.04681 0.73911 0.14594
 H592 H 0.06395 0.76160 0.14319
 H593 H -0.00066 0.80092 0.09990
 H594 H 0.01462 0.69912 0.10085
 H595 H 0.01008 0.75268 0.23667
 H596 H 0.00231 0.74967 0.00820
 C597 C 0.48759 0.22560 0.65813
 C598 C 0.49588 0.25317 0.63903
 C599 C 0.50949 0.28041 0.65516
 C600 C 0.51584 0.27978 0.68927
 C601 C 0.50794 0.25203 0.70786
 C602 C 0.49343 0.22510 0.69234
 C603 C 0.49150 0.25318 0.60237
 C604 C 0.48198 0.28125 0.58509
 C605 C 0.48012 0.28159 0.55035
 C606 C 0.48633 0.25355 0.53291
 C607 C 0.49518 0.22536 0.54958
 C608 C 0.49823 0.22532 0.58422
 H609 H 0.47604 0.20457 0.64669
 H610 H 0.51669 0.30184 0.64118
 H611 H 0.47674 0.30298 0.59844
 H612 H 0.50621 0.20366 0.59689
 H613 H 0.51245 0.25157 0.73434
 H614 H 0.48486 0.25382 0.50612
 C615 C 0.46787 0.76509 0.84811
 C616 C 0.49853 0.75728 0.86550
 C617 C 0.52935 0.75022 0.84806
 C618 C 0.52962 0.75150 0.81330
 C619 C 0.49891 0.75898 0.79627
 C620 C 0.46796 0.76545 0.81334
 C621 C 0.49823 0.75609 0.90191
 C622 C 0.49242 0.72681 0.91862
 C623 C 0.49220 0.72560 0.95340
 C624 C 0.49744 0.75384 0.97122
 C625 C 0.50311 0.78319 0.95477
 C626 C 0.50368 0.78423 0.91998
 H627 H 0.44394 0.76989 0.86157
 H628 H 0.55303 0.74438 0.86149
 H629 H 0.48855 0.70507 0.90457
 H630 H 0.50785 0.80685 0.90699
 H631 H 0.49899 0.75940 0.76944
 H632 H 0.49717 0.75296 0.99805
 N633 N 0.07282 0.24015 0.27212
 N634 N 0.06085 0.22574 0.29780
 N635 N 0.58611 0.72954 0.80517
 N636 N 0.56068 0.74599 0.79443
 N637 N 0.40994 0.78452 0.80535
 N638 N 0.43671 0.77016 0.79451
 N639 N -0.07346 0.28641 0.28143
 N640 N -0.04310 0.29199 0.29036
 N641 N -0.07916 0.72392 0.20243
 N642 N -0.05308 0.74035 0.21285
 N643 N 0.45559 0.19629 0.72627
 N644 N 0.48381 0.19732 0.71137
 N645 N 0.55629 0.30623 0.72258
 N646 N 0.53029 0.30768 0.70460
 N647 N 0.10021 0.77528 0.19801
 N648 N 0.07265 0.76202 0.21015
 N649 N 0.28653 0.08439 0.22319
 N650 N 0.27385 0.06343 0.24321
 N651 N 0.79680 0.58456 0.72635
 N652 N 0.78347 0.56005 0.74096
 N653 N 0.79096 0.42062 0.77682
 N654 N 0.77938 0.44500 0.76147
 N655 N 0.27186 -0.06923 0.29494
 N656 N 0.26923 -0.04017 0.29902
 N657 N 0.21767 -0.07273 0.70078
 N658 N 0.21042 -0.04480 0.69401
 N659 N 0.70527 0.41300 0.22077
 N660 N 0.71826 0.43642 0.23681
 N661 N 0.70897 0.57317 0.28029
 N662 N 0.72150 0.54961 0.26479
 N663 N 0.21975 0.07259 0.77898
 N664 N 0.22837 0.05047 0.75938
 N665 N 0.24149 0.29318 0.07223
 N666 N 0.25660 0.28135 0.04724
 N667 N 0.72606 0.79050 0.58464
 N668 N 0.73945 0.77854 0.55880
 N669 N 0.76880 0.78768 0.41287
 N670 N 0.75517 0.77595 0.43923
 N671 N 0.28950 0.28991 -0.09828
 N672 N 0.27723 0.27862 -0.07117
 N673 N 0.71200 0.21127 -0.08549
 N674 N 0.72786 0.22192 -0.06007
 N675 N 0.23797 0.70791 0.41633
 N676 N 0.25031 0.71940 0.44300
 N677 N 0.27356 0.70911 0.58968
 N678 N 0.26185 0.72037 0.56257
 N679 N 0.77148 0.20650 0.08212
 N680 N 0.75485 0.21786 0.05746
 N681 N 0.46125 0.33539 0.54440
 N682 N 0.47470 0.31057 0.53196
 N683 N -0.01970 0.83145 0.04562
 N684 N -0.00449 0.80751 0.03326
 N685 N 0.02598 0.66723 0.04601
 N686 N 0.01168 0.69207 0.03402
 N687 N 0.51751 0.17331 0.54241
 N688 N 0.50098 0.19710 0.53074
 N689 N -0.03406 0.15725 0.45498
 N690 N -0.02122 0.18279 0.46730
 N691 N 0.47339 0.67127 0.95845
 N692 N 0.48773 0.69595 0.97123
 N693 N 0.52301 0.83665 0.96260
 N694 N 0.50737 0.81164 0.97393
 N695 N 0.01160 0.32330 0.45807
 N696 N -0.00422 0.29852 0.46972
 N697 N 0.33398 0.55391 0.48390
 N698 N 0.30623 0.54408 0.49866
 N699 N 0.82064 0.02669 -0.01293
 N700 N 0.81427 0.05493 -0.02312
 N701 N 0.66209 0.05223 0.01991
 N702 N 0.68900 0.04299 0.00422
 N703 N 0.17437 0.52335 0.51023
 N704 N 0.18022 0.55178 0.52018
 N705 N 0.18017 0.47079 -0.01662
 N706 N 0.18682 0.44376 -0.02922
 N707 N 0.67023 0.97200 0.49054
 N708 N 0.67618 0.94439 0.47898
 N709 N 0.82761 0.94323 0.52185
 N710 N 0.80142 0.95270 0.50516
 N711 N 0.33978 0.44882 0.00701
 N712 N 0.31265 0.45788 -0.00851
 N713 N 0.54221 0.47174 0.33266
 N714 N 0.53068 0.48702 0.30766
 N715 N 0.05111 -0.01782 0.84103
 N716 N 0.03792 -0.00357 0.81613
 N717 N 0.04177 0.02626 0.67093
 N718 N 0.03032 0.01203 0.69690
 N719 N 0.54654 0.52509 0.16508
 N720 N 0.53336 0.50864 0.18889
 N721 N 0.44224 -0.02279 0.16772
 N722 N 0.45532 -0.00790 0.19221
 N723 N 0.95627 0.46691 0.66918
 N724 N 0.96923 0.48397 0.69220
 N725 N 0.95812 0.52847 0.83314
 N726 N 0.97053 0.51345 0.80865
 N727 N 0.45044 0.02828 0.33474
 N728 N 0.46157 0.01225 0.31042
   
