data_POSCAR
  _audit_creation_date              2014-09-24
  _audit_creation_method            'ToBaCCo'
  _symmetry_space_group_name_H-M    'P1'
  _symmetry_Int_Tables_number       1
  _symmetry_cell_setting            triclinic
  loop_
  _symmetry_equiv_pos_as_xyz
 x,y,z
_cell_length_a 26.5937
_cell_length_b 26.6221
_cell_length_c 26.3889
_cell_angle_alpha 90.346600
_cell_angle_beta 90.350700
_cell_angle_gamma 89.809600
loop_
  _atom_site_label
  _atom_site_type_symbol
  _atom_site_fract_x
  _atom_site_fract_y
  _atom_site_fract_z
O1 O 0.55154 0.13426 -0.01156
 O2 O 0.61593 0.07641 -0.01275
 C3 C 0.59863 0.12187 -0.01516
 O4 O 0.44175 -0.00268 0.13614
 O5 O 0.38206 -0.01671 0.07444
 C6 C 0.39613 -0.01253 0.12124
 O7 O 0.57939 0.02278 0.12328
 O8 O 0.62995 0.02332 0.05320
 C9 C 0.62299 0.02722 0.10198
 O10 O 0.41185 0.11379 -0.00272
 O11 O 0.36709 0.04120 0.00934
 C12 C 0.36995 0.08937 0.00284
 Zr13 Zr 0.48745 0.08795 -0.00256
 O14 O 0.47995 0.14513 0.05314
 O15 O 0.47832 0.14130 -0.06096
 Zr16 Zr 0.50805 0.00690 0.09260
 O17 O 0.49966 0.06662 0.14528
 O18 O 0.52629 -0.04329 0.15193
 O19 O 0.54203 0.06091 0.04725
 O20 O 0.45402 0.04826 0.05508
 O21 O 0.41848 -0.01658 -0.11712
 O22 O 0.37062 -0.02106 -0.04534
 C23 C 0.37572 -0.02113 -0.09399
 O24 O 0.58884 -0.11557 0.00178
 O25 O 0.63421 -0.04288 -0.00542
 C26 C 0.63080 -0.09132 -0.00310
 O27 O 0.45127 -0.13497 0.02226
 O28 O 0.38614 -0.07832 0.01884
 C29 C 0.40391 -0.12352 0.02363
 O30 O 0.55820 -0.00512 -0.13078
 O31 O 0.61960 0.00909 -0.07080
 C32 C 0.60455 0.00224 -0.11738
 Zr33 Zr 0.49229 -0.00776 -0.08704
 O34 O 0.48956 -0.06781 -0.13984
 O35 O 0.48513 0.04464 -0.14676
 Zr36 Zr 0.51410 -0.08901 0.00832
 O37 O 0.51048 -0.14800 -0.04581
 O38 O 0.53345 -0.14133 0.06520
 Zr39 Zr 0.57485 0.00963 -0.00427
 Zr40 Zr 0.42684 -0.01104 0.00971
 O41 O 0.46056 -0.06152 -0.04144
 O42 O 0.54793 -0.04972 -0.05021
 O43 O 0.44414 0.04035 -0.04806
 O44 O 0.55568 -0.04091 0.05354
 O45 O 0.53146 0.05173 -0.05589
 O46 O 0.46879 -0.05377 0.06212
 H47 H 0.43003 0.06709 0.07664
 H48 H 0.58275 -0.05671 0.07395
 H49 H 0.43916 -0.08674 -0.05882
 H50 H 0.54856 0.07336 -0.08079
 H51 H 0.50093 -0.07039 0.15144
 H52 H 0.51230 -0.13361 0.09491
 H53 H 0.53926 -0.14438 -0.06905
 H54 H 0.51868 -0.08984 -0.13266
 H55 H 0.45299 0.06290 -0.14226
 H56 H 0.45349 0.12750 -0.08528
 H57 H 0.51326 0.15011 0.06929
 H58 H 0.52249 0.09386 0.13486
 O59 O 0.01228 0.43162 -0.13469
 O60 O 0.01138 0.37371 -0.07056
 C61 C 0.01484 0.38575 -0.11767
 O62 O 0.11564 0.57643 0.01069
 O63 O 0.04254 0.62746 0.00831
 C64 C 0.09365 0.62292 0.01242
 O65 O 0.12876 0.43802 -0.00352
 O66 O 0.06869 0.37637 -0.00678
 C67 C 0.11507 0.39140 -0.00599
 O68 O -0.00610 0.57333 -0.12755
 O69 O -0.01365 0.62420 -0.05746
 C70 C -0.01104 0.61730 -0.10607
 Zr71 Zr 0.00101 0.50081 -0.09429
 O72 O 0.06001 0.51427 -0.14594
 O73 O -0.05119 0.49376 -0.15477
 Zr74 Zr 0.08484 0.50388 0.00228
 O75 O 0.14389 0.51737 -0.04931
 O76 O 0.13663 0.50011 0.06359
 O77 O 0.05464 0.45869 -0.05512
 O78 O 0.04551 0.54678 -0.04924
 O79 O -0.13699 0.55457 -0.01074
 O80 O -0.07672 0.61540 -0.00138
 C81 C -0.12295 0.60098 -0.00678
 O82 O -0.00730 0.41767 0.11843
 O83 O 0.00271 0.36692 0.04865
 C84 C -0.00247 0.37396 0.09681
 O85 O -0.01394 0.55755 0.12824
 O86 O -0.01698 0.61710 0.06579
 C87 C -0.01646 0.60359 0.11300
 O88 O -0.12402 0.41528 -0.01284
 O89 O -0.05335 0.36564 -0.01210
 C90 C -0.10172 0.37189 -0.01299
 Zr91 Zr -0.09323 0.48822 -0.01046
 O92 O -0.15398 0.48446 0.04071
 O93 O -0.14293 0.48192 -0.07325
 Zr94 Zr -0.00933 0.49041 0.08605
 O95 O -0.07006 0.48805 0.13759
 O96 O 0.04282 0.48685 0.14677
 Zr97 Zr 0.00303 0.42134 -0.00826
 Zr98 Zr -0.01133 0.57053 0.00067
 O99 O -0.06229 0.53184 0.04666
 O100 O -0.05444 0.44386 0.04172
 O101 O -0.05678 0.53919 -0.05709
 O102 O 0.04819 0.45397 0.04868
 O103 O -0.04814 0.45069 -0.06168
 O104 O 0.04020 0.54212 0.05434
 H105 H 0.06546 0.57235 -0.06724
 H106 H 0.07005 0.43224 0.06980
 H107 H -0.08613 0.55142 0.06770
 H108 H -0.06582 0.42726 -0.08497
 H109 H 0.13014 0.52920 0.08617
 H110 H 0.06709 0.51449 0.14225
 H111 H -0.08761 0.45566 0.13273
 H112 H -0.14427 0.46075 0.06771
 H113 H -0.14204 0.51407 -0.09183
 H114 H -0.07756 0.51955 -0.14961
 H115 H 0.08402 0.48594 -0.14340
 H116 H 0.14022 0.49302 -0.07751
 O117 O -0.12051 -0.00363 0.57570
 O118 O -0.05113 -0.01462 0.62689
 C119 C -0.09922 -0.01075 0.61970
 O120 O -0.00753 -0.11746 0.41016
 O121 O -0.00819 -0.04488 0.36375
 C122 C -0.00886 -0.09333 0.36751
 O123 O -0.00779 -0.13560 0.55062
 O124 O 0.00304 -0.07869 0.61556
 C125 C -0.00342 -0.12412 0.59827
 O126 O -0.12756 0.02005 0.43396
 O127 O -0.06403 0.02116 0.37536
 C128 C -0.11087 0.02451 0.38780
 Zr129 Zr -0.08739 0.00518 0.50285
 O130 O -0.14750 -0.04596 0.49294
 O131 O -0.13879 0.06395 0.51880
 Zr132 Zr -0.00510 -0.08986 0.48560
 O133 O -0.06630 -0.13957 0.47521
 O134 O 0.04588 -0.15091 0.48081
 O135 O -0.05105 -0.05451 0.53879
 O136 O -0.05544 -0.04247 0.44997
 O137 O 0.00540 0.13301 0.44519
 O138 O 0.00044 0.07545 0.38033
 C139 C 0.00254 0.12109 0.39766
 O140 O 0.13300 -0.01655 0.55920
 O141 O 0.07135 -0.01974 0.61966
 C142 C 0.11815 -0.01988 0.60560
 O143 O 0.12444 -0.00380 0.42007
 O144 O 0.05637 0.01028 0.36820
 C145 C 0.10417 0.00367 0.37600
 O146 O 0.02127 0.11436 0.58296
 O147 O 0.01497 0.04353 0.63147
 C148 C 0.02163 0.09162 0.62613
 Zr149 Zr 0.00881 0.08668 0.50950
 O150 O 0.06648 0.14122 0.50809
 O151 O -0.04468 0.14326 0.52687
 Zr152 Zr 0.09116 -0.00874 0.49204
 O153 O 0.15325 0.04073 0.49138
 O154 O 0.13938 -0.07195 0.48548
 Zr155 Zr 0.00663 -0.01135 0.57302
 Zr156 Zr -0.00180 0.00852 0.42255
 O157 O 0.05498 0.05096 0.45804
 O158 O 0.06031 0.03979 0.54589
 O159 O -0.04809 0.05938 0.46254
 O160 O 0.05151 -0.06192 0.53161
 O161 O -0.04253 0.04704 0.55137
 O162 O 0.04701 -0.05079 0.44246
 H163 H -0.07893 -0.05862 0.42564
 H164 H 0.07186 -0.08694 0.55039
 H165 H 0.07651 0.07327 0.43763
 H166 H -0.06016 0.06646 0.57807
 H167 H 0.06989 -0.14350 0.45344
 H168 H 0.13460 -0.08685 0.45144
 H169 H 0.14869 0.06483 0.51957
 H170 H 0.09439 0.12881 0.52956
 H171 H -0.06766 0.14657 0.49747
 H172 H -0.13306 0.09074 0.49376
 H173 H -0.14404 -0.07206 0.51924
 H174 H -0.08842 -0.13594 0.50500
 C175 C -0.36545 0.16154 -0.02583
 C176 C -0.34035 0.18696 0.01284
 C177 C -0.29995 0.22307 0.00165
 C178 C -0.25844 0.22683 0.03454
 C179 C -0.21896 0.25968 0.02338
 C180 C -0.22124 0.29008 -0.02016
 C181 C -0.26321 0.28686 -0.05247
 C182 C -0.30219 0.25361 -0.04171
 C183 C -0.18329 0.32915 -0.03014
 C184 C -0.13368 0.32702 -0.01253
 H185 H -0.34783 0.17774 0.05194
 H186 H -0.25649 0.20417 0.06872
 H187 H -0.18747 0.26217 0.04963
 H188 H -0.26605 0.31042 -0.08594
 H189 H -0.33448 0.25274 -0.06693
 H190 H -0.19528 0.36152 -0.05203
 H191 H -0.35569 0.16687 -0.06535
 H192 H -0.11851 0.29285 0.00361
 C193 C 0.36913 0.83436 0.02996
 C194 C 0.31719 0.83874 0.02368
 C195 C 0.28311 0.79479 0.02353
 C196 C 0.23140 0.80244 0.03067
 C197 C 0.19807 0.76186 0.02943
 C198 C 0.21611 0.71278 0.02078
 C199 C 0.26767 0.70519 0.01355
 C200 C 0.30081 0.74565 0.01440
 C201 C 0.18238 0.66894 0.01784
 C202 C 0.13036 0.67403 0.01871
 H203 H 0.30083 0.87565 0.01850
 H204 H 0.21696 0.83997 0.03722
 H205 H 0.15839 0.76905 0.03516
 H206 H 0.28226 0.66774 0.00642
 H207 H 0.33990 0.73783 0.00661
 H208 H 0.19898 0.63187 0.01275
 H209 H 0.38602 0.79821 0.03771
 H210 H 0.11162 0.64917 0.01559
 C211 C 0.32242 0.11805 0.00186
 C212 C 0.32225 0.17042 0.00085
 C213 C 0.27629 0.20187 0.00201
 C214 C 0.28075 0.25130 0.01982
 C215 C 0.23945 0.28362 0.01968
 C216 C 0.19268 0.26767 0.00043
 C217 C 0.18762 0.21769 -0.01611
 C218 C 0.22912 0.18499 -0.01555
 C219 C 0.14918 0.30261 -0.00257
 C220 C 0.15601 0.35435 -0.00710
 H221 H 0.35800 0.18985 0.00200
 H222 H 0.31645 0.26501 0.03412
 H223 H 0.24449 0.32102 0.03503
 H224 H 0.15185 0.20434 -0.03062
 H225 H 0.22442 0.14724 -0.03015
 H226 H 0.11145 0.28734 -0.00232
 H227 H 0.28739 0.09762 0.00374
 H228 H 0.19361 0.36919 -0.01099
 C229 C -0.32229 0.87932 -0.00533
 C230 C -0.32280 0.82737 0.00131
 C231 C -0.27770 0.79477 0.00210
 C232 C -0.28294 0.74625 0.02155
 C233 C -0.24271 0.71272 0.02123
 C234 C -0.19633 0.72660 0.00045
 C235 C -0.19023 0.77573 -0.01738
 C236 C -0.23070 0.80959 -0.01692
 C237 C -0.15431 0.69027 -0.00273
 C238 C -0.16301 0.63882 -0.00734
 H239 H -0.35854 0.80932 0.00836
 H240 H -0.31849 0.73403 0.03696
 H241 H -0.24815 0.67597 0.03748
 H242 H -0.15454 0.78746 -0.03287
 H243 H -0.22525 0.84652 -0.03264
 H244 H -0.11615 0.70426 -0.00334
 H245 H -0.28730 0.89919 -0.01031
 H246 H -0.20106 0.62519 -0.01153
 C247 C -0.01822 -0.35836 0.15331
 C248 C -0.01291 -0.30691 0.14563
 C249 C -0.00913 -0.27183 0.18925
 C250 C -0.02762 -0.22262 0.18506
 C251 C -0.02683 -0.19005 0.22696
 C252 C -0.00678 -0.20616 0.27363
 C253 C 0.01298 -0.25483 0.27721
 C254 C 0.01236 -0.28715 0.23550
 C255 C -0.00694 -0.17461 0.31994
 C256 C -0.01120 -0.12245 0.32004
 H257 H -0.01294 -0.29202 0.10749
 H258 H -0.04396 -0.20975 0.14979
 H259 H -0.04314 -0.15305 0.22283
 H260 H 0.02910 -0.26791 0.31254
 H261 H 0.02901 -0.32404 0.23968
 H262 H -0.00104 -0.19344 0.35579
 H263 H -0.02189 -0.37230 0.19157
 H264 H -0.01423 -0.10211 0.28481
 C265 C 0.02096 0.34295 0.84754
 C266 C 0.02658 0.34665 0.79543
 C267 C 0.03195 0.30106 0.76339
 C268 C 0.00764 0.25569 0.77543
 C269 C 0.01364 0.21297 0.74486
 C270 C 0.04399 0.21484 0.70154
 C271 C 0.06793 0.26027 0.68953
 C272 C 0.06174 0.30298 0.71991
 C273 C 0.04798 0.17259 0.66498
 C274 C 0.02876 0.12401 0.67123
 H275 H 0.03029 0.38332 0.77837
 H276 H -0.01710 0.25335 0.80775
 H277 H -0.00671 0.17931 0.75461
 H278 H 0.09101 0.26300 0.65594
 H279 H 0.08059 0.33746 0.70958
 H280 H 0.06462 0.18153 0.62877
 H281 H 0.02169 0.30610 0.86467
 H282 H 0.01655 0.11092 0.70783
 C283 C -0.00265 0.32886 0.12824
 C284 C -0.00236 0.33127 0.18086
 C285 C -0.00054 0.28590 0.21251
 C286 C 0.02248 0.28899 0.26020
 C287 C 0.02482 0.24708 0.29142
 C288 C 0.00281 0.20142 0.27609
 C289 C -0.01968 0.19803 0.22803
 C290 C -0.02164 0.24002 0.19652
 C291 C 0.00240 0.15738 0.30982
 C292 C 0.00248 0.16312 0.36229
 H293 H 0.00025 0.36757 0.19949
 H294 H 0.03923 0.32382 0.27317
 H295 H 0.04430 0.25070 0.32732
 H296 H -0.03675 0.16325 0.21531
 H297 H -0.04070 0.23676 0.16035
 H298 H -0.00066 0.12020 0.29317
 H299 H -0.00095 0.29284 0.10911
 H300 H 0.00185 0.20038 0.37885
 C301 C -0.01264 -0.34117 0.86525
 C302 C -0.00765 -0.34139 0.81241
 C303 C -0.00637 -0.29488 0.78137
 C304 C 0.01429 -0.29758 0.73266
 C305 C 0.01619 -0.25514 0.70182
 C306 C -0.00318 -0.20873 0.71869
 C307 C -0.02344 -0.20572 0.76758
 C308 C -0.02549 -0.24835 0.79848
 C309 C -0.00241 -0.16333 0.68608
 C310 C -0.00515 -0.16700 0.63335
 H311 H -0.00146 -0.37683 0.79288
 H312 H 0.02954 -0.33265 0.71845
 H313 H 0.03355 -0.25881 0.66504
 H314 H -0.03869 -0.17051 0.78154
 H315 H -0.04295 -0.24463 0.83515
 H316 H -0.00214 -0.12658 0.70389
 H317 H -0.01606 -0.30549 0.88480
 H318 H -0.00966 -0.20372 0.61614
 C319 C 0.32944 -0.02638 0.87586
 C320 C 0.32887 -0.01993 0.82357
 C321 C 0.28230 -0.01948 0.79270
 C322 C 0.28354 0.00422 0.74555
 C323 C 0.24102 0.00523 0.71455
 C324 C 0.19637 -0.01852 0.72952
 C325 C 0.19452 -0.04122 0.77720
 C326 C 0.23723 -0.04208 0.80849
 C327 C 0.15216 -0.02059 0.69530
 C328 C 0.15873 -0.02322 0.64314
 H329 H 0.36380 -0.01098 0.80475
 H330 H 0.31754 0.02232 0.73268
 H331 H 0.24330 0.02484 0.67888
 H332 H 0.16049 -0.05955 0.78959
 H333 H 0.23496 -0.06150 0.84420
 H334 H 0.11469 -0.02182 0.71109
 H335 H 0.29473 -0.03211 0.89612
 H336 H 0.19651 -0.02607 0.62823
 C337 C -0.33705 0.03528 0.13275
 C338 C -0.34328 0.04162 0.18549
 C339 C -0.30302 0.04346 0.22466
 C340 C -0.25335 0.02772 0.21576
 C341 C -0.21860 0.02497 0.25593
 C342 C -0.23280 0.03825 0.30574
 C343 C -0.28219 0.05452 0.31415
 C344 C -0.31672 0.05727 0.27418
 C345 C -0.19822 0.03339 0.35000
 C346 C -0.14609 0.03285 0.34530
 H347 H -0.38116 0.04425 0.20025
 H348 H -0.24167 0.01577 0.17842
 H349 H -0.18138 0.01061 0.24793
 H350 H -0.29431 0.06470 0.35195
 H351 H -0.35481 0.06939 0.28226
 H352 H -0.21440 0.03115 0.38751
 H353 H -0.29978 0.03662 0.11654
 H354 H -0.12958 0.03812 0.30838
 C355 C 0.35749 -0.02073 0.15937
 C356 C 0.35206 0.01058 0.20121
 C357 C 0.30932 0.00359 0.23546
 C358 C 0.27638 0.04364 0.24530
 C359 C 0.23441 0.03654 0.27613
 C360 C 0.22592 -0.01037 0.29864
 C361 C 0.25957 -0.05006 0.28955
 C362 C 0.30058 -0.04339 0.25757
 C363 C 0.18551 -0.01755 0.33570
 C364 C 0.13849 0.00577 0.33270
 H365 H 0.37565 0.04346 0.20540
 H366 H 0.28281 0.08018 0.22869
 H367 H 0.20957 0.06804 0.28349
 H368 H 0.25404 -0.08627 0.30725
 H369 H 0.32603 -0.07460 0.25091
 H370 H 0.19344 -0.04248 0.36711
 H371 H 0.32919 -0.04897 0.15161
 H372 H 0.12719 0.02602 0.29903
 C373 C -0.35947 0.00356 0.84043
 C374 C -0.30722 0.00305 0.84531
 C375 C -0.27441 0.00260 0.79982
 C376 C -0.22776 -0.02211 0.80140
 C377 C -0.19742 -0.02490 0.75821
 C378 C -0.21284 -0.00216 0.71253
 C379 C -0.25922 0.02307 0.71128
 C380 C -0.28945 0.02582 0.75437
 C381 C -0.18217 -0.00405 0.66557
 C382 C -0.13052 -0.01352 0.66556
 H383 H -0.29035 -0.00090 0.88255
 H384 H -0.21527 -0.04042 0.83577
 H385 H -0.16261 -0.04583 0.76074
 H386 H -0.27201 0.04116 0.67688
 H387 H -0.32442 0.04659 0.75201
 H388 H -0.20039 0.00541 0.63003
 H389 H -0.37578 0.00243 0.80277
 H390 H -0.11104 -0.02003 0.70099
   
