data_POSCAR
  _audit_creation_date              2014-09-24
  _audit_creation_method            'ToBaCCo'
  _symmetry_space_group_name_H-M    'P1'
  _symmetry_Int_Tables_number       1
  _symmetry_cell_setting            triclinic
  loop_
  _symmetry_equiv_pos_as_xyz
 x,y,z
_cell_length_a 69.5151
_cell_length_b 70.2972
_cell_length_c 69.8713
_cell_angle_alpha 90.003800
_cell_angle_beta 89.837100
_cell_angle_gamma 90.049300
loop_
  _atom_site_label
  _atom_site_type_symbol
  _atom_site_fract_x
  _atom_site_fract_y
  _atom_site_fract_z
N1 N 0.27848 0.24331 0.22659
 N2 N 0.27087 0.25933 0.22064
 C3 C 0.28045 0.26531 0.20497
 C4 C 0.29487 0.25232 0.20081
 C5 C 0.29315 0.23854 0.21493
 H6 H 0.27703 0.27811 0.19715
 H7 H 0.30173 0.22584 0.21654
 Cu8 Cu 0.24877 0.27076 0.23329
 Cu9 Cu 0.26870 0.22979 0.24887
 Cu10 Cu 0.22748 0.24759 0.27004
 N11 N 0.22447 0.27916 0.24425
 N12 N 0.21618 0.27013 0.25851
 C13 C 0.19953 0.27889 0.26293
 C14 C 0.19717 0.29427 0.25072
 C15 C 0.21336 0.29394 0.23908
 H16 H 0.18978 0.27421 0.27404
 H17 H 0.21682 0.30369 0.22763
 N18 N 0.24100 0.22496 0.27967
 N19 N 0.25669 0.21815 0.27156
 C20 C 0.26234 0.20254 0.28118
 C21 C 0.24957 0.19929 0.29611
 C22 C 0.23626 0.21389 0.29468
 H23 H 0.27482 0.19416 0.27751
 H24 H 0.22392 0.21626 0.30380
 H25 H 0.24091 0.23917 0.24502
 H26 H 0.25596 0.25285 0.26245
 N27 N 0.72061 -0.24336 0.22600
 N28 N 0.73005 -0.25755 0.21817
 C29 C 0.72070 -0.26325 0.20231
 C30 C 0.70445 -0.25197 0.19992
 C31 C 0.70498 -0.23948 0.21536
 H32 H 0.72559 -0.27461 0.19311
 H33 H 0.69482 -0.22834 0.21873
 Cu34 Cu 0.75366 -0.26732 0.22943
 Cu35 Cu 0.72971 -0.23047 0.24898
 Cu36 Cu 0.77128 -0.24805 0.26981
 N37 N 0.77663 -0.27736 0.24172
 N38 N 0.78331 -0.26994 0.25761
 C39 C 0.79912 -0.27958 0.26304
 C40 C 0.80262 -0.29398 0.24983
 C41 C 0.78793 -0.29203 0.23650
 H42 H 0.80733 -0.27627 0.27572
 H43 H 0.78561 -0.30051 0.22384
 N44 N 0.75713 -0.22600 0.28004
 N45 N 0.74127 -0.21933 0.27219
 C46 C 0.73555 -0.20381 0.28197
 C47 C 0.74846 -0.20045 0.29670
 C48 C 0.76190 -0.21490 0.29500
 H49 H 0.72309 -0.19539 0.27839
 H50 H 0.77452 -0.21698 0.30372
 H51 H 0.75855 -0.23678 0.24543
 H52 H 0.74385 -0.25373 0.25999
 N53 N 0.72179 0.24322 0.77320
 N54 N 0.73042 0.25826 0.78036
 C55 C 0.72087 0.26394 0.79614
 C56 C 0.70536 0.25185 0.79907
 C57 C 0.70644 0.23888 0.78414
 H58 H 0.72511 0.27578 0.80504
 H59 H 0.69692 0.22704 0.78146
 Cu60 Cu 0.75377 0.26826 0.76873
 Cu61 Cu 0.73149 0.22994 0.75065
 Cu62 Cu 0.77335 0.24767 0.73004
 N63 N 0.77714 0.27827 0.75710
 N64 N 0.78478 0.27006 0.74199
 C65 C 0.80096 0.27941 0.73705
 C66 C 0.80376 0.29434 0.74982
 C67 C 0.78822 0.29307 0.76233
 H68 H 0.81002 0.27539 0.72516
 H69 H 0.78517 0.30214 0.77443
 N70 N 0.75960 0.22523 0.72007
 N71 N 0.74363 0.21857 0.72783
 C72 C 0.73782 0.20322 0.71786
 C73 C 0.75075 0.19998 0.70307
 C74 C 0.76435 0.21429 0.70497
 H75 H 0.72512 0.19499 0.72119
 H76 H 0.77691 0.21651 0.69611
 H77 H 0.76010 0.23715 0.75457
 H78 H 0.74548 0.25286 0.73872
 N79 N 0.27978 -0.24373 0.77358
 N80 N 0.27133 -0.25907 0.78026
 C81 C 0.28061 -0.26485 0.79612
 C82 C 0.29575 -0.25247 0.79962
 C83 C 0.29473 -0.23925 0.78491
 H84 H 0.27648 -0.27705 0.80458
 H85 H 0.30397 -0.22708 0.78270
 Cu86 Cu 0.24857 -0.26974 0.76815
 Cu87 Cu 0.27032 -0.23033 0.75114
 Cu88 Cu 0.22883 -0.24773 0.73006
 N89 N 0.22484 -0.27869 0.75651
 N90 N 0.21711 -0.27009 0.74173
 C91 C 0.20065 -0.27903 0.73701
 C92 C 0.19778 -0.29413 0.74957
 C93 C 0.21356 -0.29337 0.76172
 H94 H 0.19147 -0.27467 0.72536
 H95 H 0.21661 -0.30263 0.77365
 N96 N 0.24278 -0.22526 0.72034
 N97 N 0.25858 -0.21867 0.72837
 C98 C 0.26448 -0.20313 0.71874
 C99 C 0.25178 -0.19967 0.70388
 C100 C 0.23822 -0.21408 0.70538
 H101 H 0.27704 -0.19486 0.72241
 H102 H 0.22581 -0.21622 0.69636
 H103 H 0.24186 -0.23834 0.75492
 H104 H 0.25673 -0.25328 0.73843
 N105 N 0.72271 -0.24204 0.77478
 N106 N 0.73038 -0.25790 0.78111
 C107 C 0.72108 -0.26329 0.79716
 C108 C 0.70679 -0.25009 0.80114
 C109 C 0.70830 -0.23682 0.78654
 H110 H 0.72452 -0.27586 0.80536
 H111 H 0.69978 -0.22411 0.78471
 Cu112 Cu 0.75214 -0.26970 0.76808
 Cu113 Cu 0.73216 -0.22903 0.75206
 Cu114 Cu 0.77153 -0.24876 0.72912
 N115 N 0.77489 -0.27995 0.75541
 N116 N 0.78234 -0.27171 0.74024
 C117 C 0.79821 -0.28122 0.73480
 C118 C 0.80104 -0.29636 0.74726
 C119 C 0.78580 -0.29505 0.76014
 H120 H 0.80708 -0.27716 0.72276
 H121 H 0.78297 -0.30412 0.77230
 N122 N 0.75866 -0.22554 0.72003
 N123 N 0.74374 -0.21795 0.72885
 C124 C 0.73858 -0.20196 0.71958
 C125 C 0.75085 -0.19930 0.70413
 C126 C 0.76338 -0.21461 0.70491
 H127 H 0.72685 -0.19286 0.72391
 H128 H 0.77517 -0.21756 0.69526
 H129 H 0.74365 -0.25275 0.73880
 H130 H 0.76013 -0.23873 0.75454
 N131 N 0.27803 0.24203 0.77549
 N132 N 0.26953 0.25719 0.78252
 C133 C 0.27861 0.26246 0.79870
 C134 C 0.29365 0.24991 0.80199
 C135 C 0.29278 0.23716 0.78688
 H136 H 0.27442 0.27439 0.80752
 H137 H 0.30208 0.22513 0.78431
 Cu138 Cu 0.24715 0.26804 0.76989
 Cu139 Cu 0.26921 0.22930 0.75234
 Cu140 Cu 0.22959 0.24882 0.72962
 N141 N 0.22486 0.27893 0.75711
 N142 N 0.21821 0.27132 0.74129
 C143 C 0.20269 0.28113 0.73548
 C144 C 0.19930 0.29574 0.74837
 C145 C 0.21373 0.29388 0.76193
 H146 H 0.19446 0.27772 0.72285
 H147 H 0.21584 0.30255 0.77452
 N148 N 0.24307 0.22607 0.72006
 N149 N 0.25809 0.21856 0.72874
 C150 C 0.26359 0.20286 0.71912
 C151 C 0.25145 0.20029 0.70362
 C152 C 0.23865 0.21536 0.70472
 H153 H 0.27540 0.19381 0.72332
 H154 H 0.22679 0.21824 0.69521
 H155 H 0.25699 0.25296 0.74009
 H156 H 0.24073 0.23750 0.75463
 N157 N 0.27810 -0.24183 0.22568
 N158 N 0.27039 -0.25761 0.21917
 C159 C 0.27973 -0.26288 0.20311
 C160 C 0.29412 -0.24970 0.19933
 C161 C 0.29260 -0.23656 0.21405
 H162 H 0.27616 -0.27531 0.19474
 H163 H 0.30123 -0.22395 0.21613
 Cu164 Cu 0.24864 -0.26960 0.23200
 Cu165 Cu 0.26855 -0.22898 0.24842
 Cu166 Cu 0.22915 -0.24893 0.27110
 N167 N 0.22570 -0.27975 0.24439
 N168 N 0.21836 -0.27178 0.25976
 C169 C 0.20253 -0.28142 0.26514
 C170 C 0.19964 -0.29629 0.25243
 C171 C 0.21470 -0.29474 0.23943
 H172 H 0.19367 -0.27763 0.27726
 H173 H 0.21736 -0.30366 0.22712
 N174 N 0.24199 -0.22575 0.28040
 N175 N 0.25689 -0.21803 0.27164
 C176 C 0.26186 -0.20196 0.28090
 C177 C 0.24947 -0.19937 0.29627
 C178 C 0.23710 -0.21483 0.29547
 H179 H 0.27348 -0.19270 0.27655
 H180 H 0.22522 -0.21783 0.30500
 H181 H 0.25691 -0.25270 0.26135
 H182 H 0.24046 -0.23867 0.24562
 N183 N 0.72091 0.24192 0.22471
 N184 N 0.72903 0.25745 0.21806
 C185 C 0.71998 0.26273 0.20189
 C186 C 0.70533 0.24982 0.19822
 C187 C 0.70642 0.23682 0.21309
 H188 H 0.72383 0.27502 0.19342
 H189 H 0.69750 0.22442 0.21528
 Cu190 Cu 0.75076 0.26918 0.23105
 Cu191 Cu 0.72981 0.22916 0.24771
 Cu192 Cu 0.76907 0.24880 0.27070
 N193 N 0.77347 0.27932 0.24373
 N194 N 0.78036 0.27144 0.25931
 C195 C 0.79609 0.28105 0.26493
 C196 C 0.79939 0.29580 0.25217
 C197 C 0.78467 0.29421 0.23888
 H198 H 0.80462 0.27734 0.27727
 H199 H 0.78235 0.30308 0.22648
 N200 N 0.75574 0.22587 0.28003
 N201 N 0.74086 0.21828 0.27119
 C202 C 0.73540 0.20247 0.28065
 C203 C 0.74743 0.19991 0.29623
 C204 C 0.76013 0.21510 0.29533
 H205 H 0.72368 0.19336 0.27631
 H206 H 0.77187 0.21805 0.30496
 H207 H 0.74152 0.25290 0.26052
 H208 H 0.75805 0.23835 0.24527
 C209 C 0.24960 0.00990 0.50034
 C210 C 0.25000 -0.00941 0.50025
 C211 C 0.25045 -0.02035 0.48217
 C212 C 0.25017 -0.02090 0.51804
 C213 C 0.24954 0.02114 0.51831
 C214 C 0.24958 0.02102 0.48231
 C215 C 0.23392 -0.02222 0.47090
 C216 C 0.23394 -0.03443 0.45509
 C217 C 0.25056 -0.04483 0.45023
 C218 C 0.26726 -0.04239 0.46130
 C219 C 0.26713 -0.03040 0.47722
 C220 C 0.23630 -0.03518 0.52055
 C221 C 0.23693 -0.04713 0.53646
 C222 C 0.25151 -0.04510 0.55020
 C223 C 0.26538 -0.03071 0.54770
 C224 C 0.26475 -0.01874 0.53172
 C225 C 0.26404 0.03469 0.52125
 C226 C 0.26389 0.04615 0.53755
 C227 C 0.24917 0.04436 0.55128
 C228 C 0.23460 0.03076 0.54830
 C229 C 0.23477 0.01925 0.53193
 C230 C 0.26527 0.02036 0.46966
 C231 C 0.26571 0.03210 0.45352
 C232 C 0.25046 0.04471 0.44979
 C233 C 0.23470 0.04515 0.46243
 C234 C 0.23432 0.03348 0.47858
 H235 H 0.22085 -0.01478 0.47478
 H236 H 0.22075 -0.03623 0.44710
 H237 H 0.28040 -0.04988 0.45777
 H238 H 0.27999 -0.02910 0.48584
 H239 H 0.22505 -0.03722 0.51005
 H240 H 0.22625 -0.05828 0.53774
 H241 H 0.27581 -0.00805 0.52986
 H242 H 0.27546 0.03646 0.51083
 H243 H 0.27510 0.05673 0.53916
 H244 H 0.22310 0.02900 0.55863
 H245 H 0.22328 0.00908 0.52975
 H246 H 0.27735 0.01109 0.47254
 H247 H 0.27800 0.03140 0.44400
 H248 H 0.22290 0.05493 0.46014
 H249 H 0.22222 0.03433 0.48834
 H250 H 0.27672 -0.02873 0.55810
 C251 C 0.74865 -0.00967 0.49979
 C252 C 0.75104 0.00945 0.49970
 C253 C 0.75122 0.02064 0.51761
 C254 C 0.75146 0.02041 0.48164
 C255 C 0.74831 -0.02089 0.48189
 C256 C 0.74809 -0.02061 0.51784
 C257 C 0.73430 0.02276 0.52838
 C258 C 0.73399 0.03468 0.54438
 C259 C 0.75057 0.04479 0.54982
 C260 C 0.76757 0.04236 0.53913
 C261 C 0.76787 0.03041 0.52316
 C262 C 0.73417 0.02543 0.47273
 C263 C 0.73429 0.03732 0.45669
 C264 C 0.75174 0.04440 0.44929
 C265 C 0.76908 0.03889 0.45803
 C266 C 0.76893 0.02702 0.47409
 C267 C 0.76498 -0.02264 0.47067
 C268 C 0.76513 -0.03459 0.45468
 C269 C 0.74863 -0.04506 0.44970
 C270 C 0.73189 -0.04304 0.46087
 C271 C 0.73176 -0.03109 0.47683
 C272 C 0.76530 -0.02651 0.52634
 C273 C 0.76495 -0.03854 0.54226
 C274 C 0.74734 -0.04489 0.54994
 C275 C 0.73010 -0.03852 0.54162
 C276 C 0.73048 -0.02649 0.52568
 H277 H 0.72124 0.01551 0.52413
 H278 H 0.72072 0.03611 0.55242
 H279 H 0.78050 0.05015 0.54277
 H280 H 0.78104 0.02901 0.51499
 H281 H 0.72057 0.02053 0.47851
 H282 H 0.72068 0.04148 0.45049
 H283 H 0.78242 0.02316 0.48074
 H284 H 0.77798 -0.01509 0.47457
 H285 H 0.77819 -0.03573 0.44628
 H286 H 0.71906 -0.05113 0.45760
 H287 H 0.71880 -0.03001 0.48537
 H288 H 0.77900 -0.02220 0.52031
 H289 H 0.77848 -0.04338 0.54815
 H290 H 0.71631 -0.04292 0.54735
 H291 H 0.71706 -0.02200 0.51931
 H292 H 0.78277 0.04384 0.45252
 C293 C 0.49994 0.25049 0.00951
 C294 C 0.49982 0.25047 -0.00996
 C295 C 0.48166 0.25018 -0.02105
 C296 C 0.51781 0.25081 -0.02146
 C297 C 0.51812 0.25018 0.02059
 C298 C 0.48192 0.25088 0.02098
 C299 C 0.46815 0.23549 -0.01878
 C300 C 0.45161 0.23501 -0.03014
 C301 C 0.44840 0.24917 -0.04399
 C302 C 0.46203 0.26378 -0.04624
 C303 C 0.47849 0.26424 -0.03492
 C304 C 0.52080 0.23675 -0.03538
 C305 C 0.53691 0.23743 -0.04729
 C306 C 0.55037 0.25226 -0.04559
 C307 C 0.54736 0.26638 -0.03162
 C308 C 0.53119 0.26567 -0.01967
 C309 C 0.52138 0.26425 0.03443
 C310 C 0.53789 0.26377 0.04570
 C311 C 0.55146 0.24913 0.04343
 C312 C 0.54815 0.23499 0.02958
 C313 C 0.53158 0.23548 0.01827
 C314 C 0.46852 0.26568 0.01901
 C315 C 0.45225 0.26638 0.03084
 C316 C 0.44918 0.25234 0.04487
 C317 C 0.46262 0.23753 0.04670
 C318 C 0.47883 0.23685 0.03492
 H319 H 0.47054 0.22429 -0.00842
 H320 H 0.44133 0.22361 -0.02808
 H321 H 0.46016 0.27464 -0.05706
 H322 H 0.48889 0.27554 -0.03706
 H323 H 0.51050 0.22531 -0.03715
 H324 H 0.53858 0.22658 -0.05817
 H325 H 0.52892 0.27688 -0.00926
 H326 H 0.51103 0.27557 0.03659
 H327 H 0.53983 0.27465 0.05650
 H328 H 0.55839 0.22357 0.02747
 H329 H 0.52913 0.22428 0.00792
 H330 H 0.47081 0.27682 0.00855
 H331 H 0.44208 0.27789 0.02902
 H332 H 0.46085 0.22670 0.05758
 H333 H 0.48911 0.22543 0.03677
 H334 H 0.55751 0.27795 -0.02994
 C335 C 0.50038 0.74959 -0.00961
 C336 C 0.50024 0.74964 0.00986
 C337 C 0.51827 0.74934 0.02121
 C338 C 0.48205 0.74987 0.02104
 C339 C 0.48236 0.74924 -0.02098
 C340 C 0.51857 0.74975 -0.02079
 C341 C 0.53150 0.73435 0.01949
 C342 C 0.54783 0.73378 0.03114
 C343 C 0.55117 0.74815 0.04477
 C344 C 0.53790 0.76315 0.04635
 C345 C 0.52161 0.76369 0.03474
 C346 C 0.47869 0.73562 0.03470
 C347 C 0.46211 0.73597 0.04598
 C348 C 0.44857 0.75067 0.04394
 C349 C 0.45196 0.76496 0.03024
 C350 C 0.46859 0.76459 0.01891
 C351 C 0.47918 0.76345 -0.03469
 C352 C 0.46293 0.76284 -0.04636
 C353 C 0.44957 0.74791 -0.04466
 C354 C 0.45275 0.73369 -0.03085
 C355 C 0.46903 0.73434 -0.01913
 C356 C 0.53203 0.76451 -0.01880
 C357 C 0.54864 0.76482 -0.03017
 C358 C 0.55200 0.75042 -0.04376
 C359 C 0.53845 0.73570 -0.04567
 C360 C 0.52189 0.73541 -0.03434
 H361 H 0.52901 0.72296 0.00935
 H362 H 0.55783 0.72208 0.02952
 H363 H 0.53984 0.77424 0.05692
 H364 H 0.51146 0.77527 0.03640
 H365 H 0.48900 0.72425 0.03668
 H366 H 0.46010 0.72496 0.05664
 H367 H 0.47108 0.77589 0.00867
 H368 H 0.48940 0.77496 -0.03645
 H369 H 0.46110 0.77382 -0.05707
 H370 H 0.44266 0.72207 -0.02913
 H371 H 0.47141 0.72306 -0.00885
 H372 H 0.52955 0.77589 -0.00865
 H373 H 0.55885 0.77631 -0.02832
 H374 H 0.54042 0.72460 -0.05624
 H375 H 0.51157 0.72401 -0.03621
 H376 H 0.44175 0.77641 0.02828
 C377 C 0.00900 0.49987 0.24817
 C378 C -0.01057 0.49999 0.24809
 C379 C -0.02198 0.48215 0.24851
 C380 C -0.02184 0.51795 0.24795
 C381 C 0.02046 0.51767 0.24857
 C382 C 0.02022 0.48189 0.24814
 C383 C -0.03579 0.47890 0.23429
 C384 C -0.04741 0.46273 0.23495
 C385 C -0.04553 0.44951 0.24993
 C386 C -0.03162 0.45277 0.26415
 C387 C -0.01999 0.46899 0.26349
 C388 C -0.01982 0.53134 0.23317
 C389 C -0.03132 0.54769 0.23291
 C390 C -0.04502 0.55090 0.24742
 C391 C -0.04701 0.53738 0.26212
 C392 C -0.03559 0.52108 0.26233
 C393 C 0.01849 0.53083 0.26356
 C394 C 0.03033 0.54692 0.26429
 C395 C 0.04436 0.55005 0.25009
 C396 C 0.04624 0.53682 0.23512
 C397 C 0.03445 0.52077 0.23442
 C398 C 0.03377 0.47870 0.26262
 C399 C 0.04515 0.46237 0.26245
 C400 C 0.04331 0.44888 0.24771
 C401 C 0.02968 0.45208 0.23320
 C402 C 0.01826 0.46847 0.23339
 H403 H -0.03766 0.48900 0.22274
 H404 H -0.05822 0.46082 0.22399
 H405 H -0.02976 0.44278 0.27579
 H406 H -0.00965 0.47143 0.27478
 H407 H -0.00954 0.52901 0.22173
 H408 H -0.02946 0.55786 0.22141
 H409 H -0.03753 0.51080 0.27373
 H410 H 0.00803 0.52848 0.27483
 H411 H 0.02852 0.55691 0.27595
 H412 H 0.05715 0.53863 0.22418
 H413 H 0.03634 0.51063 0.22289
 H414 H 0.03559 0.48897 0.27404
 H415 H 0.05572 0.46051 0.27365
 H416 H 0.02784 0.44189 0.22173
 H417 H 0.00809 0.47080 0.22192
 H418 H -0.05770 0.53922 0.27327
 C419 C 0.01012 0.50062 0.75169
 C420 C -0.00945 0.50038 0.75157
 C421 C -0.02058 0.48233 0.75154
 C422 C -0.02095 0.51814 0.75117
 C423 C 0.02131 0.51863 0.75184
 C424 C 0.02161 0.48285 0.75126
 C425 C -0.03401 0.47902 0.73697
 C426 C -0.04521 0.46253 0.73702
 C427 C -0.04329 0.44902 0.75172
 C428 C -0.02976 0.45234 0.76630
 C429 C -0.01854 0.46888 0.76624
 C430 C -0.01891 0.53138 0.73627
 C431 C -0.03068 0.54749 0.73561
 C432 C -0.04475 0.55056 0.74979
 C433 C -0.04668 0.53727 0.76470
 C434 C -0.03495 0.52120 0.76533
 C435 C 0.01923 0.53201 0.76662
 C436 C 0.03075 0.54835 0.76695
 C437 C 0.04456 0.55154 0.75253
 C438 C 0.04653 0.53809 0.73777
 C439 C 0.03507 0.52180 0.73748
 C440 C 0.03547 0.47970 0.76545
 C441 C 0.04721 0.46363 0.76475
 C442 C 0.04538 0.45041 0.74976
 C443 C 0.03142 0.45357 0.73558
 C444 C 0.01969 0.46970 0.73628
 H445 H -0.03588 0.48930 0.72557
 H446 H -0.05570 0.46059 0.72577
 H447 H -0.02786 0.44214 0.77775
 H448 H -0.00843 0.47130 0.77776
 H449 H -0.00842 0.52909 0.72502
 H450 H -0.02881 0.55754 0.72401
 H451 H -0.03688 0.51101 0.77681
 H452 H 0.00890 0.52965 0.77801
 H453 H 0.02885 0.55851 0.77845
 H454 H 0.05727 0.53993 0.72667
 H455 H 0.03702 0.51155 0.72606
 H456 H 0.03730 0.48981 0.77701
 H457 H 0.05804 0.46180 0.77570
 H458 H 0.02959 0.44357 0.72393
 H459 H 0.00932 0.47207 0.72499
 H460 H -0.05761 0.53906 0.77563
 C461 C 0.32055 0.26739 0.15512
 C462 C 0.33521 0.25383 0.15394
 C463 C 0.33669 0.23976 0.16800
 C464 C 0.32362 0.23926 0.18324
 C465 C 0.30880 0.25285 0.18463
 C466 C 0.30744 0.26693 0.17034
 C467 C 0.34893 0.25446 0.13848
 C468 C 0.36065 0.25487 0.12574
 C469 C 0.37467 0.25514 0.11109
 C470 C 0.38691 0.25511 0.09883
 C471 C 0.40182 0.25468 0.08450
 C472 C 0.40726 0.23732 0.07632
 C473 C 0.42240 0.23662 0.06315
 C474 C 0.43235 0.25330 0.05798
 C475 C 0.42657 0.27074 0.06603
 C476 C 0.41141 0.27141 0.07923
 H477 H 0.31926 0.27835 0.14430
 H478 H 0.34801 0.22920 0.16724
 H479 H 0.32527 0.22826 0.19391
 H480 H 0.29626 0.27760 0.17078
 H481 H 0.39996 0.22429 0.08031
 H482 H 0.42638 0.22302 0.05705
 H483 H 0.43412 0.28378 0.06255
 H484 H 0.40738 0.28491 0.08556
 C485 C 0.67854 0.73245 0.15575
 C486 C 0.66369 0.74581 0.15490
 C487 C 0.66217 0.75972 0.16912
 C488 C 0.67551 0.76040 0.18405
 C489 C 0.69074 0.74716 0.18503
 C490 C 0.69195 0.73310 0.17062
 C491 C 0.65003 0.74535 0.13943
 C492 C 0.63848 0.74518 0.12657
 C493 C 0.62475 0.74522 0.11169
 C494 C 0.61280 0.74544 0.09920
 C495 C 0.59819 0.74590 0.08463
 C496 C 0.59301 0.76320 0.07619
 C497 C 0.57804 0.76387 0.06288
 C498 C 0.56798 0.74722 0.05785
 C499 C 0.57358 0.72982 0.06609
 C500 C 0.58857 0.72919 0.07940
 H501 H 0.67980 0.72153 0.14486
 H502 H 0.65070 0.77013 0.16862
 H503 H 0.67382 0.77149 0.19463
 H504 H 0.70317 0.72246 0.17067
 H505 H 0.60036 0.77623 0.08010
 H506 H 0.57425 0.77744 0.05661
 H507 H 0.56599 0.71680 0.06272
 H508 H 0.59240 0.71572 0.08589
 C509 C 0.67728 0.26826 -0.15721
 C510 C 0.66421 0.25332 -0.15481
 C511 C 0.66455 0.23788 -0.16745
 C512 C 0.67790 0.23738 -0.18244
 C513 C 0.69113 0.25236 -0.18502
 C514 C 0.69065 0.26780 -0.17219
 C515 C 0.65032 0.25388 -0.13951
 C516 C 0.63855 0.25426 -0.12682
 C517 C 0.62456 0.25453 -0.11215
 C518 C 0.61240 0.25454 -0.09982
 C519 C 0.59759 0.25423 -0.08539
 C520 C 0.59206 0.23694 -0.07714
 C521 C 0.57698 0.23637 -0.06389
 C522 C 0.56718 0.25311 -0.05874
 C523 C 0.57308 0.27051 -0.06683
 C524 C 0.58819 0.27104 -0.08010
 H525 H 0.67712 0.28030 -0.14753
 H526 H 0.65449 0.22622 -0.16571
 H527 H 0.67785 0.22518 -0.19187
 H528 H 0.70047 0.27964 -0.17370
 H529 H 0.59924 0.22384 -0.08113
 H530 H 0.57294 0.22280 -0.05773
 H531 H 0.56566 0.28360 -0.06335
 H532 H 0.59231 0.28450 -0.08646
 C533 C 0.32127 0.73260 -0.15468
 C534 C 0.33599 0.74613 -0.15360
 C535 C 0.33753 0.76015 -0.16772
 C536 C 0.32449 0.76062 -0.18291
 C537 C 0.30964 0.74704 -0.18421
 C538 C 0.30819 0.73303 -0.16985
 C539 C 0.34967 0.74556 -0.13817
 C540 C 0.36136 0.74523 -0.12545
 C541 C 0.37532 0.74507 -0.11081
 C542 C 0.38748 0.74516 -0.09854
 C543 C 0.40232 0.74560 -0.08420
 C544 C 0.40766 0.76293 -0.07591
 C545 C 0.42275 0.76362 -0.06275
 C546 C 0.43276 0.74697 -0.05771
 C547 C 0.42705 0.72955 -0.06587
 C548 C 0.41194 0.72889 -0.07905
 H549 H 0.31993 0.72168 -0.14381
 H550 H 0.34887 0.77071 -0.16704
 H551 H 0.32617 0.77162 -0.19359
 H552 H 0.29701 0.72235 -0.17022
 H553 H 0.40032 0.77595 -0.07980
 H554 H 0.42665 0.77721 -0.05656
 H555 H 0.43463 0.71653 -0.06249
 H556 H 0.40799 0.71541 -0.08545
 C557 C 0.16402 0.33396 0.23435
 C558 C 0.15004 0.33390 0.24877
 C559 C 0.15137 0.32086 0.26383
 C560 C 0.16666 0.30794 0.26448
 C561 C 0.18086 0.30790 0.25006
 C562 C 0.17930 0.32108 0.23496
 C563 C 0.13462 0.34755 0.24828
 C564 C 0.12199 0.35929 0.24781
 C565 C 0.10756 0.37339 0.24730
 C566 C 0.09554 0.38574 0.24701
 C567 C 0.08158 0.40086 0.24695
 C568 C 0.07329 0.40689 0.26418
 C569 C 0.06055 0.42225 0.26437
 C570 C 0.05596 0.43186 0.24732
 C571 C 0.06413 0.42550 0.23001
 C572 C 0.07688 0.41011 0.22985
 H573 H 0.16314 0.34402 0.22264
 H574 H 0.14067 0.32075 0.27514
 H575 H 0.16738 0.29815 0.27640
 H576 H 0.18980 0.32148 0.22352
 H577 H 0.07685 0.39985 0.27750
 H578 H 0.05434 0.42666 0.27789
 H579 H 0.06111 0.43276 0.21669
 H580 H 0.08331 0.40564 0.21644
 C581 C 0.15176 0.68103 0.73745
 C582 C 0.15148 0.66658 0.75120
 C583 C 0.16646 0.66522 0.76441
 C584 C 0.18170 0.67816 0.76390
 C585 C 0.18230 0.69283 0.75009
 C586 C 0.16701 0.69404 0.73687
 C587 C 0.13609 0.65287 0.75164
 C588 C 0.12351 0.64105 0.75215
 C589 C 0.10914 0.62687 0.75275
 C590 C 0.09713 0.61448 0.75313
 C591 C 0.08313 0.59938 0.75326
 C592 C 0.07838 0.59009 0.77036
 C593 C 0.06550 0.57478 0.77024
 C594 C 0.05726 0.56854 0.75296
 C595 C 0.06189 0.57820 0.73591
 C596 C 0.07474 0.59348 0.73607
 H597 H 0.14023 0.68220 0.72712
 H598 H 0.16641 0.65405 0.77510
 H599 H 0.19295 0.67644 0.77439
 H600 H 0.16665 0.70497 0.72599
 H601 H 0.08489 0.59447 0.78373
 H602 H 0.06243 0.56748 0.78355
 H603 H 0.05561 0.57388 0.72243
 H604 H 0.07832 0.60055 0.72275
 C605 C -0.16606 0.66527 0.23535
 C606 C -0.15194 0.66579 0.24953
 C607 C -0.15295 0.67954 0.26396
 C608 C -0.16796 0.69279 0.26415
 C609 C -0.18228 0.69256 0.24983
 C610 C -0.18106 0.67849 0.23545
 C611 C -0.13655 0.65208 0.24924
 C612 C -0.12388 0.64036 0.24879
 C613 C -0.10935 0.62634 0.24815
 C614 C -0.09723 0.61408 0.24766
 C615 C -0.08316 0.59904 0.24731
 C616 C -0.07454 0.59308 0.26435
 C617 C -0.06183 0.57770 0.26431
 C618 C -0.05755 0.56801 0.24718
 C619 C -0.06594 0.57438 0.23003
 C620 C -0.07869 0.58978 0.23012
 H621 H -0.16549 0.65460 0.22417
 H622 H -0.14212 0.68003 0.27506
 H623 H -0.16813 0.70320 0.27553
 H624 H -0.19163 0.67747 0.22419
 H625 H -0.07787 0.60015 0.27774
 H626 H -0.05541 0.57329 0.27769
 H627 H -0.06311 0.56708 0.21667
 H628 H -0.08534 0.59423 0.21685
 C629 C -0.15114 0.32036 0.73665
 C630 C -0.15045 0.33420 0.75100
 C631 C -0.16490 0.33484 0.76491
 C632 C -0.18000 0.32172 0.76454
 C633 C -0.18096 0.30762 0.75017
 C634 C -0.16622 0.30717 0.73622
 C635 C -0.13509 0.34795 0.75134
 C636 C -0.12243 0.35969 0.75168
 C637 C -0.10788 0.37371 0.75207
 C638 C -0.09573 0.38596 0.75230
 C639 C -0.08160 0.40095 0.75237
 C640 C -0.07684 0.41015 0.76949
 C641 C -0.06403 0.42551 0.76937
 C642 C -0.05584 0.43190 0.75208
 C643 C -0.06042 0.42229 0.73501
 C644 C -0.07322 0.40695 0.73517
 H645 H -0.14004 0.31978 0.72575
 H646 H -0.16453 0.34553 0.77608
 H647 H -0.19082 0.32279 0.77562
 H648 H -0.16618 0.29674 0.72485
 H649 H -0.08331 0.40568 0.78289
 H650 H -0.06101 0.43275 0.78270
 H651 H -0.05417 0.42671 0.72150
 H652 H -0.07680 0.39994 0.72183
 C653 C 0.23637 0.16763 0.33829
 C654 C 0.25061 0.15362 0.33718
 C655 C 0.26445 0.15445 0.32265
 C656 C 0.26413 0.16926 0.30930
 C657 C 0.24992 0.18351 0.31030
 C658 C 0.23602 0.18247 0.32497
 C659 C 0.25109 0.13850 0.35105
 C660 C 0.25148 0.12593 0.36276
 C661 C 0.25185 0.11135 0.37662
 C662 C 0.25201 0.09904 0.38863
 C663 C 0.25196 0.08461 0.40323
 C664 C 0.23494 0.07485 0.40755
 C665 C 0.23456 0.06157 0.42242
 C666 C 0.25121 0.05787 0.43319
 C667 C 0.26836 0.06747 0.42849
 C668 C 0.26871 0.08077 0.41361
 H669 H 0.22556 0.16711 0.34948
 H670 H 0.27551 0.14364 0.32163
 H671 H 0.27504 0.16943 0.29826
 H672 H 0.22484 0.19306 0.32629
 H673 H 0.22191 0.07769 0.39959
 H674 H 0.22121 0.05422 0.42554
 H675 H 0.28134 0.06511 0.43667
 H676 H 0.28194 0.08830 0.41043
 C677 C 0.73611 0.15522 0.67622
 C678 C 0.74995 0.15462 0.66167
 C679 C 0.76391 0.16890 0.66048
 C680 C 0.76412 0.18370 0.67384
 C681 C 0.75034 0.18442 0.68865
 C682 C 0.73628 0.17000 0.68961
 C683 C 0.74980 0.13940 0.64789
 C684 C 0.74972 0.12676 0.63624
 C685 C 0.74966 0.11213 0.62242
 C686 C 0.74961 0.09983 0.61041
 C687 C 0.74954 0.08543 0.59578
 C688 C 0.76543 0.07344 0.59343
 C689 C 0.76566 0.05999 0.57869
 C690 C 0.74999 0.05839 0.56608
 C691 C 0.73398 0.07037 0.56873
 C692 C 0.73378 0.08379 0.58348
 H693 H 0.72521 0.14424 0.67724
 H694 H 0.77466 0.16859 0.64922
 H695 H 0.77510 0.19451 0.67246
 H696 H 0.72543 0.16996 0.70072
 H697 H 0.77771 0.07459 0.60288
 H698 H 0.77809 0.05084 0.57715
 H699 H 0.72183 0.06970 0.55909
 H700 H 0.72145 0.09308 0.58512
 C701 C 0.23885 -0.16744 0.66215
 C702 C 0.25348 -0.15380 0.66302
 C703 C 0.26757 -0.15511 0.67719
 C704 C 0.26706 -0.17000 0.69045
 C705 C 0.25240 -0.18385 0.68974
 C706 C 0.23830 -0.18235 0.67538
 C707 C 0.25404 -0.13855 0.64927
 C708 C 0.25433 -0.12594 0.63759
 C709 C 0.25444 -0.11137 0.62369
 C710 C 0.25430 -0.09914 0.61160
 C711 C 0.25379 -0.08484 0.59688
 C712 C 0.27080 -0.07889 0.58792
 C713 C 0.27013 -0.06570 0.57296
 C714 C 0.25241 -0.05830 0.56676
 C715 C 0.23544 -0.06414 0.57607
 C716 C 0.23614 -0.07733 0.59100
 H717 H 0.22786 -0.16657 0.65121
 H718 H 0.27898 -0.14462 0.67800
 H719 H 0.27818 -0.17056 0.70121
 H720 H 0.22679 -0.19263 0.67426
 H721 H 0.28453 -0.08467 0.59230
 H722 H 0.28342 -0.06169 0.56591
 H723 H 0.22161 -0.05854 0.57178
 H724 H 0.22288 -0.08182 0.59783
 C725 C 0.73468 -0.15482 0.32262
 C726 C 0.74855 -0.15412 0.33707
 C727 C 0.76236 -0.16849 0.33835
 C728 C 0.76232 -0.18355 0.32529
 C729 C 0.74841 -0.18447 0.31068
 C730 C 0.73459 -0.16987 0.30952
 C731 C 0.74850 -0.13881 0.35076
 C732 C 0.74855 -0.12619 0.36243
 C733 C 0.74868 -0.11166 0.37637
 C734 C 0.74885 -0.09948 0.38852
 C735 C 0.74908 -0.08524 0.40332
 C736 C 0.76514 -0.08348 0.41523
 C737 C 0.76511 -0.07021 0.43013
 C738 C 0.74900 -0.05852 0.43333
 C739 C 0.73301 -0.06025 0.42112
 C740 C 0.73307 -0.07353 0.40622
 H741 H 0.72391 -0.14374 0.32149
 H742 H 0.77317 -0.16810 0.34949
 H743 H 0.77319 -0.19444 0.32677
 H744 H 0.72371 -0.16993 0.29850
 H745 H 0.77757 -0.09254 0.41316
 H746 H 0.77751 -0.06944 0.43945
 H747 H 0.72048 -0.05131 0.42309
 H748 H 0.72056 -0.07478 0.39709
 C749 C 0.68245 0.73763 -0.15162
 C750 C 0.66725 0.75066 -0.15132
 C751 C 0.66496 0.76340 -0.16651
 C752 C 0.67776 0.76313 -0.18195
 C753 C 0.69313 0.75009 -0.18245
 C754 C 0.69531 0.73733 -0.16707
 C755 C 0.65374 0.75078 -0.13567
 C756 C 0.64209 0.75096 -0.12285
 C757 C 0.62805 0.75119 -0.10822
 C758 C 0.61572 0.75133 -0.09606
 C759 C 0.60057 0.75134 -0.08197
 C760 C 0.59465 0.73422 -0.07359
 C761 C 0.57913 0.73399 -0.06083
 C762 C 0.56927 0.75089 -0.05631
 C763 C 0.57558 0.76809 -0.06451
 C764 C 0.59111 0.76829 -0.07728
 H765 H 0.68435 0.72767 -0.13994
 H766 H 0.65319 0.77350 -0.16646
 H767 H 0.67545 0.77308 -0.19352
 H768 H 0.70696 0.72716 -0.16683
 H769 H 0.60185 0.72101 -0.07713
 H770 H 0.57477 0.72057 -0.05457
 H771 H 0.56814 0.78130 -0.06152
 H772 H 0.59551 0.78160 -0.08378
 C773 C 0.33366 0.23469 -0.16443
 C774 C 0.33345 0.24936 -0.15093
 C775 C 0.32030 0.26429 -0.15278
 C776 C 0.30736 0.26454 -0.16808
 C777 C 0.30741 0.24981 -0.18175
 C778 C 0.32076 0.23489 -0.17971
 C779 C 0.34698 0.24912 -0.13540
 C780 C 0.35861 0.24876 -0.12267
 C781 C 0.37260 0.24829 -0.10810
 C782 C 0.38488 0.24803 -0.09598
 C783 C 0.39996 0.24801 -0.08194
 C784 C 0.40582 0.26516 -0.07363
 C785 C 0.42131 0.26546 -0.06096
 C786 C 0.43117 0.24859 -0.05644
 C787 C 0.42492 0.23134 -0.06453
 C788 C 0.40942 0.23108 -0.07724
 H789 H 0.34384 0.22310 -0.16317
 H790 H 0.32010 0.27578 -0.14244
 H791 H 0.29743 0.27632 -0.16915
 H792 H 0.32131 0.22326 -0.18982
 H793 H 0.39860 0.27835 -0.07718
 H794 H 0.42565 0.27891 -0.05477
 H795 H 0.43239 0.21817 -0.06151
 H796 H 0.40505 0.21774 -0.08369
 C797 C 0.33488 0.76520 0.16620
 C798 C 0.33383 0.75130 0.15192
 C799 C 0.31988 0.73700 0.15313
 C800 C 0.30699 0.73661 0.16853
 C801 C 0.30787 0.75056 0.18299
 C802 C 0.32203 0.76485 0.18160
 C803 C 0.34732 0.75158 0.13627
 C804 C 0.35891 0.75185 0.12341
 C805 C 0.37284 0.75211 0.10869
 C806 C 0.38508 0.75221 0.09644
 C807 C 0.40012 0.75208 0.08225
 C808 C 0.40588 0.73488 0.07395
 C809 C 0.42136 0.73448 0.06116
 C810 C 0.43133 0.75130 0.05652
 C811 C 0.42517 0.76859 0.06463
 C812 C 0.40968 0.76895 0.07744
 H813 H 0.34569 0.77629 0.16545
 H814 H 0.31899 0.72612 0.14218
 H815 H 0.29637 0.72537 0.16901
 H816 H 0.32333 0.77579 0.19239
 H817 H 0.39859 0.72174 0.07759
 H818 H 0.42561 0.72100 0.05497
 H819 H 0.43271 0.78173 0.06154
 H820 H 0.40541 0.78233 0.08387
 C821 C 0.66396 0.23582 0.16575
 C822 C 0.66587 0.24899 0.15089
 C823 C 0.68057 0.26258 0.15149
 C824 C 0.69339 0.26293 0.16689
 C825 C 0.69166 0.24967 0.18191
 C826 C 0.67672 0.23614 0.18114
 C827 C 0.65250 0.24867 0.13522
 C828 C 0.64099 0.24829 0.12238
 C829 C 0.62711 0.24786 0.10771
 C830 C 0.61490 0.24766 0.09552
 C831 C 0.59988 0.24773 0.08141
 C832 C 0.59407 0.26493 0.07321
 C833 C 0.57860 0.26531 0.06051
 C834 C 0.56869 0.24848 0.05588
 C835 C 0.57491 0.23118 0.06387
 C836 C 0.59040 0.23083 0.07660
 H837 H 0.65255 0.22531 0.16547
 H838 H 0.68211 0.27291 0.14008
 H839 H 0.70463 0.27357 0.16690
 H840 H 0.67473 0.22578 0.19240
 H841 H 0.60130 0.27809 0.07686
 H842 H 0.57429 0.27881 0.05440
 H843 H 0.56742 0.21803 0.06077
 H844 H 0.59472 0.21745 0.08297
 C845 C -0.15375 0.67833 0.73339
 C846 C -0.15334 0.66370 0.74691
 C847 C -0.16803 0.66226 0.76052
 C848 C -0.18311 0.67541 0.76066
 C849 C -0.18379 0.69028 0.74710
 C850 C -0.16881 0.69149 0.73344
 C851 C -0.13799 0.64999 0.74670
 C852 C -0.12530 0.63832 0.74660
 C853 C -0.11070 0.62441 0.74664
 C854 C -0.09846 0.61229 0.74685
 C855 C -0.08418 0.59750 0.74736
 C856 C -0.07589 0.59227 0.76481
 C857 C -0.06278 0.57724 0.76555
 C858 C -0.05780 0.56722 0.74882
 C859 C -0.06596 0.57279 0.73129
 C860 C -0.07909 0.58783 0.73059
 H861 H -0.14242 0.67957 0.72278
 H862 H -0.16786 0.65094 0.77104
 H863 H -0.19418 0.67369 0.77142
 H864 H -0.16849 0.70257 0.72273
 H865 H -0.07973 0.59967 0.77787
 H866 H -0.05658 0.57340 0.77921
 H867 H -0.06261 0.56518 0.71823
 H868 H -0.08552 0.59170 0.71702
 C869 C -0.16764 0.33667 0.23814
 C870 C -0.15423 0.33638 0.25301
 C871 C -0.15593 0.32290 0.26762
 C872 C -0.17101 0.30973 0.26737
 C873 C -0.18462 0.30985 0.25247
 C874 C -0.18273 0.32352 0.23785
 C875 C -0.13884 0.35006 0.25334
 C876 C -0.12610 0.36169 0.25348
 C877 C -0.11143 0.37555 0.25343
 C878 C -0.09915 0.38764 0.25318
 C879 C -0.08484 0.40241 0.25258
 C880 C -0.07961 0.41196 0.26935
 C881 C -0.06651 0.42704 0.26857
 C882 C -0.05851 0.43277 0.25096
 C883 C -0.06362 0.42284 0.23424
 C884 C -0.07671 0.40778 0.23506
 H885 H -0.16645 0.34709 0.22677
 H886 H -0.14564 0.32258 0.27923
 H887 H -0.17190 0.29954 0.27892
 H888 H -0.19282 0.32414 0.22612
 H889 H -0.08591 0.40797 0.28298
 H890 H -0.06308 0.43458 0.28164
 H891 H -0.05754 0.42677 0.22051
 H892 H -0.08068 0.40048 0.22199
 C893 C 0.15404 0.32212 0.73348
 C894 C 0.15352 0.33689 0.74686
 C895 C 0.16790 0.33825 0.76075
 C896 C 0.18278 0.32490 0.76127
 C897 C 0.18349 0.30996 0.74786
 C898 C 0.16889 0.30874 0.73396
 C899 C 0.13830 0.35072 0.74634
 C900 C 0.12569 0.36246 0.74608
 C901 C 0.11116 0.37644 0.74606
 C902 C 0.09897 0.38860 0.74631
 C903 C 0.08474 0.40341 0.74696
 C904 C 0.07672 0.40882 0.76452
 C905 C 0.06364 0.42387 0.76540
 C906 C 0.05844 0.43375 0.74869
 C907 C 0.06634 0.42801 0.73105
 C908 C 0.07942 0.41294 0.73021
 H909 H 0.14296 0.32093 0.72266
 H910 H 0.16763 0.34966 0.77117
 H911 H 0.19371 0.32643 0.77214
 H912 H 0.16880 0.29747 0.72344
 H913 H 0.08075 0.40153 0.77757
 H914 H 0.05763 0.42780 0.77915
 H915 H 0.06283 0.43551 0.71798
 H916 H 0.08562 0.40892 0.71655
 C917 C 0.16741 0.66232 0.23834
 C918 C 0.15324 0.66310 0.25257
 C919 C 0.15422 0.67707 0.26677
 C920 C 0.16930 0.69024 0.26676
 C921 C 0.18366 0.68964 0.25249
 C922 C 0.18251 0.67548 0.23828
 C923 C 0.13784 0.64942 0.25272
 C924 C 0.12508 0.63781 0.25281
 C925 C 0.11039 0.62396 0.25284
 C926 C 0.09809 0.61188 0.25271
 C927 C 0.08375 0.59711 0.25231
 C928 C 0.07871 0.58749 0.26913
 C929 C 0.06558 0.57241 0.26851
 C930 C 0.05739 0.56675 0.25102
 C931 C 0.06232 0.57674 0.23425
 C932 C 0.07541 0.59181 0.23491
 H933 H 0.16680 0.65152 0.22729
 H934 H 0.14335 0.67777 0.27789
 H935 H 0.16959 0.70082 0.27797
 H936 H 0.19321 0.67446 0.22707
 H937 H 0.08517 0.59142 0.28266
 H938 H 0.06228 0.56483 0.28161
 H939 H 0.05608 0.57285 0.22062
 H940 H 0.07922 0.59916 0.22180
 C941 C 0.73614 -0.15460 0.67727
 C942 C 0.75034 -0.15359 0.66308
 C943 C 0.76481 -0.16738 0.66239
 C944 C 0.76504 -0.18219 0.67574
 C945 C 0.75074 -0.18345 0.69002
 C946 C 0.73632 -0.16939 0.69064
 C947 C 0.74983 -0.13863 0.64902
 C948 C 0.74931 -0.12625 0.63710
 C949 C 0.74863 -0.11193 0.62296
 C950 C 0.74805 -0.09986 0.61072
 C951 C 0.74742 -0.08565 0.59588
 C952 C 0.76060 -0.07060 0.59589
 C953 C 0.76040 -0.05717 0.58112
 C954 C 0.74702 -0.05864 0.56611
 C955 C 0.73369 -0.07373 0.56637
 C956 C 0.73390 -0.08713 0.58116
 H957 H 0.72485 -0.14399 0.67794
 H958 H 0.77590 -0.16673 0.65147
 H959 H 0.77644 -0.19259 0.67477
 H960 H 0.72505 -0.16978 0.70132
 H961 H 0.77111 -0.06931 0.60723
 H962 H 0.77070 -0.04561 0.58147
 H963 H 0.72340 -0.07547 0.55490
 H964 H 0.72368 -0.09878 0.58097
 C965 C 0.23448 -0.16715 0.33739
 C966 C 0.24861 -0.15300 0.33657
 C967 C 0.26298 -0.15391 0.32255
 C968 C 0.26327 -0.16894 0.30943
 C969 C 0.24917 -0.18333 0.31016
 C970 C 0.23473 -0.18219 0.32431
 C971 C 0.24859 -0.13783 0.35041
 C972 C 0.24864 -0.12535 0.36224
 C973 C 0.24881 -0.11105 0.37642
 C974 C 0.24908 -0.09913 0.38882
 C975 C 0.24960 -0.08530 0.40401
 C976 C 0.25981 -0.08929 0.42075
 C977 C 0.26017 -0.07612 0.43571
 C978 C 0.25034 -0.05868 0.43414
 C979 C 0.24014 -0.05478 0.41721
 C980 C 0.23977 -0.06802 0.40226
 H981 H 0.22330 -0.16661 0.34822
 H982 H 0.27402 -0.14305 0.32181
 H983 H 0.27463 -0.16923 0.29885
 H984 H 0.22357 -0.19286 0.32537
 H985 H 0.26741 -0.10265 0.42229
 H986 H 0.26787 -0.07976 0.44865
 H987 H 0.23259 -0.04143 0.41546
 H988 H 0.23180 -0.06478 0.38936
 C989 C 0.76138 0.16802 0.33786
 C990 C 0.74717 0.15395 0.33704
 C991 C 0.73290 0.15494 0.32299
 C992 C 0.73289 0.16990 0.30976
 C993 C 0.74720 0.18411 0.31040
 C994 C 0.76141 0.18296 0.32468
 C995 C 0.74734 0.13859 0.35068
 C996 C 0.74782 0.12594 0.36233
 C997 C 0.74866 0.11139 0.37624
 C998 C 0.74951 0.09921 0.38836
 C999 C 0.75060 0.08498 0.40315
 C1000 C 0.73810 0.06936 0.40300
 C1001 C 0.73867 0.05597 0.41780
 C1002 C 0.75175 0.05805 0.43301
 C1003 C 0.76444 0.07368 0.43288
 C1004 C 0.76385 0.08702 0.41805
 H1005 H 0.77248 0.16742 0.34869
 H1006 H 0.72179 0.14415 0.32224
 H1007 H 0.72166 0.17024 0.29911
 H1008 H 0.77268 0.19351 0.32573
 H1009 H 0.72781 0.06760 0.39151
 H1010 H 0.72889 0.04399 0.41734
 H1011 H 0.77449 0.07588 0.44448
 H1012 H 0.77357 0.09908 0.41835
 C1013 C 0.26545 0.15504 0.67713
 C1014 C 0.25113 0.15404 0.66313
 C1015 C 0.23715 0.16829 0.66213
 C1016 C 0.23734 0.18339 0.67515
 C1017 C 0.25156 0.18448 0.68945
 C1018 C 0.26568 0.17013 0.69019
 C1019 C 0.25071 0.13844 0.64977
 C1020 C 0.25022 0.12552 0.63843
 C1021 C 0.24960 0.11060 0.62491
 C1022 C 0.24917 0.09811 0.61309
 C1023 C 0.24891 0.08355 0.59858
 C1024 C 0.26617 0.07537 0.59240
 C1025 C 0.26618 0.06221 0.57740
 C1026 C 0.24889 0.05711 0.56827
 C1027 C 0.23153 0.06504 0.57493
 C1028 C 0.23156 0.07818 0.58998
 H1029 H 0.27641 0.14413 0.67799
 H1030 H 0.22603 0.16771 0.65131
 H1031 H 0.22624 0.19407 0.67399
 H1032 H 0.27693 0.17043 0.70084
 H1033 H 0.27968 0.07939 0.59895
 H1034 H 0.27975 0.05614 0.57285
 H1035 H 0.21801 0.06158 0.56811
 H1036 H 0.21810 0.08445 0.59464
   
