data_POSCAR
  _audit_creation_date              2014-09-24
  _audit_creation_method            'ToBaCCo'
  _symmetry_space_group_name_H-M    'P1'
  _symmetry_Int_Tables_number       1
  _symmetry_cell_setting            triclinic
  loop_
  _symmetry_equiv_pos_as_xyz
 x,y,z
_cell_length_a 40.6507
_cell_length_b 40.1349
_cell_length_c 40.3889
_cell_angle_alpha 89.981400
_cell_angle_beta 89.810800
_cell_angle_gamma 90.026200
loop_
  _atom_site_label
  _atom_site_type_symbol
  _atom_site_fract_x
  _atom_site_fract_y
  _atom_site_fract_z
O1 O 0.25439 1.03597 0.46684
 O2 O 0.26884 0.97308 0.53078
 O3 O 0.25848 0.97107 0.46678
 O4 O 0.25940 1.03693 0.53119
 O5 O 0.20582 1.03047 0.53785
 O6 O 0.20478 0.96627 0.47372
 O7 O 0.21526 0.96687 0.53767
 O8 O 0.20069 1.03156 0.47403
 Cu9 Cu 0.26563 1.00477 0.49808
 Cu10 Cu 0.20129 0.99804 0.50627
 C11 C 0.22533 1.04493 0.45980
 C12 C 0.24471 0.95962 0.54551
 C13 C 0.23114 0.95755 0.45936
 C14 C 0.23256 1.04457 0.54569
 O15 O 0.76820 -0.03204 0.46622
 O16 O 0.76095 0.03461 0.52923
 O17 O 0.77815 -0.02838 0.53046
 O18 O 0.75787 0.03164 0.46553
 O19 O 0.70499 0.02005 0.47067
 O20 O 0.72547 -0.03974 0.53743
 O21 O 0.70819 0.02265 0.53501
 O22 O 0.71560 -0.04381 0.47368
 Cu23 Cu 0.77162 0.00240 0.49740
 Cu24 Cu 0.70837 -0.01148 0.50485
 C25 C 0.74270 -0.04897 0.45904
 C26 C 0.73299 0.04016 0.54243
 C27 C 0.75548 -0.04412 0.54532
 C28 C 0.72825 0.03629 0.45700
 O29 O 0.20493 0.47702 0.96150
 O30 O 0.20347 0.53128 1.03492
 O31 O 0.21102 0.54075 0.97129
 O32 O 0.19843 0.46768 1.02514
 O33 O 0.25219 0.46276 1.03085
 O34 O 0.26482 0.53496 0.97609
 O35 O 0.25743 0.52660 1.03936
 O36 O 0.25856 0.47036 0.96710
 Cu37 Cu 0.19908 0.50475 0.99763
 Cu38 Cu 0.26368 0.49808 1.00370
 C39 C 0.23185 0.46416 0.95202
 C40 C 0.23016 0.53822 1.04960
 C41 C 0.24009 0.55031 0.96459
 C42 C 0.22318 0.45302 1.03756
 O43 O 0.46888 0.29611 1.03293
 O44 O 0.54044 0.29615 0.97725
 O45 O 0.47685 0.30231 0.96956
 O46 O 0.53217 0.28699 1.04042
 O47 O 0.52707 0.23282 1.03243
 O48 O 0.47080 0.24800 0.96326
 O49 O 0.53452 0.24208 0.96900
 O50 O 0.46381 0.24166 1.02681
 Cu51 Cu 0.50518 0.30082 1.00576
 Cu52 Cu 0.49855 0.23570 0.99714
 C53 C 0.45410 0.26904 1.03932
 C54 C 0.54970 0.26928 0.96362
 C55 C 0.46399 0.27763 0.95473
 C56 C 0.53927 0.25714 1.04824
 O57 O 0.47071 0.79445 -0.03139
 O58 O 0.53064 0.78199 0.03641
 O59 O 0.53417 0.79441 -0.02640
 O60 O 0.46635 0.78634 0.03297
 O61 O 0.46551 0.73182 0.02568
 O62 O 0.53220 0.74030 -0.03616
 O63 O 0.52941 0.72781 0.02690
 O64 O 0.46842 0.73994 -0.03847
 Cu65 Cu 0.50040 0.79472 0.00393
 Cu66 Cu 0.49865 0.72954 -0.00632
 C67 C 0.45960 0.76911 -0.04661
 C68 C 0.54060 0.75260 0.04267
 C69 C 0.54461 0.76893 -0.04166
 C70 C 0.45459 0.75790 0.03980
 O71 O 1.04274 0.47982 0.28216
 O72 O 0.97421 0.53690 0.26308
 O73 O 0.97854 0.47603 0.28497
 O74 O 1.03798 0.54131 0.26325
 O75 O 1.03843 0.52447 0.21124
 O76 O 0.97801 0.45894 0.23301
 O77 O 0.97464 0.51985 0.21109
 O78 O 1.04230 0.46295 0.23014
 Cu79 Cu 1.00827 0.51017 0.27860
 Cu80 Cu 1.00831 0.48968 0.21621
 C81 C 1.05448 0.46198 0.25900
 C82 C 0.96294 0.53817 0.23376
 C83 C 0.96785 0.45657 0.26276
 C84 C 1.04859 0.54404 0.23376
 O85 O -0.02967 0.47229 0.77664
 O86 O 0.03249 0.53774 0.76397
 O87 O -0.03164 0.53567 0.76180
 O88 O 0.03476 0.47480 0.77721
 O89 O 0.03510 0.46170 0.72409
 O90 O -0.02903 0.52451 0.70835
 O91 O 0.03518 0.52512 0.71081
 O92 O -0.02904 0.46152 0.72303
 Cu93 Cu 0.00119 0.50628 0.77527
 Cu94 Cu 0.00319 0.49201 0.71124
 C95 C -0.04024 0.45604 0.75193
 C96 C 0.04484 0.54218 0.73540
 C97 C -0.04154 0.54059 0.73234
 C98 C 0.04629 0.45800 0.75319
 O99 O 0.46434 0.97145 0.23059
 O100 O 0.52801 1.03530 0.21832
 O101 O 0.52646 0.97019 0.21550
 O102 O 0.46609 1.03557 0.23463
 O103 O 0.47831 1.03228 0.28774
 O104 O 0.53993 0.96816 0.26840
 O105 O 0.54030 1.03312 0.27150
 O106 O 0.47769 0.96760 0.28343
 Cu107 Cu 0.49506 1.00347 0.21939
 Cu108 Cu 0.51047 0.99997 0.28309
 C109 C 0.46012 0.95867 0.25904
 C110 C 0.54471 1.04542 0.24282
 C111 C 0.54343 0.95796 0.23884
 C112 C 0.46160 1.04485 0.26439
 O113 O 1.04291 0.25717 0.53132
 O114 O 0.98016 0.27203 0.46758
 O115 O 0.98030 0.27126 0.53252
 O116 O 1.04167 0.25522 0.46682
 O117 O 1.02845 0.20183 0.46736
 O118 O 0.96841 0.21758 0.53367
 O119 O 0.96688 0.21868 0.46843
 O120 O 1.03070 0.20355 0.53165
 Cu121 Cu 1.01246 0.26929 0.49956
 Cu122 Cu 0.99714 0.20511 0.50039
 C123 C 1.04763 0.22790 0.54227
 C124 C 0.96322 0.24788 0.45673
 C125 C 0.96438 0.24690 0.54472
 C126 C 1.04526 0.22576 0.45576
 O127 O -0.02504 0.78137 0.53571
 O128 O 0.03885 0.76599 0.47258
 O129 O -0.02281 0.78307 0.47177
 O130 O 0.03690 0.76386 0.53707
 O131 O 0.02380 0.71053 0.53444
 O132 O -0.03819 0.73027 0.47123
 O133 O 0.02356 0.71326 0.46976
 O134 O -0.03782 0.72786 0.53533
 Cu135 Cu 0.00857 0.77889 0.50456
 Cu136 Cu -0.00849 0.71510 0.50251
 C137 C -0.04233 0.75720 0.54620
 C138 C 0.04170 0.73711 0.46005
 C139 C -0.04104 0.75998 0.46075
 C140 C 0.04070 0.73400 0.54677
 O141 O 0.70017 0.46459 1.02819
 O142 O 0.71157 0.53515 0.97013
 O143 O 0.70211 0.47126 0.96409
 O144 O 0.70434 0.52899 1.03413
 O145 O 0.75844 0.52447 1.03675
 O146 O 0.75585 0.46395 0.96745
 O147 O 0.76538 0.52811 0.97288
 O148 O 0.75414 0.45979 1.03185
 Cu149 Cu 0.69919 0.50064 0.99880
 Cu150 Cu 0.76383 0.49345 1.00252
 C151 C 0.72547 0.45039 1.04009
 C152 C 0.74062 0.54347 0.96162
 C153 C 0.72829 0.45747 0.95399
 C154 C 0.73151 0.53681 1.04726
 O155 O 0.46891 1.03636 0.72919
 O156 O 0.52216 0.96288 0.71810
 O157 O 0.46112 0.97190 0.73428
 O158 O 0.53134 1.02717 0.71456
 O159 O 0.54372 1.02936 0.76769
 O160 O 0.47427 0.97399 0.78724
 O161 O 0.53554 0.96487 0.77101
 O162 O 0.48193 1.03840 0.78214
 Cu163 Cu 0.49456 0.99957 0.71871
 Cu164 Cu 0.51019 1.00190 0.78228
 C165 C 0.46615 1.04986 0.75754
 C166 C 0.53771 0.95119 0.74268
 C167 C 0.45605 0.96323 0.76415
 C168 C 0.54947 1.03768 0.73790
 C169 C 0.24743 0.21973 0.26890
 C170 C 0.22483 0.24661 0.26955
 C171 C 0.22713 0.27206 0.24552
 C172 C 0.25257 0.27177 0.22161
 C173 C 0.27531 0.24519 0.22107
 C174 C 0.27226 0.21898 0.24425
 C175 C 0.75429 0.78036 0.26793
 C176 C 0.77635 0.75062 0.27245
 C177 C 0.77685 0.72481 0.24314
 C178 C 0.75520 0.73303 0.21376
 C179 C 0.73587 0.76217 0.21273
 C180 C 0.73540 0.78517 0.23919
 C181 C 0.75920 0.22084 0.72468
 C182 C 0.78563 0.24334 0.72776
 C183 C 0.78747 0.26567 0.75449
 C184 C 0.76246 0.26700 0.77858
 C185 C 0.73261 0.24414 0.77677
 C186 C 0.73285 0.22101 0.74765
 C187 C 0.24933 0.77631 0.72803
 C188 C 0.27507 0.77571 0.75159
 C189 C 0.27418 0.75205 0.77786
 C190 C 0.24800 0.72872 0.77944
 C191 C 0.22204 0.73026 0.75646
 C192 C 0.22238 0.75443 0.73129
 C193 C 0.23190 0.25469 0.72419
 C194 C 0.25602 0.22932 0.72322
 C195 C 0.27810 0.22522 0.74994
 C196 C 0.27683 0.24750 0.77710
 C197 C 0.25256 0.27286 0.77815
 C198 C 0.22974 0.27595 0.75194
 C199 C 0.77228 0.74537 0.72599
 C200 C 0.74636 0.76903 0.72372
 C201 C 0.71962 0.76767 0.74617
 C202 C 0.71712 0.74098 0.76885
 C203 C 0.74200 0.71660 0.76999
 C204 C 0.77019 0.71940 0.74976
 C205 C 0.23800 0.74531 0.28335
 C206 C 0.26572 0.76975 0.28035
 C207 C 0.28756 0.76927 0.25323
 C208 C 0.28431 0.74553 0.22771
 C209 C 0.25922 0.72106 0.22867
 C210 C 0.23652 0.72015 0.25533
 C211 C 0.77237 0.25720 0.28687
 C212 C 0.77560 0.27924 0.25961
 C213 C 0.74997 0.28296 0.23637
 C214 C 0.71848 0.26327 0.23910
 C215 C 0.71830 0.23838 0.26710
 C216 C 0.74410 0.23682 0.29030
 C217 C 0.22029 0.07157 0.43531
 C218 C 0.24600 0.08196 0.41478
 C219 C 0.24366 0.11042 0.39177
 C220 C 0.26334 0.11039 0.36319
 C221 C 0.26312 0.13755 0.34162
 C222 C 0.24361 0.16558 0.34861
 C223 C 0.22446 0.16601 0.37755
 C224 C 0.22414 0.13847 0.39883
 C225 C 0.24374 0.19478 0.32644
 C226 C 0.24474 0.19117 0.29213
 H227 H 0.26883 0.06801 0.41491
 H228 H 0.27899 0.08927 0.35758
 H229 H 0.27883 0.13693 0.31993
 H230 H 0.20963 0.18760 0.38359
 H231 H 0.20944 0.13959 0.42119
 H232 H 0.24200 0.21938 0.33729
 H233 H 0.19625 0.08299 0.43338
 H234 H 0.24610 0.16635 0.28170
 C235 C 0.74348 0.92535 0.43320
 C236 C 0.76951 0.92166 0.41094
 C237 C 0.76783 0.89852 0.38238
 C238 C 0.78698 0.90503 0.35415
 C239 C 0.78486 0.88444 0.32629
 C240 C 0.76383 0.85670 0.32622
 C241 C 0.74481 0.85002 0.35461
 C242 C 0.74707 0.87045 0.38247
 C243 C 0.76235 0.83539 0.29630
 C244 C 0.75068 0.80271 0.29680
 H245 H 0.79045 0.93825 0.41281
 H246 H 0.80324 0.92642 0.35346
 H247 H 0.79977 0.89018 0.30475
 H248 H 0.72777 0.82937 0.35548
 H249 H 0.73258 0.86393 0.40400
 H250 H 0.77323 0.84470 0.27358
 H251 H 0.72125 0.91091 0.43002
 H252 H 0.74370 0.79116 0.31995
 C253 C 0.72851 0.06710 0.56658
 C254 C 0.75267 0.09084 0.57295
 C255 C 0.74823 0.11807 0.59731
 C256 C 0.77624 0.13345 0.61050
 C257 C 0.77320 0.15820 0.63460
 C258 C 0.74196 0.16806 0.64605
 C259 C 0.71390 0.15396 0.63170
 C260 C 0.71692 0.12919 0.60755
 C261 C 0.73809 0.19272 0.67295
 C262 C 0.76133 0.19568 0.69799
 H263 H 0.77632 0.08854 0.56069
 H264 H 0.80059 0.12592 0.60251
 H265 H 0.79539 0.16959 0.64406
 H266 H 0.68959 0.16167 0.63966
 H267 H 0.69466 0.11908 0.59698
 H268 H 0.71577 0.20742 0.67423
 H269 H 0.70518 0.06802 0.57949
 H270 H 0.78333 0.18052 0.69736
 C271 C 0.25160 0.93618 0.57253
 C272 C 0.22700 0.91827 0.58869
 C273 C 0.23411 0.89657 0.61733
 C274 C 0.21539 0.86764 0.62206
 C275 C 0.22162 0.84667 0.64890
 C276 C 0.24632 0.85462 0.67190
 C277 C 0.26435 0.88410 0.66780
 C278 C 0.25856 0.90478 0.64055
 C279 C 0.25256 0.83309 0.70086
 C280 C 0.25022 0.79855 0.69863
 H281 H 0.20210 0.91903 0.57922
 H282 H 0.19611 0.86112 0.60477
 H283 H 0.20668 0.82458 0.65197
 H284 H 0.28313 0.89094 0.68553
 H285 H 0.27276 0.92747 0.63805
 H286 H 0.25865 0.84468 0.72425
 H287 H 0.27697 0.93316 0.58007
 H288 H 0.24460 0.78743 0.67487
 C289 C 0.42510 0.27006 0.06108
 C290 C 0.41091 0.24142 0.07439
 C291 C 0.38198 0.24303 0.09654
 C292 C 0.37960 0.22080 0.12320
 C293 C 0.35300 0.22257 0.14513
 C294 C 0.32793 0.24618 0.14029
 C295 C 0.32958 0.26746 0.11282
 C296 C 0.35656 0.26620 0.09129
 C297 C 0.29971 0.24858 0.16324
 C298 C 0.30342 0.24462 0.19734
 H299 H 0.42272 0.21754 0.07052
 H300 H 0.39868 0.20245 0.12741
 H301 H 0.35186 0.20521 0.16557
 H302 H 0.31024 0.28547 0.10835
 H303 H 0.35735 0.28306 0.07037
 H304 H 0.27584 0.25465 0.15313
 H305 H 0.41524 0.29426 0.06760
 H306 H 0.32747 0.23852 0.20706
 C307 C 0.43669 0.77359 0.92558
 C308 C 0.41994 0.74648 0.91209
 C309 C 0.39780 0.74903 0.88331
 C310 C 0.37101 0.72714 0.88125
 C311 C 0.34992 0.72818 0.85409
 C312 C 0.35566 0.75073 0.82810
 C313 C 0.38299 0.77201 0.82958
 C314 C 0.40377 0.77145 0.85718
 C315 C 0.33308 0.75231 0.79963
 C316 C 0.29916 0.75161 0.80465
 H317 H 0.42190 0.72241 0.92410
 H318 H 0.36623 0.70934 0.90087
 H319 H 0.32933 0.71106 0.85321
 H320 H 0.38791 0.78939 0.80963
 H321 H 0.42480 0.78799 0.85773
 H322 H 0.34323 0.75530 0.77501
 H323 H 0.43279 0.79841 0.91586
 H324 H 0.29028 0.74957 0.82981
 C325 C 0.56565 0.74635 0.06806
 C326 C 0.58136 0.77173 0.08556
 C327 C 0.60826 0.76527 0.10948
 C328 C 0.62979 0.79130 0.11776
 C329 C 0.65597 0.78591 0.13954
 C330 C 0.66114 0.75419 0.15352
 C331 C 0.63907 0.72847 0.14592
 C332 C 0.61288 0.73389 0.12431
 C333 C 0.68797 0.74703 0.17723
 C334 C 0.71422 0.76840 0.18386
 H335 H 0.57506 0.79737 0.08008
 H336 H 0.62648 0.81587 0.10717
 H337 H 0.67160 0.80681 0.14550
 H338 H 0.64202 0.70400 0.15686
 H339 H 0.59619 0.71343 0.11982
 H340 H 0.68644 0.72403 0.19125
 H341 H 0.57294 0.72070 0.07157
 H342 H 0.71658 0.79201 0.17124
 C343 C 0.57876 0.27023 0.94190
 C344 C 0.58801 0.24355 0.92185
 C345 C 0.61762 0.24486 0.90050
 C346 C 0.61760 0.22803 0.87008
 C347 C 0.64509 0.22939 0.84921
 C348 C 0.67342 0.24705 0.85879
 C349 C 0.67374 0.26313 0.88960
 C350 C 0.64606 0.26222 0.91022
 C351 C 0.70281 0.24901 0.83725
 C352 C 0.70096 0.24226 0.80360
 H353 H 0.57211 0.22193 0.92027
 H354 H 0.59607 0.21426 0.86222
 H355 H 0.64419 0.21646 0.82571
 H356 H 0.69535 0.27671 0.89759
 H357 H 0.64715 0.27471 0.93394
 H358 H 0.72597 0.25665 0.84802
 H359 H 0.59286 0.29312 0.94113
 H360 H 0.71817 0.24512 0.79164
 C361 C 0.08283 0.44025 0.26557
 C362 C 0.09784 0.42260 0.23988
 C363 C 0.12609 0.39988 0.24408
 C364 C 0.13195 0.37613 0.21932
 C365 C 0.15787 0.35366 0.22218
 C366 C 0.17874 0.35470 0.24978
 C367 C 0.17388 0.37928 0.27395
 C368 C 0.14758 0.40163 0.27131
 C369 C 0.20539 0.33011 0.25346
 C370 C 0.20078 0.29724 0.24369
 H371 H 0.08742 0.42440 0.21527
 H372 H 0.11614 0.37466 0.19782
 H373 H 0.16165 0.33556 0.20268
 H374 H 0.19002 0.38072 0.29519
 H375 H 0.14444 0.42028 0.29036
 H376 H 0.22820 0.33735 0.26525
 H377 H 0.09173 0.43829 0.29070
 H378 H 0.17674 0.28891 0.23568
 C379 C 0.93404 0.43080 0.75704
 C380 C 0.91677 0.41722 0.73049
 C381 C 0.88988 0.39275 0.73452
 C382 C 0.86533 0.39118 0.71026
 C383 C 0.83983 0.36800 0.71282
 C384 C 0.83882 0.34539 0.73927
 C385 C 0.86331 0.34698 0.76373
 C386 C 0.88865 0.37045 0.76136
 C387 C 0.81183 0.32081 0.74065
 C388 C 0.81485 0.28988 0.75591
 H389 H 0.92182 0.42640 0.70575
 H390 H 0.86578 0.40809 0.68935
 H391 H 0.82111 0.36736 0.69380
 H392 H 0.86283 0.33039 0.78485
 H393 H 0.90750 0.37062 0.78021
 H394 H 0.78935 0.32621 0.72731
 H395 H 0.92747 0.42425 0.78221
 H396 H 0.83761 0.28231 0.76748
 C397 C 0.07122 0.56680 0.73060
 C398 C 0.08302 0.58600 0.75682
 C399 C 0.11131 0.60903 0.75396
 C400 C 0.11468 0.63451 0.77747
 C401 C 0.14148 0.65627 0.77622
 C402 C 0.16562 0.65274 0.75149
 C403 C 0.16271 0.62683 0.72841
 C404 C 0.13575 0.60521 0.72949
 C405 C 0.19441 0.67509 0.74978
 C406 C 0.19320 0.70811 0.76022
 H407 H 0.07063 0.58449 0.78057
 H408 H 0.09652 0.63758 0.79692
 H409 H 0.14358 0.67534 0.79503
 H410 H 0.18128 0.62340 0.70943
 H411 H 0.13463 0.58520 0.71162
 H412 H 0.21672 0.66606 0.73807
 H413 H 0.08168 0.56937 0.70608
 H414 H 0.17024 0.71901 0.76844
 C415 C 0.93618 0.56114 0.22540
 C416 C 0.92074 0.58081 0.24921
 C417 C 0.89450 0.60497 0.24125
 C418 C 0.87310 0.61510 0.26658
 C419 C 0.84877 0.63880 0.26047
 C420 C 0.84557 0.65316 0.22884
 C421 C 0.86682 0.64290 0.20342
 C422 C 0.89114 0.61910 0.20952
 C423 C 0.82147 0.67985 0.22227
 C424 C 0.80130 0.69179 0.24729
 H425 H 0.92750 0.57771 0.27496
 H426 H 0.87529 0.60473 0.29125
 H427 H 0.83286 0.64618 0.28073
 H428 H 0.86500 0.65378 0.17894
 H429 H 0.90776 0.61267 0.18958
 H430 H 0.82112 0.69168 0.19815
 H431 H 0.92825 0.56199 0.19987
 H432 H 0.78837 0.70836 0.24380
 C433 C 0.07277 0.22183 0.56776
 C434 C 0.09127 0.24778 0.58135
 C435 C 0.11603 0.24342 0.60794
 C436 C 0.12648 0.27167 0.62550
 C437 C 0.14978 0.26896 0.65073
 C438 C 0.16345 0.23781 0.65874
 C439 C 0.15302 0.20953 0.64126
 C440 C 0.12974 0.21225 0.61596
 C441 C 0.18788 0.23373 0.68557
 C442 C 0.20844 0.25933 0.69642
 H443 H 0.08645 0.27297 0.57300
 H444 H 0.11629 0.29597 0.61994
 H445 H 0.15643 0.29122 0.66421
 H446 H 0.16322 0.18526 0.64695
 H447 H 0.12305 0.18994 0.60261
 H448 H 0.19027 0.20934 0.69677
 H449 H 0.07574 0.19657 0.57650
 H450 H 0.20630 0.28405 0.68600
 C451 C 0.93151 0.76358 0.57054
 C452 C 0.91773 0.73789 0.58918
 C453 C 0.88900 0.74286 0.61101
 C454 C 0.88651 0.72430 0.64030
 C455 C 0.85871 0.72715 0.66051
 C456 C 0.83252 0.74798 0.65125
 C457 C 0.83483 0.76628 0.62176
 C458 C 0.86304 0.76409 0.60196
 C459 C 0.80204 0.74953 0.67110
 C460 C 0.80252 0.74824 0.70556
 H461 H 0.92891 0.71339 0.58843
 H462 H 0.90608 0.70751 0.64751
 H463 H 0.85736 0.71230 0.68282
 H464 H 0.81477 0.78224 0.61406
 H465 H 0.86405 0.77810 0.57906
 H466 H 0.77884 0.75190 0.65823
 H467 H 0.92293 0.78891 0.57386
 H468 H 0.82594 0.74613 0.71810
 C469 C 0.06580 0.73094 0.43353
 C470 C 0.08976 0.75430 0.42487
 C471 C 0.11281 0.74933 0.39689
 C472 C 0.14384 0.76462 0.39776
 C473 C 0.16582 0.76106 0.37128
 C474 C 0.15682 0.74260 0.34312
 C475 C 0.12562 0.72771 0.34207
 C476 C 0.10385 0.73088 0.36873
 C477 C 0.17894 0.73932 0.31423
 C478 C 0.21219 0.74707 0.31596
 H479 H 0.09246 0.77656 0.43979
 H480 H 0.15113 0.77926 0.41904
 H481 H 0.18956 0.77322 0.37265
 H482 H 0.11803 0.71365 0.32051
 H483 H 0.07975 0.71959 0.36683
 H484 H 0.16850 0.73117 0.29098
 H485 H 0.06481 0.70721 0.42084
 H486 H 0.22416 0.74474 0.29875
 C487 C 0.93984 0.25419 0.42967
 C488 C 0.92006 0.22921 0.41633
 C489 C 0.89782 0.23493 0.38791
 C490 C 0.86908 0.21578 0.38532
 C491 C 0.84746 0.22061 0.35894
 C492 C 0.85454 0.24419 0.33426
 C493 C 0.88378 0.26259 0.33606
 C494 C 0.90516 0.25826 0.36286
 C495 C 0.83146 0.24952 0.30667
 C496 C 0.79817 0.25509 0.31297
 H497 H 0.91980 0.20488 0.42798
 H498 H 0.86316 0.19729 0.40397
 H499 H 0.82538 0.20564 0.35753
 H500 H 0.88974 0.28070 0.31706
 H501 H 0.92760 0.27276 0.36361
 H502 H 0.84089 0.24950 0.28159
 H503 H 0.93852 0.27924 0.41980
 H504 H 0.79024 0.25571 0.33858
 C505 C 0.23159 0.44201 0.92306
 C506 C 0.25660 0.41906 0.91685
 C507 C 0.25553 0.39607 0.88827
 C508 C 0.26873 0.36391 0.89131
 C509 C 0.26761 0.34163 0.86469
 C510 C 0.25376 0.35143 0.83436
 C511 C 0.24153 0.38392 0.83103
 C512 C 0.24210 0.40596 0.85779
 C513 C 0.25316 0.32907 0.80533
 C514 C 0.25002 0.29457 0.80780
 H515 H 0.27624 0.41622 0.93471
 H516 H 0.27963 0.35594 0.91444
 H517 H 0.27824 0.31709 0.86770
 H518 H 0.23134 0.39218 0.80770
 H519 H 0.23260 0.43092 0.85439
 H520 H 0.25508 0.34028 0.78106
 H521 H 0.21007 0.44240 0.90733
 H522 H 0.24888 0.28285 0.83192
 C523 C 0.72153 0.42275 0.06377
 C524 C 0.74860 0.40981 0.08066
 C525 C 0.74650 0.38274 0.10542
 C526 C 0.77101 0.38065 0.12970
 C527 C 0.77030 0.35532 0.15339
 C528 C 0.74521 0.33127 0.15293
 C529 C 0.72116 0.33272 0.12813
 C530 C 0.72159 0.35841 0.10468
 C531 C 0.74399 0.30422 0.17766
 C532 C 0.75266 0.30931 0.21064
 H533 H 0.77245 0.42130 0.07691
 H534 H 0.79074 0.39879 0.13045
 H535 H 0.78972 0.35425 0.17164
 H536 H 0.70182 0.31416 0.12715
 H537 H 0.70285 0.35875 0.08573
 H538 H 0.73487 0.28018 0.16990
 H539 H 0.69701 0.41349 0.06878
 H540 H 0.76226 0.33334 0.21806
 C541 C 0.74647 0.57120 0.93862
 C542 C 0.72121 0.58806 0.92251
 C543 C 0.72787 0.61502 0.89840
 C544 C 0.70580 0.62026 0.87230
 C545 C 0.71213 0.64467 0.84842
 C546 C 0.74049 0.66463 0.85054
 C547 C 0.76185 0.66035 0.87736
 C548 C 0.75574 0.63568 0.90101
 C549 C 0.74761 0.69084 0.82590
 C550 C 0.73839 0.68807 0.79288
 H551 H 0.69606 0.57973 0.92588
 H552 H 0.68387 0.60509 0.87012
 H553 H 0.69456 0.64822 0.82865
 H554 H 0.78350 0.67589 0.87979
 H555 H 0.77268 0.63313 0.92146
 H556 H 0.76121 0.71271 0.83367
 H557 H 0.77182 0.57760 0.93335
 H558 H 0.72677 0.66565 0.78374
 C559 C 0.22910 0.55981 0.07897
 C560 C 0.25728 0.57508 0.09136
 C561 C 0.25641 0.59743 0.12037
 C562 C 0.27750 0.62506 0.12119
 C563 C 0.27710 0.64676 0.14820
 C564 C 0.25611 0.64069 0.17525
 C565 C 0.23573 0.61251 0.17496
 C566 C 0.23556 0.59121 0.14754
 C567 C 0.25583 0.66309 0.20414
 C568 C 0.25634 0.69760 0.20034
 H569 H 0.28027 0.57256 0.07794
 H570 H 0.29403 0.63007 0.10068
 H571 H 0.29357 0.66796 0.14817
 H572 H 0.21963 0.60728 0.19576
 H573 H 0.21960 0.56961 0.14787
 H574 H 0.25419 0.65224 0.22864
 H575 H 0.20540 0.56493 0.09019
 H576 H 0.25751 0.70791 0.17556
 C577 C 0.44567 0.07745 0.76211
 C578 C 0.42575 0.09011 0.73687
 C579 C 0.40301 0.11860 0.74155
 C580 C 0.40945 0.14444 0.76417
 C581 C 0.38761 0.17128 0.76733
 C582 C 0.35872 0.17246 0.74843
 C583 C 0.35256 0.14687 0.72550
 C584 C 0.37461 0.12038 0.72197
 C585 C 0.33584 0.20091 0.75219
 C586 C 0.30187 0.19697 0.74916
 H587 H 0.42511 0.07733 0.71324
 H588 H 0.43160 0.14436 0.77896
 H589 H 0.39311 0.19099 0.78476
 H590 H 0.33104 0.14759 0.70978
 H591 H 0.36935 0.10107 0.70401
 H592 H 0.34588 0.22517 0.75809
 H593 H 0.44453 0.08856 0.78652
 H594 H 0.29221 0.17232 0.74457
 C595 C 0.43468 0.93312 0.26394
 C596 C 0.41012 0.92784 0.24048
 C597 C 0.38438 0.90215 0.24421
 C598 C 0.35357 0.90742 0.22958
 C599 C 0.32891 0.88328 0.23200
 C600 C 0.33495 0.85306 0.24827
 C601 C 0.36580 0.84771 0.26297
 C602 C 0.39031 0.87207 0.26099
 C603 C 0.30851 0.82793 0.25016
 C604 C 0.31480 0.79385 0.25162
 H605 H 0.40872 0.94428 0.21923
 H606 H 0.34851 0.93038 0.21644
 H607 H 0.30523 0.88799 0.22070
 H608 H 0.37095 0.82491 0.27630
 H609 H 0.41401 0.86702 0.27202
 H610 H 0.28320 0.83631 0.24878
 H611 H 0.43461 0.91920 0.28690
 H612 H 0.33968 0.78468 0.24864
 C613 C 0.56918 0.07188 0.23744
 C614 C 0.58723 0.08575 0.26338
 C615 C 0.61141 0.11309 0.25895
 C616 C 0.62121 0.13146 0.28680
 C617 C 0.64416 0.15727 0.28383
 C618 C 0.65786 0.16518 0.25278
 C619 C 0.64848 0.14649 0.22504
 C620 C 0.62553 0.12073 0.22800
 C621 C 0.68335 0.19117 0.24855
 C622 C 0.68911 0.21680 0.27106
 H623 H 0.58250 0.07706 0.28836
 H624 H 0.61114 0.12576 0.31102
 H625 H 0.65160 0.17023 0.30603
 H626 H 0.65911 0.15173 0.20095
 H627 H 0.61961 0.10657 0.20606
 H628 H 0.69920 0.18944 0.22703
 H629 H 0.57189 0.08129 0.21251
 H630 H 0.67466 0.21909 0.29345
 C631 C 0.55808 0.92123 0.73786
 C632 C 0.57832 0.90857 0.76269
 C633 C 0.59932 0.87876 0.75806
 C634 C 0.62849 0.87612 0.77630
 C635 C 0.64916 0.84860 0.77232
 C636 C 0.64084 0.82286 0.75025
 C637 C 0.61106 0.82481 0.73294
 C638 C 0.59056 0.85263 0.73656
 C639 C 0.66258 0.79363 0.74572
 C640 C 0.69668 0.79649 0.74785
 H641 H 0.58040 0.92217 0.78576
 H642 H 0.63549 0.89562 0.79343
 H643 H 0.67143 0.84730 0.78689
 H644 H 0.60386 0.80498 0.71627
 H645 H 0.56770 0.85335 0.72293
 H646 H 0.65176 0.76970 0.73976
 H647 H 0.55765 0.90941 0.71378
 H648 H 0.70756 0.82109 0.74927
 C649 C 0.76420 0.93380 0.57049
 C650 C 0.74097 0.91592 0.58886
 C651 C 0.74940 0.89223 0.61577
 C652 C 0.72419 0.88186 0.63720
 C653 C 0.73031 0.85850 0.66201
 C654 C 0.76185 0.84469 0.66579
 C655 C 0.78741 0.85564 0.64513
 C656 C 0.78125 0.87898 0.62010
 C657 C 0.76800 0.81839 0.69065
 C658 C 0.74444 0.79393 0.69670
 H659 H 0.71509 0.92005 0.58392
 H660 H 0.69954 0.89179 0.63468
 H661 H 0.71030 0.85130 0.67827
 H662 H 0.81189 0.84532 0.64767
 H663 H 0.80135 0.88573 0.60386
 H664 H 0.79146 0.81755 0.70325
 H665 H 0.79008 0.93132 0.57606
 H666 H 0.72154 0.79472 0.68308
 C667 C 0.21801 0.42634 0.05908
 C668 C 0.24402 0.40967 0.07457
 C669 C 0.24005 0.38294 0.09972
 C670 C 0.26854 0.36902 0.11361
 C671 C 0.26637 0.34445 0.13802
 C672 C 0.23550 0.33327 0.14921
 C673 C 0.20702 0.34662 0.13492
 C674 C 0.20915 0.37129 0.11058
 C675 C 0.23200 0.30719 0.17486
 C676 C 0.25635 0.29976 0.19797
 H677 H 0.26896 0.41720 0.06860
 H678 H 0.29268 0.37720 0.10557
 H679 H 0.28895 0.33401 0.14755
 H680 H 0.18294 0.33813 0.14284
 H681 H 0.18644 0.38093 0.10072
 H682 H 0.20903 0.29352 0.17596
 H683 H 0.19284 0.41934 0.06408
 H684 H 0.27970 0.31265 0.19749
 C685 C 0.23165 0.06813 0.57092
 C686 C 0.25920 0.08547 0.58213
 C687 C 0.25714 0.10829 0.61083
 C688 C 0.27798 0.13609 0.61245
 C689 C 0.27592 0.15822 0.63916
 C690 C 0.25315 0.15260 0.66488
 C691 C 0.23312 0.12422 0.66375
 C692 C 0.23500 0.10230 0.63701
 C693 C 0.25052 0.17487 0.69385
 C694 C 0.25945 0.20835 0.69323
 H695 H 0.28239 0.08326 0.56901
 H696 H 0.29563 0.14087 0.59287
 H697 H 0.29252 0.17928 0.63985
 H698 H 0.21585 0.11903 0.68358
 H699 H 0.21945 0.08041 0.63722
 H700 H 0.23974 0.16496 0.71639
 H701 H 0.20801 0.07291 0.58243
 H702 H 0.26633 0.22027 0.67020
 C703 C 0.22903 0.93144 0.43394
 C704 C 0.25587 0.92084 0.41508
 C705 C 0.25320 0.89464 0.38926
 C706 C 0.28168 0.87775 0.37898
 C707 C 0.27999 0.85253 0.35511
 C708 C 0.24959 0.84369 0.34092
 C709 C 0.22131 0.86122 0.35056
 C710 C 0.22302 0.88646 0.37429
 C711 C 0.24609 0.81710 0.31565
 C712 C 0.27064 0.79432 0.30728
 H713 H 0.27993 0.93123 0.42024
 H714 H 0.30532 0.88393 0.38966
 H715 H 0.30262 0.84046 0.34786
 H716 H 0.19767 0.85537 0.33968
 H717 H 0.20065 0.89968 0.38032
 H718 H 0.22274 0.81520 0.30288
 H719 H 0.20519 0.92005 0.43050
 H720 H 0.29474 0.79572 0.31835
 C721 C 0.72105 0.06087 0.43097
 C722 C 0.74484 0.08421 0.42170
 C723 C 0.74059 0.10907 0.39514
 C724 C 0.75924 0.13843 0.39652
 C725 C 0.75772 0.16176 0.37099
 C726 C 0.73793 0.15588 0.34316
 C727 C 0.71941 0.12640 0.34156
 C728 C 0.72043 0.10327 0.36751
 C729 C 0.73776 0.17923 0.31489
 C730 C 0.74170 0.21353 0.31890
 H731 H 0.76767 0.08513 0.43548
 H732 H 0.77532 0.14320 0.41733
 H733 H 0.77286 0.18383 0.37267
 H734 H 0.70425 0.12123 0.32015
 H735 H 0.70637 0.08047 0.36537
 H736 H 0.73428 0.16911 0.29031
 H737 H 0.69685 0.06124 0.41989
 H738 H 0.74428 0.22369 0.34355
 C739 C 0.56977 0.77314 0.93529
 C740 C 0.58239 0.74700 0.91631
 C741 C 0.60826 0.75160 0.89077
 C742 C 0.62541 0.72351 0.87935
 C743 C 0.64975 0.72666 0.85506
 C744 C 0.65725 0.75806 0.84158
 C745 C 0.64033 0.78617 0.85300
 C746 C 0.61579 0.78302 0.87706
 C747 C 0.68299 0.76223 0.81616
 C748 C 0.68912 0.73811 0.79219
 H749 H 0.57347 0.72193 0.92073
 H750 H 0.62016 0.69906 0.88945
 H751 H 0.66302 0.70461 0.84734
 H752 H 0.64570 0.81056 0.84282
 H753 H 0.60258 0.80523 0.88422
 H754 H 0.69671 0.78537 0.81557
 H755 H 0.57960 0.79801 0.93241
 H756 H 0.67534 0.71503 0.79240
 C757 C 0.06877 0.21885 0.42891
 C758 C 0.08641 0.24413 0.41316
 C759 C 0.10896 0.23842 0.38482
 C760 C 0.11794 0.26577 0.36512
 C761 C 0.13946 0.26180 0.33841
 C762 C 0.15274 0.23032 0.33102
 C763 C 0.14345 0.20284 0.35031
 C764 C 0.12204 0.20683 0.37719
 C765 C 0.17666 0.22573 0.30380
 C766 C 0.19967 0.25024 0.29598
 H767 H 0.08234 0.26964 0.42096
 H768 H 0.10814 0.29033 0.37031
 H769 H 0.14539 0.28337 0.32344
 H770 H 0.15351 0.17839 0.34510
 H771 H 0.11649 0.18521 0.39215
 H772 H 0.17782 0.20183 0.29141
 H773 H 0.07082 0.19334 0.42060
 H774 H 0.19880 0.27395 0.30871
 C775 C 0.56104 0.25031 0.07393
 C776 C 0.57643 0.27511 0.09260
 C777 C 0.60196 0.26759 0.11763
 C778 C 0.60789 0.29055 0.14313
 C779 C 0.63240 0.28452 0.16664
 C780 C 0.65169 0.25547 0.16482
 C781 C 0.64593 0.23268 0.13920
 C782 C 0.62143 0.23866 0.11578
 C783 C 0.67858 0.24870 0.18841
 C784 C 0.68596 0.27002 0.21438
 H785 H 0.56931 0.30090 0.08914
 H786 H 0.59348 0.31318 0.14489
 H787 H 0.63638 0.30274 0.18597
 H788 H 0.66069 0.21031 0.13705
 H789 H 0.61850 0.22093 0.09586
 H790 H 0.69425 0.22730 0.18410
 H791 H 0.56624 0.22439 0.07915
 H792 H 0.70223 0.26638 0.22699
 C793 C 0.44041 0.28362 0.92781
 C794 C 0.42348 0.25734 0.91283
 C795 C 0.39756 0.26135 0.88738
 C796 C 0.38663 0.23285 0.87051
 C797 C 0.36173 0.23503 0.84686
 C798 C 0.34700 0.26588 0.83974
 C799 C 0.35799 0.29442 0.85640
 C800 C 0.38284 0.29224 0.88016
 C801 C 0.32109 0.26941 0.81440
 C802 C 0.30041 0.24343 0.80475
 H803 H 0.42951 0.23212 0.92025
 H804 H 0.39754 0.20875 0.87551
 H805 H 0.35464 0.21261 0.83386
 H806 H 0.34703 0.31848 0.85127
 H807 H 0.38990 0.31475 0.89294
 H808 H 0.31791 0.29365 0.80304
 H809 H 0.43604 0.30913 0.92050
 H810 H 0.30307 0.21891 0.81551
 C811 C 0.42815 0.75583 0.06458
 C812 C 0.41768 0.72575 0.07832
 C813 C 0.39298 0.72437 0.10530
 C814 C 0.39429 0.69836 0.12845
 C815 C 0.37227 0.69742 0.15513
 C816 C 0.34841 0.72239 0.15909
 C817 C 0.34611 0.74760 0.13496
 C818 C 0.36821 0.74861 0.10843
 C819 C 0.32597 0.72089 0.18805
 C820 C 0.30701 0.74783 0.19879
 H821 H 0.42989 0.70288 0.07108
 H822 H 0.41287 0.67912 0.12630
 H823 H 0.37418 0.67737 0.17298
 H824 H 0.32713 0.76641 0.13609
 H825 H 0.36555 0.76820 0.09023
 H826 H 0.32488 0.69791 0.20211
 H827 H 0.41820 0.77909 0.07375
 H828 H 0.31056 0.77215 0.18781
 C829 C 0.93349 0.56354 0.72575
 C830 C 0.91776 0.58193 0.75064
 C831 C 0.89040 0.60574 0.74461
 C832 C 0.87156 0.61649 0.77177
 C833 C 0.84563 0.63897 0.76756
 C834 C 0.83811 0.65160 0.73595
 C835 C 0.85672 0.64064 0.70873
 C836 C 0.88275 0.61821 0.71295
 C837 C 0.81097 0.67572 0.73038
 C838 C 0.79783 0.69581 0.75536
 H839 H 0.92500 0.57784 0.77613
 H840 H 0.87673 0.60723 0.79640
 H841 H 0.83136 0.64578 0.78913
 H842 H 0.85138 0.64977 0.68409
 H843 H 0.89688 0.61127 0.69135
 H844 H 0.80162 0.67856 0.70545
 H845 H 0.92586 0.56621 0.70028
 H846 H 0.80663 0.69353 0.78047
 C847 C 0.43807 0.06894 0.27180
 C848 C 0.41871 0.08339 0.24717
 C849 C 0.39302 0.10874 0.25329
 C850 C 0.38076 0.12630 0.22599
 C851 C 0.35606 0.14999 0.23001
 C852 C 0.34273 0.15645 0.26152
 C853 C 0.35518 0.13927 0.28897
 C854 C 0.37995 0.11539 0.28495
 C855 C 0.31664 0.18159 0.26636
 C856 C 0.29479 0.19019 0.24128
 H857 H 0.42300 0.07630 0.22161
 H858 H 0.39048 0.12182 0.20138
 H859 H 0.34796 0.16350 0.20840
 H860 H 0.34539 0.14398 0.31351
 H861 H 0.38820 0.10203 0.30660
 H862 H 0.31452 0.19367 0.29027
 H863 H 0.43525 0.07641 0.29737
 H864 H 0.29606 0.17794 0.21747
 C865 C 0.07190 0.56841 0.22597
 C866 C 0.08426 0.59008 0.25011
 C867 C 0.11051 0.61520 0.24465
 C868 C 0.12339 0.63146 0.27251
 C869 C 0.14836 0.65508 0.26922
 C870 C 0.16116 0.66303 0.23784
 C871 C 0.14789 0.64740 0.20982
 C872 C 0.12289 0.62359 0.21311
 C873 C 0.18766 0.68797 0.23369
 C874 C 0.21114 0.69387 0.25813
 H875 H 0.07492 0.58782 0.27519
 H876 H 0.11412 0.62585 0.29707
 H877 H 0.15713 0.66736 0.29132
 H878 H 0.15716 0.65338 0.18535
 H879 H 0.11341 0.61219 0.19088
 H880 H 0.18938 0.70129 0.21041
 H881 H 0.08085 0.56958 0.20077
 H882 H 0.20986 0.68056 0.28137
 C883 C 0.94297 0.43161 0.27217
 C884 C 0.92772 0.41092 0.24904
 C885 C 0.90021 0.38769 0.25685
 C886 C 0.88502 0.37084 0.23057
 C887 C 0.85835 0.34957 0.23622
 C888 C 0.84637 0.34431 0.26855
 C889 C 0.86155 0.36102 0.29487
 C890 C 0.88823 0.38236 0.28923
 C891 C 0.81755 0.32269 0.27560
 C892 C 0.80638 0.29827 0.25381
 H893 H 0.93551 0.41278 0.22342
 H894 H 0.89350 0.37453 0.20537
 H895 H 0.84689 0.33808 0.21500
 H896 H 0.85273 0.35756 0.31999
 H897 H 0.89899 0.39446 0.31043
 H898 H 0.80480 0.32577 0.29900
 H899 H 0.93582 0.43096 0.29792
 H900 H 0.81862 0.29432 0.23035
 C901 C 0.07372 0.43487 0.75915
 C902 C 0.08183 0.40972 0.73676
 C903 C 0.11164 0.38900 0.74034
 C904 C 0.11064 0.35529 0.73121
 C905 C 0.13899 0.33563 0.73295
 C906 C 0.16904 0.34969 0.74287
 C907 C 0.17021 0.38353 0.75137
 C908 C 0.14164 0.40295 0.75064
 C909 C 0.19954 0.32979 0.74283
 C910 C 0.20040 0.29758 0.75554
 H911 H 0.06539 0.40448 0.71634
 H912 H 0.08788 0.34419 0.72274
 H913 H 0.13767 0.30971 0.72559
 H914 H 0.19325 0.39490 0.75863
 H915 H 0.14323 0.42909 0.75707
 H916 H 0.22189 0.34093 0.73325
 H917 H 0.08795 0.43778 0.78160
 H918 H 0.17843 0.28680 0.76634
 C919 C 0.93430 0.76819 0.43561
 C920 C 0.91109 0.74496 0.42498
 C921 C 0.88614 0.75196 0.39931
 C922 C 0.87040 0.72498 0.38398
 C923 C 0.84745 0.73030 0.35889
 C924 C 0.83973 0.76288 0.34869
 C925 C 0.85473 0.78989 0.36461
 C926 C 0.87758 0.78458 0.38981
 C927 C 0.81712 0.76937 0.32095
 C928 C 0.79992 0.74389 0.30561
 H929 H 0.91204 0.71994 0.43504
 H930 H 0.87629 0.69963 0.39105
 H931 H 0.83626 0.70888 0.34716
 H932 H 0.84886 0.81521 0.35743
 H933 H 0.88817 0.80615 0.40172
 H934 H 0.81535 0.79449 0.31140
 H935 H 0.93487 0.79306 0.42536
 H936 H 0.78781 0.74734 0.28860
 C937 C 0.94140 0.25277 0.57232
 C938 C 0.93172 0.22682 0.59324
 C939 C 0.90969 0.23140 0.62211
 C940 C 0.91237 0.20944 0.64902
 C941 C 0.89112 0.21214 0.67617
 C942 C 0.86621 0.23626 0.67650
 C943 C 0.86369 0.25855 0.64975
 C944 C 0.88527 0.25618 0.62280
 C945 C 0.84293 0.23735 0.70466
 C946 C 0.80997 0.24564 0.70036
 H947 H 0.94228 0.20232 0.58945
 H948 H 0.93096 0.19011 0.64902
 H949 H 0.89359 0.19479 0.69657
 H950 H 0.84508 0.27784 0.64963
 H951 H 0.88222 0.27319 0.60224
 H952 H 0.85097 0.22850 0.72865
 H953 H 0.93394 0.27811 0.57760
 H954 H 0.80070 0.25024 0.67567
 C955 C 0.06491 0.72627 0.57259
 C956 C 0.08404 0.75127 0.58688
 C957 C 0.10899 0.74575 0.61294
 C958 C 0.12263 0.77381 0.62836
 C959 C 0.14672 0.77037 0.65259
 C960 C 0.15782 0.73859 0.66210
 C961 C 0.14438 0.71046 0.64655
 C962 C 0.12018 0.71390 0.62224
 C963 C 0.18411 0.73391 0.68697
 C964 C 0.19367 0.75862 0.70920
 H965 H 0.08014 0.77673 0.57884
 H966 H 0.11475 0.79865 0.62147
 H967 H 0.15683 0.79284 0.66311
 H968 H 0.15272 0.68570 0.65318
 H969 H 0.11091 0.69157 0.61064
 H970 H 0.19666 0.71012 0.68772
 H971 H 0.06710 0.70064 0.58045
 H972 H 0.18198 0.78277 0.70919
 C973 C 0.73096 0.56031 0.07511
 C974 C 0.75870 0.57753 0.08587
 C975 C 0.75662 0.60239 0.11282
 C976 C 0.77655 0.63091 0.11168
 C977 C 0.77402 0.65531 0.13631
 C978 C 0.75182 0.65124 0.16280
 C979 C 0.73280 0.62215 0.16455
 C980 C 0.73497 0.59804 0.13971
 C981 C 0.74925 0.67593 0.18977
 C982 C 0.75548 0.70977 0.18532
 H983 H 0.78167 0.57479 0.07247
 H984 H 0.79373 0.63453 0.09144
 H985 H 0.78983 0.67697 0.13489
 H986 H 0.71603 0.61820 0.18508
 H987 H 0.71999 0.57583 0.14181
 H988 H 0.74151 0.66731 0.21402
 H989 H 0.70726 0.56575 0.08617
 H990 H 0.75903 0.71974 0.16066
 C991 C 0.24550 0.57969 0.94353
 C992 C 0.22104 0.59202 0.92278
 C993 C 0.22648 0.62108 0.90104
 C994 C 0.21230 0.62141 0.86944
 C995 C 0.21725 0.64849 0.84826
 C996 C 0.23582 0.67607 0.85871
 C997 C 0.24910 0.67628 0.89069
 C998 C 0.24484 0.64880 0.91160
 C999 C 0.24077 0.70497 0.83672
 C1000 C 0.24833 0.70074 0.80338
 H1001 H 0.19809 0.57847 0.92055
 H1002 H 0.19774 0.60048 0.86099
 H1003 H 0.20612 0.64811 0.82394
 H1004 H 0.26316 0.69752 0.89926
 H1005 H 0.25538 0.64947 0.93617
 H1006 H 0.23879 0.72982 0.84699
 H1007 H 0.26974 0.59091 0.94322
 H1008 H 0.25069 0.67577 0.79350
 C1009 C 0.72570 0.43356 0.92658
 C1010 C 0.75211 0.41452 0.91523
 C1011 C 0.74869 0.38894 0.88895
 C1012 C 0.77679 0.37868 0.87144
 C1013 C 0.77451 0.35447 0.84665
 C1014 C 0.74401 0.33980 0.83910
 C1015 C 0.71593 0.34999 0.85653
 C1016 C 0.71821 0.37402 0.88143
 C1017 C 0.74063 0.31429 0.81297
 C1018 C 0.76546 0.29151 0.80578
 H1019 H 0.77632 0.41900 0.92547
 H1020 H 0.80053 0.38970 0.87672
 H1021 H 0.79653 0.34777 0.83307
 H1022 H 0.69222 0.33885 0.85126
 H1023 H 0.69611 0.38025 0.89502
 H1024 H 0.71733 0.31226 0.80017
 H1025 H 0.70177 0.43091 0.91528
 H1026 H 0.78873 0.29308 0.81861
 C1027 C 0.56703 0.93132 0.23141
 C1028 C 0.58925 0.92013 0.25513
 C1029 C 0.61237 0.89246 0.24917
 C1030 C 0.64210 0.89189 0.26663
 C1031 C 0.66422 0.86566 0.26236
 C1032 C 0.65670 0.83927 0.24082
 C1033 C 0.62667 0.83939 0.22389
 C1034 C 0.60473 0.86592 0.22778
 C1035 C 0.67911 0.81071 0.23706
 C1036 C 0.71315 0.81441 0.23802
 H1037 H 0.59070 0.93302 0.27865
 H1038 H 0.64823 0.91180 0.28364
 H1039 H 0.68675 0.86565 0.27658
 H1040 H 0.62025 0.81897 0.20759
 H1041 H 0.58152 0.86515 0.21474
 H1042 H 0.66855 0.78620 0.23345
 H1043 H 0.56715 0.92072 0.20677
 H1044 H 0.72368 0.83899 0.24076
 C1045 C 0.57750 0.05973 0.73033
 C1046 C 0.59283 0.07810 0.75524
 C1047 C 0.62098 0.10073 0.74945
 C1048 C 0.62488 0.12828 0.77041
 C1049 C 0.65193 0.14944 0.76692
 C1050 C 0.67601 0.14311 0.74270
 C1051 C 0.67246 0.11531 0.72196
 C1052 C 0.64495 0.09443 0.72502
 C1053 C 0.70559 0.16438 0.74011
 C1054 C 0.70375 0.19886 0.74420
 H1055 H 0.58259 0.07727 0.78004
 H1056 H 0.60697 0.13338 0.78968
 H1057 H 0.65449 0.17017 0.78385
 H1058 H 0.69095 0.10981 0.70337
 H1059 H 0.64300 0.07290 0.70901
 H1060 H 0.72904 0.15252 0.73541
 H1061 H 0.58526 0.06252 0.70481
 H1062 H 0.67984 0.20992 0.74860
 C1063 C 0.42924 0.94003 0.77260
 C1064 C 0.40995 0.92474 0.74840
 C1065 C 0.38437 0.89909 0.75517
 C1066 C 0.36765 0.88516 0.72813
 C1067 C 0.34385 0.86047 0.73285
 C1068 C 0.33630 0.84893 0.76487
 C1069 C 0.35247 0.86319 0.79200
 C1070 C 0.37635 0.88789 0.78730
 C1071 C 0.31106 0.82297 0.77077
 C1072 C 0.30300 0.79899 0.74716
 H1073 H 0.41444 0.93132 0.72275
 H1074 H 0.37299 0.89342 0.70315
 H1075 H 0.33109 0.85100 0.71137
 H1076 H 0.34685 0.85493 0.81692
 H1077 H 0.38822 0.89781 0.80901
 H1078 H 0.29880 0.82228 0.79462
 H1079 H 0.42585 0.93427 0.79849
 H1080 H 0.31531 0.79891 0.72338
   
