data_POSCAR
  _audit_creation_date              2014-09-24
  _audit_creation_method            'ToBaCCo'
  _symmetry_space_group_name_H-M    'P1'
  _symmetry_Int_Tables_number       1
  _symmetry_cell_setting            triclinic
  loop_
  _symmetry_equiv_pos_as_xyz
 x,y,z
_cell_length_a 32.4467
_cell_length_b 32.4755
_cell_length_c 32.3204
_cell_angle_alpha 90.258000
_cell_angle_beta 90.255300
_cell_angle_gamma 89.754100
loop_
  _atom_site_label
  _atom_site_type_symbol
  _atom_site_fract_x
  _atom_site_fract_y
  _atom_site_fract_z
C1 C 0.19779 0.14768 0.19911
 C2 C 0.17853 0.12957 0.23325
 C3 C 0.14307 0.14754 0.25105
 C4 C 0.12783 0.18474 0.23458
 C5 C 0.14649 0.20294 0.20025
 C6 C 0.18182 0.18458 0.18266
 C7 C 0.23275 0.12945 0.18113
 C8 C 0.25186 0.14732 0.14646
 C9 C 0.23627 0.18492 0.13123
 C10 C 0.20120 0.20322 0.14862
 C11 C 0.18472 0.23952 0.13195
 C12 C 0.14848 0.25679 0.14817
 C13 C 0.12996 0.23889 0.18282
 H14 H 0.19172 0.10188 0.24660
 H15 H 0.10041 0.19885 0.24759
 H16 H 0.24553 0.10163 0.19458
 H17 H 0.25038 0.19912 0.10452
 H18 H 0.19949 0.25398 0.10575
 H19 H 0.10228 0.25262 0.19565
 C20 C -0.20987 0.84339 0.21045
 C21 C -0.19376 0.85928 0.24753
 C22 C -0.16271 0.83799 0.26953
 C23 C -0.14688 0.80108 0.25269
 C24 C -0.16292 0.78470 0.21583
 C25 C -0.19460 0.80584 0.19466
 C26 C -0.24116 0.86441 0.18901
 C27 C -0.25768 0.84834 0.15191
 C28 C -0.24263 0.81038 0.13690
 C29 C -0.21091 0.78946 0.15761
 C30 C -0.19506 0.75250 0.14166
 C31 C -0.16395 0.73101 0.16292
 C32 C -0.14789 0.74736 0.19989
 H33 H -0.20481 0.88880 0.25885
 H34 H -0.12302 0.78420 0.26909
 H35 H -0.25363 0.89268 0.20195
 H36 H -0.25482 0.79766 0.10830
 H37 H -0.20674 0.74041 0.11258
 H38 H -0.12362 0.73093 0.21614
 C39 C -0.20581 0.15146 -0.20244
 C40 C -0.18891 0.13389 -0.23838
 C41 C -0.15786 0.15448 -0.26006
 C42 C -0.14581 0.19398 -0.24748
 C43 C -0.16151 0.21122 -0.21106
 C44 C -0.19090 0.18955 -0.18785
 C45 C -0.23672 0.13122 -0.18048
 C46 C -0.25290 0.14805 -0.14355
 C47 C -0.23634 0.18542 -0.12844
 C48 C -0.20501 0.20582 -0.14994
 C49 C -0.18696 0.24186 -0.13393
 C50 C -0.15637 0.26265 -0.15642
 C51 C -0.14657 0.24881 -0.19643
 H52 H -0.19895 0.10378 -0.24886
 H53 H -0.12248 0.21017 -0.26491
 H54 H -0.24785 0.10185 -0.19195
 H55 H -0.24904 0.19976 -0.10093
 H56 H -0.19582 0.25301 -0.10358
 H57 H -0.12487 0.26594 -0.21501
 C58 C 0.20507 0.85407 -0.20418
 C59 C 0.19071 0.86812 -0.24261
 C60 C 0.16013 0.84634 -0.26476
 C61 C 0.14293 0.81096 -0.24660
 C62 C 0.15669 0.79682 -0.20806
 C63 C 0.18770 0.81853 -0.18659
 C64 C 0.23722 0.87443 -0.18348
 C65 C 0.25161 0.86019 -0.14502
 C66 C 0.23342 0.82538 -0.12718
 C67 C 0.20186 0.80426 -0.14785
 C68 C 0.18518 0.76829 -0.13110
 C69 C 0.15550 0.74574 -0.15322
 C70 C 0.14075 0.76055 -0.19122
 H71 H 0.20293 0.89655 -0.25494
 H72 H 0.11984 0.79331 -0.26323
 H73 H 0.25187 0.90071 -0.19775
 H74 H 0.24473 0.81414 -0.09768
 H75 H 0.19610 0.75703 -0.10146
 H76 H 0.11760 0.74319 -0.20806
 C77 C 0.13366 1.19128 0.81281
 C78 C 0.11289 1.17171 0.77996
 C79 C 0.12966 1.13640 0.76040
 C80 C 0.16770 1.12082 0.77499
 C81 C 0.18890 1.14014 0.80756
 C82 C 0.17224 1.17594 0.82599
 C83 C 0.11704 1.22660 0.83196
 C84 C 0.13936 1.24784 0.86289
 C85 C 0.17854 1.23303 0.87453
 C86 C 0.19464 1.19690 0.85705
 C87 C 0.23315 1.18177 0.86976
 C88 C 0.24969 1.14594 0.85186
 C89 C 0.22720 1.12493 0.82115
 H90 H 0.08341 1.18390 0.76976
 H91 H 0.18221 1.09497 0.75938
 H92 H 0.08757 1.23866 0.82153
 H93 H 0.19608 1.24914 0.89818
 H94 H 0.25056 1.19800 0.89341
 H95 H 0.23989 1.09709 0.80754
 C96 C 0.85162 0.79968 0.79350
 C97 C 0.87080 0.82014 0.76063
 C98 C 0.85361 0.85646 0.74388
 C99 C 0.81604 0.87128 0.75998
 C100 C 0.79694 0.85159 0.79320
 C101 C 0.81484 0.81577 0.81018
 C102 C 0.86808 0.76282 0.80922
 C103 C 0.84798 0.74131 0.84118
 C104 C 0.81275 0.75937 0.85932
 C105 C 0.79573 0.79589 0.84366
 C106 C 0.75940 0.81242 0.86044
 C107 C 0.74086 0.84745 0.84286
 C108 C 0.76001 0.86708 0.80951
 H109 H 0.89849 0.80704 0.74716
 H110 H 0.80227 0.89910 0.74751
 H111 H 0.89546 0.74985 0.79503
 H112 H 0.79836 0.74481 0.88567
 H113 H 0.74495 0.79762 0.88662
 H114 H 0.74588 0.89428 0.79613
 C115 C 0.16238 0.79046 1.21065
 C116 C 0.14608 0.80664 1.24747
 C117 C 0.16799 0.83621 1.27052
 C118 C 0.20605 0.85038 1.25583
 C119 C 0.22233 0.83515 1.21866
 C120 C 0.20051 0.80498 1.19602
 C121 C 0.14124 0.75992 1.18835
 C122 C 0.15735 0.74375 1.15115
 C123 C 0.19545 0.75874 1.13684
 C124 C 0.21675 0.78948 1.15865
 C125 C 0.25392 0.80518 1.14351
 C126 C 0.27590 0.83510 1.16600
 C127 C 0.25994 0.84985 1.20361
 H128 H 0.11628 0.79634 1.25828
 H129 H 0.22284 0.87344 1.27337
 H130 H 0.11290 0.74763 1.20085
 H131 H 0.20814 0.74715 1.10805
 H132 H 0.26575 0.79437 1.11405
 H133 H 0.27672 0.87308 1.22092
 C134 C 0.85066 1.20976 1.20384
 C135 C 0.86505 1.19502 1.24206
 C136 C 0.84342 1.16422 1.26360
 C137 C 0.80748 1.14771 1.24545
 C138 C 0.79262 1.16233 1.20747
 C139 C 0.81451 1.19306 1.18626
 C140 C 0.87144 1.24142 1.18323
 C141 C 0.85708 1.25592 1.14481
 C142 C 0.82152 1.23847 1.12710
 C143 C 0.79994 1.20744 1.14770
 C144 C 0.76341 1.19132 1.13093
 C145 C 0.74038 1.16226 1.15302
 C146 C 0.75562 1.14731 1.19083
 H147 H 0.89369 1.20692 1.25461
 H148 H 0.79006 1.12444 1.26170
 H149 H 0.89829 1.25547 1.19741
 H150 H 0.81016 1.24985 1.09767
 H151 H 0.75222 1.20209 1.10121
 H152 H 0.73817 1.12447 1.20764
 N153 N 0.54223 1.07763 0.95648
 N154 N 0.57563 1.10064 0.95499
 N155 N 0.45683 1.04710 0.92661
 N156 N 0.42581 1.05148 0.90045
 N157 N 0.45521 1.07526 0.95579
 N158 N 0.42286 1.09951 0.95040
 N159 N 0.54351 1.04877 0.92790
 N160 N 0.57772 1.05147 0.90620
 C161 C 0.59749 1.08393 0.92350
 C162 C 0.40508 1.08447 0.91551
 N163 N 0.45868 0.93040 0.95548
 N164 N 0.42486 0.90803 0.95319
 N165 N 0.54542 0.96009 0.92714
 N166 N 0.57576 0.95410 0.90064
 N167 N 0.54534 0.93112 0.95529
 N168 N 0.57541 0.90446 0.94867
 N169 N 0.45849 0.95893 0.92676
 N170 N 0.42446 0.95688 0.90440
 Mn171 Mn 0.50118 1.00372 0.92659
 C172 C 0.40387 0.92498 0.92118
 C173 C 0.59405 0.91921 0.91449
 N174 N 0.45532 1.07524 1.04500
 N175 N 0.42158 1.09780 1.04837
 N176 N 0.54341 1.04949 1.07353
 N177 N 0.57362 1.05700 1.10000
 N178 N 0.54172 1.07823 1.04517
 N179 N 0.57059 1.10604 1.05153
 N180 N 0.45644 1.04664 1.07364
 N181 N 0.42321 1.04877 1.09702
 Mn182 Mn 0.49851 1.07709 1.00057
 C183 C 0.40183 1.08087 1.08087
 C184 C 0.59006 1.09261 1.08603
 N185 N 0.54621 0.93141 1.04411
 N186 N 0.57883 0.90733 1.04772
 N187 N 0.45973 0.95803 1.07386
 N188 N 0.43226 0.94927 1.10249
 N189 N 0.45986 0.92964 1.04483
 N190 N 0.43271 0.90068 1.05305
 N191 N 0.54655 0.96038 1.07264
 N192 N 0.57965 0.95685 1.09634
 Mn193 Mn 0.50243 0.93019 0.99988
 Mn194 Mn 0.50163 1.00367 1.07398
 Cl195 Cl 0.50092 1.00366 1.00033
 C196 C 0.59949 0.92366 1.08026
 C197 C 0.41577 0.91332 1.08915
 N198 N 0.04832 0.54689 -0.07491
 N199 N 0.05412 0.57767 -0.10075
 N200 N 0.07758 0.46018 -0.04631
 N201 N 0.10003 0.42621 -0.04780
 N202 N 0.04894 0.45973 -0.07519
 N203 N 0.05081 0.42506 -0.09667
 N204 N 0.07690 0.54665 -0.04607
 N205 N 0.10306 0.57708 -0.05153
 C206 C 0.08857 0.59597 -0.08589
 C207 C 0.08312 0.40480 -0.07949
 N208 N 0.04816 0.46088 0.07131
 N209 N 0.05165 0.42830 0.09534
 N210 N 0.07580 0.54722 0.04274
 N211 N 0.09961 0.57985 0.04665
 N212 N 0.04662 0.54770 0.07078
 N213 N 0.04976 0.58083 0.09446
 N214 N 0.07667 0.46043 0.04264
 N215 N 0.10022 0.42738 0.04621
 Mn216 Mn 0.07723 0.50360 -0.00172
 C217 C 0.08419 0.40774 0.07925
 C218 C 0.08292 0.60065 0.07890
 N219 N -0.03957 0.46018 -0.07744
 N220 N -0.04449 0.42996 -0.10431
 N221 N -0.06971 0.54564 -0.04811
 N222 N -0.09671 0.57549 -0.05455
 N223 N -0.04055 0.54647 -0.07618
 N224 N -0.04697 0.57685 -0.10248
 N225 N -0.06808 0.45891 -0.04890
 N226 N -0.09297 0.42745 -0.05551
 Mn227 Mn 0.00438 0.50342 -0.07643
 C228 C -0.07757 0.40932 -0.09011
 C229 C -0.08228 0.59452 -0.08875
 N230 N -0.04235 0.54575 0.06998
 N231 N -0.05101 0.57393 0.09817
 N232 N -0.06864 0.45846 0.04046
 N233 N -0.09128 0.42492 0.04329
 N234 N -0.04022 0.45909 0.06956
 N235 N -0.04258 0.42582 0.09273
 N236 N -0.07098 0.54491 0.04115
 N237 N -0.09997 0.57245 0.04902
 Mn238 Mn 0.00307 0.50348 0.07092
 Mn239 Mn -0.06987 0.50195 -0.00385
 Cl240 Cl 0.00363 0.50316 -0.00277
 C241 C -0.08708 0.59023 0.08473
 C242 C -0.07453 0.40483 0.07595
 N243 N 0.92756 0.04789 0.54211
 N244 N 0.90268 0.05187 0.57404
 N245 N 0.95664 0.07684 0.45601
 N246 N 0.94956 0.10464 0.42719
 N247 N 0.92809 0.04832 0.45526
 N248 N 0.90068 0.05612 0.42594
 N249 N 0.95618 0.07632 0.54296
 N250 N 0.95164 0.10039 0.57563
 C251 C 0.91826 0.08457 0.59476
 C252 C 0.91440 0.09153 0.40882
 N253 N 1.07360 0.04796 0.45623
 N254 N 1.09582 0.05018 0.42219
 N255 N 1.04472 0.07637 0.54403
 N256 N 1.04468 0.09668 0.57950
 N257 N 1.07355 0.04787 0.54402
 N258 N 1.09373 0.04810 0.57964
 N259 N 1.04516 0.07684 0.45663
 N260 N 1.04739 0.09959 0.42297
 Mn261 Mn 1.00079 0.07709 0.49991
 C262 C 1.07914 0.08260 0.40183
 C263 C 1.07544 0.07879 0.60147
 N264 N 0.92844 -0.04066 0.45513
 N265 N 0.90030 -0.04857 0.42666
 N266 N 0.95731 -0.06873 0.54279
 N267 N 0.95470 -0.09130 0.57653
 N268 N 0.92818 -0.04052 0.54216
 N269 N 0.90485 -0.04331 0.57539
 N270 N 0.95682 -0.06960 0.45562
 N271 N 0.94864 -0.09803 0.42746
 Mn272 Mn 0.92760 0.00372 0.49853
 C273 C 0.91316 -0.08455 0.40974
 C274 C 0.92184 -0.07505 0.59656
 N275 N 1.07454 -0.04051 0.54279
 N276 N 1.10262 -0.04791 0.57145
 N277 N 1.04590 -0.06955 0.45601
 N278 N 1.05434 -0.09833 0.42834
 N279 N 1.07440 -0.04092 0.45604
 N280 N 1.10297 -0.04953 0.42830
 N281 N 1.04618 -0.06920 0.54273
 N282 N 1.05435 -0.09700 0.57131
 Mn283 Mn 1.07452 0.00379 0.49969
 Mn284 Mn 1.00147 -0.06972 0.49928
 Cl285 Cl 1.00110 0.00365 0.49925
 C286 C 1.08980 -0.08339 0.58886
 C287 C 1.09006 -0.08548 0.41133
 C288 C 1.09879 0.13970 0.35631
 C289 C 1.11382 0.15566 0.31952
 C290 C 1.12413 0.12978 0.28604
 C291 C 1.11541 0.08688 0.28919
 C292 C 1.10004 0.07072 0.32693
 C293 C 1.09315 0.09737 0.36110
 C294 C 1.08979 0.02868 0.32837
 N295 N 1.09421 0.00468 0.29426
 N296 N 1.10783 0.01983 0.25872
 C297 C 1.11817 0.06000 0.25489
 H298 H 1.09274 0.16060 0.38182
 H299 H 1.11957 0.18847 0.31823
 H300 H 1.07710 0.01476 0.35575
 H301 H 1.12693 0.07066 0.22460
 C302 C 0.91510 -0.12596 0.34576
 C303 C 0.89682 -0.14523 0.31190
 C304 C 0.85373 -0.14576 0.30682
 C305 C 0.82873 -0.12924 0.33917
 C306 C 0.84756 -0.10955 0.37382
 C307 C 0.89120 -0.10673 0.37618
 C308 C 0.82193 -0.09532 0.40602
 N309 N 0.78059 -0.10051 0.40364
 N310 N 0.76304 -0.11964 0.37171
 C311 C 0.78560 -0.13463 0.33982
 H312 H 0.94844 -0.12484 0.34742
 H313 H 0.91692 -0.15771 0.28822
 H314 H 0.83409 -0.08145 0.43383
 H315 H 0.76956 -0.15184 0.31613
 C316 C 0.85798 0.10715 0.63485
 C317 C 0.83945 0.12390 0.66985
 C318 C 0.86307 0.13443 0.70461
 C319 C 0.90612 0.12628 0.70473
 C320 C 0.92504 0.10946 0.66894
 C321 C 0.90066 0.10078 0.63348
 C322 C 0.96755 0.10054 0.67054
 N323 N 0.98944 0.10854 0.70547
 N324 N 0.97170 0.12440 0.73903
 C325 C 0.93085 0.13331 0.73997
 H326 H 0.83891 0.10006 0.60816
 H327 H 0.80651 0.12954 0.66951
 H328 H 0.98355 0.08651 0.64486
 H329 H 0.91809 0.14509 0.76851
 C330 C 1.08595 -0.12314 0.65319
 C331 C 1.10275 -0.14018 0.68880
 C332 C 1.14548 -0.13947 0.69640
 C333 C 1.17178 -0.12392 0.66481
 C334 C 1.15432 -0.10571 0.62871
 C335 C 1.11082 -0.10412 0.62383
 C336 C 1.18123 -0.09196 0.59762
 N337 N 1.22251 -0.09650 0.60220
 N338 N 1.23882 -0.11459 0.63530
 C339 C 1.21499 -0.12897 0.66630
 H340 H 1.05285 -0.12360 0.64924
 H341 H 1.08153 -0.15193 0.71164
 H342 H 1.17021 -0.07908 0.56895
 H343 H 1.23016 -0.14552 0.69096
 C344 C 0.35728 1.13812 1.10324
 C345 C 0.32075 1.15442 1.11868
 C346 C 0.28706 1.12900 1.12811
 C347 C 0.29003 1.08610 1.11859
 C348 C 0.32761 1.06957 1.10298
 C349 C 0.36171 1.09584 1.09642
 C350 C 0.32898 1.02759 1.09208
 N351 N 0.29494 1.00395 1.09604
 N352 N 0.25950 1.01946 1.10970
 C353 C 0.25573 1.05962 1.12064
 H354 H 0.38280 1.15872 1.09753
 H355 H 0.31970 1.18718 1.12516
 H356 H 0.35633 1.01344 1.07934
 H357 H 0.22551 1.07055 1.12930
 C358 C 0.35851 0.86834 0.89975
 C359 C 0.32192 0.85280 0.88368
 C360 C 0.28855 0.87889 0.87464
 C361 C 0.29189 0.92162 0.88346
 C362 C 0.32951 0.93759 0.89933
 C363 C 0.36324 0.91057 0.90670
 C364 C 0.33148 0.97996 0.90859
 N365 N 0.29816 1.00444 0.90201
 N366 N 0.26288 0.98943 0.88729
 C367 C 0.25850 0.94890 0.87809
 H368 H 0.38386 0.84729 0.90558
 H369 H 0.32001 0.82008 0.87729
 H370 H 0.35872 0.99383 0.92180
 H371 H 0.22875 0.93839 0.86738
 C372 C 0.64028 0.86358 1.10226
 C373 C 0.67522 0.84505 1.11900
 C374 C 0.70952 0.86855 1.13130
 C375 C 0.70930 0.91164 1.12293
 C376 C 0.67354 0.93037 1.10553
 C377 C 0.63833 0.90618 1.09666
 C378 C 0.67513 0.97235 1.09526
 N379 N 0.71016 0.99403 1.10185
 N380 N 0.74383 0.97653 1.11764
 C381 C 0.74475 0.93616 1.12802
 H382 H 0.61397 0.84448 1.09469
 H383 H 0.67434 0.81217 1.12448
 H384 H 0.64937 0.98793 1.08087
 H385 H 0.77371 0.92348 1.13865
 C386 C 0.64429 1.09985 0.86647
 C387 C 0.68073 1.11469 0.85009
 C388 C 0.71275 1.12930 0.87572
 C389 C 0.70811 1.12572 0.91952
 C390 C 0.67037 1.11098 0.93621
 C391 C 0.63793 1.09894 0.90915
 C392 C 0.66734 1.10670 0.97947
 N393 N 0.69989 1.11601 1.00412
 N394 N 0.73554 1.12856 0.98854
 C395 C 0.74096 1.13311 0.94726
 H396 H 0.62014 1.09017 0.84534
 H397 H 0.68265 1.11686 0.81672
 H398 H 0.64008 1.09486 0.99408
 H399 H 0.77138 1.14109 0.93664
 C400 C 0.10925 0.36544 0.13714
 C401 C 0.12475 0.32908 0.15382
 C402 C 0.13005 0.29396 0.12904
 C403 C 0.11799 0.29519 0.08680
 C404 C 0.10290 0.33249 0.06965
 C405 C 0.09922 0.36796 0.09509
 C406 C 0.09059 0.33250 0.02785
 N407 N 0.09340 0.29749 0.00503
 N408 N 0.10719 0.26241 0.02118
 C409 C 0.11929 0.25996 0.06128
 H410 H 0.10597 0.39218 0.15706
 H411 H 0.13335 0.32853 0.18625
 H412 H 0.07806 0.35965 0.01320
 H413 H 0.12911 0.23034 0.07286
 C414 C -0.13749 0.36474 -0.10339
 C415 C -0.15665 0.32949 -0.11853
 C416 C -0.13392 0.29846 -0.13827
 C417 C -0.09054 0.30327 -0.14231
 C418 C -0.07159 0.34104 -0.13069
 C419 C -0.09524 0.37153 -0.10932
 C420 C -0.02949 0.34590 -0.14034
 N421 N -0.00778 0.31442 -0.15735
 N422 N -0.02479 0.27796 -0.16467
 C423 C -0.06510 0.27107 -0.15692
 H424 H -0.15628 0.38751 -0.08761
 H425 H -0.18970 0.32669 -0.11505
 H426 H -0.01279 0.37370 -0.13447
 H427 H -0.07664 0.24032 -0.16203
 C428 C 0.08169 0.66608 -0.11380
 C429 C 0.09783 0.70235 -0.12962
 C430 C 0.14015 0.70614 -0.13697
 C431 C 0.16661 0.67204 -0.12943
 C432 C 0.15022 0.63523 -0.11284
 C433 C 0.10745 0.63269 -0.10442
 C434 C 0.17712 0.60162 -0.10677
 N435 N 0.21757 0.60501 -0.11642
 N436 N 0.23291 0.63949 -0.13212
 C437 C 0.20885 0.67296 -0.13921
 H438 H 0.04888 0.66441 -0.10792
 H439 H 0.07716 0.72793 -0.13572
 H440 H 0.16643 0.57240 -0.09531
 H441 H 0.22294 0.69960 -0.15306
 C442 C -0.08526 0.65723 0.12006
 C443 C -0.10360 0.69121 0.13876
 C444 C -0.14625 0.69269 0.14512
 C445 C -0.17065 0.65824 0.13362
 C446 C -0.15194 0.62388 0.11370
 C447 C -0.10889 0.62400 0.10622
 C448 C -0.17686 0.58990 0.10353
 N449 N -0.21762 0.59057 0.11257
 N450 N -0.23508 0.62265 0.13146
 C451 C -0.21301 0.65631 0.14254
 H452 H -0.05232 0.65730 0.11538
 H453 H -0.08434 0.71700 0.14762
 H454 H -0.16439 0.56242 0.08936
 H455 H -0.22871 0.68080 0.15891
 C456 C 1.08434 0.13259 0.65480
 C457 C 1.09629 0.14671 0.69374
 C458 C 1.11100 0.11948 0.72425
 C459 C 1.10899 0.07629 0.71588
 C460 C 1.09671 0.06193 0.67595
 C461 C 1.08610 0.09070 0.64463
 C462 C 1.09349 0.01910 0.66956
 N463 N 1.10189 -0.00733 0.70082
 N464 N 1.11256 0.00604 0.73831
 C465 C 1.11585 0.04675 0.74703
 H466 H 1.07514 0.15499 0.63175
 H467 H 1.09683 0.17971 0.69868
 H468 H 1.08301 0.00613 0.64065
 H469 H 1.12247 0.05554 0.77863
 C470 C 0.86370 -0.09562 0.64043
 C471 C 0.84698 -0.11188 0.67634
 C472 C 0.87220 -0.12357 0.70989
 C473 C 0.91525 -0.11503 0.70782
 C474 C 0.93217 -0.09826 0.67103
 C475 C 0.90618 -0.09001 0.63664
 C476 C 0.97430 -0.08808 0.67078
 N477 N 0.99771 -0.09403 0.70507
 N478 N 0.98188 -0.10908 0.73971
 C479 C 0.94156 -0.11938 0.74241
 H480 H 0.84329 -0.08862 0.61476
 H481 H 0.81409 -0.11750 0.67677
 H482 H 0.98873 -0.07427 0.64423
 H483 H 0.93034 -0.12938 0.77210
 C484 C 1.12818 -0.08415 0.34565
 C485 C 1.14636 -0.10288 0.31148
 C486 C 1.15018 -0.14583 0.30891
 C487 C 1.13687 -0.17018 0.34266
 C488 C 1.11751 -0.15105 0.37720
 C489 C 1.11218 -0.10761 0.37795
 C490 C 1.10582 -0.17608 0.41058
 N491 N 1.11271 -0.21726 0.40913
 N492 N 1.13094 -0.23511 0.37687
 C493 C 1.14351 -0.21302 0.34380
 H494 H 1.12559 -0.05096 0.34638
 H495 H 1.15685 -0.08361 0.28638
 H496 H 1.09229 -0.16344 0.43833
 H497 H 1.15931 -0.22915 0.31920
 C498 C 0.87638 0.08824 0.34273
 C499 C 0.85885 0.10575 0.30760
 C500 C 0.85823 0.14870 0.30185
 C501 C 0.87292 0.17438 0.33466
 C502 C 0.89090 0.15632 0.37060
 C503 C 0.89378 0.11276 0.37382
 C504 C 0.90335 0.18263 0.40309
 N505 N 0.89806 0.22389 0.39985
 N506 N 0.88046 0.24072 0.36674
 C507 C 0.86723 0.21749 0.33445
 H508 H 0.87761 0.05497 0.34491
 H509 H 0.84778 0.08512 0.28360
 H510 H 0.91587 0.17109 0.43174
 H511 H 0.85110 0.23301 0.30972
 C512 C 0.13646 0.35803 -0.10674
 C513 C 0.15033 0.31967 -0.12025
 C514 C 0.12433 0.28508 -0.12001
 C515 C 0.08441 0.28914 -0.10218
 C516 C 0.07078 0.32825 -0.08759
 C517 C 0.09649 0.36307 -0.09170
 C518 C 0.03270 0.33080 -0.06706
 N519 N 0.00986 0.29642 -0.06155
 N520 N 0.02255 0.25975 -0.07507
 C521 C 0.05893 0.25489 -0.09505
 H522 H 0.15688 0.38425 -0.10890
 H523 H 0.18112 0.31756 -0.13297
 H524 H 0.02118 0.35962 -0.05474
 H525 H 0.06812 0.22406 -0.10379
 C526 C -0.13212 0.36182 0.09912
 C527 C -0.14850 0.32608 0.11579
 C528 C -0.12330 0.29208 0.12492
 C529 C -0.08058 0.29401 0.11567
 C530 C -0.06373 0.33081 0.09925
 C531 C -0.08985 0.36513 0.09162
 C532 C -0.02145 0.33137 0.08964
 N533 N 0.00215 0.29746 0.09626
 N534 N -0.01368 0.26294 0.11141
 C535 C -0.05418 0.25995 0.12107
 H536 H -0.15253 0.38764 0.09310
 H537 H -0.18119 0.32529 0.12246
 H538 H -0.00699 0.35802 0.07621
 H539 H -0.06539 0.23075 0.13216
 C540 C -0.07700 0.66295 -0.12107
 C541 C -0.09370 0.69842 -0.13859
 C542 C -0.13650 0.70292 -0.14454
 C543 C -0.16236 0.66865 -0.13529
 C544 C -0.14521 0.63272 -0.11671
 C545 C -0.10223 0.63049 -0.10870
 C546 C -0.17149 0.59922 -0.10894
 N547 N -0.21183 0.60127 -0.11968
 N548 N -0.22762 0.63418 -0.13837
 C549 C -0.20430 0.66750 -0.14708
 H550 H -0.04400 0.66144 -0.11590
 H551 H -0.07287 0.72344 -0.14543
 H552 H -0.16038 0.57084 -0.09566
 H553 H -0.21864 0.69204 -0.16444
 C554 C 0.14273 0.64243 0.09972
 C555 C 0.16102 0.67741 0.11648
 C556 C 0.13718 0.71117 0.12996
 C557 C 0.09377 0.71030 0.12267
 C558 C 0.07519 0.67435 0.10557
 C559 C 0.09994 0.63969 0.09539
 C560 C 0.03265 0.67526 0.09701
 N561 N 0.01038 0.70983 0.10467
 N562 N 0.02776 0.74373 0.11982
 C563 C 0.06859 0.74532 0.12861
 H564 H 0.16226 0.61661 0.09122
 H565 H 0.19411 0.67684 0.12114
 H566 H 0.01697 0.64941 0.08308
 H567 H 0.08104 0.77448 0.13871
 C568 C 0.33309 1.10743 0.92357
 C569 C 0.29555 1.12168 0.90817
 C570 C 0.29046 1.13039 0.86600
 C571 C 0.32444 1.12523 0.83891
 C572 C 0.36257 1.11009 0.85454
 C573 C 0.36662 1.10088 0.89724
 C574 C 0.39590 1.10632 0.82701
 N575 N 0.39112 1.11682 0.78672
 N576 N 0.35548 1.13125 0.77215
 C577 C 0.32213 1.13609 0.79684
 H578 H 0.33574 1.10069 0.95629
 H579 H 0.27006 1.12574 0.92937
 H580 H 0.42594 1.09595 0.83709
 H581 H 0.29447 1.14901 0.78337
 C582 C 0.35005 0.91471 1.12683
 C583 C 0.31618 0.89600 1.14492
 C584 C 0.31425 0.85309 1.14890
 C585 C 0.34833 0.82878 1.13586
 C586 C 0.38253 0.84788 1.11652
 C587 C 0.38266 0.89124 1.11106
 C588 C 0.41617 0.82292 1.10491
 N589 N 0.41532 0.78182 1.11197
 N590 N 0.38339 0.76400 1.13026
 C591 C 0.35008 0.78604 1.14270
 H592 H 0.35025 0.94786 1.12403
 H593 H 0.29078 0.91524 1.15510
 H594 H 0.44361 0.83558 1.09127
 H595 H 0.32576 0.76997 1.15856
 C596 C 0.65904 1.08749 1.11750
 C597 C 0.69557 1.10408 1.13265
 C598 C 0.70048 1.14675 1.13656
 C599 C 0.66703 1.17313 1.12599
 C600 C 0.63005 1.15612 1.10958
 C601 C 0.62654 1.11280 1.10466
 C602 C 0.59717 1.18309 1.10052
 N603 N 0.60128 1.22410 1.10719
 N604 N 0.63577 1.23999 1.12280
 C605 C 0.66857 1.21597 1.13273
 H606 H 0.65638 1.05448 1.11497
 H607 H 0.72041 1.08333 1.14113
 H608 H 0.56784 1.17214 1.08924
 H609 H 0.69509 1.23064 1.14656
 C610 C 0.66546 0.92306 0.88931
 C611 C 0.70093 0.90563 0.87245
 C612 C 0.70172 0.86428 0.85972
 C613 C 0.66533 0.84038 0.86304
 C614 C 0.62947 0.85793 0.88110
 C615 C 0.62992 0.89950 0.89464
 C616 C 0.59380 0.83358 0.88359
 N617 N 0.59416 0.79446 0.86880
 N618 N 0.62758 0.77817 0.85135
 C619 C 0.66301 0.79980 0.84770
 H620 H 0.66609 0.95497 0.89923
 H621 H 0.72825 0.92449 0.86981
 H622 H 0.56540 0.84537 0.89645
 H623 H 0.68865 0.78522 0.83219
   
