data_POSCAR
  _audit_creation_date              2014-09-24
  _audit_creation_method            'ToBaCCo'
  _symmetry_space_group_name_H-M    'P1'
  _symmetry_Int_Tables_number       1
  _symmetry_cell_setting            triclinic
  loop_
  _symmetry_equiv_pos_as_xyz
 x,y,z
_cell_length_a 43.8693
_cell_length_b 45.4903
_cell_length_c 46.3116
_cell_angle_alpha 90.001900
_cell_angle_beta 89.793600
_cell_angle_gamma 89.806900
loop_
  _atom_site_label
  _atom_site_type_symbol
  _atom_site_fract_x
  _atom_site_fract_y
  _atom_site_fract_z
C1 C 0.26858 0.38214 0.00479
 C2 C 0.27869 0.36993 0.03061
 C3 C 0.30448 0.35195 0.03069
 C4 C 0.32112 0.34665 0.00494
 C5 C 0.31163 0.36125 -0.02070
 C6 C 0.28450 0.37810 -0.02131
 C7 C 0.34617 0.32387 0.00450
 C8 C 0.35385 0.30899 -0.02144
 C9 C 0.37368 0.28460 -0.02143
 C10 C 0.38485 0.27450 0.00516
 C11 C 0.37878 0.28932 0.03095
 C12 C 0.36043 0.31460 0.03042
 H13 H 0.24842 0.39597 0.00558
 H14 H 0.31029 0.34133 0.05078
 H15 H 0.32451 0.35844 -0.04035
 H16 H 0.34272 0.31472 -0.04139
 H17 H 0.39985 0.25553 0.00588
 H18 H 0.35653 0.32607 0.05052
 C19 C 0.73667 0.61666 -0.00966
 C20 C 0.72419 0.62298 0.01739
 C21 C 0.69899 0.64179 0.01935
 C22 C 0.68821 0.65718 -0.00526
 C23 C 0.70179 0.65063 -0.03243
 C24 C 0.72565 0.63016 -0.03458
 C25 C 0.66524 0.68171 -0.00202
 C26 C 0.64907 0.69293 -0.02619
 C27 C 0.63094 0.71859 -0.02391
 C28 C 0.62730 0.73130 0.00356
 C29 C 0.64150 0.71980 0.02785
 C30 C 0.66080 0.69557 0.02511
 H31 H 0.75560 0.60134 -0.01129
 H32 H 0.68906 0.64510 0.04046
 H33 H 0.69528 0.66213 -0.05186
 H34 H 0.65146 0.68235 -0.04685
 H35 H 0.61258 0.75025 0.00663
 H36 H 0.67290 0.68873 0.04421
 C37 C 0.72051 0.39223 1.00479
 C38 C 0.71207 0.37986 0.97842
 C39 C 0.68731 0.36055 0.97740
 C40 C 0.67039 0.35383 1.00269
 C41 C 0.67843 0.36823 1.02875
 C42 C 0.70423 0.38628 1.03007
 C43 C 0.64693 0.32974 1.00251
 C44 C 0.63979 0.31437 1.02827
 C45 C 0.62114 0.28929 1.02806
 C46 C 0.61084 0.27879 1.00133
 C47 C 0.61652 0.29399 0.97565
 C48 C 0.63363 0.31996 0.97640
 H49 H 0.73999 0.40682 1.00565
 H50 H 0.68271 0.34982 0.95709
 H51 H 0.66572 0.36468 1.04843
 H52 H 0.65051 0.32033 1.04832
 H53 H 0.59686 0.25921 1.00040
 H54 H 0.63731 0.33162 0.95638
 C55 C 0.28610 0.60449 0.99760
 C56 C 0.30110 0.61101 0.97180
 C57 C 0.32613 0.63001 0.97200
 C58 C 0.33469 0.64488 0.99764
 C59 C 0.31909 0.63754 1.02359
 C60 C 0.29534 0.61692 1.02371
 C61 C 0.35746 0.66973 0.99679
 C62 C 0.37080 0.68076 1.02249
 C63 C 0.38764 0.70719 1.02253
 C64 C 0.39301 0.72110 0.99588
 C65 C 0.38254 0.70931 0.96998
 C66 C 0.36435 0.68418 0.97046
 H67 H 0.26708 0.58932 0.99728
 H68 H 0.33769 0.63381 0.95175
 H69 H 0.32389 0.64862 1.04365
 H70 H 0.36702 0.66950 1.04259
 H71 H 0.40677 0.74083 0.99483
 H72 H 0.35484 0.67716 0.95017
 C73 C -0.00555 0.29348 0.40076
 C74 C 0.02293 0.30580 0.39513
 C75 C 0.02481 0.33151 0.37849
 C76 C -0.00156 0.34377 0.36528
 C77 C -0.03013 0.33069 0.37186
 C78 C -0.03212 0.30600 0.38979
 C79 C 0.00095 0.36765 0.34259
 C80 C -0.02547 0.38185 0.33147
 C81 C -0.02422 0.39890 0.30602
 C82 C 0.00450 0.40418 0.29363
 C83 C 0.03114 0.39298 0.30567
 C84 C 0.02944 0.37446 0.32967
 H85 H -0.00708 0.27392 0.41408
 H86 H 0.04715 0.34071 0.37518
 H87 H -0.05109 0.33813 0.36223
 H88 H -0.04727 0.37847 0.34149
 H89 H 0.00658 0.41799 0.27463
 H90 H 0.05051 0.36467 0.33679
 C91 C -0.00328 0.69862 0.59211
 C92 C 0.02447 0.68518 0.59855
 C93 C 0.02490 0.66022 0.61624
 C94 C -0.00208 0.65024 0.63013
 C95 C -0.03003 0.66423 0.62274
 C96 C -0.03062 0.68802 0.60347
 C97 C -0.00050 0.62809 0.65445
 C98 C -0.02722 0.61450 0.66560
 C99 C -0.02665 0.59862 0.69184
 C100 C 0.00167 0.59434 0.70535
 C101 C 0.02859 0.60528 0.69361
 C102 C 0.02750 0.62247 0.66869
 H103 H -0.00354 0.71776 0.57814
 H104 H 0.04671 0.64996 0.62001
 H105 H -0.05130 0.65828 0.63289
 H106 H -0.04865 0.61746 0.65476
 H107 H 0.00327 0.58142 0.72496
 H108 H 0.04862 0.63232 0.66180
 C109 C 1.00117 0.73612 0.37520
 C110 C 0.97313 0.72722 0.36429
 C111 C 0.97137 0.70116 0.34854
 C112 C 0.99745 0.68319 0.34434
 C113 C 1.02514 0.69155 0.35775
 C114 C 1.02749 0.71860 0.37249
 C115 C 0.99601 0.65732 0.32422
 C116 C 1.02219 0.64795 0.30860
 C117 C 1.02001 0.62688 0.28629
 C118 C 0.99088 0.61642 0.27914
 C119 C 0.96503 0.62456 0.29483
 C120 C 0.96775 0.64387 0.31807
 H121 H 1.00181 0.75623 0.38774
 H122 H 0.94970 0.69586 0.33887
 H123 H 1.04505 0.67770 0.35565
 H124 H 1.04377 0.65857 0.31227
 H125 H 0.98797 0.60091 0.26159
 H126 H 0.94740 0.64928 0.33020
 C127 C 1.00273 0.27959 0.60606
 C128 C 0.97517 0.29375 0.61204
 C129 C 0.97476 0.31706 0.63185
 C130 C 1.00124 0.32461 0.64776
 C131 C 1.02892 0.30994 0.64085
 C132 C 1.02967 0.28781 0.61977
 C133 C 0.99923 0.34551 0.67299
 C134 C 1.02557 0.35916 0.68467
 C135 C 1.02401 0.37542 0.71069
 C136 C 0.99521 0.37946 0.72359
 C137 C 0.96871 0.36821 0.71140
 C138 C 0.97084 0.35063 0.68679
 H139 H 1.00330 0.26198 0.59027
 H140 H 0.95338 0.32828 0.63540
 H141 H 1.04969 0.31432 0.65251
 H142 H 1.04730 0.35628 0.67414
 H143 H 0.99286 0.39302 0.74272
 H144 H 0.95014 0.34041 0.67939
 C145 C 0.39924 -0.00012 0.28221
 C146 C 0.39341 0.02497 0.29863
 C147 C 0.37590 0.02287 0.32370
 C148 C 0.36124 -0.00372 0.33107
 C149 C 0.36846 -0.02927 0.31474
 C150 C 0.38835 -0.02793 0.29063
 C151 C 0.33654 -0.00384 0.35376
 C152 C 0.32674 -0.03024 0.36717
 C153 C 0.30109 -0.03030 0.38549
 C154 C 0.28637 -0.00373 0.39182
 C155 C 0.29630 0.02272 0.38001
 C156 C 0.32084 0.02259 0.36069
 H157 H 0.41348 0.00226 0.26318
 H158 H 0.37273 0.04257 0.33641
 H159 H 0.35717 -0.04970 0.31953
 H160 H 0.33819 -0.05086 0.36294
 H161 H 0.26708 -0.00354 0.40654
 H162 H 0.32636 0.04316 0.35032
 C163 C 0.61709 0.01029 0.72473
 C164 C 0.62302 0.03523 0.70813
 C165 C 0.64061 0.03278 0.68305
 C166 C 0.65440 0.00568 0.67550
 C167 C 0.64688 -0.01960 0.69203
 C168 C 0.62757 -0.01767 0.71639
 C169 C 0.67838 0.00433 0.65222
 C170 C 0.68649 -0.02273 0.63903
 C171 C 0.71188 -0.02462 0.62063
 C172 C 0.72793 0.00086 0.61363
 C173 C 0.71974 0.02809 0.62520
 C174 C 0.69524 0.02979 0.64460
 H175 H 0.60276 0.01284 0.74370
 H176 H 0.64425 0.05237 0.67030
 H177 H 0.65763 -0.04042 0.68737
 H178 H 0.67393 -0.04260 0.64353
 H179 H 0.74690 -0.00047 0.59861
 H180 H 0.69063 0.05085 0.65450
 C181 C 0.40200 1.00466 0.71044
 C182 C 0.39801 0.97753 0.69709
 C183 C 0.38103 0.97581 0.67168
 C184 C 0.36496 1.00068 0.66108
 C185 C 0.36978 1.02814 0.67503
 C186 C 0.38866 1.03012 0.69936
 C187 C 0.34095 0.99715 0.63806
 C188 C 0.32832 1.02184 0.62356
 C189 C 0.30212 1.01911 0.60607
 C190 C 0.29041 0.99076 0.60138
 C191 C 0.30374 0.96593 0.61358
 C192 C 0.32839 0.96909 0.63221
 H193 H 0.41570 1.00590 0.72986
 H194 H 0.37941 0.95458 0.66145
 H195 H 0.35792 1.04783 0.66846
 H196 H 0.33795 1.04326 0.62694
 H197 H 0.27098 0.98751 0.58733
 H198 H 0.33627 0.94943 0.64287
 C199 C 0.61467 0.98604 0.27623
 C200 C 0.62234 0.96246 0.29387
 C201 C 0.63752 0.96744 0.31973
 C202 C 0.64418 0.99637 0.32917
 C203 C 0.63390 1.02020 0.31172
 C204 C 0.62061 1.01519 0.28439
 C205 C 0.66411 1.00111 0.35538
 C206 C 0.67937 1.02819 0.36000
 C207 C 0.70178 1.03070 0.38137
 C208 C 0.70986 1.00614 0.39772
 C209 C 0.69521 0.97930 0.39392
 C210 C 0.67122 0.97735 0.37417
 H211 H 0.60211 0.98128 0.25670
 H212 H 0.64480 0.94814 0.33129
 H213 H 0.63728 1.04266 0.31844
 H214 H 0.67554 1.04704 0.34633
 H215 H 0.72837 1.00778 0.41311
 H216 H 0.65980 0.95649 0.37272
 O217 O 0.86241 0.82176 0.46700
 O218 O 0.83071 0.86446 0.52692
 O219 O 0.86855 0.82148 0.52275
 O220 O 0.82656 0.86648 0.47166
 O221 O 0.78690 0.83686 0.47421
 O222 O 0.83039 0.79017 0.52623
 O223 O 0.79134 0.83447 0.52992
 O224 O 0.82405 0.79058 0.46990
 Cu225 Cu 0.85094 0.84643 0.49675
 Cu226 Cu 0.80428 0.80976 0.50024
 C227 C 0.84895 0.79876 0.45837
 C228 C 0.80548 0.85721 0.53834
 C229 C 0.85704 0.79840 0.53342
 C230 C 0.79953 0.86007 0.46458
 O231 O 0.12220 0.16582 0.46987
 O232 O 0.16421 0.11825 0.51890
 O233 O 0.12455 0.15976 0.52545
 O234 O 0.16104 0.12369 0.46406
 O235 O 0.19922 0.15512 0.46567
 O236 O 0.16098 0.19305 0.52718
 O237 O 0.20175 0.15029 0.52149
 O238 O 0.15897 0.19880 0.47099
 Cu239 Cu 0.13923 0.13884 0.49447
 Cu240 Cu 0.18398 0.17774 0.49646
 C241 C 0.13308 0.19034 0.46200
 C242 C 0.19028 0.12554 0.52815
 C243 C 0.13605 0.18257 0.53671
 C244 C 0.18669 0.13246 0.45486
 O245 O 0.13285 0.82183 0.53143
 O246 O 0.17461 0.86724 0.48019
 O247 O 0.13302 0.82843 0.47633
 O248 O 0.17409 0.86165 0.53575
 O249 O 0.21047 0.82819 0.53218
 O250 O 0.16753 0.79330 0.47181
 O251 O 0.21055 0.83342 0.47582
 O252 O 0.16748 0.78671 0.52778
 Cu253 Cu 0.15024 0.84817 0.50643
 Cu254 Cu 0.19273 0.80686 0.50174
 C255 C 0.14242 0.79638 0.53799
 C256 C 0.19938 0.85829 0.46897
 C257 C 0.14278 0.80545 0.46385
 C258 C 0.19939 0.85118 0.54396
 O259 O 0.80721 0.14370 0.46735
 O260 O 0.85761 0.17667 0.52078
 O261 O 0.81130 0.14208 0.52328
 O262 O 0.85368 0.17826 0.46545
 O263 O 0.82358 0.21714 0.46840
 O264 O 0.77991 0.17999 0.52669
 O265 O 0.82759 0.21555 0.52430
 O266 O 0.77571 0.18153 0.47058
 Cu267 Cu 0.83537 0.15634 0.49387
 Cu268 Cu 0.79849 0.20245 0.49776
 C269 C 0.78276 0.15658 0.46005
 C270 C 0.85173 0.20179 0.53136
 C271 C 0.78835 0.15452 0.53476
 C272 C 0.84653 0.20404 0.45746
 O273 O 0.47112 0.88032 0.83470
 O274 O 0.52674 0.84406 0.88085
 O275 O 0.52889 0.88494 0.84202
 O276 O 0.46848 0.84180 0.87495
 O277 O 0.47490 0.80651 0.84276
 O278 O 0.53638 0.85133 0.80837
 O279 O 0.53416 0.80933 0.84829
 O280 O 0.47789 0.84653 0.80102
 Cu281 Cu 0.49827 0.86612 0.86140
 Cu282 Cu 0.50656 0.82483 0.82178
 C283 C 0.46524 0.87004 0.80989
 C284 C 0.53963 0.82037 0.87292
 C285 C 0.54244 0.87632 0.81932
 C286 C 0.46133 0.81686 0.86494
 O287 O 0.53296 0.16390 0.13545
 O288 O 0.47348 0.13150 0.17948
 O289 O 0.47447 0.16729 0.13686
 O290 O 0.53219 0.13069 0.18103
 O291 O 0.53396 0.16879 0.21049
 O292 O 0.47533 0.20600 0.16558
 O293 O 0.47467 0.16893 0.20987
 O294 O 0.53470 0.20298 0.16359
 Cu295 Cu 0.50334 0.14459 0.15539
 Cu296 Cu 0.50492 0.19062 0.19036
 C297 C 0.54334 0.18918 0.14104
 C298 C 0.46397 0.14417 0.20212
 C299 C 0.46507 0.19288 0.14342
 C300 C 0.54241 0.14297 0.20362
 O301 O 0.47056 0.16316 0.87335
 O302 O 0.53029 0.13250 0.82789
 O303 O 0.52867 0.16809 0.87054
 O304 O 0.47134 0.12783 0.82984
 O305 O 0.46655 0.16456 0.79903
 O306 O 0.52409 0.20623 0.84138
 O307 O 0.52604 0.16935 0.79709
 O308 O 0.46495 0.20093 0.84394
 Cu309 Cu 0.50055 0.14411 0.85322
 Cu310 Cu 0.49484 0.18906 0.81721
 C311 C 0.45799 0.18745 0.86712
 C312 C 0.53867 0.14548 0.80503
 C313 C 0.53605 0.19402 0.86334
 C314 C 0.45925 0.13894 0.80750
 O315 O 0.48431 0.82712 0.12776
 O316 O 0.54378 0.85716 0.17331
 O317 O 0.54158 0.81671 0.13567
 O318 O 0.48642 0.86776 0.16745
 O319 O 0.47426 0.83539 0.20098
 O320 O 0.53079 0.78357 0.16903
 O321 O 0.53258 0.82567 0.20804
 O322 O 0.47312 0.79349 0.16041
 Cu323 Cu 0.51478 0.84545 0.14768
 Cu324 Cu 0.50132 0.80625 0.18808
 C325 C 0.46925 0.80473 0.13552
 C326 C 0.54854 0.84679 0.19826
 C327 C 0.54578 0.79157 0.14683
 C328 C 0.47147 0.86086 0.18995
 O329 O 0.81149 0.46963 0.86072
 O330 O 0.86119 0.51923 0.82105
 O331 O 0.81524 0.52635 0.85565
 O332 O 0.85703 0.46333 0.82657
 O333 O 0.82663 0.46199 0.78869
 O334 O 0.78281 0.52474 0.81932
 O335 O 0.83035 0.51889 0.78355
 O336 O 0.77961 0.46767 0.82397
 Cu337 Cu 0.83921 0.49495 0.84471
 Cu338 Cu 0.80159 0.49333 0.80009
 C339 C 0.78727 0.45998 0.84936
 C340 C 0.85504 0.52702 0.79544
 C341 C 0.79161 0.53594 0.84302
 C342 C 0.84947 0.45213 0.80257
 O343 O 0.17556 0.46941 0.13525
 O344 O 0.12403 0.52437 0.16604
 O345 O 0.16663 0.52516 0.12697
 O346 O 0.13224 0.46876 0.17224
 O347 O 0.16467 0.47824 0.20735
 O348 O 0.20113 0.53462 0.16022
 O349 O 0.15737 0.53480 0.20006
 O350 O 0.20953 0.47852 0.16915
 Cu351 Cu 0.14637 0.49619 0.14668
 Cu352 Cu 0.18660 0.50760 0.18767
 C353 C 0.20122 0.46445 0.14682
 C354 C 0.13138 0.53855 0.18855
 C355 C 0.18993 0.53917 0.13529
 C356 C 0.14213 0.46386 0.19747
 O357 O 0.81753 0.53120 0.13823
 O358 O 0.86722 0.48136 0.17713
 O359 O 0.82565 0.47521 0.13817
 O360 O 0.85809 0.53715 0.17713
 O361 O 0.82423 0.53202 0.21217
 O362 O 0.78940 0.47060 0.17104
 O363 O 0.83275 0.47533 0.21140
 O364 O 0.78183 0.52726 0.17176
 Cu365 Cu 0.84557 0.50655 0.15434
 Cu366 Cu 0.80345 0.50065 0.19512
 C367 C 0.79136 0.53779 0.14792
 C368 C 0.85918 0.47026 0.20105
 C369 C 0.80157 0.46290 0.14724
 C370 C 0.84719 0.54502 0.20133
 O371 O 0.12322 0.47607 0.83265
 O372 O 0.16805 0.53210 0.86878
 O373 O 0.12824 0.53228 0.82851
 O374 O 0.16291 0.47610 0.87362
 O375 O 0.20022 0.46927 0.84225
 O376 O 0.16413 0.52639 0.79547
 O377 O 0.20560 0.52613 0.83744
 O378 O 0.15920 0.46922 0.79993
 Cu379 Cu 0.14201 0.50464 0.85401
 Cu380 Cu 0.18604 0.49714 0.81542
 C381 C 0.13294 0.46328 0.81008
 C382 C 0.19449 0.53856 0.85976
 C383 C 0.13979 0.53890 0.80427
 C384 C 0.18754 0.46341 0.86633
 C385 C 0.25801 0.40858 0.09794
 C386 C 0.22620 0.40542 0.09759
 N387 N 0.21309 0.38701 0.07831
 C388 C 0.23024 0.37250 0.05843
 C389 C 0.26186 0.37725 0.05723
 N390 N 0.27514 0.39476 0.07747
 N391 N 0.27087 0.42767 0.11689
 C392 C 0.25327 0.44444 0.13481
 C393 C 0.22135 0.44272 0.13296
 N394 N 0.20873 0.42279 0.11470
 H395 H 0.21910 0.35902 0.04238
 H396 H 0.26402 0.46019 0.14898
 C397 C 0.73976 0.58643 0.08796
 C398 C 0.77172 0.58748 0.08836
 N399 N 0.78704 0.60162 0.06714
 C400 C 0.77191 0.61418 0.04490
 C401 C 0.73997 0.61209 0.04342
 N402 N 0.72445 0.59873 0.06540
 N403 N 0.72485 0.57166 0.10931
 C404 C 0.74055 0.55729 0.13050
 C405 C 0.77260 0.55724 0.12989
 N406 N 0.78716 0.57277 0.10898
 H407 H 0.78479 0.62520 0.02813
 H408 H 0.72823 0.54485 0.14666
 C409 C 0.73324 0.41043 0.90679
 C410 C 0.76510 0.41122 0.90924
 N411 N 0.77887 0.39872 0.93233
 C412 C 0.76217 0.38632 0.95376
 C413 C 0.73016 0.38705 0.95244
 N414 N 0.71637 0.39859 0.92859
 N415 N 0.71971 0.42352 0.88369
 C416 C 0.73658 0.43804 0.86343
 C417 C 0.76832 0.44023 0.86691
 N418 N 0.78168 0.42631 0.88957
 H419 H 0.77373 0.37717 0.97233
 H420 H 0.72521 0.44904 0.84575
 C421 C 0.24271 0.59136 0.91818
 C422 C 0.25879 0.57282 0.89923
 N423 N 0.28937 0.56923 0.90280
 C424 C 0.30434 0.58277 0.92489
 C425 C 0.28778 0.59999 0.94472
 N426 N 0.25743 0.60410 0.94049
 N427 N 0.21222 0.59481 0.91525
 C428 C 0.19672 0.57973 0.89483
 C429 C 0.21225 0.55974 0.87681
 N430 N 0.24318 0.55713 0.87907
 H431 H 0.32850 0.57895 0.92781
 H432 H 0.17222 0.58233 0.89357
 C433 C 0.07211 0.24282 0.41436
 C434 C 0.09606 0.25613 0.42944
 N435 N 0.09711 0.28600 0.43107
 C436 C 0.07491 0.30302 0.41886
 C437 C 0.05018 0.28947 0.40498
 N438 N 0.04985 0.25967 0.40283
 N439 N 0.07036 0.21316 0.41293
 C440 C 0.09103 0.19599 0.42664
 C441 C 0.11433 0.20899 0.44299
 N442 N 0.11664 0.23893 0.44365
 H443 H 0.07581 0.32667 0.42114
 H444 H 0.08861 0.17234 0.42557
 C445 C 0.07799 0.74561 0.58303
 C446 C 0.10112 0.73157 0.56714
 N447 N 0.10006 0.70187 0.56363
 C448 C 0.07657 0.68577 0.57477
 C449 C 0.05269 0.70019 0.58941
 N450 N 0.05440 0.72973 0.59343
 N451 N 0.07845 0.77515 0.58643
 C452 C 0.10049 0.79161 0.57385
 C453 C 0.12288 0.77802 0.55655
 N454 N 0.12299 0.74810 0.55397
 H455 H 0.07583 0.66229 0.57113
 H456 H 0.09976 0.81526 0.57637
 C457 C 0.90083 0.74754 0.40049
 C458 C 0.90328 0.77830 0.40078
 N459 N 0.92555 0.79156 0.38521
 C460 C 0.94645 0.77541 0.37040
 C461 C 0.94571 0.74454 0.37197
 N462 N 0.92234 0.73131 0.38642
 N463 N 0.87877 0.73441 0.41659
 C464 C 0.85977 0.75058 0.43374
 C465 C 0.86374 0.78118 0.43560
 N466 N 0.88511 0.79425 0.41859
 H467 H 0.96472 0.78654 0.35910
 H468 H 0.84313 0.73949 0.44712
 C469 C 0.92120 0.23955 0.58184
 C470 C 0.89753 0.25726 0.57125
 N471 N 0.89875 0.28686 0.57539
 C472 C 0.92279 0.29949 0.58928
 C473 C 0.94700 0.28173 0.59903
 N474 N 0.94520 0.25214 0.59519
 N475 N 0.92053 0.21011 0.57767
 C476 C 0.89752 0.19745 0.56275
 C477 C 0.87417 0.21504 0.55108
 N478 N 0.87453 0.24467 0.55593
 H479 H 0.92346 0.32313 0.59174
 H480 H 0.89795 0.17390 0.55940
 C481 C 0.40935 0.08490 0.24724
 C482 C 0.43059 0.10199 0.26237
 N483 N 0.43700 0.09520 0.29031
 C484 C 0.42378 0.07161 0.30346
 C485 C 0.40400 0.05355 0.28764
 N486 N 0.39697 0.06101 0.26004
 N487 N 0.40329 0.09095 0.21921
 C488 C 0.41847 0.11256 0.20513
 C489 C 0.44127 0.12845 0.21948
 N490 N 0.44643 0.12320 0.24805
 H491 H 0.42988 0.06610 0.32543
 H492 H 0.41420 0.11603 0.18236
 C493 C 0.60105 0.09290 0.75986
 C494 C 0.57859 0.10844 0.74454
 N495 N 0.57410 0.10219 0.71614
 C496 C 0.59028 0.08042 0.70272
 C497 C 0.61122 0.06363 0.71870
 N498 N 0.61639 0.07077 0.74674
 N499 N 0.60510 0.09812 0.78836
 C500 C 0.58687 0.11734 0.80267
 C501 C 0.56304 0.13159 0.78800
 N502 N 0.55979 0.12730 0.75902
 H503 H 0.58536 0.07496 0.68048
 H504 H 0.58985 0.12025 0.82570
 C505 C 0.41497 0.92766 0.75764
 C506 C 0.43390 0.90641 0.74480
 N507 N 0.43885 0.90734 0.71578
 C508 C 0.42630 0.92901 0.69922
 C509 C 0.40867 0.95111 0.71247
 N510 N 0.40317 0.94946 0.74131
 N511 N 0.41025 0.92740 0.78654
 C512 C 0.42446 0.90739 0.80351
 C513 C 0.44480 0.88700 0.79112
 N514 N 0.44865 0.88662 0.76186
 H515 H 0.43116 0.92977 0.67631
 H516 H 0.42092 0.90825 0.82664
 C517 C 0.60756 0.90128 0.24419
 C518 C 0.58463 0.88589 0.25905
 N519 N 0.57816 0.89318 0.28688
 C520 C 0.59267 0.91596 0.30005
 C521 C 0.61380 0.93277 0.28431
 N522 N 0.62113 0.92453 0.25695
 N523 N 0.61354 0.89491 0.21619
 C524 C 0.59665 0.87481 0.20182
 C525 C 0.57204 0.86104 0.21582
 N526 N 0.56706 0.86632 0.24444
 H527 H 0.58604 0.92232 0.32170
 H528 H 0.60114 0.87102 0.17912
 C529 C 0.40573 0.22713 0.93287
 C530 C 0.40874 0.24128 0.90617
 N531 N 0.39721 0.26888 0.90300
 C532 C 0.38361 0.28320 0.92557
 C533 C 0.38267 0.26973 0.95309
 N534 N 0.39340 0.24173 0.95544
 N535 N 0.41673 0.19957 0.93645
 C536 C 0.43164 0.18570 0.91472
 C537 C 0.43670 0.20038 0.88836
 N538 N 0.42463 0.22783 0.88451
 H539 H 0.37580 0.30552 0.92235
 H540 H 0.44070 0.16390 0.91859
 C541 C 0.59214 0.77598 0.93528
 C542 C 0.58710 0.76284 0.90844
 N543 N 0.59771 0.73510 0.90369
 C544 C 0.61282 0.71986 0.92471
 C545 C 0.61694 0.73276 0.95224
 N546 N 0.60649 0.76070 0.95615
 N547 N 0.58197 0.80357 0.94053
 C548 C 0.56628 0.81864 0.92021
 C549 C 0.56000 0.80536 0.89345
 N550 N 0.57087 0.77769 0.88804
 H551 H 0.62021 0.69772 0.92001
 H552 H 0.55812 0.84052 0.92529
 C553 C 0.41940 0.76386 0.06929
 C554 C 0.42440 0.74888 0.09524
 N555 N 0.41569 0.72030 0.09743
 C556 C 0.40262 0.70595 0.07473
 C557 C 0.39886 0.72066 0.04801
 N558 N 0.40723 0.74945 0.04662
 N559 N 0.42781 0.79232 0.06662
 C560 C 0.44194 0.80641 0.08855
 C561 C 0.44862 0.79120 0.11425
 N562 N 0.43925 0.76273 0.11717
 H563 H 0.39688 0.68306 0.07742
 H564 H 0.44895 0.82899 0.08544
 C565 C 0.59222 0.23082 0.07430
 C566 C 0.58863 0.24506 0.10092
 N567 N 0.59844 0.27322 0.10375
 C568 C 0.61098 0.28795 0.08097
 C569 C 0.61265 0.27426 0.05356
 N570 N 0.60348 0.24578 0.05146
 N571 N 0.58303 0.20266 0.07116
 C572 C 0.56941 0.18823 0.09324
 C573 C 0.56372 0.20290 0.11953
 N574 N 0.57393 0.23102 0.12291
 H575 H 0.61745 0.31064 0.08398
 H576 H 0.56174 0.16594 0.08969
 C577 C 0.24041 0.06050 0.57246
 C578 C 0.25292 0.08849 0.56870
 N579 N 0.28172 0.09366 0.57818
 C580 C 0.29859 0.07204 0.59106
 C581 C 0.28632 0.04343 0.59401
 N582 N 0.25732 0.03902 0.58458
 N583 N 0.21170 0.05488 0.56355
 C584 C 0.19487 0.07596 0.55046
 C585 C 0.20746 0.10396 0.54553
 N586 N 0.23632 0.10968 0.55499
 H587 H 0.32154 0.07716 0.59766
 H588 H 0.17212 0.07053 0.54327
 C589 C 0.72450 0.10263 0.41143
 C590 C 0.75629 0.10077 0.40828
 N591 N 0.76876 0.07854 0.39268
 C592 C 0.75098 0.05733 0.38099
 C593 C 0.71933 0.05787 0.38575
 N594 N 0.70670 0.08086 0.40051
 N595 N 0.71228 0.12465 0.42767
 C596 C 0.73045 0.14425 0.44167
 C597 C 0.76231 0.14104 0.44015
 N598 N 0.77431 0.11960 0.42302
 H599 H 0.76160 0.03908 0.36976
 H600 H 0.72017 0.16088 0.45533
 C601 C 0.76719 0.92036 0.59399
 C602 C 0.74841 0.89945 0.58077
 N603 N 0.71760 0.90223 0.58314
 C604 C 0.70479 0.92542 0.59747
 C605 C 0.72370 0.94715 0.60938
 N606 N 0.75445 0.94360 0.60766
 N607 N 0.79786 0.91835 0.59121
 C608 C 0.81076 0.89685 0.57496
 C609 C 0.79213 0.87664 0.56042
 N610 N 0.76127 0.87809 0.56409
 H611 H 0.68023 0.92765 0.59821
 H612 H 0.83531 0.89626 0.57253
 C613 C 0.24253 0.91932 0.41408
 C614 C 0.25989 0.89717 0.42729
 N615 N 0.29079 0.89760 0.42438
 C616 C 0.30505 0.91958 0.40949
 C617 C 0.28758 0.94249 0.39745
 N618 N 0.25671 0.94127 0.39979
 N619 N 0.21187 0.91972 0.41724
 C620 C 0.19760 0.89935 0.43371
 C621 C 0.21476 0.87768 0.44804
 N622 N 0.24565 0.87676 0.44413
 H623 H 0.32968 0.91994 0.40833
 H624 H 0.17308 0.90055 0.43616
 C625 C 0.06875 0.40999 0.76747
 C626 C 0.09618 0.41685 0.75357
 N627 N 0.10034 0.40813 0.72569
 C628 C 0.07808 0.39339 0.71103
 C629 C 0.04971 0.38788 0.72462
 N630 N 0.04655 0.39617 0.75273
 N631 N 0.06402 0.41826 0.79517
 C632 C 0.08525 0.43392 0.80959
 C633 C 0.11237 0.44232 0.79555
 N634 N 0.11745 0.43319 0.76778
 H635 H 0.08220 0.38765 0.68872
 H636 H 0.08045 0.44054 0.83160
 C637 C 0.06301 0.58875 0.22995
 C638 C 0.09278 0.58897 0.24069
 N639 N 0.09862 0.60371 0.26561
 C640 C 0.07592 0.61774 0.28052
 C641 C 0.04552 0.61618 0.27053
 N642 N 0.04044 0.60189 0.24515
 N643 N 0.05671 0.57435 0.20512
 C644 C 0.07880 0.55944 0.19071
 C645 C 0.10855 0.55825 0.20196
 N646 N 0.11494 0.57340 0.22668
 H647 H 0.08157 0.62832 0.30068
 H648 H 0.07281 0.54774 0.17120
 C649 C 0.92909 0.42785 0.24753
 C650 C 0.90062 0.43216 0.26061
 N651 N 0.89689 0.42445 0.28879
 C652 C 0.92040 0.41288 0.30445
 C653 C 0.94953 0.40959 0.29154
 N654 N 0.95248 0.41717 0.26322
 N655 N 0.93330 0.43495 0.21946
 C656 C 0.91042 0.44693 0.20383
 C657 C 0.88203 0.45277 0.21698
 N658 N 0.87764 0.44491 0.24519
 H659 H 0.91641 0.40771 0.32690
 H660 H 0.91482 0.45275 0.18154
 C661 C 0.92532 0.57001 0.74972
 C662 C 0.89764 0.56437 0.73591
 N663 N 0.89477 0.57129 0.70745
 C664 C 0.91842 0.58329 0.69221
 C665 C 0.94684 0.58782 0.70589
 N666 N 0.94888 0.58109 0.73448
 N667 N 0.92866 0.56375 0.77807
 C668 C 0.90568 0.55141 0.79334
 C669 C 0.87810 0.54433 0.77953
 N670 N 0.87459 0.55126 0.75098
 H671 H 0.91518 0.58779 0.66953
 H672 H 0.90940 0.54632 0.81588
 C673 C 0.74100 0.59390 0.89532
 C674 C 0.77299 0.59484 0.89481
 N675 N 0.78804 0.61123 0.91456
 C676 C 0.77265 0.62574 0.93567
 C677 C 0.74080 0.62300 0.93779
 N678 N 0.72559 0.60760 0.91710
 N679 N 0.72618 0.57691 0.87575
 C680 C 0.74193 0.56000 0.85645
 C681 C 0.77396 0.55924 0.85751
 N682 N 0.78860 0.57716 0.87640
 H683 H 0.78532 0.63759 0.95196
 H684 H 0.72959 0.54575 0.84192
 C685 C 0.22807 0.41181 0.93141
 C686 C 0.24477 0.41836 0.90646
 N687 N 0.27455 0.40993 0.90493
 C688 C 0.28840 0.39572 0.92742
 C689 C 0.27191 0.39049 0.95323
 N690 N 0.24199 0.39856 0.95384
 N691 N 0.19840 0.41968 0.93345
 C692 C 0.18464 0.43466 0.91187
 C693 C 0.20146 0.44283 0.88721
 N694 N 0.23125 0.43409 0.88485
 H695 H 0.31226 0.39011 0.92543
 H696 H 0.16099 0.44100 0.91449
 C697 C 0.23331 0.59016 0.07125
 C698 C 0.24893 0.58299 0.09670
 N699 N 0.27902 0.58974 0.09890
 C700 C 0.29430 0.60260 0.07653
 C701 C 0.27896 0.60836 0.05047
 N702 N 0.24866 0.60229 0.04885
 N703 N 0.20349 0.58312 0.06853
 C704 C 0.18865 0.56840 0.08978
 C705 C 0.20444 0.55975 0.11480
 N706 N 0.23425 0.56772 0.11789
 H707 H 0.31847 0.60678 0.07852
 H708 H 0.16500 0.56257 0.08663
 C709 C 0.76064 0.40966 0.08446
 C710 C 0.74247 0.42366 0.10535
 N711 N 0.71161 0.42326 0.10247
 C712 C 0.69821 0.41007 0.07930
 C713 C 0.71659 0.39734 0.05768
 N714 N 0.74736 0.39717 0.06122
 N715 N 0.79140 0.41043 0.08666
 C716 C 0.80502 0.42547 0.10831
 C717 C 0.78710 0.44092 0.12850
 N718 N 0.75608 0.43923 0.12684
 H719 H 0.67366 0.41073 0.07713
 H720 H 0.82966 0.42649 0.10897
 C721 C 0.91877 0.74980 0.58409
 C722 C 0.89403 0.73545 0.57117
 N723 N 0.89268 0.70557 0.57219
 C724 C 0.91541 0.68949 0.58472
 C725 C 0.94103 0.70392 0.59605
 N726 N 0.94163 0.73380 0.59579
 N727 N 0.92084 0.77944 0.58277
 C728 C 0.89984 0.79550 0.56825
 C729 C 0.87589 0.78130 0.55377
 N730 N 0.87316 0.75148 0.55603
 H731 H 0.91440 0.66572 0.58425
 H732 H 0.90256 0.81911 0.56706
 C733 C 0.91262 0.24764 0.40755
 C734 C 0.88870 0.26368 0.42026
 N735 N 0.88954 0.29356 0.41971
 C736 C 0.91369 0.30805 0.40784
 C737 C 0.93851 0.29189 0.39679
 N738 N 0.93698 0.26204 0.39656
 N739 N 0.91233 0.21789 0.40842
 C740 C 0.88975 0.20331 0.42238
 C741 C 0.86671 0.21920 0.43681
 N742 N 0.86641 0.24914 0.43490
 H743 H 0.91435 0.33182 0.40863
 H744 H 0.89067 0.17955 0.42337
 C745 C 0.07849 0.22670 0.59534
 C746 C 0.10312 0.24165 0.58274
 N747 N 0.10537 0.27125 0.58632
 C748 C 0.08351 0.28664 0.60097
 C749 C 0.05779 0.27185 0.61177
 N750 N 0.05638 0.24212 0.60909
 N751 N 0.07547 0.19737 0.59130
 C752 C 0.09532 0.18235 0.57428
 C753 C 0.11893 0.19741 0.56000
 N754 N 0.12270 0.22674 0.56509
 H755 H 0.08505 0.31034 0.60232
 H756 H 0.09178 0.15907 0.57087
 C757 C 0.08027 0.77042 0.40473
 C758 C 0.10310 0.75218 0.41594
 N759 N 0.10222 0.72286 0.41004
 C760 C 0.07905 0.71096 0.39422
 C761 C 0.05479 0.72914 0.38491
 N762 N 0.05691 0.75850 0.39008
 N763 N 0.08053 0.79960 0.41019
 C764 C 0.10207 0.81143 0.42742
 C765 C 0.12395 0.79316 0.44052
 N766 N 0.12442 0.76384 0.43400
 H767 H 0.07871 0.68745 0.39092
 H768 H 0.10122 0.83479 0.43186
 C769 C 0.59477 0.94016 0.77576
 C770 C 0.59188 0.91203 0.76381
 N771 N 0.60358 0.90681 0.73704
 C772 C 0.61729 0.92863 0.72146
 C773 C 0.61826 0.95755 0.73271
 N774 N 0.60727 0.96197 0.75992
 N775 N 0.58358 0.94579 0.80244
 C776 C 0.56865 0.92477 0.81755
 C777 C 0.56379 0.89692 0.80511
 N778 N 0.57601 0.89102 0.77852
 H779 H 0.62524 0.92368 0.69989
 H780 H 0.55947 0.93032 0.83859
 C781 C 0.42333 0.92875 0.23278
 C782 C 0.42287 0.90019 0.24399
 N783 N 0.40886 0.89533 0.26980
 C784 C 0.39585 0.91780 0.28511
 C785 C 0.39770 0.94696 0.27456
 N786 N 0.41121 0.95110 0.24832
 N787 N 0.43708 0.93405 0.20709
 C788 C 0.45114 0.91214 0.19227
 C789 C 0.45217 0.88356 0.20392
 N790 N 0.43761 0.87818 0.22953
 H791 H 0.38592 0.91288 0.30592
 H792 H 0.46236 0.91733 0.17207
 C793 C 0.59269 0.08664 0.25828
 C794 C 0.58885 0.08049 0.22884
 N795 N 0.59843 0.05450 0.21798
 C796 C 0.61044 0.03360 0.23538
 C797 C 0.61245 0.03842 0.26552
 N798 N 0.60449 0.06553 0.27601
 N799 N 0.58256 0.11285 0.26886
 C800 C 0.56806 0.13267 0.25146
 C801 C 0.56292 0.12568 0.22225
 N802 N 0.57397 0.09987 0.21176
 H803 H 0.61841 0.01346 0.22546
 H804 H 0.55934 0.15291 0.26063
 C805 C 0.40579 0.07950 0.76016
 C806 C 0.41900 0.10368 0.74613
 N807 N 0.41804 0.10516 0.71679
 C808 C 0.40550 0.08304 0.70089
 C809 C 0.39419 0.05793 0.71497
 N810 N 0.39413 0.05726 0.74433
 N811 N 0.40739 0.07720 0.78926
 C812 C 0.42261 0.09744 0.80506
 C813 C 0.43750 0.12084 0.79113
 N814 N 0.43480 0.12379 0.76190
 H815 H 0.40634 0.08409 0.67755
 H816 H 0.42418 0.09455 0.82821
 C817 C 0.60168 0.73677 0.09601
 C818 C 0.60729 0.76706 0.09802
 N819 N 0.62796 0.77975 0.08016
 C820 C 0.64237 0.76377 0.05944
 C821 C 0.63513 0.73394 0.05582
 N822 N 0.61532 0.72096 0.07462
 N823 N 0.58033 0.72440 0.11352
 C824 C 0.56360 0.74113 0.13221
 C825 C 0.56768 0.77176 0.13260
 N826 N 0.58988 0.78380 0.11581
 H827 H 0.65754 0.77472 0.04444
 H828 H 0.54597 0.73092 0.14513
 C829 C 0.40762 0.23359 0.08233
 C830 C 0.42233 0.25071 0.10322
 N831 N 0.42028 0.28054 0.10159
 C832 C 0.40481 0.29393 0.07965
 C833 C 0.39131 0.27668 0.05798
 N834 N 0.39281 0.24690 0.06033
 N835 N 0.40990 0.20391 0.08327
 C836 C 0.42694 0.19042 0.10375
 C837 C 0.44288 0.20734 0.12412
 N838 N 0.43982 0.23725 0.12364
 H839 H 0.40440 0.31768 0.07837
 H840 H 0.42872 0.16668 0.10356
 C841 C 0.59221 0.23766 0.92315
 C842 C 0.57516 0.25408 0.90324
 N843 N 0.57435 0.28389 0.90575
 C844 C 0.58917 0.29786 0.92768
 C845 C 0.60491 0.28117 0.94846
 N846 N 0.60629 0.25148 0.94522
 N847 N 0.59282 0.20797 0.92132
 C848 C 0.57639 0.19371 0.90097
 C849 C 0.55797 0.20979 0.88177
 N850 N 0.55818 0.23980 0.88303
 H851 H 0.58732 0.32149 0.92974
 H852 H 0.57690 0.16992 0.90049
 C853 C 0.40303 0.76912 0.91980
 C854 C 0.42056 0.75417 0.89900
 N855 N 0.42179 0.72430 0.89972
 C856 C 0.40718 0.70886 0.92086
 C857 C 0.39141 0.72403 0.94279
 N858 N 0.38939 0.75383 0.94131
 N859 N 0.40203 0.79886 0.91969
 C860 C 0.41870 0.81451 0.90042
 C861 C 0.43803 0.79986 0.88076
 N862 N 0.43800 0.76985 0.88009
 H863 H 0.40960 0.68519 0.92168
 H864 H 0.41802 0.83828 0.90145
 C865 C 0.75411 0.92668 0.41823
 C866 C 0.73709 0.90492 0.43238
 N867 N 0.70614 0.90725 0.43301
 C868 C 0.69160 0.93051 0.42040
 C869 C 0.70887 0.95277 0.40711
 N870 N 0.73971 0.94996 0.40624
 N871 N 0.78488 0.92474 0.41732
 C872 C 0.79966 0.90235 0.43059
 C873 C 0.78301 0.88103 0.44596
 N874 N 0.75190 0.88260 0.44621
 H875 H 0.66700 0.93200 0.42139
 H876 H 0.82432 0.90179 0.42990
 C877 C 0.24567 0.90990 0.59792
 C878 C 0.26234 0.88955 0.58132
 N879 N 0.29310 0.89253 0.57913
 C880 C 0.30770 0.91551 0.59189
 C881 C 0.29063 0.93698 0.60670
 N882 N 0.26006 0.93326 0.60971
 N883 N 0.21496 0.90760 0.59975
 C884 C 0.19990 0.88666 0.58470
 C885 C 0.21613 0.86760 0.56623
 N886 N 0.24719 0.86903 0.56551
 H887 H 0.33201 0.91814 0.58878
 H888 H 0.17525 0.88606 0.58580
 C889 C 0.23332 0.07225 0.40163
 C890 C 0.24906 0.09602 0.41379
 N891 N 0.27997 0.09694 0.41160
 C892 C 0.29583 0.07472 0.39862
 C893 C 0.28012 0.05004 0.38813
 N894 N 0.24915 0.04977 0.38957
 N895 N 0.20258 0.07087 0.40402
 C896 C 0.18684 0.09160 0.41899
 C897 C 0.20258 0.11444 0.43296
 N898 N 0.23342 0.11643 0.42950
 H899 H 0.32048 0.07545 0.39810
 H900 H 0.16238 0.08935 0.42120
 C901 C 0.73863 0.09954 0.59089
 C902 C 0.77037 0.09674 0.58793
 N903 N 0.78503 0.07385 0.60050
 C904 C 0.76928 0.05287 0.61498
 C905 C 0.73726 0.05431 0.61630
 N906 N 0.72268 0.07808 0.60473
 N907 N 0.72414 0.12241 0.57784
 C908 C 0.73985 0.14205 0.56128
 C909 C 0.77133 0.13806 0.55687
 N910 N 0.78577 0.11569 0.57075
 H911 H 0.78150 0.03437 0.62410
 H912 H 0.72763 0.15949 0.55037
 C913 C 0.90494 0.60398 0.24362
 C914 C 0.88747 0.58412 0.25988
 N915 N 0.89339 0.58080 0.28852
 C916 C 0.91665 0.59568 0.30134
 C917 C 0.93530 0.61404 0.28453
 N918 N 0.92852 0.61805 0.25619
 N919 N 0.90001 0.60683 0.21491
 C920 C 0.87921 0.58981 0.20134
 C921 C 0.86302 0.56847 0.21703
 N922 N 0.86703 0.56654 0.24618
 H923 H 0.92177 0.59176 0.32386
 H924 H 0.87655 0.59180 0.17818
 C925 C 0.91323 0.39347 0.76625
 C926 C 0.89004 0.40546 0.74903
 N927 N 0.89105 0.40138 0.71997
 C928 C 0.91477 0.38682 0.70728
 C929 C 0.93906 0.37661 0.72438
 N930 N 0.93720 0.37976 0.75356
 N931 N 0.91293 0.39806 0.79515
 C932 C 0.89108 0.41504 0.80760
 C933 C 0.86886 0.42872 0.79031
 N934 N 0.86849 0.42305 0.76138
 H935 H 0.91569 0.38512 0.68399
 H936 H 0.89197 0.41894 0.83064
 C937 C 0.08153 0.59104 0.75368
 C938 C 0.10412 0.57384 0.74022
 N939 N 0.10372 0.57074 0.71101
 C940 C 0.08116 0.58318 0.69485
 C941 C 0.05742 0.59863 0.70864
 N942 N 0.05861 0.60253 0.73772
 N943 N 0.08124 0.59380 0.78278
 C944 C 0.10177 0.57919 0.79927
 C945 C 0.12315 0.56022 0.78619
 N946 N 0.12428 0.55850 0.75678
 H947 H 0.08060 0.57933 0.67179
 H948 H 0.10033 0.58116 0.82253
 C949 C 0.08530 0.40914 0.24704
 C950 C 0.10620 0.42767 0.26090
 N951 N 0.10461 0.43090 0.29007
 C952 C 0.08239 0.41731 0.30578
 C953 C 0.06025 0.40045 0.29154
 N954 N 0.06269 0.39645 0.26254
 N955 N 0.08612 0.40627 0.21796
 C956 C 0.10611 0.42197 0.20184
 C957 C 0.12576 0.44214 0.21529
 N958 N 0.12582 0.44405 0.24471
 H959 H 0.08070 0.42133 0.32877
 H960 H 0.10560 0.41976 0.17858
   
