data_POSCAR
  _audit_creation_date              2014-09-24
  _audit_creation_method            'ToBaCCo'
  _symmetry_space_group_name_H-M    'P1'
  _symmetry_Int_Tables_number       1
  _symmetry_cell_setting            triclinic
  loop_
  _symmetry_equiv_pos_as_xyz
 x,y,z
_cell_length_a 33.7410
_cell_length_b 33.7409
_cell_length_c 33.7244
_cell_angle_alpha 89.433200
_cell_angle_beta 90.882800
_cell_angle_gamma 89.129600
loop_
  _atom_site_label
  _atom_site_type_symbol
  _atom_site_fract_x
  _atom_site_fract_y
  _atom_site_fract_z
O1 O 0.55406 0.49918 0.03255
 O2 O 0.44476 0.49989 0.03268
 O3 O 0.49988 0.44495 0.03266
 O4 O 0.49896 0.55409 0.03256
 O5 O 0.49787 0.55469 -0.03303
 O6 O 0.49878 0.44557 -0.03293
 O7 O 0.44366 0.50050 -0.03290
 O8 O 0.55297 0.49980 -0.03303
 Cu9 Cu 0.49952 0.49946 0.03922
 Cu10 Cu 0.49820 0.50019 -0.03958
 C11 C 0.57197 0.49941 -0.00026
 C12 C 0.42574 0.50031 -0.00009
 C13 C 0.49948 0.42684 -0.00012
 C14 C 0.49830 0.57281 -0.00025
 O15 O -0.03289 0.55545 0.49934
 O16 O -0.03292 0.44624 0.49945
 O17 O -0.03302 0.50039 0.55396
 O18 O -0.03280 0.50131 0.44482
 O19 O 0.03277 0.50028 0.44598
 O20 O 0.03254 0.49936 0.55511
 O21 O 0.03264 0.44521 0.50060
 O22 O 0.03266 0.55443 0.50049
 Cu23 Cu -0.03953 0.50095 0.49927
 Cu24 Cu 0.03927 0.49971 0.50066
 C25 C -0.00011 0.57339 0.49992
 C26 C -0.00015 0.42728 0.50003
 C27 C -0.00028 0.49975 0.57295
 C28 C 0.00002 0.50094 0.42698
 O29 O 0.49940 0.03228 0.55511
 O30 O 0.49914 0.03236 0.44580
 O31 O 0.44474 0.03219 0.49975
 O32 O 0.55379 0.03241 0.50115
 O33 O 0.55493 -0.03316 0.50177
 O34 O 0.44588 -0.03337 0.50037
 O35 O 0.50028 -0.03319 0.44642
 O36 O 0.50054 -0.03326 0.55574
 Cu37 Cu 0.49915 0.03893 0.50039
 Cu38 Cu 0.50052 -0.03986 0.50114
 C39 C 0.50002 -0.00050 0.57389
 C40 C 0.49968 -0.00040 0.42765
 C41 C 0.42691 -0.00063 0.49983
 C42 C 0.57276 -0.00034 0.50169
 C43 C 0.51940 0.10010 -0.07217
 C44 C 0.51934 0.07155 -0.10085
 C45 C 0.50746 0.03679 -0.08265
 N46 N 0.50015 0.04315 -0.04392
 C47 C 0.50756 0.08181 -0.03742
 C48 C 0.50124 0.00056 -0.10226
 C49 C 0.49415 -0.03540 -0.08187
 C50 C 0.47961 -0.06934 -0.09940
 C51 C 0.47933 -0.09823 -0.07038
 C52 C 0.49371 -0.08117 -0.03589
 N53 N 0.50273 -0.04288 -0.04316
 C54 C 0.50041 -0.10174 0.00039
 C55 C 0.50664 -0.08248 0.03690
 C56 C 0.51824 -0.10124 0.07204
 C57 C 0.51839 -0.07269 0.10073
 C58 C 0.50687 -0.03746 0.08214
 N59 N 0.49959 -0.04354 0.04316
 C60 C 0.50096 -0.00099 0.10154
 C61 C 0.49429 0.03525 0.08092
 C62 C 0.48004 0.06977 0.09797
 C63 C 0.48013 0.09867 0.06894
 C64 C 0.49443 0.08102 0.03494
 N65 N 0.50306 0.04238 0.04251
 C66 C 0.50141 0.10131 -0.00111
 H67 H 0.52712 0.13084 -0.07647
 H68 H 0.52702 0.07594 -0.13161
 H69 H 0.51833 0.02329 0.02394
 H70 H 0.47038 -0.07300 -0.13001
 H71 H 0.46986 -0.12846 -0.07432
 H72 H 0.52567 -0.13229 0.07659
 H73 H 0.52597 -0.07739 0.13173
 H74 H 0.47094 0.12927 0.07257
 H75 H 0.51814 -0.02442 -0.02408
 H76 H 0.47076 0.07381 0.12826
 C77 C -0.07278 0.51876 0.89884
 C78 C -0.10139 0.51880 0.92732
 C79 C -0.08269 0.50730 0.96255
 N80 N -0.04372 0.50013 0.95655
 C81 C -0.03758 0.50725 0.91765
 C82 C -0.10196 0.50135 0.99896
 C83 C -0.08118 0.49475 1.03522
 C84 C -0.09803 0.48047 1.06967
 C85 C -0.06889 0.48065 1.09861
 C86 C -0.03501 0.49503 1.08106
 N87 N -0.04276 0.50361 1.04243
 C88 C 0.00107 0.50215 1.10145
 C89 C 0.03730 0.50834 1.08207
 C90 C 0.07207 0.52024 1.10052
 C91 C 0.10068 0.52018 1.07205
 C92 C 0.08242 0.50824 1.03716
 N93 N 0.04372 0.50090 1.04338
 C94 C 0.10191 0.50205 1.00094
 C95 C 0.08139 0.49494 0.96489
 C96 C 0.09878 0.48044 0.93088
 C97 C 0.06965 0.48013 0.90194
 C98 C 0.03523 0.49445 0.91905
 N99 N 0.04265 0.50347 0.95741
 C100 C -0.00112 0.50113 0.89845
 H101 H -0.07743 0.52621 0.86781
 H102 H -0.13241 0.52629 0.92257
 H103 H 0.02361 0.51885 0.97592
 H104 H -0.12827 0.47111 1.07363
 H105 H -0.07237 0.47148 1.12919
 H106 H 0.07644 0.52800 1.13133
 H107 H 0.13142 0.52791 1.07656
 H108 H 0.07347 0.47069 0.87164
 H109 H -0.02431 0.51893 1.02345
 H110 H 0.12937 0.47126 0.92719
 C111 C 0.10272 -0.07556 0.49805
 C112 C 0.07436 -0.10406 0.50052
 C113 C 0.03804 -0.08431 0.50130
 N114 N 0.04343 -0.04474 0.49968
 C115 C 0.08293 -0.03923 0.49778
 C116 C 0.00092 -0.10320 0.50244
 C117 C -0.03627 -0.08305 0.50216
 C118 C -0.07232 -0.10163 0.49673
 C119 C -0.10119 -0.07258 0.49707
 C120 C -0.08219 -0.03684 0.50270
 N121 N -0.04262 -0.04357 0.50644
 C122 C -0.10210 0.00045 0.50368
 C123 C -0.08325 0.03761 0.50283
 C124 C -0.10305 0.07395 0.50250
 C125 C -0.07469 0.10244 0.49996
 C126 C -0.03837 0.08270 0.49922
 N127 N -0.04376 0.04312 0.50091
 C128 C -0.00125 0.10159 0.49806
 C129 C 0.03594 0.08144 0.49842
 C130 C 0.07198 0.10001 0.50393
 C131 C 0.10084 0.07097 0.50366
 C132 C 0.08186 0.03522 0.49798
 N133 N 0.04230 0.04196 0.49415
 C134 C 0.10177 -0.00206 0.49701
 H135 H 0.13436 -0.08107 0.49686
 H136 H 0.07994 -0.13572 0.50145
 H137 H 0.02130 0.02127 0.48628
 H138 H -0.07737 -0.13287 0.49220
 H139 H -0.13262 -0.07729 0.49286
 H140 H -0.13469 0.07946 0.50369
 H141 H -0.08027 0.13411 0.49897
 H142 H 0.13227 0.07567 0.50793
 H143 H -0.02161 -0.02288 0.51425
 H144 H 0.07701 0.13126 0.50848
 C145 C -0.20880 0.52907 1.02052
 C146 C -0.22933 0.50005 0.99946
 C147 C -0.20820 0.47138 0.97828
 C148 C -0.16675 0.47176 0.97811
 C149 C -0.38545 0.49933 0.99969
 C150 C -0.16736 0.52949 1.02034
 C151 C -0.27204 0.49972 0.99955
 C152 C -0.30780 0.49952 0.99960
 C153 C -0.34969 0.49937 0.99965
 C154 C -0.14603 0.50088 0.99907
 H155 H -0.22482 0.55138 1.03701
 H156 H -0.22375 0.44876 0.96192
 H157 H -0.15077 0.44936 0.96170
 H158 H -0.15185 0.55215 1.03668
 C159 C 0.20776 0.53008 0.97852
 C160 C 0.22932 0.50134 1.00041
 C161 C 0.20921 0.47280 1.02247
 C162 C 0.16775 0.47300 1.02267
 C163 C 0.38546 0.50055 0.99997
 C164 C 0.16630 0.53032 0.97871
 C165 C 0.27204 0.50114 1.00025
 C166 C 0.30780 0.50096 1.00014
 C167 C 0.34969 0.50075 1.00004
 C168 C 0.14600 0.50182 1.00085
 H169 H 0.22298 0.55229 0.96133
 H170 H 0.22556 0.45040 1.03948
 H171 H 0.15257 0.45069 1.03975
 H172 H 0.14998 0.55274 0.96171
 C173 C 0.00864 -0.20904 0.46642
 C174 C 0.00020 -0.23037 0.50106
 C175 C -0.00805 -0.21007 0.53609
 C176 C -0.00779 -0.16864 0.53653
 C177 C -0.00010 -0.38637 0.50000
 C178 C 0.00888 -0.16761 0.46683
 C179 C 0.00007 -0.27304 0.50067
 C180 C -0.00001 -0.30878 0.50040
 C181 C -0.00007 -0.35063 0.50015
 C182 C 0.00079 -0.14720 0.50193
 H183 H 0.01502 -0.22443 0.43915
 H184 H -0.01465 -0.22627 0.56303
 H185 H -0.01420 -0.15324 0.56377
 H186 H 0.01539 -0.15140 0.43988
 C187 C -0.00900 0.20750 0.53385
 C188 C -0.00051 0.22876 0.49919
 C189 C 0.00778 0.20839 0.46421
 C190 C 0.00751 0.16695 0.46385
 C191 C -0.00017 0.38475 0.49998
 C192 C -0.00926 0.16607 0.53353
 C193 C -0.00036 0.27143 0.49949
 C194 C -0.00027 0.30716 0.49970
 C195 C -0.00020 0.34901 0.49988
 C196 C -0.00112 0.14558 0.49848
 H197 H -0.01541 0.22295 0.56108
 H198 H 0.01442 0.22452 0.43724
 H199 H 0.01396 0.15149 0.43665
 H200 H -0.01580 0.14991 0.56050
 C201 C 0.47194 0.02196 -0.20949
 C202 C 0.50057 -0.00016 -0.22968
 C203 C 0.52936 -0.02209 -0.20819
 C204 C 0.52958 -0.02184 -0.16671
 C205 C 0.50012 -0.00051 -0.38583
 C206 C 0.47211 0.02221 -0.16802
 C207 C 0.50043 -0.00033 -0.27239
 C208 C 0.50032 -0.00042 -0.30816
 C209 C 0.50021 -0.00049 -0.35006
 C210 C 0.50100 0.00037 -0.14634
 H211 H 0.44950 0.03900 -0.22580
 H212 H 0.55164 -0.03932 -0.22348
 H213 H 0.55205 -0.03885 -0.15044
 H214 H 0.44974 0.03934 -0.15277
 C215 C 0.52906 0.02041 0.20843
 C216 C 0.50004 -0.00040 0.22893
 C217 C 0.47123 -0.02133 0.20777
 C218 C 0.47147 -0.02151 0.16631
 C219 C 0.49965 -0.00037 0.38507
 C220 C 0.52935 0.02023 0.16697
 C221 C 0.49986 -0.00034 0.27165
 C222 C 0.49975 -0.00032 0.30742
 C223 C 0.49968 -0.00034 0.34931
 C224 C 0.50060 -0.00081 0.14562
 H225 H 0.55148 0.03671 0.22449
 H226 H 0.44861 -0.03749 0.22331
 H227 H 0.44898 -0.03773 0.15029
 H228 H 0.55201 0.03635 0.15147
 C229 C 0.52811 -0.20856 -0.02086
 C230 C 0.49882 -0.22887 -0.00026
 C231 C 0.46997 -0.20762 0.02048
 C232 C 0.47042 -0.16620 0.02068
 C233 C 0.49814 -0.38470 -0.00029
 C234 C 0.52861 -0.16715 -0.02066
 C235 C 0.49846 -0.27149 -0.00032
 C236 C 0.49825 -0.30720 -0.00033
 C237 C 0.49813 -0.34900 -0.00032
 C238 C 0.49982 -0.14572 0.00018
 H239 H 0.55056 -0.22473 -0.03701
 H240 H 0.44716 -0.22305 0.03649
 H241 H 0.44791 -0.15007 0.03676
 H242 H 0.55146 -0.15176 -0.03662
 C243 C 0.47173 0.20832 -0.02217
 C244 C 0.50065 0.22849 -0.00044
 C245 C 0.52979 0.20710 0.02110
 C246 C 0.53004 0.16567 0.02087
 C247 C 0.49979 0.38435 -0.00010
 C248 C 0.47194 0.16690 -0.02241
 C249 C 0.50045 0.27112 -0.00027
 C250 C 0.50026 0.30683 -0.00018
 C251 C 0.50002 0.34864 -0.00012
 C252 C 0.50115 0.14531 -0.00094
 H253 H 0.44903 0.22460 -0.03890
 H254 H 0.55229 0.22242 0.03802
 H255 H 0.55276 0.14942 0.03758
 H256 H 0.44935 0.15161 -0.03923
 C257 C -0.20888 0.00900 0.46829
 C258 C -0.22906 0.00006 0.50316
 C259 C -0.20772 -0.00876 0.53817
 C260 C -0.16631 -0.00859 0.53834
 C261 C -0.38479 -0.00026 0.50214
 C262 C -0.16747 0.00915 0.46843
 C263 C -0.27165 -0.00006 0.50299
 C264 C -0.30734 -0.00013 0.50278
 C265 C -0.34911 -0.00020 0.50247
 C266 C -0.14602 0.00046 0.50350
 H267 H -0.22513 0.01581 0.44106
 H268 H -0.22309 -0.01575 0.56527
 H269 H -0.15004 -0.01546 0.56555
 H270 H -0.15209 0.01604 0.44132
 C271 C 0.20748 0.00740 0.46284
 C272 C 0.22874 -0.00147 0.49789
 C273 C 0.20847 -0.01057 0.53266
 C274 C 0.16706 -0.01082 0.53240
 C275 C 0.38446 -0.00073 0.49932
 C276 C 0.16607 0.00714 0.46254
 C277 C 0.27133 -0.00122 0.49820
 C278 C 0.30701 -0.00103 0.49851
 C279 C 0.34878 -0.00085 0.49892
 C280 C 0.14569 -0.00206 0.49730
 H281 H 0.22291 0.01452 0.43580
 H282 H 0.22466 -0.01742 0.55993
 H283 H 0.15162 -0.01781 0.55944
 H284 H 0.14986 0.01407 0.43531
 C285 C 0.02231 0.47278 1.20848
 C286 C 0.00062 0.50177 1.22863
 C287 C -0.02092 0.53086 1.20722
 C288 C -0.02074 0.53099 1.16578
 C289 C 0.00012 0.50121 1.38449
 C290 C 0.02249 0.47287 1.16705
 C291 C 0.00046 0.50166 1.27126
 C292 C 0.00033 0.50155 1.30698
 C293 C 0.00021 0.50139 1.34878
 C294 C 0.00101 0.50204 1.14545
 H295 H 0.03903 0.45013 1.22478
 H296 H -0.03781 0.55340 1.22254
 H297 H -0.03746 0.55366 1.14952
 H298 H 0.03927 0.45024 1.15176
 C299 C 0.01983 0.52927 0.79192
 C300 C -0.00064 0.49993 0.77129
 C301 C -0.02124 0.47092 0.79222
 C302 C -0.02140 0.47126 0.83365
 C303 C -0.00036 0.49955 0.61544
 C304 C 0.01966 0.52965 0.83335
 C305 C -0.00056 0.49965 0.72866
 C306 C -0.00050 0.49952 0.69295
 C307 C -0.00043 0.49948 0.65115
 C308 C -0.00102 0.50070 0.85446
 H309 H 0.03586 0.55183 0.77600
 H310 H -0.03713 0.44808 0.77652
 H311 H -0.03734 0.44862 0.84954
 H312 H 0.03553 0.55253 0.84901
   
