data_POSCAR
  _audit_creation_date              2014-09-24
  _audit_creation_method            'ToBaCCo'
  _symmetry_space_group_name_H-M    'P1'
  _symmetry_Int_Tables_number       1
  _symmetry_cell_setting            triclinic
  loop_
  _symmetry_equiv_pos_as_xyz
 x,y,z
_cell_length_a 26.5987
_cell_length_b 26.6004
_cell_length_c 43.4479
_cell_angle_alpha 88.689300
_cell_angle_beta 87.918800
_cell_angle_gamma 89.989900
loop_
  _atom_site_label
  _atom_site_type_symbol
  _atom_site_fract_x
  _atom_site_fract_y
  _atom_site_fract_z
O1 O 0.02620 0.55419 1.02888
 O2 O 0.02459 0.45989 0.96929
 O3 O 0.02487 0.55787 0.96892
 O4 O 0.01695 0.45651 1.02915
 O5 O -0.06577 0.46124 1.02868
 O6 O -0.05791 0.56134 0.96994
 O7 O -0.05820 0.46335 0.96881
 O8 O -0.05660 0.55877 1.02986
 Cu9 Cu 0.03134 0.50676 0.99905
 Cu10 Cu -0.06781 0.51161 0.99935
 C11 C -0.01441 0.57281 1.03968
 C12 C -0.01658 0.44517 0.95878
 C13 C -0.01568 0.57706 0.95918
 C14 C -0.02629 0.44145 1.03902
 O15 O 0.45690 0.02479 0.52916
 O16 O 0.55681 0.02336 0.46946
 O17 O 0.45883 0.02373 0.46922
 O18 O 0.55452 0.01554 0.52929
 O19 O 0.54997 -0.06714 0.52802
 O20 O 0.45537 -0.05909 0.46939
 O21 O 0.55346 -0.05929 0.46815
 O22 O 0.45226 -0.05796 0.52935
 Cu23 Cu 0.50714 0.03004 0.49935
 Cu24 Cu 0.50236 -0.06906 0.49868
 C25 C 0.43725 -0.01582 0.53958
 C26 C 0.57264 -0.01768 0.45844
 C27 C 0.44067 -0.01680 0.45916
 C28 C 0.56869 -0.02770 0.53875
 C29 C -0.04179 0.01236 0.27211
 C30 C -0.00076 0.01404 0.25106
 C31 C 0.00494 0.05455 0.23016
 C32 C -0.03014 0.09399 0.23019
 C33 C -0.07163 0.09174 0.25126
 C34 C -0.07788 0.05091 0.27227
 C35 C 0.03627 -0.02685 0.25085
 C36 C 0.03309 -0.06514 0.22950
 C37 C 0.06799 -0.10476 0.22923
 C38 C 0.10683 -0.10485 0.25042
 C39 C 0.11060 -0.06618 0.27182
 C40 C 0.07467 -0.02749 0.27198
 H41 H -0.04523 -0.01892 0.28847
 H42 H 0.03660 0.05500 0.21373
 H43 H 0.00353 -0.06371 0.21298
 H44 H 0.07618 0.00208 0.28867
 H45 H -0.09906 0.12182 0.25131
 H46 H 0.13414 -0.13504 0.25024
 C47 C -0.02541 -0.04194 0.77229
 C48 C -0.02486 -0.00142 0.75122
 C49 C -0.06331 0.00397 0.73030
 C50 C -0.10291 -0.03093 0.73034
 C51 C -0.10287 -0.07196 0.75141
 C52 C -0.06412 -0.07787 0.77246
 C53 C 0.01604 0.03559 0.75108
 C54 C 0.05641 0.03210 0.72971
 C55 C 0.09588 0.06718 0.72941
 C56 C 0.09375 0.10648 0.75060
 C57 C 0.05299 0.11058 0.77200
 C58 C 0.01446 0.07448 0.77219
 H59 H 0.00422 -0.04508 0.78869
 H60 H -0.06208 0.03528 0.71388
 H61 H 0.05668 0.00219 0.71318
 H62 H -0.01677 0.07630 0.78886
 H63 H -0.13307 -0.09924 0.75146
 H64 H 0.12380 0.13394 0.75041
 C65 C -0.05181 -0.33188 0.10017
 C66 C -0.00448 -0.31462 0.10974
 C67 C 0.03921 -0.33544 0.09540
 C68 C 0.03533 -0.37203 0.07291
 C69 C -0.01168 -0.38876 0.06374
 C70 C -0.05517 -0.36828 0.07756
 C71 C 0.08682 -0.31971 0.10342
 C72 C 0.09246 -0.28311 0.12521
 C73 C 0.05042 -0.26069 0.14015
 C74 C 0.00112 -0.27736 0.13273
 C75 C -0.04079 -0.25644 0.14867
 C76 C -0.03501 -0.22004 0.17067
 C77 C 0.01258 -0.20252 0.17756
 C78 C 0.05606 -0.22233 0.16239
 C79 C 0.10336 -0.20241 0.16999
 C80 C 0.10701 -0.16481 0.19168
 C81 C 0.06393 -0.14561 0.20666
 C82 C 0.01680 -0.16494 0.19952
 H83 H -0.08704 -0.31781 0.10942
 H84 H 0.06941 -0.38735 0.06235
 H85 H -0.09201 -0.38035 0.07086
 H86 H 0.12031 -0.33578 0.09260
 H87 H 0.13067 -0.27362 0.12998
 H88 H -0.07890 -0.26768 0.14488
 H89 H -0.06837 -0.20515 0.18229
 H90 H 0.13837 -0.21429 0.15931
 H91 H 0.14384 -0.14996 0.19628
 H92 H -0.01684 -0.15082 0.21122
 C93 C -0.08596 0.34326 0.09297
 C94 C -0.04414 0.31999 0.10659
 C95 C 0.00441 0.33884 0.09800
 C96 C 0.01037 0.37836 0.07604
 C97 C -0.03160 0.40029 0.06249
 C98 C -0.07964 0.38246 0.07140
 C99 C 0.04679 0.31815 0.11134
 C100 C 0.04229 0.27926 0.13317
 C101 C -0.00509 0.25883 0.14237
 C102 C -0.04895 0.27898 0.12844
 C103 C -0.09612 0.25701 0.13649
 C104 C -0.10058 0.21727 0.15760
 C105 C -0.05850 0.19789 0.17185
 C106 C -0.01014 0.21846 0.16472
 C107 C 0.03104 0.19765 0.18041
 C108 C 0.02432 0.15777 0.20163
 C109 C -0.02347 0.13715 0.20809
 C110 C -0.06474 0.15767 0.19314
 H111 H -0.12429 0.33259 0.09856
 H112 H 0.04774 0.39205 0.06953
 H113 H -0.11291 0.39879 0.06156
 H114 H 0.08402 0.33229 0.10489
 H115 H 0.07707 0.26553 0.14208
 H116 H -0.13067 0.26904 0.12652
 H117 H -0.13759 0.20155 0.16287
 H118 H 0.06893 0.21148 0.17711
 H119 H 0.05677 0.14332 0.21331
 H120 H -0.10185 0.14173 0.19769
 C121 C 0.33608 -0.05312 0.59980
 C122 C 0.31770 -0.00578 0.60961
 C123 C 0.33977 0.03785 0.59552
 C124 C 0.37863 0.03392 0.57305
 C125 C 0.39644 -0.01310 0.56365
 C126 C 0.37474 -0.05653 0.57719
 C127 C 0.32306 0.08546 0.60377
 C128 C 0.28424 0.09116 0.62553
 C129 C 0.26049 0.04918 0.64022
 C130 C 0.27813 -0.00011 0.63261
 C131 C 0.25586 -0.04193 0.64837
 C132 C 0.21729 -0.03606 0.67040
 C133 C 0.19883 0.01152 0.67746
 C134 C 0.21987 0.05489 0.66244
 C135 C 0.19888 0.10217 0.67014
 C136 C 0.15917 0.10592 0.69186
 C137 C 0.13884 0.06296 0.70675
 C138 C 0.15911 0.01584 0.69946
 H139 H 0.32118 -0.08830 0.60884
 H140 H 0.39485 0.06796 0.56269
 H141 H 0.38762 -0.09337 0.57030
 H142 H 0.34009 0.11890 0.59315
 H143 H 0.27416 0.12937 0.63051
 H144 H 0.26770 -0.08001 0.64444
 H145 H 0.20145 -0.06934 0.68191
 H146 H 0.21151 0.13708 0.65952
 H147 H 0.14364 0.14272 0.69654
 H148 H 0.14407 -0.01771 0.71107
 C149 C -0.33853 -0.08732 0.59242
 C150 C -0.31672 -0.04550 0.60644
 C151 C -0.33467 0.00303 0.59813
 C152 C -0.37194 0.00894 0.57612
 C153 C -0.39247 -0.03302 0.56222
 C154 C -0.37552 -0.08103 0.57079
 C155 C -0.31532 0.04543 0.61177
 C156 C -0.27863 0.04100 0.63363
 C157 C -0.25918 -0.00635 0.64259
 C158 C -0.27801 -0.05026 0.62840
 C159 C -0.25707 -0.09742 0.63633
 C160 C -0.21950 -0.10181 0.65751
 C161 C -0.20136 -0.05966 0.67193
 C162 C -0.22104 -0.01130 0.66496
 C163 C -0.20159 0.02998 0.68080
 C164 C -0.16379 0.02336 0.70200
 C165 C -0.14398 -0.02443 0.70831
 C166 C -0.16325 -0.06580 0.69324
 H167 H -0.32835 -0.12561 0.59771
 H168 H -0.38497 0.04629 0.56986
 H169 H -0.39081 -0.11429 0.56066
 H170 H -0.32879 0.08263 0.60553
 H171 H -0.26580 0.07580 0.64278
 H172 H -0.26829 -0.13204 0.62624
 H173 H -0.20448 -0.13883 0.66268
 H174 H -0.21491 0.06789 0.67761
 H175 H -0.15033 0.05590 0.71378
 H176 H -0.14790 -0.10292 0.69769
 C177 C 0.03152 -0.32695 0.90112
 C178 C -0.01379 -0.30508 0.89094
 C179 C -0.05955 -0.32368 0.90448
 C180 C -0.05962 -0.36271 0.92669
 C181 C -0.01450 -0.38416 0.93657
 C182 C 0.03104 -0.36567 0.92351
 C183 C -0.10535 -0.30327 0.89592
 C184 C -0.10709 -0.26404 0.87448
 C185 C -0.06279 -0.24364 0.86036
 C186 C -0.01541 -0.26530 0.86814
 C187 C 0.02861 -0.24673 0.85268
 C188 C 0.02667 -0.20791 0.83084
 C189 C -0.01894 -0.18540 0.82375
 C190 C -0.06436 -0.20258 0.83849
 C191 C -0.10940 -0.17741 0.83093
 C192 C -0.10913 -0.13747 0.80953
 C193 C -0.06422 -0.12107 0.79481
 C194 C -0.01924 -0.14547 0.80201
 H195 H 0.06810 -0.31468 0.89257
 H196 H -0.09540 -0.37609 0.93648
 H197 H 0.06665 -0.38103 0.93059
 H198 H -0.14046 -0.31765 0.90609
 H199 H -0.14416 -0.25101 0.86919
 H200 H 0.06541 -0.26185 0.85664
 H201 H 0.06150 -0.19504 0.81953
 H202 H -0.14550 -0.18681 0.84151
 H203 H -0.14430 -0.11867 0.80497
 H204 H 0.01577 -0.13350 0.79056
 C205 C -0.05709 0.35240 0.89924
 C206 C -0.01068 0.33041 0.88955
 C207 C 0.03343 0.34746 0.90339
 C208 C 0.03091 0.38493 0.92555
 C209 C -0.01521 0.40624 0.93489
 C210 C -0.05914 0.38960 0.92153
 C211 C 0.08012 0.32703 0.89524
 C212 C 0.08433 0.28931 0.87385
 C213 C 0.04174 0.27043 0.85945
 C214 C -0.00646 0.29201 0.86695
 C215 C -0.04865 0.27465 0.85148
 C216 C -0.04426 0.23710 0.82987
 C217 C 0.00211 0.21482 0.82295
 C218 C 0.04582 0.23088 0.83766
 C219 C 0.09172 0.20617 0.83010
 C220 C 0.09386 0.16766 0.80881
 C221 C 0.05061 0.15224 0.79424
 C222 C 0.00484 0.17625 0.80139
 H223 H -0.09262 0.34143 0.89035
 H224 H 0.06528 0.39723 0.93575
 H225 H -0.09532 0.40527 0.92837
 H226 H 0.11397 0.34023 0.90566
 H227 H 0.12193 0.27609 0.86893
 H228 H -0.08588 0.28966 0.85534
 H229 H -0.07776 0.22509 0.81859
 H230 H 0.12665 0.21494 0.84051
 H231 H 0.12954 0.14916 0.80421
 H232 H -0.02885 0.16506 0.79000
 C233 C -0.33036 -0.05859 0.40001
 C234 C -0.30836 -0.01217 0.38998
 C235 C -0.32743 0.03213 0.40360
 C236 C -0.36693 0.02980 0.42583
 C237 C -0.38838 -0.01640 0.43564
 C238 C -0.36954 -0.06053 0.42242
 C239 C -0.30700 0.07886 0.39517
 C240 C -0.26721 0.08291 0.37380
 C241 C -0.24625 0.04012 0.35965
 C242 C -0.26797 -0.00811 0.36727
 C243 C -0.24881 -0.05049 0.35176
 C244 C -0.20934 -0.04621 0.33004
 C245 C -0.18675 0.00018 0.32314
 C246 C -0.20453 0.04404 0.33792
 C247 C -0.17927 0.08991 0.33055
 C248 C -0.13868 0.09194 0.30929
 C249 C -0.12169 0.04859 0.29452
 C250 C -0.14616 0.00281 0.30154
 H251 H -0.31781 -0.09424 0.39136
 H252 H -0.38062 0.06453 0.43571
 H253 H -0.38492 -0.09690 0.42942
 H254 H -0.32176 0.11288 0.40539
 H255 H -0.25418 0.12056 0.36861
 H256 H -0.26392 -0.08773 0.35560
 H257 H -0.19602 -0.07984 0.31870
 H258 H -0.18910 0.12489 0.34118
 H259 H -0.11986 0.12762 0.30486
 H260 H -0.13372 -0.03099 0.29005
 C261 C 0.34908 0.03010 0.39985
 C262 C 0.32708 -0.01523 0.39014
 C263 C 0.34349 -0.06079 0.40401
 C264 C 0.38046 -0.06065 0.42618
 C265 C 0.40192 -0.01559 0.43547
 C266 C 0.38580 0.02974 0.42214
 C267 C 0.32298 -0.10655 0.39584
 C268 C 0.28585 -0.10846 0.37435
 C269 C 0.26770 -0.06438 0.35986
 C270 C 0.28930 -0.01703 0.36744
 C271 C 0.27263 0.02676 0.35194
 C272 C 0.23574 0.02469 0.33019
 C273 C 0.21348 -0.02088 0.32315
 C274 C 0.22887 -0.06612 0.33790
 C275 C 0.20423 -0.11114 0.33019
 C276 C 0.16641 -0.11100 0.30875
 C277 C 0.15164 -0.06623 0.29416
 C278 C 0.17561 -0.02129 0.30144
 H279 H 0.33854 0.06655 0.39096
 H280 H 0.39235 -0.09609 0.43638
 H281 H 0.40159 0.06515 0.42895
 H282 H 0.33566 -0.14149 0.40631
 H283 H 0.27253 -0.14550 0.36943
 H284 H 0.28767 0.06353 0.35586
 H285 H 0.22424 0.05936 0.31889
 H286 H 0.21254 -0.14716 0.34058
 H287 H 0.14792 -0.14613 0.30405
 H288 H 0.16493 0.01358 0.29004
   
