data_POSCAR
  _audit_creation_date              2014-09-24
  _audit_creation_method            'ToBaCCo'
  _symmetry_space_group_name_H-M    'P1'
  _symmetry_Int_Tables_number       1
  _symmetry_cell_setting            triclinic
  loop_
  _symmetry_equiv_pos_as_xyz
 x,y,z
_cell_length_a 18.6201
_cell_length_b 18.5988
_cell_length_c 18.7352
_cell_angle_alpha 90.497400
_cell_angle_beta 89.540000
_cell_angle_gamma 91.236900
loop_
  _atom_site_label
  _atom_site_type_symbol
  _atom_site_fract_x
  _atom_site_fract_y
  _atom_site_fract_z
O1 O 0.63806 0.15579 0.02459
 O2 O 0.69422 0.04721 0.03036
 C3 C 0.69453 0.11685 0.03233
 O4 O 0.37521 0.01800 0.16546
 O5 O 0.31397 0.03627 0.06164
 C6 C 0.31716 0.03059 0.13029
 O7 O 0.57017 0.00062 0.19295
 O8 O 0.66299 -0.02491 0.11656
 C9 C 0.63751 -0.00917 0.17997
 O10 O 0.44521 0.19711 -0.00938
 O11 O 0.34567 0.12268 -0.01876
 C12 C 0.37655 0.18593 -0.01606
 Zr13 Zr 0.52983 0.12498 0.00445
 O14 O 0.53126 0.20764 0.08283
 O15 O 0.56663 0.19899 -0.07368
 Zr16 Zr 0.48084 -0.00007 0.12746
 O17 O 0.47508 0.07116 0.21572
 O18 O 0.46211 -0.08680 0.19826
 O19 O 0.56679 0.05981 0.08479
 O20 O 0.44672 0.08519 0.06765
 O21 O 0.42857 0.01702 -0.19122
 O22 O 0.34119 0.03804 -0.10690
 C23 C 0.36316 0.03240 -0.17226
 O24 O 0.55705 -0.19736 -0.00413
 O25 O 0.65552 -0.12467 0.01853
 C26 C 0.62540 -0.18717 0.00514
 O27 O 0.36237 -0.15568 -0.01356
 O28 O 0.30753 -0.04692 -0.02414
 C29 C 0.30621 -0.11648 -0.02179
 O30 O 0.62346 -0.02642 -0.16246
 O31 O 0.68637 -0.04087 -0.05845
 C32 C 0.68170 -0.03952 -0.12746
 Zr33 Zr 0.51914 -0.00141 -0.12438
 O34 O 0.50871 -0.07865 -0.20752
 O35 O 0.55482 0.07815 -0.19749
 Zr36 Zr 0.47174 -0.12536 -0.00002
 O37 O 0.45548 -0.21148 -0.07279
 O38 O 0.45252 -0.19797 0.08487
 Zr39 Zr 0.60486 -0.02267 0.01740
 Zr40 Zr 0.39748 0.02247 -0.01256
 O41 O 0.43491 -0.06005 -0.07999
 O42 O 0.55598 -0.08617 -0.06363
 O43 O 0.46597 0.08515 -0.07834
 O44 O 0.53532 -0.08496 0.08189
 O45 O 0.58858 0.05730 -0.05977
 O46 O 0.41009 -0.05878 0.06399
 H47 H 0.41827 0.12117 0.09421
 H48 H 0.55872 -0.11919 0.11414
 H49 H 0.40193 -0.08382 -0.11454
 H50 H 0.63077 0.07984 -0.08396
 H51 H 0.41100 -0.10183 0.19415
 H52 H 0.40286 -0.19091 0.10237
 H53 H 0.47067 -0.19352 -0.12014
 H54 H 0.53666 -0.12094 -0.19378
 H55 H 0.51700 0.11457 -0.20027
 H56 H 0.52890 0.20195 -0.11035
 H57 H 0.55917 0.19023 0.12370
 H58 H 0.49274 0.11855 0.19876
 O59 O 0.02351 0.37312 -0.16337
 O60 O 0.03901 0.31173 -0.05899
 C61 C 0.03659 0.31518 -0.12786
 O62 O 0.15640 0.63752 -0.01794
 O63 O 0.04821 0.69280 -0.02766
 C64 C 0.11771 0.69407 -0.02546
 O65 O 0.19828 0.44400 -0.00728
 O66 O 0.12606 0.34505 0.01362
 C67 C 0.18855 0.37548 0.00122
 O68 O -0.02481 0.56391 -0.19175
 O69 O -0.03150 0.65976 -0.11454
 C70 C -0.03011 0.63205 -0.17867
 Zr71 Zr 0.00021 0.47826 -0.12570
 O72 O 0.07745 0.49031 -0.20859
 O73 O -0.07668 0.44002 -0.20035
 Zr74 Zr 0.12565 0.52850 -0.00452
 O75 O 0.20900 0.54477 -0.08027
 O76 O 0.20047 0.54893 0.07824
 O77 O 0.08641 0.44311 -0.06693
 O78 O 0.05949 0.56382 -0.08395
 O79 O -0.19677 0.55443 -0.00818
 O80 O -0.12295 0.65360 -0.02179
 C81 C -0.18618 0.62303 -0.01645
 O82 O 0.01075 0.42706 0.19296
 O83 O 0.03775 0.33975 0.11018
 C84 C 0.02758 0.36174 0.17512
 O85 O -0.01469 0.62561 0.16248
 O86 O -0.03403 0.68676 0.05836
 C87 C -0.02774 0.68366 0.12702
 O88 O -0.15474 0.36257 0.02556
 O89 O -0.04642 0.30644 0.03104
 C90 C -0.11612 0.30593 0.03336
 Zr91 Zr -0.12384 0.47038 0.00477
 O92 O -0.20471 0.47106 0.08489
 O93 O -0.19951 0.43275 -0.07148
 Zr94 Zr 0.00194 0.51871 0.12586
 O95 O -0.07328 0.52377 0.21080
 O96 O 0.08654 0.53969 0.19854
 Zr97 Zr 0.02399 0.39543 0.01484
 Zr98 Zr -0.02172 0.60319 -0.01612
 O99 O -0.08296 0.55414 0.06607
 O100 O -0.05750 0.43214 0.08430
 O101 O -0.08543 0.53312 -0.07958
 O102 O 0.08670 0.46587 0.07817
 O103 O -0.05790 0.41041 -0.06008
 O104 O 0.05964 0.58968 0.06051
 H105 H 0.08350 0.59602 -0.11904
 H106 H 0.12268 0.44418 0.10970
 H107 H -0.11866 0.58258 0.09300
 H108 H -0.08098 0.36809 -0.08365
 H109 H 0.19138 0.59745 0.09795
 H110 H 0.10566 0.58877 0.18917
 H111 H -0.10966 0.48530 0.20212
 H112 H -0.18939 0.43924 0.12369
 H113 H -0.20521 0.47105 -0.10719
 H114 H -0.11941 0.47041 -0.19548
 H115 H 0.11725 0.45756 -0.19851
 H116 H 0.19330 0.52025 -0.12463
 O117 O -0.16572 -0.02474 0.62520
 O118 O -0.06129 -0.03370 0.68844
 C119 C -0.13064 -0.03497 0.68396
 O120 O -0.01608 -0.16514 0.37371
 O121 O -0.02662 -0.05950 0.31308
 C122 C -0.02459 -0.12886 0.31555
 O123 O -0.00918 -0.19518 0.56943
 O124 O 0.01154 -0.11822 0.66343
 C125 C -0.00181 -0.18216 0.63692
 O126 O -0.19135 0.01238 0.43011
 O127 O -0.11065 0.02195 0.33739
 C128 C -0.17579 0.01934 0.36286
 Zr129 Zr -0.12706 -0.00284 0.52017
 O130 O -0.21256 -0.07942 0.51406
 O131 O -0.20051 0.07722 0.55119
 Zr132 Zr -0.00257 -0.12858 0.48054
 O133 O -0.07524 -0.21666 0.46896
 O134 O 0.08302 -0.20078 0.46704
 O135 O -0.06728 -0.08565 0.56106
 O136 O -0.08314 -0.06633 0.44056
 O137 O 0.00004 0.19381 0.43067
 O138 O -0.01741 0.11092 0.34104
 C139 C -0.00478 0.17590 0.36360
 O140 O 0.19263 0.00563 0.57636
 O141 O 0.10996 -0.02000 0.66428
 C142 C 0.17431 -0.00203 0.64299
 O143 O 0.16489 0.01189 0.37704
 O144 O 0.06035 0.02469 0.31483
 C145 C 0.12952 0.02197 0.31840
 O146 O 0.02355 0.16176 0.62662
 O147 O 0.02779 0.05630 0.68910
 C148 C 0.03104 0.12586 0.68522
 Zr149 Zr 0.00240 0.12487 0.52125
 O150 O 0.07799 0.21135 0.52220
 O151 O -0.08141 0.19549 0.54851
 Zr152 Zr 0.12713 -0.00260 0.48388
 O153 O 0.21765 0.06721 0.47417
 O154 O 0.19688 -0.09040 0.47183
 Zr155 Zr 0.01372 -0.01898 0.60579
 Zr156 Zr -0.01482 0.01399 0.39762
 O157 O 0.06696 0.07931 0.44336
 O158 O 0.08252 0.06206 0.56362
 O159 O -0.08074 0.08069 0.46026
 O160 O 0.07939 -0.08464 0.54239
 O161 O -0.06243 0.06020 0.58483
 O162 O 0.06289 -0.06485 0.41606
 H163 H -0.11796 -0.09240 0.40952
 H164 H 0.11087 -0.11742 0.56868
 H165 H 0.09624 0.11343 0.41444
 H166 H -0.08677 0.08409 0.62556
 H167 H 0.10101 -0.19605 0.41742
 H168 H 0.19595 -0.10523 0.42098
 H169 H 0.20128 0.11573 0.48753
 H170 H 0.12329 0.19228 0.54081
 H171 H -0.10690 0.20697 0.50401
 H172 H -0.19987 0.11423 0.51354
 H173 H -0.19794 -0.12210 0.54109
 H174 H -0.12302 -0.19906 0.48313
 N175 N -0.12278 0.17548 0.04904
 N176 N -0.17230 0.12306 0.04888
 C177 C -0.23635 0.15474 0.04172
 C178 C -0.22479 0.22779 0.03779
 N179 N -0.15347 0.23862 0.04240
 H180 H -0.26409 0.26882 0.02900
 N181 N 0.12365 0.82486 -0.03782
 N182 N 0.17291 0.87749 -0.03689
 C183 C 0.23689 0.84592 -0.02888
 C184 C 0.22567 0.77292 -0.02511
 N185 N 0.15458 0.76189 -0.03084
 H186 H 0.26516 0.73188 -0.01715
 N187 N 0.31522 0.36473 -0.01880
 N188 N 0.36574 0.31655 -0.02566
 C189 C 0.33379 0.25146 -0.01816
 C190 C 0.26075 0.26137 -0.00577
 N191 N 0.25193 0.33340 -0.00638
 H192 H 0.21915 0.22104 0.00406
 N193 N -0.31400 0.63508 -0.02423
 N194 N -0.36464 0.68309 -0.01665
 C195 C -0.33198 0.74716 -0.00366
 C196 C -0.25805 0.73678 -0.00443
 N197 N -0.24961 0.66562 -0.01757
 H198 H -0.21537 0.77609 0.00490
 N199 N -0.04629 -0.13653 0.18813
 N200 N -0.04798 -0.18524 0.13623
 C201 C -0.03500 -0.24901 0.16672
 C202 C -0.02534 -0.23822 0.23882
 N203 N -0.03272 -0.16733 0.24985
 H204 H -0.01233 -0.27744 0.27882
 N205 N 0.05590 0.13494 0.81214
 N206 N 0.05851 0.18425 0.86350
 C207 C 0.04621 0.24793 0.83249
 C208 C 0.03609 0.23636 0.76050
 N209 N 0.04242 0.16518 0.75012
 H210 H 0.02212 0.27512 0.72039
 N211 N 0.07637 0.20714 0.26925
 N212 N 0.08782 0.25580 0.21950
 C213 C 0.03911 0.30734 0.22984
 C214 C -0.00356 0.28841 0.28846
 N215 N 0.02192 0.22508 0.31096
 H216 H -0.05126 0.31432 0.30843
 N217 N -0.01935 -0.30808 0.65006
 N218 N -0.02948 -0.35886 0.69749
 C219 C -0.02919 -0.32726 0.76245
 C220 C -0.01854 -0.25311 0.75284
 N221 N -0.01167 -0.24434 0.68114
 H222 H -0.01355 -0.21112 0.79298
 N223 N 0.20249 0.07579 0.74156
 N224 N 0.25271 0.08882 0.78945
 C225 C 0.30744 0.04484 0.77447
 C226 C 0.28871 0.00340 0.71491
 N227 N 0.22235 0.02456 0.69676
 H228 H 0.31710 -0.04129 0.69154
 N229 N -0.29986 0.03779 0.34532
 N230 N -0.35125 0.02685 0.29875
 C231 C -0.32089 0.00356 0.23735
 C232 C -0.24671 0.00130 0.24817
 N233 N -0.23669 0.02323 0.31695
 H234 H -0.20543 -0.01683 0.21165
 N235 N 0.13775 0.04708 0.19188
 N236 N 0.18639 0.05068 0.14011
 C237 C 0.25012 0.03738 0.17031
 C238 C 0.23936 0.02541 0.24214
 N239 N 0.16848 0.03181 0.25324
 H240 H 0.27855 0.01134 0.28177
 N241 N -0.14014 -0.06456 0.80963
 N242 N -0.18883 -0.06687 0.86147
 C243 C -0.25210 -0.05077 0.83172
 C244 C -0.24089 -0.03861 0.75989
 N245 N -0.17028 -0.04753 0.74846
 H246 H -0.27929 -0.02136 0.72082
   
