data_POSCAR
  _audit_creation_date              2014-09-24
  _audit_creation_method            'ToBaCCo'
  _symmetry_space_group_name_H-M    'P1'
  _symmetry_Int_Tables_number       1
  _symmetry_cell_setting            triclinic
  loop_
  _symmetry_equiv_pos_as_xyz
 x,y,z
_cell_length_a 27.5676
_cell_length_b 27.6314
_cell_length_c 27.5239
_cell_angle_alpha 85.567600
_cell_angle_beta 96.559400
_cell_angle_gamma 76.120200
loop_
  _atom_site_label
  _atom_site_type_symbol
  _atom_site_fract_x
  _atom_site_fract_y
  _atom_site_fract_z
O1 O 0.57494 0.49227 0.04661
 O2 O 0.43662 0.51327 0.03444
 O3 O 0.51189 0.43398 0.05007
 O4 O 0.49849 0.57046 0.03080
 O5 O 0.49609 0.56662 -0.04920
 O6 O 0.51050 0.42991 -0.02982
 O7 O 0.43367 0.50758 -0.04520
 O8 O 0.57200 0.48779 -0.03332
 Cu9 Cu 0.50594 0.50272 0.04848
 Cu10 Cu 0.50267 0.49776 -0.04739
 C11 C 0.59706 0.48699 0.00857
 C12 C 0.41138 0.51340 -0.00725
 C13 C 0.51299 0.40869 0.01334
 C14 C 0.49531 0.59182 -0.01242
 O15 O -0.04339 0.57644 0.49366
 O16 O -0.04008 0.44239 0.50550
 O17 O -0.03460 0.50938 0.56630
 O18 O -0.04853 0.51023 0.43142
 O19 O 0.03428 0.49402 0.43469
 O20 O 0.04831 0.48714 0.56967
 O21 O 0.04237 0.42335 0.50537
 O22 O 0.03947 0.55734 0.49784
 Cu23 Cu -0.05003 0.51129 0.49879
 Cu24 Cu 0.04947 0.48838 0.50230
 C25 C -0.00241 0.58995 0.49437
 C26 C 0.00157 0.41000 0.50697
 C27 C 0.00918 0.49832 0.59091
 C28 C -0.00933 0.50317 0.41002
 O29 O 0.49916 0.03440 0.56692
 O30 O 0.48603 0.04961 0.43178
 O31 O 0.42398 0.05022 0.49679
 O32 O 0.56095 0.03311 0.50293
 O33 O 0.57150 -0.04884 0.50493
 O34 O 0.43409 -0.03094 0.49231
 O35 O 0.50036 -0.03252 0.43166
 O36 O 0.50512 -0.04656 0.56665
 Cu37 Cu 0.49145 0.05007 0.49955
 Cu38 Cu 0.50375 -0.04796 0.49894
 C39 C 0.50347 -0.00838 0.59004
 C40 C 0.49213 0.01099 0.40872
 C41 C 0.40564 0.01245 0.49328
 C42 C 0.58961 -0.01073 0.50519
 C43 C 0.50042 -0.01004 -0.05020
 C44 C 0.49197 -0.04535 -0.01394
 C45 C 0.48745 -0.03166 0.03384
 C46 C 0.49154 0.01552 0.04655
 C47 C 0.49997 0.05077 0.01064
 C48 C 0.50370 0.03752 -0.03726
 H49 H 0.50863 0.06515 -0.06520
 H50 H 0.48236 -0.05876 0.06225
 C51 C -0.00795 0.50286 1.04866
 C52 C -0.04045 0.48936 1.01136
 C53 C -0.02564 0.48520 0.96431
 C54 C 0.01984 0.49490 0.95335
 C55 C 0.05272 0.50757 0.99064
 C56 C 0.03838 0.51080 1.03784
 H57 H 0.06408 0.51905 1.06704
 H58 H -0.05108 0.47676 0.93496
 C59 C 0.04545 0.00998 0.49781
 C60 C 0.00353 0.04822 0.50538
 C61 C -0.04298 0.03673 0.50805
 C62 C -0.04904 -0.01175 0.50344
 C63 C -0.00707 -0.05010 0.49600
 C64 C 0.03948 -0.03854 0.49339
 H65 H 0.07206 -0.06816 0.48918
 H66 H -0.07543 0.06645 0.51243
 C67 C -0.24439 0.47485 1.01809
 C68 C -0.26907 0.45673 0.97862
 C69 C -0.32066 0.46013 0.97587
 C70 C -0.34772 0.48088 1.01264
 C71 C -0.32151 0.49780 1.05198
 N72 N -0.27136 0.49505 1.05335
 C73 C -0.19054 0.47518 1.02031
 N74 N -0.17474 0.51435 1.03799
 C75 C -0.12662 0.51874 1.03757
 C76 C -0.09116 0.48229 1.01845
 C77 C -0.10629 0.44081 1.00164
 C78 C -0.15576 0.43709 1.00251
 H79 H -0.33945 0.44685 0.94480
 H80 H -0.34112 0.51450 1.08084
 H81 H -0.11669 0.55162 1.05034
 H82 H -0.07998 0.41173 0.98695
 H83 H -0.24919 0.44164 0.94924
 H84 H -0.16672 0.40494 0.98906
 C85 C 0.25532 0.52519 0.98288
 C86 C 0.28165 0.53406 1.02657
 C87 C 0.33325 0.53046 1.02973
 C88 C 0.35890 0.51903 0.98908
 C89 C 0.33065 0.51165 0.94549
 N90 N 0.28053 0.51399 0.94382
 C91 C 0.20150 0.52491 0.98000
 N92 N 0.18512 0.48760 0.95907
 C93 C 0.13721 0.48263 0.95972
 C94 C 0.10266 0.51641 0.98263
 C95 C 0.11839 0.55632 1.00253
 C96 C 0.16767 0.56056 1.00150
 H97 H 0.35298 0.53650 1.06419
 H98 H 0.34856 0.50248 0.91322
 H99 H 0.12701 0.45091 0.94457
 H100 H 0.09284 0.58353 1.02004
 H101 H 0.26286 0.54207 1.05858
 H102 H 0.17943 0.59097 1.01796
 C103 C -0.00575 -0.25719 0.48859
 C104 C 0.03933 -0.29197 0.48428
 C105 C 0.04063 -0.34279 0.48648
 C106 C -0.00331 -0.35898 0.49176
 C107 C -0.04794 -0.32252 0.49518
 N108 N -0.04784 -0.27331 0.49426
 C109 C -0.00772 -0.20365 0.48848
 N110 N -0.02958 -0.17773 0.52373
 C111 C -0.03053 -0.12863 0.52661
 C112 C -0.00938 -0.10279 0.49211
 C113 C 0.01241 -0.12882 0.45497
 C114 C 0.01366 -0.17930 0.45326
 H115 H 0.07597 -0.36924 0.48369
 H116 H -0.08268 -0.33305 0.49968
 H117 H -0.04685 -0.11018 0.55633
 H118 H 0.02884 -0.11011 0.42752
 H119 H 0.07347 -0.28001 0.48037
 H120 H 0.03088 -0.19910 0.42464
 C121 C 0.00395 0.25488 0.51404
 C122 C -0.03662 0.28875 0.52931
 C123 C -0.03740 0.33947 0.52705
 C124 C 0.00241 0.35635 0.51022
 C125 C 0.04246 0.32124 0.49560
 N126 N 0.04197 0.27209 0.49733
 C127 C 0.00518 0.20136 0.51385
 N128 N 0.02449 0.17620 0.47695
 C129 C 0.02512 0.12723 0.47374
 C130 C 0.00601 0.10075 0.50940
 C131 C -0.01318 0.12578 0.54819
 C132 C -0.01372 0.17605 0.55054
 H133 H -0.06905 0.36543 0.53851
 H134 H 0.07362 0.33294 0.48196
 H135 H 0.03965 0.10932 0.44295
 H136 H -0.02789 0.10639 0.57656
 H137 H -0.06802 0.27643 0.54168
 H138 H -0.02841 0.19474 0.58088
 C139 C 0.50863 -0.02131 -0.25624
 C140 C 0.51379 0.02293 -0.28102
 C141 C 0.51165 0.02733 -0.33199
 C142 C 0.50600 -0.01297 -0.35847
 C143 C 0.50213 -0.05726 -0.33186
 N144 N 0.50275 -0.06002 -0.28214
 C145 C 0.50912 -0.02525 -0.20254
 N146 N 0.54343 -0.00753 -0.17439
 C147 C 0.54298 -0.00552 -0.12536
 C148 C 0.50514 -0.02001 -0.10207
 C149 C 0.46988 -0.03935 -0.13030
 C150 C 0.47232 -0.04284 -0.18047
 H151 H 0.51498 0.06222 -0.35046
 H152 H 0.49742 -0.08924 -0.35054
 H153 H 0.57122 0.00907 -0.10487
 H154 H 0.43950 -0.05001 -0.11405
 H155 H 0.51830 0.05429 -0.26118
 H156 H 0.44420 -0.05648 -0.20230
 C157 C 0.48894 0.02558 0.25293
 C158 C 0.45916 0.06416 0.27489
 C159 C 0.46047 0.05977 0.32597
 C160 C 0.49040 0.01655 0.35480
 C161 C 0.51945 -0.02118 0.33133
 N162 N 0.51840 -0.01559 0.28171
 C163 C 0.48882 0.02823 0.19925
 N164 N 0.53292 0.01091 0.18108
 C165 C 0.53488 0.00939 0.13208
 C166 C 0.49049 0.02454 0.09857
 C167 C 0.44456 0.04184 0.11641
 C168 C 0.44365 0.04469 0.16672
 H169 H 0.43767 0.08972 0.34286
 H170 H 0.54349 -0.05476 0.35246
 H171 H 0.57074 -0.00534 0.11942
 H172 H 0.40947 0.05215 0.09149
 H173 H 0.43576 0.09754 0.25289
 H174 H 0.40787 0.05735 0.18026
 C175 C 0.48965 -0.25160 -0.02816
 C176 C 0.50702 -0.28110 -0.06499
 C177 C 0.50759 -0.33205 -0.06070
 C178 C 0.49166 -0.35370 -0.01949
 C179 C 0.47396 -0.32268 0.01607
 N180 N 0.47315 -0.27317 0.01077
 C181 C 0.48913 -0.19781 -0.02985
 N182 N 0.45300 -0.16666 -0.00916
 C183 C 0.45203 -0.11762 -0.00600
 C184 C 0.48985 -0.09734 -0.02305
 C185 C 0.52749 -0.12873 -0.04467
 C186 C 0.52696 -0.17880 -0.04864
 H187 H 0.52153 -0.35471 -0.08896
 H188 H 0.46090 -0.33778 0.04817
 H189 H 0.42231 -0.09472 0.01090
 H190 H 0.55812 -0.11502 -0.05707
 H191 H 0.51967 -0.26500 -0.09683
 H192 H 0.55708 -0.20283 -0.06411
 C193 C 0.51452 0.25309 0.02851
 C194 C 0.49763 0.28295 0.06526
 C195 C 0.49868 0.33345 0.06126
 C196 C 0.51579 0.35438 0.02043
 C197 C 0.53329 0.32294 -0.01492
 N198 N 0.53243 0.27382 -0.00995
 C199 C 0.51219 0.20007 0.02953
 N200 N 0.54771 0.16715 0.00978
 C201 C 0.54576 0.11887 0.00591
 C202 C 0.50548 0.10142 0.02116
 C203 C 0.46839 0.13478 0.04155
 C204 C 0.47192 0.18386 0.04639
 H205 H 0.48484 0.35644 0.08933
 H206 H 0.54725 0.33748 -0.04671
 H207 H 0.57496 0.09445 -0.01035
 H208 H 0.43548 0.12379 0.05155
 H209 H 0.48383 0.26749 0.09669
 H210 H 0.44209 0.20949 0.06073
 C211 C -0.25282 -0.02524 0.50734
 C212 C -0.27375 -0.06346 0.49058
 C213 C -0.32516 -0.05943 0.49096
 C214 C -0.35558 -0.01714 0.50731
 C215 C -0.33300 0.01984 0.52434
 N216 N -0.28283 0.01478 0.52420
 C217 C -0.19915 -0.02673 0.50704
 N218 N -0.17578 -0.00543 0.54264
 C219 C -0.12744 -0.00215 0.54302
 C220 C -0.10009 -0.01982 0.50527
 C221 C -0.12342 -0.04189 0.46807
 C222 C -0.17282 -0.04591 0.46911
 H223 H -0.34129 -0.08877 0.47756
 H224 H -0.35513 0.05276 0.53771
 H225 H -0.11066 0.01509 0.57234
 H226 H -0.10391 -0.05482 0.43770
 H227 H -0.25068 -0.09617 0.47771
 H228 H -0.19085 -0.06181 0.43950
 C229 C 0.24829 0.02583 0.49189
 C230 C 0.26923 0.06362 0.50974
 C231 C 0.32052 0.06003 0.50907
 C232 C 0.35084 0.01865 0.49124
 C233 C 0.32819 -0.01779 0.47295
 N234 N 0.27816 -0.01322 0.47353
 C235 C 0.19483 0.02659 0.49280
 N236 N 0.17141 0.00514 0.45736
 C237 C 0.12332 0.00120 0.45750
 C238 C 0.09630 0.01839 0.49560
 C239 C 0.11969 0.04055 0.53267
 C240 C 0.16883 0.04518 0.53116
 H241 H 0.33665 0.08898 0.52343
 H242 H 0.35020 -0.04999 0.45840
 H243 H 0.10648 -0.01613 0.42829
 H244 H 0.10046 0.05309 0.56333
 H245 H 0.24629 0.09564 0.52375
 H246 H 0.18689 0.06109 0.56072
 C247 C -0.02187 0.51147 1.25363
 C248 C 0.01844 0.52482 1.28043
 C249 C 0.02250 0.52174 1.33148
 C250 C -0.01398 0.50628 1.35591
 C251 C -0.05404 0.49359 1.32783
 N252 N -0.05664 0.49580 1.27794
 C253 C -0.02547 0.51280 1.19969
 N254 N -0.03420 0.47290 1.17719
 C255 C -0.03184 0.46994 1.12830
 C256 C -0.01959 0.50843 1.09959
 C257 C -0.01303 0.55085 1.12177
 C258 C -0.01579 0.55311 1.17171
 H259 H 0.05394 0.53185 1.35186
 H260 H -0.08263 0.48106 1.34556
 H261 H -0.03703 0.43657 1.11248
 H262 H -0.00407 0.58154 1.10069
 H263 H 0.04713 0.53653 1.26211
 H264 H -0.00923 0.58552 1.18859
 C265 C 0.02489 0.50197 0.74627
 C266 C -0.01502 0.53639 0.71626
 C267 C -0.02047 0.53467 0.66551
 C268 C 0.01442 0.49954 0.64461
 C269 C 0.05427 0.46619 0.67579
 N270 N 0.05802 0.46764 0.72537
 C271 C 0.02937 0.50070 0.80018
 N272 N 0.03695 0.45598 0.82807
 C273 C 0.03656 0.45298 0.87756
 C274 C 0.02853 0.49664 0.90142
 C275 C 0.02261 0.54286 0.87377
 C276 C 0.02270 0.54510 0.82298
 H277 H -0.05159 0.56111 0.64254
 H278 H 0.08172 0.43842 0.66086
 H279 H 0.04111 0.41677 0.89808
 H280 H 0.01584 0.57724 0.89121
 H281 H -0.04244 0.56346 0.73204
 H282 H 0.01677 0.58111 0.80159
   
