data_POSCAR
  _audit_creation_date              2014-09-24
  _audit_creation_method            'ToBaCCo'
  _symmetry_space_group_name_H-M    'P1'
  _symmetry_Int_Tables_number       1
  _symmetry_cell_setting            triclinic
  loop_
  _symmetry_equiv_pos_as_xyz
 x,y,z
_cell_length_a 23.9426
_cell_length_b 23.9474
_cell_length_c 39.1523
_cell_angle_alpha 89.872300
_cell_angle_beta 90.677500
_cell_angle_gamma 90.064800
loop_
  _atom_site_label
  _atom_site_type_symbol
  _atom_site_fract_x
  _atom_site_fract_y
  _atom_site_fract_z
O1 O 0.04490 0.55475 1.03317
 O2 O 0.04593 0.44582 0.96678
 O3 O 0.04699 0.55476 0.96677
 O4 O 0.04600 0.44588 1.03314
 O5 O -0.04612 0.44551 1.03194
 O6 O -0.04504 0.55492 0.96555
 O7 O -0.04619 0.44600 0.96558
 O8 O -0.04722 0.55439 1.03195
 Cu9 Cu 0.05517 0.50034 1.00007
 Cu10 Cu -0.05535 0.50022 0.99863
 C11 C -0.00143 0.57336 1.04384
 C12 C -0.00004 0.42703 0.95496
 C13 C 0.00124 0.57386 0.95485
 C14 C -0.00014 0.42676 1.04378
 O15 O 0.55646 -0.04369 0.53359
 O16 O 0.44495 -0.04380 0.46784
 O17 O 0.55382 -0.04491 0.46721
 O18 O 0.44754 -0.04485 0.53423
 O19 O 0.44735 0.04724 0.53409
 O20 O 0.55420 0.04718 0.46703
 O21 O 0.44531 0.04830 0.46769
 O22 O 0.55629 0.04832 0.53343
 Cu23 Cu 0.50068 -0.05352 0.50074
 Cu24 Cu 0.50080 0.05697 0.50055
 C25 C 0.57579 0.00241 0.54469
 C26 C 0.42587 0.00233 0.45662
 C27 C 0.57247 0.00103 0.45575
 C28 C 0.42895 0.00111 0.54552
 C29 C 0.11026 0.00458 0.26458
 H30 H 0.11356 0.00538 0.23705
 C31 C 0.15853 0.00566 0.28499
 H32 H 0.19922 0.00719 0.27320
 C33 C 0.05330 0.00186 0.31371
 H34 H 0.01232 0.00113 0.32489
 C35 C 0.10045 0.00294 0.33502
 H36 H 0.09557 0.00246 0.36250
 N37 N 0.05898 0.00173 0.27915
 C38 C -0.04927 -0.07703 0.20272
 H39 H -0.08337 -0.04743 0.20183
 C40 C -0.05073 -0.12426 0.18186
 H41 H -0.08597 -0.13110 0.16476
 C42 C 0.03856 -0.10426 0.22590
 H43 H 0.07303 -0.09671 0.24329
 C44 C 0.03874 -0.15203 0.20549
 H45 H 0.07363 -0.18074 0.20698
 Zn46 Zn -0.00469 -0.00095 0.24995
 N47 N -0.00455 -0.06734 0.22367
 C48 C -0.00223 0.05658 0.18640
 N49 N -0.00227 0.06252 0.22098
 C50 C 0.00059 0.11389 0.23573
 C51 C 0.00165 0.16201 0.21547
 C52 C -0.00119 0.10356 0.16524
 C53 C -0.08037 -0.04544 0.29672
 C54 C -0.12744 -0.04690 0.31743
 C55 C -0.15554 0.04244 0.29416
 C56 C -0.10792 0.04227 0.27388
 N57 N -0.07091 -0.00078 0.27601
 H58 H -0.00296 0.01553 0.17510
 H59 H 0.00148 0.11740 0.26327
 H60 H 0.00323 0.20277 0.22739
 H61 H -0.00170 0.09847 0.13775
 H62 H -0.05071 -0.07948 0.29753
 H63 H -0.13409 -0.08209 0.33435
 H64 H -0.18431 0.07728 0.29276
 H65 H -0.10053 0.07670 0.25668
 C66 C -0.00605 -0.16180 0.18305
 C67 C 0.15351 0.00444 0.32053
 C68 C -0.16506 -0.00229 0.31636
 C69 C 0.00037 0.15671 0.17991
 C70 C -0.00083 0.11401 0.76396
 H71 H -0.00169 0.11749 0.73640
 C72 C -0.00187 0.16213 0.78406
 H73 H -0.00342 0.20288 0.77202
 C74 C 0.00194 0.05674 0.81345
 H75 H 0.00265 0.01569 0.82488
 C76 C 0.00091 0.10373 0.83447
 H77 H 0.00141 0.09867 0.86198
 N78 N 0.00199 0.06265 0.77886
 C79 C 0.08016 -0.04513 0.70344
 H80 H 0.05043 -0.07917 0.70262
 C81 C 0.12739 -0.04656 0.68286
 H82 H 0.13407 -0.08173 0.66604
 C83 C 0.10778 0.04251 0.72619
 H84 H 0.10038 0.07689 0.74332
 C85 C 0.15556 0.04270 0.70605
 H86 H 0.18443 0.07751 0.70747
 Zn87 Zn 0.00439 -0.00081 0.75005
 N88 N 0.07068 -0.00052 0.72405
 C89 C -0.05356 0.00195 0.68625
 N90 N -0.05924 0.00183 0.72081
 C91 C -0.11051 0.00465 0.73538
 C92 C -0.15879 0.00571 0.71498
 C93 C -0.10072 0.00300 0.66494
 C94 C 0.04879 -0.07692 0.79748
 C95 C 0.05022 -0.12429 0.81835
 C96 C -0.03916 -0.15217 0.79464
 C97 C -0.03896 -0.10426 0.77422
 N98 N 0.00414 -0.06724 0.77647
 H99 H -0.01258 0.00123 0.67508
 H100 H -0.11381 0.00544 0.76291
 H101 H -0.19947 0.00721 0.72676
 H102 H -0.09585 0.00252 0.63747
 H103 H 0.08289 -0.04725 0.79839
 H104 H 0.08543 -0.13115 0.83548
 H105 H -0.07402 -0.18098 0.79312
 H106 H -0.07338 -0.09671 0.75678
 C107 C 0.16513 -0.00199 0.68397
 C108 C -0.00061 0.15688 0.81964
 C109 C 0.00558 -0.16197 0.81712
 C110 C -0.15378 0.00448 0.67944
 C111 C -0.00385 -0.29471 0.11796
 C112 C -0.05399 -0.31725 0.10547
 C113 C -0.05321 -0.36064 0.08166
 C114 C -0.00217 -0.38205 0.06998
 C115 C 0.04804 -0.35953 0.08298
 C116 C 0.04714 -0.31611 0.10680
 C117 C -0.00476 -0.24859 0.14144
 C118 C -0.00548 -0.20934 0.16066
 H119 H -0.09369 -0.30091 0.11388
 H120 H -0.09260 -0.37702 0.07218
 H121 H 0.08801 -0.37504 0.07452
 H122 H 0.08621 -0.29887 0.11626
 C123 C 0.00003 0.29282 0.11693
 C124 C 0.05052 0.31593 0.10609
 C125 C 0.05046 0.36009 0.08268
 C126 C -0.00021 0.38168 0.06974
 C127 C -0.05079 0.35866 0.08116
 C128 C -0.05060 0.31448 0.10458
 C129 C 0.00026 0.24565 0.13976
 C130 C 0.00043 0.20546 0.15836
 H131 H 0.08995 0.29939 0.11542
 H132 H 0.09011 0.37683 0.07442
 H133 H -0.09048 0.37429 0.07169
 H134 H -0.08993 0.29679 0.11274
 C135 C 0.29805 -0.00025 0.61960
 C136 C 0.31932 0.05057 0.60770
 C137 C 0.36250 0.05113 0.58396
 C138 C 0.38490 0.00076 0.57176
 C139 C 0.36370 -0.05009 0.58424
 C140 C 0.32054 -0.05054 0.60797
 C141 C 0.25197 -0.00088 0.64287
 C142 C 0.21272 -0.00146 0.66187
 H143 H 0.30211 0.08974 0.61649
 H144 H 0.37786 0.09097 0.57486
 H145 H 0.37999 -0.08960 0.57539
 H146 H 0.30430 -0.09011 0.61696
 C147 C -0.29069 0.00358 0.61627
 C148 C -0.31299 -0.04717 0.60487
 C149 C -0.35766 -0.04770 0.58153
 C150 C -0.38069 0.00272 0.56914
 C151 C -0.35827 0.05357 0.58127
 C152 C -0.31363 0.05388 0.60459
 C153 C -0.24316 0.00407 0.63912
 C154 C -0.20273 0.00440 0.65776
 H155 H -0.29546 -0.08637 0.61373
 H156 H -0.37362 -0.08770 0.57296
 H157 H -0.37469 0.09329 0.57250
 H158 H -0.29660 0.09341 0.61323
 C159 C 0.00350 -0.29558 0.88205
 C160 C 0.05364 -0.31797 0.89457
 C161 C 0.05296 -0.36160 0.91834
 C162 C 0.00192 -0.38354 0.93007
 C163 C -0.04833 -0.36103 0.91687
 C164 C -0.04743 -0.31738 0.89310
 C165 C 0.00436 -0.24919 0.85864
 C166 C 0.00504 -0.20974 0.83947
 H167 H 0.09331 -0.30133 0.88621
 H168 H 0.09256 -0.37765 0.92772
 H169 H -0.08847 -0.37664 0.92512
 H170 H -0.08651 -0.30026 0.88359
 C171 C -0.00024 0.29311 0.88216
 C172 C 0.05040 0.31489 0.89444
 C173 C 0.05059 0.35909 0.91772
 C174 C 0.00002 0.38202 0.92908
 C175 C -0.05065 0.36033 0.91618
 C176 C -0.05072 0.31615 0.89291
 C177 C -0.00047 0.24589 0.85949
 C178 C -0.00065 0.20565 0.84104
 H179 H 0.08973 0.29725 0.88634
 H180 H 0.09029 0.37479 0.92716
 H181 H -0.09030 0.37700 0.92439
 H182 H -0.09016 0.29953 0.88362
 C183 C -0.29723 -0.00046 0.38127
 C184 C -0.31969 -0.05073 0.39317
 C185 C -0.36261 -0.05024 0.41706
 C186 C -0.38362 0.00064 0.42942
 C187 C -0.36123 0.05098 0.41697
 C188 C -0.31828 0.05038 0.39307
 C189 C -0.25143 -0.00113 0.35781
 C190 C -0.21240 -0.00174 0.33864
 H191 H -0.30361 -0.09032 0.38427
 H192 H -0.37890 -0.08973 0.42611
 H193 H -0.37645 0.09083 0.42597
 H194 H -0.30110 0.08954 0.38408
 C195 C 0.29032 0.00351 0.38376
 C196 C 0.31227 -0.04727 0.39549
 C197 C 0.35691 -0.04777 0.41885
 C198 C 0.38012 0.00263 0.43083
 C199 C 0.35818 0.05346 0.41854
 C200 C 0.31357 0.05383 0.39519
 C201 C 0.24285 0.00402 0.36088
 C202 C 0.20245 0.00436 0.34221
 H203 H 0.29449 -0.08648 0.38686
 H204 H 0.37280 -0.08758 0.42780
 H205 H 0.37507 0.09298 0.42724
 H206 H 0.29681 0.09338 0.38633
   
