data_POSCAR
  _audit_creation_date              2014-09-24
  _audit_creation_method            'ToBaCCo'
  _symmetry_space_group_name_H-M    'P1'
  _symmetry_Int_Tables_number       1
  _symmetry_cell_setting            triclinic
  loop_
  _symmetry_equiv_pos_as_xyz
 x,y,z
_cell_length_a 30.6170
_cell_length_b 29.1441
_cell_length_c 40.6436
_cell_angle_alpha 90.041600
_cell_angle_beta 89.893000
_cell_angle_gamma 118.245800
loop_
  _atom_site_label
  _atom_site_type_symbol
  _atom_site_fract_x
  _atom_site_fract_y
  _atom_site_fract_z
C1 C -0.02323 0.48405 1.24880
 C2 C 0.02712 0.50865 1.24821
 C3 C 0.05596 0.52255 1.27919
 C4 C 0.05559 0.52084 1.21701
 C5 C -0.05384 0.46983 1.21841
 C6 C -0.05024 0.47077 1.28046
 C7 C 0.07074 0.57086 1.29420
 C8 C 0.09983 0.58449 1.32269
 C9 C 0.11521 0.55003 1.33689
 C10 C 0.09661 0.49996 1.32252
 C11 C 0.06846 0.48696 1.29375
 C12 C 0.08959 0.57262 1.20944
 C13 C 0.11496 0.58482 1.17948
 C14 C 0.10691 0.54542 1.15671
 C15 C 0.07423 0.49340 1.16465
 C16 C 0.04865 0.48117 1.19463
 C17 C -0.09189 0.41853 1.21426
 C18 C -0.12202 0.40469 1.18638
 C19 C -0.11488 0.44198 1.16226
 C20 C -0.07664 0.49317 1.16609
 C21 C -0.04661 0.50716 1.19414
 C22 C -0.05715 0.42642 1.29801
 C23 C -0.08363 0.41346 1.32758
 C24 C -0.10303 0.44499 1.33999
 C25 C -0.09604 0.48939 1.32242
 C26 C -0.06987 0.50213 1.29274
 H27 H 0.06062 0.59850 1.28345
 H28 H 0.11267 0.62351 1.33210
 H29 H 0.10274 0.46991 1.33388
 H30 H 0.05592 0.44877 1.28297
 H31 H 0.09564 0.60378 1.22634
 H32 H 0.14050 0.62510 1.17382
 H33 H 0.02309 0.44090 1.20027
 H34 H -0.09822 0.38908 1.23259
 H35 H -0.15124 0.36494 1.18368
 H36 H -0.07073 0.52241 1.14769
 H37 H -0.01815 0.54718 1.19708
 H38 H -0.04247 0.40169 1.28861
 H39 H -0.08908 0.37887 1.34078
 H40 H -0.11125 0.51377 1.33160
 H41 H -0.06489 0.53636 1.27930
 H42 H 0.06797 0.46252 1.14743
 C43 C 0.51787 0.49399 1.24707
 C44 C 0.48790 0.51672 1.24679
 C45 C 0.47224 0.53146 1.27783
 C46 C 0.46911 0.52782 1.21573
 C47 C 0.53497 0.48015 1.21623
 C48 C 0.53395 0.48055 1.27842
 C49 C 0.42200 0.50664 1.28669
 C50 C 0.40690 0.51851 1.31649
 C51 C 0.44175 0.55589 1.33775
 C52 C 0.49188 0.58209 1.32827
 C53 C 0.50710 0.56957 1.29867
 C54 C 0.44363 0.48849 1.19237
 C55 C 0.42776 0.50021 1.16281
 C56 C 0.43642 0.55113 1.15653
 C57 C 0.46046 0.59004 1.18017
 C58 C 0.47670 0.57847 1.20957
 C59 C 0.56100 0.51779 1.19204
 C60 C 0.57420 0.50325 1.16236
 C61 C 0.56158 0.45097 1.15657
 C62 C 0.53717 0.41376 1.18118
 C63 C 0.52407 0.42826 1.21081
 C64 C 0.58468 0.50138 1.28530
 C65 C 0.60031 0.48960 1.31489
 C66 C 0.56540 0.45674 1.33800
 C67 C 0.51468 0.43489 1.33081
 C68 C 0.49904 0.44665 1.30120
 H69 H 0.39465 0.47731 1.27078
 H70 H 0.36799 0.49829 1.32312
 H71 H 0.51917 0.61204 1.34387
 H72 H 0.54597 0.58956 1.29194
 H73 H 0.43631 0.44889 1.19695
 H74 H 0.40875 0.46970 1.14485
 H75 H 0.49590 0.60924 1.22734
 H76 H 0.57044 0.55818 1.19600
 H77 H 0.59351 0.53250 1.14371
 H78 H 0.52780 0.37338 1.17723
 H79 H 0.50432 0.39876 1.22924
 H80 H 0.61211 0.52717 1.26787
 H81 H 0.63962 0.50605 1.31983
 H82 H 0.48728 0.40889 1.34818
 H83 H 0.45975 0.42929 1.29599
 H84 H 0.46701 0.62942 1.17568
 C85 C 0.50138 1.02321 1.25386
 C86 C 0.47152 0.97087 1.25362
 C87 C 0.45410 0.94084 1.28453
 C88 C 0.45568 0.94055 1.22265
 C89 C 0.51996 1.05368 1.22311
 C90 C 0.51905 1.05246 1.28498
 C91 C 0.46972 0.90416 1.29242
 C92 C 0.45278 0.87446 1.32102
 C93 C 0.41835 0.87949 1.34174
 C94 C 0.40382 0.91748 1.33408
 C95 C 0.42150 0.94782 1.30566
 C96 C 0.49066 0.94174 1.19974
 C97 C 0.47498 0.91228 1.17092
 C98 C 0.42428 0.88075 1.16497
 C99 C 0.38934 0.87924 1.18782
 C100 C 0.40496 0.90890 1.21653
 C101 C 0.48730 1.05355 1.19895
 C102 C 0.50569 1.08036 1.16941
 C103 C 0.55718 1.10755 1.16328
 C104 C 0.58962 1.10956 1.18849
 C105 C 0.57118 1.08277 1.21795
 C106 C 0.50690 1.09193 1.29246
 C107 C 0.52591 1.12220 1.32063
 C108 C 0.55882 1.11466 1.34137
 C109 C 0.56931 1.07353 1.33431
 C110 C 0.54991 1.04299 1.30622
 H111 H 0.49510 0.89858 1.27636
 H112 H 0.46500 0.84586 1.32617
 H113 H 0.37912 0.92400 1.35024
 H114 H 0.40942 0.97634 1.29995
 H115 H 0.52998 0.96505 1.20436
 H116 H 0.50228 0.91321 1.15356
 H117 H 0.37750 0.90722 1.23402
 H118 H 0.44761 1.03254 1.20295
 H119 H 0.47955 1.08054 1.15156
 H120 H 0.62942 1.13004 1.18496
 H121 H 0.59697 1.08360 1.23645
 H122 H 0.48308 1.09961 1.27623
 H123 H 0.51675 1.15326 1.32531
 H124 H 0.59253 1.06497 1.35056
 H125 H 0.55962 1.01258 1.30072
 H126 H 0.35009 0.85460 1.18357
 C127 C 1.02029 0.50156 0.75098
 C128 C 0.97004 0.47615 0.75099
 C129 C 0.94128 0.46250 0.72003
 C130 C 0.94129 0.46185 0.78200
 C131 C 1.04891 0.51812 0.78186
 C132 C 1.04968 0.51473 0.72019
 C133 C 0.90848 0.48258 0.71407
 C134 C 0.88290 0.47248 0.68433
 C135 C 0.88986 0.44222 0.66014
 C136 C 0.92130 0.42055 0.66650
 C137 C 0.94684 0.43056 0.69632
 C138 C 0.94055 0.50012 0.80260
 C139 C 0.91092 0.48565 0.83088
 C140 C 0.88164 0.43278 0.83877
 C141 C 0.88381 0.39472 0.81866
 C142 C 0.91291 0.40915 0.79024
 C143 C 1.05175 0.48173 0.80301
 C144 C 1.08244 0.49856 0.83068
 C145 C 1.11138 0.55224 0.83743
 C146 C 1.10552 0.58806 0.81704
 C147 C 1.07538 0.57122 0.78925
 C148 C 1.08024 0.49208 0.71397
 C149 C 1.10981 0.50540 0.68579
 C150 C 1.11094 0.54322 0.66370
 C151 C 1.07830 0.56408 0.66944
 C152 C 1.04834 0.55031 0.69757
 H153 H 0.90346 0.50695 0.73220
 H154 H 0.85801 0.48863 0.68001
 H155 H 0.92644 0.39643 0.64824
 H156 H 0.97127 0.41390 0.70079
 H157 H 0.96214 0.54098 0.79642
 H158 H 0.91002 0.51556 0.84625
 H159 H 0.91330 0.37923 0.77459
 H160 H 1.03135 0.44050 0.79753
 H161 H 1.08542 0.46955 0.84575
 H162 H 1.12430 0.62933 0.82258
 H163 H 1.07272 0.59966 0.77340
 H164 H 1.08094 0.46375 0.73090
 H165 H 1.13179 0.48586 0.68124
 H166 H 1.07762 0.59302 0.65305
 H167 H 1.02486 0.56814 0.70205
 H168 H 0.86222 0.35380 0.82470
 C169 C 0.49442 0.51862 0.74966
 C170 C 0.52441 0.49598 0.75031
 C171 C 0.54317 0.48408 0.71958
 C172 C 0.53816 0.47977 0.78147
 C173 C 0.47802 0.53386 0.78024
 C174 C 0.47692 0.52980 0.71812
 C175 C 0.53126 0.43236 0.71251
 C176 C 0.54548 0.41990 0.68262
 C177 C 0.57206 0.45906 0.65952
 C178 C 0.58579 0.51108 0.66704
 C179 C 0.57142 0.52356 0.69695
 C180 C 0.50155 0.44524 0.80313
 C181 C 0.51506 0.42830 0.83162
 C182 C 0.56525 0.44537 0.83859
 C183 C 0.60182 0.48031 0.81723
 C184 C 0.58834 0.49713 0.78872
 C185 C 0.51250 0.56577 0.80389
 C186 C 0.49645 0.58076 0.83216
 C187 C 0.44590 0.56461 0.83682
 C188 C 0.41145 0.53296 0.81327
 C189 C 0.42741 0.51774 0.78513
 C190 C 0.48650 0.58081 0.71105
 C191 C 0.47191 0.59230 0.68100
 C192 C 0.44769 0.55297 0.65754
 C193 C 0.43659 0.50159 0.66500
 C194 C 0.45094 0.49003 0.69516
 H195 H 0.50972 0.40149 0.72976
 H196 H 0.53513 0.37964 0.67720
 H197 H 0.60669 0.54171 0.64950
 H198 H 0.58150 0.56378 0.70226
 H199 H 0.46263 0.43076 0.79765
 H200 H 0.48650 0.40111 0.84789
 H201 H 0.61701 0.52354 0.77219
 H202 H 0.55179 0.57958 0.80024
 H203 H 0.52341 0.60572 0.85006
 H204 H 0.37233 0.52061 0.81656
 H205 H 0.40030 0.49341 0.76709
 H206 H 0.50598 0.61186 0.72860
 H207 H 0.47980 0.63196 0.67588
 H208 H 0.41725 0.47064 0.64737
 H209 H 0.44219 0.45019 0.70051
 H210 H 0.64069 0.49357 0.82229
 C211 C 0.48647 -0.02570 0.74856
 C212 C 0.52065 0.02574 0.74818
 C213 C 0.53619 0.05588 0.71705
 C214 C 0.54181 0.05548 0.77899
 C215 C 0.46659 -0.05517 0.77982
 C216 C 0.46730 -0.05552 0.71755
 C217 C 0.58661 0.08273 0.70864
 C218 C 0.60208 0.11425 0.68064
 C219 C 0.56747 0.12037 0.66104
 C220 C 0.51689 0.09264 0.66903
 C221 C 0.50136 0.06078 0.69693
 C222 C 0.56599 0.03937 0.80203
 C223 C 0.58143 0.06512 0.83225
 C224 C 0.57299 0.10728 0.83966
 C225 C 0.55101 0.12488 0.81607
 C226 C 0.53574 0.09933 0.78590
 C227 C 0.44719 -0.03655 0.80470
 C228 C 0.42978 -0.06413 0.83412
 C229 C 0.42882 -0.11258 0.83889
 C230 C 0.44824 -0.13102 0.81366
 C231 C 0.46657 -0.10285 0.78453
 C232 C 0.41647 -0.07903 0.71074
 C233 C 0.39732 -0.11042 0.68295
 C234 C 0.42825 -0.12094 0.66194
 C235 C 0.47980 -0.09471 0.66803
 C236 C 0.49901 -0.06269 0.69566
 H237 H 0.61397 0.07950 0.72393
 H238 H 0.64118 0.13476 0.67457
 H239 H 0.48964 0.09671 0.65412
 H240 H 0.46236 0.04098 0.70331
 H241 H 0.57163 0.00607 0.79693
 H242 H 0.59859 0.05130 0.85020
 H243 H 0.51743 0.11254 0.76842
 H244 H 0.44605 -0.00025 0.80156
 H245 H 0.41811 -0.04672 0.85346
 H246 H 0.44803 -0.16815 0.81595
 H247 H 0.48104 -0.11824 0.76564
 H248 H 0.39157 -0.07310 0.72706
 H249 H 0.35802 -0.12679 0.67799
 H250 H 0.50517 -0.10117 0.65251
 H251 H 0.53842 -0.04482 0.70057
 H252 H 0.54453 0.15759 0.82142
 O253 O 0.39858 0.67519 0.96014
 O254 O 0.39699 0.76114 0.97523
 C255 C 0.36566 0.76830 0.95849
 O256 O 0.31959 0.74306 0.96387
 O257 O 0.23809 0.65640 0.96934
 C258 C 0.23502 0.61903 0.95155
 O259 O 0.25772 0.59332 0.95773
 O260 O 0.34121 0.59243 0.96779
 C261 C 0.37666 0.62785 0.95145
 O262 O 0.39946 0.65214 1.02451
 O263 O 0.39154 0.73463 1.03947
 C264 C 0.36503 0.75551 1.04753
 O265 O 0.32905 0.75234 1.03024
 O266 O 0.24898 0.66327 1.03563
 C267 C 0.22820 0.61451 1.04010
 O268 O 0.23797 0.58398 1.02296
 O269 O 0.32313 0.58779 1.03342
 C270 C 0.36885 0.61187 1.04015
 Cr271 Cr 0.39405 0.70438 0.99980
 Cr272 Cr 0.28535 0.70248 0.99976
 Cr273 Cr 0.29122 0.59211 0.99557
 O274 O 0.32337 0.66629 0.99840
 O275 O 0.59680 0.33664 0.96982
 O276 O 0.60028 0.24963 0.96529
 C277 C 0.62512 0.22600 0.95989
 O278 O 0.66333 0.23427 0.97642
 O279 O 0.74177 0.32133 0.96451
 C280 C 0.76210 0.36898 0.95672
 O281 O 0.75804 0.40323 0.97382
 O282 O 0.67367 0.40089 0.96033
 C283 C 0.62824 0.37470 0.95276
 O284 O 0.59727 0.32828 1.03655
 O285 O 0.59815 0.23982 1.03111
 C286 C 0.62971 0.23289 1.04776
 O287 O 0.67580 0.25549 1.04153
 O288 O 0.75830 0.34079 1.03007
 C289 C 0.76043 0.37874 1.04678
 O290 O 0.73789 0.40390 1.03868
 O291 O 0.65714 0.40795 1.02480
 C292 C 0.61950 0.37695 1.04136
 Cr293 Cr 0.60074 0.29004 1.00074
 Cr294 Cr 0.70857 0.28949 1.00313
 Cr295 Cr 0.70549 0.40120 0.99946
 O296 O 0.67135 0.32672 1.00113
 O297 O 0.66719 0.42361 0.52524
 O298 O 0.74828 0.41837 0.53611
 C299 C 0.77097 0.39276 0.54257
 O300 O 0.76483 0.35303 0.52626
 O301 O 0.68100 0.27157 0.53884
 C302 C 0.63503 0.25009 0.54501
 O303 O 0.60378 0.25397 0.52620
 O304 O 0.60563 0.34353 0.53548
 C305 C 0.62926 0.39194 0.54150
 O306 O 0.68137 0.41971 0.45980
 O307 O 0.76457 0.41793 0.47056
 C308 C 0.77082 0.38358 0.45489
 O309 O 0.74746 0.33537 0.46159
 O310 O 0.66552 0.24912 0.47391
 C311 C 0.63142 0.24630 0.45495
 O312 O 0.60814 0.27172 0.46035
 O313 O 0.60431 0.35757 0.47008
 C314 C 0.63537 0.39642 0.45362
 Cr315 Cr 0.71410 0.41723 0.49792
 Cr316 Cr 0.71336 0.30361 0.50004
 Cr317 Cr 0.60798 0.30785 0.49806
 O318 O 0.67854 0.34314 0.49866
 O319 O 0.34050 0.57932 0.52638
 O320 O 0.25510 0.57476 0.53885
 C321 C 0.23039 0.59781 0.54667
 O322 O 0.22928 0.63324 0.52894
 O323 O 0.30749 0.72226 0.54058
 C324 C 0.35315 0.74683 0.54785
 O325 O 0.38666 0.74562 0.52975
 O326 O 0.39543 0.66165 0.53774
 C327 C 0.37709 0.61309 0.54263
 O328 O 0.32417 0.58297 0.46157
 O329 O 0.23587 0.57239 0.47351
 C330 C 0.22881 0.60415 0.45573
 O331 O 0.24611 0.65176 0.46339
 O332 O 0.32092 0.74313 0.47564
 C333 C 0.35723 0.75064 0.45723
 O334 O 0.38517 0.73069 0.46338
 O335 O 0.39857 0.65007 0.47210
 C336 C 0.36978 0.61060 0.45516
 Cr337 Cr 0.28984 0.57997 0.50011
 Cr338 Cr 0.27730 0.68631 0.50209
 Cr339 Cr 0.38892 0.69573 0.50077
 O340 O 0.31882 0.65398 0.50127
 C341 C 0.37045 0.59717 0.39550
 C342 C 0.38779 0.58404 0.36727
 C343 C 0.42500 0.56902 0.36901
 C344 C 0.44457 0.56652 0.40025
 C345 C 0.42746 0.58092 0.42900
 C346 C 0.39012 0.59633 0.42639
 C347 C 0.44722 0.57769 0.45960
 N348 N 0.48151 0.56080 0.46120
 N349 N 0.49701 0.54651 0.43436
 C350 C 0.47954 0.54844 0.40403
 H351 H 0.34181 0.60880 0.39318
 H352 H 0.37221 0.58601 0.34372
 H353 H 0.43535 0.58779 0.48229
 H354 H 0.49265 0.53502 0.38336
 C355 C 0.41946 0.81300 0.41898
 C356 C 0.43445 0.84303 0.39064
 C357 C 0.40011 0.84774 0.37000
 C358 C 0.34869 0.81940 0.37801
 C359 C 0.33321 0.78852 0.40721
 C360 C 0.36934 0.78539 0.42795
 C361 C 0.28180 0.75978 0.41337
 N362 N 0.24873 0.76110 0.39184
 N363 N 0.26316 0.78850 0.36415
 C364 C 0.31170 0.81704 0.35633
 H365 H 0.44777 0.81129 0.43411
 H366 H 0.47381 0.86406 0.38530
 H367 H 0.26679 0.73551 0.43458
 H368 H 0.32049 0.83609 0.33267
 C369 C 0.16773 0.60769 0.41755
 C370 C 0.14154 0.59672 0.38811
 C371 C 0.14547 0.56384 0.36406
 C372 C 0.18043 0.54510 0.37010
 C373 C 0.20391 0.55277 0.40139
 C374 C 0.19832 0.58559 0.42517
 C375 C 0.23456 0.52958 0.40677
 N376 N 0.24549 0.50594 0.38180
 N377 N 0.22823 0.50416 0.35161
 C378 C 0.19702 0.52371 0.34480
 H379 H 0.16324 0.63330 0.43500
 H380 H 0.11583 0.61218 0.38541
 H381 H 0.25019 0.52966 0.43029
 H382 H 0.18671 0.52363 0.31940
 C383 C 0.58724 0.37707 0.40228
 C384 C 0.57032 0.39149 0.37441
 C385 C 0.58205 0.44353 0.36908
 C386 C 0.60990 0.48153 0.39305
 C387 C 0.62739 0.46689 0.42141
 C388 C 0.61668 0.41428 0.42560
 C389 C 0.65369 0.50530 0.44514
 N390 N 0.66212 0.55490 0.44048
 N391 N 0.64575 0.56861 0.41387
 C392 C 0.61980 0.53367 0.39009
 H393 H 0.57831 0.33660 0.40526
 H394 H 0.54873 0.36192 0.35645
 H395 H 0.66684 0.49633 0.46762
 H396 H 0.60655 0.54685 0.36939
 C397 C 0.56585 0.18797 0.41722
 C398 C 0.54821 0.15733 0.38930
 C399 C 0.57975 0.14722 0.36897
 C400 C 0.63125 0.17077 0.37682
 C401 C 0.64932 0.20175 0.40578
 C402 C 0.61596 0.21054 0.42614
 C403 C 0.70067 0.22494 0.41212
 N404 N 0.73153 0.21889 0.39073
 N405 N 0.71495 0.19186 0.36307
 C406 C 0.66623 0.16828 0.35519
 H407 H 0.53964 0.19404 0.43213
 H408 H 0.50887 0.14003 0.38415
 H409 H 0.71743 0.24861 0.43331
 H410 H 0.65590 0.14938 0.33153
 C411 C 0.79080 0.37128 0.39790
 C412 C 0.82106 0.38601 0.37017
 C413 C 0.86758 0.43033 0.37067
 C414 C 0.88474 0.45948 0.40009
 C415 C 0.85417 0.44415 0.42857
 C416 C 0.80622 0.40024 0.42709
 C417 C 0.87351 0.47248 0.45780
 N418 N 0.91960 0.51399 0.45802
 N419 N 0.94789 0.52881 0.43114
 C420 C 0.93215 0.50292 0.40225
 H421 H 0.75443 0.33761 0.39629
 H422 H 0.80765 0.36321 0.34786
 H423 H 0.85309 0.46159 0.48065
 H424 H 0.95708 0.51614 0.38139
 C425 C 0.63803 0.43506 1.08941
 C426 C 0.62423 0.45276 1.11737
 C427 C 0.57417 0.43486 1.12494
 C428 C 0.53730 0.40061 1.10290
 C429 C 0.55131 0.38261 1.07435
 C430 C 0.60219 0.39871 1.06825
 C431 C 0.51378 0.35020 1.05244
 N432 N 0.46568 0.33613 1.05917
 N433 N 0.45255 0.35258 1.08613
 C434 C 0.48665 0.38445 1.10814
 H435 H 0.67710 0.44838 1.08498
 H436 H 0.65283 0.47932 1.13385
 H437 H 0.52212 0.33687 1.02966
 H438 H 0.47387 0.39745 1.12923
 C439 C 0.84120 0.40878 1.07468
 C440 C 0.87148 0.42517 1.10245
 C441 C 0.85199 0.42725 1.13330
 C442 C 0.80101 0.41309 1.13616
 C443 C 0.77014 0.39609 1.10797
 C444 C 0.79074 0.39457 1.07695
 C445 C 0.71923 0.37999 1.11202
 N446 N 0.70122 0.38280 1.14203
 N447 N 0.73052 0.40029 1.16827
 C448 C 0.77972 0.41555 1.16638
 H449 H 0.85736 0.40761 1.05115
 H450 H 0.91034 0.43567 1.09997
 H451 H 0.69343 0.36476 1.09177
 H452 H 0.80169 0.42958 1.18850
 C453 C 0.63415 0.21561 1.10651
 C454 C 0.61680 0.18504 1.13459
 C455 C 0.57618 0.13450 1.13331
 C456 C 0.55554 0.11340 1.10189
 C457 C 0.57295 0.14518 1.07334
 C458 C 0.61172 0.19703 1.07603
 C459 C 0.55256 0.12311 1.04263
 N460 N 0.51787 0.07237 1.04062
 N461 N 0.50275 0.04199 1.06712
 C462 C 0.52078 0.06043 1.09748
 H463 H 0.66429 0.25499 1.10883
 H464 H 0.63372 0.20260 1.15785
 H465 H 0.56484 0.14513 1.02007
 H466 H 0.50887 0.03291 1.11756
 C467 C 0.35941 0.58145 1.09753
 C468 C 0.37592 0.56755 1.12579
 C469 C 0.41981 0.56389 1.12543
 C470 C 0.44727 0.57353 1.09585
 C471 C 0.43060 0.58791 1.06699
 C472 C 0.38675 0.59301 1.06817
 C473 C 0.45796 0.59546 1.03780
 N474 N 0.49978 0.59039 1.03796
 N475 N 0.51596 0.57805 1.06522
 C476 C 0.49118 0.56945 1.09415
 H477 H 0.32565 0.58474 1.09890
 H478 H 0.35452 0.56011 1.14827
 H479 H 0.44625 0.60448 1.01473
 H480 H 0.50588 0.55927 1.11549
 C481 C 0.19781 0.55980 1.08991
 C482 C 0.16877 0.54338 1.11827
 C483 C 0.13285 0.55909 1.12462
 C484 C 0.12399 0.58941 1.10097
 C485 C 0.15344 0.60604 1.07206
 C486 C 0.19176 0.59246 1.06713
 C487 C 0.14272 0.63490 1.04869
 N488 N 0.10556 0.64679 1.05433
 N489 N 0.07819 0.63151 1.08159
 C490 C 0.08599 0.60313 1.10503
 H491 H 0.22672 0.54880 1.08643
 H492 H 0.17564 0.51983 1.13603
 H493 H 0.16272 0.64722 1.02570
 H494 H 0.06196 0.59096 1.12636
 C495 C 0.38827 0.83764 1.07750
 C496 C 0.40367 0.86823 1.10580
 C497 C 0.40780 0.84691 1.13575
 C498 C 0.39566 0.79371 1.13747
 C499 C 0.37989 0.76257 1.10877
 C500 C 0.37714 0.78519 1.07848
 C501 C 0.36652 0.70937 1.11155
 N502 N 0.37020 0.68953 1.14096
 N503 N 0.38607 0.71914 1.16778
 C504 C 0.39889 0.77049 1.16707
 H505 H 0.38620 0.85532 1.05451
 H506 H 0.41269 0.90889 1.10434
 H507 H 0.35258 0.68321 1.09080
 H508 H 0.41138 0.79261 1.18964
 C509 C 0.64859 0.44382 0.59237
 C510 C 0.63488 0.45991 0.62103
 C511 C 0.58505 0.44513 0.62742
 C512 C 0.54854 0.41583 0.60372
 C513 C 0.56247 0.39955 0.57447
 C514 C 0.61282 0.41246 0.56935
 C515 C 0.52551 0.37192 0.55098
 N516 N 0.47789 0.36075 0.55687
 N517 N 0.46476 0.37563 0.58450
 C518 C 0.49841 0.40289 0.60807
 H519 H 0.68727 0.45427 0.58874
 H520 H 0.66316 0.48266 0.63889
 H521 H 0.53404 0.35999 0.52772
 H522 H 0.48576 0.41476 0.62973
 C523 C 0.58259 0.16633 0.57300
 C524 C 0.56648 0.13512 0.60104
 C525 C 0.58419 0.15598 0.63230
 C526 C 0.61747 0.21002 0.63540
 C527 C 0.63422 0.24162 0.60683
 C528 C 0.61719 0.21915 0.57541
 C529 C 0.66647 0.29527 0.61078
 N530 N 0.68094 0.31550 0.64131
 N531 N 0.66503 0.28590 0.66814
 C532 C 0.63365 0.23404 0.66627
 H533 H 0.56886 0.14885 0.54914
 H534 H 0.54063 0.09407 0.59828
 H535 H 0.67977 0.32153 0.59001
 H536 H 0.62112 0.21241 0.68898
 C537 C 0.80029 0.36883 0.59267
 C538 C 0.82875 0.38055 0.62108
 C539 C 0.86304 0.43203 0.62857
 C540 C 0.87015 0.47241 0.60628
 C541 C 0.84096 0.46051 0.57731
 C542 C 0.80496 0.40826 0.57096
 C543 C 0.85008 0.50128 0.55524
 N544 N 0.88556 0.55046 0.56208
 N545 N 0.91280 0.56162 0.58930
 C546 C 0.90649 0.52432 0.61154
 H547 H 0.77330 0.32862 0.58808
 H548 H 0.82315 0.34926 0.63779
 H549 H 0.83021 0.49460 0.53234
 H550 H 0.93047 0.53554 0.63282
 C551 C 0.36506 0.55544 0.59009
 C552 C 0.38193 0.54136 0.61810
 C553 C 0.43251 0.56551 0.62569
 C554 C 0.46708 0.60206 0.60336
 C555 C 0.44988 0.61662 0.57485
 C556 C 0.39814 0.59471 0.56909
 C557 C 0.48528 0.65140 0.55256
 N558 N 0.53434 0.67087 0.55889
 N559 N 0.55044 0.65759 0.58580
 C560 C 0.51857 0.62372 0.60815
 H561 H 0.32552 0.53692 0.58557
 H562 H 0.35509 0.51266 0.63463
 H563 H 0.47467 0.66225 0.52974
 H564 H 0.53384 0.61335 0.62907
 C565 C 0.41409 0.82577 0.57707
 C566 C 0.43320 0.85720 0.60471
 C567 C 0.40831 0.84374 0.63514
 C568 C 0.36379 0.79518 0.63751
 C569 C 0.34327 0.76395 0.60888
 C570 C 0.36901 0.77948 0.57825
 C571 C 0.29890 0.71679 0.61255
 N572 N 0.27787 0.70119 0.64259
 N573 N 0.29861 0.72868 0.66953
 C574 C 0.34113 0.77436 0.66812
 H575 H 0.43469 0.83831 0.55421
 H576 H 0.46708 0.89358 0.60173
 H577 H 0.28078 0.69113 0.59233
 H578 H 0.35739 0.79285 0.69118
 C579 C 0.15298 0.57623 0.57697
 C580 C 0.12442 0.56442 0.60547
 C581 C 0.14308 0.55893 0.63602
 C582 C 0.19352 0.56906 0.63760
 C583 C 0.22225 0.58010 0.60827
 C584 C 0.20133 0.58299 0.57765
 C585 C 0.27232 0.59159 0.61097
 N586 N 0.29229 0.59262 0.64083
 N587 N 0.26604 0.58410 0.66834
 C588 C 0.21790 0.57336 0.66782
 H589 H 0.13678 0.57937 0.55395
 H590 H 0.08648 0.55731 0.60316
 H591 H 0.29667 0.60212 0.58997
 H592 H 0.20007 0.57040 0.69122
 C593 C 0.40436 0.57124 0.92293
 C594 C 0.42192 0.55648 0.89541
 C595 C 0.42905 0.58291 0.86553
 C596 C 0.41839 0.62501 0.86317
 C597 C 0.40031 0.63995 0.89107
 C598 C 0.39389 0.61307 0.92132
 C599 C 0.38802 0.68051 0.88736
 N600 N 0.39512 0.70525 0.85804
 N601 N 0.41324 0.69197 0.83208
 C602 C 0.42505 0.65269 0.83361
 H603 H 0.39949 0.55025 0.94580
 H604 H 0.42974 0.52401 0.89735
 H605 H 0.37230 0.69248 0.90723
 H606 H 0.43945 0.64343 0.81171
 C607 C 0.15815 0.55988 0.92268
 C608 C 0.12881 0.54262 0.89461
 C609 C 0.14445 0.56957 0.86450
 C610 C 0.19269 0.61386 0.86289
 C611 C 0.22161 0.63222 0.89192
 C612 C 0.20397 0.60486 0.92186
 C613 C 0.26852 0.67642 0.88978
 N614 N 0.28630 0.69930 0.86029
 N615 N 0.26067 0.68040 0.83272
 C616 C 0.21507 0.63817 0.83290
 H617 H 0.14480 0.53809 0.94537
 H618 H 0.09259 0.50888 0.89699
 H619 H 0.29157 0.69236 0.91115
 H620 H 0.19768 0.62329 0.80943
 C621 C 0.42453 0.80965 0.91259
 C622 C 0.43820 0.83594 0.88269
 C623 C 0.41122 0.85903 0.86875
 C624 C 0.36863 0.85428 0.88610
 C625 C 0.35668 0.83019 0.91766
 C626 C 0.38340 0.80528 0.93022
 C627 C 0.31790 0.83171 0.93550
 N628 N 0.28937 0.85011 0.92120
 N629 N 0.29706 0.86726 0.89032
 C630 C 0.33517 0.86937 0.87220
 H631 H 0.44569 0.79114 0.92151
 H632 H 0.47119 0.83909 0.87079
 H633 H 0.31035 0.81928 0.96082
 H634 H 0.33809 0.88179 0.84692
 C635 C 0.61802 0.44135 0.92133
 C636 C 0.60260 0.45844 0.89389
 C637 C 0.57969 0.42490 0.86740
 C638 C 0.57298 0.37341 0.86821
 C639 C 0.58896 0.35610 0.89603
 C640 C 0.61095 0.39028 0.92302
 C641 C 0.58407 0.30568 0.89525
 N642 N 0.56355 0.27451 0.86878
 N643 N 0.54794 0.29054 0.84285
 C644 C 0.55211 0.33893 0.84158
 H645 H 0.63536 0.46812 0.94154
 H646 H 0.60849 0.49813 0.89330
 H647 H 0.59738 0.29124 0.91498
 H648 H 0.53959 0.35011 0.81964
 C649 C 0.84171 0.41990 0.92759
 C650 C 0.87036 0.43543 0.89902
 C651 C 0.84886 0.41715 0.86809
 C652 C 0.79696 0.38382 0.86588
 C653 C 0.76802 0.36731 0.89500
 C654 C 0.79095 0.38514 0.92601
 C655 C 0.71657 0.33456 0.89201
 N656 N 0.69581 0.31973 0.86183
 N657 N 0.72285 0.33575 0.83448
 C658 C 0.77254 0.36744 0.83543
 H659 H 0.85944 0.43430 0.95116
 H660 H 0.90984 0.46126 0.90110
 H661 H 0.69253 0.32108 0.91328
 H662 H 0.79218 0.38014 0.81234
 C663 C 0.64686 0.19243 0.91007
 C664 C 0.63441 0.16437 0.88070
 C665 C 0.58476 0.13175 0.87258
 C666 C 0.54702 0.12497 0.89528
 C667 C 0.55960 0.15339 0.92521
 C668 C 0.60999 0.18880 0.93209
 C669 C 0.52115 0.14457 0.94749
 N670 N 0.47356 0.11036 0.93988
 N671 N 0.46177 0.08412 0.91163
 C672 C 0.49680 0.09014 0.88912
 H673 H 0.68553 0.21916 0.91487
 H674 H 0.66362 0.16964 0.86361
 H675 H 0.52834 0.16362 0.97113
 H676 H 0.48512 0.06716 0.86683
   
