data_POSCAR
  _audit_creation_date              2014-09-24
  _audit_creation_method            'ToBaCCo'
  _symmetry_space_group_name_H-M    'P1'
  _symmetry_Int_Tables_number       1
  _symmetry_cell_setting            triclinic
  loop_
  _symmetry_equiv_pos_as_xyz
 x,y,z
_cell_length_a 38.4680
_cell_length_b 38.4987
_cell_length_c 38.8274
_cell_angle_alpha 90.039300
_cell_angle_beta 90.180100
_cell_angle_gamma 89.828800
loop_
  _atom_site_label
  _atom_site_type_symbol
  _atom_site_fract_x
  _atom_site_fract_y
  _atom_site_fract_z
N1 N 0.15729 0.23996 0.24712
 N2 N 0.16995 0.21557 0.26732
 C3 C 0.14788 0.21041 0.29369
 C4 C 0.12006 0.23280 0.28962
 C5 C 0.12682 0.25118 0.25995
 H6 H 0.15164 0.19166 0.31410
 H7 H 0.11055 0.27101 0.24846
 Cu8 Cu 0.21365 0.19229 0.25705
 Cu9 Cu 0.18088 0.25498 0.20553
 Cu10 Cu 0.25024 0.20466 0.17923
 N11 N 0.24848 0.16061 0.23884
 N12 N 0.26177 0.16488 0.20797
 C13 C 0.28446 0.13902 0.20160
 C14 C 0.28553 0.11761 0.23005
 C15 C 0.26255 0.13202 0.25330
 H16 H 0.29953 0.13632 0.17830
 H17 H 0.25649 0.12232 0.27871
 N18 N 0.23469 0.24623 0.15400
 N19 N 0.20832 0.26564 0.16423
 C20 C 0.20428 0.29230 0.14212
 C21 C 0.22932 0.28941 0.11695
 C22 C 0.24816 0.26003 0.12513
 H23 H 0.18461 0.31231 0.14412
 H24 H 0.27006 0.24962 0.11106
 H25 H 0.19972 0.20521 0.19755
 H26 H 0.23069 0.23753 0.21681
 N27 N 0.65737 0.74030 0.74730
 N28 N 0.66792 0.71357 0.76568
 C29 C 0.64553 0.70855 0.79180
 C30 C 0.61981 0.73348 0.78958
 C31 C 0.62804 0.75324 0.76116
 H32 H 0.64740 0.68802 0.81071
 H33 H 0.61341 0.77501 0.75104
 Cu34 Cu 0.70905 0.68687 0.75339
 Cu35 Cu 0.68163 0.75539 0.70614
 Cu36 Cu 0.75150 0.70546 0.67969
 N37 N 0.74732 0.65840 0.73675
 N38 N 0.76321 0.66520 0.70759
 C39 C 0.78768 0.64082 0.70191
 C40 C 0.78709 0.61770 0.72901
 C41 C 0.76135 0.62955 0.75072
 H42 H 0.80478 0.64003 0.67987
 H43 H 0.75325 0.61773 0.77463
 N44 N 0.73590 0.74728 0.65491
 N45 N 0.70940 0.76650 0.66514
 C46 C 0.70513 0.79310 0.64298
 C47 C 0.73014 0.79035 0.61776
 C48 C 0.74921 0.76114 0.62599
 H49 H 0.68521 0.81286 0.64482
 H50 H 0.77103 0.75080 0.61177
 H51 H 0.69975 0.70614 0.69428
 H52 H 0.73002 0.73526 0.71859
 N53 N 0.34314 0.75997 0.74814
 N54 N 0.33421 0.78818 0.76511
 C55 C 0.35690 0.79323 0.79114
 C56 C 0.38103 0.76668 0.79042
 C57 C 0.37161 0.74599 0.76294
 H58 H 0.35633 0.81481 0.80898
 H59 H 0.38507 0.72306 0.75386
 Cu60 Cu 0.29448 0.81596 0.75069
 Cu61 Cu 0.31869 0.74479 0.70676
 Cu62 Cu 0.24846 0.79496 0.68012
 N63 N 0.25442 0.84329 0.73633
 N64 N 0.23683 0.83521 0.70834
 C65 C 0.21124 0.85866 0.70359
 C66 C 0.21295 0.88255 0.73005
 C67 C 0.24048 0.87209 0.75045
 H68 H 0.19287 0.85845 0.68244
 H69 H 0.24984 0.88483 0.77349
 N70 N 0.26424 0.75320 0.65517
 N71 N 0.29073 0.73389 0.66551
 C72 C 0.29508 0.70747 0.64314
 C73 C 0.27021 0.71041 0.61766
 C74 C 0.25110 0.73955 0.62596
 H75 H 0.31502 0.68771 0.64498
 H76 H 0.22934 0.74999 0.61159
 H77 H 0.30080 0.79334 0.69236
 H78 H 0.27113 0.76641 0.71922
 N79 N 0.84507 0.26096 0.24622
 N80 N 0.83454 0.28758 0.26476
 C81 C 0.85679 0.29227 0.29122
 C82 C 0.88249 0.26726 0.28899
 C83 C 0.87434 0.24781 0.26023
 H84 H 0.85486 0.31263 0.31031
 H85 H 0.88891 0.22605 0.25005
 Cu86 Cu 0.79374 0.31446 0.25146
 Cu87 Cu 0.82052 0.24592 0.20486
 Cu88 Cu 0.74774 0.29370 0.18080
 N89 N 0.75288 0.34107 0.23781
 N90 N 0.73539 0.33319 0.20972
 C91 C 0.70968 0.35657 0.20518
 C92 C 0.71113 0.38016 0.23190
 C93 C 0.73871 0.36964 0.25219
 H94 H 0.69155 0.35671 0.18384
 H95 H 0.74815 0.38244 0.27516
 N96 N 0.76433 0.25285 0.15495
 N97 N 0.79217 0.23479 0.16393
 C98 C 0.79698 0.20897 0.14096
 C99 C 0.77094 0.21098 0.11656
 C100 C 0.75066 0.23890 0.12613
 H101 H 0.81783 0.19009 0.14179
 H102 H 0.72776 0.24837 0.11287
 H103 H 0.80023 0.29407 0.19237
 H104 H 0.77224 0.26490 0.21876
 N105 N 0.84509 0.74015 0.25302
 N106 N 0.83496 0.71304 0.23501
 C107 C 0.85690 0.70837 0.20843
 C108 C 0.88199 0.73384 0.21006
 C109 C 0.87382 0.75358 0.23856
 H110 H 0.85532 0.68760 0.18974
 H111 H 0.88810 0.77568 0.24830
 Cu112 Cu 0.79528 0.68541 0.24917
 Cu113 Cu 0.82093 0.75534 0.29441
 Cu114 Cu 0.75031 0.70614 0.32034
 N115 N 0.75551 0.65817 0.26384
 N116 N 0.73840 0.66615 0.29204
 C117 C 0.71305 0.64270 0.29701
 C118 C 0.71440 0.61889 0.27052
 C119 C 0.74149 0.62938 0.24984
 H120 H 0.69506 0.64282 0.31836
 H121 H 0.75050 0.61662 0.22670
 N122 N 0.76632 0.74759 0.34547
 N123 N 0.79309 0.76645 0.33553
 C124 C 0.79747 0.79284 0.35792
 C125 C 0.77231 0.79030 0.38299
 C126 C 0.75302 0.76146 0.37445
 H127 H 0.81754 0.81236 0.35631
 H128 H 0.73100 0.75139 0.38846
 H129 H 0.80253 0.70685 0.30786
 H130 H 0.77300 0.73490 0.28154
 N131 N 0.34335 0.24059 -0.24791
 N132 N 0.33085 0.21588 -0.26777
 C133 C 0.35282 0.21049 -0.29421
 C134 C 0.38038 0.23315 -0.29057
 C135 C 0.37360 0.25188 -0.26105
 H136 H 0.34911 0.19146 -0.31438
 H137 H 0.38966 0.27197 -0.24985
 Cu138 Cu 0.28734 0.19272 -0.25715
 Cu139 Cu 0.31993 0.25579 -0.20621
 Cu140 Cu 0.25042 0.20606 -0.17967
 N141 N 0.25216 0.16161 -0.23905
 N142 N 0.23859 0.16636 -0.20835
 C143 C 0.21560 0.14090 -0.20204
 C144 C 0.21466 0.11924 -0.23033
 C145 C 0.23802 0.13308 -0.25343
 H146 H 0.20029 0.13859 -0.17885
 H147 H 0.24433 0.12302 -0.27867
 N148 N 0.26629 0.24747 -0.15447
 N149 N 0.29268 0.26666 -0.16477
 C150 C 0.29702 0.29317 -0.14253
 C151 C 0.27216 0.29039 -0.11720
 C152 C 0.25312 0.26128 -0.12542
 H153 H 0.31679 0.31295 -0.14450
 H154 H 0.23130 0.25103 -0.11122
 H155 H 0.30102 0.20628 -0.19767
 H156 H 0.27015 0.23851 -0.21732
 N157 N 0.65293 0.26117 -0.24731
 N158 N 0.66338 0.28782 -0.26575
 C159 C 0.64117 0.29259 -0.29224
 C160 C 0.61557 0.26762 -0.29011
 C161 C 0.62373 0.24812 -0.26139
 H162 H 0.64310 0.31295 -0.31129
 H163 H 0.60929 0.22630 -0.25136
 Cu164 Cu 0.70426 0.31424 -0.25231
 Cu165 Cu 0.67764 0.24565 -0.20615
 Cu166 Cu 0.75122 0.29217 -0.18273
 N167 N 0.74526 0.34050 -0.23889
 N168 N 0.76340 0.33174 -0.21144
 C169 C 0.78935 0.35469 -0.20694
 C170 C 0.78732 0.37897 -0.23295
 C171 C 0.75917 0.36930 -0.25282
 H172 H 0.80799 0.35412 -0.18604
 H173 H 0.74924 0.38275 -0.27525
 N174 N 0.73462 0.25141 -0.15698
 N175 N 0.70630 0.23404 -0.16551
 C176 C 0.70131 0.20848 -0.14235
 C177 C 0.72777 0.20992 -0.11837
 C178 C 0.74846 0.23724 -0.12835
 H179 H 0.68006 0.19017 -0.14276
 H180 H 0.77164 0.24627 -0.11536
 H181 H 0.69854 0.29329 -0.19336
 H182 H 0.72580 0.26401 -0.22051
 N183 N 0.15772 0.75951 0.25109
 N184 N 0.16821 0.78627 0.23286
 C185 C 0.14606 0.79123 0.20636
 C186 C 0.12049 0.76626 0.20825
 C187 C 0.12858 0.74655 0.23683
 H188 H 0.14783 0.81186 0.18757
 H189 H 0.11394 0.72485 0.24680
 Cu190 Cu 0.20861 0.81284 0.24719
 Cu191 Cu 0.18173 0.74428 0.29279
 Cu192 Cu 0.25290 0.79320 0.31896
 N193 N 0.24826 0.84044 0.26166
 N194 N 0.26509 0.83292 0.29027
 C195 C 0.29019 0.85666 0.29548
 C196 C 0.28894 0.88016 0.26867
 C197 C 0.26220 0.86917 0.24759
 H198 H 0.30781 0.85696 0.31723
 H199 H 0.25323 0.88163 0.22424
 N200 N 0.23644 0.75199 0.34424
 N201 N 0.20952 0.73326 0.33417
 C202 C 0.20486 0.70707 0.35667
 C203 C 0.22995 0.70957 0.38195
 C204 C 0.24952 0.73820 0.37343
 H205 H 0.18460 0.68773 0.35501
 H206 H 0.27155 0.74820 0.38762
 H207 H 0.20079 0.79257 0.30606
 H208 H 0.23013 0.76376 0.28065
 N209 N 0.48815 0.40636 0.49725
 N210 N 0.45656 0.41128 0.50920
 C211 C 0.45033 0.38804 0.53431
 C212 C 0.47963 0.36768 0.53831
 C213 C 0.50318 0.37995 0.51453
 H214 H 0.42620 0.38588 0.54835
 H215 H 0.52886 0.36967 0.50950
 Cu216 Cu 0.42610 0.44705 0.49076
 Cu217 Cu 0.50605 0.43256 0.45832
 Cu218 Cu 0.45792 0.50407 0.43312
 N219 N 0.40321 0.49107 0.48137
 N220 N 0.41616 0.51373 0.45962
 C221 C 0.39509 0.54169 0.45822
 C222 C 0.36751 0.53601 0.48010
 C223 C 0.37335 0.50371 0.49438
 H224 H 0.39901 0.56408 0.44191
 H225 H 0.35704 0.49036 0.51271
 N226 N 0.50081 0.48958 0.40959
 N227 N 0.51933 0.46234 0.41932
 C228 C 0.54584 0.45789 0.39715
 C229 C 0.54370 0.48348 0.37239
 C230 C 0.51501 0.50315 0.38097
 H231 H 0.56458 0.43694 0.39819
 H232 H 0.50472 0.52503 0.36673
 H233 H 0.47900 0.47634 0.47384
 H234 H 0.45948 0.45035 0.43775
 N235 N -0.00985 -0.09314 0.99555
 N236 N -0.03836 -0.08441 1.01209
 C237 C -0.04378 -0.10731 1.03773
 C238 C -0.01717 -0.13139 1.03719
 C239 C 0.00395 -0.12170 1.01025
 H240 H -0.06548 -0.10674 1.05535
 H241 H 0.02718 -0.13492 1.00158
 Cu242 Cu -0.06556 -0.04408 0.99829
 Cu243 Cu 0.00613 -0.06807 0.95504
 Cu244 Cu -0.04307 0.00296 0.92901
 N245 N -0.09291 -0.00419 0.98357
 N246 N -0.08382 0.01428 0.95659
 C247 C -0.10684 0.04033 0.95217
 C248 C -0.13159 0.03790 0.97769
 C249 C -0.12211 0.00945 0.99715
 H250 H -0.10579 0.05947 0.93184
 H251 H -0.13557 -0.00044 1.01948
 N252 N -0.00095 -0.01264 0.90455
 N253 N 0.01793 -0.03950 0.91464
 C254 C 0.04448 -0.04391 0.89249
 C255 C 0.04207 -0.01869 0.86739
 C256 C 0.01311 0.00070 0.87571
 H257 H 0.06385 -0.06425 0.89410
 H258 H 0.00293 0.02263 0.86148
 H259 H -0.01531 -0.02061 0.96812
 H260 H -0.04220 -0.04957 0.94024
 N261 N 1.00841 0.59143 0.99715
 N262 N 1.03525 0.58116 1.01560
 C263 C 1.04041 0.60391 1.04148
 C264 C 1.01544 0.62957 1.03901
 C265 C 0.99552 0.62094 1.01072
 H266 H 1.06109 0.60233 1.06035
 H267 H 0.97373 0.63545 1.00044
 Cu268 Cu 1.06190 0.53987 1.00373
 Cu269 Cu 0.99324 0.56678 0.95616
 Cu270 Cu 1.04351 0.49712 0.92988
 N271 N 1.09071 0.50190 0.98700
 N272 N 1.08396 0.48588 0.95782
 C273 C 1.10851 0.46155 0.95222
 C274 C 1.13169 0.46242 0.97936
 C275 C 1.11969 0.48814 1.00103
 H276 H 1.10934 0.44432 0.93022
 H277 H 1.13144 0.49635 1.02502
 N278 N 1.00146 0.51228 0.90508
 N279 N 0.98207 0.53867 0.91531
 C280 C 0.95545 0.54278 0.89305
 C281 C 0.95836 0.51783 0.86774
 C282 C 0.98768 0.49892 0.87603
 H283 H 0.93565 0.56269 0.89479
 H284 H 0.99825 0.47726 0.86170
 H285 H 1.01363 0.51852 0.96868
 H286 H 1.04267 0.54883 0.94454
 N287 N 0.50829 0.09187 0.49841
 N288 N 0.53713 0.08354 0.51475
 C289 C 0.54244 0.10637 0.54053
 C290 C 0.51541 0.12997 0.54031
 C291 C 0.49416 0.12009 0.51340
 H292 H 0.56449 0.10624 0.55787
 H293 H 0.47074 0.13310 0.50479
 Cu294 Cu 0.56527 0.04426 0.50007
 Cu295 Cu 0.49258 0.06717 0.45748
 Cu296 Cu 0.54282 -0.00269 0.43054
 N297 N 0.59242 0.00421 0.48558
 N298 N 0.58369 -0.01386 0.45814
 C299 C 0.60702 -0.03955 0.45347
 C300 C 0.63151 -0.03739 0.47939
 C301 C 0.62155 -0.00949 0.49937
 H302 H 0.60633 -0.05835 0.43277
 H303 H 0.63478 0.00016 0.52204
 N304 N 0.50049 0.01264 0.40617
 N305 N 0.48116 0.03902 0.41660
 C306 C 0.45453 0.04334 0.39437
 C307 C 0.45740 0.01856 0.36890
 C308 C 0.48666 -0.00048 0.37705
 H309 H 0.43483 0.06333 0.39618
 H310 H 0.49719 -0.02200 0.36251
 H311 H 0.51513 0.02004 0.47011
 H312 H 0.54102 0.04972 0.44222
 N313 N -0.00960 0.09389 0.50246
 N314 N -0.03807 0.08510 0.48580
 C315 C -0.04356 0.10782 0.45996
 C316 C -0.01703 0.13185 0.46049
 C317 C 0.00411 0.12230 0.48764
 H318 H -0.06532 0.10726 0.44227
 H319 H 0.02725 0.13556 0.49641
 Cu320 Cu -0.06543 0.04523 0.50002
 Cu321 Cu 0.00638 0.06922 0.54336
 Cu322 Cu -0.04294 -0.00104 0.57003
 N323 N -0.09236 0.00525 0.51474
 N324 N -0.08361 -0.01250 0.54239
 C325 C -0.10676 -0.03819 0.54721
 C326 C -0.13115 -0.03637 0.52118
 C327 C -0.12132 -0.00867 0.50096
 H328 H -0.10598 -0.05677 0.56807
 H329 H -0.13453 0.00069 0.47815
 N330 N -0.00086 0.01453 0.59449
 N331 N 0.01813 0.04107 0.58417
 C332 C 0.04476 0.04543 0.60637
 C333 C 0.04224 0.02051 0.63171
 C334 C 0.01318 0.00137 0.62351
 H335 H 0.06428 0.06549 0.60459
 H336 H 0.00295 -0.02032 0.63792
 H337 H -0.01517 0.02180 0.53066
 H338 H -0.04195 0.05132 0.55810
 N339 N 0.49079 0.59295 0.00384
 N340 N 0.46334 0.58312 -0.01390
 C341 C 0.45871 0.60495 -0.04064
 C342 C 0.48457 0.62967 -0.03939
 C343 C 0.50449 0.62138 -0.01095
 H344 H 0.43762 0.60363 -0.05906
 H345 H 0.52669 0.63557 -0.00127
 Cu346 Cu 0.43543 0.54391 0.00090
 Cu347 Cu 0.50548 0.56957 0.04599
 Cu348 Cu 0.45007 0.50605 0.07734
 N349 N 0.40860 0.50391 0.01570
 N350 N 0.41397 0.48973 0.04607
 C351 C 0.39050 0.46441 0.05113
 C352 C 0.36958 0.46252 0.02227
 C353 C 0.38174 0.48777 0.00022
 H354 H 0.38850 0.44888 0.07423
 H355 H 0.37102 0.49449 -0.02468
 N356 N 0.49377 0.51915 0.10050
 N357 N 0.51509 0.54299 0.08836
 C358 C 0.54257 0.54581 0.10976
 C359 C 0.53832 0.52254 0.13639
 C360 C 0.50727 0.50600 0.12979
 H361 H 0.56401 0.56354 0.10638
 H362 H 0.49546 0.48594 0.14528
 H363 H 0.48157 0.52178 0.03753
 H364 H 0.45593 0.55679 0.05918
 N365 N 0.51209 -0.09517 0.00525
 N366 N 0.53951 -0.08536 -0.01237
 C367 C 0.54435 -0.10752 -0.03881
 C368 C 0.51868 -0.13244 -0.03747
 C369 C 0.49867 -0.12394 -0.00928
 H370 H 0.56521 -0.10606 -0.05734
 H371 H 0.47622 -0.13786 0.00006
 Cu372 Cu 0.56669 -0.04526 0.00181
 Cu373 Cu 0.49614 -0.07023 0.04595
 Cu374 Cu 0.54387 0.00192 0.07100
 N375 N 0.59322 -0.00470 0.01588
 N376 N 0.58404 0.01375 0.04292
 C377 C 0.60669 0.04002 0.04716
 C378 C 0.63131 0.03776 0.02148
 C379 C 0.62210 0.00919 0.00208
 H380 H 0.60557 0.05911 0.06756
 H381 H 0.63565 -0.00071 -0.02024
 N382 N 0.50240 -0.01426 0.09600
 N383 N 0.48415 -0.04162 0.08635
 C384 C 0.45772 -0.04612 0.10857
 C385 C 0.45955 -0.02046 0.13328
 C386 C 0.48807 -0.00073 0.12468
 H387 H 0.43872 -0.06671 0.10717
 H388 H 0.49768 0.02167 0.13853
 H389 H 0.51623 -0.02247 0.03227
 H390 H 0.54407 -0.05063 0.06016
 N391 N 1.00950 0.40774 0.50124
 N392 N 1.03537 0.41898 0.48225
 C393 C 1.04032 0.39673 0.45587
 C394 C 1.01626 0.37036 0.45866
 C395 C 0.99710 0.37810 0.48762
 H396 H 1.06027 0.39912 0.43646
 H397 H 0.97609 0.36295 0.49825
 Cu398 Cu 1.06108 0.46081 0.49421
 Cu399 Cu 0.99463 0.43146 0.54281
 Cu400 Cu 1.04386 0.50140 0.56954
 N401 N 1.08969 0.49871 0.51149
 N402 N 1.08344 0.51376 0.54125
 C403 C 1.10775 0.53813 0.54721
 C404 C 1.13024 0.53839 0.51965
 C405 C 1.11811 0.51322 0.49739
 H406 H 1.10890 0.55458 0.56976
 H407 H 1.12949 0.50577 0.47303
 N408 N 1.00270 0.48519 0.59466
 N409 N 0.98367 0.45870 0.58424
 C410 C 0.95734 0.45408 0.60653
 C411 C 0.96007 0.47883 0.63205
 C412 C 0.98898 0.49813 0.62387
 H413 H 0.93772 0.43413 0.60452
 H414 H 0.99916 0.51994 0.63823
 H415 H 1.01339 0.48041 0.53087
 H416 H 1.04395 0.45009 0.55358
 C417 C 0.37200 -0.00133 0.25021
 C418 C 0.12857 0.00046 0.74978
 C419 C 0.62711 0.50076 0.25244
 C420 C 0.87289 0.49831 0.74904
 C421 C 0.25100 0.37664 0.00036
 C422 C 0.74951 0.12401 -0.00058
 C423 C 0.24950 0.62374 0.50016
 C424 C 0.75078 0.87679 0.50037
 C425 C 0.00012 0.25023 0.37397
 C426 C 0.00033 0.74994 0.12347
 C427 C 0.49798 0.24961 0.62527
 C428 C 0.50089 0.74931 0.87566
 C429 C 0.04151 0.26657 0.31856
 C430 C 0.07950 0.27033 0.33110
 C431 C 0.08890 0.23662 0.31216
 C432 C 0.05134 0.23277 0.29933
 C433 C 0.08081 0.21508 0.34438
 C434 C 0.07098 0.24888 0.36366
 C435 C 0.03300 0.24510 0.35108
 C436 C 0.04277 0.21128 0.33184
 H437 H 0.02612 0.28794 0.30694
 H438 H 0.09485 0.29468 0.33070
 H439 H 0.04339 0.22607 0.27264
 H440 H 0.09707 0.19376 0.35503
 H441 H 0.08028 0.25559 0.38986
 H442 H 0.02843 0.18637 0.33143
 C443 C 0.53519 0.72173 0.81969
 C444 C 0.55343 0.75147 0.80011
 C445 C 0.58875 0.73737 0.81223
 C446 C 0.57094 0.70757 0.83153
 C447 C 0.58749 0.76034 0.84449
 C448 C 0.55175 0.77456 0.83267
 C449 C 0.53351 0.74481 0.85226
 C450 C 0.56924 0.73061 0.86414
 H451 H 0.51441 0.70541 0.80841
 H452 H 0.54695 0.76006 0.77356
 H453 H 0.57898 0.67986 0.83097
 H454 H 0.60927 0.77627 0.85460
 H455 H 0.54490 0.80252 0.83243
 H456 H 0.57684 0.72160 0.89020
 C457 C 0.43227 0.76788 0.86504
 C458 C 0.43007 0.79181 0.83311
 C459 C 0.41223 0.76244 0.81304
 C460 C 0.41396 0.73859 0.84462
 C461 C 0.44750 0.74889 0.80038
 C462 C 0.46578 0.77818 0.82072
 C463 C 0.46794 0.75423 0.85261
 C464 C 0.44966 0.72492 0.83226
 H465 H 0.42496 0.77617 0.89138
 H466 H 0.42192 0.81948 0.83340
 H467 H 0.39239 0.72227 0.85436
 H468 H 0.45371 0.74107 0.77357
 H469 H 0.48640 0.79487 0.80982
 H470 H 0.45665 0.69701 0.83125
 C471 C -0.04112 0.23279 0.31829
 C472 C -0.07929 0.22967 0.33038
 C473 C -0.08813 0.26312 0.31072
 C474 C -0.05046 0.26630 0.29826
 C475 C -0.08002 0.28523 0.34265
 C476 C -0.07071 0.25170 0.36266
 C477 C -0.03260 0.25485 0.35051
 C478 C -0.04189 0.28835 0.33051
 H479 H -0.02575 0.21105 0.30737
 H480 H -0.09490 0.20547 0.33025
 H481 H -0.04224 0.27235 0.27156
 H482 H -0.09595 0.30695 0.35291
 H483 H -0.08031 0.24561 0.38883
 H484 H -0.02733 0.31312 0.32986
 C485 C -0.04029 0.76793 0.17918
 C486 C -0.07855 0.77138 0.16722
 C487 C -0.08733 0.73808 0.18702
 C488 C -0.04954 0.73457 0.19929
 C489 C -0.07961 0.71584 0.15511
 C490 C -0.07040 0.74921 0.13498
 C491 C -0.03218 0.74570 0.14699
 C492 C -0.04139 0.71235 0.16710
 H493 H -0.02482 0.78955 0.19010
 H494 H -0.09407 0.79572 0.16739
 H495 H -0.04109 0.72852 0.22599
 H496 H -0.09583 0.69428 0.14507
 H497 H -0.08024 0.75534 0.10883
 H498 H -0.02699 0.68740 0.16777
 C499 C 0.42713 0.24818 0.63604
 C500 C 0.41782 0.21462 0.65586
 C501 C 0.40973 0.23666 0.68781
 C502 C 0.41857 0.27012 0.66835
 C503 C 0.44739 0.23321 0.70050
 C504 C 0.45598 0.21125 0.66822
 C505 C 0.46525 0.24481 0.64842
 C506 C 0.45670 0.26676 0.68069
 H507 H 0.41746 0.25441 0.60986
 H508 H 0.40185 0.19302 0.64552
 H509 H 0.40295 0.29441 0.66847
 H510 H 0.45563 0.22698 0.72722
 H511 H 0.47056 0.18640 0.66891
 H512 H 0.47192 0.28841 0.69189
 C513 C 0.53952 0.23298 0.68088
 C514 C 0.57766 0.22977 0.66873
 C515 C 0.58630 0.26342 0.68809
 C516 C 0.54864 0.26671 0.70057
 C517 C 0.57800 0.28520 0.65598
 C518 C 0.56887 0.25146 0.63628
 C519 C 0.53077 0.25469 0.64848
 C520 C 0.53987 0.28842 0.66815
 H521 H 0.52438 0.21134 0.69210
 H522 H 0.59344 0.20559 0.66905
 H523 H 0.54041 0.27304 0.72723
 H524 H 0.59382 0.30681 0.64553
 H525 H 0.57842 0.24509 0.61013
 H526 H 0.52519 0.31321 0.66863
 C527 C 0.07133 0.75074 0.13378
 C528 C 0.08116 0.78428 0.15347
 C529 C 0.08944 0.76233 0.18546
 C530 C 0.08007 0.72888 0.16611
 C531 C 0.05194 0.76617 0.19825
 C532 C 0.04320 0.78808 0.16598
 C533 C 0.03340 0.75454 0.14634
 C534 C 0.04212 0.73264 0.17863
 H535 H 0.08047 0.74426 0.10751
 H536 H 0.09733 0.80564 0.14305
 H537 H 0.09548 0.70446 0.16628
 H538 H 0.04409 0.77257 0.22501
 H539 H 0.02890 0.81309 0.16661
 H540 H 0.02685 0.71122 0.19006
 C541 C 0.32736 0.04982 0.27318
 C542 C 0.33967 0.08525 0.25906
 C543 C 0.30790 0.08625 0.23510
 C544 C 0.29525 0.05126 0.24910
 C545 C 0.32844 0.06788 0.20652
 C546 C 0.36053 0.06648 0.23054
 C547 C 0.34818 0.03107 0.24464
 C548 C 0.31608 0.03244 0.22060
 H549 H 0.32631 0.04343 0.30097
 H550 H 0.34928 0.10723 0.27493
 H551 H 0.26816 0.04515 0.25673
 H552 H 0.32887 0.07529 0.17891
 H553 H 0.38706 0.07389 0.22239
 H554 H 0.30532 0.01132 0.20441
 C555 C 0.81734 0.53256 0.71944
 C556 C 0.79668 0.55150 0.74796
 C557 C 0.80955 0.58641 0.73396
 C558 C 0.82992 0.56792 0.70535
 C559 C 0.84131 0.58520 0.75791
 C560 C 0.82877 0.54985 0.77202
 C561 C 0.84943 0.53095 0.74347
 C562 C 0.86203 0.56628 0.72937
 H563 H 0.80639 0.51153 0.70326
 H564 H 0.76956 0.54554 0.75561
 H565 H 0.83035 0.57543 0.67777
 H566 H 0.85108 0.60712 0.77377
 H567 H 0.82769 0.54343 0.79981
 H568 H 0.88863 0.57347 0.72122
 C569 C 0.86194 0.43039 0.76870
 C570 C 0.82919 0.42886 0.79164
 C571 C 0.80972 0.41022 0.76245
 C572 C 0.84213 0.41133 0.73958
 C573 C 0.79703 0.44509 0.74788
 C574 C 0.81679 0.46415 0.77700
 C575 C 0.84952 0.46566 0.75404
 C576 C 0.82976 0.44662 0.72490
 H577 H 0.88836 0.42326 0.77773
 H578 H 0.82889 0.42144 0.81926
 H579 H 0.85247 0.38935 0.72415
 H580 H 0.77012 0.45106 0.73931
 H581 H 0.80530 0.48519 0.79280
 H582 H 0.82933 0.45292 0.69706
 C583 C 0.36191 -0.06934 0.26993
 C584 C 0.32942 -0.07117 0.29323
 C585 C 0.30987 -0.09000 0.26424
 C586 C 0.34200 -0.08865 0.24101
 C587 C 0.29664 -0.05530 0.24974
 C588 C 0.31651 -0.03602 0.27864
 C589 C 0.34899 -0.03421 0.25535
 C590 C 0.32913 -0.05347 0.22642
 H591 H 0.38847 -0.07625 0.27873
 H592 H 0.32954 -0.07844 0.32089
 H593 H 0.35243 -0.11053 0.22550
 H594 H 0.26959 -0.04958 0.24143
 H595 H 0.30491 -0.01507 0.29448
 H596 H 0.32841 -0.04717 0.19859
 C597 C 0.17209 -0.05162 0.77301
 C598 C 0.15958 -0.08681 0.75826
 C599 C 0.19160 -0.08783 0.73485
 C600 C 0.20447 -0.05313 0.74950
 C601 C 0.17165 -0.06899 0.70609
 C602 C 0.13926 -0.06748 0.72958
 C603 C 0.15184 -0.03234 0.74431
 C604 C 0.18420 -0.03384 0.72083
 H605 H 0.17285 -0.04546 0.80088
 H606 H 0.14952 -0.10884 0.77369
 H607 H 0.23149 -0.04723 0.75770
 H608 H 0.17148 -0.07614 0.67839
 H609 H 0.11272 -0.07448 0.72093
 H610 H 0.19549 -0.01279 0.70501
 C611 C 0.67066 0.44853 0.27507
 C612 C 0.65744 0.41334 0.26104
 C613 C 0.68889 0.41164 0.23691
 C614 C 0.70241 0.44641 0.25083
 C615 C 0.66843 0.43039 0.20842
 C616 C 0.63663 0.43254 0.23262
 C617 C 0.64992 0.46770 0.24665
 C618 C 0.68168 0.46559 0.22242
 H619 H 0.67222 0.45493 0.30285
 H620 H 0.64755 0.39159 0.27695
 H621 H 0.72969 0.45206 0.25832
 H622 H 0.66756 0.42283 0.18084
 H623 H 0.60977 0.42587 0.22468
 H624 H 0.69268 0.48647 0.20617
 C625 C 0.67077 0.55184 0.22809
 C626 C 0.65907 0.58725 0.24300
 C627 C 0.69176 0.58785 0.26570
 C628 C 0.70382 0.55288 0.25089
 C629 C 0.67240 0.56938 0.29490
 C630 C 0.63937 0.56839 0.27216
 C631 C 0.65112 0.53300 0.25728
 C632 C 0.68415 0.53399 0.28004
 H633 H 0.67067 0.54553 0.20024
 H634 H 0.64884 0.60942 0.22773
 H635 H 0.73054 0.54660 0.24213
 H636 H 0.67313 0.57668 0.32256
 H637 H 0.61321 0.57599 0.28140
 H638 H 0.69558 0.51275 0.29567
 C639 C 0.18445 0.03418 0.77905
 C640 C 0.20495 0.05304 0.75045
 C641 C 0.19226 0.08802 0.76469
 C642 C 0.17205 0.06960 0.79337
 C643 C 0.16029 0.08711 0.74099
 C644 C 0.17265 0.05171 0.72663
 C645 C 0.15216 0.03290 0.75527
 C646 C 0.13975 0.06829 0.76960
 H647 H 0.19548 0.01303 0.79509
 H648 H 0.23199 0.04690 0.74257
 H649 H 0.17182 0.07696 0.82101
 H650 H 0.15045 0.10914 0.72527
 H651 H 0.17349 0.04543 0.69880
 H652 H 0.11324 0.07567 0.77798
 C653 C 0.26665 0.32035 0.04146
 C654 C 0.26864 0.33234 0.07944
 C655 C 0.23480 0.31274 0.08679
 C656 C 0.23272 0.30046 0.04926
 C657 C 0.21317 0.34519 0.07823
 C658 C 0.24711 0.36513 0.07043
 C659 C 0.24507 0.35308 0.03248
 C660 C 0.21113 0.33318 0.04027
 H661 H 0.28883 0.30910 0.02708
 H662 H 0.29235 0.33187 0.09580
 H663 H 0.22675 0.27362 0.04067
 H664 H 0.19104 0.35550 0.09343
 H665 H 0.25305 0.39143 0.08038
 H666 H 0.18673 0.33273 0.02506
 C667 C 0.74722 0.86579 0.57051
 C668 C 0.71342 0.84575 0.57862
 C669 C 0.73525 0.81348 0.58735
 C670 C 0.76895 0.83318 0.57968
 C671 C 0.73307 0.80087 0.54992
 C672 C 0.71128 0.83342 0.54075
 C673 C 0.74508 0.85342 0.53266
 C674 C 0.76687 0.82087 0.54182
 H675 H 0.75310 0.89222 0.58017
 H676 H 0.69130 0.85607 0.59383
 H677 H 0.79273 0.83298 0.59595
 H678 H 0.72719 0.77393 0.54158
 H679 H 0.68687 0.83280 0.52555
 H680 H 0.78904 0.80963 0.52743
 C681 C 0.75453 0.86570 0.43026
 C682 C 0.78854 0.84581 0.42215
 C683 C 0.76706 0.81343 0.41342
 C684 C 0.73314 0.83298 0.42109
 C685 C 0.76938 0.80088 0.45084
 C686 C 0.79081 0.83354 0.46002
 C687 C 0.75679 0.85339 0.46811
 C688 C 0.73536 0.82072 0.45895
 H689 H 0.74834 0.89207 0.42058
 H690 H 0.81055 0.85620 0.40692
 H691 H 0.70937 0.83263 0.40481
 H692 H 0.77554 0.77397 0.45917
 H693 H 0.81522 0.83308 0.47524
 H694 H 0.71332 0.80937 0.47334
 C695 C 0.25480 0.36583 -0.06982
 C696 C 0.28870 0.34576 -0.07797
 C697 C 0.26702 0.31354 -0.08680
 C698 C 0.23322 0.33327 -0.07911
 C699 C 0.26924 0.30087 -0.04942
 C700 C 0.29087 0.33337 -0.04014
 C701 C 0.25695 0.35339 -0.03202
 C702 C 0.23534 0.32087 -0.04129
 H703 H 0.24882 0.39228 -0.07944
 H704 H 0.31078 0.35607 -0.09315
 H705 H 0.20946 0.33313 -0.09540
 H706 H 0.27524 0.27390 -0.04117
 H707 H 0.31529 0.33264 -0.02498
 H708 H 0.21323 0.30955 -0.02701
 C709 C 0.71945 0.17973 -0.03395
 C710 C 0.74810 0.19984 -0.05329
 C711 C 0.73288 0.18717 -0.08764
 C712 C 0.70414 0.16734 -0.06873
 C713 C 0.75654 0.15504 -0.08699
 C714 C 0.77188 0.16741 -0.05225
 C715 C 0.74323 0.14728 -0.03290
 C716 C 0.72788 0.13484 -0.06763
 H717 H 0.70378 0.19099 -0.01280
 H718 H 0.75641 0.22680 -0.04744
 H719 H 0.67612 0.16739 -0.07565
 H720 H 0.77182 0.14497 -0.10907
 H721 H 0.80011 0.16815 -0.04657
 H722 H 0.71907 0.10836 -0.07456
 C723 C 0.24644 0.63436 0.42998
 C724 C 0.21275 0.65462 0.42127
 C725 C 0.23473 0.68665 0.41262
 C726 C 0.26833 0.66672 0.42089
 C727 C 0.23228 0.69954 0.44993
 C728 C 0.21035 0.66723 0.45902
 C729 C 0.24404 0.64701 0.46771
 C730 C 0.26596 0.67932 0.45865
 H731 H 0.25238 0.60778 0.42069
 H732 H 0.19073 0.64437 0.40581
 H733 H 0.29223 0.66662 0.40496
 H734 H 0.22640 0.72658 0.45800
 H735 H 0.18582 0.66816 0.47387
 H736 H 0.28804 0.69047 0.47328
 C737 C 0.23378 0.68012 0.54115
 C738 C 0.23126 0.66802 0.57904
 C739 C 0.26514 0.68736 0.58710
 C740 C 0.26776 0.69976 0.54965
 C741 C 0.28665 0.65479 0.57876
 C742 C 0.25267 0.63511 0.57028
 C743 C 0.25523 0.64725 0.53242
 C744 C 0.28921 0.66688 0.54087
 H745 H 0.21185 0.69153 0.52642
 H746 H 0.20736 0.66860 0.59497
 H747 H 0.27402 0.72658 0.54130
 H748 H 0.30853 0.64428 0.59430
 H749 H 0.24642 0.60883 0.58001
 H750 H 0.31367 0.66697 0.52588
 C751 C 0.77907 0.18013 0.03234
 C752 C 0.75028 0.20030 0.05164
 C753 C 0.76575 0.18798 0.08601
 C754 C 0.79462 0.16810 0.06714
 C755 C 0.74242 0.15574 0.08567
 C756 C 0.72683 0.16776 0.05089
 C757 C 0.75562 0.14758 0.03158
 C758 C 0.77120 0.13549 0.06635
 H759 H 0.79459 0.19129 0.01109
 H760 H 0.74168 0.22717 0.04561
 H761 H 0.82266 0.16831 0.07395
 H762 H 0.72732 0.14579 0.10787
 H763 H 0.69858 0.16833 0.04527
 H764 H 0.78027 0.10910 0.07341
 C765 C 0.52208 0.30038 0.58142
 C766 C 0.49809 0.30183 0.54941
 C767 C 0.48418 0.33713 0.56159
 C768 C 0.50807 0.33612 0.59329
 C769 C 0.45496 0.31934 0.58175
 C770 C 0.46894 0.28362 0.56981
 C771 C 0.49290 0.28215 0.60183
 C772 C 0.47891 0.31786 0.61380
 H773 H 0.55008 0.29361 0.58067
 H774 H 0.50600 0.29533 0.52269
 H775 H 0.52419 0.35797 0.60286
 H776 H 0.42717 0.32716 0.58191
 H777 H 0.45244 0.26276 0.55895
 H778 H 0.47053 0.32543 0.64004
 C779 C 0.02475 0.80040 0.07947
 C780 C 0.00056 0.80222 0.04762
 C781 C -0.01283 0.83767 0.05999
 C782 C 0.01126 0.83628 0.09152
 C783 C -0.04213 0.82020 0.08030
 C784 C -0.02868 0.78432 0.06820
 C785 C -0.00452 0.78251 0.10005
 C786 C -0.01799 0.81836 0.11219
 H787 H 0.05265 0.79327 0.07851
 H788 H 0.00819 0.79566 0.02084
 H789 H 0.02771 0.85791 0.10103
 H790 H -0.06981 0.82843 0.08059
 H791 H -0.04548 0.76360 0.05752
 H792 H -0.02608 0.82607 0.13847
 C793 C 0.01868 0.68139 0.11286
 C794 C -0.01120 0.66294 0.09340
 C795 C 0.01173 0.66102 0.06122
 C796 C 0.04167 0.67902 0.08032
 C797 C -0.00226 0.69616 0.04859
 C798 C -0.02529 0.69851 0.08109
 C799 C 0.00460 0.71694 0.10048
 C800 C 0.02762 0.71459 0.06799
 H801 H 0.02772 0.67416 0.13902
 H802 H -0.02720 0.64143 0.10377
 H803 H 0.06936 0.67086 0.07994
 H804 H -0.01088 0.70219 0.02195
 H805 H -0.05325 0.70547 0.08071
 H806 H 0.04400 0.73512 0.05647
 C807 C 0.51705 0.18124 0.61471
 C808 C 0.48766 0.16268 0.59461
 C809 C 0.51119 0.16111 0.56284
 C810 C 0.54065 0.17920 0.58258
 C811 C 0.49720 0.19622 0.55016
 C812 C 0.47355 0.19822 0.58224
 C813 C 0.50296 0.21675 0.60226
 C814 C 0.52659 0.21474 0.57018
 H815 H 0.52570 0.17403 0.64101
 H816 H 0.47162 0.14101 0.60457
 H817 H 0.56842 0.17128 0.58267
 H818 H 0.48902 0.20232 0.52339
 H819 H 0.44555 0.20497 0.58148
 H820 H 0.54302 0.23542 0.55901
 C821 C -0.02851 0.21627 0.42946
 C822 C -0.04234 0.18055 0.41749
 C823 C -0.01288 0.16274 0.43764
 C824 C 0.00087 0.19804 0.44989
 C825 C 0.01081 0.16381 0.40596
 C826 C -0.01858 0.18206 0.38546
 C827 C -0.00474 0.21776 0.39747
 C828 C 0.02467 0.19953 0.41790
 H829 H -0.04505 0.23723 0.44020
 H830 H -0.07006 0.17264 0.41740
 H831 H 0.00888 0.20454 0.47661
 H832 H 0.02701 0.14197 0.39638
 H833 H -0.02703 0.17447 0.35921
 H834 H 0.05262 0.20633 0.41870
 C835 C 0.49978 0.67837 0.88594
 C836 C 0.52202 0.66954 0.91807
 C837 C 0.48872 0.66053 0.93774
 C838 C 0.46639 0.66890 0.90595
 C839 C 0.48537 0.69809 0.95057
 C840 C 0.51875 0.70755 0.93062
 C841 C 0.49646 0.71634 0.89856
 C842 C 0.46308 0.70689 0.91851
 H843 H 0.50584 0.66911 0.85961
 H844 H 0.54632 0.65393 0.91798
 H845 H 0.44474 0.65291 0.89570
 H846 H 0.47940 0.70608 0.97738
 H847 H 0.54048 0.72266 0.94182
 H848 H 0.43817 0.72136 0.91941
 C849 C 0.48387 0.79014 0.93156
 C850 C 0.51756 0.79918 0.95143
 C851 C 0.51414 0.83696 0.93931
 C852 C 0.48053 0.82837 0.91974
 C853 C 0.53596 0.82908 0.90719
 C854 C 0.53936 0.79088 0.91903
 C855 C 0.50567 0.78185 0.89917
 C856 C 0.50226 0.82005 0.88729
 H857 H 0.46226 0.77486 0.94262
 H858 H 0.52390 0.79071 0.97804
 H859 H 0.45626 0.84404 0.92015
 H860 H 0.55751 0.84518 0.89705
 H861 H 0.56424 0.77632 0.91942
 H862 H 0.49583 0.82986 0.86121
 C863 C 0.01920 0.31857 0.38457
 C864 C -0.01047 0.33747 0.40390
 C865 C 0.01255 0.33908 0.43618
 C866 C 0.04229 0.32064 0.41722
 C867 C -0.00172 0.30413 0.44874
 C868 C -0.02484 0.30211 0.41617
 C869 C 0.00483 0.28323 0.39690
 C870 C 0.02796 0.28527 0.42949
 H871 H 0.02819 0.32555 0.35839
 H872 H -0.02632 0.35919 0.39344
 H873 H 0.07004 0.32844 0.41772
 H874 H -0.01032 0.29815 0.47534
 H875 H -0.05285 0.29551 0.41649
 H876 H 0.04420 0.26452 0.44110
 C877 C 0.30166 0.58050 0.52374
 C878 C 0.30220 0.54734 0.50126
 C879 C 0.33678 0.55911 0.48559
 C880 C 0.33670 0.59197 0.50795
 C881 C 0.31752 0.57830 0.45660
 C882 C 0.28254 0.56680 0.47230
 C883 C 0.28198 0.59997 0.49478
 C884 C 0.31697 0.61152 0.47905
 H885 H 0.29608 0.58067 0.55171
 H886 H 0.29603 0.52076 0.51043
 H887 H 0.35924 0.60221 0.52265
 H888 H 0.32423 0.57730 0.42883
 H889 H 0.26110 0.55530 0.45703
 H890 H 0.32413 0.63767 0.46956
 C891 C 0.79183 0.06817 0.01494
 C892 C 0.79981 0.04808 -0.01864
 C893 C 0.83752 0.06083 -0.01689
 C894 C 0.83000 0.08062 0.01660
 C895 C 0.82824 0.09299 -0.03841
 C896 C 0.79008 0.08053 -0.04012
 C897 C 0.78214 0.10062 -0.00654
 C898 C 0.82028 0.11311 -0.00482
 H899 H 0.77760 0.05697 0.03704
 H900 H 0.79151 0.02109 -0.02438
 H901 H 0.84667 0.08055 0.03998
 H902 H 0.84327 0.10329 -0.06048
 H903 H 0.77450 0.07976 -0.06414
 H904 H 0.82995 0.13957 0.00095
 C905 C 0.70926 0.08071 0.03919
 C906 C 0.67100 0.09307 0.03740
 C907 C 0.66200 0.06076 0.01602
 C908 C 0.69982 0.04811 0.01787
 C909 C 0.66938 0.08036 -0.01755
 C910 C 0.67881 0.11301 0.00373
 C911 C 0.71705 0.10061 0.00552
 C912 C 0.70764 0.06801 -0.01580
 H913 H 0.72487 0.08017 0.06322
 H914 H 0.65586 0.10347 0.05942
 H915 H 0.70834 0.02118 0.02374
 H916 H 0.65274 0.08012 -0.04095
 H917 H 0.66893 0.13941 -0.00216
 H918 H 0.72198 0.05668 -0.03783
 C919 C 0.21532 0.56841 0.52937
 C920 C 0.18001 0.58103 0.54373
 C921 C 0.16136 0.56096 0.51496
 C922 C 0.19623 0.54807 0.50068
 C923 C 0.16235 0.59289 0.49138
 C924 C 0.18146 0.61331 0.52008
 C925 C 0.21673 0.60065 0.50569
 C926 C 0.19763 0.58031 0.47698
 H927 H 0.23655 0.55735 0.54534
 H928 H 0.17268 0.58127 0.57136
 H929 H 0.20220 0.52102 0.49270
 H930 H 0.14030 0.60287 0.47572
 H931 H 0.17439 0.63989 0.52852
 H932 H 0.20379 0.57940 0.44914
 C933 C 0.19896 0.42032 0.02299
 C934 C 0.19766 0.45273 -0.00052
 C935 C 0.16299 0.44000 -0.01548
 C936 C 0.16386 0.40793 0.00792
 C937 C 0.18202 0.42010 -0.04405
 C938 C 0.21714 0.43253 -0.02902
 C939 C 0.21840 0.40012 -0.00553
 C940 C 0.18331 0.38768 -0.02059
 H941 H 0.20489 0.42100 0.05092
 H942 H 0.20344 0.47971 0.00773
 H943 H 0.14167 0.39790 0.02313
 H944 H 0.17497 0.42006 -0.07180
 H945 H 0.23838 0.44376 -0.04462
 H946 H 0.17629 0.36122 -0.02938
 C947 C 0.69851 0.92013 0.52300
 C948 C 0.69727 0.95262 0.49963
 C949 C 0.66263 0.93996 0.48455
 C950 C 0.66345 0.90778 0.50780
 C951 C 0.68173 0.92019 0.45593
 C952 C 0.71680 0.93256 0.47108
 C953 C 0.71804 0.90007 0.49445
 C954 C 0.68300 0.88765 0.47926
 H955 H 0.70436 0.92076 0.55095
 H956 H 0.70308 0.97956 0.50801
 H957 H 0.64123 0.89769 0.52293
 H958 H 0.67470 0.92029 0.42818
 H959 H 0.73805 0.94385 0.45554
 H960 H 0.67609 0.86118 0.47042
 C961 C 0.81840 0.88825 0.52142
 C962 C 0.83764 0.90850 0.49285
 C963 C 0.83802 0.94073 0.51609
 C964 C 0.81924 0.92084 0.54474
 C965 C 0.80319 0.95307 0.50104
 C966 C 0.80239 0.92053 0.47769
 C967 C 0.78318 0.90035 0.50627
 C968 C 0.78398 0.93290 0.52962
 H969 H 0.82568 0.86185 0.53026
 H970 H 0.85998 0.89856 0.47771
 H971 H 0.82629 0.92106 0.57248
 H972 H 0.79698 0.97995 0.49267
 H973 H 0.79651 0.92107 0.44974
 H974 H 0.76257 0.94402 0.54518
 C975 C 0.31874 0.38731 0.02125
 C976 C 0.33801 0.40797 -0.00702
 C977 C 0.33871 0.43973 0.01684
 C978 C 0.31988 0.41943 0.04518
 C979 C 0.30391 0.45260 0.00215
 C980 C 0.30278 0.42051 -0.02182
 C981 C 0.28354 0.39994 0.00647
 C982 C 0.28465 0.43203 0.03041
 H983 H 0.32588 0.36073 0.02965
 H984 H 0.36023 0.39816 -0.02243
 H985 H 0.32696 0.41900 0.07291
 H986 H 0.29791 0.47968 -0.00572
 H987 H 0.29677 0.42154 -0.04972
 H988 H 0.26336 0.44305 0.04618
 C989 C 0.61798 0.49850 0.32283
 C990 C 0.58597 0.52089 0.33239
 C991 C 0.56600 0.48768 0.34128
 C992 C 0.59768 0.46520 0.33215
 C993 C 0.55224 0.48499 0.30425
 C994 C 0.57250 0.51829 0.29490
 C995 C 0.60447 0.49587 0.28536
 C996 C 0.58421 0.46257 0.29466
 H997 H 0.64476 0.50411 0.33176
 H998 H 0.58659 0.54495 0.34815
 H999 H 0.60813 0.44324 0.34756
 H1000 H 0.52496 0.47940 0.29675
 H1001 H 0.56111 0.54028 0.28029
 H1002 H 0.58277 0.43794 0.27995
 C1003 C 0.11753 -0.00240 0.81994
 C1004 C 0.08501 0.01956 0.82880
 C1005 C 0.06514 -0.01394 0.83686
 C1006 C 0.09733 -0.03599 0.82843
 C1007 C 0.05248 -0.01646 0.79944
 C1008 C 0.07264 0.01714 0.79093
 C1009 C 0.10512 -0.00486 0.78209
 C1010 C 0.08496 -0.03845 0.79057
 H1011 H 0.14400 0.00342 0.82963
 H1012 H 0.08492 0.04349 0.84475
 H1013 H 0.10759 -0.05799 0.84392
 H1014 H 0.02549 -0.02228 0.79111
 H1015 H 0.06143 0.03916 0.77623
 H1016 H 0.08424 -0.06300 0.77568
 C1017 C 0.08525 0.03998 0.70871
 C1018 C 0.09763 0.03733 0.67093
 C1019 C 0.06531 0.01568 0.66232
 C1020 C 0.05264 0.01839 0.69965
 C1021 C 0.08493 -0.01807 0.67055
 C1022 C 0.11759 0.00349 0.67959
 C1023 C 0.10517 0.00613 0.71735
 C1024 C 0.07255 -0.01545 0.70832
 H1025 H 0.08463 0.06456 0.72355
 H1026 H 0.10802 0.05917 0.65547
 H1027 H 0.02568 0.02458 0.70777
 H1028 H 0.08470 -0.04201 0.65461
 H1029 H 0.14401 -0.00269 0.67006
 H1030 H 0.06118 -0.03731 0.72296
 C1031 C 0.58365 0.54086 0.21225
 C1032 C 0.59498 0.53768 0.17420
 C1033 C 0.56189 0.51685 0.16653
 C1034 C 0.55028 0.52007 0.20416
 C1035 C 0.58085 0.48264 0.17444
 C1036 C 0.61429 0.50340 0.18253
 C1037 C 0.60295 0.50657 0.22058
 C1038 C 0.56957 0.48576 0.21253
 H1039 H 0.58397 0.56553 0.22694
 H1040 H 0.60555 0.55918 0.15839
 H1041 H 0.52371 0.52698 0.21295
 H1042 H 0.57959 0.45863 0.15864
 H1043 H 0.64032 0.49654 0.17240
 H1044 H 0.55817 0.46424 0.22764
 C1045 C 0.38361 -0.00415 0.18014
 C1046 C 0.41600 0.01790 0.17151
 C1047 C 0.43624 -0.01555 0.16361
 C1048 C 0.40419 -0.03769 0.17181
 C1049 C 0.44864 -0.01795 0.20113
 C1050 C 0.42809 0.01558 0.20948
 C1051 C 0.39575 -0.00652 0.21807
 C1052 C 0.41631 -0.04005 0.20975
 H1053 H 0.35716 0.00158 0.17026
 H1054 H 0.41598 0.04181 0.15555
 H1055 H 0.39424 -0.05974 0.15626
 H1056 H 0.47562 -0.02366 0.20966
 H1057 H 0.43897 0.03765 0.22428
 H1058 H 0.41720 -0.06460 0.22458
 C1059 C 0.88448 0.49568 0.67903
 C1060 C 0.91715 0.51735 0.67055
 C1061 C 0.93693 0.48367 0.66246
 C1062 C 0.90460 0.46192 0.67053
 C1063 C 0.94932 0.48089 0.69995
 C1064 C 0.92923 0.51466 0.70848
 C1065 C 0.89660 0.49295 0.71695
 C1066 C 0.91669 0.45918 0.70846
 H1067 H 0.85813 0.50182 0.66915
 H1068 H 0.91746 0.54133 0.65470
 H1069 H 0.89436 0.44009 0.65486
 H1070 H 0.97623 0.47476 0.70841
 H1071 H 0.94040 0.53651 0.72339
 H1072 H 0.91724 0.43458 0.72322
 C1073 C 0.88334 0.50093 0.81934
 C1074 C 0.91601 0.47925 0.82852
 C1075 C 0.93548 0.51292 0.83701
 C1076 C 0.90314 0.53469 0.82829
 C1077 C 0.94839 0.51571 0.79978
 C1078 C 0.92863 0.48195 0.79084
 C1079 C 0.89601 0.50367 0.78169
 C1080 C 0.91578 0.53743 0.79062
 H1081 H 0.85683 0.49478 0.82857
 H1082 H 0.91623 0.45526 0.84436
 H1083 H 0.89256 0.55651 0.84376
 H1084 H 0.97539 0.52184 0.79187
 H1085 H 0.94015 0.46009 0.77617
 H1086 H 0.91647 0.56206 0.77592
 C1087 C 0.42785 -0.01718 0.29197
 C1088 C 0.44740 0.01669 0.30092
 C1089 C 0.43452 0.01381 0.33815
 C1090 C 0.41525 -0.01996 0.32964
 C1091 C 0.40206 0.03540 0.32944
 C1092 C 0.41466 0.03822 0.29175
 C1093 C 0.39510 0.00434 0.28283
 C1094 C 0.38245 0.00153 0.32049
 H1095 H 0.43956 -0.03896 0.27735
 H1096 H 0.47435 0.02299 0.29299
 H1097 H 0.41559 -0.04395 0.34548
 H1098 H 0.39137 0.05716 0.34494
 H1099 H 0.41517 0.06285 0.27704
 H1100 H 0.35602 -0.00474 0.32981
   
