data_POSCAR
  _audit_creation_date              2014-09-24
  _audit_creation_method            'ToBaCCo'
  _symmetry_space_group_name_H-M    'P1'
  _symmetry_Int_Tables_number       1
  _symmetry_cell_setting            triclinic
  loop_
  _symmetry_equiv_pos_as_xyz
 x,y,z
_cell_length_a 33.9901
_cell_length_b 33.9399
_cell_length_c 33.8032
_cell_angle_alpha 85.463600
_cell_angle_beta 93.516100
_cell_angle_gamma 87.585000
loop_
  _atom_site_label
  _atom_site_type_symbol
  _atom_site_fract_x
  _atom_site_fract_y
  _atom_site_fract_z
Zn1 Zn 0.79828 0.73008 0.75544
 Zn2 Zn 0.79886 0.79732 0.69284
 Zn3 Zn 0.73236 0.74236 0.69300
 Zn4 Zn 0.74104 0.79963 0.75532
 O5 O 0.76764 0.76735 0.72415
 O6 O 0.84931 0.73121 0.74559
 O7 O 0.78600 0.79536 0.64085
 O8 O 0.73618 0.68973 0.70208
 O9 O 0.85005 0.78194 0.70023
 O10 O 0.78474 0.68039 0.74880
 O11 O 0.73842 0.75267 0.64099
 O12 O 0.68874 0.80009 0.74552
 O13 O 0.79627 0.84851 0.70179
 O14 O 0.68213 0.75651 0.70041
 O15 O 0.75375 0.85038 0.74851
 O16 O 0.75052 0.78533 0.80730
 O17 O 0.79552 0.73609 0.80742
 C18 C 0.86777 0.75394 0.72240
 C19 C 0.76099 0.77549 0.62249
 C20 C 0.75862 0.66678 0.72582
 C21 C 0.66728 0.78101 0.72246
 C22 C 0.77692 0.86767 0.72550
 C23 C 0.77420 0.75925 0.82578
 Zn24 Zn 0.23237 0.74235 0.69307
 Zn25 Zn 0.24105 0.79962 0.75538
 Zn26 Zn 0.29829 0.73007 0.75551
 Zn27 Zn 0.29886 0.79731 0.69290
 O28 O 0.26765 0.76734 0.72422
 O29 O 0.18214 0.75650 0.70048
 O30 O 0.25053 0.78532 0.80737
 O31 O 0.28474 0.68037 0.74887
 O32 O 0.18874 0.80008 0.74559
 O33 O 0.23618 0.68972 0.70215
 O34 O 0.29553 0.73608 0.80749
 O35 O 0.35005 0.78193 0.70029
 O36 O 0.25375 0.85037 0.74858
 O37 O 0.34932 0.73120 0.74566
 O38 O 0.29628 0.84850 0.70186
 O39 O 0.28600 0.79535 0.64091
 O40 O 0.23843 0.75266 0.64106
 C41 C 0.16728 0.78100 0.72253
 C42 C 0.27421 0.75924 0.82585
 C43 C 0.25862 0.66677 0.72590
 C44 C 0.36777 0.75393 0.72246
 C45 C 0.27692 0.86765 0.72557
 C46 C 0.26099 0.77548 0.62256
 Zn47 Zn 0.73858 0.23482 0.80692
 Zn48 Zn 0.79641 0.22965 0.74464
 Zn49 Zn 0.74238 0.30165 0.74451
 Zn50 Zn 0.80806 0.28635 0.80704
 O51 O 0.77136 0.26312 0.77578
 O52 O 0.74086 0.18291 0.80004
 O53 O 0.78522 0.24258 0.69264
 O54 O 0.69056 0.30107 0.75196
 O55 O 0.78342 0.17941 0.75349
 O56 O 0.68777 0.25056 0.79720
 O57 O 0.74706 0.29718 0.69251
 O58 O 0.80483 0.33939 0.80019
 O59 O 0.84916 0.22902 0.75225
 O60 O 0.75646 0.35045 0.75344
 O61 O 0.85767 0.27225 0.79742
 O62 O 0.80330 0.27401 0.85902
 O63 O 0.74993 0.23862 0.85890
 C64 C 0.76031 0.16289 0.77705
 C65 C 0.76499 0.27136 0.67416
 C66 C 0.67097 0.27838 0.77414
 C67 C 0.78249 0.36315 0.77713
 C68 C 0.87156 0.24814 0.77443
 C69 C 0.77778 0.25479 0.87738
 Zn70 Zn 0.29641 0.22964 0.74471
 Zn71 Zn 0.23858 0.23481 0.80698
 Zn72 Zn 0.30806 0.28634 0.80711
 Zn73 Zn 0.24239 0.30165 0.74457
 O74 O 0.27136 0.26311 0.77585
 O75 O 0.28342 0.17940 0.75356
 O76 O 0.24993 0.23861 0.85897
 O77 O 0.35768 0.27224 0.79749
 O78 O 0.24086 0.18290 0.80010
 O79 O 0.34917 0.22900 0.75232
 O80 O 0.30330 0.27399 0.85908
 O81 O 0.25647 0.35044 0.75351
 O82 O 0.18777 0.25055 0.79726
 O83 O 0.30484 0.33938 0.80026
 O84 O 0.19057 0.30106 0.75202
 O85 O 0.24707 0.29718 0.69258
 O86 O 0.28522 0.24257 0.69271
 C87 C 0.26031 0.16288 0.77712
 C88 C 0.27778 0.25478 0.87744
 C89 C 0.37156 0.24813 0.77449
 C90 C 0.28249 0.36314 0.77720
 C91 C 0.17097 0.27838 0.77420
 C92 C 0.26500 0.27135 0.67422
 Zn93 Zn 0.69194 0.71366 0.19289
 Zn94 Zn 0.76142 0.76519 0.19302
 Zn95 Zn 0.70359 0.77036 0.25529
 Zn96 Zn 0.75762 0.69835 0.25543
 O97 O 0.72864 0.73689 0.22415
 O98 O 0.69670 0.72601 0.14092
 O99 O 0.75914 0.81710 0.19990
 O100 O 0.65083 0.77100 0.24768
 O101 O 0.75007 0.76139 0.14103
 O102 O 0.64233 0.72776 0.20251
 O103 O 0.71658 0.82060 0.24644
 O104 O 0.75293 0.70282 0.30742
 O105 O 0.81223 0.74945 0.20273
 O106 O 0.71478 0.75743 0.30729
 O107 O 0.80943 0.69894 0.24798
 O108 O 0.74353 0.64956 0.24649
 O109 O 0.69516 0.66062 0.19974
 C110 C 0.72222 0.74522 0.12256
 C111 C 0.73969 0.83712 0.22288
 C112 C 0.62844 0.75187 0.22551
 C113 C 0.73500 0.72865 0.32578
 C114 C 0.82903 0.72162 0.22580
 C115 C 0.71751 0.63686 0.22280
 Zn116 Zn 0.26142 0.76518 0.19308
 Zn117 Zn 0.19194 0.71365 0.19296
 Zn118 Zn 0.25762 0.69835 0.25549
 Zn119 Zn 0.20359 0.77035 0.25536
 O120 O 0.22865 0.73688 0.22422
 O121 O 0.25007 0.76138 0.14110
 O122 O 0.19516 0.66061 0.19981
 O123 O 0.30944 0.69893 0.24804
 O124 O 0.19670 0.72599 0.14098
 O125 O 0.31223 0.74944 0.20280
 O126 O 0.24354 0.64955 0.24656
 O127 O 0.21478 0.75742 0.30736
 O128 O 0.14233 0.72775 0.20258
 O129 O 0.25294 0.70282 0.30749
 O130 O 0.15084 0.77098 0.24775
 O131 O 0.21658 0.82059 0.24651
 O132 O 0.25914 0.81709 0.19996
 C133 C 0.22222 0.74521 0.12262
 C134 C 0.21751 0.63685 0.22287
 C135 C 0.32903 0.72162 0.22586
 C136 C 0.23501 0.72864 0.32584
 C137 C 0.12844 0.75186 0.22557
 C138 C 0.23969 0.83711 0.22295
 Zn139 Zn 0.70171 0.26993 0.24449
 Zn140 Zn 0.75895 0.20038 0.24462
 Zn141 Zn 0.76763 0.25765 0.30693
 Zn142 Zn 0.70113 0.20269 0.30710
 O143 O 0.73235 0.23266 0.27578
 O144 O 0.70447 0.26392 0.19251
 O145 O 0.81126 0.19992 0.25441
 O146 O 0.76382 0.31028 0.29785
 O147 O 0.74947 0.21468 0.19263
 O148 O 0.71526 0.31962 0.25113
 O149 O 0.81786 0.24350 0.29952
 O150 O 0.71400 0.20465 0.35908
 O151 O 0.74625 0.14963 0.25142
 O152 O 0.76157 0.24734 0.35894
 O153 O 0.70372 0.15150 0.29814
 O154 O 0.64995 0.21807 0.29970
 O155 O 0.65068 0.26880 0.25434
 C156 C 0.72579 0.24076 0.17415
 C157 C 0.83272 0.21900 0.27747
 C158 C 0.74138 0.33323 0.27410
 C159 C 0.73901 0.22452 0.37744
 C160 C 0.72308 0.13235 0.27443
 C161 C 0.63223 0.24607 0.27754
 Zn162 Zn 0.20172 0.26992 0.24456
 Zn163 Zn 0.25896 0.20037 0.24468
 Zn164 Zn 0.26763 0.25764 0.30700
 Zn165 Zn 0.20114 0.20268 0.30716
 O166 O 0.23236 0.23265 0.27584
 O167 O 0.20448 0.26391 0.19258
 O168 O 0.31126 0.19991 0.25448
 O169 O 0.26382 0.31027 0.29792
 O170 O 0.24948 0.21467 0.19270
 O171 O 0.21526 0.31962 0.25120
 O172 O 0.31787 0.24349 0.29959
 O173 O 0.21400 0.20465 0.35915
 O174 O 0.24625 0.14962 0.25149
 O175 O 0.26158 0.24733 0.35901
 O176 O 0.20373 0.15149 0.29821
 O177 O 0.14995 0.21806 0.29977
 O178 O 0.15069 0.26879 0.25441
 C179 C 0.22580 0.24075 0.17422
 C180 C 0.33272 0.21899 0.27754
 C181 C 0.24138 0.33322 0.27417
 C182 C 0.23901 0.22451 0.37751
 C183 C 0.22308 0.13234 0.27450
 C184 C 0.13223 0.24606 0.27760
 C185 C -0.06500 0.78010 0.71882
 C186 C -0.02389 0.77412 0.71884
 C187 C -0.00702 0.73521 0.71961
 C188 C -0.03145 0.70293 0.72165
 C189 C -0.07221 0.70911 0.72307
 C190 C -0.08925 0.74765 0.72126
 C191 C 0.03399 0.72916 0.71887
 C192 C 0.05848 0.76140 0.71889
 C193 C 0.04170 0.80019 0.71967
 C194 C 0.00059 0.80636 0.71888
 C195 C 0.06640 0.83213 0.72176
 C196 C 0.10734 0.82571 0.72322
 C197 C 0.12415 0.78747 0.72139
 C198 C 0.09958 0.75543 0.71891
 H199 H -0.07809 0.80988 0.71800
 H200 H -0.01901 0.67292 0.72258
 H201 H -0.09057 0.68379 0.72495
 H202 H 0.04688 0.69936 0.71899
 H203 H -0.01228 0.83615 0.71900
 H204 H 0.05408 0.86199 0.72269
 H205 H 0.12593 0.85073 0.72512
 H206 H 0.11257 0.72579 0.71808
 C207 C 0.76013 -0.06692 0.75181
 C208 C 0.76435 -0.02595 0.75215
 C209 C 0.79025 -0.00689 0.72646
 C210 C 0.81147 -0.02905 0.70097
 C211 C 0.80710 -0.06974 0.70079
 C212 C 0.78142 -0.08913 0.72611
 C213 C 0.79450 0.03400 0.72659
 C214 C 0.77317 0.05618 0.75205
 C215 C 0.74730 0.03720 0.77779
 C216 C 0.74305 -0.00375 0.77770
 C217 C 0.72606 0.05958 0.80317
 C218 C 0.73033 0.10038 0.80300
 C219 C 0.75593 0.11959 0.77747
 C220 C 0.77731 0.09712 0.75208
 H221 H 0.74022 -0.08143 0.77150
 H222 H 0.83145 -0.01491 0.68111
 H223 H 0.82390 -0.08603 0.68071
 H224 H 0.81436 0.04857 0.70683
 H225 H 0.72317 -0.01831 0.79744
 H226 H 0.70610 0.04554 0.82311
 H227 H 0.71349 0.11691 0.82287
 H228 H 0.79717 0.11146 0.73221
 C229 C 0.74304 0.76110 -0.10943
 C230 C 0.74551 0.75739 -0.06769
 C231 C 0.78271 0.74982 -0.04669
 C232 C 0.81656 0.74473 -0.06782
 C233 C 0.81362 0.74716 -0.10936
 C234 C 0.77701 0.75583 -0.13042
 C235 C 0.78542 0.74712 -0.00499
 C236 C 0.75127 0.75055 0.01603
 C237 C 0.71392 0.75654 -0.00497
 C238 C 0.71134 0.76059 -0.04668
 C239 C 0.67971 0.75803 0.01616
 C240 C 0.68245 0.75368 0.05769
 C241 C 0.71945 0.74890 0.07876
 C242 C 0.75381 0.74754 0.05777
 H243 H 0.71462 0.76724 -0.12563
 H244 H 0.84524 0.73860 -0.05223
 H245 H 0.84010 0.74303 -0.12511
 H246 H 0.81401 0.74184 0.01110
 H247 H 0.68274 0.76572 -0.06276
 H248 H 0.65084 0.76229 0.00056
 H249 H 0.65567 0.75480 0.07345
 H250 H 0.78241 0.74328 0.07397
 C251 C 0.59958 0.75543 0.71889
 C252 C 0.55848 0.76140 0.71888
 C253 C 0.54169 0.80019 0.71963
 C254 C 0.56639 0.83214 0.72168
 C255 C 0.60733 0.82573 0.72313
 C256 C 0.62414 0.78748 0.72133
 C257 C 0.50059 0.80636 0.71884
 C258 C 0.47611 0.77412 0.71885
 C259 C 0.49299 0.73520 0.71966
 C260 C 0.53399 0.72916 0.71890
 C261 C 0.46856 0.70292 0.72174
 C262 C 0.42780 0.70910 0.72317
 C263 C 0.41076 0.74764 0.72132
 C264 C 0.43500 0.78009 0.71884
 H265 H 0.61257 0.72579 0.71809
 H266 H 0.55407 0.86200 0.72258
 H267 H 0.62593 0.85075 0.72500
 H268 H 0.48772 0.83615 0.71894
 H269 H 0.54688 0.69935 0.71904
 H270 H 0.48100 0.67291 0.72269
 H271 H 0.40945 0.68378 0.72507
 H272 H 0.42191 0.80987 0.71799
 C273 C 0.26013 -0.06693 0.75188
 C274 C 0.26435 -0.02596 0.75222
 C275 C 0.29025 -0.00690 0.72654
 C276 C 0.31148 -0.02906 0.70105
 C277 C 0.30711 -0.06975 0.70087
 C278 C 0.28143 -0.08915 0.72618
 C279 C 0.29451 0.03399 0.72666
 C280 C 0.27318 0.05617 0.75212
 C281 C 0.24730 0.03719 0.77786
 C282 C 0.24305 -0.00376 0.77777
 C283 C 0.22606 0.05957 0.80323
 C284 C 0.23033 0.10037 0.80307
 C285 C 0.25593 0.11958 0.77754
 C286 C 0.27731 0.09711 0.75215
 H287 H 0.24022 -0.08144 0.77157
 H288 H 0.33146 -0.01492 0.68119
 H289 H 0.32391 -0.08604 0.68078
 H290 H 0.31437 0.04855 0.70691
 H291 H 0.22317 -0.01832 0.79750
 H292 H 0.20609 0.04553 0.82317
 H293 H 0.21349 0.11690 0.82293
 H294 H 0.29718 0.11145 0.73229
 C295 C 0.24304 0.76109 -0.10936
 C296 C 0.24551 0.75738 -0.06762
 C297 C 0.28271 0.74981 -0.04663
 C298 C 0.31656 0.74472 -0.06775
 C299 C 0.31363 0.74716 -0.10929
 C300 C 0.27701 0.75582 -0.13035
 C301 C 0.28543 0.74711 -0.00492
 C302 C 0.25128 0.75054 0.01610
 C303 C 0.21392 0.75652 -0.00490
 C304 C 0.21134 0.76058 -0.04661
 C305 C 0.17971 0.75801 0.01622
 C306 C 0.18245 0.75366 0.05776
 C307 C 0.21945 0.74888 0.07882
 C308 C 0.25382 0.74753 0.05784
 H309 H 0.21463 0.76722 -0.12556
 H310 H 0.34525 0.73860 -0.05216
 H311 H 0.34011 0.74302 -0.12505
 H312 H 0.31401 0.74183 0.01116
 H313 H 0.18274 0.76570 -0.06269
 H314 H 0.15084 0.76226 0.00063
 H315 H 0.15567 0.75478 0.07351
 H316 H 0.28242 0.74327 0.07404
 C317 C -0.06109 0.27463 0.77524
 C318 C -0.01997 0.26917 0.77450
 C319 C -0.00281 0.23056 0.77371
 C320 C -0.02719 0.19830 0.77207
 C321 C -0.06818 0.20419 0.77144
 C322 C -0.08533 0.24223 0.77362
 C323 C 0.03835 0.22483 0.77438
 C324 C 0.06252 0.25735 0.77447
 C325 C 0.04524 0.29611 0.77343
 C326 C 0.00417 0.30173 0.77412
 C327 C 0.06940 0.32864 0.77151
 C328 C 0.11030 0.32284 0.77088
 C329 C 0.12775 0.28444 0.77332
 C330 C 0.10373 0.25177 0.77519
 H331 H -0.07433 0.30413 0.77634
 H332 H -0.01458 0.16856 0.77110
 H333 H -0.08649 0.17891 0.77017
 H334 H 0.05153 0.19516 0.77443
 H335 H -0.00902 0.33141 0.77398
 H336 H 0.05665 0.35854 0.77034
 H337 H 0.12844 0.34834 0.76941
 H338 H 0.11712 0.22208 0.77650
 C339 C 0.77891 0.59710 0.75215
 C340 C 0.77481 0.55606 0.75247
 C341 C 0.74561 0.54115 0.72681
 C342 C 0.72102 0.56743 0.70137
 C343 C 0.72529 0.60816 0.70120
 C344 C 0.75424 0.62347 0.72648
 C345 C 0.74145 0.50023 0.72690
 C346 C 0.76614 0.47393 0.75230
 C347 C 0.79533 0.48874 0.77803
 C348 C 0.79948 0.52972 0.77798
 C349 C 0.81991 0.46225 0.80335
 C350 C 0.81571 0.42146 0.80313
 C351 C 0.78683 0.40638 0.77760
 C352 C 0.76210 0.43297 0.75228
 H353 H 0.80136 0.60843 0.77181
 H354 H 0.69849 0.55649 0.68153
 H355 H 0.70586 0.62769 0.68114
 H356 H 0.71905 0.48886 0.70716
 H357 H 0.82189 0.54108 0.79770
 H358 H 0.84244 0.47305 0.82328
 H359 H 0.83516 0.40171 0.82295
 H360 H 0.73968 0.42185 0.73242
 C361 C 0.74619 0.25247 -0.05784
 C362 C 0.74872 0.24946 -0.01610
 C363 C 0.78608 0.24348 0.00490
 C364 C 0.82029 0.24200 -0.01622
 C365 C 0.81755 0.24635 -0.05776
 C366 C 0.78055 0.25112 -0.07882
 C367 C 0.78866 0.23943 0.04661
 C368 C 0.75449 0.24262 0.06762
 C369 C 0.71729 0.25019 0.04663
 C370 C 0.71457 0.25289 0.00492
 C371 C 0.68344 0.25527 0.06775
 C372 C 0.68637 0.25284 0.10929
 C373 C 0.72299 0.24418 0.13035
 C374 C 0.75696 0.23891 0.10936
 H375 H 0.71758 0.25672 -0.07404
 H376 H 0.84916 0.23775 -0.00063
 H377 H 0.84433 0.24523 -0.07351
 H378 H 0.81726 0.23431 0.06269
 H379 H 0.68599 0.25816 -0.01116
 H380 H 0.65475 0.26139 0.05216
 H381 H 0.65989 0.25697 0.12504
 H382 H 0.78537 0.23278 0.12556
 C383 C 0.60372 0.25177 0.77517
 C384 C 0.56252 0.25735 0.77446
 C385 C 0.54524 0.29611 0.77341
 C386 C 0.56939 0.32864 0.77146
 C387 C 0.61029 0.32284 0.77082
 C388 C 0.62775 0.28445 0.77327
 C389 C 0.50416 0.30173 0.77411
 C390 C 0.48003 0.26917 0.77452
 C391 C 0.49719 0.23055 0.77375
 C392 C 0.53835 0.22483 0.77440
 C393 C 0.47281 0.19829 0.77213
 C394 C 0.43183 0.20418 0.77152
 C395 C 0.41467 0.24222 0.77368
 C396 C 0.43891 0.27463 0.77527
 H397 H 0.61712 0.22209 0.77649
 H398 H 0.55664 0.35855 0.77028
 H399 H 0.62843 0.34834 0.76933
 H400 H 0.49097 0.33141 0.77395
 H401 H 0.55154 0.19515 0.77446
 H402 H 0.48543 0.16855 0.77117
 H403 H 0.41351 0.17889 0.77026
 H404 H 0.42567 0.30412 0.77636
 C405 C 0.27892 0.59709 0.75222
 C406 C 0.27482 0.55605 0.75255
 C407 C 0.24561 0.54113 0.72689
 C408 C 0.22102 0.56742 0.70145
 C409 C 0.22529 0.60815 0.70128
 C410 C 0.25424 0.62346 0.72656
 C411 C 0.24145 0.50021 0.72698
 C412 C 0.26615 0.47391 0.75238
 C413 C 0.29533 0.48873 0.77811
 C414 C 0.29948 0.52971 0.77805
 C415 C 0.31992 0.46223 0.80342
 C416 C 0.31572 0.42145 0.80320
 C417 C 0.28684 0.40637 0.77768
 C418 C 0.26211 0.43296 0.75235
 H419 H 0.30137 0.60842 0.77188
 H420 H 0.19848 0.55648 0.68161
 H421 H 0.20586 0.62768 0.68122
 H422 H 0.21905 0.48885 0.70724
 H423 H 0.32190 0.54107 0.79777
 H424 H 0.34245 0.47304 0.82335
 H425 H 0.33518 0.40170 0.82302
 H426 H 0.23969 0.42184 0.73250
 C427 C 0.24619 0.25246 -0.05777
 C428 C 0.24873 0.24945 -0.01603
 C429 C 0.28608 0.24346 0.00497
 C430 C 0.32029 0.24198 -0.01616
 C431 C 0.31755 0.24633 -0.05769
 C432 C 0.28055 0.25110 -0.07875
 C433 C 0.28866 0.23941 0.04668
 C434 C 0.25449 0.24261 0.06769
 C435 C 0.21729 0.25018 0.04669
 C436 C 0.21458 0.25288 0.00499
 C437 C 0.18344 0.25527 0.06782
 C438 C 0.18638 0.25283 0.10936
 C439 C 0.22299 0.24417 0.13042
 C440 C 0.25696 0.23890 0.10943
 H441 H 0.21759 0.25672 -0.07397
 H442 H 0.34916 0.23772 -0.00056
 H443 H 0.34433 0.24520 -0.07345
 H444 H 0.31726 0.23429 0.06276
 H445 H 0.18599 0.25816 -0.01110
 H446 H 0.15476 0.26139 0.05223
 H447 H 0.15989 0.25697 0.12511
 H448 H 0.28538 0.23276 0.12563
 C449 C -0.10373 0.74823 0.22480
 C450 C -0.06252 0.74265 0.22553
 C451 C -0.04524 0.70389 0.22657
 C452 C -0.06940 0.67136 0.22849
 C453 C -0.11030 0.67716 0.22912
 C454 C -0.12775 0.71556 0.22668
 C455 C -0.00416 0.69827 0.22588
 C456 C 0.01997 0.73083 0.22550
 C457 C 0.00281 0.76945 0.22628
 C458 C -0.03835 0.77517 0.22562
 C459 C 0.02719 0.80170 0.22793
 C460 C 0.06818 0.79581 0.22855
 C461 C 0.08533 0.75777 0.22638
 C462 C 0.06109 0.72537 0.22476
 H463 H -0.11712 0.77792 0.22350
 H464 H -0.05665 0.64146 0.22967
 H465 H -0.12844 0.65166 0.23059
 H466 H 0.00902 0.66859 0.22603
 H467 H -0.05153 0.80484 0.22556
 H468 H 0.01458 0.83144 0.22890
 H469 H 0.08649 0.82109 0.22983
 H470 H 0.07433 0.69587 0.22367
 C471 C 0.72269 -0.09711 0.24785
 C472 C 0.72682 -0.05617 0.24788
 C473 C 0.75270 -0.03719 0.22213
 C474 C 0.77394 -0.05957 0.19676
 C475 C 0.76967 -0.10037 0.19693
 C476 C 0.74407 -0.11958 0.22246
 C477 C 0.75694 0.00376 0.22222
 C478 C 0.73565 0.02596 0.24778
 C479 C 0.70975 0.00690 0.27347
 C480 C 0.70550 -0.03399 0.27334
 C481 C 0.68853 0.02906 0.29896
 C482 C 0.69289 0.06975 0.29914
 C483 C 0.71857 0.08914 0.27382
 C484 C 0.73987 0.06693 0.24812
 H485 H 0.70283 -0.11145 0.26772
 H486 H 0.79390 -0.04553 0.17682
 H487 H 0.78650 -0.11690 0.17706
 H488 H 0.77682 0.01832 0.20249
 H489 H 0.68564 -0.04856 0.29310
 H490 H 0.66855 0.01492 0.31882
 H491 H 0.67610 0.08604 0.31922
 H492 H 0.75977 0.08144 0.22843
 C493 C 0.75127 0.74559 0.55774
 C494 C 0.74892 0.74873 0.51600
 C495 C 0.75185 0.78612 0.49498
 C496 C 0.75846 0.81944 0.51608
 C497 C 0.76209 0.81578 0.55762
 C498 C 0.75805 0.77901 0.57870
 C499 C 0.74847 0.78956 0.45327
 C500 C 0.74356 0.75588 0.43228
 C501 C 0.74224 0.71826 0.45329
 C502 C 0.74424 0.71502 0.49500
 C503 C 0.73927 0.68444 0.43218
 C504 C 0.73758 0.68783 0.39064
 C505 C 0.73769 0.72514 0.36957
 C506 C 0.74050 0.75912 0.39054
 H507 H 0.74870 0.71704 0.57396
 H508 H 0.76109 0.84825 0.50047
 H509 H 0.76732 0.84185 0.57336
 H510 H 0.75018 0.81832 0.43718
 H511 H 0.74269 0.68623 0.51110
 H512 H 0.73854 0.65536 0.44779
 H513 H 0.73543 0.66134 0.37490
 H514 H 0.74116 0.78794 0.37432
 C515 C 0.56109 0.72537 0.22473
 C516 C 0.51997 0.73083 0.22548
 C517 C 0.50281 0.76945 0.22625
 C518 C 0.52719 0.80171 0.22786
 C519 C 0.56817 0.79582 0.22848
 C520 C 0.58533 0.75778 0.22632
 C521 C 0.46165 0.77517 0.22560
 C522 C 0.43748 0.74265 0.22554
 C523 C 0.45476 0.70389 0.22660
 C524 C 0.49584 0.69827 0.22589
 C525 C 0.43061 0.67136 0.22855
 C526 C 0.38971 0.67716 0.22919
 C527 C 0.37225 0.71555 0.22674
 C528 C 0.39628 0.74823 0.22483
 H529 H 0.57433 0.69587 0.22365
 H530 H 0.51457 0.83145 0.22882
 H531 H 0.58649 0.82111 0.22973
 H532 H 0.44846 0.80485 0.22553
 H533 H 0.50903 0.66859 0.22606
 H534 H 0.44336 0.64145 0.22974
 H535 H 0.37157 0.65166 0.23068
 H536 H 0.38288 0.77791 0.22351
 C537 C 0.22269 -0.09712 0.24792
 C538 C 0.22683 -0.05618 0.24795
 C539 C 0.25270 -0.03720 0.22221
 C540 C 0.27394 -0.05958 0.19684
 C541 C 0.26967 -0.10038 0.19700
 C542 C 0.24407 -0.11959 0.22253
 C543 C 0.25695 0.00375 0.22230
 C544 C 0.23565 0.02595 0.24785
 C545 C 0.20976 0.00689 0.27354
 C546 C 0.20550 -0.03401 0.27341
 C547 C 0.18853 0.02905 0.29903
 C548 C 0.19290 0.06974 0.29921
 C549 C 0.21857 0.08913 0.27389
 C550 C 0.23987 0.06692 0.24819
 H551 H 0.20283 -0.11146 0.26779
 H552 H 0.29390 -0.04554 0.17690
 H553 H 0.28651 -0.11691 0.17713
 H554 H 0.27683 0.01831 0.20256
 H555 H 0.18564 -0.04857 0.29317
 H556 H 0.16856 0.01491 0.31889
 H557 H 0.17610 0.08603 0.31929
 H558 H 0.25978 0.08143 0.22850
 C559 C 0.25128 0.74557 0.55780
 C560 C 0.24892 0.74872 0.51606
 C561 C 0.25185 0.78611 0.49505
 C562 C 0.25846 0.81943 0.51615
 C563 C 0.26209 0.81577 0.55769
 C564 C 0.25805 0.77900 0.57877
 C565 C 0.24847 0.78955 0.45334
 C566 C 0.24356 0.75586 0.43234
 C567 C 0.24225 0.71824 0.45336
 C568 C 0.24425 0.71500 0.49507
 C569 C 0.23929 0.68442 0.43225
 C570 C 0.23760 0.68782 0.39071
 C571 C 0.23770 0.72513 0.36964
 C572 C 0.24050 0.75911 0.39060
 H573 H 0.24871 0.71702 0.57402
 H574 H 0.26108 0.84824 0.50054
 H575 H 0.26731 0.84184 0.57343
 H576 H 0.25018 0.81831 0.43724
 H577 H 0.24270 0.68622 0.51116
 H578 H 0.23856 0.65535 0.44786
 H579 H 0.23544 0.66132 0.37496
 H580 H 0.24116 0.78793 0.37439
 C581 C -0.09958 0.24457 0.28109
 C582 C -0.05848 0.23859 0.28111
 C583 C -0.04170 0.19981 0.28032
 C584 C -0.06640 0.16787 0.27822
 C585 C -0.10734 0.17429 0.27677
 C586 C -0.12415 0.21253 0.27861
 C587 C -0.00059 0.19364 0.28111
 C588 C 0.02389 0.22588 0.28116
 C589 C 0.00702 0.26479 0.28039
 C590 C -0.03399 0.27084 0.28114
 C591 C 0.03145 0.29707 0.27836
 C592 C 0.07221 0.29089 0.27694
 C593 C 0.08925 0.25235 0.27875
 C594 C 0.06500 0.21990 0.28117
 H595 H -0.11256 0.27421 0.28193
 H596 H -0.05408 0.13801 0.27728
 H597 H -0.12594 0.14927 0.27486
 H598 H 0.01228 0.16385 0.28098
 H599 H -0.04688 0.30064 0.28103
 H600 H 0.01901 0.32708 0.27744
 H601 H 0.09057 0.31621 0.27507
 H602 H 0.07809 0.19012 0.28199
 C603 C 0.73789 0.56704 0.24765
 C604 C 0.73385 0.52609 0.24762
 C605 C 0.70467 0.51127 0.22189
 C606 C 0.68008 0.53777 0.19658
 C607 C 0.68429 0.57855 0.19679
 C608 C 0.71316 0.59363 0.22232
 C609 C 0.70052 0.47029 0.22194
 C610 C 0.72518 0.44395 0.24745
 C611 C 0.75439 0.45886 0.27311
 C612 C 0.75855 0.49978 0.27302
 C613 C 0.77898 0.43258 0.29856
 C614 C 0.77470 0.39185 0.29873
 C615 C 0.74576 0.37654 0.27344
 C616 C 0.72108 0.40291 0.24778
 H617 H 0.76031 0.57816 0.26751
 H618 H 0.65756 0.52696 0.17665
 H619 H 0.66483 0.59830 0.17697
 H620 H 0.67810 0.45893 0.20223
 H621 H 0.78095 0.51115 0.29276
 H622 H 0.80151 0.44352 0.31840
 H623 H 0.79413 0.37232 0.31879
 H624 H 0.69863 0.39158 0.22811
 C625 C 0.75950 0.24089 0.60940
 C626 C 0.75644 0.24413 0.56766
 C627 C 0.75775 0.28175 0.54664
 C628 C 0.76071 0.31557 0.56775
 C629 C 0.76240 0.31218 0.60929
 C630 C 0.76230 0.27487 0.63036
 C631 C 0.75575 0.28500 0.50493
 C632 C 0.75108 0.25128 0.48394
 C633 C 0.74815 0.21389 0.50495
 C634 C 0.75153 0.21045 0.54666
 C635 C 0.74154 0.18057 0.48385
 C636 C 0.73791 0.18423 0.44231
 C637 C 0.74195 0.22100 0.42123
 C638 C 0.74873 0.25443 0.44219
 H639 H 0.75884 0.21207 0.62561
 H640 H 0.76145 0.34465 0.55214
 H641 H 0.76456 0.33867 0.62504
 H642 H 0.75730 0.31378 0.48884
 H643 H 0.74982 0.18169 0.56276
 H644 H 0.73891 0.15176 0.49946
 H645 H 0.73269 0.15816 0.42657
 H646 H 0.75129 0.28298 0.42598
 C647 C 0.56500 0.21991 0.28116
 C648 C 0.52389 0.22588 0.28115
 C649 C 0.50701 0.26480 0.28034
 C650 C 0.53144 0.29708 0.27826
 C651 C 0.57220 0.29089 0.27683
 C652 C 0.58924 0.25236 0.27868
 C653 C 0.46600 0.27084 0.28110
 C654 C 0.44152 0.23860 0.28112
 C655 C 0.45830 0.19981 0.28037
 C656 C 0.49941 0.19364 0.28116
 C657 C 0.43361 0.16786 0.27832
 C658 C 0.39267 0.17428 0.27687
 C659 C 0.37586 0.21252 0.27867
 C660 C 0.40042 0.24457 0.28110
 H661 H 0.57809 0.19013 0.28201
 H662 H 0.51900 0.32709 0.27731
 H663 H 0.59055 0.31622 0.27493
 H664 H 0.45312 0.30065 0.28095
 H665 H 0.51228 0.16385 0.28106
 H666 H 0.44593 0.13800 0.27742
 H667 H 0.37407 0.14925 0.27500
 H668 H 0.38743 0.27422 0.28191
 C669 C 0.23790 0.56703 0.24772
 C670 C 0.23386 0.52607 0.24769
 C671 C 0.20467 0.51126 0.22197
 C672 C 0.18008 0.53776 0.19666
 C673 C 0.18429 0.57854 0.19687
 C674 C 0.21316 0.59362 0.22240
 C675 C 0.20052 0.47028 0.22202
 C676 C 0.22519 0.44394 0.24752
 C677 C 0.25440 0.45885 0.27318
 C678 C 0.25856 0.49977 0.27309
 C679 C 0.27899 0.43257 0.29862
 C680 C 0.27471 0.39184 0.29879
 C681 C 0.24576 0.37653 0.27351
 C682 C 0.22109 0.40290 0.24785
 H683 H 0.26032 0.57815 0.26757
 H684 H 0.15755 0.52695 0.17673
 H685 H 0.16483 0.59829 0.17705
 H686 H 0.17810 0.45892 0.20231
 H687 H 0.28096 0.51114 0.29283
 H688 H 0.30152 0.44351 0.31846
 H689 H 0.29415 0.37231 0.31885
 H690 H 0.19863 0.39157 0.22819
 C691 C 0.25950 0.24088 0.60946
 C692 C 0.25644 0.24412 0.56772
 C693 C 0.25777 0.28174 0.54671
 C694 C 0.26073 0.31556 0.56782
 C695 C 0.26242 0.31217 0.60936
 C696 C 0.26231 0.27486 0.63043
 C697 C 0.25576 0.28499 0.50500
 C698 C 0.25108 0.25127 0.48400
 C699 C 0.24815 0.21388 0.50502
 C700 C 0.25153 0.21044 0.54673
 C701 C 0.24153 0.18056 0.48392
 C702 C 0.23790 0.18422 0.44238
 C703 C 0.24195 0.22099 0.42130
 C704 C 0.24873 0.25442 0.44226
 H705 H 0.25884 0.21206 0.62568
 H706 H 0.26147 0.34464 0.55221
 H707 H 0.26458 0.33866 0.62510
 H708 H 0.25732 0.31377 0.48890
 H709 H 0.24981 0.18168 0.56282
 H710 H 0.23890 0.15175 0.49952
 H711 H 0.23268 0.15816 0.42663
 H712 H 0.25131 0.28297 0.42604
   
