data_POSCAR
  _audit_creation_date              2014-09-24
  _audit_creation_method            'ToBaCCo'
  _symmetry_space_group_name_H-M    'P1'
  _symmetry_Int_Tables_number       1
  _symmetry_cell_setting            triclinic
  loop_
  _symmetry_equiv_pos_as_xyz
 x,y,z
_cell_length_a 17.9862
_cell_length_b 22.0028
_cell_length_c 19.5832
_cell_angle_alpha 89.438800
_cell_angle_beta 86.026500
_cell_angle_gamma 88.299300
loop_
  _atom_site_label
  _atom_site_type_symbol
  _atom_site_fract_x
  _atom_site_fract_y
  _atom_site_fract_z
C1 C 0.33385 0.32447 1.41028
 C2 C 0.35150 0.26201 1.40730
 C3 C 0.40340 0.23981 1.35637
 C4 C 0.43827 0.27943 1.30976
 C5 C 0.41957 0.34112 1.31113
 C6 C 0.36761 0.36424 1.36196
 H7 H 0.32392 0.23087 1.44334
 H8 H 0.47610 0.26158 1.26874
 H9 H 0.35186 0.41216 1.36272
 C10 C 1.19026 0.64429 0.89163
 C11 C 1.18113 0.61270 0.83164
 C12 C 1.14360 0.64045 0.77899
 C13 C 1.11689 0.70112 0.78558
 C14 C 1.12993 0.73421 0.84430
 C15 C 1.16643 0.70502 0.89741
 H16 H 1.19929 0.56538 0.82734
 H17 H 1.08686 0.72246 0.74526
 H18 H 1.17317 0.72856 0.94484
 C19 C 0.70754 -0.15274 0.08848
 C20 C 0.66263 -0.20193 0.07636
 C21 C 0.61523 -0.22512 0.12902
 C22 C 0.61351 -0.19976 0.19413
 C23 C 0.65631 -0.14914 0.20698
 C24 C 0.70486 -0.12641 0.15396
 H25 H 0.66143 -0.21976 0.02501
 H26 H 0.57400 -0.21673 0.23358
 H27 H 0.73670 -0.08647 0.16246
 C28 C -0.20002 1.14613 -0.40469
 C29 C -0.17429 1.20577 -0.41405
 C30 C -0.11358 1.22518 -0.37887
 C31 C -0.08060 1.18524 -0.33273
 C32 C -0.10722 1.12637 -0.32107
 C33 C -0.16480 1.10649 -0.35903
 H34 H -0.20336 1.23751 -0.44623
 H35 H -0.03743 1.20172 -0.30229
 H36 H -0.18615 1.06159 -0.34858
 C37 C 0.68568 0.61019 0.60669
 C38 C 0.65105 0.59110 0.66879
 C39 C 0.59404 0.62671 0.70175
 C40 C 0.57120 0.68154 0.67199
 C41 C 0.60775 0.70201 0.61054
 C42 C 0.66392 0.66575 0.57751
 H43 H 0.66973 0.54903 0.69219
 H44 H 0.52781 0.70929 0.69846
 H45 H 0.69277 0.68227 0.53091
 C46 C 0.82540 0.38321 0.11231
 C47 C 0.82890 0.32135 0.09322
 C48 C 0.87797 0.27998 0.12364
 C49 C 0.92380 0.30037 0.17300
 C50 C 0.92039 0.36118 0.19314
 C51 C 0.87263 0.40284 0.16102
 H52 H 0.79021 0.30449 0.05837
 H53 H 0.95766 0.26785 0.20009
 H54 H 0.86715 0.44954 0.17804
 C55 C 0.28192 0.17731 0.88180
 C56 C 0.30696 0.15028 0.81964
 C57 C 0.34471 0.18463 0.76757
 C58 C 0.35577 0.24666 0.77819
 C59 C 0.33345 0.27331 0.84143
 C60 C 0.29471 0.23859 0.89226
 H61 H 0.29976 0.10202 0.81303
 H62 H 0.38779 0.27257 0.73978
 H63 H 0.27892 0.25826 0.94189
 C64 C 0.18268 0.86685 0.40843
 C65 C 0.16722 0.90022 0.34950
 C66 C 0.13056 0.87300 0.29724
 C67 C 0.11070 0.81164 0.30382
 C68 C 0.13006 0.77708 0.36099
 C69 C 0.16578 0.80529 0.41326
 H70 H 0.18157 0.94765 0.34507
 H71 H 0.08195 0.79052 0.26387
 H72 H 0.17785 0.77995 0.45913
 Zn73 Zn -0.06517 0.99623 0.06709
 Zn74 Zn 0.09249 0.97597 0.01960
 Zn75 Zn -0.02569 0.97054 -0.08136
 Zn76 Zn 0.01373 1.08979 -0.02226
 O77 O 0.00361 1.00827 -0.00446
 O78 O -0.02776 0.95875 0.14000
 O79 O 0.12028 0.91157 -0.03082
 O80 O -0.11351 0.93515 -0.06532
 O81 O 0.09167 0.94841 0.10642
 O82 O -0.14024 0.95019 0.04536
 O83 O 0.03647 0.90791 -0.10849
 O84 O -0.01254 1.10996 -0.10608
 O85 O 0.16649 1.02785 0.00881
 O86 O -0.03782 1.02231 -0.15287
 O87 O 0.10928 1.11321 -0.02234
 O88 O -0.04529 1.13725 0.03629
 O89 O -0.10685 1.06650 0.09673
 C90 C 0.03815 0.94133 0.15119
 C91 C 0.09355 0.88605 -0.08099
 C92 C -0.15517 0.92756 -0.01121
 C93 C -0.03247 1.07985 -0.15621
 C94 C 0.16831 1.08301 -0.01005
 C95 C -0.09531 1.12186 0.08199
 Zn96 Zn 0.49710 0.06654 0.51750
 Zn97 Zn 0.57702 -0.05101 0.49296
 Zn98 Zn 0.43533 -0.04275 0.58140
 Zn99 Zn 0.43965 -0.03382 0.43372
 O100 O 0.48710 -0.01410 0.50730
 O101 O 0.59317 0.08497 0.53314
 O102 O 0.57681 -0.12255 0.53803
 O103 O 0.43024 0.00967 0.65059
 O104 O 0.64895 -0.00639 0.52378
 O105 O 0.43881 0.09540 0.59057
 O106 O 0.47476 -0.11307 0.60880
 O107 O 0.34721 -0.05874 0.45239
 O108 O 0.60166 -0.06679 0.40269
 O109 O 0.34031 -0.05802 0.56548
 O110 O 0.48746 -0.09240 0.38448
 O111 O 0.43134 0.03023 0.37955
 O112 O 0.46905 0.10604 0.44229
 C113 C 0.65048 0.04983 0.53773
 C114 C 0.53168 -0.14340 0.58504
 C115 C 0.42083 0.06692 0.64601
 C116 C 0.31062 -0.06565 0.50941
 C117 C 0.55637 -0.09294 0.36644
 C118 C 0.44294 0.08605 0.38812
 Zn119 Zn 1.02840 0.41476 0.46813
 Zn120 Zn 1.11603 0.51986 0.51520
 Zn121 Zn 0.98837 0.54447 0.43017
 Zn122 Zn 0.96695 0.49971 0.56705
 O123 O 1.02697 0.49418 0.49251
 O124 O 1.12151 0.38169 0.47385
 O125 O 1.14651 0.58507 0.46511
 O126 O 0.97264 0.50441 0.35462
 O127 O 1.18473 0.45960 0.50970
 O128 O 1.00022 0.40787 0.38107
 O129 O 1.04706 0.60677 0.40739
 O130 O 0.87472 0.51595 0.54763
 O131 O 1.11321 0.54707 0.60159
 O132 O 0.89979 0.57807 0.46042
 O133 O 0.99149 0.55957 0.62135
 O134 O 0.96459 0.43072 0.61446
 O135 O 0.96653 0.36856 0.52624
 C136 C 1.18096 0.40397 0.49382
 C137 C 1.11104 0.61986 0.42559
 C138 C 0.97789 0.44846 0.33933
 C139 C 0.85595 0.55947 0.50915
 C140 C 1.05717 0.56923 0.63691
 C141 C 0.95085 0.37956 0.58964
 Zn142 Zn 0.49882 0.43537 1.04291
 Zn143 Zn 0.42022 0.54617 1.08327
 Zn144 Zn 0.57169 0.54763 1.01681
 Zn145 Zn 0.43645 0.51644 0.94129
 O146 O 0.48245 0.51168 1.01995
 O147 O 0.47591 0.42319 1.13151
 O148 O 0.44391 0.62230 1.09427
 O149 O 0.64399 0.49794 1.05313
 O150 O 0.41944 0.50981 1.16460
 O151 O 0.59349 0.41202 1.02561
 O152 O 0.56429 0.62160 1.05930
 O153 O 0.49756 0.54633 0.87515
 O154 O 0.32668 0.54732 1.05916
 O155 O 0.60078 0.56323 0.92838
 O156 O 0.35404 0.56557 0.94938
 O157 O 0.40594 0.44266 0.91424
 O158 O 0.44535 0.38513 0.99879
 C159 C 0.44314 0.45660 1.17760
 C160 C 0.50551 0.64869 1.08579
 C161 C 0.64850 0.44034 1.04467
 C162 C 0.56466 0.56317 0.87458
 C163 C 0.30769 0.56629 1.00153
 C164 C 0.41092 0.39154 0.94495
 N165 N 1.28623 0.34544 0.45831
 N166 N 1.24329 0.36462 0.50531
 N167 N 0.21371 0.61561 0.94498
 N168 N 0.23342 0.58921 0.99661
 N169 N -0.25393 0.87141 0.03653
 N170 N -0.21965 0.89193 -0.01485
 N171 N 0.73352 0.12808 0.56461
 N172 N 0.71801 0.07205 0.56173
 N173 N 0.41379 0.18170 0.34701
 N174 N 0.42300 0.12713 0.33579
 N175 N 0.90216 0.28298 0.62359
 N176 N 0.91516 0.33647 0.63548
 N177 N 0.10057 0.79522 -0.14686
 N178 N 0.12565 0.82854 -0.10146
 N179 N 0.56139 0.73946 1.11524
 N180 N 0.50546 0.71079 1.10565
 N181 N 0.44452 0.37583 1.25298
 N182 N 0.42516 0.43089 1.24320
 N183 N 0.64211 -0.11618 0.26993
 N184 N 0.58037 -0.12355 0.30454
 N185 N -0.08432 1.08965 -0.26460
 N186 N -0.05140 1.11300 -0.21612
 N187 N 1.13091 0.60498 0.72064
 N188 N 1.06803 0.60574 0.69484
 N189 N 0.74955 0.57640 0.57992
 N190 N 0.78714 0.59107 0.52526
 N191 N 0.76665 0.42409 1.09205
 N192 N 0.71312 0.40458 1.06006
 N193 N 0.25773 1.14350 -0.06643
 N194 N 0.23902 1.11086 -0.01710
 N195 N 0.20996 -0.10684 0.46047
 N196 N 0.23506 -0.08382 0.51086
 N197 N 0.59276 -0.23885 0.58323
 N198 N 0.54468 -0.20253 0.61232
 N199 N 1.10717 0.71531 0.36905
 N200 N 1.14043 0.67800 0.40768
 N201 N -0.13045 1.22141 0.11769
 N202 N -0.14221 1.16652 0.11755
 N203 N 0.36224 0.33088 0.85859
 N204 N 0.37861 0.33863 0.91995
 N205 N 0.56083 0.60854 0.76664
 N206 N 0.59981 0.58391 0.81173
 N207 N 0.37817 0.15596 0.70685
 N208 N 0.38853 0.09850 0.70476
 N209 N 0.11614 0.90735 0.23678
 N210 N 0.05138 0.91080 0.21432
 N211 N 0.95544 0.37723 0.25374
 N212 N 0.95222 0.43161 0.27514
   
