data_POSCAR
  _audit_creation_date              2014-09-24
  _audit_creation_method            'ToBaCCo'
  _symmetry_space_group_name_H-M    'P1'
  _symmetry_Int_Tables_number       1
  _symmetry_cell_setting            triclinic
  loop_
  _symmetry_equiv_pos_as_xyz
 x,y,z
_cell_length_a 29.2254
_cell_length_b 29.3319
_cell_length_c 13.5768
_cell_angle_alpha 89.622800
_cell_angle_beta 89.725600
_cell_angle_gamma 120.213500
loop_
  _atom_site_label
  _atom_site_type_symbol
  _atom_site_fract_x
  _atom_site_fract_y
  _atom_site_fract_z
C1 C 0.43300 0.86109 0.54079
 C2 C 0.43828 0.89409 0.61994
 C3 C 0.46011 0.94859 0.60124
 C4 C 0.48129 0.97077 0.50797
 C5 C 0.47738 0.93685 0.43167
 C6 C 0.45181 0.88227 0.44710
 C7 C 0.51039 1.02927 0.49179
 C8 C 0.51184 1.05118 0.39833
 C9 C 0.54443 1.10576 0.37949
 C10 C 0.57153 1.13905 0.45868
 C11 C 0.56866 1.11811 0.55255
 C12 C 0.53976 1.06351 0.56818
 H13 H 0.41486 0.81885 0.55124
 H14 H 0.46311 0.97445 0.66011
 H15 H 0.49492 0.95255 0.36007
 H16 H 0.48940 1.02506 0.33946
 H17 H 0.59563 1.18132 0.44813
 H18 H 0.54133 1.04805 0.63991
 C19 C 0.14563 0.58221 0.51932
 C20 C 0.11823 0.58966 0.59729
 C21 C 0.06319 0.56856 0.58905
 C22 C 0.03447 0.53487 0.51096
 C23 C 0.06297 0.52709 0.43533
 C24 C 0.11836 0.55276 0.43682
 C25 C -0.02496 0.50664 0.51041
 C26 C -0.05336 0.49034 0.42196
 C27 C -0.10935 0.46074 0.42093
 C28 C -0.13709 0.45123 0.51097
 C29 C -0.10918 0.46860 0.59964
 C30 C -0.05384 0.49466 0.59892
 H31 H 0.18835 0.60036 0.52120
 H32 H 0.04221 0.57603 0.64643
 H33 H 0.04259 0.50170 0.37399
 H34 H -0.03158 0.50234 0.35325
 H35 H -0.17995 0.42977 0.51302
 H36 H -0.03372 0.50455 0.66890
 C37 C 0.41411 0.55150 0.48301
 C38 C 0.43110 0.54179 0.57367
 C39 C 0.45631 0.51144 0.57395
 C40 C 0.46913 0.49493 0.48636
 C41 C 0.45348 0.50696 0.39703
 C42 C 0.42502 0.53368 0.39486
 C43 C 0.49938 0.46601 0.48846
 C44 C 0.49542 0.43230 0.41102
 C45 C 0.52625 0.40801 0.41044
 C46 C 0.55777 0.41326 0.49168
 C47 C 0.56060 0.44461 0.57124
 C48 C 0.53339 0.47257 0.56744
 H49 H 0.39349 0.57351 0.48020
 H50 H 0.46446 0.49897 0.64337
 H51 H 0.46402 0.49652 0.32776
 H52 H 0.46952 0.42564 0.34946
 H53 H 0.58044 0.39323 0.49265
 H54 H 0.53859 0.49883 0.62731
 O55 O 0.41156 0.65845 -0.09487
 O56 O 0.41066 0.74901 -0.09362
 C57 C 0.38755 0.77612 -0.08636
 O58 O 0.35124 0.76682 -0.02308
 O59 O 0.25683 0.68625 -0.05840
 C60 C 0.23625 0.64581 -0.11281
 O61 O 0.24581 0.60820 -0.10535
 O62 O 0.33142 0.60678 -0.15051
 C63 C 0.38060 0.62468 -0.15473
 O64 O 0.40639 0.65426 0.09892
 O65 O 0.42021 0.75043 0.09966
 C66 C 0.39323 0.75461 0.16735
 O67 O 0.34335 0.73044 0.16517
 O68 O 0.25071 0.65098 0.12810
 C69 C 0.23536 0.60231 0.13758
 O70 O 0.25040 0.57789 0.08153
 O71 O 0.33818 0.57893 0.03941
 C72 C 0.37673 0.60404 0.09871
 Cr73 Cr 0.40931 0.70181 0.00226
 Cr74 Cr 0.30172 0.70708 0.05093
 Cr75 Cr 0.29295 0.59578 -0.03215
 O76 O 0.33393 0.66791 0.00668
 O77 O 0.59705 0.34760 -0.12332
 O78 O 0.61162 0.26958 -0.16432
 C79 C 0.63784 0.24617 -0.16817
 O80 O 0.66958 0.25090 -0.10170
 O81 O 0.75165 0.34779 -0.10295
 C82 C 0.77181 0.39789 -0.10254
 O83 O 0.75840 0.42242 -0.04178
 O84 O 0.67051 0.42145 -0.08004
 C85 C 0.63007 0.39645 -0.13349
 O86 O 0.56956 0.31160 0.06333
 O87 O 0.58452 0.23253 0.02398
 C88 C 0.61224 0.22403 0.08597
 O89 O 0.66269 0.25221 0.09201
 O90 O 0.75408 0.34394 0.09063
 C91 C 0.75676 0.37738 0.15109
 O92 O 0.72469 0.39415 0.14887
 O93 O 0.63641 0.39089 0.10690
 C94 C 0.58935 0.35246 0.11666
 Cr95 Cr 0.59344 0.29192 -0.04824
 Cr96 Cr 0.70782 0.29987 -0.00513
 Cr97 Cr 0.69621 0.40440 0.03196
 O98 O 0.66540 0.33238 -0.00677
 N99 N 0.40233 0.86508 -0.12524
 N100 N 0.41621 0.89817 -0.20753
 C101 C 0.42409 0.87337 -0.28366
 C102 C 0.41660 0.82487 -0.25054
 C103 C 0.40339 0.82156 -0.15183
 H104 H 0.41997 0.79533 -0.29208
 H105 H 0.39222 0.87305 -0.05617
 H106 H 0.41676 0.93401 -0.20827
 N107 N 0.16156 0.65591 -0.17181
 N108 N 0.12736 0.63875 -0.25190
 C109 C 0.14472 0.61567 -0.31620
 C110 C 0.18966 0.61723 -0.27798
 C111 C 0.19811 0.64169 -0.18734
 H112 H 0.21126 0.59948 -0.30845
 H113 H 0.15665 0.67309 -0.10851
 H114 H 0.09485 0.64416 -0.25892
 N115 N 0.44331 0.59434 -0.18516
 N116 N 0.45643 0.56993 -0.25807
 C117 C 0.42567 0.56306 -0.33690
 C118 C 0.39170 0.58260 -0.31470
 C119 C 0.40414 0.60145 -0.21869
 H120 H 0.36194 0.58290 -0.36133
 H121 H 0.46078 0.60419 -0.11576
 H122 H 0.48795 0.56288 -0.25235
 N123 N 0.65538 0.18078 -0.24675
 N124 N 0.63669 0.14639 -0.31870
 C125 C 0.60027 0.15263 -0.36726
 C126 C 0.59522 0.19285 -0.32456
 C127 C 0.63078 0.20930 -0.24735
 H128 H 0.56766 0.20589 -0.34329
 H129 H 0.68324 0.18320 -0.19597
 H130 H 0.64808 0.11852 -0.33293
 N131 N 0.84916 0.48167 -0.15949
 N132 N 0.87981 0.50041 -0.23829
 C133 C 0.86366 0.46176 -0.30526
 C134 C 0.82115 0.41593 -0.26704
 C135 C 0.81353 0.43045 -0.17400
 H136 H 0.79916 0.37779 -0.30161
 H137 H 0.85287 0.50371 -0.09681
 H138 H 0.91109 0.53919 -0.24602
 N139 N 0.64083 0.47842 -0.21227
 N140 N 0.62222 0.49119 -0.28976
 C141 C 0.59079 0.44701 -0.34039
 C142 C 0.58874 0.40418 -0.29256
 C143 C 0.62078 0.42579 -0.21138
 H144 H 0.56601 0.36301 -0.31255
 H145 H 0.66580 0.50523 -0.15991
 H146 H 0.63088 0.52947 -0.30720
 N147 N 0.85062 0.40923 0.17903
 N148 N 0.88834 0.43376 0.25156
 C149 C 0.86422 0.44002 0.33116
 C150 C 0.81045 0.42008 0.30973
 C151 C 0.80404 0.40145 0.21363
 H152 H 0.78008 0.41911 0.35708
 H153 H 0.85826 0.39954 0.10934
 H154 H 0.92710 0.44120 0.24499
 N155 N 0.53903 0.13395 0.12418
 N156 N 0.51954 0.10083 0.20648
 C157 C 0.55157 0.12629 0.28292
 C158 C 0.59249 0.17527 0.24997
 C159 C 0.58317 0.17818 0.15107
 H160 H 0.62483 0.20548 0.29180
 H161 H 0.52127 0.12563 0.05502
 H162 H 0.48439 0.06452 0.20695
 N163 N 0.50260 0.33041 0.19311
 N164 N 0.48580 0.34545 0.27021
 C165 C 0.52816 0.37985 0.32249
 C166 C 0.57386 0.38764 0.27617
 C167 C 0.55593 0.35581 0.19416
 H168 H 0.61444 0.41408 0.29740
 H169 H 0.47793 0.30441 0.13945
 H170 H 0.44610 0.33259 0.28606
 N171 N 0.16600 0.51972 0.22022
 N172 N 0.13512 0.50653 0.29924
 C173 C 0.14760 0.55061 0.34982
 C174 C 0.18764 0.59383 0.30020
 C175 C 0.19791 0.57255 0.21800
 H176 H 0.20517 0.63505 0.31906
 H177 H 0.16398 0.49306 0.16738
 H178 H 0.10556 0.46810 0.31719
 N179 N 0.47657 0.82119 0.24410
 N180 N 0.49219 0.85544 0.31632
 C181 C 0.44926 0.84805 0.36657
 C182 C 0.40392 0.80724 0.32468
 C183 C 0.42323 0.79165 0.24620
 H184 H 0.36306 0.79332 0.34468
 H185 H 0.50217 0.81959 0.19210
 H186 H 0.53155 0.88400 0.32953
 N187 N 0.37299 0.52148 0.15232
 N188 N 0.38502 0.50285 0.23048
 C189 C 0.40604 0.54089 0.29892
 C190 C 0.40822 0.58623 0.26226
 C191 C 0.38701 0.57205 0.16865
 H192 H 0.42274 0.62374 0.29843
 H193 H 0.35545 0.49974 0.08898
 H194 H 0.37825 0.46442 0.23700
   
