data_POSCAR
  _audit_creation_date              2014-09-24
  _audit_creation_method            'ToBaCCo'
  _symmetry_space_group_name_H-M    'P1'
  _symmetry_Int_Tables_number       1
  _symmetry_cell_setting            triclinic
  loop_
  _symmetry_equiv_pos_as_xyz
 x,y,z
_cell_length_a 45.2997
_cell_length_b 45.2997
_cell_length_c 40.2192
_cell_angle_alpha 90.000000
_cell_angle_beta 90.000000
_cell_angle_gamma 90.000000
loop_
  _atom_site_label
  _atom_site_type_symbol
  _atom_site_fract_x
  _atom_site_fract_y
  _atom_site_fract_z
C1 C 0.35523 0.00001 0.25000
 C2 C 0.14473 0.00001 0.75001
 C3 C 0.64473 0.50001 0.25001
 C4 C 0.85523 0.50001 0.75000
 C5 C 0.24999 0.39476 1.00001
 C6 C 0.74998 0.10526 1.00000
 C7 C 0.24998 0.60526 0.50000
 C8 C 0.74999 0.89476 0.50001
 C9 C -0.00002 0.25001 0.37500
 C10 C -0.00001 0.75000 0.12500
 C11 C 0.49999 0.25000 0.62500
 C12 C 0.49998 0.75001 0.87500
 C13 C -0.25001 0.60526 1.00001
 C14 C -0.25002 0.39476 0.50000
 C15 C 0.24998 -0.10524 -0.00000
 C16 C 0.24999 1.10526 0.50001
 C17 C 0.14473 0.50001 0.25000
 C18 C -0.14477 1.00001 0.25001
 C19 C 0.35523 0.50001 -0.24999
 C20 C 0.64473 0.00001 -0.25000
 C21 C -0.00001 0.25000 0.87500
 C22 C 0.49998 0.25001 0.12500
 C23 C -0.00002 0.75001 0.62500
 C24 C 0.49999 0.75000 0.37500
 B25 B -0.01700 0.01630 1.02872
 B26 B -0.03285 0.00882 0.99230
 B27 B -0.00604 0.03402 0.99454
 B28 B 0.01917 0.02289 1.02279
 B29 B 0.00724 -0.01042 1.03782
 B30 B -0.02548 -0.01885 1.01889
 B31 B 0.01697 -0.01629 0.97129
 B32 B 0.03282 -0.00881 1.00771
 B33 B 0.00601 -0.03401 1.00547
 B34 B -0.01920 -0.02288 0.97722
 B35 B -0.00727 0.01043 0.96219
 B36 B 0.02545 0.01886 0.98112
 B37 B 0.48299 0.51630 0.52872
 B38 B 0.46715 0.50882 0.49230
 B39 B 0.49395 0.53402 0.49454
 B40 B 0.51917 0.52289 0.52279
 B41 B 0.50724 0.48958 0.53782
 B42 B 0.47452 0.48115 0.51889
 B43 B 0.51697 0.48371 0.47129
 B44 B 0.53282 0.49119 0.50771
 B45 B 0.50601 0.46599 0.50546
 B46 B 0.48079 0.47712 0.47722
 B47 B 0.49273 0.51043 0.46218
 B48 B 0.52544 0.51886 0.48112
 B49 B 0.51697 0.98371 0.52872
 B50 B 0.53282 0.99119 0.49230
 B51 B 0.50601 0.96599 0.49454
 B52 B 0.48080 0.97712 0.52279
 B53 B 0.49273 1.01043 0.53782
 B54 B 0.52545 1.01886 0.51889
 B55 B 0.48300 1.01630 0.47128
 B56 B 0.46715 1.00882 0.50770
 B57 B 0.49396 1.03402 0.50546
 B58 B 0.51917 1.02289 0.47721
 B59 B 0.50724 0.98958 0.46218
 B60 B 0.47452 0.98115 0.48111
 B61 B 0.01697 0.48371 1.02872
 B62 B 0.03282 0.49119 0.99230
 B63 B 0.00601 0.46599 0.99454
 B64 B -0.01920 0.47712 1.02279
 B65 B -0.00727 0.51043 1.03782
 B66 B 0.02545 0.51886 1.01888
 B67 B -0.01700 0.51630 0.97128
 B68 B -0.03285 0.50882 1.00770
 B69 B -0.00604 0.53402 1.00546
 B70 B 0.01917 0.52289 0.97721
 B71 B 0.00724 0.48958 0.96218
 B72 B -0.02548 0.48115 0.98111
 B73 B 0.01696 0.51631 0.47128
 B74 B 0.03281 0.50883 0.50770
 B75 B 0.00600 0.53403 0.50546
 B76 B -0.01921 0.52290 0.47721
 B77 B -0.00728 0.48959 0.46218
 B78 B 0.02544 0.48116 0.48111
 B79 B -0.01701 0.48372 0.52871
 B80 B -0.03286 0.49120 0.49229
 B81 B -0.00605 0.46600 0.49453
 B82 B 0.01917 0.47713 0.52278
 B83 B 0.00723 0.51044 0.53781
 B84 B -0.02548 0.51887 0.51888
 B85 B 0.51697 0.01631 -0.02872
 B86 B 0.53281 0.00883 0.00770
 B87 B 0.50601 0.03403 0.00546
 B88 B 0.48079 0.02290 -0.02279
 B89 B 0.49272 -0.01041 -0.03782
 B90 B 0.52544 -0.01884 -0.01889
 B91 B 0.48299 -0.01628 0.02871
 B92 B 0.46715 -0.00880 -0.00771
 B93 B 0.49395 -0.03400 -0.00546
 B94 B 0.51917 -0.02287 0.02278
 B95 B 0.50724 0.01044 0.03782
 B96 B 0.47452 0.01887 0.01888
 B97 B 0.48300 0.48372 -0.02871
 B98 B 0.46715 0.49120 0.00771
 B99 B 0.49396 0.46600 0.00547
 B100 B 0.51917 0.47713 -0.02278
 B101 B 0.50724 0.51044 -0.03781
 B102 B 0.47452 0.51887 -0.01888
 B103 B 0.51697 0.51631 0.02873
 B104 B 0.53282 0.50883 -0.00769
 B105 B 0.50601 0.53403 -0.00545
 B106 B 0.48079 0.52290 0.02280
 B107 B 0.49273 0.48959 0.03783
 B108 B 0.52545 0.48116 0.01889
 B109 B -0.01701 0.98372 0.47129
 B110 B -0.03285 0.99120 0.50771
 B111 B -0.00605 0.96600 0.50547
 B112 B 0.01917 0.97713 0.47722
 B113 B 0.00724 1.01044 0.46219
 B114 B -0.02548 1.01887 0.48112
 B115 B 0.01697 1.01631 0.52873
 B116 B 0.03282 1.00883 0.49231
 B117 B 0.00601 1.03403 0.49455
 B118 B -0.01921 1.02290 0.52280
 B119 B -0.00727 0.98959 0.53783
 B120 B 0.02544 0.98116 0.51889
 B121 B 0.76628 0.23302 0.22128
 B122 B 0.75880 0.21717 0.25770
 B123 B 0.78400 0.24398 0.25546
 B124 B 0.77287 0.26920 0.22721
 B125 B 0.73956 0.25726 0.21218
 B126 B 0.73113 0.22455 0.23112
 B127 B 0.73369 0.26699 0.27872
 B128 B 0.74117 0.28284 0.24230
 B129 B 0.71596 0.25603 0.24454
 B130 B 0.72710 0.23082 0.27279
 B131 B 0.76040 0.24275 0.28782
 B132 B 0.76884 0.27547 0.26889
 B133 B 0.73369 0.76700 0.72129
 B134 B 0.74117 0.78284 0.75771
 B135 B 0.71597 0.75604 0.75547
 B136 B 0.72710 0.73082 0.72722
 B137 B 0.76041 0.74275 0.71219
 B138 B 0.76884 0.77547 0.73112
 B139 B 0.76628 0.73302 0.77873
 B140 B 0.75880 0.71718 0.74231
 B141 B 0.78400 0.74398 0.74455
 B142 B 0.77287 0.76920 0.77280
 B143 B 0.73956 0.75727 0.78783
 B144 B 0.73113 0.72455 0.76889
 B145 B 0.26629 0.26699 0.77873
 B146 B 0.25881 0.28284 0.74231
 B147 B 0.28401 0.25603 0.74455
 B148 B 0.27288 0.23081 0.77280
 B149 B 0.23957 0.24275 0.78783
 B150 B 0.23114 0.27546 0.76890
 B151 B 0.23370 0.23302 0.72129
 B152 B 0.24118 0.21717 0.75771
 B153 B 0.21597 0.24398 0.75547
 B154 B 0.22711 0.26919 0.72722
 B155 B 0.26041 0.25726 0.71219
 B156 B 0.26885 0.22454 0.73112
 B157 B 0.23370 0.73302 0.27872
 B158 B 0.24118 0.71717 0.24229
 B159 B 0.21597 0.74398 0.24454
 B160 B 0.22711 0.76920 0.27278
 B161 B 0.26041 0.75726 0.28782
 B162 B 0.26884 0.72455 0.26888
 B163 B 0.26629 0.76699 0.22128
 B164 B 0.25881 0.78284 0.25770
 B165 B 0.28401 0.75603 0.25546
 B166 B 0.27288 0.73082 0.22721
 B167 B 0.23957 0.74275 0.21218
 B168 B 0.23114 0.77547 0.23111
 B169 B 0.26628 0.73302 0.72128
 B170 B 0.25880 0.71717 0.75770
 B171 B 0.28400 0.74398 0.75546
 B172 B 0.27287 0.76920 0.72721
 B173 B 0.23956 0.75726 0.71218
 B174 B 0.23113 0.72455 0.73111
 B175 B 0.23369 0.76699 0.77872
 B176 B 0.24117 0.78284 0.74230
 B177 B 0.21597 0.75603 0.74454
 B178 B 0.22710 0.73082 0.77279
 B179 B 0.26040 0.74275 0.78782
 B180 B 0.26884 0.77547 0.76889
 B181 B 0.23369 0.26700 0.22129
 B182 B 0.24117 0.28285 0.25771
 B183 B 0.21596 0.25604 0.25547
 B184 B 0.22710 0.23082 0.22722
 B185 B 0.26040 0.24275 0.21219
 B186 B 0.26884 0.27547 0.23112
 B187 B 0.26628 0.23302 0.27872
 B188 B 0.25880 0.21718 0.24230
 B189 B 0.28400 0.24398 0.24455
 B190 B 0.27287 0.26920 0.27280
 B191 B 0.23956 0.25727 0.28783
 B192 B 0.23113 0.22455 0.26889
 B193 B 0.76629 0.76699 0.27873
 B194 B 0.75881 0.78284 0.24231
 B195 B 0.78401 0.75603 0.24455
 B196 B 0.77288 0.73082 0.27280
 B197 B 0.73957 0.74275 0.28783
 B198 B 0.73114 0.77547 0.26890
 B199 B 0.73370 0.73302 0.22129
 B200 B 0.74118 0.71717 0.25771
 B201 B 0.71597 0.74398 0.25547
 B202 B 0.72711 0.76919 0.22722
 B203 B 0.76041 0.75726 0.21219
 B204 B 0.76885 0.72454 0.23113
 B205 B 0.73370 0.23302 0.77872
 B206 B 0.74118 0.21717 0.74230
 B207 B 0.71597 0.24398 0.74454
 B208 B 0.72711 0.26919 0.77279
 B209 B 0.76041 0.25726 0.78782
 B210 B 0.76884 0.22454 0.76888
 B211 B 0.76629 0.26699 0.72128
 B212 B 0.75881 0.28284 0.75770
 B213 B 0.78401 0.25603 0.75546
 B214 B 0.77288 0.23082 0.72721
 B215 B 0.73957 0.24275 0.71218
 B216 B 0.73114 0.27547 0.73111
 C217 C 0.40417 1.02441 0.33114
 N218 N 0.39007 1.02817 0.36057
 N219 N 0.40537 1.03351 0.38821
 C220 C 0.43521 1.03561 0.38717
 N221 N 0.44927 1.03214 0.35765
 N222 N 0.43398 1.02679 0.33000
 C223 C 0.38789 1.01585 0.30220
 C224 C 0.37363 1.00836 0.27837
 C225 C 0.45180 1.03457 0.41739
 C226 C 0.46577 1.02956 0.44217
 C227 C -0.09583 0.52441 0.83114
 N228 N -0.10993 0.52817 0.86057
 N229 N -0.09463 0.53351 0.88821
 C230 C -0.06479 0.53561 0.88717
 N231 N -0.05073 0.53214 0.85765
 N232 N -0.06602 0.52679 0.83000
 C233 C -0.11211 0.51585 0.80220
 C234 C -0.12637 0.50836 0.77837
 C235 C -0.04819 0.53457 0.91739
 C236 C -0.03423 0.52956 0.94217
 C237 C 0.09580 -0.02439 0.83115
 N238 N 0.10990 -0.02816 0.86058
 N239 N 0.09460 -0.03349 0.88821
 C240 C 0.06476 -0.03559 0.88718
 N241 N 0.05070 -0.03213 0.85765
 N242 N 0.06599 -0.02678 0.83001
 C243 C 0.11208 -0.01583 0.80220
 C244 C 0.12634 -0.00835 0.77838
 C245 C 0.04816 -0.03456 0.91739
 C246 C 0.03420 -0.02955 0.94218
 C247 C 0.59580 0.47561 0.33115
 N248 N 0.60990 0.47184 0.36058
 N249 N 0.59460 0.46651 0.38821
 C250 C 0.56476 0.46441 0.38717
 N251 N 0.55070 0.46787 0.35765
 N252 N 0.56599 0.47322 0.33001
 C253 C 0.61207 0.48417 0.30220
 C254 C 0.62634 0.49166 0.27838
 C255 C 0.54816 0.46544 0.41739
 C256 C 0.53420 0.47045 0.44217
 C257 C 0.59580 0.52441 0.16887
 N258 N 0.56599 0.52680 0.17000
 N259 N 0.55070 0.53215 0.14236
 C260 C 0.56476 0.53561 0.11284
 N261 N 0.59460 0.53351 0.11180
 N262 N 0.60990 0.52818 0.13943
 C263 C 0.61207 0.51585 0.19781
 C264 C 0.62634 0.50836 0.22164
 C265 C 0.54816 0.53458 0.08262
 C266 C 0.53420 0.52957 0.05784
 C267 C 0.09580 1.02441 0.66887
 N268 N 0.06599 1.02680 0.67001
 N269 N 0.05070 1.03215 0.64236
 C270 C 0.06476 1.03561 0.61284
 N271 N 0.09460 1.03351 0.61180
 N272 N 0.10990 1.02818 0.63943
 C273 C 0.11207 1.01585 0.69781
 C274 C 0.12634 1.00836 0.72163
 C275 C 0.04816 1.03458 0.58262
 C276 C 0.03420 1.02957 0.55784
 C277 C -0.09583 0.47561 0.66886
 N278 N -0.06603 0.47323 0.66999
 N279 N -0.05074 0.46788 0.64235
 C280 C -0.06480 0.46442 0.61283
 N281 N -0.09463 0.46652 0.61179
 N282 N -0.10994 0.47185 0.63942
 C283 C -0.11211 0.48417 0.69780
 C284 C -0.12637 0.49166 0.72163
 C285 C -0.04820 0.46545 0.58261
 C286 C -0.03424 0.47046 0.55782
 C287 C 0.40417 -0.02439 0.16885
 N288 N 0.43397 -0.02677 0.16999
 N289 N 0.44926 -0.03212 0.14235
 C290 C 0.43521 -0.03558 0.11283
 N291 N 0.40537 -0.03348 0.11179
 N292 N 0.39006 -0.02815 0.13942
 C293 C 0.38789 -0.01583 0.19780
 C294 C 0.37363 -0.00834 0.22163
 C295 C 0.45180 -0.03455 0.08261
 C296 C 0.46577 -0.02954 0.05783
 C297 C 0.32504 0.44166 0.01895
 N298 N 0.33175 0.46572 0.00039
 N299 N 0.35887 0.47704 0.00108
 C300 C 0.38008 0.46458 0.02026
 N301 N 0.37334 0.44064 0.03899
 N302 N 0.34621 0.42932 0.03831
 C303 C 0.29747 0.42689 0.01436
 C304 C 0.27533 0.41310 0.00875
 C305 C 0.40993 0.47451 0.01781
 C306 C 0.43513 0.48217 0.01426
 C307 C -0.17496 0.94166 0.51895
 N308 N -0.16826 0.96572 0.50039
 N309 N -0.14114 0.97704 0.50108
 C310 C -0.11992 0.96458 0.52026
 N311 N -0.12666 0.94064 0.53900
 N312 N -0.15379 0.92932 0.53831
 C313 C -0.20253 0.92689 0.51436
 C314 C -0.22467 0.91310 0.50875
 C315 C -0.09007 0.97451 0.51781
 C316 C -0.06487 0.98217 0.51426
 C317 C -0.17496 0.05836 0.98106
 N318 N -0.15379 0.07069 0.96170
 N319 N -0.12666 0.05938 0.96102
 C320 C -0.11992 0.03544 0.97975
 N321 N -0.14113 0.02298 0.99894
 N322 N -0.16825 0.03430 0.99962
 C323 C -0.20253 0.07312 0.98565
 C324 C -0.22467 0.08691 0.99126
 C325 C -0.09007 0.02551 0.98220
 C326 C -0.06487 0.01785 0.98575
 C327 C 0.32504 0.55836 0.48106
 N328 N 0.34621 0.57069 0.46170
 N329 N 0.37334 0.55937 0.46101
 C330 C 0.38008 0.53544 0.47975
 N331 N 0.35886 0.52298 0.49894
 N332 N 0.33174 0.53430 0.49962
 C333 C 0.29747 0.57312 0.48565
 C334 C 0.27532 0.58691 0.49126
 C335 C 0.40993 0.52551 0.48220
 C336 C 0.43513 0.51785 0.48575
 C337 C 0.17492 0.55836 0.51894
 N338 N 0.16822 0.53431 0.50038
 N339 N 0.14110 0.52298 0.50107
 C340 C 0.11988 0.53545 0.52025
 N341 N 0.12663 0.55939 0.53898
 N342 N 0.15375 0.57070 0.53830
 C343 C 0.20250 0.57313 0.51435
 C344 C 0.22464 0.58692 0.50874
 C345 C 0.09003 0.52552 0.51780
 C346 C 0.06483 0.51786 0.51425
 C347 C 0.67492 0.05836 0.01894
 N348 N 0.66822 0.03431 0.00038
 N349 N 0.64110 0.02298 0.00107
 C350 C 0.61988 0.03545 0.02025
 N351 N 0.62663 0.05938 0.03898
 N352 N 0.65375 0.07070 0.03830
 C353 C 0.70250 0.07313 0.01435
 C354 C 0.72464 0.08692 0.00874
 C355 C 0.59003 0.02552 0.01780
 C356 C 0.56483 0.01786 0.01425
 C357 C 0.67493 0.94165 0.48106
 N358 N 0.65376 0.92931 0.46170
 N359 N 0.62663 0.94063 0.46102
 C360 C 0.61989 0.96457 0.47975
 N361 N 0.64110 0.97704 0.49893
 N362 N 0.66822 0.96571 0.49961
 C363 C 0.70250 0.92689 0.48565
 C364 C 0.72464 0.91310 0.49127
 C365 C 0.59003 0.97450 0.48220
 C366 C 0.56484 0.98216 0.48575
 C367 C 0.17493 0.44165 0.98106
 N368 N 0.15376 0.42931 0.96170
 N369 N 0.12663 0.44063 0.96102
 C370 C 0.11989 0.46457 0.97975
 N371 N 0.14110 0.47704 0.99893
 N372 N 0.16823 0.46571 0.99961
 C373 C 0.20250 0.42689 0.98565
 C374 C 0.22465 0.41310 0.99126
 C375 C 0.09004 0.47450 0.98219
 C376 C 0.06484 0.48216 0.98575
 C377 C -0.00928 0.32559 0.43146
 N378 N 0.01167 0.33353 0.45388
 N379 N 0.00999 0.35941 0.46962
 C380 C -0.01276 0.37818 0.46361
 N381 N -0.03376 0.37019 0.44128
 N382 N -0.03209 0.34431 0.42554
 C383 C -0.00632 0.29863 0.41261
 C384 C -0.00355 0.27646 0.39604
 C385 C -0.01255 0.40758 0.47744
 C386 C -0.01093 0.43289 0.48689
 C387 C 0.49072 -0.17441 -0.06854
 N388 N 0.51167 -0.16647 -0.04612
 N389 N 0.50999 -0.14059 -0.03038
 C390 C 0.48724 -0.12182 -0.03638
 N391 N 0.46624 -0.12981 -0.05872
 N392 N 0.46791 -0.15569 -0.07446
 C393 C 0.49368 -0.20137 -0.08739
 C394 C 0.49645 -0.22354 -0.10396
 C395 C 0.48745 -0.09242 -0.02256
 C396 C 0.48907 -0.06712 -0.01311
 C397 C 0.00924 -0.17442 1.06854
 N398 N 0.03205 -0.15570 1.07446
 N399 N 0.03372 -0.12982 1.05872
 C400 C 0.01272 -0.12183 1.03639
 N401 N -0.01003 -0.14060 1.03039
 N402 N -0.01170 -0.16648 1.04613
 C403 C 0.00628 -0.20138 1.08739
 C404 C 0.00351 -0.22355 1.10397
 C405 C 0.01251 -0.09243 1.02256
 C406 C 0.01089 -0.06713 1.01311
 C407 C 0.50924 0.32558 0.56854
 N408 N 0.53205 0.34430 0.57446
 N409 N 0.53372 0.37018 0.55872
 C410 C 0.51272 0.37817 0.53639
 N411 N 0.48997 0.35940 0.53039
 N412 N 0.48830 0.33352 0.54613
 C413 C 0.50628 0.29862 0.58739
 C414 C 0.50351 0.27645 0.60397
 C415 C 0.51251 0.40757 0.52256
 C416 C 0.51089 0.43287 0.51311
 C417 C 0.49073 1.17442 0.56854
 N418 N 0.51167 1.16649 0.54612
 N419 N 0.51000 1.14061 0.53038
 C420 C 0.48725 1.12184 0.53638
 N421 N 0.46625 1.12983 0.55872
 N422 N 0.46792 1.15571 0.57446
 C423 C 0.49369 1.20139 0.58739
 C424 C 0.49646 1.22355 0.60397
 C425 C 0.48745 1.09244 0.52256
 C426 C 0.48908 1.06714 0.51311
 C427 C -0.00927 0.67443 1.06854
 N428 N -0.03208 0.65571 1.07446
 N429 N -0.03375 0.62983 1.05872
 C430 C -0.01275 0.62184 1.03638
 N431 N 0.01000 0.64061 1.03038
 N432 N 0.01167 0.66649 1.04612
 C433 C -0.00631 0.70139 1.08739
 C434 C -0.00354 0.72355 1.10397
 C435 C -0.01254 0.59244 1.02256
 C436 C -0.01092 0.56714 1.01311
 C437 C 0.50924 0.67443 -0.06853
 N438 N 0.53205 0.65572 -0.07445
 N439 N 0.53372 0.62984 -0.05871
 C440 C 0.51272 0.62185 -0.03638
 N441 N 0.48997 0.64062 -0.03038
 N442 N 0.48829 0.66650 -0.04612
 C443 C 0.50628 0.70140 -0.08739
 C444 C 0.50351 0.72356 -0.10396
 C445 C 0.51251 0.59245 -0.02255
 C446 C 0.51089 0.56715 -0.01310
 C447 C 0.00924 1.17444 0.43147
 N448 N 0.03205 1.15572 0.42555
 N449 N 0.03372 1.12984 0.44129
 C450 C 0.01272 1.12185 0.46363
 N451 N -0.01003 1.14062 0.46962
 N452 N -0.01171 1.16650 0.45388
 C453 C 0.00628 1.20140 0.41261
 C454 C 0.00351 1.22356 0.39604
 C455 C 0.01251 1.09245 0.47745
 C456 C 0.01089 1.06715 0.48690
 C457 C 0.77439 0.65419 0.91886
 N458 N 0.77815 0.64009 0.88943
 N459 N 0.78348 0.65540 0.86180
 C460 C 0.78558 0.68523 0.86284
 N461 N 0.78212 0.69929 0.89236
 N462 N 0.77677 0.68400 0.92000
 C463 C 0.76582 0.63792 0.94781
 C464 C 0.75834 0.62365 0.97164
 C465 C 0.78455 0.70183 0.83262
 C466 C 0.77954 0.71580 0.80784
 C467 C 0.27438 0.15419 0.41886
 N468 N 0.27815 0.14009 0.38943
 N469 N 0.28348 0.15540 0.36180
 C470 C 0.28558 0.18523 0.36284
 N471 N 0.28212 0.19929 0.39236
 N472 N 0.27677 0.18400 0.42000
 C473 C 0.26582 0.13792 0.44781
 C474 C 0.25834 0.12365 0.47163
 C475 C 0.28455 0.20183 0.33262
 C476 C 0.27953 0.21580 0.30784
 C477 C 0.72558 0.34582 0.41886
 N478 N 0.72320 0.31602 0.42000
 N479 N 0.71785 0.30073 0.39235
 C480 C 0.71438 0.31478 0.36283
 N481 N 0.71648 0.34462 0.36179
 N482 N 0.72182 0.35992 0.38943
 C483 C 0.73414 0.36210 0.44780
 C484 C 0.74163 0.37636 0.47163
 C485 C 0.71542 0.29819 0.33261
 C486 C 0.72043 0.28422 0.30783
 C487 C 0.22558 0.84582 0.91886
 N488 N 0.22182 0.85993 0.88942
 N489 N 0.21648 0.84462 0.86179
 C490 C 0.21438 0.81478 0.86283
 N491 N 0.21785 0.80073 0.89235
 N492 N 0.22320 0.81602 0.92000
 C493 C 0.23415 0.86210 0.94780
 C494 C 0.24163 0.87636 0.97163
 C495 C 0.21542 0.79819 0.83261
 C496 C 0.22043 0.78422 0.80783
 C497 C 0.27439 0.84582 0.08114
 N498 N 0.27815 0.85992 0.11057
 N499 N 0.28349 0.84462 0.13820
 C500 C 0.28559 0.81478 0.13717
 N501 N 0.28212 0.80073 0.10764
 N502 N 0.27677 0.81602 0.08000
 C503 C 0.26583 0.86210 0.05220
 C504 C 0.25834 0.87636 0.02837
 C505 C 0.28455 0.79819 0.16739
 C506 C 0.27954 0.78422 0.19217
 C507 C 0.77439 0.34582 0.58114
 N508 N 0.77677 0.31602 0.58000
 N509 N 0.78212 0.30073 0.60765
 C510 C 0.78559 0.31478 0.63717
 N511 N 0.78349 0.34462 0.63821
 N512 N 0.77815 0.35992 0.61057
 C513 C 0.76582 0.36210 0.55220
 C514 C 0.75834 0.37636 0.52837
 C515 C 0.78455 0.29819 0.66739
 C516 C 0.77954 0.28422 0.69217
 C517 C 0.22559 0.15419 0.58115
 N518 N 0.22183 0.14009 0.61058
 N519 N 0.21649 0.15539 0.63822
 C520 C 0.21439 0.18523 0.63718
 N521 N 0.21785 0.19929 0.60766
 N522 N 0.22320 0.18400 0.58001
 C523 C 0.23415 0.13792 0.55221
 C524 C 0.24163 0.12365 0.52838
 C525 C 0.21543 0.20182 0.66740
 C526 C 0.22044 0.21579 0.69218
 C527 C 0.72559 0.65419 0.08115
 N528 N 0.72183 0.64009 0.11058
 N529 N 0.71649 0.65539 0.13822
 C530 C 0.71439 0.68523 0.13718
 N531 N 0.71785 0.69929 0.10766
 N532 N 0.72320 0.68400 0.08001
 C533 C 0.73415 0.63792 0.05221
 C534 C 0.74164 0.62365 0.02838
 C535 C 0.71543 0.70182 0.16740
 C536 C 0.72044 0.71579 0.19218
 C537 C 0.19164 0.57507 0.23105
 N538 N 0.17930 0.59624 0.21169
 N539 N 0.19062 0.62336 0.21101
 C540 C 0.21456 0.63010 0.22974
 N541 N 0.22702 0.60889 0.24893
 N542 N 0.21569 0.58177 0.24962
 C543 C 0.17687 0.54749 0.23565
 C544 C 0.16308 0.52535 0.24126
 C545 C 0.22449 0.65996 0.23219
 C546 C 0.23214 0.68516 0.23574
 C547 C 0.69163 0.07507 0.73105
 N548 N 0.67930 0.09624 0.71169
 N549 N 0.69062 0.12336 0.71101
 C550 C 0.71456 0.13010 0.72974
 N551 N 0.72702 0.10889 0.74893
 N552 N 0.71569 0.08177 0.74961
 C553 C 0.67687 0.04749 0.73565
 C554 C 0.66308 0.02535 0.74126
 C555 C 0.72449 0.15996 0.73219
 C556 C 0.73214 0.18516 0.73574
 C557 C 0.80833 0.07507 0.26895
 N558 N 0.78428 0.08177 0.25038
 N559 N 0.77295 0.10889 0.25107
 C560 C 0.78541 0.13010 0.27025
 N561 N 0.80935 0.12336 0.28899
 N562 N 0.82067 0.09624 0.28831
 C563 C 0.82310 0.04749 0.26436
 C564 C 0.83689 0.02535 0.25874
 C565 C 0.77548 0.15996 0.26781
 C566 C 0.76783 0.18516 0.26425
 C567 C 0.30833 0.57507 0.76895
 N568 N 0.28428 0.58177 0.75039
 N569 N 0.27295 0.60889 0.75107
 C570 C 0.28542 0.63010 0.77025
 N571 N 0.30935 0.62336 0.78899
 N572 N 0.32067 0.59624 0.78831
 C573 C 0.32310 0.54749 0.76436
 C574 C 0.33689 0.52535 0.75874
 C575 C 0.27548 0.65996 0.76781
 C576 C 0.26783 0.68516 0.76425
 C577 C 0.30834 0.42495 0.73106
 N578 N 0.32068 0.40378 0.71170
 N579 N 0.30936 0.37665 0.71102
 C580 C 0.28542 0.36991 0.72976
 N581 N 0.27296 0.39112 0.74894
 N582 N 0.28428 0.41824 0.74962
 C583 C 0.32310 0.45252 0.73566
 C584 C 0.33689 0.47467 0.74127
 C585 C 0.27549 0.34005 0.73221
 C586 C 0.26784 0.31485 0.73576
 C587 C 0.80834 0.92495 0.23106
 N588 N 0.82068 0.90378 0.21170
 N589 N 0.80936 0.87665 0.21102
 C590 C 0.78542 0.86991 0.22976
 N591 N 0.77296 0.89112 0.24894
 N592 N 0.78428 0.91824 0.24962
 C593 C 0.82310 0.95252 0.23565
 C594 C 0.83689 0.97467 0.24127
 C595 C 0.77549 0.84005 0.23220
 C596 C 0.76784 0.81485 0.23576
 C597 C 0.69163 0.92495 0.76895
 N598 N 0.71569 0.91825 0.75039
 N599 N 0.72701 0.89113 0.75108
 C600 C 0.71455 0.86991 0.77026
 N601 N 0.69061 0.87666 0.78899
 N602 N 0.67929 0.90378 0.78831
 C603 C 0.67687 0.95253 0.76436
 C604 C 0.66308 0.97467 0.75874
 C605 C 0.72448 0.84006 0.76781
 C606 C 0.73214 0.81486 0.76426
 C607 C 0.19163 0.42495 0.26895
 N608 N 0.21569 0.41825 0.25039
 N609 N 0.22701 0.39113 0.25108
 C610 C 0.21455 0.36991 0.27026
 N611 N 0.19061 0.37666 0.28899
 N612 N 0.17929 0.40378 0.28831
 C613 C 0.17687 0.45253 0.26436
 C614 C 0.16308 0.47467 0.25874
 C615 C 0.22448 0.34006 0.26781
 C616 C 0.23213 0.31486 0.26426
 C617 C 0.07557 0.24074 0.81854
 N618 N 0.08351 0.26169 0.79613
 N619 N 0.10939 0.26001 0.78039
 C620 C 0.12815 0.23726 0.78639
 N621 N 0.12017 0.21627 0.80873
 N622 N 0.09429 0.21794 0.82447
 C623 C 0.04860 0.24371 0.83740
 C624 C 0.02644 0.24648 0.85397
 C625 C 0.15755 0.23747 0.77257
 C626 C 0.18286 0.23910 0.76312
 C627 C 0.57557 0.74074 0.31854
 N628 N 0.58351 0.76169 0.29613
 N629 N 0.60939 0.76002 0.28039
 C630 C 0.62815 0.73726 0.28639
 N631 N 0.62017 0.71627 0.30873
 N632 N 0.59428 0.71794 0.32447
 C633 C 0.54860 0.74371 0.33740
 C634 C 0.52644 0.74648 0.35397
 C635 C 0.65755 0.73747 0.27257
 C636 C 0.68286 0.73910 0.26312
 C637 C 0.57556 0.25927 0.18147
 N638 N 0.59428 0.28208 0.17555
 N639 N 0.62016 0.28375 0.19129
 C640 C 0.62815 0.26275 0.21362
 N641 N 0.60938 0.24000 0.21962
 N642 N 0.58350 0.23832 0.20388
 C643 C 0.54860 0.25631 0.16261
 C644 C 0.52643 0.25354 0.14604
 C645 C 0.65754 0.26254 0.22745
 C646 C 0.68285 0.26091 0.23689
 C647 C 0.07556 0.75927 0.68146
 N648 N 0.09428 0.78208 0.67554
 N649 N 0.12016 0.78375 0.69128
 C650 C 0.12815 0.76275 0.71362
 N651 N 0.10938 0.74000 0.71962
 N652 N 0.08350 0.73832 0.70388
 C653 C 0.04860 0.75631 0.66261
 C654 C 0.02643 0.75354 0.64604
 C655 C 0.15754 0.76254 0.72744
 C656 C 0.18285 0.76091 0.73689
 C657 C 0.92440 0.74075 0.68147
 N658 N 0.90569 0.71794 0.67555
 N659 N 0.87981 0.71627 0.69129
 C660 C 0.87182 0.73727 0.71362
 N661 N 0.89058 0.76002 0.71962
 N662 N 0.91646 0.76170 0.70388
 C663 C 0.95137 0.74372 0.66261
 C664 C 0.97353 0.74649 0.64604
 C665 C 0.84242 0.73748 0.72745
 C666 C 0.81711 0.73910 0.73690
 C667 C 0.42440 0.24075 0.18147
 N668 N 0.40569 0.21794 0.17555
 N669 N 0.37981 0.21627 0.19129
 C670 C 0.37182 0.23727 0.21362
 N671 N 0.39058 0.26002 0.21962
 N672 N 0.41646 0.26170 0.20388
 C673 C 0.45137 0.24372 0.16261
 C674 C 0.47353 0.24649 0.14604
 C675 C 0.34242 0.23748 0.22745
 C676 C 0.31711 0.23910 0.23690
 C677 C 0.42441 0.75926 0.31854
 N678 N 0.41647 0.73832 0.29612
 N679 N 0.39059 0.73999 0.28038
 C680 C 0.37183 0.76275 0.28638
 N681 N 0.37982 0.78374 0.30872
 N682 N 0.40570 0.78207 0.32446
 C683 C 0.45137 0.75630 0.33739
 C684 C 0.47354 0.75353 0.35397
 C685 C 0.34243 0.76254 0.27255
 C686 C 0.31712 0.76091 0.26310
 C687 C 0.92441 0.25926 0.81854
 N688 N 0.91647 0.23832 0.79612
 N689 N 0.89059 0.23999 0.78038
 C690 C 0.87183 0.26275 0.78638
 N691 N 0.87982 0.28374 0.80872
 N692 N 0.90570 0.28207 0.82446
 C693 C 0.95137 0.25630 0.83739
 C694 C 0.97354 0.25353 0.85397
 C695 C 0.84243 0.26254 0.77255
 C696 C 0.81712 0.26091 0.76310
 C697 C 0.59580 0.97561 0.66886
 N698 N 0.60990 0.97185 0.63943
 N699 N 0.59460 0.96651 0.61179
 C700 C 0.56476 0.96441 0.61283
 N701 N 0.55070 0.96787 0.64235
 N702 N 0.56599 0.97322 0.67000
 C703 C 0.61208 0.98417 0.69780
 C704 C 0.62634 0.99166 0.72163
 C705 C 0.54817 0.96544 0.58261
 C706 C 0.53420 0.97045 0.55783
 C707 C 0.09580 0.47561 1.16886
 N708 N 0.10990 0.47185 1.13943
 N709 N 0.09460 0.46651 1.11179
 C710 C 0.06476 0.46441 1.11283
 N711 N 0.05070 0.46787 1.14235
 N712 N 0.06600 0.47322 1.17000
 C713 C 0.11208 0.48417 1.19780
 C714 C 0.12634 0.49166 1.22163
 C715 C 0.04817 0.46544 1.08261
 C716 C 0.03420 0.47045 1.05783
 C717 C -0.09583 0.02441 1.16886
 N718 N -0.10993 0.02817 1.13943
 N719 N -0.09463 0.03351 1.11180
 C720 C -0.06479 0.03561 1.11283
 N721 N -0.05073 0.03214 1.14236
 N722 N -0.06603 0.02679 1.17000
 C723 C -0.11211 0.01585 1.19781
 C724 C -0.12637 0.00836 1.22163
 C725 C -0.04820 0.03457 1.08262
 C726 C -0.03423 0.02956 1.05783
 C727 C 0.40417 0.52441 0.66886
 N728 N 0.39006 0.52817 0.63943
 N729 N 0.40537 0.53350 0.61180
 C730 C 0.43521 0.53560 0.61283
 N731 N 0.44926 0.53214 0.64236
 N732 N 0.43397 0.52679 0.67000
 C733 C 0.38789 0.51584 0.69781
 C734 C 0.37363 0.50836 0.72163
 C735 C 0.45180 0.53457 0.58261
 C736 C 0.46577 0.52956 0.55783
 C737 C 0.40417 0.47561 -0.16885
 N738 N 0.43397 0.47323 -0.16999
 N739 N 0.44927 0.46788 -0.14234
 C740 C 0.43521 0.46441 -0.11282
 N741 N 0.40537 0.46651 -0.11179
 N742 N 0.39007 0.47185 -0.13942
 C743 C 0.38789 0.48417 -0.19779
 C744 C 0.37363 0.49166 -0.22162
 C745 C 0.45180 0.46545 -0.08260
 C746 C 0.46577 0.47046 -0.05782
 C747 C -0.09583 0.97561 0.33115
 N748 N -0.06603 0.97323 0.33001
 N749 N -0.05074 0.96788 0.35766
 C750 C -0.06479 0.96441 0.38718
 N751 N -0.09463 0.96652 0.38821
 N752 N -0.10994 0.97185 0.36058
 C753 C -0.11211 0.98417 0.30221
 C754 C -0.12637 0.99166 0.27838
 C755 C -0.04820 0.96545 0.41740
 C756 C -0.03423 0.97046 0.44218
 C757 C 0.09580 0.52441 0.33114
 N758 N 0.06599 0.52680 0.33000
 N759 N 0.05070 0.53215 0.35764
 C760 C 0.06475 0.53562 0.38717
 N761 N 0.09459 0.53352 0.38820
 N762 N 0.10990 0.52818 0.36057
 C763 C 0.11207 0.51585 0.30220
 C764 C 0.12634 0.50836 0.27837
 C765 C 0.04816 0.53458 0.41738
 C766 C 0.03419 0.52957 0.44217
 C767 C 0.59580 0.02441 -0.16886
 N768 N 0.56599 0.02680 -0.17000
 N769 N 0.55070 0.03215 -0.14236
 C770 C 0.56476 0.03561 -0.11283
 N771 N 0.59460 0.03351 -0.11180
 N772 N 0.60990 0.02818 -0.13943
 C773 C 0.61207 0.01585 -0.19780
 C774 C 0.62634 0.00836 -0.22163
 C775 C 0.54816 0.03458 -0.08261
 C776 C 0.53419 0.02957 -0.05783
 C777 C 0.67493 0.55836 -0.01894
 N778 N 0.66822 0.53430 -0.00038
 N779 N 0.64110 0.52298 -0.00106
 C780 C 0.61989 0.53545 -0.02025
 N781 N 0.62663 0.55938 -0.03898
 N782 N 0.65376 0.57070 -0.03830
 C783 C 0.70250 0.57313 -0.01435
 C784 C 0.72465 0.58692 -0.00873
 C785 C 0.59003 0.52552 -0.01780
 C786 C 0.56483 0.51786 -0.01424
 C787 C 0.17492 1.05836 0.48106
 N788 N 0.16822 1.03431 0.49962
 N789 N 0.14110 1.02298 0.49894
 C790 C 0.11988 1.03545 0.47975
 N791 N 0.12663 1.05939 0.46102
 N792 N 0.15375 1.07070 0.46170
 C793 C 0.20250 1.07313 0.48565
 C794 C 0.22464 1.08692 0.49127
 C795 C 0.09003 1.02552 0.48220
 C796 C 0.06483 1.01786 0.48576
 C797 C 0.17493 -0.05835 1.01895
 N798 N 0.15375 -0.07069 1.03830
 N799 N 0.12663 -0.05937 1.03899
 C800 C 0.11989 -0.03543 1.02026
 N801 N 0.14110 -0.02296 1.00108
 N802 N 0.16822 -0.03429 1.00039
 C803 C 0.20250 -0.07311 1.01435
 C804 C 0.22464 -0.08690 1.00874
 C805 C 0.09003 -0.02550 1.01781
 C806 C 0.06483 -0.01784 1.01426
 C807 C 0.67492 0.44165 0.51895
 N808 N 0.65375 0.42931 0.53831
 N809 N 0.62663 0.44063 0.53899
 C810 C 0.61988 0.46457 0.52026
 N811 N 0.64110 0.47704 0.50108
 N812 N 0.66822 0.46571 0.50039
 C813 C 0.70250 0.42689 0.51436
 C814 C 0.72464 0.41310 0.50874
 C815 C 0.59003 0.47450 0.51781
 C816 C 0.56483 0.48216 0.51426
 C817 C -0.17496 0.44166 0.48105
 N818 N -0.16826 0.46572 0.49961
 N819 N -0.14114 0.47704 0.49893
 C820 C -0.11992 0.46458 0.47974
 N821 N -0.12667 0.44064 0.46101
 N822 N -0.15379 0.42932 0.46169
 C823 C -0.20254 0.42689 0.48565
 C824 C -0.22468 0.41310 0.49126
 C825 C -0.09007 0.47451 0.48219
 C826 C -0.06487 0.48217 0.48574
 C827 C 0.32504 -0.05834 -0.01895
 N828 N 0.33174 -0.03428 -0.00039
 N829 N 0.35886 -0.02296 -0.00107
 C830 C 0.38008 -0.03542 -0.02026
 N831 N 0.37334 -0.05936 -0.03899
 N832 N 0.34621 -0.07068 -0.03831
 C833 C 0.29747 -0.07311 -0.01435
 C834 C 0.27532 -0.08690 -0.00874
 C835 C 0.40993 -0.02549 -0.01781
 C836 C 0.43513 -0.01783 -0.01426
 C837 C 0.32504 1.05836 0.51895
 N838 N 0.34621 1.07069 0.53831
 N839 N 0.37334 1.05937 0.53899
 C840 C 0.38008 1.03544 0.52025
 N841 N 0.35887 1.02298 0.50107
 N842 N 0.33175 1.03430 0.50038
 C843 C 0.29747 1.07312 0.51436
 C844 C 0.27533 1.08691 0.50874
 C845 C 0.40993 1.02551 0.51781
 C846 C 0.43513 1.01785 0.51425
 C847 C -0.17496 0.55836 1.01895
 N848 N -0.15378 0.57069 1.03831
 N849 N -0.12666 0.55938 1.03899
 C850 C -0.11992 0.53544 1.02025
 N851 N -0.14113 0.52298 1.00107
 N852 N -0.16825 0.53430 1.00039
 C853 C -0.20253 0.57312 1.01436
 C854 C -0.22467 0.58691 1.00874
 C855 C -0.09006 0.52551 1.01781
 C856 C -0.06486 0.51785 1.01425
 C857 C 0.00924 0.67444 0.56854
 N858 N 0.03205 0.65572 0.57445
 N859 N 0.03372 0.62984 0.55871
 C860 C 0.01272 0.62185 0.53638
 N861 N -0.01004 0.64062 0.53038
 N862 N -0.01171 0.66650 0.54612
 C863 C 0.00628 0.70140 0.58739
 C864 C 0.00351 0.72356 0.60397
 C865 C 0.01251 0.59245 0.52255
 C866 C 0.01089 0.56715 0.51310
 C867 C 0.50924 0.17443 0.06854
 N868 N 0.53205 0.15572 0.07446
 N869 N 0.53372 0.12984 0.05871
 C870 C 0.51272 0.12185 0.03638
 N871 N 0.48997 0.14062 0.03038
 N872 N 0.48829 0.16650 0.04612
 C873 C 0.50628 0.20140 0.08739
 C874 C 0.50351 0.22356 0.10397
 C875 C 0.51251 0.09245 0.02255
 C876 C 0.51089 0.06715 0.01310
 C877 C -0.00927 0.17443 0.93147
 N878 N -0.03208 0.15571 0.92555
 N879 N -0.03375 0.12983 0.94129
 C880 C -0.01276 0.12184 0.96362
 N881 N 0.01000 0.14061 0.96962
 N882 N 0.01167 0.16649 0.95388
 C883 C -0.00631 0.20139 0.91261
 C884 C -0.00354 0.22355 0.89604
 C885 C -0.01255 0.09244 0.97745
 C886 C -0.01092 0.06714 0.98690
 C887 C 0.49073 0.67442 0.43147
 N888 N 0.51167 0.66649 0.45388
 N889 N 0.50999 0.64061 0.46962
 C890 C 0.48724 0.62184 0.46362
 N891 N 0.46625 0.62983 0.44128
 N892 N 0.46792 0.65571 0.42554
 C893 C 0.49369 0.70139 0.41261
 C894 C 0.49646 0.72355 0.39604
 C895 C 0.48745 0.59244 0.47745
 C896 C 0.48907 0.56714 0.48690
 C897 C 0.50924 0.82558 0.43147
 N898 N 0.53205 0.84430 0.42554
 N899 N 0.53372 0.87018 0.44128
 C900 C 0.51273 0.87817 0.46362
 N901 N 0.48997 0.85940 0.46962
 N902 N 0.48830 0.83352 0.45388
 C903 C 0.50628 0.79862 0.41261
 C904 C 0.50351 0.77645 0.39604
 C905 C 0.51252 0.90757 0.47745
 C906 C 0.51089 0.93287 0.48689
 C907 C 0.00925 0.32558 0.93146
 N908 N 0.03205 0.34430 0.92554
 N909 N 0.03372 0.37018 0.94128
 C910 C 0.01273 0.37817 0.96362
 N911 N -0.01003 0.35940 0.96962
 N912 N -0.01170 0.33352 0.95388
 C913 C 0.00628 0.29862 0.91261
 C914 C 0.00351 0.27645 0.89604
 C915 C 0.01252 0.40757 0.97744
 C916 C 0.01089 0.43288 0.98689
 C917 C 0.49072 0.32559 0.06854
 N918 N 0.51167 0.33353 0.04613
 N919 N 0.50999 0.35941 0.03039
 C920 C 0.48724 0.37818 0.03639
 N921 N 0.46624 0.37019 0.05873
 N922 N 0.46791 0.34431 0.07446
 C923 C 0.49368 0.29863 0.08740
 C924 C 0.49645 0.27646 0.10397
 C925 C 0.48745 0.40758 0.02256
 C926 C 0.48908 0.43288 0.01311
 C927 C -0.00928 0.82559 0.56854
 N928 N 0.01167 0.83353 0.54613
 N929 N 0.00999 0.85941 0.53039
 C930 C -0.01276 0.87818 0.53639
 N931 N -0.03376 0.87019 0.55873
 N932 N -0.03209 0.84431 0.57447
 C933 C -0.00632 0.79863 0.58740
 C934 C -0.00355 0.77646 0.60397
 C935 C -0.01255 0.90758 0.52256
 C936 C -0.01093 0.93289 0.51312
 C937 C 0.22558 0.34582 0.08115
 N938 N 0.22320 0.31602 0.08001
 N939 N 0.21785 0.30073 0.10765
 C940 C 0.21438 0.31479 0.13718
 N941 N 0.21648 0.34462 0.13821
 N942 N 0.22182 0.35993 0.11058
 C943 C 0.23415 0.36210 0.05220
 C944 C 0.24163 0.37636 0.02838
 C945 C 0.21542 0.29819 0.16740
 C946 C 0.22043 0.28423 0.19218
 C947 C 0.72558 0.84582 0.58115
 N948 N 0.72182 0.85993 0.61058
 N949 N 0.71649 0.84462 0.63821
 C950 C 0.71438 0.81479 0.63718
 N951 N 0.71785 0.80073 0.60765
 N952 N 0.72320 0.81602 0.58001
 C953 C 0.73415 0.86210 0.55221
 C954 C 0.74163 0.87636 0.52838
 C955 C 0.71542 0.79819 0.66740
 C956 C 0.72043 0.78422 0.69218
 C957 C 0.27438 0.65419 0.58114
 N958 N 0.27815 0.64009 0.61057
 N959 N 0.28348 0.65539 0.63821
 C960 C 0.28558 0.68523 0.63717
 N961 N 0.28212 0.69929 0.60765
 N962 N 0.27677 0.68400 0.58000
 C963 C 0.26582 0.63792 0.55220
 C964 C 0.25834 0.62365 0.52837
 C965 C 0.28455 0.70183 0.66739
 C966 C 0.27953 0.71579 0.69217
 C967 C 0.77438 0.15419 0.08114
 N968 N 0.77815 0.14009 0.11057
 N969 N 0.78348 0.15539 0.13821
 C970 C 0.78558 0.18523 0.13717
 N971 N 0.78212 0.19929 0.10765
 N972 N 0.77677 0.18400 0.08000
 C973 C 0.76582 0.13792 0.05220
 C974 C 0.75834 0.12365 0.02837
 C975 C 0.78454 0.20183 0.16739
 C976 C 0.77953 0.21579 0.19217
 C977 C 0.72559 0.15419 0.91886
 N978 N 0.72183 0.14009 0.88942
 N979 N 0.71649 0.15539 0.86179
 C980 C 0.71439 0.18523 0.86283
 N981 N 0.71785 0.19929 0.89235
 N982 N 0.72320 0.18400 0.92000
 C983 C 0.73415 0.13792 0.94780
 C984 C 0.74163 0.12365 0.97163
 C985 C 0.71543 0.20183 0.83261
 C986 C 0.72044 0.21579 0.80783
 C987 C 0.22559 0.65419 0.41886
 N988 N 0.22182 0.64009 0.38942
 N989 N 0.21649 0.65539 0.36179
 C990 C 0.21439 0.68523 0.36283
 N991 N 0.21785 0.69929 0.39235
 N992 N 0.22320 0.68400 0.41999
 C993 C 0.23415 0.63792 0.44780
 C994 C 0.24163 0.62365 0.47163
 C995 C 0.21543 0.70183 0.33261
 C996 C 0.22044 0.71579 0.30783
 C997 C 0.77439 0.84582 0.41887
 N998 N 0.77815 0.85992 0.38943
 N999 N 0.78349 0.84462 0.36180
 C1000 C 0.78559 0.81478 0.36284
 N1001 N 0.78212 0.80072 0.39236
 N1002 N 0.77677 0.81602 0.42001
 C1003 C 0.76583 0.86210 0.44781
 C1004 C 0.75834 0.87636 0.47164
 C1005 C 0.78455 0.79819 0.33262
 C1006 C 0.77954 0.78422 0.30784
 C1007 C 0.27439 0.34582 0.91887
 N1008 N 0.27677 0.31601 0.92001
 N1009 N 0.28212 0.30072 0.89236
 C1010 C 0.28559 0.31478 0.86284
 N1011 N 0.28349 0.34462 0.86180
 N1012 N 0.27815 0.35992 0.88943
 C1013 C 0.26583 0.36210 0.94781
 C1014 C 0.25834 0.37636 0.97164
 C1015 C 0.28455 0.29818 0.83262
 C1016 C 0.27954 0.28422 0.80784
 C1017 C 0.80834 0.42495 0.76895
 N1018 N 0.82068 0.40378 0.78830
 N1019 N 0.80936 0.37665 0.78899
 C1020 C 0.78542 0.36991 0.77025
 N1021 N 0.77296 0.39112 0.75107
 N1022 N 0.78428 0.41825 0.75038
 C1023 C 0.82310 0.45253 0.76435
 C1024 C 0.83689 0.47467 0.75874
 C1025 C 0.77549 0.34006 0.76780
 C1026 C 0.76784 0.31486 0.76425
 C1027 C 0.30834 0.92495 0.26894
 N1028 N 0.32068 0.90378 0.28830
 N1029 N 0.30936 0.87665 0.28898
 C1030 C 0.28542 0.86991 0.27025
 N1031 N 0.27296 0.89113 0.25107
 N1032 N 0.28428 0.91825 0.25038
 C1033 C 0.32310 0.95253 0.26435
 C1034 C 0.33689 0.97467 0.25874
 C1035 C 0.27549 0.84006 0.26780
 C1036 C 0.26784 0.81486 0.26425
 C1037 C 0.19163 0.92495 0.73106
 N1038 N 0.21569 0.91825 0.74961
 N1039 N 0.22701 0.89113 0.74893
 C1040 C 0.21455 0.86991 0.72975
 N1041 N 0.19061 0.87665 0.71102
 N1042 N 0.17929 0.90378 0.71170
 C1043 C 0.17686 0.95252 0.73565
 C1044 C 0.16308 0.97467 0.74126
 C1045 C 0.22448 0.84006 0.73219
 C1046 C 0.23213 0.81486 0.73575
 C1047 C 0.69163 0.42495 0.23106
 N1048 N 0.71569 0.41825 0.24962
 N1049 N 0.72701 0.39113 0.24893
 C1050 C 0.71455 0.36991 0.22975
 N1051 N 0.69061 0.37665 0.21102
 N1052 N 0.67929 0.40378 0.21170
 C1053 C 0.67686 0.45252 0.23565
 C1054 C 0.66308 0.47467 0.24127
 C1055 C 0.72448 0.34006 0.23220
 C1056 C 0.73213 0.31486 0.23575
 C1057 C 0.69163 0.57506 0.26896
 N1058 N 0.67930 0.59623 0.28831
 N1059 N 0.69062 0.62336 0.28900
 C1060 C 0.71456 0.63010 0.27026
 N1061 N 0.72702 0.60889 0.25108
 N1062 N 0.71569 0.58177 0.25039
 C1063 C 0.67687 0.54749 0.26436
 C1064 C 0.66308 0.52535 0.25875
 C1065 C 0.72449 0.65995 0.26782
 C1066 C 0.73214 0.68515 0.26426
 C1067 C 0.19164 0.07506 0.76895
 N1068 N 0.17930 0.09623 0.78831
 N1069 N 0.19062 0.12336 0.78900
 C1070 C 0.21456 0.13010 0.77026
 N1071 N 0.22702 0.10889 0.75108
 N1072 N 0.21569 0.08177 0.75039
 C1073 C 0.17687 0.04749 0.76436
 C1074 C 0.16308 0.02535 0.75875
 C1075 C 0.22449 0.15995 0.76781
 C1076 C 0.23214 0.18515 0.76426
 C1077 C 0.30833 0.07507 0.23106
 N1078 N 0.28428 0.08177 0.24962
 N1079 N 0.27295 0.10889 0.24894
 C1080 C 0.28542 0.13011 0.22975
 N1081 N 0.30935 0.12336 0.21102
 N1082 N 0.32067 0.09624 0.21170
 C1083 C 0.32310 0.04749 0.23565
 C1084 C 0.33689 0.02535 0.24126
 C1085 C 0.27548 0.15996 0.23220
 C1086 C 0.26783 0.18516 0.23575
 C1087 C 0.80833 0.57507 0.73106
 N1088 N 0.78428 0.58177 0.74962
 N1089 N 0.77296 0.60889 0.74894
 C1090 C 0.78542 0.63011 0.72975
 N1091 N 0.80935 0.62336 0.71102
 N1092 N 0.82067 0.59624 0.71170
 C1093 C 0.82310 0.54749 0.73565
 C1094 C 0.83689 0.52535 0.74126
 C1095 C 0.77548 0.65996 0.73220
 C1096 C 0.76783 0.68516 0.73576
 C1097 C 0.92441 0.75926 0.18147
 N1098 N 0.91647 0.73832 0.20388
 N1099 N 0.89059 0.73999 0.21962
 C1100 C 0.87183 0.76274 0.21363
 N1101 N 0.87982 0.78374 0.19129
 N1102 N 0.90570 0.78207 0.17555
 C1103 C 0.95137 0.75630 0.16261
 C1104 C 0.97354 0.75353 0.14604
 C1105 C 0.84243 0.76253 0.22745
 C1106 C 0.81712 0.76091 0.23690
 C1107 C 0.42441 0.25926 0.68147
 N1108 N 0.41647 0.23831 0.70388
 N1109 N 0.39059 0.23999 0.71962
 C1110 C 0.37183 0.26274 0.71363
 N1111 N 0.37982 0.28374 0.69129
 N1112 N 0.40570 0.28207 0.67555
 C1113 C 0.45137 0.25630 0.66261
 C1114 C 0.47354 0.25353 0.64604
 C1115 C 0.34243 0.26253 0.72745
 C1116 C 0.31712 0.26091 0.73690
 C1117 C 0.42440 0.74075 0.81854
 N1118 N 0.40569 0.71794 0.82446
 N1119 N 0.37981 0.71627 0.80872
 C1120 C 0.37182 0.73727 0.78638
 N1121 N 0.39058 0.76002 0.78038
 N1122 N 0.41646 0.76170 0.79612
 C1123 C 0.45137 0.74371 0.83739
 C1124 C 0.47353 0.74648 0.85397
 C1125 C 0.34242 0.73748 0.77256
 C1126 C 0.31711 0.73910 0.76311
 C1127 C 0.92440 0.24075 0.31854
 N1128 N 0.90569 0.21794 0.32446
 N1129 N 0.87981 0.21627 0.30872
 C1130 C 0.87182 0.23727 0.28638
 N1131 N 0.89058 0.26002 0.28038
 N1132 N 0.91646 0.26170 0.29612
 C1133 C 0.95137 0.24371 0.33739
 C1134 C 0.97353 0.24649 0.35397
 C1135 C 0.84242 0.23748 0.27256
 C1136 C 0.81711 0.23910 0.26311
 C1137 C 0.07556 0.25927 0.31854
 N1138 N 0.09428 0.28208 0.32446
 N1139 N 0.12016 0.28375 0.30872
 C1140 C 0.12815 0.26275 0.28639
 N1141 N 0.10938 0.24000 0.28039
 N1142 N 0.08350 0.23832 0.29613
 C1143 C 0.04860 0.25631 0.33739
 C1144 C 0.02643 0.25354 0.35397
 C1145 C 0.15754 0.26254 0.27256
 C1146 C 0.18285 0.26092 0.26311
 C1147 C 0.57556 0.75927 0.81854
 N1148 N 0.59428 0.78208 0.82446
 N1149 N 0.62016 0.78375 0.80872
 C1150 C 0.62815 0.76275 0.78639
 N1151 N 0.60938 0.74000 0.78039
 N1152 N 0.58350 0.73832 0.79613
 C1153 C 0.54860 0.75631 0.83739
 C1154 C 0.52643 0.75354 0.85397
 C1155 C 0.65754 0.76254 0.77256
 C1156 C 0.68285 0.76092 0.76311
 C1157 C 0.57557 0.24075 0.68146
 N1158 N 0.58351 0.26169 0.70388
 N1159 N 0.60939 0.26002 0.71962
 C1160 C 0.62815 0.23727 0.71362
 N1161 N 0.62017 0.21627 0.69128
 N1162 N 0.59429 0.21794 0.67554
 C1163 C 0.54860 0.24371 0.66261
 C1164 C 0.52644 0.24648 0.64604
 C1165 C 0.65755 0.23748 0.72744
 C1166 C 0.68286 0.23910 0.73689
 C1167 C 0.07557 0.74075 0.18146
 N1168 N 0.08351 0.76169 0.20388
 N1169 N 0.10939 0.76002 0.21962
 C1170 C 0.12815 0.73727 0.21362
 N1171 N 0.12016 0.71627 0.19128
 N1172 N 0.09428 0.71794 0.17554
 C1173 C 0.04860 0.74371 0.16261
 C1174 C 0.02644 0.74648 0.14604
 C1175 C 0.15755 0.73748 0.22744
 C1176 C 0.18286 0.73910 0.23689
   
