data_POSCAR
  _audit_creation_date              2014-09-24
  _audit_creation_method            'ToBaCCo'
  _symmetry_space_group_name_H-M    'P1'
  _symmetry_Int_Tables_number       1
  _symmetry_cell_setting            triclinic
  loop_
  _symmetry_equiv_pos_as_xyz
 x,y,z
_cell_length_a 39.2138
_cell_length_b 38.2679
_cell_length_c 44.4926
_cell_angle_alpha 89.549900
_cell_angle_beta 89.947100
_cell_angle_gamma 89.993500
loop_
  _atom_site_label
  _atom_site_type_symbol
  _atom_site_fract_x
  _atom_site_fract_y
  _atom_site_fract_z
C1 C 1.25045 0.25227 0.24966
 C2 C 0.74845 -0.25007 0.24975
 C3 C 0.74829 0.25096 -0.25048
 C4 C 1.24679 -0.25093 -0.25031
 C5 C 0.25160 0.25055 0.74972
 C6 C 0.75333 0.75118 0.74956
 C7 C 0.75038 0.25014 0.24971
 C8 C 0.25127 0.75148 0.24961
 O9 O 1.05922 0.01945 0.03762
 O10 O 0.94299 -0.01975 0.03676
 O11 O 0.98442 0.05952 0.03905
 O12 O 1.01734 -0.06060 0.03728
 O13 O 0.93733 0.03954 0.02280
 O14 O 1.06493 -0.03918 0.02290
 O15 O 0.96049 -0.06679 0.01791
 O16 O 1.04168 0.06730 0.01979
 C17 C 1.05637 0.05127 0.04043
 C18 C 0.94620 -0.05168 0.03910
 C19 C 0.95353 0.05474 0.04304
 C20 C 1.04797 -0.05551 0.04230
 O21 O 1.05972 -0.01847 -0.03673
 O22 O 0.94363 0.02149 -0.03683
 O23 O 1.01798 0.06174 -0.03662
 O24 O 0.98461 -0.05818 -0.03866
 O25 O 0.93741 -0.03778 -0.02293
 O26 O 1.06531 0.04015 -0.02192
 O27 O 1.04156 -0.06605 -0.01896
 O28 O 0.96102 0.06849 -0.01783
 Co29 Co 1.05657 0.00049 0.00045
 Co30 Co 0.94607 0.00085 -0.00002
 Co31 Co 1.00125 0.05792 0.00108
 Co32 Co 1.00100 -0.05664 -0.00058
 O33 O 1.00125 0.00064 0.00023
 C34 C 1.05586 -0.05015 -0.03988
 C35 C 0.94670 0.05345 -0.03905
 C36 C 1.04861 0.05649 -0.04144
 C37 C 0.95385 -0.05307 -0.04301
 O38 O 1.05977 0.51767 0.53715
 O39 O 0.94359 0.47979 0.53561
 O40 O 0.98329 0.55778 0.53826
 O41 O 1.01973 0.43843 0.53386
 O42 O 0.93658 0.53924 0.52069
 O43 O 1.06662 0.45970 0.51856
 O44 O 0.96255 0.43271 0.51718
 O45 O 1.04051 0.56597 0.52127
 C46 C 1.05476 0.54901 0.54169
 C47 C 0.94767 0.44791 0.53817
 C48 C 0.95231 0.55366 0.54153
 C49 C 1.05042 0.44323 0.53822
 O50 O 1.06074 0.48463 0.46129
 O51 O 0.94359 0.52030 0.46185
 O52 O 1.01902 0.56237 0.46342
 O53 O 0.98393 0.44279 0.45907
 O54 O 0.93714 0.46084 0.47693
 O55 O 1.06626 0.54240 0.47926
 O56 O 1.04148 0.43558 0.47583
 O57 O 0.96169 0.56751 0.48041
 Co58 Co 1.05742 0.50107 0.49910
 Co59 Co 0.94621 0.50012 0.49876
 Co60 Co 1.00115 0.55735 0.50069
 Co61 Co 1.00189 0.44350 0.49665
 O62 O 1.00171 0.50049 0.49878
 C63 C 1.05651 0.45330 0.45627
 C64 C 0.94745 0.55218 0.45924
 C65 C 1.04993 0.55839 0.45937
 C66 C 0.95287 0.44654 0.45600
 O67 O 0.55902 0.01823 0.53716
 O68 O 0.44312 -0.02183 0.53717
 O69 O 0.48296 0.05746 0.53892
 O70 O 0.51802 -0.06206 0.53645
 O71 O 0.43605 0.03729 0.52272
 O72 O 0.56516 -0.04036 0.52145
 O73 O 0.46101 -0.06885 0.51838
 O74 O 0.53994 0.06591 0.52003
 C75 C 0.55479 0.04986 0.54062
 C76 C 0.44660 -0.05373 0.53955
 C77 C 0.45213 0.05264 0.54293
 C78 C 0.54865 -0.05673 0.54108
 O79 O 0.55912 -0.01877 0.46240
 O80 O 0.44239 0.01855 0.46340
 O81 O 0.51657 0.06052 0.46327
 O82 O 0.48369 -0.05966 0.46105
 O83 O 0.43657 -0.04061 0.47786
 O84 O 0.56419 0.03987 0.47810
 O85 O 0.54107 -0.06677 0.47965
 O86 O 0.45947 0.06608 0.48184
 Co87 Co 0.55609 -0.00034 0.49980
 Co88 Co 0.44537 -0.00158 0.50026
 Co89 Co 0.49977 0.05623 0.50097
 Co90 Co 0.50087 -0.05812 0.49891
 O91 O 0.50057 -0.00095 0.49999
 C92 C 0.55516 -0.05041 0.45885
 C93 C 0.44495 0.05052 0.46099
 C94 C 0.54730 0.05586 0.45852
 C95 C 0.45270 -0.05552 0.45740
 O96 O 0.55914 0.51929 0.03748
 O97 O 0.44156 0.48543 0.03637
 O98 O 0.48277 0.56144 0.03720
 O99 O 0.51728 0.44150 0.03702
 O100 O 0.43598 0.54393 0.01914
 O101 O 0.56468 0.46054 0.02077
 O102 O 0.45997 0.43667 0.02074
 O103 O 0.54058 0.56750 0.02059
 C104 C 0.55468 0.55086 0.04129
 C105 C 0.44520 0.45378 0.04069
 C106 C 0.45159 0.55850 0.03999
 C107 C 0.54818 0.44533 0.04097
 O108 O 0.55942 0.48297 -0.03740
 O109 O 0.44351 0.52159 -0.03876
 O110 O 0.51963 0.56208 -0.03729
 O111 O 0.48163 0.44311 -0.03789
 O112 O 0.43517 0.46293 -0.02100
 O113 O 0.56633 0.54164 -0.02078
 O114 O 0.53884 0.43531 -0.02087
 O115 O 0.46253 0.56920 -0.02155
 Co116 Co 0.55641 0.50125 -0.00001
 Co117 Co 0.44507 0.50336 -0.00107
 Co118 Co 0.50127 0.55902 -0.00018
 Co119 Co 0.49948 0.44521 -0.00034
 O120 O 0.50061 0.50219 -0.00039
 C121 C 0.55433 0.45146 -0.04118
 C122 C 0.44816 0.55325 -0.04234
 C123 C 0.55044 0.55741 -0.04104
 C124 C 0.45072 0.44741 -0.04134
 C125 C 1.19270 0.18305 0.19007
 C126 C 1.21731 0.20576 0.17812
 C127 C 1.23655 0.22708 0.19682
 C128 C 1.23079 0.22759 0.22819
 C129 C 1.20763 0.20275 0.24015
 C130 C 1.18870 0.18093 0.22135
 C131 C 1.17092 0.16275 0.16953
 N132 N 1.15605 0.13224 0.17832
 N133 N 1.13655 0.11431 0.15930
 C134 C 1.13088 0.12647 0.13095
 N135 N 1.14560 0.15703 0.12234
 N136 N 1.16527 0.17471 0.14118
 C137 C 1.10960 0.10700 0.10941
 C138 C 1.09433 0.12488 0.08525
 C139 C 1.07618 0.10674 0.06345
 C140 C 1.07331 0.07021 0.06504
 C141 C 1.08781 0.05227 0.08959
 C142 C 1.10560 0.07058 0.11176
 H143 H 1.22186 0.20700 0.15412
 H144 H 1.25589 0.24289 0.18611
 H145 H 1.20348 0.20106 0.26419
 H146 H 1.17023 0.16320 0.23123
 H147 H 1.09668 0.15298 0.08301
 H148 H 1.06515 0.12130 0.04489
 H149 H 1.08579 0.02410 0.09142
 H150 H 1.11716 0.05617 0.13015
 C151 C 1.17546 0.68520 0.69785
 C152 C 1.17985 0.72092 0.69163
 C153 C 1.20239 0.74089 0.70856
 C154 C 1.22186 0.72571 0.73189
 C155 C 1.21507 0.69050 0.73963
 C156 C 1.19279 0.67035 0.72240
 C157 C 1.15355 0.66364 0.67825
 N158 N 1.15552 0.62818 0.67886
 N159 N 1.13746 0.60904 0.65967
 C160 C 1.11660 0.62460 0.63919
 N161 N 1.11431 0.66000 0.63895
 N162 N 1.13242 0.67910 0.65801
 C163 C 1.09833 0.60390 0.61626
 C164 C 1.07535 0.62053 0.59660
 C165 C 1.06057 0.60227 0.57299
 C166 C 1.06838 0.56691 0.56839
 C167 C 1.09014 0.54970 0.58874
 C168 C 1.10502 0.56806 0.61248
 H169 H 1.16642 0.73344 0.67322
 H170 H 1.20528 0.76832 0.70296
 H171 H 1.22669 0.67826 0.75905
 H172 H 1.18903 0.64314 0.72840
 H173 H 1.06928 0.64797 0.59900
 H174 H 1.04350 0.61611 0.55793
 H175 H 1.09641 0.52237 0.58583
 H176 H 1.12252 0.55444 0.62729
 C177 C 0.67842 0.18745 0.69553
 C178 C 0.68289 0.22329 0.68983
 C179 C 0.70482 0.24309 0.70752
 C180 C 0.72371 0.22768 0.73114
 C181 C 0.71687 0.19232 0.73830
 C182 C 0.69513 0.17234 0.72033
 C183 C 0.65695 0.16614 0.67524
 N184 N 0.65758 0.13063 0.67653
 N185 N 0.63966 0.11169 0.65707
 C186 C 0.62029 0.12746 0.63558
 N187 N 0.61941 0.16293 0.63457
 N188 N 0.63736 0.18183 0.65392
 C189 C 0.60169 0.10676 0.61276
 C190 C 0.58031 0.12367 0.59188
 C191 C 0.56459 0.10494 0.56896
 C192 C 0.56985 0.06880 0.56625
 C193 C 0.59033 0.05155 0.58762
 C194 C 0.60610 0.07035 0.61067
 H195 H 0.66993 0.23606 0.67129
 H196 H 0.70777 0.27061 0.70228
 H197 H 0.72802 0.17983 0.75780
 H198 H 0.69132 0.14503 0.72596
 H199 H 0.57607 0.15159 0.59290
 H200 H 0.54869 0.11894 0.55303
 H201 H 0.59468 0.02366 0.58618
 H202 H 0.62232 0.05648 0.62641
 C203 C 0.67748 0.68677 0.19681
 C204 C 0.68235 0.72245 0.19071
 C205 C 0.70478 0.74215 0.20796
 C206 C 0.72373 0.72674 0.23153
 C207 C 0.71656 0.69156 0.23907
 C208 C 0.69434 0.67168 0.22153
 C209 C 0.65551 0.66554 0.17698
 N210 N 0.65645 0.63005 0.17801
 N211 N 0.63823 0.61116 0.15874
 C212 C 0.61825 0.62702 0.13774
 N213 N 0.61701 0.66247 0.13705
 N214 N 0.63527 0.68131 0.15620
 C215 C 0.59970 0.60647 0.11486
 C216 C 0.57781 0.62346 0.09446
 C217 C 0.56259 0.60506 0.07112
 C218 C 0.56888 0.56922 0.06755
 C219 C 0.58965 0.55179 0.08857
 C220 C 0.60495 0.57026 0.11202
 H221 H 0.66930 0.73517 0.17218
 H222 H 0.70798 0.76957 0.20246
 H223 H 0.72778 0.67916 0.25859
 H224 H 0.69024 0.64450 0.22743
 H225 H 0.57290 0.65122 0.09610
 H226 H 0.54636 0.61913 0.05550
 H227 H 0.59475 0.52410 0.08645
 H228 H 0.62158 0.55636 0.12741
 C229 C 0.81902 -0.19148 0.19179
 C230 C 0.81287 -0.18084 0.22141
 C231 C 0.79081 -0.19997 0.23998
 C232 C 0.77274 -0.22910 0.22895
 C233 C 0.78104 -0.24086 0.19983
 C234 C 0.80349 -0.22215 0.18149
 C235 C 0.84121 -0.17080 0.17145
 N236 N 0.85392 -0.18532 0.14606
 N237 N 0.87252 -0.16648 0.12689
 C238 C 0.87907 -0.13223 0.13215
 N239 N 0.86654 -0.11769 0.15765
 N240 N 0.84806 -0.13663 0.17696
 C241 C 0.89826 -0.11116 0.10978
 C242 C 0.89760 -0.07442 0.11037
 C243 C 0.91362 -0.05486 0.08767
 C244 C 0.93076 -0.07173 0.06414
 C245 C 0.93239 -0.10838 0.06417
 C246 C 0.91623 -0.12786 0.08664
 H247 H 0.82532 -0.15789 0.23032
 H248 H 0.78730 -0.19154 0.26295
 H249 H 0.77044 -0.26477 0.19102
 H250 H 0.80834 -0.23160 0.15900
 H251 H 0.88395 -0.06078 0.12790
 H252 H 0.91214 -0.02660 0.08828
 H253 H 0.94565 -0.12213 0.04648
 H254 H 0.91752 -0.15609 0.08565
 C255 C 0.81923 0.30911 0.69128
 C256 C 0.81304 0.31995 0.72087
 C257 C 0.79091 0.30097 0.73956
 C258 C 0.77275 0.27180 0.72868
 C259 C 0.78112 0.25984 0.69961
 C260 C 0.80363 0.27839 0.68117
 C261 C 0.84155 0.32959 0.67080
 N262 N 0.85412 0.31489 0.64543
 N263 N 0.87286 0.33351 0.62616
 C264 C 0.87969 0.36773 0.63131
 N265 N 0.86729 0.38246 0.65679
 N266 N 0.84868 0.36374 0.67619
 C267 C 0.89910 0.38861 0.60886
 C268 C 0.89875 0.42537 0.60942
 C269 C 0.91500 0.44480 0.58675
 C270 C 0.93214 0.42783 0.56324
 C271 C 0.93347 0.39115 0.56330
 C272 C 0.91702 0.37179 0.58574
 H273 H 0.82553 0.34293 0.72967
 H274 H 0.78741 0.30954 0.76248
 H275 H 0.77053 0.23589 0.69090
 H276 H 0.80850 0.26875 0.65876
 H277 H 0.88517 0.43913 0.62691
 H278 H 0.91370 0.47306 0.58737
 H279 H 0.94666 0.37731 0.54562
 H280 H 0.91807 0.34355 0.58475
 C281 C 0.31685 -0.19242 0.69121
 C282 C 0.31102 -0.18183 0.72089
 C283 C 0.28896 -0.20083 0.73955
 C284 C 0.27062 -0.22983 0.72859
 C285 C 0.27842 -0.24144 0.69931
 C286 C 0.30086 -0.22282 0.68087
 C287 C 0.33931 -0.17200 0.67093
 N288 N 0.35175 -0.18655 0.64545
 N289 N 0.37079 -0.16794 0.62643
 C290 C 0.37807 -0.13391 0.63197
 N291 N 0.36579 -0.11934 0.65755
 N292 N 0.34688 -0.13805 0.67669
 C293 C 0.39776 -0.11303 0.60982
 C294 C 0.39761 -0.07629 0.61061
 C295 C 0.41401 -0.05682 0.58808
 C296 C 0.43105 -0.07378 0.56453
 C297 C 0.43224 -0.11045 0.56441
 C298 C 0.41567 -0.12984 0.58670
 H299 H 0.32378 -0.15907 0.72981
 H300 H 0.28578 -0.19250 0.76257
 H301 H 0.26756 -0.26521 0.69050
 H302 H 0.30544 -0.23220 0.65832
 H303 H 0.38403 -0.06257 0.62813
 H304 H 0.41286 -0.02856 0.58880
 H305 H 0.44539 -0.12425 0.54669
 H306 H 0.41656 -0.15808 0.58558
 C307 C 0.31625 0.32283 0.19717
 C308 C 0.28064 0.32458 0.19507
 C309 C 0.26023 0.30215 0.21215
 C310 C 0.27468 0.27707 0.23187
 C311 C 0.31053 0.27736 0.23535
 C312 C 0.33098 0.29939 0.21776
 C313 C 0.33780 0.34458 0.17721
 N314 N 0.37008 0.33456 0.17028
 N315 N 0.38868 0.35293 0.15070
 C316 C 0.37585 0.38220 0.13746
 N317 N 0.34377 0.39249 0.14475
 N318 N 0.32508 0.37398 0.16413
 C319 C 0.39552 0.40143 0.11431
 C320 C 0.38700 0.43608 0.10682
 C321 C 0.40389 0.45346 0.08345
 C322 C 0.42920 0.43631 0.06677
 C323 C 0.43828 0.40196 0.07466
 C324 C 0.42179 0.38477 0.09838
 H325 H 0.26848 0.34259 0.17955
 H326 H 0.23283 0.30367 0.20939
 H327 H 0.32334 0.26092 0.25157
 H328 H 0.35840 0.29822 0.22043
 H329 H 0.36702 0.44966 0.11883
 H330 H 0.39647 0.48001 0.07791
 H331 H 0.45788 0.38826 0.06227
 H332 H 0.42886 0.35805 0.10361
 C333 C 0.81886 0.19268 -0.19213
 C334 C 0.80326 0.22341 -0.18203
 C335 C 0.78090 0.24203 -0.20052
 C336 C 0.77269 0.23013 -0.22962
 C337 C 0.79090 0.20097 -0.24049
 C338 C 0.81288 0.18192 -0.22175
 C339 C 0.84098 0.17210 -0.17158
 N340 N 0.84823 0.13799 -0.17706
 N341 N 0.86666 0.11919 -0.15762
 C342 C 0.87875 0.13379 -0.13199
 N343 N 0.87178 0.16796 -0.12674
 N344 N 0.85323 0.18666 -0.14605
 C345 C 0.89802 0.11286 -0.10952
 C346 C 0.91547 0.12963 -0.08613
 C347 C 0.93187 0.11023 -0.06373
 C348 C 0.93100 0.07355 -0.06399
 C349 C 0.91430 0.05662 -0.08772
 C350 C 0.89807 0.07611 -0.11035
 H351 H 0.80798 0.23300 -0.15958
 H352 H 0.77027 0.26599 -0.19181
 H353 H 0.78752 0.19243 -0.26343
 H354 H 0.82539 0.15893 -0.23054
 H355 H 0.91621 0.15787 -0.08491
 H356 H 0.94473 0.12404 -0.04586
 H357 H 0.91337 0.02836 -0.08857
 H358 H 0.88485 0.06238 -0.12805
 C359 C 0.81995 0.69152 0.30684
 C360 C 0.80453 0.72218 0.31731
 C361 C 0.78176 0.74081 0.29925
 C362 C 0.77303 0.72898 0.27026
 C363 C 0.79099 0.69986 0.25902
 C364 C 0.81336 0.68080 0.27733
 C365 C 0.84247 0.67091 0.32691
 N366 N 0.84904 0.63666 0.32151
 N367 N 0.86776 0.61777 0.34066
 C368 C 0.88083 0.63245 0.36587
 N369 N 0.87457 0.66679 0.37100
 N370 N 0.85573 0.68558 0.35200
 C371 C 0.90013 0.61141 0.38815
 C372 C 0.91861 0.62815 0.41093
 C373 C 0.93467 0.60874 0.43347
 C374 C 0.93243 0.57211 0.43395
 C375 C 0.91488 0.55519 0.41070
 C376 C 0.89897 0.57467 0.38793
 H377 H 0.80971 0.73168 0.33971
 H378 H 0.77125 0.76472 0.30816
 H379 H 0.78716 0.69139 0.23611
 H380 H 0.82571 0.65785 0.26829
 H381 H 0.92031 0.65637 0.41162
 H382 H 0.94827 0.62253 0.45093
 H383 H 0.91293 0.52695 0.41042
 H384 H 0.88494 0.56101 0.37068
 C385 C 0.30835 0.18353 0.31046
 C386 C 0.28381 0.20637 0.32204
 C387 C 0.26448 0.22752 0.30297
 C388 C 0.27010 0.22773 0.27157
 C389 C 0.29317 0.20276 0.26004
 C390 C 0.31219 0.18112 0.27921
 C391 C 0.33017 0.16327 0.33129
 N392 N 0.34531 0.13296 0.32279
 N393 N 0.36485 0.11503 0.34200
 C394 C 0.37030 0.12699 0.37029
 N395 N 0.35532 0.15737 0.37862
 N396 N 0.33560 0.17507 0.35956
 C397 C 0.39153 0.10737 0.39204
 C398 C 0.40615 0.12483 0.41650
 C399 C 0.42437 0.10638 0.43834
 C400 C 0.42792 0.06997 0.43647
 C401 C 0.41402 0.05249 0.41166
 C402 C 0.39618 0.07110 0.38947
 H403 H 0.27937 0.20783 0.34603
 H404 H 0.24520 0.24346 0.31342
 H405 H 0.29723 0.20084 0.23602
 H406 H 0.33059 0.16328 0.26961
 H407 H 0.40328 0.15281 0.41892
 H408 H 0.43492 0.12058 0.45713
 H409 H 0.41655 0.02442 0.40962
 H410 H 0.38513 0.05699 0.37086
 C411 C 0.31982 0.69094 -0.19460
 C412 C 0.30444 0.72144 -0.18376
 C413 C 0.28113 0.73998 -0.20135
 C414 C 0.27188 0.72821 -0.23023
 C415 C 0.28979 0.69927 -0.24187
 C416 C 0.31265 0.68028 -0.22401
 C417 C 0.34288 0.67041 -0.17501
 N418 N 0.34870 0.63595 -0.18011
 N419 N 0.36784 0.61712 -0.16124
 C420 C 0.38210 0.63210 -0.13667
 N421 N 0.37661 0.66664 -0.13188
 N422 N 0.35734 0.68536 -0.15059
 C423 C 0.40167 0.61117 -0.11453
 C424 C 0.42159 0.62807 -0.09282
 C425 C 0.43752 0.60898 -0.07004
 C426 C 0.43372 0.57254 -0.06824
 C427 C 0.41493 0.55534 -0.09057
 C428 C 0.39912 0.57451 -0.11360
 H429 H 0.31006 0.73085 -0.16141
 H430 H 0.27066 0.76376 -0.19218
 H431 H 0.28552 0.69088 -0.26474
 H432 H 0.32495 0.65745 -0.23332
 H433 H 0.42440 0.65622 -0.09309
 H434 H 0.45215 0.62295 -0.05335
 H435 H 0.41177 0.52723 -0.08982
 H436 H 0.38396 0.56073 -0.13003
 C437 C 1.17740 -0.18792 -0.19557
 C438 C 1.19331 -0.17287 -0.22081
 C439 C 1.21501 -0.19273 -0.23890
 C440 C 1.22260 -0.22784 -0.23145
 C441 C 1.20455 -0.24323 -0.20730
 C442 C 1.18265 -0.22355 -0.18947
 C443 C 1.15598 -0.16667 -0.17525
 N444 N 1.13694 -0.18234 -0.15351
 N445 N 1.11910 -0.16341 -0.13409
 C446 C 1.11958 -0.12796 -0.13545
 N447 N 1.13837 -0.11221 -0.15737
 N448 N 1.15617 -0.13118 -0.17690
 C449 C 1.10131 -0.10721 -0.11250
 C450 C 1.10559 -0.07077 -0.11072
 C451 C 1.09029 -0.05191 -0.08747
 C452 C 1.07046 -0.06916 -0.06563
 C453 C 1.06527 -0.10533 -0.06803
 C454 C 1.08052 -0.12412 -0.09115
 H455 H 1.18889 -0.14574 -0.22671
 H456 H 1.22554 -0.18036 -0.25875
 H457 H 1.20806 -0.27062 -0.20181
 H458 H 1.17030 -0.23623 -0.17054
 H459 H 1.12138 -0.05693 -0.12684
 H460 H 1.09453 -0.02399 -0.08625
 H461 H 1.04982 -0.11930 -0.05172
 H462 H 1.07639 -0.15207 -0.09195
 C463 C 1.18476 0.32359 0.30057
 C464 C 1.17001 0.30001 0.28041
 C465 C 1.19042 0.27768 0.26337
 C466 C 1.22626 0.27726 0.26695
 C467 C 1.24074 0.30246 0.28620
 C468 C 1.22037 0.32514 0.30276
 C469 C 1.16322 0.34561 0.32005
 N470 N 1.17624 0.37459 0.33320
 N471 N 1.15755 0.39321 0.35227
 C472 C 1.12516 0.38348 0.35914
 N473 N 1.11201 0.35466 0.34579
 N474 N 1.13062 0.33618 0.32654
 C475 C 1.10553 0.40260 0.38215
 C476 C 1.07834 0.38628 0.39734
 C477 C 1.06199 0.40305 0.42113
 C478 C 1.07217 0.43665 0.42986
 C479 C 1.09833 0.45359 0.41384
 C480 C 1.11505 0.43661 0.39038
 H481 H 1.14259 0.29894 0.27768
 H482 H 1.17760 0.26114 0.24746
 H483 H 1.26814 0.30389 0.28899
 H484 H 1.23257 0.34323 0.31794
 H485 H 1.07044 0.36008 0.39154
 H486 H 1.04167 0.38956 0.43296
 H487 H 1.10660 0.47954 0.42005
 H488 H 1.13574 0.44994 0.37895
 C489 C 0.67810 -0.18691 0.30342
 C490 C 0.68313 -0.22257 0.30956
 C491 C 0.70537 -0.24227 0.29207
 C492 C 0.72396 -0.22689 0.26824
 C493 C 0.71662 -0.19174 0.26072
 C494 C 0.69460 -0.17185 0.27849
 C495 C 0.65629 -0.16568 0.32343
 N496 N 0.65690 -0.13018 0.32214
 N497 N 0.63878 -0.11127 0.34149
 C498 C 0.61921 -0.12710 0.36283
 N499 N 0.61831 -0.16256 0.36380
 N500 N 0.63647 -0.18142 0.34457
 C501 C 0.60067 -0.10649 0.38571
 C502 C 0.57921 -0.12350 0.40647
 C503 C 0.56388 -0.10497 0.42970
 C504 C 0.56964 -0.06898 0.43281
 C505 C 0.59004 -0.05157 0.41147
 C506 C 0.60544 -0.07017 0.38812
 H507 H 0.67035 -0.23526 0.32826
 H508 H 0.70868 -0.26968 0.29758
 H509 H 0.72756 -0.17937 0.24105
 H510 H 0.69036 -0.14470 0.27256
 H511 H 0.57467 -0.15136 0.40518
 H512 H 0.54795 -0.11904 0.44559
 H513 H 0.59471 -0.02377 0.41322
 H514 H 0.62174 -0.05625 0.37244
 C515 C 0.67816 0.31432 -0.19648
 C516 C 0.69498 0.32952 -0.22122
 C517 C 0.71680 0.30958 -0.23920
 C518 C 0.72361 0.27420 -0.23212
 C519 C 0.70463 0.25872 -0.20856
 C520 C 0.68261 0.27847 -0.19086
 C521 C 0.65660 0.33558 -0.17617
 N522 N 0.63679 0.31982 -0.15501
 N523 N 0.61877 0.33866 -0.13563
 C524 C 0.61982 0.37413 -0.13644
 N525 N 0.63941 0.38997 -0.15777
 N526 N 0.65739 0.37108 -0.17726
 C527 C 0.60117 0.39477 -0.11357
 C528 C 0.60601 0.43108 -0.11111
 C529 C 0.59024 0.44981 -0.08800
 C530 C 0.56932 0.43258 -0.06692
 C531 C 0.56361 0.39656 -0.07001
 C532 C 0.57935 0.37789 -0.09299
 H533 H 0.69119 0.35683 -0.22679
 H534 H 0.72804 0.32213 -0.25866
 H535 H 0.70757 0.23120 -0.20335
 H536 H 0.66958 0.26565 -0.17237
 H537 H 0.62258 0.44493 -0.12661
 H538 H 0.59497 0.47760 -0.08628
 H539 H 0.54736 0.38259 -0.05430
 H540 H 0.57478 0.35005 -0.09430
 C541 C 1.18131 0.18496 -0.19733
 C542 C 1.20501 0.16915 -0.21655
 C543 C 1.22713 0.18945 -0.23414
 C544 C 1.22712 0.22632 -0.23212
 C545 C 1.20198 0.24181 -0.21369
 C546 C 1.17956 0.22152 -0.19657
 C547 C 1.15917 0.16359 -0.17747
 N548 N 1.13072 0.17753 -0.16492
 N549 N 1.11181 0.15897 -0.14571
 C550 C 1.12070 0.12577 -0.13809
 N551 N 1.14901 0.11171 -0.15082
 N552 N 1.16779 0.13020 -0.17020
 C553 C 1.10105 0.10616 -0.11507
 C554 C 1.11597 0.07788 -0.09961
 C555 C 1.09864 0.06137 -0.07601
 C556 C 1.06584 0.07243 -0.06769
 C557 C 1.05032 0.09974 -0.08392
 C558 C 1.06788 0.11664 -0.10721
 H559 H 1.20634 0.14096 -0.21817
 H560 H 1.24385 0.17572 -0.24925
 H561 H 1.20031 0.26998 -0.21203
 H562 H 1.16142 0.23458 -0.18214
 H563 H 1.14150 0.06920 -0.10510
 H564 H 1.11109 0.04020 -0.06400
 H565 H 1.02500 0.10873 -0.07803
 H566 H 1.05561 0.13819 -0.11885
 C567 C 1.18236 0.68766 0.30319
 C568 C 1.20340 0.67177 0.28178
 C569 C 1.22519 0.69183 0.26362
 C570 C 1.22805 0.72855 0.26738
 C571 C 1.20504 0.74412 0.28806
 C572 C 1.18284 0.72410 0.30561
 C573 C 1.16047 0.66647 0.32345
 N574 N 1.13282 0.68089 0.33695
 N575 N 1.11414 0.66247 0.35644
 C576 C 1.12250 0.62894 0.36344
 N577 N 1.15004 0.61444 0.34981
 N578 N 1.16857 0.63277 0.33011
 C579 C 1.10300 0.60935 0.38659
 C580 C 1.11819 0.58146 0.40236
 C581 C 1.10078 0.56473 0.42584
 C582 C 1.06759 0.57508 0.43365
 C583 C 1.05190 0.60213 0.41721
 C584 C 1.06957 0.61933 0.39411
 H585 H 1.20270 0.64372 0.27876
 H586 H 1.23927 0.67802 0.24658
 H587 H 1.20495 0.77218 0.29114
 H588 H 1.16664 0.73723 0.32169
 H589 H 1.14394 0.57324 0.39717
 H590 H 1.11341 0.54385 0.43806
 H591 H 1.02630 0.61060 0.42271
 H592 H 1.05712 0.64060 0.38224
 C593 C 0.68012 0.18494 0.30304
 C594 C 0.70360 0.16902 0.28367
 C595 C 0.72574 0.18921 0.26602
 C596 C 0.72598 0.22607 0.26810
 C597 C 0.70112 0.24169 0.28673
 C598 C 0.67867 0.22151 0.30392
 C599 C 0.65791 0.16363 0.32290
 N600 N 0.62964 0.17771 0.33566
 N601 N 0.61066 0.15914 0.35481
 C602 C 0.61928 0.12578 0.36215
 N603 N 0.64741 0.11160 0.34921
 N604 N 0.66626 0.13010 0.32989
 C605 C 0.59962 0.10610 0.38510
 C606 C 0.61452 0.07768 0.40038
 C607 C 0.59721 0.06102 0.42391
 C608 C 0.56443 0.07204 0.43232
 C609 C 0.54891 0.09949 0.41628
 C610 C 0.56647 0.11658 0.39306
 H611 H 0.70471 0.14083 0.28196
 H612 H 0.74227 0.17541 0.25080
 H613 H 0.69965 0.26987 0.28845
 H614 H 0.66071 0.23465 0.31848
 H615 H 0.64002 0.06900 0.39482
 H616 H 0.60967 0.03976 0.43578
 H617 H 0.52361 0.10846 0.42227
 H618 H 0.55423 0.13824 0.38157
 C619 C 0.68421 0.68571 -0.19631
 C620 C 0.68250 0.72227 -0.19552
 C621 C 0.70457 0.74253 -0.21297
 C622 C 0.72928 0.72700 -0.23181
 C623 C 0.72924 0.69012 -0.23382
 C624 C 0.70751 0.66985 -0.21586
 C625 C 0.66234 0.66438 -0.17624
 N626 N 0.67139 0.63124 -0.16852
 N627 N 0.65270 0.61278 -0.14905
 C628 C 0.62408 0.62663 -0.13670
 N629 N 0.61481 0.65958 -0.14475
 N630 N 0.63362 0.67812 -0.16403
 C631 C 0.60434 0.60705 -0.11378
 C632 C 0.57069 0.61684 -0.10694
 C633 C 0.55280 0.59998 -0.08387
 C634 C 0.56842 0.57340 -0.06684
 C635 C 0.60176 0.56304 -0.07408
 C636 C 0.61946 0.57952 -0.09750
 H637 H 0.66464 0.73533 -0.18081
 H638 H 0.70295 0.77070 -0.21130
 H639 H 0.74560 0.67636 -0.24921
 H640 H 0.70875 0.64166 -0.21749
 H641 H 0.55827 0.63779 -0.11924
 H642 H 0.52706 0.60840 -0.07883
 H643 H 0.61427 0.54241 -0.06144
 H644 H 0.64537 0.57142 -0.10222
 C645 C 0.82183 -0.18780 -0.19298
 C646 C 0.79903 -0.21177 -0.18011
 C647 C 0.77781 -0.23195 -0.19807
 C648 C 0.77748 -0.22771 -0.22968
 C649 C 0.80205 -0.20492 -0.24246
 C650 C 0.82388 -0.18517 -0.22437
 C651 C 0.84236 -0.16525 -0.17323
 N652 N 0.87376 -0.15352 -0.18149
 N653 N 0.89209 -0.13376 -0.16292
 C654 C 0.87947 -0.12465 -0.13560
 N655 N 0.84802 -0.13619 -0.12758
 N656 N 0.82992 -0.15616 -0.14593
 C657 C 0.89936 -0.10335 -0.11432
 C658 C 0.88211 -0.08370 -0.09258
 C659 C 0.90010 -0.06631 -0.07027
 C660 C 0.93581 -0.06852 -0.06886
 C661 C 0.95332 -0.08703 -0.09128
 C662 C 0.93520 -0.10415 -0.11401
 H663 H 0.79777 -0.21519 -0.15594
 H664 H 0.76200 -0.25087 -0.18660
 H665 H 0.80373 -0.20184 -0.26664
 H666 H 0.84161 -0.16715 -0.23488
 H667 H 0.85452 -0.08226 -0.09249
 H668 H 0.88584 -0.05200 -0.05353
 H669 H 0.98087 -0.08900 -0.09081
 H670 H 0.94910 -0.11915 -0.13052
 C671 C 0.81868 0.31077 0.30773
 C672 C 0.79559 0.28694 0.32042
 C673 C 0.77437 0.26693 0.30231
 C674 C 0.77438 0.27114 0.27070
 C675 C 0.79920 0.29380 0.25810
 C676 C 0.82096 0.31342 0.27635
 C677 C 0.83939 0.33309 0.32760
 N678 N 0.87021 0.34588 0.31882
 N679 N 0.88865 0.36560 0.33734
 C680 C 0.87673 0.37360 0.36516
 N681 N 0.84585 0.36097 0.37372
 N682 N 0.82765 0.34106 0.35540
 C683 C 0.89676 0.39500 0.38630
 C684 C 0.87987 0.41293 0.40933
 C685 C 0.89826 0.43069 0.43118
 C686 C 0.93407 0.43058 0.43081
 C687 C 0.95112 0.41370 0.40720
 C688 C 0.93257 0.39622 0.38496
 H689 H 0.79410 0.28348 0.34458
 H690 H 0.75831 0.24812 0.31365
 H691 H 0.80114 0.29687 0.23394
 H692 H 0.83889 0.33131 0.26593
 H693 H 0.85229 0.41282 0.41076
 H694 H 0.88434 0.44367 0.44892
 H695 H 0.97873 0.41336 0.40629
 H696 H 0.94622 0.38259 0.36743
 C697 C 0.32012 -0.18980 0.30654
 C698 C 0.31981 -0.18441 0.27535
 C699 C 0.29771 -0.20372 0.25708
 C700 C 0.27472 -0.22873 0.26947
 C701 C 0.27820 -0.23594 0.30071
 C702 C 0.29966 -0.21622 0.31884
 C703 C 0.34070 -0.16777 0.32679
 N704 N 0.32968 -0.16204 0.35524
 N705 N 0.34773 -0.14251 0.37400
 C706 C 0.37778 -0.12808 0.36525
 N707 N 0.38901 -0.13384 0.33678
 N708 N 0.37069 -0.15315 0.31782
 C709 C 0.39753 -0.10691 0.38683
 C710 C 0.43332 -0.10506 0.38557
 C711 C 0.45158 -0.08778 0.40817
 C712 C 0.43422 -0.07163 0.43202
 C713 C 0.39841 -0.07224 0.43234
 C714 C 0.38034 -0.08988 0.41020
 H715 H 0.33591 -0.16460 0.26517
 H716 H 0.29784 -0.19846 0.23313
 H717 H 0.26468 -0.25700 0.31178
 H718 H 0.30047 -0.22199 0.34270
 H719 H 0.44719 -0.11803 0.36781
 H720 H 0.47918 -0.08759 0.40729
 H721 H 0.38423 -0.05990 0.45027
 H722 H 0.35277 -0.09054 0.41159
 C723 C 0.31857 0.31150 -0.19125
 C724 C 0.32129 0.31434 -0.22261
 C725 C 0.30000 0.29459 -0.24120
 C726 C 0.27521 0.27163 -0.22898
 C727 C 0.27484 0.26720 -0.19739
 C728 C 0.29557 0.28733 -0.17894
 C729 C 0.33880 0.33386 -0.17101
 N730 N 0.32663 0.34143 -0.14326
 N731 N 0.34447 0.36123 -0.12455
 C732 C 0.37539 0.37412 -0.13267
 N733 N 0.38771 0.36655 -0.16045
 N734 N 0.36965 0.34695 -0.17935
 C735 C 0.39510 0.39531 -0.11112
 C736 C 0.43089 0.39697 -0.11240
 C737 C 0.44922 0.41445 -0.09004
 C738 C 0.43197 0.43097 -0.06634
 C739 C 0.39618 0.43051 -0.06589
 C740 C 0.37799 0.41268 -0.08787
 H741 H 0.33920 0.33247 -0.23274
 H742 H 0.30227 0.29780 -0.26532
 H743 H 0.25886 0.24813 -0.18629
 H744 H 0.29378 0.28368 -0.15482
 H745 H 0.44473 0.38375 -0.13006
 H746 H 0.47683 0.41455 -0.09099
 H747 H 0.38213 0.44314 -0.04804
 H748 H 0.35042 0.41218 -0.08645
 C749 C 1.18101 -0.18450 0.19768
 C750 C 1.20256 -0.16871 0.21872
 C751 C 1.22485 -0.18883 0.23631
 C752 C 1.22765 -0.22553 0.23234
 C753 C 1.20414 -0.24102 0.21211
 C754 C 1.18150 -0.22093 0.19510
 C755 C 1.15862 -0.16320 0.17795
 N756 N 1.13125 -0.17781 0.16420
 N757 N 1.11220 -0.15927 0.14512
 C758 C 1.11985 -0.12540 0.13878
 N759 N 1.14709 -0.11069 0.15270
 N760 N 1.16599 -0.12916 0.17198
 C761 C 1.10013 -0.10568 0.11587
 C762 C 1.11456 -0.07655 0.10122
 C763 C 1.09729 -0.05990 0.07766
 C764 C 1.06498 -0.07162 0.06860
 C765 C 1.04987 -0.09978 0.08406
 C766 C 1.06742 -0.11686 0.10727
 H767 H 1.20191 -0.14069 0.22188
 H768 H 1.23936 -0.17510 0.25309
 H769 H 1.20398 -0.26907 0.20895
 H770 H 1.16491 -0.23401 0.17932
 H771 H 1.13972 -0.06732 0.10727
 H772 H 1.10941 -0.03807 0.06626
 H773 H 1.02495 -0.10932 0.07758
 H774 H 1.05553 -0.13907 0.11827
 C775 C 1.18248 0.31544 0.69508
 C776 C 1.18095 0.27886 0.69446
 C777 C 1.20298 0.25881 0.71212
 C778 C 1.22747 0.27455 0.73102
 C779 C 1.22724 0.31144 0.73285
 C780 C 1.20554 0.33151 0.71470
 C781 C 1.16073 0.33653 0.67470
 N782 N 1.16949 0.36979 0.66714
 N783 N 1.15100 0.38801 0.64738
 C784 C 1.12284 0.37380 0.63456
 N785 N 1.11383 0.34071 0.64246
 N786 N 1.13245 0.32242 0.66203
 C787 C 1.10336 0.39317 0.61133
 C788 C 1.07010 0.38282 0.60368
 C789 C 1.05250 0.39971 0.58045
 C790 C 1.06804 0.42688 0.56405
 C791 C 1.10101 0.43771 0.57204
 C792 C 1.11839 0.42121 0.59560
 H793 H 1.16330 0.26562 0.67972
 H794 H 1.20153 0.23062 0.71053
 H795 H 1.24346 0.32534 0.74823
 H796 H 1.20666 0.35972 0.71619
 H797 H 1.05775 0.36146 0.61552
 H798 H 1.02705 0.39092 0.57482
 H799 H 1.11346 0.45879 0.55991
 H800 H 1.14399 0.42977 0.60092
 C801 C 0.68270 -0.18387 0.69655
 C802 C 0.68129 -0.22044 0.69576
 C803 C 0.70386 -0.24052 0.71284
 C804 C 0.72880 -0.22481 0.73129
 C805 C 0.72854 -0.18795 0.73329
 C806 C 0.70627 -0.16784 0.71573
 C807 C 0.66035 -0.16270 0.67678
 N808 N 0.66868 -0.12925 0.66945
 N809 N 0.64970 -0.11094 0.65013
 C810 C 0.62146 -0.12524 0.63753
 N811 N 0.61286 -0.15850 0.64522
 N812 N 0.63196 -0.17688 0.66436
 C813 C 0.60163 -0.10585 0.61456
 C814 C 0.56849 -0.11657 0.60688
 C815 C 0.55076 -0.09987 0.58361
 C816 C 0.56608 -0.07253 0.56725
 C817 C 0.59885 -0.06124 0.57539
 C818 C 0.61634 -0.07754 0.59896
 H819 H 0.66327 -0.23365 0.68134
 H820 H 0.70242 -0.26871 0.71119
 H821 H 0.74514 -0.17408 0.74838
 H822 H 0.70735 -0.13964 0.71736
 H823 H 0.55640 -0.13814 0.61863
 H824 H 0.52547 -0.10902 0.57786
 H825 H 0.61113 -0.04004 0.56327
 H826 H 0.64183 -0.06869 0.60431
 C827 C 0.68088 0.31567 0.19602
 C828 C 0.67923 0.27911 0.19516
 C829 C 0.70143 0.25882 0.21247
 C830 C 0.72622 0.27432 0.23121
 C831 C 0.72614 0.31119 0.23327
 C832 C 0.70427 0.33148 0.21549
 C833 C 0.65894 0.33709 0.17607
 N834 N 0.66779 0.37039 0.16870
 N835 N 0.64911 0.38897 0.14935
 C836 C 0.62067 0.37511 0.13675
 N837 N 0.61156 0.34199 0.14445
 N838 N 0.63037 0.32333 0.16363
 C839 C 0.60106 0.39488 0.11386
 C840 C 0.56750 0.38512 0.10665
 C841 C 0.54984 0.40228 0.08358
 C842 C 0.56565 0.42907 0.06691
 C843 C 0.59889 0.43935 0.07453
 C844 C 0.61632 0.42263 0.09794
 H845 H 0.66132 0.26607 0.18052
 H846 H 0.69983 0.23065 0.21076
 H847 H 0.74257 0.32492 0.24859
 H848 H 0.70550 0.35967 0.21718
 H849 H 0.55499 0.36399 0.11866
 H850 H 0.52420 0.39389 0.07822
 H851 H 0.61155 0.46011 0.06216
 H852 H 0.64215 0.43072 0.10292
 C853 C 0.81914 0.18948 0.19198
 C854 C 0.82115 0.18679 0.22336
 C855 C 0.79918 0.20634 0.24152
 C856 C 0.77448 0.22904 0.22882
 C857 C 0.77471 0.23325 0.19721
 C858 C 0.79610 0.21326 0.17918
 C859 C 0.84004 0.16724 0.17218
 N860 N 0.82812 0.15858 0.14462
 N861 N 0.84651 0.13879 0.12631
 C862 C 0.87777 0.12701 0.13464
 N863 N 0.88988 0.13572 0.16221
 N864 N 0.87125 0.15530 0.18073
 C865 C 0.89793 0.10572 0.11349
 C866 C 0.93379 0.10600 0.11380
 C867 C 0.95226 0.08870 0.09135
 C868 C 0.93507 0.07050 0.06858
 C869 C 0.89930 0.06886 0.06933
 C870 C 0.88098 0.08644 0.09136
 H871 H 0.83902 0.16891 0.23384
 H872 H 0.80091 0.20325 0.26569
 H873 H 0.75874 0.25205 0.18579
 H874 H 0.79480 0.21672 0.15502
 H875 H 0.94747 0.12070 0.13064
 H876 H 0.97984 0.09024 0.09140
 H877 H 0.88527 0.05482 0.05230
 H878 H 0.85339 0.08538 0.09076
 C879 C 0.82075 0.69003 0.69112
 C880 C 0.82342 0.68756 0.72248
 C881 C 0.80204 0.70746 0.74088
 C882 C 0.77721 0.73018 0.72844
 C883 C 0.77695 0.73434 0.69682
 C884 C 0.79779 0.71406 0.67857
 C885 C 0.84089 0.66732 0.67114
 N886 N 0.82860 0.65920 0.64358
 N887 N 0.84634 0.63899 0.62511
 C888 C 0.87726 0.62621 0.63330
 N889 N 0.88971 0.63433 0.66090
 N890 N 0.87174 0.65434 0.67956
 C891 C 0.89692 0.60474 0.61194
 C892 C 0.93273 0.60338 0.61298
 C893 C 0.95100 0.58601 0.59050
 C894 C 0.93368 0.56937 0.56694
 C895 C 0.89788 0.56935 0.56686
 C896 C 0.87974 0.58702 0.58897
 H897 H 0.84131 0.66954 0.73278
 H898 H 0.80419 0.70447 0.76503
 H899 H 0.76093 0.75324 0.68558
 H900 H 0.79606 0.71742 0.65442
 H901 H 0.94660 0.61685 0.63044
 H902 H 0.97862 0.58627 0.59117
 H903 H 0.88378 0.55656 0.54915
 H904 H 0.85215 0.58727 0.58779
 C905 C 0.32028 0.18961 0.69214
 C906 C 0.32231 0.18697 0.72353
 C907 C 0.30055 0.20681 0.74168
 C908 C 0.27600 0.22964 0.72894
 C909 C 0.27645 0.23398 0.69734
 C910 C 0.29763 0.21376 0.67934
 C911 C 0.34066 0.16688 0.67231
 N912 N 0.32842 0.15839 0.64482
 N913 N 0.34634 0.13821 0.62645
 C914 C 0.37741 0.12583 0.63467
 N915 N 0.38982 0.13433 0.66219
 N916 N 0.37166 0.15431 0.68077
 C917 C 0.39716 0.10425 0.61342
 C918 C 0.43301 0.10375 0.61385
 C919 C 0.45120 0.08624 0.59137
 C920 C 0.43376 0.06858 0.56842
 C921 C 0.39796 0.06772 0.56901
 C922 C 0.37991 0.08554 0.59109
 H923 H 0.33995 0.16885 0.73402
 H924 H 0.30219 0.20368 0.76585
 H925 H 0.26072 0.25298 0.68590
 H926 H 0.29640 0.21724 0.65517
 H927 H 0.44693 0.11801 0.63081
 H928 H 0.47881 0.08718 0.59153
 H929 H 0.38376 0.05415 0.55181
 H930 H 0.35231 0.08512 0.59038
 C931 C 0.31880 0.69283 0.19127
 C932 C 0.31913 0.68735 0.22246
 C933 C 0.29744 0.70661 0.24116
 C934 C 0.27418 0.73164 0.22925
 C935 C 0.27693 0.73888 0.19795
 C936 C 0.29802 0.71924 0.17940
 C937 C 0.33922 0.67102 0.17064
 N938 N 0.32839 0.66622 0.14202
 N939 N 0.34633 0.64690 0.12297
 C940 C 0.37606 0.63174 0.13161
 N941 N 0.38709 0.63656 0.16026
 N942 N 0.36889 0.65568 0.17948
 C943 C 0.39576 0.61081 0.10978
 C944 C 0.43138 0.60733 0.11197
 C945 C 0.44978 0.58993 0.08953
 C946 C 0.43273 0.57524 0.06486
 C947 C 0.39704 0.57762 0.06342
 C948 C 0.37883 0.59540 0.08545
 H949 H 0.33549 0.66757 0.23233
 H950 H 0.29813 0.70133 0.26510
 H951 H 0.26316 0.75996 0.18718
 H952 H 0.29832 0.72510 0.15554
 H953 H 0.44508 0.61903 0.13047
 H954 H 0.47729 0.58835 0.09126
 H955 H 0.38312 0.56644 0.04481
 H956 H 0.35139 0.59733 0.08329
   
