data_POSCAR
  _audit_creation_date              2014-09-24
  _audit_creation_method            'ToBaCCo'
  _symmetry_space_group_name_H-M    'P1'
  _symmetry_Int_Tables_number       1
  _symmetry_cell_setting            triclinic
  loop_
  _symmetry_equiv_pos_as_xyz
 x,y,z
_cell_length_a 47.6381
_cell_length_b 46.2471
_cell_length_c 47.0902
_cell_angle_alpha 90.010400
_cell_angle_beta 89.993600
_cell_angle_gamma 89.845200
loop_
  _atom_site_label
  _atom_site_type_symbol
  _atom_site_fract_x
  _atom_site_fract_y
  _atom_site_fract_z
C1 C 0.37394 0.29125 -0.01910
 C2 C 0.38627 0.28465 0.00721
 C3 C 0.37370 0.29229 0.03291
 C4 C 0.34862 0.30857 0.03284
 C5 C 0.33626 0.31678 0.00660
 C6 C 0.34866 0.30781 -0.01947
 C7 C 0.33625 0.31708 -0.04501
 C8 C 0.31175 0.33345 -0.04510
 C9 C 0.29956 0.34339 -0.01969
 C10 C 0.31166 0.33438 0.00648
 C11 C 0.33594 0.31736 0.05835
 C12 C 0.31163 0.33400 0.05822
 C13 C 0.29937 0.34309 0.03259
 C14 C 0.27493 0.36044 0.03245
 C15 C 0.26264 0.36817 0.00660
 C16 C 0.27493 0.36097 -0.01961
 H17 H 0.34543 0.31220 -0.06542
 H18 H 0.30248 0.33807 -0.06555
 H19 H 0.34481 0.31162 0.07874
 H20 H 0.30250 0.33965 0.07853
 H21 H 0.40515 0.27148 0.00791
 H22 H 0.24450 0.38241 0.00711
 C23 C 0.72797 0.64329 0.02208
 C24 C 0.73984 0.63471 -0.00370
 C25 C 0.72810 0.64255 -0.02999
 C26 C 0.70428 0.66126 -0.03023
 C27 C 0.69252 0.67086 -0.00406
 C28 C 0.70440 0.66182 0.02212
 C29 C 0.69288 0.67214 0.04768
 C30 C 0.66979 0.69059 0.04768
 C31 C 0.65733 0.69948 0.02210
 C32 C 0.66897 0.68983 -0.00403
 C33 C 0.69298 0.67219 -0.05572
 C34 C 0.66963 0.69033 -0.05569
 C35 C 0.65727 0.69937 -0.03012
 C36 C 0.63359 0.71787 -0.02988
 C37 C 0.62234 0.72705 -0.00399
 C38 C 0.63393 0.71835 0.02190
 H39 H 0.70190 0.66639 0.06801
 H40 H 0.66199 0.69802 0.06799
 H41 H 0.70237 0.66736 -0.07607
 H42 H 0.66159 0.69753 -0.07599
 H43 H 0.75732 0.61963 -0.00307
 H44 H 0.60425 0.74137 -0.00399
 C45 C 0.62975 0.28823 0.97417
 C46 C 0.61694 0.28024 0.99963
 C47 C 0.62699 0.28955 1.02616
 C48 C 0.65034 0.30875 1.02688
 C49 C 0.66339 0.31728 1.00100
 C50 C 0.65318 0.30680 0.97462
 C51 C 0.66679 0.31494 0.94940
 C52 C 0.68956 0.33370 0.94989
 C53 C 0.69952 0.34514 0.97561
 C54 C 0.68656 0.33662 1.00145
 C55 C 0.65992 0.32116 1.05242
 C56 C 0.68291 0.33965 1.05288
 C57 C 0.69656 0.34763 1.02769
 C58 C 0.71994 0.36642 1.02796
 C59 C 0.73256 0.37437 1.00235
 C60 C 0.72239 0.36458 0.97624
 H61 H 0.65999 0.30682 0.92898
 H62 H 0.69940 0.33901 0.92985
 H63 H 0.64949 0.31724 1.07241
 H64 H 0.68969 0.34784 1.07327
 H65 H 0.59942 0.26531 0.99864
 H66 H 0.74997 0.38946 1.00271
 C67 C 0.37564 0.70815 0.97401
 C68 C 0.38881 0.71500 0.99956
 C69 C 0.37901 0.70467 1.02580
 C70 C 0.35584 0.68525 1.02599
 C71 C 0.34218 0.67813 1.00005
 C72 C 0.35196 0.68993 0.97403
 C73 C 0.33843 0.68247 0.94859
 C74 C 0.31610 0.66324 0.94849
 C75 C 0.30671 0.65038 0.97377
 C76 C 0.31941 0.65824 0.99993
 C77 C 0.34763 0.67064 1.05082
 C78 C 0.32543 0.65117 1.05070
 C79 C 0.31021 0.64534 1.02575
 C80 C 0.28781 0.62497 1.02527
 C81 C 0.27600 0.61745 0.99896
 C82 C 0.28509 0.62963 0.97350
 H83 H 0.34525 0.69112 0.92839
 H84 H 0.30646 0.65827 0.92826
 H85 H 0.35904 0.67311 1.07051
 H86 H 0.32119 0.63987 1.07031
 H87 H 0.40629 0.72998 0.99889
 H88 H 0.25890 0.60202 0.99813
 C89 C 0.02406 0.27513 0.35994
 C90 C -0.00143 0.26319 0.36864
 C91 C -0.02739 0.27575 0.36148
 C92 C -0.02764 0.30042 0.34332
 C93 C -0.00186 0.31205 0.33332
 C94 C 0.02402 0.29935 0.34169
 C95 C 0.04926 0.31080 0.33117
 C96 C 0.04925 0.33476 0.31341
 C97 C 0.02399 0.34811 0.30532
 C98 C -0.00188 0.33644 0.31485
 C99 C -0.05285 0.31294 0.33366
 C100 C -0.05287 0.33732 0.31638
 C101 C -0.02770 0.34916 0.30605
 C102 C -0.02739 0.37416 0.28833
 C103 C -0.00138 0.38561 0.28002
 C104 C 0.02397 0.37268 0.28764
 H105 H 0.06933 0.30113 0.33635
 H106 H 0.06932 0.34272 0.30604
 H107 H -0.07306 0.30397 0.33910
 H108 H -0.07304 0.34680 0.31151
 H109 H -0.00080 0.24513 0.38334
 H110 H -0.00071 0.40420 0.26596
 C111 C 0.02839 0.71259 0.62729
 C112 C 0.00292 0.72025 0.61477
 C113 C -0.02285 0.70930 0.62445
 C114 C -0.02261 0.68847 0.64678
 C115 C 0.00323 0.68068 0.65989
 C116 C 0.02876 0.69309 0.65029
 C117 C 0.05412 0.68499 0.66327
 C118 C 0.05461 0.66456 0.68488
 C119 C 0.02981 0.65113 0.69403
 C120 C 0.00376 0.65951 0.68185
 C121 C -0.04693 0.67317 0.65450
 C122 C -0.04642 0.65243 0.67589
 C123 C -0.02156 0.64596 0.69075
 C124 C -0.02071 0.62440 0.71238
 C125 C 0.00547 0.61644 0.72370
 C126 C 0.03044 0.62930 0.71491
 H127 H 0.07395 0.69413 0.65659
 H128 H 0.07475 0.65913 0.69411
 H129 H -0.06652 0.67609 0.64326
 H130 H -0.06564 0.64074 0.67974
 H131 H 0.00332 0.73617 0.59785
 H132 H 0.00659 0.60020 0.74031
 C133 C 1.02600 0.64094 0.28128
 C134 C 1.00089 0.63270 0.26828
 C135 C 0.97487 0.64223 0.27842
 C136 C 0.97386 0.66174 0.30156
 C137 C 0.99919 0.67053 0.31487
 C138 C 1.02532 0.65978 0.30493
 C139 C 1.05003 0.66802 0.31893
 C140 C 1.04919 0.68644 0.34225
 C141 C 1.02374 0.69863 0.35178
 C142 C 0.99837 0.68985 0.33837
 C143 C 0.94824 0.67295 0.31147
 C144 C 0.94737 0.69166 0.33459
 C145 C 0.97211 0.69999 0.34860
 C146 C 0.97128 0.71843 0.37245
 C147 C 0.99626 0.72676 0.38556
 C148 C 1.02266 0.71784 0.37545
 H149 H 1.07035 0.66009 0.31219
 H150 H 1.06883 0.69045 0.35299
 H151 H 0.92857 0.66751 0.30133
 H152 H 0.92704 0.69959 0.34133
 H153 H 1.00158 0.61754 0.25071
 H154 H 0.99498 0.74160 0.40338
 C155 C 1.02715 0.36042 0.72125
 C156 C 1.00178 0.36826 0.73407
 C157 C 0.97601 0.35862 0.72354
 C158 C 0.97553 0.33933 0.70024
 C159 C 1.00111 0.33106 0.68698
 C160 C 1.02699 0.34196 0.69729
 C161 C 1.05194 0.33422 0.68332
 C162 C 1.05155 0.31628 0.65960
 C163 C 1.02635 0.30410 0.64960
 C164 C 1.00076 0.31215 0.66316
 C165 C 0.95017 0.32785 0.69008
 C166 C 0.94978 0.30939 0.66678
 C167 C 0.97474 0.30168 0.65276
 C168 C 0.97436 0.28356 0.62871
 C169 C 0.99946 0.27623 0.61526
 C170 C 1.02564 0.28562 0.62537
 H171 H 1.07207 0.34224 0.69039
 H172 H 1.07132 0.31261 0.64896
 H173 H 0.93035 0.33287 0.70020
 H174 H 0.92965 0.30124 0.65983
 H175 H 1.00206 0.38324 0.75180
 H176 H 0.99850 0.26171 0.59717
 C177 C 0.36540 -0.02894 0.27611
 C178 C 0.37595 -0.00226 0.26669
 C179 C 0.36708 0.02400 0.27823
 C180 C 0.34629 0.02424 0.29955
 C181 C 0.33453 -0.00227 0.30900
 C182 C 0.34392 -0.02893 0.29721
 C183 C 0.32978 -0.05442 0.30495
 C184 C 0.30840 -0.05413 0.32509
 C185 C 0.30000 -0.02832 0.33847
 C186 C 0.31258 -0.00196 0.32955
 C187 C 0.33620 0.05040 0.31083
 C188 C 0.31481 0.05069 0.33086
 C189 C 0.30264 0.02484 0.34041
 C190 C 0.28004 0.02517 0.35975
 C191 C 0.26776 -0.00079 0.36813
 C192 C 0.27765 -0.02773 0.35859
 H193 H 0.33424 -0.07483 0.29470
 H194 H 0.29776 -0.07432 0.32915
 H195 H 0.34432 0.07101 0.30380
 H196 H 0.30746 0.07151 0.33832
 H197 H 0.39267 -0.00177 0.25105
 H198 H 0.25119 0.00016 0.38393
 C199 C 0.62254 0.03198 0.70858
 C200 C 0.60946 0.00625 0.71647
 C201 C 0.62003 -0.02095 0.70845
 C202 C 0.64386 -0.02207 0.69019
 C203 C 0.65721 0.00407 0.68177
 C204 C 0.64675 0.03113 0.69136
 C205 C 0.66026 0.05667 0.68284
 C206 C 0.68338 0.05579 0.66482
 C207 C 0.69352 0.02938 0.65417
 C208 C 0.68058 0.00324 0.66300
 C209 C 0.65340 -0.04828 0.67831
 C210 C 0.67641 -0.04910 0.66014
 C211 C 0.69044 -0.02366 0.65240
 C212 C 0.71340 -0.02426 0.63340
 C213 C 0.72599 0.00163 0.62505
 C214 C 0.71624 0.02837 0.63482
 H215 H 0.65289 0.07766 0.68978
 H216 H 0.69309 0.07610 0.65914
 H217 H 0.64268 -0.06847 0.68213
 H218 H 0.68273 -0.06990 0.65173
 H219 H 0.59153 0.00761 0.73063
 H220 H 0.74316 0.00097 0.60991
 C221 C 0.27823 0.97656 0.63823
 C222 C 0.26647 1.00256 0.62897
 C223 C 0.27643 1.02955 0.63818
 C224 C 0.29829 1.03023 0.65883
 C225 C 0.31009 1.00382 0.66886
 C226 C 0.30012 0.97694 0.65839
 C227 C 0.31161 0.95112 0.66904
 C228 C 0.33256 0.95153 0.68959
 C229 C 0.34286 0.97780 0.70028
 C230 C 0.33145 1.00420 0.68997
 C231 C 0.30720 1.05630 0.67138
 C232 C 0.32828 1.05667 0.69182
 C233 C 0.34092 1.03094 0.70120
 C234 C 0.36200 1.03111 0.72236
 C235 C 0.37283 1.00490 0.73238
 C236 C 0.36369 0.97837 0.72167
 H237 H 0.30412 0.93025 0.66198
 H238 H 0.34025 0.93097 0.69735
 H239 H 0.29741 1.07674 0.66621
 H240 H 0.33409 1.07737 0.70076
 H241 H 0.25033 1.00158 0.61272
 H242 H 0.38910 1.00516 0.74850
 C243 C 0.63947 0.97048 0.27767
 C244 C 0.63214 0.99679 0.26515
 C245 C 0.63950 1.02347 0.27730
 C246 C 0.65684 1.02350 0.30197
 C247 C 0.66541 0.99683 0.31430
 C248 C 0.65648 0.97027 0.30222
 C249 C 0.66501 0.94414 0.31479
 C250 C 0.68143 0.94398 0.33916
 C251 C 0.69051 0.96993 0.35158
 C252 C 0.68278 0.99666 0.33893
 C253 C 0.66693 1.04934 0.31393
 C254 C 0.68325 1.04921 0.33839
 C255 C 0.69206 1.02317 0.35104
 C256 C 0.70852 1.02277 0.37631
 C257 C 0.71466 0.99599 0.38898
 C258 C 0.70665 0.96983 0.37670
 H259 H 0.65909 0.92348 0.30585
 H260 H 0.68677 0.92321 0.34830
 H261 H 0.66248 1.07014 0.30446
 H262 H 0.68845 1.06999 0.34741
 H263 H 0.61811 0.99632 0.24699
 H264 H 0.72775 0.99523 0.40783
 O265 O 0.81620 0.85647 0.53364
 O266 O 0.85444 0.81839 0.47728
 O267 O 0.81404 0.85639 0.47887
 O268 O 0.85612 0.81756 0.53205
 O269 O 0.82468 0.78249 0.53310
 O270 O 0.78245 0.82144 0.47955
 O271 O 0.82316 0.78314 0.47797
 O272 O 0.78440 0.82174 0.53465
 Cu273 Cu 0.83835 0.84070 0.50544
 Cu274 Cu 0.80048 0.79864 0.50649
 C275 C 0.79358 0.84597 0.54325
 C276 C 0.84557 0.79425 0.46831
 C277 C 0.79101 0.84569 0.47046
 C278 C 0.84785 0.79322 0.54112
 O279 O 0.17951 0.13961 0.52526
 O280 O 0.13956 0.17582 0.46898
 O281 O 0.17989 0.13790 0.47021
 O282 O 0.13982 0.17839 0.52378
 O283 O 0.17141 0.21333 0.52275
 O284 O 0.21165 0.17265 0.46885
 O285 O 0.17099 0.21090 0.46757
 O286 O 0.21143 0.17422 0.52431
 Cu287 Cu 0.15658 0.15439 0.49722
 Cu288 Cu 0.19463 0.19629 0.49577
 C289 C 0.20220 0.15054 0.53422
 C290 C 0.14827 0.19958 0.45894
 C291 C 0.20252 0.14834 0.46051
 C292 C 0.14860 0.20285 0.53204
 O293 O 0.14189 0.82401 0.52824
 O294 O 0.18026 0.86256 0.47221
 O295 O 0.14035 0.82425 0.47363
 O296 O 0.18105 0.86320 0.52743
 O297 O 0.21340 0.82882 0.52703
 O298 O 0.17222 0.78938 0.47288
 O299 O 0.21247 0.82805 0.47139
 O300 O 0.17396 0.78934 0.52779
 Cu301 Cu 0.15780 0.84709 0.50044
 Cu302 Cu 0.19639 0.80549 0.49970
 C303 C 0.15112 0.79990 0.53709
 C304 C 0.20279 0.85191 0.46232
 C305 C 0.14901 0.80001 0.46459
 C306 C 0.20402 0.85274 0.53635
 O307 O 0.85997 0.17822 0.52556
 O308 O 0.81954 0.13793 0.47232
 O309 O 0.85953 0.17639 0.47065
 O310 O 0.82073 0.13933 0.52714
 O311 O 0.78857 0.17391 0.52686
 O312 O 0.82780 0.21138 0.46999
 O313 O 0.78749 0.17261 0.47169
 O314 O 0.82812 0.21310 0.52525
 Cu315 Cu 0.84317 0.15451 0.49890
 Cu316 Cu 0.80476 0.19630 0.49833
 C317 C 0.85102 0.20249 0.53430
 C318 C 0.79647 0.14817 0.46337
 C319 C 0.85054 0.20026 0.46102
 C320 C 0.79802 0.15011 0.53639
 O321 O 0.47095 0.86127 0.82142
 O322 O 0.52704 0.82155 0.85803
 O323 O 0.52509 0.86179 0.81924
 O324 O 0.47278 0.82061 0.85972
 O325 O 0.47198 0.78724 0.82610
 O326 O 0.52457 0.82856 0.78545
 O327 O 0.52653 0.78804 0.82453
 O328 O 0.47013 0.82817 0.78753
 Cu329 Cu 0.49905 0.84463 0.84299
 Cu330 Cu 0.49826 0.80460 0.80249
 C331 C 0.46132 0.85175 0.79815
 C332 C 0.53601 0.79793 0.84777
 C333 C 0.53331 0.85243 0.79532
 C334 C 0.46377 0.79684 0.84995
 O335 O 0.52957 0.18087 0.14156
 O336 O 0.47593 0.14040 0.18069
 O337 O 0.47553 0.18194 0.14332
 O338 O 0.53036 0.13976 0.17938
 O339 O 0.53188 0.17214 0.21390
 O340 O 0.47669 0.21454 0.17767
 O341 O 0.47706 0.17267 0.21532
 O342 O 0.53103 0.21361 0.17577
 Cu343 Cu 0.50272 0.15742 0.15786
 Cu344 Cu 0.50432 0.19646 0.19924
 C345 C 0.53896 0.20432 0.15169
 C346 C 0.46751 0.14950 0.20460
 C347 C 0.46720 0.20559 0.15408
 C348 C 0.54029 0.14868 0.20276
 O349 O 0.52451 0.14605 0.81862
 O350 O 0.47218 0.18435 0.86195
 O351 O 0.47025 0.14572 0.82172
 O352 O 0.52631 0.18450 0.85908
 O353 O 0.52456 0.21958 0.82721
 O354 O 0.46812 0.18041 0.78947
 O355 O 0.47010 0.21934 0.83000
 O356 O 0.52272 0.18082 0.78643
 Cu357 Cu 0.49852 0.16164 0.84352
 Cu358 Cu 0.49619 0.20355 0.80499
 C359 C 0.53225 0.15674 0.79511
 C360 C 0.46260 0.20848 0.85354
 C361 C 0.45987 0.15628 0.79920
 C362 C 0.53465 0.20873 0.84979
 O363 O 0.47390 0.81515 0.14075
 O364 O 0.52771 0.85713 0.17824
 O365 O 0.52788 0.81734 0.13933
 O366 O 0.47324 0.85558 0.17935
 O367 O 0.47481 0.82234 0.21306
 O368 O 0.52995 0.78357 0.17254
 O369 O 0.52973 0.82374 0.21179
 O370 O 0.47558 0.78153 0.17411
 Cu371 Cu 0.50042 0.83973 0.15616
 Cu372 Cu 0.50265 0.79948 0.19637
 C373 C 0.46609 0.79100 0.15071
 C374 C 0.53785 0.84757 0.20130
 C375 C 0.53791 0.79386 0.14886
 C376 C 0.46486 0.84568 0.20295
 O377 O 0.86508 0.52641 0.82173
 O378 O 0.82597 0.47275 0.86328
 O379 O 0.86475 0.47064 0.82456
 O380 O 0.82638 0.52875 0.86085
 O381 O 0.79344 0.52775 0.82778
 O382 O 0.83217 0.46921 0.79114
 O383 O 0.79310 0.47136 0.83015
 O384 O 0.83247 0.52534 0.78834
 Cu385 Cu 0.84878 0.49984 0.84597
 Cu386 Cu 0.80942 0.49835 0.80601
 C387 C 0.85571 0.53459 0.79784
 C388 C 0.80295 0.46300 0.85382
 C389 C 0.85516 0.46026 0.80164
 C390 C 0.80338 0.53792 0.85071
 O391 O 0.13964 0.53279 0.18114
 O392 O 0.17609 0.47425 0.14361
 O393 O 0.13799 0.47698 0.18301
 O394 O 0.17881 0.53006 0.14245
 O395 O 0.21169 0.52973 0.17560
 O396 O 0.17067 0.47630 0.21636
 O397 O 0.20906 0.47354 0.17666
 O398 O 0.17218 0.53247 0.21464
 Cu399 Cu 0.15485 0.50365 0.15923
 Cu400 Cu 0.19424 0.50304 0.19919
 C401 C 0.14938 0.54221 0.20439
 C402 C 0.19878 0.46413 0.15357
 C403 C 0.14728 0.46781 0.20659
 C404 C 0.20233 0.53851 0.15188
 O405 O 0.82567 0.53054 0.13644
 O406 O 0.86212 0.47499 0.17831
 O407 O 0.82371 0.47458 0.13875
 O408 O 0.86393 0.53081 0.17571
 O409 O 0.83099 0.53372 0.20870
 O410 O 0.79051 0.47714 0.17148
 O411 O 0.82919 0.47759 0.21132
 O412 O 0.79248 0.53343 0.16917
 Cu413 Cu 0.84714 0.50237 0.15399
 Cu414 Cu 0.80740 0.50567 0.19348
 C415 C 0.80293 0.54133 0.14563
 C416 C 0.85214 0.46724 0.20207
 C417 C 0.80023 0.46657 0.14861
 C418 C 0.85441 0.54164 0.19851
 O419 O 0.13933 0.46945 0.82353
 O420 O 0.17881 0.52556 0.86141
 O421 O 0.14086 0.52532 0.82179
 O422 O 0.17701 0.46971 0.86366
 O423 O 0.21067 0.46720 0.83140
 O424 O 0.17414 0.52320 0.78909
 O425 O 0.21238 0.52341 0.82902
 O426 O 0.17268 0.46695 0.79094
 Cu427 Cu 0.15565 0.49771 0.84585
 Cu428 Cu 0.19587 0.49491 0.80681
 C429 C 0.14912 0.45895 0.80070
 C430 C 0.20231 0.53383 0.85179
 C431 C 0.15117 0.53353 0.79835
 C432 C 0.20006 0.45928 0.85487
 C433 C 0.23864 0.40575 0.10283
 C434 C 0.26706 0.40945 0.09624
 C435 C 0.27925 0.39358 0.07417
 C436 C 0.26315 0.37375 0.05854
 C437 C 0.23486 0.36953 0.06577
 C438 C 0.22268 0.38543 0.08785
 C439 C 0.22513 0.42510 0.12253
 C440 C 0.21337 0.44239 0.13757
 H441 H 0.27950 0.42541 0.10739
 H442 H 0.30093 0.39760 0.06850
 H443 H 0.22203 0.35465 0.05368
 H444 H 0.20058 0.38268 0.09252
 C445 C 0.76381 0.59831 0.09281
 C446 C 0.73519 0.59539 0.08673
 C447 C 0.72314 0.61121 0.06454
 C448 C 0.73962 0.63017 0.04829
 C449 C 0.76812 0.63364 0.05503
 C450 C 0.78014 0.61782 0.07723
 C451 C 0.77703 0.57921 0.11290
 C452 C 0.78859 0.56232 0.12851
 H453 H 0.72244 0.58010 0.09841
 H454 H 0.70127 0.60781 0.05927
 H455 H 0.78122 0.64786 0.04248
 H456 H 0.80237 0.62000 0.08155
 C457 C 0.76131 0.40767 0.90618
 C458 C 0.73229 0.41015 0.91036
 C459 C 0.71929 0.39487 0.93234
 C460 C 0.73521 0.37694 0.95028
 C461 C 0.76415 0.37387 0.94543
 C462 C 0.77711 0.38912 0.92345
 C463 C 0.77533 0.42626 0.88624
 C464 C 0.78764 0.44267 0.87076
 H465 H 0.71992 0.42470 0.89735
 H466 H 0.69706 0.39795 0.93612
 H467 H 0.77680 0.36043 0.95928
 H468 H 0.79962 0.38727 0.92059
 C469 C 0.24527 0.58957 0.90242
 C470 C 0.27434 0.58683 0.90609
 C471 C 0.28770 0.60133 0.92835
 C472 C 0.27207 0.61868 0.94707
 C473 C 0.24313 0.62221 0.94263
 C474 C 0.22981 0.60776 0.92036
 C475 C 0.23078 0.57112 0.88274
 C476 C 0.21805 0.55458 0.86777
 H477 H 0.28643 0.57252 0.89256
 H478 H 0.30995 0.59797 0.93181
 H479 H 0.23073 0.63521 0.95711
 H480 H 0.20727 0.60975 0.91793
 C481 C 0.09506 0.23892 0.40325
 C482 C 0.08895 0.26843 0.40584
 C483 C 0.06655 0.28050 0.39071
 C484 C 0.05009 0.26319 0.37274
 C485 C 0.05675 0.23375 0.36969
 C486 C 0.07916 0.22170 0.38483
 C487 C 0.11551 0.22571 0.42169
 C488 C 0.13130 0.21412 0.43818
 H489 H 0.10083 0.28187 0.42032
 H490 H 0.06138 0.30311 0.39380
 H491 H 0.04407 0.21999 0.35623
 H492 H 0.08347 0.19876 0.38294
 C493 C 0.09861 0.75329 0.58743
 C494 C 0.08524 0.72989 0.57433
 C495 C 0.06308 0.71590 0.58795
 C496 C 0.05416 0.72506 0.61487
 C497 C 0.06811 0.74796 0.62837
 C498 C 0.09029 0.76206 0.61466
 C499 C 0.11881 0.76977 0.57154
 C500 C 0.13437 0.78359 0.55664
 H501 H 0.09129 0.72312 0.55317
 H502 H 0.05229 0.69846 0.57717
 H503 H 0.06119 0.75549 0.64900
 H504 H 0.10028 0.78034 0.62485
 C505 C 0.89879 0.75400 0.41339
 C506 C 0.91652 0.77179 0.39740
 C507 C 0.93945 0.75992 0.38301
 C508 C 0.94482 0.73011 0.38437
 C509 C 0.92649 0.71216 0.39963
 C510 C 0.90355 0.72409 0.41413
 C511 C 0.87799 0.76703 0.43154
 C512 C 0.86219 0.77897 0.44778
 H513 H 0.91325 0.79498 0.39696
 H514 H 0.95356 0.77407 0.37156
 H515 H 0.93060 0.68917 0.40118
 H516 H 0.89020 0.71018 0.42674
 C517 C 0.90357 0.24507 0.58795
 C518 C 0.92153 0.22821 0.60470
 C519 C 0.94384 0.24108 0.61911
 C520 C 0.94832 0.27097 0.61701
 C521 C 0.92972 0.28801 0.60102
 C522 C 0.90740 0.27508 0.58651
 C523 C 0.88334 0.23104 0.57000
 C524 C 0.86781 0.21839 0.55411
 H525 H 0.91895 0.20496 0.60572
 H526 H 0.95823 0.22764 0.63112
 H527 H 0.93317 0.31105 0.59891
 H528 H 0.89381 0.28827 0.57335
 C529 C 0.41225 0.09617 0.24452
 C530 C 0.39328 0.08102 0.22740
 C531 C 0.37763 0.05829 0.23877
 C532 C 0.38069 0.05058 0.26743
 C533 C 0.39912 0.06636 0.28476
 C534 C 0.41485 0.08908 0.27333
 C535 C 0.43098 0.11675 0.23167
 C536 C 0.44733 0.13256 0.21986
 H537 H 0.39133 0.08608 0.20502
 H538 H 0.36375 0.04612 0.22505
 H539 H 0.40205 0.06036 0.30680
 H540 H 0.42971 0.10042 0.28668
 C541 C 0.58209 0.10490 0.74664
 C542 C 0.56916 0.09016 0.72423
 C543 C 0.58306 0.06735 0.71075
 C544 C 0.61010 0.05916 0.71947
 C545 C 0.62346 0.07468 0.74121
 C546 C 0.60948 0.09749 0.75477
 C547 C 0.56591 0.12507 0.76323
 C548 C 0.55114 0.14041 0.77760
 H549 H 0.54787 0.09548 0.71798
 H550 H 0.57235 0.05533 0.69427
 H551 H 0.64413 0.06829 0.74849
 H552 H 0.61954 0.10851 0.77232
 C553 C 0.40679 0.90584 0.75787
 C554 C 0.40954 0.91179 0.72882
 C555 C 0.39459 0.93475 0.71666
 C556 C 0.37678 0.95189 0.73347
 C557 C 0.37360 0.94539 0.76241
 C558 C 0.38849 0.92244 0.77452
 C559 C 0.42487 0.88493 0.77128
 C560 C 0.44097 0.86887 0.78322
 H561 H 0.42393 0.89934 0.71582
 H562 H 0.39760 0.93977 0.69440
 H563 H 0.36017 0.95860 0.77572
 H564 H 0.38647 0.91827 0.79707
 C565 C 0.59410 0.89982 0.24128
 C566 C 0.61418 0.91451 0.22507
 C567 C 0.63012 0.93657 0.23733
 C568 C 0.62620 0.94407 0.26596
 C569 C 0.60662 0.92867 0.28233
 C570 C 0.59070 0.90661 0.27005
 C571 C 0.57513 0.87998 0.22772
 C572 C 0.55844 0.86455 0.21592
 H573 H 0.61677 0.90965 0.20271
 H574 H 0.64480 0.94850 0.22429
 H575 H 0.60286 0.93457 0.30427
 H576 H 0.57500 0.89564 0.28270
 C577 C 0.41506 0.25306 0.91051
 C578 C 0.38586 0.25094 0.91301
 C579 C 0.37198 0.26430 0.93574
 C580 C 0.38715 0.28012 0.95625
 C581 C 0.41654 0.28207 0.95328
 C582 C 0.43027 0.26885 0.93055
 C583 C 0.43004 0.23752 0.88879
 C584 C 0.44413 0.22431 0.87191
 H585 H 0.37394 0.23830 0.89788
 H586 H 0.34958 0.26103 0.93803
 H587 H 0.42897 0.29399 0.96856
 H588 H 0.45291 0.27045 0.92896
 C589 C 0.58922 0.75298 0.89907
 C590 C 0.61659 0.76228 0.90489
 C591 C 0.63174 0.74986 0.92728
 C592 C 0.61957 0.72809 0.94396
 C593 C 0.59247 0.71827 0.93750
 C594 C 0.57741 0.73061 0.91512
 C595 C 0.57195 0.76832 0.87899
 C596 C 0.55620 0.78163 0.86377
 H597 H 0.62580 0.77982 0.89286
 H598 H 0.65248 0.75793 0.93230
 H599 H 0.58270 0.70173 0.95040
 H600 H 0.55614 0.72348 0.91104
 C601 C 0.41961 0.74229 0.09661
 C602 C 0.39036 0.73952 0.09660
 C603 C 0.37683 0.72589 0.07382
 C604 C 0.39244 0.71494 0.05068
 C605 C 0.42193 0.71740 0.05147
 C606 C 0.43531 0.73077 0.07424
 C607 C 0.43388 0.75895 0.11795
 C608 C 0.44766 0.77344 0.13399
 H609 H 0.37796 0.74875 0.11364
 H610 H 0.35410 0.72549 0.07355
 H611 H 0.43475 0.70899 0.03433
 H612 H 0.45797 0.73287 0.07398
 C613 C 0.58606 0.25125 0.09651
 C614 C 0.57048 0.26385 0.07461
 C615 C 0.58404 0.27716 0.05189
 C616 C 0.61359 0.27852 0.05073
 C617 C 0.62910 0.26605 0.07317
 C618 C 0.61540 0.25254 0.09590
 C619 C 0.57148 0.23518 0.11810
 C620 C 0.55753 0.22127 0.13449
 H621 H 0.54775 0.26280 0.07475
 H622 H 0.57132 0.28654 0.03517
 H623 H 0.65182 0.26541 0.07246
 H624 H 0.62768 0.24238 0.11251
 C625 C 0.24141 0.09964 0.59246
 C626 C 0.27040 0.09862 0.59724
 C627 C 0.28204 0.07627 0.61357
 C628 C 0.26479 0.05454 0.62528
 C629 C 0.23556 0.05640 0.62077
 C630 C 0.22405 0.07878 0.60469
 C631 C 0.22932 0.11996 0.57276
 C632 C 0.21768 0.13505 0.55549
 H633 H 0.28410 0.11439 0.58743
 H634 H 0.30467 0.07499 0.61546
 H635 H 0.22154 0.04029 0.62954
 H636 H 0.20159 0.07924 0.60100
 C637 C 0.74880 0.09336 0.41623
 C638 C 0.73302 0.07380 0.43219
 C639 C 0.71899 0.05114 0.41884
 C640 C 0.72011 0.04776 0.38909
 C641 C 0.73573 0.06795 0.37315
 C642 C 0.74993 0.09060 0.38665
 C643 C 0.76545 0.11456 0.43089
 C644 C 0.77959 0.13080 0.44485
 H645 H 0.73215 0.07560 0.45512
 H646 H 0.70722 0.03613 0.43186
 H647 H 0.73827 0.06533 0.35043
 H648 H 0.76252 0.10534 0.37414
 C649 C 0.74865 0.90132 0.59267
 C650 C 0.75295 0.90558 0.62182
 C651 C 0.74052 0.92925 0.63555
 C652 C 0.72384 0.94880 0.62014
 C653 C 0.71904 0.94398 0.59115
 C654 C 0.73132 0.92033 0.57752
 C655 C 0.76405 0.87952 0.57733
 C656 C 0.77737 0.86306 0.56271
 H657 H 0.76658 0.89120 0.63368
 H658 H 0.74461 0.93290 0.65789
 H659 H 0.70639 0.95901 0.57896
 H660 H 0.72808 0.91743 0.55492
 C661 C 0.24141 0.90260 0.40354
 C662 C 0.27040 0.90288 0.39860
 C663 C 0.28240 0.92497 0.38228
 C664 C 0.26552 0.94723 0.37081
 C665 C 0.23625 0.94592 0.37521
 C666 C 0.22437 0.92380 0.39128
 C667 C 0.22911 0.88269 0.42344
 C668 C 0.21762 0.86774 0.44088
 H669 H 0.28385 0.88677 0.40836
 H670 H 0.30505 0.92571 0.38037
 H671 H 0.22249 0.96237 0.36650
 H672 H 0.20192 0.92387 0.39501
 C673 C 0.09728 0.40388 0.75843
 C674 C 0.08976 0.40963 0.73023
 C675 C 0.06771 0.39446 0.71755
 C676 C 0.05307 0.37335 0.73298
 C677 C 0.06119 0.36713 0.76098
 C678 C 0.08323 0.38229 0.77362
 C679 C 0.11716 0.42216 0.77275
 C680 C 0.13251 0.43844 0.78529
 H681 H 0.10023 0.42656 0.71841
 H682 H 0.06135 0.39991 0.69612
 H683 H 0.04983 0.35120 0.77329
 H684 H 0.08863 0.37791 0.79556
 C685 C 0.09766 0.59812 0.24590
 C686 C 0.08969 0.59253 0.27400
 C687 C 0.06705 0.60743 0.28604
 C688 C 0.05227 0.62811 0.27008
 C689 C 0.06082 0.63418 0.24219
 C690 C 0.08346 0.61928 0.23018
 C691 C 0.11792 0.57977 0.23208
 C692 C 0.13329 0.56324 0.21978
 H693 H 0.10024 0.57587 0.28619
 H694 H 0.06038 0.60214 0.30740
 H695 H 0.04939 0.64979 0.22949
 H696 H 0.08917 0.62348 0.20830
 C697 C 0.90387 0.41721 0.25016
 C698 C 0.92422 0.43279 0.26501
 C699 C 0.94624 0.41841 0.27848
 C700 C 0.94821 0.38799 0.27775
 C701 C 0.92719 0.37241 0.26325
 C702 C 0.90517 0.38696 0.24955
 C703 C 0.88352 0.43287 0.23359
 C704 C 0.86819 0.44773 0.21932
 H705 H 0.92356 0.45622 0.26544
 H706 H 0.96196 0.43115 0.28939
 H707 H 0.92865 0.34914 0.26103
 H708 H 0.88979 0.37471 0.23766
 C709 C 0.91023 0.58213 0.75073
 C710 C 0.90901 0.61199 0.74595
 C711 C 0.93134 0.62604 0.73234
 C712 C 0.95521 0.61034 0.72336
 C713 C 0.95579 0.58022 0.72808
 C714 C 0.93350 0.56632 0.74145
 C715 C 0.88888 0.56742 0.76678
 C716 C 0.87274 0.55330 0.78077
 H717 H 0.89124 0.62452 0.75343
 H718 H 0.93054 0.64935 0.73019
 H719 H 0.97355 0.56728 0.72128
 H720 H 0.93472 0.54321 0.74510
 C721 C 0.76383 0.59683 0.90101
 C722 C 0.78101 0.61141 0.92030
 C723 C 0.76915 0.62753 0.94231
 C724 C 0.73975 0.62969 0.94534
 C725 C 0.72263 0.61557 0.92520
 C726 C 0.73462 0.59927 0.90323
 C727 C 0.77647 0.57701 0.88117
 C728 C 0.78820 0.55956 0.86627
 H729 H 0.80365 0.60950 0.91894
 H730 H 0.78305 0.63813 0.95723
 H731 H 0.70001 0.61551 0.92748
 H732 H 0.72111 0.58759 0.88873
 C733 C 0.23884 0.40446 0.91010
 C734 C 0.26803 0.40362 0.91324
 C735 C 0.28013 0.38840 0.93584
 C736 C 0.26318 0.37358 0.95564
 C737 C 0.23379 0.37449 0.95197
 C738 C 0.22180 0.38962 0.92934
 C739 C 0.22607 0.42271 0.88895
 C740 C 0.21459 0.43891 0.87257
 H741 H 0.28140 0.41557 0.89882
 H742 H 0.30265 0.38961 0.93869
 H743 H 0.22001 0.36347 0.96670
 H744 H 0.19915 0.39037 0.92730
 C745 C 0.24911 0.58461 0.09579
 C746 C 0.25736 0.56836 0.07222
 C747 C 0.27082 0.58161 0.04944
 C748 C 0.27666 0.61150 0.04982
 C749 C 0.26870 0.62764 0.07398
 C750 C 0.25499 0.61425 0.09681
 C751 C 0.23312 0.57057 0.11772
 C752 C 0.21922 0.55688 0.13432
 H753 H 0.25286 0.54543 0.07116
 H754 H 0.27682 0.56835 0.03146
 H755 H 0.27177 0.65083 0.07464
 H756 H 0.24834 0.62711 0.11483
 C757 C 0.75685 0.41059 0.09843
 C758 C 0.77178 0.38870 0.08443
 C759 C 0.75917 0.37322 0.06239
 C760 C 0.73146 0.37938 0.05423
 C761 C 0.71623 0.40067 0.06894
 C762 C 0.72888 0.41620 0.09098
 C763 C 0.77127 0.42936 0.11794
 C764 C 0.78414 0.44592 0.13280
 H765 H 0.79352 0.38442 0.08976
 H766 H 0.77132 0.35715 0.05098
 H767 H 0.69501 0.40607 0.06255
 H768 H 0.71726 0.43335 0.10140
 C769 C 0.90566 0.74735 0.58599
 C770 C 0.90614 0.74310 0.61542
 C771 C 0.92929 0.72958 0.62820
 C772 C 0.95230 0.72013 0.61168
 C773 C 0.95117 0.72432 0.58202
 C774 C 0.92806 0.73762 0.56938
 C775 C 0.88332 0.76318 0.57245
 C776 C 0.86618 0.77682 0.55917
 H777 H 0.88905 0.75091 0.62853
 H778 H 0.92979 0.72790 0.65114
 H779 H 0.96819 0.71711 0.56846
 H780 H 0.92794 0.74084 0.54658
 C781 C 0.90357 0.23971 0.40554
 C782 C 0.90665 0.26975 0.40418
 C783 C 0.92883 0.28186 0.38877
 C784 C 0.94826 0.26404 0.37434
 C785 C 0.94466 0.23381 0.37578
 C786 C 0.92244 0.22182 0.39106
 C787 C 0.88301 0.22689 0.42403
 C788 C 0.86726 0.21520 0.44042
 H789 H 0.89252 0.28379 0.41586
 H790 H 0.93166 0.30508 0.38951
 H791 H 0.95913 0.21936 0.36505
 H792 H 0.92047 0.19851 0.39223
 C793 C 0.09452 0.24886 0.58144
 C794 C 0.07269 0.26219 0.56653
 C795 C 0.05053 0.27514 0.58112
 C796 C 0.04986 0.27538 0.61107
 C797 C 0.07230 0.26233 0.62592
 C798 C 0.09447 0.24918 0.61117
 C799 C 0.11546 0.23305 0.56577
 C800 C 0.13146 0.21941 0.55111
 H801 H 0.07242 0.26193 0.54351
 H802 H 0.03377 0.28501 0.56891
 H803 H 0.07196 0.26086 0.64887
 H804 H 0.11105 0.23848 0.62292
 C805 C 0.09241 0.75546 0.41716
 C806 C 0.07055 0.74323 0.43285
 C807 C 0.04789 0.73037 0.41904
 C808 C 0.04678 0.72908 0.38913
 C809 C 0.06903 0.74146 0.37353
 C810 C 0.09170 0.75447 0.38747
 C811 C 0.11430 0.77063 0.43198
 C812 C 0.13113 0.78381 0.44601
 H813 H 0.07076 0.74408 0.45585
 H814 H 0.03131 0.72109 0.43184
 H815 H 0.06833 0.74222 0.35055
 H816 H 0.10826 0.76439 0.37511
 C817 C 0.57955 0.90842 0.74813
 C818 C 0.60888 0.90912 0.74677
 C819 C 0.62242 0.93188 0.73276
 C820 C 0.60675 0.95426 0.71987
 C821 C 0.57720 0.95293 0.72122
 C822 C 0.56380 0.93018 0.73505
 C823 C 0.56516 0.88680 0.76452
 C824 C 0.55147 0.87021 0.77853
 H825 H 0.62128 0.89259 0.75723
 H826 H 0.64513 0.93273 0.73335
 H827 H 0.56435 0.96954 0.71145
 H828 H 0.54108 0.92992 0.73608
 C829 C 0.40882 0.89916 0.24169
 C830 C 0.40271 0.89990 0.27077
 C831 C 0.38714 0.92293 0.28215
 C832 C 0.37757 0.94563 0.26455
 C833 C 0.38338 0.94405 0.23521
 C834 C 0.39867 0.92102 0.22395
 C835 C 0.42767 0.87789 0.22994
 C836 C 0.44429 0.86204 0.21844
 H837 H 0.41086 0.88331 0.28479
 H838 H 0.38415 0.92385 0.30493
 H839 H 0.37619 0.96085 0.22089
 H840 H 0.40337 0.92076 0.20143
 C841 C 0.59587 0.09427 0.24116
 C842 C 0.59749 0.09152 0.27070
 C843 C 0.61296 0.06890 0.28282
 C844 C 0.62717 0.04868 0.26552
 C845 C 0.62570 0.05214 0.23578
 C846 C 0.61034 0.07479 0.22378
 C847 C 0.57723 0.11510 0.22846
 C848 C 0.56077 0.13120 0.21707
 H849 H 0.58590 0.10616 0.28435
 H850 H 0.61230 0.06624 0.30566
 H851 H 0.63631 0.03712 0.22173
 H852 H 0.60903 0.07656 0.20087
 C853 C 0.40403 0.10384 0.75894
 C854 C 0.40510 0.09933 0.72953
 C855 C 0.39013 0.07650 0.71727
 C856 C 0.37401 0.05800 0.73436
 C857 C 0.37228 0.06324 0.76367
 C858 C 0.38716 0.08607 0.77588
 C859 C 0.42260 0.12428 0.77226
 C860 C 0.43912 0.13981 0.78419
 H861 H 0.41836 0.11270 0.71627
 H862 H 0.39208 0.07248 0.69469
 H863 H 0.36019 0.04899 0.77720
 H864 H 0.38642 0.08913 0.79868
 C865 C 0.59155 0.75363 0.09430
 C866 C 0.60772 0.77147 0.07676
 C867 C 0.62233 0.75972 0.05376
 C868 C 0.62101 0.72996 0.04813
 C869 C 0.60535 0.71198 0.06616
 C870 C 0.59065 0.72379 0.08918
 C871 C 0.57370 0.76657 0.11549
 C872 C 0.55786 0.77849 0.13170
 H873 H 0.60830 0.79461 0.08031
 H874 H 0.63410 0.77390 0.03989
 H875 H 0.60384 0.68903 0.06186
 H876 H 0.57791 0.70984 0.10238
 C877 C 0.41622 0.25418 0.10366
 C878 C 0.38850 0.24628 0.09759
 C879 C 0.37399 0.25985 0.07544
 C880 C 0.38711 0.28142 0.05922
 C881 C 0.41457 0.28989 0.06601
 C882 C 0.42902 0.27638 0.08817
 C883 C 0.43273 0.23750 0.12336
 C884 C 0.44780 0.22307 0.13830
 H885 H 0.37853 0.22888 0.10919
 H886 H 0.35300 0.25270 0.07013
 H887 H 0.42512 0.30622 0.05347
 H888 H 0.45056 0.28243 0.09246
 C889 C 0.58911 0.25062 0.90209
 C890 C 0.58788 0.28061 0.90630
 C891 C 0.60233 0.29323 0.92903
 C892 C 0.61804 0.27591 0.94769
 C893 C 0.61992 0.24604 0.94282
 C894 C 0.60557 0.23347 0.92011
 C895 C 0.57107 0.23687 0.88163
 C896 C 0.55496 0.22445 0.86612
 H897 H 0.57492 0.29404 0.89273
 H898 H 0.60037 0.31626 0.93276
 H899 H 0.63171 0.23236 0.95722
 H900 H 0.60641 0.21023 0.91728
 C901 C 0.41493 0.74906 0.90300
 C902 C 0.38793 0.75768 0.91134
 C903 C 0.37439 0.74344 0.93369
 C904 C 0.38781 0.72052 0.94781
 C905 C 0.41450 0.71147 0.93883
 C906 C 0.42796 0.72563 0.91649
 C907 C 0.43058 0.76579 0.88271
 C908 C 0.44504 0.77994 0.86701
 H909 H 0.37779 0.77599 0.90126
 H910 H 0.35396 0.75092 0.94068
 H911 H 0.42524 0.69404 0.94975
 H912 H 0.44894 0.71897 0.91042
 C913 C 0.74357 0.89777 0.41981
 C914 C 0.72248 0.91407 0.43304
 C915 C 0.70934 0.93663 0.41842
 C916 C 0.71706 0.94301 0.39035
 C917 C 0.73753 0.92597 0.37682
 C918 C 0.75072 0.90342 0.39150
 C919 C 0.75980 0.87761 0.43636
 C920 C 0.77389 0.86220 0.45133
 H921 H 0.71701 0.91011 0.45503
 H922 H 0.69388 0.94982 0.42928
 H923 H 0.74410 0.93097 0.35535
 H924 H 0.76725 0.89118 0.38117
 C925 C 0.24457 0.90424 0.59310
 C926 C 0.27310 0.91101 0.59048
 C927 C 0.28456 0.93364 0.60643
 C928 C 0.26754 0.94964 0.62509
 C929 C 0.23920 0.94210 0.62831
 C930 C 0.22780 0.91947 0.61244
 C931 C 0.23162 0.88416 0.57380
 C932 C 0.21963 0.86890 0.55697
 H933 H 0.28619 0.89962 0.57532
 H934 H 0.30634 0.93951 0.60333
 H935 H 0.22571 0.95446 0.64233
 H936 H 0.20564 0.91465 0.61440
 C937 C 0.24437 0.09678 0.40454
 C938 C 0.27271 0.08967 0.40852
 C939 C 0.28492 0.06732 0.39269
 C940 C 0.26886 0.05198 0.37277
 C941 C 0.24076 0.05990 0.36818
 C942 C 0.22860 0.08223 0.38395
 C943 C 0.23057 0.11660 0.42355
 C944 C 0.21816 0.13183 0.44013
 H945 H 0.28501 0.10056 0.42462
 H946 H 0.30648 0.06113 0.39683
 H947 H 0.22799 0.04801 0.35317
 H948 H 0.20660 0.08735 0.38091
 C949 C 0.75562 0.09929 0.59231
 C950 C 0.72665 0.09504 0.58960
 C951 C 0.71349 0.07277 0.60460
 C952 C 0.72921 0.05461 0.62250
 C953 C 0.75809 0.05952 0.62578
 C954 C 0.77122 0.08180 0.61080
 C955 C 0.76990 0.11914 0.57377
 C956 C 0.78243 0.13421 0.55721
 H957 H 0.71445 0.10816 0.57505
 H958 H 0.69130 0.06893 0.60139
 H959 H 0.77059 0.04548 0.63920
 H960 H 0.79370 0.08465 0.61278
 C961 C 0.90602 0.59817 0.23929
 C962 C 0.92309 0.61646 0.22311
 C963 C 0.94472 0.63197 0.23610
 C964 C 0.94943 0.62941 0.26543
 C965 C 0.93174 0.61166 0.28169
 C966 C 0.91011 0.59615 0.26868
 C967 C 0.88635 0.57933 0.22535
 C968 C 0.87108 0.56259 0.21330
 H969 H 0.92032 0.61794 0.20032
 H970 H 0.95838 0.64526 0.22317
 H971 H 0.93541 0.60896 0.30424
 H972 H 0.89727 0.58179 0.28135
 C973 C 0.90625 0.40253 0.76155
 C974 C 0.92324 0.38436 0.77804
 C975 C 0.94517 0.36885 0.76542
 C976 C 0.95024 0.37130 0.73615
 C977 C 0.93259 0.38887 0.71956
 C978 C 0.91067 0.40438 0.73221
 C979 C 0.88653 0.42165 0.77517
 C980 C 0.87139 0.43876 0.78701
 H981 H 0.92023 0.38304 0.80081
 H982 H 0.95878 0.35570 0.77860
 H983 H 0.93654 0.39150 0.69706
 H984 H 0.89791 0.41867 0.71931
 C985 C 0.10136 0.58920 0.75427
 C986 C 0.09749 0.58670 0.72488
 C987 C 0.07526 0.60122 0.71164
 C988 C 0.05674 0.61829 0.72774
 C989 C 0.06136 0.62158 0.75699
 C990 C 0.08360 0.60715 0.77017
 C991 C 0.12099 0.57069 0.76877
 C992 C 0.13574 0.55418 0.78181
 H993 H 0.11087 0.57257 0.71245
 H994 H 0.07168 0.59808 0.68914
 H995 H 0.04704 0.63438 0.76974
 H996 H 0.08618 0.60896 0.79297
 C997 C 0.09450 0.41444 0.24963
 C998 C 0.08957 0.41761 0.27882
 C999 C 0.06728 0.40291 0.29167
 C1000 C 0.04983 0.38503 0.27536
 C1001 C 0.05536 0.38128 0.24634
 C1002 C 0.07764 0.39588 0.23355
 C1003 C 0.11476 0.43235 0.23545
 C1004 C 0.13037 0.44814 0.22266
 H1005 H 0.10230 0.43217 0.29138
 H1006 H 0.06301 0.40624 0.31403
 H1007 H 0.04186 0.36777 0.23347
 H1008 H 0.08107 0.39351 0.21092
   
