data_POSCAR
  _audit_creation_date              2014-09-24
  _audit_creation_method            'ToBaCCo'
  _symmetry_space_group_name_H-M    'P1'
  _symmetry_Int_Tables_number       1
  _symmetry_cell_setting            triclinic
  loop_
  _symmetry_equiv_pos_as_xyz
 x,y,z
_cell_length_a 47.7004
_cell_length_b 46.8048
_cell_length_c 24.0333
_cell_angle_alpha 89.707200
_cell_angle_beta 89.833900
_cell_angle_gamma 90.031800
loop_
  _atom_site_label
  _atom_site_type_symbol
  _atom_site_fract_x
  _atom_site_fract_y
  _atom_site_fract_z
C1 C 1.27125 0.21840 0.26487
 C2 C 1.24842 0.23448 0.24486
 C3 C 1.22497 0.22019 0.22319
 C4 C 1.22403 0.19040 0.22215
 C5 C 1.24661 0.17449 0.24255
 C6 C 1.27022 0.18839 0.26407
 C7 C 1.24807 0.26607 0.24848
 C8 C 1.27092 0.28264 0.22988
 C9 C 1.26928 0.31263 0.23056
 C10 C 1.24500 0.32600 0.25059
 C11 C 1.22238 0.30960 0.26960
 C12 C 1.22394 0.27983 0.26866
 H13 H 1.28930 0.22919 0.28230
 H14 H 1.20731 0.23230 0.20732
 H15 H 1.28950 0.27225 0.21358
 H16 H 1.20625 0.26734 0.28348
 H17 H 1.24564 0.15132 0.24213
 H18 H 1.24356 0.34915 0.25096
 C19 C 0.77404 -0.27995 0.28290
 C20 C 0.75043 -0.26621 0.26021
 C21 C 0.72753 -0.28282 0.24251
 C22 C 0.72866 -0.31278 0.24641
 C23 C 0.75243 -0.32612 0.26859
 C24 C 0.77513 -0.30974 0.28680
 C25 C 0.75087 -0.23472 0.25243
 C26 C 0.77513 -0.22158 0.23085
 C27 C 0.77692 -0.19187 0.22651
 C28 C 0.75434 -0.17491 0.24324
 C29 C 0.72991 -0.18763 0.26437
 C30 C 0.72806 -0.21754 0.26864
 H31 H 0.79181 -0.26741 0.29677
 H32 H 0.70939 -0.27260 0.22407
 H33 H 0.79284 -0.23449 0.21792
 H34 H 0.70938 -0.22731 0.28611
 H35 H 0.75346 -0.34927 0.27059
 H36 H 0.75594 -0.15181 0.24070
 C37 C 0.77444 0.22135 -0.22019
 C38 C 0.75077 0.23496 -0.24295
 C39 C 0.72781 0.21822 -0.25997
 C40 C 0.72895 0.18829 -0.25530
 C41 C 0.75281 0.17511 -0.23308
 C42 C 0.77553 0.19162 -0.21555
 C43 C 0.75118 0.26643 -0.25131
 C44 C 0.77543 0.27950 -0.27313
 C45 C 0.77726 0.30923 -0.27773
 C46 C 0.75466 0.32624 -0.26108
 C47 C 0.73023 0.31357 -0.23981
 C48 C 0.72839 0.28367 -0.23521
 H49 H 0.79227 0.23391 -0.20677
 H50 H 0.70961 0.22833 -0.27842
 H51 H 0.79309 0.26647 -0.28594
 H52 H 0.70973 0.27396 -0.21751
 H53 H 0.75391 0.15199 -0.23044
 H54 H 0.75621 0.34935 -0.26370
 C55 C 1.27031 -0.28265 -0.23460
 C56 C 1.24753 -0.26647 -0.25441
 C57 C 1.22411 -0.28060 -0.27653
 C58 C 1.22315 -0.31037 -0.27816
 C59 C 1.24567 -0.32642 -0.25796
 C60 C 1.26926 -0.31265 -0.23605
 C61 C 1.24716 -0.23493 -0.25021
 C62 C 1.27001 -0.21828 -0.26851
 C63 C 1.26828 -0.18834 -0.26763
 C64 C 1.24398 -0.17504 -0.24774
 C65 C 1.22135 -0.19150 -0.22900
 C66 C 1.22297 -0.22126 -0.23007
 H67 H 1.28834 -0.27197 -0.21684
 H68 H 1.20648 -0.26840 -0.29227
 H69 H 1.28864 -0.22854 -0.28487
 H70 H 1.20526 -0.23381 -0.21554
 H71 H 1.24467 -0.34958 -0.25880
 H72 H 1.24255 -0.15190 -0.24745
 C73 C 0.22028 0.27442 0.73560
 C74 C 0.23577 0.25109 0.75640
 C75 C 0.22147 0.22733 0.77888
 C76 C 0.19212 0.22709 0.78064
 C77 C 0.17702 0.25025 0.75972
 C78 C 0.19096 0.27378 0.73711
 C79 C 0.26678 0.25150 0.75450
 C80 C 0.28164 0.27573 0.77208
 C81 C 0.31101 0.27606 0.77077
 C82 C 0.32571 0.25212 0.75118
 C83 C 0.31098 0.22791 0.73324
 C84 C 0.28165 0.22761 0.73518
 H85 H 0.23096 0.29272 0.71760
 H86 H 0.23313 0.20935 0.79552
 H87 H 0.27031 0.29417 0.78753
 H88 H 0.27038 0.20890 0.72102
 H89 H 0.15425 0.24999 0.76091
 H90 H 0.34844 0.25227 0.74995
 C91 C 0.71680 0.77605 0.73093
 C92 C 0.73170 0.75144 0.74644
 C93 C 0.71696 0.72697 0.76371
 C94 C 0.68761 0.72711 0.76589
 C95 C 0.67280 0.75175 0.74987
 C96 C 0.68745 0.77621 0.73213
 C97 C 0.76266 0.75128 0.74441
 C98 C 0.77805 0.77348 0.76933
 C99 C 0.80737 0.77307 0.76764
 C100 C 0.82134 0.75099 0.74059
 C101 C 0.80632 0.72902 0.71552
 C102 C 0.77701 0.72892 0.71761
 H103 H 0.72811 0.79489 0.71690
 H104 H 0.72840 0.70799 0.77626
 H105 H 0.76728 0.79068 0.79057
 H106 H 0.76544 0.71175 0.69809
 H107 H 0.65005 0.75186 0.75110
 H108 H 0.84410 0.75080 0.73931
 C109 C 0.71823 0.27579 0.23127
 C110 C 0.73300 0.25110 0.24685
 C111 C 0.71812 0.22665 0.26365
 C112 C 0.68880 0.22687 0.26526
 C113 C 0.67413 0.25154 0.24921
 C114 C 0.68889 0.27599 0.23199
 C115 C 0.76393 0.25082 0.24543
 C116 C 0.77927 0.27289 0.27084
 C117 C 0.80859 0.27230 0.26980
 C118 C 0.82260 0.25017 0.24300
 C119 C 0.80761 0.22836 0.21742
 C120 C 0.77830 0.22842 0.21881
 H121 H 0.72956 0.29465 0.21756
 H122 H 0.72939 0.20759 0.27633
 H123 H 0.76848 0.29012 0.29193
 H124 H 0.76676 0.21136 0.19887
 H125 H 0.65140 0.25169 0.25003
 H126 H 0.84535 0.24988 0.24223
 C127 C 0.21977 0.77399 0.23177
 C128 C 0.23526 0.75077 0.25298
 C129 C 0.22097 0.72712 0.27597
 C130 C 0.19164 0.72689 0.27785
 C131 C 0.17650 0.74993 0.25650
 C132 C 0.19041 0.77337 0.23333
 C133 C 0.26626 0.75117 0.25119
 C134 C 0.28110 0.77539 0.26887
 C135 C 0.31044 0.77565 0.26801
 C136 C 0.32518 0.75169 0.24874
 C137 C 0.31050 0.72748 0.23063
 C138 C 0.28116 0.72724 0.23215
 H139 H 0.23051 0.79220 0.21348
 H140 H 0.23266 0.70924 0.29295
 H141 H 0.26981 0.79387 0.28418
 H142 H 0.26991 0.70852 0.21795
 H143 H 0.15372 0.74960 0.25788
 H144 H 0.34791 0.75187 0.24796
 O145 O 0.94985 -0.04142 -0.09909
 O146 O 0.97495 -0.07311 -0.04550
 C147 C 0.95621 -0.06700 -0.08253
 O148 O 1.05284 0.03746 -0.09397
 O149 O 1.02554 0.06968 -0.04659
 C150 C 1.04611 0.06316 -0.07946
 O151 O 1.04876 -0.04163 -0.09987
 O152 O 1.02319 -0.07337 -0.04690
 C153 C 1.04208 -0.06723 -0.08402
 O154 O 0.94730 0.03823 -0.09440
 O155 O 0.97459 0.07013 -0.04642
 C156 C 0.95417 0.06388 -0.07969
 Zr157 Zr 0.96446 -0.00147 -0.07009
 O158 O 0.96550 0.00104 -0.15806
 O159 O 0.92014 -0.00263 -0.06785
 Zr160 Zr 1.03451 -0.00185 -0.07049
 O161 O 1.03029 -0.00035 -0.15792
 O162 O 1.07870 -0.00415 -0.07600
 O163 O 0.99937 -0.02759 -0.08055
 O164 O 0.99969 0.02375 -0.08087
 O165 O 0.94657 0.03861 0.09204
 O166 O 0.97467 0.07021 0.04413
 C167 C 0.95384 0.06415 0.07675
 O168 O 1.04879 -0.04147 0.10096
 O169 O 1.02338 -0.07320 0.04867
 C170 C 1.04214 -0.06706 0.08559
 O171 O 1.05224 0.03790 0.09343
 O172 O 1.02554 0.07003 0.04417
 C173 C 1.04581 0.06357 0.07780
 O174 O 0.94928 -0.04086 0.10053
 O175 O 0.97523 -0.07294 0.04983
 C176 C 0.95604 -0.06658 0.08598
 Zr177 Zr 0.96452 -0.00113 0.07088
 O178 O 0.96747 0.00246 0.15848
 O179 O 0.92032 -0.00301 0.07614
 Zr180 Zr 1.03464 -0.00159 0.07041
 O181 O 1.03370 0.00171 0.15825
 O182 O 1.07895 -0.00332 0.06814
 Zr183 Zr 0.99931 -0.04439 0.00101
 Zr184 Zr 0.99985 0.04142 -0.00063
 O185 O 0.99973 0.02405 0.08024
 O186 O 0.99940 -0.02723 0.08202
 O187 O 0.95918 0.02389 -0.00013
 O188 O 1.03970 -0.02643 0.00035
 O189 O 0.95910 -0.02593 0.00086
 O190 O 1.04027 0.02341 -0.00047
 H191 H 0.99981 0.03703 -0.11312
 H192 H 1.05650 -0.03887 0.00033
 H193 H 0.99978 0.03751 0.11193
 H194 H 0.94213 -0.03814 0.00115
 H195 H 1.08601 0.00204 -0.03951
 H196 H 1.08536 -0.00311 0.10735
 H197 H 1.02338 -0.01509 0.17281
 H198 H 0.97425 -0.01608 0.17313
 H199 H 0.91313 0.00325 0.03947
 H200 H 0.91377 -0.00264 -0.10708
 H201 H 0.97742 -0.01484 -0.17136
 H202 H 1.04964 -0.00016 -0.17298
 O203 O 0.95078 0.45787 0.39951
 O204 O 0.97598 0.42670 0.45414
 C205 C 0.95739 0.43243 0.41660
 O206 O 1.05269 0.53807 0.40649
 O207 O 1.02466 0.57015 0.45252
 C208 C 1.04557 0.56374 0.42039
 O209 O 1.04954 0.45899 0.40147
 O210 O 1.02391 0.42717 0.45411
 C211 C 1.04301 0.43337 0.41741
 O212 O 0.94703 0.53764 0.40314
 O213 O 0.97368 0.57001 0.45136
 C214 C 0.95349 0.56341 0.41779
 Zr215 Zr 0.96454 0.49822 0.42820
 O216 O 0.96629 0.50045 0.34026
 O217 O 0.92023 0.49644 0.42881
 Zr218 Zr 1.03462 0.49866 0.42997
 O219 O 1.03105 0.49982 0.34241
 O220 O 1.07888 0.49685 0.42596
 O221 O 0.99983 0.47252 0.41917
 O222 O 0.99958 0.52381 0.41816
 O223 O 0.94502 0.53876 0.58935
 O224 O 0.97316 0.57045 0.54179
 C225 C 0.95216 0.56433 0.57395
 O226 O 1.04781 0.45958 0.60219
 O227 O 1.02295 0.42744 0.54973
 C228 C 1.04143 0.43387 0.58703
 O229 O 1.05065 0.53911 0.59380
 O230 O 1.02403 0.57079 0.54325
 C231 C 1.04412 0.56464 0.57753
 O232 O 0.94843 0.45938 0.59893
 O233 O 0.97512 0.42743 0.54948
 C234 C 0.95556 0.43368 0.58494
 Zr235 Zr 0.96351 0.49913 0.56917
 O236 O 0.96573 0.50306 0.65682
 O237 O 0.91929 0.49683 0.57302
 Zr238 Zr 1.03366 0.49935 0.57089
 O239 O 1.03201 0.50294 0.65864
 O240 O 1.07799 0.49805 0.57014
 Zr241 Zr 0.99931 0.45606 0.50096
 Zr242 Zr 0.99896 0.54176 0.49815
 O243 O 0.99841 0.52467 0.57925
 O244 O 0.99857 0.47344 0.58176
 O245 O 0.95846 0.52380 0.49765
 O246 O 1.03954 0.47436 0.50131
 O247 O 0.95890 0.47399 0.49934
 O248 O 1.03955 0.52419 0.49984
 H249 H 0.99978 0.53699 0.38575
 H250 H 1.05642 0.46206 0.50200
 H251 H 0.99808 0.53826 0.61074
 H252 H 0.94209 0.46156 0.49924
 H253 H 1.08581 0.50328 0.46259
 H254 H 1.08404 0.49834 0.60957
 H255 H 1.02182 0.48604 0.67313
 H256 H 0.97260 0.48466 0.67196
 H257 H 0.91235 0.50276 0.53595
 H258 H 0.91425 0.49616 0.38933
 H259 H 0.97839 0.48458 0.32756
 H260 H 1.05051 0.50016 0.32789
 O261 O 0.53926 0.05146 0.60122
 O262 O 0.57042 0.02554 0.54867
 C263 C 0.56445 0.04462 0.58581
 O264 O 0.46067 -0.05247 0.59475
 O265 O 0.42959 -0.02427 0.54654
 C266 C 0.43553 -0.04517 0.58007
 O267 O 0.53846 -0.04966 0.60144
 O268 O 0.57007 -0.02362 0.54950
 C269 C 0.56372 -0.04311 0.58609
 O270 O 0.46124 0.05480 0.59480
 O271 O 0.42974 0.02766 0.54581
 C272 C 0.43604 0.04824 0.57958
 Zr273 Zr 0.50005 0.03702 0.57093
 O274 O 0.49721 0.03597 0.65884
 O275 O 0.50163 0.08218 0.56850
 Zr276 Zr 0.49969 -0.03442 0.57141
 O277 O 0.49808 -0.03020 0.65882
 O278 O 0.50131 -0.07950 0.57664
 O279 O 0.52526 0.00115 0.58196
 O280 O 0.47491 0.00135 0.58118
 O281 O 0.46135 0.05544 0.40696
 O282 O 0.42991 0.02723 0.45465
 C283 C 0.43610 0.04817 0.42132
 O284 O 0.53946 -0.04935 0.40112
 O285 O 0.57052 -0.02352 0.45370
 C286 C 0.56461 -0.04266 0.41674
 O287 O 0.46133 -0.05209 0.40670
 O288 O 0.42977 -0.02469 0.45532
 C289 C 0.43610 -0.04534 0.42167
 O290 O 0.53924 0.05235 0.40102
 O291 O 0.57049 0.02579 0.45231
 C292 C 0.56441 0.04546 0.41606
 Zr293 Zr 0.50017 0.03709 0.43009
 O294 O 0.49716 0.03434 0.34235
 O295 O 0.50232 0.08215 0.42554
 Zr296 Zr 0.50015 -0.03446 0.43061
 O297 O 0.49742 -0.03324 0.34268
 O298 O 0.50138 -0.07962 0.43303
 Zr299 Zr 0.54218 0.00121 0.50080
 Zr300 Zr 0.45782 0.00141 0.50064
 O301 O 0.47530 0.00136 0.42022
 O302 O 0.52560 0.00132 0.41951
 O303 O 0.47535 0.04272 0.50050
 O304 O 0.52416 -0.03981 0.50115
 O305 O 0.52439 0.04233 0.50055
 O306 O 0.47513 -0.03996 0.50091
 H307 H 0.46179 0.00140 0.61323
 H308 H 0.53617 -0.05707 0.50137
 H309 H 0.46227 0.00139 0.38818
 H310 H 0.53657 0.05948 0.50071
 H311 H 0.49505 -0.08676 0.54014
 H312 H 0.50143 -0.08611 0.39382
 H313 H 0.51430 -0.02323 0.32857
 H314 H 0.51517 0.02673 0.32829
 H315 H 0.49549 0.08938 0.46174
 H316 H 0.50151 0.08867 0.60772
 H317 H 0.51244 0.02344 0.67250
 H318 H 0.49762 -0.04993 0.67391
 O319 O 0.53916 0.55110 0.09973
 O320 O 0.57040 0.52564 0.04647
 C321 C 0.56437 0.54445 0.08406
 O322 O 0.46098 0.44694 0.09212
 O323 O 0.42971 0.47529 0.04474
 C324 C 0.43577 0.45425 0.07785
 O325 O 0.53879 0.45018 0.09837
 O326 O 0.57020 0.47667 0.04678
 C327 C 0.56400 0.45704 0.08317
 O328 O 0.46104 0.55431 0.09367
 O329 O 0.42964 0.52729 0.04423
 C330 C 0.43587 0.54775 0.07831
 Zr331 Zr 0.49988 0.53675 0.06940
 O332 O 0.49715 0.53537 0.15730
 O333 O 0.50130 0.58192 0.06763
 Zr334 Zr 0.49991 0.46520 0.06864
 O335 O 0.49843 0.46891 0.15616
 O336 O 0.50174 0.42009 0.07279
 O337 O 0.52524 0.50093 0.07975
 O338 O 0.47498 0.50087 0.07928
 O339 O 0.46082 0.55529 -0.09444
 O340 O 0.42965 0.52595 -0.04868
 C341 C 0.43563 0.54735 -0.08101
 O342 O 0.53965 0.45132 -0.10197
 O343 O 0.57057 0.47720 -0.04917
 C344 C 0.56477 0.45817 -0.08641
 O345 O 0.46149 0.44793 -0.09567
 O346 O 0.42985 0.47489 -0.04632
 C347 C 0.43624 0.45441 -0.08032
 O348 O 0.53873 0.55315 -0.10036
 O349 O 0.57018 0.52655 -0.04964
 C350 C 0.56396 0.54638 -0.08550
 Zr351 Zr 0.49983 0.53735 -0.07145
 O352 O 0.49680 0.53493 -0.15923
 O353 O 0.50156 0.58245 -0.07538
 Zr354 Zr 0.50027 0.46577 -0.07195
 O355 O 0.49733 0.46716 -0.15984
 O356 O 0.50189 0.42061 -0.07020
 Zr357 Zr 0.54210 0.50148 -0.00145
 Zr358 Zr 0.45777 0.50119 -0.00113
 O359 O 0.47523 0.50146 -0.08165
 O360 O 0.52546 0.50178 -0.08269
 O361 O 0.47502 0.54260 -0.00086
 O362 O 0.52441 0.46030 -0.00169
 O363 O 0.52409 0.54248 -0.00099
 O364 O 0.47529 0.45989 -0.00172
 H365 H 0.46191 0.50074 0.11141
 H366 H 0.53655 0.44313 -0.00182
 H367 H 0.46228 0.50139 -0.11383
 H368 H 0.53618 0.55969 -0.00055
 H369 H 0.49513 0.41301 0.03640
 H370 H 0.50200 0.41428 -0.10951
 H371 H 0.51402 0.47748 -0.17396
 H372 H 0.51488 0.52758 -0.17351
 H373 H 0.49468 0.58948 -0.03907
 H374 H 0.50144 0.58825 0.10695
 H375 H 0.51232 0.52268 0.17067
 H376 H 0.49806 0.44909 0.17084
 C377 C 1.10647 0.11773 0.13088
 C378 C 1.10618 0.14795 0.13028
 C379 C 1.13023 0.16337 0.14803
 C380 C 1.15441 0.14843 0.16605
 C381 C 1.15479 0.11820 0.16603
 C382 C 1.13077 0.10280 0.14847
 C383 C 1.13172 0.07252 0.14879
 C384 C 1.15569 0.05796 0.16585
 C385 C 1.17918 0.07305 0.18300
 C386 C 1.17885 0.10281 0.18323
 C387 C 1.12946 0.19358 0.14717
 C388 C 1.10565 0.20814 0.12910
 C389 C 1.08219 0.19304 0.11159
 C390 C 1.08233 0.16326 0.11212
 C391 C 1.17889 0.16394 0.18511
 C392 C 1.19946 0.17616 0.20164
 C393 C 1.08234 0.10155 0.11225
 C394 C 1.06415 0.08566 0.09666
 H395 H 1.11402 0.05973 0.13588
 H396 H 1.15602 0.03483 0.16574
 H397 H 1.19776 0.06165 0.19621
 H398 H 1.19768 0.11355 0.19690
 H399 H 1.14723 0.20623 0.16031
 H400 H 1.10542 0.23127 0.12866
 H401 H 1.06377 0.20446 0.09755
 H402 H 1.06360 0.15240 0.09819
 C403 C 1.10485 0.61857 0.63028
 C404 C 1.10517 0.64876 0.62866
 C405 C 1.12944 0.66382 0.64633
 C406 C 1.15322 0.64852 0.66524
 C407 C 1.15302 0.61829 0.66615
 C408 C 1.12877 0.60326 0.64869
 C409 C 1.12912 0.57297 0.64991
 C410 C 1.15274 0.55805 0.66774
 C411 C 1.17645 0.57279 0.68481
 C412 C 1.17671 0.60255 0.68417
 C413 C 1.12930 0.69404 0.64448
 C414 C 1.10588 0.70894 0.62548
 C415 C 1.08219 0.69419 0.60801
 C416 C 1.08172 0.66442 0.60954
 C417 C 1.17788 0.66365 0.68437
 C418 C 1.19856 0.67560 0.70106
 C419 C 1.08052 0.60272 0.61172
 C420 C 1.06228 0.58689 0.59621
 H421 H 1.11124 0.56043 0.63709
 H422 H 1.15262 0.53492 0.66829
 H423 H 1.19476 0.56112 0.69861
 H424 H 1.19570 0.61302 0.69779
 H425 H 1.14726 0.70642 0.65755
 H426 H 1.10612 0.73206 0.62427
 H427 H 1.06408 0.70587 0.59324
 H428 H 1.06284 0.65383 0.59560
 C429 C 0.62665 0.09601 0.64626
 C430 C 0.62520 0.12535 0.63147
 C431 C 0.64570 0.14480 0.65161
 C432 C 0.66755 0.13487 0.68641
 C433 C 0.66919 0.10548 0.70063
 C434 C 0.64869 0.08602 0.68049
 C435 C 0.65082 0.05679 0.69520
 C436 C 0.67259 0.04700 0.72878
 C437 C 0.69262 0.06598 0.74846
 C438 C 0.69104 0.09490 0.73473
 C439 C 0.64379 0.17396 0.63625
 C440 C 0.62225 0.18368 0.60201
 C441 C 0.60220 0.16472 0.58241
 C442 C 0.60358 0.13586 0.59671
 C443 C 0.68856 0.15472 0.70708
 C444 C 0.70651 0.17059 0.72424
 C445 C 0.60534 0.07633 0.62630
 C446 C 0.58707 0.06099 0.60873
 H447 H 0.63574 0.04121 0.68085
 H448 H 0.67393 0.02456 0.73960
 H449 H 0.70951 0.05826 0.77451
 H450 H 0.70714 0.10882 0.75102
 H451 H 0.65889 0.18955 0.65046
 H452 H 0.62108 0.20607 0.59071
 H453 H 0.58544 0.17243 0.55611
 H454 H 0.58750 0.12196 0.58029
 C455 C 0.62661 0.59555 0.14522
 C456 C 0.62575 0.62476 0.12941
 C457 C 0.64627 0.64409 0.14988
 C458 C 0.66750 0.63416 0.18617
 C459 C 0.66857 0.60487 0.20138
 C460 C 0.64808 0.58553 0.18083
 C461 C 0.64964 0.55639 0.19651
 C462 C 0.67087 0.54659 0.23144
 C463 C 0.69088 0.56546 0.25155
 C464 C 0.68985 0.59429 0.23686
 C465 C 0.64502 0.67312 0.13333
 C466 C 0.62404 0.68285 0.09776
 C467 C 0.60392 0.66402 0.07799
 C468 C 0.60470 0.63529 0.09331
 C469 C 0.68842 0.65391 0.20744
 C470 C 0.70630 0.66968 0.22518
 C471 C 0.60524 0.57602 0.12501
 C472 C 0.58695 0.56077 0.10725
 H473 H 0.63456 0.54089 0.18185
 H474 H 0.67179 0.52421 0.24293
 H475 H 0.70734 0.55773 0.27864
 H476 H 0.70592 0.60812 0.25349
 H477 H 0.66022 0.68859 0.14764
 H478 H 0.62337 0.70513 0.08555
 H479 H 0.58756 0.67176 0.05074
 H480 H 0.58862 0.62148 0.07658
 C481 C 0.89999 -0.12533 0.14375
 C482 C 0.88558 -0.14266 0.10509
 C483 C 0.86072 -0.15723 0.12154
 C484 C 0.85062 -0.15461 0.17676
 C485 C 0.86589 -0.13850 0.21617
 C486 C 0.89065 -0.12383 0.19958
 C487 C 0.90537 -0.10755 0.23947
 C488 C 0.89593 -0.10586 0.29426
 C489 C 0.87171 -0.12020 0.31052
 C490 C 0.85677 -0.13635 0.27210
 C491 C 0.84634 -0.17394 0.08183
 C492 C 0.85648 -0.17652 0.02762
 C493 C 0.88101 -0.16261 0.01181
 C494 C 0.89535 -0.14562 0.04975
 C495 C 0.82435 -0.16799 0.19301
 C496 C 0.80259 -0.17884 0.20763
 C497 C 0.92223 -0.10648 0.12470
 C498 C 0.93895 -0.08915 0.10791
 H499 H 0.92441 -0.09615 0.22883
 H500 H 0.90749 -0.09337 0.32427
 H501 H 0.86445 -0.11882 0.35314
 H502 H 0.83807 -0.14714 0.28678
 H503 H 0.82726 -0.18529 0.09234
 H504 H 0.84532 -0.18949 -0.00220
 H505 H 0.88902 -0.16506 -0.03004
 H506 H 0.91431 -0.13515 0.03550
 C507 C 0.89937 0.37497 0.64229
 C508 C 0.88913 0.37746 0.69736
 C509 C 0.86426 0.36285 0.71350
 C510 C 0.84977 0.34582 0.67442
 C511 C 0.86075 0.34224 0.62008
 C512 C 0.88573 0.35675 0.60408
 C513 C 0.89639 0.35282 0.54965
 C514 C 0.88282 0.33494 0.51215
 C515 C 0.85818 0.32108 0.52749
 C516 C 0.84717 0.32462 0.58080
 C517 C 0.85425 0.36599 0.76865
 C518 C 0.86843 0.38303 0.80673
 C519 C 0.89275 0.39732 0.79091
 C520 C 0.90306 0.39467 0.73689
 C521 C 0.82342 0.33240 0.69016
 C522 C 0.80161 0.32155 0.70455
 C523 C 0.92171 0.39372 0.62328
 C524 C 0.93849 0.41104 0.60663
 H525 H 0.91546 0.36323 0.53579
 H526 H 0.89149 0.33178 0.47100
 H527 H 0.84762 0.30742 0.49799
 H528 H 0.82804 0.31328 0.59098
 H529 H 0.83543 0.35530 0.78296
 H530 H 0.86050 0.38515 0.84876
 H531 H 0.90371 0.41051 0.82064
 H532 H 0.92214 0.40607 0.72658
 C533 C 0.37217 -0.09702 0.63542
 C534 C 0.35679 -0.09078 0.68431
 C535 C 0.33588 -0.11011 0.70366
 C536 C 0.33041 -0.13557 0.67393
 C537 C 0.34547 -0.14157 0.62448
 C538 C 0.36647 -0.12229 0.60526
 C539 C 0.38136 -0.12887 0.55591
 C540 C 0.37559 -0.15370 0.52629
 C541 C 0.35496 -0.17244 0.54492
 C542 C 0.34002 -0.16658 0.59345
 C543 C 0.32082 -0.10338 0.75273
 C544 C 0.32624 -0.07829 0.78176
 C545 C 0.34667 -0.05941 0.76281
 C546 C 0.36185 -0.06547 0.71468
 C547 C 0.30906 -0.15527 0.69403
 C548 C 0.29086 -0.17090 0.71133
 C549 C 0.39419 -0.07776 0.61666
 C550 C 0.41283 -0.06235 0.60061
 H551 H 0.39744 -0.11483 0.53946
 H552 H 0.38703 -0.15828 0.48840
 H553 H 0.35044 -0.19161 0.52155
 H554 H 0.32416 -0.18180 0.60631
 H555 H 0.30470 -0.11737 0.76915
 H556 H 0.31451 -0.07348 0.81918
 H557 H 0.35080 -0.03994 0.78551
 H558 H 0.37751 -0.05010 0.70153
 C559 C 0.37252 0.40231 0.13389
 C560 C 0.35699 0.40888 0.18244
 C561 C 0.33600 0.38969 0.20202
 C562 C 0.33059 0.36402 0.17289
 C563 C 0.34586 0.35765 0.12388
 C564 C 0.36695 0.37679 0.10443
 C565 C 0.38205 0.36983 0.05556
 C566 C 0.37638 0.34480 0.02651
 C567 C 0.35566 0.32620 0.04534
 C568 C 0.34054 0.33242 0.09348
 C569 C 0.32078 0.39676 0.25070
 C570 C 0.32611 0.42205 0.27914
 C571 C 0.34662 0.44079 0.25998
 C572 C 0.36197 0.43438 0.21223
 C573 C 0.30907 0.34450 0.19314
 C574 C 0.29072 0.32904 0.21055
 C575 C 0.39453 0.42154 0.11474
 C576 C 0.41313 0.43697 0.09849
 H577 H 0.39822 0.38373 0.03902
 H578 H 0.38796 0.33994 -0.01106
 H579 H 0.35122 0.30687 0.02242
 H580 H 0.32463 0.31729 0.10652
 H581 H 0.30460 0.38289 0.26728
 H582 H 0.31424 0.42714 0.31625
 H583 H 0.35068 0.46041 0.28221
 H584 H 0.37769 0.44964 0.19894
 C585 C 0.89707 0.12223 -0.13432
 C586 C 0.88517 0.14258 -0.09786
 C587 C 0.86048 0.15756 -0.11363
 C588 C 0.84806 0.15231 -0.16607
 C589 C 0.86076 0.13295 -0.20357
 C590 C 0.88532 0.11787 -0.18763
 C591 C 0.89748 0.09840 -0.22558
 C592 C 0.88572 0.09398 -0.27783
 C593 C 0.86170 0.10872 -0.29345
 C594 C 0.84926 0.12799 -0.25692
 C595 C 0.84866 0.17741 -0.07608
 C596 C 0.86118 0.18270 -0.02481
 C597 C 0.88556 0.16840 -0.00981
 C598 C 0.89735 0.14830 -0.04548
 C599 C 0.82218 0.16656 -0.18165
 C600 C 0.80077 0.17802 -0.19620
 C601 C 0.91946 0.10365 -0.11523
 C602 C 0.93647 0.08645 -0.09933
 H603 H 0.91627 0.08654 -0.21547
 H604 H 0.89533 0.07905 -0.30636
 H605 H 0.85265 0.10522 -0.33410
 H606 H 0.83060 0.13895 -0.27103
 H607 H 0.82979 0.18916 -0.08610
 H608 H 0.85196 0.19806 0.00337
 H609 H 0.89534 0.17283 0.02979
 H610 H 0.91623 0.13756 -0.03188
 C611 C 0.89531 0.62076 0.36396
 C612 C 0.88177 0.61469 0.31303
 C613 C 0.85707 0.62977 0.29799
 C614 C 0.84607 0.65088 0.33396
 C615 C 0.86010 0.65758 0.38409
 C616 C 0.88490 0.64257 0.39899
 C617 C 0.89865 0.64967 0.44913
 C618 C 0.88821 0.67106 0.48359
 C619 C 0.86378 0.68550 0.46940
 C620 C 0.84978 0.67892 0.42025
 C621 C 0.84374 0.62306 0.24712
 C622 C 0.85451 0.60208 0.21215
 C623 C 0.87869 0.58735 0.22686
 C624 C 0.89224 0.59349 0.27665
 C625 C 0.82031 0.66551 0.31903
 C626 C 0.79897 0.67722 0.30480
 C627 C 0.91811 0.60258 0.38249
 C628 C 0.93545 0.58567 0.39812
 H629 H 0.91763 0.63888 0.46205
 H630 H 0.89900 0.67627 0.52178
 H631 H 0.85561 0.70187 0.49663
 H632 H 0.83089 0.69077 0.41084
 H633 H 0.82488 0.63391 0.23379
 H634 H 0.84404 0.59723 0.17343
 H635 H 0.88700 0.57109 0.19954
 H636 H 0.91107 0.58154 0.28611
 C637 C 0.37300 0.09978 0.36451
 C638 C 0.35745 0.09275 0.31641
 C639 C 0.33655 0.11180 0.29629
 C640 C 0.33124 0.13778 0.32445
 C641 C 0.34647 0.14459 0.37313
 C642 C 0.36747 0.12559 0.39310
 C643 C 0.38253 0.13295 0.44163
 C644 C 0.37690 0.15827 0.46982
 C645 C 0.35627 0.17674 0.45047
 C646 C 0.34119 0.17011 0.40266
 C647 C 0.32130 0.10426 0.24807
 C648 C 0.32652 0.07865 0.22060
 C649 C 0.34695 0.06005 0.24029
 C650 C 0.36231 0.06691 0.28760
 C651 C 0.30986 0.15718 0.30351
 C652 C 0.29161 0.17240 0.28527
 C653 C 0.39497 0.08073 0.38406
 C654 C 0.41353 0.06540 0.40054
 H655 H 0.39861 0.11916 0.45859
 H656 H 0.38844 0.16344 0.50716
 H657 H 0.35187 0.19629 0.47273
 H658 H 0.32533 0.18514 0.38921
 H659 H 0.30516 0.11799 0.23114
 H660 H 0.31464 0.07322 0.18384
 H661 H 0.35092 0.04018 0.21883
 H662 H 0.37795 0.05172 0.30136
 C663 C 0.37210 0.59852 -0.13702
 C664 C 0.35650 0.59160 -0.18511
 C665 C 0.33553 0.61065 -0.20488
 C666 C 0.33022 0.63653 -0.17637
 C667 C 0.34547 0.64321 -0.12766
 C668 C 0.36653 0.62420 -0.10803
 C669 C 0.38163 0.63144 -0.05946
 C670 C 0.37598 0.65665 -0.03093
 C671 C 0.35528 0.67514 -0.04995
 C672 C 0.34015 0.66862 -0.09778
 C673 C 0.32024 0.60323 -0.25311
 C674 C 0.32549 0.57773 -0.28093
 C675 C 0.34600 0.55912 -0.26159
 C676 C 0.36140 0.56587 -0.21427
 C677 C 0.30884 0.65597 -0.19705
 C678 C 0.29060 0.67126 -0.21508
 C679 C 0.39419 0.57953 -0.11793
 C680 C 0.41288 0.56431 -0.10171
 H681 H 0.39776 0.61763 -0.04274
 H682 H 0.38755 0.66173 0.00641
 H683 H 0.35085 0.69460 -0.02742
 H684 H 0.32425 0.68366 -0.11097
 H685 H 0.30404 0.61697 -0.26978
 H686 H 0.31357 0.57238 -0.31770
 H687 H 0.35000 0.53934 -0.28334
 H688 H 0.37710 0.55069 -0.20077
 C689 C 1.10143 -0.12113 -0.14258
 C690 C 1.12640 -0.10592 -0.15514
 C691 C 1.15074 -0.12093 -0.17241
 C692 C 1.14998 -0.15104 -0.17719
 C693 C 1.12503 -0.16625 -0.16479
 C694 C 1.10065 -0.15122 -0.14738
 C695 C 1.07599 -0.16679 -0.13494
 C696 C 1.07540 -0.19646 -0.13960
 C697 C 1.09921 -0.21118 -0.15666
 C698 C 1.12381 -0.19635 -0.16917
 C699 C 1.17550 -0.10530 -0.18437
 C700 C 1.17619 -0.07567 -0.17940
 C701 C 1.15238 -0.06095 -0.16258
 C702 C 1.12774 -0.07576 -0.15058
 C703 C 1.17497 -0.16612 -0.19502
 C704 C 1.19608 -0.17788 -0.21023
 C705 C 1.07721 -0.10539 -0.12285
 C706 C 1.05935 -0.08955 -0.10558
 H707 H 1.05698 -0.15621 -0.12157
 H708 H 1.05636 -0.20808 -0.12990
 H709 H 1.09863 -0.23422 -0.16018
 H710 H 1.14182 -0.20871 -0.18219
 H711 H 1.19460 -0.11575 -0.19757
 H712 H 1.19530 -0.06408 -0.18864
 H713 H 1.15300 -0.03792 -0.15877
 H714 H 1.10983 -0.06323 -0.13774
 C715 C 1.10275 0.37974 0.35896
 C716 C 1.12759 0.39505 0.34575
 C717 C 1.15188 0.38013 0.32783
 C718 C 1.15122 0.35002 0.32307
 C719 C 1.12641 0.33471 0.33619
 C720 C 1.10209 0.34964 0.35425
 C721 C 1.07758 0.33396 0.36737
 C722 C 1.07709 0.30429 0.36275
 C723 C 1.10085 0.28967 0.34504
 C724 C 1.12529 0.30460 0.33186
 C725 C 1.17648 0.39587 0.31515
 C726 C 1.17707 0.42551 0.32007
 C727 C 1.15333 0.44013 0.33756
 C728 C 1.12884 0.42521 0.35027
 C729 C 1.17616 0.33503 0.30455
 C730 C 1.19719 0.32328 0.28884
 C731 C 1.07851 0.39540 0.37896
 C732 C 1.06054 0.41113 0.39621
 H733 H 1.05862 0.34445 0.38125
 H734 H 1.05817 0.29258 0.37294
 H735 H 1.10034 0.26663 0.34151
 H736 H 1.14326 0.29233 0.31833
 H737 H 1.19553 0.38550 0.30140
 H738 H 1.19607 0.43718 0.31024
 H739 H 1.15388 0.46316 0.34131
 H740 H 1.11097 0.43766 0.36363
 C741 C 0.62706 -0.09459 0.35852
 C742 C 0.64934 -0.08476 0.32443
 C743 C 0.67003 -0.10428 0.30514
 C744 C 0.66837 -0.13356 0.32015
 C745 C 0.64629 -0.14333 0.35486
 C746 C 0.62556 -0.12383 0.37401
 C747 C 0.60361 -0.13422 0.40838
 C748 C 0.60216 -0.16300 0.42326
 C749 C 0.62251 -0.18198 0.40487
 C750 C 0.64437 -0.17239 0.37104
 C751 C 0.69207 -0.09388 0.27106
 C752 C 0.69367 -0.06506 0.25652
 C753 C 0.67348 -0.04600 0.27543
 C754 C 0.65151 -0.05562 0.30897
 C755 C 0.68952 -0.15351 0.30031
 C756 C 0.70751 -0.16956 0.28389
 C757 C 0.60559 -0.07482 0.37760
 C758 C 0.58725 -0.05932 0.39448
 H759 H 0.58733 -0.12029 0.42402
 H760 H 0.58510 -0.17064 0.44906
 H761 H 0.62130 -0.20430 0.41671
 H762 H 0.65968 -0.18799 0.35770
 H763 H 0.70830 -0.10785 0.25538
 H764 H 0.71068 -0.05747 0.23043
 H765 H 0.67484 -0.02362 0.26409
 H766 H 0.63631 -0.03999 0.32271
 C767 C 0.62738 0.40664 -0.14545
 C768 C 0.64934 0.41641 -0.18043
 C769 C 0.67003 0.39690 -0.19979
 C770 C 0.66868 0.36770 -0.18403
 C771 C 0.64690 0.35801 -0.14852
 C772 C 0.62617 0.37749 -0.12928
 C773 C 0.60452 0.36716 -0.09408
 C774 C 0.60337 0.33847 -0.07845
 C775 C 0.62372 0.31951 -0.09694
 C776 C 0.64528 0.32904 -0.13158
 C777 C 0.69177 0.40724 -0.23470
 C778 C 0.69306 0.43598 -0.25001
 C779 C 0.67285 0.45501 -0.23107
 C780 C 0.65118 0.44545 -0.19670
 C781 C 0.68985 0.34777 -0.20392
 C782 C 0.70785 0.33170 -0.22033
 C783 C 0.60589 0.42638 -0.12618
 C784 C 0.58750 0.44175 -0.10904
 H785 H 0.58825 0.38107 -0.07834
 H786 H 0.58655 0.33088 -0.05199
 H787 H 0.62276 0.29727 -0.08450
 H788 H 0.66060 0.31346 -0.14498
 H789 H 0.70798 0.39328 -0.25048
 H790 H 0.70983 0.44351 -0.27674
 H791 H 0.67397 0.47731 -0.24302
 H792 H 0.63595 0.46105 -0.18297
 C793 C 1.10181 0.12452 -0.12736
 C794 C 1.09588 0.15400 -0.12252
 C795 C 1.11644 0.17444 -0.13832
 C796 C 1.14281 0.16521 -0.15875
 C797 C 1.14905 0.13575 -0.16193
 C798 C 1.12847 0.11529 -0.14618
 C799 C 1.13515 0.08589 -0.14979
 C800 C 1.16142 0.07699 -0.16837
 C801 C 1.18153 0.09704 -0.18384
 C802 C 1.17552 0.12612 -0.18080
 C803 C 1.10999 0.20386 -0.13348
 C804 C 1.08401 0.21277 -0.11340
 C805 C 1.06392 0.19274 -0.09780
 C806 C 1.06966 0.16365 -0.10226
 C807 C 1.16270 0.18616 -0.17921
 C808 C 1.17761 0.20472 -0.19751
 C809 C 1.08076 0.10362 -0.11202
 C810 C 1.06411 0.08563 -0.09818
 H811 H 1.12021 0.06948 -0.13823
 H812 H 1.16619 0.05442 -0.17078
 H813 H 1.20191 0.09003 -0.19825
 H814 H 1.19185 0.14095 -0.19309
 H815 H 1.12494 0.22028 -0.14492
 H816 H 1.07944 0.23535 -0.10995
 H817 H 1.04377 0.19976 -0.08222
 H818 H 1.05336 0.14887 -0.08967
 C819 C 1.10126 0.62506 0.37242
 C820 C 1.09544 0.65458 0.37685
 C821 C 1.11606 0.67488 0.36065
 C822 C 1.14236 0.66547 0.34022
 C823 C 1.14851 0.63597 0.33750
 C824 C 1.12787 0.61566 0.35365
 C825 C 1.13444 0.58621 0.35047
 C826 C 1.16067 0.57714 0.33197
 C827 C 1.18084 0.59706 0.31613
 C828 C 1.17493 0.62617 0.31871
 C829 C 1.10972 0.70435 0.36509
 C830 C 1.08380 0.71343 0.38518
 C831 C 1.06366 0.69353 0.40116
 C832 C 1.06928 0.66441 0.39707
 C833 C 1.16226 0.68625 0.31916
 C834 C 1.17715 0.70467 0.30032
 C835 C 1.08014 0.60428 0.38797
 C836 C 1.06348 0.58631 0.40183
 H837 H 1.11945 0.56990 0.36233
 H838 H 1.16537 0.55455 0.32995
 H839 H 1.20119 0.58991 0.30181
 H840 H 1.19130 0.64089 0.30615
 H841 H 1.12472 0.72066 0.35337
 H842 H 1.07933 0.73604 0.38835
 H843 H 1.04356 0.70069 0.41677
 H844 H 1.05294 0.64973 0.40995
 C845 C 0.61888 0.10641 0.36210
 C846 C 0.61062 0.13401 0.37987
 C847 C 0.62519 0.15856 0.36016
 C848 C 0.64798 0.15543 0.32282
 C849 C 0.65675 0.12780 0.30636
 C850 C 0.64213 0.10322 0.32604
 C851 C 0.65115 0.07587 0.30884
 C852 C 0.67408 0.07283 0.27329
 C853 C 0.68841 0.09682 0.25409
 C854 C 0.67992 0.12405 0.27024
 C855 C 0.61643 0.18589 0.37827
 C856 C 0.59386 0.18891 0.41468
 C857 C 0.57952 0.16494 0.43377
 C858 C 0.58776 0.13777 0.41692
 C859 C 0.66225 0.18068 0.30146
 C860 C 0.67409 0.20180 0.28447
 C861 C 0.60234 0.08180 0.37932
 C862 C 0.58635 0.06348 0.39509
 H863 H 0.64066 0.05661 0.32286
 H864 H 0.68075 0.05174 0.26060
 H865 H 0.70622 0.09433 0.22652
 H866 H 0.69173 0.14207 0.25426
 H867 H 0.62689 0.20521 0.36452
 H868 H 0.58743 0.20996 0.42808
 H869 H 0.56191 0.16738 0.46185
 H870 H 0.57600 0.11983 0.43334
 C871 C 0.61831 0.60783 -0.13865
 C872 C 0.60996 0.63542 -0.12098
 C873 C 0.62464 0.66001 -0.14032
 C874 C 0.64756 0.65695 -0.17734
 C875 C 0.65640 0.62932 -0.19376
 C876 C 0.64172 0.60470 -0.17434
 C877 C 0.65085 0.57738 -0.19147
 C878 C 0.67390 0.57439 -0.22671
 C879 C 0.68826 0.59842 -0.24569
 C880 C 0.67969 0.62562 -0.22957
 C881 C 0.61582 0.68731 -0.12217
 C882 C 0.59304 0.69029 -0.08625
 C883 C 0.57856 0.66630 -0.06768
 C884 C 0.58690 0.63915 -0.08443
 C885 C 0.66188 0.68224 -0.19859
 C886 C 0.67373 0.70337 -0.21563
 C887 C 0.60174 0.58314 -0.12167
 C888 C 0.58580 0.56470 -0.10616
 H889 H 0.64034 0.55810 -0.17763
 H890 H 0.68066 0.55331 -0.23932
 H891 H 0.70616 0.59597 -0.27306
 H892 H 0.69155 0.64366 -0.24533
 H893 H 0.62639 0.70664 -0.13552
 H894 H 0.58658 0.71132 -0.07282
 H895 H 0.56080 0.66872 -0.03997
 H896 H 0.57505 0.62120 -0.06832
 C897 C 0.90240 -0.12923 -0.13215
 C898 C 0.91037 -0.15337 -0.16350
 C899 C 0.88970 -0.17329 -0.18055
 C900 C 0.86120 -0.16886 -0.16612
 C901 C 0.85344 -0.14546 -0.13250
 C902 C 0.87411 -0.12551 -0.11549
 C903 C 0.86593 -0.10233 -0.08149
 C904 C 0.83814 -0.09906 -0.06467
 C905 C 0.81792 -0.11858 -0.08144
 C906 C 0.82535 -0.14153 -0.11510
 C907 C 0.89816 -0.19737 -0.21186
 C908 C 0.92624 -0.20163 -0.22571
 C909 C 0.94644 -0.18208 -0.20901
 C910 C 0.93871 -0.15815 -0.17834
 C911 C 0.84007 -0.18820 -0.18706
 C912 C 0.82396 -0.20516 -0.20660
 C913 C 0.92312 -0.10812 -0.11686
 C914 C 0.93922 -0.08980 -0.10268
 H915 H 0.88090 -0.08666 -0.06714
 H916 H 0.83227 -0.08130 -0.03844
 H917 H 0.79636 -0.11595 -0.06827
 H918 H 0.80894 -0.15626 -0.12693
 H919 H 0.88327 -0.21325 -0.22563
 H920 H 0.93234 -0.22022 -0.24946
 H921 H 0.96823 -0.18549 -0.21981
 H922 H 0.95517 -0.14357 -0.16613
 C923 C 0.90406 0.36959 0.36875
 C924 C 0.87608 0.37275 0.38774
 C925 C 0.85531 0.35281 0.37125
 C926 C 0.86268 0.33001 0.33583
 C927 C 0.89094 0.32603 0.31923
 C928 C 0.91171 0.34595 0.33574
 C929 C 0.93981 0.34168 0.31865
 C930 C 0.94722 0.31822 0.28633
 C931 C 0.92692 0.29866 0.27018
 C932 C 0.89907 0.30244 0.28619
 C933 C 0.82754 0.35615 0.39096
 C934 C 0.82052 0.37850 0.42645
 C935 C 0.84083 0.39804 0.44268
 C936 C 0.86831 0.39536 0.42355
 C937 C 0.84137 0.31083 0.31521
 C938 C 0.82516 0.29397 0.29572
 C939 C 0.92475 0.39086 0.38311
 C940 C 0.94073 0.40937 0.39673
 H941 H 0.95633 0.35631 0.33032
 H942 H 0.96883 0.31520 0.27381
 H943 H 0.93276 0.28044 0.24513
 H944 H 0.88409 0.28659 0.27268
 H945 H 0.81107 0.34140 0.37956
 H946 H 0.79921 0.38066 0.44145
 H947 H 0.83529 0.41536 0.47027
 H948 H 0.88338 0.41101 0.43759
 C949 C 0.38092 -0.10383 0.36066
 C950 C 0.35728 -0.11401 0.39044
 C951 C 0.34262 -0.13859 0.37144
 C952 C 0.35160 -0.15273 0.32250
 C953 C 0.37482 -0.14208 0.29196
 C954 C 0.38949 -0.11758 0.31104
 C955 C 0.41278 -0.10751 0.27995
 C956 C 0.42135 -0.12126 0.23153
 C957 C 0.40704 -0.14522 0.21294
 C958 C 0.38402 -0.15560 0.24261
 C959 C 0.31930 -0.14858 0.40243
 C960 C 0.31062 -0.13464 0.45063
 C961 C 0.32486 -0.11056 0.46898
 C962 C 0.34797 -0.10029 0.43942
 C963 C 0.33713 -0.17827 0.30354
 C964 C 0.32518 -0.19940 0.28734
 C965 C 0.39804 -0.08090 0.38309
 C966 C 0.41422 -0.06343 0.40105
 H967 H 0.42456 -0.08888 0.29254
 H968 H 0.43921 -0.11326 0.20832
 H969 H 0.41380 -0.15585 0.17532
 H970 H 0.37358 -0.17432 0.22644
 H971 H 0.30756 -0.16722 0.38977
 H972 H 0.29279 -0.14263 0.47394
 H973 H 0.31811 -0.09990 0.50658
 H974 H 0.35846 -0.08154 0.45538
 C975 C 0.38109 0.39550 -0.13999
 C976 C 0.35771 0.38526 -0.10943
 C977 C 0.34299 0.36061 -0.12788
 C978 C 0.35164 0.34644 -0.17701
 C979 C 0.37460 0.35712 -0.20828
 C980 C 0.38934 0.38170 -0.18976
 C981 C 0.41237 0.39179 -0.22157
 C982 C 0.42061 0.37802 -0.27019
 C983 C 0.40622 0.35399 -0.28824
 C984 C 0.38347 0.34357 -0.25783
 C985 C 0.31994 0.35058 -0.09616
 C986 C 0.31156 0.36456 -0.04781
 C987 C 0.32587 0.38871 -0.02997
 C988 C 0.34874 0.39901 -0.06022
 C989 C 0.33707 0.32086 -0.19547
 C990 C 0.32503 0.29970 -0.21130
 C991 C 0.39826 0.41856 -0.11824
 C992 C 0.41443 0.43616 -0.10070
 H993 H 0.42420 0.41046 -0.20937
 H994 H 0.43827 0.38605 -0.29397
 H995 H 0.41272 0.34335 -0.32602
 H996 H 0.37297 0.32479 -0.27359
 H997 H 0.30816 0.33188 -0.10837
 H998 H 0.29392 0.35655 -0.02395
 H999 H 0.31935 0.39940 0.00775
 H1000 H 0.35930 0.41779 -0.04462
 C1001 C 1.09613 -0.12772 0.14216
 C1002 C 1.12283 -0.11761 0.15876
 C1003 C 1.14388 -0.13731 0.17529
 C1004 C 1.13807 -0.16693 0.17517
 C1005 C 1.11148 -0.17706 0.15795
 C1006 C 1.09044 -0.15736 0.14138
 C1007 C 1.06404 -0.16790 0.12422
 C1008 C 1.05858 -0.19714 0.12350
 C1009 C 1.07914 -0.21645 0.13977
 C1010 C 1.10532 -0.20666 0.15686
 C1011 C 1.17042 -0.12680 0.19162
 C1012 C 1.17602 -0.09757 0.19154
 C1013 C 1.15544 -0.07826 0.17537
 C1014 C 1.12911 -0.08803 0.15914
 C1015 C 1.15888 -0.18707 0.19477
 C1016 C 1.17473 -0.20495 0.21228
 C1017 C 1.07503 -0.10754 0.12398
 C1018 C 1.05884 -0.08975 0.10750
 H1019 H 1.04739 -0.15369 0.11120
 H1020 H 1.03829 -0.20486 0.11022
 H1021 H 1.07482 -0.23915 0.13908
 H1022 H 1.12064 -0.22254 0.16896
 H1023 H 1.18711 -0.14103 0.20436
 H1024 H 1.19646 -0.08989 0.20401
 H1025 H 1.15990 -0.05558 0.17533
 H1026 H 1.11382 -0.07215 0.14690
 C1027 C 1.09541 0.37363 0.64521
 C1028 C 1.12188 0.38388 0.66279
 C1029 C 1.14301 0.36428 0.67941
 C1030 C 1.13748 0.33461 0.67840
 C1031 C 1.11110 0.32434 0.66024
 C1032 C 1.08999 0.34395 0.64357
 C1033 C 1.06382 0.33327 0.62542
 C1034 C 1.05864 0.30399 0.62381
 C1035 C 1.07926 0.28477 0.64018
 C1036 C 1.10522 0.29470 0.65825
 C1037 C 1.16933 0.37493 0.69669
 C1038 C 1.17467 0.40421 0.69744
 C1039 C 1.15402 0.42343 0.68118
 C1040 C 1.12789 0.41351 0.66404
 C1041 C 1.15838 0.31453 0.69791
 C1042 C 1.17436 0.29673 0.71519
 C1043 C 1.07431 0.39371 0.62663
 C1044 C 1.05812 0.41137 0.60966
 H1045 H 1.04712 0.34740 0.61230
 H1046 H 1.03851 0.29617 0.60977
 H1047 H 1.07515 0.26204 0.63881
 H1048 H 1.12060 0.27888 0.67039
 H1049 H 1.18607 0.36079 0.70953
 H1050 H 1.19494 0.41201 0.71063
 H1051 H 1.15826 0.44615 0.68179
 H1052 H 1.11253 0.42932 0.65180
 C1053 C 0.61792 -0.10441 0.63930
 C1054 C 0.64115 -0.10131 0.67519
 C1055 C 0.65578 -0.12593 0.69443
 C1056 C 0.64711 -0.15353 0.67755
 C1057 C 0.62436 -0.15656 0.64034
 C1058 C 0.60970 -0.13197 0.62124
 C1059 C 0.58680 -0.13565 0.58453
 C1060 C 0.57858 -0.16277 0.56745
 C1061 C 0.59306 -0.18676 0.58573
 C1062 C 0.61569 -0.18383 0.62176
 C1063 C 0.67887 -0.12227 0.73053
 C1064 C 0.68730 -0.09509 0.74706
 C1065 C 0.67299 -0.07105 0.72820
 C1066 C 0.65013 -0.07401 0.69269
 C1067 C 0.66148 -0.17883 0.69830
 C1068 C 0.67342 -0.19999 0.71470
 C1069 C 0.60139 -0.07974 0.62248
 C1070 C 0.58548 -0.06134 0.60697
 H1071 H 0.57498 -0.11769 0.56859
 H1072 H 0.56090 -0.16516 0.53972
 H1073 H 0.58670 -0.20778 0.57199
 H1074 H 0.62627 -0.20316 0.63486
 H1075 H 0.69067 -0.14032 0.74621
 H1076 H 0.70504 -0.09266 0.77463
 H1077 H 0.67965 -0.04999 0.74111
 H1078 H 0.63967 -0.05472 0.67896
 C1079 C 0.61852 0.39635 0.13716
 C1080 C 0.64179 0.39967 0.17288
 C1081 C 0.65653 0.37517 0.19237
 C1082 C 0.64790 0.34749 0.17593
 C1083 C 0.62507 0.34424 0.13898
 C1084 C 0.61033 0.36870 0.11961
 C1085 C 0.58734 0.36479 0.08319
 C1086 C 0.57913 0.33758 0.06665
 C1087 C 0.59371 0.31370 0.08520
 C1088 C 0.61642 0.31686 0.12097
 C1089 C 0.67965 0.37904 0.22830
 C1090 C 0.68799 0.40631 0.24444
 C1091 C 0.67358 0.43023 0.22534
 C1092 C 0.65069 0.42707 0.18999
 C1093 C 0.66233 0.32231 0.19695
 C1094 C 0.67421 0.30118 0.21352
 C1095 C 0.60192 0.42087 0.12001
 C1096 C 0.58591 0.43909 0.10421
 H1097 H 0.57543 0.38265 0.06708
 H1098 H 0.56138 0.33503 0.03916
 H1099 H 0.58735 0.29261 0.07191
 H1100 H 0.62705 0.29760 0.13435
 H1101 H 0.69151 0.36108 0.24417
 H1102 H 0.70575 0.40890 0.27192
 H1103 H 0.68017 0.45136 0.23799
 H1104 H 0.64013 0.44627 0.17608
 C1105 C 0.89999 0.12773 0.11968
 C1106 C 0.90806 0.15099 0.15327
 C1107 C 0.88781 0.17159 0.16922
 C1108 C 0.85965 0.16867 0.15150
 C1109 C 0.85193 0.14625 0.11550
 C1110 C 0.87220 0.12565 0.09949
 C1111 C 0.86414 0.10352 0.06291
 C1112 C 0.83686 0.10193 0.04256
 C1113 C 0.81702 0.12208 0.05841
 C1114 C 0.82433 0.14400 0.09462
 C1115 C 0.89636 0.19479 0.20283
 C1116 C 0.92411 0.19754 0.21993
 C1117 C 0.94391 0.17732 0.20430
 C1118 C 0.93608 0.15423 0.17144
 C1119 C 0.83882 0.18856 0.17164
 C1120 C 0.82323 0.20604 0.19112
 C1121 C 0.92016 0.10580 0.10608
 C1122 C 0.93622 0.08708 0.09390
 H1123 H 0.87888 0.08745 0.04915
 H1124 H 0.83110 0.08499 0.01432
 H1125 H 0.79585 0.12074 0.04252
 H1126 H 0.80825 0.15929 0.10560
 H1127 H 0.88180 0.21115 0.21592
 H1128 H 0.93029 0.21549 0.24537
 H1129 H 0.96545 0.17955 0.21762
 H1130 H 0.95224 0.13910 0.16016
 C1131 C 0.89847 0.62810 0.61723
 C1132 C 0.90568 0.64897 0.65700
 C1133 C 0.88551 0.66953 0.67356
 C1134 C 0.85828 0.66902 0.65016
 C1135 C 0.85154 0.64908 0.60831
 C1136 C 0.87171 0.62845 0.59184
 C1137 C 0.86463 0.60876 0.54962
 C1138 C 0.83847 0.60968 0.52399
 C1139 C 0.81875 0.62989 0.54015
 C1140 C 0.82505 0.64934 0.58203
 C1141 C 0.89321 0.69027 0.71347
 C1142 C 0.92007 0.69070 0.73608
 C1143 C 0.93978 0.67052 0.71986
 C1144 C 0.93277 0.64981 0.68085
 C1145 C 0.83746 0.68905 0.66996
 C1146 C 0.82190 0.70663 0.68928
 C1147 C 0.91839 0.60601 0.60304
 C1148 C 0.93439 0.58723 0.59077
 H1149 H 0.87935 0.59278 0.53538
 H1150 H 0.83351 0.59468 0.49133
 H1151 H 0.79848 0.63054 0.52007
 H1152 H 0.80910 0.66474 0.59315
 H1153 H 0.87868 0.70648 0.72739
 H1154 H 0.92561 0.70680 0.76630
 H1155 H 0.96063 0.67093 0.73751
 H1156 H 0.94885 0.63463 0.66938
 C1157 C 0.38104 0.10722 0.63976
 C1158 C 0.35800 0.11796 0.60914
 C1159 C 0.34349 0.14267 0.62799
 C1160 C 0.35202 0.15642 0.67758
 C1161 C 0.37463 0.14524 0.70889
 C1162 C 0.38915 0.12059 0.68998
 C1163 C 0.41183 0.10999 0.72186
 C1164 C 0.41997 0.12336 0.77090
 C1165 C 0.40580 0.14746 0.78933
 C1166 C 0.38338 0.15837 0.75888
 C1167 C 0.32076 0.15319 0.59622
 C1168 C 0.31250 0.13962 0.54744
 C1169 C 0.32659 0.11540 0.52921
 C1170 C 0.34915 0.10464 0.55949
 C1171 C 0.33762 0.18201 0.69660
 C1172 C 0.32571 0.20310 0.71312
 C1173 C 0.39806 0.08412 0.61765
 C1174 C 0.41419 0.06649 0.59996
 H1175 H 0.42347 0.09123 0.70941
 H1176 H 0.43737 0.11495 0.79470
 H1177 H 0.41222 0.15779 0.82743
 H1178 H 0.37304 0.17718 0.77495
 H1179 H 0.30916 0.17196 0.60874
 H1180 H 0.29511 0.14798 0.52356
 H1181 H 0.32018 0.10503 0.49114
 H1182 H 0.35956 0.08581 0.54360
 C1183 C 0.38075 0.60664 0.13846
 C1184 C 0.35750 0.61707 0.10809
 C1185 C 0.34295 0.64180 0.12672
 C1186 C 0.35165 0.65587 0.17584
 C1187 C 0.37448 0.64500 0.20692
 C1188 C 0.38904 0.62032 0.18824
 C1189 C 0.41194 0.61002 0.21989
 C1190 C 0.42024 0.62369 0.26850
 C1191 C 0.40603 0.64782 0.28670
 C1192 C 0.38340 0.65844 0.25647
 C1193 C 0.32000 0.65201 0.09520
 C1194 C 0.31157 0.63813 0.04686
 C1195 C 0.32571 0.61389 0.02885
 C1196 C 0.34848 0.60342 0.05890
 C1197 C 0.33722 0.68150 0.19459
 C1198 C 0.32527 0.70263 0.21085
 C1199 C 0.39781 0.58352 0.11647
 C1200 C 0.41397 0.56592 0.09879
 H1201 H 0.42362 0.59126 0.20760
 H1202 H 0.43779 0.61551 0.29215
 H1203 H 0.41257 0.65838 0.32447
 H1204 H 0.37304 0.67728 0.27235
 H1205 H 0.30835 0.67078 0.10757
 H1206 H 0.29402 0.64626 0.02316
 H1207 H 0.31915 0.60327 -0.00885
 H1208 H 0.35891 0.58457 0.04320
   
