data_POSCAR
  _audit_creation_date              2014-09-24
  _audit_creation_method            'ToBaCCo'
  _symmetry_space_group_name_H-M    'P1'
  _symmetry_Int_Tables_number       1
  _symmetry_cell_setting            triclinic
  loop_
  _symmetry_equiv_pos_as_xyz
 x,y,z
_cell_length_a 41.5396
_cell_length_b 41.6793
_cell_length_c 21.5849
_cell_angle_alpha 89.439600
_cell_angle_beta 87.895500
_cell_angle_gamma 99.502000
loop_
  _atom_site_label
  _atom_site_type_symbol
  _atom_site_fract_x
  _atom_site_fract_y
  _atom_site_fract_z
C1 C 0.02213 0.28591 -0.01454
 C2 C 0.02480 0.27917 0.04722
 C3 C -0.00462 0.26884 0.08946
 C4 C 0.05768 0.28214 0.07426
 C5 C 0.05047 0.28644 -0.05934
 C6 C -0.00932 0.29196 -0.03949
 C7 C -0.00512 0.27949 0.15102
 C8 C -0.03318 0.27125 0.18951
 C9 C -0.06197 0.25362 0.16624
 C10 C -0.06112 0.24217 0.10530
 C11 C -0.03237 0.24833 0.06864
 C12 C 0.08136 0.30981 0.06111
 C13 C 0.11347 0.31075 0.07863
 C14 C 0.12226 0.28461 0.11168
 C15 C 0.09811 0.25799 0.12904
 C16 C 0.06606 0.25667 0.11011
 C17 C 0.06987 0.26182 -0.05725
 C18 C 0.09832 0.26398 -0.09452
 C19 C 0.10718 0.29001 -0.13667
 C20 C 0.08680 0.31359 -0.14172
 C21 C 0.05876 0.31194 -0.10301
 C22 C -0.02268 0.27404 -0.08980
 C23 C -0.05485 0.27491 -0.10573
 C24 C -0.07415 0.29377 -0.07160
 C25 C -0.05981 0.31373 -0.02464
 C26 C -0.02755 0.31315 -0.00923
 H27 H 0.01598 0.29480 0.16907
 H28 H -0.03279 0.28056 0.23616
 H29 H -0.08233 0.22739 0.08650
 H30 H -0.03218 0.23766 0.02318
 H31 H 0.07524 0.33014 0.03499
 H32 H 0.13153 0.33182 0.06581
 H33 H 0.04815 0.23523 0.12121
 H34 H 0.06340 0.24128 -0.02555
 H35 H 0.11327 0.24513 -0.09076
 H36 H 0.09314 0.33384 -0.17412
 H37 H 0.04405 0.33103 -0.10595
 H38 H -0.00898 0.25774 -0.11410
 H39 H -0.06514 0.25933 -0.14231
 H40 H -0.07378 0.32914 0.00141
 H41 H -0.01741 0.32779 0.02879
 H42 H 0.10435 0.23756 0.15467
 C43 C 0.47718 0.75647 0.44310
 C44 C 0.48567 0.77355 0.49538
 C45 C 0.46004 0.78618 0.53279
 C46 C 0.51985 0.78044 0.51523
 C47 C 0.50117 0.74252 0.40329
 C48 C 0.44280 0.75167 0.42410
 C49 C 0.44854 0.81388 0.51114
 C50 C 0.41682 0.81865 0.52726
 C51 C 0.39653 0.79620 0.56638
 C52 C 0.40962 0.77080 0.59411
 C53 C 0.44116 0.76573 0.57714
 C54 C 0.54464 0.79694 0.47519
 C55 C 0.57744 0.79852 0.48915
 C56 C 0.58608 0.78376 0.54361
 C57 C 0.56104 0.76921 0.58559
 C58 C 0.52823 0.76767 0.57157
 C59 C 0.52222 0.72323 0.42894
 C60 C 0.54706 0.71329 0.39223
 C61 C 0.55046 0.72142 0.32880
 C62 C 0.52806 0.73877 0.30236
 C63 C 0.50373 0.74932 0.33930
 C64 C 0.41970 0.72730 0.45313
 C65 C 0.38636 0.72688 0.44567
 C66 C 0.37581 0.75028 0.40764
 C67 C 0.39903 0.77368 0.37623
 C68 C 0.43228 0.77464 0.38506
 H69 H 0.46271 0.82973 0.47645
 H70 H 0.40756 0.83882 0.50625
 H71 H 0.39456 0.75312 0.62445
 H72 H 0.44937 0.74390 0.59342
 H73 H 0.53858 0.80736 0.43182
 H74 H 0.59588 0.81073 0.45645
 H75 H 0.50951 0.75488 0.60316
 H76 H 0.52003 0.71666 0.47775
 H77 H 0.56379 0.69952 0.41349
 H78 H 0.53027 0.74558 0.25368
 H79 H 0.48779 0.76387 0.31798
 H80 H 0.42746 0.70973 0.48415
 H81 H 0.36885 0.70844 0.46984
 H82 H 0.39138 0.79211 0.34707
 H83 H 0.44968 0.79427 0.36396
 H84 H 0.56661 0.75767 0.62805
 C85 C 0.97113 0.73040 -0.05247
 C86 C 0.97419 0.72543 0.00962
 C87 C 1.00661 0.72225 0.03381
 C88 C 0.94668 0.72624 0.05551
 C89 C 0.93872 0.72388 -0.08136
 C90 C 1.00075 0.74448 -0.09068
 C91 C 1.02482 0.70015 0.00674
 C92 C 1.05696 0.70005 0.02296
 C93 C 1.07127 0.72160 0.06754
 C94 C 1.05245 0.74242 0.09729
 C95 C 1.02034 0.74280 0.08043
 C96 C 0.94259 0.70553 0.10800
 C97 C 0.91762 0.70734 0.15245
 C98 C 0.89612 0.72958 0.14458
 C99 C 0.90040 0.75052 0.09265
 C100 C 0.92579 0.74930 0.04919
 C101 C 0.92965 0.74589 -0.12446
 C102 C 0.89769 0.74158 -0.14528
 C103 C 0.87432 0.71526 -0.12314
 C104 C 0.88398 0.69231 -0.08289
 C105 C 0.91592 0.69634 -0.06288
 C106 C 1.02016 0.77283 -0.07012
 C107 C 1.05258 0.78100 -0.09081
 C108 C 1.06609 0.76182 -0.13479
 C109 C 1.04512 0.73622 -0.16231
 C110 C 1.01270 0.72725 -0.13955
 H111 H 1.01441 0.68368 -0.02852
 H112 H 1.07061 0.68321 0.00031
 H113 H 1.06292 0.75932 0.13176
 H114 H 1.00670 0.76005 0.10181
 H115 H 0.95863 0.68785 0.11444
 H116 H 0.91461 0.69083 0.19206
 H117 H 0.92919 0.76656 0.01075
 H118 H 0.94679 0.76718 -0.13982
 H119 H 0.89092 0.75964 -0.17644
 H120 H 0.86675 0.67137 -0.06626
 H121 H 0.92257 0.67847 -0.03111
 H122 H 1.01101 0.78701 -0.03365
 H123 H 1.06716 0.80205 -0.07096
 H124 H 1.05439 0.72116 -0.19702
 H125 H 0.99795 0.70547 -0.15647
 H126 H 0.88436 0.76819 0.08615
 C127 C 0.51515 0.22887 0.48813
 C128 C 0.52113 0.22850 0.55008
 C129 C 0.55289 0.22170 0.57275
 C130 C 0.49582 0.23507 0.59711
 C131 C 0.48097 0.22540 0.46715
 C132 C 0.54221 0.23370 0.43965
 C133 C 0.56752 0.19643 0.54731
 C134 C 0.59828 0.19149 0.56555
 C135 C 0.61474 0.21117 0.61071
 C136 C 0.59941 0.23536 0.63848
 C137 C 0.56881 0.24061 0.61957
 C138 C 0.48806 0.21499 0.65000
 C139 C 0.46269 0.21996 0.69149
 C140 C 0.44443 0.24479 0.68021
 C141 C 0.45288 0.26550 0.62852
 C142 C 0.47874 0.26112 0.58815
 C143 C 0.47214 0.24758 0.42414
 C144 C 0.43943 0.24615 0.40940
 C145 C 0.41503 0.22266 0.43778
 C146 C 0.42408 0.19964 0.47867
 C147 C 0.45678 0.20072 0.49254
 C148 C 0.57075 0.25637 0.44805
 C149 C 0.59650 0.26002 0.40385
 C150 C 0.59373 0.24222 0.34899
 C151 C 0.56467 0.22086 0.33871
 C152 C 0.53922 0.21640 0.38393
 H153 H 0.55534 0.18085 0.51245
 H154 H 0.60916 0.17225 0.54419
 H155 H 0.61153 0.25103 0.67324
 H156 H 0.55799 0.26008 0.64027
 H157 H 0.50102 0.19493 0.65825
 H158 H 0.45660 0.20370 0.73115
 H159 H 0.48493 0.27764 0.54889
 H160 H 0.49039 0.26671 0.40375
 H161 H 0.43310 0.26420 0.37770
 H162 H 0.40589 0.18083 0.50013
 H163 H 0.46314 0.18285 0.52465
 H164 H 0.57328 0.27110 0.48916
 H165 H 0.61855 0.27699 0.41228
 H166 H 0.56209 0.20682 0.29671
 H167 H 0.51739 0.19909 0.37580
 H168 H 0.43957 0.28520 0.61950
 C169 C 0.76299 -0.01540 -0.02440
 C170 C 0.75239 -0.01760 0.03632
 C171 C 0.74570 -0.04862 0.07356
 C172 C 0.74576 0.01227 0.06757
 C173 C 0.77094 0.01689 -0.05604
 C174 C 0.76531 -0.04402 -0.06388
 C175 C 0.72029 -0.05306 0.11929
 C176 C 0.71456 -0.08080 0.15722
 C177 C 0.73338 -0.10567 0.14943
 C178 C 0.75853 -0.10162 0.10302
 C179 C 0.76528 -0.07300 0.06704
 C180 C 0.71553 0.02229 0.06064
 C181 C 0.70998 0.05200 0.08395
 C182 C 0.73463 0.07233 0.11442
 C183 C 0.76441 0.06152 0.12407
 C184 C 0.76997 0.03162 0.10057
 C185 C 0.80325 0.03316 -0.06067
 C186 C 0.81095 0.06296 -0.09238
 C187 C 0.78620 0.07798 -0.11740
 C188 C 0.75356 0.06207 -0.11010
 C189 C 0.74616 0.03146 -0.08112
 C190 C 0.79380 -0.04500 -0.10020
 C191 C 0.79555 -0.07014 -0.14155
 C192 C 0.76886 -0.09541 -0.14770
 C193 C 0.74050 -0.09484 -0.10984
 C194 C 0.73862 -0.06919 -0.06911
 H195 H 0.70459 -0.03503 0.12619
 H196 H 0.69446 -0.08300 0.19111
 H197 H 0.77417 -0.11975 0.09637
 H198 H 0.78618 -0.06988 0.03488
 H199 H 0.69656 0.00742 0.03559
 H200 H 0.68657 0.05935 0.07681
 H201 H 0.79346 0.02411 0.10610
 H202 H 0.82257 0.02266 -0.04002
 H203 H 0.83624 0.07464 -0.09495
 H204 H 0.73376 0.07248 -0.12903
 H205 H 0.72105 0.01916 -0.07789
 H206 H 0.81496 -0.02626 -0.09683
 H207 H 0.81833 -0.06965 -0.16759
 H208 H 0.71917 -0.11344 -0.11295
 H209 H 0.71611 -0.06870 -0.04243
 H210 H 0.78391 0.07678 0.14702
 C211 C 0.26727 0.50979 0.47702
 C212 C 0.26745 0.51441 0.53968
 C213 C 0.27815 0.49092 0.58427
 C214 C 0.25384 0.54233 0.56672
 C215 C 0.25687 0.53412 0.43452
 C216 C 0.27512 0.47984 0.44740
 C217 C 0.25993 0.48284 0.64012
 C218 C 0.26843 0.45990 0.68134
 C219 C 0.29486 0.44398 0.66704
 C220 C 0.31368 0.45236 0.61225
 C221 C 0.30596 0.47632 0.57205
 C222 C 0.22109 0.54503 0.55865
 C223 C 0.20842 0.57177 0.58136
 C224 C 0.22814 0.59650 0.61336
 C225 C 0.26072 0.59299 0.62350
 C226 C 0.27339 0.56608 0.60057
 C227 C 0.27379 0.56618 0.43023
 C228 C 0.26226 0.58937 0.39345
 C229 C 0.23348 0.58086 0.36081
 C230 C 0.21729 0.54849 0.36358
 C231 C 0.22904 0.52527 0.39967
 C232 C 0.29817 0.48260 0.39779
 C233 C 0.30506 0.45494 0.36749
 C234 C 0.28893 0.42374 0.38594
 C235 C 0.26557 0.42108 0.43552
 C236 C 0.25857 0.44886 0.46564
 H237 H 0.23856 0.49372 0.65138
 H238 H 0.25359 0.45367 0.72341
 H239 H 0.33444 0.44054 0.60090
 H240 H 0.32140 0.48297 0.53094
 H241 H 0.20538 0.52653 0.53387
 H242 H 0.18323 0.57289 0.57262
 H243 H 0.29863 0.56413 0.60805
 H244 H 0.29549 0.57336 0.45642
 H245 H 0.27513 0.61417 0.39257
 H246 H 0.19529 0.54116 0.33839
 H247 H 0.21577 0.50061 0.40217
 H248 H 0.31087 0.50630 0.38240
 H249 H 0.32271 0.45836 0.32899
 H250 H 0.25259 0.39759 0.45119
 H251 H 0.24013 0.44623 0.50296
 H252 H 0.27666 0.61113 0.64843
 C253 C 0.24775 1.01117 -0.03488
 C254 C 0.24819 1.00671 0.02784
 C255 C 0.24548 1.03414 0.07045
 C256 C 0.24872 0.97472 0.05886
 C257 C 0.24719 0.98438 -0.08096
 C258 C 0.24492 1.04379 -0.06065
 C259 C 0.26983 1.06174 0.07126
 C260 C 0.26639 1.08751 0.11072
 C261 C 0.23885 1.08590 0.15172
 C262 C 0.21502 1.05751 0.15166
 C263 C 0.21830 1.03210 0.11146
 C264 C 0.27047 0.97322 0.10671
 C265 C 0.26906 0.94487 0.14228
 C266 C 0.24632 0.91715 0.12999
 C267 C 0.22518 0.91804 0.08093
 C268 C 0.22589 0.94685 0.04642
 C269 C 0.22654 0.98370 -0.13120
 C270 C 0.22538 0.95977 -0.17575
 C271 C 0.24415 0.93476 -0.17113
 C272 C 0.26479 0.93501 -0.12062
 C273 C 0.26704 0.96013 -0.07715
 C274 C 0.21414 1.05288 -0.06633
 C275 C 0.21114 1.08195 -0.09663
 C276 C 0.23905 1.10352 -0.11872
 C277 C 0.27005 1.09516 -0.10904
 C278 C 0.27285 1.06513 -0.08202
 H279 H 0.29159 1.06331 0.04149
 H280 H 0.28580 1.10830 0.10954
 H281 H 0.19318 1.05478 0.18123
 H282 H 0.19933 1.01086 0.11184
 H283 H 0.28805 0.99442 0.11769
 H284 H 0.28549 0.94471 0.18006
 H285 H 0.20811 0.94763 0.01123
 H286 H 0.21061 1.00150 -0.13625
 H287 H 0.20830 0.96038 -0.21215
 H288 H 0.28006 0.91653 -0.11572
 H289 H 0.28423 0.96047 -0.04060
 H290 H 0.19235 1.03678 -0.04937
 H291 H 0.18688 1.08774 -0.10121
 H292 H 0.29216 1.11087 -0.12546
 H293 H 0.29680 1.05846 -0.07785
 H294 H 0.20705 0.89703 0.07150
 C295 C 0.74502 0.48128 0.48311
 C296 C 0.73805 0.48396 0.54470
 C297 C 0.72731 0.51366 0.56928
 C298 C 0.74012 0.45755 0.59023
 C299 C 0.75666 0.45248 0.45651
 C300 C 0.74103 0.50723 0.43792
 C301 C 0.74924 0.53601 0.60157
 C302 C 0.74024 0.56511 0.62171
 C303 C 0.70882 0.57183 0.61148
 C304 C 0.68653 0.54896 0.58072
 C305 C 0.69585 0.52019 0.55908
 C306 C 0.76843 0.44339 0.59429
 C307 C 0.76902 0.41743 0.63550
 C308 C 0.74166 0.40584 0.67449
 C309 C 0.71387 0.42086 0.67197
 C310 C 0.71311 0.44641 0.63018
 C311 C 0.73715 0.42158 0.45919
 C312 C 0.74731 0.39563 0.42747
 C313 C 0.77696 0.40041 0.39227
 C314 C 0.79694 0.43107 0.39211
 C315 C 0.78679 0.45686 0.42360
 C316 C 0.72009 0.49984 0.38862
 C317 C 0.71596 0.52394 0.34562
 C318 C 0.73261 0.55583 0.35152
 C319 C 0.75408 0.56302 0.40019
 C320 C 0.75857 0.53882 0.44257
 H321 H 0.77360 0.53122 0.60971
 H322 H 0.75772 0.58220 0.64594
 H323 H 0.66219 0.55368 0.57222
 H324 H 0.67868 0.50307 0.53421
 H325 H 0.78993 0.45223 0.56525
 H326 H 0.79093 0.40656 0.63718
 H327 H 0.69106 0.45702 0.62807
 H328 H 0.71363 0.41790 0.48390
 H329 H 0.73127 0.37236 0.42814
 H330 H 0.82019 0.43542 0.36657
 H331 H 0.80217 0.48055 0.42126
 H332 H 0.70663 0.47547 0.38394
 H333 H 0.69915 0.51778 0.30877
 H334 H 0.76771 0.58729 0.40513
 H335 H 0.77575 0.54471 0.47890
 H336 H 0.69229 0.41226 0.70091
 O337 O 0.25538 0.26676 0.18584
 O338 O 0.31709 0.24473 0.28888
 O339 O 0.27371 0.21210 0.21861
 O340 O 0.29830 0.29853 0.25685
 O341 O 0.26132 0.29313 0.33410
 O342 O 0.23747 0.20658 0.29709
 O343 O 0.28068 0.23903 0.36712
 O344 O 0.21860 0.26015 0.26347
 Cu345 Cu 0.28975 0.25602 0.22961
 Cu346 Cu 0.24591 0.24916 0.32340
 C347 C 0.22656 0.26721 0.20703
 C348 C 0.30941 0.23831 0.34562
 C349 C 0.25133 0.19465 0.25146
 C350 C 0.28393 0.31054 0.30176
 O351 O 0.72614 0.76935 0.28639
 O352 O 0.72445 0.68171 0.30528
 O353 O 0.77038 0.73087 0.28817
 O354 O 0.68049 0.71924 0.30180
 O355 O 0.67811 0.71426 0.20016
 O356 O 0.76744 0.72488 0.18680
 O357 O 0.72103 0.67541 0.20404
 O358 O 0.72503 0.76405 0.18467
 Cu359 Cu 0.72565 0.72602 0.30567
 Cu360 Cu 0.72262 0.71914 0.18363
 C361 C 0.72577 0.78162 0.23250
 C362 C 0.72253 0.66365 0.25816
 C363 C 0.78408 0.72920 0.23501
 C364 C 0.66407 0.71489 0.25321
 O365 O 0.71975 0.23362 0.29889
 O366 O 0.80697 0.23087 0.28595
 O367 O 0.77133 0.27193 0.31657
 O368 O 0.75315 0.18941 0.24946
 O369 O 0.75277 0.21184 0.15645
 O370 O 0.77719 0.29207 0.22092
 O371 O 0.80856 0.24554 0.18719
 O372 O 0.72123 0.25418 0.20381
 Cu373 Cu 0.76253 0.22789 0.29566
 Cu374 Cu 0.76533 0.25305 0.18268
 C375 C 0.70568 0.24501 0.25459
 C376 C 0.82292 0.23817 0.23522
 C377 C 0.77778 0.29605 0.27899
 C378 C 0.74847 0.18699 0.19157
 O379 O 0.24474 0.78641 0.18907
 O380 O 0.23593 0.69864 0.22885
 O381 O 0.20799 0.73362 0.15243
 O382 O 0.27400 0.75032 0.26137
 O383 O 0.23777 0.75149 0.33854
 O384 O 0.17242 0.74321 0.22572
 O385 O 0.19659 0.70417 0.29778
 O386 O 0.21240 0.79248 0.27014
 Cu387 Cu 0.24422 0.74182 0.20008
 Cu388 Cu 0.20112 0.74881 0.29042
 C389 C 0.23061 0.80445 0.22437
 C390 C 0.21444 0.68657 0.26986
 C391 C 0.17904 0.73588 0.17021
 C392 C 0.26706 0.75206 0.31881
 O393 O 0.71754 0.22475 0.76829
 O394 O 0.78608 0.25532 0.86734
 O395 O 0.74273 0.28060 0.80984
 O396 O 0.75985 0.19752 0.83009
 O397 O 0.79554 0.20530 0.75072
 O398 O 0.77537 0.28720 0.72589
 O399 O 0.81956 0.26294 0.78459
 O400 O 0.75186 0.22921 0.68683
 Cu401 Cu 0.74815 0.23851 0.82718
 Cu402 Cu 0.78878 0.24670 0.72840
 C403 C 0.72309 0.22221 0.71045
 C404 C 0.81438 0.26467 0.84265
 C405 C 0.75589 0.29792 0.76420
 C406 C 0.78139 0.18769 0.79526
 O407 O 0.28018 0.77318 0.69697
 O408 O 0.20529 0.76184 0.79452
 O409 O 0.23456 0.72046 0.72287
 O410 O 0.24792 0.80865 0.75971
 O411 O 0.21939 0.81677 0.67821
 O412 O 0.20518 0.73008 0.64376
 O413 O 0.17573 0.76798 0.71344
 O414 O 0.25165 0.77999 0.61481
 Cu415 Cu 0.24449 0.76345 0.75075
 Cu416 Cu 0.21018 0.77416 0.65415
 C417 C 0.27889 0.77974 0.63975
 C418 C 0.17812 0.76437 0.77154
 C419 C 0.21733 0.71044 0.67725
 C420 C 0.23551 0.82764 0.72451
 O421 O 0.23338 0.27937 0.73119
 O422 O 0.31807 0.26386 0.71639
 O423 O 0.26007 0.22773 0.73918
 O424 O 0.28930 0.31541 0.71134
 O425 O 0.29317 0.32198 0.81236
 O426 O 0.26849 0.23387 0.83922
 O427 O 0.32381 0.27140 0.81677
 O428 O 0.23778 0.28309 0.83271
 Cu429 Cu 0.27509 0.27077 0.71427
 Cu430 Cu 0.28159 0.27843 0.83528
 C431 C 0.22109 0.28356 0.78459
 C432 C 0.33534 0.26501 0.76391
 C433 C 0.25915 0.21601 0.79392
 C434 C 0.29490 0.33379 0.75763
 O435 O 0.71802 0.75921 0.61586
 O436 O 0.77834 0.73477 0.71960
 O437 O 0.73461 0.70354 0.64949
 O438 O 0.76104 0.78909 0.69010
 O439 O 0.72474 0.78355 0.76852
 O440 O 0.69603 0.69888 0.72381
 O441 O 0.74082 0.72750 0.79599
 O442 O 0.68138 0.75509 0.69354
 Cu443 Cu 0.75150 0.74716 0.66057
 Cu444 Cu 0.70698 0.74070 0.75316
 C445 C 0.68962 0.76164 0.63702
 C446 C 0.76983 0.72706 0.77553
 C447 C 0.71078 0.68668 0.67973
 C448 C 0.74797 0.80061 0.73715
 N449 N 0.21573 0.14088 0.26590
 N450 N 0.21199 0.11063 0.23771
 C451 C 0.23512 0.11194 0.19152
 C452 C 0.25388 0.14306 0.18979
 C453 C 0.24085 0.16025 0.23651
 H454 H 0.27390 0.15264 0.15784
 H455 H 0.20101 0.14705 0.30269
 H456 H 0.19453 0.09088 0.25256
 N457 N 0.67028 0.63549 0.67658
 N458 N 0.66959 0.60533 0.65761
 C459 C 0.69936 0.60251 0.63342
 C460 C 0.71972 0.63232 0.63622
 C461 C 0.70033 0.65249 0.66392
 H462 H 0.74523 0.63830 0.62155
 H463 H 0.65051 0.64413 0.69801
 H464 H 0.64933 0.58688 0.66296
 N465 N 0.71024 0.83338 0.26798
 N466 N 0.71123 0.86463 0.24371
 C467 C 0.72727 0.86633 0.18783
 C468 C 0.73631 0.83624 0.17521
 C469 C 0.72494 0.81646 0.22601
 H470 H 0.74850 0.82911 0.13366
 H471 H 0.69867 0.82470 0.31006
 H472 H 0.70221 0.88320 0.26734
 N473 N 0.30274 0.39080 0.79457
 N474 N 0.30243 0.42004 0.77064
 C475 C 0.30168 0.41784 0.70849
 C476 C 0.30144 0.38576 0.69203
 C477 C 0.30172 0.36931 0.74815
 H478 H 0.29803 0.37541 0.64646
 H479 H 0.30158 0.38548 0.84206
 H480 H 0.30118 0.44081 0.79670
 N481 N 0.87450 0.24026 0.28447
 N482 N 0.90739 0.24638 0.26530
 C483 C 0.90892 0.24778 0.20277
 C484 C 0.87734 0.24342 0.18100
 C485 C 0.85666 0.23939 0.23343
 H486 H 0.87028 0.24474 0.13337
 H487 H 0.86588 0.23902 0.33066
 H488 H 0.92679 0.24827 0.29518
 N489 N 0.31223 0.80202 0.54587
 N490 N 0.34341 0.80752 0.52769
 C491 C 0.36113 0.79710 0.57266
 C492 C 0.34023 0.78446 0.62159
 C493 C 0.30953 0.78807 0.60273
 H494 H 0.34639 0.77394 0.66472
 H495 H 0.29326 0.80774 0.51961
 H496 H 0.35209 0.81725 0.48431
 N497 N 0.15730 0.71946 0.06749
 N498 N 0.12890 0.71535 0.04063
 C499 C 0.10600 0.72289 0.08133
 C500 C 0.12052 0.73230 0.13655
 C501 C 0.15300 0.72963 0.12576
 H502 H 0.10910 0.73961 0.17880
 H503 H 0.17915 0.71524 0.04612
 H504 H 0.12562 0.70801 -0.00515
 N505 N 0.69893 0.20087 0.61212
 N506 N 0.67031 0.19776 0.58606
 C507 C 0.64839 0.20749 0.62638
 C508 C 0.66377 0.21669 0.68097
 C509 C 0.69576 0.21221 0.66981
 H510 H 0.65367 0.22686 0.72180
 H511 H 0.72040 0.19615 0.58996
 H512 H 0.66646 0.19062 0.54032
 N513 N 0.82191 0.15033 0.79820
 N514 N 0.82377 0.12028 0.82554
 C515 C 0.79398 0.10811 0.85089
 C516 C 0.77287 0.13025 0.84088
 C517 C 0.79134 0.15625 0.80857
 H518 H 0.74778 0.12863 0.85765
 H519 H 0.84160 0.16603 0.77731
 H520 H 0.84467 0.10938 0.82380
 N521 N 0.18140 0.63338 0.30087
 N522 N 0.18646 0.60542 0.32469
 C523 C 0.21892 0.60593 0.32776
 C524 C 0.23522 0.63542 0.30345
 C525 C 0.21047 0.65203 0.28710
 H526 H 0.26119 0.64454 0.30228
 H527 H 0.15840 0.64002 0.29657
 H528 H 0.16786 0.58726 0.34204
 N529 N 0.22693 0.88324 0.69857
 N530 N 0.22866 0.91295 0.72795
 C531 C 0.24147 0.91015 0.78402
 C532 C 0.24875 0.87873 0.79075
 C533 C 0.23853 0.86262 0.73688
 H534 H 0.25758 0.86807 0.83139
 H535 H 0.21658 0.87793 0.65572
 H536 H 0.22151 0.93339 0.70782
 N537 N 0.80386 0.35364 0.26798
 N538 N 0.80394 0.38107 0.29795
 C539 C 0.78592 0.37475 0.35129
 C540 C 0.77424 0.34154 0.35574
 C541 C 0.78611 0.32923 0.30174
 H542 H 0.75787 0.32848 0.39103
 H543 H 0.81494 0.35195 0.22417
 H544 H 0.81473 0.40382 0.28001
 N545 N 0.17085 0.30036 0.74426
 N546 N 0.14102 0.30263 0.76522
 C547 C 0.13764 0.29245 0.82490
 C548 C 0.16675 0.28374 0.84300
 C549 C 0.18712 0.28914 0.79047
 H550 H 0.17223 0.27454 0.88780
 H551 H 0.17984 0.30652 0.69913
 H552 H 0.12319 0.31036 0.73853
 N553 N 0.60882 0.70797 0.20938
 N554 N 0.57869 0.70960 0.22927
 C555 C 0.57852 0.71390 0.29111
 C556 C 0.60988 0.71487 0.31148
 C557 C 0.62836 0.71139 0.25812
 H558 H 0.61848 0.71993 0.35768
 H559 H 0.61594 0.70575 0.16291
 H560 H 0.55889 0.70857 0.20049
 N561 N 0.78671 0.70300 0.87280
 N562 N 0.81421 0.69953 0.89901
 C563 C 0.83963 0.71247 0.86091
 C564 C 0.82766 0.72446 0.80781
 C565 C 0.79404 0.71792 0.81731
 H566 H 0.84140 0.73684 0.76847
 H567 H 0.76341 0.69556 0.89307
 H568 H 0.81535 0.68944 0.94319
 N569 N 0.32778 0.21762 0.44474
 N570 N 0.35554 0.21309 0.46865
 C571 C 0.38016 0.22272 0.42659
 C572 C 0.36743 0.23371 0.37344
 C573 C 0.33417 0.22998 0.38692
 H574 H 0.38045 0.24322 0.33108
 H575 H 0.30495 0.21238 0.46787
 H576 H 0.35748 0.20430 0.51359
 N577 N 0.78791 0.85183 0.73076
 N578 N 0.79425 0.88054 0.76390
 C579 C 0.77059 0.87967 0.80898
 C580 C 0.74889 0.85044 0.80510
 C581 C 0.76075 0.83384 0.75619
 H582 H 0.72783 0.84154 0.83515
 H583 H 0.80262 0.84546 0.69414
 H584 H 0.81363 0.89922 0.75270
 N585 N 0.31971 0.36445 0.28933
 N586 N 0.32123 0.39407 0.31148
 C587 C 0.29605 0.39436 0.35285
 C588 C 0.27792 0.36316 0.35726
 C589 C 0.29371 0.34510 0.31611
 H590 H 0.25588 0.35475 0.38503
 H591 H 0.33629 0.35775 0.25633
 H592 H 0.33950 0.41344 0.29815
 N593 N 0.21547 0.16793 0.79136
 N594 N 0.20903 0.13709 0.81923
 C595 C 0.23596 0.13233 0.84900
 C596 C 0.25965 0.16011 0.84156
 C597 C 0.24580 0.18165 0.80581
 H598 H 0.28338 0.16484 0.86184
 H599 H 0.19865 0.17885 0.76736
 H600 H 0.18743 0.12066 0.81455
 N601 N 0.71647 0.60600 0.22357
 N602 N 0.71901 0.57743 0.24843
 C603 C 0.72716 0.58177 0.30807
 C604 C 0.72961 0.61437 0.32181
 C605 C 0.72264 0.62882 0.26721
 H606 H 0.73552 0.62603 0.36549
 H607 H 0.71065 0.60965 0.17765
 H608 H 0.71572 0.55557 0.22442
 N609 N 0.15310 0.78006 0.86939
 N610 N 0.12188 0.78120 0.89392
 C611 C 0.10013 0.76691 0.85339
 C612 C 0.11708 0.75686 0.80202
 C613 C 0.15000 0.76585 0.81386
 H614 H 0.10698 0.74533 0.76073
 H615 H 0.17478 0.79008 0.88993
 H616 H 0.11715 0.78971 0.93809
 N617 N 0.64975 0.24668 0.21697
 N618 N 0.61994 0.24508 0.24200
 C619 C 0.62178 0.24499 0.30424
 C620 C 0.65398 0.24630 0.31946
 C621 C 0.67089 0.24716 0.26295
 H622 H 0.66360 0.24542 0.36527
 H623 H 0.65523 0.24628 0.16940
 H624 H 0.59881 0.24388 0.21677
 N625 N 0.83839 0.28592 0.94126
 N626 N 0.86780 0.29421 0.96338
 C627 C 0.89040 0.29071 0.91847
 C628 C 0.87451 0.28001 0.86522
 C629 C 0.84165 0.27720 0.88180
 H630 H 0.88520 0.27387 0.82135
 H631 H 0.81656 0.28565 0.96700
 H632 H 0.87206 0.30070 1.00933
 N633 N 0.28872 0.74460 0.42320
 N634 N 0.31745 0.74287 0.44622
 C635 C 0.34072 0.75053 0.40086
 C636 C 0.32624 0.75735 0.34674
 C637 C 0.29327 0.75306 0.36272
 H638 H 0.33787 0.76282 0.30130
 H639 H 0.26640 0.73873 0.44795
 H640 H 0.32089 0.73627 0.49202
 N641 N 0.23668 0.86151 0.25941
 N642 N 0.24142 0.89108 0.23467
 C643 C 0.24286 0.88875 0.17246
 C644 C 0.23936 0.85616 0.15673
 C645 C 0.23562 0.83978 0.21351
 H646 H 0.23914 0.84591 0.11086
 H647 H 0.23440 0.85641 0.30699
 H648 H 0.24290 0.91242 0.26012
 N649 N 0.72695 0.34356 0.79296
 N650 N 0.72312 0.37199 0.76946
 C651 C 0.74157 0.37767 0.71653
 C652 C 0.75799 0.35171 0.70610
 C653 C 0.74779 0.33056 0.75540
 H654 H 0.77377 0.34797 0.66673
 H655 H 0.71491 0.33307 0.83339
 H656 H 0.70792 0.38697 0.78945
 N657 N 0.71577 0.15300 0.11650
 N658 N 0.71176 0.12290 0.09651
 C659 C 0.73004 0.10577 0.12997
 C660 C 0.74615 0.12597 0.17410
 C661 C 0.73635 0.15570 0.16353
 H662 H 0.76379 0.12043 0.20654
 H663 H 0.70521 0.17161 0.09692
 H664 H 0.69808 0.11498 0.05829
 N665 N 0.18189 0.66144 0.64025
 N666 N 0.18444 0.63158 0.62348
 C667 C 0.21502 0.62614 0.63369
 C668 C 0.23237 0.65403 0.65963
 C669 C 0.21044 0.67574 0.66241
 H670 H 0.25789 0.65893 0.67062
 H671 H 0.16105 0.67207 0.63506
 H672 H 0.16548 0.61597 0.60372
 N673 N 0.83906 0.72559 0.27460
 N674 N 0.86865 0.72482 0.25042
 C675 C 0.86841 0.73026 0.18879
 C676 C 0.83746 0.73455 0.17304
 C677 C 0.81957 0.73120 0.22857
 H678 H 0.82874 0.73786 0.12714
 H679 H 0.83217 0.72105 0.32129
 H680 H 0.88841 0.72025 0.27573
 N681 N 0.38622 0.25011 0.80547
 N682 N 0.41473 0.24415 0.78341
 C683 C 0.41628 0.24889 0.72145
 C684 C 0.38736 0.25796 0.70321
 C685 C 0.36897 0.25836 0.75788
 H686 H 0.38047 0.26302 0.65669
 H687 H 0.37862 0.24802 0.85221
 H688 H 0.43280 0.23725 0.81058
 N689 N 0.20950 0.29152 0.11038
 N690 N 0.18210 0.29666 0.08589
 C691 C 0.15683 0.28455 0.12491
 C692 C 0.16869 0.27126 0.17675
 C693 C 0.20221 0.27632 0.16566
 H694 H 0.15494 0.25959 0.21675
 H695 H 0.23274 0.29846 0.08953
 H696 H 0.18083 0.30768 0.04257
 N697 N 0.67219 0.77989 0.53509
 N698 N 0.64510 0.78601 0.51063
 C699 C 0.62083 0.78194 0.55487
 C700 C 0.63337 0.77294 0.61003
 C701 C 0.66586 0.77181 0.59532
 H702 H 0.62066 0.76712 0.65438
 H703 H 0.69439 0.78057 0.51036
 H704 H 0.64333 0.79165 0.46379
   
