data_POSCAR
  _audit_creation_date              2014-09-24
  _audit_creation_method            'ToBaCCo'
  _symmetry_space_group_name_H-M    'P1'
  _symmetry_Int_Tables_number       1
  _symmetry_cell_setting            triclinic
  loop_
  _symmetry_equiv_pos_as_xyz
 x,y,z
_cell_length_a 28.1162
_cell_length_b 27.6874
_cell_length_c 34.2246
_cell_angle_alpha 88.806900
_cell_angle_beta 90.045900
_cell_angle_gamma 82.438100
loop_
  _atom_site_label
  _atom_site_type_symbol
  _atom_site_fract_x
  _atom_site_fract_y
  _atom_site_fract_z
C1 C 1.20867 0.22840 0.20830
 C2 C 1.24140 0.25796 0.18481
 C3 C 1.26724 0.28514 0.20732
 C4 C 1.25786 0.28051 0.25154
 C5 C 1.24174 0.19805 0.23777
 C6 C 1.26741 0.22533 0.26042
 C7 C 1.17730 0.26560 0.23286
 C8 C 1.20298 0.29278 0.25563
 H9 H 1.24439 0.25698 0.15316
 H10 H 1.27889 0.30283 0.26983
 H11 H 1.24298 0.15885 0.24169
 H12 H 1.13855 0.26716 0.23481
 C13 C 0.70749 -0.26495 0.20311
 C14 C 0.74095 -0.23605 0.17988
 C15 C 0.76818 -0.21078 0.20277
 C16 C 0.75944 -0.21651 0.24690
 C17 C 0.74002 -0.29728 0.23168
 C18 C 0.76699 -0.27184 0.25466
 C19 C 0.67770 -0.22770 0.22873
 C20 C 0.70501 -0.20252 0.25186
 H21 H 0.74329 -0.23593 0.14817
 H22 H 0.78176 -0.19574 0.26541
 H23 H 0.73896 -0.33619 0.23559
 H24 H 0.63904 -0.22581 0.23191
 C25 C 0.71218 0.22042 -0.29191
 C26 C 0.73952 0.25135 -0.31542
 C27 C 0.76796 0.27939 -0.29244
 C28 C 0.76368 0.27128 -0.25025
 C29 C 0.74725 0.19038 -0.26732
 C30 C 0.77572 0.21855 -0.24428
 C31 C 0.68363 0.25293 -0.26537
 C32 C 0.71215 0.28103 -0.24228
 H33 H 0.73917 0.25282 -0.34722
 H34 H 0.78589 0.29328 -0.23258
 H35 H 0.74870 0.15108 -0.26369
 H36 H 0.64542 0.25263 -0.26055
 C37 C 1.20694 -0.28829 -0.29308
 C38 C 1.23710 -0.25920 -0.31965
 C39 C 1.26613 -0.23259 -0.29957
 C40 C 1.26240 -0.23736 -0.25484
 C41 C 1.24306 -0.31923 -0.26629
 C42 C 1.27196 -0.29250 -0.24626
 C43 C 1.17959 -0.25067 -0.26632
 C44 C 1.20867 -0.22414 -0.24622
 H45 H 1.23549 -0.25942 -0.35137
 H46 H 1.28616 -0.21559 -0.23865
 H47 H 1.24309 -0.35811 -0.26116
 H48 H 1.14123 -0.24826 -0.26108
 C49 C 0.22817 0.22292 0.79084
 C50 C 0.25207 0.25527 0.81444
 C51 C 0.28285 0.28260 0.79251
 C52 C 0.28420 0.27277 0.75076
 C53 C 0.20181 0.25523 0.75847
 C54 C 0.23135 0.28124 0.73725
 C55 C 0.26825 0.19097 0.76951
 C56 C 0.29745 0.21710 0.74821
 H57 H 0.24914 0.25671 0.84609
 H58 H 0.30820 0.29422 0.73379
 H59 H 0.16448 0.25415 0.75072
 H60 H 0.26918 0.15178 0.76694
 C61 C 0.72971 0.71636 0.79353
 C62 C 0.75791 0.74539 0.81703
 C63 C 0.78370 0.77704 0.79409
 C64 C 0.77639 0.77366 0.75184
 C65 C 0.69854 0.75114 0.76938
 C66 C 0.72427 0.78272 0.74622
 C67 C 0.76346 0.69017 0.76653
 C68 C 0.78927 0.72192 0.74332
 H69 H 0.75980 0.74325 0.84879
 H70 H 0.79652 0.79845 0.73422
 H71 H 0.66037 0.74953 0.76537
 H72 H 0.76462 0.65155 0.76075
 C73 C 0.72916 0.20833 0.29211
 C74 C 0.75981 0.23653 0.31776
 C75 C 0.78748 0.26466 0.29708
 C76 C 0.78187 0.26226 0.25232
 C77 C 0.70002 0.24679 0.26591
 C78 C 0.72752 0.27485 0.24485
 C79 C 0.76443 0.17922 0.26465
 C80 C 0.79193 0.20750 0.24372
 H81 H 0.75952 0.23460 0.34951
 H82 H 0.80448 0.28535 0.23555
 H83 H 0.66160 0.24821 0.26126
 H84 H 0.76463 0.14056 0.25961
 C85 C 0.23408 0.71527 0.29982
 C86 C 0.26377 0.74998 0.31971
 C87 C 0.28698 0.77717 0.29442
 C88 C 0.27850 0.76725 0.25097
 C89 C 0.20016 0.74756 0.27189
 C90 C 0.22349 0.77463 0.24618
 C91 C 0.26918 0.68455 0.27304
 C92 C 0.29224 0.71178 0.24729
 H93 H 0.26662 0.75253 0.35127
 H94 H 0.29764 0.78953 0.23042
 H95 H 0.16170 0.74644 0.27067
 H96 H 0.27196 0.64509 0.27190
 O97 O 1.08973 0.04813 0.02452
 O98 O 0.91571 -0.05287 0.02366
 O99 O 0.94053 0.09314 0.02219
 O100 O 1.06442 -0.09837 0.02727
 O101 O 0.91870 0.02779 0.04432
 O102 O 1.08628 -0.03274 0.04714
 O103 O 0.98241 -0.08368 0.04786
 O104 O 1.02150 0.07926 0.04504
 C105 C 1.06535 0.07163 0.04998
 C106 C 0.93854 -0.07419 0.05163
 C107 C 0.92249 0.07106 0.04929
 C108 C 1.08368 -0.07635 0.05321
 O109 O 1.09803 -0.06438 -0.02769
 O110 O 0.90841 0.05954 -0.03175
 O111 O 1.05188 0.08677 -0.02990
 O112 O 0.95456 -0.09177 -0.02853
 O113 O 0.92405 -0.02311 -0.05213
 O114 O 1.08390 0.01864 -0.05087
 O115 O 1.03412 -0.08757 -0.04867
 O116 O 0.97289 0.08224 -0.05271
 Co117 Co 1.08112 -0.00714 -0.00189
 Co118 Co 0.92500 0.00241 -0.00386
 Co119 Co 0.99723 0.07687 -0.00371
 Co120 Co 1.00831 -0.08184 -0.00061
 O121 O 1.00295 -0.00243 -0.00254
 C122 C 1.07669 -0.08340 -0.05409
 C123 C 0.92998 0.07959 -0.05806
 C124 C 1.07519 0.06324 -0.05581
 C125 C 0.93230 -0.06774 -0.05573
 O126 O 1.05740 0.51402 0.55535
 O127 O 0.90119 0.45249 0.52882
 O128 O 0.93907 0.60024 0.52408
 O129 O 1.05155 0.42612 0.54503
 O130 O 0.89847 0.54162 0.54375
 O131 O 1.11357 0.45400 0.51897
 O132 O 0.96828 0.42667 0.55575
 O133 O 1.02600 0.58565 0.53434
 C134 C 1.04769 0.55877 0.56082
 C135 C 0.92395 0.43227 0.55723
 C136 C 0.90991 0.58356 0.54769
 C137 C 1.09692 0.42184 0.54150
 O138 O 1.06824 0.47626 0.45458
 O139 O 0.89168 0.56271 0.47053
 O140 O 1.03603 0.56687 0.45511
 O141 O 0.95294 0.40885 0.47794
 O142 O 0.90642 0.47315 0.45496
 O143 O 1.09340 0.54496 0.49241
 O144 O 1.03872 0.41063 0.46698
 O145 O 0.95641 0.57975 0.44588
 Co146 Co 1.05976 0.49374 0.50499
 Co147 Co 0.90788 0.50698 0.49952
 Co148 Co 0.98936 0.57717 0.49090
 Co149 Co 1.00163 0.42534 0.51026
 O150 O 0.98683 0.50314 0.50038
 C151 C 1.06230 0.43474 0.44470
 C152 C 0.91277 0.58118 0.44343
 C153 C 1.07833 0.56959 0.46324
 C154 C 0.92307 0.42900 0.45260
 O155 O 0.58521 0.04858 0.52552
 O156 O 0.40646 -0.05088 0.52702
 O157 O 0.43720 0.09396 0.52763
 O158 O 0.55489 -0.09702 0.53417
 O159 O 0.41252 0.02950 0.54950
 O160 O 0.57938 -0.03097 0.55135
 O161 O 0.47259 -0.08163 0.55207
 O162 O 0.51839 0.07938 0.54792
 C163 C 0.56230 0.07183 0.55172
 C164 C 0.42849 -0.07410 0.55452
 C165 C 0.41902 0.07212 0.55489
 C166 C 0.57618 -0.07424 0.55855
 O167 O 0.59075 -0.06680 0.47882
 O168 O 0.40132 0.06314 0.47438
 O169 O 0.54582 0.08484 0.47099
 O170 O 0.44702 -0.08871 0.47473
 O171 O 0.41552 -0.01940 0.45239
 O172 O 0.57715 0.01505 0.45231
 O173 O 0.52712 -0.08782 0.45649
 O174 O 0.46605 0.08234 0.45141
 Co175 Co 0.57457 -0.00785 0.50189
 Co176 Co 0.41758 0.00496 0.50093
 Co177 Co 0.49226 0.07700 0.49976
 Co178 Co 0.50011 -0.08064 0.50419
 O179 O 0.49614 -0.00165 0.50171
 C180 C 0.56983 -0.08437 0.45161
 C181 C 0.42260 0.08211 0.44737
 C182 C 0.56901 0.05938 0.44596
 C183 C 0.42552 -0.06375 0.44757
 O184 O 0.58809 0.54835 0.02482
 O185 O 0.41329 0.44601 0.02688
 O186 O 0.43929 0.59218 0.02563
 O187 O 0.56212 0.40161 0.03125
 O188 O 0.41739 0.52684 0.04810
 O189 O 0.58498 0.46797 0.04919
 O190 O 0.47994 0.41562 0.05123
 O191 O 0.52027 0.57833 0.04638
 C192 C 0.56416 0.57204 0.05034
 C193 C 0.43598 0.42451 0.05483
 C194 C 0.42114 0.57020 0.05286
 C195 C 0.58287 0.42439 0.05588
 O196 O 0.59617 0.43400 -0.02438
 O197 O 0.40572 0.55895 -0.02762
 O198 O 0.54891 0.58527 -0.02976
 O199 O 0.45265 0.40749 -0.02555
 O200 O 0.42091 0.47634 -0.04838
 O201 O 0.58099 0.51637 -0.04943
 O202 O 0.53259 0.41032 -0.04528
 O203 O 0.46988 0.57983 -0.05033
 Co204 Co 0.57902 0.49216 -0.00003
 Co205 Co 0.42270 0.50161 -0.00020
 Co206 Co 0.49510 0.57547 -0.00180
 Co207 Co 0.50625 0.41714 0.00274
 O208 O 0.50080 0.49655 0.00018
 C209 C 0.57525 0.41426 -0.05057
 C210 C 0.42690 0.57743 -0.05493
 C211 C 0.57329 0.56093 -0.05478
 C212 C 0.43005 0.43183 -0.05248
 C213 C 1.13525 0.14597 0.13724
 C214 C 1.16188 0.11107 0.11424
 C215 C 1.13883 0.08568 0.08672
 C216 C 1.18135 0.19897 0.18385
 C217 C 1.06204 0.12891 0.10598
 C218 C 1.08524 0.15438 0.13349
 C219 C 1.15976 0.17471 0.16310
 C220 C 1.08879 0.09498 0.08181
 H221 H 1.20060 0.10428 0.11696
 H222 H 1.16031 0.05958 0.06867
 H223 H 1.02344 0.13677 0.10286
 H224 H 1.06433 0.18136 0.15117
 C225 C 1.11900 0.63177 0.64700
 C226 C 1.07876 0.65616 0.62765
 C227 C 1.05296 0.63121 0.60174
 C228 C 1.17549 0.68283 0.68597
 C229 C 1.10567 0.55644 0.61647
 C230 C 1.13158 0.58159 0.64233
 C231 C 1.14956 0.65918 0.66874
 C232 C 1.06723 0.58152 0.59484
 H233 H 1.06867 0.69497 0.63117
 H234 H 1.02348 0.65143 0.58552
 H235 H 1.11765 0.51825 0.61154
 H236 H 1.16270 0.56240 0.65723
 C237 C 0.63624 0.14243 0.63889
 C238 C 0.66168 0.10828 0.61455
 C239 C 0.63736 0.08429 0.58691
 C240 C 0.68487 0.19324 0.68542
 C241 C 0.56168 0.12749 0.60865
 C242 C 0.58615 0.15157 0.63627
 C243 C 0.66207 0.16988 0.66483
 C244 C 0.58720 0.09425 0.58323
 H245 H 0.70045 0.10097 0.61633
 H246 H 0.65792 0.05866 0.56789
 H247 H 0.52302 0.13579 0.60650
 H248 H 0.56615 0.17804 0.65495
 C249 C 0.63346 0.65249 0.13335
 C250 C 0.58335 0.65841 0.13115
 C251 C 0.56048 0.63088 0.10503
 C252 C 0.67913 0.70695 0.17865
 C253 C 0.63792 0.59066 0.08412
 C254 C 0.66066 0.61813 0.11027
 C255 C 0.65745 0.68249 0.15831
 C256 C 0.58767 0.59739 0.08078
 H257 H 0.56207 0.68487 0.14905
 H258 H 0.52168 0.63674 0.10305
 H259 H 0.65970 0.56497 0.06592
 H260 H 0.69949 0.61324 0.11195
 C261 C 0.85948 -0.13338 0.14375
 C262 C 0.90858 -0.14957 0.13976
 C263 C 0.93533 -0.12880 0.11089
 C264 C 0.80254 -0.18240 0.18575
 C265 C 0.86414 -0.07477 0.09089
 C266 C 0.83769 -0.09521 0.11984
 C267 C 0.82971 -0.15961 0.16827
 C268 C 0.91289 -0.09219 0.08544
 H269 H 0.92569 -0.17945 0.15787
 H270 H 0.97286 -0.14281 0.10733
 H271 H 0.84604 -0.04628 0.07197
 H272 H 0.79968 -0.08264 0.12245
 C273 C 0.84785 0.36393 0.64700
 C274 C 0.89803 0.35493 0.64563
 C275 C 0.92322 0.37855 0.61733
 C276 C 0.79689 0.30946 0.69023
 C277 C 0.84813 0.42111 0.59240
 C278 C 0.82312 0.39769 0.62075
 C279 C 0.82105 0.33493 0.67202
 C280 C 0.89836 0.41104 0.58983
 H281 H 0.91755 0.32852 0.66556
 H282 H 0.96190 0.37008 0.61608
 H283 H 0.82800 0.44618 0.57183
 H284 H 0.78429 0.40469 0.62130
 C285 C 0.34956 -0.14789 0.63888
 C286 C 0.39966 -0.15842 0.63748
 C287 C 0.42591 -0.13302 0.61112
 C288 C 0.29693 -0.20225 0.68070
 C289 C 0.35205 -0.08564 0.58837
 C290 C 0.32600 -0.11088 0.61475
 C291 C 0.32166 -0.17726 0.66259
 C292 C 0.40217 -0.09713 0.58568
 H293 H 0.41827 -0.18714 0.65592
 H294 H 0.46446 -0.14264 0.60968
 H295 H 0.33280 -0.05801 0.56932
 H296 H 0.28726 -0.10248 0.61550
 C297 C 0.35695 0.36347 0.14660
 C298 C 0.33472 0.40099 0.12225
 C299 C 0.36104 0.42193 0.09339
 C300 C 0.30095 0.31412 0.18971
 C301 C 0.43290 0.36953 0.11410
 C302 C 0.40631 0.34830 0.14291
 C303 C 0.32760 0.33712 0.17166
 C304 C 0.41015 0.40567 0.08837
 H305 H 0.29655 0.41284 0.12457
 H306 H 0.34261 0.45000 0.07426
 H307 H 0.47068 0.35633 0.11092
 H308 H 0.42385 0.31896 0.16132
 C309 C 0.85340 0.15290 -0.15539
 C310 C 0.82984 0.12520 -0.12884
 C311 C 0.85493 0.10086 -0.09743
 C312 C 0.80359 0.19771 -0.21422
 C313 C 0.92764 0.13141 -0.11922
 C314 C 0.90240 0.15579 -0.15064
 C315 C 0.82701 0.17788 -0.18752
 C316 C 0.90403 0.10395 -0.09215
 H317 H 0.79197 0.12253 -0.13236
 H318 H 0.83585 0.07985 -0.07717
 H319 H 0.96545 0.13440 -0.11590
 H320 H 0.92102 0.17697 -0.17112
 C321 C 0.83831 0.65918 0.34765
 C322 C 0.81245 0.63678 0.37618
 C323 C 0.83655 0.61098 0.40745
 C324 C 0.79308 0.70536 0.28760
 C325 C 0.91233 0.62994 0.38137
 C326 C 0.88821 0.65565 0.35025
 C327 C 0.81385 0.68480 0.31515
 C328 C 0.88675 0.60741 0.41033
 H329 H 0.77375 0.63918 0.37421
 H330 H 0.81602 0.59396 0.42931
 H331 H 0.95104 0.62782 0.38279
 H332 H 0.90848 0.67269 0.32818
 C333 C 0.34564 0.15856 0.35154
 C334 C 0.32133 0.13327 0.37931
 C335 C 0.34645 0.10801 0.41033
 C336 C 0.29642 0.20376 0.29255
 C337 C 0.42054 0.13294 0.38576
 C338 C 0.39531 0.15821 0.35474
 C339 C 0.31946 0.18386 0.31943
 C340 C 0.39629 0.10773 0.41396
 H341 H 0.28292 0.13306 0.37696
 H342 H 0.32685 0.08883 0.43151
 H343 H 0.45894 0.13333 0.38779
 H344 H 0.41451 0.17744 0.33329
 C345 C 0.35093 0.64443 -0.15458
 C346 C 0.39997 0.64719 -0.15031
 C347 C 0.42491 0.62495 -0.11799
 C348 C 0.30165 0.68636 -0.21454
 C349 C 0.35177 0.59685 -0.09433
 C350 C 0.32694 0.61906 -0.12667
 C351 C 0.32487 0.66760 -0.18743
 C352 C 0.40093 0.59983 -0.08957
 H353 H 0.41883 0.66666 -0.17184
 H354 H 0.46282 0.62772 -0.11508
 H355 H 0.33249 0.57754 -0.07300
 H356 H 0.28899 0.61663 -0.12985
 C357 C 1.14909 -0.14678 -0.15458
 C358 C 1.17480 -0.12405 -0.12688
 C359 C 1.15125 -0.10273 -0.09421
 C360 C 1.19050 -0.19442 -0.21417
 C361 C 1.07631 -0.12650 -0.11733
 C362 C 1.09981 -0.14761 -0.14985
 C363 C 1.17291 -0.17159 -0.18703
 C364 C 1.10185 -0.10428 -0.08895
 H365 H 1.21301 -0.12336 -0.13024
 H366 H 1.17172 -0.08561 -0.07291
 H367 H 1.03819 -0.12805 -0.11421
 H368 H 1.07963 -0.16525 -0.17106
 C369 C 1.13269 0.36889 0.34409
 C370 C 1.10005 0.34468 0.36527
 C371 C 1.07592 0.36678 0.39726
 C372 C 1.18000 0.32209 0.28637
 C373 C 1.11600 0.43823 0.38646
 C374 C 1.14020 0.41597 0.35445
 C375 C 1.15901 0.34451 0.31243
 C376 C 1.08413 0.41352 0.40854
 H377 H 1.09383 0.30830 0.35745
 H378 H 1.05157 0.34687 0.41363
 H379 H 1.12315 0.47422 0.39451
 H380 H 1.16529 0.43511 0.33823
 C381 C 0.64198 -0.13715 0.34766
 C382 C 0.66741 -0.11624 0.37662
 C383 C 0.64403 -0.09898 0.41065
 C384 C 0.68449 -0.17671 0.28515
 C385 C 0.56979 -0.12334 0.38656
 C386 C 0.59316 -0.14050 0.35267
 C387 C 0.66593 -0.15751 0.31355
 C388 C 0.59505 -0.10270 0.41602
 H389 H 0.70529 -0.11369 0.37306
 H390 H 0.66423 -0.08289 0.43275
 H391 H 0.53197 -0.12640 0.38976
 H392 H 0.57322 -0.15683 0.33050
 C393 C 0.64985 0.35023 -0.15015
 C394 C 0.67434 0.37509 -0.12300
 C395 C 0.65009 0.39625 -0.09058
 C396 C 0.69319 0.30611 -0.21077
 C397 C 0.57676 0.36798 -0.11263
 C398 C 0.60102 0.34693 -0.14492
 C399 C 0.67448 0.32696 -0.18303
 C400 C 0.60109 0.39262 -0.08496
 H401 H 0.71214 0.37786 -0.12676
 H402 H 0.66966 0.41524 -0.06987
 H403 H 0.53901 0.36473 -0.10921
 H404 H 0.58171 0.32775 -0.16572
 C405 C 1.14499 0.14195 -0.14266
 C406 C 1.15756 0.09144 -0.13829
 C407 C 1.13345 0.06501 -0.11118
 C408 C 1.19724 0.19418 -0.18649
 C409 C 1.08324 0.13945 -0.09378
 C410 C 1.10721 0.16568 -0.12090
 C411 C 1.17294 0.17014 -0.16714
 C412 C 1.09684 0.08907 -0.08798
 H413 H 1.18687 0.07277 -0.15499
 H414 H 1.14462 0.02624 -0.10731
 H415 H 1.05491 0.15889 -0.07654
 H416 H 1.09723 0.20473 -0.12404
 C417 C 1.16244 0.64091 0.38114
 C418 C 1.11257 0.64570 0.37779
 C419 C 1.08571 0.62314 0.40515
 C420 C 1.20962 0.68680 0.32829
 C421 C 1.15841 0.59096 0.44014
 C422 C 1.18544 0.61376 0.41249
 C423 C 1.18906 0.66502 0.35248
 C424 C 1.10824 0.59528 0.43648
 H425 H 1.09435 0.66682 0.35388
 H426 H 1.04710 0.62724 0.40153
 H427 H 1.17661 0.56957 0.46388
 H428 H 1.22412 0.61006 0.41545
 C429 C 0.64395 0.12988 0.35796
 C430 C 0.60654 0.15636 0.37840
 C431 C 0.58057 0.13283 0.40584
 C432 C 0.69919 0.17859 0.31442
 C433 C 0.62796 0.05567 0.39108
 C434 C 0.65406 0.07939 0.36368
 C435 C 0.67402 0.15548 0.33358
 C436 C 0.59189 0.08251 0.41316
 H437 H 0.59851 0.19548 0.37409
 H438 H 0.55271 0.15428 0.42224
 H439 H 0.63732 0.01683 0.39614
 H440 H 0.68305 0.05868 0.34794
 C441 C 0.65128 0.63529 -0.13931
 C442 C 0.66120 0.58457 -0.13470
 C443 C 0.63448 0.55974 -0.10833
 C444 C 0.70401 0.68626 -0.18403
 C445 C 0.58712 0.63624 -0.09201
 C446 C 0.61369 0.66087 -0.11839
 C447 C 0.68048 0.66191 -0.16411
 C448 C 0.59779 0.58555 -0.08614
 H449 H 0.69018 0.56441 -0.15081
 H450 H 0.64354 0.52069 -0.10436
 H451 H 0.55896 0.65706 -0.07549
 H452 H 0.60561 0.70009 -0.12180
 C453 C 0.86520 -0.14224 -0.14531
 C454 C 0.85448 -0.09157 -0.14226
 C455 C 0.87763 -0.06680 -0.11410
 C456 C 0.81256 -0.19346 -0.18853
 C457 C 0.92321 -0.14313 -0.09263
 C458 C 0.90023 -0.16772 -0.12084
 C459 C 0.83709 -0.16908 -0.17028
 C460 C 0.91145 -0.09256 -0.08836
 H461 H 0.82717 -0.07144 -0.16078
 H462 H 0.86784 -0.02783 -0.11156
 H463 H 0.94930 -0.16394 -0.07345
 H464 H 0.90866 -0.20694 -0.12267
 C465 C 0.86664 0.34614 0.36277
 C466 C 0.85406 0.39663 0.36386
 C467 C 0.87339 0.42355 0.39253
 C468 C 0.81804 0.29419 0.31701
 C469 C 0.91931 0.34972 0.41871
 C470 C 0.89977 0.32279 0.38995
 C471 C 0.84151 0.31799 0.33669
 C472 C 0.90555 0.40032 0.42078
 H473 H 0.82816 0.41506 0.34325
 H474 H 0.86225 0.46249 0.39306
 H475 H 0.94413 0.33083 0.43987
 H476 H 0.90944 0.28361 0.38963
 C477 C 0.36796 -0.13609 0.35214
 C478 C 0.35384 -0.08618 0.35723
 C479 C 0.37399 -0.06187 0.38735
 C480 C 0.31731 -0.18929 0.30938
 C481 C 0.42336 -0.13705 0.40659
 C482 C 0.40349 -0.16112 0.37638
 C483 C 0.34124 -0.16358 0.32674
 C484 C 0.40794 -0.08749 0.41303
 H485 H 0.32589 -0.06656 0.33904
 H486 H 0.36155 -0.02362 0.39154
 H487 H 0.44976 -0.15763 0.42564
 H488 H 0.41430 -0.19985 0.37307
 C489 C 0.36492 0.35943 -0.14414
 C490 C 0.39878 0.33312 -0.11913
 C491 C 0.42118 0.35697 -0.09012
 C492 C 0.31229 0.31040 -0.18899
 C493 C 0.37725 0.43407 -0.11189
 C494 C 0.35475 0.41007 -0.14084
 C495 C 0.33704 0.33357 -0.16992
 C496 C 0.40987 0.40755 -0.08562
 H497 H 0.40670 0.29389 -0.12118
 H498 H 0.44638 0.33563 -0.07053
 H499 H 0.36791 0.47308 -0.10922
 H500 H 0.32830 0.43078 -0.15980
 C501 C 1.15364 -0.15137 0.15333
 C502 C 1.15500 -0.10139 0.14738
 C503 C 1.13183 -0.07693 0.11504
 C504 C 1.19901 -0.19845 0.21372
 C505 C 1.10537 -0.15227 0.09443
 C506 C 1.12857 -0.17667 0.12684
 C507 C 1.17834 -0.17677 0.18632
 C508 C 1.10699 -0.10216 0.08804
 H509 H 1.17419 -0.08134 0.16763
 H510 H 1.13369 -0.03831 0.11101
 H511 H 1.08642 -0.17266 0.07428
 H512 H 1.12716 -0.21533 0.13113
 C513 C 1.17735 0.34565 0.63535
 C514 C 1.13263 0.33314 0.62465
 C515 C 1.10786 0.35625 0.59267
 C516 C 1.21551 0.30567 0.70097
 C517 C 1.17343 0.40320 0.58045
 C518 C 1.19820 0.38009 0.61278
 C519 C 1.19977 0.32453 0.67072
 C520 C 1.12745 0.39226 0.57072
 H521 H 1.11615 0.30653 0.64181
 H522 H 1.07250 0.34711 0.58596
 H523 H 1.18921 0.43111 0.56430
 H524 H 1.23282 0.39009 0.62081
 C525 C 0.65459 -0.14621 0.65561
 C526 C 0.65458 -0.09624 0.64887
 C527 C 0.62840 -0.07276 0.61763
 C528 C 0.70245 -0.19160 0.71520
 C529 C 0.60159 -0.14913 0.59989
 C530 C 0.62784 -0.17256 0.63122
 C531 C 0.68130 -0.17040 0.68794
 C532 C 0.60185 -0.09902 0.59264
 H533 H 0.67490 -0.07545 0.66769
 H534 H 0.62930 -0.03409 0.61284
 H535 H 0.58146 -0.17025 0.58121
 H536 H 0.62738 -0.21124 0.63635
 C537 C 0.66131 0.35136 0.15249
 C538 C 0.63489 0.32530 0.12761
 C539 C 0.60885 0.34908 0.09637
 C540 C 0.70699 0.30424 0.21230
 C541 C 0.63530 0.42530 0.11499
 C542 C 0.66131 0.40142 0.14621
 C543 C 0.68713 0.32662 0.18500
 C544 C 0.60894 0.39931 0.08965
 H545 H 0.63438 0.28656 0.13240
 H546 H 0.58886 0.32816 0.07742
 H547 H 0.63605 0.46405 0.11058
 H548 H 0.68135 0.42200 0.16542
 C549 C 0.86383 0.14465 0.15075
 C550 C 0.86119 0.09492 0.14651
 C551 C 0.88063 0.07087 0.11361
 C552 C 0.81981 0.18802 0.21111
 C553 C 0.90607 0.14622 0.08917
 C554 C 0.88653 0.17025 0.12217
 C555 C 0.84098 0.16933 0.18361
 C556 C 0.90286 0.09639 0.08442
 H557 H 0.84353 0.07484 0.16843
 H558 H 0.87787 0.03244 0.11086
 H559 H 0.92330 0.16666 0.06725
 H560 H 0.88861 0.20879 0.12515
 C561 C 0.85037 0.66430 0.64622
 C562 C 0.83435 0.62050 0.63622
 C563 C 0.85322 0.59506 0.60383
 C564 C 0.81232 0.70565 0.70999
 C565 C 0.90418 0.65751 0.59038
 C566 C 0.88518 0.68302 0.62313
 C567 C 0.83084 0.68860 0.68066
 C568 C 0.88861 0.61298 0.58060
 H569 H 0.80745 0.60564 0.65378
 H570 H 0.84030 0.56096 0.59724
 H571 H 0.93144 0.67217 0.57316
 H572 H 0.89789 0.71694 0.63060
 C573 C 0.36829 0.14723 0.65789
 C574 C 0.39236 0.17117 0.62918
 C575 C 0.40939 0.14648 0.59578
 C576 C 0.32593 0.19432 0.71719
 C577 C 0.37893 0.07358 0.62010
 C578 C 0.36195 0.09834 0.65346
 C579 C 0.34673 0.17348 0.69046
 C580 C 0.40227 0.09763 0.59071
 H581 H 0.39717 0.20909 0.63227
 H582 H 0.42760 0.16578 0.57373
 H583 H 0.37320 0.03591 0.61705
 H584 H 0.34304 0.07964 0.67546
 C585 C 0.36124 0.64481 0.15396
 C586 C 0.38483 0.66992 0.12558
 C587 C 0.40470 0.64561 0.09275
 C588 C 0.31848 0.68976 0.21455
 C589 C 0.37782 0.57083 0.11681
 C590 C 0.35801 0.59519 0.14955
 C591 C 0.33876 0.66993 0.18698
 C592 C 0.40105 0.59587 0.08788
 H593 H 0.38749 0.70834 0.12864
 H594 H 0.42262 0.66576 0.07108
 H595 H 0.37460 0.53250 0.11399
 H596 H 0.33976 0.57538 0.17127
   
