data_POSCAR
  _audit_creation_date              2014-09-24
  _audit_creation_method            'ToBaCCo'
  _symmetry_space_group_name_H-M    'P1'
  _symmetry_Int_Tables_number       1
  _symmetry_cell_setting            triclinic
  loop_
  _symmetry_equiv_pos_as_xyz
 x,y,z
_cell_length_a 48.9690
_cell_length_b 34.1744
_cell_length_c 34.1710
_cell_angle_alpha 89.993700
_cell_angle_beta 89.617900
_cell_angle_gamma 89.985200
loop_
  _atom_site_label
  _atom_site_type_symbol
  _atom_site_fract_x
  _atom_site_fract_y
  _atom_site_fract_z
Si1 Si 1.25017 0.24592 0.25003
 Si2 Si 0.75031 -0.25477 0.24983
 Si3 Si 0.74948 0.24766 -0.25060
 Si4 Si 1.24962 -0.25215 -0.25056
 Si5 Si 0.25042 0.25212 0.74951
 Si6 Si 0.75029 0.75235 0.75006
 Si7 Si 0.74965 0.25341 0.25002
 Si8 Si 0.24951 0.75273 0.24985
 O9 O 1.03922 0.06776 0.07098
 O10 O 1.06891 0.03178 0.03325
 C11 C 1.06372 0.05723 0.06043
 O12 O 0.96107 -0.07024 0.06902
 O13 O 0.93118 -0.03222 0.03425
 C14 C 0.93651 -0.05958 0.05939
 O15 O 1.03767 -0.06753 0.07269
 O16 O 1.06803 -0.03337 0.03447
 C17 C 1.06235 -0.05808 0.06220
 O18 O 0.96225 0.07258 0.06844
 O19 O 0.93175 0.03535 0.03394
 C20 C 0.93754 0.06270 0.05886
 Zr21 Zr 1.00048 0.04983 0.04980
 O22 O 0.99752 0.04989 0.11165
 O23 O 1.00401 0.11158 0.04985
 Zr24 Zr 0.99963 -0.04894 0.05010
 O25 O 0.99690 -0.05084 0.11190
 O26 O 1.00060 -0.11065 0.04629
 O27 O 1.02444 0.00010 0.05735
 O28 O 0.97633 0.00087 0.05753
 O29 O 0.96221 0.07223 -0.06735
 O30 O 0.93196 0.03541 -0.03164
 C31 C 0.93758 0.06243 -0.05710
 O32 O 1.03746 -0.06884 -0.07112
 O33 O 1.06787 -0.03382 -0.03441
 C34 C 1.06213 -0.05907 -0.06146
 O35 O 0.96129 -0.07164 -0.06606
 O36 O 0.93149 -0.03318 -0.03118
 C37 C 0.93678 -0.06086 -0.05611
 O38 O 1.03841 0.06754 -0.07169
 O39 O 1.06843 0.03214 -0.03463
 C40 C 1.06298 0.05743 -0.06182
 Zr41 Zr 1.00019 0.04936 -0.04899
 O42 O 0.99700 0.04851 -0.11076
 O43 O 1.00364 0.11111 -0.04940
 Zr44 Zr 0.99954 -0.04941 -0.04840
 O45 O 0.99630 -0.04941 -0.11016
 O46 O 1.00172 -0.11126 -0.04765
 Zr47 Zr 1.04079 -0.00033 0.00009
 Zr48 Zr 0.95922 0.00097 0.00121
 O49 O 0.97606 0.00028 -0.05557
 O50 O 1.02428 -0.00040 -0.05675
 O51 O 0.97601 0.05776 0.00072
 O52 O 1.02348 -0.05665 0.00065
 O53 O 1.02413 0.05645 0.00003
 O54 O 0.97509 -0.05632 0.00125
 H55 H 0.96406 0.00111 0.08071
 H56 H 1.03570 -0.07977 0.00070
 H57 H 0.96366 0.00029 -0.07836
 H58 H 1.03659 0.07930 -0.00021
 H59 H 1.00028 -0.12039 0.07360
 H60 H 0.98884 -0.12050 -0.02721
 H61 H 1.01172 -0.03389 -0.12072
 H62 H 1.01245 0.03291 -0.12109
 H63 H 0.98872 0.12166 -0.03284
 H64 H 0.98891 0.12209 0.03391
 H65 H 1.01322 0.03487 0.12181
 H66 H 1.01013 -0.03159 0.12211
 O67 O 1.03890 0.56631 0.57134
 O68 O 1.06889 0.53221 0.53247
 C69 C 1.06346 0.55667 0.56045
 O70 O 0.96298 0.42667 0.56658
 O71 O 0.93248 0.46442 0.53263
 C72 C 0.93825 0.43680 0.55731
 O73 O 1.03960 0.43202 0.56906
 O74 O 1.06933 0.46746 0.53087
 C75 C 1.06410 0.44214 0.55825
 O76 O 0.96218 0.56908 0.56959
 O77 O 0.93202 0.53214 0.53423
 C78 C 0.93756 0.55891 0.55991
 Zr79 Zr 1.00053 0.54800 0.54983
 O80 O 0.99803 0.54657 0.61171
 O81 O 1.00325 0.60981 0.55132
 Zr82 Zr 1.00108 0.44897 0.54703
 O83 O 1.00018 0.44179 0.60846
 O84 O 1.00264 0.38766 0.53937
 O85 O 1.02506 0.49860 0.55573
 O86 O 0.97718 0.49804 0.55634
 O87 O 0.96113 0.57265 0.43419
 O88 O 0.93168 0.53387 0.46935
 C89 C 0.93670 0.56180 0.44465
 O90 O 1.03895 0.43440 0.42523
 O91 O 1.06889 0.46933 0.46287
 C92 C 1.06352 0.44465 0.43515
 O93 O 0.96246 0.42910 0.43048
 O94 O 0.93245 0.46565 0.46700
 C95 C 0.93790 0.43891 0.44118
 O96 O 1.03802 0.56988 0.42859
 O97 O 1.06853 0.53418 0.46466
 C98 C 1.06275 0.55994 0.43804
 Zr99 Zr 0.99984 0.55057 0.45099
 O100 O 0.99627 0.55186 0.38929
 O101 O 1.00257 0.61238 0.45234
 Zr102 Zr 1.00055 0.45170 0.44853
 O103 O 0.99710 0.45353 0.38682
 O104 O 1.00367 0.38995 0.44711
 Zr105 Zr 1.04108 0.50041 0.49829
 Zr106 Zr 0.95983 0.49943 0.50022
 O107 O 0.97637 0.50100 0.44321
 O108 O 1.02449 0.50167 0.44152
 O109 O 0.97580 0.55672 0.50121
 O110 O 1.02477 0.44351 0.49717
 O111 O 1.02386 0.55679 0.50006
 O112 O 0.97639 0.44253 0.49820
 H113 H 0.96499 0.49739 0.57959
 H114 H 1.03745 0.42091 0.49642
 H115 H 0.96382 0.50141 0.42059
 H116 H 1.03612 0.57985 0.50037
 H117 H 1.00332 0.37632 0.56602
 H118 H 0.99036 0.37954 0.46638
 H119 H 1.01234 0.46967 0.37667
 H120 H 1.01169 0.53663 0.37828
 H121 H 0.98750 0.62206 0.46915
 H122 H 0.98783 0.62031 0.53600
 H123 H 1.01392 0.53156 0.62130
 H124 H 0.99972 0.46831 0.61986
 O125 O 0.53815 0.06504 0.57082
 O126 O 0.56837 0.03130 0.53194
 C127 C 0.56279 0.05574 0.55993
 O128 O 0.46275 -0.07575 0.56515
 O129 O 0.43223 -0.03761 0.53182
 C130 C 0.43805 -0.06553 0.55606
 O131 O 0.53882 -0.07039 0.56823
 O132 O 0.56848 -0.03414 0.53095
 C133 C 0.56328 -0.05982 0.55795
 O134 O 0.46133 0.06743 0.56850
 O135 O 0.43121 0.03037 0.53313
 C136 C 0.43673 0.05719 0.55879
 Zr137 Zr 0.49982 0.04647 0.54912
 O138 O 0.49694 0.04451 0.61095
 O139 O 0.50240 0.10827 0.55102
 Zr140 Zr 0.50058 -0.05234 0.54632
 O141 O 0.49809 -0.05629 0.60804
 O142 O 0.50251 -0.11382 0.54017
 O143 O 0.52457 -0.00271 0.55505
 O144 O 0.47649 -0.00350 0.55541
 O145 O 0.46087 0.07124 0.43304
 O146 O 0.43134 0.03224 0.46769
 C147 C 0.43642 0.06030 0.44320
 O148 O 0.53876 -0.06684 0.42470
 O149 O 0.56863 -0.03189 0.46251
 C150 C 0.56331 -0.05652 0.43471
 O151 O 0.46219 -0.07265 0.42966
 O152 O 0.43192 -0.03625 0.46595
 C153 C 0.43754 -0.06301 0.44016
 O154 O 0.53755 0.06847 0.42818
 O155 O 0.56810 0.03293 0.46434
 C156 C 0.56228 0.05866 0.43775
 Zr157 Zr 0.49935 0.04900 0.45036
 O158 O 0.49598 0.05026 0.38863
 O159 O 0.50199 0.11082 0.45172
 Zr160 Zr 0.50022 -0.04974 0.44780
 O161 O 0.49688 -0.04786 0.38608
 O162 O 0.50341 -0.11148 0.44633
 Zr163 Zr 0.54068 -0.00086 0.49773
 Zr164 Zr 0.45919 -0.00219 0.49923
 O165 O 0.47595 -0.00060 0.44237
 O166 O 0.52412 0.00027 0.44092
 O167 O 0.47515 0.05511 0.50040
 O168 O 0.52437 -0.05776 0.49652
 O169 O 0.52325 0.05539 0.49949
 O170 O 0.47600 -0.05893 0.49735
 H171 H 0.46430 -0.00434 0.57866
 H172 H 0.53700 -0.08041 0.49578
 H173 H 0.46349 -0.00026 0.41964
 H174 H 0.53540 0.07856 0.49984
 H175 H 0.50269 -0.12459 0.56709
 H176 H 0.49073 -0.12183 0.46649
 H177 H 0.51218 -0.03182 0.37597
 H178 H 0.51147 0.03512 0.37770
 H179 H 0.48689 0.12048 0.46848
 H180 H 0.48722 0.11877 0.53522
 H181 H 0.51292 0.02976 0.62063
 H182 H 0.51086 -0.03670 0.61878
 O183 O 0.53881 0.56881 0.07058
 O184 O 0.56833 0.53265 0.03276
 C185 C 0.56327 0.55812 0.05996
 O186 O 0.46046 0.43108 0.06917
 O187 O 0.43063 0.46910 0.03435
 C188 C 0.43592 0.44180 0.05956
 O189 O 0.53703 0.43357 0.07247
 O190 O 0.56728 0.46758 0.03396
 C191 C 0.56166 0.44299 0.06177
 O192 O 0.46187 0.57404 0.06830
 O193 O 0.43128 0.53682 0.03398
 C194 C 0.43712 0.56423 0.05885
 Zr195 Zr 0.50001 0.55103 0.04953
 O196 O 0.49714 0.55117 0.11139
 O197 O 0.50365 0.61276 0.04944
 Zr198 Zr 0.49900 0.45220 0.05007
 O199 O 0.49639 0.45053 0.11189
 O200 O 0.49985 0.39049 0.04635
 O201 O 0.52389 0.50121 0.05704
 O202 O 0.47580 0.50214 0.05746
 O203 O 0.46138 0.57314 -0.06702
 O204 O 0.43112 0.53641 -0.03107
 C205 C 0.43675 0.56342 -0.05653
 O206 O 0.53660 0.43177 -0.07131
 O207 O 0.56707 0.46686 -0.03482
 C208 C 0.56130 0.44145 -0.06173
 O209 O 0.46048 0.42942 -0.06601
 O210 O 0.43081 0.46809 -0.03116
 C211 C 0.43601 0.44031 -0.05602
 O212 O 0.53806 0.56803 -0.07190
 O213 O 0.56807 0.53260 -0.03472
 C214 C 0.56264 0.55783 -0.06198
 Zr215 Zr 0.49958 0.55036 -0.04933
 O216 O 0.49623 0.54949 -0.11107
 O217 O 0.50316 0.61208 -0.05037
 Zr218 Zr 0.49876 0.45159 -0.04855
 O219 O 0.49544 0.45174 -0.11030
 O220 O 0.50081 0.38973 -0.04783
 Zr221 Zr 0.54009 0.50064 -0.00032
 Zr222 Zr 0.45866 0.50220 0.00118
 O223 O 0.47536 0.50136 -0.05571
 O224 O 0.52355 0.50050 -0.05712
 O225 O 0.47553 0.55895 0.00049
 O226 O 0.52272 0.44435 0.00048
 O227 O 0.52357 0.55751 -0.00037
 O228 O 0.47439 0.44484 0.00125
 H229 H 0.46355 0.50249 0.08064
 H230 H 0.53491 0.42120 0.00050
 H231 H 0.46288 0.50140 -0.07841
 H232 H 0.53609 0.58028 -0.00071
 H233 H 0.49957 0.38080 0.07368
 H234 H 0.48807 0.38055 -0.02719
 H235 H 0.51096 0.46706 -0.12088
 H236 H 0.51175 0.53405 -0.12147
 H237 H 0.48850 0.62280 -0.03347
 H238 H 0.48865 0.62326 0.03330
 H239 H 0.51286 0.53618 0.12153
 H240 H 0.50971 0.46971 0.12196
 C241 C 1.19368 0.16605 0.17548
 C242 C 1.21141 0.19217 0.15650
 C243 C 1.22955 0.21495 0.17831
 C244 C 1.22980 0.21202 0.21925
 C245 C 1.21293 0.18448 0.23790
 C246 C 1.19487 0.16173 0.21614
 C247 C 1.17286 0.14584 0.15393
 C248 C 1.15455 0.12971 0.13691
 C249 C 1.13191 0.11130 0.11762
 C250 C 1.13637 0.08246 0.08924
 C251 C 1.11420 0.06475 0.07068
 C252 C 1.08724 0.07570 0.08032
 C253 C 1.08301 0.10466 0.10899
 C254 C 1.10521 0.12231 0.12745
 H255 H 1.21068 0.19570 0.12502
 H256 H 1.24265 0.23550 0.16320
 H257 H 1.21295 0.18169 0.26948
 H258 H 1.18125 0.14166 0.23115
 H259 H 1.15696 0.07369 0.08144
 H260 H 1.11822 0.04253 0.04879
 H261 H 1.06258 0.11383 0.11712
 H262 H 1.10153 0.14460 0.14942
 C263 C 1.19004 0.67224 0.67563
 C264 C 1.20857 0.65378 0.70063
 C265 C 1.22698 0.67612 0.72232
 C266 C 1.22701 0.71703 0.71898
 C267 C 1.20848 0.73534 0.69381
 C268 C 1.19014 0.71303 0.67212
 C269 C 1.16989 0.64977 0.65516
 C270 C 1.15223 0.63196 0.63853
 C271 C 1.13023 0.61202 0.61938
 C272 C 1.13547 0.58503 0.58946
 C273 C 1.11378 0.56667 0.57038
 C274 C 1.08659 0.57522 0.58103
 C275 C 1.08164 0.60216 0.61140
 C276 C 1.10332 0.62040 0.63037
 H277 H 1.20844 0.62224 0.70386
 H278 H 1.24070 0.66140 0.74214
 H279 H 1.20801 0.76693 0.69130
 H280 H 1.17572 0.72762 0.65313
 H281 H 1.15627 0.57839 0.58074
 H282 H 1.11831 0.54603 0.54718
 H283 H 1.06101 0.60939 0.62043
 H284 H 1.09906 0.64128 0.65349
 C285 C 0.68931 0.17263 0.67534
 C286 C 0.70803 0.15397 0.69992
 C287 C 0.72665 0.17612 0.72155
 C288 C 0.72672 0.21708 0.71861
 C289 C 0.70804 0.23559 0.69380
 C290 C 0.68947 0.21347 0.67219
 C291 C 0.66900 0.15027 0.65482
 C292 C 0.65130 0.13243 0.63813
 C293 C 0.62935 0.11226 0.61886
 C294 C 0.63471 0.08524 0.58898
 C295 C 0.61312 0.06654 0.56991
 C296 C 0.58585 0.07471 0.58050
 C297 C 0.58077 0.10172 0.61079
 C298 C 0.60235 0.12031 0.62976
 H299 H 0.70792 0.12241 0.70288
 H300 H 0.74049 0.16122 0.74104
 H301 H 0.70757 0.26720 0.69157
 H302 H 0.67494 0.22826 0.65354
 H303 H 0.65555 0.07880 0.58028
 H304 H 0.61778 0.04589 0.54677
 H305 H 0.56009 0.10873 0.61978
 H306 H 0.59795 0.14118 0.65282
 C307 C 0.69378 0.66524 0.17544
 C308 C 0.71167 0.69110 0.15641
 C309 C 0.72984 0.71386 0.17818
 C310 C 0.72997 0.71117 0.21914
 C311 C 0.71298 0.68382 0.23786
 C312 C 0.69488 0.66110 0.21613
 C313 C 0.67286 0.64522 0.15388
 C314 C 0.65447 0.62932 0.13681
 C315 C 0.63173 0.61125 0.11741
 C316 C 0.63605 0.58254 0.08885
 C317 C 0.61380 0.56518 0.07018
 C318 C 0.58688 0.57634 0.07987
 C319 C 0.58280 0.60521 0.10868
 C320 C 0.60508 0.62250 0.12727
 H321 H 0.71102 0.69449 0.12491
 H322 H 0.74305 0.73423 0.16303
 H323 H 0.71291 0.68122 0.26945
 H324 H 0.68114 0.64123 0.23118
 H325 H 0.65660 0.57358 0.08101
 H326 H 0.61771 0.54302 0.04818
 H327 H 0.56242 0.61453 0.11687
 H328 H 0.60152 0.64471 0.14935
 C329 C 0.81041 -0.17752 0.17634
 C330 C 0.78221 -0.17457 0.17026
 C331 C 0.76412 -0.19749 0.19247
 C332 C 0.77415 -0.22377 0.22051
 C333 C 0.80239 -0.22581 0.22697
 C334 C 0.82037 -0.20299 0.20491
 C335 C 0.82959 -0.15492 0.15361
 C336 C 0.84701 -0.13729 0.13582
 C337 C 0.86916 -0.11768 0.11607
 C338 C 0.86417 -0.08897 0.08780
 C339 C 0.88605 -0.07007 0.06917
 C340 C 0.91320 -0.07971 0.07865
 C341 C 0.91790 -0.10874 0.10703
 C342 C 0.89605 -0.12751 0.12556
 H343 H 0.77425 -0.15474 0.14839
 H344 H 0.74236 -0.19493 0.18762
 H345 H 0.81079 -0.24482 0.24908
 H346 H 0.84212 -0.20526 0.21012
 H347 H 0.84343 -0.08114 0.08022
 H348 H 0.88168 -0.04791 0.04743
 H349 H 0.93847 -0.11693 0.11510
 H350 H 0.90014 -0.14970 0.14741
 C351 C 0.81112 0.32103 0.67504
 C352 C 0.79247 0.29645 0.65620
 C353 C 0.77338 0.27509 0.67813
 C354 C 0.77276 0.27831 0.71906
 C355 C 0.79136 0.30315 0.73776
 C356 C 0.81039 0.32450 0.71585
 C357 C 0.83184 0.34134 0.65288
 C358 C 0.84975 0.35794 0.63507
 C359 C 0.87178 0.37729 0.61474
 C360 C 0.86640 0.40622 0.58683
 C361 C 0.88799 0.42543 0.56785
 C362 C 0.91527 0.41594 0.57662
 C363 C 0.92039 0.38657 0.60452
 C364 C 0.89881 0.36745 0.62341
 H365 H 0.79300 0.29328 0.62466
 H366 H 0.75963 0.25555 0.66309
 H367 H 0.79140 0.30559 0.76936
 H368 H 0.82483 0.34320 0.73079
 H369 H 0.84556 0.41408 0.57989
 H370 H 0.88328 0.44783 0.54651
 H371 H 0.94109 0.37847 0.61202
 H372 H 0.90321 0.34512 0.64498
 C373 C 0.31114 -0.18014 0.67413
 C374 C 0.29249 -0.20494 0.65564
 C375 C 0.27345 -0.22594 0.67789
 C376 C 0.27287 -0.22208 0.71876
 C377 C 0.29149 -0.19703 0.73711
 C378 C 0.31050 -0.17605 0.71488
 C379 C 0.33181 -0.16029 0.65168
 C380 C 0.34970 -0.14406 0.63363
 C381 C 0.37169 -0.12508 0.61308
 C382 C 0.36629 -0.09583 0.58556
 C383 C 0.38787 -0.07668 0.56661
 C384 C 0.41512 -0.08658 0.57507
 C385 C 0.42025 -0.11639 0.60247
 C386 C 0.39867 -0.13545 0.62134
 H387 H 0.29301 -0.20857 0.62415
 H388 H 0.25970 -0.24571 0.66313
 H389 H 0.29156 -0.19416 0.76868
 H390 H 0.32498 -0.15717 0.72949
 H391 H 0.34545 -0.08761 0.57898
 H392 H 0.38317 -0.05395 0.54562
 H393 H 0.44094 -0.12480 0.60967
 H394 H 0.40303 -0.15806 0.64263
 C395 C 0.30998 0.32385 0.17680
 C396 C 0.32004 0.29818 0.20511
 C397 C 0.30215 0.27514 0.22709
 C398 C 0.27390 0.27717 0.22081
 C399 C 0.26375 0.30364 0.19304
 C400 C 0.28175 0.32678 0.17090
 C401 C 0.32907 0.34663 0.15410
 C402 C 0.34644 0.36436 0.13631
 C403 C 0.36857 0.38400 0.11655
 C404 C 0.39546 0.37433 0.12618
 C405 C 0.41730 0.39302 0.10756
 C406 C 0.41260 0.42181 0.07894
 C407 C 0.38545 0.43132 0.06933
 C408 C 0.36357 0.41249 0.08806
 H409 H 0.34181 0.29592 0.21018
 H410 H 0.31064 0.25595 0.24899
 H411 H 0.24198 0.30618 0.18833
 H412 H 0.27371 0.34677 0.14924
 H413 H 0.39956 0.35231 0.14819
 H414 H 0.43787 0.38494 0.11573
 H415 H 0.38108 0.45329 0.04740
 H416 H 0.34283 0.42018 0.08036
 C417 C 0.81051 0.17524 -0.17540
 C418 C 0.81042 0.17169 -0.21622
 C419 C 0.79153 0.19269 -0.23838
 C420 C 0.77245 0.21727 -0.21995
 C421 C 0.77242 0.22052 -0.17902
 C422 C 0.79135 0.19951 -0.15682
 C423 C 0.83111 0.15544 -0.15296
 C424 C 0.84897 0.13931 -0.13494
 C425 C 0.87100 0.12057 -0.11444
 C426 C 0.89800 0.13048 -0.12362
 C427 C 0.91961 0.11187 -0.10469
 C428 C 0.91453 0.08293 -0.07623
 C429 C 0.88727 0.07342 -0.06688
 C430 C 0.86566 0.09213 -0.08591
 H431 H 0.82525 0.15325 -0.23096
 H432 H 0.79208 0.19023 -0.26998
 H433 H 0.75830 0.23987 -0.16416
 H434 H 0.79140 0.20275 -0.12529
 H435 H 0.90238 0.15244 -0.14566
 H436 H 0.94029 0.11998 -0.11263
 H437 H 0.88261 0.05134 -0.04511
 H438 H 0.84482 0.08423 -0.07857
 C439 C 0.80670 0.67095 0.33019
 C440 C 0.78899 0.69841 0.34719
 C441 C 0.77090 0.71961 0.32372
 C442 C 0.77070 0.71374 0.28309
 C443 C 0.78758 0.68493 0.26653
 C444 C 0.80557 0.66376 0.28993
 C445 C 0.82740 0.65206 0.35317
 C446 C 0.84565 0.63671 0.37104
 C447 C 0.86830 0.61882 0.39085
 C448 C 0.86391 0.58937 0.41863
 C449 C 0.88614 0.57111 0.43654
 C450 C 0.91309 0.58206 0.42679
 C451 C 0.91721 0.61205 0.39916
 C452 C 0.89496 0.63024 0.38134
 H453 H 0.78967 0.70416 0.37834
 H454 H 0.75778 0.74119 0.33727
 H455 H 0.78760 0.67987 0.23524
 H456 H 0.81918 0.64262 0.27644
 H457 H 0.84335 0.58027 0.42617
 H458 H 0.88219 0.54819 0.45771
 H459 H 0.93762 0.62126 0.39097
 H460 H 0.89859 0.65297 0.35982
 C461 C 0.30666 0.17098 0.32965
 C462 C 0.28900 0.19836 0.34691
 C463 C 0.27091 0.21979 0.32366
 C464 C 0.27065 0.21424 0.28298
 C465 C 0.28749 0.18553 0.26615
 C466 C 0.30548 0.16412 0.28933
 C467 C 0.32732 0.15179 0.35243
 C468 C 0.34554 0.13617 0.37013
 C469 C 0.36816 0.11796 0.38971
 C470 C 0.36370 0.08850 0.41747
 C471 C 0.38588 0.06998 0.43521
 C472 C 0.41286 0.08067 0.42533
 C473 C 0.41706 0.11064 0.39770
 C474 C 0.39486 0.12909 0.38004
 H475 H 0.28971 0.20385 0.37811
 H476 H 0.25782 0.24129 0.33741
 H477 H 0.28745 0.18070 0.23482
 H478 H 0.31904 0.14305 0.27564
 H479 H 0.34311 0.07962 0.42513
 H480 H 0.38188 0.04710 0.45641
 H481 H 0.43749 0.11966 0.38942
 H482 H 0.39853 0.15182 0.35853
 C483 C 0.30999 0.67611 -0.17425
 C484 C 0.29089 0.70068 -0.15605
 C485 C 0.27216 0.72158 -0.17860
 C486 C 0.27238 0.71786 -0.21949
 C487 C 0.29145 0.69303 -0.23755
 C488 C 0.31013 0.67215 -0.21501
 C489 C 0.33040 0.65649 -0.15153
 C490 C 0.34819 0.64047 -0.13339
 C491 C 0.37018 0.62184 -0.11297
 C492 C 0.36487 0.59345 -0.08443
 C493 C 0.38650 0.57464 -0.06565
 C494 C 0.41373 0.58405 -0.07532
 C495 C 0.41877 0.61300 -0.10375
 C496 C 0.39714 0.63170 -0.12243
 H497 H 0.29081 0.70425 -0.12455
 H498 H 0.25804 0.74118 -0.16407
 H499 H 0.29213 0.69025 -0.26911
 H500 H 0.32499 0.65347 -0.22941
 H501 H 0.34404 0.58563 -0.07693
 H502 H 0.38189 0.55256 -0.04386
 H503 H 0.43943 0.62101 -0.11190
 H504 H 0.40144 0.65365 -0.14451
 C505 C 1.18845 -0.17675 -0.17796
 C506 C 1.20733 -0.15825 -0.20271
 C507 C 1.22619 -0.18053 -0.22405
 C508 C 1.22631 -0.22144 -0.22060
 C509 C 1.20739 -0.23980 -0.19572
 C510 C 1.18859 -0.21755 -0.17439
 C511 C 1.16806 -0.15428 -0.15752
 C512 C 1.15033 -0.13636 -0.14077
 C513 C 1.12842 -0.11613 -0.12128
 C514 C 1.13387 -0.08771 -0.09291
 C515 C 1.11233 -0.06888 -0.07352
 C516 C 1.08506 -0.07834 -0.08231
 C517 C 1.07987 -0.10678 -0.11111
 C518 C 1.10141 -0.12551 -0.13039
 H519 H 1.20720 -0.12672 -0.20597
 H520 H 1.24021 -0.16578 -0.24367
 H521 H 1.20698 -0.27139 -0.19313
 H522 H 1.17392 -0.23217 -0.15556
 H523 H 1.15474 -0.08028 -0.08565
 H524 H 1.11706 -0.04708 -0.05158
 H525 H 1.05917 -0.11478 -0.11864
 H526 H 1.09699 -0.14752 -0.15228
 C527 C 1.18984 0.32812 0.31749
 C528 C 1.21801 0.33142 0.32364
 C529 C 1.23619 0.30703 0.30321
 C530 C 1.22626 0.27890 0.27696
 C531 C 1.19805 0.27652 0.27034
 C532 C 1.17999 0.30082 0.29060
 C533 C 1.17056 0.35186 0.33882
 C534 C 1.15308 0.37016 0.35578
 C535 C 1.13090 0.39018 0.37505
 C536 C 1.13585 0.41757 0.40460
 C537 C 1.11395 0.43571 0.42392
 C538 C 1.08681 0.42655 0.41394
 C539 C 1.08215 0.39927 0.38388
 C540 C 1.10403 0.38126 0.36465
 H541 H 1.22588 0.35262 0.34425
 H542 H 1.25792 0.30987 0.30809
 H543 H 1.18973 0.25606 0.24949
 H544 H 1.15827 0.29821 0.28536
 H545 H 1.15658 0.42465 0.41292
 H546 H 1.11830 0.45659 0.44688
 H547 H 1.06158 0.39152 0.37538
 H548 H 1.09997 0.36004 0.34185
 C549 C 0.68984 -0.17231 0.31674
 C550 C 0.71801 -0.16891 0.32291
 C551 C 0.73623 -0.19334 0.30260
 C552 C 0.72635 -0.22160 0.27646
 C553 C 0.69816 -0.22405 0.26977
 C554 C 0.68006 -0.19971 0.28991
 C555 C 0.67052 -0.14862 0.33804
 C556 C 0.65300 -0.13039 0.35502
 C557 C 0.63079 -0.11050 0.37435
 C558 C 0.63569 -0.08333 0.40412
 C559 C 0.61377 -0.06537 0.42355
 C560 C 0.58664 -0.07448 0.41345
 C561 C 0.58202 -0.10153 0.38317
 C562 C 0.60393 -0.11937 0.36384
 H563 H 0.72584 -0.14762 0.34347
 H564 H 0.75796 -0.19044 0.30754
 H565 H 0.68987 -0.24460 0.24899
 H566 H 0.65833 -0.20239 0.28466
 H567 H 0.65641 -0.07630 0.41255
 H568 H 0.61809 -0.04465 0.44667
 H569 H 0.56147 -0.10922 0.37456
 H570 H 0.59990 -0.14041 0.34087
 C571 C 0.68791 0.32244 -0.17744
 C572 C 0.70676 0.34112 -0.20215
 C573 C 0.72576 0.31905 -0.22351
 C574 C 0.72611 0.27812 -0.22018
 C575 C 0.70727 0.25957 -0.19528
 C576 C 0.68832 0.28163 -0.17391
 C577 C 0.66734 0.34478 -0.15703
 C578 C 0.64953 0.36274 -0.14035
 C579 C 0.62759 0.38323 -0.12095
 C580 C 0.63307 0.41179 -0.09270
 C581 C 0.61155 0.43099 -0.07354
 C582 C 0.58423 0.42181 -0.08242
 C583 C 0.57902 0.39324 -0.11109
 C584 C 0.60053 0.37413 -0.13014
 H585 H 0.70646 0.37266 -0.20540
 H586 H 0.73970 0.33398 -0.24312
 H587 H 0.70701 0.22798 -0.19274
 H588 H 0.67373 0.26681 -0.15511
 H589 H 0.65395 0.41907 -0.08535
 H590 H 0.61633 0.45285 -0.05170
 H591 H 0.55830 0.38542 -0.11870
 H592 H 0.59605 0.35207 -0.15195
 C593 C 1.18930 0.17687 -0.17713
 C594 C 1.20833 0.15835 -0.20166
 C595 C 1.22708 0.18061 -0.22323
 C596 C 1.22702 0.22157 -0.22026
 C597 C 1.20792 0.23998 -0.19567
 C598 C 1.18921 0.21773 -0.17409
 C599 C 1.16902 0.15427 -0.15650
 C600 C 1.15139 0.13604 -0.13979
 C601 C 1.12950 0.11535 -0.12058
 C602 C 1.13490 0.08764 -0.09145
 C603 C 1.11331 0.06837 -0.07249
 C604 C 1.08606 0.07668 -0.08247
 C605 C 1.08096 0.10438 -0.11204
 C606 C 1.10251 0.12353 -0.13088
 H607 H 1.20838 0.12678 -0.20458
 H608 H 1.24118 0.16575 -0.24264
 H609 H 1.20733 0.27158 -0.19345
 H610 H 1.17442 0.23240 -0.15548
 H611 H 1.15574 0.08112 -0.08323
 H612 H 1.11797 0.04724 -0.04987
 H613 H 1.06029 0.11155 -0.12052
 H614 H 1.09809 0.14494 -0.15335
 C615 C 1.18914 0.67902 0.32165
 C616 C 1.18968 0.71979 0.32542
 C617 C 1.20859 0.74190 0.30403
 C618 C 1.22739 0.72349 0.27880
 C619 C 1.22672 0.68251 0.27509
 C620 C 1.20775 0.66042 0.29653
 C621 C 1.16865 0.65665 0.34224
 C622 C 1.15090 0.63867 0.35906
 C623 C 1.12899 0.61819 0.37861
 C624 C 1.10192 0.62751 0.36974
 C625 C 1.08043 0.60843 0.38890
 C626 C 1.08568 0.57964 0.41736
 C627 C 1.11302 0.57026 0.42594
 C628 C 1.13451 0.58945 0.40668
 H629 H 1.17521 0.73455 0.34445
 H630 H 1.20831 0.77348 0.30691
 H631 H 1.24029 0.66736 0.25514
 H632 H 1.20731 0.62892 0.29304
 H633 H 1.09739 0.64971 0.34810
 H634 H 1.05970 0.61642 0.38148
 H635 H 1.11782 0.54822 0.44761
 H636 H 1.15540 0.58198 0.41379
 C637 C 0.68876 0.17817 0.32333
 C638 C 0.68882 0.21899 0.32668
 C639 C 0.70762 0.24121 0.30530
 C640 C 0.72662 0.22279 0.28057
 C641 C 0.72665 0.18185 0.27747
 C642 C 0.70780 0.15961 0.29887
 C643 C 0.66826 0.15570 0.34354
 C644 C 0.65046 0.13765 0.36002
 C645 C 0.62853 0.11711 0.37916
 C646 C 0.60151 0.12661 0.37020
 C647 C 0.57997 0.10744 0.38908
 C648 C 0.58518 0.07843 0.41730
 C649 C 0.61247 0.06888 0.42595
 C650 C 0.63400 0.08814 0.40697
 H651 H 0.67403 0.23367 0.34530
 H652 H 0.70710 0.27281 0.30763
 H653 H 0.74074 0.16702 0.25800
 H654 H 0.70775 0.12806 0.29580
 H655 H 0.59707 0.14903 0.34873
 H656 H 0.55927 0.11556 0.38168
 H657 H 0.61721 0.04667 0.44747
 H658 H 0.65487 0.08058 0.41411
 C659 C 0.68937 0.67684 -0.17663
 C660 C 0.70863 0.65838 -0.20082
 C661 C 0.72738 0.68072 -0.22230
 C662 C 0.72707 0.72169 -0.21959
 C663 C 0.70779 0.74003 -0.19524
 C664 C 0.68907 0.71771 -0.17376
 C665 C 0.66902 0.65417 -0.15626
 C666 C 0.65131 0.63592 -0.13975
 C667 C 0.62934 0.61524 -0.12074
 C668 C 0.63463 0.58770 -0.09141
 C669 C 0.61299 0.56857 -0.07250
 C670 C 0.58577 0.57685 -0.08271
 C671 C 0.58077 0.60431 -0.11254
 C672 C 0.60240 0.62332 -0.13134
 H673 H 0.70886 0.62680 -0.20357
 H674 H 0.74165 0.66590 -0.24149
 H675 H 0.70703 0.77165 -0.19321
 H676 H 0.67410 0.73233 -0.15541
 H677 H 0.65544 0.58125 -0.08298
 H678 H 0.61756 0.54761 -0.04968
 H679 H 0.56013 0.61141 -0.12122
 H680 H 0.59808 0.64458 -0.15400
 C681 C 0.80981 -0.17355 -0.17410
 C682 C 0.79084 -0.19823 -0.15574
 C683 C 0.77238 -0.21981 -0.17817
 C684 C 0.77275 -0.21673 -0.21912
 C685 C 0.79168 -0.19180 -0.23734
 C686 C 0.81007 -0.17021 -0.21493
 C687 C 0.83006 -0.15335 -0.15144
 C688 C 0.84777 -0.13704 -0.13333
 C689 C 0.86981 -0.11836 -0.11290
 C690 C 0.86465 -0.08885 -0.08541
 C691 C 0.88638 -0.07032 -0.06650
 C692 C 0.91355 -0.08110 -0.07497
 C693 C 0.91841 -0.11107 -0.10240
 C694 C 0.89671 -0.12949 -0.12119
 H695 H 0.79066 -0.20137 -0.12419
 H696 H 0.75837 -0.23944 -0.16347
 H697 H 0.79249 -0.18949 -0.26894
 H698 H 0.82482 -0.15147 -0.22948
 H699 H 0.84388 -0.07999 -0.07880
 H700 H 0.88190 -0.04739 -0.04554
 H701 H 0.93901 -0.12017 -0.10966
 H702 H 0.90093 -0.15227 -0.14244
 C703 C 0.81019 0.32660 0.32480
 C704 C 0.81000 0.33018 0.28400
 C705 C 0.79125 0.30891 0.26194
 C706 C 0.77243 0.28406 0.28048
 C707 C 0.77249 0.28077 0.32141
 C708 C 0.79129 0.30205 0.34350
 C709 C 0.83076 0.34648 0.34707
 C710 C 0.84868 0.36261 0.36485
 C711 C 0.87086 0.38127 0.38492
 C712 C 0.89775 0.37149 0.37498
 C713 C 0.91953 0.38999 0.39351
 C714 C 0.91472 0.41866 0.42231
 C715 C 0.88755 0.42805 0.43240
 C716 C 0.86577 0.40945 0.41377
 H717 H 0.82468 0.34884 0.26921
 H718 H 0.79172 0.31137 0.23033
 H719 H 0.75856 0.26119 0.33633
 H720 H 0.79145 0.29878 0.37503
 H721 H 0.90189 0.34971 0.35268
 H722 H 0.94014 0.38200 0.38503
 H723 H 0.88310 0.44992 0.45447
 H724 H 0.84500 0.41722 0.42167
 C725 C 0.31003 -0.17650 0.32312
 C726 C 0.29137 -0.20141 0.34183
 C727 C 0.27226 -0.22237 0.31991
 C728 C 0.27150 -0.21841 0.27895
 C729 C 0.29026 -0.19326 0.26044
 C730 C 0.30931 -0.17234 0.28239
 C731 C 0.33077 -0.15661 0.34527
 C732 C 0.34871 -0.14036 0.36306
 C733 C 0.37081 -0.12144 0.38329
 C734 C 0.36554 -0.09338 0.41223
 C735 C 0.38720 -0.07453 0.43104
 C736 C 0.41446 -0.08352 0.42108
 C737 C 0.41947 -0.11203 0.39216
 C738 C 0.39781 -0.13078 0.37345
 H739 H 0.29193 -0.20519 0.37330
 H740 H 0.25871 -0.24225 0.33513
 H741 H 0.29047 -0.19018 0.22887
 H742 H 0.32380 -0.15345 0.26752
 H743 H 0.34472 -0.08590 0.42011
 H744 H 0.38257 -0.05281 0.45318
 H745 H 0.44013 -0.11974 0.38373
 H746 H 0.40215 -0.15242 0.35109
 C747 C 0.30960 0.32662 -0.17435
 C748 C 0.31016 0.32959 -0.21521
 C749 C 0.29195 0.30775 -0.23771
 C750 C 0.27291 0.28293 -0.21957
 C751 C 0.27229 0.28016 -0.17859
 C752 C 0.29054 0.30200 -0.15607
 C753 C 0.32960 0.34718 -0.15154
 C754 C 0.34715 0.36372 -0.13330
 C755 C 0.36910 0.38256 -0.11278
 C756 C 0.39599 0.37091 -0.12033
 C757 C 0.41765 0.38943 -0.10155
 C758 C 0.41277 0.42003 -0.07482
 C759 C 0.38560 0.43134 -0.06706
 C760 C 0.36390 0.41271 -0.08599
 H761 H 0.32497 0.34826 -0.22971
 H762 H 0.29295 0.30987 -0.26932
 H763 H 0.25819 0.26064 -0.16392
 H764 H 0.29012 0.29915 -0.12450
 H765 H 0.40025 0.34762 -0.14102
 H766 H 0.43824 0.37988 -0.10825
 H767 H 0.38111 0.45478 -0.04669
 H768 H 0.34314 0.42198 -0.07995
 C769 C 1.18909 -0.17425 0.17852
 C770 C 1.18987 -0.21502 0.17481
 C771 C 1.20882 -0.23690 0.19602
 C772 C 1.22743 -0.21827 0.22100
 C773 C 1.22655 -0.17729 0.22461
 C774 C 1.20753 -0.15543 0.20336
 C775 C 1.16853 -0.15215 0.15810
 C776 C 1.15073 -0.13448 0.14138
 C777 C 1.12876 -0.11444 0.12190
 C778 C 1.10171 -0.12343 0.13173
 C779 C 1.08017 -0.10493 0.11250
 C780 C 1.08535 -0.07707 0.08300
 C781 C 1.11266 -0.06798 0.07349
 C782 C 1.13421 -0.08657 0.09282
 H783 H 1.17553 -0.22996 0.15598
 H784 H 1.20869 -0.26849 0.19320
 H785 H 1.24000 -0.16197 0.24435
 H786 H 1.20692 -0.12392 0.20679
 H787 H 1.09724 -0.14495 0.15415
 H788 H 1.05946 -0.11268 0.12064
 H789 H 1.11740 -0.04664 0.05102
 H790 H 1.15507 -0.07937 0.08496
 C791 C 1.19105 0.32654 0.67362
 C792 C 1.19125 0.28568 0.67076
 C793 C 1.20952 0.26372 0.69302
 C794 C 1.22788 0.28241 0.71816
 C795 C 1.22776 0.32339 0.72083
 C796 C 1.20942 0.34538 0.69857
 C797 C 1.17091 0.34872 0.65263
 C798 C 1.15324 0.36636 0.63569
 C799 C 1.13117 0.38614 0.61636
 C800 C 1.10426 0.37633 0.62608
 C801 C 1.08252 0.39470 0.60730
 C802 C 1.08736 0.42325 0.57839
 C803 C 1.11454 0.43311 0.56888
 C804 C 1.13631 0.41463 0.58779
 H805 H 1.17696 0.27077 0.65183
 H806 H 1.20911 0.23209 0.69098
 H807 H 1.24133 0.33845 0.74058
 H808 H 1.20922 0.37696 0.70134
 H809 H 1.10005 0.35430 0.64812
 H810 H 1.06192 0.38631 0.61538
 H811 H 1.11900 0.45497 0.54680
 H812 H 1.15709 0.42243 0.58004
 C813 C 0.69041 -0.17409 0.67420
 C814 C 0.69058 -0.21498 0.67182
 C815 C 0.70902 -0.23666 0.69406
 C816 C 0.72755 -0.21767 0.71873
 C817 C 0.72745 -0.17667 0.72092
 C818 C 0.70897 -0.15495 0.69865
 C819 C 0.67018 -0.15216 0.65313
 C820 C 0.65246 -0.13476 0.63608
 C821 C 0.63036 -0.11526 0.61654
 C822 C 0.60346 -0.12568 0.62569
 C823 C 0.58172 -0.10753 0.60673
 C824 C 0.58654 -0.07859 0.57819
 C825 C 0.61369 -0.06813 0.56925
 C826 C 0.63547 -0.08639 0.58835
 H827 H 0.67616 -0.23012 0.65329
 H828 H 0.70859 -0.26831 0.69240
 H829 H 0.74116 -0.16138 0.74030
 H830 H 0.70881 -0.12334 0.70101
 H831 H 0.59928 -0.14800 0.64744
 H832 H 0.56113 -0.11636 0.61439
 H833 H 0.61813 -0.04593 0.54750
 H834 H 0.65624 -0.07811 0.58104
 C835 C 0.68870 0.32753 0.17677
 C836 C 0.68911 0.28671 0.17354
 C837 C 0.70794 0.26486 0.19490
 C838 C 0.72662 0.28363 0.21949
 C839 C 0.72629 0.32457 0.22250
 C840 C 0.70740 0.34646 0.20113
 C841 C 0.66816 0.34959 0.15654
 C842 C 0.65031 0.36719 0.14001
 C843 C 0.62826 0.38707 0.12081
 C844 C 0.60130 0.37779 0.13080
 C845 C 0.57966 0.39616 0.11178
 C846 C 0.58469 0.42413 0.08237
 C847 C 0.61192 0.43352 0.07271
 C848 C 0.63357 0.41505 0.09184
 H849 H 0.67458 0.27174 0.15503
 H850 H 0.70768 0.23324 0.19267
 H851 H 0.74011 0.33966 0.24188
 H852 H 0.70706 0.37802 0.20413
 H853 H 0.59699 0.35614 0.15318
 H854 H 0.55899 0.38822 0.11999
 H855 H 0.61654 0.45496 0.05029
 H856 H 0.65439 0.42243 0.08389
 C857 C 0.81092 0.17991 0.17551
 C858 C 0.79199 0.20403 0.15667
 C859 C 0.77306 0.22556 0.17869
 C860 C 0.77291 0.22293 0.21966
 C861 C 0.79183 0.19859 0.23834
 C862 C 0.81070 0.17708 0.21636
 C863 C 0.83143 0.15940 0.15327
 C864 C 0.84924 0.14260 0.13552
 C865 C 0.87120 0.12300 0.11542
 C866 C 0.86577 0.09425 0.08739
 C867 C 0.88733 0.07473 0.06871
 C868 C 0.91460 0.08376 0.07793
 C869 C 0.91977 0.11296 0.10598
 C870 C 0.89821 0.13237 0.12456
 H871 H 0.79215 0.20668 0.12508
 H872 H 0.75903 0.24471 0.16365
 H873 H 0.79221 0.19663 0.26997
 H874 H 0.82539 0.15873 0.23125
 H875 H 0.84491 0.08677 0.08014
 H876 H 0.88261 0.05247 0.04723
 H877 H 0.94047 0.12069 0.11380
 H878 H 0.90263 0.15456 0.14627
 C879 C 0.81138 0.67698 0.67689
 C880 C 0.79279 0.70132 0.65764
 C881 C 0.77408 0.72364 0.67925
 C882 C 0.77378 0.72158 0.72026
 C883 C 0.79246 0.69720 0.73938
 C884 C 0.81112 0.67490 0.71780
 C885 C 0.83160 0.65549 0.65501
 C886 C 0.84923 0.63800 0.63751
 C887 C 0.87113 0.61794 0.61770
 C888 C 0.86571 0.59021 0.58861
 C889 C 0.88728 0.57087 0.56970
 C890 C 0.91453 0.57911 0.57972
 C891 C 0.91966 0.60706 0.60901
 C892 C 0.89812 0.62626 0.62782
 H893 H 0.79302 0.70347 0.62600
 H894 H 0.76026 0.74282 0.66385
 H895 H 0.79273 0.69564 0.77104
 H896 H 0.82557 0.65644 0.73302
 H897 H 0.84486 0.58353 0.58057
 H898 H 0.88260 0.54957 0.54726
 H899 H 0.94034 0.61413 0.61755
 H900 H 0.90254 0.64762 0.65034
 C901 C 0.31106 0.17602 0.67622
 C902 C 0.31071 0.17377 0.71713
 C903 C 0.29224 0.19635 0.73877
 C904 C 0.27382 0.22117 0.71970
 C905 C 0.27423 0.22343 0.67869
 C906 C 0.29277 0.20085 0.65703
 C907 C 0.33111 0.15425 0.65427
 C908 C 0.34860 0.13660 0.63665
 C909 C 0.37041 0.11643 0.61671
 C910 C 0.39743 0.12471 0.62669
 C911 C 0.41891 0.10544 0.60783
 C912 C 0.41371 0.07745 0.57858
 C913 C 0.38642 0.06929 0.56865
 C914 C 0.36491 0.08871 0.58763
 H915 H 0.32496 0.15496 0.73230
 H916 H 0.29242 0.19465 0.77043
 H917 H 0.26063 0.24294 0.66334
 H918 H 0.29308 0.20313 0.62540
 H919 H 0.40193 0.14609 0.64916
 H920 H 0.43960 0.11250 0.61628
 H921 H 0.38169 0.04799 0.54623
 H922 H 0.34403 0.08210 0.57967
 C923 C 0.31042 0.68149 0.17648
 C924 C 0.30959 0.67777 0.21726
 C925 C 0.29050 0.69895 0.23925
 C926 C 0.27179 0.72391 0.22072
 C927 C 0.27270 0.72751 0.17972
 C928 C 0.29186 0.70629 0.15776
 C929 C 0.33110 0.66110 0.15424
 C930 C 0.34894 0.64435 0.13638
 C931 C 0.37089 0.62474 0.11602
 C932 C 0.39796 0.63401 0.12494
 C933 C 0.41946 0.61456 0.10615
 C934 C 0.41421 0.58541 0.07808
 C935 C 0.38687 0.57651 0.06902
 C936 C 0.36538 0.59606 0.08790
 H937 H 0.32400 0.65896 0.23213
 H938 H 0.29059 0.69612 0.27084
 H939 H 0.25917 0.74722 0.16448
 H940 H 0.29250 0.70971 0.12624
 H941 H 0.40248 0.65614 0.14666
 H942 H 0.44019 0.62224 0.11386
 H943 H 0.38206 0.55432 0.04751
 H944 H 0.34449 0.58864 0.08074
   
