data_POSCAR
  _audit_creation_date              2014-09-24
  _audit_creation_method            'ToBaCCo'
  _symmetry_space_group_name_H-M    'P1'
  _symmetry_Int_Tables_number       1
  _symmetry_cell_setting            triclinic
  loop_
  _symmetry_equiv_pos_as_xyz
 x,y,z
_cell_length_a 44.7595
_cell_length_b 45.1339
_cell_length_c 45.3946
_cell_angle_alpha 90.512000
_cell_angle_beta 90.071100
_cell_angle_gamma 89.854200
loop_
  _atom_site_label
  _atom_site_type_symbol
  _atom_site_fract_x
  _atom_site_fract_y
  _atom_site_fract_z
C1 C 0.17231 0.16930 0.21058
 N2 N 0.15872 0.19292 0.19792
 C3 C 0.17027 0.20557 0.17336
 N4 N 0.19580 0.19425 0.16134
 C5 C 0.20972 0.17057 0.17379
 N6 N 0.19772 0.15846 0.19833
 C7 C -0.17546 0.82873 0.21178
 N8 N -0.16333 0.80406 0.19896
 C9 C -0.17563 0.79212 0.17407
 N10 N -0.20017 0.80517 0.16205
 C11 C -0.21254 0.82979 0.17447
 N12 N -0.19998 0.84125 0.19928
 C13 C -0.17432 0.17292 -0.21027
 N14 N -0.19875 0.16119 -0.19705
 C15 C -0.21152 0.17456 -0.17335
 N16 N -0.19954 0.20010 -0.16293
 C17 C -0.17517 0.21235 -0.17564
 N18 N -0.16245 0.19862 -0.19940
 C19 C 0.16574 0.82978 -0.20750
 N20 N 0.15281 0.80540 -0.19566
 C21 C 0.16364 0.79314 -0.17066
 N22 N 0.18781 0.80545 -0.15741
 C23 C 0.20121 0.82981 -0.16871
 N24 N 0.18998 0.84191 -0.19382
 C25 C 0.16623 1.17420 0.79023
 N26 N 0.19088 1.16056 0.80131
 C27 C 0.20482 1.17143 0.82570
 N28 N 0.19388 1.19622 0.83904
 C29 C 0.16930 1.21017 0.82833
 N30 N 0.15568 1.19896 0.80394
 C31 C 0.83068 0.83244 0.79165
 N32 N 0.80520 0.84285 0.80455
 C33 C 0.79377 0.82957 0.82885
 N34 N 0.80807 0.80571 0.84020
 C35 C 0.83347 0.79500 0.82774
 N36 N 0.84462 0.80846 0.80349
 C37 C 0.17716 0.82157 1.21300
 N38 N 0.16547 0.79619 1.20181
 C39 C 0.17606 0.78356 1.17673
 N40 N 0.19921 0.79673 1.16262
 C41 C 0.21157 0.82217 1.17345
 N42 N 0.20032 0.83455 1.19864
 C43 C 0.83414 1.16955 1.21038
 N44 N 0.80986 1.15663 1.19780
 C45 C 0.79732 1.16783 1.17297
 N46 N 0.80940 1.19244 1.16059
 C47 C 0.83377 1.20576 1.17289
 N48 N 0.84583 1.19406 1.19773
 N49 N 0.46703 1.03486 0.94562
 N50 N 0.44309 1.03880 0.92914
 N51 N 0.53168 1.05222 0.96350
 N52 N 0.55579 1.06843 0.95951
 N53 N 0.52968 1.03154 0.94313
 N54 N 0.55236 1.03306 0.92470
 N55 N 0.46897 1.05564 0.96590
 N56 N 0.44636 1.07433 0.96381
 C57 C 0.43045 1.06358 0.94069
 C58 C 0.56842 1.05624 0.93516
 N59 N 0.53417 1.03295 1.04740
 N60 N 0.55780 1.03611 1.06466
 N61 N 0.47169 1.05643 1.02900
 N62 N 0.44929 1.07518 1.03215
 N63 N 0.47111 1.03622 1.04961
 N64 N 0.44814 1.04075 1.06739
 N65 N 0.53425 1.05307 1.02669
 N66 N 0.55780 1.07038 1.02925
 Mn67 Mn 0.50169 1.05466 0.99628
 C68 C 0.57235 1.05961 1.05301
 C69 C 0.43483 1.06527 1.05624
 N70 N 0.52644 0.96819 0.94324
 N71 N 0.54922 0.96478 0.92518
 N72 N 0.46356 0.95089 0.96598
 N73 N 0.43950 0.93417 0.96306
 N74 N 0.46394 0.97143 0.94570
 N75 N 0.44032 0.96930 0.92848
 N76 N 0.52667 0.94772 0.96360
 N77 N 0.54982 0.92977 0.95985
 Mn78 Mn 0.49674 1.00149 0.94412
 C79 C 0.56357 0.94067 0.93562
 C80 C 0.42525 0.94597 0.93949
 N81 N 0.46798 0.97224 1.04996
 N82 N 0.44590 0.96980 1.06905
 N83 N 0.52895 0.94824 1.02720
 N84 N 0.55108 0.92907 1.02981
 N85 N 0.53082 0.96899 1.04760
 N86 N 0.55431 0.96446 1.06461
 N87 N 0.46614 0.95146 1.02959
 N88 N 0.44275 0.93437 1.03430
 Mn89 Mn 0.50103 1.00260 1.04907
 Mn90 Mn 0.49631 0.94914 0.99660
 Cl91 Cl 0.49894 1.00193 0.99658
 C92 C 0.43030 0.94606 1.05902
 C93 C 0.56672 0.93942 1.05328
 N94 N -0.03467 0.47296 -0.05279
 N95 N -0.03742 0.45090 -0.07175
 N96 N -0.05398 0.53402 -0.02756
 N97 N -0.07184 0.55728 -0.02938
 N98 N -0.03336 0.53495 -0.04805
 N99 N -0.03661 0.55876 -0.06438
 N100 N -0.05521 0.47153 -0.03224
 N101 N -0.07262 0.44826 -0.03683
 C102 C -0.06122 0.43570 -0.06172
 C103 C -0.06071 0.57251 -0.05249
 N104 N -0.03189 0.52839 0.05582
 N105 N -0.03418 0.55048 0.07496
 N106 N -0.05446 0.46775 0.03135
 N107 N -0.07316 0.44530 0.03341
 N108 N -0.03353 0.46602 0.05158
 N109 N -0.03745 0.44226 0.06791
 N110 N -0.05304 0.53008 0.03580
 N111 N -0.07022 0.55344 0.04081
 Mn112 Mn -0.05461 0.50082 0.00185
 C113 C -0.05825 0.56592 0.06539
 C114 C -0.06232 0.42956 0.05635
 N115 N 0.03079 0.53325 -0.04893
 N116 N 0.03431 0.55727 -0.06485
 N117 N 0.05005 0.46899 -0.03346
 N118 N 0.06673 0.44530 -0.03810
 N119 N 0.02920 0.47113 -0.05365
 N120 N 0.03108 0.44888 -0.07262
 N121 N 0.05196 0.53115 -0.02904
 N122 N 0.07048 0.55377 -0.03085
 Mn123 Mn -0.00202 0.50315 -0.05116
 C124 C 0.05920 0.56985 -0.05336
 C125 C 0.05469 0.43303 -0.06268
 N126 N 0.03095 0.46427 0.05059
 N127 N 0.03469 0.44065 0.06719
 N128 N 0.05302 0.52686 0.03381
 N129 N 0.07146 0.54927 0.03721
 N130 N 0.03276 0.52680 0.05469
 N131 N 0.03703 0.54940 0.07300
 N132 N 0.05114 0.46489 0.02966
 N133 N 0.06917 0.44181 0.03146
 Mn134 Mn -0.00044 0.49638 0.05361
 Mn135 Mn 0.05186 0.49791 0.00024
 Cl136 Cl -0.00135 0.49956 0.00119
 C137 C 0.05866 0.42683 0.05496
 C138 C 0.06142 0.56312 0.06176
 N139 N 0.96644 0.04897 0.46989
 N140 N 0.96159 0.06604 0.44692
 N141 N 0.94920 0.02839 0.53284
 N142 N 0.93223 0.03148 0.55655
 N143 N 0.96886 0.04988 0.53168
 N144 N 0.96591 0.06804 0.55434
 N145 N 0.94693 0.02732 0.47061
 N146 N 0.92828 0.02909 0.44813
 C147 C 0.93765 0.05345 0.43359
 C148 C 0.94298 0.05644 0.56970
 N149 N 0.97502 -0.05496 0.53213
 N150 N 0.97331 -0.07285 0.55494
 N151 N 0.95094 -0.03658 0.47063
 N152 N 0.93260 -0.04144 0.44826
 N153 N 0.97305 -0.05577 0.47012
 N154 N 0.97034 -0.07415 0.44754
 N155 N 0.95308 -0.03557 0.53275
 N156 N 0.93591 -0.03975 0.55595
 Mn157 Mn 0.94960 -0.00414 0.50174
 C158 C 0.94875 -0.06312 0.56960
 C159 C 0.94497 -0.06505 0.43408
 N160 N 1.03281 0.05345 0.52978
 N161 N 1.03520 0.07055 0.55344
 N162 N 1.05242 0.03347 0.46704
 N163 N 1.06933 0.03772 0.44365
 N164 N 1.03042 0.05272 0.46780
 N165 N 1.03171 0.07059 0.44503
 N166 N 1.05465 0.03403 0.52890
 N167 N 1.07244 0.03731 0.55181
 Mn168 Mn 0.99960 0.05160 0.49978
 C169 C 1.06018 0.06026 0.56686
 C170 C 1.05612 0.06102 0.43015
 N171 N 1.03738 -0.05189 0.46780
 N172 N 1.04191 -0.06990 0.44509
 N173 N 1.05870 -0.02938 0.52919
 N174 N 1.07721 -0.03088 0.55180
 N175 N 1.03927 -0.05109 0.52997
 N176 N 1.04401 -0.06792 0.55314
 N177 N 1.05654 -0.02994 0.46736
 N178 N 1.07451 -0.03230 0.44452
 Mn179 Mn 1.00620 -0.05383 0.50000
 Mn180 Mn 1.05590 0.00207 0.49810
 Cl181 Cl 1.00277 -0.00112 0.49990
 C182 C 1.06521 -0.05730 0.43077
 C183 C 1.06784 -0.05512 0.56651
 C184 C 1.17525 0.13203 0.24923
 C185 C 1.16385 0.11902 0.27457
 C186 C 1.13732 0.12943 0.28731
 C187 C 1.12255 0.15368 0.27446
 C188 C 1.13400 0.16686 0.24911
 C189 C 1.16053 0.15619 0.23605
 C190 C 1.12655 0.11494 0.31441
 C191 C 1.09798 0.11535 0.32321
 C192 C 1.08763 0.10063 0.35037
 C193 C 1.06170 0.11127 0.36424
 C194 C 1.05142 0.09834 0.39014
 C195 C 1.06677 0.07430 0.40254
 C196 C 1.09228 0.06311 0.38834
 C197 C 1.10258 0.07605 0.36244
 H198 H 1.19576 0.12307 0.24014
 H199 H 1.17578 0.10053 0.28416
 H200 H 1.10253 0.16298 0.28416
 H201 H 1.12206 0.18552 0.23990
 H202 H 1.14302 0.10311 0.32724
 H203 H 1.08145 0.12731 0.31058
 H204 H 1.04959 0.12992 0.35521
 H205 H 1.03152 0.10726 0.40051
 H206 H 1.10427 0.04431 0.39721
 H207 H 1.12195 0.06641 0.35181
 C208 C 0.82323 -0.13367 0.25094
 C209 C 0.83480 -0.12117 0.27674
 C210 C 0.86043 -0.13292 0.29002
 C211 C 0.87411 -0.15798 0.27706
 C212 C 0.86241 -0.17071 0.25122
 C213 C 0.83677 -0.15871 0.23770
 C214 C 0.87127 -0.11879 0.31771
 C215 C 0.89946 -0.12079 0.32762
 C216 C 0.91020 -0.10600 0.35506
 C217 C 0.93634 -0.11669 0.36841
 C218 C 0.94751 -0.10343 0.39409
 C219 C 0.93288 -0.07897 0.40695
 C220 C 0.90696 -0.06791 0.39349
 C221 C 0.89576 -0.08117 0.36776
 H222 H 0.80344 -0.12360 0.24157
 H223 H 0.82369 -0.10202 0.28630
 H224 H 0.89343 -0.16826 0.28705
 H225 H 0.87346 -0.19004 0.24198
 H226 H 0.85517 -0.10571 0.32994
 H227 H 0.91554 -0.13397 0.31544
 H228 H 0.94811 -0.13553 0.35903
 H229 H 0.96766 -0.11237 0.40385
 H230 H 0.89543 -0.04886 0.40272
 H231 H 0.87619 -0.07146 0.35772
 C232 C 0.82398 0.13271 0.75146
 C233 C 0.83534 0.11825 0.72661
 C234 C 0.86165 0.12804 0.71322
 C235 C 0.87624 0.15312 0.72506
 C236 C 0.86475 0.16777 0.74997
 C237 C 0.83848 0.15769 0.76349
 C238 C 0.87219 0.11209 0.68643
 C239 C 0.90057 0.11234 0.67705
 C240 C 0.91079 0.09690 0.64985
 C241 C 0.93664 0.10728 0.63599
 C242 C 0.94697 0.09398 0.61008
 C243 C 0.93188 0.06968 0.59753
 C244 C 0.90643 0.05866 0.61170
 C245 C 0.89594 0.07212 0.63766
 H246 H 0.80361 0.12431 0.76110
 H247 H 0.82351 0.09918 0.71785
 H248 H 0.89610 0.16196 0.71487
 H249 H 0.87635 0.18704 0.75852
 H250 H 0.85570 0.09944 0.67428
 H251 H 0.91707 0.12503 0.68915
 H252 H 0.94868 0.12608 0.64502
 H253 H 0.96684 0.10283 0.59984
 H254 H 0.89458 0.03975 0.60266
 H255 H 0.87653 0.06277 0.64820
 C256 C 1.12970 -0.17157 0.75198
 C257 C 1.11843 -0.16018 0.72576
 C258 C 1.13097 -0.13489 0.71313
 C259 C 1.15548 -0.12130 0.72720
 C260 C 1.16696 -0.13280 0.75347
 C261 C 1.15423 -0.15816 0.76628
 C262 C 1.11821 -0.12429 0.68496
 C263 C 1.12084 -0.09650 0.67504
 C264 C 1.10683 -0.08637 0.64720
 C265 C 1.11879 -0.06165 0.63287
 C266 C 1.10621 -0.05147 0.60660
 C267 C 1.08125 -0.06573 0.59425
 C268 C 1.06889 -0.09008 0.60882
 C269 C 1.08139 -0.10021 0.63508
 H270 H 1.11913 -0.19112 0.76083
 H271 H 1.09965 -0.17117 0.71533
 H272 H 1.16631 -0.10222 0.71778
 H273 H 1.18595 -0.12185 0.76356
 H274 H 1.10554 -0.14030 0.67225
 H275 H 1.13380 -0.08046 0.68741
 H276 H 1.13811 -0.05034 0.64190
 H277 H 1.11604 -0.03246 0.59596
 H278 H 1.04935 -0.10121 0.60005
 H279 H 1.07063 -0.11851 0.64597
 C280 C 0.25049 1.13456 1.17586
 C281 C 0.27678 1.12246 1.16453
 C282 C 0.28951 1.13360 1.13878
 C283 C 0.27562 1.15770 1.12474
 C284 C 0.24926 1.17004 1.13618
 C285 C 0.23622 1.15857 1.16191
 C286 C 0.31758 1.11977 1.12805
 C287 C 0.32684 1.12069 1.10002
 C288 C 0.35460 1.10599 1.08960
 C289 C 0.36855 1.11680 1.06426
 C290 C 0.39468 1.10362 1.05358
 C291 C 0.40728 1.07909 1.06789
 C292 C 0.39313 1.06785 1.09296
 C293 C 0.36698 1.08109 1.10370
 H294 H 0.24152 1.12496 1.19575
 H295 H 0.28711 1.10406 1.17589
 H296 H 0.28522 1.16750 1.10529
 H297 H 0.23922 1.18859 1.12485
 H298 H 0.33066 1.10773 1.14407
 H299 H 0.31400 1.13290 1.08395
 H300 H 0.35933 1.13570 1.05280
 H301 H 0.40496 1.11263 1.03404
 H302 H 0.40217 1.04872 1.10417
 H303 H 0.35634 1.07134 1.12264
 C304 C 0.23832 0.82857 0.87087
 C305 C 0.26375 0.83996 0.88464
 C306 C 0.27799 0.86512 0.87364
 C307 C 0.26644 0.87857 0.84815
 C308 C 0.24100 0.86711 0.83422
 C309 C 0.22655 0.84188 0.84535
 C310 C 0.30540 0.87571 0.88870
 C311 C 0.31523 0.90369 0.88736
 C312 C 0.34312 0.91403 0.90178
 C313 C 0.35708 0.93938 0.89072
 C314 C 0.38366 0.94973 0.90310
 C315 C 0.39678 0.93508 0.92705
 C316 C 0.38254 0.91014 0.93869
 C317 C 0.35590 0.89971 0.92625
 H318 H 0.22811 0.80910 0.88029
 H319 H 0.27230 0.82905 0.90408
 H320 H 0.27732 0.89746 0.83842
 H321 H 0.23291 0.87796 0.81456
 H322 H 0.31762 0.85961 0.90151
 H323 H 0.30294 0.91975 0.87455
 H324 H 0.34759 0.95101 0.87213
 H325 H 0.39401 0.96918 0.89380
 H326 H 0.39199 0.89866 0.95738
 H327 H 0.34532 0.88075 0.93616
 C328 C 0.74909 0.86856 1.17535
 C329 C 0.72370 0.88183 1.16332
 C330 C 0.71051 0.87046 1.13760
 C331 C 0.72310 0.84506 1.12428
 C332 C 0.74852 0.83167 1.13633
 C333 C 0.76196 0.84322 1.16208
 C334 C 0.68324 0.88530 1.12620
 C335 C 0.67332 0.88266 1.09838
 C336 C 0.64606 0.89781 1.08738
 C337 C 0.63135 0.88599 1.06262
 C338 C 0.60558 0.89947 1.05155
 C339 C 0.59409 0.92527 1.06488
 C340 C 0.60905 0.93750 1.08929
 C341 C 0.63482 0.92402 1.10040
 H342 H 0.75848 0.87827 1.19519
 H343 H 0.71438 0.90123 1.17417
 H344 H 0.71317 0.83499 1.10494
 H345 H 0.75746 0.81211 1.12547
 H346 H 0.67117 0.89926 1.14161
 H347 H 0.68514 0.86856 1.08290
 H348 H 0.63969 0.86605 1.05197
 H349 H 0.59463 0.88966 1.03255
 H350 H 0.60091 0.95760 1.09978
 H351 H 0.64604 0.93455 1.11879
 C352 C 0.74986 1.17650 0.86464
 C353 C 0.72466 1.16452 0.87799
 C354 C 0.71220 1.13801 0.86750
 C355 C 0.72518 1.12385 0.84291
 C356 C 0.75041 1.13583 0.82947
 C357 C 0.76317 1.16233 0.84016
 C358 C 0.68520 1.12660 0.88226
 C359 C 0.67663 1.09819 0.88109
 C360 C 0.64934 1.08746 0.89583
 C361 C 0.63460 1.06265 0.88407
 C362 C 0.60830 1.05238 0.89691
 C363 C 0.59647 1.06663 0.92193
 C364 C 0.61166 1.09090 0.93426
 C365 C 0.63792 1.10118 0.92142
 H366 H 0.75878 1.19697 0.87361
 H367 H 0.71492 1.17598 0.89675
 H368 H 0.71568 1.10390 0.83351
 H369 H 0.75971 1.12430 0.81055
 H370 H 0.67212 1.14247 0.89480
 H371 H 0.68936 1.08219 0.86840
 H372 H 0.64318 1.05149 0.86461
 H373 H 0.59716 1.03341 0.88715
 H374 H 0.60326 1.10198 0.95383
 H375 H 0.64931 1.11960 0.93184
 C376 C 0.12973 0.24403 0.17378
 C377 C 0.11582 0.26902 0.16207
 C378 C 0.12678 0.28229 0.13646
 C379 C 0.15236 0.27009 0.12289
 C380 C 0.16638 0.24507 0.13467
 C381 C 0.15525 0.23175 0.16029
 C382 C 0.11155 0.30935 0.12558
 C383 C 0.11349 0.31910 0.09780
 C384 C 0.09855 0.34650 0.08731
 C385 C 0.10987 0.36040 0.06216
 C386 C 0.09684 0.38641 0.05163
 C387 C 0.07199 0.39900 0.06591
 C388 C 0.06015 0.38483 0.09068
 C389 C 0.07320 0.35879 0.10125
 H390 H 0.12053 0.23449 0.19359
 H391 H 0.09632 0.27804 0.17311
 H392 H 0.16213 0.28010 0.10363
 H393 H 0.18611 0.23634 0.12384
 H394 H 0.09806 0.32145 0.14138
 H395 H 0.12705 0.30708 0.08200
 H396 H 0.12913 0.35129 0.05080
 H397 H 0.10634 0.39672 0.03234
 H398 H 0.04077 0.39385 0.10189
 H399 H 0.06302 0.34827 0.12002
 C400 C -0.18017 0.25632 -0.14224
 C401 C -0.16925 0.28231 -0.12950
 C402 C -0.14103 0.29313 -0.13708
 C403 C -0.12417 0.27771 -0.15855
 C404 C -0.13524 0.25161 -0.17152
 C405 C -0.16326 0.24047 -0.16325
 C406 C -0.13069 0.32070 -0.12229
 C407 C -0.10197 0.32867 -0.11993
 C408 C -0.09230 0.35603 -0.10435
 C409 C -0.06563 0.36952 -0.11311
 C410 C -0.05573 0.39539 -0.09922
 C411 C -0.07208 0.40817 -0.07591
 C412 C -0.09841 0.39437 -0.06655
 C413 C -0.10848 0.36851 -0.08063
 H414 H -0.20199 0.24866 -0.13547
 H415 H -0.18284 0.29383 -0.11329
 H416 H -0.10267 0.28578 -0.16568
 H417 H -0.12177 0.24005 -0.18778
 H418 H -0.14769 0.33458 -0.11225
 H419 H -0.08477 0.31523 -0.13016
 H420 H -0.05259 0.36019 -0.13103
 H421 H -0.03515 0.40536 -0.10675
 H422 H -0.11124 0.40357 -0.04842
 H423 H -0.12859 0.35815 -0.07255
 C424 C 0.12422 0.75375 -0.17155
 C425 C 0.11113 0.72839 -0.15986
 C426 C 0.12281 0.71526 -0.13441
 C427 C 0.14827 0.72780 -0.12107
 C428 C 0.16136 0.75316 -0.13276
 C429 C 0.14950 0.76645 -0.15812
 C430 C 0.10844 0.68804 -0.12326
 C431 C 0.11132 0.67838 -0.09553
 C432 C 0.09722 0.65082 -0.08493
 C433 C 0.11018 0.63604 -0.06101
 C434 C 0.09784 0.60971 -0.05064
 C435 C 0.07211 0.59783 -0.06389
 C436 C 0.05868 0.61297 -0.08733
 C437 C 0.07101 0.63926 -0.09770
 H438 H 0.11455 0.76333 -0.19117
 H439 H 0.09170 0.71904 -0.17071
 H440 H 0.15866 0.71787 -0.10205
 H441 H 0.18099 0.76218 -0.12201
 H442 H 0.09484 0.67568 -0.13877
 H443 H 0.12502 0.69050 -0.07995
 H444 H 0.13015 0.64468 -0.05056
 H445 H 0.10848 0.59861 -0.03235
 H446 H 0.03857 0.60453 -0.09767
 H447 H 0.05965 0.65057 -0.11539
 C448 C -0.17666 0.75222 0.13524
 C449 C -0.16523 0.72642 0.12226
 C450 C -0.13958 0.71265 0.13358
 C451 C -0.12572 0.72524 0.15861
 C452 C -0.13724 0.75111 0.17170
 C453 C -0.16288 0.76492 0.16018
 C454 C -0.12897 0.68486 0.11906
 C455 C -0.10132 0.67360 0.12198
 C456 C -0.09107 0.64591 0.10699
 C457 C -0.06622 0.63084 0.11846
 C458 C -0.05563 0.60483 0.10503
 C459 C -0.06956 0.59339 0.07964
 C460 C -0.09415 0.60861 0.06784
 C461 C -0.10476 0.63463 0.08125
 H462 H -0.19648 0.76208 0.12574
 H463 H -0.17650 0.71719 0.10315
 H464 H -0.10640 0.71501 0.16861
 H465 H -0.12616 0.76015 0.19099
 H466 H -0.14491 0.67352 0.10507
 H467 H -0.08535 0.68469 0.13614
 H468 H -0.05503 0.63912 0.13803
 H469 H -0.03650 0.59371 0.11455
 H470 H -0.10511 0.60052 0.04807
 H471 H -0.12325 0.64599 0.07096
 C472 C 1.12648 0.17735 0.75330
 C473 C 1.11243 0.16646 0.72798
 C474 C 1.12315 0.14093 0.71373
 C475 C 1.14870 0.12673 0.72498
 C476 C 1.16281 0.13758 0.75029
 C477 C 1.15192 0.16307 0.76488
 C478 C 1.10791 0.13056 0.68661
 C479 C 1.10904 0.10240 0.67708
 C480 C 1.09550 0.09220 0.64907
 C481 C 1.10777 0.06714 0.63517
 C482 C 1.09628 0.05691 0.60842
 C483 C 1.07200 0.07136 0.59516
 C484 C 1.05915 0.09604 0.60931
 C485 C 1.07079 0.10641 0.63608
 H486 H 1.11733 0.19709 0.76366
 H487 H 1.09298 0.17797 0.71957
 H488 H 1.15837 0.10764 0.71402
 H489 H 1.18245 0.12603 0.75818
 H490 H 1.09548 0.14686 0.67424
 H491 H 1.12134 0.08611 0.68958
 H492 H 1.12661 0.05565 0.64485
 H493 H 1.10645 0.03763 0.59815
 H494 H 1.04016 0.10732 0.59971
 H495 H 1.06009 0.12521 0.64663
 C496 C 0.82812 -0.12928 0.75363
 C497 C 0.83962 -0.11614 0.72827
 C498 C 0.86574 -0.12704 0.71492
 C499 C 0.87998 -0.15180 0.72737
 C500 C 0.86854 -0.16497 0.75272
 C501 C 0.84238 -0.15397 0.76629
 C502 C 0.87658 -0.11269 0.68758
 C503 C 0.90468 -0.11513 0.67740
 C504 C 0.91532 -0.10121 0.64977
 C505 C 0.94116 -0.11261 0.63620
 C506 C 0.95205 -0.10029 0.61017
 C507 C 0.93742 -0.07613 0.59723
 C508 C 0.91188 -0.06434 0.61099
 C509 C 0.90097 -0.07664 0.63701
 H510 H 0.80794 -0.12004 0.76316
 H511 H 0.82803 -0.09726 0.71905
 H512 H 0.89959 -0.16162 0.71737
 H513 H 0.88019 -0.18404 0.76144
 H514 H 0.86048 -0.09954 0.67562
 H515 H 0.92079 -0.12827 0.68935
 H516 H 0.95285 -0.13130 0.64566
 H517 H 0.97191 -0.10973 0.60017
 H518 H 0.90034 -0.04547 0.60170
 H519 H 0.88166 -0.06643 0.64717
 C520 C 1.14183 -0.18107 0.25382
 C521 C 1.12925 -0.16930 0.27941
 C522 C 1.13900 -0.14214 0.29088
 C523 C 1.16234 -0.12716 0.27655
 C524 C 1.17525 -0.13909 0.25091
 C525 C 1.16500 -0.16617 0.23902
 C526 C 1.12452 -0.13089 0.31809
 C527 C 1.12293 -0.10215 0.32553
 C528 C 1.10737 -0.09129 0.35236
 C529 C 1.11624 -0.06417 0.36478
 C530 C 1.10243 -0.05320 0.39019
 C531 C 1.07917 -0.06899 0.40359
 C532 C 1.06969 -0.09579 0.39084
 C533 C 1.08359 -0.10684 0.36541
 H534 H 1.13321 -0.20204 0.24578
 H535 H 1.11150 -0.18140 0.29013
 H536 H 1.17104 -0.10653 0.28526
 H537 H 1.19314 -0.12701 0.24043
 H538 H 1.11394 -0.14715 0.33198
 H539 H 1.13367 -0.08581 0.31184
 H540 H 1.13420 -0.05159 0.35499
 H541 H 1.11006 -0.03232 0.39937
 H542 H 1.05156 -0.10821 0.40052
 H543 H 1.07529 -0.12727 0.35589
 C544 C 0.87183 0.17160 0.24952
 C545 C 0.88430 0.16029 0.27531
 C546 C 0.87248 0.13491 0.28847
 C547 C 0.84746 0.12122 0.27546
 C548 C 0.83488 0.13254 0.24966
 C549 C 0.84688 0.15793 0.23625
 C550 C 0.88639 0.12422 0.31612
 C551 C 0.88378 0.09643 0.32610
 C552 C 0.89805 0.08601 0.35369
 C553 C 0.88623 0.06105 0.36773
 C554 C 0.89901 0.05045 0.39373
 C555 C 0.92404 0.06452 0.40612
 C556 C 0.93623 0.08918 0.39188
 C557 C 0.92350 0.09976 0.36589
 H558 H 0.88183 0.19120 0.24014
 H559 H 0.90343 0.17141 0.28496
 H560 H 0.83703 0.10216 0.28534
 H561 H 0.81558 0.12139 0.24042
 H562 H 0.89960 0.14012 0.32840
 H563 H 0.87044 0.08051 0.31399
 H564 H 0.86688 0.04983 0.35866
 H565 H 0.88927 0.03126 0.40413
 H566 H 0.95579 0.10021 0.40071
 H567 H 0.93409 0.11831 0.35526
 C568 C 0.17216 0.24778 -0.13258
 C569 C 0.16107 0.27340 -0.11902
 C570 C 0.13564 0.28766 -0.13014
 C571 C 0.12180 0.27614 -0.15557
 C572 C 0.13283 0.25054 -0.16916
 C573 C 0.15816 0.23590 -0.15786
 C574 C 0.12495 0.31494 -0.11521
 C575 C 0.09672 0.32477 -0.11701
 C576 C 0.08630 0.35233 -0.10244
 C577 C 0.06150 0.36718 -0.11421
 C578 C 0.05118 0.39349 -0.10134
 C579 C 0.06539 0.40525 -0.07629
 C580 C 0.08977 0.39009 -0.06407
 C581 C 0.10009 0.36382 -0.07692
 H582 H 0.19176 0.23738 -0.12315
 H583 H 0.17230 0.28203 -0.09962
 H584 H 0.10282 0.28707 -0.16550
 H585 H 0.12150 0.24244 -0.18872
 H586 H 0.14111 0.32705 -0.10211
 H587 H 0.08053 0.31273 -0.13013
 H588 H 0.05029 0.35858 -0.13364
 H589 H 0.03214 0.40461 -0.11103
 H590 H 0.10084 0.39847 -0.04448
 H591 H 0.11851 0.35244 -0.06649
 C592 C -0.12873 0.24514 0.17395
 C593 C -0.11629 0.27077 0.16225
 C594 C -0.12799 0.28349 0.13665
 C595 C -0.15286 0.27002 0.12304
 C596 C -0.16548 0.24429 0.13482
 C597 C -0.15361 0.23144 0.16052
 C598 C -0.11398 0.31117 0.12581
 C599 C -0.11699 0.32159 0.09835
 C600 C -0.10235 0.34920 0.08813
 C601 C -0.11467 0.36420 0.06401
 C602 C -0.10168 0.39029 0.05370
 C603 C -0.07589 0.40184 0.06717
 C604 C -0.06316 0.38660 0.09092
 C605 C -0.07614 0.36051 0.10125
 H606 H -0.11875 0.23624 0.19375
 H607 H -0.09727 0.28070 0.17330
 H608 H -0.16312 0.27946 0.10370
 H609 H -0.18467 0.23468 0.12381
 H610 H -0.10024 0.32321 0.14144
 H611 H -0.13100 0.30997 0.08267
 H612 H -0.13461 0.35585 0.05327
 H613 H -0.11189 0.40143 0.03520
 H614 H -0.04305 0.39478 0.10148
 H615 H -0.06520 0.34912 0.11914
 C616 C -0.12514 0.75726 -0.17216
 C617 C -0.11134 0.73221 -0.16030
 C618 C -0.12337 0.71818 -0.13552
 C619 C -0.14987 0.72950 -0.12309
 C620 C -0.16365 0.75451 -0.13492
 C621 C -0.15148 0.76871 -0.15960
 C622 C -0.10840 0.69120 -0.12420
 C623 C -0.11180 0.68128 -0.09660
 C624 C -0.09783 0.65367 -0.08559
 C625 C -0.11066 0.63967 -0.06118
 C626 C -0.09858 0.61335 -0.05030
 C627 C -0.07324 0.60061 -0.06352
 C628 C -0.05993 0.61490 -0.08750
 C629 C -0.07200 0.64121 -0.09839
 H630 H -0.11521 0.76754 -0.19124
 H631 H -0.09112 0.72378 -0.17049
 H632 H -0.16055 0.71883 -0.10468
 H633 H -0.18407 0.76252 -0.12483
 H634 H -0.09416 0.67926 -0.13945
 H635 H -0.12599 0.69329 -0.08135
 H636 H -0.13035 0.64894 -0.05071
 H637 H -0.10917 0.60291 -0.03165
 H638 H -0.04013 0.60577 -0.09786
 H639 H -0.06072 0.65178 -0.11650
 C640 C 0.13927 0.74395 0.18138
 C641 C 0.12571 0.71823 0.17075
 C642 C 0.13493 0.70528 0.14415
 C643 C 0.15875 0.71821 0.12864
 C644 C 0.17253 0.74398 0.13936
 C645 C 0.16285 0.75738 0.16582
 C646 C 0.11957 0.67802 0.13393
 C647 C 0.11805 0.66970 0.10558
 C648 C 0.10277 0.64241 0.09531
 C649 C 0.11186 0.62972 0.06851
 C650 C 0.09837 0.60397 0.05784
 C651 C 0.07516 0.59046 0.07357
 C652 C 0.06548 0.60339 0.10013
 C653 C 0.07915 0.62918 0.11094
 H654 H 0.13108 0.75322 0.20193
 H655 H 0.10763 0.70857 0.18326
 H656 H 0.16718 0.70831 0.10852
 H657 H 0.19074 0.75333 0.12682
 H658 H 0.10864 0.66483 0.15051
 H659 H 0.12897 0.68292 0.08901
 H660 H 0.12974 0.63959 0.05589
 H661 H 0.10616 0.59469 0.03714
 H662 H 0.04741 0.59359 0.11249
 H663 H 0.07080 0.63886 0.13120
 C664 C 0.24315 1.13078 0.82414
 C665 C 0.26876 1.11708 0.83526
 C666 C 0.28342 1.12873 0.86010
 C667 C 0.27225 1.15479 0.87334
 C668 C 0.24667 1.16849 0.86224
 C669 C 0.23179 1.15664 0.83754
 C670 C 0.31080 1.11374 0.87077
 C671 C 0.32109 1.11645 0.89843
 C672 C 0.34894 1.10218 0.90884
 C673 C 0.36385 1.11463 0.93317
 C674 C 0.39038 1.10213 0.94354
 C675 C 0.40237 1.07674 0.92989
 C676 C 0.38718 1.06386 0.90596
 C677 C 0.36067 1.07636 0.89556
 H678 H 0.23233 1.12111 0.80501
 H679 H 0.27707 1.09719 0.82449
 H680 H 0.28346 1.16517 0.89183
 H681 H 0.23874 1.18856 0.87292
 H682 H 0.32265 1.09995 0.85504
 H683 H 0.30924 1.13022 0.91417
 H684 H 0.35512 1.13431 0.94398
 H685 H 0.40151 1.11236 0.96221
 H686 H 0.39573 1.04402 0.89530
 H687 H 0.34931 1.06542 0.87748
 C688 C 0.24920 0.82274 1.13244
 C689 C 0.27387 0.83512 1.11831
 C690 C 0.28727 0.86109 1.12919
 C691 C 0.27543 0.87436 1.15488
 C692 C 0.25072 0.86193 1.16908
 C693 C 0.23733 0.83592 1.15808
 C694 C 0.31404 0.87265 1.11364
 C695 C 0.32455 0.90039 1.11667
 C696 C 0.35157 0.91149 1.10120
 C697 C 0.36627 0.93651 1.11273
 C698 C 0.39179 0.94775 1.09905
 C699 C 0.40310 0.93433 1.07334
 C700 C 0.38818 0.90965 1.06142
 C701 C 0.36264 0.89838 1.07510
 H702 H 0.23960 0.80267 1.12331
 H703 H 0.28254 0.82428 1.09871
 H704 H 0.28544 0.89390 1.16460
 H705 H 0.24234 0.87258 1.18888
 H706 H 0.32536 0.85730 1.09900
 H707 H 0.31343 0.91576 1.13142
 H708 H 0.35812 0.94726 1.13259
 H709 H 0.40269 0.96693 1.10866
 H710 H 0.39617 0.89906 1.04142
 H711 H 0.35152 0.87976 1.06478
 C712 C 0.75754 1.12881 1.17394
 C713 C 0.73204 1.11530 1.16228
 C714 C 0.71890 1.12570 1.13628
 C715 C 0.73173 1.15036 1.12230
 C716 C 0.75727 1.16397 1.13404
 C717 C 0.77049 1.15336 1.16002
 C718 C 0.69135 1.11088 1.12538
 C719 C 0.68168 1.11218 1.09742
 C720 C 0.65378 1.09781 1.08674
 C721 C 0.64046 1.10857 1.06096
 C722 C 0.61410 1.09608 1.05007
 C723 C 0.60053 1.07229 1.06458
 C724 C 0.61408 1.06100 1.09005
 C725 C 0.64048 1.07357 1.10103
 H726 H 0.76696 1.12002 1.19404
 H727 H 0.72256 1.09653 1.17365
 H728 H 0.72185 1.15971 1.10272
 H729 H 0.76649 1.18296 1.12286
 H730 H 0.67883 1.09826 1.14128
 H731 H 0.69419 1.12481 1.08152
 H732 H 0.65031 1.12698 1.04933
 H733 H 0.60432 1.10515 1.03025
 H734 H 0.60428 1.04246 1.10149
 H735 H 0.65049 1.06388 1.12037
 C736 C 0.75389 0.82602 0.86741
 C737 C 0.72756 0.83610 0.88063
 C738 C 0.71267 0.86116 0.86993
 C739 C 0.72445 0.87568 0.84517
 C740 C 0.75081 0.86555 0.83187
 C741 C 0.76589 0.84062 0.84286
 C742 C 0.68456 0.87069 0.88459
 C743 C 0.67378 0.89841 0.88334
 C744 C 0.64540 0.90810 0.89737
 C745 C 0.63142 0.93364 0.88660
 C746 C 0.60480 0.94394 0.89897
 C747 C 0.59161 0.92909 0.92268
 C748 C 0.60567 0.90373 0.93387
 C749 C 0.63237 0.89330 0.92137
 H750 H 0.76476 0.80666 0.87644
 H751 H 0.71887 0.82433 0.89946
 H752 H 0.71316 0.89446 0.83554
 H753 H 0.75924 0.87716 0.81285
 H754 H 0.67272 0.85414 0.89706
 H755 H 0.68580 0.91493 0.87100
 H756 H 0.64104 0.94561 0.86835
 H757 H 0.59463 0.96370 0.88998
 H758 H 0.59614 0.89206 0.95235
 H759 H 0.64287 0.87406 0.93097
   
