data_POSCAR
  _audit_creation_date              2014-09-24
  _audit_creation_method            'ToBaCCo'
  _symmetry_space_group_name_H-M    'P1'
  _symmetry_Int_Tables_number       1
  _symmetry_cell_setting            triclinic
  loop_
  _symmetry_equiv_pos_as_xyz
 x,y,z
_cell_length_a 53.0962
_cell_length_b 53.1854
_cell_length_c 21.0089
_cell_angle_alpha 90.019600
_cell_angle_beta 90.020000
_cell_angle_gamma 120.000100
loop_
  _atom_site_label
  _atom_site_type_symbol
  _atom_site_fract_x
  _atom_site_fract_y
  _atom_site_fract_z
C1 C 0.17967 0.46703 0.44190
 C2 C 0.16688 0.46716 0.49990
 C3 C 0.17978 0.46710 0.55783
 C4 C 0.20626 0.46680 0.55845
 C5 C 0.21949 0.46661 0.49983
 C6 C 0.20615 0.46671 0.44123
 C7 C 0.21972 0.46661 0.38379
 C8 C 0.24590 0.46653 0.38379
 C9 C 0.25951 0.46655 0.44120
 C10 C 0.24620 0.46654 0.49981
 C11 C 0.21994 0.46682 0.61586
 C12 C 0.24614 0.46677 0.61581
 C13 C 0.25969 0.46669 0.55835
 C14 C 0.28643 0.46687 0.55755
 C15 C 0.29921 0.46683 0.49947
 C16 C 0.28618 0.46671 0.44171
 H17 H 0.21018 0.46664 0.33824
 H18 H 0.25544 0.46649 0.33827
 H19 H 0.21047 0.46692 0.66143
 H20 H 0.25575 0.46684 0.66132
 H21 H 0.14660 0.46755 0.49995
 H22 H 0.31982 0.46712 0.49908
 C23 C 0.53305 -0.28691 0.44398
 C24 C 0.53293 -0.29990 0.50176
 C25 C 0.53297 -0.28707 0.55984
 C26 C 0.53322 -0.26035 0.56072
 C27 C 0.53340 -0.24689 0.50222
 C28 C 0.53332 -0.26022 0.44355
 C29 C 0.53340 -0.24660 0.38618
 C30 C 0.53343 -0.22040 0.38630
 C31 C 0.53339 -0.20688 0.44380
 C32 C 0.53343 -0.22019 0.50234
 C33 C 0.53318 -0.24679 0.61823
 C34 C 0.53320 -0.22060 0.61835
 C35 C 0.53326 -0.20694 0.56097
 C36 C 0.53304 -0.18044 0.56031
 C37 C 0.53306 -0.16760 0.50229
 C38 C 0.53319 -0.18044 0.44445
 H39 H 0.53338 -0.25613 0.34064
 H40 H 0.53345 -0.21081 0.34083
 H41 H 0.53309 -0.25640 0.66372
 H42 H 0.53312 -0.21112 0.66391
 H43 H 0.53257 -0.32051 0.50139
 H44 H 0.53274 -0.14733 0.50201
 C45 C 1.18056 0.71384 0.44278
 C46 C 1.16765 0.70080 0.50050
 C47 C 1.18042 0.71359 0.55863
 C48 C 1.20693 0.74034 0.55953
 C49 C 1.22026 0.75383 0.50103
 C50 C 1.20701 0.74051 0.44238
 C51 C 1.22059 0.75413 0.38501
 C52 C 1.24680 0.78032 0.38511
 C53 C 1.26042 0.79389 0.44260
 C54 C 1.24700 0.78055 0.50115
 C55 C 1.22052 0.75389 0.61704
 C56 C 1.24671 0.78010 0.61718
 C57 C 1.26036 0.79378 0.55982
 C58 C 1.28710 0.82027 0.55930
 C59 C 1.30005 0.83317 0.50142
 C60 C 1.28717 0.82038 0.44338
 H61 H 1.21105 0.74459 0.33946
 H62 H 1.25637 0.78986 0.33960
 H63 H 1.21097 0.74428 0.66251
 H64 H 1.25625 0.78957 0.66279
 H65 H 1.14737 0.68019 0.50004
 H66 H 1.32068 0.85346 0.50156
 C67 C 0.71328 0.53316 0.44355
 C68 C 0.70033 0.53304 0.50142
 C69 C 0.71324 0.53308 0.55941
 C70 C 0.74002 0.53334 0.56005
 C71 C 0.75343 0.53352 0.50142
 C72 C 0.74001 0.53344 0.44288
 C73 C 0.75358 0.53352 0.38538
 C74 C 0.77983 0.53356 0.38525
 C75 C 0.79345 0.53353 0.44261
 C76 C 0.78019 0.53356 0.50128
 C77 C 0.75368 0.53331 0.61743
 C78 C 0.77992 0.53333 0.61729
 C79 C 0.79353 0.53340 0.55978
 C80 C 0.82007 0.53318 0.55888
 C81 C 0.83287 0.53321 0.50078
 C82 C 0.81995 0.53333 0.44302
 H83 H 0.74397 0.53350 0.33992
 H84 H 0.78937 0.53358 0.33970
 H85 H 0.74412 0.53322 0.66300
 H86 H 0.78948 0.53325 0.66278
 H87 H 0.67968 0.53267 0.50119
 H88 H 0.85318 0.53290 0.50036
 C89 C 0.46656 0.18039 0.55923
 C90 C 0.46659 0.16744 0.50145
 C91 C 0.46649 0.18016 0.44342
 C92 C 0.46624 0.20659 0.44248
 C93 C 0.46618 0.21999 0.50091
 C94 C 0.46633 0.20684 0.55961
 C95 C 0.46639 0.22052 0.61690
 C96 C 0.46641 0.24672 0.61664
 C97 C 0.46636 0.26021 0.55904
 C98 C 0.46618 0.24667 0.50061
 C99 C 0.46619 0.22001 0.38489
 C100 C 0.46618 0.24619 0.38458
 C101 C 0.46623 0.25989 0.44185
 C102 C 0.46646 0.28655 0.44211
 C103 C 0.46660 0.29964 0.49980
 C104 C 0.46662 0.28693 0.55799
 H105 H 0.46647 0.21107 0.66248
 H106 H 0.46650 0.25638 0.66208
 H107 H 0.46620 0.21036 0.33950
 H108 H 0.46617 0.25565 0.33896
 H109 H 0.46693 0.14720 0.50165
 H110 H 0.46694 0.32024 0.49927
 C111 C 0.71382 0.18069 0.55882
 C112 C 0.70094 0.16783 0.50088
 C113 C 0.71388 0.18066 0.44302
 C114 C 0.74058 0.20712 0.44245
 C115 C 0.75395 0.22041 0.50106
 C116 C 0.74052 0.20714 0.55957
 C117 C 0.75405 0.22071 0.61705
 C118 C 0.78028 0.24692 0.61716
 C119 C 0.79393 0.26053 0.55976
 C120 C 0.78066 0.24712 0.50114
 C121 C 0.75417 0.22067 0.38504
 C122 C 0.78038 0.24688 0.38510
 C123 C 0.79394 0.26047 0.44257
 C124 C 0.82039 0.28715 0.44319
 C125 C 0.83327 0.30012 0.50105
 C126 C 0.82045 0.28727 0.55907
 H127 H 0.74443 0.21116 0.66251
 H128 H 0.78978 0.25648 0.66273
 H129 H 0.74459 0.21111 0.33953
 H130 H 0.78994 0.25645 0.33961
 H131 H 0.68033 0.14757 0.50083
 H132 H 0.85355 0.32073 0.50078
 N133 N 0.96984 0.52991 0.06738
 N134 N 0.94987 0.53707 0.08028
 N135 N 1.03103 0.54289 0.11104
 N136 N 1.05098 0.55747 0.15461
 N137 N 1.03102 0.56052 0.06728
 N138 N 1.05098 0.58765 0.08002
 N139 N 0.96993 0.51231 0.11113
 N140 N 0.95005 0.50698 0.15482
 C141 C 0.93752 0.52222 0.13443
 C142 C 1.06343 0.58520 0.13410
 N143 N 1.03120 0.47113 0.06790
 N144 N 1.05108 0.46386 0.08117
 N145 N 0.97004 0.45825 0.11145
 N146 N 0.95016 0.44376 0.15516
 N147 N 0.97002 0.44051 0.06788
 N148 N 0.95010 0.41341 0.08090
 N149 N 1.03114 0.48883 0.11145
 N150 N 1.05095 0.49414 0.15536
 Mn151 Mn 1.00054 0.50057 0.11178
 C152 C 1.06342 0.47878 0.13531
 C153 C 0.93770 0.41598 0.13494
 N154 N 1.03097 0.56038 -0.07022
 N155 N 1.05089 0.58749 -0.08326
 N156 N 0.96983 0.51205 -0.11371
 N157 N 0.94985 0.50657 -0.15731
 N158 N 0.96978 0.52974 -0.07011
 N159 N 0.94974 0.53682 -0.08300
 N160 N 1.03094 0.54265 -0.11380
 N161 N 1.05082 0.55714 -0.15753
 Mn162 Mn 1.00040 0.54542 -0.00142
 C163 C 1.06328 0.58493 -0.13734
 C164 C 0.93731 0.52183 -0.13700
 N165 N 0.96995 0.44035 -0.06962
 N166 N 0.94999 0.41322 -0.08238
 N167 N 1.03103 0.48857 -0.11341
 N168 N 1.05096 0.49395 -0.15701
 N169 N 1.03113 0.47099 -0.06963
 N170 N 1.05115 0.46387 -0.08239
 N171 N 0.96993 0.45798 -0.11339
 N172 N 0.94998 0.44339 -0.15696
 Mn173 Mn 1.00058 0.45546 -0.00087
 Mn174 Mn 1.00043 0.50031 -0.11410
 Cl175 Cl 1.00049 0.50044 -0.00116
 C176 C 0.93753 0.41566 -0.13648
 C177 C 1.06352 0.47874 -0.13650
 N178 N 0.47012 0.43975 0.06662
 N179 N 0.46290 0.41262 0.07939
 N180 N 0.45720 0.48789 0.11044
 N181 N 0.44261 0.49323 0.15398
 N182 N 0.43954 0.47029 0.06657
 N183 N 0.41237 0.46314 0.07921
 N184 N 0.48775 0.45739 0.11047
 N185 N 0.49305 0.44282 0.15411
 C186 C 0.47775 0.41508 0.13358
 C187 C 0.41484 0.47799 0.13335
 N188 N 0.52916 0.55978 0.06772
 N189 N 0.53642 0.58688 0.08100
 N190 N 0.54195 0.51150 0.11112
 N191 N 0.55643 0.50611 0.15489
 N192 N 0.55974 0.52923 0.06766
 N193 N 0.58688 0.53643 0.08082
 N194 N 0.51140 0.54201 0.11116
 N195 N 0.50604 0.55646 0.15503
 Mn196 Mn 0.49957 0.49969 0.11131
 C197 C 0.52145 0.58427 0.13506
 C198 C 0.58427 0.52146 0.13483
 N199 N 0.43972 0.47049 -0.07094
 N200 N 0.41258 0.46331 -0.08406
 N201 N 0.48807 0.45771 -0.11438
 N202 N 0.49354 0.44326 -0.15803
 N203 N 0.47033 0.43996 -0.07088
 N204 N 0.46319 0.41287 -0.08389
 N205 N 0.45751 0.48821 -0.11441
 N206 N 0.44302 0.49362 -0.15815
 Mn207 Mn 0.45464 0.45484 -0.00216
 C208 C 0.41518 0.47828 -0.13808
 C209 C 0.47821 0.41547 -0.13785
 N210 N 0.55995 0.52943 -0.06984
 N211 N 0.58711 0.53657 -0.08247
 N212 N 0.51173 0.54233 -0.11369
 N213 N 0.50632 0.55690 -0.15712
 N214 N 0.52934 0.55995 -0.06979
 N215 N 0.53644 0.58707 -0.08229
 N216 N 0.54229 0.51184 -0.11372
 N217 N 0.55689 0.50649 -0.15725
 Mn218 Mn 0.54483 0.54488 -0.00107
 Mn219 Mn 0.49990 0.50003 -0.11458
 Cl220 Cl 0.49974 0.49986 -0.00163
 C221 C 0.58466 0.52172 -0.13662
 C222 C 0.52154 0.58462 -0.13638
 N223 N 0.43966 -0.03122 0.06982
 N224 N 0.41252 -0.05109 0.08306
 N225 N 0.48794 0.02989 0.11326
 N226 N 0.49336 0.04981 0.15686
 N227 N 0.47017 0.02986 0.06969
 N228 N 0.46298 0.04979 0.08259
 N229 N 0.45747 -0.03112 0.11338
 N230 N 0.44301 -0.05088 0.15728
 C231 C 0.41515 -0.06336 0.13722
 C232 C 0.47799 0.06223 0.13658
 N233 N 0.55989 0.03003 0.06917
 N234 N 0.58705 0.05003 0.08190
 N235 N 0.51173 -0.03100 0.11297
 N236 N 0.50640 -0.05088 0.15656
 N237 N 0.52937 -0.03104 0.06919
 N238 N 0.53658 -0.05097 0.08195
 N239 N 0.54220 0.02999 0.11292
 N240 N 0.55677 0.04994 0.15648
 Mn241 Mn 0.49984 -0.00056 0.11365
 C242 C 0.58455 0.06245 0.13599
 C243 C 0.52170 -0.06335 0.13605
 N244 N 0.47002 0.02980 -0.06779
 N245 N 0.46287 0.04979 -0.08043
 N246 N 0.45722 -0.03120 -0.11152
 N247 N 0.44266 -0.05112 -0.15511
 N248 N 0.43953 -0.03127 -0.06773
 N249 N 0.41237 -0.05126 -0.08049
 N250 N 0.48767 0.02980 -0.11156
 N251 N 0.49306 0.04974 -0.15504
 Mn252 Mn 0.45456 -0.00071 0.00099
 C253 C 0.47778 0.06222 -0.13449
 C254 C 0.41487 -0.06364 -0.13460
 N255 N 0.52922 -0.03111 -0.06832
 N256 N 0.53644 -0.05102 -0.08133
 N257 N 0.54194 0.02990 -0.11189
 N258 N 0.55641 0.04985 -0.15543
 N259 N 0.55972 0.02997 -0.06830
 N260 N 0.58684 0.05001 -0.08111
 N261 N 0.51147 -0.03112 -0.11191
 N262 N 0.50609 -0.05100 -0.15561
 Mn263 Mn 0.54483 -0.00054 0.00043
 Mn264 Mn 0.49957 -0.00066 -0.11225
 Cl265 Cl 0.49970 -0.00062 0.00070
 C266 C 0.52147 -0.06343 -0.13539
 C267 C 0.58423 0.06240 -0.13508
 C268 C 1.16585 0.46780 0.38755
 C269 C 1.15262 0.46875 0.34180
 C270 C 1.13589 0.47020 0.29118
 C271 C 1.12062 0.47173 0.25068
 C272 C 1.10166 0.47385 0.20667
 C273 C 1.08463 0.47595 0.17224
 C274 C 0.53227 0.69776 0.38648
 C275 C 0.53133 0.68353 0.34089
 C276 C 0.52989 0.66530 0.29046
 C277 C 0.52838 0.64848 0.25011
 C278 C 0.52629 0.62739 0.20625
 C279 C 0.52423 0.60828 0.17192
 C280 C 0.30176 -0.16580 0.38907
 C281 C 0.31594 -0.15256 0.34338
 C282 C 0.33412 -0.13583 0.29284
 C283 C 0.35092 -0.12055 0.25241
 C284 C 0.37200 -0.10159 0.20848
 C285 C 0.39112 -0.08456 0.17409
 C286 C 0.83453 0.53265 0.38550
 C287 C 0.84782 0.53178 0.33984
 C288 C 0.86463 0.53044 0.28934
 C289 C 0.87998 0.52900 0.24896
 C290 C 0.89905 0.52698 0.20517
 C291 C 0.91619 0.52497 0.17098
 C292 C 0.46716 0.30175 0.38451
 C293 C 0.46804 0.31587 0.33881
 C294 C 0.46940 0.33399 0.28828
 C295 C 0.47086 0.35077 0.24792
 C296 C 0.47291 0.37185 0.20416
 C297 C 0.47496 0.39099 0.17003
 C298 C 0.69852 0.16602 0.38562
 C299 C 0.68425 0.15265 0.34013
 C300 C 0.66597 0.13573 0.28988
 C301 C 0.64907 0.12027 0.24975
 C302 C 0.62788 0.10109 0.20626
 C303 C 0.60867 0.08387 0.17232
 C304 C 0.46734 0.16586 -0.38330
 C305 C 0.46827 0.15253 -0.33783
 C306 C 0.46967 0.13561 -0.28769
 C307 C 0.47113 0.12013 -0.24772
 C308 C 0.47314 0.10092 -0.20444
 C309 C 0.47512 0.08367 -0.17066
 C310 C 0.69867 0.53230 -0.38625
 C311 C 0.68445 0.53137 -0.34062
 C312 C 0.66618 0.52995 -0.29030
 C313 C 0.64928 0.52848 -0.25017
 C314 C 0.62805 0.52644 -0.20673
 C315 C 0.60881 0.52443 -0.17285
 C316 C 0.83427 0.30184 -0.38661
 C317 C 0.84755 0.31605 -0.34096
 C318 C 0.86439 0.33429 -0.29057
 C319 C 0.87980 0.35116 -0.25037
 C320 C 0.89894 0.37234 -0.20682
 C321 C 0.91613 0.39154 -0.17283
 C322 C 0.53222 -0.16664 -0.38538
 C323 C 0.53125 -0.15336 -0.33981
 C324 C 0.52979 -0.13649 -0.28955
 C325 C 0.52828 -0.12108 -0.24945
 C326 C 0.52621 -0.10194 -0.20594
 C327 C 0.52419 -0.08478 -0.17192
 C328 C 0.30110 0.46767 -0.38821
 C329 C 0.31541 0.46863 -0.34268
 C330 C 0.33376 0.47007 -0.29244
 C331 C 0.35070 0.47156 -0.25233
 C332 C 0.37192 0.47361 -0.20879
 C333 C 0.39111 0.47561 -0.17471
 C334 C 1.16656 0.69892 -0.38718
 C335 C 1.15324 0.68463 -0.34169
 C336 C 1.13635 0.66629 -0.29150
 C337 C 1.12093 0.64936 -0.25143
 C338 C 1.10179 0.62816 -0.20793
 C339 C 1.08462 0.60898 -0.17390
 C340 C 0.83393 0.53238 -0.38692
 C341 C 0.84723 0.53142 -0.34135
 C342 C 0.86408 0.52997 -0.29105
 C343 C 0.87950 0.52847 -0.25092
 C344 C 0.89866 0.52643 -0.20742
 C345 C 0.91588 0.52445 -0.17344
 C346 C 0.46745 0.30163 -0.38788
 C347 C 0.46844 0.31591 -0.34236
 C348 C 0.46992 0.33421 -0.29209
 C349 C 0.47145 0.35111 -0.25195
 C350 C 0.47353 0.37228 -0.20842
 C351 C 0.47554 0.39145 -0.17439
 C352 C 0.69838 0.16608 -0.38389
 C353 C 0.68405 0.15272 -0.33853
 C354 C 0.66568 0.13579 -0.28846
 C355 C 0.64873 0.12032 -0.24852
 C356 C 0.62749 0.10111 -0.20522
 C357 C 0.60828 0.08386 -0.17139
 C358 C 1.16605 0.46790 -0.38778
 C359 C 1.15290 0.46886 -0.34196
 C360 C 1.13625 0.47032 -0.29131
 C361 C 1.12099 0.47185 -0.25086
 C362 C 1.10198 0.47394 -0.20707
 C363 C 1.08487 0.47600 -0.17295
 C364 C 0.53219 0.69834 -0.38593
 C365 C 0.53124 0.68416 -0.34031
 C366 C 0.52980 0.66596 -0.28994
 C367 C 0.52830 0.64910 -0.24978
 C368 C 0.52624 0.62793 -0.20635
 C369 C 0.52423 0.60872 -0.17251
 C370 C 0.30159 -0.16601 -0.38625
 C371 C 0.31566 -0.15288 -0.34037
 C372 C 0.33375 -0.13625 -0.28963
 C373 C 0.35051 -0.12101 -0.24911
 C374 C 0.37160 -0.10204 -0.20525
 C375 C 0.39077 -0.08495 -0.17107
 C376 C 0.53247 -0.16586 0.38704
 C377 C 0.53157 -0.15263 0.34138
 C378 C 0.53017 -0.13593 0.29082
 C379 C 0.52867 -0.12067 0.25041
 C380 C 0.52658 -0.10169 0.20662
 C381 C 0.52450 -0.08462 0.17249
 C382 C 0.30143 0.46740 0.38422
 C383 C 0.31556 0.46827 0.33853
 C384 C 0.33367 0.46964 0.28795
 C385 C 0.35044 0.47111 0.24754
 C386 C 0.37154 0.47317 0.20379
 C387 C 0.39072 0.47522 0.16970
 C388 C 1.16604 0.69858 0.38525
 C389 C 1.15282 0.68444 0.33952
 C390 C 1.13612 0.66633 0.28891
 C391 C 1.12085 0.64955 0.24847
 C392 C 1.10185 0.62846 0.20467
 C393 C 1.08475 0.60929 0.17053
 C394 C 0.46727 0.16547 0.38621
 C395 C 0.46822 0.15210 0.34083
 C396 C 0.46966 0.13523 0.29064
 C397 C 0.47117 0.11983 0.25054
 C398 C 0.47325 0.10073 0.20703
 C399 C 0.47528 0.08358 0.17303
 C400 C 0.69788 0.53237 0.38617
 C401 C 0.68364 0.53141 0.34058
 C402 C 0.66541 0.52994 0.29010
 C403 C 0.64858 0.52841 0.24972
 C404 C 0.62746 0.52629 0.20587
 C405 C 0.60831 0.52422 0.17158
 C406 C 0.83496 0.30249 0.38579
 C407 C 0.84824 0.31670 0.34022
 C408 C 0.86500 0.33490 0.28979
 C409 C 0.88031 0.35172 0.24948
 C410 C 0.89933 0.37282 0.20574
 C411 C 0.91642 0.39195 0.17156
   
