data_POSCAR
  _audit_creation_date              2014-09-24
  _audit_creation_method            'ToBaCCo'
  _symmetry_space_group_name_H-M    'P1'
  _symmetry_Int_Tables_number       1
  _symmetry_cell_setting            triclinic
  loop_
  _symmetry_equiv_pos_as_xyz
 x,y,z
_cell_length_a 22.5106
_cell_length_b 22.9915
_cell_length_c 38.2162
_cell_angle_alpha 86.830700
_cell_angle_beta 88.728100
_cell_angle_gamma 96.320300
loop_
  _atom_site_label
  _atom_site_type_symbol
  _atom_site_fract_x
  _atom_site_fract_y
  _atom_site_fract_z
O1 O -0.04941 0.43103 1.03761
 O2 O -0.04103 0.54957 0.96801
 O3 O -0.05395 0.43505 0.96939
 O4 O -0.03828 0.54469 1.03607
 O5 O 0.05983 0.54502 1.03320
 O6 O 0.04422 0.43682 0.96536
 O7 O 0.05711 0.55093 0.96514
 O8 O 0.04852 0.43048 1.03311
 Cu9 Cu -0.05552 0.48996 1.00304
 Cu10 Cu 0.06227 0.49096 0.99887
 C11 C -0.00181 0.41027 1.04698
 C12 C 0.00963 0.57102 0.95495
 C13 C -0.00761 0.41704 0.95608
 C14 C 0.01335 0.56361 1.04601
 O15 O 0.56774 0.09152 0.45779
 O16 O 0.45322 0.10040 0.52724
 O17 O 0.56996 0.10137 0.52501
 O18 O 0.45219 0.09206 0.45972
 O19 O 0.44245 -0.00449 0.46695
 O20 O 0.55735 0.00508 0.53429
 O21 O 0.44166 0.00384 0.53445
 O22 O 0.55820 -0.00475 0.46660
 Cu23 Cu 0.51184 0.10604 0.49173
 Cu24 Cu 0.49891 -0.00974 0.50139
 C25 C 0.58286 0.04180 0.45048
 C26 C 0.42732 0.05344 0.54235
 C27 C 0.58384 0.05486 0.54071
 C28 C 0.42733 0.04225 0.45210
 C29 C 0.11176 0.01558 0.27739
 H30 H 0.10723 0.05271 0.25951
 C31 C 0.16052 0.01736 0.29941
 H32 H 0.19272 0.05611 0.29813
 C33 C 0.07624 -0.07986 0.30042
 H34 H 0.04421 -0.11835 0.30020
 C35 C 0.12424 -0.07992 0.32293
 H36 H 0.12654 -0.11782 0.34069
 N37 N 0.07021 -0.03224 0.27855
 C38 C -0.05549 -0.11161 0.20538
 H39 H -0.09061 -0.08337 0.20768
 C40 C -0.06270 -0.15892 0.18393
 H41 H -0.10342 -0.16587 0.16952
 C42 C 0.04162 -0.13366 0.21996
 H43 H 0.08270 -0.12280 0.23344
 C44 C 0.03628 -0.18155 0.19883
 H45 H 0.07322 -0.20772 0.19673
 Zn46 Zn 0.00265 -0.03256 0.24926
 N47 N -0.00401 -0.09991 0.22283
 C48 C 0.02414 0.02818 0.18314
 N49 N 0.01251 0.03504 0.21768
 C50 C 0.00874 0.08918 0.22977
 C51 C 0.01401 0.13870 0.20656
 C52 C 0.03142 0.07670 0.15921
 C53 C -0.08153 -0.07712 0.30284
 C54 C -0.13141 -0.07767 0.32529
 C55 C -0.15696 0.00933 0.29356
 C56 C -0.10671 0.00803 0.27163
 N57 N -0.06895 -0.03371 0.27724
 H58 H 0.02805 -0.01495 0.17406
 H59 H 0.00082 0.09377 0.25746
 H60 H 0.00976 0.18139 0.21638
 H61 H 0.04016 0.07051 0.13176
 H62 H -0.05269 -0.11128 0.30622
 H63 H -0.13876 -0.11142 0.34629
 H64 H -0.18574 0.04359 0.28900
 H65 H -0.09827 0.04053 0.25016
 C66 C -0.01646 -0.19487 0.18047
 C67 C 0.16727 -0.03071 0.32272
 C68 C -0.16955 -0.03353 0.32108
 C69 C 0.02568 0.13261 0.17087
 C70 C -0.04138 0.11311 0.78270
 H71 H -0.08007 0.10708 0.76657
 C72 C -0.03500 0.16049 0.80422
 H73 H -0.06915 0.19018 0.80443
 C74 C 0.05034 0.08282 0.80166
 H75 H 0.08429 0.05339 0.80011
 C76 C 0.05858 0.12961 0.82345
 H77 H 0.09782 0.13372 0.83933
 N78 N 0.00074 0.07497 0.78200
 C79 C 0.06493 -0.03864 0.70578
 H80 H 0.03082 -0.07563 0.70937
 C81 C 0.11399 -0.04153 0.68324
 H82 H 0.11634 -0.08080 0.66919
 C83 C 0.10087 0.05832 0.71879
 H84 H 0.09506 0.09742 0.73232
 C85 C 0.15077 0.05731 0.69649
 H86 H 0.18339 0.09566 0.69345
 Zn87 Zn -0.00881 0.00993 0.75293
 N88 N 0.05943 0.01059 0.72312
 C89 C -0.06885 0.02630 0.68965
 N90 N -0.07713 0.01492 0.72485
 C91 C -0.13302 0.00760 0.73997
 C92 C -0.18335 0.00846 0.71927
 C93 C -0.11786 0.02917 0.66812
 C94 C 0.03003 -0.07349 0.80155
 C95 C 0.02644 -0.12449 0.82343
 C96 C -0.07163 -0.15300 0.80167
 C97 C -0.06603 -0.10149 0.78010
 N98 N -0.01646 -0.06195 0.78111
 H99 H -0.02419 0.03323 0.67814
 H100 H -0.13851 0.00016 0.76811
 H101 H -0.22757 0.00148 0.73155
 H102 H -0.11060 0.03775 0.64011
 H103 H 0.07037 -0.04346 0.80076
 H104 H 0.06369 -0.13208 0.83989
 H105 H -0.11138 -0.18371 0.80019
 H106 H -0.10125 -0.09383 0.76236
 C107 C 0.15816 0.00673 0.67856
 C108 C 0.01559 0.16938 0.82492
 C109 C -0.02538 -0.16455 0.82424
 C110 C -0.17586 0.01903 0.68287
 C111 C -0.02914 -0.33277 0.11063
 C112 C 0.02665 -0.30538 0.11975
 N113 N 0.07730 -0.32213 0.10533
 C114 C 0.07464 -0.36487 0.08197
 C115 C 0.01868 -0.39184 0.07236
 N116 N -0.03188 -0.37506 0.08715
 N117 N -0.07975 -0.31633 0.12515
 C118 C -0.07726 -0.27303 0.14808
 C119 C -0.02142 -0.24420 0.15676
 N120 N 0.02922 -0.26185 0.14245
 H121 H 0.11572 -0.37704 0.07072
 H122 H -0.11857 -0.26188 0.15950
 C123 C 0.03754 0.27904 0.09813
 C124 C -0.01028 0.26832 0.12267
 N125 N -0.05438 0.30415 0.12214
 C126 C -0.05292 0.35022 0.09809
 C127 C -0.00474 0.36146 0.07372
 N128 N 0.03949 0.32552 0.07449
 N129 N 0.08062 0.24214 0.09788
 C130 C 0.07797 0.19476 0.12101
 C131 C 0.03045 0.18415 0.14584
 N132 N -0.01248 0.22153 0.14614
 H133 H -0.08874 0.37799 0.09816
 H134 H 0.11282 0.16591 0.12025
 C135 C 0.30661 0.00436 0.60837
 C136 C 0.28535 0.05734 0.61622
 N137 N 0.31179 0.10843 0.60057
 C138 C 0.35833 0.10886 0.57716
 C139 C 0.37923 0.05568 0.56886
 N140 N 0.35275 0.00471 0.58489
 N141 N 0.28043 -0.04668 0.62405
 C142 C 0.23330 -0.04738 0.64698
 C143 C 0.21073 0.00553 0.65449
 N144 N 0.23807 0.05673 0.63900
 H145 H 0.37821 0.15019 0.56487
 H146 H 0.21435 -0.08886 0.65939
 C147 C -0.32159 0.01589 0.61481
 C148 C -0.27530 0.06224 0.61210
 N149 N -0.27693 0.10614 0.58702
 C150 C -0.32260 0.10561 0.56430
 C151 C -0.36815 0.05841 0.56625
 N152 N -0.36648 0.01460 0.59160
 N153 N -0.32064 -0.02729 0.64043
 C154 C -0.27519 -0.02647 0.66334
 C155 C -0.22788 0.01901 0.66007
 N156 N -0.22922 0.06235 0.63441
 H157 H -0.32253 0.14096 0.54436
 H158 H -0.27510 -0.06179 0.68327
 C159 C -0.03630 -0.31405 0.89539
 C160 C 0.01896 -0.28783 0.88145
 N161 N 0.06996 -0.30960 0.89147
 C162 C 0.06832 -0.35629 0.91504
 C163 C 0.01297 -0.38240 0.92958
 N164 N -0.03807 -0.36045 0.91912
 N165 N -0.08723 -0.29198 0.88549
 C166 C -0.08545 -0.24473 0.86227
 C167 C -0.02999 -0.21789 0.84833
 N168 N 0.02086 -0.24047 0.85849
 H169 H 0.10996 -0.37227 0.92256
 H170 H -0.12685 -0.22757 0.85563
 C171 C 0.03243 0.30877 0.89365
 C172 C -0.02394 0.28412 0.88359
 N173 N -0.07393 0.30413 0.89667
 C174 C -0.07012 0.34750 0.91960
 C175 C -0.01366 0.37191 0.93008
 N176 N 0.03630 0.35188 0.91663
 N177 N 0.08238 0.28881 0.88056
 C178 C 0.07861 0.24472 0.85814
 C179 C 0.02209 0.21890 0.84842
 N180 N -0.02780 0.23997 0.86131
 H181 H -0.11077 0.36227 0.92977
 H182 H 0.11945 0.23064 0.84785
 C183 C -0.31230 -0.02133 0.39374
 C184 C -0.28301 0.02884 0.37571
 N185 N -0.29930 0.08235 0.38231
 C186 C -0.34344 0.08808 0.40635
 C187 C -0.37271 0.03786 0.42484
 N188 N -0.35627 -0.01572 0.41779
 N189 N -0.29590 -0.07481 0.38718
 C190 C -0.25094 -0.08042 0.36366
 C191 C -0.22059 -0.03010 0.34586
 N192 N -0.23806 0.02333 0.35229
 H193 H -0.35509 0.13148 0.41106
 H194 H -0.23956 -0.12380 0.35881
 C195 C 0.31018 -0.02008 0.39369
 C196 C 0.28917 0.03061 0.37881
 N197 N 0.31413 0.08407 0.38758
 C198 C 0.35910 0.08918 0.41076
 C199 C 0.37996 0.03844 0.42606
 N200 N 0.35487 -0.01509 0.41699
 N201 N 0.28540 -0.07347 0.38470
 C202 C 0.24002 -0.07858 0.36176
 C203 C 0.21786 -0.02782 0.34717
 N204 N 0.24373 0.02558 0.35606
 H205 H 0.37792 0.13242 0.41737
 H206 H 0.22224 -0.12188 0.35482
   
