data_POSCAR
  _audit_creation_date              2014-09-24
  _audit_creation_method            'ToBaCCo'
  _symmetry_space_group_name_H-M    'P1'
  _symmetry_Int_Tables_number       1
  _symmetry_cell_setting            triclinic
  loop_
  _symmetry_equiv_pos_as_xyz
 x,y,z
_cell_length_a 46.9951
_cell_length_b 46.9895
_cell_length_c 47.0528
_cell_angle_alpha 90.055600
_cell_angle_beta 90.001300
_cell_angle_gamma 90.022300
loop_
  _atom_site_label
  _atom_site_type_symbol
  _atom_site_fract_x
  _atom_site_fract_y
  _atom_site_fract_z
C1 C 0.18643 0.21279 0.22649
 N2 N 0.20433 0.19057 0.23088
 C3 C 0.22654 0.18614 0.21298
 N4 N 0.23084 0.20394 0.19069
 C5 C 0.21294 0.22616 0.18630
 N6 N 0.19073 0.23058 0.20420
 C7 C 0.68619 0.71333 0.72628
 N8 N 0.69062 0.73127 0.70413
 C9 C 0.71283 0.72687 0.68623
 N10 N 0.73062 0.70453 0.69049
 C11 C 0.72620 0.68660 0.71264
 N12 N 0.70398 0.69100 0.73054
 C13 C 0.31292 0.78779 0.72678
 N14 N 0.29506 0.81009 0.73106
 C15 C 0.27286 0.81444 0.71314
 N16 N 0.26851 0.79649 0.69095
 C17 C 0.28636 0.77419 0.68667
 N18 N 0.30856 0.76985 0.70458
 C19 C 0.81437 0.28679 0.22697
 N20 N 0.79643 0.30902 0.23125
 C21 C 0.77423 0.31331 0.21332
 N22 N 0.76997 0.29538 0.19110
 C23 C 0.78790 0.27316 0.18681
 N24 N 0.81010 0.26887 0.20474
 C25 C 0.81402 0.71333 0.27349
 N26 N 0.80974 0.73130 0.29568
 C27 C 0.78754 0.72702 0.31362
 N28 N 0.76962 0.70477 0.30937
 C29 C 0.77390 0.68680 0.28719
 N30 N 0.79610 0.69108 0.26925
 C31 C 0.31370 0.21259 -0.22727
 N32 N 0.30930 0.23050 -0.20506
 C33 C 0.28702 0.22617 -0.18724
 N34 N 0.26913 0.20392 -0.19162
 C35 C 0.27351 0.18600 -0.21383
 N36 N 0.29580 0.19034 -0.23165
 C37 C 0.68666 0.28712 -0.22605
 N38 N 0.70453 0.30938 -0.23044
 C39 C 0.72684 0.31376 -0.21265
 N40 N 0.73128 0.29587 -0.19047
 C41 C 0.71341 0.27360 -0.18607
 N42 N 0.69111 0.26923 -0.20387
 C43 C 0.18698 0.78724 0.27301
 N44 N 0.20492 0.80946 0.26871
 C45 C 0.22708 0.81385 0.28668
 N46 N 0.23130 0.79602 0.30895
 C47 C 0.21336 0.77380 0.31326
 N48 N 0.19120 0.76941 0.29528
 C49 C 0.46276 0.43617 0.47693
 N50 N 0.44054 0.45411 0.48123
 C51 C 0.43626 0.47634 0.46335
 N52 N 0.45418 0.48063 0.44115
 C53 C 0.47640 0.46269 0.43684
 N54 N 0.48068 0.44046 0.45472
 C55 C -0.03686 -0.06312 0.97615
 N56 N -0.01894 -0.05872 0.95397
 C57 C -0.02327 -0.03645 0.93615
 N58 N -0.04554 -0.01858 0.94051
 C59 C -0.06347 -0.02298 0.96268
 N60 N -0.05913 -0.04526 0.98050
 C61 C 1.03657 0.56402 0.97662
 N62 N 1.01866 0.55966 0.95441
 C63 C 1.02295 0.53739 0.93654
 N64 N 1.04517 0.51947 0.94088
 C65 C 1.06309 0.52382 0.96308
 N66 N 1.05879 0.54610 0.98095
 C67 C 0.53742 0.06296 0.47696
 N68 N 0.55975 0.04516 0.48123
 C69 C 0.56420 0.02296 0.46330
 N70 N 0.54630 0.01857 0.44109
 C71 C 0.52397 0.03636 0.43681
 N72 N 0.51953 0.05855 0.45474
 C73 C -0.03746 0.06378 0.52353
 N74 N -0.01949 0.05942 0.54567
 C75 C -0.02378 0.03718 0.56354
 N76 N -0.04606 0.01930 0.55927
 C77 C -0.06404 0.02365 0.53712
 N78 N -0.05973 0.04589 0.51926
 C79 C 0.46299 0.56371 0.02363
 N80 N 0.48088 0.55935 0.04584
 C81 C 0.47655 0.53707 0.06366
 N82 N 0.45432 0.51915 0.05926
 C83 C 0.43643 0.52351 0.03705
 N84 N 0.44077 0.54578 0.01924
 C85 C 0.53710 -0.06410 0.02325
 N86 N 0.55937 -0.04622 0.01894
 C87 C 0.56381 -0.02405 0.03690
 N88 N 0.54597 -0.01975 0.05918
 C89 C 0.52370 -0.03762 0.06349
 N90 N 0.51927 -0.05980 0.04553
 C91 C 1.03637 0.43589 0.52292
 N92 N 1.05857 0.45386 0.51861
 C93 C 1.06291 0.47606 0.53657
 N94 N 1.04506 0.48028 0.55885
 C95 C 1.02286 0.46232 0.56316
 N96 N 1.01852 0.44013 0.54520
 C97 C 0.41866 0.01266 0.21202
 H98 H 0.41981 0.03195 0.22455
 C99 C 0.43723 0.00868 0.18920
 H100 H 0.45270 0.02496 0.18401
 C101 C 0.39739 -0.03237 0.20366
 H102 H 0.38216 -0.04851 0.20961
 C103 C 0.41557 -0.03720 0.18068
 H104 H 0.41410 -0.05693 0.16883
 N105 N 0.39902 -0.00759 0.21860
 C106 C 0.33165 0.03770 0.26364
 H107 H 0.33049 0.02521 0.28291
 C108 C 0.31310 0.06057 0.25964
 H109 H 0.29765 0.06582 0.27590
 C110 C 0.35289 0.04592 0.21865
 H111 H 0.36809 0.03989 0.20253
 C112 C 0.33474 0.06894 0.21380
 H113 H 0.33621 0.08074 0.19409
 Zn114 Zn 0.37511 -0.00070 0.25026
 N115 N 0.35125 0.03104 0.24341
 C116 C 0.39744 0.03091 0.29687
 N117 N 0.39901 0.00612 0.28194
 C118 C 0.41858 -0.01417 0.28853
 C119 C 0.43717 -0.01021 0.31136
 C120 C 0.41565 0.03573 0.31985
 C121 C 0.33154 -0.03898 0.23679
 C122 C 0.31294 -0.06182 0.24072
 C123 C 0.33449 -0.07032 0.28657
 C124 C 0.35271 -0.04732 0.28179
 N125 N 0.35114 -0.03239 0.25705
 H126 H 0.38227 0.04709 0.29090
 H127 H 0.41967 -0.03346 0.27602
 H128 H 0.45259 -0.02652 0.31654
 H129 H 0.41424 0.05547 0.33167
 H130 H 0.33045 -0.02645 0.21754
 H131 H 0.29749 -0.06701 0.22442
 H132 H 0.33591 -0.08216 0.30626
 H133 H 0.36791 -0.04135 0.29794
 C134 C 0.31472 0.07636 0.23452
 C135 C 0.43561 -0.01646 0.17335
 C136 C 0.31449 -0.07766 0.26581
 C137 C 0.43563 0.01495 0.32718
 C138 C 0.08198 -0.01307 0.71150
 H139 H 0.08086 -0.03232 0.72404
 C140 C 0.06334 -0.00914 0.68873
 H141 H 0.04785 -0.02543 0.68360
 C142 C 0.10323 0.03194 0.70306
 H143 H 0.11846 0.04810 0.70896
 C144 C 0.08497 0.03673 0.68012
 H145 H 0.08640 0.05643 0.66827
 N146 N 0.10163 0.00720 0.71801
 C147 C 0.16907 -0.03792 0.76303
 H148 H 0.17026 -0.02535 0.78227
 C149 C 0.18759 -0.06082 0.75907
 H150 H 0.20306 -0.06601 0.77534
 C151 C 0.14777 -0.04632 0.71809
 H152 H 0.13255 -0.04036 0.70197
 C153 C 0.16590 -0.06938 0.71328
 H154 H 0.16440 -0.08126 0.69360
 Zn155 Zn 0.12559 0.00042 0.74965
 N156 N 0.14945 -0.03133 0.74281
 C157 C 0.10331 -0.03110 0.79629
 N158 N 0.10172 -0.00634 0.78136
 C159 C 0.08215 0.01396 0.78796
 C160 C 0.06357 0.01003 0.81079
 C161 C 0.08512 -0.03588 0.81927
 C162 C 0.16912 0.03870 0.73612
 C163 C 0.18773 0.06155 0.74004
 C164 C 0.16622 0.07011 0.78592
 C165 C 0.14800 0.04710 0.78114
 N166 N 0.14954 0.03213 0.75640
 H167 H 0.11849 -0.04727 0.79031
 H168 H 0.08103 0.03322 0.77544
 H169 H 0.04813 0.02634 0.81598
 H170 H 0.08654 -0.05559 0.83110
 H171 H 0.17020 0.02614 0.71687
 H172 H 0.20315 0.06672 0.72373
 H173 H 0.16482 0.08198 0.80562
 H174 H 0.13282 0.04116 0.79731
 C175 C 0.18593 -0.07672 0.73399
 C176 C 0.06491 0.01597 0.67287
 C177 C 0.18620 0.07743 0.76514
 C178 C 0.06513 -0.01509 0.82661
 C179 C 0.58167 0.48644 0.21194
 H180 H 0.58055 0.46712 0.22439
 C181 C 0.56311 0.49043 0.18911
 H182 H 0.54769 0.47412 0.18384
 C183 C 0.60284 0.53153 0.20380
 H184 H 0.61802 0.54770 0.20984
 C185 C 0.58467 0.53638 0.18081
 H186 H 0.58612 0.55614 0.16905
 N187 N 0.60125 0.50672 0.21863
 C188 C 0.66869 0.46160 0.26365
 H189 H 0.66979 0.47411 0.28293
 C190 C 0.68730 0.43878 0.25966
 H191 H 0.70275 0.43359 0.27593
 C192 C 0.64750 0.45326 0.21864
 H193 H 0.63230 0.45923 0.20251
 C194 C 0.66573 0.43028 0.21379
 H195 H 0.66431 0.41846 0.19407
 Zn196 Zn 0.62514 0.49986 0.25030
 N197 N 0.64908 0.46818 0.24341
 C198 C 0.60285 0.46814 0.29679
 N199 N 0.60123 0.49295 0.28194
 C200 C 0.58162 0.51319 0.28860
 C201 C 0.56305 0.50917 0.31142
 C202 C 0.58467 0.46327 0.31977
 C203 C 0.66864 0.53821 0.23697
 C204 C 0.68721 0.56107 0.24097
 C205 C 0.66559 0.56954 0.28681
 C206 C 0.64741 0.54651 0.28196
 N207 N 0.64903 0.53158 0.25720
 H208 H 0.61806 0.45201 0.29078
 H209 H 0.58048 0.53249 0.27614
 H210 H 0.54760 0.52545 0.31667
 H211 H 0.58613 0.44352 0.33154
 H212 H 0.66978 0.52568 0.21770
 H213 H 0.70266 0.56629 0.22470
 H214 H 0.66413 0.58138 0.30652
 H215 H 0.63220 0.54052 0.29808
 C216 C 0.68574 0.42295 0.23452
 C217 C 0.56470 0.51561 0.17337
 C218 C 0.68560 0.57691 0.26609
 C219 C 0.56466 0.48400 0.32718
 C220 C 0.91788 0.51269 0.71166
 H221 H 0.91900 0.53203 0.72411
 C222 C 0.93644 0.50865 0.68883
 H223 H 0.95187 0.52495 0.68357
 C224 C 0.89667 0.46760 0.70349
 H225 H 0.88148 0.45146 0.70951
 C226 C 0.91485 0.46271 0.68050
 H227 H 0.91339 0.44293 0.66873
 N228 N 0.89828 0.49244 0.71833
 C229 C 0.83083 0.53782 0.76316
 H230 H 0.82968 0.52540 0.78247
 C231 C 0.81231 0.56070 0.75911
 H232 H 0.79687 0.56601 0.77536
 C233 C 0.85208 0.54590 0.71815
 H234 H 0.86728 0.53983 0.70205
 C235 C 0.83394 0.56893 0.71324
 H236 H 0.83543 0.58068 0.69350
 Zn237 Zn 0.87435 0.49943 0.74995
 N238 N 0.85044 0.53109 0.74296
 C239 C 0.89660 0.53135 0.79639
 N240 N 0.89823 0.50648 0.78161
 C241 C 0.91783 0.48626 0.78835
 C242 C 0.93638 0.49038 0.81118
 C243 C 0.91476 0.53632 0.81938
 C244 C 0.83087 0.46098 0.73669
 C245 C 0.81231 0.43812 0.74075
 C246 C 0.83389 0.42992 0.78664
 C247 C 0.85205 0.45294 0.78174
 N248 N 0.85045 0.46773 0.75692
 H249 H 0.88141 0.54746 0.79032
 H250 H 0.91898 0.46690 0.77594
 H251 H 0.95182 0.47412 0.81648
 H252 H 0.91329 0.55613 0.83110
 H253 H 0.82974 0.47340 0.71738
 H254 H 0.79688 0.43280 0.72448
 H255 H 0.83533 0.41819 0.80640
 H256 H 0.86723 0.45903 0.79785
 C257 C 0.81395 0.57642 0.73395
 C258 C 0.93484 0.48346 0.67308
 C259 C 0.81390 0.42242 0.76592
 C260 C 0.93476 0.51562 0.82687
 C261 C 0.21136 0.41820 0.01317
 H262 H 0.22389 0.41928 0.03243
 C263 C 0.18854 0.43682 0.00926
 H264 H 0.18336 0.45224 0.02559
 C265 C 0.20301 0.39710 -0.03189
 H266 H 0.20897 0.38194 -0.04808
 C267 C 0.18002 0.41533 -0.03665
 H268 H 0.16819 0.41395 -0.05636
 N269 N 0.21795 0.39864 -0.00714
 C270 C 0.26307 0.33112 0.03775
 H271 H 0.28235 0.33001 0.02522
 C272 C 0.25913 0.31253 0.06055
 H273 H 0.27543 0.29709 0.06571
 C274 C 0.21804 0.35232 0.04614
 H275 H 0.20189 0.36752 0.04021
 C276 C 0.21324 0.33411 0.06910
 H277 H 0.19353 0.33556 0.08095
 Zn278 Zn 0.24965 0.37471 -0.00039
 N279 N 0.24280 0.35073 0.03120
 C280 C 0.29629 0.39695 0.03126
 N281 N 0.28135 0.39862 0.00653
 C282 C 0.28795 0.41828 -0.01365
 C283 C 0.31081 0.43686 -0.00962
 C284 C 0.31930 0.41514 0.03614
 C285 C 0.23624 0.33129 -0.03885
 C286 C 0.24025 0.31276 -0.06173
 C287 C 0.28618 0.33438 -0.07003
 C288 C 0.28131 0.35252 -0.04700
 N289 N 0.25651 0.35088 -0.03214
 H290 H 0.29031 0.38171 0.04735
 H291 H 0.27542 0.41945 -0.03290
 H292 H 0.31601 0.45235 -0.02585
 H293 H 0.33114 0.41365 0.05583
 H294 H 0.21693 0.33014 -0.02638
 H295 H 0.22396 0.29732 -0.06700
 H296 H 0.30593 0.33585 -0.08180
 H297 H 0.29746 0.36771 -0.04095
 C298 C 0.23401 0.31411 0.07640
 C299 C 0.17270 0.43531 -0.01585
 C300 C 0.26543 0.31438 -0.07748
 C301 C 0.32665 0.43521 0.01547
 C302 C 0.71247 0.08100 -0.01345
 H303 H 0.72495 0.07989 -0.03274
 C304 C 0.68959 0.06245 -0.00948
 H305 H 0.68432 0.04704 -0.02580
 C306 C 0.70429 0.10214 0.03162
 H307 H 0.71033 0.11731 0.04778
 C308 C 0.68126 0.08397 0.03644
 H309 H 0.66947 0.08541 0.05617
 N310 N 0.71916 0.10056 0.00684
 C311 C 0.76423 0.16808 -0.03816
 H312 H 0.78354 0.16918 -0.02569
 C313 C 0.76021 0.18672 -0.06091
 H314 H 0.77650 0.20219 -0.06609
 C315 C 0.71917 0.14688 -0.04646
 H316 H 0.70302 0.13166 -0.04051
 C317 C 0.71430 0.16513 -0.06937
 H318 H 0.69454 0.16371 -0.08115
 Zn319 Zn 0.75087 0.12448 -0.00001
 N320 N 0.74397 0.14845 -0.03159
 C321 C 0.79743 0.10224 -0.03176
 N322 N 0.78256 0.10059 -0.00698
 C323 C 0.78923 0.08095 0.01320
 C324 C 0.81209 0.06240 0.00913
 C325 C 0.82044 0.08408 -0.03668
 C326 C 0.73754 0.16794 0.03838
 C327 C 0.74155 0.18649 0.06124
 C328 C 0.78744 0.16487 0.06960
 C329 C 0.78258 0.14671 0.04659
 N330 N 0.75779 0.14834 0.03171
 H331 H 0.79140 0.11747 -0.04784
 H332 H 0.77676 0.07978 0.03249
 H333 H 0.81734 0.04693 0.02536
 H334 H 0.83223 0.08557 -0.05641
 H335 H 0.71824 0.16908 0.02589
 H336 H 0.72526 0.20193 0.06649
 H337 H 0.80719 0.16341 0.08140
 H338 H 0.79872 0.13151 0.04056
 C339 C 0.73504 0.18517 -0.07668
 C340 C 0.67381 0.06402 0.01566
 C341 C 0.76670 0.18488 0.07702
 C342 C 0.82786 0.06405 -0.01601
 C343 C 0.21124 0.58171 0.48649
 H344 H 0.22380 0.58059 0.46726
 C345 C 0.18840 0.56310 0.49040
 H346 H 0.18324 0.54763 0.47410
 C347 C 0.20281 0.60291 0.53149
 H348 H 0.20875 0.61812 0.54765
 C349 C 0.17981 0.58468 0.53624
 H350 H 0.16794 0.58611 0.55593
 N351 N 0.21779 0.60132 0.50677
 C352 C 0.26306 0.66875 0.46184
 H353 H 0.28231 0.66988 0.47441
 C354 C 0.25917 0.68732 0.43902
 H355 H 0.27550 0.70277 0.43388
 C356 C 0.21804 0.64754 0.45338
 H357 H 0.20186 0.63234 0.45929
 C358 C 0.21329 0.66572 0.43039
 H359 H 0.19360 0.66427 0.41850
 Zn360 Zn 0.24952 0.62524 0.50003
 N361 N 0.24277 0.64915 0.46837
 C362 C 0.29622 0.60293 0.46854
 N363 N 0.28123 0.60133 0.49325
 C364 C 0.28779 0.58172 0.51349
 C365 C 0.31064 0.56314 0.50955
 C366 C 0.31923 0.58473 0.46375
 C367 C 0.23603 0.66876 0.53832
 C368 C 0.23997 0.68735 0.56116
 C369 C 0.28585 0.66576 0.56969
 C370 C 0.28106 0.64755 0.54669
 N371 N 0.25630 0.64915 0.53174
 H372 H 0.29028 0.61813 0.45240
 H373 H 0.27522 0.58060 0.53272
 H374 H 0.31580 0.54769 0.52583
 H375 H 0.33110 0.58618 0.44407
 H376 H 0.21677 0.66988 0.52578
 H377 H 0.22367 0.70280 0.56634
 H378 H 0.30556 0.66432 0.58153
 H379 H 0.29722 0.63235 0.54073
 C380 C 0.23409 0.68573 0.42312
 C381 C 0.17252 0.56466 0.51548
 C382 C 0.26509 0.68577 0.57701
 C383 C 0.32653 0.56472 0.48448
 C384 C 0.71182 0.91942 0.51347
 H385 H 0.72428 0.92058 0.53277
 C386 C 0.68892 0.93791 0.50946
 H387 H 0.68361 0.95334 0.52574
 C388 C 0.70371 0.89819 0.46843
 H389 H 0.70978 0.88301 0.45230
 C390 C 0.68065 0.91630 0.46357
 H391 H 0.66888 0.91481 0.44382
 N392 N 0.71855 0.89984 0.49323
 C393 C 0.76365 0.83247 0.53837
 H394 H 0.78297 0.83138 0.52591
 C395 C 0.75963 0.81386 0.56114
 H396 H 0.77593 0.79842 0.56635
 C397 C 0.71856 0.85361 0.54660
 H398 H 0.70241 0.86880 0.54061
 C399 C 0.71369 0.83538 0.56953
 H400 H 0.69393 0.83679 0.58130
 Zn401 Zn 0.75028 0.87599 0.50013
 N402 N 0.74338 0.85206 0.53175
 C403 C 0.79682 0.89834 0.53187
 N404 N 0.78195 0.89994 0.50708
 C405 C 0.78862 0.91955 0.48688
 C406 C 0.81147 0.93812 0.49092
 C407 C 0.81983 0.91653 0.53676
 C408 C 0.73701 0.83244 0.46181
 C409 C 0.74106 0.81386 0.43899
 C410 C 0.78694 0.83554 0.43061
 C411 C 0.78204 0.85374 0.45360
 N412 N 0.75724 0.85209 0.46846
 H413 H 0.79079 0.88314 0.54797
 H414 H 0.77614 0.92067 0.46759
 H415 H 0.81673 0.95357 0.47466
 H416 H 0.83162 0.91508 0.55649
 H417 H 0.71771 0.83128 0.47429
 H418 H 0.72479 0.79837 0.43375
 H419 H 0.80668 0.83702 0.41883
 H420 H 0.79816 0.86897 0.45961
 C421 C 0.73445 0.81539 0.57689
 C422 C 0.67316 0.93627 0.48430
 C423 C 0.76622 0.81548 0.42322
 C424 C 0.82725 0.93653 0.51606
 C425 C 0.01295 0.21223 0.41847
 H426 H 0.03224 0.22475 0.41963
 C427 C 0.00894 0.18940 0.43704
 H428 H 0.02521 0.18422 0.45250
 C429 C -0.03206 0.20388 0.39721
 H430 H -0.04818 0.20983 0.38200
 C431 C -0.03692 0.18089 0.41539
 H432 H -0.05666 0.16905 0.41391
 N433 N -0.00727 0.21881 0.39885
 C434 C 0.03806 0.26377 0.33155
 H435 H 0.02558 0.28308 0.33039
 C436 C 0.06093 0.25972 0.31303
 H437 H 0.06618 0.27598 0.29758
 C438 C 0.04626 0.21875 0.35279
 H439 H 0.04023 0.20263 0.36798
 C440 C 0.06928 0.21385 0.33465
 H441 H 0.08107 0.19410 0.33613
 Zn442 Zn -0.00036 0.25047 0.37495
 N443 N 0.03138 0.24355 0.35114
 C444 C 0.03126 0.29713 0.39726
 N445 N 0.00646 0.28222 0.39882
 C446 C -0.01384 0.28886 0.41836
 C447 C -0.00987 0.31172 0.43694
 C448 C 0.03608 0.32015 0.41546
 C449 C -0.03859 0.23695 0.33144
 C450 C -0.06141 0.24087 0.31284
 C451 C -0.06994 0.28681 0.33434
 C452 C -0.04696 0.28204 0.35256
 N453 N -0.03202 0.25726 0.35101
 H454 H 0.04743 0.29113 0.38211
 H455 H -0.03314 0.27635 0.41944
 H456 H -0.02619 0.31694 0.45234
 H457 H 0.05583 0.33196 0.41406
 H458 H -0.02606 0.21767 0.33035
 H459 H -0.06659 0.22453 0.29742
 H460 H -0.08178 0.30654 0.33575
 H461 H -0.04101 0.29823 0.36774
 C462 C 0.07670 0.23455 0.31465
 C463 C -0.01620 0.17356 0.43541
 C464 C -0.07726 0.26600 0.31437
 C465 C 0.01530 0.32753 0.43542
 C466 C -0.01322 0.71146 0.08081
 H467 H -0.03250 0.72399 0.07973
 C468 C -0.00933 0.68858 0.06225
 H469 H -0.02568 0.68336 0.04687
 C470 C 0.03188 0.70315 0.10186
 H471 H 0.04809 0.70914 0.11699
 C472 C 0.03663 0.68011 0.08368
 H473 H 0.05636 0.66827 0.08507
 N474 N 0.00711 0.71809 0.10032
 C475 C -0.03777 0.76332 0.16781
 H476 H -0.02521 0.78259 0.16890
 C477 C -0.06056 0.75939 0.18646
 H478 H -0.06567 0.77571 0.20191
 C479 C -0.04625 0.71827 0.14665
 H480 H -0.04036 0.70209 0.13144
 C481 C -0.06920 0.71349 0.16490
 H482 H -0.08108 0.69377 0.16350
 Zn483 Zn 0.00036 0.74983 0.12422
 N484 N -0.03127 0.74303 0.14820
 C485 C -0.03131 0.79646 0.10208
 N486 N -0.00654 0.78153 0.10038
 C487 C 0.01367 0.78815 0.08075
 C488 C 0.00965 0.81103 0.06225
 C489 C -0.03617 0.81949 0.08397
 C490 C 0.03878 0.73645 0.16758
 C491 C 0.06164 0.74047 0.18613
 C492 C 0.07007 0.78636 0.16456
 C493 C 0.04705 0.78149 0.14640
 N494 N 0.03214 0.75670 0.14801
 H495 H -0.04742 0.79047 0.11730
 H496 H 0.03295 0.77563 0.07954
 H497 H 0.02591 0.81625 0.04678
 H498 H -0.05589 0.83133 0.08550
 H499 H 0.02627 0.71715 0.16872
 H500 H 0.06686 0.72419 0.20156
 H501 H 0.08188 0.80611 0.16312
 H502 H 0.04104 0.79763 0.13123
 C503 C -0.07645 0.73428 0.18492
 C504 C 0.01581 0.67273 0.06376
 C505 C 0.07744 0.76563 0.18455
 C506 C -0.01547 0.82687 0.06394
 C507 C 0.48639 0.21123 0.58222
 H508 H 0.46707 0.22369 0.58105
 C509 C 0.49046 0.18838 0.56365
 H510 H 0.47420 0.18312 0.54819
 C511 C 0.53141 0.20306 0.60349
 H512 H 0.54752 0.20910 0.61870
 C513 C 0.53633 0.18005 0.58531
 H514 H 0.55609 0.16828 0.58679
 N515 N 0.50660 0.21791 0.60184
 C516 C 0.46116 0.26298 0.66907
 H517 H 0.47362 0.28231 0.67023
 C518 C 0.43827 0.25896 0.68757
 H519 H 0.43297 0.27526 0.70298
 C520 C 0.45304 0.21788 0.64788
 H521 H 0.45910 0.20172 0.63272
 C522 C 0.42999 0.21300 0.66599
 H523 H 0.41822 0.19323 0.66451
 Zn524 Zn 0.49963 0.24963 0.62570
 N525 N 0.46789 0.24271 0.64952
 C526 C 0.46794 0.29617 0.60335
 N527 N 0.49275 0.28128 0.60180
 C528 C 0.51304 0.28790 0.58224
 C529 C 0.50906 0.31072 0.56366
 C530 C 0.46311 0.31914 0.58515
 C531 C 0.53793 0.23637 0.66921
 C532 C 0.56079 0.24042 0.68775
 C533 C 0.56918 0.28631 0.66616
 C534 C 0.54616 0.28141 0.64801
 N535 N 0.53128 0.25660 0.64962
 H536 H 0.45178 0.29018 0.61851
 H537 H 0.53235 0.27542 0.58116
 H538 H 0.52538 0.31593 0.54826
 H539 H 0.44336 0.33094 0.58656
 H540 H 0.52545 0.21706 0.67035
 H541 H 0.56604 0.22414 0.70318
 H542 H 0.58098 0.30606 0.66470
 H543 H 0.54015 0.29753 0.63282
 C544 C 0.42251 0.23376 0.68595
 C545 C 0.51564 0.17262 0.56528
 C546 C 0.57659 0.26559 0.68614
 C547 C 0.48389 0.32651 0.56520
 C548 C 0.51322 0.71231 0.91865
 H549 H 0.53252 0.72483 0.91975
 C550 C 0.50928 0.68945 0.93719
 H551 H 0.52561 0.68424 0.95258
 C552 C 0.46814 0.70399 0.89754
 H553 H 0.45196 0.70997 0.88240
 C554 C 0.46334 0.68097 0.91570
 H555 H 0.44360 0.66914 0.91427
 N556 N 0.49292 0.71892 0.89911
 C557 C 0.53799 0.76403 0.83174
 H558 H 0.52550 0.78333 0.83066
 C559 C 0.56080 0.76003 0.81313
 H560 H 0.56600 0.77633 0.79771
 C561 C 0.54628 0.71896 0.85285
 H562 H 0.54031 0.70281 0.86802
 C563 C 0.56924 0.71411 0.83462
 H564 H 0.58105 0.69436 0.83602
 Zn565 Zn 0.49974 0.75063 0.87526
 N566 N 0.53139 0.74377 0.85131
 C567 C 0.53146 0.79724 0.89752
 N568 N 0.50667 0.78233 0.89915
 C569 C 0.48645 0.78894 0.91879
 C570 C 0.49049 0.81177 0.93738
 C571 C 0.53635 0.82023 0.91573
 C572 C 0.46133 0.73724 0.83186
 C573 C 0.43846 0.74123 0.81333
 C574 C 0.43007 0.78714 0.83497
 C575 C 0.45310 0.78229 0.85310
 N576 N 0.46799 0.75750 0.85145
 H577 H 0.54758 0.79126 0.88230
 H578 H 0.46716 0.77643 0.91994
 H579 H 0.47424 0.81698 0.95286
 H580 H 0.55610 0.83205 0.91427
 H581 H 0.47383 0.71794 0.83069
 H582 H 0.43321 0.72494 0.79789
 H583 H 0.41827 0.80689 0.83645
 H584 H 0.45912 0.79844 0.86829
 C585 C 0.57659 0.73487 0.81465
 C586 C 0.48413 0.67361 0.93564
 C587 C 0.42266 0.76639 0.81497
 C588 C 0.51565 0.82759 0.93578
 C589 C 0.16293 0.21746 0.24541
 C590 C 0.14319 0.22138 0.26129
 C591 C 0.12007 0.22598 0.27987
 C592 C 0.10030 0.22990 0.29572
 C593 C 0.66270 0.71798 0.74520
 C594 C 0.64297 0.72187 0.76110
 C595 C 0.61987 0.72641 0.77973
 C596 C 0.60014 0.73027 0.79564
 C597 C 0.33641 0.78321 0.74571
 C598 C 0.35616 0.77936 0.76159
 C599 C 0.37929 0.77484 0.78018
 C600 C 0.39905 0.77099 0.79604
 C601 C -0.16342 0.28250 0.24492
 C602 C -0.14369 0.27871 0.26084
 C603 C -0.12058 0.27428 0.27948
 C604 C -0.10084 0.27050 0.29539
 C605 C -0.16250 0.71784 0.25452
 C606 C -0.14279 0.72161 0.23858
 C607 C -0.11970 0.72600 0.21990
 C608 C -0.09999 0.72977 0.20396
 C609 C 0.33602 0.21691 0.75491
 C610 C 0.35583 0.22076 0.73910
 C611 C 0.37904 0.22527 0.72061
 C612 C 0.39886 0.22914 0.70482
 C613 C 0.66307 0.28249 0.75513
 C614 C 0.64325 0.27860 0.73934
 C615 C 0.62005 0.27407 0.72084
 C616 C 0.60023 0.27020 0.70503
 C617 C 0.16353 0.78260 0.25402
 C618 C 0.14383 0.77871 0.23808
 C619 C 0.12075 0.77415 0.21943
 C620 C 0.10102 0.77027 0.20352
 C621 C 0.24546 0.16263 0.21761
 C622 C 0.26134 0.14288 0.22150
 C623 C 0.27992 0.11974 0.22605
 C624 C 0.29578 0.09997 0.22992
 C625 C 0.74501 0.66298 0.71716
 C626 C 0.76080 0.64315 0.72098
 C627 C 0.77929 0.61992 0.72547
 C628 C 0.79508 0.60009 0.72933
 C629 C 0.74472 0.33604 0.78295
 C630 C 0.76058 0.35582 0.77903
 C631 C 0.77913 0.37899 0.77446
 C632 C 0.79498 0.39879 0.77056
 C633 C 0.24503 -0.16391 0.28237
 C634 C 0.26095 -0.14416 0.27856
 C635 C 0.27959 -0.12103 0.27411
 C636 C 0.29550 -0.10126 0.27032
 C637 C 0.25501 -0.16325 0.71741
 C638 C 0.23917 -0.14343 0.72120
 C639 C 0.22065 -0.12021 0.72566
 C640 C 0.20482 -0.10039 0.72945
 C641 C 0.75527 0.33681 0.21784
 C642 C 0.73933 0.35654 0.22164
 C643 C 0.72067 0.37964 0.22611
 C644 C 0.70475 0.39938 0.22994
 C645 C 0.75495 0.66326 0.28270
 C646 C 0.73905 0.64348 0.27892
 C647 C 0.72044 0.62032 0.27448
 C648 C 0.70456 0.60054 0.27066
 C649 C 0.25562 0.16372 0.78180
 C650 C 0.23972 0.14395 0.77795
 C651 C 0.22111 0.12080 0.77346
 C652 C 0.20520 0.10103 0.76966
 C653 C 0.21748 0.24497 0.16273
 C654 C 0.22128 0.26079 0.14294
 C655 C 0.22572 0.27933 0.11977
 C656 C 0.22950 0.29517 0.10000
 C657 C 0.71750 0.74584 0.66280
 C658 C 0.72141 0.76177 0.64313
 C659 C 0.72596 0.78044 0.62009
 C660 C 0.72983 0.79637 0.60040
 C661 C 0.78302 0.74602 0.33708
 C662 C 0.77920 0.76196 0.35680
 C663 C 0.77470 0.78060 0.37990
 C664 C 0.77085 0.79651 0.39964
 C665 C 0.28238 0.24510 -0.16374
 C666 C 0.27849 0.26099 -0.14399
 C667 C 0.27393 0.27958 -0.12086
 C668 C 0.27005 0.29544 -0.10109
 C669 C 0.71810 0.25468 -0.16261
 C670 C 0.72201 0.23877 -0.14292
 C671 C 0.72656 0.22013 -0.11987
 C672 C 0.73043 0.20420 -0.10018
 C673 C 0.21781 0.75494 0.33681
 C674 C 0.22154 0.73910 0.35660
 C675 C 0.22589 0.72054 0.37975
 C676 C 0.22962 0.70467 0.39952
 C677 C 0.28177 0.75523 0.66318
 C678 C 0.27793 0.73931 0.64345
 C679 C 0.27344 0.72068 0.62034
 C680 C 0.26963 0.70477 0.60059
 C681 C 0.78339 0.25420 0.16330
 C682 C 0.77959 0.23830 0.14354
 C683 C 0.77512 0.21970 0.12040
 C684 C 0.77129 0.20382 0.10063
 C685 C 0.46728 0.41266 0.49584
 C686 C 0.47108 0.39293 0.51173
 C687 C 0.47552 0.36982 0.53034
 C688 C 0.47933 0.35008 0.54623
 C689 C -0.03229 0.91331 -0.00502
 C690 C -0.02845 0.89351 0.01079
 C691 C -0.02394 0.87032 0.02928
 C692 C -0.02007 0.85051 0.04507
 C693 C 0.03228 0.58632 -0.00550
 C694 C 0.02848 0.60611 0.01037
 C695 C 0.02405 0.62929 0.02895
 C696 C 0.02029 0.64909 0.04481
 C697 C 0.53274 0.08644 0.49591
 C698 C 0.52881 0.10617 0.51182
 C699 C 0.52422 0.12928 0.53043
 C700 C 0.52030 0.14903 0.54632
 C701 C -0.03292 0.08731 0.50464
 C702 C -0.02912 0.10707 0.48878
 C703 C -0.02464 0.13021 0.47021
 C704 C -0.02080 0.14997 0.45435
 C705 C 0.46756 0.58727 1.00479
 C706 C 0.47137 0.60705 0.98896
 C707 C 0.47581 0.63022 0.97041
 C708 C 0.47960 0.65000 0.95456
 C709 C 0.53268 0.91369 1.00529
 C710 C 0.52876 0.89398 0.98935
 C711 C 0.52419 0.87089 0.97069
 C712 C 0.52029 0.85116 0.95477
 C713 C 0.03203 0.41368 0.50495
 C714 C 0.02819 0.39396 0.48900
 C715 C 0.02370 0.37085 0.47034
 C716 C 0.01987 0.35111 0.45441
 C717 C 0.41276 0.49530 0.46790
 C718 C 0.39302 0.51122 0.47170
 C719 C 0.36989 0.52985 0.47615
 C720 C 0.35013 0.54575 0.47995
 C721 C 0.91424 -0.00511 -0.03297
 C722 C 0.89445 0.01074 -0.02910
 C723 C 0.87128 0.02928 -0.02456
 C724 C 0.85148 0.04512 -0.02067
 C725 C 0.58737 -0.00516 0.03235
 C726 C 0.60716 0.01070 0.02851
 C727 C 0.63035 0.02925 0.02402
 C728 C 0.65016 0.04510 0.02020
 C729 C 0.08639 0.49505 0.53202
 C730 C 0.10611 0.51101 0.52821
 C731 C 0.12921 0.52968 0.52377
 C732 C 0.14894 0.54563 0.51999
 C733 C 0.08658 0.50486 -0.03235
 C734 C 0.10631 0.48893 -0.02855
 C735 C 0.12940 0.47027 -0.02412
 C736 C 0.14913 0.45433 -0.02035
 C737 C 0.58655 1.00517 0.46758
 C738 C 0.60640 0.98938 0.47139
 C739 C 0.62963 0.97091 0.47587
 C740 C 0.64948 0.95513 0.47971
 C741 C 0.91367 1.00575 0.53284
 C742 C 0.89387 0.98989 0.52902
 C743 C 0.87068 0.97132 0.52452
 C744 C 0.85088 0.95547 0.52067
 C745 C 0.41293 0.50456 0.03240
 C746 C 0.39317 0.48866 0.02851
 C747 C 0.37003 0.47006 0.02396
 C748 C 0.35026 0.45417 0.02008
 C749 C 0.49534 0.46723 0.41335
 C750 C 0.51123 0.47105 0.39362
 C751 C 0.52983 0.47554 0.37050
 C752 C 0.54571 0.47939 0.35076
 C753 C -0.00433 -0.03182 0.91269
 C754 C 0.01159 -0.02795 0.89298
 C755 C 0.03022 -0.02345 0.86989
 C756 C 0.04613 -0.01963 0.85017
 C757 C -0.00478 0.03259 0.58696
 C758 C 0.01119 0.02876 0.60664
 C759 C 0.02989 0.02430 0.62968
 C760 C 0.04585 0.02049 0.64936
 C761 C 0.49546 0.53246 0.08715
 C762 C 0.51133 0.52858 0.10690
 C763 C 0.52990 0.52405 0.13002
 C764 C 0.54576 0.52020 0.14978
 C765 C 0.50484 -0.03309 0.08705
 C766 C 0.48899 -0.02929 0.10683
 C767 C 0.47042 -0.02484 0.12999
 C768 C 0.45456 -0.02103 0.14975
 C769 C 1.00398 0.46680 0.58672
 C770 C 0.98814 0.47058 0.60650
 C771 C 0.96959 0.47503 0.62967
 C772 C 0.95375 0.47886 0.64946
 C773 C 1.00401 0.53277 0.91306
 C774 C 0.98813 0.52887 0.89332
 C775 C 0.96954 0.52427 0.87021
 C776 C 0.95368 0.52033 0.85046
 C777 C 0.50505 0.03172 0.41331
 C778 C 0.48915 0.02785 0.39358
 C779 C 0.47053 0.02334 0.37048
 C780 C 0.45462 0.01951 0.35075
   
