data_POSCAR
  _audit_creation_date              2014-09-24
  _audit_creation_method            'ToBaCCo'
  _symmetry_space_group_name_H-M    'P1'
  _symmetry_Int_Tables_number       1
  _symmetry_cell_setting            triclinic
  loop_
  _symmetry_equiv_pos_as_xyz
 x,y,z
_cell_length_a 20.5732
_cell_length_b 20.5470
_cell_length_c 40.7011
_cell_angle_alpha 98.403900
_cell_angle_beta 85.782800
_cell_angle_gamma 119.982500
loop_
  _atom_site_label
  _atom_site_type_symbol
  _atom_site_fract_x
  _atom_site_fract_y
  _atom_site_fract_z
C1 C 0.06702 0.08805 0.54332
 H2 H 0.11799 0.08612 0.54583
 C3 C 0.05746 0.14557 0.56191
 H4 H 0.10123 0.18764 0.57885
 C5 C -0.05064 0.03744 0.51717
 H6 H -0.09183 -0.00342 0.49907
 C7 C -0.06211 0.09421 0.53495
 H8 H -0.11320 0.09470 0.53083
 N9 N 0.01305 0.03516 0.52163
 C10 C 0.07466 -0.14169 0.50170
 H11 H 0.07401 -0.14782 0.47484
 C12 C 0.09341 -0.18547 0.51776
 H13 H 0.10666 -0.22554 0.50295
 C14 C 0.05506 -0.08369 0.55329
 H15 H 0.03873 -0.04494 0.56697
 C16 C 0.07225 -0.12749 0.57042
 H17 H 0.06993 -0.12144 0.59730
 Zn18 Zn 0.03073 -0.03747 0.49431
 N19 N 0.05722 -0.09114 0.51951
 C20 C 0.17796 0.02239 0.46790
 N21 N 0.10953 0.01610 0.46501
 C22 C 0.09812 0.05414 0.44349
 C23 C 0.15702 0.10101 0.42384
 C24 C 0.23841 0.06871 0.44880
 C25 C -0.11739 -0.14808 0.49151
 C26 C -0.18694 -0.20283 0.47818
 C27 C -0.13320 -0.18313 0.42323
 C28 C -0.06458 -0.12734 0.43781
 N29 N -0.05840 -0.11061 0.47141
 H30 H 0.18672 -0.00627 0.48587
 H31 H 0.04357 0.04946 0.44220
 H32 H 0.14707 0.13182 0.40726
 H33 H 0.29228 0.07323 0.45194
 H34 H -0.11038 -0.13447 0.51817
 H35 H -0.23178 -0.23027 0.49548
 H36 H -0.13664 -0.19535 0.39640
 H37 H -0.01637 -0.09794 0.42228
 C38 C 0.09241 -0.17860 0.55258
 C39 C -0.00731 0.14971 0.55743
 C40 C -0.19635 -0.22155 0.44341
 C41 C 0.22863 0.10972 0.42674
 C42 C 1.04732 0.00000 0.11781
 H43 H 1.04499 0.05171 0.11881
 C44 C 1.10149 -0.00926 0.09827
 H45 H 1.14033 0.03547 0.08403
 C46 C 1.00179 -0.11930 0.13655
 H47 H 0.96435 -0.16111 0.15224
 C48 C 1.05543 -0.13067 0.11754
 H49 H 1.05704 -0.18221 0.11833
 N50 N 0.99894 -0.05458 0.13647
 C51 C 0.82525 0.00611 0.16303
 H52 H 0.82546 0.00651 0.18963
 C53 C 0.77748 0.02425 0.14902
 H54 H 0.74060 0.03771 0.16520
 C55 C 0.87237 -0.01408 0.10993
 H56 H 0.90895 -0.02983 0.09480
 C57 C 0.82482 0.00314 0.09478
 H58 H 0.82570 0.00119 0.06802
 Zn59 Zn 0.93528 -0.03268 0.16614
 N60 N 0.87240 -0.01119 0.14355
 C61 C 1.00233 0.12058 0.19567
 N62 N 0.99924 0.05289 0.19571
 C63 C 1.04758 0.04649 0.21427
 C64 C 1.10193 0.10983 0.23375
 C65 C 1.05617 0.18552 0.21462
 C66 C 0.82504 -0.18139 0.16942
 C67 C 0.77744 -0.24736 0.18345
 C68 C 0.82531 -0.17901 0.23763
 C69 C 0.87268 -0.11418 0.22245
 N70 N 0.87241 -0.11698 0.18884
 H71 H 0.96490 0.12508 0.18005
 H72 H 1.04506 -0.00764 0.21323
 H73 H 1.14071 0.10377 0.24792
 H74 H 1.05798 0.23879 0.21387
 H75 H 0.82500 -0.18153 0.14282
 H76 H 0.74042 -0.29769 0.16731
 H77 H 0.82648 -0.17627 0.26437
 H78 H 0.90943 -0.06187 0.23754
 C79 C 0.77736 0.02366 0.11446
 C80 C 1.10693 -0.07462 0.09845
 C81 C 0.77772 -0.24699 0.21799
 C82 C 1.10761 0.18076 0.23362
 C83 C 0.09842 1.03948 0.88737
 H84 H 0.04392 0.98948 0.88857
 C85 C 0.15721 1.05154 0.90705
 H86 H 0.14724 1.01065 0.92356
 C87 C 0.17822 1.15151 0.86316
 H88 H 0.18697 1.18913 0.84528
 C89 C 0.23857 1.16566 0.88230
 H90 H 0.29240 1.21523 0.87927
 N91 N 0.10983 1.08917 0.86595
 C92 C -0.11717 1.02701 0.84001
 H93 H -0.11044 1.02084 0.81332
 C94 C -0.18657 1.01208 0.85363
 H95 H -0.23188 0.99514 0.83668
 C96 C -0.06383 1.05819 0.89356
 H97 H -0.01550 1.07671 0.90892
 C98 C -0.13232 1.04508 0.90837
 H99 H -0.13589 1.05325 0.93521
 Zn100 Zn 0.03094 1.06409 0.83679
 N101 N -0.05798 1.04813 0.85991
 C102 C -0.05081 0.90784 0.81384
 N103 N 0.01301 0.97377 0.80942
 C104 C 0.06701 0.97482 0.78773
 C105 C 0.05738 0.90772 0.76915
 C106 C -0.06235 0.83956 0.79607
 C107 C 0.07488 1.21232 0.82942
 C108 C 0.09357 1.27486 0.81335
 C109 C 0.07222 1.19567 0.76070
 C110 C 0.05509 1.13468 0.77783
 N111 N 0.05737 1.14432 0.81161
 H112 H -0.09204 0.90754 0.83193
 H113 H 0.11808 1.02770 0.78525
 H114 H 0.10119 0.90938 0.75222
 H115 H -0.11353 0.78799 0.80017
 H116 H 0.07433 1.21783 0.85627
 H117 H 0.10688 1.32820 0.82815
 H118 H 0.06982 1.18728 0.73382
 H119 H 0.03872 1.07958 0.76416
 C120 C -0.19542 1.02068 0.88837
 C121 C 0.22874 1.11470 0.90429
 C122 C 0.09245 1.26696 0.77853
 C123 C -0.00750 0.83882 0.77361
 C124 C 0.31028 0.02393 0.00221
 C125 C 0.36664 0.06367 -0.02028
 C126 C 0.43537 0.06470 -0.01997
 C127 C 0.44766 0.02575 0.00231
 C128 C 0.39045 -0.01399 0.02460
 C129 C 0.32169 -0.01492 0.02475
 C130 C 0.51991 0.02585 0.00200
 C131 C 0.55634 0.03714 0.03177
 C132 C 0.62485 0.03741 0.03167
 C133 C 0.65647 0.02520 0.00119
 C134 C 0.62054 0.01366 -0.02894
 C135 C 0.55247 0.01448 -0.02817
 H136 H 0.25717 0.02305 0.00212
 H137 H 0.47921 0.09513 -0.03726
 H138 H 0.39973 -0.04398 0.04183
 H139 H 0.53091 0.04566 0.05502
 H140 H 0.70912 0.02508 0.00092
 H141 H 0.52416 0.00627 -0.05102
 C142 C 0.05757 0.69934 0.66457
 C143 C 0.03205 0.66105 0.69273
 C144 C 0.03428 0.59391 0.69301
 C145 C 0.06115 0.56463 0.66546
 C146 C 0.08606 0.60334 0.63743
 C147 C 0.08424 0.67064 0.63668
 C148 C 0.06116 0.49243 0.66565
 C149 C 0.03438 0.43631 0.63810
 C150 C 0.03216 0.36694 0.63838
 C151 C 0.05763 0.35416 0.66653
 C152 C 0.08423 0.40952 0.69442
 C153 C 0.08601 0.47862 0.69368
 H154 H 0.05535 0.75081 0.66414
 H155 H 0.01453 0.56386 0.71457
 H156 H 0.10583 0.58008 0.61608
 H157 H 0.01467 0.44663 0.61654
 H158 H 0.05543 0.30047 0.66695
 H159 H 0.10572 0.52164 0.71503
 C160 C 0.65757 0.62903 0.33126
 C161 C 0.62584 0.58579 0.30070
 C162 C 0.55721 0.51760 0.30047
 C163 C 0.52076 0.49187 0.33018
 C164 C 0.55345 0.53515 0.36041
 C165 C 0.62167 0.60401 0.36135
 C166 C 0.44840 0.41971 0.32972
 C167 C 0.43595 0.36795 0.35177
 C168 C 0.36714 0.30025 0.35195
 C169 C 0.31088 0.28415 0.32955
 C170 C 0.32245 0.33489 0.30722
 C171 C 0.39127 0.40274 0.30752
 H172 H 0.71033 0.68174 0.33162
 H173 H 0.53172 0.48412 0.27715
 H174 H 0.52508 0.51453 0.38319
 H175 H 0.47974 0.38096 0.36899
 H176 H 0.25772 0.23190 0.32954
 H177 H 0.40067 0.44240 0.29045
 C178 C -0.01589 0.21317 0.57526
 C179 C -0.06226 0.23737 0.56535
 C180 C -0.05043 0.29847 0.58760
 C181 C 0.00217 0.30726 0.60960
 O182 O 0.02316 0.25554 0.60216
 H183 H -0.09924 0.21448 0.54408
 H184 H -0.07752 0.33210 0.58782
 C185 C 0.72825 0.68334 0.23348
 C186 C 0.69473 0.61092 0.21657
 C187 C 0.65287 0.56460 0.23956
 C188 C 0.66359 0.61176 0.26897
 O189 O 0.70999 0.68386 0.26541
 H190 H 0.70026 0.59338 0.19064
 H191 H 0.61900 0.50355 0.23524
 C192 C 0.29241 0.12427 -0.07673
 C193 C 0.36728 0.17602 -0.08111
 C194 C 0.40580 0.16110 -0.06028
 C195 C 0.35181 0.10152 -0.04461
 O196 O 0.28322 0.07936 -0.05450
 H197 H 0.39165 0.21857 -0.09789
 H198 H 0.46601 0.19026 -0.05705
 C199 C 0.10933 0.77353 0.57020
 C200 C 0.15065 0.73965 0.55717
 C201 C 0.14872 0.69784 0.58064
 C202 C 0.10620 0.70899 0.60636
 O203 O 0.08290 0.75551 0.60014
 H204 H 0.17881 0.74453 0.53339
 H205 H 0.17510 0.66326 0.57892
 C206 C 0.16915 0.24885 0.25220
 C207 C 0.19271 0.32306 0.24810
 C208 C 0.25359 0.36612 0.26832
 C209 C 0.26264 0.31517 0.28337
 O210 O 0.21150 0.24426 0.27364
 H211 H 0.16985 0.34374 0.23181
 H212 H 0.28710 0.42726 0.27163
 C213 C 0.73502 0.00630 -0.09710
 C214 C 0.66834 -0.02383 -0.11426
 C215 C 0.61648 -0.02662 -0.09105
 C216 C 0.65449 0.00228 -0.06119
 O217 O 0.72624 0.02149 -0.06477
 H218 H 0.65730 -0.04264 -0.14049
 H219 H 0.55775 -0.04783 -0.09570
 C220 C 0.16834 -0.08145 0.07987
 C221 C 0.19166 -0.13222 0.08404
 C222 C 0.25250 -0.11468 0.06380
 C223 C 0.26178 -0.05471 0.04866
 O224 O 0.21081 -0.03468 0.05834
 H225 H 0.16869 -0.17565 0.10041
 H226 H 0.28585 -0.14247 0.06055
 C227 C 0.73670 0.72487 0.42962
 C228 C 0.67032 0.68656 0.44691
 C229 C 0.61840 0.63778 0.42370
 C230 C 0.65585 0.64857 0.39369
 O231 O 0.72735 0.70192 0.39718
 H232 H 0.65925 0.69274 0.47321
 H233 H 0.55999 0.59932 0.42851
 C234 C 0.10932 0.33175 0.76090
 C235 C 0.15064 0.40698 0.77390
 C236 C 0.14870 0.44685 0.75043
 C237 C 0.10618 0.39314 0.72473
 O238 O 0.08289 0.32331 0.73097
 H239 H 0.17882 0.43029 0.79766
 H240 H 0.17508 0.50782 0.75213
 C241 C 0.72754 0.04335 0.09897
 C242 C 0.69368 0.08195 0.11582
 C243 C 0.65161 0.08595 0.09282
 C244 C 0.66257 0.04957 0.06344
 O245 O 0.70928 0.02432 0.06705
 H246 H 0.69911 0.10512 0.14174
 H247 H 0.61747 0.11283 0.09710
 C248 C 0.29244 0.16416 0.40787
 C249 C 0.36727 0.18713 0.41222
 C250 C 0.40596 0.24102 0.39158
 C251 C 0.35212 0.24701 0.37605
 O252 O 0.28345 0.20038 0.38584
 H253 H 0.39151 0.16856 0.42886
 H254 H 0.46620 0.27212 0.38838
 C255 C -0.01612 0.76675 0.75580
 C256 C -0.06255 0.69617 0.76573
 C257 C -0.05068 0.64688 0.74349
 C258 C 0.00200 0.69072 0.72150
 O259 O 0.02301 0.76344 0.72891
 H260 H -0.09960 0.68206 0.78700
 H261 H -0.07779 0.58614 0.74329
   
