data_POSCAR
  _audit_creation_date              2014-09-24
  _audit_creation_method            'ToBaCCo'
  _symmetry_space_group_name_H-M    'P1'
  _symmetry_Int_Tables_number       1
  _symmetry_cell_setting            triclinic
  loop_
  _symmetry_equiv_pos_as_xyz
 x,y,z
_cell_length_a 50.9335
_cell_length_b 48.6885
_cell_length_c 53.0718
_cell_angle_alpha 91.209900
_cell_angle_beta 91.284400
_cell_angle_gamma 92.527800
loop_
  _atom_site_label
  _atom_site_type_symbol
  _atom_site_fract_x
  _atom_site_fract_y
  _atom_site_fract_z
N1 N 0.59908 0.66458 0.60839
 N2 N 0.58831 0.65420 0.62856
 C3 C 0.56730 0.66872 0.63446
 C4 C 0.56472 0.68932 0.61702
 C5 C 0.58532 0.68597 0.60077
 H6 H 0.55471 0.66447 0.65015
 H7 H 0.59011 0.69822 0.58463
 Cu8 Cu 0.60292 0.62273 0.64506
 Cu9 Cu 0.63005 0.64966 0.59328
 Cu10 Cu 0.65644 0.59378 0.62234
 N11 N 0.61799 0.59124 0.66115
 N12 N 0.63911 0.58035 0.65224
 C13 C 0.64588 0.55947 0.66685
 C14 C 0.62802 0.55689 0.68615
 C15 C 0.61052 0.57752 0.68178
 H16 H 0.66262 0.54716 0.66347
 H17 H 0.59380 0.58248 0.69290
 N18 N 0.67121 0.61023 0.59190
 N19 N 0.66130 0.63161 0.58087
 C20 C 0.67560 0.63779 0.56053
 C21 C 0.69543 0.61933 0.55859
 C22 C 0.69200 0.60219 0.57885
 H23 H 0.67159 0.65419 0.54780
 H24 H 0.70382 0.58514 0.58378
 H25 H 0.62362 0.61012 0.60574
 H26 H 0.64512 0.63392 0.62608
 N27 N 0.90596 0.33674 0.10462
 N28 N 0.91539 0.34602 0.12656
 C29 C 0.93664 0.33197 0.13291
 C30 C 0.94091 0.31272 0.11388
 C31 C 0.92092 0.31653 0.09620
 H32 H 0.94810 0.33563 0.15010
 H33 H 0.91722 0.30538 0.07858
 Cu34 Cu 0.89902 0.37561 0.14476
 Cu35 Cu 0.87482 0.35129 0.08867
 Cu36 Cu 0.84591 0.40477 0.12020
 N37 N 0.88289 0.40609 0.16192
 N38 N 0.86202 0.41722 0.15223
 C39 C 0.85459 0.43742 0.16782
 C40 C 0.87174 0.43919 0.18847
 C41 C 0.88951 0.41898 0.18402
 H42 H 0.83801 0.45001 0.16426
 H43 H 0.90581 0.41380 0.19615
 N44 N 0.83244 0.38936 0.08760
 N45 N 0.84321 0.36880 0.07568
 C46 C 0.82931 0.36285 0.05420
 C47 C 0.80889 0.38064 0.05246
 C48 C 0.81154 0.39713 0.07399
 H49 H 0.83389 0.34700 0.04063
 H50 H 0.79896 0.41341 0.07948
 H51 H 0.87980 0.39007 0.10498
 H52 H 0.85794 0.36474 0.12141
 N53 N 0.40023 0.15662 -0.10601
 N54 N 0.41373 0.14209 -0.12188
 C55 C 0.43499 0.15722 -0.12887
 C56 C 0.43471 0.18271 -0.11684
 C57 C 0.41232 0.18159 -0.10250
 H58 H 0.44933 0.15033 -0.14204
 H59 H 0.40560 0.19757 -0.09008
 Cu60 Cu 0.40204 0.10508 -0.13253
 Cu61 Cu 0.36874 0.14156 -0.09023
 Cu62 Cu 0.34302 0.07942 -0.11449
 N63 N 0.38433 0.07378 -0.14994
 N64 N 0.36128 0.06389 -0.14295
 C65 C 0.35323 0.04307 -0.15875
 C66 C 0.37226 0.03970 -0.17671
 C67 C 0.39175 0.05960 -0.17043
 H68 H 0.33474 0.03149 -0.15737
 H69 H 0.40967 0.06406 -0.18039
 N70 N 0.32763 0.09875 -0.08577
 N71 N 0.33720 0.12269 -0.07677
 C72 C 0.32261 0.13060 -0.05730
 C73 C 0.30288 0.11065 -0.05377
 C74 C 0.30672 0.09075 -0.07221
 H75 H 0.32643 0.14923 -0.04615
 H76 H 0.29512 0.07186 -0.07557
 H77 H 0.37451 0.10003 -0.09583
 H78 H 0.35817 0.11832 -0.12224
 N79 N 0.09771 0.84288 0.38690
 N80 N 0.08290 0.85827 0.37299
 C81 C 0.05970 0.84477 0.36797
 C82 C 0.05992 0.81926 0.37921
 C83 C 0.08456 0.81887 0.39100
 H84 H 0.04412 0.85292 0.35660
 H85 H 0.09218 0.80276 0.40238
 Cu86 Cu 0.09531 0.89423 0.36209
 Cu87 Cu 0.13198 0.85621 0.40028
 Cu88 Cu 0.15791 0.91620 0.37519
 N89 N 0.11252 0.92349 0.34345
 N90 N 0.13694 0.93201 0.34844
 C91 C 0.14386 0.95189 0.33231
 C92 C 0.12259 0.95606 0.31624
 C93 C 0.10305 0.93759 0.32398
 H94 H 0.16300 0.96237 0.33226
 H95 H 0.08351 0.93417 0.31583
 N96 N 0.17575 0.89663 0.40234
 N97 N 0.16612 0.87341 0.41150
 C98 C 0.18217 0.86557 0.43026
 C99 C 0.20288 0.88485 0.43317
 C100 C 0.19814 0.90424 0.41509
 H101 H 0.17843 0.84778 0.44170
 H102 H 0.20988 0.92278 0.41172
 H103 H 0.12811 0.89812 0.39615
 H104 H 0.13930 0.87819 0.36801
 C105 C 0.11352 0.14987 0.11123
 C106 C 0.13504 0.13630 0.10172
 C107 C 0.14524 0.11468 0.11467
 C108 C 0.13414 0.10641 0.13742
 C109 C 0.11298 0.11985 0.14679
 C110 C 0.10264 0.14174 0.13365
 C111 C 0.09916 0.17111 0.10241
 N112 N 0.07987 0.17610 0.11899
 C113 C 0.08192 0.15819 0.13817
 C114 C 0.10594 0.10726 0.16873
 N115 N 0.12228 0.08642 0.17297
 C116 C 0.13964 0.08582 0.15388
 C117 C 0.16573 0.10526 0.10092
 N118 N 0.16829 0.12071 0.07998
 C119 C 0.14954 0.13973 0.08037
 H120 H 0.10261 0.18219 0.08524
 H121 H 0.06895 0.15679 0.15401
 H122 H 0.09012 0.11304 0.18075
 H123 H 0.15481 0.07112 0.15174
 H124 H 0.17808 0.08862 0.10600
 H125 H 0.14637 0.15475 0.06599
 C126 C 0.39148 0.85307 0.60795
 C127 C 0.36999 0.86572 0.59693
 C128 C 0.35811 0.88663 0.60978
 C129 C 0.36744 0.89504 0.63391
 C130 C 0.38864 0.88258 0.64479
 C131 C 0.40073 0.86140 0.63172
 C132 C 0.40695 0.83241 0.59973
 N133 N 0.42543 0.82793 0.61790
 C134 C 0.42169 0.84560 0.63757
 C135 C 0.39334 0.89487 0.66815
 N136 N 0.37544 0.91442 0.67174
 C137 C 0.35955 0.91463 0.65083
 C138 C 0.33794 0.89513 0.59457
 N139 N 0.33723 0.87983 0.57281
 C140 C 0.35679 0.86176 0.57415
 H141 H 0.40468 0.82128 0.58189
 H142 H 0.43360 0.84723 0.65472
 H143 H 0.40842 0.88962 0.68167
 H144 H 0.34356 0.92823 0.64794
 H145 H 0.32452 0.91102 0.59919
 H146 H 0.36132 0.84702 0.55951
 C147 C 0.88728 0.64298 0.39192
 C148 C 0.86485 0.63035 0.40229
 C149 C 0.85393 0.60626 0.39154
 C150 C 0.86514 0.59456 0.37020
 C151 C 0.88736 0.60687 0.36006
 C152 C 0.89860 0.63119 0.37107
 C153 C 0.90174 0.66682 0.39804
 N154 N 0.92164 0.66963 0.38156
 C155 C 0.91993 0.64792 0.36503
 C156 C 0.89330 0.59156 0.33900
 N157 N 0.87513 0.57035 0.33606
 C158 C 0.85792 0.57202 0.35519
 C159 C 0.83246 0.59862 0.40543
 N160 N 0.83008 0.61743 0.42445
 C161 C 0.84978 0.63700 0.42256
 H162 H 0.89811 0.68105 0.41339
 H163 H 0.93292 0.64484 0.34944
 H164 H 0.90912 0.59616 0.32626
 H165 H 0.84116 0.55803 0.35791
 H166 H 0.81945 0.58073 0.40181
 H167 H 0.85328 0.65450 0.43530
 C168 C 0.61066 0.35723 -0.11644
 C169 C 0.63442 0.36884 -0.10637
 C170 C 0.64615 0.39158 -0.11739
 C171 C 0.63445 0.40291 -0.13869
 C172 C 0.61093 0.39163 -0.14855
 C173 C 0.59890 0.36864 -0.13728
 C174 C 0.59493 0.33499 -0.10976
 N175 N 0.57385 0.33271 -0.12594
 C176 C 0.57610 0.35325 -0.14281
 C177 C 0.60453 0.40654 -0.16941
 N178 N 0.62372 0.42642 -0.17251
 C179 C 0.64201 0.42437 -0.15369
 C180 C 0.66866 0.39872 -0.10357
 N181 N 0.67090 0.38091 -0.08435
 C182 C 0.65007 0.36246 -0.08601
 H183 H 0.59842 0.32161 -0.09411
 H184 H 0.56235 0.35651 -0.15819
 H185 H 0.58760 0.40264 -0.18187
 H186 H 0.65966 0.43744 -0.15114
 H187 H 0.68240 0.41566 -0.10730
 H188 H 0.64618 0.34603 -0.07300
 C189 C 0.00052 0.25524 0.11171
 C190 C -0.01718 0.25667 0.09120
 C191 C -0.03686 0.27572 0.09184
 C192 C -0.03913 0.29353 0.11287
 C193 C -0.02088 0.29129 0.13300
 N194 N -0.00202 0.27244 0.13194
 C195 C 0.02129 0.23491 0.11256
 N196 N 0.03065 0.22722 0.13546
 C197 C 0.04950 0.20851 0.13796
 C198 C 0.06028 0.19640 0.11653
 C199 C 0.05131 0.20439 0.09271
 C200 C 0.03185 0.22360 0.09063
 H201 H -0.05023 0.27622 0.07577
 H202 H -0.02152 0.30416 0.14977
 H203 H 0.05619 0.20332 0.15667
 H204 H 0.05903 0.19551 0.07571
 H205 H -0.01638 0.24286 0.07503
 H206 H 0.02550 0.22966 0.07206
 C207 C 0.50569 0.74937 0.61397
 C208 C 0.52292 0.74668 0.59386
 C209 C 0.54209 0.72712 0.59485
 C210 C 0.54438 0.71023 0.61584
 C211 C 0.52697 0.71383 0.63569
 N212 N 0.50843 0.73304 0.63429
 C213 C 0.48498 0.76983 0.61408
 N214 N 0.47525 0.77809 0.63656
 C215 C 0.45622 0.79672 0.63827
 C216 C 0.44562 0.80814 0.61641
 C217 C 0.45513 0.79967 0.59301
 C218 C 0.47468 0.78054 0.59174
 H219 H 0.55502 0.72530 0.57908
 H220 H 0.52807 0.70160 0.65240
 H221 H 0.44918 0.80227 0.65667
 H222 H 0.44767 0.80800 0.57566
 H223 H 0.52206 0.75974 0.57767
 H224 H 0.48121 0.77403 0.57341
 C225 C 0.99927 0.75755 0.37963
 C226 C 0.99413 0.78333 0.36989
 C227 C 1.01426 0.80367 0.36943
 C228 C 1.03956 0.79865 0.37905
 C229 C 1.04376 0.77236 0.38857
 N230 N 1.02390 0.75276 0.38839
 C231 C 0.97867 0.73532 0.38017
 N232 N 0.98527 0.70887 0.37580
 C233 C 0.96721 0.68747 0.37598
 C234 C 0.94089 0.69209 0.38128
 C235 C 0.93375 0.71911 0.38628
 C236 C 0.95253 0.74081 0.38555
 H237 H 1.00965 0.82338 0.36188
 H238 H 1.06281 0.76703 0.39585
 H239 H 0.97344 0.66683 0.37234
 H240 H 0.91360 0.72341 0.39038
 H241 H 0.97486 0.78762 0.36232
 H242 H 0.94676 0.76155 0.38957
 C243 C 0.49167 0.24941 -0.12189
 C244 C 0.46588 0.25480 -0.11513
 C245 C 0.44728 0.23304 -0.11342
 C246 C 0.45421 0.20598 -0.11867
 C247 C 0.48018 0.20148 -0.12542
 N248 N 0.49805 0.22297 -0.12661
 C249 C 0.51233 0.27157 -0.12322
 N250 N 0.53766 0.26580 -0.11748
 C251 C 0.55769 0.28514 -0.11814
 C252 C 0.55280 0.31206 -0.12528
 C253 C 0.52693 0.31836 -0.13171
 C254 C 0.50663 0.29823 -0.13060
 H255 H 0.42745 0.23743 -0.10817
 H256 H 0.48645 0.18091 -0.12931
 H257 H 0.57745 0.27941 -0.11342
 H258 H 0.52240 0.33892 -0.13727
 H259 H 0.46023 0.27548 -0.11067
 H260 H 0.48682 0.30341 -0.13583
 C261 C 0.11884 0.01211 0.25513
 C262 C 0.09592 -0.00241 0.26246
 C263 C 0.09714 -0.02052 0.28242
 C264 C 0.12112 -0.02450 0.29511
 C265 C 0.14363 -0.00977 0.28703
 N266 N 0.14194 0.00779 0.26752
 C267 C 0.11883 0.03148 0.23395
 N268 N 0.14181 0.03747 0.22220
 C269 C 0.14341 0.05498 0.20260
 C270 C 0.12095 0.06785 0.19378
 C271 C 0.09712 0.06222 0.20583
 C272 C 0.09597 0.04421 0.22589
 H273 H 0.07921 -0.03136 0.28778
 H274 H 0.16262 -0.01226 0.29597
 H275 H 0.16228 0.05905 0.19418
 H276 H 0.07925 0.07151 0.19962
 H277 H 0.07727 -0.00035 0.25273
 H278 H 0.07743 0.04075 0.23507
 C279 C 0.62826 0.50075 -0.25437
 C280 C 0.64842 0.50076 -0.27192
 C281 C 0.64824 0.51918 -0.29165
 C282 C 0.62803 0.53783 -0.29416
 C283 C 0.60796 0.53675 -0.27628
 N284 N 0.60855 0.51848 -0.25726
 C285 C 0.62776 0.48166 -0.23306
 N286 N 0.60422 0.47298 -0.22367
 C287 C 0.60241 0.45524 -0.20425
 C288 C 0.62523 0.44543 -0.19291
 C289 C 0.64968 0.45449 -0.20203
 C290 C 0.65104 0.47255 -0.22203
 H291 H 0.66417 0.51864 -0.30473
 H292 H 0.59171 0.55025 -0.27728
 H293 H 0.58320 0.44905 -0.19753
 H294 H 0.66776 0.44733 -0.19394
 H295 H 0.66402 0.48644 -0.27074
 H296 H 0.67015 0.47952 -0.22849
 C297 C 0.37005 0.98423 0.75941
 C298 C 0.34725 0.98741 0.77339
 C299 C 0.34800 1.00532 0.79430
 C300 C 0.37139 1.02005 0.80148
 C301 C 0.39386 1.01586 0.78727
 N302 N 0.39264 0.99831 0.76697
 C303 C 0.37043 0.96581 0.73685
 N304 N 0.39379 0.95604 0.72955
 C305 C 0.39585 0.93938 0.70887
 C306 C 0.37352 0.93182 0.69389
 C307 C 0.34927 0.94186 0.70092
 C308 C 0.34763 0.95883 0.72229
 H309 H 0.33016 1.00771 0.80463
 H310 H 0.41245 1.02639 0.79222
 H311 H 0.41500 0.93248 0.70393
 H312 H 0.33152 0.93645 0.69002
 H313 H 0.32905 0.97604 0.76856
 H314 H 0.32878 0.96672 0.72692
 C315 C 0.86992 0.49440 0.25223
 C316 C 0.84772 0.49079 0.23614
 C317 C 0.84832 0.47279 0.21540
 C318 C 0.87097 0.45834 0.21051
 C319 C 0.89282 0.46268 0.22696
 N320 N 0.89180 0.48043 0.24701
 C321 C 0.87048 0.51357 0.27428
 N322 N 0.89401 0.52483 0.28293
 C323 C 0.89602 0.54293 0.30282
 C324 C 0.87342 0.55059 0.31541
 C325 C 0.84902 0.53881 0.30711
 C326 C 0.84746 0.52031 0.28666
 H327 H 0.83096 0.47017 0.20333
 H328 H 0.91082 0.45228 0.22379
 H329 H 0.91526 0.55116 0.30886
 H330 H 0.83107 0.54421 0.31613
 H331 H 0.83019 0.50208 0.23912
 H332 H 0.82844 0.51127 0.28089
 C333 C 0.24460 0.11064 0.00322
 C334 C 0.24900 0.08619 -0.01024
 C335 C 0.26793 0.08618 -0.02887
 C336 C 0.28250 0.11042 -0.03422
 C337 C 0.27727 0.13448 -0.02051
 N338 N 0.25869 0.13399 -0.00252
 C339 C 0.22471 0.11212 0.02309
 N340 N 0.21481 0.13695 0.02886
 C341 C 0.19666 0.14016 0.04694
 C342 C 0.18751 0.11753 0.06073
 C343 C 0.19767 0.09178 0.05535
 C344 C 0.21623 0.08897 0.03660
 H345 H 0.27120 0.06711 -0.03891
 H346 H 0.28768 0.15376 -0.02416
 H347 H 0.18971 0.16046 0.05076
 H348 H 0.19111 0.07376 0.06545
 H349 H 0.23776 0.06732 -0.00684
 H350 H 0.22407 0.06899 0.03317
 C351 C 0.75319 0.61512 0.50137
 C352 C 0.74889 0.59274 0.51726
 C353 C 0.73011 0.59414 0.53590
 C354 C 0.71557 0.61777 0.53891
 C355 C 0.72068 0.63981 0.52283
 N356 N 0.73914 0.63799 0.50482
 C357 C 0.77297 0.61481 0.48135
 N358 N 0.78368 0.63915 0.47341
 C359 C 0.80202 0.64051 0.45519
 C360 C 0.81048 0.61636 0.44362
 C361 C 0.79940 0.59107 0.45126
 C362 C 0.78067 0.59020 0.47002
 H363 H 0.72694 0.57658 0.54778
 H364 H 0.71024 0.65859 0.52462
 H365 H 0.80972 0.66046 0.44958
 H366 H 0.80542 0.57193 0.44296
 H367 H 0.76013 0.57447 0.51571
 H368 H 0.77214 0.57044 0.47522
 C369 C 0.75040 0.38402 -0.00644
 C370 C 0.75511 0.40673 0.01003
 C371 C 0.77419 0.40562 0.02919
 C372 C 0.78866 0.38197 0.03207
 C373 C 0.78326 0.35964 0.01529
 N374 N 0.76444 0.36115 -0.00316
 C375 C 0.73011 0.38401 -0.02684
 N376 N 0.71829 0.35967 -0.03491
 C377 C 0.69927 0.35815 -0.05335
 C378 C 0.69127 0.38210 -0.06502
 C379 C 0.70353 0.40735 -0.05729
 C380 C 0.72291 0.40840 -0.03828
 H381 H 0.77765 0.42338 0.04160
 H382 H 0.79368 0.34087 0.01698
 H383 H 0.69062 0.33823 -0.05903
 H384 H 0.69789 0.42634 -0.06568
 H385 H 0.74390 0.42501 0.00855
 H386 H 0.73230 0.42809 -0.03291
 C387 C 0.26284 0.88655 0.49111
 C388 C 0.25823 0.91055 0.47779
 C389 C 0.23895 0.90994 0.45864
 C390 C 0.22423 0.88553 0.45267
 C391 C 0.22989 0.86185 0.46607
 N392 N 0.24877 0.86294 0.48461
 C393 C 0.28261 0.88596 0.51195
 N394 N 0.29310 0.86157 0.51771
 C395 C 0.31087 0.85918 0.53695
 C396 C 0.31881 0.88221 0.55205
 C397 C 0.30809 0.90753 0.54660
 C398 C 0.29005 0.90952 0.52661
 H399 H 0.23537 0.92872 0.44883
 H400 H 0.21939 0.84245 0.46188
 H401 H 0.31833 0.83919 0.54073
 H402 H 0.31376 0.92582 0.55770
 H403 H 0.26946 0.92956 0.48184
 H404 H 0.28166 0.92915 0.52317
   
