data_POSCAR
  _audit_creation_date              2014-09-24
  _audit_creation_method            'ToBaCCo'
  _symmetry_space_group_name_H-M    'P1'
  _symmetry_Int_Tables_number       1
  _symmetry_cell_setting            triclinic
  loop_
  _symmetry_equiv_pos_as_xyz
 x,y,z
_cell_length_a 36.4990
_cell_length_b 36.7460
_cell_length_c 36.9819
_cell_angle_alpha 90.022100
_cell_angle_beta 90.007900
_cell_angle_gamma 90.025900
loop_
  _atom_site_label
  _atom_site_type_symbol
  _atom_site_fract_x
  _atom_site_fract_y
  _atom_site_fract_z
O1 O 0.37198 0.32149 -0.03559
 O2 O 0.32178 0.37185 0.03458
 O3 O 0.37162 0.32154 0.03481
 O4 O 0.32271 0.37224 -0.03595
 O5 O 0.27862 0.33124 -0.03562
 O6 O 0.32884 0.27905 0.03377
 O7 O 0.27837 0.32997 0.03416
 O8 O 0.32864 0.27953 -0.03614
 Cu9 Cu 0.35133 0.35098 -0.00049
 Cu10 Cu 0.29926 0.30072 -0.00105
 C11 C 0.35909 0.29172 -0.04755
 C12 C 0.29137 0.35969 0.04611
 C13 C 0.35891 0.29142 0.04601
 C14 C 0.29198 0.36087 -0.04755
 O15 O 0.67844 0.62819 0.03401
 O16 O 0.62821 0.67860 -0.03607
 O17 O 0.67739 0.62774 -0.03653
 O18 O 0.62873 0.67860 0.03433
 O19 O 0.67161 0.72099 0.03322
 O20 O 0.72156 0.66865 -0.03627
 O21 O 0.67163 0.72048 -0.03669
 O22 O 0.72194 0.66998 0.03351
 Cu23 Cu 0.64887 0.64909 -0.00102
 Cu24 Cu 0.70105 0.69924 -0.00167
 C25 C 0.70889 0.64030 0.04550
 C26 C 0.64113 0.70834 -0.04804
 C27 C 0.70812 0.63902 -0.04816
 C28 C 0.64155 0.70869 0.04552
 O29 O 0.62812 0.32144 1.03574
 O30 O 0.67833 0.37183 0.96561
 O31 O 0.62850 0.32151 0.96534
 O32 O 0.67732 0.37228 1.03613
 O33 O 0.72144 0.33134 1.03581
 O34 O 0.67130 0.27907 0.96639
 O35 O 0.72175 0.33000 0.96604
 O36 O 0.67148 0.27955 1.03631
 Cu37 Cu 0.64875 0.35096 1.00066
 Cu38 Cu 0.70085 0.30076 1.00124
 C39 C 0.64102 0.29171 1.04772
 C40 C 0.70874 0.35970 0.95408
 C41 C 0.64125 0.29141 0.95412
 C42 C 0.70804 0.36097 1.04774
 O43 O 0.32186 0.62799 0.96588
 O44 O 0.37227 0.67852 1.03585
 O45 O 0.32298 0.62769 1.03642
 O46 O 0.37168 0.67837 0.96545
 O47 O 0.32887 0.72079 0.96654
 O48 O 0.27889 0.66866 1.03615
 O49 O 0.32894 0.72044 1.03645
 O50 O 0.27843 0.66980 0.96637
 Cu51 Cu 0.35151 0.64895 1.00085
 Cu52 Cu 0.29943 0.69914 1.00148
 C53 C 0.29141 0.64008 0.95441
 C54 C 0.35943 0.70831 1.04779
 C55 C 0.29228 0.63903 1.04807
 C56 C 0.35892 0.70846 0.95424
 O57 O 0.03487 0.32259 0.37193
 O58 O -0.03629 0.37236 0.32184
 O59 O -0.03661 0.32342 0.37223
 O60 O 0.03503 0.37224 0.32188
 O61 O 0.03405 0.32980 0.27961
 O62 O -0.03611 0.27966 0.33145
 O63 O -0.03674 0.32929 0.28018
 O64 O 0.03457 0.27955 0.33024
 Cu65 Cu -0.00067 0.35194 0.35115
 Cu66 Cu -0.00110 0.30025 0.30117
 C67 C 0.04655 0.29238 0.35986
 C68 C -0.04839 0.35950 0.29228
 C69 C -0.04830 0.29289 0.36088
 C70 C 0.04633 0.35973 0.29188
 O71 O 0.03543 0.67705 0.62803
 O72 O -0.03599 0.62747 0.67797
 O73 O -0.03601 0.67636 0.62751
 O74 O 0.03535 0.62749 0.67815
 O75 O 0.03435 0.66999 0.72037
 O76 O -0.03549 0.72018 0.66822
 O77 O -0.03645 0.67060 0.71957
 O78 O 0.03514 0.72014 0.66966
 Cu79 Cu -0.00023 0.64779 0.64876
 Cu80 Cu -0.00066 0.69955 0.69865
 C81 C 0.04714 0.70727 0.64008
 C82 C -0.04813 0.64040 0.70748
 C83 C -0.04760 0.70695 0.63875
 C84 C 0.04660 0.64003 0.70817
 O85 O 1.03603 0.62777 0.32189
 O86 O 0.96473 0.67740 0.37194
 O87 O 0.96469 0.62788 0.32177
 O88 O 1.03617 0.67661 0.37240
 O89 O 1.03573 0.72046 0.33175
 O90 O 0.96574 0.67040 0.27961
 O91 O 0.96509 0.72052 0.33036
 O92 O 1.03654 0.67091 0.28033
 Cu93 Cu 1.00033 0.64812 0.35116
 Cu94 Cu 1.00083 0.69990 0.30132
 C95 C 1.04818 0.64069 0.29239
 C96 C 0.95306 0.70763 0.35993
 C97 C 0.95344 0.64045 0.29179
 C98 C 1.04784 0.70718 0.36118
 O99 O 0.96491 0.32251 0.62761
 O100 O 1.03610 0.37212 0.67794
 O101 O 1.03633 0.32329 0.62738
 O102 O 0.96475 0.37203 0.67784
 O103 O 0.96562 0.32947 0.71996
 O104 O 1.03572 0.27942 0.66799
 O105 O 1.03644 0.32895 0.71947
 O106 O 0.96511 0.27934 0.66913
 Cu107 Cu 1.00046 0.35179 0.64855
 Cu108 Cu 1.00076 0.29997 0.69834
 C109 C 0.95321 0.29224 0.63953
 C110 C 1.04815 0.35918 0.70748
 C111 C 1.04790 0.29269 0.63858
 C112 C 0.95340 0.35944 0.70778
 O113 O 0.37112 0.03528 0.32117
 O114 O 0.32178 -0.03606 0.37105
 O115 O 0.37177 -0.03557 0.32114
 O116 O 0.32146 0.03484 0.37143
 O117 O 0.27793 0.03433 0.32997
 O118 O 0.32899 -0.03542 0.27891
 O119 O 0.27838 -0.03600 0.32944
 O120 O 0.32822 0.03484 0.27905
 Cu121 Cu 0.35085 -0.00035 0.35039
 Cu122 Cu 0.29902 -0.00058 0.30014
 C123 C 0.35837 0.04687 0.29137
 C124 C 0.29145 -0.04789 0.35899
 C125 C 0.35926 -0.04717 0.29123
 C126 C 0.29092 0.04628 0.35957
 O127 O 0.62903 0.03542 0.67876
 O128 O 0.67852 -0.03589 0.62898
 O129 O 0.62852 -0.03543 0.67883
 O130 O 0.67862 0.03502 0.62840
 O131 O 0.72222 0.03473 0.66981
 O132 O 0.67130 -0.03503 0.72106
 O133 O 0.72193 -0.03561 0.67058
 O134 O 0.67198 0.03523 0.72083
 Cu135 Cu 0.64936 -0.00021 0.64955
 Cu136 Cu 0.70122 -0.00014 0.69977
 C137 C 0.64178 0.04712 0.70853
 C138 C 0.70886 -0.04763 0.64107
 C139 C 0.64107 -0.04691 0.70875
 C140 C 0.70917 0.04656 0.64020
 O141 O 0.32151 1.03588 0.62878
 O142 O 0.37096 0.96479 0.67887
 O143 O 0.32141 0.96499 0.62849
 O144 O 0.37139 1.03565 0.67878
 O145 O 0.32852 1.03540 0.72091
 O146 O 0.27781 0.96538 0.66987
 O147 O 0.32799 0.96514 0.72090
 O148 O 0.27802 1.03571 0.67029
 Cu149 Cu 0.35064 1.00031 0.64954
 Cu150 Cu 0.29871 1.00041 0.69969
 C151 C 0.29112 1.04762 0.64076
 C152 C 0.35819 0.95320 0.70866
 C153 C 0.29088 0.95345 0.64031
 C154 C 0.35878 1.04725 0.70863
 O155 O 0.62892 0.96477 0.32185
 O156 O 0.67716 1.03646 0.37227
 O157 O 0.62795 1.03559 0.32180
 O158 O 0.67819 0.96544 0.37256
 O159 O 0.72192 0.96590 0.33131
 O160 O 0.67148 1.03609 0.28033
 O161 O 0.72142 1.03616 0.33174
 O162 O 0.67205 0.96580 0.27999
 Cu163 Cu 0.64873 1.00049 0.35127
 Cu164 Cu 0.70111 1.00105 0.30169
 C165 C 0.64190 0.95348 0.29203
 C166 C 0.70785 1.04827 0.36104
 C167 C 0.64092 1.04753 0.29222
 C168 C 0.70879 0.95396 0.36083
 O169 O 0.82137 0.86967 0.53626
 O170 O 0.87127 0.81988 0.46556
 O171 O 0.82158 0.87051 0.46588
 O172 O 0.87116 0.81933 0.53604
 O173 O 0.82850 0.77665 0.53466
 O174 O 0.77791 0.82891 0.46578
 O175 O 0.82817 0.77768 0.46500
 O176 O 0.77797 0.82777 0.53564
 Cu177 Cu 0.85068 0.84905 0.50098
 Cu178 Cu 0.79875 0.79853 0.50023
 C179 C 0.79096 0.85747 0.54770
 C180 C 0.85852 0.79007 0.45355
 C181 C 0.79103 0.85877 0.45427
 C182 C 0.85858 0.78900 0.54683
 O183 O 0.17861 0.12997 0.53557
 O184 O 0.12852 0.17990 0.46512
 O185 O 0.17820 0.12927 0.46514
 O186 O 0.12886 0.18035 0.53559
 O187 O 0.17155 0.22300 0.53422
 O188 O 0.22185 0.17089 0.46503
 O189 O 0.17161 0.22212 0.46458
 O190 O 0.22202 0.17184 0.53493
 Cu191 Cu 0.14922 0.15066 0.50040
 Cu192 Cu 0.20115 0.20117 0.49965
 C193 C 0.20904 0.14214 0.54699
 C194 C 0.14123 0.20975 0.45318
 C195 C 0.20869 0.14106 0.45345
 C196 C 0.14150 0.21064 0.54643
 O197 O 0.17896 0.86965 0.46412
 O198 O 0.12890 0.81966 0.53456
 O199 O 0.17850 0.87035 0.53454
 O200 O 0.12914 0.81932 0.46410
 O201 O 0.17179 0.77667 0.46543
 O202 O 0.22216 0.82877 0.53463
 O203 O 0.17199 0.77748 0.53508
 O204 O 0.22235 0.82779 0.46473
 Cu205 Cu 0.14955 0.84896 0.49929
 Cu206 Cu 0.20147 0.79847 0.50000
 C207 C 0.20938 0.85749 0.45269
 C208 C 0.14163 0.78983 0.54651
 C209 C 0.20898 0.85856 0.54624
 C210 C 0.14174 0.78903 0.45325
 O211 O 0.87092 0.18002 0.53363
 O212 O 0.81999 0.13054 0.46323
 O213 O 0.87010 0.18062 0.46315
 O214 O 0.82112 0.12941 0.53372
 O215 O 0.77781 0.17134 0.53470
 O216 O 0.82748 0.22329 0.46491
 O217 O 0.77650 0.17233 0.46499
 O218 O 0.82810 0.22246 0.53459
 Cu219 Cu 0.84984 0.15092 0.49832
 Cu220 Cu 0.79812 0.20160 0.49985
 C221 C 0.85848 0.20992 0.54574
 C222 C 0.78929 0.14272 0.45257
 C223 C 0.85745 0.21095 0.45248
 C224 C 0.79089 0.14135 0.54590
 O225 O 0.46362 0.87145 0.82149
 O226 O 0.53511 0.82158 0.87105
 O227 O 0.53498 0.87165 0.82152
 O228 O 0.46375 0.82183 0.87158
 O229 O 0.46387 0.77890 0.82979
 O230 O 0.53448 0.82937 0.77907
 O231 O 0.53459 0.77871 0.82919
 O232 O 0.46375 0.82910 0.77911
 Cu233 Cu 0.49937 0.85089 0.85062
 Cu234 Cu 0.49914 0.79973 0.80005
 C235 C 0.45189 0.85907 0.79158
 C236 C 0.54669 0.79140 0.85883
 C237 C 0.54654 0.85929 0.79155
 C238 C 0.45205 0.79162 0.85954
 O239 O 0.53538 0.17853 0.12919
 O240 O 0.46389 0.12871 0.17878
 O241 O 0.46403 0.17825 0.12864
 O242 O 0.53525 0.12866 0.17894
 O243 O 0.53466 0.17105 0.22127
 O244 O 0.46408 0.22127 0.17035
 O245 O 0.46395 0.17116 0.22107
 O246 O 0.53481 0.22153 0.17093
 Cu247 Cu 0.49966 0.14926 0.14968
 Cu248 Cu 0.49934 0.20055 0.20013
 C249 C 0.54692 0.20877 0.14133
 C250 C 0.45211 0.14115 0.20863
 C251 C 0.45229 0.20847 0.14062
 C252 C 0.54675 0.14111 0.20891
 O253 O 0.46484 0.17858 0.87103
 O254 O 0.53620 0.12875 0.82127
 O255 O 0.53618 0.17827 0.87144
 O256 O 0.46485 0.12863 0.82136
 O257 O 0.46531 0.17099 0.77901
 O258 O 0.53606 0.22125 0.82973
 O259 O 0.53604 0.17115 0.77896
 O260 O 0.46534 0.22154 0.82928
 Cu261 Cu 0.50051 0.14928 0.85048
 Cu262 Cu 0.50071 0.20053 0.80001
 C263 C 0.45328 0.20880 0.85890
 C264 C 0.54791 0.14118 0.79138
 C265 C 0.54792 0.20848 0.85943
 C266 C 0.45325 0.14105 0.79143
 O267 O 0.46553 0.82174 0.12880
 O268 O 0.53698 0.87167 0.17855
 O269 O 0.53689 0.82208 0.12836
 O270 O 0.46560 0.87173 0.17847
 O271 O 0.46610 0.82940 0.22084
 O272 O 0.53674 0.77909 0.17007
 O273 O 0.53683 0.82925 0.22082
 O274 O 0.46603 0.77883 0.17059
 Cu275 Cu 0.50125 0.85108 0.14934
 Cu276 Cu 0.50146 0.79985 0.19981
 C277 C 0.45395 0.79152 0.14096
 C278 C 0.54869 0.85926 0.20844
 C279 C 0.54858 0.79185 0.14034
 C280 C 0.45402 0.85932 0.20841
 O281 O 0.87037 0.53567 0.82027
 O282 O 0.82116 0.46482 0.87081
 O283 O 0.87119 0.46477 0.82076
 O284 O 0.82056 0.53571 0.87029
 O285 O 0.77686 0.53411 0.82894
 O286 O 0.82848 0.46447 0.77847
 O287 O 0.77790 0.46406 0.82905
 O288 O 0.82744 0.53478 0.77819
 Cu289 Cu 0.85015 0.50030 0.84971
 Cu290 Cu 0.79836 0.49929 0.79941
 C291 C 0.85755 0.54702 0.79042
 C292 C 0.79088 0.45274 0.85886
 C293 C 0.85877 0.45292 0.79090
 C294 C 0.78980 0.54649 0.85837
 O295 O 0.12971 0.53595 0.17955
 O296 O 0.17895 0.46502 0.12910
 O297 O 0.12881 0.46506 0.17905
 O298 O 0.17963 0.53592 0.12960
 O299 O 0.22325 0.53435 0.17102
 O300 O 0.17144 0.46477 0.22142
 O301 O 0.22213 0.46429 0.17093
 O302 O 0.17258 0.53509 0.22170
 Cu303 Cu 0.14995 0.50055 0.15013
 Cu304 Cu 0.20165 0.49957 0.20053
 C305 C 0.14250 0.54731 0.20943
 C306 C 0.20918 0.45294 0.14111
 C307 C 0.14116 0.45323 0.20893
 C308 C 0.21038 0.54670 0.14156
 O309 O 0.87036 0.46427 0.17936
 O310 O 0.82120 0.53508 0.12873
 O311 O 0.87120 0.53516 0.17880
 O312 O 0.82056 0.46419 0.12932
 O313 O 0.77686 0.46580 0.17065
 O314 O 0.82847 0.53548 0.22107
 O315 O 0.77793 0.53585 0.17047
 O316 O 0.82742 0.46518 0.22142
 Cu317 Cu 0.85016 0.49961 0.14987
 Cu318 Cu 0.79835 0.50064 0.20016
 C319 C 0.85752 0.45294 0.20921
 C320 C 0.79093 0.54716 0.14067
 C321 C 0.85878 0.54703 0.20864
 C322 C 0.78980 0.45341 0.14124
 O323 O 0.17878 0.53475 0.87132
 O324 O 0.12951 0.46386 0.82069
 O325 O 0.17934 0.46384 0.87077
 O326 O 0.12873 0.53476 0.82124
 O327 O 0.17144 0.53504 0.77897
 O328 O 0.22304 0.46542 0.82944
 O329 O 0.17246 0.46473 0.77864
 O330 O 0.22203 0.53547 0.82957
 Cu331 Cu 0.14976 0.49925 0.85019
 Cu332 Cu 0.20155 0.50023 0.79991
 C333 C 0.20906 0.54681 0.85938
 C334 C 0.14233 0.45251 0.79084
 C335 C 0.21011 0.45307 0.85886
 C336 C 0.14115 0.54660 0.79139
 C337 C 0.23198 0.37975 0.07293
 C338 C 0.27044 0.38100 0.07282
 C339 C 0.28856 0.40437 0.09696
 C340 C 0.26854 0.42659 0.12041
 C341 C 0.23009 0.42649 0.11941
 C342 C 0.21196 0.40267 0.09570
 H343 H 0.21740 0.36209 0.05440
 H344 H 0.31821 0.40573 0.09741
 H345 H 0.28312 0.44493 0.13829
 H346 H 0.18231 0.40211 0.09449
 C347 C 0.76824 0.62022 0.07236
 C348 C 0.72979 0.61900 0.07222
 C349 C 0.71162 0.59570 0.09638
 C350 C 0.73160 0.57351 0.11987
 C351 C 0.77006 0.57357 0.11890
 C352 C 0.78823 0.59732 0.09518
 H353 H 0.78285 0.63782 0.05383
 H354 H 0.68198 0.59437 0.09681
 H355 H 0.71699 0.55522 0.13776
 H356 H 0.81788 0.59785 0.09400
 C357 C 0.76810 0.37970 0.92716
 C358 C 0.72965 0.38097 0.92734
 C359 C 0.71151 0.40430 0.90320
 C360 C 0.73152 0.42646 0.87969
 C361 C 0.76998 0.42634 0.88062
 C362 C 0.78812 0.40257 0.90433
 H363 H 0.78270 0.36207 0.94569
 H364 H 0.68187 0.40567 0.90280
 H365 H 0.71693 0.44477 0.86181
 H366 H 0.81776 0.40200 0.90549
 C367 C 0.23197 0.61993 0.92768
 C368 C 0.27042 0.61872 0.92775
 C369 C 0.28851 0.59537 0.90357
 C370 C 0.26846 0.57315 0.88012
 C371 C 0.23000 0.57323 0.88115
 C372 C 0.21191 0.59700 0.90491
 H373 H 0.21741 0.63757 0.94623
 H374 H 0.31815 0.59404 0.90309
 H375 H 0.28302 0.55485 0.86222
 H376 H 0.18226 0.59754 0.90614
 C377 C 0.09765 0.28915 0.40475
 C378 C 0.07334 0.27140 0.38117
 C379 C 0.07322 0.23320 0.37978
 C380 C 0.09586 0.21307 0.40275
 C381 C 0.11971 0.23081 0.42676
 C382 C 0.12101 0.26901 0.42702
 H383 H 0.09826 0.31858 0.40624
 H384 H 0.05455 0.21890 0.36198
 H385 H 0.09443 0.18364 0.40206
 H386 H 0.13900 0.28328 0.44551
 C387 C 0.09820 0.71047 0.59515
 C388 C 0.07394 0.72823 0.61874
 C389 C 0.07381 0.76643 0.62008
 C390 C 0.09639 0.78654 0.59703
 C391 C 0.12018 0.76879 0.57299
 C392 C 0.12150 0.73059 0.57280
 H393 H 0.09881 0.68103 0.59370
 H394 H 0.05517 0.78074 0.63788
 H395 H 0.09495 0.81598 0.59767
 H396 H 0.13945 0.71631 0.55430
 C397 C 0.92639 0.76677 0.37999
 C398 C 0.92625 0.72857 0.38127
 C399 C 0.90195 0.71078 0.40479
 C400 C 0.87862 0.73087 0.42714
 C401 C 0.87995 0.76906 0.42702
 C402 C 0.90379 0.78685 0.40304
 H403 H 0.94507 0.78111 0.36224
 H404 H 0.90133 0.68134 0.40619
 H405 H 0.86064 0.71656 0.44560
 H406 H 0.90523 0.81629 0.40245
 C407 C 0.90216 0.28911 0.59459
 C408 C 0.92651 0.27128 0.61802
 C409 C 0.92679 0.23308 0.61907
 C410 C 0.90419 0.21302 0.59594
 C411 C 0.88023 0.23085 0.57212
 C412 C 0.87884 0.26905 0.57217
 H413 H 0.90144 0.31855 0.59335
 H414 H 0.94552 0.21872 0.63674
 H415 H 0.90568 0.18359 0.59641
 H416 H 0.86076 0.28340 0.55385
 C417 C 0.40332 0.09802 0.28777
 C418 C 0.37956 0.07362 0.27030
 C419 C 0.37806 0.07331 0.23236
 C420 C 0.40117 0.09584 0.21220
 C421 C 0.42542 0.11975 0.22967
 C422 C 0.42571 0.12125 0.26761
 H423 H 0.40489 0.09877 0.31701
 H424 H 0.36013 0.05455 0.21829
 H425 H 0.40044 0.09427 0.18296
 H426 H 0.44436 0.13930 0.28169
 C427 C 0.62208 0.07354 0.76755
 C428 C 0.62052 0.07380 0.72961
 C429 C 0.59665 0.09807 0.71217
 C430 C 0.57422 0.12125 0.73236
 C431 C 0.57458 0.11981 0.77030
 C432 C 0.59893 0.09601 0.78774
 H433 H 0.64009 0.05488 0.78160
 H434 H 0.59503 0.09878 0.68293
 H435 H 0.55549 0.13921 0.71830
 H436 H 0.59972 0.09449 0.81698
 C437 C 0.40318 0.90215 0.71237
 C438 C 0.37942 0.92653 0.72979
 C439 C 0.37790 0.92689 0.76773
 C440 C 0.40100 0.90439 0.78794
 C441 C 0.42525 0.88048 0.77051
 C442 C 0.42556 0.87895 0.73257
 H443 H 0.40476 0.90136 0.68313
 H444 H 0.35996 0.94565 0.78176
 H445 H 0.40025 0.90599 0.81718
 H446 H 0.44421 0.86090 0.71852
 C447 C 0.62238 0.92741 0.23273
 C448 C 0.62094 0.92674 0.27067
 C449 C 0.59737 0.90203 0.28791
 C450 C 0.57509 0.87884 0.26755
 C451 C 0.57530 0.88068 0.22962
 C452 C 0.59937 0.90491 0.21236
 H453 H 0.64016 0.94643 0.21883
 H454 H 0.59584 0.90099 0.31714
 H455 H 0.55659 0.86055 0.28148
 H456 H 0.60005 0.90676 0.18314
 C457 C 0.37880 0.23242 0.92594
 C458 C 0.38045 0.27060 0.92594
 C459 C 0.40448 0.28827 0.90207
 C460 C 0.42700 0.26808 0.87902
 C461 C 0.42655 0.22989 0.88019
 C462 C 0.40204 0.21222 0.90360
 H463 H 0.36065 0.21820 0.94430
 H464 H 0.40616 0.31770 0.90156
 H465 H 0.44584 0.28232 0.86136
 H466 H 0.40118 0.18278 0.90491
 C467 C 0.62134 0.76769 0.92566
 C468 C 0.61972 0.72951 0.92554
 C469 C 0.59564 0.71188 0.90166
 C470 C 0.57306 0.73210 0.87873
 C471 C 0.57347 0.77029 0.88001
 C472 C 0.59803 0.78793 0.90342
 H473 H 0.63952 0.78188 0.94402
 H474 H 0.59398 0.68245 0.90107
 H475 H 0.55418 0.71789 0.86106
 H476 H 0.59887 0.81737 0.90482
 C477 C 0.40498 0.71193 0.09805
 C478 C 0.38091 0.72953 0.07417
 C479 C 0.37934 0.76771 0.07403
 C480 C 0.40267 0.78798 0.09627
 C481 C 0.42719 0.77038 0.11970
 C482 C 0.42758 0.73219 0.12099
 H483 H 0.40662 0.68250 0.09866
 H484 H 0.36116 0.78188 0.05566
 H485 H 0.40185 0.81742 0.09486
 H486 H 0.44643 0.71799 0.13867
 C487 C 0.59564 0.28826 0.09811
 C488 C 0.61969 0.27060 0.07425
 C489 C 0.62139 0.23242 0.07430
 C490 C 0.59819 0.21221 0.09668
 C491 C 0.57365 0.22988 0.12006
 C492 C 0.57316 0.26807 0.12119
 H493 H 0.59392 0.31769 0.09858
 H494 H 0.63956 0.21820 0.05595
 H495 H 0.59908 0.18277 0.09540
 H496 H 0.55430 0.28230 0.13883
 C497 C 0.28846 0.09830 0.59578
 C498 C 0.27029 0.07444 0.61941
 C499 C 0.23185 0.07478 0.62079
 C500 C 0.21187 0.09742 0.59773
 C501 C 0.23002 0.12077 0.57359
 C502 C 0.26847 0.12163 0.57339
 H503 H 0.31809 0.09857 0.59432
 H504 H 0.21722 0.05648 0.63864
 H505 H 0.18222 0.09634 0.59840
 H506 H 0.28307 0.13925 0.55484
 C507 C 0.76415 0.08207 0.37397
 C508 C 0.72717 0.07405 0.38163
 C509 C 0.71048 0.09118 0.41150
 C510 C 0.73037 0.11502 0.43342
 C511 C 0.76761 0.12131 0.42672
 C512 C 0.78435 0.10487 0.39678
 H513 H 0.77803 0.06949 0.35129
 H514 H 0.68205 0.08601 0.41820
 H515 H 0.71707 0.12731 0.45660
 H516 H 0.81312 0.10947 0.39125
 C517 C 0.71154 0.90148 0.59631
 C518 C 0.72969 0.92542 0.61988
 C519 C 0.76813 0.92503 0.62135
 C520 C 0.78812 0.90228 0.59840
 C521 C 0.76999 0.87887 0.57430
 C522 C 0.73153 0.87804 0.57403
 H523 H 0.68190 0.90125 0.59478
 H524 H 0.78275 0.94339 0.63917
 H525 H 0.81777 0.90333 0.59912
 H526 H 0.71694 0.86038 0.55549
 C527 C 0.23219 0.92484 0.37888
 C528 C 0.27063 0.92524 0.38028
 C529 C 0.28879 0.90140 0.40392
 C530 C 0.26881 0.87805 0.42631
 C531 C 0.23035 0.87887 0.42608
 C532 C 0.21220 0.90219 0.40193
 H533 H 0.21756 0.94314 0.36102
 H534 H 0.31843 0.90117 0.40541
 H535 H 0.28340 0.86046 0.44487
 H536 H 0.18255 0.90323 0.40124
 C537 C 0.07505 0.37824 0.76654
 C538 C 0.07503 0.38025 0.72863
 C539 C 0.09916 0.40438 0.71132
 C540 C 0.12242 0.42667 0.73162
 C541 C 0.12118 0.42588 0.76956
 C542 C 0.09758 0.40123 0.78686
 H543 H 0.05651 0.36001 0.78050
 H544 H 0.09966 0.40634 0.68210
 H545 H 0.14022 0.44563 0.71768
 H546 H 0.09621 0.40012 0.81609
 C547 C 0.07528 0.62164 0.23345
 C548 C 0.07512 0.61962 0.27136
 C549 C 0.09916 0.59549 0.28877
 C550 C 0.12245 0.57319 0.26856
 C551 C 0.12135 0.57398 0.23062
 C552 C 0.09786 0.59864 0.21323
 H553 H 0.05681 0.63988 0.21941
 H554 H 0.09955 0.59352 0.31799
 H555 H 0.14017 0.55421 0.28256
 H556 H 0.09659 0.59975 0.18398
 C557 C 0.92462 0.37858 0.23331
 C558 C 0.92474 0.38061 0.27122
 C559 C 0.90072 0.40479 0.28861
 C560 C 0.87748 0.42710 0.26837
 C561 C 0.87863 0.42629 0.23044
 C562 C 0.90210 0.40159 0.21307
 H563 H 0.94308 0.36030 0.21930
 H564 H 0.90030 0.40676 0.31783
 H565 H 0.85976 0.44611 0.28235
 H566 H 0.90340 0.40046 0.18382
 C567 C 0.92473 0.62139 0.76640
 C568 C 0.92491 0.61934 0.72849
 C569 C 0.90087 0.59518 0.71108
 C570 C 0.87757 0.57287 0.73128
 C571 C 0.87868 0.57369 0.76922
 C572 C 0.90216 0.59840 0.78662
 H573 H 0.94320 0.63966 0.78044
 H574 H 0.90049 0.59319 0.68185
 H575 H 0.85986 0.55386 0.71728
 H576 H 0.90342 0.59953 0.81586
 C577 C 0.76464 0.62571 0.91865
 C578 C 0.72760 0.61810 0.92647
 C579 C 0.71096 0.58794 0.90953
 C580 C 0.73091 0.56577 0.88600
 C581 C 0.76817 0.57246 0.87981
 C582 C 0.78490 0.60262 0.89616
 H583 H 0.77850 0.64858 0.93111
 H584 H 0.68250 0.58125 0.91455
 H585 H 0.71760 0.54244 0.87379
 H586 H 0.81369 0.60818 0.89165
 C587 C 0.23541 0.37403 0.91929
 C588 C 0.27244 0.38171 0.92707
 C589 C 0.28902 0.41185 0.91007
 C590 C 0.26904 0.43393 0.88650
 C591 C 0.23178 0.42717 0.88034
 C592 C 0.21510 0.39703 0.89675
 H593 H 0.22159 0.35117 0.93179
 H594 H 0.31748 0.41859 0.91507
 H595 H 0.28231 0.45724 0.87425
 H596 H 0.18631 0.39143 0.89227
 C597 C 0.28933 0.58801 0.09041
 C598 C 0.27276 0.61817 0.07346
 C599 C 0.23574 0.62584 0.08128
 C600 C 0.21543 0.60280 0.10378
 C601 C 0.23208 0.57264 0.12014
 C602 C 0.26933 0.56589 0.11395
 H603 H 0.31777 0.58128 0.08539
 H604 H 0.22193 0.64872 0.06881
 H605 H 0.18665 0.60840 0.10828
 H606 H 0.28259 0.54255 0.12617
 C607 C 0.71093 0.41198 0.09010
 C608 C 0.72755 0.38185 0.07312
 C609 C 0.76458 0.37423 0.08092
 C610 C 0.78487 0.39730 0.10343
 C611 C 0.76816 0.42744 0.11981
 C612 C 0.73089 0.43412 0.11365
 H613 H 0.68247 0.41866 0.08510
 H614 H 0.77842 0.35138 0.06843
 H615 H 0.81366 0.39176 0.10792
 H616 H 0.71760 0.45744 0.12589
 C617 C 0.91921 0.76332 0.62560
 C618 C 0.92687 0.72650 0.61796
 C619 C 0.90964 0.71016 0.58793
 C620 C 0.88599 0.73020 0.56590
 C621 C 0.88001 0.76725 0.57263
 C622 C 0.89663 0.78367 0.60267
 H623 H 0.93189 0.77694 0.64838
 H624 H 0.91453 0.68188 0.58123
 H625 H 0.87357 0.71714 0.54266
 H626 H 0.89228 0.81228 0.60825
 C627 C 0.90868 0.28976 0.41149
 C628 C 0.92596 0.27341 0.38151
 C629 C 0.91814 0.23664 0.37376
 C630 C 0.89539 0.21633 0.39658
 C631 C 0.87877 0.23274 0.42661
 C632 C 0.88487 0.26976 0.43340
 H633 H 0.91368 0.31801 0.41827
 H634 H 0.93085 0.22301 0.35101
 H635 H 0.89097 0.18773 0.39096
 H636 H 0.87247 0.28281 0.45665
 C637 C 0.08101 0.23629 0.62533
 C638 C 0.07343 0.27314 0.61779
 C639 C 0.09070 0.28951 0.58781
 C640 C 0.11428 0.26946 0.56572
 C641 C 0.12015 0.23238 0.57232
 C642 C 0.10352 0.21594 0.60232
 H643 H 0.06829 0.22264 0.64806
 H644 H 0.08587 0.31782 0.58119
 H645 H 0.12672 0.28254 0.54251
 H646 H 0.10780 0.18730 0.60781
 C647 C 0.08115 0.76350 0.37439
 C648 C 0.07343 0.72668 0.38197
 C649 C 0.09064 0.71029 0.41196
 C650 C 0.11432 0.73028 0.43402
 C651 C 0.12035 0.76732 0.42736
 C652 C 0.10377 0.78379 0.39735
 H653 H 0.06849 0.77716 0.35164
 H654 H 0.08570 0.68200 0.41861
 H655 H 0.12671 0.71718 0.45724
 H656 H 0.10816 0.81242 0.39184
 C657 C 0.62096 0.92689 0.76782
 C658 C 0.61956 0.92656 0.72988
 C659 C 0.59566 0.90228 0.71241
 C660 C 0.57308 0.87918 0.73255
 C661 C 0.57330 0.88067 0.77049
 C662 C 0.59766 0.90449 0.78797
 H663 H 0.63899 0.94554 0.78191
 H664 H 0.59415 0.90149 0.68317
 H665 H 0.55437 0.86121 0.71844
 H666 H 0.59837 0.90607 0.81720
 C667 C 0.40483 0.90221 0.28758
 C668 C 0.38085 0.92637 0.27011
 C669 C 0.37944 0.92667 0.23217
 C670 C 0.40279 0.90434 0.21202
 C671 C 0.42722 0.88063 0.22948
 C672 C 0.42747 0.87917 0.26743
 H673 H 0.40636 0.90145 0.31682
 H674 H 0.36135 0.94524 0.21809
 H675 H 0.40207 0.90589 0.18278
 H676 H 0.44624 0.86128 0.28152
 C677 C 0.59535 0.09811 0.28832
 C678 C 0.61951 0.07403 0.27099
 C679 C 0.62126 0.07383 0.23306
 C680 C 0.59805 0.09618 0.21278
 C681 C 0.57343 0.11981 0.23011
 C682 C 0.57285 0.12117 0.26806
 H683 H 0.59356 0.09878 0.31755
 H684 H 0.63951 0.05532 0.21908
 H685 H 0.59901 0.09470 0.18354
 H686 H 0.55394 0.13899 0.28205
 C687 C 0.40416 0.09805 0.71227
 C688 C 0.38023 0.07383 0.72974
 C689 C 0.37877 0.07357 0.76768
 C690 C 0.40205 0.09598 0.78783
 C691 C 0.42646 0.11973 0.77036
 C692 C 0.42674 0.12117 0.73242
 H693 H 0.40572 0.09878 0.68303
 H694 H 0.36071 0.05495 0.78176
 H695 H 0.40131 0.09445 0.81707
 H696 H 0.44549 0.13909 0.71833
 C697 C 0.59715 0.71234 0.09682
 C698 C 0.62056 0.72996 0.07228
 C699 C 0.62192 0.76815 0.07196
 C700 C 0.59902 0.78839 0.09466
 C701 C 0.57511 0.77075 0.11873
 C702 C 0.57498 0.73257 0.12018
 H703 H 0.59569 0.68291 0.09761
 H704 H 0.63958 0.78235 0.05313
 H705 H 0.59964 0.81781 0.09309
 H706 H 0.55662 0.71833 0.13832
 C707 C 0.40345 0.28786 0.09720
 C708 C 0.38003 0.27019 0.07269
 C709 C 0.37880 0.23200 0.07232
 C710 C 0.40181 0.21182 0.09495
 C711 C 0.42571 0.22951 0.11900
 C712 C 0.42573 0.26769 0.12049
 H713 H 0.40482 0.31730 0.09803
 H714 H 0.36113 0.21776 0.05350
 H715 H 0.40127 0.18239 0.09335
 H716 H 0.44408 0.28198 0.13863
 C717 C 0.59680 0.28787 0.90288
 C718 C 0.62019 0.27019 0.92737
 C719 C 0.62145 0.23200 0.92767
 C720 C 0.59845 0.21182 0.90501
 C721 C 0.57455 0.22951 0.88100
 C722 C 0.57452 0.26770 0.87955
 H723 H 0.59541 0.31730 0.90210
 H724 H 0.63911 0.21777 0.94648
 H725 H 0.59900 0.18239 0.90657
 H726 H 0.55616 0.28198 0.86144
 C727 C 0.40340 0.71209 0.90300
 C728 C 0.37995 0.72971 0.92750
 C729 C 0.37860 0.76790 0.92780
 C730 C 0.40154 0.78813 0.90514
 C731 C 0.42549 0.77050 0.88112
 C732 C 0.42562 0.73231 0.87967
 H733 H 0.40486 0.68266 0.90222
 H734 H 0.36090 0.78210 0.94661
 H735 H 0.40091 0.81756 0.90671
 H736 H 0.44401 0.71808 0.86156
 C737 C 0.71161 0.90319 0.40576
 C738 C 0.72974 0.92733 0.38238
 C739 C 0.76821 0.92725 0.38130
 C740 C 0.78821 0.90450 0.40428
 C741 C 0.77008 0.88074 0.42804
 C742 C 0.73161 0.87974 0.42805
 H743 H 0.68197 0.90269 0.40702
 H744 H 0.78282 0.94577 0.36366
 H745 H 0.81786 0.90571 0.40374
 H746 H 0.71700 0.86182 0.44629
 C747 C 0.28817 0.90258 0.59550
 C748 C 0.26996 0.92678 0.61876
 C749 C 0.23149 0.92683 0.61958
 C750 C 0.21158 0.90418 0.59639
 C751 C 0.22980 0.88040 0.57271
 C752 C 0.26825 0.87925 0.57301
 H753 H 0.31782 0.90200 0.59445
 H754 H 0.21683 0.94541 0.63712
 H755 H 0.18193 0.90550 0.59669
 H756 H 0.28293 0.86130 0.55485
 C757 C 0.28802 0.09717 0.40435
 C758 C 0.26989 0.07287 0.38110
 C759 C 0.23142 0.07267 0.38028
 C760 C 0.21143 0.09530 0.40341
 C761 C 0.22957 0.11921 0.42705
 C762 C 0.26802 0.12048 0.42678
 H763 H 0.31767 0.09786 0.40542
 H764 H 0.21682 0.05401 0.36275
 H765 H 0.18179 0.09388 0.40309
 H766 H 0.28265 0.13851 0.44491
 C767 C 0.71186 0.09748 0.59549
 C768 C 0.73010 0.07315 0.61858
 C769 C 0.76858 0.07291 0.61914
 C770 C 0.78845 0.09553 0.59588
 C771 C 0.77018 0.11948 0.57241
 C772 C 0.73173 0.12078 0.57296
 H773 H 0.68220 0.09820 0.59463
 H774 H 0.78326 0.05422 0.63653
 H775 H 0.81809 0.09408 0.59599
 H776 H 0.71701 0.13884 0.55494
 C777 C 0.92756 0.62031 0.23252
 C778 C 0.92672 0.61929 0.27048
 C779 C 0.90178 0.59601 0.28784
 C780 C 0.87851 0.57367 0.26761
 C781 C 0.88047 0.57351 0.22968
 C782 C 0.90497 0.59724 0.21229
 H783 H 0.94673 0.63786 0.21853
 H784 H 0.90061 0.59480 0.31708
 H785 H 0.86002 0.55546 0.28165
 H786 H 0.90693 0.59764 0.18307
 C787 C 0.90183 0.40397 0.71170
 C788 C 0.92668 0.38063 0.72907
 C789 C 0.92745 0.37958 0.76703
 C790 C 0.90489 0.40266 0.78725
 C791 C 0.88047 0.42645 0.76985
 C792 C 0.87857 0.42632 0.73192
 H793 H 0.90070 0.40523 0.68246
 H794 H 0.94656 0.36199 0.78104
 H795 H 0.90680 0.40222 0.81647
 H796 H 0.86014 0.44458 0.71786
 C797 C 0.09816 0.59549 0.71216
 C798 C 0.07327 0.61882 0.72950
 C799 C 0.07243 0.61987 0.76745
 C800 C 0.09498 0.59681 0.78770
 C801 C 0.11945 0.57305 0.77033
 C802 C 0.12140 0.57316 0.73240
 H803 H 0.09934 0.59424 0.68292
 H804 H 0.05329 0.63746 0.78144
 H805 H 0.09302 0.59725 0.81692
 H806 H 0.13987 0.55493 0.71836
 C807 C 0.07233 0.37992 0.23267
 C808 C 0.07307 0.38096 0.27063
 C809 C 0.09794 0.40429 0.28805
 C810 C 0.12124 0.42664 0.26787
 C811 C 0.11939 0.42677 0.22994
 C812 C 0.09495 0.40300 0.21250
 H813 H 0.05321 0.36234 0.21863
 H814 H 0.09904 0.40553 0.31729
 H815 H 0.13968 0.44488 0.28197
 H816 H 0.09306 0.40257 0.18327
   
