data_POSCAR
  _audit_creation_date              2014-09-24
  _audit_creation_method            'ToBaCCo'
  _symmetry_space_group_name_H-M    'P1'
  _symmetry_Int_Tables_number       1
  _symmetry_cell_setting            triclinic
  loop_
  _symmetry_equiv_pos_as_xyz
 x,y,z
_cell_length_a 24.6497
_cell_length_b 24.6330
_cell_length_c 24.6189
_cell_angle_alpha 89.989900
_cell_angle_beta 89.936800
_cell_angle_gamma 90.027400
loop_
  _atom_site_label
  _atom_site_type_symbol
  _atom_site_fract_x
  _atom_site_fract_y
  _atom_site_fract_z
C1 C 0.16684 0.54257 1.06636
 H2 H 0.16711 0.57410 1.03577
 C3 C 0.12824 0.54365 1.10783
 H4 H 0.09878 0.57628 1.10923
 C5 C 0.20326 0.46013 1.10027
 H6 H 0.23159 0.42694 1.09628
 C7 C 0.16520 0.45958 1.14245
 H8 H 0.16470 0.42611 1.17104
 N9 N 0.20325 0.50121 1.06324
 C10 C 0.33152 0.56461 0.95904
 H11 H 0.33132 0.53383 0.92769
 C12 C 0.37006 0.60608 0.95766
 H13 H 0.39960 0.60739 0.92507
 C14 C 0.29495 0.59902 1.04130
 H15 H 0.26657 0.59525 1.07454
 C16 C 0.33297 0.64120 1.04151
 H17 H 0.33352 0.67004 1.07472
 Zn18 Zn 0.24914 0.50021 1.00162
 N19 N 0.29504 0.56175 1.00044
 C20 C 0.20371 0.53983 0.90266
 N21 N 0.20339 0.49905 0.94003
 C22 C 0.16697 0.45766 0.93706
 C23 C 0.12873 0.45621 0.89535
 C24 C 0.16601 0.53996 0.86025
 C25 C 0.33136 0.43556 1.04399
 C26 C 0.36986 0.39409 1.04506
 C27 C 0.33281 0.35945 0.96106
 C28 C 0.29484 0.40162 0.96157
 N29 N 0.29495 0.43867 1.00263
 H30 H 0.23205 0.57306 0.90651
 H31 H 0.16700 0.42636 0.96789
 H32 H 0.09922 0.42363 0.89393
 H33 H 0.16564 0.57310 0.83131
 H34 H 0.33118 0.46617 1.07550
 H35 H 0.39939 0.39259 1.07759
 H36 H 0.33337 0.33082 0.92767
 H37 H 0.26653 0.40560 0.92836
 C38 C 0.37108 0.64444 0.99948
 C39 C 0.12707 0.50153 1.14597
 C40 C 0.37088 0.35598 1.00300
 C41 C 0.12798 0.49793 0.85686
 C42 C 0.83216 0.54294 -0.06388
 H43 H 0.83212 0.57426 -0.03307
 C44 C 0.87062 0.54417 -0.10547
 H45 H 0.90028 0.57662 -0.10685
 C46 C 0.79530 0.46085 -0.09822
 H47 H 0.76687 0.42769 -0.09436
 C48 C 0.83323 0.46049 -0.14051
 H49 H 0.83365 0.42729 -0.16935
 N50 N 0.79559 0.50167 -0.06092
 C51 C 0.66790 0.56491 0.04388
 H52 H 0.66812 0.53411 0.07522
 C53 C 0.62937 0.60635 0.04530
 H54 H 0.59987 0.60764 0.07793
 C55 C 0.70431 0.59932 -0.03848
 H56 H 0.73258 0.59553 -0.07181
 C57 C 0.66631 0.64147 -0.03865
 H58 H 0.66568 0.67028 -0.07189
 Zn59 Zn 0.74991 0.50039 0.00079
 N60 N 0.70426 0.56204 0.00238
 C61 C 0.79602 0.53931 0.09971
 N62 N 0.79589 0.49869 0.06219
 C63 C 0.83221 0.45721 0.06469
 C64 C 0.87084 0.45553 0.10602
 C65 C 0.83413 0.53921 0.14176
 C66 C 0.66737 0.43646 -0.04189
 C67 C 0.62883 0.39501 -0.04340
 C68 C 0.66601 0.35931 0.04010
 C69 C 0.70402 0.40147 0.04003
 N70 N 0.70389 0.43901 -0.00059
 H71 H 0.76776 0.57262 0.09622
 H72 H 0.83183 0.42605 0.03372
 H73 H 0.90028 0.42290 0.10703
 H74 H 0.83488 0.57225 0.17079
 H75 H 0.66756 0.46743 -0.07305
 H76 H 0.59925 0.39391 -0.07590
 H77 H 0.66550 0.33023 0.07311
 H78 H 0.73245 0.40501 0.07320
 C79 C 0.62826 0.64468 0.00343
 C80 C 0.87145 0.50235 -0.14383
 C81 C 0.62787 0.35636 -0.00183
 C82 C 0.87210 0.49712 0.14462
 C83 C -0.04244 0.33319 0.43425
 H84 H -0.07371 0.33307 0.46513
 C85 C -0.04373 0.37173 0.39273
 H86 H -0.07626 0.40130 0.39158
 C87 C 0.03958 0.29646 0.39968
 H88 H 0.07272 0.26805 0.40342
 C89 C 0.03991 0.33444 0.35744
 H90 H 0.07314 0.33479 0.32858
 N91 N -0.00117 0.29666 0.43707
 C92 C -0.06343 0.16815 0.54175
 H93 H -0.03223 0.16820 0.57263
 C94 C -0.10492 0.12966 0.54361
 H95 H -0.10579 0.09995 0.57606
 C96 C -0.09894 0.20511 0.46020
 H97 H -0.09562 0.23365 0.42705
 C98 C -0.14116 0.16716 0.46049
 H99 H -0.17045 0.16677 0.42772
 Zn100 Zn 0.00034 0.25077 0.49868
 N101 N -0.06110 0.20480 0.50046
 C102 C -0.03878 0.29598 0.59791
 N103 N 0.00183 0.29651 0.56036
 C104 C 0.04304 0.33314 0.56321
 C105 C 0.04446 0.37137 0.60499
 C106 C -0.03894 0.33365 0.64039
 C107 C 0.06445 0.16839 0.45565
 C108 C 0.10593 0.12992 0.45406
 C109 C 0.14164 0.16736 0.53743
 C110 C 0.09945 0.20529 0.53745
 N111 N 0.06186 0.20497 0.49696
 H112 H -0.07189 0.26750 0.59416
 H113 H 0.07420 0.33329 0.53223
 H114 H 0.07687 0.40107 0.60631
 H115 H -0.07197 0.33385 0.66946
 H116 H 0.03344 0.16843 0.42458
 H117 H 0.10700 0.10022 0.42161
 H118 H 0.17070 0.16695 0.57041
 H119 H 0.09590 0.23375 0.57063
 C120 C -0.14387 0.12888 0.50239
 C121 C -0.00194 0.37269 0.35423
 C122 C 0.14459 0.12911 0.49555
 C123 C 0.00288 0.37191 0.64366
 C124 C 0.95722 0.66758 0.56418
 H125 H 0.92612 0.66749 0.53321
 C126 C 0.95583 0.62916 0.60580
 H127 H 0.92347 0.59940 0.60704
 C128 C 1.03898 0.70469 0.59891
 H129 H 1.07208 0.73319 0.59519
 C130 C 1.03916 0.66682 0.64123
 H131 H 1.07218 0.66652 0.67023
 N132 N 0.99841 0.70424 0.56140
 C133 C 0.93629 0.83213 0.45627
 H134 H 0.96748 0.83203 0.42532
 C135 C 0.89484 0.87063 0.45444
 H136 H 0.89397 0.90026 0.42193
 C137 C 0.90081 0.79541 0.53804
 H138 H 0.90417 0.76700 0.57129
 C139 C 0.85864 0.83335 0.53779
 H140 H 0.82940 0.83385 0.57066
 Zn141 Zn 1.00013 0.74989 0.49970
 N142 N 0.93863 0.79563 0.49767
 C143 C 0.96157 0.70399 0.40066
 N144 N 1.00205 0.70389 0.43826
 C145 C 1.04333 0.66734 0.43579
 C146 C 1.04491 0.62869 0.39441
 C147 C 0.96157 0.66589 0.35857
 C148 C 1.06366 0.83256 0.54276
 C149 C 1.10511 0.87108 0.54457
 C150 C 1.14167 0.83343 0.46158
 C151 C 1.09948 0.79546 0.46133
 N152 N 1.06151 0.79585 0.50154
 H153 H 0.92840 0.73241 0.40413
 H154 H 1.07437 0.66753 0.46683
 H155 H 1.07735 0.59904 0.39341
 H156 H 0.92863 0.66532 0.32949
 H157 H 1.03235 0.83256 0.57359
 H158 H 1.10586 0.90086 0.57695
 H159 H 1.17107 0.83377 0.42885
 H160 H 1.09628 0.76687 0.42823
 C161 C 0.85596 0.87154 0.49581
 C162 C 0.99741 0.62849 0.64437
 C163 C 1.14419 0.87179 0.50340
 C164 C 1.00343 0.62767 0.35574
 C165 C 0.43608 -0.04406 0.33177
 H166 H 0.46712 -0.07510 0.33181
 C167 C 0.39455 -0.04557 0.37028
 H168 H 0.39346 -0.07793 0.40008
 C169 C 0.40107 0.03762 0.29466
 H170 H 0.40463 0.07073 0.26611
 C171 C 0.35883 0.03768 0.33261
 H172 H 0.32975 0.07063 0.33295
 N173 N 0.43868 -0.00285 0.29507
 C174 C 0.54309 -0.06553 0.16677
 H175 H 0.57431 -0.03464 0.16680
 C176 C 0.54441 -0.10699 0.12819
 H177 H 0.57691 -0.10810 0.09852
 C178 C 0.46114 -0.10017 0.20371
 H179 H 0.42801 -0.09646 0.23221
 C180 C 0.46084 -0.14235 0.16570
 H181 H 0.42765 -0.17122 0.16542
 Zn182 Zn 0.50021 -0.00117 0.24921
 N183 N 0.50185 -0.06276 0.20341
 C184 C 0.59959 -0.03932 0.29475
 N185 N 0.56161 0.00080 0.29510
 C186 C 0.56381 0.04211 0.33169
 C187 C 0.60531 0.04414 0.37011
 C188 C 0.64183 -0.03887 0.33262
 C189 C 0.45740 0.06303 0.16673
 C190 C 0.45584 0.10475 0.12845
 C191 C 0.53906 0.14046 0.16609
 C192 C 0.53905 0.09803 0.20382
 N193 N 0.49859 0.06036 0.20336
 H194 H 0.59637 -0.07250 0.26625
 H195 H 0.53250 0.07288 0.33167
 H196 H 0.60610 0.07661 0.39978
 H197 H 0.67125 -0.07153 0.33299
 H198 H 0.42637 0.03195 0.16664
 H199 H 0.42344 0.10595 0.09876
 H200 H 0.57195 0.16964 0.16585
 H201 H 0.57215 0.09442 0.23230
 C202 C 0.50266 -0.14549 0.12732
 C203 C 0.35587 -0.00410 0.37099
 C204 C 0.49724 0.14355 0.12786
 C205 C 0.64441 0.00307 0.37085
 C206 C 0.56429 -0.04330 0.66751
 H207 H 0.53320 -0.07433 0.66758
 C208 C 0.60583 -0.04497 0.62901
 H209 H 0.60688 -0.07745 0.59935
 C210 C 0.59940 0.03850 0.70430
 H211 H 0.59587 0.07170 0.73272
 C212 C 0.64165 0.03840 0.66635
 H213 H 0.67078 0.07134 0.66589
 N214 N 0.56172 -0.00196 0.70404
 C215 C 0.45701 -0.06414 0.83248
 H216 H 0.42590 -0.03317 0.83232
 C217 C 0.45549 -0.10553 0.87115
 H218 H 0.42303 -0.10659 0.90084
 C219 C 0.53888 -0.09909 0.79574
 H220 H 0.57206 -0.09555 0.76728
 C221 C 0.53894 -0.14118 0.83386
 H222 H 0.57195 -0.17019 0.83440
 Zn223 Zn 0.50013 -0.00011 0.74985
 N224 N 0.49831 -0.06157 0.79587
 C225 C 0.40078 -0.03846 0.70438
 N226 N 0.43875 0.00170 0.70391
 C227 C 0.43654 0.04293 0.66721
 C228 C 0.39502 0.04483 0.62881
 C229 C 0.35852 -0.03814 0.66653
 C230 C 0.54282 0.06439 0.83221
 C231 C 0.54412 0.10602 0.87060
 C232 C 0.46077 0.14133 0.83293
 C233 C 0.46104 0.09900 0.79510
 N234 N 0.50167 0.06155 0.79555
 H235 H 0.40401 -0.07157 0.73296
 H236 H 0.46784 0.07374 0.66715
 H237 H 0.39422 0.07723 0.59906
 H238 H 0.32911 -0.07083 0.66625
 H239 H 0.57397 0.03347 0.83230
 H240 H 0.57646 0.10731 0.90034
 H241 H 0.42771 0.17028 0.83322
 H242 H 0.42797 0.09524 0.76661
 C243 C 0.49706 -0.14411 0.87214
 C244 C 0.64458 -0.00353 0.62814
 C245 C 0.50250 0.14455 0.87125
 C246 C 0.35592 0.00372 0.62820
 C247 C 0.25007 0.00032 0.49970
 C248 C 0.75032 0.00020 0.49930
 C249 C 0.49948 0.25029 0.99995
 C250 C 0.49964 0.75041 0.00120
 C251 C 1.00091 0.49884 0.25010
 C252 C 0.00010 0.49991 0.75029
 C253 C 0.18426 0.08633 0.49710
 C254 C 0.21534 0.04855 0.49832
 C255 C 0.58552 0.68440 0.00195
 C256 C 0.54778 0.71553 0.00125
 C257 C 0.81629 -0.08569 0.49711
 C258 C 0.78519 -0.04793 0.49813
 C259 C 0.41356 0.31622 1.00119
 C260 C 0.45129 0.28508 1.00024
 C261 C 0.81634 0.08615 0.50120
 C262 C 0.78517 0.04840 0.50032
 C263 C 0.41375 0.68429 0.00088
 C264 C 0.45147 0.71550 0.00142
 C265 C 0.18393 -0.08547 0.50210
 C266 C 0.21511 -0.04776 0.50104
 C267 C 0.58524 0.31651 0.99948
 C268 C 0.54756 0.28526 1.00003
 C269 C 0.49859 0.18368 1.08546
 C270 C 0.49930 0.21515 1.04794
 C271 C -0.00098 0.58585 0.68424
 C272 C -0.00012 0.54813 0.71545
 C273 C 0.49852 0.81622 -0.08499
 C274 C 0.49932 0.78514 -0.04713
 C275 C 0.99967 0.41311 0.31651
 C276 C 1.00062 0.45072 0.28512
 C277 C 0.50104 0.81686 0.08686
 C278 C 0.50004 0.78549 0.04925
 C279 C 0.00135 0.41431 0.68380
 C280 C 0.00048 0.45185 0.71524
 C281 C 0.50078 0.18442 0.91388
 C282 C 0.49983 0.21559 0.95163
 C283 C 1.00203 0.58484 0.31606
 C284 C 1.00124 0.54705 0.28494
 C285 C 1.08662 0.49982 0.18365
 C286 C 1.04900 0.49892 0.21503
 C287 C 0.68434 -0.00208 0.58535
 C288 C 0.71549 -0.00098 0.54755
 C289 C -0.08588 0.50068 0.81630
 C290 C -0.04814 0.49991 0.78511
 C291 C 0.31613 -0.00246 0.41376
 C292 C 0.28496 -0.00115 0.45153
 C293 C 0.08562 0.49929 0.81674
 C294 C 0.04811 0.49990 0.78533
 C295 C 0.68422 0.00203 0.41350
 C296 C 0.71542 0.00122 0.45119
 C297 C 0.91491 0.49831 0.18427
 C298 C 0.95270 0.49884 0.21533
 C299 C 0.31610 0.00252 0.58556
 C300 C 0.28491 0.00156 0.54786
   
