data_POSCAR
  _audit_creation_date              2014-09-24
  _audit_creation_method            'ToBaCCo'
  _symmetry_space_group_name_H-M    'P1'
  _symmetry_Int_Tables_number       1
  _symmetry_cell_setting            triclinic
  loop_
  _symmetry_equiv_pos_as_xyz
 x,y,z
_cell_length_a 46.6303
_cell_length_b 46.8413
_cell_length_c 46.2063
_cell_angle_alpha 95.422800
_cell_angle_beta 94.433300
_cell_angle_gamma 95.372200
loop_
  _atom_site_label
  _atom_site_type_symbol
  _atom_site_fract_x
  _atom_site_fract_y
  _atom_site_fract_z
C1 C 0.70990 0.68047 0.96171
 H2 H 0.72924 0.67759 0.95078
 C3 C 0.68872 0.69584 0.94916
 H4 H 0.69232 0.70498 0.92892
 C5 C 0.68030 0.66927 0.99931
 H6 H 0.67653 0.65821 1.01832
 C7 C 0.65864 0.68450 0.98758
 H8 H 0.63880 0.68546 0.99820
 N9 N 0.70521 0.66710 0.98609
 C10 C 0.78310 0.64984 1.03538
 H11 H 0.77268 0.63260 1.04597
 C12 C 0.81173 0.65998 1.04441
 H13 H 0.82260 0.65103 1.06251
 C14 C 0.78211 0.68136 0.99824
 H15 H 0.77082 0.68921 0.97984
 C16 C 0.81087 0.69216 1.00660
 H17 H 0.82133 0.70820 0.99443
 Zn18 Zn 0.73162 0.64135 0.99927
 N19 N 0.76883 0.66046 1.01258
 C20 C 0.75984 0.59827 0.97095
 N21 N 0.73675 0.61376 0.96795
 C22 C 0.71970 0.61151 0.94240
 C23 C 0.72670 0.59441 0.91803
 C24 C 0.76751 0.58080 0.94721
 C25 C 0.71591 0.63970 1.05604
 C26 C 0.70628 0.62782 1.08050
 C27 C 0.69835 0.58133 1.05220
 C28 C 0.70844 0.59423 1.02829
 N29 N 0.71690 0.62293 1.03064
 H30 H 0.77304 0.60042 0.99148
 H31 H 0.70108 0.62353 0.94062
 H32 H 0.71336 0.59339 0.89764
 H33 H 0.78676 0.56969 0.94969
 H34 H 0.72262 0.66256 1.05724
 H35 H 0.70478 0.64278 1.09946
 H36 H 0.69309 0.55824 1.04930
 H37 H 0.70977 0.58121 1.00792
 C38 C 0.82618 0.68107 1.02969
 C39 C 0.66237 0.69743 0.96173
 C40 C 0.69714 0.59796 1.07933
 C41 C 0.75126 0.57928 0.92012
 C42 C 0.72735 0.34715 0.50155
 H43 H 0.74862 0.34930 0.51316
 C44 C 0.70504 0.32899 0.51062
 H45 H 0.70934 0.31733 0.52936
 C46 C 0.69557 0.36137 0.46427
 H47 H 0.69174 0.37453 0.44668
 C48 C 0.67267 0.34345 0.47256
 H49 H 0.65157 0.34261 0.46078
 N50 N 0.72224 0.36301 0.47888
 C51 C 0.80546 0.38857 0.44720
 H52 H 0.80461 0.41166 0.44856
 C53 C 0.82894 0.37645 0.43587
 H54 H 0.84632 0.39045 0.42886
 C55 C 0.78374 0.34241 0.45491
 H56 H 0.76585 0.32922 0.46193
 C57 C 0.80686 0.32936 0.44372
 H58 H 0.80648 0.30612 0.44216
 Zn59 Zn 0.75236 0.39015 0.47056
 N60 N 0.78358 0.37155 0.45661
 C61 C 0.79241 0.41495 0.51747
 N62 N 0.76453 0.41355 0.50589
 C63 C 0.74417 0.42610 0.52079
 C64 C 0.75143 0.44031 0.54875
 C65 C 0.80062 0.42903 0.54525
 C66 C 0.73275 0.39778 0.41385
 C67 C 0.72197 0.41194 0.39078
 C68 C 0.72460 0.45557 0.42368
 C69 C 0.73543 0.44054 0.44617
 N70 N 0.73881 0.41204 0.44097
 H71 H 0.80814 0.40418 0.50575
 H72 H 0.72204 0.42420 0.51130
 H73 H 0.73484 0.44976 0.56049
 H74 H 0.82267 0.42892 0.55447
 H75 H 0.73604 0.37520 0.41028
 H76 H 0.71723 0.40014 0.36938
 H77 H 0.72120 0.47803 0.42839
 H78 H 0.74073 0.45155 0.46781
 C79 C 0.82983 0.34645 0.43395
 C80 C 0.67713 0.32730 0.49631
 C81 C 0.71742 0.44116 0.39559
 C82 C 0.77992 0.44152 0.56149
 C83 C 0.23417 -0.14780 0.00228
 H84 H 0.25539 -0.14556 0.01401
 C85 C 0.21171 -0.16554 0.01160
 H86 H 0.21582 -0.17678 0.03068
 C87 C 0.20272 -0.13419 -0.03564
 H88 H 0.19910 -0.12143 -0.05360
 C89 C 0.17965 -0.15172 -0.02710
 H90 H 0.15861 -0.15269 -0.03903
 N91 N 0.22931 -0.13246 -0.02085
 C92 C 0.31349 -0.10911 -0.05156
 H93 H 0.31339 -0.08594 -0.05026
 C94 C 0.33672 -0.12205 -0.06251
 H95 H 0.35465 -0.10862 -0.06928
 C96 C 0.29011 -0.15468 -0.04419
 H97 H 0.27166 -0.16734 -0.03753
 C98 C 0.31293 -0.16853 -0.05500
 H99 H 0.31177 -0.19183 -0.05659
 Zn100 Zn 0.25986 -0.10598 -0.02943
 N101 N 0.29090 -0.12546 -0.04254
 C102 C 0.29937 -0.08100 0.01789
 N103 N 0.27178 -0.08207 0.00561
 C104 C 0.25130 -0.06885 0.01972
 C105 C 0.25812 -0.05433 0.04760
 C106 C 0.30714 -0.06663 0.04563
 C107 C 0.24052 -0.09921 -0.08644
 C108 C 0.23001 -0.08539 -0.10988
 C109 C 0.23410 -0.04103 -0.07804
 C110 C 0.24460 -0.05584 -0.05522
 N111 N 0.24701 -0.08452 -0.05967
 H112 H 0.31517 -0.09228 0.00678
 H113 H 0.22938 -0.07048 0.00970
 H114 H 0.24142 -0.04437 0.05872
 H115 H 0.32893 -0.06703 0.05544
 H116 H 0.24342 -0.12191 -0.08953
 H117 H 0.22637 -0.09821 -0.13074
 H118 H 0.23110 -0.01868 -0.07247
 H119 H 0.25027 -0.04445 -0.03380
 C120 C 0.33657 -0.15217 -0.06445
 C121 C 0.18389 -0.16737 -0.00292
 C122 C 0.22582 -0.05569 -0.10622
 C123 C 0.28628 -0.05348 0.06109
 C124 C 0.20507 0.18959 0.47264
 H125 H 0.22763 0.19684 0.47171
 C126 C 0.18377 0.20434 0.45924
 H127 H 0.19023 0.22286 0.44804
 C128 C 0.16924 0.15558 0.48664
 H129 H 0.16369 0.13609 0.49665
 C130 C 0.14736 0.16966 0.47369
 H131 H 0.12506 0.16121 0.47460
 N132 N 0.19746 0.16549 0.48568
 C133 C 0.27079 0.16383 0.54168
 H134 H 0.25694 0.15540 0.55717
 C135 C 0.29921 0.17465 0.55115
 H136 H 0.30655 0.17501 0.57401
 C137 C 0.27858 0.17256 0.49309
 H138 H 0.27074 0.17055 0.47026
 C139 C 0.30724 0.18346 0.50162
 H140 H 0.32115 0.19002 0.48522
 Zn141 Zn 0.22515 0.14152 0.49912
 N142 N 0.26112 0.16261 0.51299
 C143 C 0.25476 0.09911 0.47084
 N144 N 0.23246 0.11554 0.46735
 C145 C 0.21780 0.11606 0.44080
 C146 C 0.22606 0.10027 0.41620
 C147 C 0.26367 0.08292 0.44684
 C148 C 0.20008 0.13836 0.55158
 C149 C 0.18840 0.12575 0.57474
 C150 C 0.19716 0.07907 0.55213
 C151 C 0.20857 0.09263 0.52921
 N152 N 0.20999 0.12181 0.52947
 H153 H 0.26640 0.09957 0.49209
 H154 H 0.20029 0.12945 0.43843
 H155 H 0.21450 0.10132 0.39514
 H156 H 0.28221 0.07087 0.44985
 H157 H 0.20134 0.16150 0.55116
 H158 H 0.18100 0.13941 0.59229
 H159 H 0.19601 0.05583 0.55159
 H160 H 0.21623 0.07983 0.51125
 C161 C 0.31808 0.18394 0.53091
 C162 C 0.15447 0.19401 0.45917
 C163 C 0.18679 0.09572 0.57523
 C164 C 0.24958 0.08382 0.41898
 C165 C 0.18328 0.47185 0.21368
 H166 H 0.18183 0.46251 0.23412
 C167 C 0.19883 0.45918 0.19206
 H168 H 0.20932 0.44010 0.19611
 C169 C 0.16931 0.50659 0.18272
 H170 H 0.15713 0.52452 0.17874
 C171 C 0.18466 0.49471 0.16062
 H172 H 0.18461 0.50418 0.14012
 N173 N 0.16859 0.49486 0.20852
 C174 C 0.14546 0.53805 0.28978
 H175 H 0.12319 0.54006 0.28252
 C176 C 0.15611 0.54825 0.31820
 H177 H 0.14202 0.55866 0.33251
 C178 C 0.19052 0.52141 0.27986
 H179 H 0.20360 0.51045 0.26494
 C180 C 0.20212 0.53134 0.30830
 H181 H 0.22415 0.52784 0.31510
 Zn182 Zn 0.14288 0.50725 0.23579
 N183 N 0.16241 0.52434 0.27150
 C184 C 0.12125 0.46635 0.27124
 N185 N 0.11936 0.47401 0.24353
 C186 C 0.10367 0.45667 0.22144
 C187 C 0.08921 0.43038 0.22690
 C188 C 0.10738 0.44037 0.27758
 C189 C 0.13619 0.56146 0.21914
 C190 C 0.12252 0.58402 0.20853
 C191 C 0.07770 0.55287 0.20119
 C192 C 0.09227 0.53082 0.21218
 N193 N 0.12109 0.53545 0.22058
 H194 H 0.13425 0.47989 0.28849
 H195 H 0.10305 0.46288 0.19946
 H196 H 0.07722 0.41652 0.20907
 H197 H 0.10927 0.43475 0.29981
 H198 H 0.15905 0.56457 0.22612
 H199 H 0.13517 0.60434 0.20701
 H200 H 0.05480 0.54892 0.19448
 H201 H 0.08059 0.51011 0.21390
 C202 C 0.18454 0.54430 0.32807
 C203 C 0.19911 0.47026 0.16485
 C204 C 0.09291 0.57992 0.19932
 C205 C 0.09144 0.42180 0.25525
 C206 C -0.14439 0.00558 0.23167
 H207 H -0.14160 0.01531 0.25403
 C208 C -0.16253 0.01684 0.21120
 H209 H -0.17438 0.03437 0.21893
 C210 C -0.13241 -0.02965 0.19572
 H211 H -0.11985 -0.04715 0.18959
 C212 C -0.15027 -0.01904 0.17442
 H213 H -0.15046 -0.02877 0.15224
 N214 N -0.12962 -0.01708 0.22365
 C215 C -0.10299 -0.04939 0.30588
 H216 H -0.07992 -0.04859 0.30423
 C217 C -0.11487 -0.05944 0.33026
 H218 H -0.10069 -0.06602 0.34753
 C219 C -0.14938 -0.04149 0.28531
 H220 H -0.16281 -0.03498 0.26750
 C221 C -0.16218 -0.05142 0.30932
 H222 H -0.18544 -0.05246 0.30970
 Zn223 Zn -0.10211 -0.02749 0.25190
 N224 N -0.12023 -0.04038 0.28419
 C225 C -0.07471 0.01874 0.29156
 N226 N -0.07676 0.00631 0.26357
 C227 C -0.06411 0.01983 0.24232
 C228 C -0.04945 0.04738 0.24868
 C229 C -0.06019 0.04621 0.29889
 C230 C -0.09851 -0.08368 0.22837
 C231 C -0.08580 -0.10735 0.21640
 C232 C -0.03999 -0.07786 0.22083
 C233 C -0.05362 -0.05470 0.23277
 N234 N -0.08246 -0.05794 0.23593
 H235 H -0.08562 0.00813 0.30798
 H236 H -0.06658 0.00971 0.22011
 H237 H -0.04017 0.05812 0.23132
 H238 H -0.06007 0.05627 0.32099
 H239 H -0.12133 -0.08574 0.23157
 H240 H -0.09898 -0.12768 0.21063
 H241 H -0.01715 -0.07473 0.21783
 H242 H -0.04117 -0.03417 0.23936
 C243 C -0.14485 -0.06055 0.33221
 C244 C -0.16531 0.00514 0.18165
 C245 C -0.05619 -0.10459 0.21227
 C246 C -0.04793 0.06120 0.27717
 C247 C 0.35762 0.50393 0.73149
 H248 H 0.36073 0.51360 0.75386
 C249 C 0.34031 0.51607 0.71100
 H250 H 0.32966 0.53481 0.71793
 C251 C 0.36846 0.46814 0.69531
 H252 H 0.38017 0.45000 0.68914
 C253 C 0.35139 0.47968 0.67403
 H254 H 0.35013 0.47021 0.65161
 N255 N 0.37139 0.48052 0.72336
 C256 C 0.39465 0.44644 0.80541
 H257 H 0.41773 0.44640 0.80425
 C258 C 0.38178 0.43655 0.82933
 H259 H 0.39519 0.42920 0.84675
 C260 C 0.34926 0.45642 0.78410
 H261 H 0.33659 0.46372 0.76619
 C262 C 0.33547 0.44671 0.80765
 H263 H 0.31224 0.44662 0.80759
 Zn264 Zn 0.39778 0.46885 0.75187
 N265 N 0.37838 0.45635 0.78355
 C266 C 0.42557 0.51412 0.79240
 N267 N 0.42401 0.50185 0.76437
 C268 C 0.43764 0.51522 0.74360
 C269 C 0.45277 0.54251 0.75047
 C270 C 0.44051 0.54132 0.80022
 C271 C 0.39972 0.41249 0.72785
 C272 C 0.41176 0.38838 0.71588
 C273 C 0.45846 0.41634 0.72139
 C274 C 0.44549 0.43996 0.73332
 N275 N 0.41654 0.43770 0.73596
 H276 H 0.41390 0.50365 0.80841
 H277 H 0.43555 0.50525 0.72134
 H278 H 0.46279 0.55317 0.73347
 H279 H 0.44018 0.55130 0.82229
 H280 H 0.37682 0.41120 0.73063
 H281 H 0.39796 0.36850 0.70965
 H282 H 0.48141 0.41872 0.71880
 H283 H 0.45853 0.46009 0.74031
 C284 C 0.35179 0.43658 0.83065
 C285 C 0.33745 0.50428 0.68170
 C286 C 0.44149 0.39014 0.71232
 C287 C 0.45373 0.55622 0.77897
 C288 C 0.68350 0.96849 0.71387
 H289 H 0.68217 0.95930 0.73441
 C290 C 0.69948 0.95605 0.69249
 H291 H 0.71045 0.93734 0.69684
 C292 C 0.66879 1.00253 0.68243
 H293 H 0.65617 1.02008 0.67816
 C294 C 0.68451 0.99084 0.66053
 H295 H 0.68429 1.00009 0.63991
 N296 N 0.66821 0.99101 0.70835
 C297 C 0.64325 1.03434 0.78873
 H298 H 0.62107 1.03613 0.78094
 C299 C 0.65334 1.04516 0.81714
 H300 H 0.63870 1.05634 0.83007
 C301 C 0.68870 1.01829 0.77997
 H302 H 0.70216 1.00723 0.76552
 C303 C 0.69981 1.02884 0.80840
 H304 H 0.72171 1.02499 0.81513
 Zn305 Zn 0.64186 1.00288 0.73520
 N306 N 0.66065 1.02062 0.77103
 C307 C 0.62075 0.96182 0.77078
 N308 N 0.61901 0.96919 0.74296
 C309 C 0.60400 0.95132 0.72082
 C310 C 0.59018 0.92475 0.72636
 C311 C 0.60752 0.93557 0.77719
 C312 C 0.63392 1.05668 0.71797
 C313 C 0.61967 1.07882 0.70720
 C314 C 0.57554 1.04662 0.69978
 C315 C 0.59068 1.02503 0.71094
 N316 N 0.61943 1.03037 0.71948
 H317 H 0.63316 0.97584 0.78808
 H318 H 0.60347 0.95734 0.69877
 H319 H 0.57875 0.91048 0.70850
 H320 H 0.60930 0.93018 0.79950
 H321 H 0.65674 1.06037 0.72507
 H322 H 0.63183 1.09941 0.70569
 H323 H 0.55268 1.04212 0.69301
 H324 H 0.57948 1.00410 0.71275
 C325 C 0.68184 1.04186 0.82804
 C326 C 0.69954 0.96682 0.66511
 C327 C 0.59010 1.07397 0.69788
 C328 C 0.59236 0.91644 0.75482
 C329 C 0.01051 0.23443 -0.13607
 H330 H 0.02125 0.25610 -0.13420
 C331 C 0.02168 0.21226 -0.15254
 H332 H 0.04077 0.21716 -0.16381
 C333 C -0.02704 0.20173 -0.12291
 H334 H -0.04549 0.19757 -0.11061
 C335 C -0.01656 0.17886 -0.13915
 H336 H -0.02718 0.15728 -0.13923
 N337 N -0.01332 0.22883 -0.12157
 C338 C -0.04511 0.31248 -0.10236
 H339 H -0.04548 0.31300 -0.07894
 C340 C -0.05443 0.33528 -0.11673
 H341 H -0.06221 0.35323 -0.10419
 C342 C -0.03545 0.28781 -0.14719
 H343 H -0.02839 0.26911 -0.15903
 C344 C -0.04467 0.31013 -0.16247
 H345 H -0.04413 0.30858 -0.18594
 Zn346 Zn -0.02392 0.25941 -0.09632
 N347 N -0.03559 0.28951 -0.11765
 C348 C 0.02216 0.29981 -0.07038
 N349 N 0.00949 0.27239 -0.07084
 C350 C 0.02261 0.25242 -0.05649
 C351 C 0.05002 0.25948 -0.04169
 C352 C 0.04946 0.30780 -0.05576
 C353 C -0.08096 0.23867 -0.09222
 C354 C -0.10525 0.22794 -0.07936
 C355 C -0.07682 0.23408 -0.03288
 C356 C -0.05307 0.24473 -0.04679
 N357 N -0.05543 0.24631 -0.07602
 H358 H 0.01189 0.31515 -0.08261
 H359 H 0.01234 0.23060 -0.05773
 H360 H 0.06047 0.24309 -0.03105
 H361 H 0.05973 0.32934 -0.05687
 H362 H -0.08240 0.24086 -0.11538
 H363 H -0.12506 0.22338 -0.09342
 H364 H -0.07292 0.23181 -0.00993
 H365 H -0.03259 0.25120 -0.03423
 C366 C -0.05425 0.33430 -0.14719
 C367 C 0.00840 0.18393 -0.15385
 C368 C -0.10378 0.22478 -0.04907
 C369 C 0.06407 0.28733 -0.04175
 C370 C 0.46496 0.21670 0.19036
 H371 H 0.45543 0.23668 0.18914
 C372 C 0.45234 0.19585 0.20647
 H373 H 0.43389 0.20057 0.21829
 C374 C 0.49882 0.18523 0.17470
 H375 H 0.51612 0.18047 0.16140
 C376 C 0.48692 0.16382 0.19057
 H377 H 0.49544 0.14306 0.18929
 N378 N 0.48758 0.21100 0.17448
 C379 C 0.54075 0.28675 0.16001
 H380 H 0.55367 0.27493 0.14568
 C381 C 0.55038 0.31528 0.17018
 H382 H 0.57103 0.32456 0.16435
 C383 C 0.49757 0.28996 0.18335
 H384 H 0.47644 0.28063 0.18738
 C385 C 0.50648 0.31858 0.19415
 H386 H 0.49221 0.33071 0.20675
 Zn387 Zn 0.50059 0.23724 0.14781
 N388 N 0.51472 0.27454 0.16666
 C389 C 0.47204 0.26532 0.10528
 N390 N 0.46903 0.24255 0.12134
 C391 C 0.44331 0.22607 0.12071
 C392 C 0.41889 0.23324 0.10460
 C393 C 0.44825 0.27313 0.08872
 C394 C 0.55549 0.21857 0.14379
 C395 C 0.57884 0.20828 0.13049
 C396 C 0.55058 0.20431 0.08394
 C397 C 0.52772 0.21491 0.09818
 N398 N 0.53064 0.22190 0.12759
 H399 H 0.49269 0.27818 0.10637
 H400 H 0.44145 0.20782 0.13333
 H401 H 0.39840 0.22037 0.10487
 H402 H 0.45077 0.29208 0.07707
 H403 H 0.55718 0.22415 0.16716
 H404 H 0.59833 0.20564 0.14387
 H405 H 0.54807 0.19907 0.06049
 H406 H 0.50773 0.21764 0.08573
 C407 C 0.53303 0.33169 0.18720
 C408 C 0.46295 0.16878 0.20624
 C409 C 0.57664 0.20111 0.10016
 C410 C 0.42110 0.25739 0.08881
 C411 C 0.96167 0.71120 0.68780
 H412 H 0.95178 0.73086 0.68520
 C413 C 0.94779 0.68983 0.70246
 H414 H 0.92773 0.69366 0.71179
 C415 C 0.99875 0.68155 0.67727
 H416 H 1.01805 0.67784 0.66663
 C417 C 0.98568 0.65970 0.69181
 H418 H 0.99525 0.63953 0.69217
 N419 N 0.98663 0.70670 0.67540
 C420 C 1.04205 0.78324 0.66505
 H421 H 1.05279 0.77342 0.64736
 C422 C 1.05228 0.81099 0.67733
 H423 H 1.07099 0.82191 0.66909
 C424 C 1.00307 0.78218 0.69500
 H425 H 0.98351 0.77121 0.70134
 C426 C 1.01256 0.81003 0.70788
 H427 H 1.00042 0.81999 0.72444
 Zn428 Zn 1.00215 0.73432 0.65160
 N429 N 1.01772 0.76942 0.67380
 C430 C 0.97274 0.77049 0.61773
 N431 N 0.97192 0.74312 0.62533
 C432 C 0.94885 0.72340 0.61654
 C433 C 0.92492 0.73127 0.60009
 C434 C 0.94941 0.77922 0.60129
 C435 C 1.05679 0.71545 0.64699
 C436 C 1.08015 0.70563 0.63334
 C437 C 1.05197 0.70319 0.58687
 C438 C 1.02910 0.71330 0.60146
 N439 N 1.03195 0.71920 0.63100
 H440 H 0.99121 0.78585 0.62509
 H441 H 0.94871 0.70176 0.62291
 H442 H 0.90657 0.71546 0.59350
 H443 H 0.95015 0.80140 0.59633
 H444 H 1.05850 0.72042 0.67044
 H445 H 1.09963 0.70261 0.64654
 H446 H 1.04952 0.69880 0.56333
 H447 H 1.00918 0.71658 0.58919
 C448 C 1.03724 0.82497 0.69871
 C449 C 0.95964 0.66351 0.70431
 C450 C 1.07801 0.69951 0.60288
 C451 C 0.92492 0.75963 0.59256
 C452 C 0.51108 0.73959 0.36119
 H453 H 0.52171 0.76132 0.36333
 C454 C 0.52212 0.71778 0.34405
 H455 H 0.54100 0.72302 0.33258
 C456 C 0.47399 0.70634 0.37429
 H457 H 0.45576 0.70181 0.38679
 C458 C 0.48432 0.68384 0.35738
 H459 H 0.47385 0.66217 0.35705
 N460 N 0.48753 0.73353 0.37597
 C461 C 0.45321 0.81543 0.39725
 H462 H 0.45247 0.81502 0.42056
 C463 C 0.44328 0.83841 0.38367
 H464 H 0.43424 0.85485 0.39712
 C465 C 0.46416 0.79284 0.35205
 H466 H 0.47221 0.77495 0.33978
 C467 C 0.45434 0.81533 0.33747
 H468 H 0.45620 0.81442 0.31423
 Zn469 Zn 0.47680 0.76344 0.40200
 N470 N 0.46379 0.79349 0.38147
 C471 C 0.52114 0.80522 0.42868
 N472 N 0.51041 0.77706 0.42695
 C473 C 0.52570 0.75725 0.43922
 C474 C 0.55361 0.76526 0.45259
 C475 C 0.54875 0.81420 0.44208
 C476 C 0.42019 0.74231 0.40694
 C477 C 0.39631 0.73109 0.42009
 C478 C 0.42600 0.73509 0.46583
 C479 C 0.44938 0.74638 0.45176
 N480 N 0.44612 0.74931 0.42272
 H481 H 0.50901 0.82060 0.41841
 H482 H 0.51691 0.73487 0.43702
 H483 H 0.56609 0.74884 0.46062
 H484 H 0.55711 0.83661 0.44258
 H485 H 0.41818 0.74524 0.38395
 H486 H 0.37587 0.72566 0.40707
 H487 H 0.42914 0.73208 0.48875
 H488 H 0.47016 0.75238 0.46391
 C489 C 0.44379 0.83895 0.35318
 C490 C 0.50897 0.68936 0.34234
 C491 C 0.39909 0.72696 0.44984
 C492 C 0.56581 0.79392 0.45330
 C493 C 0.37250 -0.02654 0.27688
 C494 C 0.35634 -0.03469 0.24669
 C495 C 0.34182 -0.01311 0.23673
 C496 C 0.34461 0.01462 0.25791
 C497 C 0.39214 0.00101 0.27388
 C498 C 0.37745 0.02252 0.26391
 C499 C 0.34964 -0.01692 0.29662
 C500 C 0.33511 0.00462 0.28680
 H501 H 0.35798 -0.05486 0.23351
 H502 H 0.33258 0.03210 0.24985
 H503 H 0.41554 0.00289 0.27799
 H504 H 0.34666 -0.02497 0.31761
 C505 C 0.08975 1.04990 0.76407
 C506 C 0.10224 1.05872 0.73625
 C507 C 0.11874 1.03919 0.72400
 C508 C 0.12141 1.01252 0.74070
 C509 C 0.07324 1.02001 0.75545
 C510 C 0.08997 1.00047 0.74328
 C511 C 0.11589 1.04445 0.78425
 C512 C 0.13237 1.02476 0.77208
 H513 H 0.09815 1.07853 0.72688
 H514 H 0.13499 0.99670 0.73062
 H515 H 0.05102 1.01440 0.76000
 H516 H 0.11905 1.05271 0.80718
 C517 C 0.58966 0.55471 0.26055
 C518 C 0.60505 0.56382 0.23436
 C519 C 0.62146 0.54372 0.22299
 C520 C 0.62111 0.51626 0.23883
 C521 C 0.57224 0.52569 0.24977
 C522 C 0.58887 0.50560 0.23846
 C523 C 0.61364 0.54733 0.28235
 C524 C 0.63001 0.52710 0.27102
 H525 H 0.60290 0.58421 0.22538
 H526 H 0.63460 0.49996 0.22946
 H527 H 0.54932 0.52108 0.25210
 H528 H 0.61544 0.55497 0.30544
 C529 C 0.87140 0.46779 0.77579
 C530 C 0.85468 0.45945 0.74590
 C531 C 0.83959 0.48081 0.73630
 C532 C 0.84239 0.50850 0.75752
 C533 C 0.89048 0.49561 0.77239
 C534 C 0.87519 0.51688 0.76279
 C535 C 0.84884 0.47704 0.79610
 C536 C 0.83371 0.49833 0.78662
 H537 H 0.85629 0.43932 0.73263
 H538 H 0.82986 0.52578 0.74976
 H539 H 0.91394 0.49776 0.77578
 H540 H 0.84650 0.46894 0.81717
 C541 C 0.27834 0.37173 -0.02568
 C542 C 0.24852 0.35468 -0.03217
 C543 C 0.23905 0.34181 -0.00888
 C544 C 0.26036 0.34693 0.01869
 C545 C 0.27541 0.39305 0.00103
 C546 C 0.26591 0.37997 0.02423
 C547 C 0.29825 0.35027 -0.01466
 C548 C 0.28895 0.33734 0.00853
 H549 H 0.23508 0.35485 -0.05244
 H550 H 0.25279 0.33620 0.03756
 H551 H 0.27827 0.41632 0.00081
 H552 H 0.31885 0.34689 -0.02329
 C553 C 0.75515 0.09163 1.05283
 C554 C 0.72890 0.10623 1.06227
 C555 C 0.71879 0.12385 1.04288
 C556 C 0.73581 0.12537 1.01575
 C557 C 0.74555 0.07596 1.02243
 C558 C 0.73548 0.09377 1.00307
 C559 C 0.77747 0.11630 1.04745
 C560 C 0.76740 0.13386 1.02794
 H561 H 0.71905 0.10279 1.08239
 H562 H 0.72747 0.13983 1.00004
 H563 H 0.74737 0.05324 1.01655
 H564 H 0.80006 0.11784 1.05581
 C565 C 0.25770 0.59341 0.55387
 C566 C 0.23137 0.60777 0.56344
 C567 C 0.22104 0.62532 0.54408
 C568 C 0.23798 0.62704 0.51691
 C569 C 0.24813 0.57774 0.52349
 C570 C 0.23787 0.59550 0.50417
 C571 C 0.27982 0.61823 0.54849
 C572 C 0.26955 0.63574 0.52903
 H573 H 0.22163 0.60423 0.58359
 H574 H 0.22948 0.64147 0.50125
 H575 H 0.25018 0.55507 0.51754
 H576 H 0.30248 0.61978 0.55661
 C577 C 0.78326 0.87174 0.47546
 C578 C 0.75346 0.85510 0.46751
 C579 C 0.74285 0.84157 0.48989
 C580 C 0.76322 0.84562 0.51815
 C581 C 0.77959 0.89233 0.50252
 C582 C 0.76903 0.87855 0.52486
 C583 C 0.80248 0.84970 0.48642
 C584 C 0.79213 0.83608 0.50876
 H585 H 0.74064 0.85642 0.44709
 H586 H 0.75475 0.83427 0.53627
 H587 H 0.78281 0.91566 0.50311
 H588 H 0.82356 0.84675 0.47873
 C589 C -0.02977 0.27602 0.36061
 C590 C -0.03697 0.24623 0.34355
 C591 C -0.01423 0.23644 0.33007
 C592 C 0.01354 0.25743 0.33464
 C593 C -0.00339 0.27292 0.38171
 C594 C 0.01926 0.26311 0.36801
 C595 C -0.01842 0.29564 0.33855
 C596 C 0.00424 0.28600 0.32500
 H597 H -0.05728 0.23300 0.34426
 H598 H 0.03196 0.24958 0.32338
 H599 H -0.00348 0.27586 0.40531
 H600 H -0.02614 0.31645 0.33557
 C601 C 1.05056 0.75250 0.08130
 C602 C 1.05926 0.72723 0.09753
 C603 C 1.03901 0.71742 0.11494
 C604 C 1.01189 0.73378 0.11467
 C605 C 1.02117 0.74180 0.06463
 C606 C 1.00096 0.73208 0.08223
 C607 C 1.04383 0.77537 0.10510
 C608 C 1.02350 0.76561 0.12246
 H609 H 1.07950 0.71781 0.09532
 H610 H 0.99551 0.72571 0.12899
 H611 H 1.01644 0.74297 0.04140
 H612 H 1.05209 0.79797 0.10613
 C613 C 0.54447 0.24561 0.58015
 C614 C 0.55308 0.21990 0.59571
 C615 C 0.53311 0.21011 0.61340
 C616 C 0.50630 0.22691 0.61405
 C617 C 0.51470 0.23560 0.56396
 C618 C 0.49475 0.22588 0.58184
 C619 C 0.53855 0.26829 0.60451
 C620 C 0.51845 0.25857 0.62215
 H621 H 0.57318 0.21033 0.59303
 H622 H 0.49014 0.21883 0.62858
 H623 H 0.50945 0.23756 0.54096
 H624 H 0.54698 0.29084 0.60564
 C625 C 0.47394 0.77183 0.86216
 C626 C 0.46656 0.74160 0.84608
 C627 C 0.48916 0.73131 0.83274
 C628 C 0.51698 0.75224 0.83645
 C629 C 0.50049 0.76936 0.88325
 C630 C 0.52299 0.75905 0.86971
 C631 C 0.48510 0.79058 0.83929
 C632 C 0.50762 0.78044 0.82588
 H633 H 0.44616 0.72864 0.84713
 H634 H 0.53527 0.74395 0.82531
 H635 H 0.50071 0.77338 0.90682
 H636 H 0.47750 0.81133 0.83579
 C637 C 0.41216 -0.09178 0.31136
 C638 C 0.42277 -0.08758 0.34067
 C639 C 0.43350 -0.11019 0.35434
 C640 C 0.43380 -0.13775 0.33894
 C641 C 0.42349 -0.14133 0.30904
 C642 C 0.41273 -0.11859 0.29551
 C643 C 0.39927 -0.06895 0.29816
 C644 C 0.38768 -0.04978 0.28802
 H645 H 0.42257 -0.06680 0.35311
 H646 H 0.44225 -0.10548 0.37682
 H647 H 0.42220 -0.16196 0.29614
 H648 H 0.40423 -0.12214 0.27282
 C649 C 0.91285 0.40301 0.80919
 C650 C 0.93091 0.40923 0.83507
 C651 C 0.94210 0.38693 0.84896
 C652 C 0.93530 0.35807 0.83713
 C653 C 0.91765 0.35208 0.81074
 C654 C 0.90644 0.37444 0.79691
 C655 C 0.89936 0.42576 0.79641
 C656 C 0.88724 0.44479 0.78658
 H657 H 0.93592 0.43128 0.84481
 H658 H 0.95594 0.39224 0.86903
 H659 H 0.91176 0.33007 0.80129
 H660 H 0.89227 0.36938 0.77700
 C661 C 0.04668 1.11352 0.80298
 C662 C 0.06412 1.13621 0.81936
 C663 C 0.05164 1.15911 0.83323
 C664 C 0.02145 1.15970 0.83088
 C665 C 0.00402 1.13675 0.81439
 C666 C 0.01660 1.11379 0.80048
 C667 C 0.06006 1.09021 0.78883
 C668 C 0.07267 1.07148 0.77741
 H669 H 0.08743 1.13615 0.82150
 H670 H 0.06562 1.17614 0.84622
 H671 H -0.01926 1.13671 0.81203
 H672 H 0.00292 1.09634 0.78778
 C673 C 0.54691 0.61937 0.29798
 C674 C 0.56447 0.64209 0.31419
 C675 C 0.55210 0.66493 0.32831
 C676 C 0.52190 0.66543 0.32640
 C677 C 0.50436 0.64254 0.30993
 C678 C 0.51683 0.61964 0.29576
 C679 C 0.56016 0.59584 0.28407
 C680 C 0.57268 0.57682 0.27309
 H681 H 0.58777 0.64200 0.31614
 H682 H 0.56617 0.68191 0.34125
 H683 H 0.48106 0.64244 0.30789
 H684 H 0.50305 0.60215 0.28322
 C685 C 0.55942 0.42135 0.21354
 C686 C 0.54694 0.40398 0.23322
 C687 C 0.53819 0.37480 0.22469
 C688 C 0.54202 0.36265 0.19640
 C689 C 0.55440 0.38037 0.17675
 C690 C 0.56303 0.40950 0.18529
 C691 C 0.56912 0.45118 0.22240
 C692 C 0.57779 0.47607 0.22968
 H693 H 0.54415 0.41293 0.25519
 H694 H 0.52888 0.36162 0.24031
 H695 H 0.55711 0.37175 0.15466
 H696 H 0.57258 0.42278 0.16986
 C697 C 0.06337 0.91463 0.72522
 C698 C 0.08421 0.89514 0.72235
 C699 C 0.07573 0.86582 0.71466
 C700 C 0.04624 0.85559 0.70968
 C701 C 0.02544 0.87525 0.71342
 C702 C 0.03398 0.90458 0.72112
 C703 C 0.07226 0.94496 0.73163
 C704 C 0.08008 0.97031 0.73685
 H705 H 0.10702 0.90268 0.72566
 H706 H 0.09224 0.85118 0.71236
 H707 H 0.00259 0.86814 0.70942
 H708 H 0.01768 0.91949 0.72333
 C709 C 0.91530 0.59129 0.73886
 C710 C 0.94520 0.59761 0.74499
 C711 C 0.95956 0.62153 0.73443
 C712 C 0.94417 0.63947 0.71753
 C713 C 0.91400 0.63329 0.71203
 C714 C 0.89969 0.60934 0.72260
 C715 C 0.90090 0.56553 0.74800
 C716 C 0.88908 0.54356 0.75505
 H717 H 0.95750 0.58378 0.75754
 H718 H 0.98274 0.62589 0.73928
 H719 H 0.90160 0.64639 0.69872
 H720 H 0.87656 0.60456 0.71757
 C721 C 0.41883 0.09689 0.24139
 C722 C 0.40302 0.11661 0.22780
 C723 C 0.41736 0.14053 0.21724
 C724 C 0.44777 0.14500 0.22006
 C725 C 0.46344 0.12543 0.23442
 C726 C 0.44904 0.10153 0.24500
 C727 C 0.40416 0.07110 0.25016
 C728 C 0.39193 0.04914 0.25676
 H729 H 0.37964 0.11313 0.22473
 H730 H 0.40469 0.15491 0.20587
 H731 H 0.48683 0.12844 0.23716
 H732 H 0.46149 0.08637 0.25546
 C733 C 0.31158 0.40536 -0.09628
 C734 C 0.33344 0.39100 -0.10851
 C735 C 0.34639 0.40107 -0.13235
 C736 C 0.33765 0.42574 -0.14428
 C737 C 0.31549 0.43994 -0.13197
 C738 C 0.30255 0.42980 -0.10808
 C739 C 0.29880 0.39484 -0.07151
 C740 C 0.28900 0.38504 -0.05076
 H741 H 0.34052 0.37199 -0.09960
 H742 H 0.36304 0.38940 -0.14163
 H743 H 0.30853 0.45915 -0.14051
 H744 H 0.28565 0.44108 -0.09872
 C745 C 0.81747 0.90739 0.40629
 C746 C 0.83992 0.89400 0.39402
 C747 C 0.85215 0.90444 0.36996
 C748 C 0.84206 0.92843 0.35778
 C749 C 0.81940 0.94171 0.37021
 C750 C 0.80721 0.93125 0.39435
 C751 C 0.80488 0.89617 0.43084
 C752 C 0.79483 0.88578 0.45118
 H753 H 0.84788 0.87539 0.40298
 H754 H 0.86923 0.89346 0.36062
 H755 H 0.81137 0.96038 0.36149
 H756 H 0.78983 0.94175 0.40370
 C757 C 0.78949 0.04510 1.11550
 C758 C 0.79346 0.01589 1.11094
 C759 C 0.80776 0.00246 1.13285
 C760 C 0.81853 0.01808 1.15988
 C761 C 0.81364 0.04751 1.16409
 C762 C 0.79934 0.06074 1.14217
 C763 C 0.77649 0.05970 1.09262
 C764 C 0.76641 0.07334 1.07419
 H765 H 0.78570 0.00351 1.09037
 H766 H 0.80964 -0.02034 1.12851
 H767 H 0.82214 0.06118 1.18359
 H768 H 0.79662 0.08349 1.14582
 C769 C 0.29328 0.54663 0.61557
 C770 C 0.29023 0.51650 0.61407
 C771 C 0.30432 0.50257 0.63572
 C772 C 0.32158 0.51870 0.65910
 C773 C 0.32436 0.54896 0.66035
 C774 C 0.31029 0.56278 0.63877
 C775 C 0.27971 0.56138 0.59318
 C776 C 0.26925 0.57511 0.57505
 H777 H 0.27712 0.50380 0.59615
 H778 H 0.30163 0.47925 0.63427
 H779 H 0.33796 0.56199 0.67769
 H780 H 0.31295 0.58611 0.64001
 C781 C 0.21369 0.56905 0.41827
 C782 C 0.23239 0.57424 0.39660
 C783 C 0.22315 0.56595 0.36718
 C784 C 0.19503 0.55252 0.35917
 C785 C 0.17661 0.54708 0.38120
 C786 C 0.18588 0.55532 0.41050
 C787 C 0.22266 0.57819 0.44849
 C788 C 0.22967 0.58595 0.47387
 H789 H 0.25398 0.58490 0.40240
 H790 H 0.23774 0.57055 0.35071
 H791 H 0.15504 0.53627 0.37579
 H792 H 0.17127 0.55109 0.42708
 C793 C 0.71047 0.06763 0.91724
 C794 C 0.68108 0.06098 0.90867
 C795 C 0.67171 0.05259 0.87943
 C796 C 0.69160 0.05064 0.85781
 C797 C 0.72134 0.05730 0.86703
 C798 C 0.73059 0.06578 0.89640
 C799 C 0.71974 0.07655 0.94745
 C800 C 0.72701 0.08421 0.97281
 H801 H 0.66531 0.06206 0.92468
 H802 H 0.64882 0.04651 0.87434
 H803 H 0.73767 0.05714 0.85165
 H804 H 0.75345 0.07110 0.90281
 C805 C 0.73814 0.92236 0.59458
 C806 C 0.71179 0.93381 0.58947
 C807 C 0.69948 0.94845 0.61236
 C808 C 0.71337 0.95195 0.64080
 C809 C 0.73991 0.94038 0.64577
 C810 C 0.75222 0.92569 0.62276
 C811 C 0.75019 0.90689 0.57076
 C812 C 0.75929 0.89397 0.55015
 H813 H 0.70059 0.93119 0.56780
 H814 H 0.67874 0.95649 0.60788
 H815 H 0.75119 0.94284 0.66737
 H816 H 0.77262 0.91687 0.62697
 C817 C 0.23668 0.42539 0.09390
 C818 C 0.25086 0.42837 0.12203
 C819 C 0.23890 0.44324 0.14516
 C820 C 0.21263 0.45533 0.14036
 C821 C 0.19870 0.45230 0.11195
 C822 C 0.21065 0.43746 0.08894
 C823 C 0.24820 0.40945 0.07004
 C824 C 0.25682 0.39605 0.04946
 H825 H 0.27102 0.41909 0.12611
 H826 H 0.25022 0.44538 0.16673
 H827 H 0.17818 0.46081 0.10760
 H828 H 0.19939 0.43513 0.06730
 C829 C -0.09863 0.30858 0.39782
 C830 C -0.11044 0.33132 0.38518
 C831 C -0.13376 0.34353 0.39686
 C832 C -0.14562 0.33314 0.42141
 C833 C -0.13373 0.31011 0.43386
 C834 C -0.11034 0.29794 0.42213
 C835 C -0.07446 0.29640 0.38567
 C836 C -0.05424 0.28683 0.37480
 H837 H -0.10162 0.33963 0.36626
 H838 H -0.14272 0.36090 0.38649
 H839 H -0.14221 0.30184 0.45293
 H840 H -0.10132 0.28035 0.43209
 C841 C 0.40638 0.80692 0.89938
 C842 C 0.39429 0.79683 0.92376
 C843 C 0.37155 0.81010 0.93559
 C844 C 0.36066 0.83360 0.92312
 C845 C 0.37291 0.84345 0.89855
 C846 C 0.39563 0.83022 0.88682
 C847 C 0.42993 0.79367 0.88716
 C848 C 0.44975 0.78333 0.87626
 H849 H 0.40249 0.77882 0.93366
 H850 H 0.36276 0.80224 0.95470
 H851 H 0.36468 0.86117 0.88817
 H852 H 0.40480 0.83814 0.86789
 C853 C 1.11345 0.78684 0.03355
 C854 C 1.10966 0.81286 0.02192
 C855 C 1.13233 0.82733 0.00932
 C856 C 1.15917 0.81598 0.00826
 C857 C 1.16254 0.78943 0.01939
 C858 C 1.13980 0.77497 0.03198
 C859 C 1.09105 0.77360 0.04906
 C860 C 1.07257 0.76352 0.06305
 H861 H 1.08944 0.82238 0.02330
 H862 H 1.12917 0.84794 0.00140
 H863 H 1.18284 0.78002 0.01865
 H864 H 1.14299 0.75487 0.04103
 C865 C 0.60693 0.28044 0.53221
 C866 C 0.60301 0.30665 0.52101
 C867 C 0.62560 0.32148 0.50863
 C868 C 0.65251 0.31029 0.50732
 C869 C 0.65601 0.28355 0.51797
 C870 C 0.63335 0.26874 0.53037
 C871 C 0.58464 0.26691 0.54765
 C872 C 0.56627 0.25668 0.56168
 H873 H 0.58275 0.31605 0.52260
 H874 H 0.62234 0.34222 0.50110
 H875 H 0.67636 0.27424 0.51701
 H876 H 0.63664 0.24851 0.53909
 C877 C 0.40882 0.20602 0.55608
 C878 C 0.39361 0.18321 0.56765
 C879 C 0.36410 0.17628 0.55966
 C880 C 0.34928 0.19212 0.53996
 C881 C 0.36475 0.21507 0.52844
 C882 C 0.39433 0.22200 0.53651
 C883 C 0.43922 0.21302 0.56454
 C884 C 0.46459 0.21877 0.57212
 H885 H 0.40461 0.17066 0.58275
 H886 H 0.35300 0.15813 0.56847
 H887 H 0.35393 0.22777 0.51338
 H888 H 0.40588 0.23978 0.52749
 C889 C 0.91623 0.70775 0.05416
 C890 C 0.90562 0.67872 0.05303
 C891 C 0.87642 0.67009 0.04486
 C892 C 0.85732 0.69043 0.03775
 C893 C 0.86823 0.71956 0.03857
 C894 C 0.89753 0.72817 0.04680
 C895 C 0.94617 0.71652 0.06351
 C896 C 0.97120 0.72359 0.07179
 H897 H 0.91991 0.66273 0.05859
 H898 H 0.86881 0.64743 0.04389
 H899 H 0.85404 0.73573 0.03339
 H900 H 0.90552 0.75073 0.04767
 C901 C 0.59210 0.73247 0.91589
 C902 C 0.62020 0.74624 0.91696
 C903 C 0.64309 0.73525 0.93230
 C904 C 0.63810 0.71033 0.94676
 C905 C 0.60970 0.69689 0.94573
 C906 C 0.58692 0.70789 0.93044
 C907 C 0.56847 0.74293 0.89946
 C908 C 0.54805 0.75075 0.88582
 H909 H 0.62445 0.76530 0.90577
 H910 H 0.66466 0.74622 0.93287
 H911 H 0.60515 0.67737 0.95609
 H912 H 0.56529 0.69698 0.92965
 C913 C 0.08709 0.23227 0.41221
 C914 C 0.11033 0.24991 0.42753
 C915 C 0.13242 0.23760 0.44276
 C916 C 0.13141 0.20748 0.44289
 C917 C 0.10805 0.19002 0.42717
 C918 C 0.08608 0.20233 0.41203
 C919 C 0.06392 0.24450 0.39685
 C920 C 0.04388 0.25358 0.38380
 H921 H 0.11129 0.27313 0.42785
 H922 H 0.14998 0.25163 0.45481
 H923 H 0.10685 0.16676 0.42631
 H924 H 0.06825 0.18846 0.40019
 C925 C 0.55172 0.14266 0.65901
 C926 C 0.54475 0.11412 0.64671
 C927 C 0.55625 0.09154 0.66000
 C928 C 0.57507 0.09731 0.68561
 C929 C 0.58104 0.12596 0.69837
 C930 C 0.56948 0.14845 0.68513
 C931 C 0.54315 0.16621 0.64352
 C932 C 0.53765 0.18617 0.63010
 H933 H 0.53124 0.10941 0.62635
 H934 H 0.55148 0.06975 0.64954
 H935 H 0.59515 0.13102 0.71830
 H936 H 0.57513 0.17044 0.69479
 C937 C 1.05638 0.64966 0.16059
 C938 C 1.07435 0.65507 0.18659
 C939 C 1.08530 0.63227 0.19981
 C940 C 1.07851 0.60367 0.18713
 C941 C 1.05948 0.59831 0.16164
 C942 C 1.04859 0.62120 0.14839
 C943 C 1.04836 0.67340 0.14512
 C944 C 1.04324 0.69346 0.13167
 H945 H 1.08061 0.67699 0.19619
 H946 H 1.09957 0.63703 0.21966
 H947 H 1.05408 0.57657 0.15124
 H948 H 1.03489 0.61677 0.12812
 C949 C 0.98377 0.82493 0.17111
 C950 C 0.95573 0.82999 0.16133
 C951 C 0.94266 0.85270 0.17492
 C952 C 0.95748 0.87073 0.19853
 C953 C 0.98555 0.86524 0.20847
 C954 C 0.99860 0.84248 0.19481
 C955 C 0.99787 0.80301 0.15545
 C956 C 1.00958 0.78543 0.14112
 H957 H 0.94418 0.81674 0.14281
 H958 H 0.92124 0.85660 0.16644
 H959 H 0.99738 0.87851 0.22680
 H960 H 1.02037 0.83883 0.20247
 C961 C 0.47979 0.31846 0.67122
 C962 C 0.49468 0.33540 0.69529
 C963 C 0.48214 0.35851 0.70895
 C964 C 0.45453 0.36498 0.69865
 C965 C 0.43959 0.34752 0.67470
 C966 C 0.45216 0.32446 0.66111
 C967 C 0.49349 0.29626 0.65549
 C968 C 0.50489 0.27850 0.64105
 H969 H 0.51615 0.33103 0.70321
 H970 H 0.49403 0.37130 0.72756
 H971 H 0.41851 0.35216 0.66594
 H972 H 0.44056 0.31168 0.64230
 C973 C 0.48146 0.64606 0.80215
 C974 C 0.48847 0.62585 0.82132
 C975 C 0.48072 0.59643 0.81329
 C976 C 0.46574 0.58685 0.78597
 C977 C 0.45989 0.60726 0.76639
 C978 C 0.46764 0.63666 0.77447
 C979 C 0.48575 0.67638 0.81194
 C980 C 0.48797 0.70158 0.82092
 H981 H 0.49906 0.63288 0.84286
 H982 H 0.48579 0.58122 0.82872
 H983 H 0.44800 0.60068 0.74539
 H984 H 0.46186 0.65212 0.75956
 C985 C -0.02108 0.15133 0.29929
 C986 C -0.01309 0.13136 0.31834
 C987 C -0.02060 0.10186 0.31063
 C988 C -0.03631 0.09197 0.28376
 C989 C -0.04318 0.11216 0.26426
 C990 C -0.03568 0.14164 0.27203
 C991 C -0.01706 0.18167 0.30896
 C992 C -0.01509 0.20684 0.31799
 H993 H -0.00191 0.13863 0.33957
 H994 H -0.01476 0.08684 0.32598
 H995 H -0.05564 0.10531 0.24361
 H996 H -0.04225 0.15691 0.25724
 C997 C 0.04950 0.34390 0.28094
 C998 C 0.07859 0.35231 0.29008
 C999 C 0.09256 0.37698 0.28064
 C1000 C 0.07757 0.39369 0.26199
 C1001 C 0.04874 0.38433 0.25172
 C1002 C 0.03474 0.35962 0.26129
 C1003 C 0.03404 0.32152 0.29460
 C1004 C 0.02078 0.30433 0.30769
 H1005 H 0.09017 0.34044 0.30542
 H1006 H 0.11491 0.38348 0.28857
 H1007 H 0.03665 0.39690 0.23752
 H1008 H 0.01210 0.35348 0.25433
 C1009 C 0.55235 0.83778 0.78081
 C1010 C 0.58125 0.84701 0.79012
 C1011 C 0.59462 0.87193 0.78058
 C1012 C 0.57922 0.88805 0.76164
 C1013 C 0.55064 0.87785 0.75118
 C1014 C 0.53722 0.85292 0.76088
 C1015 C 0.53728 0.81537 0.79477
 C1016 C 0.52418 0.79834 0.80816
 H1017 H 0.59310 0.83562 0.80570
 H1018 H 0.61680 0.87910 0.78868
 H1019 H 0.53824 0.88996 0.73677
 H1020 H 0.51471 0.84617 0.75382
 C1021 C 0.66389 0.56359 0.15246
 C1022 C 0.65791 0.54849 0.12480
 C1023 C 0.66954 0.55935 0.10052
 C1024 C 0.68723 0.58605 0.10322
 C1025 C 0.69373 0.60025 0.13186
 C1026 C 0.68215 0.58920 0.15594
 C1027 C 0.64966 0.55435 0.17704
 C1028 C 0.63717 0.54846 0.19792
 H1029 H 0.64348 0.52872 0.12180
 H1030 H 0.66268 0.54740 0.07961
 H1031 H 0.70856 0.61958 0.13644
 H1032 H 0.68720 0.60097 0.17735
 C1033 C 0.15209 1.05945 0.64873
 C1034 C 0.17647 1.04896 0.63729
 C1035 C 0.18746 1.06019 0.61286
 C1036 C 0.17423 1.08216 0.59978
 C1037 C 0.14937 1.09199 0.61108
 C1038 C 0.13845 1.08075 0.63536
 C1039 C 0.14155 1.04985 0.67502
 C1040 C 0.13172 1.04382 0.69730
 H1041 H 0.18729 1.03256 0.64755
 H1042 H 0.20676 1.05237 0.60475
 H1043 H 0.13847 1.10855 0.60120
 H1044 H 0.11958 1.08905 0.64402
 C1045 C 0.18548 0.98593 0.82695
 C1046 C 0.20189 1.00215 0.85041
 C1047 C 0.21591 0.98847 0.87226
 C1048 C 0.21372 0.95792 0.87142
 C1049 C 0.19760 0.94208 0.84668
 C1050 C 0.18370 0.95594 0.82496
 C1051 C 0.16836 0.99990 0.80636
 C1052 C 0.15270 1.01134 0.79007
 H1053 H 0.20352 1.02549 0.85210
 H1054 H 0.22898 1.00241 0.88918
 H1055 H 0.19358 0.91888 0.84447
 H1056 H 0.17063 0.94314 0.80706
 C1057 C 0.67785 0.48482 0.32756
 C1058 C 0.66852 0.45605 0.33042
 C1059 C 0.68165 0.44179 0.35228
 C1060 C 0.70436 0.45614 0.37167
 C1061 C 0.71386 0.48499 0.36840
 C1062 C 0.70065 0.49923 0.34648
 C1063 C 0.66253 0.49995 0.30659
 C1064 C 0.64843 0.51241 0.28981
 H1065 H 0.65064 0.44481 0.31615
 H1066 H 0.67347 0.41978 0.35453
 H1067 H 0.73144 0.49653 0.38280
 H1068 H 0.70790 0.52158 0.34458
 C1069 C 0.80548 0.47058 0.65152
 C1070 C 0.77814 0.45574 0.64348
 C1071 C 0.76926 0.44739 0.61404
 C1072 C 0.78773 0.45366 0.59227
 C1073 C 0.81470 0.46958 0.60052
 C1074 C 0.82350 0.47794 0.62995
 C1075 C 0.81627 0.47567 0.68179
 C1076 C 0.82632 0.47867 0.70686
 H1077 H 0.76412 0.44969 0.66000
 H1078 H 0.74855 0.43483 0.60844
 H1079 H 0.82926 0.47497 0.58425
 H1080 H 0.84476 0.48933 0.63593
 C1081 C 0.30982 -0.02355 0.15129
 C1082 C 0.28237 -0.03792 0.14267
 C1083 C 0.27419 -0.04655 0.11314
 C1084 C 0.29347 -0.04105 0.09187
 C1085 C 0.32057 -0.02560 0.10066
 C1086 C 0.32868 -0.01696 0.13018
 C1087 C 0.31983 -0.01825 0.18176
 C1088 C 0.32925 -0.01517 0.20703
 H1089 H 0.26770 -0.04338 0.15884
 H1090 H 0.25334 -0.05873 0.10713
 H1091 H 0.33574 -0.02078 0.08477
 H1092 H 0.35003 -0.00596 0.13661
 C1093 C 0.28600 0.04291 0.34527
 C1094 C 0.28245 0.02846 0.37012
 C1095 C 0.26984 0.04140 0.39378
 C1096 C 0.26052 0.06900 0.39288
 C1097 C 0.26330 0.08301 0.36743
 C1098 C 0.27611 0.07007 0.34381
 C1099 C 0.30182 0.03051 0.32253
 C1100 C 0.31634 0.01928 0.30514
 H1101 H 0.29008 0.00743 0.37149
 H1102 H 0.26769 0.02999 0.41294
 H1103 H 0.25658 0.10441 0.36622
 H1104 H 0.27898 0.08156 0.32479
 C1105 C 0.78546 0.53644 0.84610
 C1106 C 0.77372 0.56262 0.84369
 C1107 C 0.76147 0.57603 0.86743
 C1108 C 0.76108 0.56350 0.89394
 C1109 C 0.77211 0.53676 0.89582
 C1110 C 0.78419 0.52334 0.87205
 C1111 C 0.80087 0.52388 0.82311
 C1112 C 0.81514 0.51271 0.80543
 H1113 H 0.77480 0.57307 0.82380
 H1114 H 0.75342 0.59677 0.86547
 H1115 H 0.77182 0.52647 0.91584
 H1116 H 0.79327 0.50310 0.87418
 C1117 C 0.15067 0.66624 0.56448
 C1118 C 0.15490 0.68993 0.58572
 C1119 C 0.13121 0.70132 0.59750
 C1120 C 0.10288 0.68910 0.58825
 C1121 C 0.09874 0.66597 0.56610
 C1122 C 0.12253 0.65453 0.55438
 C1123 C 0.17525 0.65246 0.55527
 C1124 C 0.19609 0.64043 0.54925
 H1125 H 0.17657 0.69910 0.59378
 H1126 H 0.13504 0.71941 0.61420
 H1127 H 0.07720 0.65600 0.55872
 H1128 H 0.11901 0.63602 0.53813
 C1129 C 0.64895 0.16590 1.06284
 C1130 C 0.65339 0.19026 1.08326
 C1131 C 0.62981 0.20223 1.09471
 C1132 C 0.60140 0.18996 1.08591
 C1133 C 0.59707 0.16609 1.06461
 C1134 C 0.62073 0.15406 1.05324
 C1135 C 0.67339 0.15169 1.05391
 C1136 C 0.69406 0.13932 1.04801
 H1137 H 0.67511 0.19955 1.09093
 H1138 H 0.63381 0.22085 1.11079
 H1139 H 0.57547 0.15603 1.05763
 H1140 H 0.61704 0.13504 1.03764
 C1141 C 0.82636 0.18513 0.99035
 C1142 C 0.82676 0.18209 0.96011
 C1143 C 0.84953 0.19570 0.94693
 C1144 C 0.87294 0.21277 0.96376
 C1145 C 0.87141 0.21613 0.99449
 C1146 C 0.84851 0.20242 1.00747
 C1147 C 0.80448 0.16858 1.00384
 C1148 C 0.78701 0.15347 1.01491
 H1149 H 0.80989 0.16835 0.94663
 H1150 H 0.84916 0.19076 0.92360
 H1151 H 0.88722 0.22995 1.00901
 H1152 H 0.84832 0.20507 1.03101
 C1153 C 0.32842 0.68570 0.49009
 C1154 C 0.33344 0.67652 0.46141
 C1155 C 0.35620 0.69016 0.44829
 C1156 C 0.37432 0.71328 0.46367
 C1157 C 0.36886 0.72264 0.49240
 C1158 C 0.34605 0.70889 0.50552
 C1159 C 0.30657 0.66978 0.50415
 C1160 C 0.28910 0.65505 0.51562
 H1161 H 0.32015 0.65836 0.44939
 H1162 H 0.36009 0.68208 0.42635
 H1163 H 0.38222 0.74055 0.50470
 H1164 H 0.34244 0.71604 0.52781
 C1165 C 0.65654 0.81614 0.47820
 C1166 C 0.64292 0.82781 0.45468
 C1167 C 0.61344 0.82086 0.44701
 C1168 C 0.59691 0.80213 0.46283
 C1169 C 0.61071 0.79053 0.48661
 C1170 C 0.64041 0.79755 0.49428
 C1171 C 0.68717 0.82331 0.48489
 C1172 C 0.71275 0.83078 0.48832
 H1173 H 0.65522 0.84209 0.44198
 H1174 H 0.60374 0.82962 0.42817
 H1175 H 0.59857 0.77613 0.49927
 H1176 H 0.65076 0.78840 0.51254
 C1177 C 0.15398 0.31057 -0.01443
 C1178 C 0.14462 0.28284 -0.02776
 C1179 C 0.11516 0.27476 -0.03535
 C1180 C 0.09469 0.29442 -0.02984
 C1181 C 0.10422 0.32181 -0.01529
 C1182 C 0.13367 0.32981 -0.00767
 C1183 C 0.18434 0.32040 -0.01070
 C1184 C 0.20950 0.32958 -0.00911
 H1185 H 0.16017 0.26788 -0.03337
 H1186 H 0.10860 0.25369 -0.04692
 H1187 H 0.08895 0.33731 -0.01052
 H1188 H 0.14068 0.35139 0.00252
 C1189 C 0.34756 0.29110 0.04786
 C1190 C 0.34592 0.28069 0.07514
 C1191 C 0.36951 0.26870 0.08805
 C1192 C 0.39508 0.26723 0.07387
 C1193 C 0.39618 0.27702 0.04612
 C1194 C 0.37258 0.28887 0.03324
 C1195 C 0.32473 0.30599 0.03545
 C1196 C 0.30728 0.31968 0.02394
 H1197 H 0.32676 0.28253 0.08675
 H1198 H 0.36821 0.26165 0.10961
 H1199 H 0.41546 0.27588 0.03460
 H1200 H 0.37411 0.29695 0.01214
 C1201 C 0.85156 0.79202 0.54960
 C1202 C 0.84737 0.77265 0.57053
 C1203 C 0.87116 0.76126 0.58391
 C1204 C 0.89934 0.76931 0.57657
 C1205 C 0.90311 0.78812 0.55491
 C1206 C 0.87941 0.79937 0.54157
 C1207 C 0.82796 0.80559 0.53674
 C1208 C 0.81026 0.81867 0.52476
 H1209 H 0.82590 0.76681 0.57690
 H1210 H 0.86763 0.74698 0.60069
 H1211 H 0.92445 0.79439 0.54848
 H1212 H 0.88287 0.81426 0.52529
   
