data_POSCAR
  _audit_creation_date              2014-09-24
  _audit_creation_method            'ToBaCCo'
  _symmetry_space_group_name_H-M    'P1'
  _symmetry_Int_Tables_number       1
  _symmetry_cell_setting            triclinic
  loop_
  _symmetry_equiv_pos_as_xyz
 x,y,z
_cell_length_a 37.5996
_cell_length_b 38.4527
_cell_length_c 37.8567
_cell_angle_alpha 89.904000
_cell_angle_beta 89.869000
_cell_angle_gamma 90.038900
loop_
  _atom_site_label
  _atom_site_type_symbol
  _atom_site_fract_x
  _atom_site_fract_y
  _atom_site_fract_z
C1 C 0.37935 0.27815 -0.02971
 C2 C 0.39303 0.26842 0.00322
 C3 C 0.37854 0.27971 0.03523
 C4 C 0.35156 0.30531 0.03445
 C5 C 0.33823 0.31721 0.00133
 C6 C 0.35281 0.30429 -0.03082
 C7 C 0.34201 0.31950 -0.06278
 C8 C 0.31547 0.34460 -0.06370
 C9 C 0.29837 0.35569 -0.03273
 C10 C 0.31098 0.34294 0.00036
 C11 C 0.33921 0.32107 0.06545
 C12 C 0.31271 0.34619 0.06454
 C13 C 0.29733 0.35671 0.03252
 C14 C 0.27016 0.38206 0.03152
 C15 C 0.25902 0.39466 -0.00126
 C16 C 0.27073 0.38081 -0.03344
 H17 H 0.35500 0.31352 -0.08743
 H18 H 0.30993 0.35625 -0.08897
 H19 H 0.35096 0.31556 0.09070
 H20 H 0.30563 0.35819 0.08926
 H21 H 0.41575 0.25121 0.00423
 H22 H 0.24104 0.41655 -0.00173
 C23 C 0.72548 0.61531 0.03476
 C24 C 0.73989 0.60460 0.00250
 C25 C 0.72681 0.61574 -0.03021
 C26 C 0.70123 0.64284 -0.03055
 C27 C 0.68708 0.65544 0.00200
 C28 C 0.69956 0.64193 0.03474
 C29 C 0.68735 0.65690 0.06629
 C30 C 0.66184 0.68305 0.06612
 C31 C 0.64747 0.69548 0.03440
 C32 C 0.66111 0.68239 0.00185
 C33 C 0.69095 0.65921 -0.06209
 C34 C 0.66579 0.68566 -0.06218
 C35 C 0.64954 0.69680 -0.03082
 C36 C 0.62371 0.72349 -0.03080
 C37 C 0.61231 0.73697 0.00156
 C38 C 0.62159 0.72218 0.03399
 H39 H 0.69841 0.64980 0.09151
 H40 H 0.65501 0.69456 0.09113
 H41 H 0.70334 0.65302 -0.08700
 H42 H 0.66071 0.69834 -0.08702
 H43 H 0.76243 0.58723 0.00302
 H44 H 0.59463 0.75918 0.00146
 C45 C 0.62094 0.28035 0.96720
 C46 C 0.60701 0.26832 0.99923
 C47 C 0.62055 0.27811 1.03219
 C48 C 0.64643 0.30499 1.03327
 C49 C 0.66028 0.31875 1.00104
 C50 C 0.64710 0.30677 0.96795
 C51 C 0.65877 0.32318 0.93693
 C52 C 0.68458 0.34904 0.93777
 C53 C 0.69978 0.35978 0.96973
 C54 C 0.68665 0.34539 1.00191
 C55 C 0.65734 0.32004 1.06525
 C56 C 0.68309 0.34600 1.06605
 C57 C 0.69908 0.35822 1.03492
 C58 C 0.72559 0.38437 1.03555
 C59 C 0.73698 0.39875 1.00350
 C60 C 0.72633 0.38585 0.97071
 H61 H 0.64702 0.31756 0.91172
 H62 H 0.69122 0.36144 0.91307
 H63 H 0.64506 0.31319 1.09004
 H64 H 0.68902 0.35735 1.09136
 H65 H 0.58472 0.25056 0.99821
 H66 H 0.75460 0.42092 1.00415
 C67 C 0.27614 0.61543 0.96235
 C68 C 0.26469 0.60036 0.99403
 C69 C 0.27529 0.61238 1.02733
 C70 C 0.29842 0.64156 1.02883
 C71 C 0.31293 0.65542 0.99698
 C72 C 0.30211 0.64196 0.96366
 C73 C 0.31767 0.65536 0.93287
 C74 C 0.34166 0.68275 0.93418
 C75 C 0.35273 0.69673 0.96650
 C76 C 0.33806 0.68311 0.99839
 C77 C 0.30698 0.65780 1.06093
 C78 C 0.33108 0.68521 1.06224
 C79 C 0.34815 0.69735 1.03163
 C80 C 0.37332 0.72477 1.03272
 C81 C 0.38427 0.73972 1.00073
 C82 C 0.37712 0.72467 0.96798
 H83 H 0.31214 0.64462 0.90731
 H84 H 0.35050 0.69327 0.90932
 H85 H 0.29444 0.65035 1.08543
 H86 H 0.33479 0.69770 1.08741
 H87 H 0.24583 0.57931 0.99230
 H88 H 0.40038 0.76304 1.00150
 C89 C 0.03558 0.26909 0.37682
 C90 C 0.00322 0.25577 0.38908
 C91 C -0.02990 0.26747 0.37707
 C92 C -0.03066 0.29638 0.35373
 C93 C 0.00188 0.31081 0.34105
 C94 C 0.03506 0.29767 0.35331
 C95 C 0.06639 0.31498 0.34351
 C96 C 0.06580 0.34276 0.32007
 C97 C 0.03383 0.35456 0.30544
 C98 C 0.00127 0.33944 0.31713
 C99 C -0.06270 0.31266 0.34433
 C100 C -0.06324 0.34067 0.32113
 C101 C -0.03185 0.35354 0.30584
 C102 C -0.03216 0.38165 0.28155
 C103 C 0.00035 0.39692 0.27212
 C104 C 0.03316 0.38266 0.28141
 H105 H 0.09167 0.30850 0.35493
 H106 H 0.09060 0.35596 0.31522
 H107 H -0.08777 0.30506 0.35583
 H108 H -0.08850 0.35314 0.31698
 H109 H 0.00413 0.23641 0.40972
 H110 H 0.00022 0.42026 0.25608
 C111 C -0.03322 0.72442 0.61527
 C112 C -0.00045 0.73588 0.60194
 C113 C 0.03222 0.72413 0.61479
 C114 C 0.03245 0.69629 0.63923
 C115 C -0.00035 0.68271 0.65217
 C116 C -0.03329 0.69629 0.63964
 C117 C -0.06495 0.67986 0.65021
 C118 C -0.06477 0.65271 0.67451
 C119 C -0.03294 0.64064 0.68943
 C120 C -0.00018 0.65478 0.67699
 C121 C 0.06431 0.68028 0.64954
 C122 C 0.06445 0.65299 0.67365
 C123 C 0.03278 0.64058 0.68867
 C124 C 0.03280 0.61288 0.71330
 C125 C 0.00025 0.59837 0.72343
 C126 C -0.03253 0.61328 0.71462
 H127 H -0.09022 0.68660 0.63872
 H128 H -0.08986 0.64018 0.67992
 H129 H 0.08948 0.68754 0.63801
 H130 H 0.08963 0.64073 0.67893
 H131 H -0.00026 0.75430 0.58039
 H132 H 0.00056 0.57522 0.73973
 C133 C 1.03426 0.62427 0.27842
 C134 C 1.00169 0.60966 0.26859
 C135 C 0.96893 0.62312 0.27943
 C136 C 0.96869 0.64950 0.30547
 C137 C 1.00153 0.66316 0.31815
 C138 C 1.03441 0.65061 0.30446
 C139 C 1.06624 0.66407 0.31797
 C140 C 1.06621 0.69017 0.34330
 C141 C 1.03434 0.70269 0.35783
 C142 C 1.00150 0.68918 0.34491
 C143 C 0.93683 0.66193 0.31995
 C144 C 0.93675 0.68811 0.34516
 C145 C 0.96860 0.70167 0.35857
 C146 C 0.96865 0.72798 0.38457
 C147 C 1.00111 0.74271 0.39438
 C148 C 1.03401 0.72888 0.38421
 H149 H 1.09173 0.65433 0.30978
 H150 H 1.09168 0.70063 0.35075
 H151 H 0.91145 0.65134 0.31259
 H152 H 0.91122 0.69778 0.35348
 H153 H 1.00185 0.58716 0.25150
 H154 H 1.00063 0.76568 0.41073
 C155 C 0.96614 0.37833 0.72150
 C156 C 0.99922 0.38719 0.73553
 C157 C 1.03133 0.37627 0.72056
 C158 C 1.03046 0.35057 0.69386
 C159 C 0.99705 0.33849 0.68113
 C160 C 0.96479 0.35261 0.69485
 C161 C 0.93235 0.33984 0.68223
 C162 C 0.93120 0.31478 0.65590
 C163 C 0.96236 0.29994 0.64227
 C164 C 0.99585 0.31208 0.65478
 C165 C 1.06169 0.33568 0.68045
 C166 C 1.06061 0.31057 0.65410
 C167 C 1.02812 0.29799 0.64100
 C168 C 1.02677 0.27200 0.61439
 C169 C 0.99336 0.26242 0.60129
 C170 C 0.96129 0.27400 0.61588
 H171 H 0.90731 0.34840 0.69292
 H172 H 0.90542 0.30783 0.64618
 H173 H 1.08742 0.34241 0.69072
 H174 H 1.08578 0.30130 0.64424
 H175 H 1.00011 0.40420 0.75824
 H176 H 0.99173 0.24521 0.57891
 C177 C 0.28460 -0.03123 0.38816
 C178 C 0.27510 0.00086 0.40289
 C179 C 0.28547 0.03267 0.38823
 C180 C 0.31079 0.03266 0.36054
 C181 C 0.32284 0.00046 0.34632
 C182 C 0.31033 -0.03158 0.36068
 C183 C 0.32558 -0.06269 0.34860
 C184 C 0.35013 -0.06285 0.32108
 C185 C 0.36072 -0.03189 0.30437
 C186 C 0.34804 0.00031 0.31812
 C187 C 0.32608 0.06363 0.34815
 C188 C 0.35070 0.06350 0.32070
 C189 C 0.36116 0.03238 0.30442
 C190 C 0.38583 0.03215 0.27615
 C191 C 0.39854 0.00018 0.26398
 C192 C 0.38514 -0.03184 0.27570
 H193 H 0.32010 -0.08725 0.36126
 H194 H 0.36171 -0.08757 0.31423
 H195 H 0.32058 0.08825 0.36055
 H196 H 0.36240 0.08811 0.31350
 H197 H 0.25839 0.00121 0.42618
 H198 H 0.42011 0.00032 0.24513
 C199 C 0.61545 -0.02852 0.72771
 C200 C 0.60483 0.00376 0.74116
 C201 C 0.61498 0.03538 0.72594
 C202 C 0.64080 0.03517 0.69878
 C203 C 0.65374 0.00286 0.68571
 C204 C 0.64161 -0.02907 0.70068
 C205 C 0.65750 -0.06023 0.68951
 C206 C 0.68272 -0.06054 0.66265
 C207 C 0.69334 -0.02973 0.64582
 C208 C 0.67961 0.00253 0.65822
 C209 C 0.65568 0.06614 0.68583
 C210 C 0.68094 0.06579 0.65900
 C211 C 0.69244 0.03447 0.64392
 C212 C 0.71804 0.03390 0.61652
 C213 C 0.73202 0.00187 0.60604
 C214 C 0.71884 -0.02991 0.61835
 H215 H 0.65189 -0.08468 0.70232
 H216 H 0.69482 -0.08519 0.65642
 H217 H 0.64932 0.09099 0.69730
 H218 H 0.69245 0.09037 0.65153
 H219 H 0.58812 0.00445 0.76439
 H220 H 0.75401 0.00174 0.58761
 C221 C 0.38395 0.97002 0.72974
 C222 C 0.39743 1.00207 0.74070
 C223 C 0.38286 1.03396 0.73017
 C224 C 0.35676 1.03376 0.70308
 C225 C 0.34429 1.00139 0.68948
 C226 C 0.35795 0.96948 0.70286
 C227 C 0.34579 0.93808 0.68839
 C228 C 0.31970 0.93761 0.66251
 C229 C 0.30590 0.96854 0.64856
 C230 C 0.31823 1.00090 0.66222
 C231 C 0.34332 1.06468 0.68852
 C232 C 0.31704 1.06418 0.66277
 C233 C 0.30441 1.03276 0.64884
 C234 C 0.27784 1.03205 0.62244
 C235 C 0.26427 0.99986 0.61190
 C236 C 0.27944 0.96824 0.62206
 H237 H 0.35651 0.91335 0.69640
 H238 H 0.31016 0.91254 0.65422
 H239 H 0.35314 1.08982 0.69630
 H240 H 0.30654 1.08890 0.65443
 H241 H 0.42029 1.00208 0.75787
 H242 H 0.24128 0.99932 0.59490
 C243 C 0.72394 0.96485 0.37515
 C244 C 0.73928 0.99649 0.38488
 C245 C 0.72572 1.02871 0.37412
 C246 C 0.69901 1.02920 0.34774
 C247 C 0.68411 0.99725 0.33577
 C248 C 0.69696 0.96497 0.34919
 C249 C 0.68416 0.93397 0.33453
 C250 C 0.65764 0.93423 0.30903
 C251 C 0.64276 0.96553 0.29703
 C252 C 0.65688 0.99754 0.30966
 C253 C 0.68832 1.06024 0.33134
 C254 C 0.66167 1.06054 0.30596
 C255 C 0.64454 1.02977 0.29559
 C256 C 0.61699 1.02984 0.27002
 C257 C 0.60521 0.99781 0.25692
 C258 C 0.61567 0.96590 0.27122
 H259 H 0.69568 0.90919 0.34112
 H260 H 0.65022 0.90955 0.29782
 H261 H 0.70156 1.08456 0.33652
 H262 H 0.65594 1.08513 0.29350
 H263 H 0.76203 0.99588 0.40234
 H264 H 0.58746 0.99760 0.23454
 O265 O 0.87034 0.82621 0.46941
 O266 O 0.82120 0.87351 0.53655
 O267 O 0.86971 0.82542 0.53681
 O268 O 0.82155 0.87363 0.46909
 O269 O 0.77971 0.83329 0.46759
 O270 O 0.82854 0.78434 0.53706
 O271 O 0.77862 0.83391 0.53634
 O272 O 0.82977 0.78460 0.46884
 Cu273 Cu 0.84975 0.85370 0.50310
 Cu274 Cu 0.79978 0.80491 0.50253
 C275 C 0.85940 0.79699 0.45855
 C276 C 0.79110 0.86280 0.54692
 C277 C 0.85828 0.79621 0.54746
 C278 C 0.79223 0.86232 0.45729
 O279 O 0.17589 0.12695 0.53732
 O280 O 0.13052 0.17223 0.46598
 O281 O 0.18004 0.12597 0.47000
 O282 O 0.12672 0.17457 0.53364
 O283 O 0.16787 0.21548 0.53706
 O284 O 0.22107 0.16720 0.47013
 O285 O 0.16987 0.21492 0.46821
 O286 O 0.21827 0.16678 0.53827
 Cu287 Cu 0.14920 0.14595 0.50174
 Cu288 Cu 0.19840 0.19544 0.50359
 C289 C 0.20548 0.13794 0.54870
 C290 C 0.14160 0.20165 0.45569
 C291 C 0.20985 0.13772 0.45981
 C292 C 0.13761 0.20338 0.54574
 O293 O 0.13089 0.82569 0.53398
 O294 O 0.18086 0.87438 0.46767
 O295 O 0.13154 0.82703 0.46651
 O296 O 0.17954 0.87359 0.53505
 O297 O 0.22190 0.83380 0.53518
 O298 O 0.17179 0.78521 0.46635
 O299 O 0.22258 0.83390 0.46670
 O300 O 0.17193 0.78454 0.53466
 Cu301 Cu 0.15165 0.85416 0.50078
 Cu302 Cu 0.20134 0.80518 0.50068
 C303 C 0.14210 0.79648 0.54477
 C304 C 0.21062 0.86323 0.45678
 C305 C 0.14238 0.79772 0.45575
 C306 C 0.20932 0.86262 0.54591
 O307 O 0.86899 0.17257 0.52931
 O308 O 0.82380 0.12341 0.46051
 O309 O 0.87212 0.17154 0.46143
 O310 O 0.82044 0.12494 0.52776
 O311 O 0.77847 0.16510 0.52616
 O312 O 0.83074 0.21218 0.45759
 O313 O 0.78112 0.16280 0.45770
 O314 O 0.82838 0.21401 0.52616
 Cu315 Cu 0.85051 0.14420 0.49498
 Cu316 Cu 0.80041 0.19272 0.49158
 C317 C 0.85715 0.20194 0.53879
 C318 C 0.79428 0.13378 0.44836
 C319 C 0.86089 0.20000 0.44879
 C320 C 0.79043 0.13632 0.53766
 O321 O 0.46863 0.87352 0.82938
 O322 O 0.53639 0.82480 0.87669
 O323 O 0.53639 0.87391 0.82945
 O324 O 0.46840 0.82498 0.87672
 O325 O 0.46875 0.78427 0.83559
 O326 O 0.53637 0.83544 0.78614
 O327 O 0.53784 0.78504 0.83465
 O328 O 0.46768 0.83403 0.78697
 Cu329 Cu 0.50253 0.85316 0.85726
 Cu330 Cu 0.50278 0.80553 0.80653
 C331 C 0.45732 0.86280 0.79985
 C332 C 0.54794 0.79628 0.86454
 C333 C 0.54677 0.86412 0.79920
 C334 C 0.45768 0.79599 0.86500
 O335 O 0.53480 0.17808 0.12487
 O336 O 0.46735 0.12947 0.17380
 O337 O 0.46625 0.17837 0.12661
 O338 O 0.53506 0.12843 0.17164
 O339 O 0.53680 0.16673 0.21505
 O340 O 0.46813 0.21875 0.16804
 O341 O 0.46814 0.16852 0.21660
 O342 O 0.53733 0.21767 0.16705
 Cu343 Cu 0.50076 0.14985 0.14495
 Cu344 Cu 0.50280 0.19705 0.19596
 C345 C 0.54695 0.20639 0.13698
 C346 C 0.45715 0.13990 0.20389
 C347 C 0.45611 0.20735 0.13890
 C348 C 0.54648 0.13797 0.20157
 O349 O 0.53162 0.13165 0.82739
 O350 O 0.46465 0.17990 0.87645
 O351 O 0.46398 0.13126 0.82894
 O352 O 0.53310 0.17996 0.87486
 O353 O 0.53189 0.22082 0.83373
 O354 O 0.46242 0.17054 0.78623
 O355 O 0.46273 0.22027 0.83485
 O356 O 0.53117 0.17099 0.78477
 Cu357 Cu 0.49841 0.15187 0.85615
 Cu358 Cu 0.49699 0.19985 0.80564
 C359 C 0.54188 0.14217 0.79733
 C360 C 0.45286 0.20849 0.86468
 C361 C 0.45245 0.14166 0.79933
 C362 C 0.54361 0.20898 0.86284
 O363 O 0.46048 0.82174 0.12583
 O364 O 0.52945 0.86939 0.17235
 O365 O 0.52854 0.82074 0.12502
 O366 O 0.46173 0.87035 0.17345
 O367 O 0.46093 0.83093 0.21604
 O368 O 0.52928 0.78051 0.16672
 O369 O 0.52956 0.83044 0.21534
 O370 O 0.45984 0.78106 0.16707
 Cu371 Cu 0.49501 0.84938 0.14497
 Cu372 Cu 0.49483 0.80151 0.19553
 C373 C 0.44916 0.79294 0.13758
 C374 C 0.54029 0.85906 0.20222
 C375 C 0.53982 0.79200 0.13697
 C376 C 0.45103 0.86001 0.20345
 O377 O 0.82678 0.46962 0.87197
 O378 O 0.87423 0.53519 0.82045
 O379 O 0.82718 0.53598 0.87100
 O380 O 0.87438 0.46868 0.82224
 O381 O 0.83245 0.46779 0.78145
 O382 O 0.78340 0.53542 0.83219
 O383 O 0.83176 0.53523 0.78016
 O384 O 0.78372 0.46806 0.83232
 Cu385 Cu 0.85487 0.50252 0.85029
 Cu386 Cu 0.80345 0.50168 0.80240
 C387 C 0.79690 0.45838 0.86161
 C388 C 0.86191 0.54549 0.79112
 C389 C 0.79675 0.54609 0.86105
 C390 C 0.86230 0.45745 0.79320
 O391 O 0.12631 0.53688 0.17719
 O392 O 0.17202 0.46838 0.12883
 O393 O 0.12498 0.46996 0.17873
 O394 O 0.17342 0.53459 0.12712
 O395 O 0.21716 0.53485 0.16602
 O396 O 0.16720 0.46983 0.21929
 O397 O 0.21538 0.46773 0.16823
 O398 O 0.16871 0.53751 0.21755
 Cu399 Cu 0.14485 0.50252 0.14915
 Cu400 Cu 0.19645 0.50260 0.19698
 C401 C 0.13901 0.54826 0.20589
 C402 C 0.20179 0.45716 0.13947
 C403 C 0.13728 0.45933 0.20794
 C404 C 0.20398 0.54466 0.13675
 O405 O 0.82664 0.53237 0.13252
 O406 O 0.87477 0.46633 0.18205
 O407 O 0.82667 0.46611 0.13324
 O408 O 0.87514 0.53332 0.18110
 O409 O 0.83377 0.53426 0.22268
 O410 O 0.78400 0.46625 0.17355
 O411 O 0.83342 0.46644 0.22367
 O412 O 0.78403 0.53340 0.17281
 Cu413 Cu 0.85504 0.49950 0.15331
 Cu414 Cu 0.80459 0.50015 0.20252
 C415 C 0.79670 0.54319 0.14327
 C416 C 0.86292 0.45563 0.21146
 C417 C 0.79669 0.45565 0.14433
 C418 C 0.86334 0.54474 0.21023
 O419 O 0.17444 0.53162 0.86692
 O420 O 0.12594 0.46436 0.81944
 O421 O 0.17356 0.46466 0.86890
 O422 O 0.12694 0.53070 0.81742
 O423 O 0.16879 0.52923 0.77633
 O424 O 0.21667 0.46251 0.82916
 O425 O 0.16792 0.46186 0.77858
 O426 O 0.21763 0.53004 0.82723
 Cu427 Cu 0.14610 0.49800 0.84721
 Cu428 Cu 0.19717 0.49578 0.79871
 C429 C 0.20458 0.54164 0.85588
 C430 C 0.13782 0.45243 0.79056
 C431 C 0.20327 0.45294 0.85846
 C432 C 0.13908 0.54036 0.78774
 C433 C 0.25856 0.41660 0.11832
 C434 C 0.24326 0.38322 0.10069
 C435 C 0.25300 0.39825 0.06401
 C436 C 0.26831 0.43120 0.08130
 C437 C 0.21589 0.41548 0.06166
 C438 C 0.20627 0.40085 0.09835
 C439 C 0.22177 0.43373 0.11530
 C440 C 0.23137 0.44844 0.07872
 H441 H 0.27590 0.41717 0.14201
 H442 H 0.24729 0.35611 0.10994
 H443 H 0.29392 0.44377 0.07415
 H444 H 0.19698 0.41514 0.03919
 H445 H 0.18059 0.38850 0.10564
 H446 H 0.22633 0.47546 0.06963
 C447 C 0.79051 0.57363 0.08180
 C448 C 0.75572 0.56063 0.06510
 C449 C 0.74043 0.59791 0.06771
 C450 C 0.77515 0.61072 0.08476
 C451 C 0.72481 0.58917 0.10451
 C452 C 0.74057 0.55204 0.10188
 C453 C 0.77532 0.56503 0.11855
 C454 C 0.75998 0.60193 0.12193
 H455 H 0.81760 0.56734 0.07201
 H456 H 0.75388 0.54237 0.04249
 H457 H 0.78944 0.63501 0.07764
 H458 H 0.69748 0.59447 0.11423
 H459 H 0.72653 0.52761 0.10907
 H460 H 0.76191 0.61875 0.14564
 C461 C 0.73957 0.41871 0.88325
 C462 C 0.75441 0.38579 0.90218
 C463 C 0.74394 0.40175 0.93819
 C464 C 0.72909 0.43426 0.91963
 C465 C 0.78104 0.41903 0.94078
 C466 C 0.79138 0.40344 0.90474
 C467 C 0.77636 0.43590 0.88648
 C468 C 0.76604 0.45157 0.92240
 H469 H 0.72272 0.41866 0.85922
 H470 H 0.75042 0.35847 0.89367
 H471 H 0.70337 0.44703 0.92587
 H472 H 0.79942 0.41928 0.96369
 H473 H 0.81718 0.39087 0.89839
 H474 H 0.77099 0.47881 0.93074
 C475 C 0.21511 0.60181 0.89106
 C476 C 0.21948 0.59054 0.92986
 C477 C 0.25923 0.60099 0.92883
 C478 C 0.25486 0.61278 0.88989
 C479 C 0.26931 0.56410 0.91657
 C480 C 0.22980 0.55366 0.91801
 C481 C 0.22555 0.56504 0.87932
 C482 C 0.26497 0.57547 0.87750
 H483 H 0.19260 0.61718 0.88034
 H484 H 0.20007 0.59677 0.95108
 H485 H 0.26327 0.63731 0.87689
 H486 H 0.29165 0.54834 0.92708
 H487 H 0.21906 0.52957 0.93006
 H488 H 0.28358 0.56915 0.85564
 C489 C 0.10830 0.21097 0.39319
 C490 C 0.06871 0.21404 0.40329
 C491 C 0.06891 0.25294 0.39272
 C492 C 0.10859 0.24987 0.38210
 C493 C 0.07954 0.26310 0.43059
 C494 C 0.07894 0.22442 0.44113
 C495 C 0.11843 0.22148 0.43094
 C496 C 0.11937 0.26007 0.42041
 H497 H 0.12040 0.18932 0.37798
 H498 H 0.04834 0.19435 0.39618
 H499 H 0.12181 0.25883 0.35749
 H500 H 0.06765 0.28458 0.44621
 H501 H 0.06629 0.21341 0.46517
 H502 H 0.14054 0.27889 0.42759
 C503 C 0.08080 0.76701 0.55101
 C504 C 0.08325 0.72962 0.56564
 C505 C 0.06536 0.74187 0.60004
 C506 C 0.06316 0.77944 0.58543
 C507 C 0.10208 0.75020 0.61633
 C508 C 0.12032 0.73798 0.58148
 C509 C 0.11742 0.77525 0.56694
 C510 C 0.09988 0.78768 0.60130
 H511 H 0.07192 0.77408 0.52397
 H512 H 0.07632 0.70567 0.55084
 H513 H 0.04042 0.79778 0.58704
 H514 H 0.11110 0.74407 0.64352
 H515 H 0.14420 0.72112 0.57979
 H516 H 0.10694 0.81173 0.61587
 C517 C 0.88003 0.75914 0.39969
 C518 C 0.91639 0.77500 0.38849
 C519 C 0.93558 0.74250 0.40257
 C520 C 0.89961 0.72622 0.41372
 C521 C 0.93892 0.75946 0.43948
 C522 C 0.92009 0.79203 0.42519
 C523 C 0.88416 0.77615 0.43616
 C524 C 0.90298 0.74362 0.45041
 H525 H 0.85545 0.75916 0.38350
 H526 H 0.92200 0.78796 0.36285
 H527 H 0.89084 0.69888 0.41024
 H528 H 0.96233 0.75956 0.45731
 H529 H 0.92893 0.81920 0.42978
 H530 H 0.89728 0.73085 0.47615
 C531 C 0.91927 0.22676 0.55326
 C532 C 0.91754 0.26576 0.56217
 C533 C 0.92782 0.25734 0.60065
 C534 C 0.92908 0.21808 0.59168
 C535 C 0.88796 0.25360 0.61068
 C536 C 0.87762 0.26205 0.57180
 C537 C 0.87973 0.22314 0.56291
 C538 C 0.88943 0.21434 0.60122
 H539 H 0.93268 0.21524 0.52995
 H540 H 0.92909 0.28695 0.54582
 H541 H 0.95001 0.19938 0.59986
 H542 H 0.87321 0.26264 0.63433
 H543 H 0.85615 0.28005 0.56346
 H544 H 0.87765 0.19295 0.61714
 C545 C 0.41979 0.11822 0.26298
 C546 C 0.38473 0.10068 0.25021
 C547 C 0.40094 0.06461 0.25842
 C548 C 0.43556 0.08180 0.27122
 C549 C 0.41588 0.06276 0.22032
 C550 C 0.40008 0.09883 0.21221
 C551 C 0.43466 0.11569 0.22519
 C552 C 0.45052 0.07971 0.23330
 H553 H 0.42147 0.14139 0.28033
 H554 H 0.35733 0.10959 0.25631
 H555 H 0.45029 0.07470 0.29556
 H556 H 0.41430 0.04073 0.20147
 H557 H 0.38559 0.10606 0.18776
 H558 H 0.47776 0.07100 0.22620
 C559 C 0.60154 0.12143 0.75986
 C560 C 0.61095 0.08501 0.77502
 C561 C 0.59743 0.06788 0.74089
 C562 C 0.58806 0.10393 0.72529
 C563 C 0.55956 0.06514 0.75675
 C564 C 0.57327 0.08192 0.79094
 C565 C 0.56405 0.11794 0.77576
 C566 C 0.55034 0.10116 0.74161
 H567 H 0.61864 0.14492 0.76130
 H568 H 0.63604 0.07827 0.78882
 H569 H 0.59297 0.11338 0.69800
 H570 H 0.54110 0.04262 0.75540
 H571 H 0.56729 0.07240 0.81801
 H572 H 0.52514 0.10797 0.72803
 C573 C 0.41671 0.88365 0.74283
 C574 C 0.38308 0.90235 0.75763
 C575 C 0.39958 0.93778 0.74722
 C576 C 0.43278 0.91945 0.73243
 C577 C 0.41716 0.94028 0.78407
 C578 C 0.40107 0.90484 0.79432
 C579 C 0.43421 0.88683 0.77934
 C580 C 0.45037 0.92218 0.76910
 H581 H 0.41661 0.85999 0.72609
 H582 H 0.35510 0.89392 0.75393
 H583 H 0.44593 0.92558 0.70689
 H584 H 0.41746 0.96275 0.80244
 H585 H 0.38815 0.89858 0.81995
 H586 H 0.47821 0.93046 0.77407
 C587 C 0.57297 0.91889 0.20698
 C588 C 0.55955 0.93664 0.24084
 C589 C 0.59737 0.93364 0.25661
 C590 C 0.61060 0.91556 0.22283
 C591 C 0.58737 0.89809 0.27305
 C592 C 0.54971 0.90110 0.25683
 C593 C 0.56310 0.88336 0.22300
 C594 C 0.60052 0.87962 0.23883
 H595 H 0.56718 0.92788 0.17971
 H596 H 0.54132 0.95933 0.24174
 H597 H 0.63581 0.92160 0.20879
 H598 H 0.59228 0.88929 0.30054
 H599 H 0.52440 0.89499 0.27068
 H600 H 0.61721 0.85584 0.23786
 C601 C 0.41299 0.26554 0.88503
 C602 C 0.37847 0.25181 0.90322
 C603 C 0.39436 0.26141 0.93959
 C604 C 0.42837 0.27517 0.92177
 C605 C 0.41082 0.22461 0.94243
 C606 C 0.39545 0.21517 0.90603
 C607 C 0.42948 0.22912 0.88857
 C608 C 0.44488 0.23859 0.92487
 H609 H 0.41397 0.28215 0.86104
 H610 H 0.35083 0.25627 0.89403
 H611 H 0.44206 0.29991 0.92833
 H612 H 0.41002 0.20643 0.96524
 H613 H 0.38205 0.19033 0.89930
 H614 H 0.47225 0.23304 0.93406
 C615 C 0.56090 0.73810 0.90054
 C616 C 0.60040 0.72688 0.89797
 C617 C 0.60632 0.73897 0.93651
 C618 C 0.56673 0.74971 0.93896
 C619 C 0.61628 0.77566 0.92352
 C620 C 0.61030 0.76402 0.88470
 C621 C 0.57108 0.77477 0.88796
 C622 C 0.57689 0.78644 0.92637
 H623 H 0.53799 0.72267 0.89081
 H624 H 0.60850 0.70210 0.88536
 H625 H 0.54795 0.74373 0.96083
 H626 H 0.63921 0.79121 0.93304
 H627 H 0.62807 0.77009 0.86206
 H628 H 0.56726 0.81095 0.93855
 C629 C 0.38631 0.76123 0.11700
 C630 C 0.38014 0.77445 0.07866
 C631 C 0.38987 0.73830 0.06423
 C632 C 0.39595 0.72458 0.10224
 C633 C 0.42957 0.74896 0.06206
 C634 C 0.41958 0.78517 0.07604
 C635 C 0.42560 0.77200 0.11397
 C636 C 0.43553 0.73582 0.09996
 H637 H 0.36868 0.76642 0.13994
 H638 H 0.35726 0.79051 0.06991
 H639 H 0.38780 0.69933 0.11395
 H640 H 0.44831 0.74389 0.03993
 H641 H 0.42923 0.81007 0.06460
 H642 H 0.45856 0.72004 0.10886
 C643 C 0.60516 0.21443 0.09645
 C644 C 0.59026 0.22361 0.05976
 C645 C 0.60574 0.26084 0.06284
 C646 C 0.62116 0.25151 0.09952
 C647 C 0.57103 0.27361 0.08006
 C648 C 0.55552 0.23663 0.07668
 C649 C 0.57045 0.22741 0.11328
 C650 C 0.58596 0.26425 0.11709
 H651 H 0.61907 0.18991 0.10340
 H652 H 0.59196 0.20554 0.03696
 H653 H 0.64849 0.25655 0.10930
 H654 H 0.55680 0.29801 0.07330
 H655 H 0.52849 0.23037 0.06694
 H656 H 0.58412 0.28078 0.14102
 C657 C 0.26012 0.09595 0.55698
 C658 C 0.27813 0.09942 0.59351
 C659 C 0.26197 0.06408 0.60472
 C660 C 0.24436 0.06064 0.56795
 C661 C 0.22861 0.08246 0.61910
 C662 C 0.24434 0.11821 0.60781
 C663 C 0.22672 0.11400 0.57146
 C664 C 0.21095 0.07870 0.58250
 H665 H 0.27296 0.10165 0.53116
 H666 H 0.30602 0.10823 0.59692
 H667 H 0.24436 0.03791 0.54990
 H668 H 0.21562 0.07681 0.64483
 H669 H 0.24415 0.14222 0.62404
 H670 H 0.18321 0.06981 0.57809
 C671 C 0.78931 0.07313 0.41742
 C672 C 0.75404 0.05665 0.42955
 C673 C 0.74014 0.05917 0.39114
 C674 C 0.77532 0.07595 0.37919
 C675 C 0.72423 0.09537 0.39935
 C676 C 0.73864 0.09283 0.43756
 C677 C 0.77385 0.10930 0.42548
 C678 C 0.75987 0.11255 0.38748
 H679 H 0.81615 0.06359 0.42480
 H680 H 0.75155 0.03440 0.44814
 H681 H 0.79049 0.06895 0.35504
 H682 H 0.69711 0.10496 0.39318
 H683 H 0.72364 0.09996 0.46176
 H684 H 0.76241 0.13589 0.37037
 C685 C 0.78407 0.92365 0.57635
 C686 C 0.74886 0.93927 0.56328
 C687 C 0.73423 0.93749 0.60147
 C688 C 0.76938 0.92149 0.61436
 C689 C 0.71903 0.90084 0.59400
 C690 C 0.73414 0.90267 0.55592
 C691 C 0.76934 0.88703 0.56893
 C692 C 0.75466 0.88447 0.60679
 H693 H 0.81089 0.93357 0.56922
 H694 H 0.74641 0.96099 0.54407
 H695 H 0.78394 0.92935 0.63854
 H696 H 0.69194 0.89116 0.60031
 H697 H 0.71971 0.89471 0.53171
 H698 H 0.75719 0.86160 0.62453
 C699 C 0.27003 0.88390 0.41886
 C700 C 0.25690 0.90314 0.38503
 C701 C 0.26707 0.93826 0.40218
 C702 C 0.28023 0.91942 0.43556
 C703 C 0.22919 0.94104 0.41812
 C704 C 0.21919 0.90590 0.40144
 C705 C 0.23253 0.88733 0.43478
 C706 C 0.24254 0.92239 0.45154
 H707 H 0.28660 0.86003 0.41921
 H708 H 0.26169 0.89485 0.35736
 H709 H 0.30539 0.92502 0.44974
 H710 H 0.21113 0.96388 0.41789
 H711 H 0.19393 0.90012 0.38751
 H712 H 0.23647 0.93038 0.47909
 C713 C 0.09989 0.43916 0.73281
 C714 C 0.10289 0.40062 0.72120
 C715 C 0.06463 0.39388 0.73484
 C716 C 0.06176 0.43253 0.74596
 C717 C 0.07912 0.38437 0.77161
 C718 C 0.11767 0.39115 0.75840
 C719 C 0.11393 0.42938 0.76956
 C720 C 0.07582 0.42277 0.78277
 H721 H 0.10856 0.46202 0.71703
 H722 H 0.11505 0.39315 0.69559
 H723 H 0.03924 0.45048 0.74072
 H724 H 0.07056 0.36168 0.78769
 H725 H 0.14099 0.37428 0.76372
 H726 H 0.06417 0.43184 0.80811
 C727 C 0.07840 0.55967 0.23540
 C728 C 0.08211 0.57389 0.27322
 C729 C 0.06713 0.60903 0.26064
 C730 C 0.06381 0.59479 0.22256
 C731 C 0.10517 0.62207 0.25204
 C732 C 0.12039 0.58648 0.26465
 C733 C 0.11626 0.57228 0.22695
 C734 C 0.10175 0.60734 0.21405
 H735 H 0.06700 0.53404 0.22829
 H736 H 0.07398 0.55994 0.29764
 H737 H 0.04103 0.59819 0.20425
 H738 H 0.11709 0.64796 0.25721
 H739 H 0.14401 0.58293 0.28180
 H740 H 0.11005 0.62095 0.18950
 C741 C 0.90081 0.39706 0.21972
 C742 C 0.93884 0.40996 0.22696
 C743 C 0.93646 0.39622 0.26538
 C744 C 0.89836 0.38275 0.25800
 C745 C 0.92155 0.43139 0.27784
 C746 C 0.92428 0.44516 0.23967
 C747 C 0.88634 0.43219 0.23245
 C748 C 0.88317 0.41841 0.27047
 H749 H 0.89204 0.38311 0.19561
 H750 H 0.96129 0.40654 0.20818
 H751 H 0.88676 0.35682 0.26380
 H752 H 0.93010 0.44572 0.30181
 H753 H 0.93534 0.47075 0.23182
 H754 H 0.85990 0.42200 0.28818
 C755 C 0.88139 0.58155 0.73076
 C756 C 0.90013 0.61584 0.74245
 C757 C 0.93648 0.59964 0.73255
 C758 C 0.91812 0.56582 0.72083
 C759 C 0.94008 0.58531 0.77066
 C760 C 0.90373 0.60103 0.78041
 C761 C 0.88568 0.56724 0.76848
 C762 C 0.92195 0.55145 0.75871
 H763 H 0.85687 0.57996 0.71458
 H764 H 0.89065 0.64263 0.73701
 H765 H 0.92406 0.55118 0.69627
 H766 H 0.96367 0.58681 0.78819
 H767 H 0.89761 0.61540 0.80509
 H768 H 0.93101 0.52478 0.76553
 C769 C 0.75890 0.60422 0.88354
 C770 C 0.72484 0.59033 0.90248
 C771 C 0.74158 0.59953 0.93857
 C772 C 0.77514 0.61352 0.92007
 C773 C 0.75818 0.56272 0.94057
 C774 C 0.74193 0.55373 0.90446
 C775 C 0.77559 0.56779 0.88628
 C776 C 0.79184 0.57689 0.92239
 H777 H 0.75930 0.62112 0.85976
 H778 H 0.69699 0.59504 0.89409
 H779 H 0.78891 0.63824 0.92655
 H780 H 0.75793 0.54404 0.96297
 H781 H 0.72837 0.52891 0.89789
 H782 H 0.81948 0.57149 0.93108
 C783 C 0.22955 0.44368 0.92072
 C784 C 0.21616 0.40887 0.93579
 C785 C 0.25482 0.39498 0.93490
 C786 C 0.26798 0.42975 0.91950
 C787 C 0.24841 0.38062 0.89725
 C788 C 0.20987 0.39508 0.89815
 C789 C 0.22329 0.42985 0.88319
 C790 C 0.26158 0.41588 0.88155
 H791 H 0.22149 0.46951 0.93084
 H792 H 0.19635 0.40602 0.95741
 H793 H 0.29192 0.44424 0.92828
 H794 H 0.25484 0.35436 0.88698
 H795 H 0.18579 0.38096 0.88915
 H796 H 0.28012 0.41884 0.85889
 C797 C 0.25806 0.55002 0.09219
 C798 C 0.24152 0.55973 0.05633
 C799 C 0.25985 0.59577 0.05803
 C800 C 0.27678 0.58589 0.09384
 C801 C 0.22727 0.61112 0.07712
 C802 C 0.20889 0.57523 0.07514
 C803 C 0.22540 0.56541 0.11093
 C804 C 0.24372 0.60109 0.11334
 H805 H 0.27064 0.52467 0.09863
 H806 H 0.24027 0.54059 0.03445
 H807 H 0.30498 0.58976 0.10151
 H808 H 0.21450 0.63640 0.07082
 H809 H 0.18085 0.57103 0.06706
 H810 H 0.24447 0.61793 0.13711
 C811 C 0.76774 0.44788 0.08322
 C812 C 0.78101 0.41363 0.06693
 C813 C 0.74262 0.39911 0.06883
 C814 C 0.72956 0.43334 0.08541
 C815 C 0.75048 0.38401 0.10591
 C816 C 0.78876 0.39895 0.10397
 C817 C 0.77550 0.43313 0.12018
 C818 C 0.73743 0.41868 0.12282
 H819 H 0.77492 0.47434 0.07379
 H820 H 0.80003 0.41157 0.04455
 H821 H 0.70513 0.44763 0.07770
 H822 H 0.74450 0.35744 0.11577
 H823 H 0.81330 0.38491 0.11181
 H824 H 0.71968 0.42085 0.14617
 C825 C 0.88021 0.73736 0.58372
 C826 C 0.91727 0.72939 0.56744
 C827 C 0.93526 0.74139 0.60179
 C828 C 0.89858 0.74933 0.61856
 C829 C 0.93716 0.77919 0.58761
 C830 C 0.91944 0.76695 0.55322
 C831 C 0.88282 0.77481 0.56954
 C832 C 0.90047 0.78699 0.60388
 H833 H 0.85642 0.72036 0.58209
 H834 H 0.92420 0.70566 0.55225
 H835 H 0.88965 0.74303 0.64579
 H836 H 0.95971 0.79779 0.58918
 H837 H 0.92818 0.77433 0.52618
 H838 H 0.89334 0.81084 0.61879
 C839 C 0.92221 0.22893 0.44176
 C840 C 0.94041 0.21424 0.40858
 C841 C 0.93883 0.25091 0.39167
 C842 C 0.92033 0.26539 0.42481
 C843 C 0.90238 0.24191 0.37513
 C844 C 0.90393 0.20538 0.39253
 C845 C 0.88583 0.21999 0.42572
 C846 C 0.88351 0.25631 0.40880
 H847 H 0.93069 0.22352 0.46922
 H848 H 0.96260 0.19521 0.40871
 H849 H 0.92716 0.29012 0.43829
 H850 H 0.89412 0.24659 0.34740
 H851 H 0.89691 0.18055 0.37934
 H852 H 0.85975 0.27341 0.40894
 C853 C 0.08720 0.20647 0.59472
 C854 C 0.08988 0.23887 0.61880
 C855 C 0.05780 0.25519 0.59941
 C856 C 0.05511 0.22257 0.57556
 C857 C 0.08299 0.27268 0.57261
 C858 C 0.11555 0.25620 0.59152
 C859 C 0.11213 0.22390 0.56779
 C860 C 0.08013 0.24018 0.54877
 H861 H 0.08909 0.17909 0.60389
 H862 H 0.09385 0.23791 0.64783
 H863 H 0.03194 0.20634 0.56802
 H864 H 0.08117 0.30002 0.56334
 H865 H 0.14072 0.26980 0.59805
 H866 H 0.07613 0.24112 0.51979
 C867 C 0.08172 0.79293 0.42251
 C868 C 0.08494 0.77520 0.38604
 C869 C 0.06533 0.74323 0.40091
 C870 C 0.06246 0.76088 0.43759
 C871 C 0.10110 0.72664 0.41204
 C872 C 0.12115 0.75908 0.39724
 C873 C 0.11749 0.77680 0.43347
 C874 C 0.09822 0.74475 0.44843
 H875 H 0.07329 0.82029 0.42666
 H876 H 0.07945 0.78784 0.36024
 H877 H 0.03939 0.76170 0.45594
 H878 H 0.10936 0.69911 0.40891
 H879 H 0.14563 0.75845 0.38081
 H880 H 0.10384 0.73231 0.47432
 C881 C 0.55245 0.90748 0.74537
 C882 C 0.56259 0.94283 0.76144
 C883 C 0.59940 0.94085 0.74311
 C884 C 0.58900 0.90553 0.72659
 C885 C 0.61514 0.92229 0.77551
 C886 C 0.57850 0.92454 0.79394
 C887 C 0.56826 0.88922 0.77785
 C888 C 0.60466 0.88652 0.75946
 H889 H 0.52648 0.90116 0.73303
 H890 H 0.54366 0.96497 0.76234
 H891 H 0.59237 0.89752 0.69863
 H892 H 0.64108 0.92848 0.78797
 H893 H 0.57429 0.93273 0.82174
 H894 H 0.62178 0.86303 0.75879
 C895 C 0.41442 0.88274 0.26263
 C896 C 0.43203 0.91827 0.27121
 C897 C 0.39841 0.93723 0.25841
 C898 C 0.38033 0.90209 0.24987
 C899 C 0.41352 0.93876 0.22032
 C900 C 0.44719 0.92001 0.23332
 C901 C 0.42952 0.88491 0.22489
 C902 C 0.39591 0.90356 0.21193
 H903 H 0.41480 0.85934 0.27982
 H904 H 0.44708 0.92437 0.29562
 H905 H 0.35247 0.89449 0.25586
 H906 H 0.41322 0.96088 0.20144
 H907 H 0.47487 0.92749 0.22635
 H908 H 0.38113 0.89728 0.18740
 C909 C 0.55439 0.09510 0.25584
 C910 C 0.56278 0.05935 0.23968
 C911 C 0.60071 0.06080 0.25552
 C912 C 0.59210 0.09655 0.27215
 C913 C 0.61474 0.07863 0.22185
 C914 C 0.57698 0.07688 0.20592
 C915 C 0.56852 0.11263 0.22209
 C916 C 0.60605 0.11481 0.23802
 H917 H 0.52932 0.10203 0.26970
 H918 H 0.54342 0.03753 0.24038
 H919 H 0.59739 0.10490 0.29970
 H920 H 0.63971 0.07180 0.20778
 H921 H 0.57085 0.06836 0.17859
 H922 H 0.62370 0.13795 0.23722
 C923 C 0.39745 0.09776 0.79405
 C924 C 0.37905 0.09968 0.75749
 C925 C 0.39680 0.06491 0.74689
 C926 C 0.41475 0.06297 0.78367
 C927 C 0.42917 0.08454 0.73187
 C928 C 0.41188 0.11969 0.74247
 C929 C 0.42980 0.11705 0.77886
 C930 C 0.44714 0.08234 0.76843
 H931 H 0.38449 0.10342 0.81978
 H932 H 0.35074 0.10714 0.75416
 H933 H 0.41608 0.04064 0.80226
 H934 H 0.44241 0.07907 0.70624
 H935 H 0.41073 0.14339 0.72573
 H936 H 0.47534 0.07511 0.77308
 C937 C 0.57204 0.78379 0.07614
 C938 C 0.61119 0.77283 0.08083
 C939 C 0.60209 0.73656 0.06620
 C940 C 0.56269 0.74748 0.06188
 C941 C 0.59378 0.72327 0.10397
 C942 C 0.60284 0.75995 0.11887
 C943 C 0.56386 0.77091 0.11379
 C944 C 0.55446 0.73467 0.09957
 H945 H 0.56316 0.80869 0.06418
 H946 H 0.63466 0.78866 0.07312
 H947 H 0.54531 0.74227 0.03881
 H948 H 0.60120 0.69811 0.11627
 H949 H 0.61922 0.76525 0.14261
 H950 H 0.53085 0.71909 0.10740
 C951 C 0.44239 0.23324 0.07742
 C952 C 0.40411 0.22394 0.06672
 C953 C 0.39422 0.26299 0.06832
 C954 C 0.43252 0.27204 0.07944
 C955 C 0.38332 0.25851 0.10758
 C956 C 0.39372 0.21946 0.10583
 C957 C 0.43191 0.22883 0.11645
 C958 C 0.42207 0.26755 0.11884
 H959 H 0.46646 0.22246 0.06450
 H960 H 0.39674 0.20534 0.04556
 H961 H 0.44874 0.29371 0.06857
 H962 H 0.35884 0.26729 0.12130
 H963 H 0.37787 0.19761 0.11687
 H964 H 0.42959 0.28540 0.14060
 C965 C 0.57745 0.26888 0.88363
 C966 C 0.56699 0.27272 0.92309
 C967 C 0.60534 0.26377 0.93406
 C968 C 0.61625 0.25991 0.89476
 C969 C 0.59568 0.22464 0.93525
 C970 C 0.55735 0.23383 0.92468
 C971 C 0.56782 0.23006 0.88560
 C972 C 0.60607 0.22077 0.89608
 H973 H 0.56982 0.28698 0.86209
 H974 H 0.55066 0.29413 0.93421
 H975 H 0.64070 0.26905 0.88118
 H976 H 0.60318 0.20578 0.95619
 H977 H 0.53340 0.22265 0.93752
 H978 H 0.62201 0.19918 0.88477
 C979 C 0.39736 0.75832 0.88173
 C980 C 0.41001 0.72463 0.90083
 C981 C 0.39704 0.73986 0.93641
 C982 C 0.38437 0.77315 0.91768
 C983 C 0.43417 0.75629 0.94225
 C984 C 0.44692 0.74149 0.90669
 C985 C 0.43402 0.77475 0.88828
 C986 C 0.42128 0.78963 0.92381
 H987 H 0.38240 0.75932 0.85652
 H988 H 0.40702 0.69768 0.89084
 H989 H 0.35845 0.78623 0.92225
 H990 H 0.45061 0.75540 0.96657
 H991 H 0.47287 0.72856 0.90205
 H992 H 0.42584 0.81646 0.93363
 C993 C 0.73438 0.89967 0.44147
 C994 C 0.74799 0.93671 0.43394
 C995 C 0.73788 0.93283 0.39451
 C996 C 0.72379 0.89570 0.40211
 C997 C 0.77510 0.91819 0.38631
 C998 C 0.78525 0.92244 0.42551
 C999 C 0.77158 0.88543 0.43298
 C1000 C 0.76143 0.88079 0.39396
 H1001 H 0.71768 0.89190 0.46436
 H1002 H 0.74235 0.95938 0.45122
 H1003 H 0.69819 0.88380 0.39406
 H1004 H 0.79199 0.92581 0.36348
 H1005 H 0.81055 0.93393 0.43509
 H1006 H 0.76713 0.85748 0.37765
 C1007 C 0.21522 0.92221 0.57847
 C1008 C 0.23028 0.91840 0.61614
 C1009 C 0.26503 0.93582 0.60381
 C1010 C 0.25002 0.93924 0.56589
 C1011 C 0.28088 0.89992 0.59410
 C1012 C 0.24569 0.88215 0.60640
 C1013 C 0.23062 0.88636 0.56891
 C1014 C 0.26539 0.90340 0.55636
 H1015 H 0.18815 0.93188 0.57216
 H1016 H 0.21573 0.92461 0.64089
 H1017 H 0.25187 0.96205 0.54795
 H1018 H 0.30818 0.89020 0.59914
 H1019 H 0.24376 0.85836 0.62292
 H1020 H 0.27969 0.89711 0.53149
 C1021 C 0.22040 0.09831 0.40252
 C1022 C 0.25893 0.10137 0.38816
 C1023 C 0.26755 0.06498 0.40339
 C1024 C 0.22891 0.06197 0.41733
 C1025 C 0.27932 0.08135 0.43856
 C1026 C 0.27068 0.11809 0.42375
 C1027 C 0.23238 0.11437 0.43762
 C1028 C 0.24088 0.07810 0.45252
 H1029 H 0.19596 0.10546 0.38781
 H1030 H 0.26511 0.11155 0.36140
 H1031 H 0.21073 0.03936 0.41470
 H1032 H 0.30364 0.07433 0.45351
 H1033 H 0.28769 0.14152 0.42649
 H1034 H 0.23330 0.06841 0.47915
 C1035 C 0.73152 0.09941 0.55094
 C1036 C 0.74461 0.06224 0.55853
 C1037 C 0.73290 0.06576 0.59759
 C1038 C 0.71930 0.10301 0.58992
 C1039 C 0.76978 0.08017 0.60737
 C1040 C 0.78154 0.07625 0.56855
 C1041 C 0.76840 0.11340 0.56098
 C1042 C 0.75664 0.11769 0.59963
 H1043 H 0.71582 0.10756 0.52756
 H1044 H 0.73956 0.03992 0.54064
 H1045 H 0.69336 0.11466 0.59733
 H1046 H 0.78563 0.07220 0.63072
 H1047 H 0.80715 0.06470 0.55984
 H1048 H 0.76175 0.14081 0.61639
 C1049 C 0.92490 0.55693 0.23818
 C1050 C 0.93876 0.59215 0.22463
 C1051 C 0.93605 0.60677 0.26264
 C1052 C 0.92184 0.57153 0.27596
 C1053 C 0.89766 0.61916 0.25485
 C1054 C 0.90047 0.60407 0.21697
 C1055 C 0.88670 0.56891 0.23057
 C1056 C 0.88320 0.58349 0.26821
 H1057 H 0.93656 0.53143 0.23103
 H1058 H 0.96105 0.59569 0.20566
 H1059 H 0.93065 0.55797 0.30032
 H1060 H 0.88556 0.64494 0.26012
 H1061 H 0.89150 0.61732 0.19249
 H1062 H 0.86002 0.57980 0.28603
 C1063 C 0.90257 0.44539 0.73668
 C1064 C 0.93930 0.43496 0.75105
 C1065 C 0.93411 0.39759 0.73671
 C1066 C 0.89733 0.40820 0.72190
 C1067 C 0.91686 0.38648 0.77189
 C1068 C 0.92239 0.42363 0.78626
 C1069 C 0.88568 0.43404 0.77184
 C1070 C 0.87974 0.39712 0.75749
 H1071 H 0.89659 0.46993 0.72237
 H1072 H 0.96319 0.45175 0.74832
 H1073 H 0.88645 0.40328 0.69515
 H1074 H 0.92277 0.36210 0.78646
 H1075 H 0.93314 0.42989 0.81279
 H1076 H 0.85493 0.38171 0.76030
 C1077 C 0.07833 0.54892 0.75719
 C1078 C 0.06255 0.58386 0.76922
 C1079 C 0.06577 0.59758 0.73085
 C1080 C 0.08183 0.56264 0.71904
 C1081 C 0.10331 0.61183 0.73928
 C1082 C 0.10001 0.59771 0.77754
 C1083 C 0.11573 0.56285 0.76551
 C1084 C 0.11969 0.57647 0.72748
 H1085 H 0.06796 0.52286 0.76467
 H1086 H 0.03950 0.58689 0.78735
 H1087 H 0.07430 0.54808 0.69488
 H1088 H 0.11429 0.63796 0.73322
 H1089 H 0.10766 0.61202 0.80180
 H1090 H 0.14355 0.57332 0.71048
 C1091 C 0.07608 0.44797 0.23741
 C1092 C 0.06227 0.41223 0.22543
 C1093 C 0.06567 0.39891 0.26388
 C1094 C 0.07977 0.43464 0.27565
 C1095 C 0.10400 0.38648 0.25587
 C1096 C 0.10053 0.40028 0.21751
 C1097 C 0.11424 0.43593 0.22956
 C1098 C 0.11837 0.42264 0.26765
 H1099 H 0.06419 0.47316 0.22952
 H1100 H 0.03952 0.40796 0.20729
 H1101 H 0.07117 0.44889 0.29967
 H1102 H 0.11631 0.36097 0.26199
 H1103 H 0.10926 0.38631 0.19337
 H1104 H 0.14179 0.42707 0.28486
   
