data_POSCAR
  _audit_creation_date              2014-09-24
  _audit_creation_method            'ToBaCCo'
  _symmetry_space_group_name_H-M    'P1'
  _symmetry_Int_Tables_number       1
  _symmetry_cell_setting            triclinic
  loop_
  _symmetry_equiv_pos_as_xyz
 x,y,z
_cell_length_a 35.3899
_cell_length_b 33.9258
_cell_length_c 38.1161
_cell_angle_alpha 89.919800
_cell_angle_beta 90.199100
_cell_angle_gamma 122.480200
loop_
  _atom_site_label
  _atom_site_type_symbol
  _atom_site_fract_x
  _atom_site_fract_y
  _atom_site_fract_z
C1 C -0.00397 0.47323 1.34178
 C2 C 0.03629 0.49677 1.32276
 C3 C 0.03397 0.49426 1.28591
 C4 C -0.00693 0.46403 1.26833
 C5 C -0.04642 0.43892 1.28853
 C6 C -0.04579 0.44574 1.32503
 C7 C -0.00838 0.45909 1.22906
 C8 C -0.04787 0.44538 1.20994
 C9 C -0.04917 0.44097 1.17332
 C10 C -0.01049 0.45165 1.15518
 C11 C 0.02927 0.46597 1.17339
 C12 C 0.02995 0.46869 1.21012
 H13 H -0.00273 0.47665 1.37008
 H14 H 0.06454 0.51424 1.27109
 H15 H -0.07808 0.41583 1.27570
 H16 H -0.07766 0.43925 1.22294
 H17 H -0.01121 0.44938 1.12678
 H18 H 0.06063 0.47793 1.22350
 C19 C 0.53210 0.52897 1.34113
 C20 C 0.51150 0.54836 1.32252
 C21 C 0.51915 0.55541 1.28619
 C22 C 0.54911 0.54672 1.26873
 C23 C 0.57251 0.53167 1.28916
 C24 C 0.56250 0.52008 1.32491
 C25 C 0.55282 0.54951 1.22918
 C26 C 0.56875 0.52518 1.21060
 C27 C 0.56762 0.52325 1.17387
 C28 C 0.54859 0.54386 1.15513
 C29 C 0.53274 0.56839 1.17259
 C30 C 0.53685 0.57300 1.20924
 H31 H 0.52767 0.52461 1.36925
 H32 H 0.49914 0.56492 1.27150
 H33 H 0.59667 0.52613 1.27691
 H34 H 0.58030 0.50553 1.22402
 H35 H 0.54627 0.54097 1.12677
 H36 H 0.52576 0.59358 1.22174
 C37 C 0.46594 0.99803 1.34435
 C38 C 0.44515 0.95667 1.32492
 C39 C 0.44244 0.95847 1.28848
 C40 C 0.45770 1.00106 1.27078
 C41 C 0.47537 1.04205 1.29142
 C42 C 0.48178 1.04146 1.32804
 C43 C 0.45803 1.00272 1.23113
 C44 C 0.48566 1.04503 1.21266
 C45 C 0.48937 1.04559 1.17596
 C46 C 0.46722 1.00339 1.15741
 C47 C 0.43935 0.96113 1.17483
 C48 C 0.43315 0.96125 1.21110
 H49 H 0.46759 0.99571 1.37261
 H50 H 0.42957 0.92604 1.27454
 H51 H 0.48663 1.07506 1.27896
 H52 H 0.50589 1.07789 1.22620
 H53 H 0.47092 1.00343 1.12918
 H54 H 0.40979 0.92816 1.22325
 C55 C 1.00651 0.51165 0.65634
 C56 C 0.96627 0.48922 0.67463
 C57 C 0.96645 0.49400 0.71103
 C58 C 1.00693 0.52295 0.72972
 C59 C 1.04710 0.54817 0.70991
 C60 C 1.04762 0.54072 0.67351
 C61 C 1.00754 0.52360 0.76947
 C62 C 1.04802 0.54074 0.78851
 C63 C 1.04805 0.53677 0.82515
 C64 C 1.00750 0.51419 0.84320
 C65 C 0.96711 0.49702 0.82542
 C66 C 0.96726 0.50348 0.78907
 H67 H 1.00520 0.50767 0.62806
 H68 H 0.93463 0.47339 0.72407
 H69 H 1.07855 0.57153 0.72276
 H70 H 1.07986 0.55556 0.77556
 H71 H 1.00727 0.51008 0.87144
 H72 H 0.93534 0.49109 0.77669
 C73 C 0.49975 0.49526 0.65888
 C74 C 0.51161 0.46904 0.67892
 C75 C 0.50861 0.46909 0.71559
 C76 C 0.49720 0.49839 0.73272
 C77 C 0.48508 0.52429 0.71163
 C78 C 0.48572 0.52215 0.67496
 C79 C 0.50166 0.50509 0.77190
 C80 C 0.48046 0.52439 0.79019
 C81 C 0.48982 0.53642 0.82577
 C82 C 0.51778 0.52623 0.84407
 C83 C 0.53691 0.50458 0.82727
 C84 C 0.52971 0.49508 0.79127
 H85 H 0.50151 0.49476 0.63049
 H86 H 0.51689 0.44745 0.73025
 H87 H 0.47698 0.54796 0.72306
 H88 H 0.45742 0.53122 0.77711
 H89 H 0.52368 0.53409 0.87187
 H90 H 0.54748 0.48121 0.77876
 C91 C 0.48621 -0.00931 0.65542
 C92 C 0.50868 0.03312 0.67339
 C93 C 0.51214 0.03341 0.70995
 C94 C 0.48886 -0.00870 0.72935
 C95 C 0.46383 -0.05119 0.71042
 C96 C 0.46432 -0.05209 0.67344
 C97 C 0.48916 -0.00825 0.76894
 C98 C 0.47703 -0.04895 0.78857
 C99 C 0.47143 -0.05043 0.82531
 C100 C 0.48289 -0.00887 0.84266
 C101 C 0.49825 0.03253 0.82422
 C102 C 0.50011 0.03255 0.78763
 H103 H 0.48417 -0.00861 0.62706
 H104 H 0.53214 0.06693 0.72269
 H105 H 0.44502 -0.08394 0.72419
 H106 H 0.46981 -0.08030 0.77534
 H107 H 0.48240 -0.00765 0.87106
 H108 H 0.50925 0.06461 0.77438
 O109 O 0.39294 0.64750 0.97138
 O110 O 0.38682 0.72070 0.96378
 C111 C 0.36546 0.74100 0.96225
 O112 O 0.33294 0.73059 0.98247
 O113 O 0.25995 0.64856 0.97313
 C114 C 0.23932 0.60513 0.96674
 O115 O 0.24797 0.57784 0.98258
 O116 O 0.32310 0.58685 0.96393
 C117 C 0.36389 0.61086 0.95495
 O118 O 0.39934 0.66066 1.04141
 O119 O 0.39678 0.73627 1.03352
 C120 C 0.37069 0.74116 1.05338
 O121 O 0.32840 0.71460 1.05153
 O122 O 0.25307 0.63429 1.04323
 C123 C 0.24921 0.59936 1.05909
 O124 O 0.27055 0.58058 1.05031
 O125 O 0.34491 0.58640 1.03169
 C126 C 0.38115 0.61719 1.04675
 Cr127 Cr 0.39154 0.68978 1.00277
 Cr128 Cr 0.29472 0.68077 1.01240
 Cr129 Cr 0.29787 0.58550 1.00720
 O130 O 0.32807 0.65200 1.00771
 O131 O 0.60395 0.33593 0.95473
 O132 O 0.60223 0.25901 0.96569
 C133 C 0.62964 0.25604 0.94618
 O134 O 0.67160 0.28083 0.95113
 O135 O 0.74713 0.35922 0.96412
 C136 C 0.75260 0.39451 0.94753
 O137 O 0.73078 0.41325 0.95473
 O138 O 0.65674 0.40952 0.96826
 C139 C 0.62374 0.37959 0.94961
 O140 O 0.60198 0.34839 1.02408
 O141 O 0.60560 0.27406 1.03525
 C142 C 0.62555 0.25246 1.03914
 O143 O 0.65895 0.26107 1.02046
 O144 O 0.73281 0.34179 1.03342
 C145 C 0.75489 0.38533 1.03970
 O146 O 0.74763 0.41368 1.02377
 O147 O 0.67121 0.40630 1.03756
 C148 C 0.62918 0.38416 1.04213
 Cr149 Cr 0.60574 0.30567 0.99500
 Cr150 Cr 0.70145 0.31180 0.99241
 Cr151 Cr 0.70046 0.40826 0.99612
 O152 O 0.66932 0.34198 0.99469
 O153 O 0.66334 0.41455 0.52798
 O154 O 0.73592 0.41480 0.54066
 C155 C 0.75673 0.39479 0.54766
 O156 O 0.75042 0.35949 0.53057
 O157 O 0.67507 0.28285 0.54606
 C158 C 0.63366 0.25952 0.55312
 O159 O 0.60526 0.26383 0.53580
 O160 O 0.61025 0.34314 0.54519
 C161 C 0.63104 0.38723 0.54802
 O162 O 0.67338 0.40720 0.45897
 O163 O 0.74955 0.41249 0.47166
 C164 C 0.75547 0.38329 0.45576
 O165 O 0.73153 0.33975 0.46160
 O166 O 0.65701 0.26073 0.47764
 C167 C 0.62161 0.25137 0.46135
 O168 O 0.60311 0.27429 0.46586
 O169 O 0.60429 0.35176 0.47543
 C170 C 0.63108 0.38639 0.45616
 Cr171 Cr 0.70440 0.40983 0.49980
 Cr172 Cr 0.70235 0.31186 0.50382
 Cr173 Cr 0.60804 0.30949 0.50541
 O174 O 0.67155 0.34363 0.50275
 O175 O 0.32559 0.58558 0.53994
 O176 O 0.25124 0.58059 0.52423
 C177 C 0.24481 0.60960 0.53966
 O178 O 0.26841 0.65309 0.53369
 O179 O 0.34433 0.73164 0.52163
 C180 C 0.37898 0.74006 0.53855
 O181 O 0.39790 0.71759 0.53424
 O182 O 0.39598 0.63990 0.52610
 C183 C 0.36735 0.60689 0.54565
 O184 O 0.33987 0.57810 0.47157
 O185 O 0.26715 0.57842 0.45634
 C186 C 0.24599 0.59813 0.44952
 O187 O 0.25469 0.63602 0.46396
 O188 O 0.33221 0.71400 0.45213
 C189 C 0.37431 0.73743 0.44766
 O190 O 0.40036 0.72972 0.46506
 O191 O 0.39408 0.64987 0.45587
 C192 C 0.37395 0.60587 0.45318
 Cr193 Cr 0.29735 0.58321 0.49788
 Cr194 Cr 0.30103 0.68244 0.49287
 Cr195 Cr 0.39463 0.68288 0.49524
 O196 O 0.33094 0.64965 0.49519
 C197 C 0.48347 0.60052 0.32895
 C198 C 0.48445 0.56133 0.34010
 C199 C 0.45941 0.53686 0.37010
 C200 C 0.43565 0.55208 0.38909
 C201 C 0.43735 0.59296 0.37868
 C202 C 0.46070 0.61643 0.34825
 C203 C 0.41630 0.61008 0.39922
 C204 C 0.39255 0.58602 0.42954
 C205 C 0.38912 0.54405 0.43860
 C206 C 0.41077 0.52742 0.41873
 H207 H 0.45748 0.50529 0.37847
 H208 H 0.46210 0.64766 0.33971
 H209 H 0.41870 0.64223 0.39185
 H210 H 0.40871 0.49572 0.42692
 H211 H 0.50265 0.62100 0.30649
 H212 H 0.37112 0.52502 0.46193
 C213 C 0.38054 0.87614 0.33814
 C214 C 0.42593 0.91116 0.34283
 C215 C 0.45251 0.90304 0.36528
 C216 C 0.43376 0.86063 0.38348
 C217 C 0.38763 0.82614 0.37970
 C218 C 0.36143 0.83405 0.35661
 C219 C 0.36836 0.78489 0.39965
 C220 C 0.39478 0.77756 0.42311
 C221 C 0.44101 0.81135 0.42539
 C222 C 0.46024 0.85250 0.40591
 H223 H 0.48768 0.92987 0.36864
 H224 H 0.32610 0.80799 0.35318
 H225 H 0.33275 0.75912 0.39750
 H226 H 0.49569 0.87839 0.40893
 H227 H 0.35963 0.88194 0.32084
 H228 H 0.46223 0.80685 0.44331
 C229 C 0.11489 0.56316 0.32746
 C230 C 0.07796 0.52115 0.34063
 C231 C 0.08362 0.50294 0.37211
 C232 C 0.12466 0.52585 0.38997
 C233 C 0.16065 0.56909 0.37745
 C234 C 0.15544 0.58732 0.34606
 C235 C 0.20103 0.59311 0.39664
 C236 C 0.20606 0.57298 0.42711
 C237 C 0.17079 0.52907 0.43832
 C238 C 0.13022 0.50592 0.42019
 H239 H 0.05665 0.46960 0.38204
 H240 H 0.18272 0.62023 0.33586
 H241 H 0.22837 0.62703 0.38796
 H242 H 0.10310 0.47256 0.42993
 H243 H 0.11197 0.57877 0.30364
 H244 H 0.17416 0.51343 0.46198
 C245 C 0.62506 0.50906 0.33733
 C246 C 0.58151 0.49895 0.34424
 C247 C 0.55654 0.46631 0.37094
 C248 C 0.57449 0.44505 0.39041
 C249 C 0.61870 0.45693 0.38415
 C250 C 0.64358 0.48877 0.35736
 C251 C 0.63720 0.43704 0.40503
 C252 C 0.61149 0.40470 0.43157
 C253 C 0.56690 0.39196 0.43639
 C254 C 0.54871 0.41208 0.41621
 H255 H 0.52222 0.45581 0.37588
 H256 H 0.67752 0.49827 0.35203
 H257 H 0.67152 0.44700 0.40086
 H258 H 0.51457 0.40227 0.42113
 H259 H 0.64598 0.53443 0.31763
 H260 H 0.54627 0.36738 0.45665
 C261 C 0.50208 0.12239 0.33950
 C262 C 0.50466 0.08335 0.34802
 C263 C 0.53150 0.08720 0.37697
 C264 C 0.55474 0.12834 0.39683
 C265 C 0.55047 0.16639 0.38874
 C266 C 0.52417 0.16308 0.35993
 C267 C 0.57256 0.20695 0.40964
 C268 C 0.59993 0.21024 0.43783
 C269 C 0.60506 0.17267 0.44473
 C270 C 0.58241 0.13199 0.42465
 H271 H 0.53612 0.05891 0.38334
 H272 H 0.52057 0.19195 0.35320
 H273 H 0.56866 0.23590 0.40393
 H274 H 0.58634 0.10324 0.43103
 H275 H 0.48130 0.12101 0.31805
 H276 H 0.62568 0.17419 0.46641
 C277 C 0.87495 0.38383 0.33611
 C278 C 0.91403 0.42724 0.34451
 C279 C 0.91200 0.45315 0.37256
 C280 C 0.87256 0.43636 0.39174
 C281 C 0.83432 0.39201 0.38404
 C282 C 0.83585 0.36610 0.35605
 C283 C 0.79544 0.37452 0.40456
 C284 C 0.79420 0.40177 0.43184
 C285 C 0.83201 0.44663 0.43810
 C286 C 0.87089 0.46358 0.41851
 H287 H 0.94055 0.48769 0.37864
 H288 H 0.80681 0.33210 0.34956
 H289 H 0.76637 0.33998 0.39938
 H290 H 0.89983 0.49788 0.42451
 H291 H 0.87495 0.36232 0.31517
 H292 H 0.83210 0.46816 0.45911
 C293 C 0.62956 0.51113 1.15940
 C294 C 0.58496 0.49829 1.15484
 C295 C 0.55742 0.46291 1.13086
 C296 C 0.57452 0.44135 1.11084
 C297 C 0.61999 0.45573 1.11443
 C298 C 0.64707 0.49022 1.13917
 C299 C 0.63771 0.43609 1.09269
 C300 C 0.61034 0.40190 1.06770
 C301 C 0.56473 0.38663 1.06555
 C302 C 0.54707 0.40630 1.08677
 H303 H 0.52282 0.45260 1.12760
 H304 H 0.68190 0.50152 1.14250
 H305 H 0.67283 0.44796 1.09480
 H306 H 0.51209 0.39466 1.08388
 H307 H 0.65119 0.53839 1.17784
 H308 H 0.54282 0.36044 1.04655
 C309 C 0.87122 0.38040 1.15934
 C310 C 0.90902 0.42531 1.15377
 C311 C 0.90745 0.45444 1.12844
 C312 C 0.86863 0.43850 1.10824
 C313 C 0.83126 0.39249 1.11294
 C314 C 0.83269 0.36393 1.13888
 C315 C 0.79354 0.37555 1.09114
 C316 C 0.79239 0.40429 1.06508
 C317 C 0.82893 0.45063 1.06176
 C318 C 0.86683 0.46748 1.08297
 H319 H 0.93658 0.48929 1.12436
 H320 H 0.80428 0.32871 1.14303
 H321 H 0.76538 0.33988 1.09411
 H322 H 0.89502 0.50293 1.07920
 H323 H 0.87207 0.35763 1.17883
 H324 H 0.82892 0.47338 1.04180
 C325 C 0.50837 0.12631 1.16196
 C326 C 0.51606 0.09022 1.15664
 C327 C 0.54693 0.09560 1.13103
 C328 C 0.56868 0.13582 1.11003
 C329 C 0.55926 0.17107 1.11448
 C330 C 0.52964 0.16634 1.14095
 C331 C 0.57876 0.20982 1.09186
 C332 C 0.60793 0.21399 1.06504
 C333 C 0.61843 0.17962 1.06189
 C334 C 0.59884 0.14081 1.08405
 H335 H 0.55336 0.06806 1.12708
 H336 H 0.52222 0.19312 1.14491
 H337 H 0.57071 0.23629 1.09478
 H338 H 0.60665 0.11427 1.08043
 H339 H 0.48454 0.12267 1.18150
 H340 H 0.64075 0.18192 1.04148
 C341 C 0.52014 0.63208 1.15524
 C342 C 0.50842 0.58555 1.15256
 C343 C 0.47277 0.55457 1.13054
 C344 C 0.44935 0.56983 1.11103
 C345 C 0.46200 0.61700 1.11303
 C346 C 0.49733 0.64781 1.13541
 C347 C 0.43931 0.63245 1.09244
 C348 C 0.40377 0.60109 1.07023
 C349 C 0.39095 0.55401 1.06934
 C350 C 0.41360 0.53861 1.08938
 H351 H 0.46310 0.51840 1.12883
 H352 H 0.50740 0.68404 1.13748
 H353 H 0.44944 0.66878 1.09356
 H354 H 0.40337 0.50228 1.08771
 H355 H 0.54746 0.65640 1.17219
 H356 H 0.36390 0.52909 1.05247
 C357 C 0.07205 0.45132 1.12872
 C358 C 0.07078 0.48095 1.15369
 C359 C 0.10807 0.52663 1.15780
 C360 C 0.14542 0.54348 1.13587
 C361 C 0.14632 0.51360 1.11047
 C362 C 0.10982 0.46729 1.10761
 C363 C 0.18254 0.53130 1.08713
 C364 C 0.21656 0.57892 1.08781
 C365 C 0.21568 0.60815 1.11336
 C366 C 0.18082 0.59040 1.13764
 H367 H 0.10685 0.54978 1.17672
 H368 H 0.10981 0.44396 1.08822
 H369 H 0.18270 0.50893 1.06691
 H370 H 0.18057 0.61381 1.15681
 H371 H 0.04349 0.41600 1.12526
 H372 H 0.24157 0.64503 1.11398
 C373 C 0.37304 0.88276 1.15758
 C374 C 0.41911 0.91647 1.15544
 C375 C 0.44656 0.90711 1.13529
 C376 C 0.42824 0.86479 1.11708
 C377 C 0.38166 0.83145 1.11859
 C378 C 0.35438 0.84066 1.13910
 C379 C 0.36313 0.78997 1.09902
 C380 C 0.39058 0.78147 1.07784
 C381 C 0.43709 0.81428 1.07769
 C382 C 0.45571 0.85551 1.09707
 H383 H 0.48229 0.93273 1.13407
 H384 H 0.31863 0.81546 1.14069
 H385 H 0.32723 0.76507 1.09950
 H386 H 0.49152 0.88057 1.09586
 H387 H 0.35145 0.88935 1.17315
 H388 H 0.45912 0.80880 1.06170
 C389 C 0.51149 0.39716 0.66260
 C390 C 0.53135 0.44572 0.66098
 C391 C 0.56914 0.47270 0.63988
 C392 C 0.58596 0.45149 0.61930
 C393 C 0.56487 0.40237 0.61967
 C394 C 0.52808 0.37554 0.64196
 C395 C 0.58029 0.38113 0.59711
 C396 C 0.61646 0.40860 0.57428
 C397 C 0.63794 0.45756 0.57537
 C398 C 0.62283 0.47873 0.59757
 H399 H 0.58474 0.51031 0.63889
 H400 H 0.51158 0.33788 0.64283
 H401 H 0.56355 0.34340 0.59675
 H402 H 0.63948 0.51645 0.59721
 H403 H 0.48228 0.37592 0.67881
 H404 H 0.66601 0.47977 0.55839
 C405 C 0.49498 0.08135 0.63275
 C406 C 0.52529 0.07672 0.65342
 C407 C 0.57099 0.11201 0.65289
 C408 C 0.58654 0.15057 0.63036
 C409 C 0.55576 0.15426 0.60904
 C410 C 0.51000 0.11995 0.61095
 C411 C 0.57129 0.19118 0.58513
 C412 C 0.61739 0.22411 0.58141
 C413 C 0.64772 0.22088 0.60334
 C414 C 0.63240 0.18461 0.62775
 H415 H 0.59444 0.10831 0.66870
 H416 H 0.48597 0.12227 0.59485
 H417 H 0.54746 0.19306 0.56840
 H418 H 0.65652 0.18249 0.64388
 H419 H 0.45959 0.05448 0.63309
 H420 H 0.68342 0.24592 0.60118
 C421 C 0.91735 0.42298 0.63456
 C422 C 0.92416 0.46081 0.65478
 C423 C 0.89384 0.47530 0.65218
 C424 C 0.85825 0.45373 0.62804
 C425 C 0.85226 0.41635 0.60714
 C426 C 0.88137 0.40053 0.61120
 C427 C 0.81833 0.39650 0.58164
 C428 C 0.79069 0.41404 0.57611
 C429 C 0.79640 0.45065 0.59750
 C430 C 0.82972 0.47015 0.62334
 H431 H 0.89956 0.50502 0.66740
 H432 H 0.87727 0.37194 0.59541
 H433 H 0.81437 0.36827 0.56544
 H434 H 0.83379 0.49874 0.63911
 H435 H 0.94077 0.41176 0.63617
 H436 H 0.77536 0.46460 0.59406
 C437 C 0.50271 0.58056 0.62812
 C438 C 0.47251 0.54846 0.65282
 C439 C 0.42834 0.53777 0.65363
 C440 C 0.41371 0.55713 0.62860
 C441 C 0.44412 0.58872 0.60332
 C442 C 0.48877 0.60098 0.60379
 C443 C 0.42904 0.60613 0.57714
 C444 C 0.38364 0.59152 0.57519
 C445 C 0.35382 0.56076 0.60081
 C446 C 0.36880 0.54399 0.62745
 H447 H 0.40490 0.51249 0.67244
 H448 H 0.51250 0.62511 0.58461
 H449 H 0.45241 0.62970 0.55751
 H450 H 0.34503 0.51983 0.64660
 H451 H 0.53686 0.58894 0.62722
 H452 H 0.31875 0.54923 0.60007
 C453 C 0.40378 0.86493 0.66601
 C454 C 0.44355 0.90547 0.65434
 C455 C 0.46268 0.90305 0.62265
 C456 C 0.44247 0.86200 0.60280
 C457 C 0.40152 0.82239 0.61390
 C458 C 0.38265 0.82412 0.64570
 C459 C 0.38033 0.78198 0.59290
 C460 C 0.40076 0.78067 0.56181
 C461 C 0.44218 0.81952 0.55174
 C462 C 0.46273 0.86010 0.57189
 H463 H 0.49441 0.93273 0.61381
 H464 H 0.35142 0.79401 0.65478
 H465 H 0.34838 0.75169 0.60068
 H466 H 0.49434 0.89006 0.56320
 H467 H 0.38743 0.86521 0.68986
 H468 H 0.45805 0.81878 0.52769
 C469 C 0.12640 0.60425 0.66235
 C470 C 0.08810 0.56006 0.65433
 C471 C 0.09079 0.53465 0.62621
 C472 C 0.12952 0.55308 0.60599
 C473 C 0.16684 0.59826 0.61312
 C474 C 0.16508 0.62338 0.64163
 C475 C 0.20500 0.61722 0.59155
 C476 C 0.20627 0.59067 0.56372
 C477 C 0.16925 0.54520 0.55783
 C478 C 0.13119 0.52672 0.57856
 H479 H 0.06311 0.49945 0.62055
 H480 H 0.19347 0.65797 0.64775
 H481 H 0.23355 0.65218 0.59646
 H482 H 0.10287 0.49187 0.57294
 H483 H 0.12596 0.62532 0.68343
 H484 H 0.16924 0.52418 0.53645
 C485 C 0.50140 0.60389 0.86049
 C486 C 0.47162 0.56066 0.84453
 C487 C 0.42540 0.53861 0.85023
 C488 C 0.40932 0.55832 0.87358
 C489 C 0.43981 0.60110 0.89048
 C490 C 0.48562 0.62420 0.88302
 C491 C 0.42437 0.61910 0.91577
 C492 C 0.37888 0.59452 0.92516
 C493 C 0.34855 0.55284 0.90731
 C494 C 0.36361 0.53501 0.88165
 H495 H 0.40245 0.50497 0.83820
 H496 H 0.50942 0.65706 0.89566
 H497 H 0.44821 0.65137 0.92911
 H498 H 0.33970 0.50228 0.86893
 H499 H 0.53714 0.62121 0.85630
 H500 H 0.31326 0.53328 0.91380
 C501 C 0.12517 0.60224 0.84180
 C502 C 0.09018 0.55527 0.84516
 C503 C 0.09368 0.52693 0.87014
 C504 C 0.13070 0.54572 0.89271
 C505 C 0.16489 0.59358 0.89033
 C506 C 0.16225 0.62133 0.86430
 C507 C 0.20059 0.61293 0.91442
 C508 C 0.20274 0.58484 0.94054
 C509 C 0.16927 0.53699 0.94183
 C510 C 0.13346 0.51765 0.91825
 H511 H 0.06691 0.49050 0.87256
 H512 H 0.18828 0.65800 0.86191
 H513 H 0.22653 0.64977 0.91292
 H514 H 0.10761 0.48087 0.92030
 H515 H 0.12289 0.62460 0.82274
 H516 H 0.17019 0.51462 0.96166
 C517 C 0.46220 0.87263 0.83518
 C518 C 0.45400 0.90760 0.84474
 C519 C 0.42755 0.89992 0.87466
 C520 C 0.41102 0.85969 0.89505
 C521 C 0.42122 0.82603 0.88620
 C522 C 0.44648 0.83263 0.85597
 C523 C 0.40610 0.78667 0.90789
 C524 C 0.38006 0.78042 0.93773
 C525 C 0.36903 0.81361 0.94532
 C526 C 0.38454 0.85291 0.92435
 H527 H 0.41833 0.92461 0.88172
 H528 H 0.45447 0.80710 0.84856
 H529 H 0.41450 0.76112 0.90163
 H530 H 0.37618 0.87831 0.93131
 H531 H 0.48276 0.87703 0.81274
 H532 H 0.34928 0.80989 0.96819
 C533 C 0.59669 0.52213 0.87104
 C534 C 0.56293 0.49035 0.84803
 C535 C 0.55089 0.44361 0.84751
 C536 C 0.57071 0.42814 0.87110
 C537 C 0.60394 0.46015 0.89476
 C538 C 0.61736 0.50726 0.89401
 C539 C 0.62210 0.44429 0.91957
 C540 C 0.60681 0.39658 0.92168
 C541 C 0.57433 0.36519 0.89761
 C542 C 0.55663 0.38087 0.87240
 H543 H 0.52442 0.41887 0.83007
 H544 H 0.64284 0.53227 0.91191
 H545 H 0.64708 0.46893 0.93796
 H546 H 0.53122 0.35587 0.85446
 H547 H 0.60639 0.55833 0.87168
 H548 H 0.56223 0.32833 0.89845
 C549 C 0.91699 0.42979 0.86380
 C550 C 0.92492 0.46926 0.84517
 C551 C 0.89455 0.48367 0.84792
 C552 C 0.85763 0.46005 0.87063
 C553 C 0.85063 0.42100 0.88989
 C554 C 0.87998 0.40562 0.88575
 C555 C 0.81532 0.39883 0.91392
 C556 C 0.78715 0.41557 0.91970
 C557 C 0.79370 0.45378 0.89985
 C558 C 0.82849 0.47567 0.87542
 H559 H 0.90085 0.51436 0.83374
 H560 H 0.87505 0.37571 0.90026
 H561 H 0.81078 0.36943 0.92894
 H562 H 0.83323 0.50547 0.86088
 H563 H 0.94010 0.41822 0.86180
 H564 H 0.77237 0.46729 0.90359
 C565 C 0.48535 0.07893 0.86758
 C566 C 0.51413 0.07603 0.84402
 C567 C 0.55955 0.11209 0.84286
 C568 C 0.57669 0.14959 0.86654
 C569 C 0.54763 0.15168 0.89074
 C570 C 0.50186 0.11679 0.89049
 C571 C 0.56504 0.18751 0.91577
 C572 C 0.61138 0.22083 0.91768
 C573 C 0.63989 0.21899 0.89304
 C574 C 0.62264 0.18386 0.86754
 H575 H 0.58190 0.10942 0.82504
 H576 H 0.47915 0.11786 0.90889
 H577 H 0.54258 0.18835 0.93458
 H578 H 0.64540 0.18280 0.84919
 H579 H 0.45031 0.05113 0.86886
 H580 H 0.67563 0.24439 0.89374
   
