data_POSCAR
  _audit_creation_date              2014-09-24
  _audit_creation_method            'ToBaCCo'
  _symmetry_space_group_name_H-M    'P1'
  _symmetry_Int_Tables_number       1
  _symmetry_cell_setting            triclinic
  loop_
  _symmetry_equiv_pos_as_xyz
 x,y,z
_cell_length_a 54.8777
_cell_length_b 54.1181
_cell_length_c 19.4278
_cell_angle_alpha 90.614800
_cell_angle_beta 90.137700
_cell_angle_gamma 119.846000
loop_
  _atom_site_label
  _atom_site_type_symbol
  _atom_site_fract_x
  _atom_site_fract_y
  _atom_site_fract_z
O1 O 0.26500 0.48505 0.57826
 O2 O 0.21052 0.46895 0.44640
 O3 O 0.25837 0.46920 0.45009
 O4 O 0.21718 0.48407 0.57507
 O5 O 0.23907 0.52936 0.54568
 O6 O 0.28042 0.51444 0.42029
 O7 O 0.23250 0.51409 0.41602
 O8 O 0.28694 0.53033 0.54887
 Cu9 Cu 0.23554 0.47227 0.51529
 Cu10 Cu 0.26190 0.52658 0.47941
 C11 C 0.28528 0.51038 0.58596
 C12 C 0.21202 0.48880 0.40917
 C13 C 0.27674 0.48939 0.41469
 C14 C 0.22102 0.50912 0.58169
 O15 O 0.47594 -0.28563 0.42760
 O16 O 0.47487 -0.23969 0.56748
 O17 O 0.47443 -0.28795 0.56079
 O18 O 0.47501 -0.23808 0.43366
 O19 O 0.42863 -0.26170 0.43006
 O20 O 0.42806 -0.31131 0.55952
 O21 O 0.42850 -0.26286 0.56464
 O22 O 0.42958 -0.30949 0.42513
 Cu23 Cu 0.47968 -0.26045 0.49767
 Cu24 Cu 0.42403 -0.28869 0.49455
 C25 C 0.45300 -0.30552 0.40266
 C26 C 0.45159 -0.24336 0.58992
 C27 C 0.45120 -0.30818 0.58187
 C28 C 0.45196 -0.24139 0.41002
 O29 O 1.28246 0.78227 0.44565
 O30 O 1.23263 0.73173 0.57304
 O31 O 1.28266 0.77660 0.57914
 O32 O 1.23057 0.74098 0.44339
 O33 O 1.24658 0.71129 0.42450
 O34 O 1.30056 0.74856 0.56103
 O35 O 1.25061 0.70368 0.55547
 O36 O 1.29871 0.75278 0.42721
 Cu37 Cu 1.25555 0.76085 0.51231
 Cu38 Cu 1.27585 0.72624 0.49007
 C39 C 1.29893 0.77578 0.41435
 C40 C 1.23321 0.70895 0.58561
 C41 C 1.30042 0.76896 0.59378
 C42 C 1.22930 0.71992 0.41137
 O43 O 0.78662 0.52699 0.41747
 O44 O 0.74452 0.54084 0.54213
 O45 O 0.79287 0.54212 0.54584
 O46 O 0.73844 0.52534 0.41342
 O47 O 0.71684 0.48012 0.44325
 O48 O 0.77165 0.49687 0.57536
 O49 O 0.72333 0.49570 0.57241
 O50 O 0.76497 0.48161 0.44605
 Cu51 Cu 0.76773 0.53837 0.47689
 Cu52 Cu 0.74203 0.48405 0.51252
 C53 C 0.78309 0.50205 0.41067
 C54 C 0.72652 0.52057 0.57810
 C55 C 0.79180 0.52231 0.58238
 C56 C 0.71835 0.49992 0.40580
 O57 O 0.45711 0.25706 0.45932
 O58 O 0.46110 0.20608 0.57238
 O59 O 0.47146 0.25834 0.58831
 O60 O 0.45771 0.20903 0.44037
 O61 O 0.50349 0.22909 0.42448
 O62 O 0.51705 0.27689 0.57169
 O63 O 0.50669 0.22541 0.55460
 O64 O 0.50273 0.27797 0.44089
 Cu65 Cu 0.45741 0.23082 0.51657
 Cu66 Cu 0.51160 0.25478 0.49498
 C67 C 0.47900 0.27637 0.43139
 C68 C 0.48408 0.20648 0.58229
 C69 C 0.49687 0.27596 0.60523
 C70 C 0.47858 0.21038 0.40826
 O71 O 0.78944 0.26668 0.59013
 O72 O 0.75530 0.21038 0.45760
 O73 O 0.80202 0.26008 0.46473
 O74 O 0.74398 0.21754 0.58308
 O75 O 0.72142 0.23931 0.54706
 O76 O 0.77876 0.28062 0.42542
 O77 O 0.73210 0.23133 0.42057
 O78 O 0.76761 0.28849 0.54938
 Cu79 Cu 0.77505 0.23655 0.52738
 Cu80 Cu 0.74756 0.26190 0.48144
 C81 C 0.78466 0.28738 0.59164
 C82 C 0.73736 0.21100 0.41746
 C83 C 0.80052 0.27800 0.42583
 C84 C 0.72292 0.22129 0.58561
 O85 O 0.96862 0.44928 0.13600
 O86 O 0.93637 0.45760 0.08107
 C87 C 0.94320 0.44465 0.12620
 O88 O 1.05323 0.57501 0.10367
 O89 O 1.07818 0.56218 0.03127
 C90 C 1.07659 0.57845 0.07810
 O91 O 0.97521 0.53873 0.13444
 O92 O 0.93921 0.49973 0.07977
 C93 C 0.94880 0.52032 0.12495
 O94 O 1.04666 0.48291 0.10605
 O95 O 1.07509 0.51876 0.03283
 C96 C 1.07107 0.50052 0.08041
 Zr97 Zr 1.00644 0.47800 0.08473
 O98 O 1.01538 0.48240 0.19166
 O99 O 1.00084 0.43636 0.08433
 Zr100 Zr 1.01100 0.54286 0.08299
 O101 O 1.02011 0.54887 0.18975
 O102 O 1.01075 0.58184 0.07969
 O103 O 0.98489 0.49989 0.10573
 O104 O 1.03337 0.52154 0.08837
 O105 O 1.03219 0.47385 -0.13200
 O106 O 1.06793 0.51449 -0.08257
 C107 C 1.05852 0.49251 -0.12343
 O108 O 0.95992 0.52968 -0.11537
 O109 O 0.93188 0.49502 -0.03927
 C110 C 0.93557 0.51200 -0.08966
 O111 O 1.03842 0.56859 -0.13287
 O112 O 1.07103 0.55942 -0.08315
 C113 C 1.06393 0.57363 -0.12415
 O114 O 0.95445 0.44262 -0.11475
 O115 O 0.92934 0.45299 -0.03677
 C116 C 0.93110 0.43823 -0.08739
 Zr117 Zr 0.99643 0.47250 -0.08761
 O118 O 0.99364 0.47021 -0.19642
 O119 O 0.99008 0.43060 -0.08484
 Zr120 Zr 1.00062 0.53696 -0.08896
 O121 O 0.99783 0.53450 -0.19781
 O122 O 0.99963 0.57555 -0.08962
 Zr123 Zr 0.96244 0.48912 0.01178
 Zr124 Zr 1.04502 0.52613 -0.01603
 O125 O 1.02198 0.51520 -0.10892
 O126 O 0.97307 0.49319 -0.09335
 O127 O 1.02597 0.48143 -0.00953
 O128 O 0.98193 0.53371 0.00504
 O129 O 0.97699 0.45978 0.00656
 O130 O 1.03099 0.55601 -0.01132
 H131 H 1.04799 0.52835 0.12493
 H132 H 0.97018 0.54286 0.00861
 H133 H 1.03227 0.51962 -0.15299
 H134 H 0.96332 0.43918 0.01080
 H135 H 1.02732 0.59546 0.05315
 H136 H 1.01588 0.58965 -0.06198
 H137 H 0.98008 0.51709 -0.21055
 H138 H 0.97872 0.47440 -0.21011
 H139 H 1.00648 0.43159 -0.06097
 H140 H 1.01567 0.43652 0.05517
 H141 H 1.00175 0.48671 0.21419
 H142 H 1.00653 0.53105 0.21260
 O143 O 0.44370 0.48740 0.12967
 O144 O 0.44774 0.52138 0.05349
 C145 C 0.43676 0.50555 0.10668
 O146 O 0.56964 0.53481 0.10243
 O147 O 0.55975 0.49186 0.05410
 C148 C 0.57529 0.51455 0.09111
 O149 O 0.52751 0.57179 0.10404
 O150 O 0.48765 0.56174 0.04327
 C151 C 0.50746 0.57678 0.08757
 O152 O 0.48191 0.44552 0.13415
 O153 O 0.51834 0.44993 0.06752
 C154 C 0.50062 0.43852 0.11697
 Zr155 Zr 0.47382 0.47698 0.09207
 O156 O 0.47924 0.48178 0.20028
 O157 O 0.43417 0.43986 0.10403
 Zr158 Zr 0.53479 0.53865 0.07091
 O159 O 0.54114 0.54378 0.17880
 O160 O 0.57096 0.57889 0.05554
 O161 O 0.49217 0.52120 0.09205
 O162 O 0.51708 0.49629 0.09679
 O163 O 0.47056 0.43041 -0.09825
 O164 O 0.51266 0.44204 -0.04654
 C165 C 0.49032 0.42500 -0.08228
 O166 O 0.51921 0.55794 -0.14797
 O167 O 0.48395 0.55533 -0.07947
 C168 C 0.50082 0.56533 -0.13137
 O169 O 0.56106 0.52054 -0.13300
 O170 O 0.55529 0.48482 -0.06050
 C171 C 0.56781 0.50219 -0.11039
 O172 O 0.43436 0.47238 -0.11797
 O173 O 0.44334 0.51445 -0.06644
 C174 C 0.42875 0.49265 -0.10683
 Zr175 Zr 0.46768 0.46727 -0.08035
 O176 O 0.46784 0.46137 -0.18832
 O177 O 0.42784 0.43008 -0.07511
 Zr178 Zr 0.52865 0.52858 -0.10094
 O179 O 0.52618 0.52058 -0.20835
 O180 O 0.56527 0.56870 -0.11364
 Zr181 Zr 0.48002 0.52414 -0.00936
 Zr182 Zr 0.52225 0.48157 0.00015
 O183 O 0.50995 0.48464 -0.10053
 O184 O 0.48502 0.50987 -0.10699
 O185 O 0.47851 0.45462 0.01034
 O186 O 0.52372 0.55053 -0.01918
 O187 O 0.45402 0.48001 0.00459
 O188 O 0.54908 0.52565 -0.01366
 H189 H 0.52503 0.49244 0.13847
 H190 H 0.53133 0.57126 -0.02478
 H191 H 0.51480 0.47557 -0.13859
 H192 H 0.43342 0.47193 0.00789
 H193 H 0.58459 0.57571 0.02925
 H194 H 0.58060 0.56860 -0.08704
 H195 H 0.50764 0.51719 -0.22443
 H196 H 0.46494 0.47607 -0.21064
 H197 H 0.42694 0.42151 -0.02989
 H198 H 0.43550 0.42355 0.08496
 H199 H 0.48110 0.50037 0.21318
 H200 H 0.52331 0.54042 0.19943
 O201 O 0.48788 0.04798 0.11264
 O202 O 0.52654 0.07548 0.04679
 C203 C 0.50806 0.07241 0.09255
 O204 O 0.52746 -0.03837 0.13108
 O205 O 0.48742 -0.06975 0.07163
 C206 C 0.50695 -0.06381 0.11721
 O207 O 0.56958 0.04165 0.12469
 O208 O 0.56548 0.07236 0.05116
 C209 C 0.57742 0.06700 0.10181
 O210 O 0.44213 -0.03090 0.11772
 O211 O 0.44721 -0.06632 0.06550
 C212 C 0.43435 -0.05749 0.10642
 Zr213 Zr 0.47727 0.00633 0.08062
 O214 O 0.47448 0.00733 0.18915
 O215 O 0.44130 0.01051 0.06645
 Zr216 Zr 0.53627 0.00139 0.09069
 O217 O 0.53417 0.00189 0.19948
 O218 O 0.57481 0.00142 0.09643
 O219 O 0.52075 0.02955 0.09558
 O220 O 0.49311 -0.02031 0.10198
 O221 O 0.44203 -0.03850 -0.11944
 O222 O 0.44754 -0.07006 -0.05210
 C223 C 0.43443 -0.06403 -0.09876
 O224 O 0.56948 0.03258 -0.12543
 O225 O 0.56566 0.06801 -0.06927
 C226 C 0.57743 0.05915 -0.11343
 O227 O 0.52743 -0.04627 -0.10732
 O228 O 0.48738 -0.07382 -0.04585
 C229 C 0.50683 -0.07068 -0.08868
 O230 O 0.48937 0.04064 -0.13862
 O231 O 0.52779 0.07196 -0.07407
 C232 C 0.50993 0.06607 -0.12376
 Zr233 Zr 0.47757 0.00095 -0.09174
 O234 O 0.47557 -0.00587 -0.19961
 O235 O 0.44255 0.00730 -0.09727
 Zr236 Zr 0.53630 -0.00449 -0.08198
 O237 O 0.53492 -0.01114 -0.18984
 O238 O 0.57480 -0.00453 -0.07468
 Zr239 Zr 0.53038 0.04332 -0.00687
 Zr240 Zr 0.48330 -0.04141 0.00564
 O241 O 0.49325 -0.02675 -0.09601
 O242 O 0.52100 0.02294 -0.10425
 O243 O 0.45880 -0.02146 -0.00248
 O244 O 0.55426 0.02281 0.00123
 O245 O 0.48703 0.02889 -0.00983
 O246 O 0.52669 -0.02741 0.00891
 H247 H 0.48605 -0.03157 0.14451
 H248 H 0.57504 0.03444 0.00139
 H249 H 0.48620 -0.04069 -0.13477
 H250 H 0.48065 0.04302 -0.01418
 H251 H 0.57229 -0.01568 0.07121
 H252 H 0.57166 -0.02071 -0.04553
 H253 H 0.53340 0.00446 -0.21174
 H254 H 0.49396 0.00821 -0.21859
 H255 H 0.42915 -0.00475 -0.06166
 H256 H 0.43522 0.01258 0.11311
 H257 H 0.49352 0.02073 0.20707
 H258 H 0.53449 0.01967 0.21350
 C259 C 1.19044 0.48246 0.36178
 C260 C 1.19034 0.50277 0.31813
 C261 C 1.16587 0.49669 0.27457
 N262 N 1.16783 0.51613 0.22810
 N263 N 1.14553 0.51160 0.19074
 C264 C 1.12035 0.48747 0.19865
 N265 N 1.11840 0.46800 0.24504
 N266 N 1.14074 0.47247 0.28215
 C267 C 1.09505 0.48307 0.16117
 C268 C 1.09630 0.50122 0.10910
 H269 H 1.20844 0.52403 0.31679
 H270 H 1.07485 0.46583 0.17711
 H271 H 1.17276 0.46092 0.36020
 H272 H 1.11659 0.51775 0.09156
 C273 C 0.45326 0.67658 0.35054
 C274 C 0.47827 0.67932 0.32476
 C275 C 0.47908 0.65968 0.27274
 N276 N 0.50413 0.66216 0.25544
 N277 N 0.50542 0.64421 0.21012
 C278 C 0.48168 0.62311 0.18000
 N279 N 0.45661 0.62077 0.19676
 N280 N 0.45531 0.63870 0.24233
 C281 C 0.48275 0.60223 0.13231
 C282 C 0.50723 0.60071 0.12375
 H283 H 0.49823 0.69598 0.34495
 H284 H 0.46338 0.58632 0.10794
 H285 H 0.43335 0.65974 0.33059
 H286 H 0.52617 0.61573 0.15124
 C287 C 0.31878 -0.20537 0.36230
 C288 C 0.32161 -0.17919 0.34454
 C289 C 0.34230 -0.16070 0.29317
 N290 N 0.34581 -0.13452 0.28047
 N291 N 0.36486 -0.11740 0.23533
 C292 C 0.38109 -0.12582 0.20094
 N293 N 0.37745 -0.15208 0.21328
 N294 N 0.35844 -0.16918 0.25850
 C295 C 0.40308 -0.10665 0.15297
 C296 C 0.40973 -0.07840 0.14500
 H297 H 0.30876 -0.17180 0.36967
 H298 H 0.41541 -0.11442 0.12680
 H299 H 0.33190 -0.21247 0.33740
 H300 H 0.39787 -0.07054 0.17306
 C301 C 0.80049 0.49674 0.36219
 C302 C 0.82437 0.51919 0.33349
 C303 C 0.84368 0.51469 0.29011
 N304 N 0.86937 0.53703 0.27601
 N305 N 0.88748 0.53335 0.23800
 C306 C 0.88050 0.50718 0.21240
 N307 N 0.85467 0.48486 0.22583
 N308 N 0.83660 0.48851 0.26428
 C309 C 0.90040 0.50296 0.17062
 C310 C 0.92869 0.52370 0.16783
 H311 H 0.83009 0.54095 0.34643
 H312 H 0.89279 0.48295 0.14287
 H313 H 0.79541 0.47495 0.35227
 H314 H 0.93651 0.54296 0.19885
 C315 C 0.47618 0.29712 0.38916
 C316 C 0.49852 0.31917 0.35499
 C317 C 0.49479 0.34041 0.31681
 N318 N 0.51552 0.35917 0.27564
 N319 N 0.51224 0.37840 0.24078
 C320 C 0.48820 0.37969 0.24610
 N321 N 0.46759 0.36110 0.28778
 N322 N 0.47080 0.34178 0.32236
 C323 C 0.48437 0.40078 0.20757
 C324 C 0.50298 0.41678 0.15618
 H325 H 0.51902 0.32083 0.35590
 H326 H 0.46641 0.40333 0.21886
 H327 H 0.45556 0.29513 0.38602
 H328 H 0.52022 0.41322 0.14356
 C329 C 0.72163 0.18720 0.36889
 C330 C 0.70253 0.18757 0.32223
 C331 C 0.68206 0.16214 0.28367
 N332 N 0.66465 0.16437 0.23775
 N333 N 0.64468 0.14135 0.20541
 C334 C 0.64122 0.11517 0.21803
 N335 N 0.65871 0.11291 0.26381
 N336 N 0.67878 0.13599 0.29609
 C337 C 0.61841 0.08957 0.18442
 C338 C 0.60133 0.09175 0.13455
 H339 H 0.70137 0.20686 0.31644
 H340 H 0.61484 0.06883 0.19954
 H341 H 0.72373 0.16841 0.37309
 H342 H 0.60566 0.11263 0.11824
 C343 C 0.48356 0.18523 -0.37729
 C344 C 0.50708 0.18281 -0.36211
 C345 C 0.50394 0.15798 -0.32443
 N346 N 0.52640 0.15873 -0.29303
 N347 N 0.52335 0.13638 -0.25777
 C348 C 0.49778 0.11242 -0.25324
 N349 N 0.47547 0.11153 -0.28558
 N350 N 0.47848 0.13392 -0.32031
 C351 C 0.49388 0.08781 -0.21350
 C352 C 0.51379 0.09012 -0.16563
 H353 H 0.52786 0.19924 -0.37712
 H354 H 0.47432 0.06789 -0.21960
 H355 H 0.46332 0.16931 -0.35777
 H356 H 0.53263 0.11052 -0.15705
 C357 C 0.70978 0.52586 -0.37729
 C358 C 0.68929 0.50469 -0.33652
 C359 C 0.66911 0.50934 -0.29694
 N360 N 0.65085 0.48877 -0.25446
 N361 N 0.63164 0.49212 -0.22044
 C362 C 0.62987 0.51611 -0.22794
 N363 N 0.64813 0.53670 -0.27044
 N364 N 0.66743 0.53340 -0.30427
 C365 C 0.60811 0.51958 -0.19247
 C366 C 0.59076 0.50020 -0.14366
 H367 H 0.68728 0.48374 -0.33505
 H368 H 0.60565 0.53765 -0.20531
 H369 H 0.71231 0.54704 -0.37617
 H370 H 0.59405 0.48281 -0.12903
 C371 C 0.79898 0.30986 -0.36213
 C372 C 0.81643 0.30945 -0.31060
 C373 C 0.83687 0.33581 -0.27557
 N374 N 0.84605 0.33514 -0.21112
 N375 N 0.86615 0.35887 -0.18124
 C376 C 0.87805 0.38393 -0.21533
 N377 N 0.86901 0.38454 -0.27991
 N378 N 0.84862 0.36093 -0.30932
 C379 C 0.90194 0.40946 -0.18582
 C380 C 0.90503 0.41473 -0.11540
 H381 H 0.81602 0.28982 -0.29771
 H382 H 0.91755 0.42460 -0.22049
 H383 H 0.79722 0.32881 -0.36822
 H384 H 0.88800 0.40186 -0.08087
 C385 C 0.45120 -0.22476 -0.35444
 C386 C 0.47599 -0.20305 -0.32500
 C387 C 0.47669 -0.18289 -0.27227
 N388 N 0.50185 -0.16104 -0.25081
 N389 N 0.50318 -0.14189 -0.20507
 C390 C 0.47939 -0.14389 -0.17862
 N391 N 0.45417 -0.16595 -0.19945
 N392 N 0.45283 -0.18510 -0.24546
 C393 C 0.48073 -0.12166 -0.13134
 C394 C 0.50568 -0.09594 -0.12115
 H395 H 0.49598 -0.20003 -0.34277
 H396 H 0.46141 -0.12444 -0.10953
 H397 H 0.43110 -0.22792 -0.33725
 H398 H 0.52461 -0.09287 -0.14605
 C399 C 0.30746 0.51678 -0.36245
 C400 C 0.30808 0.49523 -0.32514
 C401 C 0.33131 0.50029 -0.27836
 N402 N 0.33230 0.47767 -0.25232
 N403 N 0.35356 0.48149 -0.21194
 C404 C 0.37465 0.50812 -0.19566
 N405 N 0.37351 0.53084 -0.22092
 N406 N 0.35225 0.52700 -0.26170
 C407 C 0.39883 0.51227 -0.15345
 C408 C 0.40378 0.48971 -0.14247
 H409 H 0.29153 0.47337 -0.33307
 H410 H 0.41374 0.53345 -0.13470
 H411 H 0.32422 0.53863 -0.35602
 H412 H 0.38961 0.46906 -0.16537
 C413 C 1.21468 0.68903 -0.36787
 C414 C 1.19297 0.69107 -0.33601
 C415 C 1.17268 0.66840 -0.29097
 N416 N 1.14845 0.66771 -0.27336
 N417 N 1.12956 0.64685 -0.23449
 C418 C 1.13424 0.62594 -0.21136
 N419 N 1.15864 0.62683 -0.22821
 N420 N 1.17746 0.64759 -0.26746
 C421 C 1.11324 0.60244 -0.16944
 C422 C 1.08578 0.59729 -0.16378
 H423 H 1.18974 0.70882 -0.34718
 H424 H 1.11917 0.58827 -0.14505
 H425 H 1.21676 0.67046 -0.35830
 H426 H 1.07967 0.61067 -0.19136
 C427 C 0.81486 0.52916 -0.36846
 C428 C 0.81495 0.50893 -0.32473
 C429 C 0.83973 0.51478 -0.28272
 N430 N 0.83796 0.49535 -0.23647
 N431 N 0.86050 0.49974 -0.20038
 C432 C 0.88572 0.52369 -0.20943
 N433 N 0.88748 0.54313 -0.25564
 N434 N 0.86491 0.53881 -0.29148
 C435 C 0.91117 0.52812 -0.17273
 C436 C 0.91014 0.51023 -0.12027
 H437 H 0.79661 0.48787 -0.32253
 H438 H 0.93128 0.54548 -0.18876
 H439 H 0.83280 0.55052 -0.36875
 H440 H 0.88994 0.49357 -0.10257
 C441 C 0.50354 0.29623 -0.33702
 C442 C 0.48295 0.29809 -0.29939
 C443 C 0.48983 0.32137 -0.24935
 N444 N 0.46878 0.32346 -0.21856
 N445 N 0.47445 0.34544 -0.17705
 C446 C 0.50139 0.36623 -0.16449
 N447 N 0.52251 0.36391 -0.19434
 N448 N 0.51684 0.34190 -0.23603
 C449 C 0.50750 0.39195 -0.12386
 C450 C 0.48591 0.39734 -0.10705
 H451 H 0.46100 0.28306 -0.30981
 H452 H 0.52915 0.40804 -0.11375
 H453 H 0.52549 0.31122 -0.32643
 H454 H 0.46453 0.38167 -0.12118
 C455 C 0.69979 0.20441 -0.36678
 C456 C 0.69861 0.18166 -0.33092
 C457 C 0.67516 0.16318 -0.28592
 N458 N 0.67313 0.13866 -0.26298
 N459 N 0.65190 0.12126 -0.22311
 C460 C 0.63194 0.12779 -0.20419
 N461 N 0.63412 0.15251 -0.22645
 N462 N 0.65530 0.16986 -0.26679
 C463 C 0.60810 0.10820 -0.16130
 C464 C 0.60171 0.08007 -0.15258
 H465 H 0.71500 0.17629 -0.33832
 H466 H 0.59464 0.11552 -0.13931
 H467 H 0.68296 0.20927 -0.36189
 H468 H 0.61416 0.07246 -0.17888
 C469 C 1.20411 0.51479 -0.36908
 C470 C 1.18124 0.49258 -0.33656
 C471 C 1.16246 0.49728 -0.29168
 N472 N 1.13765 0.47474 -0.27273
 N473 N 1.11990 0.47856 -0.23360
 C474 C 1.12641 0.50506 -0.21167
 N475 N 1.15140 0.52760 -0.22987
 N476 N 1.16910 0.52380 -0.26942
 C477 C 1.10669 0.50950 -0.16973
 C478 C 1.07876 0.48822 -0.16330
 H479 H 1.17592 0.47076 -0.34720
 H480 H 1.11398 0.53024 -0.14599
 H481 H 1.20890 0.53659 -0.36088
 H482 H 1.07115 0.46808 -0.19047
 C483 C 0.45093 0.67265 -0.37045
 C484 C 0.47568 0.67400 -0.34744
 C485 C 0.47585 0.65302 -0.30057
 N486 N 0.49995 0.65226 -0.29119
 N487 N 0.50058 0.63310 -0.25000
 C488 C 0.47715 0.61408 -0.21630
 N489 N 0.45308 0.61501 -0.22500
 N490 N 0.45240 0.63409 -0.26663
 C491 C 0.47769 0.59265 -0.17154
 C492 C 0.49968 0.58681 -0.17446
 H493 H 0.49576 0.69022 -0.36691
 H494 H 0.46012 0.58065 -0.13769
 H495 H 0.43086 0.65579 -0.35257
 H496 H 0.51633 0.59771 -0.21140
 C497 C 0.32113 -0.21564 -0.35105
 C498 C 0.31976 -0.19428 -0.31336
 C499 C 0.34131 -0.17509 -0.26405
 N500 N 0.34026 -0.15204 -0.24004
 N501 N 0.36019 -0.13327 -0.19805
 C502 C 0.38188 -0.13692 -0.17806
 N503 N 0.38272 -0.16028 -0.20102
 N504 N 0.36281 -0.17903 -0.24356
 C505 C 0.40481 -0.11516 -0.13539
 C506 C 0.40952 -0.08738 -0.13209
 H507 H 0.30278 -0.19003 -0.32347
 H508 H 0.41951 -0.12032 -0.11140
 H509 H 0.33786 -0.22034 -0.34171
 H510 H 0.39591 -0.08193 -0.16069
 C511 C 0.45217 -0.22141 0.35907
 C512 C 0.47721 -0.19776 0.33905
 C513 C 0.47820 -0.17659 0.29085
 N514 N 0.50296 -0.15246 0.28005
 N515 N 0.50432 -0.13265 0.23775
 C516 C 0.48097 -0.13628 0.20439
 N517 N 0.45620 -0.16055 0.21465
 N518 N 0.45482 -0.18036 0.25724
 C519 C 0.48218 -0.11410 0.15918
 C520 C 0.50595 -0.08710 0.15728
 H521 H 0.49693 -0.19401 0.36117
 H522 H 0.46361 -0.11863 0.12965
 H523 H 0.43231 -0.22502 0.33829
 H524 H 0.52398 -0.08229 0.18941
 C525 C 0.29447 0.48356 0.36866
 C526 C 0.31544 0.50482 0.32933
 C527 C 0.33614 0.50029 0.29203
 N528 N 0.35497 0.52095 0.25066
 N529 N 0.37453 0.51760 0.21842
 C530 C 0.37609 0.49353 0.22674
 N531 N 0.35731 0.47289 0.26827
 N532 N 0.33766 0.47619 0.30031
 C533 C 0.39783 0.48981 0.19215
 C534 C 0.41496 0.50873 0.14236
 H535 H 0.31741 0.52574 0.32771
 H536 H 0.40000 0.47158 0.20514
 H537 H 0.29196 0.46240 0.36870
 H538 H 0.41186 0.52621 0.12743
 C539 C 1.20676 0.70544 0.36027
 C540 C 1.20343 0.68276 0.31925
 C541 C 1.17832 0.66708 0.27535
 N542 N 1.17684 0.64770 0.22825
 N543 N 1.15370 0.63281 0.19009
 C544 C 1.13120 0.63667 0.19789
 N545 N 1.13268 0.65599 0.24506
 N546 N 1.15585 0.67099 0.28287
 C547 C 1.10490 0.61902 0.15967
 C548 C 1.10339 0.60109 0.10609
 H549 H 1.21908 0.67612 0.32024
 H550 H 1.08610 0.61902 0.17658
 H551 H 1.19158 0.71263 0.35636
 H552 H 1.12247 0.60207 0.08767
 C553 C 0.47383 0.18919 0.35388
 C554 C 0.49617 0.19030 0.31691
 C555 C 0.49333 0.16660 0.27309
 N556 N 0.51593 0.16932 0.23819
 N557 N 0.51435 0.14750 0.20196
 C558 C 0.49009 0.12206 0.19956
 N559 N 0.46744 0.11940 0.23414
 N560 N 0.46900 0.14124 0.27020
 C561 C 0.48825 0.09715 0.16325
 C562 C 0.51003 0.09835 0.12363
 H563 H 0.51701 0.20860 0.32332
 H564 H 0.46905 0.07696 0.16895
 H565 H 0.45275 0.17145 0.34612
 H566 H 0.52880 0.11863 0.11503
 C567 C 0.69624 0.49318 0.35375
 C568 C 0.69589 0.51436 0.31424
 C569 C 0.67282 0.50885 0.26637
 N570 N 0.67227 0.53115 0.23685
 N571 N 0.65111 0.52692 0.19556
 C572 C 0.62968 0.50017 0.18182
 N573 N 0.63039 0.47777 0.21057
 N574 N 0.65155 0.48202 0.25221
 C575 C 0.60542 0.49558 0.13925
 C576 C 0.60105 0.51819 0.12387
 H577 H 0.71258 0.53624 0.32084
 H578 H 0.58974 0.47403 0.12471
 H579 H 0.67942 0.47131 0.34827
 H580 H 0.61599 0.53938 0.14264
 C581 C 0.82481 0.29655 0.38276
 C582 C 0.82539 0.31846 0.34432
 C583 C 0.85058 0.33991 0.30835
 N584 N 0.84922 0.36052 0.27234
 N585 N 0.87180 0.38061 0.24071
 C586 C 0.89672 0.38101 0.24398
 N587 N 0.89813 0.36039 0.28008
 N588 N 0.87549 0.34022 0.31176
 C589 C 0.92172 0.40322 0.20840
 C590 C 0.91992 0.42326 0.16738
 H591 H 0.80686 0.32072 0.34238
 H592 H 0.94141 0.40325 0.21279
 H593 H 0.84319 0.29405 0.38481
 H594 H 0.89988 0.42244 0.16208
   
