data_POSCAR
  _audit_creation_date              2014-09-24
  _audit_creation_method            'ToBaCCo'
  _symmetry_space_group_name_H-M    'P1'
  _symmetry_Int_Tables_number       1
  _symmetry_cell_setting            triclinic
  loop_
  _symmetry_equiv_pos_as_xyz
 x,y,z
_cell_length_a 38.6419
_cell_length_b 38.2198
_cell_length_c 38.7061
_cell_angle_alpha 92.539400
_cell_angle_beta 89.957800
_cell_angle_gamma 91.337400
loop_
  _atom_site_label
  _atom_site_type_symbol
  _atom_site_fract_x
  _atom_site_fract_y
  _atom_site_fract_z
C1 C 0.60797 0.65172 0.61427
 C2 C 0.63770 0.63673 0.59970
 C3 C 0.65201 0.60805 0.61428
 C4 C 0.63681 0.59395 0.64366
 C5 C 0.60752 0.60867 0.65797
 C6 C 0.59304 0.63783 0.64323
 C7 C 0.58828 0.67951 0.60552
 N8 N 0.56184 0.68303 0.62854
 C9 C 0.56459 0.65740 0.65165
 C10 C 0.59855 0.58986 0.68624
 N11 N 0.62162 0.56374 0.68946
 C12 C 0.64524 0.56642 0.66350
 C13 C 0.68069 0.59921 0.59500
 N14 N 0.68413 0.62177 0.56889
 C15 C 0.65794 0.64489 0.57182
 H16 H 0.59269 0.69599 0.58383
 H17 H 0.54712 0.65264 0.67281
 H18 H 0.57707 0.59565 0.70325
 H19 H 0.66715 0.54955 0.65949
 H20 H 0.69779 0.57813 0.60023
 H21 H 0.65408 0.66625 0.55487
 C22 C 0.89220 0.34088 0.10682
 C23 C 0.86335 0.35609 0.09208
 C24 C 0.84946 0.38587 0.10750
 C25 C 0.86416 0.40084 0.13798
 C26 C 0.89256 0.38582 0.15252
 C27 C 0.90664 0.35558 0.13683
 C28 C 0.91097 0.31184 0.09744
 N29 N 0.93677 0.30850 0.12101
 C30 C 0.93397 0.33520 0.14529
 C31 C 0.90118 0.40563 0.18193
 N32 N 0.87876 0.43250 0.18560
 C33 C 0.85593 0.42950 0.15884
 C34 C 0.82194 0.39485 0.08746
 N35 N 0.81859 0.37115 0.06033
 C36 C 0.84406 0.34740 0.06300
 H37 H 0.90546 0.29450 0.07524
 H38 H 0.95068 0.33940 0.16761
 H39 H 0.92195 0.40020 0.19941
 H40 H 0.83471 0.44693 0.15501
 H41 H 0.80547 0.41710 0.09216
 H42 H 0.84883 0.32554 0.04512
 C43 C 0.38781 0.15723 -0.10813
 C44 C 0.35821 0.14234 -0.09316
 C45 C 0.34298 0.11232 -0.10809
 C46 C 0.35697 0.09687 -0.13837
 C47 C 0.38606 0.11160 -0.15318
 C48 C 0.40162 0.14202 -0.13793
 C49 C 0.40805 0.18627 -0.09912
 N50 N 0.43400 0.18910 -0.12271
 C51 C 0.43003 0.16212 -0.14661
 C52 C 0.39399 0.09095 -0.18194
 N53 N 0.37026 0.06409 -0.18530
 C54 C 0.34764 0.06752 -0.15836
 C55 C 0.31506 0.10364 -0.08789
 N56 N 0.31273 0.12778 -0.06114
 C57 C 0.33928 0.15149 -0.06418
 H58 H 0.40361 0.20399 -0.07714
 H59 H 0.44670 0.15757 -0.16877
 H60 H 0.41568 0.09500 -0.19918
 H61 H 0.32627 0.04993 -0.15286
 H62 H 0.29760 0.08131 -0.09223
 H63 H 0.34503 0.17360 -0.04661
 C64 C 0.11101 0.84864 0.38530
 C65 C 0.14133 0.86347 0.40024
 C66 C 0.15675 0.89266 0.38641
 C67 C 0.14219 0.90741 0.35742
 C68 C 0.11230 0.89289 0.34278
 C69 C 0.09661 0.86325 0.35680
 C70 C 0.09018 0.82053 0.39343
 N71 N 0.06354 0.81734 0.37037
 C72 C 0.06728 0.84378 0.34803
 C73 C 0.10400 0.91275 0.31534
 N74 N 0.12828 0.93892 0.31263
 C75 C 0.15164 0.93582 0.33865
 C76 C 0.18568 0.90132 0.40589
 N77 N 0.18825 0.87814 0.43142
 C78 C 0.16122 0.85480 0.42791
 H79 H 0.09395 0.80367 0.41481
 H80 H 0.04988 0.84935 0.32726
 H81 H 0.08178 0.90856 0.29850
 H82 H 0.17369 0.95297 0.34433
 H83 H 0.20357 0.92271 0.40116
 H84 H 0.15651 0.83299 0.44434
 N85 N 0.08215 0.17678 0.11351
 N86 N 0.06865 0.16360 0.14141
 C87 C 0.04047 0.18187 0.15077
 C88 C 0.03616 0.20790 0.12745
 C89 C 0.06308 0.20380 0.10419
 H90 H 0.02430 0.17642 0.17274
 H91 H 0.06822 0.21937 0.08202
 Cu92 Cu 0.08908 0.12367 0.16254
 Cu93 Cu 0.12321 0.15790 0.09115
 Cu94 Cu 0.15915 0.08566 0.12703
 N95 N 0.10918 0.08261 0.18191
 N96 N 0.13654 0.06795 0.16788
 C97 C 0.14536 0.04060 0.18644
 C98 C 0.12231 0.03783 0.21358
 C99 C 0.09963 0.06497 0.20989
 H100 H 0.16713 0.02398 0.18091
 H101 H 0.07805 0.07166 0.22644
 N102 N 0.17830 0.10742 0.08574
 N103 N 0.16473 0.13509 0.07225
 C104 C 0.18390 0.14413 0.04485
 C105 C 0.21074 0.12104 0.04077
 C106 C 0.20641 0.09811 0.06721
 H107 H 0.17898 0.16605 0.02896
 H108 H 0.22268 0.07651 0.07289
 H109 H 0.11537 0.10738 0.10705
 H110 H 0.14417 0.13697 0.13460
 N111 N 0.41671 0.81665 0.60556
 N112 N 0.43062 0.83188 0.63349
 C113 C 0.45786 0.81327 0.64313
 C114 C 0.46133 0.78496 0.61997
 C115 C 0.43469 0.78793 0.59643
 H116 H 0.47397 0.81951 0.66549
 H117 H 0.42845 0.77042 0.57455
 Cu118 Cu 0.41161 0.87423 0.65495
 Cu119 Cu 0.37597 0.83477 0.58352
 Cu120 Cu 0.34023 0.90905 0.62213
 N121 N 0.39048 0.91532 0.67678
 N122 N 0.36255 0.92871 0.66385
 C123 C 0.35322 0.95649 0.68399
 C124 C 0.37650 0.96084 0.71104
 C125 C 0.39985 0.93417 0.70565
 H126 H 0.33102 0.97239 0.67952
 H127 H 0.42181 0.92865 0.72158
 N128 N 0.32130 0.88544 0.57979
 N129 N 0.33478 0.85706 0.56512
 C130 C 0.31624 0.84741 0.53665
 C131 C 0.28983 0.87088 0.53325
 C132 C 0.29392 0.89461 0.56101
 H133 H 0.32190 0.82522 0.51950
 H134 H 0.27808 0.91707 0.56679
 H135 H 0.38367 0.88637 0.60037
 H136 H 0.35607 0.85828 0.62812
 N137 N 0.91377 0.68478 0.39294
 N138 N 0.92697 0.66972 0.36490
 C139 C 0.95485 0.68859 0.35511
 C140 C 0.95945 0.71695 0.37823
 C141 C 0.93283 0.71369 0.40195
 H142 H 0.97076 0.68240 0.33277
 H143 H 0.92747 0.73101 0.42402
 Cu144 Cu 0.90629 0.62705 0.34390
 Cu145 Cu 0.87276 0.66591 0.41554
 Cu146 Cu 0.83542 0.58983 0.37837
 N147 N 0.88518 0.58438 0.32333
 N148 N 0.85732 0.57008 0.33680
 C149 C 0.84809 0.54105 0.31773
 C150 C 0.87147 0.53689 0.29080
 C151 C 0.89467 0.56484 0.29526
 H152 H 0.82619 0.52417 0.32338
 H153 H 0.91685 0.57028 0.27915
 N154 N 0.81712 0.61375 0.42044
 N155 N 0.83121 0.64277 0.43452
 C156 C 0.81297 0.65249 0.46289
 C157 C 0.78610 0.62841 0.46688
 C158 C 0.78962 0.60424 0.43955
 H159 H 0.81908 0.67520 0.47954
 H160 H 0.77327 0.58129 0.43424
 H161 H 0.87945 0.61432 0.39911
 H162 H 0.85144 0.64108 0.37180
 N163 N 0.58667 0.32236 -0.11492
 N164 N 0.57326 0.33615 -0.14223
 C165 C 0.54447 0.31765 -0.15181
 C166 C 0.53962 0.29082 -0.12924
 C167 C 0.56689 0.29471 -0.10618
 H168 H 0.52806 0.32366 -0.17322
 H169 H 0.57167 0.27869 -0.08441
 Cu170 Cu 0.59430 0.37756 -0.16182
 Cu171 Cu 0.62834 0.34157 -0.09231
 Cu172 Cu 0.66628 0.41541 -0.12676
 N173 N 0.61582 0.41896 -0.18093
 N174 N 0.64393 0.43365 -0.16711
 C175 C 0.65312 0.46186 -0.18494
 C176 C 0.62944 0.46507 -0.21140
 C177 C 0.60616 0.43739 -0.20801
 H178 H 0.67522 0.47881 -0.17880
 H179 H 0.58373 0.43145 -0.22409
 N180 N 0.68495 0.39298 -0.08603
 N181 N 0.67056 0.36477 -0.07309
 C182 C 0.68944 0.35549 -0.04591
 C183 C 0.71698 0.37895 -0.04139
 C184 C 0.71335 0.40239 -0.06734
 H185 H 0.68386 0.33315 -0.03046
 H186 H 0.73026 0.42442 -0.07255
 H187 H 0.62221 0.39262 -0.10649
 H188 H 0.64940 0.36413 -0.13540
 C189 C -0.03850 0.28247 0.12186
 C190 C -0.00126 0.29749 0.12468
 C191 C 0.02317 0.27265 0.12714
 C192 C 0.00840 0.23493 0.12624
 C193 C -0.01850 0.23470 0.15561
 C194 C -0.04299 0.25952 0.15325
 C195 C -0.03760 0.25621 0.09033
 C196 C -0.01311 0.23142 0.09286
 H197 H 0.00532 0.32525 0.12453
 H198 H 0.05059 0.27925 0.12930
 H199 H -0.01862 0.21676 0.17652
 H200 H -0.06378 0.26249 0.17195
 H201 H -0.05363 0.25696 0.06748
 H202 H -0.00905 0.21138 0.07260
 C203 C 0.53490 0.70955 0.62694
 C204 C 0.54989 0.74702 0.62517
 C205 C 0.52540 0.77177 0.62227
 C206 C 0.48806 0.75694 0.62168
 C207 C 0.48750 0.72889 0.59183
 C208 C 0.51200 0.70415 0.59466
 C209 C 0.50933 0.71135 0.65755
 C210 C 0.48488 0.73611 0.65463
 H211 H 0.57737 0.75351 0.62622
 H212 H 0.53200 0.79941 0.62067
 H213 H 0.46971 0.72833 0.57017
 H214 H 0.51488 0.68266 0.57566
 H215 H 0.51036 0.69555 0.68004
 H216 H 0.46525 0.74078 0.67428
 C217 C 1.03677 0.79223 0.37160
 C218 C 1.04987 0.75471 0.37423
 C219 C 1.02411 0.73010 0.37705
 C220 C 0.98750 0.74496 0.37661
 C221 C 0.98759 0.77351 0.40598
 C222 C 1.01332 0.79817 0.40330
 C223 C 1.01181 0.78981 0.34036
 C224 C 0.98607 0.76518 0.34323
 H225 H 1.07702 0.74804 0.37363
 H226 H 1.02932 0.70248 0.37908
 H227 H 0.96921 0.77455 0.42714
 H228 H 1.01666 0.82002 0.42199
 H229 H 1.01439 0.80464 0.31727
 H230 H 0.96689 0.75991 0.32306
 C231 C 0.46146 0.21640 -0.12379
 C232 C 0.46323 0.24283 -0.09251
 C233 C 0.48894 0.26755 -0.09495
 C234 C 0.51065 0.26376 -0.12811
 C235 C 0.52361 0.22601 -0.12862
 C236 C 0.49792 0.20125 -0.12621
 C237 C 0.45838 0.23899 -0.15542
 C238 C 0.48407 0.26376 -0.15777
 H239 H 0.44663 0.24227 -0.07000
 H240 H 0.49366 0.28781 -0.07484
 H241 H 0.55072 0.21934 -0.13060
 H242 H 0.50306 0.17347 -0.12596
 H243 H 0.43773 0.23569 -0.17436
 H244 H 0.48517 0.28135 -0.17896
 C245 C 0.12753 -0.03555 0.28792
 C246 C 0.09649 -0.01140 0.29275
 C247 C 0.09424 0.01304 0.26835
 C248 C 0.12337 0.01124 0.24119
 C249 C 0.15701 0.01396 0.26236
 C250 C 0.15943 -0.01046 0.28674
 C251 C 0.12417 -0.05121 0.25072
 C252 C 0.12181 -0.02674 0.22637
 H253 H 0.07790 -0.01334 0.31366
 H254 H 0.07354 0.03168 0.26866
 H255 H 0.17758 0.03311 0.25805
 H256 H 0.18252 -0.01189 0.30237
 H257 H 0.12390 -0.07911 0.24408
 H258 H 0.11932 -0.03379 0.19899
 C259 C 0.62283 0.53913 -0.28496
 C260 C 0.65457 0.54481 -0.26130
 C261 C 0.65725 0.52053 -0.23681
 C262 C 0.62784 0.49260 -0.23806
 C263 C 0.59445 0.51361 -0.23557
 C264 C 0.59158 0.53787 -0.26005
 C265 C 0.62544 0.50128 -0.29988
 C266 C 0.62824 0.47705 -0.27536
 H267 H 0.67327 0.56622 -0.26358
 H268 H 0.67845 0.52146 -0.21845
 H269 H 0.57434 0.50924 -0.21652
 H270 H 0.56857 0.55333 -0.26164
 H271 H 0.62489 0.49413 -0.32734
 H272 H 0.63029 0.44926 -0.28193
 C273 C 0.37106 1.03748 0.78880
 C274 C 0.40248 1.01396 0.79219
 C275 C 0.40478 0.98846 0.76667
 C276 C 0.37532 0.98863 0.73990
 C277 C 0.34194 0.98640 0.76136
 C278 C 0.33947 1.01191 0.78687
 C279 C 0.37378 1.05154 0.75221
 C280 C 0.37619 1.02600 0.72674
 H281 H 0.42127 1.01709 0.81300
 H282 H 0.42572 0.97008 0.76595
 H283 H 0.32153 0.96682 0.75637
 H284 H 0.31648 1.01385 0.80276
 H285 H 0.37355 1.07916 0.74680
 H286 H 0.37825 1.03187 0.69961
 C287 C 0.87752 0.45966 0.21374
 C288 C 0.84528 0.45570 0.23656
 C289 C 0.84277 0.48105 0.26222
 C290 C 0.87287 0.50823 0.26279
 C291 C 0.90568 0.48647 0.26477
 C292 C 0.90829 0.46109 0.23916
 C293 C 0.87600 0.49694 0.20053
 C294 C 0.87340 0.52229 0.22617
 H295 H 0.82607 0.43471 0.23278
 H296 H 0.82116 0.48150 0.28008
 H297 H 0.92552 0.49102 0.28442
 H298 H 0.93070 0.44465 0.23713
 H299 H 0.87702 0.50285 0.17338
 H300 H 0.87202 0.54988 0.22088
 C301 C 0.28626 0.12670 -0.03381
 C302 C 0.24920 0.12405 -0.04821
 C303 C 0.22439 0.12157 -0.02340
 C304 C 0.23875 0.12227 0.01367
 C305 C 0.26481 0.09236 0.01337
 C306 C 0.28962 0.09476 -0.01146
 C307 C 0.28603 0.15846 -0.00781
 C308 C 0.26119 0.15598 0.01697
 H309 H 0.24303 0.12421 -0.07555
 H310 H 0.19700 0.11944 -0.02959
 H311 H 0.26401 0.07094 0.03080
 H312 H 0.30981 0.07565 -0.01495
 H313 H 0.30297 0.18136 -0.00875
 H314 H 0.25755 0.17642 0.03694
 C315 C 0.71146 0.62284 0.54239
 C316 C 0.73463 0.65595 0.54643
 C317 C 0.75949 0.65832 0.52165
 C318 C 0.75899 0.62722 0.49491
 C319 C 0.76155 0.59463 0.51656
 C320 C 0.73674 0.59217 0.54138
 C321 C 0.69699 0.62320 0.50544
 C322 C 0.72183 0.62565 0.48065
 H323 H 0.73167 0.67581 0.56707
 H324 H 0.77749 0.68047 0.52133
 H325 H 0.78105 0.57488 0.51241
 H326 H 0.73527 0.56997 0.55778
 H327 H 0.66958 0.62156 0.49933
 H328 H 0.71560 0.62626 0.45335
 C329 C 0.79220 0.37258 0.03303
 C330 C 0.79079 0.34128 0.00646
 C331 C 0.76609 0.34404 -0.01826
 C332 C 0.74492 0.37752 -0.01433
 C333 C 0.73053 0.37741 0.02271
 C334 C 0.75521 0.37467 0.04746
 C335 C 0.79681 0.40501 0.01128
 C336 C 0.77212 0.40767 -0.01349
 H337 H 0.80687 0.31850 0.00694
 H338 H 0.76172 0.32395 -0.03860
 H339 H 0.70321 0.37921 0.02893
 H340 H 0.74900 0.37396 0.07477
 H341 H 0.81774 0.42421 0.01511
 H342 H 0.77217 0.42939 -0.03056
 C343 C 0.21548 0.87683 0.45791
 C344 C 0.24163 0.90798 0.45971
 C345 C 0.26633 0.90535 0.48445
 C346 C 0.26280 0.87215 0.50527
 C347 C 0.22564 0.87268 0.51950
 C348 C 0.20091 0.87529 0.49478
 C349 C 0.23772 0.84421 0.45310
 C350 C 0.26248 0.84168 0.47783
 H351 H 0.24081 0.93063 0.44394
 H352 H 0.28635 0.92540 0.48912
 H353 H 0.21934 0.87126 0.54675
 H354 H 0.17352 0.87627 0.50088
 H355 H 0.23423 0.82477 0.43202
 H356 H 0.27986 0.81983 0.47768
   
