data_POSCAR
  _audit_creation_date              2014-09-24
  _audit_creation_method            'ToBaCCo'
  _symmetry_space_group_name_H-M    'P1'
  _symmetry_Int_Tables_number       1
  _symmetry_cell_setting            triclinic
  loop_
  _symmetry_equiv_pos_as_xyz
 x,y,z
_cell_length_a 45.1895
_cell_length_b 45.2097
_cell_length_c 45.1215
_cell_angle_alpha 90.001000
_cell_angle_beta 90.075900
_cell_angle_gamma 90.011800
loop_
  _atom_site_label
  _atom_site_type_symbol
  _atom_site_fract_x
  _atom_site_fract_y
  _atom_site_fract_z
C1 C 0.17047 0.16903 0.20720
 N2 N 0.15831 0.19359 0.19482
 C3 C 0.17050 0.20596 0.17027
 N4 N 0.19504 0.19364 0.15807
 C5 C 0.20741 0.16907 0.17024
 N6 N 0.19503 0.15687 0.19481
 C7 C -0.17007 0.83095 0.20655
 N8 N -0.15792 0.80641 0.19417
 C9 C -0.17015 0.79404 0.16961
 N10 N -0.19472 0.80634 0.15739
 C11 C -0.20709 0.83090 0.16958
 N12 N -0.19466 0.84311 0.19416
 C13 C -0.17080 0.16930 -0.20638
 N14 N -0.19538 0.15713 -0.19408
 C15 C -0.20776 0.16933 -0.16951
 N16 N -0.19535 0.19387 -0.15729
 C17 C -0.17078 0.20616 -0.16946
 N18 N -0.15858 0.19381 -0.19400
 C19 C 0.16995 0.83075 -0.20693
 N20 N 0.15780 0.80619 -0.19453
 C21 C 0.17003 0.79387 -0.16996
 N22 N 0.19458 0.80621 -0.15774
 C23 C 0.20694 0.83077 -0.16992
 N24 N 0.19452 0.84294 -0.19452
 C25 C 0.16857 1.17030 0.79312
 N26 N 0.19311 1.15812 0.80556
 C27 C 0.20545 1.17031 0.83015
 N28 N 0.19314 1.19486 0.84233
 C29 C 0.16860 1.20725 0.83010
 N30 N 0.15640 1.19487 0.80548
 C31 C 0.83046 0.83067 0.79246
 N32 N 0.80590 0.84285 0.80483
 C33 C 0.79358 0.83066 0.82940
 N34 N 0.80591 0.80614 0.84164
 C35 C 0.83044 0.79380 0.82946
 N36 N 0.84264 0.80612 0.80488
 C37 C 0.16942 0.82956 1.20728
 N38 N 0.15725 0.80498 1.19491
 C39 C 0.16943 0.79259 1.17033
 N40 N 0.19397 0.80498 1.15814
 C41 C 0.20628 0.82954 1.17033
 N42 N 0.19395 0.84174 1.19489
 C43 C 0.83119 1.17024 1.20665
 N44 N 0.80661 1.15810 1.19425
 C45 C 0.79421 1.17035 1.16972
 N46 N 0.80651 1.19492 1.15755
 C47 C 0.83110 1.20727 1.16975
 N48 N 0.84334 1.19483 1.19431
 N49 N 0.53075 1.05256 0.96817
 N50 N 0.55328 1.07078 0.96450
 N51 N 0.46842 1.03197 0.94768
 N52 N 0.44583 1.03565 0.92947
 N53 N 0.46847 1.05248 0.96829
 N54 N 0.44591 1.07068 0.96468
 N55 N 0.53070 1.03205 0.94756
 N56 N 0.55319 1.03574 0.92930
 C57 C 0.56702 1.06000 0.94015
 C58 C 0.43205 1.05989 0.94037
 N59 N 0.46857 0.94769 0.96813
 N60 N 0.44604 0.92945 0.96445
 N61 N 0.53077 0.96834 0.94748
 N62 N 0.55326 0.96474 0.92919
 N63 N 0.53086 0.94778 0.96803
 N64 N 0.55341 0.92961 0.96429
 N65 N 0.46849 0.96826 0.94759
 N66 N 0.44592 0.96460 0.92936
 Mn67 Mn 0.49959 1.00016 0.94722
 C68 C 0.43217 0.94030 0.94017
 C69 C 0.56712 0.94049 0.93997
 N70 N 0.46866 1.05239 1.03212
 N71 N 0.44611 1.07057 1.03586
 N72 N 0.53104 1.03192 1.05255
 N73 N 0.55364 1.03560 1.07075
 N74 N 0.53094 1.05248 1.03200
 N75 N 0.55346 1.07072 1.03563
 N76 N 0.46875 1.03183 1.05267
 N77 N 0.44626 1.03544 1.07097
 Mn78 Mn 0.49970 1.05283 1.00014
 C79 C 0.43240 1.05971 1.06018
 C80 C 0.56737 1.05989 1.05989
 N81 N 0.53107 0.94769 1.03187
 N82 N 0.55363 0.92949 1.03549
 N83 N 0.46882 0.96811 1.05258
 N84 N 0.44634 0.96440 1.07086
 N85 N 0.46879 0.94760 1.03197
 N86 N 0.44628 0.92936 1.03565
 N87 N 0.53111 0.96820 1.05247
 N88 N 0.55369 0.96454 1.07069
 Mn89 Mn 0.49982 0.94733 1.00000
 Mn90 Mn 0.49993 1.00001 1.05293
 Cl91 Cl 0.49976 1.00008 1.00008
 C92 C 0.56749 0.94030 1.05980
 C93 C 0.43253 0.94013 1.06000
 N94 N 0.03212 0.46884 0.05280
 N95 N 0.03580 0.44631 0.07105
 N96 N 0.05268 0.53109 0.03219
 N97 N 0.07091 0.55362 0.03588
 N98 N 0.03215 0.53110 0.05277
 N99 N 0.03584 0.55362 0.07102
 N100 N 0.05264 0.46883 0.03221
 N101 N 0.07085 0.44629 0.03588
 C102 C 0.06006 0.43251 0.06019
 C103 C 0.06011 0.56742 0.06019
 N104 N 0.03202 0.53104 -0.05223
 N105 N 0.03566 0.55356 -0.07049
 N106 N 0.05255 0.46877 -0.03164
 N107 N 0.07074 0.44622 -0.03533
 N108 N 0.03196 0.46879 -0.05220
 N109 N 0.03556 0.44626 -0.07045
 N110 N 0.05259 0.53104 -0.03165
 N111 N 0.07082 0.55356 -0.03533
 Mn112 Mn 0.05298 0.49993 0.00028
 C113 C 0.05996 0.56735 -0.05964
 C114 C 0.05984 0.43244 -0.05964
 N115 N -0.03160 0.53114 0.05276
 N116 N -0.03524 0.55369 0.07098
 N117 N -0.05220 0.46887 0.03222
 N118 N -0.07042 0.44634 0.03589
 N119 N -0.03162 0.46887 0.05280
 N120 N -0.03527 0.44634 0.07105
 N121 N -0.05216 0.53112 0.03217
 N122 N -0.07037 0.55365 0.03579
 Mn123 Mn 0.00026 0.49999 0.05314
 C124 C -0.05953 0.56747 0.06009
 C125 C -0.05956 0.43255 0.06020
 N126 N -0.03177 0.46881 -0.05219
 N127 N -0.03550 0.44627 -0.07041
 N128 N -0.05224 0.53110 -0.03165
 N129 N -0.07044 0.55364 -0.03535
 N130 N -0.03171 0.53107 -0.05223
 N131 N -0.03537 0.55358 -0.07050
 N132 N -0.05229 0.46885 -0.03160
 N133 N -0.07054 0.44634 -0.03524
 Mn134 Mn 0.00012 0.49992 -0.05257
 Mn135 Mn -0.05258 0.49999 0.00028
 Cl136 Cl 0.00020 0.49996 0.00029
 C137 C -0.05978 0.43252 -0.05954
 C138 C -0.05962 0.56740 -0.05967
 N139 N 0.96846 0.05228 0.46838
 N140 N 0.96485 0.07052 0.44583
 N141 N 0.94773 0.03177 0.53067
 N142 N 0.92945 0.03542 0.55317
 N143 N 0.96828 0.05231 0.53076
 N144 N 0.96456 0.07051 0.55333
 N145 N 0.94789 0.03176 0.46830
 N146 N 0.92971 0.03547 0.44568
 C147 C 0.94059 0.05974 0.43192
 C148 C 0.94024 0.05968 0.56704
 N149 N 0.96822 -0.05247 0.53082
 N150 N 0.96449 -0.07066 0.55339
 N151 N 0.94783 -0.03194 0.46836
 N152 N 0.92963 -0.03559 0.44576
 N153 N 0.96835 -0.05251 0.46843
 N154 N 0.96467 -0.07074 0.44586
 N155 N 0.94768 -0.03192 0.53073
 N156 N 0.92941 -0.03556 0.55324
 Mn157 Mn 0.94743 -0.00008 0.49951
 C158 C 0.94019 -0.05982 0.56712
 C159 C 0.94042 -0.05988 0.43198
 N160 N 1.03202 0.05228 0.53098
 N161 N 1.03562 0.07054 0.55353
 N162 N 1.05272 0.03168 0.46871
 N163 N 1.07101 0.03532 0.44621
 N164 N 1.03219 0.05224 0.46861
 N165 N 1.03594 0.07043 0.44605
 N166 N 1.05257 0.03175 0.53110
 N167 N 1.07073 0.03546 0.55374
 Mn168 Mn 1.00024 0.05263 0.49968
 C169 C 1.05985 0.05975 0.56747
 C170 C 1.06024 0.05958 0.43233
 N171 N 1.03209 -0.05256 0.46869
 N172 N 1.03577 -0.07080 0.44616
 N173 N 1.05252 -0.03198 0.53112
 N174 N 1.07072 -0.03564 0.55373
 N175 N 1.03196 -0.05251 0.53107
 N176 N 1.03560 -0.07072 0.55365
 N177 N 1.05267 -0.03204 0.46874
 N178 N 1.07093 -0.03576 0.44622
 Mn179 Mn 1.00015 -0.05287 0.49975
 Mn180 Mn 1.05298 -0.00015 0.49992
 Cl181 Cl 1.00020 -0.00012 0.49972
 C182 C 1.06009 -0.06003 0.43240
 C183 C 1.05987 -0.05990 0.56753
 N184 N 1.12147 0.15665 0.26917
 C185 C 1.13359 0.13221 0.28165
 N186 N 1.15802 0.12005 0.26922
 N187 N 1.16998 0.13197 0.24503
 C188 C 1.15792 0.15649 0.23243
 N189 N 1.13342 0.16858 0.24498
 C190 C 1.12078 0.11945 0.30778
 C191 C 1.11002 0.10879 0.32975
 C192 C 1.09724 0.09616 0.35595
 N193 N 1.10943 0.07183 0.36861
 N194 N 1.09761 0.06015 0.39299
 C195 C 1.07323 0.07243 0.40551
 N196 N 1.06106 0.09678 0.39279
 N197 N 1.07288 0.10845 0.36841
 N198 N 0.87909 -0.15676 0.26854
 C199 C 0.86700 -0.13234 0.28107
 N200 N 0.84255 -0.12015 0.26865
 N201 N 0.83052 -0.13203 0.24444
 C202 C 0.84254 -0.15653 0.23180
 N203 N 0.86707 -0.16865 0.24434
 C204 C 0.87988 -0.11964 0.30722
 C205 C 0.89069 -0.10903 0.32922
 C206 C 0.90348 -0.09642 0.35546
 N207 N 0.89134 -0.07206 0.36805
 N208 N 0.90315 -0.06040 0.39248
 C209 C 0.92748 -0.07273 0.40511
 N210 N 0.93961 -0.09711 0.39245
 N211 N 0.92780 -0.10877 0.36802
 N212 N 0.87894 0.15640 0.73036
 C213 C 0.86681 0.13200 0.71778
 N214 N 0.84234 0.11981 0.73015
 N215 N 0.83036 0.13167 0.75436
 C216 C 0.84245 0.15612 0.76700
 N217 N 0.86696 0.16826 0.75456
 C218 C 0.87965 0.11931 0.69165
 C219 C 0.89043 0.10872 0.66966
 C220 C 0.90323 0.09614 0.64345
 N221 N 0.89105 0.07183 0.63075
 N222 N 0.90287 0.06020 0.60636
 C223 C 0.92726 0.07250 0.59386
 N224 N 0.93943 0.09684 0.60663
 N225 N 0.92760 0.10847 0.63102
 N226 N 1.12087 -0.15698 0.73101
 C227 C 1.13297 -0.13255 0.71851
 N228 N 1.15741 -0.12036 0.73096
 N229 N 1.16940 -0.13224 0.75519
 C230 C 1.15737 -0.15675 0.76780
 N231 N 1.13285 -0.16887 0.75523
 C232 C 1.12013 -0.11983 0.69235
 C233 C 1.10938 -0.10918 0.67033
 C234 C 1.09665 -0.09653 0.64408
 N235 N 1.10888 -0.07220 0.63150
 N236 N 1.09713 -0.06050 0.60707
 C237 C 1.07277 -0.07277 0.59442
 N238 N 1.06055 -0.09712 0.60706
 N239 N 1.07231 -0.10882 0.63150
 N240 N 0.26938 1.12014 1.15783
 C241 C 0.28183 1.13232 1.13339
 N242 N 0.26938 1.15676 1.12125
 N243 N 0.24520 1.16868 1.13319
 C244 C 0.23264 1.15656 1.15770
 N245 N 0.24520 1.13204 1.16978
 C246 C 0.30794 1.11957 1.12060
 C247 C 0.32990 1.10891 1.10987
 C248 C 0.35608 1.09627 1.09712
 N249 N 0.36856 1.10857 1.07273
 N250 N 0.39292 1.09689 1.06094
 C251 C 0.40560 1.07254 1.07315
 N252 N 0.39306 1.06027 1.09756
 N253 N 0.36870 1.07195 1.10935
 N254 N 0.26896 0.84311 0.87916
 C255 C 0.28142 0.86754 0.86701
 N256 N 0.26895 0.87971 0.84254
 N257 N 0.24475 0.86780 0.83057
 C258 C 0.23218 0.84329 0.84265
 N259 N 0.24477 0.83119 0.86719
 C260 C 0.30755 0.88028 0.87984
 C261 C 0.32954 0.89095 0.89058
 C262 C 0.35575 0.90362 0.90333
 N263 N 0.36827 0.92798 0.89111
 N264 N 0.39267 0.93970 0.90288
 C265 C 0.40533 0.92741 0.92725
 N266 N 0.39274 0.90302 0.93945
 N267 N 0.36835 0.89131 0.92767
 N268 N 0.73087 0.87978 1.15715
 C269 C 0.71837 0.86760 1.13270
 N270 N 0.73082 0.84317 1.12055
 N271 N 0.75504 0.83128 1.13250
 C272 C 0.76765 0.84340 1.15702
 N273 N 0.75509 0.86790 1.16911
 C274 C 0.69222 0.88032 1.11991
 C275 C 0.67021 0.89099 1.10921
 C276 C 0.64398 0.90365 1.09651
 N277 N 0.63139 0.89140 1.07213
 N278 N 0.60697 0.90310 1.06040
 C279 C 0.59435 0.92743 1.07269
 N280 N 0.60701 0.93966 1.09709
 N281 N 0.63142 0.92795 1.10881
 N282 N 0.73021 1.15708 0.87941
 C283 C 0.71772 1.13267 0.86723
 N284 N 0.73016 1.12049 0.84279
 N285 N 0.75437 1.13236 0.83087
 C286 C 0.76698 1.15685 0.84299
 N287 N 0.75442 1.16896 0.86751
 C288 C 0.69158 1.11995 0.87999
 C289 C 0.66959 1.10930 0.89069
 C290 C 0.64338 1.09665 0.90338
 N291 N 0.63077 1.07235 0.89109
 N292 N 0.60639 1.06065 0.90283
 C293 C 0.59382 1.07288 0.92724
 N294 N 0.60650 1.09720 0.93952
 N295 N 0.63088 1.10890 0.92777
 N296 N 0.12088 0.26927 0.15733
 C297 C 0.13302 0.28179 0.13290
 N298 N 0.15745 0.26937 0.12071
 N299 N 0.16939 0.24516 0.13260
 C300 C 0.15729 0.23257 0.15708
 N301 N 0.13281 0.24507 0.16923
 C302 C 0.12024 0.30792 0.12017
 C303 C 0.10953 0.32991 0.10951
 C304 C 0.09682 0.35611 0.09686
 N305 N 0.10903 0.36869 0.07249
 N306 N 0.09729 0.39308 0.06078
 C307 C 0.07296 0.40569 0.07308
 N308 N 0.06077 0.39305 0.09747
 N309 N 0.07251 0.36866 0.10918
 N310 N -0.12103 0.26937 -0.15647
 C311 C -0.13315 0.28190 -0.13205
 N312 N -0.15761 0.26953 -0.11987
 N313 N -0.16960 0.24535 -0.13176
 C314 C -0.15752 0.23274 -0.15625
 N315 N -0.13301 0.24519 -0.16838
 C316 C -0.12031 0.30801 -0.11932
 C317 C -0.10954 0.32998 -0.10869
 C318 C -0.09675 0.35616 -0.09608
 N319 N -0.10891 0.36879 -0.07172
 N320 N -0.09710 0.39317 -0.06005
 C321 C -0.07275 0.40571 -0.07238
 N322 N -0.06060 0.39301 -0.09677
 N323 N -0.07242 0.36863 -0.10843
 N324 N 0.15711 0.73052 -0.12031
 C325 C 0.13267 0.71805 -0.13250
 N326 N 0.12048 0.73051 -0.15697
 N327 N 0.13237 0.75471 -0.16889
 C328 C 0.15686 0.76726 -0.15674
 N329 N 0.16901 0.75472 -0.13223
 C330 C 0.11994 0.69192 -0.11974
 C331 C 0.10927 0.66994 -0.10906
 C332 C 0.09661 0.64374 -0.09637
 N333 N 0.07226 0.63118 -0.10866
 N334 N 0.06056 0.60679 -0.09694
 C335 C 0.07283 0.59417 -0.07255
 N336 N 0.09720 0.60679 -0.06027
 N337 N 0.10891 0.63118 -0.07200
 N338 N -0.15708 0.73060 0.12012
 C339 C -0.13262 0.71823 0.13237
 N340 N -0.12047 0.73079 0.15680
 N341 N -0.13242 0.75499 0.16865
 C342 C -0.15693 0.76744 0.15646
 N343 N -0.16904 0.75481 0.13197
 C344 C -0.11981 0.69210 0.11970
 C345 C -0.10907 0.67011 0.10912
 C346 C -0.09634 0.64389 0.09655
 N347 N -0.07200 0.63141 0.10893
 N348 N -0.06023 0.60701 0.09730
 C349 C -0.07244 0.59430 0.07291
 N350 N -0.09679 0.60685 0.06055
 N351 N -0.10856 0.63125 0.07218
 N352 N 1.15635 0.12122 0.73111
 C353 C 1.13195 0.13331 0.71851
 N354 N 1.11974 0.15776 0.73088
 N355 N 1.13159 0.16976 0.75512
 C356 C 1.15607 0.15773 0.76783
 N357 N 1.16821 0.13322 0.75534
 C358 C 1.11928 0.12045 0.69233
 C359 C 1.10871 0.10964 0.67030
 C360 C 1.09617 0.09681 0.64404
 N361 N 1.07187 0.10896 0.63128
 N362 N 1.06028 0.09711 0.60684
 C363 C 1.07263 0.07274 0.59436
 N364 N 1.09695 0.06061 0.60719
 N365 N 1.10854 0.07246 0.63164
 N366 N 0.84280 -0.12041 0.73037
 C367 C 0.86723 -0.13256 0.71792
 N368 N 0.87939 -0.15698 0.73041
 N369 N 0.86748 -0.16890 0.75463
 C370 C 0.84298 -0.15682 0.76719
 N371 N 0.83088 -0.13233 0.75459
 C372 C 0.87998 -0.11980 0.69177
 C373 C 0.89067 -0.10912 0.66977
 C374 C 0.90338 -0.09646 0.64355
 N375 N 0.92773 -0.10872 0.63105
 N376 N 0.93948 -0.09702 0.60664
 C377 C 0.92726 -0.07268 0.59395
 N378 N 0.90289 -0.06044 0.60653
 N379 N 0.89113 -0.07214 0.63093
 N380 N 1.15714 -0.12134 0.26924
 C381 C 1.13272 -0.13345 0.28175
 N382 N 1.12054 -0.15791 0.26935
 N383 N 1.13242 -0.16991 0.24516
 C384 C 1.15691 -0.15786 0.23253
 N385 N 1.16902 -0.13333 0.24505
 C386 C 1.12000 -0.12059 0.30788
 C387 C 1.10937 -0.10981 0.32985
 C388 C 1.09673 -0.09702 0.35605
 N389 N 1.07236 -0.10917 0.36862
 N390 N 1.06066 -0.09735 0.39299
 C391 C 1.07297 -0.07301 0.40559
 N392 N 1.09737 -0.06087 0.39295
 N393 N 1.10906 -0.07269 0.36858
 N394 N 0.88021 0.15764 0.26871
 C395 C 0.86804 0.13319 0.28109
 N396 N 0.84359 0.12110 0.26857
 N397 N 0.83165 0.13311 0.24438
 C398 C 0.84375 0.15764 0.23188
 N399 N 0.86828 0.16966 0.24452
 C400 C 0.88079 0.12033 0.30722
 C401 C 0.89144 0.10953 0.32921
 C402 C 0.90407 0.09673 0.35543
 N403 N 0.89174 0.07238 0.36789
 N404 N 0.90340 0.06056 0.39231
 C405 C 0.92776 0.07271 0.40505
 N406 N 0.94008 0.09707 0.39253
 N407 N 0.92841 0.10889 0.36811
 N408 N 0.11980 0.26933 -0.15747
 C409 C 0.13202 0.28172 -0.13299
 N410 N 0.15644 0.26920 -0.12083
 N411 N 0.16828 0.24501 -0.13279
 C412 C 0.15613 0.23249 -0.15735
 N413 N 0.13164 0.24513 -0.16945
 C414 C 0.11936 0.30785 -0.12015
 C415 C 0.10878 0.32984 -0.10938
 C416 C 0.09623 0.35604 -0.09659
 N417 N 0.10861 0.36852 -0.07223
 N418 N 0.09700 0.39291 -0.06041
 C419 C 0.07263 0.40561 -0.07260
 N420 N 0.06027 0.39306 -0.09698
 N421 N 0.07188 0.36868 -0.10879
 N422 N -0.15667 0.26936 0.12086
 C423 C -0.13221 0.28179 0.13304
 N424 N -0.11999 0.26928 0.15746
 N425 N -0.13187 0.24507 0.16936
 C426 C -0.15641 0.23253 0.15725
 N427 N -0.16856 0.24514 0.13276
 C428 C -0.11948 0.30793 0.12029
 C429 C -0.10882 0.32993 0.10961
 C430 C -0.09618 0.35614 0.09693
 N431 N -0.07183 0.36871 0.10922
 N432 N -0.06014 0.39310 0.09749
 C433 C -0.07243 0.40572 0.07310
 N434 N -0.09679 0.39309 0.06084
 N435 N -0.10848 0.36870 0.07257
 N436 N -0.12002 0.73046 -0.15738
 C437 C -0.13220 0.71804 -0.13291
 N438 N -0.15662 0.73053 -0.12079
 N439 N -0.16851 0.75472 -0.13276
 C440 C -0.15637 0.76721 -0.15728
 N441 N -0.13190 0.75464 -0.16936
 C442 C -0.11949 0.69193 -0.12008
 C443 C -0.10884 0.66995 -0.10933
 C444 C -0.09621 0.64376 -0.09657
 N445 N -0.10849 0.63127 -0.07219
 N446 N -0.09681 0.60689 -0.06040
 C447 C -0.07248 0.59421 -0.07262
 N448 N -0.06022 0.60677 -0.09703
 N449 N -0.07190 0.63115 -0.10881
 N450 N 0.15717 0.73059 0.12129
 C451 C 0.13275 0.71810 0.13342
 N452 N 0.12057 0.73052 0.15787
 N453 N 0.13245 0.75472 0.16985
 C454 C 0.15693 0.76733 0.15778
 N455 N 0.16905 0.75479 0.13325
 C456 C 0.12003 0.69197 0.12059
 C457 C 0.10939 0.66999 0.10984
 C458 C 0.09675 0.64379 0.09708
 N459 N 0.07242 0.63119 0.10930
 N460 N 0.06073 0.60681 0.09752
 C461 C 0.07299 0.59423 0.07313
 N462 N 0.09734 0.60689 0.06092
 N463 N 0.10903 0.63127 0.07271
 N464 N 0.26882 1.15726 0.87986
 C465 C 0.28124 1.13283 0.86768
 N466 N 0.26874 1.12068 0.84321
 N467 N 0.24455 1.13261 0.83127
 C468 C 0.23205 1.15709 0.84340
 N469 N 0.24462 1.16920 0.86792
 C470 C 0.30737 1.12006 0.88045
 C471 C 0.32937 1.10935 0.89112
 C472 C 0.35558 1.09664 0.90377
 N473 N 0.36810 1.07234 0.89143
 N474 N 0.39251 1.06059 0.90312
 C475 C 0.40520 1.07279 0.92752
 N476 N 0.39262 1.09711 0.93984
 N477 N 0.36821 1.10885 0.92815
 N478 N 0.26959 0.84260 1.12070
 C479 C 0.28202 0.86705 1.13288
 N480 N 0.26955 0.87921 1.15732
 N481 N 0.24537 0.86727 1.16924
 C482 C 0.23287 0.84276 1.15712
 N483 N 0.24542 0.83065 1.13262
 C484 C 0.30812 0.87985 1.12011
 C485 C 0.33008 0.89057 1.10943
 C486 C 0.35625 0.90329 1.09674
 N487 N 0.36881 0.92761 1.10906
 N488 N 0.39317 0.93938 1.09733
 C489 C 0.40575 0.92719 1.07291
 N490 N 0.39313 0.90286 1.06061
 N491 N 0.36877 0.89109 1.07234
 N492 N 0.73087 1.12073 1.15675
 C493 C 0.71830 1.13292 1.13234
 N494 N 0.73069 1.15737 1.12016
 N495 N 0.75493 1.16930 1.13205
 C496 C 0.76757 1.15716 1.15652
 N497 N 0.75510 1.13265 1.16864
 C498 C 0.69213 1.12015 1.11962
 C499 C 0.67012 1.10943 1.10900
 C500 C 0.64387 1.09671 1.09639
 N501 N 0.63118 1.10895 1.07207
 N502 N 0.60675 1.09719 1.06042
 C503 C 0.59423 1.07281 1.07272
 N504 N 0.60699 1.06059 1.09707
 N505 N 0.63142 1.07236 1.10872
 N506 N 0.73027 0.84364 0.87903
 C507 C 0.71779 0.86805 0.86684
 N508 N 0.73022 0.88021 0.84238
 N509 N 0.75442 0.86832 0.83046
 C510 C 0.76698 0.84386 0.84260
 N511 N 0.75446 0.83174 0.86712
 C512 C 0.69166 0.88078 0.87961
 C513 C 0.66969 0.89141 0.89033
 C514 C 0.64349 0.90401 0.90307
 N515 N 0.63085 0.92833 0.89084
 N516 N 0.60647 0.93998 0.90262
 C517 C 0.59393 0.92768 0.92701
 N518 N 0.60663 0.90334 0.93923
 N519 N 0.63102 0.89170 0.92744
   
