data_POSCAR
  _audit_creation_date              2014-09-24
  _audit_creation_method            'ToBaCCo'
  _symmetry_space_group_name_H-M    'P1'
  _symmetry_Int_Tables_number       1
  _symmetry_cell_setting            triclinic
  loop_
  _symmetry_equiv_pos_as_xyz
 x,y,z
_cell_length_a 32.9492
_cell_length_b 35.2877
_cell_length_c 33.5905
_cell_angle_alpha 90.011300
_cell_angle_beta 90.015500
_cell_angle_gamma 83.967200
loop_
  _atom_site_label
  _atom_site_type_symbol
  _atom_site_fract_x
  _atom_site_fract_y
  _atom_site_fract_z
C1 C 1.22032 0.22694 0.20110
 C2 C 1.24310 0.25569 0.17789
 C3 C 1.26559 0.27733 0.20108
 C4 C 1.26352 0.26814 0.24589
 C5 C 1.25386 0.20383 0.22507
 C6 C 1.27617 0.22498 0.24886
 C7 C 1.19537 0.25121 0.23213
 C8 C 1.21766 0.27262 0.25574
 H9 H 1.24354 0.25797 0.14590
 H10 H 1.28194 0.28546 0.26499
 H11 H 1.25769 0.17296 0.22511
 H12 H 1.16250 0.25195 0.23437
 C13 C 0.72172 -0.27407 0.19171
 C14 C 0.74368 -0.24468 0.16867
 C15 C 0.76586 -0.22291 0.19218
 C16 C 0.76398 -0.23261 0.23695
 C17 C 0.75574 -0.29689 0.21527
 C18 C 0.77749 -0.27560 0.23936
 C19 C 0.69642 -0.25052 0.22289
 C20 C 0.71822 -0.22928 0.24691
 H21 H 0.74389 -0.24229 0.13665
 H22 H 0.78187 -0.21510 0.25639
 H23 H 0.75986 -0.32777 0.21529
 H24 H 0.66364 -0.25064 0.22545
 C25 C 0.72732 0.22005 -0.30455
 C26 C 0.74701 0.24905 -0.32600
 C27 C 0.76890 0.27303 -0.30087
 C28 C 0.76662 0.26264 -0.25839
 C29 C 0.76060 0.19911 -0.28263
 C30 C 0.78185 0.22198 -0.25604
 C31 C 0.70187 0.24087 -0.27483
 C32 C 0.72291 0.26452 -0.24905
 H33 H 0.75265 0.24754 -0.35765
 H34 H 0.78346 0.28032 -0.23864
 H35 H 0.76619 0.16835 -0.28377
 H36 H 0.66891 0.24164 -0.27543
 C37 C 1.23185 -0.28251 -0.30201
 C38 C 1.25901 -0.25749 -0.32522
 C39 C 1.27942 -0.23414 -0.30185
 C40 C 1.27056 -0.23786 -0.25689
 C41 C 1.26056 -0.30351 -0.27164
 C42 C 1.28028 -0.28045 -0.24768
 C43 C 1.20392 -0.25406 -0.27740
 C44 C 1.22376 -0.23127 -0.25308
 H45 H 1.26053 -0.25635 -0.35726
 H46 H 1.28725 -0.21944 -0.23734
 H47 H 1.26357 -0.33422 -0.26825
 H48 H 1.17096 -0.25303 -0.27848
 C49 C 0.22562 0.22674 0.79875
 C50 C 0.24721 0.25331 0.82153
 C51 C 0.27042 0.27731 0.79797
 C52 C 0.26774 0.26947 0.75514
 C53 C 0.20004 0.25134 0.76849
 C54 C 0.22180 0.27366 0.74550
 C55 C 0.25909 0.20435 0.77395
 C56 C 0.28083 0.22644 0.75060
 H57 H 0.25231 0.25016 0.85314
 H58 H 0.28490 0.28717 0.73539
 H59 H 0.16722 0.25149 0.76619
 H60 H 0.26350 0.17350 0.77319
 C61 C 0.71727 0.72941 0.81154
 C62 C 0.74501 0.75196 0.83224
 C63 C 0.76958 0.77291 0.80664
 C64 C 0.76130 0.76648 0.76409
 C65 C 0.69338 0.75588 0.78518
 C66 C 0.71710 0.77704 0.75904
 C67 C 0.74259 0.70512 0.78445
 C68 C 0.76770 0.72478 0.75839
 H69 H 0.74360 0.75570 0.86423
 H70 H 0.78066 0.78186 0.74448
 H71 H 0.66175 0.75314 0.77848
 H72 H 0.73800 0.67542 0.78034
 C73 C 0.72748 0.21955 0.30289
 C74 C 0.75049 0.24792 0.32635
 C75 C 0.77250 0.27009 0.30316
 C76 C 0.76898 0.26213 0.25812
 C77 C 0.70158 0.24433 0.27315
 C78 C 0.72296 0.26607 0.24927
 C79 C 0.76060 0.19722 0.27768
 C80 C 0.78197 0.21919 0.25389
 H81 H 0.74981 0.25066 0.35831
 H82 H 0.78680 0.27990 0.23892
 H83 H 0.66879 0.24417 0.27100
 H84 H 0.76473 0.16636 0.27683
 C85 C 0.22912 0.71704 0.29774
 C86 C 0.24862 0.74699 0.32211
 C87 C 0.26947 0.77107 0.30015
 C88 C 0.26859 0.76301 0.25499
 C89 C 0.20276 0.73994 0.26660
 C90 C 0.22301 0.76410 0.24433
 C91 C 0.26434 0.69694 0.27317
 C92 C 0.28495 0.72077 0.25089
 H93 H 0.24768 0.74756 0.35434
 H94 H 0.28540 0.78227 0.23657
 H95 H 0.17054 0.73728 0.26282
 H96 H 0.26953 0.66645 0.26912
 N97 N 1.07348 0.02916 0.04073
 N98 N 1.10060 0.05342 0.04741
 N99 N 1.04324 -0.04732 0.06722
 N100 N 1.05289 -0.07172 0.09640
 N101 N 1.07180 -0.05024 0.03973
 N102 N 1.10149 -0.07669 0.04953
 N103 N 1.04513 0.03211 0.06832
 N104 N 1.05210 0.05850 0.09459
 C105 C 1.08661 0.07156 0.08091
 C106 C 1.08878 -0.09031 0.08445
 N107 N 0.92630 -0.03208 0.03911
 N108 N 0.89712 -0.05399 0.04674
 N109 N 0.95762 0.04293 0.06791
 N110 N 0.95077 0.06883 0.09606
 N111 N 0.92913 0.04732 0.04042
 N112 N 0.90192 0.07634 0.04939
 N113 N 0.95477 -0.03636 0.06666
 N114 N 0.94565 -0.06121 0.09378
 Mn115 Mn 1.00015 -0.00226 0.06784
 C116 C 0.90993 -0.07223 0.08059
 C117 C 0.91645 0.08979 0.08376
 N118 N 1.07200 -0.04900 -0.04628
 N119 N 1.10160 -0.07539 -0.05642
 N120 N 1.04567 0.03402 -0.07267
 N121 N 1.05305 0.06096 -0.09812
 N122 N 1.07375 0.03030 -0.04480
 N123 N 1.10107 0.05455 -0.05048
 N124 N 1.04365 -0.04533 -0.07399
 N125 N 1.05332 -0.06912 -0.10364
 Mn126 Mn 1.07306 -0.01001 -0.00267
 C127 C 1.08900 -0.08813 -0.09177
 C128 C 1.08748 0.07355 -0.08360
 N129 N 0.92938 0.04854 -0.04596
 N130 N 0.90219 0.07775 -0.05442
 N131 N 0.95524 -0.03454 -0.07443
 N132 N 0.94707 -0.05974 -0.10164
 N133 N 0.92657 -0.03102 -0.04707
 N134 N 0.89820 -0.05378 -0.05490
 N135 N 0.95811 0.04491 -0.07322
 N136 N 0.95145 0.07154 -0.10067
 Mn137 Mn 0.92739 0.00829 -0.00338
 Mn138 Mn 1.00064 -0.00032 -0.07391
 Cl139 Cl 1.00027 -0.00124 -0.00303
 C140 C 0.91698 0.09217 -0.08820
 C141 C 0.91159 -0.07164 -0.08881
 N142 N 1.03952 0.46077 0.43213
 N143 N 1.06654 0.45148 0.40381
 N144 N 0.95606 0.43629 0.45914
 N145 N 0.93229 0.40962 0.45038
 N146 N 0.95405 0.46246 0.43113
 N147 N 0.92885 0.45414 0.40253
 N148 N 1.04154 0.43434 0.45981
 N149 N 1.07000 0.40639 0.45099
 C150 C 1.08584 0.41795 0.41647
 C151 C 0.91508 0.42148 0.41544
 N152 N 0.95266 0.46278 0.57307
 N153 N 0.92702 0.45461 0.60132
 N154 N 1.04078 0.43464 0.54570
 N155 N 1.06996 0.40732 0.55433
 N156 N 1.03816 0.46107 0.57339
 N157 N 1.06551 0.45242 0.60158
 N158 N 0.95527 0.43637 0.54528
 N159 N 0.93145 0.40966 0.55390
 Mn160 Mn 0.99840 0.43513 0.50249
 C161 C 0.91363 0.42174 0.58852
 C162 C 1.08555 0.41926 0.58880
 N163 N 0.94695 0.54511 0.43087
 N164 N 0.92418 0.55654 0.39991
 N165 N 1.02938 0.56931 0.46001
 N166 N 1.05540 0.59458 0.45362
 N167 N 1.03240 0.54304 0.43219
 N168 N 1.06062 0.54982 0.40592
 N169 N 0.94414 0.57155 0.45868
 N170 N 0.91949 0.60147 0.44713
 Mn171 Mn 0.99320 0.50283 0.43126
 C172 C 0.90650 0.59120 0.41098
 C173 C 1.07489 0.58179 0.42016
 N174 N 1.03108 0.54310 0.57287
 N175 N 1.06039 0.54860 0.59840
 N176 N 0.94332 0.57180 0.54495
 N177 N 0.91804 0.60162 0.55565
 N178 N 0.94558 0.54556 0.57293
 N179 N 0.92181 0.55703 0.60321
 N180 N 1.02862 0.56932 0.54501
 N181 N 1.05612 0.59333 0.55063
 Mn182 Mn 0.99181 0.50312 0.57341
 Mn183 Mn 0.98623 0.57066 0.50218
 Cl184 Cl 0.99216 0.50291 0.50232
 C185 C 1.07577 0.57982 0.58374
 C186 C 0.90417 0.59154 0.59152
 N187 N 0.57076 0.02868 0.54078
 N188 N 0.59848 0.05261 0.54577
 N189 N 0.54033 -0.04608 0.57124
 N190 N 0.55096 -0.06835 0.60190
 N191 N 0.56837 -0.05047 0.54330
 N192 N 0.59870 -0.07576 0.55435
 N193 N 0.54281 0.03324 0.56868
 N194 N 0.55075 0.06047 0.59359
 C195 C 0.58533 0.07236 0.57853
 C196 C 0.58685 -0.08725 0.59047
 N197 N 0.42329 -0.03163 0.54426
 N198 N 0.39569 -0.05523 0.55191
 N199 N 0.45518 0.04452 0.56944
 N200 N 0.44888 0.07155 0.59651
 N201 N 0.42619 0.04787 0.54240
 N202 N 0.39922 0.07731 0.55061
 N203 N 0.45210 -0.03475 0.57152
 N204 N 0.44490 -0.06049 0.59841
 Mn205 Mn 0.49753 -0.00079 0.57055
 C206 C 0.40980 -0.07306 0.58561
 C207 C 0.41438 0.09210 0.58402
 N208 N 0.56735 -0.05231 0.45738
 N209 N 0.59714 -0.07858 0.44750
 N210 N 0.54158 0.03017 0.42825
 N211 N 0.54903 0.05656 0.40214
 N212 N 0.56993 0.02672 0.45584
 N213 N 0.59740 0.05059 0.44947
 N214 N 0.53897 -0.04911 0.42969
 N215 N 0.54886 -0.07318 0.40031
 Mn216 Mn 0.56932 -0.01196 0.49930
 C217 C 0.58464 -0.09186 0.41239
 C218 C 0.58376 0.06904 0.41615
 N219 N 0.42538 0.04611 0.45608
 N220 N 0.39837 0.07532 0.44725
 N221 N 0.45059 -0.03771 0.43022
 N222 N 0.44143 -0.06283 0.40336
 N223 N 0.42228 -0.03336 0.45792
 N224 N 0.39313 -0.05544 0.45058
 N225 N 0.45381 0.04160 0.42855
 N226 N 0.44704 0.06760 0.40045
 Mn227 Mn 0.42379 0.00731 0.50019
 Mn228 Mn 0.49620 -0.00381 0.42883
 Cl229 Cl 0.49663 -0.00249 0.49971
 C230 C 0.41283 0.08873 0.41283
 C231 C 0.40581 -0.07389 0.41675
 N232 N 0.57485 0.52295 0.04318
 N233 N 0.60119 0.54815 0.04822
 N234 N 0.54337 0.44725 0.06881
 N235 N 0.55311 0.42261 0.09769
 N236 N 0.57141 0.44403 0.04082
 N237 N 0.60085 0.41718 0.04998
 N238 N 0.54664 0.52645 0.07087
 N239 N 0.55298 0.55422 0.09570
 C240 C 0.58704 0.56733 0.08095
 C241 C 0.58845 0.40359 0.08496
 N242 N 0.42670 0.46400 0.04181
 N243 N 0.39694 0.44283 0.04987
 N244 N 0.45914 0.53848 0.07146
 N245 N 0.45362 0.56509 0.09908
 N246 N 0.43049 0.54335 0.04420
 N247 N 0.40457 0.57347 0.05264
 N248 N 0.45525 0.45934 0.06925
 N249 N 0.44571 0.43490 0.09661
 Mn250 Mn 0.50109 0.49283 0.07046
 C251 C 0.40962 0.42452 0.08377
 C252 C 0.41991 0.58694 0.08661
 N253 N 0.57139 0.44674 -0.04486
 N254 N 0.60041 0.41992 -0.05524
 N255 N 0.54658 0.53104 -0.06917
 N256 N 0.55286 0.56054 -0.09173
 N257 N 0.57480 0.52570 -0.04159
 N258 N 0.60106 0.55126 -0.04445
 N259 N 0.54337 0.45172 -0.07276
 N260 N 0.55270 0.42835 -0.10288
 Mn261 Mn 0.57338 0.48470 -0.00062
 C262 C 0.58784 0.40828 -0.09102
 C263 C 0.58691 0.57268 -0.07572
 N264 N 0.43046 0.54591 -0.04165
 N265 N 0.40385 0.57587 -0.04853
 N266 N 0.45509 0.46375 -0.07239
 N267 N 0.44628 0.43965 -0.10041
 N268 N 0.42676 0.46666 -0.04465
 N269 N 0.39793 0.44460 -0.05311
 N270 N 0.45891 0.54287 -0.06920
 N271 N 0.45248 0.57063 -0.09547
 Mn272 Mn 0.42812 0.50498 -0.00010
 Mn273 Mn 0.50096 0.49732 -0.07130
 Cl274 Cl 0.50079 0.49474 -0.00041
 C275 C 0.41855 0.59130 -0.08172
 C276 C 0.41080 0.42777 -0.08771
 C277 C 1.14746 0.15036 0.13810
 C278 C 1.16634 0.17746 0.11650
 C279 C 1.18944 0.20281 0.13612
 C280 C 1.19421 0.20127 0.17788
 C281 C 1.17421 0.17423 0.19920
 C282 C 1.15119 0.14899 0.17951
 C283 C 1.12530 0.12318 0.11773
 C284 C 1.10732 0.09988 0.10084
 H285 H 1.16353 0.17879 0.08438
 H286 H 1.20333 0.22305 0.11799
 H287 H 1.17692 0.17239 0.23130
 H288 H 1.13666 0.12812 0.19656
 C289 C 1.15894 0.63970 0.63774
 C290 C 1.15828 0.64314 0.67910
 C291 C 1.18241 0.66794 0.69779
 C292 C 1.20759 0.68997 0.67550
 C293 C 1.20870 0.68557 0.63378
 C294 C 1.18436 0.66066 0.61510
 C295 C 1.13125 0.61677 0.61861
 C296 C 1.10659 0.59893 0.60285
 H297 H 1.13852 0.62720 0.69688
 H298 H 1.18099 0.67045 0.72992
 H299 H 1.22767 0.70124 0.61514
 H300 H 1.18485 0.65823 0.58294
 C301 C 0.65270 0.14752 0.63294
 C302 C 0.66631 0.17860 0.61305
 C303 C 0.69109 0.20254 0.63269
 C304 C 0.70341 0.19525 0.67262
 C305 C 0.68823 0.16411 0.69224
 C306 C 0.66358 0.14045 0.67254
 C307 C 0.62786 0.12235 0.61299
 C308 C 0.60780 0.10009 0.59710
 H309 H 0.65749 0.18454 0.58242
 H310 H 0.69934 0.22696 0.61643
 H311 H 0.69521 0.15825 0.72331
 H312 H 0.65284 0.11666 0.68834
 C313 C 0.64761 0.64902 0.13207
 C314 C 0.66644 0.67533 0.10923
 C315 C 0.69034 0.70076 0.12768
 C316 C 0.69575 0.69989 0.16931
 C317 C 0.67609 0.67340 0.19174
 C318 C 0.65230 0.64823 0.17330
 C319 C 0.62502 0.62141 0.11343
 C320 C 0.60700 0.59715 0.09857
 H321 H 0.66300 0.67593 0.07715
 H322 H 0.70436 0.72052 0.10899
 H323 H 0.67948 0.67206 0.22381
 H324 H 0.63797 0.62783 0.19120
 C325 C 0.84024 -0.14351 0.13917
 C326 C 0.85385 -0.16385 0.17332
 C327 C 0.82920 -0.18898 0.19136
 C328 C 0.79077 -0.19416 0.17527
 C329 C 0.77703 -0.17288 0.14154
 C330 C 0.80160 -0.14781 0.12365
 C331 C 0.86584 -0.11867 0.11935
 C332 C 0.88641 -0.09770 0.10189
 H333 H 0.88372 -0.16073 0.18562
 H334 H 0.84077 -0.20522 0.21704
 H335 H 0.74730 -0.17573 0.12884
 H336 H 0.79061 -0.13207 0.09742
 C337 C 0.83943 0.35517 0.64824
 C338 C 0.84774 0.34202 0.68701
 C339 C 0.82411 0.31565 0.70448
 C340 C 0.79184 0.30150 0.68320
 C341 C 0.78336 0.31607 0.64449
 C342 C 0.80689 0.34241 0.62732
 C343 C 0.86533 0.38007 0.62873
 C344 C 0.88711 0.39978 0.61096
 H345 H 0.87312 0.35148 0.70345
 H346 H 0.83301 0.30522 0.73376
 H347 H 0.75803 0.30779 0.62722
 H348 H 0.79990 0.35253 0.59739
 C349 C 0.35085 -0.15284 0.64396
 C350 C 0.32978 -0.14374 0.67948
 C351 C 0.30758 -0.17059 0.69791
 C352 C 0.30595 -0.20679 0.68088
 C353 C 0.32830 -0.21600 0.64583
 C354 C 0.35048 -0.18920 0.62751
 C355 C 0.37187 -0.12465 0.62368
 C356 C 0.38920 -0.10113 0.60629
 H357 H 0.32987 -0.11567 0.69254
 H358 H 0.29064 -0.16248 0.72463
 H359 H 0.32844 -0.24388 0.63235
 H360 H 0.36688 -0.19669 0.60020
 C361 C 0.33951 0.35559 0.14537
 C362 C 0.30021 0.35189 0.13126
 C363 C 0.27578 0.32736 0.15021
 C364 C 0.29031 0.30599 0.18362
 C365 C 0.32933 0.31073 0.19850
 C366 C 0.35387 0.33532 0.17936
 C367 C 0.36502 0.37964 0.12422
 C368 C 0.38563 0.39991 0.10579
 H369 H 0.28860 0.36760 0.10521
 H370 H 0.24556 0.32487 0.13847
 H371 H 0.34142 0.29445 0.22396
 H372 H 0.38424 0.33802 0.19063
 C373 C 0.85653 0.16548 -0.16692
 C374 C 0.83809 0.20246 -0.15988
 C375 C 0.81518 0.22238 -0.18997
 C376 C 0.80975 0.20515 -0.22735
 C377 C 0.83054 0.16870 -0.23434
 C378 C 0.85348 0.14920 -0.20451
 C379 C 0.87739 0.14279 -0.13596
 C380 C 0.89510 0.12093 -0.11258
 H381 H 0.84035 0.21544 -0.13085
 H382 H 0.79958 0.24998 -0.18257
 H383 H 0.82938 0.15487 -0.26300
 H384 H 0.86822 0.12086 -0.21059
 C385 C 0.84874 0.66306 0.32917
 C386 C 0.82504 0.69708 0.33900
 C387 C 0.80376 0.71869 0.30921
 C388 C 0.80584 0.70620 0.26946
 C389 C 0.83129 0.67302 0.25970
 C390 C 0.85258 0.65161 0.28938
 C391 C 0.86801 0.63877 0.35960
 C392 C 0.88481 0.61730 0.38378
 H393 H 0.82198 0.70624 0.36974
 H394 H 0.78396 0.74389 0.31754
 H395 H 0.83361 0.66297 0.22923
 H396 H 0.87108 0.62549 0.28141
 C397 C 0.35276 0.16464 0.33608
 C398 C 0.32926 0.19861 0.34660
 C399 C 0.30600 0.21972 0.31763
 C400 C 0.30577 0.20677 0.27805
 C401 C 0.33084 0.17358 0.26754
 C402 C 0.35413 0.15273 0.29633
 C403 C 0.37365 0.14030 0.36574
 C404 C 0.39126 0.11775 0.38851
 H405 H 0.32790 0.20809 0.37728
 H406 H 0.28661 0.24497 0.32658
 H407 H 0.33151 0.16317 0.23718
 H408 H 0.37227 0.12659 0.28776
 C409 C 0.35097 0.66746 -0.15193
 C410 C 0.36677 0.69580 -0.17474
 C411 C 0.34301 0.71449 -0.20493
 C412 C 0.30375 0.70431 -0.21280
 C413 C 0.28757 0.67719 -0.18851
 C414 C 0.31102 0.65893 -0.15831
 C415 C 0.37641 0.64367 -0.12522
 C416 C 0.39627 0.62096 -0.10439
 H417 H 0.39781 0.70240 -0.17020
 H418 H 0.35594 0.73537 -0.22336
 H419 H 0.25706 0.66939 -0.19365
 H420 H 0.29853 0.63700 -0.14096
 C421 C 1.15833 -0.15969 -0.16594
 C422 C 1.14508 -0.19472 -0.17618
 C423 C 1.16670 -0.21808 -0.20411
 C424 C 1.20187 -0.20665 -0.22249
 C425 C 1.21562 -0.17185 -0.21124
 C426 C 1.19382 -0.14838 -0.18324
 C427 C 1.13449 -0.13492 -0.13884
 C428 C 1.11381 -0.11394 -0.11689
 H429 H 1.11779 -0.20384 -0.16282
 H430 H 1.15590 -0.24524 -0.21112
 H431 H 1.24254 -0.16230 -0.22464
 H432 H 1.20432 -0.12125 -0.17550
 C433 C 1.15865 0.34696 0.34436
 C434 C 1.14592 0.31091 0.33778
 C435 C 1.16581 0.28642 0.30969
 C436 C 1.19879 0.29765 0.28761
 C437 C 1.21234 0.33342 0.29524
 C438 C 1.19221 0.35805 0.32336
 C439 C 1.13534 0.37300 0.37084
 C440 C 1.11377 0.39396 0.39219
 H441 H 1.12003 0.30198 0.35384
 H442 H 1.15515 0.25876 0.30502
 H443 H 1.23745 0.34292 0.27848
 H444 H 1.20222 0.38599 0.32805
 C445 C 0.65621 -0.16167 0.33851
 C446 C 0.64638 -0.19858 0.33121
 C447 C 0.66763 -0.22100 0.30231
 C448 C 0.69893 -0.20672 0.28019
 C449 C 0.70987 -0.17021 0.28879
 C450 C 0.68840 -0.14768 0.31775
 C451 C 0.63155 -0.13759 0.36555
 C452 C 0.61010 -0.11716 0.38736
 H453 H 0.62165 -0.20972 0.34720
 H454 H 0.65916 -0.24938 0.29685
 H455 H 0.73375 -0.15856 0.27206
 H456 H 0.69617 -0.11905 0.32319
 C457 C 0.65756 0.33547 -0.16372
 C458 C 0.64208 0.30257 -0.17733
 C459 C 0.66412 0.27888 -0.20466
 C460 C 0.70232 0.28762 -0.21928
 C461 C 0.71821 0.32038 -0.20410
 C462 C 0.69584 0.34414 -0.17674
 C463 C 0.63326 0.36083 -0.13750
 C464 C 0.61236 0.38219 -0.11610
 H465 H 0.61267 0.29534 -0.16708
 H466 H 0.65114 0.25328 -0.21351
 H467 H 0.74671 0.32924 -0.21464
 H468 H 0.70803 0.36975 -0.16641
 C469 C 1.15073 0.15133 -0.13924
 C470 C 1.16533 0.18138 -0.11837
 C471 C 1.18918 0.20624 -0.13775
 C472 C 1.19941 0.20092 -0.17836
 C473 C 1.18310 0.17128 -0.19917
 C474 C 1.15931 0.14657 -0.17974
 C475 C 1.12761 0.12480 -0.11913
 C476 C 1.10888 0.10178 -0.10273
 H477 H 1.15832 0.18559 -0.08706
 H478 H 1.19887 0.22959 -0.12068
 H479 H 1.18905 0.16709 -0.23066
 H480 H 1.14780 0.12360 -0.19629
 C481 C 1.15452 0.64535 0.36505
 C482 C 1.14228 0.68421 0.36012
 C483 C 1.16731 0.70726 0.33977
 C484 C 1.20470 0.69170 0.32323
 C485 C 1.21774 0.65291 0.33063
 C486 C 1.19261 0.62993 0.35102
 C487 C 1.12762 0.62144 0.38415
 C488 C 1.10411 0.60244 0.40023
 H489 H 1.11309 0.69662 0.37150
 H490 H 1.15694 0.73719 0.33598
 H491 H 1.24714 0.63983 0.32098
 H492 H 1.20278 0.60003 0.35553
 C493 C 0.65048 0.14479 0.36227
 C494 C 0.65587 0.14336 0.32111
 C495 C 0.68110 0.16740 0.30276
 C496 C 0.70154 0.19334 0.32522
 C497 C 0.69585 0.19445 0.36684
 C498 C 0.67051 0.17024 0.38514
 C499 C 0.62552 0.11908 0.38105
 C500 C 0.60560 0.09668 0.39677
 H501 H 0.64065 0.12359 0.30317
 H502 H 0.68458 0.16593 0.27071
 H503 H 0.71040 0.21375 0.38564
 H504 H 0.66661 0.17132 0.41717
 C505 C 0.64901 0.65741 -0.11886
 C506 C 0.62961 0.69175 -0.13324
 C507 C 0.65201 0.71707 -0.15363
 C508 C 0.69418 0.70766 -0.16132
 C509 C 0.71381 0.67487 -0.14242
 C510 C 0.69132 0.64972 -0.12205
 C511 C 0.62553 0.62886 -0.10310
 C512 C 0.60702 0.60373 -0.09069
 H513 H 0.59696 0.69849 -0.12972
 H514 H 0.63567 0.74341 -0.16388
 H515 H 0.74644 0.66755 -0.14542
 H516 H 0.70677 0.62355 -0.11011
 C517 C 0.84696 -0.14937 -0.14453
 C518 C 0.83402 -0.14547 -0.18417
 C519 C 0.80933 -0.17144 -0.20087
 C520 C 0.79670 -0.20177 -0.17801
 C521 C 0.81105 -0.20560 -0.13834
 C522 C 0.83571 -0.17976 -0.12193
 C523 C 0.87057 -0.12176 -0.12620
 C524 C 0.88965 -0.09890 -0.10958
 H525 H 0.84233 -0.12189 -0.20199
 H526 H 0.79873 -0.16609 -0.23099
 H527 H 0.80415 -0.22905 -0.11969
 H528 H 0.84580 -0.18339 -0.09133
 C529 C 0.84537 0.35118 0.35585
 C530 C 0.82650 0.35910 0.31896
 C531 C 0.80329 0.33250 0.30132
 C532 C 0.79851 0.29783 0.32053
 C533 C 0.81832 0.28996 0.35720
 C534 C 0.84144 0.31643 0.37468
 C535 C 0.86904 0.37813 0.37491
 C536 C 0.88956 0.39897 0.39263
 H537 H 0.82948 0.38586 0.30401
 H538 H 0.78844 0.33947 0.27320
 H539 H 0.81622 0.26318 0.37238
 H540 H 0.85622 0.30978 0.40302
 C541 C 0.33874 -0.14736 0.35742
 C542 C 0.30118 -0.15518 0.37314
 C543 C 0.27827 -0.18101 0.35404
 C544 C 0.29257 -0.19956 0.31884
 C545 C 0.32995 -0.19097 0.30276
 C546 C 0.35290 -0.16510 0.32198
 C547 C 0.36279 -0.12156 0.37809
 C548 C 0.38256 -0.09994 0.39575
 H549 H 0.28973 -0.14152 0.40038
 H550 H 0.24933 -0.18648 0.36690
 H551 H 0.34209 -0.20507 0.27603
 H552 H 0.38192 -0.15932 0.30948
 C553 C 0.34324 0.35528 -0.14721
 C554 C 0.31078 0.34195 -0.12672
 C555 C 0.28669 0.31676 -0.14501
 C556 C 0.29450 0.30399 -0.18449
 C557 C 0.32703 0.31840 -0.20511
 C558 C 0.35118 0.34367 -0.18652
 C559 C 0.36810 0.38078 -0.12738
 C560 C 0.38801 0.40212 -0.10961
 H561 H 0.30397 0.35111 -0.09643
 H562 H 0.26125 0.30829 -0.12808
 H563 H 0.33539 0.30925 -0.23495
 H564 H 0.37636 0.35380 -0.20270
 C565 C 1.15890 -0.16343 0.15703
 C566 C 1.14941 -0.20080 0.16227
 C567 C 1.17104 -0.22468 0.18986
 C568 C 1.20247 -0.21149 0.21279
 C569 C 1.21271 -0.17429 0.20650
 C570 C 1.19093 -0.15035 0.17886
 C571 C 1.13457 -0.13813 0.13059
 C572 C 1.11367 -0.11669 0.10914
 H573 H 1.12484 -0.21130 0.14547
 H574 H 1.16295 -0.25344 0.19343
 H575 H 1.23651 -0.16326 0.22391
 H576 H 1.19849 -0.12142 0.17512
 C577 C 1.16088 0.34901 0.65911
 C578 C 1.14941 0.31229 0.66431
 C579 C 1.17001 0.28749 0.69164
 C580 C 1.20242 0.29906 0.71427
 C581 C 1.21479 0.33552 0.70796
 C582 C 1.19394 0.36048 0.68061
 C583 C 1.13672 0.37517 0.63349
 C584 C 1.11437 0.39592 0.61269
 H585 H 1.12393 0.30309 0.64781
 H586 H 1.16030 0.25932 0.69533
 H587 H 1.23948 0.34522 0.72520
 H588 H 1.20295 0.38892 0.67693
 C589 C 0.65625 -0.15187 0.67076
 C590 C 0.63601 -0.16104 0.70527
 C591 C 0.65657 -0.18328 0.73464
 C592 C 0.69812 -0.19751 0.73017
 C593 C 0.71878 -0.18631 0.69594
 C594 C 0.69785 -0.16395 0.66635
 C595 C 0.63360 -0.12979 0.64054
 C596 C 0.61275 -0.11088 0.61686
 H597 H 0.60405 -0.15107 0.70950
 H598 H 0.63950 -0.18863 0.76118
 H599 H 0.75047 -0.19578 0.69063
 H600 H 0.71399 -0.15656 0.63984
 C601 C 0.66019 0.33311 0.15775
 C602 C 0.69279 0.34707 0.17784
 C603 C 0.71442 0.32473 0.20680
 C604 C 0.70324 0.28849 0.21611
 C605 C 0.67153 0.27418 0.19454
 C606 C 0.65008 0.29642 0.16564
 C607 C 0.63535 0.35717 0.13092
 C608 C 0.61385 0.37782 0.10943
 H609 H 0.70077 0.37554 0.17189
 H610 H 0.73866 0.33638 0.22289
 H611 H 0.66292 0.24593 0.20039
 H612 H 0.62503 0.28532 0.15013
 C613 C 0.85651 0.16272 0.16296
 C614 C 0.85922 0.14944 0.20220
 C615 C 0.83646 0.16895 0.23221
 C616 C 0.81065 0.20214 0.22339
 C617 C 0.80945 0.21642 0.18428
 C618 C 0.83217 0.19664 0.15410
 C619 C 0.87703 0.13977 0.13212
 C620 C 0.89460 0.11810 0.10856
 H621 H 0.87804 0.12329 0.20943
 H622 H 0.83820 0.15756 0.26217
 H623 H 0.78942 0.24169 0.17664
 H624 H 0.82979 0.20713 0.12380
 C625 C 0.83924 0.66148 0.67081
 C626 C 0.82728 0.64397 0.70540
 C627 C 0.80497 0.66517 0.73449
 C628 C 0.79346 0.70471 0.72969
 C629 C 0.80748 0.72240 0.69530
 C630 C 0.82989 0.70086 0.66600
 C631 C 0.86145 0.63838 0.64099
 C632 C 0.88040 0.61740 0.61764
 H633 H 0.83517 0.61368 0.70997
 H634 H 0.79766 0.65012 0.76113
 H635 H 0.80001 0.75238 0.68965
 H636 H 0.83944 0.71484 0.63941
 C637 C 0.35583 0.16828 0.66112
 C638 C 0.35895 0.15629 0.70079
 C639 C 0.33625 0.17659 0.73033
 C640 C 0.31010 0.20932 0.72063
 C641 C 0.30866 0.22249 0.68110
 C642 C 0.33130 0.20189 0.65137
 C643 C 0.37588 0.14416 0.63086
 C644 C 0.39303 0.12150 0.60795
 H645 H 0.37789 0.13041 0.70873
 H646 H 0.33810 0.16603 0.76062
 H647 H 0.28836 0.24739 0.67284
 H648 H 0.32859 0.21141 0.62074
 C649 C 0.36289 0.66511 0.16255
 C650 C 0.33561 0.69668 0.15188
 C651 C 0.31211 0.71700 0.18121
 C652 C 0.31543 0.70546 0.22122
 C653 C 0.34446 0.67513 0.23181
 C654 C 0.36804 0.65516 0.20268
 C655 C 0.38290 0.64028 0.13290
 C656 C 0.39962 0.61699 0.11041
 H657 H 0.33125 0.70453 0.12088
 H658 H 0.28957 0.74003 0.17236
 H659 H 0.34756 0.66584 0.26250
 H660 H 0.38900 0.63081 0.21130
   
