data_POSCAR
  _audit_creation_date              2014-09-24
  _audit_creation_method            'ToBaCCo'
  _symmetry_space_group_name_H-M    'P1'
  _symmetry_Int_Tables_number       1
  _symmetry_cell_setting            triclinic
  loop_
  _symmetry_equiv_pos_as_xyz
 x,y,z
_cell_length_a 41.2457
_cell_length_b 40.6884
_cell_length_c 41.3435
_cell_angle_alpha 89.954300
_cell_angle_beta 89.984500
_cell_angle_gamma 89.991800
loop_
  _atom_site_label
  _atom_site_type_symbol
  _atom_site_fract_x
  _atom_site_fract_y
  _atom_site_fract_z
N1 N 0.58755 0.67704 0.61095
 N2 N 0.57500 0.66370 0.63705
 C3 C 0.54871 0.68110 0.64600
 C4 C 0.54449 0.70678 0.62432
 C5 C 0.56969 0.70332 0.60239
 H6 H 0.53363 0.67533 0.66660
 H7 H 0.57491 0.71888 0.58185
 Cu8 Cu 0.59430 0.62487 0.65669
 Cu9 Cu 0.62614 0.65946 0.59002
 Cu10 Cu 0.66093 0.59025 0.62465
 N11 N 0.61403 0.58603 0.67589
 N12 N 0.64008 0.57265 0.66324
 C13 C 0.64869 0.54634 0.68099
 C14 C 0.62683 0.54282 0.70637
 C15 C 0.60515 0.56865 0.70217
 H16 H 0.66938 0.53103 0.67560
 H17 H 0.58441 0.57452 0.71702
 N18 N 0.67842 0.61168 0.58558
 N19 N 0.66521 0.63804 0.57244
 C20 C 0.68265 0.64676 0.54626
 C21 C 0.70810 0.62485 0.54264
 C22 C 0.70457 0.60295 0.56808
 H23 H 0.67702 0.66740 0.53081
 H24 H 0.72007 0.58230 0.57363
 H25 H 0.61980 0.61146 0.60515
 H26 H 0.64584 0.63826 0.63099
 N27 N 0.91301 0.32241 0.11066
 N28 N 0.92560 0.33574 0.13669
 C29 C 0.95184 0.31829 0.14569
 C30 C 0.95607 0.29245 0.12408
 C31 C 0.93076 0.29605 0.10216
 H32 H 0.96664 0.32411 0.16643
 H33 H 0.92542 0.28079 0.08148
 Cu34 Cu 0.90640 0.37465 0.15624
 Cu35 Cu 0.87453 0.34016 0.08963
 Cu36 Cu 0.83992 0.40951 0.12407
 N37 N 0.88676 0.41355 0.17535
 N38 N 0.86075 0.42701 0.16267
 C39 C 0.85218 0.45332 0.18041
 C40 C 0.87401 0.45668 0.20568
 C41 C 0.89564 0.43091 0.20161
 H42 H 0.83169 0.46897 0.17507
 H43 H 0.91617 0.42506 0.21678
 N44 N 0.82245 0.38815 0.08500
 N45 N 0.83558 0.36174 0.07194
 C46 C 0.81815 0.35306 0.04576
 C47 C 0.79278 0.37507 0.04207
 C48 C 0.79636 0.39698 0.06745
 H49 H 0.82372 0.33238 0.03036
 H50 H 0.78092 0.41768 0.07295
 H51 H 0.88101 0.38814 0.10467
 H52 H 0.85483 0.36146 0.13053
 N53 N 0.41192 0.17818 -0.11099
 N54 N 0.42415 0.16519 -0.13739
 C55 C 0.45050 0.18251 -0.14628
 C56 C 0.45507 0.20782 -0.12430
 C57 C 0.43001 0.20421 -0.10223
 H58 H 0.46512 0.17722 -0.16733
 H59 H 0.42533 0.21918 -0.08117
 Cu60 Cu 0.40446 0.12689 -0.15759
 Cu61 Cu 0.37353 0.16040 -0.08989
 Cu62 Cu 0.33878 0.09125 -0.12439
 N63 N 0.38510 0.08758 -0.17614
 N64 N 0.35942 0.07382 -0.16309
 C65 C 0.35108 0.04725 -0.18057
 C66 C 0.37272 0.04403 -0.20603
 C67 C 0.39400 0.07015 -0.20236
 H68 H 0.33090 0.03133 -0.17490
 H69 H 0.41433 0.07617 -0.21774
 N70 N 0.32143 0.11249 -0.08522
 N71 N 0.33462 0.13884 -0.07212
 C72 C 0.31726 0.14749 -0.04588
 C73 C 0.29186 0.12552 -0.04218
 C74 C 0.29536 0.10367 -0.06763
 H75 H 0.32287 0.16813 -0.03046
 H76 H 0.27987 0.08302 -0.07315
 H77 H 0.38020 0.11265 -0.10567
 H78 H 0.35328 0.13945 -0.13068
 N79 N 0.08745 0.82158 0.38913
 N80 N 0.07527 0.83451 0.36269
 C81 C 0.04897 0.81713 0.35377
 C82 C 0.04430 0.79174 0.37582
 C83 C 0.06940 0.79553 0.39795
 H84 H 0.03442 0.82273 0.33278
 H85 H 0.07438 0.78061 0.41898
 Cu86 Cu 0.09488 0.87288 0.34247
 Cu87 Cu 0.12580 0.83941 0.41022
 Cu88 Cu 0.16043 0.90868 0.37572
 N89 N 0.11415 0.91230 0.32395
 N90 N 0.13977 0.92611 0.33701
 C91 C 0.14806 0.95274 0.31955
 C92 C 0.12644 0.95593 0.29407
 C93 C 0.10523 0.92975 0.29773
 H94 H 0.16819 0.96871 0.32523
 H95 H 0.08494 0.92369 0.28233
 N96 N 0.17780 0.88742 0.41489
 N97 N 0.16466 0.86102 0.42799
 C98 C 0.18203 0.85238 0.45423
 C99 C 0.20738 0.87439 0.45792
 C100 C 0.20385 0.89627 0.43247
 H101 H 0.17645 0.83170 0.46965
 H102 H 0.21929 0.91696 0.42694
 H103 H 0.11903 0.88716 0.39440
 H104 H 0.14606 0.86045 0.36944
 C105 C 0.10014 0.14922 0.12545
 C106 C 0.10041 0.12504 0.14960
 C107 C 0.12467 0.10094 0.14979
 C108 C 0.14868 0.10102 0.12581
 C109 C 0.14843 0.12518 0.10165
 C110 C 0.12416 0.14927 0.10148
 H111 H 0.08182 0.12498 0.16816
 H112 H 0.16746 0.08236 0.12595
 H113 H 0.12396 0.16798 0.08277
 C114 C 0.39903 0.85083 0.62557
 C115 C 0.39874 0.87500 0.64970
 C116 C 0.37445 0.89908 0.64987
 C117 C 0.35045 0.89898 0.62589
 C118 C 0.35072 0.87482 0.60176
 C119 C 0.37502 0.85076 0.60161
 H120 H 0.41733 0.87507 0.66824
 H121 H 0.33165 0.91762 0.62601
 H122 H 0.37524 0.83206 0.58293
 C123 C 0.89977 0.64901 0.37499
 C124 C 0.87579 0.64897 0.39899
 C125 C 0.85154 0.62487 0.39882
 C126 C 0.85128 0.60079 0.37461
 C127 C 0.87524 0.60081 0.35059
 C128 C 0.89949 0.62492 0.35079
 H129 H 0.87601 0.66761 0.41773
 H130 H 0.83251 0.58212 0.37446
 H131 H 0.91805 0.62494 0.33221
 C132 C 0.60098 0.35137 -0.12538
 C133 C 0.60129 0.37550 -0.14958
 C134 C 0.62558 0.39956 -0.14983
 C135 C 0.64959 0.39948 -0.12586
 C136 C 0.64931 0.37537 -0.10164
 C137 C 0.62500 0.35132 -0.10142
 H138 H 0.58270 0.37555 -0.16812
 H139 H 0.66840 0.41811 -0.12604
 H140 H 0.62477 0.33266 -0.08268
 C141 C 0.02941 0.21946 0.12483
 C142 C 0.00569 0.21933 0.10072
 C143 C -0.01853 0.24336 0.10042
 C144 C -0.01948 0.26812 0.12434
 C145 C 0.00471 0.26784 0.14852
 C146 C 0.02887 0.24374 0.14871
 C147 C 0.05433 0.19470 0.12507
 C148 C 0.07521 0.17396 0.12525
 H149 H 0.00589 0.20061 0.08209
 H150 H -0.03634 0.24226 0.08129
 H151 H 0.00529 0.28609 0.16748
 H152 H 0.04715 0.24406 0.16752
 C153 C 0.46987 0.78070 0.62499
 C154 C 0.49003 0.77720 0.59801
 C155 C 0.51429 0.75320 0.59776
 C156 C 0.51872 0.73229 0.62455
 C157 C 0.49826 0.73605 0.65157
 C158 C 0.47404 0.76009 0.65176
 C159 C 0.44491 0.80542 0.62521
 C160 C 0.42400 0.82612 0.62538
 H161 H 0.48697 0.79300 0.57712
 H162 H 0.52930 0.75097 0.57643
 H163 H 0.50101 0.72069 0.67275
 H164 H 0.45859 0.76263 0.67281
 C165 C 0.97056 0.71917 0.37551
 C166 C 0.97151 0.74305 0.35122
 C167 C 0.99579 0.76703 0.35128
 C168 C 1.01969 0.76758 0.37574
 C169 C 1.01831 0.74325 0.40010
 C170 C 0.99397 0.71933 0.39992
 C171 C 0.94560 0.69447 0.37534
 C172 C 0.92470 0.67375 0.37519
 H173 H 0.95347 0.74314 0.33217
 H174 H 0.99554 0.78496 0.33199
 H175 H 1.03587 0.74237 0.41946
 H176 H 0.99345 0.70092 0.41887
 C177 C 0.53004 0.28137 -0.12472
 C178 C 0.53216 0.25426 -0.14538
 C179 C 0.50783 0.23033 -0.14526
 C180 C 0.48098 0.23319 -0.12441
 C181 C 0.47914 0.26058 -0.10370
 C182 C 0.50350 0.28448 -0.10388
 C183 C 0.55506 0.30602 -0.12493
 C184 C 0.57600 0.32668 -0.12513
 H185 H 0.55265 0.25158 -0.16159
 H186 H 0.51032 0.20956 -0.16137
 H187 H 0.45882 0.26385 -0.08749
 H188 H 0.50159 0.30541 -0.08781
 C189 C 0.12546 0.03041 0.22012
 C190 C 0.09902 0.00919 0.22367
 C191 C 0.09930 -0.01502 0.24769
 C192 C 0.12608 -0.01834 0.26856
 C193 C 0.15254 0.00320 0.26475
 C194 C 0.15220 0.02737 0.24070
 C195 C 0.12516 0.05528 0.19535
 C196 C 0.12493 0.07610 0.17459
 H197 H 0.07816 0.01137 0.20789
 H198 H 0.07839 -0.03088 0.24995
 H199 H 0.17368 0.00132 0.28010
 H200 H 0.17283 0.04364 0.23813
 C201 C 0.62629 0.46989 -0.22035
 C202 C 0.65039 0.46971 -0.24410
 C203 C 0.65064 0.49374 -0.26829
 C204 C 0.62666 0.51852 -0.26919
 C205 C 0.60250 0.51829 -0.24497
 C206 C 0.60237 0.49420 -0.22084
 C207 C 0.62607 0.44510 -0.19550
 C208 C 0.62586 0.42434 -0.17468
 H209 H 0.66906 0.45096 -0.24394
 H210 H 0.66976 0.49260 -0.28612
 H211 H 0.58351 0.53657 -0.24434
 H212 H 0.58356 0.49456 -0.20254
 C213 C 0.37364 0.96960 0.72008
 C214 C 0.34687 0.97271 0.74062
 C215 C 0.34654 0.99687 0.76465
 C216 C 0.37304 1.01834 0.76847
 C217 C 0.39985 1.01496 0.74763
 C218 C 0.40012 0.99076 0.72364
 C219 C 0.37393 0.94474 0.69535
 C220 C 0.37417 0.92392 0.67463
 H221 H 0.32620 0.95649 0.73804
 H222 H 0.32537 0.99879 0.77997
 H223 H 0.42080 1.03076 0.74990
 H224 H 0.42100 0.98854 0.70789
 C225 C 0.87458 0.53060 0.28006
 C226 C 0.90132 0.50986 0.27609
 C227 C 0.90117 0.48582 0.25194
 C228 C 0.87420 0.48219 0.23136
 C229 C 0.84743 0.50323 0.23561
 C230 C 0.84765 0.52723 0.25979
 C231 C 0.87479 0.55534 0.30492
 C232 C 0.87498 0.57606 0.32574
 H233 H 0.92234 0.51229 0.29162
 H234 H 0.92233 0.47035 0.24934
 H235 H 0.82614 0.50110 0.22050
 H236 H 0.82678 0.54314 0.26269
 C237 C 0.21834 0.12533 0.03168
 C238 C 0.22209 0.09808 0.01143
 C239 C 0.24597 0.09810 -0.01258
 C240 C 0.26650 0.12545 -0.01667
 C241 C 0.26250 0.15273 0.00389
 C242 C 0.23858 0.15264 0.02787
 C243 C 0.19372 0.12528 0.05635
 C244 C 0.17308 0.12524 0.07701
 H245 H 0.20658 0.07677 0.01422
 H246 H 0.24841 0.07655 -0.02767
 H247 H 0.27757 0.17432 0.00140
 H248 H 0.23585 0.17390 0.04339
 C249 C 0.78169 0.62482 0.46884
 C250 C 0.77795 0.59754 0.48909
 C251 C 0.75406 0.59752 0.51309
 C252 C 0.73351 0.62484 0.51717
 C253 C 0.73751 0.65216 0.49662
 C254 C 0.76143 0.65212 0.47265
 C255 C 0.80630 0.62482 0.44416
 C256 C 0.82692 0.62483 0.42349
 H257 H 0.79347 0.57624 0.48631
 H258 H 0.75162 0.57594 0.52818
 H259 H 0.72242 0.67375 0.49910
 H260 H 0.76416 0.67341 0.45713
 C261 C 0.71922 0.37524 -0.03172
 C262 C 0.73941 0.34790 -0.02786
 C263 C 0.76334 0.34781 -0.00391
 C264 C 0.76740 0.37513 0.01659
 C265 C 0.74691 0.40250 0.01247
 C266 C 0.72302 0.40252 -0.01152
 C267 C 0.69459 0.37528 -0.05637
 C268 C 0.67396 0.37532 -0.07702
 H269 H 0.73664 0.32661 -0.04334
 H270 H 0.77838 0.32620 -0.00139
 H271 H 0.74938 0.42408 0.02751
 H272 H 0.70754 0.42385 -0.01434
 C273 C 0.28085 0.87464 0.53180
 C274 C 0.26066 0.84729 0.52799
 C275 C 0.23677 0.84719 0.50401
 C276 C 0.23272 0.87448 0.48344
 C277 C 0.25319 0.90186 0.48753
 C278 C 0.27706 0.90191 0.51154
 C279 C 0.30546 0.87470 0.55647
 C280 C 0.32608 0.87475 0.57712
 H281 H 0.26343 0.82601 0.54352
 H282 H 0.22174 0.82556 0.50152
 H283 H 0.25072 0.92343 0.47243
 H284 H 0.29252 0.92324 0.51432
   
