data_POSCAR
  _audit_creation_date              2014-09-24
  _audit_creation_method            'ToBaCCo'
  _symmetry_space_group_name_H-M    'P1'
  _symmetry_Int_Tables_number       1
  _symmetry_cell_setting            triclinic
  loop_
  _symmetry_equiv_pos_as_xyz
 x,y,z
_cell_length_a 30.8985
_cell_length_b 32.1813
_cell_length_c 29.0577
_cell_angle_alpha 88.434000
_cell_angle_beta 89.354300
_cell_angle_gamma 94.114400
loop_
  _atom_site_label
  _atom_site_type_symbol
  _atom_site_fract_x
  _atom_site_fract_y
  _atom_site_fract_z
C1 C 0.27017 0.30677 0.22525
 C2 C 0.23914 0.27895 0.24717
 C3 C 0.20349 0.29405 0.26966
 C4 C 0.19935 0.33699 0.27203
 C5 C 0.23023 0.36485 0.24917
 C6 C 0.26538 0.34997 0.22489
 C7 C 0.24511 0.23403 0.24898
 C8 C 0.27623 0.21858 0.27820
 C9 C 0.28080 0.17566 0.28251
 C10 C 0.25370 0.14816 0.25683
 C11 C 0.22292 0.16336 0.22667
 C12 C 0.21842 0.20654 0.22341
 H13 H 0.29806 0.29438 0.20918
 H14 H 0.17994 0.27229 0.28711
 H15 H 0.29638 0.24008 0.29830
 H16 H 0.19367 0.21898 0.20204
 H17 H 0.22661 0.39807 0.24948
 H18 H 0.25573 0.11481 0.26072
 C19 C 0.78741 0.79324 0.23221
 C20 C 0.75813 0.76629 0.25768
 C21 C 0.72546 0.78230 0.28409
 C22 C 0.72221 0.82544 0.28658
 C23 C 0.75125 0.85233 0.25977
 C24 C 0.78377 0.83671 0.23208
 C25 C 0.76142 0.72097 0.25651
 C26 C 0.79711 0.70308 0.27598
 C27 C 0.79938 0.65975 0.27729
 C28 C 0.76661 0.63448 0.25619
 C29 C 0.73138 0.65225 0.23506
 C30 C 0.72840 0.69560 0.23673
 H31 H 0.81168 0.77937 0.21183
 H32 H 0.70321 0.76083 0.30373
 H33 H 0.82230 0.72292 0.29175
 H34 H 0.70062 0.71004 0.22282
 H35 H 0.74828 0.88559 0.25898
 H36 H 0.76884 0.60109 0.25517
 C37 C 0.77206 0.28182 0.74985
 C38 C 0.73642 0.25707 0.76800
 C39 C 0.70189 0.27600 0.78870
 C40 C 0.70303 0.31956 0.79287
 C41 C 0.73896 0.34395 0.77347
 C42 C 0.77311 0.32546 0.75142
 C43 C 0.73544 0.21122 0.76539
 C44 C 0.76838 0.18943 0.78585
 C45 C 0.76806 0.14565 0.78321
 C46 C 0.73468 0.12464 0.75850
 C47 C 0.70188 0.14607 0.73744
 C48 C 0.70205 0.18946 0.74173
 H49 H 0.79866 0.26674 0.73448
 H50 H 0.67466 0.25640 0.80285
 H51 H 0.79385 0.20725 0.80334
 H52 H 0.67658 0.20658 0.72669
 H53 H 0.74067 0.37754 0.77395
 H54 H 0.73408 0.09107 0.75551
 C55 C 0.28038 0.79527 0.72633
 C56 C 0.24872 0.77397 0.75509
 C57 C 0.22218 0.79647 0.78339
 C58 C 0.22810 0.84015 0.78402
 C59 C 0.25993 0.86085 0.75548
 C60 C 0.28587 0.83918 0.72580
 C61 C 0.24474 0.72797 0.75689
 C62 C 0.27896 0.70596 0.77428
 C63 C 0.27549 0.66214 0.77658
 C64 C 0.23794 0.64076 0.76025
 C65 C 0.20383 0.66222 0.74208
 C66 C 0.20711 0.70606 0.74101
 H67 H 0.30027 0.77711 0.70494
 H68 H 0.19851 0.77979 0.80611
 H69 H 0.30812 0.72314 0.78566
 H70 H 0.18075 0.72318 0.72787
 H71 H 0.26413 0.89461 0.75616
 H72 H 0.23533 0.60695 0.76143
 C73 C 0.06869 0.06733 0.00057
 H74 H 0.06576 0.07067 -0.03639
 C75 C 0.09732 0.09455 0.02409
 H76 H 0.11655 0.11882 0.00500
 C77 C 0.04641 0.03219 0.07051
 H78 H 0.02585 0.00846 0.08865
 C79 C 0.07471 0.05859 0.09535
 H80 H 0.07503 0.05483 0.13244
 N81 N 0.04419 0.03672 0.02394
 C82 C 0.01175 -0.06240 -0.07239
 H83 H -0.02333 -0.06433 -0.07073
 C84 C 0.03313 -0.09092 -0.09821
 H85 H 0.01428 -0.11432 -0.11705
 C86 C 0.07890 -0.03059 -0.04833
 H87 H 0.09665 -0.00795 -0.02767
 C88 C 0.10155 -0.05859 -0.07337
 H89 H 0.13651 -0.05677 -0.07110
 Zn90 Zn 0.00461 0.00188 -0.00952
 N91 N 0.03481 -0.03274 -0.04849
 C92 C -0.03840 0.03211 -0.08903
 N93 N -0.03143 0.03667 -0.04323
 C94 C -0.04927 0.06736 -0.01977
 C95 C -0.07598 0.09446 -0.04214
 C96 C -0.06540 0.05823 -0.11265
 C97 C -0.00841 -0.06530 0.05243
 C98 C -0.03121 -0.09384 0.08233
 C99 C -0.09584 -0.05739 0.06899
 C100 C -0.07187 -0.02978 0.03892
 N101 N -0.02888 -0.03397 0.03163
 H102 H -0.02306 0.00829 -0.10739
 H103 H -0.04269 0.07071 0.01648
 H104 H -0.09006 0.11862 -0.02289
 H105 H -0.07025 0.05425 -0.14913
 H106 H 0.02570 -0.06818 0.04550
 H107 H -0.01450 -0.11873 0.09852
 H108 H -0.13016 -0.05393 0.07369
 H109 H -0.08774 -0.00525 0.02124
 C110 C 0.07863 -0.08912 -0.09922
 C111 C 0.10093 0.09012 0.07202
 C112 C -0.07530 -0.08979 0.09134
 C113 C -0.08493 0.08966 -0.08894
 C114 C 0.01630 0.57503 0.54178
 H115 H -0.00557 0.58440 0.51534
 C116 C 0.03845 0.60537 0.56797
 H117 H 0.03366 0.63798 0.56122
 C118 C 0.04973 0.52145 0.58249
 H119 H 0.05440 0.48863 0.58740
 C120 C 0.07236 0.55062 0.60949
 H121 H 0.09494 0.53959 0.63439
 N122 N 0.02295 0.53402 0.54890
 C123 C 0.02658 0.44027 0.44368
 H124 H -0.00731 0.42945 0.44188
 C125 C 0.05654 0.42610 0.41237
 H126 H 0.04489 0.40436 0.38685
 C127 C 0.08156 0.48412 0.47742
 H128 H 0.09112 0.50764 0.50181
 C129 C 0.11254 0.47078 0.44691
 H130 H 0.14578 0.48375 0.44885
 Zn131 Zn -0.00333 0.49152 0.51247
 N132 N 0.03948 0.46875 0.47539
 C133 C -0.08663 0.49801 0.47471
 N134 N -0.04433 0.51287 0.47192
 C135 C -0.03006 0.54080 0.43817
 C136 C -0.05903 0.55570 0.40616
 C137 C -0.11664 0.51201 0.44347
 C138 C -0.02651 0.40958 0.55047
 C139 C -0.05126 0.38090 0.57883
 C140 C -0.08527 0.43816 0.61290
 C141 C -0.05993 0.46563 0.58400
 N142 N -0.03194 0.45103 0.55295
 H143 H -0.09722 0.47479 0.50070
 H144 H 0.00402 0.55111 0.43585
 H145 H -0.04656 0.57733 0.37927
 H146 H -0.15022 0.49989 0.44634
 H147 H -0.00380 0.39862 0.52584
 H148 H -0.04741 0.34790 0.57567
 H149 H -0.10863 0.45093 0.63548
 H150 H -0.06363 0.49877 0.58514
 C151 C 0.10033 0.44154 0.41371
 C152 C 0.06698 0.59335 0.60229
 C153 C -0.08138 0.39498 0.61033
 C154 C -0.10317 0.54148 0.40891
 C155 C 0.54385 0.07694 0.50745
 H156 H 0.54248 0.08423 0.47095
 C157 C 0.56531 0.10509 0.53677
 H158 H 0.58038 0.13417 0.52263
 C159 C 0.52722 0.02949 0.57001
 H160 H 0.51279 -0.00027 0.58274
 C161 C 0.54825 0.05668 0.60050
 H162 H 0.54858 0.04775 0.63663
 N163 N 0.52623 0.03958 0.52432
 C164 C 0.53981 -0.05844 0.42610
 H165 H 0.50684 -0.07209 0.42457
 C166 C 0.57241 -0.07486 0.40009
 H167 H 0.56382 -0.10073 0.37820
 C168 C 0.59009 -0.00678 0.45492
 H169 H 0.59694 0.01983 0.47614
 C170 C 0.62363 -0.02204 0.42929
 H171 H 0.65604 -0.00696 0.43100
 Zn172 Zn 0.50291 -0.00080 0.48351
 N173 N 0.54895 -0.02459 0.45227
 C174 C 0.46821 0.01432 0.39502
 N175 N 0.46700 0.02490 0.44001
 C176 C 0.43976 0.05330 0.45477
 C177 C 0.41135 0.07118 0.42416
 C178 C 0.44030 0.03123 0.36337
 C179 C 0.48417 -0.08115 0.52619
 C180 C 0.45955 -0.11115 0.55299
 C181 C 0.40516 -0.06169 0.56248
 C182 C 0.43069 -0.03278 0.53558
 N183 N 0.46941 -0.04279 0.51801
 H184 H 0.49035 -0.00765 0.38340
 H185 H 0.43982 0.06187 0.49050
 H186 H 0.38910 0.09260 0.43725
 H187 H 0.44127 0.02183 0.32787
 H188 H 0.51544 -0.08833 0.51280
 H189 H 0.47184 -0.14140 0.55960
 H190 H 0.37411 -0.05303 0.57519
 H191 H 0.41960 -0.00218 0.52897
 C192 C 0.61499 -0.05636 0.40135
 C193 C 0.56887 0.09455 0.58368
 C194 C 0.41989 -0.10130 0.57218
 C195 C 0.41132 0.05993 0.37771
 C196 C 0.55517 0.58494 0.01759
 H197 H 0.54954 0.59460 -0.01765
 C198 C 0.58187 0.61016 0.04531
 H199 H 0.59654 0.63944 0.03126
 C200 C 0.54354 0.53455 0.07835
 H201 H 0.52864 0.50488 0.09082
 C202 C 0.57032 0.55873 0.10724
 H203 H 0.57490 0.54765 0.14219
 N204 N 0.53684 0.54785 0.03435
 C205 C 0.52778 0.45626 -0.07411
 H206 H 0.49334 0.44809 -0.07667
 C207 C 0.55715 0.43659 -0.10186
 H208 H 0.54488 0.41382 -0.12609
 C209 C 0.58555 0.49640 -0.04015
 H210 H 0.59691 0.51950 -0.01604
 C211 C 0.61576 0.47813 -0.06759
 H212 H 0.64992 0.48759 -0.06431
 Zn213 Zn 0.50351 0.51384 -0.00604
 N214 N 0.54236 0.48568 -0.04400
 C215 C 0.46369 0.54385 -0.08791
 N216 N 0.46947 0.54913 -0.04202
 C217 C 0.45186 0.58087 -0.02012
 C218 C 0.42674 0.60830 -0.04412
 C219 C 0.43843 0.57046 -0.11324
 C220 C 0.47009 0.43377 0.02857
 C221 C 0.44171 0.40626 0.05446
 C222 C 0.40605 0.46513 0.08239
 C223 C 0.43507 0.49145 0.05602
 N224 N 0.46607 0.47556 0.02944
 H225 H 0.47861 0.51908 -0.10503
 H226 H 0.45776 0.58529 0.01607
 H227 H 0.41292 0.63326 -0.02596
 H228 H 0.43470 0.56584 -0.14975
 H229 H 0.49536 0.42163 0.00799
 H230 H 0.44522 0.37306 0.05310
 H231 H 0.38114 0.47893 0.10199
 H232 H 0.43263 0.52471 0.05666
 C233 C 0.60184 0.44774 -0.09876
 C234 C 0.59036 0.59687 0.09044
 C235 C 0.40920 0.42176 0.08192
 C236 C 0.41916 0.60296 -0.09108
 C237 C 0.20381 -0.13411 -0.18475
 C238 C 0.16363 -0.14407 -0.16856
 C239 C 0.14224 -0.11379 -0.14050
 C240 C 0.10088 -0.12000 -0.12636
 H241 H 0.14624 -0.17318 -0.17718
 H242 H 0.16072 -0.08503 -0.13288
 H243 H 0.21919 -0.10381 -0.17679
 H244 H 0.08217 -0.14799 -0.13646
 C245 C 0.16262 0.35130 0.29908
 C246 C 0.16521 0.38658 0.32248
 C247 C 0.12931 0.39697 0.35300
 C248 C 0.13398 0.42956 0.38062
 H249 H 0.19476 0.40688 0.32112
 H250 H 0.09979 0.37676 0.35377
 H251 H 0.13372 0.33025 0.30312
 H252 H 0.16479 0.44800 0.37990
 C253 C 0.68965 -0.16035 0.31532
 C254 C 0.68644 -0.12057 0.32660
 C255 C 0.65087 -0.10904 0.35668
 C256 C 0.65041 -0.07039 0.37229
 H257 H 0.71017 -0.09610 0.31509
 H258 H 0.62534 -0.13254 0.36641
 H259 H 0.66612 -0.18350 0.33066
 H260 H 0.67765 -0.04814 0.36416
 C261 C 0.66840 0.33668 -0.18358
 C262 C 0.66747 0.37687 -0.17244
 C263 C 0.63113 0.39199 -0.14565
 C264 C 0.63495 0.43019 -0.12833
 H265 H 0.69427 0.39924 -0.18087
 H266 H 0.60237 0.37144 -0.13859
 H267 H 0.64119 0.31558 -0.17215
 H268 H 0.66521 0.44900 -0.13393
 C269 C -0.20045 0.12165 -0.19625
 C270 C -0.16954 0.13580 -0.16733
 C271 C -0.13929 0.10706 -0.14715
 C272 C -0.11393 0.11829 -0.11192
 H273 H -0.16695 0.16779 -0.15673
 H274 H -0.13923 0.07580 -0.16005
 H275 H -0.20214 0.08862 -0.20330
 H276 H -0.11649 0.14875 -0.09747
 C277 C -0.16382 0.64224 0.30142
 C278 C -0.16673 0.60469 0.32249
 C279 C -0.13098 0.59097 0.35090
 C280 C -0.13604 0.55571 0.37642
 H281 H -0.19654 0.58489 0.32128
 H282 H -0.10148 0.61109 0.35257
 H283 H -0.13452 0.66241 0.30537
 H284 H -0.16686 0.53738 0.37535
 C285 C 0.31246 0.16079 0.31600
 C286 C 0.33032 0.12431 0.31312
 C287 C 0.36102 0.11112 0.34810
 C288 C 0.38066 0.07572 0.34371
 H289 H 0.32285 0.10412 0.28465
 H290 H 0.36774 0.13081 0.37714
 H291 H 0.32232 0.18131 0.34358
 H292 H 0.37475 0.05776 0.31307
 C293 C 0.31036 0.63726 -0.20520
 C294 C 0.33806 0.65039 -0.17276
 C295 C 0.36871 0.62195 -0.15291
 C296 C 0.39137 0.63198 -0.11536
 H297 H 0.33651 0.68112 -0.15880
 H298 H 0.37060 0.59158 -0.16765
 H299 H 0.31112 0.60548 -0.21655
 H300 H 0.38695 0.66165 -0.09978
 C301 C -0.18985 -0.13464 0.20452
 C302 C -0.15704 -0.14430 0.17711
 C303 C -0.13371 -0.11201 0.14755
 C304 C -0.09916 -0.12074 0.12248
 H305 H -0.14699 -0.17566 0.17543
 H306 H -0.14484 -0.08084 0.14656
 H307 H -0.19693 -0.10209 0.20508
 H308 H -0.08699 -0.15145 0.12594
 C309 C -0.19083 0.35306 0.73069
 C310 C -0.16508 0.34214 0.69631
 C311 C -0.13325 0.37307 0.67435
 C312 C -0.11009 0.36389 0.63718
 H313 H -0.16907 0.31132 0.68226
 H314 H -0.12982 0.40390 0.68837
 H315 H -0.18720 0.38489 0.74223
 H316 H -0.11297 0.33221 0.62516
 C317 C 0.31571 -0.13688 0.69710
 C318 C 0.34176 -0.15127 0.66489
 C319 C 0.36895 -0.12102 0.63614
 C320 C 0.39444 -0.13247 0.60195
 H321 H 0.34247 -0.18412 0.65838
 H322 H 0.36787 -0.08825 0.64329
 H323 H 0.31699 -0.10330 0.70067
 H324 H 0.39764 -0.16530 0.59647
 C325 C 0.29687 0.38039 0.20072
 C326 C 0.32290 0.37040 0.16611
 C327 C 0.35294 0.40209 0.14271
 C328 C 0.37868 0.39176 0.10800
 H329 H 0.32153 0.33892 0.15380
 H330 H 0.35400 0.43370 0.15454
 H331 H 0.29753 0.41264 0.21073
 H332 H 0.37782 0.35936 0.09846
 C333 C 0.19454 0.13317 0.20109
 C334 C 0.17601 0.14256 0.16108
 C335 C 0.14747 0.11134 0.13775
 C336 C 0.13072 0.11987 0.09656
 H337 H 0.18208 0.17322 0.14502
 H338 H 0.14056 0.08108 0.15447
 H339 H 0.18977 0.10158 0.21513
 H340 H 0.14000 0.14963 0.07951
 C341 C 0.16570 0.63728 0.72472
 C342 C 0.14250 0.64895 0.68863
 C343 C 0.11078 0.61857 0.66827
 C344 C 0.09299 0.62586 0.62733
 H345 H 0.14963 0.67908 0.67164
 H346 H 0.10382 0.58886 0.68617
 H347 H 0.15949 0.60592 0.73910
 H348 H 0.09877 0.65640 0.61080
 C349 C 0.66802 0.12161 0.71187
 C350 C 0.64503 0.13721 0.67751
 C351 C 0.61509 0.10938 0.65129
 C352 C 0.59531 0.12287 0.61352
 H353 H 0.64979 0.16976 0.66699
 H354 H 0.61135 0.07678 0.66179
 H355 H 0.66381 0.08841 0.71980
 H356 H 0.60150 0.15514 0.60210
 C357 C 0.69826 0.62476 0.21190
 C358 C 0.67342 0.63832 0.17798
 C359 C 0.64236 0.60979 0.15415
 C360 C 0.61998 0.62377 0.11846
 H361 H 0.67698 0.67056 0.16610
 H362 H 0.63923 0.57722 0.16482
 H363 H 0.69578 0.59185 0.22144
 H364 H 0.62549 0.65623 0.10749
   
