data_POSCAR
  _audit_creation_date              2014-09-24
  _audit_creation_method            'ToBaCCo'
  _symmetry_space_group_name_H-M    'P1'
  _symmetry_Int_Tables_number       1
  _symmetry_cell_setting            triclinic
  loop_
  _symmetry_equiv_pos_as_xyz
 x,y,z
_cell_length_a 43.2771
_cell_length_b 43.3725
_cell_length_c 43.2818
_cell_angle_alpha 90.005200
_cell_angle_beta 90.064500
_cell_angle_gamma 90.088600
loop_
  _atom_site_label
  _atom_site_type_symbol
  _atom_site_fract_x
  _atom_site_fract_y
  _atom_site_fract_z
C1 C 0.20439 1.22915 0.18256
 C2 C 0.22753 1.20660 0.18221
 C3 C 0.22757 1.18350 0.20414
 C4 C 0.20449 1.18275 0.22688
 C5 C 0.18188 1.20512 0.22739
 C6 C 0.18181 1.22857 0.20501
 C7 C 0.19740 1.25274 0.16263
 N8 N 0.17093 1.26688 0.17222
 C9 C 0.16152 1.25212 0.19847
 C10 C 0.16180 1.19763 0.25084
 N11 N 0.17146 1.17106 0.26482
 C12 C 0.19781 1.16207 0.24997
 C13 C 0.25133 1.16373 0.19686
 N14 N 0.26579 1.17431 0.17102
 C15 C 0.25128 1.20064 0.16204
 H16 H 0.21103 1.25886 0.14264
 H17 H 0.14052 1.25670 0.21117
 H18 H 0.14102 1.21037 0.25609
 H19 H 0.21160 1.14198 0.25511
 H20 H 0.25678 1.14254 0.20886
 H21 H 0.25725 1.21445 0.14210
 C22 C 0.79370 0.77415 0.18370
 C23 C 0.77100 0.79717 0.18372
 C24 C 0.76923 0.81767 0.20806
 C25 C 0.79028 0.81555 0.23263
 C26 C 0.81238 0.79269 0.23280
 C27 C 0.81391 0.77155 0.20827
 C28 C 0.80210 0.75252 0.16212
 N29 N 0.82677 0.73631 0.17304
 C30 C 0.83392 0.74784 0.20149
 C31 C 0.83123 0.79801 0.25785
 N32 N 0.82148 0.82389 0.27301
 C33 C 0.79600 0.83433 0.25754
 C34 C 0.74612 0.83834 0.20121
 N35 N 0.73370 0.83081 0.17331
 C36 C 0.74896 0.80565 0.16246
 H37 H 0.79057 0.74875 0.14025
 H38 H 0.85328 0.74080 0.21565
 H39 H 0.85165 0.78469 0.26303
 H40 H 0.78268 0.85465 0.26290
 H41 H 0.73892 0.85741 0.21561
 H42 H 0.74499 0.79474 0.14032
 C43 C 0.79870 1.22566 -0.18359
 C44 C 0.77544 1.20315 -0.18457
 C45 C 0.77507 1.18164 -0.20807
 C46 C 0.79803 1.18229 -0.23091
 C47 C 0.82089 1.20445 -0.22997
 C48 C 0.82112 1.22649 -0.20619
 C49 C 0.80561 1.24837 -0.16257
 N50 N 0.83180 1.26337 -0.17170
 C51 C 0.84124 1.24991 -0.19862
 C52 C 0.84107 1.19815 -0.25367
 N53 N 0.83128 1.17245 -0.26917
 C54 C 0.80465 1.16293 -0.25511
 C55 C 0.75096 1.16175 -0.20229
 N56 N 0.73668 1.17060 -0.17573
 C57 C 0.75164 1.19597 -0.16480
 H58 H 0.79193 1.25350 -0.14234
 H59 H 0.86199 1.25549 -0.21134
 H60 H 0.86156 1.21153 -0.25854
 H61 H 0.79140 1.14254 -0.26066
 H62 H 0.74453 1.14215 -0.21638
 H63 H 0.74642 1.20778 -0.14342
 C64 C 0.20435 0.77161 -0.18144
 C65 C 0.22659 0.79511 -0.18105
 C66 C 0.22764 0.81642 -0.20470
 C67 C 0.20644 0.81445 -0.22919
 C68 C 0.18478 0.79109 -0.22976
 C69 C 0.18389 0.76925 -0.20582
 C70 C 0.19625 0.74964 -0.16009
 N71 N 0.17146 0.73350 -0.17093
 C72 C 0.16405 0.74528 -0.19919
 C73 C 0.16578 0.79642 -0.25467
 N74 N 0.17514 0.82265 -0.26948
 C75 C 0.20037 0.83348 -0.25384
 C76 C 0.25038 0.83743 -0.19736
 N77 N 0.26336 0.82925 -0.16989
 C78 C 0.24877 0.80332 -0.15983
 H79 H 0.20783 0.74582 -0.13826
 H80 H 0.14441 0.73847 -0.21312
 H81 H 0.14631 0.78207 -0.26085
 H82 H 0.21264 0.85469 -0.25845
 H83 H 0.25635 0.85762 -0.21077
 H84 H 0.25386 0.79104 -0.13868
 C85 C 0.54553 1.04735 -0.01286
 H86 H 0.54449 1.05020 0.01195
 C87 C 0.56666 1.06449 -0.03012
 H88 H 0.58191 1.08053 -0.01844
 C89 C 0.52783 1.02188 -0.05800
 H90 H 0.51318 1.00474 -0.06867
 C91 C 0.54887 1.03832 -0.07612
 H92 H 0.54977 1.03413 -0.10077
 N93 N 0.52648 1.02675 -0.02698
 C94 C 0.45582 1.01386 0.04362
 H95 H 0.45692 0.98907 0.04608
 C96 C 0.43492 1.03079 0.06129
 H97 H 0.41988 1.01887 0.07732
 C98 C 0.47321 1.05932 0.01863
 H99 H 0.48769 1.07024 0.00151
 C100 C 0.45236 1.07712 0.03560
 H101 H 0.45138 1.10178 0.03181
 Zn102 Zn 0.50040 1.00289 -0.00132
 N103 N 0.47462 1.02829 0.02301
 C104 C 0.52830 0.98326 0.05496
 N105 N 0.52661 0.97873 0.02390
 C106 C 0.54536 0.95819 0.00942
 C107 C 0.56656 0.94081 0.02633
 C108 C 0.54936 0.96651 0.07275
 C109 C 0.45510 0.99215 -0.04583
 C110 C 0.43362 0.97531 -0.06302
 C111 C 0.45036 0.92911 -0.03672
 C112 C 0.47184 0.94678 -0.02031
 N113 N 0.47385 0.97771 -0.02519
 H114 H 0.51385 1.00032 0.06594
 H115 H 0.54400 0.95558 -0.01541
 H116 H 0.58158 0.92485 0.01434
 H117 H 0.55044 0.97037 0.09745
 H118 H 0.45668 1.01688 -0.04870
 H119 H 0.41865 0.98722 -0.07914
 H120 H 0.44886 0.90454 -0.03249
 H121 H 0.48633 0.93588 -0.00316
 C122 C 0.43288 1.06281 0.05722
 C123 C 0.56864 1.05991 -0.06215
 C124 C 0.43093 0.94342 -0.05837
 C125 C 0.56887 0.94500 0.05841
 C126 C -0.01793 0.53414 1.05609
 H127 H 0.00258 0.52363 1.06572
 C128 C -0.03406 0.55625 1.07315
 H129 H -0.02542 0.56249 1.09575
 C130 C -0.05170 0.54095 1.01361
 H131 H -0.05775 0.53576 0.98992
 C132 C -0.06918 0.56223 1.03019
 H133 H -0.08938 0.57197 1.01921
 N134 N -0.02701 0.52690 1.02690
 C135 C 0.05336 0.47140 1.02095
 H136 H 0.06425 0.48406 1.00245
 C137 C 0.07084 0.45053 1.03815
 H138 H 0.09528 0.44840 1.03336
 C139 C 0.00822 0.45792 1.04876
 H140 H -0.01637 0.46061 1.05231
 C141 C 0.02475 0.43649 1.06627
 H142 H 0.01254 0.42261 1.08309
 Zn143 Zn -0.00240 0.50090 1.00200
 N144 N 0.02268 0.47496 1.02671
 C145 C 0.04604 0.54208 0.99056
 N146 N 0.02175 0.52744 0.97711
 C147 C 0.01302 0.53410 0.94768
 C148 C 0.02921 0.55614 0.93051
 C149 C 0.06361 0.56324 0.97388
 C150 C -0.05741 0.46982 0.98283
 C151 C -0.07421 0.44843 0.96548
 C152 C -0.02759 0.43591 0.93758
 C153 C -0.01176 0.45776 0.95526
 N154 N -0.02681 0.47431 0.97724
 H155 H 0.05181 0.53730 1.01440
 H156 H -0.00719 0.52311 0.93789
 H157 H 0.02087 0.56186 0.90766
 H158 H 0.08362 0.57328 0.98500
 H159 H -0.06874 0.48215 1.00127
 H160 H -0.09861 0.44550 0.97012
 H161 H -0.01492 0.42247 0.92077
 H162 H 0.01277 0.46118 0.95187
 C163 C 0.05652 0.43243 1.06098
 C164 C -0.06018 0.57079 1.06027
 C165 C -0.05927 0.43089 0.94265
 C166 C 0.05508 0.57113 0.94349
 C167 C 1.04633 -0.01371 0.54550
 H168 H 1.04674 0.01122 0.54636
 C169 C 1.06428 -0.03077 0.56613
 H170 H 1.07834 -0.01874 0.58297
 C171 C 1.02615 -0.05953 0.52345
 H172 H 1.01083 -0.07067 0.50720
 C173 C 1.04373 -0.07749 0.54365
 H174 H 1.04219 -0.10237 0.54225
 N175 N 1.02781 -0.02823 0.52466
 C176 C 1.01111 0.03900 0.45161
 H177 H 0.98611 0.03909 0.45152
 C178 C 1.02735 0.05670 0.43013
 H179 H 1.01463 0.07023 0.41340
 C180 C 1.05791 0.02007 0.47277
 H181 H 1.06972 0.00540 0.48911
 C182 C 1.07508 0.03739 0.45165
 H183 H 1.10006 0.03629 0.45235
 Zn184 Zn 1.00238 -0.00328 0.49936
 N185 N 1.02650 0.02129 0.47246
 C186 C 0.98017 0.05311 0.52468
 N187 N 0.97859 0.02181 0.52603
 C188 C 0.96109 0.00732 0.54771
 C189 C 0.94380 0.02440 0.56882
 C190 C 0.96331 0.07111 0.54545
 C191 C 0.99037 -0.04598 0.45259
 C192 C 0.97266 -0.06394 0.43249
 C193 C 0.92655 -0.04441 0.45703
 C194 C 0.94516 -0.02682 0.47669
 N195 N 0.97647 -0.02805 0.47427
 H196 H 0.99473 0.06422 0.50776
 H197 H 0.96077 -0.01760 0.54867
 H198 H 0.93029 0.01243 0.58612
 H199 H 0.96465 0.09599 0.54390
 H200 H 1.01530 -0.04606 0.45078
 H201 H 0.98417 -0.07764 0.41506
 H202 H 0.90168 -0.04329 0.45943
 H203 H 0.93449 -0.01195 0.49359
 C204 C 1.05979 0.05596 0.42989
 C205 C 1.06299 -0.06313 0.56550
 C206 C 0.94028 -0.06323 0.43449
 C207 C 0.94481 0.05675 0.56788
 C208 C 0.12405 0.33803 1.12629
 C209 C 0.11670 0.33145 1.15714
 C210 C 0.13249 0.30770 1.17250
 C211 C 0.15587 0.29055 1.15739
 C212 C 0.16301 0.29812 1.12636
 C213 C 0.14709 0.32151 1.11075
 C214 C 0.10709 0.36254 1.10982
 C215 C 0.11402 0.36861 1.07875
 C216 C 0.09748 0.39148 1.06300
 C217 C 0.07433 0.40860 1.07817
 C218 C 0.06792 0.40237 1.10952
 C219 C 0.08411 0.37922 1.12538
 C220 C 0.15354 0.32843 1.07970
 C221 C 0.13721 0.35150 1.06393
 C222 C 0.09362 0.34873 1.17200
 C223 C 0.07767 0.37226 1.15643
 H224 H 0.17124 0.31577 1.06740
 H225 H 0.14279 0.35598 1.03995
 H226 H 0.08777 0.34398 1.19587
 H227 H 0.06000 0.38496 1.16873
 H228 H 0.12683 0.30326 1.19642
 H229 H 0.18010 0.28522 1.11359
 H230 H 0.10227 0.39550 1.03877
 H231 H 0.05049 0.41558 1.12161
 C232 C -0.12598 0.66647 1.12603
 C233 C -0.14269 0.68850 1.10922
 C234 C -0.15901 0.71142 1.12511
 C235 C -0.15783 0.71333 1.15772
 C236 C -0.14029 0.69118 1.17410
 C237 C -0.12489 0.66740 1.15840
 C238 C -0.10924 0.64197 1.10937
 C239 C -0.09345 0.61923 1.12613
 C240 C -0.07800 0.59569 1.11013
 C241 C -0.07727 0.59537 1.07747
 C242 C -0.09280 0.61900 1.06121
 C243 C -0.10928 0.64187 1.07698
 C244 C -0.10856 0.64440 1.17443
 C245 C -0.09337 0.62057 1.15859
 C246 C -0.14248 0.68742 1.07678
 C247 C -0.12580 0.66468 1.06093
 H248 H -0.10766 0.64472 1.19945
 H249 H -0.08121 0.60321 1.17185
 H250 H -0.15513 0.70443 1.06352
 H251 H -0.12606 0.66481 1.03589
 H252 H -0.17142 0.72852 1.11181
 H253 H -0.13955 0.69157 1.19909
 H254 H -0.06680 0.57762 1.12322
 H255 H -0.09189 0.62002 1.03625
 C256 C -0.12339 0.33501 0.87580
 C257 C -0.14587 0.31738 0.89101
 C258 C -0.16101 0.29369 0.87495
 C259 C -0.15366 0.28702 0.84375
 C260 C -0.13079 0.30524 0.82903
 C261 C -0.11579 0.32923 0.84487
 C262 C -0.10734 0.35989 0.89270
 C263 C -0.08493 0.37766 0.87745
 C264 C -0.06960 0.40116 0.89370
 C265 C -0.07630 0.40670 0.92511
 C266 C -0.09891 0.38855 0.93995
 C267 C -0.11458 0.36525 0.92384
 C268 C -0.09329 0.34759 0.83033
 C269 C -0.07818 0.37144 0.84632
 C270 C -0.15262 0.32356 0.92216
 C271 C -0.13718 0.34703 0.93832
 H272 H -0.08725 0.34346 0.80640
 H273 H -0.06094 0.38499 0.83426
 H274 H -0.16990 0.31006 0.93421
 H275 H -0.14298 0.35094 0.96235
 H276 H -0.17771 0.27998 0.88742
 H277 H -0.12498 0.30152 0.80504
 H278 H -0.05259 0.41518 0.88186
 H279 H -0.10391 0.39210 0.96422
 C280 C 0.12291 0.66488 0.87669
 C281 C 0.12206 0.66534 0.84430
 C282 C 0.13796 0.68868 0.82837
 C283 C 0.15580 0.71079 0.84456
 C284 C 0.15680 0.70928 0.87719
 C285 C 0.13992 0.68689 0.89329
 C286 C 0.10555 0.64095 0.89361
 C287 C 0.10528 0.64141 0.92599
 C288 C 0.08822 0.61908 0.94198
 C289 C 0.07251 0.59534 0.92600
 C290 C 0.07353 0.59509 0.89334
 C291 C 0.08950 0.61816 0.87708
 C292 C 0.13941 0.68636 0.92574
 C293 C 0.12211 0.66420 0.94182
 C294 C 0.10543 0.64234 0.82851
 C295 C 0.08971 0.61897 0.84461
 H296 H 0.15229 0.70337 0.93884
 H297 H 0.12214 0.66476 0.96684
 H298 H 0.10472 0.64229 0.80348
 H299 H 0.07735 0.60158 0.83152
 H300 H 0.13734 0.68881 0.80337
 H301 H 0.16942 0.72640 0.89033
 H302 H 0.08708 0.62061 0.96690
 H303 H 0.06221 0.57693 0.88043
 C304 C 1.12601 0.12364 0.33628
 C305 C 1.15115 0.10981 0.32140
 C306 C 1.16647 0.12583 0.29780
 C307 C 1.15688 0.15574 0.28861
 C308 C 1.13156 0.16919 0.30443
 C309 C 1.11612 0.15328 0.32806
 C310 C 1.10951 0.10662 0.36078
 C311 C 1.08413 0.12037 0.37548
 C312 C 1.06820 0.10388 0.39836
 C313 C 1.07744 0.07380 0.40651
 C314 C 1.10316 0.06051 0.39168
 C315 C 1.11924 0.07681 0.36877
 C316 C 1.09081 0.16642 0.34354
 C317 C 1.07508 0.15024 0.36683
 C318 C 1.16033 0.07997 0.33017
 C319 C 1.14465 0.06376 0.35344
 H320 H 1.08295 0.18934 0.33748
 H321 H 1.05558 0.16116 0.37804
 H322 H 1.17973 0.06899 0.31885
 H323 H 1.15240 0.04077 0.35938
 H324 H 1.18534 0.11428 0.28637
 H325 H 1.12373 0.19216 0.29891
 H326 H 1.04869 0.11447 0.40989
 H327 H 1.11021 0.03724 0.39744
 C328 C 1.12980 -0.13214 0.65766
 C329 C 1.15947 -0.12254 0.66644
 C330 C 1.17484 -0.13817 0.69029
 C331 C 1.16077 -0.16331 0.70585
 C332 C 1.13106 -0.17291 0.69583
 C333 C 1.11553 -0.15735 0.67204
 C334 C 1.11315 -0.11512 0.63328
 C335 C 1.08319 -0.12439 0.62492
 C336 C 1.06711 -0.10762 0.60237
 C337 C 1.08075 -0.08167 0.58824
 C338 C 1.11102 -0.07299 0.59663
 C339 C 1.12728 -0.08959 0.61920
 C340 C 1.08565 -0.16618 0.66276
 C341 C 1.06975 -0.14997 0.63962
 C342 C 1.17308 -0.09716 0.65146
 C343 C 1.15726 -0.08097 0.62825
 H344 H 1.07433 -0.18564 0.67367
 H345 H 1.04666 -0.15739 0.63336
 H346 H 1.19604 -0.08955 0.65795
 H347 H 1.16848 -0.06137 0.61751
 H348 H 1.19785 -0.13056 0.69631
 H349 H 1.11914 -0.19173 0.70700
 H350 H 1.04369 -0.11426 0.59644
 H351 H 1.12189 -0.05333 0.58563
 C352 C 0.86842 -0.13081 0.34496
 C353 C 0.84261 -0.11682 0.33139
 C354 C 0.82644 -0.13240 0.30803
 C355 C 0.83599 -0.16189 0.29757
 C356 C 0.86166 -0.17577 0.31249
 C357 C 0.87796 -0.16030 0.33588
 C358 C 0.88616 -0.11400 0.36876
 C359 C 0.91237 -0.12779 0.38194
 C360 C 0.92969 -0.11133 0.40386
 C361 C 0.92102 -0.08122 0.41250
 C362 C 0.89437 -0.06796 0.39933
 C363 C 0.87690 -0.08422 0.37741
 C364 C 0.90400 -0.17360 0.35002
 C365 C 0.92092 -0.15761 0.37264
 C366 C 0.83379 -0.08714 0.34099
 C367 C 0.85065 -0.07111 0.36359
 H368 H 0.91160 -0.19642 0.34330
 H369 H 0.94103 -0.16857 0.38271
 H370 H 0.81385 -0.07605 0.33071
 H371 H 0.84323 -0.04816 0.37010
 H372 H 0.80706 -0.12067 0.29768
 H373 H 0.86941 -0.19855 0.30614
 H374 H 0.94991 -0.12189 0.41415
 H375 H 0.88772 -0.04467 0.40549
 C376 C 0.87771 0.12615 0.65936
 C377 C 0.89197 0.15131 0.67389
 C378 C 0.87617 0.16712 0.69732
 C379 C 0.84614 0.15792 0.70673
 C380 C 0.83216 0.13279 0.69102
 C381 C 0.84783 0.11685 0.66763
 C382 C 0.89456 0.10894 0.63529
 C383 C 0.88043 0.08345 0.62109
 C384 C 0.89681 0.06672 0.59876
 C385 C 0.92715 0.07530 0.59063
 C386 C 0.94081 0.10120 0.60483
 C387 C 0.92464 0.11805 0.62725
 C388 C 0.83426 0.09149 0.65256
 C389 C 0.85029 0.07506 0.62971
 C390 C 0.92202 0.15991 0.66502
 C391 C 0.93807 0.14357 0.64211
 H392 H 0.81113 0.08409 0.65867
 H393 H 0.83908 0.05549 0.61887
 H394 H 0.93333 0.17932 0.67604
 H395 H 0.96126 0.15086 0.63612
 H396 H 0.88803 0.18598 0.70850
 H397 H 0.80902 0.12532 0.69656
 H398 H 0.88596 0.04708 0.58767
 H399 H 0.96427 0.10776 0.59900
 C400 C 0.33881 1.12920 0.12344
 C401 C 0.33462 1.12370 0.15512
 C402 C 0.31079 1.13897 0.17082
 C403 C 0.29092 1.15937 0.15500
 C404 C 0.29563 1.16457 0.12316
 C405 C 0.31957 1.14966 0.10733
 C406 C 0.36357 1.11291 0.10671
 C407 C 0.36767 1.11835 0.07499
 C408 C 0.39089 1.10242 0.05908
 C409 C 0.40965 1.08089 0.07459
 C410 C 0.40535 1.07585 0.10646
 C411 C 0.38239 1.09189 0.12266
 C412 C 0.32444 1.15458 0.07561
 C413 C 0.34814 1.13925 0.05973
 C414 C 0.35421 1.10284 0.17039
 C415 C 0.37763 1.08714 0.15442
 H416 H 0.30975 1.17035 0.06293
 H417 H 0.35104 1.14361 0.03526
 H418 H 0.35125 1.09841 0.19485
 H419 H 0.39205 1.07105 0.16701
 H420 H 0.30782 1.13504 0.19533
 H421 H 0.28035 1.17970 0.11046
 H422 H 0.39382 1.10610 0.03448
 H423 H 0.41989 1.05948 0.11856
 C424 C 0.66299 1.12434 -0.13018
 C425 C 0.68188 1.10789 -0.15071
 C426 C 0.70596 1.12331 -0.16593
 C427 C 0.71118 1.15504 -0.16087
 C428 C 0.69159 1.17121 -0.14051
 C429 C 0.66762 1.15594 -0.12497
 C430 C 0.63816 1.10805 -0.11348
 C431 C 0.61973 1.12436 -0.09241
 C432 C 0.59672 1.10858 -0.07596
 C433 C 0.59201 1.07678 -0.08061
 C434 C 0.61039 1.06089 -0.10220
 C435 C 0.63365 1.07638 -0.11856
 C436 C 0.64839 1.17159 -0.10407
 C437 C 0.62490 1.15605 -0.08800
 C438 C 0.67655 1.07625 -0.15531
 C439 C 0.65280 1.06077 -0.13955
 H440 H 0.65171 1.19600 -0.09987
 H441 H 0.61078 1.16891 -0.07187
 H442 H 0.69095 1.06329 -0.17111
 H443 H 0.64957 1.03634 -0.14366
 H444 H 0.72101 1.11041 -0.18111
 H445 H 0.69493 1.19566 -0.13675
 H446 H 0.58246 1.12098 -0.05957
 H447 H 0.60713 1.03633 -0.10560
 C448 C 0.33553 0.87674 -0.12285
 C449 C 0.33190 0.88084 -0.15481
 C450 C 0.30819 0.86500 -0.17026
 C451 C 0.28788 0.84542 -0.15394
 C452 C 0.29188 0.84183 -0.12176
 C453 C 0.31574 0.85725 -0.10618
 C454 C 0.36043 0.89332 -0.10647
 C455 C 0.36414 0.88906 -0.07452
 C456 C 0.38769 0.90504 -0.05902
 C457 C 0.40712 0.92549 -0.07519
 C458 C 0.40311 0.92947 -0.10724
 C459 C 0.37987 0.91329 -0.12304
 C460 C 0.32014 0.85363 -0.07421
 C461 C 0.34399 0.86919 -0.05866
 C462 C 0.35204 0.90076 -0.17066
 C463 C 0.37555 0.91679 -0.15503
 H464 H 0.30502 0.83862 -0.06109
 H465 H 0.34657 0.86576 -0.03400
 H466 H 0.34950 0.90413 -0.19534
 H467 H 0.39043 0.93208 -0.16809
 H468 H 0.30583 0.86773 -0.19500
 H469 H 0.27626 0.82738 -0.10867
 H470 H 0.39045 0.90219 -0.03428
 H471 H 0.41815 0.94504 -0.11980
 C472 C 0.66222 0.87880 0.12616
 C473 C 0.66681 0.84733 0.12022
 C474 C 0.69022 0.83155 0.13607
 C475 C 0.70920 0.84705 0.15758
 C476 C 0.70412 0.87866 0.16327
 C477 C 0.68065 0.89462 0.14767
 C478 C 0.63783 0.89558 0.10933
 C479 C 0.63332 0.92709 0.11519
 C480 C 0.61036 0.94303 0.09884
 C481 C 0.59219 0.92772 0.07656
 C482 C 0.59694 0.89605 0.07110
 C483 C 0.61971 0.87985 0.08747
 C484 C 0.67539 0.92614 0.15297
 C485 C 0.65210 0.94209 0.13704
 C486 C 0.64798 0.83230 0.09842
 C487 C 0.62486 0.84830 0.08229
 H488 H 0.68945 0.93862 0.16952
 H489 H 0.64886 0.96641 0.14175
 H490 H 0.65127 0.80800 0.09366
 H491 H 0.61099 0.83589 0.06553
 H492 H 0.69349 0.80718 0.13180
 H493 H 0.71876 0.89102 0.17936
 H494 H 0.60712 0.96747 0.10288
 H495 H 0.58285 0.88406 0.05421
   
