data_POSCAR
  _audit_creation_date              2014-09-24
  _audit_creation_method            'ToBaCCo'
  _symmetry_space_group_name_H-M    'P1'
  _symmetry_Int_Tables_number       1
  _symmetry_cell_setting            triclinic
  loop_
  _symmetry_equiv_pos_as_xyz
 x,y,z
_cell_length_a 31.8347
_cell_length_b 31.7883
_cell_length_c 32.0365
_cell_angle_alpha 89.487600
_cell_angle_beta 89.164600
_cell_angle_gamma 90.956300
loop_
  _atom_site_label
  _atom_site_type_symbol
  _atom_site_fract_x
  _atom_site_fract_y
  _atom_site_fract_z
C1 C 0.15742 1.21201 0.20440
 C2 C 0.13607 1.24369 0.18305
 C3 C 0.15006 1.25840 0.14339
 C4 C 0.18721 1.24132 0.12639
 C5 C 0.20877 1.20959 0.14748
 C6 C 0.19369 1.19468 0.18653
 C7 C 0.14259 1.19731 0.24332
 C8 C 0.16229 1.16402 0.26463
 C9 C 0.19885 1.14699 0.24606
 C10 C 0.21474 1.16230 0.20758
 C11 C 0.25102 1.14516 0.18944
 C12 C 0.26626 1.15985 0.15046
 C13 C 0.24485 1.19203 0.12970
 H14 H 0.10899 1.25729 0.19821
 H15 H 0.19862 1.25122 0.09579
 H16 H 0.11572 1.21263 0.25704
 H17 H 0.21461 1.12078 0.26025
 H18 H 0.26695 1.11988 0.20529
 H19 H 0.25650 1.20361 0.09970
 C20 C 0.82844 0.77194 0.23883
 C21 C 0.84408 0.73393 0.22375
 C22 C 0.82692 0.71455 0.18821
 C23 C 0.79253 0.73380 0.16880
 C24 C 0.77719 0.77232 0.18311
 C25 C 0.79531 0.79154 0.21817
 C26 C 0.84601 0.79076 0.27404
 C27 C 0.83183 0.82986 0.28894
 C28 C 0.79896 0.84951 0.26721
 C29 C 0.78079 0.83070 0.23213
 C30 C 0.74895 0.85098 0.21014
 C31 C 0.73124 0.83240 0.17466
 C32 C 0.74503 0.79269 0.16186
 H33 H 0.86951 0.71921 0.24024
 H34 H 0.77919 0.72056 0.14083
 H35 H 0.87027 0.77402 0.29025
 H36 H 0.78818 0.88026 0.27614
 H37 H 0.73802 0.88129 0.22058
 H38 H 0.73180 0.77833 0.13432
 C39 C 0.83441 1.23284 -0.22620
 C40 C 0.85030 1.27181 -0.21286
 C41 C 0.83112 1.29326 -0.17957
 C42 C 0.79480 1.27541 -0.16044
 C43 C 0.77807 1.23689 -0.17406
 C44 C 0.79815 1.21536 -0.20684
 C45 C 0.85500 1.21071 -0.25793
 C46 C 0.84011 1.17084 -0.27111
 C47 C 0.80289 1.15445 -0.25196
 C48 C 0.78227 1.17611 -0.21986
 C49 C 0.74631 1.15865 -0.20014
 C50 C 0.72573 1.17997 -0.16758
 C51 C 0.74194 1.21923 -0.15489
 H52 H 0.87791 1.28530 -0.22835
 H53 H 0.78002 1.29073 -0.13414
 H54 H 0.88385 1.22414 -0.27081
 H55 H 0.78894 1.12512 -0.26208
 H56 H 0.73511 1.12787 -0.20957
 H57 H 0.72634 1.23623 -0.13011
 C58 C 0.16756 0.79409 -0.20879
 C59 C 0.14539 0.76317 -0.18569
 C60 C 0.16327 0.74313 -0.15070
 C61 C 0.20452 0.75553 -0.13953
 C62 C 0.22696 0.78677 -0.16228
 C63 C 0.20863 0.80566 -0.19736
 C64 C 0.14861 0.81465 -0.24239
 C65 C 0.17036 0.84647 -0.26495
 C66 C 0.21197 0.85666 -0.25447
 C67 C 0.23099 0.83690 -0.22046
 C68 C 0.27135 0.84921 -0.20819
 C69 C 0.28935 0.83206 -0.17208
 C70 C 0.26705 0.80025 -0.14970
 H71 H 0.11334 0.75617 -0.19437
 H72 H 0.22013 0.74059 -0.11375
 H73 H 0.11671 0.80621 -0.25075
 H74 H 0.22881 0.88143 -0.27153
 H75 H 0.28834 0.87306 -0.22630
 H76 H 0.27996 0.78703 -0.12149
 C77 C 0.54448 1.07519 -0.02079
 H78 H 0.52434 1.08760 0.00340
 C79 C 0.57103 1.10247 -0.04368
 H80 H 0.57066 1.13588 -0.03737
 C81 C 0.57065 1.01660 -0.05764
 H82 H 0.57060 0.98296 -0.06248
 C83 C 0.59708 1.04283 -0.08181
 H84 H 0.61754 1.02919 -0.10516
 N85 N 0.54420 1.03318 -0.02866
 C86 C 0.46075 1.02085 0.07402
 H87 H 0.47883 0.99838 0.09140
 C88 C 0.42952 1.04381 0.09440
 H89 H 0.42396 1.03840 0.12741
 C90 C 0.44439 1.05297 0.00943
 H91 H 0.45021 1.05607 -0.02383
 C92 C 0.41350 1.07695 0.02853
 H93 H 0.39634 1.09895 0.00958
 Zn94 Zn 0.50811 0.99565 0.00169
 N95 N 0.46777 1.02616 0.03231
 C96 C 0.56348 0.98367 0.06761
 N97 N 0.54270 0.96340 0.03674
 C98 C 0.55004 0.92232 0.02824
 C99 C 0.57966 0.90014 0.05096
 C100 C 0.59313 0.96259 0.09134
 C101 C 0.47674 0.97032 -0.07678
 C102 C 0.45170 0.94661 -0.10348
 C103 C 0.42881 0.90376 -0.04450
 C104 C 0.45397 0.92861 -0.01883
 N105 N 0.47763 0.96088 -0.03531
 H106 H 0.55763 1.01659 0.07319
 H107 H 0.53434 0.90715 0.00263
 H108 H 0.58600 0.86793 0.04259
 H109 H 0.60906 0.97945 0.11584
 H110 H 0.49435 0.99708 -0.08911
 H111 H 0.45103 0.95487 -0.13633
 H112 H 0.40966 0.87867 -0.03072
 H113 H 0.45429 0.92254 0.01445
 C114 C 0.40549 1.07265 0.07165
 C115 C 0.59722 1.08638 -0.07509
 C116 C 0.42723 0.91291 -0.08739
 C117 C 0.60226 0.92042 0.08261
 C118 C -0.02566 0.54776 1.07895
 H119 H 0.00628 0.53932 1.08586
 C120 C -0.04849 0.57172 1.10729
 H121 H -0.03406 0.58009 1.13647
 C122 C -0.08251 0.54707 1.03217
 H123 H -0.09513 0.53837 1.00226
 C124 C -0.10600 0.57223 1.05902
 H125 H -0.13645 0.58251 1.04895
 N126 N -0.04323 0.53506 1.04268
 C127 C 0.05170 0.44347 1.00720
 H128 H 0.05790 0.45373 0.97538
 C129 C 0.07316 0.40924 1.02357
 H130 H 0.09595 0.39345 1.00410
 C131 C 0.01241 0.44999 1.07009
 H132 H -0.01249 0.46469 1.08758
 C133 C 0.03316 0.41598 1.08772
 H134 H 0.02497 0.40620 1.11928
 Zn135 Zn -0.00949 0.50548 1.00402
 N136 N 0.02215 0.46326 1.03058
 C137 C 0.06742 0.54944 0.98219
 N138 N 0.02516 0.54635 0.97684
 C139 C 0.00458 0.57455 0.95285
 C140 C 0.02653 0.60716 0.93252
 C141 C 0.09069 0.58196 0.96260
 C142 C -0.07735 0.45504 0.97819
 C143 C -0.10079 0.43096 0.95037
 C144 C -0.05232 0.45229 0.89508
 C145 C -0.03026 0.47657 0.92379
 N146 N -0.04305 0.47750 0.96446
 H147 H 0.08301 0.52721 1.00216
 H148 H -0.02914 0.57170 0.94971
 H149 H 0.00936 0.62943 0.91384
 H150 H 0.12431 0.58394 0.96699
 H151 H -0.08605 0.45530 1.01095
 H152 H -0.12761 0.41271 0.96191
 H153 H -0.04136 0.45122 0.86295
 H154 H -0.00211 0.49357 0.91386
 C155 C 0.06363 0.39472 1.06422
 C156 C -0.08917 0.58491 1.09743
 C157 C -0.08800 0.42903 0.90834
 C158 C 0.07016 0.61137 0.93736
 C159 C 1.07991 -0.02262 0.54094
 H160 H 1.09544 -0.00031 0.52002
 C161 C 1.10305 -0.04259 0.57189
 H162 H 1.13633 -0.03558 0.57408
 C163 C 1.01721 -0.05596 0.56584
 H164 H 0.98351 -0.06016 0.56386
 C165 C 1.03911 -0.07681 0.59697
 H166 H 1.02197 -0.09787 0.61803
 N167 N 1.03771 -0.02938 0.53872
 C168 C 1.02911 0.07806 0.46150
 H169 H 1.00477 0.09241 0.48009
 C170 C 1.05187 0.10245 0.43236
 H171 H 1.04532 0.13565 0.42930
 C172 C 1.06590 0.01713 0.44130
 H173 H 1.07047 -0.01639 0.44446
 C174 C 1.08980 0.04047 0.41212
 H175 H 1.11267 0.02468 0.39274
 Zn176 Zn 1.00367 0.00250 0.50286
 N177 N 1.03663 0.03625 0.46561
 C178 C 0.99217 0.06526 0.56143
 N179 N 0.97094 0.03633 0.53850
 C180 C 0.92901 0.02918 0.54446
 C181 C 0.90690 0.05142 0.57491
 C182 C 0.97121 0.08864 0.59160
 C183 C 0.97410 -0.07508 0.46975
 C184 C 0.94946 -0.10024 0.44392
 C185 C 0.91522 -0.03774 0.41909
 C186 C 0.94066 -0.01376 0.44524
 N187 N 0.96911 -0.03268 0.47013
 H188 H 1.02571 0.06950 0.55678
 H189 H 0.91297 0.00519 0.52674
 H190 H 0.87368 0.04497 0.57980
 H191 H 0.98883 0.11103 0.61002
 H192 H 0.99767 -0.08942 0.48888
 H193 H 0.95383 -0.13395 0.44407
 H194 H 0.89320 -0.02197 0.39910
 H195 H 0.93798 0.02012 0.44557
 C196 C 1.08271 0.08368 0.40726
 C197 C 1.08251 -0.06948 0.60101
 C198 C 0.91951 -0.08162 0.41813
 C199 C 0.92818 0.08133 0.59915
 C200 C 0.14592 0.31324 1.08852
 C201 C 0.12712 0.28886 1.12082
 C202 C 0.08377 0.29568 1.12863
 C203 C 0.06266 0.32886 1.10908
 C204 C 0.08404 0.35660 1.08120
 C205 C 0.12503 0.34614 1.06947
 C206 C 0.16364 0.37325 1.06671
 C207 C 0.18664 0.33749 1.08763
 H208 H 0.06562 0.27570 1.14986
 H209 H 0.02982 0.33328 1.11675
 H210 H 0.16142 0.40184 1.08632
 H211 H 0.17405 0.37903 1.03387
 H212 H 0.19784 0.34529 1.11940
 H213 H 0.21047 0.32304 1.06677
 C214 C -0.11236 0.66882 1.17801
 C215 C -0.15489 0.67774 1.17166
 C216 C -0.17759 0.64894 1.14669
 C217 C -0.15698 0.61676 1.12484
 C218 C -0.11285 0.61293 1.12631
 C219 C -0.09195 0.63778 1.15568
 C220 C -0.05255 0.66369 1.15117
 C221 C -0.07473 0.69763 1.17557
 H222 H -0.21120 0.65140 1.14320
 H223 H -0.17568 0.59624 1.10549
 H224 H -0.04538 0.67282 1.11820
 H225 H -0.02596 0.64991 1.16840
 H226 H -0.08037 0.72656 1.15683
 H227 H -0.06079 0.70318 1.20670
 C228 C -0.10671 0.34183 0.83156
 C229 C -0.14995 0.33331 0.83601
 C230 C -0.17398 0.36359 0.85743
 C231 C -0.15418 0.39666 0.87913
 C232 C -0.11001 0.40076 0.87910
 C233 C -0.08734 0.37480 0.85230
 C234 C -0.04886 0.35001 0.86035
 C235 C -0.07005 0.31380 0.83773
 H236 H -0.20784 0.36066 0.85949
 H237 H -0.17323 0.41752 0.89773
 H238 H -0.04418 0.34359 0.89414
 H239 H -0.02089 0.36316 0.84330
 H240 H -0.07774 0.28634 0.85837
 H241 H -0.05406 0.30605 0.80776
 C242 C 0.10305 0.69358 0.85654
 C243 C 0.13962 0.71240 0.87278
 C244 C 0.15000 0.70012 0.91411
 C245 C 0.12730 0.66786 0.93551
 C246 C 0.09337 0.64684 0.91656
 C247 C 0.08072 0.66204 0.87779
 C248 C 0.07170 0.63829 0.83897
 C249 C 0.09629 0.67250 0.81547
 H250 H 0.17536 0.71514 0.93068
 H251 H 0.13669 0.65915 0.96671
 H252 H 0.03766 0.63775 0.83171
 H253 H 0.08709 0.60714 0.83824
 H254 H 0.07623 0.69113 0.79433
 H255 H 0.12602 0.66128 0.80109
 C256 C 1.10398 0.15776 0.31630
 C257 C 1.14523 0.14828 0.30323
 C258 C 1.16821 0.12238 0.33088
 C259 C 1.14866 0.10276 0.36591
 C260 C 1.10579 0.10884 0.37494
 C261 C 1.08506 0.13877 0.35110
 C262 C 1.04319 0.13554 0.33115
 C263 C 1.06356 0.15599 0.29282
 H264 H 1.20111 0.11622 0.32570
 H265 H 1.16676 0.08168 0.38504
 H266 H 1.01963 0.15577 0.34671
 H267 H 1.03280 0.10242 0.32610
 H268 H 1.05099 0.18773 0.28621
 H269 H 1.06506 0.13475 0.26546
 C270 C 1.16980 -0.11580 0.66578
 C271 C 1.14883 -0.12899 0.70241
 C272 C 1.10695 -0.11620 0.70807
 C273 C 1.08573 -0.09561 0.67575
 C274 C 1.10570 -0.08765 0.63671
 C275 C 1.14877 -0.09582 0.63374
 C276 C 1.17300 -0.11845 0.60090
 C277 C 1.19605 -0.14029 0.63602
 H278 H 1.09023 -0.12297 0.73709
 H279 H 1.05339 -0.08697 0.68119
 H280 H 1.19358 -0.09676 0.58205
 H281 H 1.15291 -0.14017 0.58249
 H282 H 1.22983 -0.13109 0.63740
 H283 H 1.18939 -0.17471 0.63802
 C284 C 0.89002 -0.16422 0.33889
 C285 C 0.85057 -0.15139 0.32451
 C286 C 0.83085 -0.11926 0.34788
 C287 C 0.85226 -0.09782 0.37975
 C288 C 0.89395 -0.10781 0.38957
 C289 C 0.91092 -0.14310 0.37037
 C290 C 0.95287 -0.14801 0.34994
 C291 C 0.93031 -0.17094 0.31527
 H292 H 0.79906 -0.10987 0.34172
 H293 H 0.83657 -0.07247 0.39568
 H294 H 0.97360 -0.16870 0.36835
 H295 H 0.96732 -0.11745 0.33975
 H296 H 0.93866 -0.20470 0.31363
 H297 H 0.93163 -0.15373 0.28489
 C298 C 0.89473 0.16694 0.67343
 C299 C 0.86286 0.14770 0.69834
 C300 C 0.85665 0.10373 0.69260
 C301 C 0.87797 0.08207 0.66073
 C302 C 0.90656 0.10330 0.63370
 C303 C 0.91600 0.14533 0.64236
 C304 C 0.91724 0.18225 0.61339
 C305 C 0.89377 0.20605 0.64703
 H306 H 0.83572 0.08522 0.71251
 H307 H 0.87175 0.04872 0.65707
 H308 H 0.89853 0.17695 0.58481
 H309 H 0.94980 0.19435 0.60775
 H310 H 0.86136 0.21458 0.63807
 H311 H 0.91288 0.23221 0.66017
 C312 C 0.30617 1.13544 0.08757
 C313 C 0.30408 1.14139 0.13072
 C314 C 0.33939 1.12976 0.15405
 C315 C 0.37321 1.10867 0.13494
 C316 C 0.37228 1.09825 0.09210
 C317 C 0.33910 1.11437 0.06888
 C318 C 0.31058 1.09301 0.03876
 C319 C 0.27453 1.11625 0.05925
 H320 H 0.34044 1.13594 0.18720
 H321 H 0.39935 1.09974 0.15410
 H322 H 0.30873 1.05834 0.04369
 H323 H 0.31688 1.10335 0.00600
 H324 H 0.25167 1.09512 0.07607
 H325 H 0.26034 1.14005 0.03836
 C326 C 0.67842 1.16992 -0.10434
 C327 C 0.68795 1.16104 -0.14621
 C328 C 0.66060 1.13266 -0.16664
 C329 C 0.62960 1.10956 -0.14397
 C330 C 0.62468 1.11487 -0.10054
 C331 C 0.64746 1.14764 -0.08219
 C332 C 0.67234 1.14773 -0.04309
 C333 C 0.70635 1.17208 -0.06732
 H334 H 0.66425 1.12669 -0.19967
 H335 H 0.61082 1.08626 -0.16005
 H336 H 0.68199 1.11567 -0.03342
 H337 H 0.65721 1.16652 -0.01812
 H338 H 0.73576 1.15416 -0.07178
 H339 H 0.71083 1.20483 -0.05613
 C340 C 0.34231 0.89122 -0.16553
 C341 C 0.33006 0.84944 -0.15670
 C342 C 0.35695 0.82593 -0.13094
 C343 C 0.39044 0.84581 -0.10997
 C344 C 0.39822 0.88942 -0.11485
 C345 C 0.37556 0.91054 -0.14539
 C346 C 0.35374 0.95167 -0.14317
 C347 C 0.31720 0.93054 -0.16516
 H348 H 0.35099 0.79279 -0.12509
 H349 H 0.40875 0.82753 -0.08836
 H350 H 0.36992 0.97637 -0.16254
 H351 H 0.34609 0.96098 -0.11059
 H352 H 0.31231 0.94331 -0.19710
 H353 H 0.28831 0.92753 -0.14535
 C354 C 0.66714 0.83333 0.12996
 C355 C 0.69983 0.85507 0.14955
 C356 C 0.70325 0.89882 0.14213
 C357 C 0.67217 0.92011 0.11972
 C358 C 0.63661 0.89826 0.10443
 C359 C 0.63638 0.85430 0.10817
 C360 C 0.60258 0.82480 0.12376
 C361 C 0.63634 0.80181 0.14759
 H362 H 0.72958 0.91674 0.15411
 H363 H 0.67590 0.95371 0.11505
 H364 H 0.58886 0.80577 0.09825
 H365 H 0.57931 0.84046 0.14438
 H366 H 0.64207 0.76964 0.13569
 H367 H 0.63269 0.80406 0.18207
   
