data_POSCAR
  _audit_creation_date              2014-09-24
  _audit_creation_method            'ToBaCCo'
  _symmetry_space_group_name_H-M    'P1'
  _symmetry_Int_Tables_number       1
  _symmetry_cell_setting            triclinic
  loop_
  _symmetry_equiv_pos_as_xyz
 x,y,z
_cell_length_a 37.9376
_cell_length_b 37.9914
_cell_length_c 38.0422
_cell_angle_alpha 105.167600
_cell_angle_beta 74.648000
_cell_angle_gamma 73.982000
loop_
  _atom_site_label
  _atom_site_type_symbol
  _atom_site_fract_x
  _atom_site_fract_y
  _atom_site_fract_z
C1 C 0.53337 0.50713 0.00364
 C2 C 0.50641 0.53422 -0.00510
 C3 C 0.47293 0.52753 -0.00929
 C4 C 0.46596 0.49427 -0.00492
 C5 C 0.49287 0.46727 0.00384
 C6 C 0.52633 0.47390 0.00802
 H7 H 0.54702 0.45297 0.01468
 H8 H 0.45213 0.54839 -0.01594
 C9 C -0.00405 0.46660 0.50535
 C10 C 0.00439 0.49321 0.53221
 C11 C 0.00855 0.52663 0.52546
 C12 C 0.00442 0.53381 0.49217
 C13 C -0.00408 0.50716 0.46529
 C14 C -0.00822 0.47375 0.47210
 H15 H -0.01464 0.45317 0.45136
 H16 H 0.01500 0.54712 0.54629
 C17 C 0.49432 0.00379 0.46744
 C18 C 0.46746 -0.00477 0.49409
 C19 C 0.47388 -0.00836 0.52781
 C20 C 0.50683 -0.00356 0.53533
 C21 C 0.53379 0.00503 0.50858
 C22 C 0.52727 0.00861 0.47485
 H23 H 0.54796 0.01513 0.45416
 H24 H 0.45301 -0.01488 0.54832
 O25 O 0.47399 0.00088 -0.04308
 O26 O 0.46184 0.01604 0.05978
 O27 O 0.46242 0.06007 0.01725
 O28 O 0.47342 -0.04315 -0.00059
 O29 O 0.53778 -0.06021 -0.01631
 O30 O 0.52678 0.04302 0.00152
 O31 O 0.52621 -0.00100 0.04404
 O32 O 0.53836 -0.01617 -0.05882
 Cu33 Cu 0.46143 0.01017 0.00992
 Cu34 Cu 0.53877 -0.01030 -0.00896
 C35 C 0.50816 -0.00986 -0.06824
 C36 C 0.49204 0.00974 0.06920
 C37 C 0.49281 0.06890 0.01205
 C38 C 0.50738 -0.06904 -0.01113
 O39 O -0.06021 0.53766 1.01475
 O40 O 0.04306 0.52703 0.99753
 O41 O -0.00031 0.52539 0.95445
 O42 O -0.01683 0.53927 1.05781
 O43 O 0.00025 0.47515 1.04315
 O44 O 0.01677 0.46127 0.93979
 O45 O 0.06015 0.46292 0.98288
 O46 O -0.04312 0.47354 1.00009
 Cu47 Cu -0.01028 0.53880 1.00759
 Cu48 Cu 0.01023 0.46175 0.99001
 C49 C -0.06903 0.50732 1.01000
 C50 C 0.06897 0.49326 0.98764
 C51 C 0.01067 0.49106 0.92975
 C52 C -0.01075 0.50948 1.06786
 O53 O 0.01580 -0.05946 0.46347
 O54 O -0.00066 0.04391 0.47566
 O55 O 0.05946 -0.01698 0.46344
 O56 O -0.04437 0.00146 0.47569
 O57 O -0.06012 0.01692 0.53953
 O58 O 0.04373 -0.00152 0.52728
 O59 O -0.01640 0.05937 0.53950
 O60 O 0.00007 -0.04398 0.52731
 Cu61 Cu 0.00911 -0.00931 0.46313
 Cu62 Cu -0.00977 0.00924 0.53985
 C63 C 0.01044 -0.06910 0.49340
 C64 C -0.01095 0.06901 0.50957
 C65 C 0.06906 -0.01205 0.49337
 C66 C -0.06971 0.01199 0.50960
 C67 C -0.43340 0.51212 1.00776
 C68 C -0.40376 0.51562 1.01131
 C69 C -0.36792 0.51855 1.01533
 C70 C -0.34749 0.53631 0.99396
 C71 C -0.31157 0.53720 0.99637
 C72 C -0.29558 0.52024 1.02016
 C73 C -0.31673 0.50308 1.04204
 C74 C -0.35261 0.50223 1.03958
 C75 C -0.25646 0.51930 1.02118
 C76 C -0.22939 0.48543 1.02120
 C77 C -0.19204 0.48391 1.02076
 C78 C -0.18120 0.51617 1.02036
 C79 C -0.20803 0.55018 1.02078
 C80 C -0.24543 0.55177 1.02121
 C81 C -0.14203 0.51372 1.01792
 C82 C -0.10887 0.51107 1.01490
 H83 H -0.35901 0.54889 0.97497
 H84 H -0.29579 0.55019 0.97879
 H85 H -0.30550 0.49028 1.06103
 H86 H -0.36820 0.48844 1.05628
 H87 H -0.23673 0.45973 1.02057
 H88 H -0.17142 0.45734 1.02016
 H89 H -0.19992 0.57531 1.02042
 H90 H -0.26574 0.57840 1.02164
 C91 C 0.43286 0.48907 0.99094
 C92 C 0.40330 0.48537 0.98733
 C93 C 0.36756 0.48222 0.98321
 C94 C 0.35311 0.49698 0.95765
 C95 C 0.31731 0.49601 0.95507
 C96 C 0.29537 0.48028 0.97812
 C97 C 0.31050 0.46486 1.00323
 C98 C 0.34635 0.46588 1.00576
 C99 C 0.25632 0.48116 0.97693
 C100 C 0.24469 0.44930 0.97844
 C101 C 0.20732 0.45089 0.97875
 C102 C 0.18112 0.48429 0.97752
 C103 C 0.19257 0.51594 0.97558
 C104 C 0.22989 0.51441 0.97526
 C105 C 0.14195 0.48683 0.97987
 C106 C 0.10880 0.48951 0.98282
 H107 H 0.36932 0.50968 0.94003
 H108 H 0.30674 0.50760 0.93508
 H109 H 0.29411 0.45301 1.02171
 H110 H 0.35719 0.45452 1.02577
 H111 H 0.26451 0.42313 0.97931
 H112 H 0.19873 0.42625 0.98031
 H113 H 0.17243 0.54205 0.97491
 H114 H 0.23770 0.53965 0.97467
 C115 C 0.00857 -0.43319 0.48678
 C116 C 0.01220 -0.40373 0.48293
 C117 C 0.01634 -0.36808 0.47968
 C118 C -0.00641 -0.34641 0.46347
 C119 C -0.00402 -0.31055 0.46256
 C120 C 0.02114 -0.29590 0.47795
 C121 C 0.04447 -0.31835 0.49344
 C122 C 0.04202 -0.35415 0.49432
 C123 C 0.02202 -0.25676 0.47917
 C124 C 0.02352 -0.23102 0.51242
 C125 C 0.02292 -0.19362 0.51429
 C126 C 0.02084 -0.18141 0.48300
 C127 C 0.01976 -0.20691 0.44961
 C128 C 0.02035 -0.24436 0.44767
 C129 C 0.01829 -0.14219 0.48591
 C130 C 0.01525 -0.10898 0.48902
 H131 H -0.02650 -0.35687 0.45219
 H132 H -0.02269 -0.29376 0.45088
 H133 H 0.06453 -0.30816 0.50499
 H134 H 0.05979 -0.37073 0.50690
 H135 H 0.02419 -0.23942 0.53739
 H136 H 0.02349 -0.17402 0.54039
 H137 H 0.01810 -0.19772 0.42524
 H138 H 0.01959 -0.26365 0.42152
 C139 C -0.00823 0.43163 0.51093
 C140 C -0.01160 0.40204 0.51465
 C141 C -0.01533 0.36625 0.51787
 C142 C -0.00671 0.35357 0.54707
 C143 C -0.00900 0.31797 0.54907
 C144 C -0.01995 0.29463 0.52184
 C145 C -0.02900 0.30793 0.49292
 C146 C -0.02668 0.34347 0.49097
 C147 C -0.02072 0.25597 0.52269
 C148 C -0.05046 0.24346 0.51499
 C149 C -0.04994 0.20622 0.51381
 C150 C -0.01978 0.18103 0.52034
 C151 C 0.00957 0.19343 0.52863
 C152 C 0.00911 0.23065 0.52984
 C153 C -0.01798 0.14194 0.51717
 C154 C -0.01541 0.10882 0.51395
 H155 H 0.00207 0.37102 0.56806
 H156 H -0.00228 0.30874 0.57194
 H157 H -0.03693 0.29039 0.47118
 H158 H -0.03324 0.35294 0.46814
 H159 H -0.07408 0.26247 0.50985
 H160 H -0.07282 0.19692 0.50739
 H161 H 0.03317 0.17409 0.53354
 H162 H 0.03271 0.23917 0.53531
 C163 C 0.51169 -0.00714 -0.43125
 C164 C 0.51514 -0.01022 -0.40147
 C165 C 0.51804 -0.01368 -0.36548
 C166 C 0.54637 -0.00387 -0.35220
 C167 C 0.54804 -0.00595 -0.31646
 C168 C 0.52137 -0.01792 -0.29357
 C169 C 0.49335 -0.02817 -0.30747
 C170 C 0.49171 -0.02603 -0.34314
 C171 C 0.52188 -0.01860 -0.25483
 C172 C 0.51548 -0.04893 -0.24251
 C173 C 0.51407 -0.04847 -0.20527
 C174 C 0.51906 -0.01776 -0.17989
 C175 C 0.52600 0.01221 -0.19208
 C176 C 0.52745 0.01181 -0.22929
 C177 C 0.51582 -0.01619 -0.14089
 C178 C 0.51256 -0.01390 -0.10789
 H179 H 0.56695 0.00566 -0.36932
 H180 H 0.57023 0.00170 -0.30677
 H181 H 0.47205 -0.03692 -0.29031
 H182 H 0.46957 -0.03354 -0.35308
 H183 H 0.51158 -0.07299 -0.26167
 H184 H 0.50871 -0.07185 -0.19615
 H185 H 0.52972 0.03623 -0.17260
 H186 H 0.53188 0.03585 -0.23767
 C187 C 0.48901 0.00752 0.43221
 C188 C 0.48550 0.01055 0.40244
 C189 C 0.48251 0.01395 0.36646
 C190 C 0.45442 0.00370 0.35308
 C191 C 0.45267 0.00572 0.31734
 C192 C 0.47904 0.01805 0.29455
 C193 C 0.50682 0.02873 0.30855
 C194 C 0.50853 0.02666 0.34423
 C195 C 0.47847 0.01867 0.25581
 C196 C 0.48446 0.04917 0.24356
 C197 C 0.48583 0.04866 0.20632
 C198 C 0.48119 0.01774 0.18086
 C199 C 0.47464 -0.01241 0.19298
 C200 C 0.47324 -0.01196 0.23019
 C201 C 0.48440 0.01613 0.14186
 C202 C 0.48764 0.01381 0.10886
 H203 H 0.43408 -0.00611 0.37010
 H204 H 0.43067 -0.00226 0.30757
 H205 H 0.52789 0.03777 0.29148
 H206 H 0.53049 0.03450 0.35425
 H207 H 0.48809 0.07340 0.26278
 H208 H 0.49088 0.07217 0.19726
 H209 H 0.47119 -0.03659 0.17343
 H210 H 0.46912 -0.03612 0.23851
 C211 C 0.51173 -0.43276 -0.00938
 C212 C 0.51553 -0.40330 -0.01305
 C213 C 0.51879 -0.36763 -0.01718
 C214 C 0.53561 -0.34685 0.00501
 C215 C 0.53667 -0.31103 0.00256
 C216 C 0.52081 -0.29551 -0.02211
 C217 C 0.50464 -0.31704 -0.04482
 C218 C 0.50362 -0.35281 -0.04232
 C219 C 0.51990 -0.25645 -0.02312
 C220 C 0.48638 -0.22980 -0.02417
 C221 C 0.48480 -0.19247 -0.02362
 C222 C 0.51667 -0.18123 -0.02208
 C223 C 0.55035 -0.20765 -0.02150
 C224 C 0.55199 -0.24504 -0.02202
 C225 C 0.51407 -0.14205 -0.01945
 C226 C 0.51130 -0.10888 -0.01625
 H227 H 0.54730 -0.35799 0.02469
 H228 H 0.54888 -0.29496 0.02078
 H229 H 0.49270 -0.30617 -0.06448
 H230 H 0.49056 -0.36869 -0.05966
 H231 H 0.46096 -0.23745 -0.02441
 H232 H 0.45848 -0.17215 -0.02380
 H233 H 0.57518 -0.19923 -0.02024
 H234 H 0.57837 -0.26503 -0.02164
 C235 C 0.48722 0.43243 0.00846
 C236 C 0.48353 0.40297 0.01224
 C237 C 0.48041 0.36731 0.01653
 C238 C 0.49476 0.35322 0.04248
 C239 C 0.49388 0.31747 0.04519
 C240 C 0.47866 0.29525 0.02188
 C241 C 0.46364 0.31003 -0.00362
 C242 C 0.46455 0.34582 -0.00628
 C243 C 0.47968 0.25625 0.02319
 C244 C 0.44806 0.24430 0.02125
 C245 C 0.44986 0.20695 0.02095
 C246 C 0.48321 0.18109 0.02262
 C247 C 0.51459 0.19287 0.02503
 C248 C 0.51287 0.23019 0.02535
 C249 C 0.48601 0.14190 0.02016
 C250 C 0.48888 0.10873 0.01707
 H251 H 0.50707 0.36965 0.06029
 H252 H 0.50516 0.30717 0.06548
 H253 H 0.45219 0.29341 -0.02230
 H254 H 0.45352 0.35639 -0.02659
 H255 H 0.42194 0.26385 0.02001
 H256 H 0.42541 0.19809 0.01901
 H257 H 0.54067 0.17299 0.02606
 H258 H 0.53793 0.23825 0.02628
 C259 C -0.43348 0.00973 0.51436
 C260 C -0.40425 0.01374 0.51856
 C261 C -0.36883 0.01825 0.52225
 C262 C -0.35535 0.04463 0.50847
 C263 C -0.31969 0.04738 0.50968
 C264 C -0.29693 0.02365 0.52463
 C265 C -0.31115 -0.00222 0.53917
 C266 C -0.34687 -0.00491 0.53795
 C267 C -0.25787 0.02478 0.52366
 C268 C -0.24537 0.02231 0.55492
 C269 C -0.20788 0.02172 0.55308
 C270 C -0.18246 0.02362 0.52004
 C271 C -0.19481 0.02658 0.48903
 C272 C -0.23225 0.02719 0.49080
 C273 C -0.14310 0.02077 0.51711
 C274 C -0.10977 0.01737 0.51398
 H275 H -0.37215 0.06271 0.49629
 H276 H -0.30982 0.06797 0.49878
 H277 H -0.29412 -0.02122 0.55042
 H278 H -0.35698 -0.02555 0.54855
 H279 H -0.26457 0.02085 0.58077
 H280 H -0.19858 0.01935 0.57723
 H281 H -0.17526 0.02778 0.46320
 H282 H -0.24073 0.02850 0.46601
 C283 C 0.43298 -0.00971 0.48781
 C284 C 0.40375 -0.01372 0.48361
 C285 C 0.36832 -0.01821 0.47995
 C286 C 0.34590 0.00554 0.46505
 C287 C 0.31016 0.00284 0.46390
 C288 C 0.29639 -0.02364 0.47772
 C289 C 0.31960 -0.04794 0.49187
 C290 C 0.35529 -0.04518 0.49300
 C291 C 0.25733 -0.02482 0.47878
 C292 C 0.23211 -0.02807 0.51133
 C293 C 0.19465 -0.02747 0.51323
 C294 C 0.18187 -0.02369 0.48265
 C295 C 0.20689 -0.02097 0.44990
 C296 C 0.24440 -0.02155 0.44793
 C297 C 0.14248 -0.02083 0.48575
 C298 C 0.10912 -0.01742 0.48896
 H299 H 0.35565 0.02664 0.45503
 H300 H 0.29276 0.02229 0.45329
 H301 H 0.31009 -0.06899 0.50219
 H302 H 0.37245 -0.06372 0.50457
 H303 H 0.24093 -0.03002 0.53581
 H304 H 0.17542 -0.02931 0.53884
 H305 H 0.19725 -0.01797 0.42609
 H306 H 0.26328 -0.01944 0.42231
 C307 C -0.00839 0.51299 1.43042
 C308 C -0.01186 0.51685 1.40093
 C309 C -0.01574 0.52014 1.36521
 C310 C -0.00717 0.54931 1.35259
 C311 C -0.00949 0.55128 1.31702
 C312 C -0.02045 0.52407 1.29366
 C313 C -0.02949 0.49521 1.30693
 C314 C -0.02712 0.49328 1.34244
 C315 C -0.02118 0.52479 1.25502
 C316 C -0.05094 0.51734 1.24231
 C317 C -0.05031 0.51586 1.20503
 C318 C -0.02001 0.52185 1.18001
 C319 C 0.00933 0.52995 1.19262
 C320 C 0.00875 0.53146 1.22988
 C321 C -0.01803 0.51821 1.14086
 C322 C -0.01533 0.51452 1.10770
 H323 H 0.00160 0.57029 1.37007
 H324 H -0.00278 0.57408 1.30779
 H325 H -0.03742 0.47349 1.28938
 H326 H -0.03364 0.47049 1.35187
 H327 H -0.07464 0.51257 1.26117
 H328 H -0.07318 0.50959 1.19556
 H329 H 0.03304 0.53443 1.17340
 H330 H 0.03236 0.53673 1.23858
 C331 C 0.00865 0.48719 0.56700
 C332 C 0.01209 0.48315 0.59644
 C333 C 0.01592 0.47961 0.63210
 C334 C 0.00368 0.45290 0.64645
 C335 C 0.00586 0.45091 0.68206
 C336 C 0.02031 0.47565 0.70374
 C337 C 0.03306 0.50197 0.68872
 C338 C 0.03084 0.50392 0.65317
 C339 C 0.02080 0.47515 0.74251
 C340 C 0.05238 0.47904 0.75389
 C341 C 0.05171 0.48074 0.79124
 C342 C 0.01954 0.47851 0.81765
 C343 C -0.01168 0.47399 0.80640
 C344 C -0.01107 0.47228 0.76909
 C345 C 0.01774 0.48225 0.85677
 C346 C 0.01516 0.48600 0.88991
 H347 H -0.00788 0.43393 0.63033
 H348 H -0.00375 0.43004 0.69264
 H349 H 0.04376 0.52180 0.70495
 H350 H 0.04021 0.52482 0.64239
 H351 H 0.07754 0.48084 0.73392
 H352 H 0.07604 0.48421 0.79965
 H353 H -0.03681 0.47243 0.82670
 H354 H -0.03606 0.46983 0.76145
   
