data_POSCAR
  _audit_creation_date              2014-09-24
  _audit_creation_method            'ToBaCCo'
  _symmetry_space_group_name_H-M    'P1'
  _symmetry_Int_Tables_number       1
  _symmetry_cell_setting            triclinic
  loop_
  _symmetry_equiv_pos_as_xyz
 x,y,z
_cell_length_a 32.2535
_cell_length_b 31.1273
_cell_length_c 31.0768
_cell_angle_alpha 90.008600
_cell_angle_beta 89.611300
_cell_angle_gamma 90.003000
loop_
  _atom_site_label
  _atom_site_type_symbol
  _atom_site_fract_x
  _atom_site_fract_y
  _atom_site_fract_z
C1 C 0.19939 0.14010 0.18316
 C2 C 0.17716 0.11660 0.21395
 C3 C 0.14024 0.13272 0.23185
 C4 C 0.12416 0.17189 0.21611
 C5 C 0.14504 0.19453 0.18330
 C6 C 0.18346 0.17917 0.16767
 C7 C 0.23754 0.12497 0.16793
 C8 C 0.26103 0.14861 0.13794
 C9 C 0.24464 0.18759 0.12197
 C10 C 0.20576 0.20262 0.13627
 C11 C 0.18841 0.24025 0.11912
 C12 C 0.14896 0.25431 0.13244
 C13 C 0.12796 0.23194 0.16545
 H14 H 0.18971 0.08639 0.22546
 H15 H 0.09476 0.18406 0.22791
 H16 H 0.24935 0.09473 0.18021
 H17 H 0.26105 0.20585 0.09764
 H18 H 0.20499 0.25791 0.09433
 H19 H 0.09829 0.24355 0.17718
 C20 C -0.19869 0.87170 0.19270
 C21 C -0.17804 0.89797 0.22236
 C22 C -0.13961 0.88566 0.23953
 C23 C -0.12109 0.84715 0.22491
 C24 C -0.14093 0.82120 0.19447
 C25 C -0.17998 0.83332 0.17843
 C26 C -0.23777 0.88342 0.17715
 C27 C -0.25828 0.85777 0.14645
 C28 C -0.23856 0.82023 0.13130
 C29 C -0.20001 0.80736 0.14768
 C30 C -0.18101 0.76912 0.13368
 C31 C -0.14204 0.75685 0.14983
 C32 C -0.12210 0.78334 0.17973
 H33 H -0.19261 0.92755 0.23308
 H34 H -0.09070 0.83758 0.23584
 H35 H -0.25107 0.91349 0.18795
 H36 H -0.25369 0.80042 0.10735
 H37 H -0.19611 0.74948 0.10964
 H38 H -0.09191 0.77415 0.19186
 C39 C -0.21131 0.14479 -0.20192
 C40 C -0.18829 0.12459 -0.23442
 C41 C -0.14808 0.13839 -0.24465
 C42 C -0.13067 0.17298 -0.22175
 C43 C -0.15359 0.19384 -0.18923
 C44 C -0.19430 0.17995 -0.17963
 C45 C -0.25107 0.13008 -0.19135
 C46 C -0.27499 0.15048 -0.15938
 C47 C -0.25830 0.18666 -0.13810
 C48 C -0.21802 0.20116 -0.14779
 C49 C -0.20082 0.23611 -0.12563
 C50 C -0.16004 0.24960 -0.13417
 C51 C -0.13669 0.22853 -0.16636
 H52 H -0.20172 0.09789 -0.25193
 H53 H -0.09988 0.18442 -0.22987
 H54 H -0.26343 0.10239 -0.20818
 H55 H -0.27536 0.20266 -0.11268
 H56 H -0.21894 0.25249 -0.10110
 H57 H -0.10567 0.23952 -0.17420
 C58 C 0.20478 0.86030 -0.18325
 C59 C 0.18718 0.88918 -0.21254
 C60 C 0.14880 0.88036 -0.23185
 C61 C 0.12701 0.84284 -0.21949
 C62 C 0.14349 0.81457 -0.18884
 C63 C 0.18279 0.82302 -0.17110
 C64 C 0.24404 0.86820 -0.16581
 C65 C 0.26135 0.83954 -0.13592
 C66 C 0.23894 0.80308 -0.12316
 C67 C 0.19995 0.79440 -0.14083
 C68 C 0.17762 0.75786 -0.12825
 C69 C 0.13798 0.74988 -0.14471
 C70 C 0.12118 0.77812 -0.17538
 H71 H 0.20419 0.91794 -0.22149
 H72 H 0.09654 0.83613 -0.23223
 H73 H 0.26068 0.89715 -0.17471
 H74 H 0.25202 0.78141 -0.09953
 H75 H 0.19070 0.73599 -0.10480
 H76 H 0.09101 0.77155 -0.18904
 C77 C 0.14114 1.19242 0.81586
 C78 C 0.12747 1.18145 0.77464
 C79 C 0.15082 1.15398 0.74790
 C80 C 0.18892 1.13773 0.76328
 C81 C 0.20260 1.14786 0.80497
 C82 C 0.17833 1.17493 0.83147
 C83 C 0.11798 1.22063 0.84168
 C84 C 0.13129 1.23146 0.88352
 C85 C 0.16699 1.21153 0.89979
 C86 C 0.19097 1.18416 0.87382
 C87 C 0.22773 1.16636 0.88944
 C88 C 0.25262 1.14017 0.86317
 C89 C 0.23981 1.13079 0.82093
 H90 H 0.09832 1.19450 0.76330
 H91 H 0.20744 1.11597 0.74403
 H92 H 0.08923 1.23319 0.82910
 H93 H 0.17732 1.21891 0.93212
 H94 H 0.23739 1.17336 0.92207
 H95 H 0.25812 1.10946 0.80087
 C96 C 0.85477 0.80244 0.79700
 C97 C 0.87757 0.82500 0.76593
 C98 C 0.86575 0.86645 0.75289
 C99 C 0.82996 0.88516 0.77170
 C100 C 0.80634 0.86247 0.80242
 C101 C 0.81869 0.82080 0.81482
 C102 C 0.86794 0.76188 0.81075
 C103 C 0.84517 0.73856 0.84162
 C104 C 0.80814 0.75650 0.85818
 C105 C 0.79507 0.79749 0.84520
 C106 C 0.75915 0.81587 0.86286
 C107 C 0.74693 0.85757 0.85146
 C108 C 0.77050 0.88067 0.82090
 H109 H 0.90507 0.81021 0.75209
 H110 H 0.81938 0.91662 0.76195
 H111 H 0.89634 0.74850 0.79747
 H112 H 0.79014 0.74001 0.88256
 H113 H 0.74100 0.79802 0.88631
 H114 H 0.76074 0.91245 0.81104
 C115 C 0.14765 0.79752 1.19987
 C116 C 0.12876 0.81809 1.23504
 C117 C 0.14821 0.85277 1.25550
 C118 C 0.18623 0.86824 1.23921
 C119 C 0.20508 0.84860 1.20334
 C120 C 0.18615 0.81247 1.18422
 C121 C 0.12858 0.76220 1.18018
 C122 C 0.14793 0.74030 1.14587
 C123 C 0.18661 0.75550 1.13050
 C124 C 0.20547 0.79161 1.14913
 C125 C 0.24298 0.80772 1.13260
 C126 C 0.26088 0.84494 1.14993
 C127 C 0.24220 0.86479 1.18588
 H128 H 0.09916 0.80657 1.24715
 H129 H 0.20070 0.89600 1.25385
 H130 H 0.09880 0.75116 1.19231
 H131 H 0.20169 0.74067 1.10310
 H132 H 0.25760 0.79218 1.10519
 H133 H 0.25652 0.89281 1.20020
 C134 C 0.86115 1.18715 1.19030
 C135 C 0.87584 1.17890 1.23180
 C136 C 0.85772 1.14686 1.25776
 C137 C 0.82465 1.12235 1.24092
 C138 C 0.81027 1.12964 1.19899
 C139 C 0.82840 1.16236 1.17368
 C140 C 0.87899 1.21965 1.16501
 C141 C 0.86470 1.22744 1.12309
 C142 C 0.83271 1.20210 1.10632
 C143 C 0.81411 1.16995 1.13151
 C144 C 0.78152 1.14522 1.11518
 C145 C 0.76346 1.11250 1.14018
 C146 C 0.77831 1.10444 1.18173
 H147 H 0.90143 1.19782 1.24407
 H148 H 0.81092 1.09642 1.25927
 H149 H 0.90443 1.23843 1.17770
 H150 H 0.82190 1.20795 1.07387
 H151 H 0.77059 1.15092 1.08276
 H152 H 0.76443 1.07900 1.20082
 O153 O 0.44303 0.91138 0.93009
 O154 O 0.39715 0.95107 0.97052
 C155 C 0.40577 0.92124 0.94291
 O156 O 0.56419 0.93006 1.07988
 O157 O 0.60637 0.96757 1.03337
 C158 C 0.60044 0.94185 1.06557
 O159 O 0.44782 0.91894 1.08084
 O160 O 0.39935 0.95603 1.04189
 C161 C 0.40978 0.92838 1.07112
 O162 O 0.55885 0.92069 0.92112
 O163 O 0.60355 0.96408 0.95832
 C164 C 0.59570 0.93490 0.92972
 Zr165 Zr 0.50086 0.93841 0.94825
 O166 O 0.50888 0.87124 0.95535
 O167 O 0.49497 0.93099 0.88092
 Zr168 Zr 0.50411 0.94531 1.05669
 O169 O 0.51234 0.87797 1.06054
 O170 O 0.50142 0.94971 1.12463
 O171 O 0.46593 0.93151 1.00449
 O172 O 0.53900 0.93600 1.00134
 O173 O 0.55201 1.07100 0.91554
 O174 O 0.60042 1.03497 0.95564
 C175 C 0.58998 1.06196 0.92597
 O176 O 0.43912 1.07886 1.06681
 O177 O 0.39512 1.03007 1.03581
 C178 C 0.40233 1.06400 1.05859
 O179 O 0.55543 1.08036 1.06931
 O180 O 0.60201 1.03969 1.03084
 C181 C 0.59286 1.06969 1.05827
 O182 O 0.43547 1.06573 0.92116
 O183 O 0.39347 1.02524 0.96519
 C184 C 0.39928 1.05309 0.93481
 Zr185 Zr 0.49554 1.04679 0.94142
 O186 O 0.49535 1.11464 0.93642
 O187 O 0.49036 1.04081 0.87378
 Zr188 Zr 0.49820 1.05336 1.05017
 O189 O 0.49865 1.12120 1.05200
 O190 O 0.49488 1.05258 1.11829
 Zr191 Zr 0.43829 0.99279 1.00160
 Zr192 Zr 0.56143 0.99934 0.99652
 O193 O 0.53229 1.05984 0.99400
 O194 O 0.45981 1.05659 0.99658
 O195 O 0.53484 0.99410 0.93491
 O196 O 0.46525 0.99802 1.06279
 O197 O 0.46217 0.99025 0.93844
 O198 O 0.53850 1.00195 1.06025
 H199 H 0.55923 0.91205 1.00176
 H200 H 0.44668 0.99903 1.08830
 H201 H 0.54925 1.08631 0.99193
 H202 H 0.44295 0.98769 0.91384
 H203 H 0.52348 0.96978 1.13367
 H204 H 0.52257 1.04444 1.12913
 H205 H 0.48933 1.13102 1.02345
 H206 H 0.47145 1.12546 0.95335
 H207 H 0.51647 1.02805 0.86282
 H208 H 0.51057 0.95480 0.86737
 H209 H 0.48363 0.85968 0.96943
 H210 H 0.49010 0.86449 1.04343
 O211 O 0.05646 0.44017 -0.08536
 O212 O 0.02287 0.39453 -0.03870
 C213 C 0.04707 0.40217 -0.07133
 O214 O 0.07260 0.56604 0.06366
 O215 O 0.03017 0.61217 0.02663
 C216 C 0.06052 0.60432 0.05263
 O217 O 0.07496 0.44528 0.06488
 O218 O 0.03041 0.39708 0.03374
 C219 C 0.06219 0.40643 0.05739
 O220 O 0.05503 0.56016 -0.09135
 O221 O 0.02209 0.60919 -0.04782
 C222 C 0.04568 0.59921 -0.08028
 Zr223 Zr 0.03753 0.50107 -0.06254
 O224 O 0.10288 0.50444 -0.06890
 O225 O 0.03124 0.49487 -0.13000
 Zr226 Zr 0.04953 0.50497 0.04517
 O227 O 0.11465 0.50870 0.03710
 O228 O 0.05613 0.50315 0.11288
 O229 O 0.05135 0.46439 -0.00831
 O230 O 0.05129 0.54025 -0.01108
 O231 O -0.08894 0.56169 -0.07276
 O232 O -0.04594 0.60991 -0.03923
 C233 C -0.07632 0.60049 -0.06460
 O234 O -0.07582 0.44743 0.08446
 O235 O -0.04174 0.39815 0.04213
 C236 C -0.06686 0.40836 0.07328
 O237 O -0.07313 0.56780 0.08115
 O238 O -0.03819 0.61264 0.03484
 C239 C -0.06311 0.60572 0.06693
 O240 O -0.09198 0.44104 -0.06540
 O241 O -0.04822 0.39491 -0.03023
 C242 C -0.07944 0.40275 -0.05514
 Zr243 Zr -0.06672 0.50198 -0.04943
 O244 O -0.13170 0.50697 -0.04054
 O245 O -0.07454 0.49529 -0.11669
 Zr246 Zr -0.05455 0.50628 0.05835
 O247 O -0.11948 0.51083 0.06753
 O248 O -0.04508 0.50509 0.12572
 Zr249 Zr -0.00892 0.43936 0.00026
 Zr250 Zr -0.00816 0.56732 -0.00468
 O251 O -0.06792 0.54140 0.00387
 O252 O -0.06889 0.46573 0.00696
 O253 O -0.01534 0.53942 -0.06595
 O254 O -0.00190 0.46851 0.06093
 O255 O -0.01566 0.46412 -0.06239
 O256 O -0.00135 0.54433 0.05866
 H257 H 0.07554 0.55944 -0.01493
 H258 H 0.00076 0.45011 0.08677
 H259 H -0.09217 0.56083 0.00598
 H260 H -0.01866 0.44428 -0.08711
 H261 H 0.04130 0.52832 0.12484
 H262 H -0.02998 0.53160 0.13356
 H263 H -0.13238 0.48780 0.05027
 H264 H -0.14065 0.48247 -0.02246
 H265 H -0.05894 0.51882 -0.13078
 H266 H 0.01130 0.51700 -0.13948
 H267 H 0.11466 0.47845 -0.05534
 H268 H 0.12305 0.48497 0.01776
 O269 O 1.08282 -0.06364 0.43931
 O270 O 1.04202 -0.02447 0.39358
 C271 C 1.07072 -0.05249 0.40107
 O272 O 0.93541 -0.06910 0.56353
 O273 O 0.97229 -0.02753 0.61078
 C274 C 0.94463 -0.05640 0.60208
 O275 O 0.94272 -0.07528 0.44312
 O276 O 0.97355 -0.02875 0.39534
 C277 C 0.95117 -0.06224 0.40444
 O278 O 1.08425 -0.06567 0.56009
 O279 O 1.04480 -0.02788 0.60898
 C280 C 1.07292 -0.05617 0.59908
 Zr281 Zr 1.06200 -0.04212 0.50084
 O282 O 1.06640 -0.10999 0.50145
 O283 O 1.12743 -0.03645 0.50368
 Zr284 Zr 0.95696 -0.04670 0.50282
 O285 O 0.95389 -0.11438 0.50700
 O286 O 0.89152 -0.04532 0.49727
 O287 O 1.00959 -0.05233 0.46368
 O288 O 1.00993 -0.05300 0.53889
 O289 O 1.08180 0.08471 0.56361
 O290 O 1.04250 0.04462 0.61059
 C291 C 1.07120 0.07248 0.60216
 O292 O 0.92980 0.08384 0.44392
 O293 O 0.97072 0.04677 0.39589
 C294 C 0.94159 0.07388 0.40507
 O295 O 0.92866 0.08009 0.56495
 O296 O 0.97097 0.04320 0.61116
 C297 C 0.94100 0.06978 0.60325
 O298 O 1.07177 0.09572 0.44345
 O299 O 1.03863 0.05148 0.39564
 C300 C 1.06168 0.08437 0.40472
 Zr301 Zr 1.05743 0.06594 0.50302
 O302 O 1.05772 0.13346 0.51047
 O303 O 1.12274 0.06667 0.49576
 Zr304 Zr 0.95240 0.06137 0.50405
 O305 O 0.95081 0.12921 0.50897
 O306 O 0.88691 0.05897 0.50098
 Zr307 Zr 1.00669 0.01054 0.43852
 Zr308 Zr 1.00762 0.00858 0.56674
 O309 O 1.00492 0.07105 0.54098
 O310 O 1.00420 0.07268 0.46556
 O311 O 1.06793 0.01148 0.54036
 O312 O 0.94689 0.00723 0.46583
 O313 O 1.06692 0.01309 0.46392
 O314 O 0.94690 0.00648 0.54202
 H315 H 1.01028 -0.07879 0.55755
 H316 H 0.92279 0.00568 0.44628
 H317 H 1.00447 0.09593 0.56086
 H318 H 1.09036 0.01540 0.44332
 H319 H 0.87996 -0.03522 0.52505
 H320 H 0.87728 0.03900 0.52369
 H321 H 0.96338 0.14111 0.48239
 H322 H 1.03306 0.14448 0.49534
 H323 H 1.13421 0.04703 0.51771
 H324 H 1.13782 -0.02580 0.47564
 H325 H 1.04872 -0.12114 0.47807
 H326 H 0.98168 -0.12524 0.49911
 C327 C 1.12100 0.10862 0.26461
 C328 C 1.09485 0.12482 0.29400
 C329 C 1.07911 0.09714 0.32878
 C330 C 1.07652 0.11159 0.36915
 H331 H 1.08802 0.15886 0.29522
 H332 H 1.07207 0.06384 0.32164
 H333 H 1.13069 0.07546 0.26874
 H334 H 1.08670 0.14395 0.37654
 C335 C 0.87880 -0.08771 0.27069
 C336 C 0.90844 -0.10078 0.29768
 C337 C 0.92438 -0.07221 0.33135
 C338 C 0.93545 -0.08866 0.36916
 H339 H 0.91877 -0.13383 0.29814
 H340 H 0.92530 -0.03779 0.32599
 H341 H 0.86625 -0.05567 0.27532
 H342 H 0.93102 -0.12267 0.37527
 C343 C 0.87357 0.11711 0.71904
 C344 C 0.91487 0.11360 0.71583
 C345 C 0.93549 0.09146 0.67943
 C346 C 0.91957 0.09045 0.63967
 H347 H 0.93434 0.12492 0.74170
 H348 H 0.96579 0.07773 0.68526
 H349 H 0.85433 0.10164 0.69516
 H350 H 0.89097 0.10726 0.63283
 C351 C 1.13356 -0.09052 0.73735
 C352 C 1.10575 -0.10105 0.70736
 C353 C 1.09261 -0.07008 0.67446
 C354 C 1.09082 -0.08249 0.63344
 H355 H 1.09516 -0.13386 0.70389
 H356 H 1.08450 -0.03757 0.68374
 H357 H 1.14744 -0.05880 0.73549
 H358 H 1.10208 -0.11416 0.62465
 C359 C 0.29921 1.13103 1.12455
 C360 C 0.32792 1.15086 1.10013
 C361 C 0.36601 1.12842 1.08585
 C362 C 0.36578 1.08667 1.07536
 H363 H 0.32512 1.18439 1.09171
 H364 H 0.39384 1.14734 1.08097
 H365 H 0.30642 1.09891 1.13578
 H366 H 0.33691 1.06888 1.07614
 C367 C 0.30139 0.84888 0.88474
 C368 C 0.33319 0.86676 0.86338
 C369 C 0.37124 0.88148 0.88492
 C370 C 0.37020 0.89866 0.92439
 H371 H 0.33143 0.87112 0.82886
 H372 H 0.39942 0.88329 0.86584
 H373 H 0.30475 0.84045 0.91837
 H374 H 0.34102 0.90086 0.94173
 C375 C 0.70302 0.86940 1.12918
 C376 C 0.67665 0.89733 1.14782
 C377 C 0.63795 0.91091 1.12695
 C378 C 0.63777 0.92459 1.08619
 H379 H 0.68175 0.90903 1.18011
 H380 H 0.61029 0.91390 1.14670
 H381 H 0.69322 0.85379 1.09972
 H382 H 0.66659 0.92552 1.06804
 C383 C 0.68654 1.13196 0.85158
 C384 C 0.65775 1.14991 0.87726
 C385 C 0.62109 1.12564 0.89219
 C386 C 0.62401 1.08443 0.90412
 H387 H 0.65999 1.18303 0.88739
 H388 H 0.59271 1.14328 0.89836
 H389 H 0.67965 1.10053 0.83831
 H390 H 0.65374 1.06825 0.90261
 C391 C 0.13031 0.29231 0.11120
 C392 C 0.08944 0.29521 0.10383
 C393 C 0.06948 0.33110 0.08061
 C394 C 0.08502 0.37102 0.07817
 H395 H 0.06941 0.26874 0.11285
 H396 H 0.03917 0.32457 0.06729
 H397 H 0.15109 0.31650 0.09838
 H398 H 0.11391 0.37875 0.09390
 C399 C -0.14314 0.28660 -0.10983
 C400 C -0.10286 0.29010 -0.09997
 C401 C -0.08486 0.32656 -0.07589
 C402 C -0.10134 0.36615 -0.07483
 H403 H -0.08182 0.26427 -0.10829
 H404 H -0.05487 0.32102 -0.06140
 H405 H -0.16499 0.31020 -0.09780
 H406 H -0.12977 0.37292 -0.09184
 C407 C 0.11519 0.71162 -0.12914
 C408 C 0.07398 0.71116 -0.12325
 C409 C 0.05230 0.67510 -0.10192
 C410 C 0.06471 0.63416 -0.10549
 H411 H 0.05603 0.73980 -0.12973
 H412 H 0.02506 0.68284 -0.08287
 H413 H 0.13348 0.68466 -0.11805
 H414 H 0.08999 0.62590 -0.12708
 C415 C -0.12025 0.71774 0.13472
 C416 C -0.13997 0.68151 0.12366
 C417 C -0.11813 0.64252 0.10832
 C418 C -0.08194 0.64395 0.08692
 H419 H -0.17329 0.67940 0.12750
 H420 H -0.13428 0.61217 0.11161
 H421 H -0.08668 0.71826 0.13512
 H422 H -0.06749 0.67461 0.08004
 C423 C 1.13371 0.14251 0.70788
 C424 C 1.15332 0.12069 0.67646
 C425 C 1.13136 0.10621 0.63744
 C426 C 1.09258 0.09091 0.63944
 H427 H 1.18616 0.11414 0.67790
 H428 H 1.14870 0.10445 0.60753
 H429 H 1.10199 0.15231 0.70185
 H430 H 1.07691 0.08862 0.67032
 C431 C 0.88988 -0.11344 0.72073
 C432 C 0.88707 -0.07203 0.70904
 C433 C 0.91294 -0.05399 0.67408
 C434 C 0.92150 -0.07590 0.63795
 H435 H 0.86775 -0.04969 0.72664
 H436 H 0.92236 -0.02069 0.67684
 H437 H 0.91351 -0.13273 0.70492
 H438 H 0.90836 -0.10755 0.63309
 C439 C 1.12727 -0.12705 0.29293
 C440 C 1.14800 -0.11103 0.32659
 C441 C 1.12714 -0.09267 0.36496
 C442 C 1.09061 -0.07227 0.36312
 H443 H 1.18144 -0.11387 0.32760
 H444 H 1.14376 -0.09390 0.39511
 H445 H 1.09372 -0.12838 0.29408
 H446 H 1.07556 -0.06784 0.33239
 C447 C 0.87505 0.13913 0.29853
 C448 C 0.85765 0.11488 0.32954
 C449 C 0.88005 0.10328 0.36916
 C450 C 0.92037 0.09321 0.36824
 H451 H 0.82609 0.10357 0.32699
 H452 H 0.86201 0.09769 0.39816
 H453 H 0.90458 0.15419 0.30555
 H454 H 0.93727 0.09424 0.33799
 C455 C 0.11083 0.26221 -0.09076
 C456 C 0.08557 0.29236 -0.10661
 C457 C 0.06899 0.32683 -0.07923
 C458 C 0.06371 0.36588 -0.09595
 H459 H 0.08027 0.29502 -0.14084
 H460 H 0.06283 0.32086 -0.04541
 H461 H 0.11892 0.26432 -0.05697
 H462 H 0.07303 0.37193 -0.12901
 C463 C -0.11667 0.26144 0.09603
 C464 C -0.10584 0.29952 0.11226
 C465 C -0.08754 0.33316 0.08492
 C466 C -0.08594 0.37376 0.09872
 H467 H -0.11146 0.30643 0.14600
 H468 H -0.07571 0.32475 0.05327
 H469 H -0.11394 0.25588 0.06168
 H470 H -0.09966 0.38211 0.12956
 C471 C -0.13812 0.69951 -0.14367
 C472 C -0.15788 0.67115 -0.11824
 C473 C -0.13628 0.63361 -0.10020
 C474 C -0.09763 0.63665 -0.08504
 H475 H -0.19062 0.67389 -0.11127
 H476 H -0.15371 0.60414 -0.09608
 H477 H -0.10669 0.69172 -0.15364
 H478 H -0.08180 0.66738 -0.08546
 C479 C 0.12730 0.70467 0.12787
 C480 C 0.14490 0.67576 0.10131
 C481 C 0.12182 0.63860 0.08429
 C482 C 0.08266 0.64153 0.07052
 H483 H 0.17778 0.67638 0.09452
 H484 H 0.13866 0.60871 0.08046
 H485 H 0.09543 0.69903 0.13775
 H486 H 0.06709 0.67238 0.07051
 C487 C 0.29073 1.12186 0.88192
 C488 C 0.32450 1.11144 0.85879
 C489 C 0.36254 1.09416 0.87870
 C490 C 0.36179 1.07075 0.91488
 H491 H 0.32558 1.11805 0.82462
 H492 H 0.39161 1.09938 0.86185
 H493 H 0.29168 1.11938 0.91667
 H494 H 0.33245 1.06267 0.92996
 C495 C 0.29863 0.86284 1.12924
 C496 C 0.30411 0.90524 1.12430
 C497 C 0.33853 0.92433 1.09919
 C498 C 0.37639 0.90682 1.09558
 H499 H 0.28034 0.92715 1.13563
 H500 H 0.33270 0.95552 1.08500
 H501 H 0.31997 0.84067 1.11388
 H502 H 0.38376 0.87754 1.11271
 C503 C 0.72951 1.08604 1.12283
 C504 C 0.69765 1.10377 1.10213
 C505 C 0.66412 1.07738 1.08429
 C506 C 0.62681 1.09446 1.07732
 H507 H 0.69576 1.13843 1.09911
 H508 H 0.66978 1.04370 1.07745
 H509 H 0.72967 1.05176 1.12904
 H510 H 0.62053 1.12725 1.08716
 C511 C 0.70909 0.87551 0.87191
 C512 C 0.70413 0.91748 0.88015
 C513 C 0.66819 0.93500 0.90420
 C514 C 0.63065 0.91642 0.90520
 H515 H 0.72878 0.93978 0.87231
 H516 H 0.67283 0.96540 0.92045
 H517 H 0.68629 0.85282 0.88381
 H518 H 0.62473 0.88782 0.88639
   
