data_POSCAR
  _audit_creation_date              2014-09-24
  _audit_creation_method            'ToBaCCo'
  _symmetry_space_group_name_H-M    'P1'
  _symmetry_Int_Tables_number       1
  _symmetry_cell_setting            triclinic
  loop_
  _symmetry_equiv_pos_as_xyz
 x,y,z
_cell_length_a 12.3921
_cell_length_b 12.3829
_cell_length_c 22.2035
_cell_angle_alpha 91.395200
_cell_angle_beta 91.385700
_cell_angle_gamma 87.920800
loop_
  _atom_site_label
  _atom_site_type_symbol
  _atom_site_fract_x
  _atom_site_fract_y
  _atom_site_fract_z
O1 O 0.08322 0.60550 1.06236
 O2 O 0.09273 0.38896 0.94526
 O3 O 0.09519 0.60191 0.94460
 O4 O 0.08757 0.39730 1.06183
 O5 O -0.09057 0.40615 1.05714
 O6 O -0.08240 0.60434 0.93662
 O7 O -0.08530 0.39282 0.94040
 O8 O -0.09478 0.61562 1.05256
 Cu9 Cu 0.10768 0.49822 1.00367
 Cu10 Cu -0.10603 0.50514 0.99573
 C11 C -0.00771 0.64743 1.07712
 C12 C 0.00499 0.35180 0.92402
 C13 C 0.00768 0.63929 0.92082
 C14 C -0.00280 0.36741 1.07992
 O15 O 0.59687 0.08969 0.44180
 O16 O 0.39806 0.08120 0.56189
 O17 O 0.60905 0.08473 0.55867
 O18 O 0.38722 0.09355 0.44607
 O19 O 0.39734 -0.08462 0.43651
 O20 O 0.61395 -0.09344 0.55352
 O21 O 0.40152 -0.09676 0.55424
 O22 O 0.60584 -0.08839 0.43693
 Cu23 Cu 0.49740 0.10507 0.50297
 Cu24 Cu 0.50496 -0.10879 0.49505
 C25 C 0.63614 0.00204 0.41894
 C26 C 0.36397 -0.00915 0.57778
 C27 C 0.65026 -0.00549 0.57509
 C28 C 0.35519 0.00630 0.42177
 C29 C -0.01358 0.01323 0.25048
 C30 C 0.01288 -0.01350 0.75031
 C31 C -0.07275 -0.16964 0.10956
 C32 C -0.01254 -0.26407 0.12217
 C33 C 0.04052 -0.27364 0.17814
 C34 C 0.03584 -0.18792 0.22032
 C35 C -0.01434 -0.08671 0.20586
 C36 C -0.07400 -0.08269 0.15062
 H37 H -0.11729 -0.16220 0.06716
 H38 H 0.08330 -0.34838 0.18978
 H39 H 0.07158 -0.20179 0.26447
 H40 H -0.12264 -0.01298 0.13791
 C41 C -0.10441 0.25029 0.14728
 C42 C -0.00569 0.28524 0.12702
 C43 C 0.09029 0.23705 0.14994
 C44 C 0.08771 0.15360 0.19096
 C45 C -0.01108 0.11640 0.21167
 C46 C -0.10714 0.16704 0.18838
 H47 H -0.18009 0.28473 0.12985
 H48 H 0.16795 0.26158 0.13481
 H49 H 0.16429 0.11693 0.20463
 H50 H -0.18564 0.13822 0.19898
 C51 C 0.22817 0.08525 0.64397
 C52 C 0.27831 -0.01150 0.62316
 C53 C 0.24203 -0.10982 0.64392
 C54 C 0.15856 -0.11107 0.68528
 C55 C 0.11108 -0.01387 0.70856
 C56 C 0.14464 0.08395 0.68490
 H57 H 0.25184 0.16240 0.62762
 H58 H 0.27697 -0.18604 0.62749
 H59 H 0.13016 -0.18857 0.69822
 H60 H 0.10551 0.16031 0.69776
 C61 C -0.20767 -0.10600 0.63620
 C62 C -0.25800 -0.00770 0.61917
 C63 C -0.21733 0.08908 0.64307
 C64 C -0.13072 0.08750 0.68452
 C65 C -0.08452 -0.01106 0.70526
 C66 C -0.12089 -0.10752 0.67762
 H67 H -0.23470 -0.18196 0.61715
 H68 H -0.25187 0.16650 0.62941
 H69 H -0.10004 0.16409 0.70028
 H70 H -0.08255 -0.18478 0.68840
 C71 C -0.08684 -0.23453 0.85311
 C72 C 0.00991 -0.27928 0.87774
 C73 C 0.10811 -0.23724 0.86015
 C74 C 0.10925 -0.15371 0.81881
 C75 C 0.01265 -0.11188 0.79197
 C76 C -0.08549 -0.15106 0.81208
 H77 H -0.16449 -0.26218 0.86645
 H78 H 0.18445 -0.26734 0.87907
 H79 H 0.18619 -0.12094 0.80838
 H80 H -0.16228 -0.11618 0.79670
 C81 C 0.10604 0.21359 0.86049
 C82 C 0.00752 0.25915 0.88047
 C83 C -0.08886 0.21273 0.86013
 C84 C -0.08693 0.12520 0.81925
 C85 C 0.01115 0.08408 0.79530
 C86 C 0.10790 0.12615 0.81945
 H87 H 0.18200 0.24506 0.87683
 H88 H -0.16615 0.24342 0.87620
 H89 H -0.16287 0.09018 0.80595
 H90 H 0.18565 0.09171 0.80648
 C91 C -0.23812 -0.09098 0.35046
 C92 C -0.28537 0.00503 0.37448
 C93 C -0.24903 0.10397 0.35478
 C94 C -0.16583 0.10673 0.31369
 C95 C -0.11632 0.01073 0.28962
 C96 C -0.15465 -0.08817 0.30948
 H97 H -0.26326 -0.16916 0.36458
 H98 H -0.28229 0.18003 0.37253
 H99 H -0.13632 0.18522 0.30354
 H100 H -0.11901 -0.16484 0.29506
 C101 C 0.17174 0.07117 0.39052
 C102 C 0.26585 0.01095 0.37727
 C103 C 0.27418 -0.04222 0.32126
 C104 C 0.18769 -0.03739 0.27962
 C105 C 0.08694 0.01313 0.29466
 C106 C 0.08405 0.07257 0.35001
 H107 H 0.16519 0.11568 0.43298
 H108 H 0.34858 -0.08508 0.30913
 H109 H 0.20073 -0.07305 0.23536
 H110 H 0.01474 0.12129 0.36322
   
