data_POSCAR
  _audit_creation_date              2014-09-24
  _audit_creation_method            'ToBaCCo'
  _symmetry_space_group_name_H-M    'P1'
  _symmetry_Int_Tables_number       1
  _symmetry_cell_setting            triclinic
  loop_
  _symmetry_equiv_pos_as_xyz
 x,y,z
_cell_length_a 22.1699
_cell_length_b 21.1110
_cell_length_c 51.4621
_cell_angle_alpha 86.013600
_cell_angle_beta 100.488600
_cell_angle_gamma 118.005500
loop_
  _atom_site_label
  _atom_site_type_symbol
  _atom_site_fract_x
  _atom_site_fract_y
  _atom_site_fract_z
C1 C 0.05383 0.14081 0.50976
 C2 C -0.00933 0.09879 0.48815
 C3 C -0.00068 0.05318 0.47332
 C4 C 0.07081 0.05523 0.48103
 C5 C 0.06650 0.08257 0.52534
 C6 C 0.07489 0.03766 0.51046
 C7 C 0.11431 0.17870 0.49456
 C8 C 0.12402 0.13475 0.47960
 H9 H -0.05811 0.10007 0.48592
 H10 H 0.07836 0.01888 0.46893
 H11 H 0.06097 0.07255 0.54594
 H12 H 0.14764 0.23607 0.49623
 C13 C 0.99649 -0.13369 0.18953
 C14 C 1.03384 -0.14851 0.17031
 C15 C 1.06574 -0.09237 0.15445
 C16 C 1.05672 -0.02613 0.15913
 C17 C 1.04823 -0.06818 0.20370
 C18 C 1.08285 -0.00880 0.18732
 C19 C 0.94673 -0.11041 0.17195
 C20 C 0.97752 -0.05513 0.15565
 H21 H 1.03713 -0.19807 0.17016
 H22 H 1.08145 0.01776 0.14547
 H23 H 1.05363 -0.06222 0.22484
 H24 H 0.89249 -0.13232 0.17332
 C25 C -0.05340 0.97214 0.86433
 C26 C -0.04725 1.03788 0.84767
 C27 C -0.10088 1.02244 0.82698
 C28 C -0.15537 0.94260 0.82482
 C29 C -0.12476 0.94225 0.87247
 C30 C -0.17802 0.92657 0.85201
 C31 C -0.06114 0.91739 0.84451
 C32 C -0.11338 0.90224 0.82367
 H33 H -0.00767 1.09219 0.85291
 H34 H -0.19896 0.92897 0.80805
 H35 H -0.13128 0.94372 0.89276
 H36 H -0.02657 0.89360 0.84672
 O37 O 0.57251 0.08326 -0.02152
 O38 O 0.48915 0.07699 0.03491
 O39 O 0.59439 0.05636 0.02888
 O40 O 0.46947 0.10408 -0.01499
 O41 O 0.39880 -0.01151 -0.02255
 O42 O 0.52183 -0.05808 0.02030
 O43 O 0.41797 -0.03797 0.02659
 O44 O 0.50175 -0.03177 -0.02985
 Cu45 Cu 0.53899 0.09169 0.00776
 Cu46 Cu 0.45340 -0.04636 -0.00221
 C47 C 0.55125 0.02705 -0.03544
 C48 C 0.43792 0.01890 0.03995
 C49 C 0.57907 -0.00950 0.03198
 C50 C 0.41201 0.05357 -0.02577
 O51 O 0.00202 0.48108 0.64010
 O52 O 0.01485 0.60894 0.68829
 O53 O 0.02045 0.48806 0.69123
 O54 O 0.00605 0.60560 0.63743
 O55 O -0.10766 0.55208 0.63472
 O56 O -0.09326 0.43057 0.68816
 O57 O -0.09872 0.55268 0.68582
 O58 O -0.11191 0.42635 0.63642
 Cu59 Cu 0.02212 0.55135 0.66465
 Cu60 Cu -0.11435 0.48469 0.66106
 C61 C -0.05709 0.43228 0.62978
 C62 C -0.03972 0.60316 0.69520
 C63 C -0.03345 0.43867 0.69877
 C64 C -0.05282 0.59955 0.62693
 O65 O 0.53443 0.37864 0.32348
 O66 O 0.66796 0.52975 0.36495
 O67 O 0.54546 0.42419 0.36964
 O68 O 0.65323 0.48629 0.31666
 O69 O 0.59884 0.54881 0.30023
 O70 O 0.49889 0.49433 0.35402
 O71 O 0.62059 0.59845 0.34853
 O72 O 0.48127 0.44273 0.30758
 Cu73 Cu 0.60609 0.44877 0.34532
 Cu74 Cu 0.54547 0.52833 0.32598
 C75 C 0.48391 0.38360 0.30918
 C76 C 0.66770 0.58978 0.36413
 C77 C 0.50275 0.44815 0.37042
 C78 C 0.64247 0.52681 0.29901
 C79 C -0.00946 0.19560 0.53061
 C80 C -0.00817 0.24172 0.54947
 C81 C 0.05491 0.28542 0.56610
 C82 C 0.11508 0.28168 0.56408
 C83 C 0.11313 0.23503 0.54582
 C84 C 0.05151 0.19214 0.52850
 C85 C 0.05699 0.33157 0.58485
 C86 C -0.00342 0.33407 0.58762
 C87 C -0.06699 0.28987 0.57142
 C88 C -0.06894 0.24425 0.55227
 C89 C -0.12741 0.29205 0.57480
 C90 C -0.12464 0.33771 0.59397
 C91 C -0.06131 0.38241 0.60989
 C92 C -0.00096 0.38007 0.60654
 H93 H -0.05814 0.16189 0.51829
 H94 H 0.16361 0.31415 0.57691
 H95 H 0.16038 0.23209 0.54528
 H96 H 0.10562 0.36514 0.59746
 H97 H -0.11762 0.21049 0.53975
 H98 H -0.17673 0.25847 0.56264
 H99 H -0.17191 0.33863 0.59613
 H100 H 0.04814 0.41384 0.61882
 C101 C 0.89195 0.75285 0.20120
 C102 C 0.85826 0.70323 0.21988
 C103 C 0.89637 0.69990 0.24466
 C104 C 0.96835 0.74333 0.24962
 C105 C 1.00120 0.79397 0.23116
 C106 C 0.96264 0.80289 0.20748
 C107 C 0.86157 0.65559 0.26437
 C108 C 0.78886 0.61708 0.25990
 C109 C 0.75119 0.61870 0.23470
 C110 C 0.78627 0.66019 0.21468
 C111 C 0.67865 0.58249 0.23039
 C112 C 0.64355 0.54936 0.25128
 C113 C 0.68026 0.54979 0.27660
 C114 C 0.75289 0.58101 0.28064
 H115 H 0.86198 0.75407 0.18225
 H116 H 0.99887 0.74024 0.26821
 H117 H 1.05659 0.82823 0.23593
 H118 H 0.89068 0.65438 0.28361
 H119 H 0.75706 0.66267 0.19562
 H120 H 0.64906 0.58304 0.21121
 H121 H 0.58747 0.52526 0.24790
 H122 H 0.78125 0.58215 0.30028
 C123 C 0.07315 0.03699 -0.11210
 C124 C 0.12736 0.03707 -0.09293
 C125 C 0.11240 -0.01824 -0.07417
 C126 C 0.04416 -0.07122 -0.07430
 C127 C -0.00888 -0.07152 -0.09348
 C128 C 0.00438 -0.01769 -0.11264
 C129 C 0.16608 -0.02198 -0.05626
 C130 C 0.23496 0.02812 -0.05704
 C131 C 0.25067 0.08522 -0.07499
 C132 C 0.19656 0.08957 -0.09283
 C133 C 0.32038 0.13557 -0.07515
 C134 C 0.37377 0.12750 -0.05841
 C135 C 0.35793 0.06859 -0.04160
 C136 C 0.28844 0.02021 -0.04061
 H137 H 0.08539 0.07722 -0.12723
 H138 H 0.03209 -0.11421 -0.06017
 H139 H -0.06034 -0.11601 -0.09392
 H140 H 0.15436 -0.06544 -0.04230
 H141 H 0.20841 0.13238 -0.10705
 H142 H 0.33359 0.18012 -0.08860
 H143 H 0.42723 0.16556 -0.05930
 H144 H 0.27598 -0.02469 -0.02729
 C145 C 0.00705 0.92022 0.52997
 C146 C 0.00302 0.85922 0.54377
 C147 C 0.06096 0.84602 0.54829
 C148 C 0.12063 0.89235 0.53771
 C149 C 0.12421 0.95338 0.52404
 C150 C 0.06827 0.96853 0.52087
 C151 C 0.05916 0.78852 0.56413
 C152 C 0.00059 0.74491 0.57575
 C153 C -0.05835 0.75638 0.57022
 C154 C -0.05693 0.81317 0.55410
 C155 C -0.11693 0.71234 0.58168
 C156 C -0.11614 0.65938 0.59939
 C157 C -0.05670 0.64976 0.60599
 C158 C 0.00093 0.69164 0.59356
 H159 H -0.03637 0.93194 0.52722
 H160 H 0.16528 0.88270 0.54079
 H161 H 0.17155 0.99033 0.51696
 H162 H 0.10415 0.77931 0.56818
 H163 H -0.10150 0.82309 0.55039
 H164 H -0.16269 0.72011 0.57749
 H165 H -0.16121 0.62765 0.60862
 H166 H 0.04681 0.68410 0.59827
 C167 C 0.17501 0.06037 0.22358
 C168 C 0.22849 0.12500 0.23501
 C169 C 0.24572 0.18953 0.22112
 C170 C 0.20980 0.18744 0.19549
 C171 C 0.15691 0.12223 0.18394
 C172 C 0.13758 0.05767 0.19803
 C173 C 0.29870 0.25458 0.23306
 C174 C 0.33535 0.25508 0.25851
 C175 C 0.31875 0.18953 0.27189
 C176 C 0.26523 0.12534 0.26020
 C177 C 0.35615 0.18881 0.29680
 C178 C 0.40993 0.25234 0.30847
 C179 C 0.42663 0.31807 0.29574
 C180 C 0.38879 0.31951 0.27079
 H181 H 0.16479 0.01173 0.23454
 H182 H 0.22242 0.23630 0.18438
 H183 H 0.12988 0.12381 0.16441
 H184 H 0.31169 0.30441 0.22254
 H185 H 0.25237 0.07543 0.27069
 H186 H 0.34407 0.13899 0.30721
 H187 H 0.43808 0.25021 0.32779
 H188 H 0.40187 0.37010 0.26082
 C189 C 0.75384 -0.01775 -0.13690
 C190 C 0.70333 -0.02164 -0.12308
 C191 C 0.65261 -0.08933 -0.11612
 C192 C 0.65158 -0.15205 -0.12425
 C193 C 0.70394 -0.14743 -0.13710
 C194 C 0.75627 -0.08027 -0.14276
 C195 C 0.60712 -0.09298 -0.09963
 C196 C 0.61395 -0.02983 -0.08910
 C197 C 0.66340 0.03769 -0.09677
 C198 C 0.70663 0.04132 -0.11419
 C199 C 0.67137 0.10064 -0.08584
 C200 C 0.63340 0.09692 -0.06643
 C201 C 0.58590 0.03021 -0.05787
 C202 C 0.57483 -0.03307 -0.06994
 H203 H 0.79541 0.03415 -0.14076
 H204 H 0.61313 -0.20437 -0.11912
 H205 H 0.70613 -0.19593 -0.14113
 H206 H 0.56932 -0.14481 -0.09375
 H207 H 0.74568 0.09317 -0.11951
 H208 H 0.70879 0.15278 -0.09161
 H209 H 0.64232 0.14647 -0.05772
 H210 H 0.53831 -0.08484 -0.06353
 C211 C 0.17185 -0.03364 0.13328
 C212 C 0.21368 -0.03580 0.11623
 C213 C 0.19128 -0.09887 0.10118
 C214 C 0.12783 -0.15876 0.10360
 C215 C 0.08696 -0.15642 0.12083
 C216 C 0.10847 -0.09397 0.13576
 C217 C 0.23255 -0.10111 0.08395
 C218 C 0.29604 -0.04112 0.08155
 C219 C 0.31887 0.02168 0.09680
 C220 C 0.27760 0.02394 0.11406
 C221 C 0.38228 0.08154 0.09426
 C222 C 0.42195 0.07989 0.07633
 C223 C 0.39922 0.01821 0.06071
 C224 C 0.33650 -0.04256 0.06377
 H225 H 0.18934 0.01437 0.14505
 H226 H 0.10986 -0.20749 0.09222
 H227 H 0.03809 -0.20334 0.12231
 H228 H 0.21506 -0.14936 0.07230
 H229 H 0.29498 0.07226 0.12565
 H230 H 0.40070 0.13006 0.10583
 H231 H 0.46997 0.12747 0.07439
 H232 H 0.31808 -0.09041 0.05178
 C233 C 0.93745 0.93001 0.45323
 C234 C 0.88466 0.87728 0.43563
 C235 C 0.83478 0.89231 0.41911
 C236 C 0.83896 0.96049 0.42065
 C237 C 0.89220 1.01310 0.43826
 C238 C 0.94222 0.99845 0.45457
 C239 C 0.78180 0.83892 0.40148
 C240 C 0.77846 0.77090 0.40022
 C241 C 0.82890 0.75671 0.41686
 C242 C 0.88133 0.80971 0.43442
 C243 C 0.82632 0.68952 0.41577
 C244 C 0.77418 0.63632 0.39848
 C245 C 0.72312 0.64882 0.38183
 C246 C 0.72568 0.71666 0.38274
 H247 H 0.97424 0.91699 0.46621
 H248 H 0.80125 0.97320 0.40819
 H249 H 0.89477 1.06548 0.43889
 H250 H 0.74337 0.85025 0.38880
 H251 H 0.91974 0.79837 0.44715
 H252 H 0.86466 0.67795 0.42838
 H253 H 0.77387 0.58490 0.39830
 H254 H 0.68673 0.72710 0.37005
 C255 C -0.05045 0.13684 0.80182
 C256 C -0.05846 0.18706 0.78405
 C257 C -0.12562 0.17819 0.77365
 C258 C -0.18350 0.11991 0.78153
 C259 C -0.17511 0.07014 0.79914
 C260 C -0.10872 0.07755 0.80925
 C261 C -0.13393 0.22720 0.75535
 C262 C -0.07590 0.28485 0.74718
 C263 C -0.00871 0.29415 0.75786
 C264 C -0.00041 0.24538 0.77624
 C265 C 0.04921 0.35170 0.74974
 C266 C 0.04081 0.39897 0.73089
 C267 C -0.02570 0.38985 0.71973
 C268 C -0.08396 0.33283 0.72822
 H269 H 0.00099 0.14292 0.80930
 H270 H -0.23533 0.11254 0.77395
 H271 H -0.22086 0.02603 0.80497
 H272 H -0.18552 0.21998 0.74726
 H273 H 0.05117 0.25237 0.78424
 H274 H 0.10106 0.35976 0.75777
 H275 H 0.08669 0.44240 0.72482
 H276 H -0.13552 0.32513 0.71983
 C277 C 0.86948 -0.07688 0.12423
 C278 C 0.82717 -0.05281 0.10773
 C279 C 0.85223 0.02115 0.10270
 C280 C 0.92021 0.06960 0.11412
 C281 C 0.96204 0.04503 0.13085
 C282 C 0.93654 -0.02828 0.13642
 C283 C 0.80862 0.04511 0.08663
 C284 C 0.74030 -0.00421 0.07573
 C285 C 0.71617 -0.07821 0.08077
 C286 C 0.75969 -0.10193 0.09659
 C287 C 0.64853 -0.12775 0.07004
 C288 C 0.60471 -0.10467 0.05440
 C289 C 0.62731 -0.03142 0.04912
 C290 C 0.69548 0.01882 0.05993
 H291 H 0.84973 -0.13384 0.12780
 H292 H 0.94059 0.12654 0.11048
 H293 H 1.01339 0.08358 0.14002
 H294 H 0.82755 0.10188 0.08282
 H295 H 0.74070 -0.15871 0.10049
 H296 H 0.62940 -0.18457 0.07376
 H297 H 0.55267 -0.14465 0.04645
 H298 H 0.71368 0.07539 0.05595
 C299 C 0.20653 0.23300 0.45425
 C300 C 0.26352 0.26240 0.44110
 C301 C 0.29479 0.22040 0.43638
 C302 C 0.26853 0.14955 0.44534
 C303 C 0.21246 0.12108 0.45909
 C304 C 0.18113 0.16267 0.46384
 C305 C 0.35144 0.25002 0.42278
 C306 C 0.37706 0.32117 0.41399
 C307 C 0.34610 0.36313 0.41930
 C308 C 0.28966 0.33350 0.43274
 C309 C 0.37106 0.43385 0.41060
 C310 C 0.42436 0.46216 0.39577
 C311 C 0.45434 0.42066 0.38957
 C312 C 0.43170 0.35061 0.39933
 H313 H 0.18201 0.26541 0.45695
 H314 H 0.29191 0.11647 0.44203
 H315 H 0.19488 0.06715 0.46650
 H316 H 0.37508 0.21766 0.41884
 H317 H 0.26573 0.36573 0.43654
 H318 H 0.34811 0.46672 0.41466
 H319 H 0.44110 0.51627 0.38856
 H320 H 0.45407 0.31798 0.39441
 C321 C -0.06497 0.85778 0.79343
 C322 C -0.07238 0.80913 0.77449
 C323 C -0.13928 0.75804 0.76264
 C324 C -0.19771 0.75789 0.76971
 C325 C -0.18973 0.80633 0.78898
 C326 C -0.12329 0.85552 0.80140
 C327 C -0.14635 0.70755 0.74431
 C328 C -0.08724 0.70744 0.73799
 C329 C -0.02051 0.75938 0.74978
 C330 C -0.01356 0.81001 0.76778
 C331 C 0.03850 0.75958 0.74358
 C332 C 0.03184 0.70862 0.72594
 C333 C -0.03397 0.65629 0.71412
 C334 C -0.09351 0.65610 0.72023
 H335 H -0.01336 0.89689 0.80234
 H336 H -0.24948 0.71936 0.76077
 H337 H -0.23539 0.80367 0.79481
 H338 H -0.19762 0.66794 0.73528
 H339 H 0.03772 0.84943 0.77693
 H340 H 0.08992 0.79909 0.75246
 H341 H 0.07852 0.71020 0.72160
 H342 H -0.14458 0.61627 0.71116
   
