data_POSCAR
  _audit_creation_date              2014-09-24
  _audit_creation_method            'ToBaCCo'
  _symmetry_space_group_name_H-M    'P1'
  _symmetry_Int_Tables_number       1
  _symmetry_cell_setting            triclinic
  loop_
  _symmetry_equiv_pos_as_xyz
 x,y,z
_cell_length_a 44.7533
_cell_length_b 44.7675
_cell_length_c 44.7942
_cell_angle_alpha 76.134500
_cell_angle_beta 105.272900
_cell_angle_gamma 74.690400
loop_
  _atom_site_label
  _atom_site_type_symbol
  _atom_site_fract_x
  _atom_site_fract_y
  _atom_site_fract_z
O1 O 0.55351 0.49089 0.02891
 O2 O 0.46803 0.50257 0.02560
 O3 O 0.51725 0.45382 0.02901
 O4 O 0.50433 0.53960 0.02517
 O5 O 0.48734 0.55517 -0.02887
 O6 O 0.50046 0.46951 -0.02502
 O7 O 0.45110 0.51808 -0.02838
 O8 O 0.53664 0.50661 -0.02513
 Cu9 Cu 0.51244 0.49514 0.03258
 Cu10 Cu 0.49216 0.51388 -0.03226
 C11 C 0.55969 0.49707 0.00245
 C12 C 0.44486 0.51213 -0.00191
 C13 C 0.51093 0.44700 0.00260
 C14 C 0.49394 0.56203 -0.00251
 O15 O -0.01582 0.53662 0.50141
 O16 O -0.01331 0.45188 0.51155
 O17 O -0.01270 0.48820 0.54909
 O18 O -0.01585 0.50002 0.46393
 O19 O 0.03862 0.48279 0.48098
 O20 O 0.04177 0.47082 0.56608
 O21 O 0.04116 0.43446 0.52848
 O22 O 0.03860 0.51941 0.51848
 Cu23 Cu -0.01986 0.49593 0.50477
 Cu24 Cu 0.04549 0.47516 0.52517
 C25 C 0.01093 0.54261 0.50849
 C26 C 0.01430 0.42866 0.52159
 C27 C 0.01508 0.47762 0.57216
 C28 C 0.01089 0.49317 0.45791
 O29 O 0.48167 0.03712 0.51880
 O30 O 0.47039 0.04040 0.43352
 O31 O 0.43317 0.04032 0.46965
 O32 O 0.51912 0.03661 0.48282
 O33 O 0.53580 -0.01747 0.49880
 O34 O 0.45003 -0.01376 0.48540
 O35 O 0.48725 -0.01368 0.44936
 O36 O 0.49830 -0.01690 0.53471
 Cu37 Cu 0.47443 0.04402 0.47462
 Cu38 Cu 0.49453 -0.02086 0.49366
 C39 C 0.49160 0.00960 0.54141
 C40 C 0.47711 0.01392 0.42684
 C41 C 0.42693 0.01385 0.47549
 C42 C 0.54215 0.00891 0.49282
 C43 C 0.49356 -0.00131 -0.00123
 C44 C 0.49726 0.02186 -0.02452
 C45 C 0.49728 0.01817 -0.05663
 C46 C 0.50130 0.05226 -0.01919
 C47 C 0.49058 0.00367 0.02964
 C48 C 0.49250 -0.03307 -0.00514
 C49 C 0.52354 0.02103 -0.06723
 C50 C 0.52372 0.01817 -0.09756
 C51 C 0.49748 0.01264 -0.11804
 C52 C 0.47103 0.01007 -0.10748
 C53 C 0.47088 0.01293 -0.07711
 C54 C 0.52678 0.05081 0.00791
 C55 C 0.53015 0.07968 0.01261
 C56 C 0.50823 0.11050 -0.00983
 C57 C 0.48310 0.11180 -0.03721
 C58 C 0.47977 0.08296 -0.04189
 C59 C 0.46571 0.03083 0.02905
 C60 C 0.46278 0.03465 0.05836
 C61 C 0.48457 0.01128 0.08876
 C62 C 0.50928 -0.01596 0.08919
 C63 C 0.51216 -0.01977 0.05993
 C64 C 0.46602 -0.04302 -0.00178
 C65 C 0.46516 -0.07330 -0.00423
 C66 C 0.49093 -0.09437 -0.00984
 C67 C 0.51752 -0.08438 -0.01314
 C68 C 0.51835 -0.05404 -0.01069
 H69 H 0.54399 0.02538 -0.05193
 H70 H 0.54416 0.02084 -0.10522
 H71 H 0.45056 0.00562 -0.12261
 H72 H 0.45008 0.01123 -0.06964
 H73 H 0.54400 0.02732 0.02541
 H74 H 0.54965 0.07791 0.03400
 H75 H 0.46016 0.08456 -0.06311
 H76 H 0.44846 0.04891 0.00590
 H77 H 0.44362 0.05597 0.05725
 H78 H 0.52605 -0.03468 0.11217
 H79 H 0.53130 -0.04105 0.06089
 H80 H 0.44600 -0.02731 0.00282
 H81 H 0.44464 -0.08053 -0.00103
 H82 H 0.53762 -0.10000 -0.01767
 H83 H 0.53929 -0.04705 -0.01280
 H84 H 0.46621 0.13514 -0.05523
 C85 C -0.00240 0.49246 0.99951
 C86 C 0.02112 0.49658 1.02292
 C87 C 0.05158 0.50046 1.01790
 C88 C 0.01781 0.49706 1.05496
 C89 C -0.03421 0.49151 1.00317
 C90 C 0.00227 0.48874 0.96880
 C91 C 0.08261 0.47948 1.04091
 C92 C 0.11151 0.48270 1.03657
 C93 C 0.10996 0.50716 1.00922
 C94 C 0.07881 0.52852 0.98644
 C95 C 0.04987 0.52526 0.99080
 C96 C 0.01294 0.47091 1.07522
 C97 C 0.01038 0.47148 1.10552
 C98 C 0.01291 0.49809 1.11624
 C99 C 0.01808 0.52407 1.09598
 C100 C 0.02064 0.52347 1.06571
 C101 C -0.05522 0.51745 1.00861
 C102 C -0.08576 0.51682 1.01050
 C103 C -0.09596 0.49040 1.00664
 C104 C -0.07477 0.46445 1.00133
 C105 C -0.04428 0.46507 0.99950
 C106 C -0.02184 0.50933 0.93842
 C107 C -0.01855 0.50546 0.90932
 C108 C 0.00886 0.48075 0.91002
 C109 C 0.03306 0.46015 0.94050
 C110 C 0.02969 0.46398 0.96966
 H111 H 0.08444 0.46039 1.06213
 H112 H 0.13511 0.46626 1.05485
 H113 H 0.07683 0.54750 0.96506
 H114 H 0.02614 0.54206 0.97304
 H115 H 0.01128 0.45001 1.06762
 H116 H 0.00619 0.45121 1.12048
 H117 H 0.02472 0.54372 1.05057
 H118 H -0.04820 0.53841 1.01083
 H119 H -0.10175 0.53740 1.01413
 H120 H -0.08172 0.44356 0.99871
 H121 H -0.02845 0.44487 0.99521
 H122 H -0.04321 0.52852 0.93725
 H123 H -0.03735 0.52200 0.88621
 H124 H 0.05420 0.44061 0.94181
 H125 H 0.04822 0.44738 0.99290
 H126 H 0.02070 0.54462 1.10379
 C127 C 0.00684 -0.01795 0.49964
 C128 C -0.01626 0.00498 0.50482
 C129 C -0.04801 0.00123 0.50595
 C130 C -0.01126 0.03545 0.50910
 C131 C 0.03673 -0.01222 0.49479
 C132 C 0.00386 -0.05011 0.49901
 C133 C -0.06917 -0.00397 0.47996
 C134 C -0.09983 -0.00552 0.48051
 C135 C -0.11002 -0.00158 0.50691
 C136 C -0.08863 0.00337 0.53297
 C137 C -0.05801 0.00488 0.53242
 C138 C -0.03530 0.06613 0.48917
 C139 C -0.03115 0.09498 0.49305
 C140 C -0.00293 0.09373 0.51712
 C141 C 0.02104 0.06294 0.53725
 C142 C 0.01681 0.03405 0.53341
 C143 C 0.06818 -0.03494 0.51497
 C144 C 0.09650 -0.02987 0.51084
 C145 C 0.09393 -0.00206 0.48624
 C146 C 0.06235 0.02042 0.46568
 C147 C 0.03399 0.01533 0.46985
 C148 C -0.00039 -0.07090 0.52526
 C149 C -0.00142 -0.10181 0.52507
 C150 C 0.00211 -0.11264 0.49876
 C151 C 0.00621 -0.09166 0.47248
 C152 C 0.00719 -0.06079 0.47267
 H153 H -0.06224 -0.00613 0.45895
 H154 H -0.11596 -0.00886 0.45983
 H155 H -0.09556 0.00605 0.55385
 H156 H -0.04208 0.00900 0.55266
 H157 H -0.05717 0.06774 0.47033
 H158 H -0.04985 0.11831 0.47689
 H159 H 0.03533 0.01059 0.54953
 H160 H 0.07078 -0.05650 0.53415
 H161 H 0.12045 -0.04792 0.52667
 H162 H 0.05958 0.04215 0.44663
 H163 H 0.00990 0.03287 0.45367
 H164 H -0.00227 -0.06345 0.54618
 H165 H -0.00409 -0.11759 0.54591
 H166 H 0.00856 -0.09909 0.45167
 H167 H 0.01058 -0.04517 0.45223
 H168 H 0.04278 0.06117 0.55633
 C169 C -0.36702 0.49964 0.97589
 C170 C -0.34181 0.49035 1.00614
 C171 C -0.34857 0.48237 1.03521
 C172 C -0.38052 0.48404 1.03407
 C173 C -0.40615 0.49376 1.00375
 C174 C -0.39898 0.50132 0.97467
 C175 C -0.30920 0.48969 1.00727
 C176 C -0.28201 0.48946 1.00803
 C177 C -0.25033 0.48945 1.00862
 C178 C -0.22338 0.48955 1.00878
 C179 C -0.19134 0.48967 1.00850
 C180 C -0.17231 0.50044 1.03087
 C181 C -0.14127 0.50072 1.03033
 C182 C -0.12887 0.49017 1.00740
 C183 C -0.14823 0.47943 0.98502
 C184 C -0.17923 0.47919 0.98559
 H185 H -0.36204 0.50588 0.95323
 H186 H -0.32924 0.47517 1.05876
 H187 H -0.38520 0.47808 1.05689
 H188 H -0.41814 0.50892 0.95095
 H189 H -0.18145 0.50858 1.04873
 H190 H -0.12680 0.50880 1.04808
 H191 H -0.13962 0.47164 0.96674
 H192 H -0.19381 0.47095 0.96806
 C193 C 0.37319 0.51092 1.02523
 C194 C 0.34778 0.52025 0.99516
 C195 C 0.35439 0.52775 0.96596
 C196 C 0.38639 0.52554 0.96682
 C197 C 0.41238 0.51566 0.99702
 C198 C 0.40521 0.50867 1.02622
 C199 C 0.31523 0.52106 0.99446
 C200 C 0.28830 0.52101 0.99443
 C201 C 0.25717 0.52011 0.99505
 C202 C 0.23096 0.51864 0.99617
 C203 C 0.20015 0.51603 0.99826
 C204 C 0.19754 0.48503 1.00838
 C205 C 0.16811 0.48218 1.01158
 C206 C 0.14082 0.51035 1.00472
 C207 C 0.14351 0.54146 0.99414
 C208 C 0.17303 0.54425 0.99099
 H209 H 0.36835 0.50502 1.04800
 H210 H 0.33488 0.53496 0.94253
 H211 H 0.39076 0.53120 0.94379
 H212 H 0.42436 0.50105 1.04996
 H213 H 0.21835 0.46302 1.01401
 H214 H 0.16664 0.45792 1.01931
 H215 H 0.12306 0.56357 0.98901
 H216 H 0.17482 0.56838 0.98324
 C217 C 0.03810 -0.38606 0.51235
 C218 C 0.00768 -0.36076 0.50227
 C219 C -0.02165 -0.36739 0.49353
 C220 C -0.02063 -0.39924 0.49517
 C221 C 0.00987 -0.42511 0.50569
 C222 C 0.03925 -0.41798 0.51404
 C223 C 0.00655 -0.32810 0.50139
 C224 C 0.00557 -0.30079 0.50087
 C225 C 0.00449 -0.26886 0.50041
 C226 C 0.00373 -0.24165 0.50008
 C227 C 0.00311 -0.20922 0.49966
 C228 C -0.01927 -0.19036 0.51052
 C229 C -0.01968 -0.15893 0.51024
 C230 C 0.00231 -0.14595 0.49903
 C231 C 0.02472 -0.16514 0.48818
 C232 C 0.02509 -0.19654 0.48851
 H233 H 0.06098 -0.38119 0.51916
 H234 H -0.04535 -0.34797 0.48567
 H235 H -0.04382 -0.40356 0.48848
 H236 H 0.06321 -0.43706 0.52220
 H237 H -0.03644 -0.19991 0.51916
 H238 H -0.03744 -0.14463 0.51841
 H239 H 0.04230 -0.15608 0.47989
 H240 H 0.04261 -0.21097 0.48018
 C241 C -0.01410 0.35634 0.51926
 C242 C 0.01599 0.33070 0.52890
 C243 C 0.04566 0.33691 0.53683
 C244 C 0.04521 0.36872 0.53484
 C245 C 0.01503 0.39473 0.52484
 C246 C -0.01461 0.38812 0.51725
 C247 C 0.01617 0.29828 0.52986
 C248 C 0.01560 0.27145 0.53006
 C249 C 0.01408 0.24045 0.52962
 C250 C 0.01206 0.21434 0.52868
 C251 C 0.00875 0.18362 0.52691
 C252 C 0.03600 0.15771 0.52948
 C253 C 0.03235 0.12830 0.52667
 C254 C 0.00133 0.12451 0.52113
 C255 C -0.02580 0.15059 0.51892
 C256 C -0.02209 0.17991 0.52178
 H257 H -0.03721 0.35183 0.51303
 H258 H 0.06909 0.31725 0.54427
 H259 H 0.06845 0.37298 0.54084
 H260 H -0.03826 0.40756 0.50947
 H261 H 0.05996 0.16036 0.53332
 H262 H 0.05360 0.10881 0.52812
 H263 H -0.04988 0.14825 0.51514
 H264 H -0.04334 0.19978 0.51979
 C265 C 0.48846 0.03680 -0.38673
 C266 C 0.49819 0.00669 -0.36196
 C267 C 0.50659 -0.02253 -0.36907
 C268 C 0.50489 -0.02167 -0.40091
 C269 C 0.49465 0.00855 -0.42625
 C270 C 0.48672 0.03778 -0.41859
 C271 C 0.49888 0.00593 -0.32946
 C272 C 0.49905 0.00564 -0.30242
 C273 C 0.49891 0.00570 -0.27095
 C274 C 0.49861 0.00609 -0.24421
 C275 C 0.49814 0.00694 -0.21239
 C276 C 0.46872 0.02365 -0.20895
 C277 C 0.46838 0.02522 -0.17823
 C278 C 0.49755 0.01012 -0.15050
 C279 C 0.52694 -0.00688 -0.15418
 C280 C 0.52720 -0.00844 -0.18492
 H281 H 0.48192 0.05958 -0.38149
 H282 H 0.51416 -0.04598 -0.35006
 H283 H 0.51126 -0.04472 -0.40567
 H284 H 0.47879 0.06154 -0.43723
 H285 H 0.44609 0.03574 -0.23008
 H286 H 0.44548 0.03884 -0.17629
 H287 H 0.54969 -0.01912 -0.13324
 H288 H 0.55010 -0.02150 -0.18728
 C289 C 0.48001 -0.01262 0.35304
 C290 C 0.47011 0.01765 0.32842
 C291 C 0.46157 0.04674 0.33574
 C292 C 0.46331 0.04558 0.36765
 C293 C 0.47370 0.01524 0.39270
 C294 C 0.48178 -0.01386 0.38497
 C295 C 0.46979 0.01875 0.29594
 C296 C 0.47016 0.01942 0.26898
 C297 C 0.47132 0.01979 0.23771
 C298 C 0.47292 0.01966 0.21129
 C299 C 0.47559 0.01886 0.18013
 C300 C 0.44720 0.02709 0.15289
 C301 C 0.45003 0.02515 0.12298
 C302 C 0.48135 0.01485 0.12000
 C303 C 0.50968 0.00708 0.14742
 C304 C 0.50679 0.00907 0.17726
 H305 H 0.48674 -0.03531 0.34766
 H306 H 0.45394 0.07031 0.31688
 H307 H 0.45694 0.06843 0.37277
 H308 H 0.48987 -0.03760 0.40367
 H309 H 0.42292 0.03460 0.15487
 H310 H 0.42779 0.03092 0.10242
 H311 H 0.53410 -0.00048 0.14578
 H312 H 0.52893 0.00273 0.19816
 C313 C 0.47784 -0.34682 -0.03596
 C314 C 0.48667 -0.33933 -0.00703
 C315 C 0.49677 -0.36381 0.02337
 C316 C 0.49853 -0.39581 0.02487
 C317 C 0.49023 -0.40372 -0.00408
 C318 C 0.47958 -0.37879 -0.03454
 C319 C 0.48631 -0.30678 -0.00848
 C320 C 0.48646 -0.27966 -0.00961
 C321 C 0.48704 -0.24807 -0.01075
 C322 C 0.48776 -0.22119 -0.01150
 C323 C 0.48876 -0.18922 -0.01204
 C324 C 0.45992 -0.16153 -0.02793
 C325 C 0.46070 -0.13059 -0.02763
 C326 C 0.49038 -0.12698 -0.01139
 C327 C 0.51933 -0.15492 0.00416
 C328 C 0.51848 -0.18583 0.00384
 H329 H 0.47002 -0.32804 -0.05962
 H330 H 0.50369 -0.35827 0.04592
 H331 H 0.50684 -0.41443 0.04869
 H332 H 0.47304 -0.38406 -0.05727
 H333 H 0.43680 -0.16387 -0.04038
 H334 H 0.43811 -0.10948 -0.04017
 H335 H 0.54244 -0.15299 0.01722
 H336 H 0.54093 -0.20714 0.01630
 C337 C 0.51093 0.37284 -0.02411
 C338 C 0.52070 0.34809 0.00602
 C339 C 0.52820 0.35544 0.03516
 C340 C 0.52553 0.38754 0.03415
 C341 C 0.51526 0.41270 0.00392
 C342 C 0.50823 0.40492 -0.02519
 C343 C 0.52186 0.31548 0.00679
 C344 C 0.52203 0.28852 0.00679
 C345 C 0.52130 0.25739 0.00602
 C346 C 0.51990 0.23120 0.00470
 C347 C 0.51729 0.20045 0.00231
 C348 C 0.54565 0.17367 0.00908
 C349 C 0.54281 0.14422 0.00555
 C350 C 0.51151 0.14128 -0.00493
 C351 C 0.48320 0.16823 -0.01129
 C352 C 0.48611 0.19759 -0.00770
 H353 H 0.50500 0.36742 -0.04682
 H354 H 0.53571 0.33647 0.05862
 H355 H 0.53110 0.39272 0.05699
 H356 H 0.50027 0.42369 -0.04886
 H357 H 0.56991 0.17567 0.01673
 H358 H 0.56501 0.12402 0.01029
 H359 H 0.45882 0.16655 -0.01893
 H360 H 0.46400 0.21815 -0.01296
 C361 C -0.36566 -0.02464 0.50986
 C362 C -0.35860 0.00428 0.50197
 C363 C -0.38379 0.03473 0.49195
 C364 C -0.41602 0.03628 0.48945
 C365 C -0.42347 0.00733 0.49693
 C366 C -0.39786 -0.02317 0.50738
 C367 C -0.32567 0.00274 0.50346
 C368 C -0.29819 0.00149 0.50440
 C369 C -0.26611 0.00020 0.50524
 C370 C -0.23882 -0.00065 0.50580
 C371 C -0.20634 -0.00126 0.50638
 C372 C -0.19364 0.02110 0.51736
 C373 C -0.16230 0.02090 0.51763
 C374 C -0.14318 -0.00171 0.50690
 C375 C -0.15614 -0.02414 0.49592
 C376 C -0.18753 -0.02391 0.49569
 H377 H -0.34635 -0.04834 0.51762
 H378 H -0.37860 0.05728 0.48576
 H379 H -0.43516 0.06013 0.48131
 H380 H -0.40274 -0.04590 0.51330
 H381 H -0.20805 0.03884 0.52554
 H382 H -0.15325 0.03881 0.52574
 H383 H -0.14188 -0.04206 0.48784
 H384 H -0.19711 -0.04136 0.48717
 C385 C 0.33492 0.04603 0.46003
 C386 C 0.32827 0.01679 0.46702
 C387 C 0.35359 -0.01325 0.47566
 C388 C 0.38555 -0.01416 0.47783
 C389 C 0.39266 0.01504 0.47140
 C390 C 0.36691 0.04520 0.46216
 C391 C 0.29588 0.01731 0.46665
 C392 C 0.26917 0.01704 0.46721
 C393 C 0.23841 0.01589 0.46883
 C394 C 0.21259 0.01422 0.47102
 C395 C 0.18232 0.01137 0.47457
 C396 C 0.15475 0.01842 0.44690
 C397 C 0.12581 0.01446 0.45061
 C398 C 0.12416 0.00327 0.48210
 C399 C 0.15190 -0.00338 0.50972
 C400 C 0.18076 0.00064 0.50595
 H401 H 0.31551 0.06942 0.45340
 H402 H 0.34873 -0.03605 0.48120
 H403 H 0.40478 -0.03777 0.48499
 H404 H 0.37156 0.06811 0.45708
 H405 H 0.15575 0.02662 0.42249
 H406 H 0.10499 0.01944 0.42890
 H407 H 0.15123 -0.01156 0.53424
 H408 H 0.20193 -0.00484 0.52753
 C409 C 0.03827 0.49058 1.38508
 C410 C 0.00793 0.50052 1.35973
 C411 C -0.02152 0.50895 1.36626
 C412 C -0.02063 0.50708 1.39812
 C413 C 0.00978 0.49669 1.42387
 C414 C 0.03923 0.48868 1.41694
 C415 C 0.00714 0.50125 1.32724
 C416 C 0.00681 0.50140 1.30021
 C417 C 0.00680 0.50115 1.26877
 C418 C 0.00711 0.50067 1.24207
 C419 C 0.00788 0.49989 1.21034
 C420 C -0.00797 0.52851 1.18296
 C421 C -0.00660 0.52788 1.15229
 C422 C 0.01069 0.49858 1.14862
 C423 C 0.02631 0.46988 1.17626
 C424 C 0.02492 0.47056 1.20691
 H425 H 0.06121 0.48397 1.38029
 H426 H -0.04514 0.51665 1.34681
 H427 H -0.04373 0.51339 1.40263
 H428 H 0.06304 0.48058 1.43619
 H429 H -0.02129 0.55132 1.18533
 H430 H -0.01922 0.55027 1.13139
 H431 H 0.04016 0.44705 1.17431
 H432 H 0.03737 0.44829 1.22798
 C433 C 0.04792 0.46034 0.66403
 C434 C 0.01857 0.46861 0.67074
 C435 C -0.01188 0.47902 0.64540
 C436 C -0.01303 0.48153 0.61338
 C437 C 0.01633 0.47367 0.60628
 C438 C 0.04684 0.46282 0.63202
 C439 C 0.01953 0.46738 0.70338
 C440 C 0.01988 0.46700 0.73045
 C441 C 0.01962 0.46731 0.76180
 C442 C 0.01873 0.46822 0.78823
 C443 C 0.01676 0.47008 0.81930
 C444 C 0.04486 0.46696 0.84451
 C445 C 0.04246 0.47004 0.87423
 C446 C 0.01185 0.47641 0.87899
 C447 C -0.01614 0.47910 0.85361
 C448 C -0.01368 0.47598 0.82399
 H449 H 0.07161 0.45231 0.68346
 H450 H -0.03475 0.48553 0.65033
 H451 H -0.03690 0.48995 0.59415
 H452 H 0.06988 0.45660 0.62738
 H453 H 0.06852 0.46253 0.84107
 H454 H 0.06435 0.46816 0.89320
 H455 H -0.03993 0.48349 0.85673
 H456 H -0.03557 0.47839 0.80466
   
