data_POSCAR
  _audit_creation_date              2014-09-24
  _audit_creation_method            'ToBaCCo'
  _symmetry_space_group_name_H-M    'P1'
  _symmetry_Int_Tables_number       1
  _symmetry_cell_setting            triclinic
  loop_
  _symmetry_equiv_pos_as_xyz
 x,y,z
_cell_length_a 39.5402
_cell_length_b 39.1132
_cell_length_c 38.3619
_cell_angle_alpha 90.471100
_cell_angle_beta 89.435000
_cell_angle_gamma 91.128500
loop_
  _atom_site_label
  _atom_site_type_symbol
  _atom_site_fract_x
  _atom_site_fract_y
  _atom_site_fract_z
N1 N 0.14955 0.22902 0.25238
 N2 N 0.16229 0.20739 0.27451
 C3 C 0.14012 0.20253 0.30103
 C4 C 0.11160 0.22149 0.29455
 C5 C 0.11875 0.23824 0.26364
 H6 H 0.14410 0.18596 0.32299
 H7 H 0.10238 0.25530 0.24993
 Cu8 Cu 0.20489 0.18531 0.26361
 Cu9 Cu 0.17304 0.24229 0.20961
 Cu10 Cu 0.25889 0.22459 0.20856
 N11 N 0.24896 0.16636 0.25292
 N12 N 0.27037 0.18226 0.23190
 C13 C 0.29852 0.16367 0.22847
 C14 C 0.29453 0.13433 0.24824
 C15 C 0.26246 0.13675 0.26294
 H16 H 0.31980 0.17042 0.21180
 H17 H 0.24935 0.11765 0.27851
 N18 N 0.23828 0.25763 0.17692
 N19 N 0.20561 0.26408 0.17728
 C20 C 0.19922 0.28740 0.15275
 C21 C 0.22922 0.29569 0.13598
 C22 C 0.25349 0.27625 0.15163
 H23 H 0.17458 0.29749 0.14731
 H24 H 0.28013 0.27570 0.14504
 H25 H 0.21107 0.20578 0.20393
 H26 H 0.21631 0.24072 0.23695
 N27 N 0.65202 0.73051 0.73106
 N28 N 0.65807 0.69909 0.74087
 C29 C 0.63763 0.69095 0.76796
 C30 C 0.61810 0.71895 0.77550
 C31 C 0.62772 0.74357 0.75169
 H32 H 0.63739 0.66681 0.78151
 H33 H 0.61773 0.76900 0.74957
 Cu34 Cu 0.69303 0.67242 0.71842
 Cu35 Cu 0.67557 0.75183 0.69196
 Cu36 Cu 0.74497 0.70945 0.65898
 N37 N 0.73598 0.65272 0.70524
 N38 N 0.75607 0.66697 0.68175
 C39 C 0.78476 0.64909 0.67920
 C40 C 0.78245 0.62251 0.70254
 C41 C 0.75128 0.62547 0.71867
 H42 H 0.80636 0.65593 0.66302
 H43 H 0.74120 0.60987 0.73963
 N44 N 0.72930 0.75279 0.63990
 N45 N 0.70269 0.76892 0.65236
 C46 C 0.69777 0.79707 0.63325
 C47 C 0.72259 0.79861 0.60784
 C48 C 0.74218 0.77035 0.61267
 H49 H 0.67742 0.81482 0.63705
 H50 H 0.76369 0.76284 0.59697
 H51 H 0.69298 0.70833 0.66685
 H52 H 0.71963 0.72655 0.70291
 N53 N 0.34573 0.76468 0.74380
 N54 N 0.33248 0.78241 0.76959
 C55 C 0.35534 0.78605 0.79518
 C56 C 0.38470 0.77008 0.78470
 C57 C 0.37747 0.75628 0.75216
 H58 H 0.35125 0.79994 0.81930
 H59 H 0.39414 0.74149 0.73566
 Cu60 Cu 0.28732 0.80053 0.76653
 Cu61 Cu 0.32155 0.75625 0.70042
 Cu62 Cu 0.23536 0.77125 0.70429
 N63 N 0.24572 0.82360 0.75569
 N64 N 0.22474 0.81163 0.73204
 C65 C 0.19818 0.83254 0.72993
 C66 C 0.20270 0.85924 0.75370
 C67 C 0.23354 0.85270 0.76916
 H68 H 0.17854 0.82978 0.71063
 H69 H 0.24619 0.86795 0.78894
 N70 N 0.25648 0.74355 0.66747
 N71 N 0.28944 0.73931 0.66491
 C72 C 0.29614 0.72142 0.63560
 C73 C 0.26597 0.71450 0.61870
 C74 C 0.24130 0.72835 0.64006
 H75 H 0.32110 0.71394 0.62710
 H76 H 0.21428 0.72763 0.63586
 H77 H 0.28280 0.79152 0.70388
 H78 H 0.27825 0.75068 0.72841
 N79 N 0.83082 0.24636 0.25743
 N80 N 0.81836 0.26875 0.27953
 C81 C 0.83752 0.26957 0.30842
 C82 C 0.86350 0.24640 0.30416
 C83 C 0.85840 0.23250 0.27121
 H84 H 0.83443 0.28761 0.32966
 H85 H 0.87377 0.21370 0.25810
 Cu86 Cu 0.78037 0.29691 0.26679
 Cu87 Cu 0.81126 0.23713 0.21207
 Cu88 Cu 0.74234 0.28476 0.18909
 N89 N 0.74408 0.32607 0.25153
 N90 N 0.72840 0.32007 0.22195
 C91 C 0.70442 0.34354 0.21780
 C92 C 0.70519 0.36550 0.24615
 C93 C 0.73087 0.35400 0.26694
 H94 H 0.68833 0.34536 0.19528
 H95 H 0.73934 0.36528 0.29123
 N96 N 0.76073 0.24819 0.15921
 N97 N 0.78794 0.23108 0.16741
 C98 C 0.79536 0.20924 0.14123
 C99 C 0.77172 0.21286 0.11542
 C100 C 0.74991 0.23742 0.12769
 H101 H 0.81609 0.19163 0.14099
 H102 H 0.72806 0.24690 0.11438
 H103 H 0.79195 0.28557 0.20526
 H104 H 0.76302 0.25255 0.22510
 N105 N 0.86085 0.71245 0.28026
 N106 N 0.85188 0.68444 0.26337
 C107 C 0.87398 0.67905 0.23707
 C108 C 0.89832 0.70493 0.23800
 C109 C 0.88906 0.72579 0.26556
 H110 H 0.87178 0.65865 0.21795
 H111 H 0.90135 0.74947 0.27364
 Cu112 Cu 0.81108 0.65913 0.27621
 Cu113 Cu 0.83437 0.73011 0.31890
 Cu114 Cu 0.75032 0.70271 0.31897
 N115 N 0.76456 0.64334 0.27693
 N116 N 0.74037 0.66118 0.29159
 C117 C 0.71055 0.64472 0.28626
 C118 C 0.71650 0.61520 0.26691
 C119 C 0.75122 0.61497 0.26222
 H120 H 0.68642 0.65325 0.29617
 H121 H 0.76583 0.59537 0.24940
 N122 N 0.76686 0.74339 0.34561
 N123 N 0.79911 0.75285 0.34595
 C124 C 0.80346 0.77909 0.36831
 C125 C 0.77260 0.78642 0.38321
 C126 C 0.74976 0.76358 0.36815
 H127 H 0.82752 0.79124 0.37436
 H128 H 0.72317 0.76076 0.37456
 H129 H 0.79871 0.69083 0.33020
 H130 H 0.79264 0.71650 0.29008
 N131 N 0.33674 0.24127 -0.23287
 N132 N 0.34011 0.20826 -0.23814
 C133 C 0.36874 0.20286 -0.25629
 C134 C 0.38396 0.23426 -0.26357
 C135 C 0.36236 0.25819 -0.24908
 H136 H 0.37681 0.17808 -0.26550
 H137 H 0.36564 0.28571 -0.24920
 Cu138 Cu 0.30465 0.17577 -0.22486
 Cu139 Cu 0.30050 0.25871 -0.20302
 Cu140 Cu 0.25843 0.19567 -0.15500
 N141 N 0.26564 0.14775 -0.21129
 N142 N 0.24798 0.15526 -0.18315
 C143 C 0.22368 0.13117 -0.17833
 C144 C 0.22629 0.10732 -0.20497
 C145 C 0.25292 0.11878 -0.22568
 H146 H 0.20554 0.13096 -0.15703
 H147 H 0.26274 0.10651 -0.24893
 N148 N 0.26013 0.24387 -0.14080
 N149 N 0.27469 0.26824 -0.15961
 C150 C 0.27148 0.29829 -0.14251
 C151 C 0.25360 0.29244 -0.11179
 C152 C 0.24730 0.25757 -0.11145
 H153 H 0.28224 0.32243 -0.15119
 H154 H 0.23503 0.24307 -0.09086
 H155 H 0.30472 0.21500 -0.17531
 H156 H 0.26543 0.21799 -0.20161
 N157 N 0.65899 0.25919 -0.26594
 N158 N 0.66680 0.28727 -0.28305
 C159 C 0.64193 0.29360 -0.30575
 C160 C 0.61792 0.26744 -0.30323
 C161 C 0.62992 0.24568 -0.27828
 H162 H 0.64106 0.31568 -0.32249
 H163 H 0.61675 0.22360 -0.26757
 Cu164 Cu 0.70818 0.31335 -0.27311
 Cu165 Cu 0.68173 0.24774 -0.22330
 Cu166 Cu 0.75839 0.28874 -0.20750
 N167 N 0.74781 0.34021 -0.25901
 N168 N 0.76639 0.33150 -0.23239
 C169 C 0.78970 0.35639 -0.22631
 C170 C 0.78524 0.38229 -0.25017
 C171 C 0.75906 0.37060 -0.27113
 H172 H 0.80769 0.35631 -0.20525
 H173 H 0.74806 0.38404 -0.29263
 N174 N 0.74077 0.25025 -0.17915
 N175 N 0.71132 0.23496 -0.18514
 C176 C 0.70579 0.21047 -0.16124
 C177 C 0.73332 0.20980 -0.13949
 C178 C 0.75482 0.23571 -0.15119
 H179 H 0.68331 0.19435 -0.15955
 H180 H 0.77886 0.24335 -0.14007
 H181 H 0.70773 0.29400 -0.21294
 H182 H 0.72775 0.26243 -0.24313
 N183 N 0.17224 0.77451 0.25013
 N184 N 0.18862 0.78217 0.22125
 C185 C 0.16730 0.78009 0.19422
 C186 C 0.13492 0.77274 0.20695
 C187 C 0.13940 0.76903 0.24271
 H188 H 0.17527 0.78345 0.16744
 H189 H 0.12034 0.76262 0.26209
 Cu190 Cu 0.23466 0.79951 0.22292
 Cu191 Cu 0.19576 0.77087 0.29457
 Cu192 Cu 0.28334 0.77959 0.29001
 N193 N 0.27315 0.82826 0.23605
 N194 N 0.29404 0.81944 0.26074
 C195 C 0.31681 0.84512 0.26587
 C196 C 0.30836 0.87206 0.24455
 C197 C 0.28096 0.86013 0.22555
 H198 H 0.33541 0.84577 0.28638
 H199 H 0.26678 0.87419 0.20661
 N200 N 0.25982 0.75505 0.32796
 N201 N 0.22649 0.75352 0.33075
 C202 C 0.21797 0.73542 0.35932
 C203 C 0.24728 0.72528 0.37547
 C204 C 0.27335 0.73783 0.35449
 H205 H 0.19229 0.72901 0.36718
 H206 H 0.30015 0.73396 0.35768
 H207 H 0.23779 0.80123 0.28667
 H208 H 0.23837 0.75700 0.26840
 N209 N 0.47757 0.40120 0.49181
 N210 N 0.45168 0.41155 0.51056
 C211 C 0.44418 0.38792 0.53494
 C212 C 0.46668 0.36146 0.53108
 C213 C 0.48775 0.37092 0.50377
 H214 H 0.42444 0.39014 0.55451
 H215 H 0.50907 0.35695 0.49360
 Cu216 Cu 0.43126 0.45557 0.50226
 Cu217 Cu 0.49704 0.42853 0.45449
 Cu218 Cu 0.44434 0.49053 0.42297
 N219 N 0.40172 0.49000 0.48402
 N220 N 0.40498 0.50109 0.45192
 C221 C 0.37988 0.52282 0.44547
 C222 C 0.35977 0.52577 0.47520
 C223 C 0.37505 0.50501 0.49938
 H224 H 0.37705 0.53627 0.42120
 H225 H 0.36796 0.50164 0.52643
 N226 N 0.48623 0.47659 0.39864
 N227 N 0.50596 0.45267 0.41069
 C228 C 0.53328 0.45004 0.38980
 C229 C 0.53149 0.47444 0.36408
 C230 C 0.50097 0.49036 0.37003
 H231 H 0.55354 0.43230 0.39357
 H232 H 0.49101 0.51135 0.35539
 H233 H 0.47555 0.47673 0.46231
 H234 H 0.44859 0.44186 0.44292
 N235 N -0.00470 -0.08118 1.02958
 N236 N -0.03507 -0.07575 1.04262
 C237 C -0.04293 -0.10072 1.06553
 C238 C -0.01600 -0.12268 1.06672
 C239 C 0.00768 -0.10971 1.04353
 H240 H -0.06660 -0.10323 1.07973
 H241 H 0.03193 -0.12050 1.03700
 Cu242 Cu -0.06175 -0.03713 1.02755
 Cu243 Cu 0.01692 -0.05144 0.99530
 Cu244 Cu -0.03282 0.01111 0.96110
 N245 N -0.08833 0.00005 1.00879
 N246 N -0.07521 0.01993 0.98455
 C247 C -0.09772 0.04332 0.97566
 C248 C -0.12743 0.03710 0.99386
 C249 C -0.12039 0.00987 1.01549
 H250 H -0.09320 0.06285 0.95630
 H251 H -0.13761 -0.00244 1.03375
 N252 N 0.01071 -0.00129 0.94062
 N253 N 0.03023 -0.02470 0.95386
 C254 C 0.05720 -0.02879 0.93255
 C255 C 0.05447 -0.00668 0.90466
 C256 C 0.02440 0.00985 0.91050
 H257 H 0.07657 -0.04754 0.93614
 H258 H 0.01243 0.02728 0.89295
 H259 H -0.01089 -0.00786 1.00493
 H260 H -0.02886 -0.04051 0.97390
 N261 N 1.00196 0.58772 0.99620
 N262 N 1.02131 0.57401 1.01976
 C263 C 1.02472 0.59581 1.04687
 C264 C 1.00619 0.62458 1.04007
 C265 C 0.99243 0.61878 1.00746
 H266 H 1.03983 0.59132 1.06968
 H267 H 0.97702 0.63605 0.99287
 Cu268 Cu 1.04176 0.52993 1.01203
 Cu269 Cu 0.99152 0.56460 0.95237
 Cu270 Cu 1.01886 0.48128 0.94351
 N271 N 1.06924 0.49243 0.99559
 N272 N 1.06037 0.47342 0.96865
 C273 C 1.08418 0.44990 0.96262
 C274 C 1.10936 0.45486 0.98694
 C275 C 1.09900 0.48177 1.00765
 H276 H 1.08348 0.43105 0.94183
 H277 H 1.11250 0.49318 1.02935
 N278 N 0.98592 0.50125 0.91209
 N279 N 0.97548 0.53298 0.91551
 C280 C 0.95257 0.53893 0.89071
 C281 C 0.94872 0.50965 0.87070
 C282 C 0.97043 0.48633 0.88463
 H283 H 0.93960 0.56275 0.88735
 H284 H 0.97442 0.46043 0.87564
 H285 H 0.99320 0.51753 0.97461
 H286 H 1.03184 0.53108 0.94951
 N287 N 0.51206 0.09198 0.49059
 N288 N 0.54354 0.09277 0.50133
 C289 C 0.54634 0.11513 0.52812
 C290 C 0.51475 0.12847 0.53472
 C291 C 0.49370 0.11346 0.51029
 H292 H 0.56956 0.12154 0.54156
 H293 H 0.46729 0.11886 0.50637
 Cu294 Cu 0.57782 0.06504 0.47865
 Cu295 Cu 0.49799 0.06640 0.44950
 Cu296 Cu 0.55633 0.01228 0.41190
 N297 N 0.60745 0.02896 0.46242
 N298 N 0.59954 0.00924 0.43565
 C299 C 0.62387 -0.01400 0.43087
 C300 C 0.64821 -0.00855 0.45600
 C301 C 0.63686 0.01860 0.47586
 H302 H 0.62298 -0.03463 0.41194
 H303 H 0.64847 0.02910 0.49911
 N304 N 0.51083 0.01887 0.39262
 N305 N 0.48836 0.03891 0.40761
 C306 C 0.46057 0.03962 0.38769
 C307 C 0.46573 0.01894 0.35900
 C308 C 0.49781 0.00622 0.36272
 H309 H 0.43893 0.05553 0.39248
 H310 H 0.51119 -0.00963 0.34416
 H311 H 0.53263 0.02793 0.45706
 H312 H 0.54487 0.06208 0.42515
 N313 N 0.00561 0.08562 0.51792
 N314 N -0.00914 0.06898 0.49225
 C315 C -0.01102 0.08975 0.46461
 C316 C 0.00209 0.12185 0.47370
 C317 C 0.01186 0.11809 0.50824
 H318 H -0.02343 0.08259 0.44057
 H319 H 0.02055 0.13767 0.52618
 Cu320 Cu -0.03202 0.02507 0.50031
 Cu321 Cu 0.01557 0.06295 0.56139
 Cu322 Cu -0.04019 0.00311 0.58761
 N323 N -0.06788 -0.00618 0.51810
 N324 N -0.07227 -0.01291 0.55156
 C325 C -0.10191 -0.03001 0.55590
 C326 C -0.11703 -0.03377 0.52364
 C327 C -0.09452 -0.01891 0.50026
 H328 H -0.11221 -0.03822 0.58074
 H329 H -0.09834 -0.01563 0.47261
 N330 N 0.00246 0.01139 0.61238
 N331 N 0.02464 0.03447 0.60136
 C332 C 0.05185 0.03457 0.62214
 C333 C 0.04653 0.01024 0.64766
 C334 C 0.01465 -0.00364 0.64105
 H335 H 0.07370 0.05143 0.61928
 H336 H 0.00150 -0.02334 0.65581
 H337 H -0.01002 0.00740 0.54610
 H338 H -0.04154 0.04216 0.55025
 N339 N 0.48031 0.58552 0.00237
 N340 N 0.46607 0.56712 -0.02246
 C341 C 0.46503 0.58569 -0.05176
 C342 C 0.47800 0.61817 -0.04458
 C343 C 0.48799 0.61681 -0.01004
 H344 H 0.45533 0.57616 -0.07631
 H345 H 0.49988 0.63716 0.00499
 Cu346 Cu 0.44596 0.52250 -0.01321
 Cu347 Cu 0.48861 0.56700 0.04851
 Cu348 Cu 0.45951 0.48462 0.06320
 N349 N 0.41496 0.48772 0.00514
 N350 N 0.41986 0.47354 0.03557
 C351 C 0.39303 0.45340 0.04370
 C352 C 0.36983 0.45558 0.01718
 C353 C 0.38482 0.47701 -0.00725
 H354 H 0.38982 0.43974 0.06796
 H355 H 0.37377 0.48573 -0.03121
 N356 N 0.49148 0.50810 0.09416
 N357 N 0.50318 0.53942 0.08852
 C358 C 0.52838 0.54632 0.11110
 C359 C 0.53269 0.51779 0.13158
 C360 C 0.50830 0.49442 0.12070
 H361 H 0.54411 0.56925 0.11088
 H362 H 0.50489 0.46842 0.12966
 H363 H 0.48922 0.51777 0.03088
 H364 H 0.44795 0.53291 0.04924
 N365 N 0.51504 -0.09174 -0.00699
 N366 N 0.54636 -0.08898 -0.01865
 C367 C 0.55315 -0.11646 -0.03880
 C368 C 0.52467 -0.13764 -0.03923
 C369 C 0.50083 -0.12082 -0.01929
 H370 H 0.57685 -0.12071 -0.05230
 H371 H 0.47490 -0.12893 -0.01444
 Cu372 Cu 0.57445 -0.04910 -0.00696
 Cu373 Cu 0.49442 -0.05707 0.02231
 Cu374 Cu 0.55050 0.00140 0.05940
 N375 N 0.59798 -0.00585 0.00285
 N376 N 0.58809 0.01396 0.02872
 C377 C 0.60886 0.04151 0.03072
 C378 C 0.63287 0.03906 0.00447
 C379 C 0.62555 0.00847 -0.01249
 H380 H 0.60711 0.06147 0.05032
 H381 H 0.63946 -0.00259 -0.03407
 N382 N 0.50438 -0.00661 0.07741
 N383 N 0.48280 -0.02840 0.06286
 C384 C 0.45411 -0.02944 0.08204
 C385 C 0.45757 -0.00666 0.10961
 C386 C 0.48990 0.00711 0.10600
 H387 H 0.43303 -0.04688 0.07741
 H388 H 0.50229 0.02501 0.12357
 H389 H 0.52775 -0.01521 0.01565
 H390 H 0.53968 -0.04992 0.04605
 N391 N 0.99782 0.42246 0.47984
 N392 N 1.02528 0.43149 0.46234
 C393 C 1.03331 0.40647 0.43963
 C394 C 1.00991 0.38009 0.44358
 C395 C 0.98735 0.39131 0.46879
 H396 H 1.05509 0.40705 0.42232
 H397 H 0.96577 0.37726 0.47930
 Cu398 Cu 1.04983 0.47354 0.47306
 Cu399 Cu 0.98027 0.45091 0.51784
 Cu400 Cu 1.04749 0.49234 0.55851
 N401 N 1.08217 0.50516 0.49350
 N402 N 1.08279 0.51087 0.52729
 C403 C 1.11030 0.53037 0.53473
 C404 C 1.12781 0.53715 0.50386
 C405 C 1.10855 0.52139 0.47818
 H406 H 1.11717 0.53881 0.56067
 H407 H 1.11346 0.52132 0.45040
 N408 N 1.00290 0.48349 0.58161
 N409 N 0.97666 0.46980 0.56524
 C410 C 0.94913 0.47123 0.58613
 C411 C 0.95828 0.48690 0.61725
 C412 C 0.99281 0.49346 0.61368
 H413 H 0.92411 0.46221 0.57888
 H414 H 1.00923 0.50555 0.63270
 H415 H 1.01320 0.49474 0.51954
 H416 H 1.02986 0.45160 0.52925
 C417 C 0.37366 0.00745 0.23821
 C418 C 0.13243 -0.01042 0.77174
 C419 C 0.62771 0.49284 0.24549
 C420 C 0.86903 0.51015 0.74156
 C421 C 0.23721 0.38396 0.01126
 C422 C 0.75508 0.12814 -0.01256
 C423 C 0.25031 0.62698 0.49267
 C424 C 0.75380 0.89262 0.49239
 C425 C -0.01016 0.24206 0.38231
 C426 C 0.00432 0.74443 0.13489
 C427 C 0.48740 0.24617 0.62766
 C428 C 0.50362 0.74120 0.87013
 C429 C 0.03546 0.26063 0.33698
 C430 C 0.06561 0.25615 0.31880
 C431 C 0.07972 0.22387 0.31516
 C432 C 0.06055 0.19499 0.32659
 C433 C 0.02863 0.19972 0.34356
 C434 C 0.01858 0.23327 0.35443
 C435 C 0.00643 0.17135 0.34423
 N436 N 0.01726 0.13977 0.33538
 N437 N 0.04857 0.13483 0.32377
 C438 C 0.07040 0.16140 0.31845
 H439 H 0.02625 0.28645 0.33857
 H440 H 0.07834 0.27846 0.30789
 H441 H -0.02016 0.17441 0.34759
 H442 H 0.09437 0.15587 0.30634
 C443 C 0.53483 0.71070 0.82155
 C444 C 0.56134 0.70555 0.79832
 C445 C 0.59229 0.72221 0.80310
 C446 C 0.59804 0.74136 0.83387
 C447 C 0.57147 0.74538 0.85894
 C448 C 0.53768 0.73325 0.85048
 C449 C 0.58082 0.76010 0.89136
 N450 N 0.61258 0.77272 0.89644
 N451 N 0.63639 0.77098 0.87185
 C452 C 0.63025 0.75560 0.84081
 H453 H 0.51104 0.69850 0.81525
 H454 H 0.55711 0.68964 0.77545
 H455 H 0.56410 0.76121 0.91345
 H456 H 0.65089 0.75389 0.82221
 C457 C 0.44213 0.75502 0.86006
 C458 C 0.41368 0.76076 0.84026
 C459 C 0.41646 0.76757 0.80479
 C460 C 0.44907 0.77293 0.78996
 C461 C 0.47868 0.76742 0.81026
 C462 C 0.47502 0.75411 0.84531
 C463 C 0.50997 0.77751 0.79481
 N464 N 0.51154 0.78937 0.76176
 N465 N 0.48398 0.79320 0.74285
 C466 C 0.45288 0.78580 0.75591
 H467 H 0.43774 0.74856 0.88692
 H468 H 0.38902 0.75836 0.85268
 H469 H 0.53350 0.77770 0.80824
 H470 H 0.43152 0.79149 0.73987
 C471 C -0.04690 0.23662 0.32670
 C472 C -0.07700 0.23623 0.30865
 C473 C -0.10792 0.24206 0.32539
 C474 C -0.10837 0.24525 0.36233
 C475 C -0.07739 0.24575 0.38124
 C476 C -0.04549 0.24159 0.36325
 C477 C -0.07951 0.25118 0.41763
 N478 N -0.10996 0.25312 0.43391
 N479 N -0.13874 0.25008 0.41647
 C480 C -0.13900 0.24597 0.38142
 H481 H -0.02467 0.23347 0.31061
 H482 H -0.07536 0.23359 0.28056
 H483 H -0.05743 0.25435 0.43353
 H484 H -0.16322 0.24228 0.36908
 C485 C -0.04954 0.75391 0.17305
 C486 C -0.07418 0.74451 0.19714
 C487 C -0.07468 0.71231 0.21213
 C488 C -0.04951 0.68877 0.20271
 C489 C -0.02327 0.69847 0.17870
 C490 C -0.02264 0.73223 0.16336
 C491 C 0.00208 0.67419 0.17213
 N492 N 0.00060 0.64300 0.18721
 N493 N -0.02422 0.63411 0.20910
 C494 C -0.04907 0.65601 0.21763
 H495 H -0.05308 0.77848 0.16142
 H496 H -0.09380 0.76256 0.20354
 H497 H 0.02418 0.67995 0.15681
 H498 H -0.06791 0.64760 0.23638
 C499 C 0.43551 0.26748 0.66337
 C500 C 0.41200 0.26599 0.69053
 C501 C 0.41266 0.23991 0.71504
 C502 C 0.44063 0.21786 0.71493
 C503 C 0.46465 0.21875 0.68696
 C504 C 0.46168 0.24343 0.65930
 C505 C 0.48932 0.19317 0.68687
 N506 N 0.49217 0.17162 0.71409
 N507 N 0.47163 0.17322 0.74162
 C508 C 0.44600 0.19556 0.74296
 H509 H 0.43228 0.28814 0.64543
 H510 H 0.39158 0.28407 0.69063
 H511 H 0.50528 0.18848 0.66493
 H512 H 0.43040 0.19607 0.76625
 C513 C 0.54902 0.22998 0.64458
 C514 C 0.57920 0.23453 0.66220
 C515 C 0.58641 0.26454 0.68054
 C516 C 0.56143 0.28991 0.68317
 C517 C 0.52952 0.28481 0.66650
 C518 C 0.52263 0.25406 0.64625
 C519 C 0.50607 0.31141 0.67018
 N520 N 0.51317 0.33946 0.68990
 N521 N 0.54230 0.34323 0.70654
 C522 C 0.56656 0.31947 0.70394
 H523 H 0.54664 0.20599 0.63077
 H524 H 0.59782 0.21456 0.66036
 H525 H 0.48254 0.31128 0.65687
 H526 H 0.58933 0.32379 0.71875
 C527 C 0.04689 0.74017 0.18625
 C528 C 0.07724 0.74724 0.20283
 C529 C 0.10267 0.76725 0.18721
 C530 C 0.09675 0.77999 0.15328
 C531 C 0.06799 0.76815 0.13407
 C532 C 0.04087 0.74952 0.15129
 C533 C 0.06722 0.77650 0.09839
 N534 N 0.09003 0.79906 0.08473
 N535 N 0.11391 0.81377 0.10419
 C536 C 0.11778 0.80531 0.13804
 H537 H 0.02801 0.72813 0.20253
 H538 H 0.08017 0.73737 0.22885
 H539 H 0.04899 0.76518 0.08098
 H540 H 0.13634 0.81953 0.15291
 C541 C 0.35166 0.06521 0.21503
 C542 C 0.33372 0.09530 0.21785
 C543 C 0.31698 0.10421 0.24865
 C544 C 0.31991 0.08279 0.27794
 C545 C 0.33570 0.05046 0.27448
 C546 C 0.35261 0.04105 0.24230
 C547 C 0.33257 0.02822 0.30315
 N548 N 0.31899 0.03905 0.33376
 N549 N 0.30757 0.07057 0.33780
 C550 C 0.30761 0.09279 0.31097
 H551 H 0.36520 0.06180 0.19086
 H552 H 0.33262 0.11159 0.19521
 H553 H 0.33942 0.00193 0.30146
 H554 H 0.29841 0.11822 0.31591
 C555 C 0.83758 0.54631 0.69911
 C556 C 0.81668 0.57244 0.68909
 C557 C 0.80929 0.59889 0.71204
 C558 C 0.82670 0.60181 0.74389
 C559 C 0.85006 0.57627 0.75382
 C560 C 0.85270 0.54541 0.73261
 C561 C 0.86948 0.58392 0.78385
 N562 N 0.86367 0.61226 0.80338
 N563 N 0.84033 0.63457 0.79493
 C564 C 0.82182 0.63043 0.76577
 H565 H 0.83929 0.52480 0.68132
 H566 H 0.80413 0.57057 0.66413
 H567 H 0.89032 0.56921 0.79205
 H568 H 0.80404 0.65008 0.75958
 C569 C 0.85672 0.44703 0.75040
 C570 C 0.83812 0.41666 0.75217
 C571 C 0.80318 0.41613 0.74875
 C572 C 0.78623 0.44755 0.74559
 C573 C 0.80501 0.47937 0.74348
 C574 C 0.84201 0.47924 0.74429
 C575 C 0.78507 0.50922 0.74298
 N576 N 0.75088 0.50738 0.74287
 N577 N 0.73410 0.47781 0.74456
 C578 C 0.75052 0.44806 0.74667
 H579 H 0.88389 0.44496 0.75238
 H580 H 0.85149 0.39302 0.75556
 H581 H 0.79486 0.53447 0.74566
 H582 H 0.73512 0.42540 0.75055
 C583 C 0.37071 -0.05724 0.23838
 C584 C 0.35643 -0.08967 0.24220
 C585 C 0.32163 -0.09433 0.24551
 C586 C 0.30083 -0.06520 0.24726
 C587 C 0.31500 -0.03153 0.24251
 C588 C 0.35160 -0.02692 0.23999
 C589 C 0.29116 -0.00500 0.23975
 N590 N 0.25784 -0.01081 0.24627
 N591 N 0.24577 -0.04151 0.25478
 C592 C 0.26608 -0.06880 0.25556
 H593 H 0.39796 -0.05585 0.23559
 H594 H 0.37285 -0.11154 0.24085
 H595 H 0.29722 0.02015 0.23094
 H596 H 0.25481 -0.09297 0.26331
 C597 C 0.18460 -0.04982 0.76899
 C598 C 0.20084 -0.08063 0.76587
 C599 C 0.18326 -0.11105 0.75845
 C600 C 0.14741 -0.11001 0.75551
 C601 C 0.13032 -0.07814 0.75926
 C602 C 0.14904 -0.04691 0.76697
 C603 C 0.09468 -0.07924 0.75708
 N604 N 0.07767 -0.10919 0.75200
 N605 N 0.09355 -0.13871 0.74967
 C606 C 0.12758 -0.14021 0.75193
 H607 H 0.20136 -0.02800 0.77195
 H608 H 0.22820 -0.07994 0.76732
 H609 H 0.07964 -0.05723 0.76154
 H610 H 0.13832 -0.16527 0.75241
 C611 C 0.68290 0.45815 0.24982
 C612 C 0.70103 0.42810 0.25135
 C613 C 0.68460 0.39634 0.25084
 C614 C 0.64896 0.39466 0.25069
 C615 C 0.63002 0.42511 0.24794
 C616 C 0.64714 0.45817 0.24718
 C617 C 0.59478 0.42084 0.24350
 N618 N 0.57979 0.38943 0.24509
 N619 N 0.59753 0.36143 0.25010
 C620 C 0.63160 0.36295 0.25275
 H621 H 0.69778 0.48147 0.25102
 H622 H 0.72842 0.42971 0.25186
 H623 H 0.57894 0.44156 0.23691
 H624 H 0.64480 0.33933 0.25653
 C625 C 0.64467 0.55125 0.27452
 C626 C 0.66527 0.57998 0.27964
 C627 C 0.69202 0.58749 0.25700
 C628 C 0.69582 0.56717 0.22658
 C629 C 0.67654 0.53615 0.22257
 C630 C 0.65130 0.52634 0.24821
 C631 C 0.68332 0.51635 0.19267
 N632 N 0.70561 0.52738 0.16799
 N633 N 0.72191 0.55726 0.17093
 C634 C 0.71764 0.57759 0.19925
 H635 H 0.62352 0.54906 0.29233
 H636 H 0.66042 0.59616 0.30211
 H637 H 0.67172 0.49204 0.18873
 H638 H 0.73060 0.60214 0.19955
 C639 C 0.16548 0.04513 0.75316
 C640 C 0.18750 0.07267 0.75886
 C641 C 0.20517 0.07613 0.78987
 C642 C 0.20203 0.05030 0.81524
 C643 C 0.18029 0.02133 0.80936
 C644 C 0.16053 0.01859 0.77780
 C645 C 0.17994 -0.00427 0.83519
 N646 N 0.19868 -0.00061 0.86439
 N647 N 0.21844 0.02672 0.86980
 C648 C 0.22098 0.05210 0.84615
 H649 H 0.15111 0.04634 0.72956
 H650 H 0.18965 0.09240 0.73924
 H651 H 0.16636 -0.02801 0.83215
 H652 H 0.23832 0.07309 0.85160
 C653 C 0.24284 0.32665 0.04479
 C654 C 0.24134 0.30596 0.07401
 C655 C 0.23371 0.31949 0.10663
 C656 C 0.22983 0.35504 0.11049
 C657 C 0.23158 0.37663 0.08072
 C658 C 0.23572 0.36218 0.04620
 C659 C 0.22866 0.41195 0.08691
 N660 N 0.22407 0.42447 0.11963
 N661 N 0.22232 0.40410 0.14716
 C662 C 0.22499 0.36982 0.14371
 H663 H 0.25003 0.31381 0.02096
 H664 H 0.24571 0.27882 0.07096
 H665 H 0.22914 0.42980 0.06627
 H666 H 0.22381 0.35451 0.16706
 C667 C 0.75833 0.87174 0.55661
 C668 C 0.75140 0.84894 0.58332
 C669 C 0.72641 0.82382 0.57985
 C670 C 0.70678 0.82222 0.54944
 C671 C 0.71319 0.84580 0.52195
 C672 C 0.74066 0.87070 0.52456
 C673 C 0.69161 0.84330 0.49285
 N674 N 0.66705 0.81871 0.49104
 N675 N 0.66207 0.79619 0.51640
 C676 C 0.68104 0.79713 0.54554
 H677 H 0.77987 0.88834 0.56102
 H678 H 0.76668 0.85017 0.60663
 H679 H 0.69291 0.86114 0.47185
 H680 H 0.67572 0.77828 0.56541
 C681 C 0.74328 0.86455 0.43122
 C682 C 0.74647 0.83872 0.40634
 C683 C 0.76694 0.81091 0.41211
 C684 C 0.78413 0.80850 0.44403
 C685 C 0.78228 0.83542 0.46917
 C686 C 0.76089 0.86443 0.46332
 C687 C 0.80251 0.83223 0.49911
 N688 N 0.82071 0.80379 0.50439
 N689 N 0.82064 0.77799 0.48167
 C690 C 0.80304 0.77938 0.45171
 H691 H 0.72552 0.88402 0.42498
 H692 H 0.73291 0.84067 0.38204
 H693 H 0.80532 0.85228 0.51803
 H694 H 0.80377 0.75749 0.43436
 C695 C 0.26956 0.36007 -0.04353
 C696 C 0.27268 0.33943 -0.07298
 C697 C 0.24682 0.31686 -0.08287
 C698 C 0.21646 0.31590 -0.06312
 C699 C 0.21381 0.33515 -0.03153
 C700 C 0.24055 0.35886 -0.02140
 C701 C 0.18446 0.32921 -0.01099
 N702 N 0.15882 0.30892 -0.02282
 N703 N 0.16037 0.29350 -0.05375
 C704 C 0.18825 0.29634 -0.07430
 H705 H 0.29030 0.37783 -0.03948
 H706 H 0.29600 0.34089 -0.08801
 H707 H 0.18169 0.33938 0.01481
 H708 H 0.18785 0.28358 -0.09938
 C709 C 0.75112 0.18442 -0.04757
 C710 C 0.74648 0.20332 -0.07750
 C711 C 0.73790 0.18757 -0.10889
 C712 C 0.73394 0.15154 -0.11028
 C713 C 0.73925 0.13168 -0.07980
 C714 C 0.74876 0.14821 -0.04732
 C715 C 0.73750 0.09575 -0.08393
 N716 N 0.72972 0.08124 -0.11506
 N717 N 0.72426 0.09995 -0.14308
 C718 C 0.72657 0.13446 -0.14189
 H719 H 0.75574 0.19930 -0.02435
 H720 H 0.74890 0.23094 -0.07586
 H721 H 0.74441 0.07870 -0.06373
 H722 H 0.72344 0.14793 -0.16602
 C723 C 0.22788 0.65082 0.43421
 C724 C 0.22686 0.67437 0.40743
 C725 C 0.24964 0.70194 0.40575
 C726 C 0.27416 0.70587 0.43219
 C727 C 0.27690 0.68057 0.45860
 C728 C 0.25262 0.65250 0.46070
 C729 C 0.30415 0.68450 0.48193
 N730 N 0.32464 0.71264 0.48091
 N731 N 0.32018 0.73735 0.45795
 C732 C 0.29565 0.73498 0.43368
 H733 H 0.20778 0.63188 0.43406
 H734 H 0.20762 0.67095 0.38771
 H735 H 0.31027 0.66518 0.50041
 H736 H 0.29292 0.75624 0.41624
 C737 C 0.27582 0.64379 0.55289
 C738 C 0.27991 0.66487 0.58183
 C739 C 0.26117 0.69438 0.58609
 C740 C 0.23791 0.70316 0.56000
 C741 C 0.23173 0.68046 0.53138
 C742 C 0.25172 0.65018 0.52671
 C743 C 0.20544 0.68907 0.50856
 N744 N 0.18936 0.71917 0.51209
 N745 N 0.19734 0.74148 0.53713
 C746 C 0.22108 0.73457 0.56108
 H747 H 0.29298 0.62282 0.55127
 H748 H 0.29822 0.65790 0.60124
 H749 H 0.19658 0.67194 0.48852
 H750 H 0.22690 0.75405 0.58030
 C751 C 0.73855 0.14975 0.04978
 C752 C 0.74202 0.17019 0.07928
 C753 C 0.76910 0.19302 0.08265
 C754 C 0.79358 0.19525 0.05573
 C755 C 0.78985 0.17502 0.02481
 C756 C 0.76078 0.15243 0.02051
 C757 C 0.81546 0.17859 -0.00076
 N758 N 0.84207 0.20043 0.00402
 N759 N 0.84513 0.21936 0.03278
 C760 C 0.82175 0.21763 0.05871
 H761 H 0.71800 0.13133 0.05113
 H762 H 0.72375 0.16733 0.10036
 H763 H 0.81447 0.16503 -0.02490
 H764 H 0.82540 0.23387 0.08134
 C765 C 0.50628 0.29884 0.59075
 C766 C 0.50142 0.32596 0.56845
 C767 C 0.47011 0.33126 0.55355
 C768 C 0.44367 0.30713 0.55919
 C769 C 0.44853 0.27893 0.58188
 C770 C 0.47971 0.27580 0.60074
 C771 C 0.42178 0.25492 0.58461
 N772 N 0.39264 0.25892 0.56693
 N773 N 0.38824 0.28539 0.54608
 C774 C 0.41277 0.30959 0.54154
 H775 H 0.53186 0.29624 0.59972
 H776 H 0.52253 0.34326 0.56297
 H777 H 0.42340 0.23324 0.60076
 H778 H 0.40804 0.33008 0.52364
 C779 C -0.01259 0.78343 0.08334
 C780 C -0.01691 0.81472 0.06743
 C781 C -0.01367 0.84511 0.08614
 C782 C -0.00635 0.84418 0.12199
 C783 C -0.00209 0.81220 0.13887
 C784 C -0.00475 0.78053 0.11925
 C785 C 0.00453 0.81337 0.17499
 N786 N 0.00760 0.84370 0.19212
 N787 N 0.00438 0.87334 0.17590
 C788 C -0.00254 0.87461 0.14148
 H789 H -0.01375 0.76167 0.06600
 H790 H -0.02204 0.81522 0.03973
 H791 H 0.00628 0.79068 0.19034
 H792 H -0.00503 0.89944 0.12967
 C793 C 0.03396 0.69934 0.09548
 C794 C 0.03397 0.67040 0.07428
 C795 C 0.00392 0.65579 0.06203
 C796 C -0.02709 0.67123 0.07073
 C797 C -0.02735 0.70176 0.09127
 C798 C 0.00367 0.71557 0.10577
 C799 C -0.05897 0.71731 0.09648
 N800 N -0.08779 0.70218 0.08463
 N801 N -0.08749 0.67251 0.06754
 C802 C -0.05821 0.65650 0.06027
 H803 H 0.05832 0.70745 0.10518
 H804 H 0.05797 0.65892 0.06777
 H805 H -0.06131 0.74181 0.10892
 H806 H -0.05975 0.63225 0.04670
 C807 C 0.51388 0.21502 0.57663
 C808 C 0.52229 0.18744 0.55568
 C809 C 0.50581 0.15607 0.55946
 C810 C 0.47944 0.15253 0.58434
 C811 C 0.46938 0.18112 0.60535
 C812 C 0.48903 0.21299 0.60355
 C813 C 0.43982 0.17579 0.62604
 N814 N 0.42459 0.14454 0.62821
 N815 N 0.43600 0.11771 0.61064
 C816 C 0.46281 0.12066 0.58876
 H817 H 0.52894 0.23807 0.57290
 H818 H 0.54203 0.19074 0.53612
 H819 H 0.42716 0.19559 0.63991
 H820 H 0.47084 0.09795 0.57501
 C821 C -0.03242 0.18473 0.40936
 C822 C -0.02691 0.15532 0.42850
 C823 C -0.00095 0.15403 0.45308
 C824 C 0.01675 0.18507 0.46077
 C825 C 0.00632 0.21588 0.44517
 C826 C -0.01189 0.21454 0.41302
 C827 C 0.00994 0.24539 0.46608
 N828 N 0.03233 0.24595 0.49269
 N829 N 0.04945 0.21823 0.50099
 C830 C 0.04258 0.18760 0.48555
 H831 H -0.05270 0.18315 0.39076
 H832 H -0.04346 0.13349 0.42374
 H833 H -0.00481 0.26783 0.46181
 H834 H 0.05684 0.16568 0.49316
 C835 C 0.51799 0.69598 0.91421
 C836 C 0.51176 0.66788 0.93523
 C837 C 0.48259 0.64766 0.93137
 C838 C 0.46020 0.65508 0.90385
 C839 C 0.46863 0.68153 0.87960
 C840 C 0.49570 0.70557 0.88758
 C841 C 0.44985 0.68163 0.84846
 N842 N 0.42160 0.66176 0.84514
 N843 N 0.41107 0.64097 0.87040
 C844 C 0.42926 0.63716 0.89974
 H845 H 0.54012 0.71121 0.92011
 H846 H 0.52996 0.66230 0.95522
 H847 H 0.45696 0.69682 0.82633
 H848 H 0.41902 0.62049 0.91961
 C849 C 0.52031 0.80270 0.88403
 C850 C 0.52709 0.83090 0.90513
 C851 C 0.51934 0.83034 0.94053
 C852 C 0.50354 0.80083 0.95488
 C853 C 0.49443 0.77245 0.93296
 C854 C 0.50620 0.77177 0.89707
 C855 C 0.47281 0.74732 0.94819
 N856 N 0.46564 0.74798 0.98280
 N857 N 0.47761 0.77257 1.00361
 C858 C 0.49629 0.79900 0.99083
 H859 H 0.52770 0.80497 0.85713
 H860 H 0.53828 0.85364 0.89346
 H861 H 0.46037 0.72748 0.93358
 H862 H 0.50521 0.81834 1.00898
 C863 C -0.02528 0.30590 0.39297
 C864 C -0.02075 0.33787 0.40810
 C865 C 0.00881 0.34659 0.42549
 C866 C 0.03559 0.32313 0.42583
 C867 C 0.03103 0.28982 0.41079
 C868 C -0.00156 0.27944 0.39666
 C869 C 0.05888 0.26761 0.41237
 N870 N 0.08814 0.27787 0.42763
 N871 N 0.09185 0.30871 0.44199
 C872 C 0.06653 0.33146 0.44198
 H873 H -0.04824 0.30285 0.37842
 H874 H -0.04079 0.35627 0.40603
 H875 H 0.05756 0.24155 0.40329
 H876 H 0.07098 0.35569 0.45490
 C877 C 0.30671 0.60413 0.46642
 C878 C 0.33170 0.58005 0.46210
 C879 C 0.33107 0.54958 0.48074
 C880 C 0.30408 0.54361 0.50470
 C881 C 0.28056 0.56996 0.51227
 C882 C 0.28042 0.60066 0.49158
 C883 C 0.25757 0.56409 0.54009
 N884 N 0.25548 0.53319 0.55572
 N885 N 0.27500 0.50754 0.54578
 C886 C 0.29898 0.51162 0.52068
 H887 H 0.30830 0.62510 0.44851
 H888 H 0.35168 0.58544 0.44332
 H889 H 0.24146 0.58374 0.55010
 H890 H 0.31307 0.48945 0.51289
 C891 C 0.79618 0.08861 0.01733
 C892 C 0.82246 0.06556 0.01946
 C893 C 0.84078 0.05629 -0.01018
 C894 C 0.83196 0.07033 -0.04263
 C895 C 0.80952 0.09824 -0.04399
 C896 C 0.78778 0.10519 -0.01421
 C897 C 0.81195 0.11806 -0.07470
 N898 N 0.82799 0.10599 -0.10353
 N899 N 0.84343 0.07615 -0.10359
 C900 C 0.84592 0.05785 -0.07404
 H901 H 0.78167 0.09312 0.04093
 H902 H 0.82871 0.05519 0.04463
 H903 H 0.80272 0.14351 -0.07648
 H904 H 0.85929 0.03400 -0.07517
 C905 C 0.72311 0.06950 -0.00360
 C906 C 0.69433 0.04874 -0.00096
 C907 C 0.66219 0.06246 -0.00145
 C908 C 0.65881 0.09809 -0.00532
 C909 C 0.68811 0.11988 -0.00702
 C910 C 0.72158 0.10558 -0.00707
 C911 C 0.68253 0.15544 -0.00756
 N912 N 0.65078 0.16769 -0.00913
 N913 N 0.62374 0.14699 -0.00978
 C914 C 0.62666 0.11267 -0.00790
 H915 H 0.74652 0.05596 -0.00461
 H916 H 0.69730 0.02140 0.00181
 H917 H 0.70272 0.17395 -0.00542
 H918 H 0.60376 0.09715 -0.00867
 C919 C 0.19104 0.60890 0.51770
 C920 C 0.16304 0.58717 0.52072
 C921 C 0.15918 0.55844 0.49937
 C922 C 0.18455 0.55165 0.47398
 C923 C 0.21174 0.57561 0.46844
 C924 C 0.21647 0.60442 0.49179
 C925 C 0.23366 0.56925 0.43993
 N926 N 0.23085 0.53983 0.42124
 N927 N 0.20746 0.51611 0.42878
 C928 C 0.18444 0.52089 0.45460
 H929 H 0.19259 0.62854 0.53740
 H930 H 0.14427 0.59281 0.54061
 H931 H 0.25281 0.58742 0.43177
 H932 H 0.16693 0.50013 0.46018
 C933 C 0.17622 0.40228 0.02718
 C934 C 0.14615 0.41870 0.02108
 C935 C 0.14115 0.43621 -0.00972
 C936 C 0.16715 0.43758 -0.03515
 C937 C 0.19879 0.42211 -0.02859
 C938 C 0.20391 0.40371 0.00346
 C939 C 0.22479 0.42771 -0.05351
 N940 N 0.21893 0.44519 -0.08311
 N941 N 0.18894 0.45836 -0.08957
 C942 C 0.16299 0.45546 -0.06649
 H943 H 0.17661 0.38761 0.05074
 H944 H 0.12618 0.41726 0.04062
 H945 H 0.25025 0.42019 -0.04927
 H946 H 0.13957 0.46762 -0.07277
 C947 C 0.69585 0.92262 0.50001
 C948 C 0.67150 0.94622 0.49188
 C949 C 0.67617 0.96850 0.46424
 C950 C 0.70649 0.96763 0.44464
 C951 C 0.73177 0.94334 0.45255
 C952 C 0.72659 0.91952 0.48080
 C953 C 0.76082 0.94337 0.43090
 N954 N 0.76463 0.96628 0.40476
 N955 N 0.74130 0.98932 0.39825
 C956 C 0.71232 0.99068 0.41719
 H957 H 0.69010 0.90738 0.52266
 H958 H 0.64846 0.94694 0.50742
 H959 H 0.78001 0.92469 0.43317
 H960 H 0.69411 1.00984 0.41067
 C961 C 0.81758 0.90854 0.48242
 C962 C 0.84772 0.92577 0.48978
 C963 C 0.84934 0.95083 0.51560
 C964 C 0.81923 0.96037 0.53295
 C965 C 0.78825 0.94207 0.52650
 C966 C 0.78704 0.91451 0.50115
 C967 C 0.75996 0.95154 0.54685
 N968 N 0.76191 0.97827 0.56948
 N969 N 0.79037 0.99637 0.57374
 C970 C 0.81906 0.98831 0.55633
 H971 H 0.81900 0.89028 0.46129
 H972 H 0.87032 0.91898 0.47528
 H973 H 0.73667 0.93731 0.54651
 H974 H 0.84132 1.00418 0.56065
 C975 C 0.29982 0.39024 0.02281
 C976 C 0.33138 0.40610 0.02335
 C977 C 0.33509 0.44089 0.01725
 C978 C 0.30594 0.46094 0.01370
 C979 C 0.27290 0.44515 0.01430
 C980 C 0.26974 0.40799 0.01575
 C981 C 0.24537 0.46795 0.01520
 N982 N 0.25039 0.50218 0.01272
 N983 N 0.28112 0.51620 0.01062
 C984 C 0.30896 0.49687 0.01155
 H985 H 0.29934 0.36275 0.02574
 H986 H 0.35343 0.39064 0.02744
 H987 H 0.21977 0.46032 0.02007
 H988 H 0.33308 0.51017 0.01173
 C989 C 0.56751 0.49188 0.27489
 C990 C 0.54525 0.48741 0.30277
 C991 C 0.55691 0.48214 0.33634
 C992 C 0.59217 0.48354 0.34238
 C993 C 0.61540 0.48717 0.31384
 C994 C 0.60318 0.49091 0.27864
 C995 C 0.65018 0.48850 0.32208
 N996 N 0.66059 0.48663 0.35551
 N997 N 0.63875 0.48403 0.38189
 C998 C 0.60502 0.48289 0.37653
 H999 H 0.55556 0.49372 0.24992
 H1000 H 0.51833 0.48677 0.29766
 H1001 H 0.66950 0.49282 0.30291
 H1002 H 0.58875 0.48262 0.39925
 C1003 C 0.10389 -0.03768 0.82691
 C1004 C 0.08690 -0.03632 0.85868
 C1005 C 0.07524 -0.00556 0.87220
 C1006 C 0.08128 0.02481 0.85314
 C1007 C 0.09620 0.02331 0.81919
 C1008 C 0.10924 -0.00849 0.80570
 C1009 C 0.09753 0.05406 0.80011
 N1010 N 0.08815 0.08396 0.81503
 N1011 N 0.07710 0.08553 0.84781
 C1012 C 0.07348 0.05706 0.86737
 H1013 H 0.11408 -0.06222 0.82051
 H1014 H 0.08292 -0.05989 0.87291
 H1015 H 0.10511 0.05486 0.77322
 H1016 H 0.06509 0.06010 0.89407
 C1017 C 0.07600 0.00221 0.73991
 C1018 C 0.05575 0.00586 0.71085
 C1019 C 0.06905 0.00303 0.67732
 C1020 C 0.10362 -0.00472 0.67293
 C1021 C 0.12495 -0.00773 0.70257
 C1022 C 0.11120 -0.00433 0.73743
 C1023 C 0.15958 -0.01332 0.69583
 N1024 N 0.17123 -0.01762 0.66278
 N1025 N 0.15082 -0.01652 0.63552
 C1026 C 0.11749 -0.01019 0.63946
 H1027 H 0.06280 0.00356 0.76456
 H1028 H 0.02921 0.01137 0.71471
 H1029 H 0.17800 -0.01299 0.71607
 H1030 H 0.10213 -0.00989 0.61633
 C1031 C 0.58942 0.52859 0.20863
 C1032 C 0.56635 0.53503 0.18263
 C1033 C 0.56060 0.51146 0.15601
 C1034 C 0.58143 0.48253 0.15312
 C1035 C 0.60568 0.47554 0.17953
 C1036 C 0.60757 0.49770 0.21026
 C1037 C 0.62730 0.44767 0.17238
 N1038 N 0.62358 0.42808 0.14338
 N1039 N 0.60045 0.43448 0.11968
 C1040 C 0.57968 0.46124 0.12328
 H1041 H 0.59097 0.54719 0.22961
 H1042 H 0.55158 0.55805 0.18434
 H1043 H 0.64873 0.44158 0.18753
 H1044 H 0.56292 0.46613 0.10197
 C1045 C 0.42925 -0.00211 0.20293
 C1046 C 0.44889 -0.00447 0.17297
 C1047 C 0.43461 -0.00264 0.14010
 C1048 C 0.39922 0.00093 0.13744
 C1049 C 0.37867 0.00281 0.16824
 C1050 C 0.39395 0.00402 0.20227
 C1051 C 0.34349 0.00388 0.16349
 N1052 N 0.33013 0.00497 0.13115
 N1053 N 0.34955 0.00496 0.10269
 C1054 C 0.38360 0.00327 0.10473
 H1055 H 0.44275 -0.00593 0.22682
 H1056 H 0.47573 -0.00879 0.17566
 H1057 H 0.32641 0.00489 0.18492
 H1058 H 0.39801 0.00412 0.08071
 C1059 C 0.88885 0.47717 0.68517
 C1060 C 0.90965 0.47199 0.65614
 C1061 C 0.93575 0.49504 0.64756
 C1062 C 0.93976 0.52498 0.66817
 C1063 C 0.92086 0.52880 0.69982
 C1064 C 0.89442 0.50441 0.70929
 C1065 C 0.92898 0.55752 0.72062
 N1066 N 0.95131 0.58183 0.70944
 N1067 N 0.96649 0.57956 0.67851
 C1068 C 0.96128 0.55215 0.65742
 H1069 H 0.86776 0.45947 0.68754
 H1070 H 0.90495 0.44962 0.63993
 H1071 H 0.91842 0.56084 0.74584
 H1072 H 0.97329 0.55253 0.63206
 C1073 C 0.92295 0.49918 0.77760
 C1074 C 0.94166 0.49836 0.80801
 C1075 C 0.92669 0.50519 0.84015
 C1076 C 0.89151 0.50989 0.84222
 C1077 C 0.87213 0.51154 0.81119
 C1078 C 0.88838 0.50848 0.77740
 C1079 C 0.83753 0.51826 0.81542
 N1080 N 0.82330 0.52125 0.84755
 N1081 N 0.84138 0.51833 0.87634
 C1082 C 0.87502 0.51290 0.87478
 H1083 H 0.93661 0.49254 0.75414
 H1084 H 0.96847 0.49324 0.80627
 H1085 H 0.82189 0.52280 0.79380
 H1086 H 0.88849 0.51061 0.89902
 C1087 C 0.40064 -0.01396 0.29620
 C1088 C 0.42243 -0.01117 0.32430
 C1089 C 0.44431 0.01678 0.32784
 C1090 C 0.44490 0.04246 0.30229
 C1091 C 0.42346 0.03951 0.27272
 C1092 C 0.39991 0.01084 0.26935
 C1093 C 0.42735 0.06513 0.24714
 N1094 N 0.44928 0.09181 0.25171
 N1095 N 0.46829 0.09483 0.27996
 C1096 C 0.46699 0.07101 0.30529
 H1097 H 0.38329 -0.03548 0.29724
 H1098 H 0.42152 -0.03077 0.34413
 H1099 H 0.41448 0.06394 0.22280
 H1100 H 0.48351 0.07452 0.32737
   
