data_POSCAR
  _audit_creation_date              2014-09-24
  _audit_creation_method            'ToBaCCo'
  _symmetry_space_group_name_H-M    'P1'
  _symmetry_Int_Tables_number       1
  _symmetry_cell_setting            triclinic
  loop_
  _symmetry_equiv_pos_as_xyz
 x,y,z
_cell_length_a 33.6975
_cell_length_b 33.8222
_cell_length_c 33.7063
_cell_angle_alpha 90.433000
_cell_angle_beta 90.000100
_cell_angle_gamma 90.000000
loop_
  _atom_site_label
  _atom_site_type_symbol
  _atom_site_fract_x
  _atom_site_fract_y
  _atom_site_fract_z
Zn1 Zn 0.78147 0.71697 0.78571
 Zn2 Zn 0.78453 0.77991 0.72387
 Zn3 Zn 0.72003 0.71949 0.72211
 Zn4 Zn 0.72122 0.78227 0.78504
 O5 O 0.75182 0.74962 0.75423
 O6 O 0.83385 0.72322 0.77812
 O7 O 0.77667 0.77258 0.67188
 O8 O 0.72711 0.66771 0.72904
 O9 O 0.83588 0.77031 0.73289
 O10 O 0.77186 0.66540 0.77688
 O11 O 0.72871 0.72791 0.67033
 O12 O 0.66925 0.77501 0.77688
 O13 O 0.77796 0.83170 0.73195
 O14 O 0.66822 0.72817 0.73065
 O15 O 0.73011 0.83387 0.77664
 O16 O 0.72938 0.77478 0.83688
 O17 O 0.77279 0.72560 0.83762
 C18 C 0.85331 0.74622 0.75572
 C19 C 0.75284 0.75060 0.65265
 C20 C 0.74899 0.64810 0.75236
 C21 C 0.65028 0.75182 0.75395
 C22 C 0.75449 0.85126 0.75399
 C23 C 0.75102 0.75057 0.85569
 Zn24 Zn 0.22096 0.71842 0.71651
 Zn25 Zn 0.22006 0.78143 0.77931
 Zn26 Zn 0.28242 0.71778 0.78015
 Zn27 Zn 0.28342 0.78057 0.71815
 O28 O 0.25171 0.74950 0.74863
 O29 O 0.16904 0.72556 0.72512
 O30 O 0.22833 0.77404 0.83115
 O31 O 0.27399 0.66589 0.77175
 O32 O 0.16820 0.77265 0.77110
 O33 O 0.22924 0.66692 0.72386
 O34 O 0.27341 0.72636 0.83200
 O35 O 0.33489 0.77248 0.72721
 O36 O 0.22792 0.83333 0.77123
 O37 O 0.33473 0.72560 0.77268
 O38 O 0.27578 0.83208 0.72652
 O39 O 0.27571 0.77314 0.66616
 O40 O 0.22932 0.72688 0.66469
 C41 C 0.15018 0.74854 0.74835
 C42 C 0.25075 0.75057 0.85001
 C43 C 0.25134 0.64794 0.74748
 C44 C 0.35327 0.74931 0.75024
 C45 C 0.25218 0.85118 0.74880
 C46 C 0.25262 0.75037 0.64696
 Zn47 Zn 0.71751 0.21778 0.78015
 Zn48 Zn 0.77898 0.21842 0.71652
 Zn49 Zn 0.71653 0.28057 0.71815
 Zn50 Zn 0.77988 0.28143 0.77931
 O51 O 0.74823 0.24950 0.74863
 O52 O 0.72595 0.16589 0.77175
 O53 O 0.77063 0.22688 0.66469
 O54 O 0.66505 0.27248 0.72720
 O55 O 0.77070 0.16692 0.72386
 O56 O 0.66521 0.22559 0.77268
 O57 O 0.72423 0.27314 0.66616
 O58 O 0.77202 0.33333 0.77123
 O59 O 0.83090 0.22556 0.72513
 O60 O 0.72417 0.33208 0.72652
 O61 O 0.83174 0.27265 0.77111
 O62 O 0.77161 0.27404 0.83116
 O63 O 0.72653 0.22636 0.83200
 C64 C 0.74860 0.14794 0.74748
 C65 C 0.74733 0.25037 0.64696
 C66 C 0.64668 0.24931 0.75023
 C67 C 0.74776 0.35118 0.74880
 C68 C 0.84976 0.24854 0.74836
 C69 C 0.74919 0.25057 0.85001
 Zn70 Zn 0.27991 0.21949 0.72211
 Zn71 Zn 0.21848 0.21698 0.78571
 Zn72 Zn 0.27872 0.28227 0.78504
 Zn73 Zn 0.21541 0.27992 0.72388
 O74 O 0.24813 0.24962 0.75423
 O75 O 0.27283 0.16771 0.72904
 O76 O 0.22716 0.22560 0.83762
 O77 O 0.33070 0.27501 0.77687
 O78 O 0.22809 0.16540 0.77688
 O79 O 0.33172 0.22817 0.73065
 O80 O 0.27057 0.27479 0.83687
 O81 O 0.22198 0.33170 0.73195
 O82 O 0.16609 0.22322 0.77813
 O83 O 0.26983 0.33387 0.77664
 O84 O 0.16406 0.27031 0.73290
 O85 O 0.22326 0.27258 0.67188
 O86 O 0.27122 0.22791 0.67033
 C87 C 0.25095 0.14810 0.75236
 C88 C 0.24893 0.25057 0.85569
 C89 C 0.34967 0.25182 0.75394
 C90 C 0.24545 0.35126 0.75399
 C91 C 0.14664 0.24622 0.75573
 C92 C 0.24709 0.25060 0.65265
 Zn93 Zn 0.72003 0.71949 0.22211
 Zn94 Zn 0.78453 0.77991 0.22388
 Zn95 Zn 0.72122 0.78227 0.28504
 Zn96 Zn 0.78146 0.71698 0.28571
 O97 O 0.75181 0.74962 0.25423
 O98 O 0.72872 0.72791 0.17033
 O99 O 0.77795 0.83170 0.23195
 O100 O 0.66924 0.77501 0.27687
 O101 O 0.77667 0.77258 0.17188
 O102 O 0.66822 0.72817 0.23065
 O103 O 0.73011 0.83387 0.27664
 O104 O 0.77278 0.72560 0.33762
 O105 O 0.83588 0.77031 0.23290
 O106 O 0.72937 0.77478 0.33687
 O107 O 0.83385 0.72322 0.27813
 O108 O 0.77185 0.66540 0.27688
 O109 O 0.72711 0.66771 0.22904
 C110 C 0.75284 0.75060 0.15265
 C111 C 0.75448 0.85126 0.25399
 C112 C 0.65027 0.75182 0.25394
 C113 C 0.75101 0.75057 0.35569
 C114 C 0.85330 0.74622 0.25573
 C115 C 0.74899 0.64810 0.25236
 Zn116 Zn 0.28341 0.78057 0.21815
 Zn117 Zn 0.22096 0.71842 0.21652
 Zn118 Zn 0.28243 0.71778 0.28015
 Zn119 Zn 0.22006 0.78143 0.27931
 O120 O 0.25171 0.74950 0.24863
 O121 O 0.27571 0.77314 0.16616
 O122 O 0.22923 0.66692 0.22386
 O123 O 0.33473 0.72559 0.27268
 O124 O 0.22931 0.72688 0.16469
 O125 O 0.33489 0.77248 0.22720
 O126 O 0.27398 0.66589 0.27175
 O127 O 0.22833 0.77404 0.33116
 O128 O 0.16904 0.72556 0.22512
 O129 O 0.27341 0.72636 0.33200
 O130 O 0.16820 0.77265 0.27111
 O131 O 0.22793 0.83333 0.27123
 O132 O 0.27577 0.83208 0.22652
 C133 C 0.25261 0.75038 0.14696
 C134 C 0.25134 0.64794 0.24748
 C135 C 0.35326 0.74931 0.25023
 C136 C 0.25075 0.75057 0.35001
 C137 C 0.15018 0.74854 0.24835
 C138 C 0.25218 0.85118 0.24880
 Zn139 Zn 0.71652 0.28057 0.21815
 Zn140 Zn 0.77898 0.21842 0.21652
 Zn141 Zn 0.77988 0.28143 0.27931
 Zn142 Zn 0.71752 0.21778 0.28015
 O143 O 0.74823 0.24950 0.24863
 O144 O 0.72423 0.27314 0.16616
 O145 O 0.83090 0.22556 0.22512
 O146 O 0.77202 0.33333 0.27123
 O147 O 0.77063 0.22688 0.16469
 O148 O 0.72417 0.33208 0.22652
 O149 O 0.83174 0.27265 0.27111
 O150 O 0.72653 0.22636 0.33200
 O151 O 0.77070 0.16692 0.22386
 O152 O 0.77161 0.27404 0.33115
 O153 O 0.72595 0.16589 0.27175
 O154 O 0.66521 0.22560 0.27268
 O155 O 0.66505 0.27248 0.22721
 C156 C 0.74732 0.25037 0.14696
 C157 C 0.84976 0.24854 0.24835
 C158 C 0.74776 0.35118 0.24880
 C159 C 0.74919 0.25057 0.35001
 C160 C 0.74860 0.14794 0.24748
 C161 C 0.64668 0.24931 0.25024
 Zn162 Zn 0.21541 0.27991 0.22387
 Zn163 Zn 0.27991 0.21949 0.22211
 Zn164 Zn 0.27872 0.28227 0.28504
 Zn165 Zn 0.21847 0.21698 0.28571
 O166 O 0.24813 0.24962 0.25423
 O167 O 0.22327 0.27258 0.17188
 O168 O 0.33172 0.22817 0.23065
 O169 O 0.26983 0.33387 0.27664
 O170 O 0.27123 0.22791 0.17033
 O171 O 0.22198 0.33170 0.23195
 O172 O 0.33069 0.27501 0.27688
 O173 O 0.22715 0.22560 0.33762
 O174 O 0.27283 0.16771 0.22904
 O175 O 0.27056 0.27479 0.33688
 O176 O 0.22809 0.16540 0.27688
 O177 O 0.16609 0.22322 0.27812
 O178 O 0.16406 0.27031 0.23289
 C179 C 0.24710 0.25060 0.15265
 C180 C 0.34967 0.25182 0.25395
 C181 C 0.24545 0.35126 0.25399
 C182 C 0.24892 0.25057 0.35569
 C183 C 0.25095 0.14810 0.25236
 C184 C 0.14664 0.24622 0.25572
 C185 C -0.02006 0.74312 0.75419
 C186 C -0.04119 0.70955 0.76633
 C187 C -0.08259 0.71068 0.76750
 C188 C -0.10289 0.74493 0.75597
 C189 C -0.08062 0.77790 0.74419
 N190 N -0.04032 0.77632 0.74394
 C191 C 0.02367 0.74343 0.75265
 N192 N 0.04356 0.77696 0.76310
 C193 C 0.08384 0.77923 0.76214
 C194 C 0.10640 0.74671 0.74925
 C195 C 0.08643 0.71210 0.73766
 C196 C 0.04512 0.71023 0.73963
 H197 H -0.09872 0.68466 0.77683
 H198 H -0.09519 0.80500 0.73548
 H199 H 0.09815 0.80655 0.77104
 H200 H 0.10278 0.68636 0.72756
 H201 H -0.02588 0.68294 0.77533
 H202 H 0.03011 0.68339 0.73040
 C203 C 0.75562 -0.02233 0.74855
 C204 C 0.78540 -0.04428 0.72919
 C205 C 0.78505 -0.08542 0.73118
 C206 C 0.75550 -0.10500 0.75279
 C207 C 0.72686 -0.08203 0.77258
 N208 N 0.72761 -0.04192 0.76994
 C209 C 0.75407 0.02148 0.74693
 N210 N 0.73271 0.04155 0.77489
 C211 C 0.73007 0.08170 0.77549
 C212 C 0.74981 0.10418 0.74673
 C213 C 0.77141 0.08409 0.71726
 C214 C 0.77340 0.04294 0.71706
 H215 H 0.80806 -0.10188 0.71587
 H216 H 0.70363 -0.09589 0.78975
 H217 H 0.71292 0.09595 0.79867
 H218 H 0.78669 0.10015 0.69415
 H219 H 0.80916 -0.03020 0.71306
 H220 H 0.78950 0.02847 0.69334
 C221 C 0.75186 0.75381 -0.01768
 C222 C 0.74115 0.78778 -0.03877
 C223 C 0.74044 0.78656 -0.08013
 C224 C 0.75100 0.75180 -0.10050
 C225 C 0.76152 0.71846 -0.07829
 N226 N 0.76132 0.72015 -0.03796
 C227 C 0.75255 0.75379 0.02607
 N228 N 0.73978 0.72124 0.04586
 C229 C 0.73936 0.71961 0.08617
 C230 C 0.75309 0.75179 0.10886
 C231 C 0.76707 0.78531 0.08900
 C232 C 0.76654 0.78656 0.04766
 H233 H 0.73209 0.81291 -0.09617
 H234 H 0.76948 0.69099 -0.09294
 H235 H 0.72871 0.69307 0.10041
 H236 H 0.77795 0.81073 0.10543
 H237 H 0.73280 0.81478 -0.02347
 H238 H 0.77753 0.81260 0.03274
 C239 C 0.52360 0.75356 0.75410
 C240 C 0.54462 0.78707 0.76705
 C241 C 0.58599 0.78634 0.76742
 C242 C 0.60646 0.75257 0.75432
 C243 C 0.58432 0.71962 0.74172
 N244 N 0.54397 0.72079 0.74224
 C245 C 0.47985 0.75325 0.75313
 N246 N 0.45987 0.71989 0.76355
 C247 C 0.41953 0.71797 0.76325
 C248 C 0.39706 0.75066 0.75112
 C249 C 0.41716 0.78506 0.73965
 C250 C 0.45847 0.78657 0.74093
 H251 H 0.60198 0.81234 0.77747
 H252 H 0.59903 0.69286 0.73183
 H253 H 0.40509 0.69080 0.77199
 H254 H 0.40093 0.81093 0.73009
 H255 H 0.52923 0.81334 0.77727
 H256 H 0.47353 0.81327 0.73178
 C257 C 0.25524 -0.02228 0.74735
 C258 C 0.28450 -0.04411 0.72711
 C259 C 0.28329 -0.08527 0.72755
 C260 C 0.25339 -0.10505 0.74848
 C261 C 0.22515 -0.08226 0.76904
 N262 N 0.22675 -0.04208 0.76792
 C263 C 0.25480 0.02161 0.74757
 N264 N 0.23370 0.04102 0.77619
 C265 C 0.23189 0.08118 0.77836
 C266 C 0.25222 0.10436 0.75058
 C267 C 0.27373 0.08499 0.72057
 C268 C 0.27489 0.04384 0.71878
 H269 H 0.30605 -0.10159 0.71173
 H270 H 0.20170 -0.09629 0.78576
 H271 H 0.21475 0.09487 0.80188
 H272 H 0.28941 0.10162 0.69815
 H273 H 0.30860 -0.02996 0.71156
 H274 H 0.29085 0.03000 0.69459
 C275 C 0.25128 0.75372 -0.02336
 C276 C 0.23944 0.78732 -0.04444
 C277 C 0.23882 0.78612 -0.08579
 C278 C 0.25058 0.75176 -0.10618
 C279 C 0.26220 0.71877 -0.08399
 N280 N 0.26189 0.72041 -0.04365
 C281 C 0.25197 0.75368 0.02039
 N282 N 0.24035 0.72070 0.04016
 C283 C 0.24004 0.71901 0.08047
 C284 C 0.25272 0.75161 0.10318
 C285 C 0.26552 0.78561 0.08333
 C286 C 0.26488 0.78688 0.04199
 H287 H 0.22961 0.81219 -0.10183
 H288 H 0.27110 0.69160 -0.09865
 H289 H 0.23031 0.69212 0.09470
 H290 H 0.27557 0.81136 0.09977
 H291 H 0.23017 0.81402 -0.02911
 H292 H 0.27497 0.81329 0.02710
 C293 C -0.02373 0.24343 0.75267
 C294 C -0.04518 0.21023 0.73965
 C295 C -0.08649 0.21210 0.73768
 C296 C -0.10646 0.24671 0.74926
 C297 C -0.08390 0.27923 0.76215
 N298 N -0.04362 0.27696 0.76311
 C299 C 0.02001 0.24313 0.75421
 N300 N 0.04026 0.27632 0.74396
 C301 C 0.08056 0.27790 0.74421
 C302 C 0.10284 0.24493 0.75598
 C303 C 0.08253 0.21069 0.76752
 C304 C 0.04113 0.20955 0.76635
 H305 H -0.10283 0.18635 0.72757
 H306 H -0.09821 0.30655 0.77105
 H307 H 0.09513 0.30500 0.73549
 H308 H 0.09866 0.18466 0.77684
 H309 H -0.03017 0.18339 0.73042
 H310 H 0.02582 0.18294 0.77535
 C311 C 0.74515 0.52161 0.74757
 C312 C 0.72505 0.54384 0.71878
 C313 C 0.72621 0.58499 0.72057
 C314 C 0.74772 0.60436 0.75058
 C315 C 0.76805 0.58118 0.77836
 N316 N 0.76624 0.54102 0.77619
 C317 C 0.74470 0.47772 0.74735
 N318 N 0.77319 0.45792 0.76793
 C319 C 0.77479 0.41774 0.76904
 C320 C 0.74655 0.39495 0.74848
 C321 C 0.71666 0.41473 0.72755
 C322 C 0.71544 0.45589 0.72711
 H323 H 0.71053 0.60162 0.69815
 H324 H 0.78519 0.59487 0.80188
 H325 H 0.79824 0.40371 0.78576
 H326 H 0.69389 0.39841 0.71173
 H327 H 0.70909 0.53000 0.69459
 H328 H 0.69134 0.47004 0.71155
 C329 C 0.74865 0.25372 -0.02336
 C330 C 0.76049 0.28732 -0.04443
 C331 C 0.76111 0.28612 -0.08579
 C332 C 0.74935 0.25176 -0.10618
 C333 C 0.73773 0.21877 -0.08399
 N334 N 0.73804 0.22041 -0.04365
 C335 C 0.74795 0.25368 0.02039
 N336 N 0.75958 0.22070 0.04016
 C337 C 0.75989 0.21901 0.08047
 C338 C 0.74721 0.25160 0.10318
 C339 C 0.73441 0.28560 0.08333
 C340 C 0.73504 0.28688 0.04200
 H341 H 0.77032 0.31219 -0.10183
 H342 H 0.72883 0.19159 -0.09865
 H343 H 0.76962 0.19212 0.09470
 H344 H 0.72436 0.31136 0.09977
 H345 H 0.76975 0.31402 -0.02911
 H346 H 0.72496 0.31329 0.02710
 C347 C 0.52009 0.25324 0.75312
 C348 C 0.54148 0.28657 0.74091
 C349 C 0.58278 0.28506 0.73964
 C350 C 0.60288 0.25066 0.75111
 C351 C 0.58041 0.21797 0.76324
 N352 N 0.54007 0.21989 0.76354
 C353 C 0.47634 0.25356 0.75409
 N354 N 0.45597 0.22079 0.74223
 C355 C 0.41562 0.21962 0.74171
 C356 C 0.39349 0.25258 0.75431
 C357 C 0.41395 0.28635 0.76740
 C358 C 0.45532 0.28707 0.76703
 H359 H 0.59902 0.31093 0.73007
 H360 H 0.59485 0.19080 0.77198
 H361 H 0.40091 0.19286 0.73182
 H362 H 0.39797 0.31234 0.77745
 H363 H 0.52641 0.31327 0.73176
 H364 H 0.47071 0.31334 0.77725
 C365 C 0.24587 0.52148 0.74693
 C366 C 0.22654 0.54294 0.71706
 C367 C 0.22854 0.58409 0.71725
 C368 C 0.25013 0.60418 0.74673
 C369 C 0.26988 0.58170 0.77549
 N370 N 0.26723 0.54155 0.77489
 C371 C 0.24432 0.47767 0.74855
 N372 N 0.27233 0.45808 0.76994
 C373 C 0.27308 0.41797 0.77258
 C374 C 0.24444 0.39500 0.75279
 C375 C 0.21489 0.41458 0.73118
 C376 C 0.21454 0.45572 0.72919
 H377 H 0.21326 0.60015 0.69415
 H378 H 0.28702 0.59595 0.79867
 H379 H 0.29631 0.40411 0.78975
 H380 H 0.19189 0.39812 0.71587
 H381 H 0.21044 0.52847 0.69334
 H382 H 0.19078 0.46980 0.71307
 C383 C 0.24809 0.25381 -0.01768
 C384 C 0.25881 0.28778 -0.03877
 C385 C 0.25952 0.28656 -0.08013
 C386 C 0.24896 0.25180 -0.10050
 C387 C 0.23843 0.21846 -0.07829
 N388 N 0.23863 0.22015 -0.03796
 C389 C 0.24741 0.25379 0.02607
 N390 N 0.26017 0.22124 0.04586
 C391 C 0.26059 0.21961 0.08617
 C392 C 0.24686 0.25179 0.10886
 C393 C 0.23288 0.28532 0.08900
 C394 C 0.23341 0.28656 0.04766
 H395 H 0.26787 0.31291 -0.09617
 H396 H 0.23047 0.19099 -0.09294
 H397 H 0.27124 0.19307 0.10042
 H398 H 0.22200 0.31074 0.10543
 H399 H 0.26716 0.31478 -0.02347
 H400 H 0.22243 0.31260 0.03274
 C401 C -0.02007 0.74313 0.25421
 C402 C -0.04119 0.70955 0.26634
 C403 C -0.08259 0.71069 0.26751
 C404 C -0.10290 0.74493 0.25598
 C405 C -0.08062 0.77790 0.24421
 N406 N -0.04032 0.77632 0.24396
 C407 C 0.02367 0.74343 0.25266
 N408 N 0.04356 0.77696 0.26311
 C409 C 0.08384 0.77924 0.26215
 C410 C 0.10640 0.74671 0.24926
 C411 C 0.08643 0.71210 0.23767
 C412 C 0.04512 0.71023 0.23965
 H413 H -0.09872 0.68466 0.27684
 H414 H -0.09519 0.80500 0.23549
 H415 H 0.09815 0.80655 0.27104
 H416 H 0.10277 0.68636 0.22757
 H417 H -0.02588 0.68294 0.27534
 H418 H 0.03011 0.68339 0.23042
 C419 C 0.75562 -0.02233 0.24855
 C420 C 0.78539 -0.04428 0.22919
 C421 C 0.78504 -0.08542 0.23118
 C422 C 0.75550 -0.10500 0.25279
 C423 C 0.72686 -0.08203 0.27258
 N424 N 0.72761 -0.04192 0.26994
 C425 C 0.75407 0.02148 0.24693
 N426 N 0.73271 0.04155 0.27489
 C427 C 0.73007 0.08170 0.27549
 C428 C 0.74981 0.10418 0.24673
 C429 C 0.77140 0.08409 0.21726
 C430 C 0.77340 0.04294 0.21706
 H431 H 0.80805 -0.10188 0.21587
 H432 H 0.70363 -0.09589 0.28975
 H433 H 0.71292 0.09595 0.29867
 H434 H 0.78668 0.10015 0.19415
 H435 H 0.80916 -0.03020 0.21307
 H436 H 0.78950 0.02847 0.19334
 C437 C 0.75253 0.75379 0.52607
 C438 C 0.76653 0.78656 0.54766
 C439 C 0.76706 0.78532 0.58900
 C440 C 0.75308 0.75179 0.60886
 C441 C 0.73935 0.71961 0.58617
 N442 N 0.73977 0.72123 0.54586
 C443 C 0.75185 0.75381 0.48232
 N444 N 0.76131 0.72015 0.46204
 C445 C 0.76151 0.71846 0.42171
 C446 C 0.75098 0.75180 0.39950
 C447 C 0.74042 0.78656 0.41987
 C448 C 0.74113 0.78778 0.46123
 H449 H 0.77794 0.81074 0.60543
 H450 H 0.72870 0.69307 0.60042
 H451 H 0.76947 0.69099 0.40706
 H452 H 0.73207 0.81291 0.40383
 H453 H 0.77751 0.81260 0.53274
 H454 H 0.73278 0.81478 0.47653
 C455 C 0.52360 0.75356 0.25409
 C456 C 0.54462 0.78707 0.26703
 C457 C 0.58599 0.78634 0.26740
 C458 C 0.60645 0.75257 0.25431
 C459 C 0.58432 0.71962 0.24171
 N460 N 0.54397 0.72079 0.24223
 C461 C 0.47985 0.75324 0.25312
 N462 N 0.45987 0.71989 0.26354
 C463 C 0.41953 0.71796 0.26324
 C464 C 0.39706 0.75066 0.25111
 C465 C 0.41716 0.78505 0.23964
 C466 C 0.45846 0.78657 0.24091
 H467 H 0.60197 0.81234 0.27745
 H468 H 0.59903 0.69286 0.23182
 H469 H 0.40509 0.69080 0.27198
 H470 H 0.40092 0.81093 0.23007
 H471 H 0.52923 0.81334 0.27725
 H472 H 0.47353 0.81327 0.23176
 C473 C 0.25524 -0.02228 0.24735
 C474 C 0.28450 -0.04411 0.22711
 C475 C 0.28329 -0.08527 0.22755
 C476 C 0.25339 -0.10505 0.24848
 C477 C 0.22515 -0.08226 0.26904
 N478 N 0.22675 -0.04208 0.26793
 C479 C 0.25480 0.02161 0.24757
 N480 N 0.23370 0.04102 0.27619
 C481 C 0.23189 0.08118 0.27836
 C482 C 0.25222 0.10436 0.25058
 C483 C 0.27373 0.08499 0.22057
 C484 C 0.27489 0.04384 0.21878
 H485 H 0.30605 -0.10159 0.21173
 H486 H 0.20170 -0.09629 0.28576
 H487 H 0.21475 0.09487 0.30188
 H488 H 0.28941 0.10162 0.19816
 H489 H 0.30860 -0.02996 0.21156
 H490 H 0.29085 0.03000 0.19460
 C491 C 0.25199 0.75368 0.52039
 C492 C 0.26490 0.78688 0.54200
 C493 C 0.26554 0.78561 0.58333
 C494 C 0.25274 0.75160 0.60318
 C495 C 0.24005 0.71901 0.58047
 N496 N 0.24036 0.72070 0.54015
 C497 C 0.25129 0.75372 0.47664
 N498 N 0.26190 0.72041 0.45635
 C499 C 0.26220 0.71877 0.41601
 C500 C 0.25059 0.75176 0.39382
 C501 C 0.23883 0.78612 0.41421
 C502 C 0.23945 0.78732 0.45557
 H503 H 0.27559 0.81136 0.59977
 H504 H 0.23032 0.69212 0.59470
 H505 H 0.27110 0.69159 0.40135
 H506 H 0.22962 0.81220 0.39817
 H507 H 0.27499 0.81329 0.52710
 H508 H 0.23019 0.81402 0.47089
 C509 C -0.02373 0.24343 0.25265
 C510 C -0.04518 0.21023 0.23964
 C511 C -0.08649 0.21210 0.23766
 C512 C -0.10646 0.24671 0.24925
 C513 C -0.08390 0.27924 0.26214
 N514 N -0.04362 0.27696 0.26310
 C515 C 0.02001 0.24313 0.25420
 N516 N 0.04026 0.27632 0.24394
 C517 C 0.08056 0.27790 0.24420
 C518 C 0.10283 0.24493 0.25597
 C519 C 0.08253 0.21068 0.26750
 C520 C 0.04113 0.20955 0.26633
 H521 H -0.10284 0.18635 0.22756
 H522 H -0.09821 0.30655 0.27104
 H523 H 0.09513 0.30500 0.23548
 H524 H 0.09866 0.18466 0.27683
 H525 H -0.03017 0.18339 0.23041
 H526 H 0.02582 0.18294 0.27533
 C527 C 0.74515 0.52161 0.24757
 C528 C 0.72505 0.54384 0.21878
 C529 C 0.72621 0.58499 0.22057
 C530 C 0.74772 0.60436 0.25058
 C531 C 0.76805 0.58118 0.27836
 N532 N 0.76624 0.54102 0.27619
 C533 C 0.74470 0.47772 0.24735
 N534 N 0.77319 0.45792 0.26792
 C535 C 0.77479 0.41774 0.26904
 C536 C 0.74655 0.39494 0.24848
 C537 C 0.71665 0.41473 0.22755
 C538 C 0.71544 0.45589 0.22711
 H539 H 0.71053 0.60162 0.19815
 H540 H 0.78519 0.59487 0.30188
 H541 H 0.79824 0.40371 0.28576
 H542 H 0.69389 0.39841 0.21173
 H543 H 0.70909 0.53000 0.19459
 H544 H 0.69134 0.47004 0.21155
 C545 C 0.74797 0.25368 0.52039
 C546 C 0.73506 0.28688 0.54200
 C547 C 0.73442 0.28561 0.58333
 C548 C 0.74722 0.25160 0.60318
 C549 C 0.75990 0.21901 0.58047
 N550 N 0.75959 0.22070 0.54016
 C551 C 0.74866 0.25372 0.47664
 N552 N 0.73805 0.22041 0.45635
 C553 C 0.73774 0.21877 0.41601
 C554 C 0.74936 0.25176 0.39382
 C555 C 0.76112 0.28612 0.41421
 C556 C 0.76050 0.28732 0.45557
 H557 H 0.72437 0.31136 0.59977
 H558 H 0.76963 0.19212 0.59470
 H559 H 0.72884 0.19160 0.40135
 H560 H 0.77033 0.31219 0.39817
 H561 H 0.72497 0.31329 0.52710
 H562 H 0.76977 0.31402 0.47089
 C563 C 0.52009 0.25325 0.25313
 C564 C 0.54147 0.28657 0.24092
 C565 C 0.58278 0.28506 0.23965
 C566 C 0.60288 0.25066 0.25112
 C567 C 0.58041 0.21797 0.26325
 N568 N 0.54007 0.21989 0.26355
 C569 C 0.47634 0.25356 0.25410
 N570 N 0.45597 0.22079 0.24224
 C571 C 0.41562 0.21962 0.24172
 C572 C 0.39349 0.25258 0.25432
 C573 C 0.41395 0.28635 0.26742
 C574 C 0.45532 0.28707 0.26705
 H575 H 0.59902 0.31093 0.23009
 H576 H 0.59485 0.19080 0.27199
 H577 H 0.40091 0.19286 0.23183
 H578 H 0.39796 0.31234 0.27746
 H579 H 0.52641 0.31327 0.23178
 H580 H 0.47071 0.31334 0.27727
 C581 C 0.24587 0.52148 0.24693
 C582 C 0.22653 0.54294 0.21706
 C583 C 0.22853 0.58409 0.21726
 C584 C 0.25012 0.60418 0.24673
 C585 C 0.26987 0.58170 0.27549
 N586 N 0.26723 0.54155 0.27489
 C587 C 0.24432 0.47767 0.24855
 N588 N 0.27233 0.45808 0.26994
 C589 C 0.27308 0.41797 0.27258
 C590 C 0.24444 0.39500 0.25279
 C591 C 0.21489 0.41458 0.23118
 C592 C 0.21454 0.45572 0.22919
 H593 H 0.21325 0.60015 0.19415
 H594 H 0.28702 0.59595 0.29867
 H595 H 0.29631 0.40411 0.28975
 H596 H 0.19188 0.39812 0.21587
 H597 H 0.21044 0.52847 0.19334
 H598 H 0.19078 0.46980 0.21307
 C599 C 0.24739 0.25379 0.52607
 C600 C 0.23340 0.28656 0.54766
 C601 C 0.23287 0.28532 0.58900
 C602 C 0.24685 0.25179 0.60886
 C603 C 0.26058 0.21961 0.58617
 N604 N 0.26015 0.22124 0.54586
 C605 C 0.24808 0.25381 0.48232
 N606 N 0.23862 0.22015 0.46204
 C607 C 0.23842 0.21846 0.42171
 C608 C 0.24895 0.25180 0.39950
 C609 C 0.25950 0.28656 0.41987
 C610 C 0.25879 0.28778 0.46123
 H611 H 0.22199 0.31074 0.60543
 H612 H 0.27123 0.19307 0.60041
 H613 H 0.23046 0.19099 0.40706
 H614 H 0.26785 0.31291 0.40383
 H615 H 0.22241 0.31260 0.53274
 H616 H 0.26714 0.31478 0.47653
   
