data_POSCAR
  _audit_creation_date              2014-09-24
  _audit_creation_method            'ToBaCCo'
  _symmetry_space_group_name_H-M    'P1'
  _symmetry_Int_Tables_number       1
  _symmetry_cell_setting            triclinic
  loop_
  _symmetry_equiv_pos_as_xyz
 x,y,z
_cell_length_a 41.7537
_cell_length_b 24.1922
_cell_length_c 14.0461
_cell_angle_alpha 89.968100
_cell_angle_beta 90.000000
_cell_angle_gamma 89.997100
loop_
  _atom_site_label
  _atom_site_type_symbol
  _atom_site_fract_x
  _atom_site_fract_y
  _atom_site_fract_z
C1 C 0.72388 0.27272 0.55025
 C2 C 0.72672 0.28039 0.45032
 C3 C 0.75396 0.26099 0.40268
 C4 C 0.77837 0.23164 0.44995
 C5 C 0.77587 0.22402 0.55070
 C6 C 0.74815 0.24313 0.59776
 H7 H 0.74710 0.24024 0.67469
 H8 H 0.75458 0.26470 0.32575
 C9 C 0.22445 0.77322 0.55059
 C10 C 0.22561 0.77707 0.45028
 C11 C 0.25209 0.75565 0.40158
 C12 C 0.27727 0.72953 0.45017
 C13 C 0.27638 0.72556 0.55143
 C14 C 0.24938 0.74673 0.59951
 H15 H 0.24852 0.74595 0.67664
 H16 H 0.25247 0.75723 0.32441
 C17 C 0.27403 0.27618 -0.55060
 C18 C 0.27588 0.27041 -0.45080
 C19 C 0.25151 0.24250 -0.40211
 C20 C 0.22429 0.22181 -0.44966
 C21 C 0.22256 0.22713 -0.55119
 C22 C 0.24725 0.25565 -0.59905
 H23 H 0.24704 0.25839 -0.67611
 H24 H 0.25277 0.24079 -0.32505
 C25 C -0.22580 0.77566 -0.54993
 C26 C -0.22440 0.77139 -0.44986
 C27 C -0.24941 0.74530 -0.40101
 C28 C -0.27646 0.72395 -0.44856
 C29 C -0.27775 0.72773 -0.55036
 C30 C -0.25241 0.75442 -0.59842
 H31 H -0.25245 0.75660 -0.67553
 H32 H -0.24827 0.74414 -0.32390
 O33 O 0.04433 0.90393 -0.17524
 O34 O 0.07971 0.95346 -0.08360
 C35 C 0.07304 0.91825 -0.15010
 O36 O -0.04501 1.10117 -0.16691
 O37 O -0.08042 1.04832 -0.08101
 C38 C -0.07373 1.08644 -0.14263
 O39 O 0.04451 1.09646 -0.17431
 O40 O 0.07981 1.04648 -0.08308
 C41 C 0.07319 1.08210 -0.14905
 O42 O -0.04508 0.89925 -0.16747
 O43 O -0.08049 0.95184 -0.08110
 C44 C -0.07379 0.91397 -0.14325
 Zr45 Zr -0.00040 0.93012 -0.12018
 O46 O -0.00381 0.92934 -0.27055
 O47 O 0.00310 0.84281 -0.11694
 Zr48 Zr -0.00030 1.06979 -0.12035
 O49 O -0.00372 1.06958 -0.27077
 O50 O 0.00322 1.15711 -0.11909
 O51 O 0.02827 0.99993 -0.13893
 O52 O -0.02816 1.00003 -0.13786
 O53 O -0.04543 0.90012 0.16773
 O54 O -0.08066 0.95258 0.08039
 C55 C -0.07412 0.91512 0.14333
 O56 O 0.04438 1.09592 0.17476
 O57 O 0.07969 1.04626 0.08317
 C58 C 0.07308 1.08148 0.14960
 O59 O -0.04551 1.10031 0.16597
 O60 O -0.08084 1.04769 0.07918
 C61 C -0.07423 1.08550 0.14139
 O62 O 0.04421 0.90419 0.17558
 O63 O 0.07964 0.95349 0.08371
 C64 C 0.07294 0.91846 0.15051
 Zr65 Zr -0.00049 0.93007 0.11965
 O66 O -0.00386 0.92805 0.26996
 O67 O 0.00290 0.84275 0.11481
 Zr68 Zr -0.00044 1.06986 0.11961
 O69 O -0.00397 1.07104 0.26995
 O70 O 0.00310 1.15718 0.11651
 Zr71 Zr 0.04757 0.99989 -0.00013
 Zr72 Zr -0.04828 1.00007 -0.00046
 O73 O -0.02819 1.00005 0.13708
 O74 O 0.02809 0.99993 0.13851
 O75 O -0.02922 0.91933 -0.00031
 O76 O 0.02759 1.07981 -0.00022
 O77 O 0.02757 0.92002 -0.00013
 O78 O -0.02907 1.08071 -0.00047
 H79 H -0.04246 1.00010 -0.19416
 H80 H 0.04204 1.11229 -0.00006
 H81 H -0.04239 1.00020 0.19359
 H82 H 0.04211 0.88764 -0.00000
 H83 H -0.01481 1.17143 -0.08068
 H84 H -0.01590 1.17151 0.08244
 H85 H 0.01328 1.04721 0.29530
 H86 H 0.01247 0.95373 0.29526
 H87 H -0.01661 0.82863 0.08314
 H88 H -0.01551 0.82863 -0.08084
 H89 H 0.01329 0.95362 -0.29555
 H90 H 0.01436 1.04749 -0.29563
 O91 O 0.45571 0.40314 0.17511
 O92 O 0.42018 0.45181 0.08260
 C93 C 0.42694 0.41711 0.14984
 O94 O 0.54502 0.59812 0.16791
 O95 O 0.58030 0.54618 0.08000
 C96 C 0.57372 0.58348 0.14309
 O97 O 0.45532 0.59384 0.17476
 O98 O 0.41999 0.54435 0.08294
 C99 C 0.42663 0.57944 0.14960
 O100 O 0.54515 0.39775 0.16498
 O101 O 0.58036 0.45059 0.07824
 C102 C 0.57382 0.41269 0.14041
 Zr103 Zr 0.50030 0.42783 0.11692
 O104 O 0.50156 0.41869 0.26657
 O105 O 0.49918 0.34114 0.09905
 Zr106 Zr 0.50017 0.56783 0.11991
 O107 O 0.50319 0.56766 0.27039
 O108 O 0.49674 0.65517 0.11821
 O109 O 0.47180 0.49766 0.13747
 O110 O 0.52797 0.49782 0.13602
 O111 O 0.54524 0.39892 -0.16862
 O112 O 0.58059 0.45190 -0.08240
 C113 C 0.57396 0.41398 -0.14450
 O114 O 0.45522 0.59563 -0.17429
 O115 O 0.41993 0.54529 -0.08365
 C116 C 0.42654 0.58105 -0.14939
 O117 O 0.54463 0.60078 -0.16621
 O118 O 0.58015 0.54779 -0.08090
 C119 C 0.57337 0.58614 -0.14208
 O120 O 0.45550 0.40305 -0.17714
 O121 O 0.42006 0.45235 -0.08522
 C122 C 0.42678 0.41726 -0.15192
 Zr123 Zr 0.50021 0.42938 -0.12217
 O124 O 0.50360 0.42957 -0.27256
 O125 O 0.49730 0.34201 -0.12087
 Zr126 Zr 0.49999 0.56908 -0.12007
 O127 O 0.50346 0.57011 -0.27045
 O128 O 0.49629 0.65636 -0.11684
 Zr129 Zr 0.45217 0.49843 -0.00104
 Zr130 Zr 0.54803 0.49887 -0.00144
 O131 O 0.52790 0.49947 -0.13882
 O132 O 0.47150 0.49922 -0.13981
 O133 O 0.52909 0.41809 -0.00276
 O134 O 0.47210 0.57837 0.00020
 O135 O 0.47207 0.41852 -0.00243
 O136 O 0.52878 0.57944 -0.00002
 H137 H 0.54224 0.49758 0.19235
 H138 H 0.45761 0.61081 0.00064
 H139 H 0.54221 0.49988 -0.19507
 H140 H 0.45747 0.38621 -0.00246
 H141 H 0.51571 0.66961 0.08411
 H142 H 0.51451 0.67056 -0.07905
 H143 H 0.48585 0.54707 -0.29576
 H144 H 0.48615 0.45322 -0.29718
 H145 H 0.51444 0.32825 -0.07834
 H146 H 0.49861 0.32525 0.16404
 H147 H 0.50411 0.45610 0.29354
 H148 H 0.48552 0.54433 0.29473
 C149 C 0.35203 0.34715 0.29202
 C150 C 0.32094 0.36790 0.28046
 C151 C 0.29541 0.34439 0.33074
 C152 C 0.30082 0.30015 0.39353
 C153 C 0.33199 0.27897 0.40348
 C154 C 0.35745 0.30250 0.35328
 C155 C 0.37843 0.37178 0.24162
 C156 C 0.40063 0.39238 0.19976
 H157 H 0.31647 0.40241 0.23310
 H158 H 0.27156 0.36124 0.32201
 H159 H 0.33660 0.24436 0.45046
 H160 H 0.38137 0.28598 0.36247
 C161 C -0.14901 0.84692 0.28806
 C162 C -0.15874 0.79245 0.27106
 C163 C -0.18393 0.76959 0.32340
 C164 C -0.19958 0.80088 0.39365
 C165 C -0.19001 0.85578 0.40955
 C166 C -0.16477 0.87860 0.35717
 C167 C -0.12267 0.87012 0.23540
 C168 C -0.10051 0.89008 0.19241
 H169 H -0.14673 0.76758 0.21779
 H170 H -0.19097 0.72719 0.31013
 H171 H -0.20201 0.88078 0.46261
 H172 H -0.15748 0.92085 0.37075
 C173 C 0.64859 0.65331 0.28564
 C174 C 0.66179 0.62498 0.36308
 C175 C 0.68646 0.64888 0.41625
 C176 C 0.69808 0.70213 0.39381
 C177 C 0.68533 0.72918 0.31312
 C178 C 0.66065 0.70514 0.26015
 C179 C 0.62231 0.62947 0.23352
 C180 C 0.60013 0.60900 0.19135
 H181 H 0.65294 0.58443 0.38264
 H182 H 0.69663 0.62534 0.47444
 H183 H 0.69335 0.77019 0.29335
 H184 H 0.65065 0.72738 0.20013
 C185 C 0.14862 1.15109 0.28882
 C186 C 0.16306 1.12252 0.36389
 C187 C 0.18801 1.14685 0.41510
 C188 C 0.19865 1.20079 0.39316
 C189 C 0.18486 1.22796 0.31418
 C190 C 0.15987 1.20346 0.26313
 C191 C 0.12194 1.12691 0.23923
 C192 C 0.09953 1.10641 0.19836
 H193 H 0.15488 1.08153 0.38335
 H194 H 0.19904 1.12326 0.47183
 H195 H 0.19219 1.26939 0.29474
 H196 H 0.14894 1.22580 0.20467
 C197 C 0.64834 0.34334 -0.28784
 C198 C 0.66016 0.29098 -0.26453
 C199 C 0.68517 0.26779 -0.31739
 C200 C 0.69858 0.29633 -0.39566
 C201 C 0.68679 0.34971 -0.41652
 C202 C 0.66183 0.37271 -0.36353
 C203 C 0.62225 0.36711 -0.23487
 C204 C 0.60026 0.38798 -0.19244
 H205 H 0.64987 0.26786 -0.20595
 H206 H 0.69314 0.22655 -0.29897
 H207 H 0.69749 0.37473 -0.47189
 H208 H 0.65319 0.41367 -0.38133
 C209 C 0.14776 0.84753 -0.29149
 C210 C 0.16596 0.87949 -0.35453
 C211 C 0.19118 0.85547 -0.40506
 C212 C 0.19830 0.79908 -0.39359
 C213 C 0.18030 0.76743 -0.32904
 C214 C 0.15507 0.79153 -0.27843
 C215 C 0.12144 0.87218 -0.24096
 C216 C 0.09933 0.89311 -0.19926
 H217 H 0.16058 0.92290 -0.36486
 H218 H 0.20508 0.88077 -0.45345
 H219 H 0.18547 0.72393 -0.31913
 H220 H 0.14116 0.76647 -0.22968
 C221 C 0.35250 0.65459 -0.29001
 C222 C 0.32074 0.64539 -0.26268
 C223 C 0.29565 0.66957 -0.31386
 C224 C 0.30190 0.70276 -0.39454
 C225 C 0.33416 0.71313 -0.41885
 C226 C 0.35914 0.68893 -0.36754
 C227 C 0.37834 0.62855 -0.23923
 C228 C 0.40024 0.60678 -0.19779
 H229 H 0.31534 0.61896 -0.20248
 H230 H 0.27133 0.66012 -0.29260
 H231 H 0.34026 0.74107 -0.47621
 H232 H 0.38368 0.69711 -0.38832
 C233 C -0.14788 1.15970 -0.28301
 C234 C -0.17956 1.14615 -0.26087
 C235 C -0.20474 1.16803 -0.31462
 C236 C -0.19860 1.20327 -0.39274
 C237 C -0.16651 1.21801 -0.41184
 C238 C -0.14143 1.19608 -0.35792
 C239 C -0.12189 1.13482 -0.23115
 C240 C -0.09997 1.11317 -0.18963
 H241 H -0.18481 1.11791 -0.20303
 H242 H -0.22892 1.15522 -0.29756
 H243 H -0.16072 1.24708 -0.46790
 H244 H -0.11698 1.20729 -0.37506
 C245 C 0.64713 0.66054 -0.28229
 C246 C 0.67883 0.64879 -0.25767
 C247 C 0.70400 0.67053 -0.31144
 C248 C 0.69788 0.70381 -0.39207
 C249 C 0.66576 0.71700 -0.41366
 C250 C 0.64064 0.69517 -0.35967
 C251 C 0.62125 0.63536 -0.23046
 C252 C 0.59949 0.61330 -0.18888
 H253 H 0.68410 0.62194 -0.19792
 H254 H 0.72823 0.65898 -0.29240
 H255 H 0.65998 0.74460 -0.47189
 H256 H 0.61615 0.70498 -0.37875
 C257 C 0.14760 1.15560 -0.28791
 C258 C 0.17927 1.14374 -0.26275
 C259 C 0.20460 1.16671 -0.31448
 C260 C 0.19863 1.20120 -0.39364
 C261 C 0.16654 1.21471 -0.41519
 C262 C 0.14131 1.19171 -0.36330
 C263 C 0.12151 1.12983 -0.23786
 C264 C 0.09950 1.10802 -0.19702
 H265 H 0.18439 1.11595 -0.20419
 H266 H 0.22881 1.15508 -0.29537
 H267 H 0.16086 1.24329 -0.47209
 H268 H 0.11686 1.20181 -0.38249
 C269 C 0.35230 0.34558 -0.29295
 C270 C 0.33351 0.37756 -0.35436
 C271 C 0.30840 0.35320 -0.40485
 C272 C 0.30198 0.29645 -0.39501
 C273 C 0.32059 0.26474 -0.33207
 C274 C 0.34571 0.28920 -0.28149
 C275 C 0.37851 0.37065 -0.24253
 C276 C 0.40053 0.39190 -0.20095
 H277 H 0.33833 0.42125 -0.36345
 H278 H 0.29402 0.37854 -0.45193
 H279 H 0.31597 0.22097 -0.32340
 H280 H 0.36011 0.26412 -0.23400
 C281 C -0.14737 0.84094 -0.28677
 C282 C -0.17898 0.85751 -0.27007
 C283 C -0.20398 0.83453 -0.32299
 C284 C -0.19762 0.79488 -0.39357
 C285 C -0.16588 0.77790 -0.40932
 C286 C -0.14087 0.80100 -0.35635
 C287 C -0.12160 0.86593 -0.23408
 C288 C -0.09992 0.88755 -0.19135
 H289 H -0.18428 0.88848 -0.21663
 H290 H -0.22829 0.84816 -0.30982
 H291 H -0.16053 0.74692 -0.46263
 H292 H -0.11648 0.78791 -0.36989
 C293 C 0.35179 0.65117 0.28895
 C294 C 0.33325 0.62004 0.35238
 C295 C 0.30846 0.64520 0.40328
 C296 C 0.30222 0.70192 0.39189
 C297 C 0.32031 0.73256 0.32611
 C298 C 0.34507 0.70732 0.27519
 C299 C 0.37809 0.62578 0.23942
 C300 C 0.40027 0.60461 0.19842
 H301 H 0.33816 0.57652 0.36321
 H302 H 0.29449 0.62073 0.45275
 H303 H 0.31578 0.77627 0.31618
 H304 H 0.35924 0.73172 0.22608
 C305 C -0.14852 1.15694 0.28397
 C306 C -0.15944 1.21000 0.26154
 C307 C -0.18384 1.23433 0.31529
 C308 C -0.19747 1.20626 0.39368
 C309 C -0.18687 1.15198 0.41317
 C310 C -0.16250 1.12782 0.35924
 C311 C -0.12255 1.13260 0.23126
 C312 C -0.10056 1.11159 0.18907
 H313 H -0.14878 1.23291 0.20330
 H314 H -0.19101 1.27616 0.29789
 H315 H -0.19771 1.12772 0.46938
 H316 H -0.15450 1.08639 0.37647
 C317 C 0.64893 0.34329 0.28205
 C318 C 0.64389 0.29884 0.34407
 C319 C 0.66928 0.27790 0.39793
 C320 C 0.69994 0.30160 0.39099
 C321 C 0.70498 0.34545 0.32710
 C322 C 0.67956 0.36634 0.27321
 C323 C 0.62247 0.36651 0.23005
 C324 C 0.60024 0.38693 0.18814
 H325 H 0.62030 0.28070 0.35142
 H326 H 0.66500 0.24353 0.44572
 H327 H 0.72845 0.36416 0.32050
 H328 H 0.68369 0.40083 0.22555
 C329 C 0.14768 0.84789 0.29251
 C330 C 0.17890 0.86767 0.27937
 C331 C 0.20436 0.84416 0.32985
 C332 C 0.19879 0.80085 0.39441
 C333 C 0.16748 0.78060 0.40603
 C334 C 0.14206 0.80415 0.35560
 C335 C 0.12137 0.87268 0.24197
 C336 C 0.09924 0.89350 0.20010
 H337 H 0.18351 0.90148 0.23064
 H338 H 0.22832 0.86031 0.31986
 H339 H 0.16274 0.74672 0.45445
 H340 H 0.11803 0.78839 0.36606
   
