data_POSCAR
  _audit_creation_date              2014-09-24
  _audit_creation_method            'ToBaCCo'
  _symmetry_space_group_name_H-M    'P1'
  _symmetry_Int_Tables_number       1
  _symmetry_cell_setting            triclinic
  loop_
  _symmetry_equiv_pos_as_xyz
 x,y,z
_cell_length_a 42.2271
_cell_length_b 42.2754
_cell_length_c 42.1367
_cell_angle_alpha 90.000200
_cell_angle_beta 89.999900
_cell_angle_gamma 89.904400
loop_
  _atom_site_label
  _atom_site_type_symbol
  _atom_site_fract_x
  _atom_site_fract_y
  _atom_site_fract_z
C1 C 0.16106 0.18318 0.20792
 C2 C 0.16108 0.20664 0.18440
 C3 C 0.18432 0.20663 0.16117
 C4 C 0.20782 0.18315 0.16119
 C5 C 0.20781 0.15995 0.18445
 C6 C 0.18429 0.15996 0.20795
 C7 C 0.14150 0.17745 0.23344
 N8 N 0.15242 0.15143 0.24871
 C9 C 0.17849 0.14047 0.23350
 C10 C 0.23334 0.14043 0.17869
 N11 N 0.24857 0.15137 0.15262
 C12 C 0.23334 0.17739 0.14165
 C13 C 0.17856 0.23211 0.14162
 N14 N 0.15251 0.24735 0.15254
 C15 C 0.14157 0.23213 0.17860
 H16 H 0.12095 0.19116 0.24041
 H17 H 0.19219 0.11994 0.24053
 H18 H 0.24033 0.11991 0.19241
 H19 H 0.24034 0.19108 0.12109
 H20 H 0.19226 0.23911 0.12107
 H21 H 0.12101 0.23915 0.19228
 C22 C -0.16106 0.81682 0.20792
 C23 C -0.16108 0.79335 0.18440
 C24 C -0.18432 0.79337 0.16117
 C25 C -0.20782 0.81685 0.16119
 C26 C -0.20781 0.84005 0.18444
 C27 C -0.18429 0.84004 0.20795
 C28 C -0.14150 0.82255 0.23344
 N29 N -0.15242 0.84857 0.24870
 C30 C -0.17849 0.85954 0.23350
 C31 C -0.23334 0.85956 0.17868
 N32 N -0.24857 0.84862 0.15261
 C33 C -0.23334 0.82260 0.14165
 C34 C -0.17856 0.76788 0.14163
 N35 N -0.15251 0.75264 0.15255
 C36 C -0.14156 0.76786 0.17861
 H37 H -0.12095 0.80884 0.24041
 H38 H -0.19219 0.88006 0.24052
 H39 H -0.24034 0.88009 0.19240
 H40 H -0.24034 0.80890 0.12109
 H41 H -0.19226 0.76088 0.12108
 H42 H -0.12101 0.76084 0.19229
 C43 C -0.16152 0.18329 -0.20753
 C44 C -0.16159 0.20682 -0.18408
 C45 C -0.18482 0.20690 -0.16085
 C46 C -0.20828 0.18344 -0.16080
 C47 C -0.20821 0.16018 -0.18399
 C48 C -0.18469 0.16010 -0.20750
 C49 C -0.14196 0.17748 -0.23305
 N50 N -0.15283 0.15144 -0.24824
 C51 C -0.17886 0.14054 -0.23300
 C52 C -0.23369 0.14070 -0.17819
 N53 N -0.24896 0.15172 -0.15216
 C54 C -0.23380 0.17776 -0.14125
 C55 C -0.17911 0.23245 -0.14138
 N56 N -0.15309 0.24762 -0.15236
 C57 C -0.14213 0.23231 -0.17837
 H58 H -0.12145 0.19116 -0.24007
 H59 H -0.19251 0.12001 -0.23997
 H60 H -0.24063 0.12015 -0.19187
 H61 H -0.24085 0.19151 -0.12073
 H62 H -0.19282 0.23954 -0.12085
 H63 H -0.12160 0.23926 -0.19209
 C64 C 0.16151 0.81670 -0.20753
 C65 C 0.16158 0.79317 -0.18407
 C66 C 0.18482 0.79309 -0.16085
 C67 C 0.20827 0.81655 -0.16080
 C68 C 0.20820 0.83981 -0.18399
 C69 C 0.18468 0.83989 -0.20750
 C70 C 0.14194 0.82251 -0.23304
 N71 N 0.15281 0.84855 -0.24824
 C72 C 0.17885 0.85945 -0.23300
 C73 C 0.23368 0.85929 -0.17820
 N74 N 0.24896 0.84827 -0.15216
 C75 C 0.23380 0.82223 -0.14126
 C76 C 0.17910 0.76754 -0.14138
 N77 N 0.15309 0.75237 -0.15236
 C78 C 0.14212 0.76768 -0.17837
 H79 H 0.12144 0.80883 -0.24006
 H80 H 0.19251 0.87998 -0.23998
 H81 H 0.24062 0.87984 -0.19187
 H82 H 0.24084 0.80848 -0.12074
 H83 H 0.19281 0.76045 -0.12085
 H84 H 0.12159 0.76074 -0.19208
 C85 C 0.18289 1.16111 0.79229
 C86 C 0.20640 1.16115 0.81578
 C87 C 0.20644 1.18439 0.83897
 C88 C 0.18296 1.20787 0.83894
 C89 C 0.15971 1.20785 0.81571
 C90 C 0.15967 1.18433 0.79225
 C91 C 0.17714 1.14156 0.76681
 N92 N 0.15110 1.15249 0.75156
 C93 C 0.14014 1.17854 0.76673
 C94 C 0.14021 1.23337 0.82143
 N95 N 0.15121 1.24861 0.84745
 C96 C 0.17725 1.23341 0.85843
 C97 C 0.23198 1.17866 0.85847
 N98 N 0.24718 1.15262 0.84755
 C99 C 0.23191 1.14165 0.82154
 H100 H 0.19085 1.12102 0.75984
 H101 H 0.11960 1.19224 0.75969
 H102 H 0.11966 1.24036 0.80771
 H103 H 0.19099 1.24043 0.87895
 H104 H 0.23904 1.19236 0.87898
 H105 H 0.23891 1.12111 0.80787
 C106 C 0.81711 0.83889 0.79229
 C107 C 0.79361 0.83885 0.81578
 C108 C 0.79357 0.81561 0.83897
 C109 C 0.81704 0.79213 0.83894
 C110 C 0.84030 0.79215 0.81572
 C111 C 0.84033 0.81567 0.79225
 C112 C 0.82287 0.85844 0.76680
 N113 N 0.84891 0.84751 0.75156
 C114 C 0.85986 0.82145 0.76673
 C115 C 0.85979 0.76663 0.82143
 N116 N 0.84878 0.75138 0.84745
 C117 C 0.82274 0.76659 0.85843
 C118 C 0.76803 0.82134 0.85847
 N119 N 0.75282 0.84738 0.84755
 C120 C 0.76810 0.85835 0.82154
 H121 H 0.80915 0.87897 0.75983
 H122 H 0.88040 0.80776 0.75969
 H123 H 0.88034 0.75963 0.80771
 H124 H 0.80900 0.75957 0.87895
 H125 H 0.76096 0.80764 0.87898
 H126 H 0.76110 0.87889 0.80786
 C127 C 0.18339 0.83944 1.20786
 C128 C 0.20688 0.83941 1.18435
 C129 C 0.20693 0.81621 1.16112
 C130 C 0.18350 0.79276 1.16113
 C131 C 0.16028 0.79278 1.18437
 C132 C 0.16022 0.81625 1.20787
 C133 C 0.17762 0.85895 1.23339
 N134 N 0.15161 0.84803 1.24863
 C135 C 0.14069 0.82202 1.23342
 C136 C 0.14084 0.76729 1.17861
 N137 N 0.15184 0.75206 1.15256
 C138 C 0.17783 0.76727 1.14162
 C139 C 0.23244 0.82192 1.14160
 N140 N 0.24762 0.84791 1.15255
 C141 C 0.23235 0.85887 1.17859
 H142 H 0.19130 0.87945 1.24038
 H143 H 0.12019 0.80834 1.24045
 H144 H 0.12032 0.76028 1.19231
 H145 H 0.19154 0.76025 1.12107
 H146 H 0.23950 0.80822 1.12106
 H147 H 0.23934 0.87938 1.19229
 C148 C 0.81660 1.16055 1.20786
 C149 C 0.79311 1.16058 1.18435
 C150 C 0.79306 1.18378 1.16113
 C151 C 0.81649 1.20723 1.16114
 C152 C 0.83972 1.20721 1.18437
 C153 C 0.83978 1.18374 1.20787
 C154 C 0.82237 1.14104 1.23339
 N155 N 0.84838 1.15196 1.24863
 C156 C 0.85930 1.17797 1.23342
 C157 C 0.85915 1.23270 1.17861
 N158 N 0.84815 1.24792 1.15256
 C159 C 0.82216 1.23271 1.14162
 C160 C 0.76755 1.17807 1.14161
 N161 N 0.75237 1.15208 1.15256
 C162 C 0.76764 1.14112 1.17860
 H163 H 0.80869 1.12054 1.24039
 H164 H 0.87981 1.19165 1.24045
 H165 H 0.87968 1.23971 1.19230
 H166 H 0.80844 1.23974 1.12107
 H167 H 0.76049 1.19177 1.12107
 H168 H 0.76065 1.12061 1.19229
 N169 N 0.53322 1.03408 1.05615
 N170 N 0.55722 1.03811 1.07582
 N171 N 0.46653 1.05602 1.03412
 N172 N 0.44249 1.07563 1.03820
 N173 N 0.46658 1.03404 1.05616
 N174 N 0.44259 1.03807 1.07586
 N175 N 0.53318 1.05605 1.03411
 N176 N 0.55713 1.07566 1.03815
 C177 C 0.57178 1.06411 1.06423
 C178 C 0.42790 1.06407 1.06430
 N179 N 0.46662 1.03406 0.94370
 N180 N 0.44263 1.03811 0.92401
 N181 N 0.53323 1.05606 0.96574
 N182 N 0.55719 1.07568 0.96169
 N183 N 0.53328 1.03408 0.94369
 N184 N 0.55727 1.03814 0.92402
 N185 N 0.46658 1.05603 0.96575
 N186 N 0.44256 1.07564 0.96170
 Mn187 Mn 0.49988 1.05641 0.99993
 C188 C 0.42797 1.06411 0.93561
 C189 C 0.57185 1.06414 0.93560
 N190 N 0.46678 0.96590 1.05615
 N191 N 0.44279 0.96187 1.07582
 N192 N 0.53347 0.94396 1.03411
 N193 N 0.55751 0.92435 1.03819
 N194 N 0.53342 0.96594 1.05615
 N195 N 0.55741 0.96190 1.07585
 N196 N 0.46682 0.94393 1.03411
 N197 N 0.44286 0.92432 1.03815
 Mn198 Mn 0.50000 0.99999 1.05653
 C199 C 0.42822 0.93587 1.06423
 C200 C 0.57210 0.93591 1.06429
 N201 N 0.53337 0.96593 0.94369
 N202 N 0.55737 0.96188 0.92401
 N203 N 0.46677 0.94393 0.96574
 N204 N 0.44281 0.92431 0.96169
 N205 N 0.46672 0.96590 0.94369
 N206 N 0.44272 0.96185 0.92402
 N207 N 0.53342 0.94396 0.96574
 N208 N 0.55743 0.92434 0.96169
 Mn209 Mn 0.50000 0.99999 0.94331
 Mn210 Mn 0.50012 0.94357 0.99992
 Cl211 Cl 0.50000 0.99999 0.99992
 C212 C 0.57203 0.93589 0.93561
 C213 C 0.42815 0.93584 0.93560
 N214 N -0.03419 0.46680 -0.05675
 N215 N -0.03827 0.44281 -0.07639
 N216 N -0.05606 0.53346 -0.03470
 N217 N -0.07565 0.55749 -0.03876
 N218 N -0.03406 0.53338 -0.05675
 N219 N -0.03806 0.55736 -0.07643
 N220 N -0.05618 0.46689 -0.03470
 N221 N -0.07584 0.44297 -0.03871
 C222 C -0.06431 0.42829 -0.06478
 C223 C -0.06407 0.57205 -0.06485
 N224 N -0.03406 0.53342 0.05571
 N225 N -0.03809 0.55738 0.07542
 N226 N -0.05617 0.46692 0.03367
 N227 N -0.07583 0.44300 0.03772
 N228 N -0.03417 0.46685 0.05571
 N229 N -0.03822 0.44289 0.07538
 N230 N -0.05606 0.53349 0.03367
 N231 N -0.07567 0.55751 0.03775
 Mn232 Mn -0.05649 0.50019 -0.00052
 C233 C -0.06411 0.57207 0.06385
 C234 C -0.06427 0.42837 0.06380
 N235 N 0.03417 0.53319 -0.05675
 N236 N 0.03825 0.55719 -0.07639
 N237 N 0.05604 0.46653 -0.03471
 N238 N 0.07563 0.44249 -0.03876
 N239 N 0.03405 0.46661 -0.05675
 N240 N 0.03804 0.44264 -0.07643
 N241 N 0.05617 0.53310 -0.03470
 N242 N 0.07583 0.55703 -0.03871
 Mn243 Mn -0.00001 0.50000 -0.05713
 C244 C 0.06430 0.57171 -0.06477
 C245 C 0.06403 0.42794 -0.06485
 N246 N 0.03405 0.46657 0.05571
 N247 N 0.03807 0.44261 0.07541
 N248 N 0.05616 0.53307 0.03368
 N249 N 0.07582 0.55698 0.03773
 N250 N 0.03416 0.53314 0.05571
 N251 N 0.03821 0.55709 0.07538
 N252 N 0.05604 0.46649 0.03366
 N253 N 0.07566 0.44247 0.03774
 Mn254 Mn -0.00001 0.49999 0.05609
 Mn255 Mn 0.05648 0.49980 -0.00052
 Cl256 Cl -0.00001 0.50000 -0.00052
 C257 C 0.06408 0.42791 0.06383
 C258 C 0.06425 0.57162 0.06380
 N259 N 0.94397 -0.03411 0.46680
 N260 N 0.92431 -0.03817 0.44278
 N261 N 0.96603 -0.05608 0.53358
 N262 N 0.96204 -0.07573 0.55760
 N263 N 0.94398 -0.03413 0.53360
 N264 N 0.92434 -0.03822 0.55763
 N265 N 0.96602 -0.05607 0.46679
 N266 N 0.96198 -0.07570 0.44275
 C267 C 0.93591 -0.06417 0.42811
 C268 C 0.93598 -0.06422 0.57225
 N269 N 1.05619 -0.03402 0.53363
 N270 N 1.07585 -0.03805 0.55767
 N271 N 1.03425 -0.05601 0.46684
 N272 N 1.03833 -0.07563 0.44281
 N273 N 1.05619 -0.03403 0.46684
 N274 N 1.07584 -0.03807 0.44279
 N275 N 1.03426 -0.05602 0.53363
 N276 N 1.03838 -0.07564 0.55768
 Mn277 Mn 1.00014 -0.05642 0.50021
 C278 C 1.06438 -0.06406 0.57233
 C279 C 1.06433 -0.06408 0.42815
 N280 N 0.94381 0.03402 0.53363
 N281 N 0.92415 0.03804 0.55767
 N282 N 0.96576 0.05601 0.46684
 N283 N 0.96167 0.07563 0.44281
 N284 N 0.94381 0.03403 0.46684
 N285 N 0.92416 0.03807 0.44280
 N286 N 0.96574 0.05602 0.53364
 N287 N 0.96163 0.07563 0.55768
 Mn288 Mn 0.94351 -0.00005 0.50022
 C289 C 0.93562 0.06405 0.57233
 C290 C 0.93567 0.06408 0.42816
 N291 N 1.05603 0.03411 0.46680
 N292 N 1.07569 0.03818 0.44278
 N293 N 1.03397 0.05608 0.53358
 N294 N 1.03796 0.07572 0.55760
 N295 N 1.05602 0.03413 0.53360
 N296 N 1.07566 0.03822 0.55763
 N297 N 1.03398 0.05607 0.46679
 N298 N 1.03802 0.07570 0.44275
 Mn299 Mn 1.05649 0.00005 0.50022
 Mn300 Mn 0.99986 0.05642 0.50021
 Cl301 Cl 1.00000 -0.00000 0.50022
 C302 C 1.06409 0.06417 0.42812
 C303 C 1.06402 0.06422 0.57225
 C304 C 1.13969 0.13880 0.27453
 C305 C 1.12809 0.12735 0.29802
 C306 C 1.11450 0.11399 0.32554
 C307 C 1.10290 0.10260 0.34905
 C308 C 1.08934 0.08926 0.37660
 C309 C 1.07780 0.07784 0.40011
 C310 C 0.86031 -0.13879 0.27453
 C311 C 0.87191 -0.12734 0.29802
 C312 C 0.88550 -0.11398 0.32554
 C313 C 0.89710 -0.10259 0.34905
 C314 C 0.91066 -0.08925 0.37659
 C315 C 0.92221 -0.07783 0.40011
 C316 C 0.85991 0.13875 0.72594
 C317 C 0.87151 0.12726 0.70245
 C318 C 0.88511 0.11386 0.67493
 C319 C 0.89671 0.10245 0.65142
 C320 C 0.91030 0.08910 0.62387
 C321 C 0.92187 0.07769 0.60034
 C322 C 1.14008 -0.13876 0.72594
 C323 C 1.12848 -0.12727 0.70245
 C324 C 1.11488 -0.11387 0.67493
 C325 C 1.10328 -0.10246 0.65142
 C326 C 1.08970 -0.08911 0.62387
 C327 C 1.07813 -0.07770 0.60034
 C328 C 0.27439 1.13871 1.13991
 C329 C 0.29787 1.12723 1.12833
 C330 C 0.32538 1.11385 1.11476
 C331 C 0.34888 1.10245 1.10317
 C332 C 0.37641 1.08911 1.08961
 C333 C 0.39992 1.07770 1.07804
 C334 C 0.27476 0.86090 0.86053
 C335 C 0.29822 0.87238 0.87205
 C336 C 0.32572 0.88582 0.88551
 C337 C 0.34920 0.89729 0.89698
 C338 C 0.37671 0.91072 0.91042
 C339 C 0.40019 0.92218 0.92191
 C340 C 0.72561 0.86128 1.13990
 C341 C 0.70213 0.87274 1.12832
 C342 C 0.67461 0.88612 1.11475
 C343 C 0.65112 0.89751 1.10316
 C344 C 0.62358 0.91086 1.08959
 C345 C 0.60008 0.92227 1.07803
 C346 C 0.72524 1.13909 0.86054
 C347 C 0.70177 1.12761 0.87206
 C348 C 0.67428 1.11417 0.88552
 C349 C 0.65080 1.10269 0.89699
 C350 C 0.62328 1.08927 0.91043
 C351 C 0.59980 1.07781 0.92191
 C352 C 0.13911 0.27459 0.13910
 C353 C 0.12759 0.29804 0.12756
 C354 C 0.11412 0.32551 0.11406
 C355 C 0.10264 0.34898 0.10255
 C356 C 0.08919 0.37647 0.08907
 C357 C 0.07773 0.39996 0.07756
 C358 C -0.13972 0.27490 -0.13905
 C359 C -0.12818 0.29837 -0.12765
 C360 C -0.11464 0.32587 -0.11436
 C361 C -0.10308 0.34935 -0.10304
 C362 C -0.08955 0.37686 -0.08976
 C363 C -0.07801 0.40034 -0.07839
 C364 C 0.13971 0.72509 -0.13905
 C365 C 0.12817 0.70162 -0.12765
 C366 C 0.11464 0.67412 -0.11436
 C367 C 0.10307 0.65064 -0.10303
 C368 C 0.08954 0.62313 -0.08975
 C369 C 0.07800 0.59965 -0.07838
 C370 C -0.13911 0.72539 0.13912
 C371 C -0.12760 0.70194 0.12758
 C372 C -0.11414 0.67446 0.11409
 C373 C -0.10267 0.65099 0.10257
 C374 C -0.08924 0.62349 0.08910
 C375 C -0.07777 0.60001 0.07758
 C376 C 1.13846 0.13978 0.72575
 C377 C 1.12701 0.12820 0.70227
 C378 C 1.11368 0.11463 0.67477
 C379 C 1.10232 0.10304 0.65127
 C380 C 1.08902 0.08948 0.62374
 C381 C 1.07763 0.07793 0.60023
 C382 C 0.86155 -0.13978 0.72574
 C383 C 0.87299 -0.12821 0.70226
 C384 C 0.88632 -0.11464 0.67476
 C385 C 0.89768 -0.10305 0.65126
 C386 C 0.91098 -0.08949 0.62374
 C387 C 0.92237 -0.07794 0.60023
 C388 C 1.13896 -0.13930 0.27448
 C389 C 1.12751 -0.12776 0.29799
 C390 C 1.11414 -0.11425 0.32552
 C391 C 1.10275 -0.10271 0.34905
 C392 C 1.08940 -0.08922 0.37661
 C393 C 1.07798 -0.07773 0.40015
 C394 C 0.86103 0.13929 0.27448
 C395 C 0.87249 0.12775 0.29799
 C396 C 0.88585 0.11424 0.32553
 C397 C 0.89725 0.10271 0.34906
 C398 C 0.91059 0.08922 0.37662
 C399 C 0.92201 0.07773 0.40015
 C400 C 0.13859 0.27444 -0.13991
 C401 C 0.12713 0.29792 -0.12842
 C402 C 0.11375 0.32543 -0.11496
 C403 C 0.10234 0.34892 -0.10347
 C404 C 0.08900 0.37645 -0.09002
 C405 C 0.07762 0.39996 -0.07853
 C406 C -0.13857 0.27517 0.13915
 C407 C -0.12719 0.29861 0.12760
 C408 C -0.11391 0.32607 0.11405
 C409 C -0.10257 0.34953 0.10250
 C410 C -0.08928 0.37701 0.08899
 C411 C -0.07790 0.40046 0.07748
 C412 C -0.13860 0.72555 -0.13992
 C413 C -0.12716 0.70206 -0.12842
 C414 C -0.11380 0.67454 -0.11497
 C415 C -0.10242 0.65104 -0.10347
 C416 C -0.08908 0.62351 -0.09002
 C417 C -0.07767 0.60001 -0.07853
 C418 C 0.13856 0.72482 0.13915
 C419 C 0.12717 0.70138 0.12760
 C420 C 0.11388 0.67391 0.11407
 C421 C 0.10255 0.65045 0.10251
 C422 C 0.08927 0.62298 0.08900
 C423 C 0.07788 0.59952 0.07748
 C424 C 0.27447 1.13924 0.86091
 C425 C 0.29796 1.12773 0.87237
 C426 C 0.32547 1.11424 0.88574
 C427 C 0.34897 1.10272 0.89714
 C428 C 0.37650 1.08925 0.91051
 C429 C 0.40000 1.07776 0.92194
 C430 C 0.27487 0.86123 1.13917
 C431 C 0.29833 0.87267 1.12767
 C432 C 0.32581 0.88605 1.11423
 C433 C 0.34929 0.89747 1.10275
 C434 C 0.37680 0.91082 1.08933
 C435 C 0.40028 0.92225 1.07788
 C436 C 0.72512 1.13876 1.13917
 C437 C 0.70166 1.12731 1.12768
 C438 C 0.67418 1.11393 1.11423
 C439 C 0.65071 1.10252 1.10275
 C440 C 0.62320 1.08916 1.08933
 C441 C 0.59972 1.07773 1.07788
 C442 C 0.72553 0.86076 0.86091
 C443 C 0.70205 0.87227 0.87236
 C444 C 0.67453 0.88576 0.88574
 C445 C 0.65103 0.89728 0.89714
 C446 C 0.62350 0.91075 0.91051
 C447 C 0.60000 0.92223 0.92194
   
