data_POSCAR
  _audit_creation_date              2014-09-24
  _audit_creation_method            'ToBaCCo'
  _symmetry_space_group_name_H-M    'P1'
  _symmetry_Int_Tables_number       1
  _symmetry_cell_setting            triclinic
  loop_
  _symmetry_equiv_pos_as_xyz
 x,y,z
_cell_length_a 28.0488
_cell_length_b 27.3388
_cell_length_c 29.0794
_cell_angle_alpha 90.476800
_cell_angle_beta 90.089900
_cell_angle_gamma 89.120600
loop_
  _atom_site_label
  _atom_site_type_symbol
  _atom_site_fract_x
  _atom_site_fract_y
  _atom_site_fract_z
C1 C 0.15312 0.12841 0.21156
 N2 N 0.19262 0.11164 0.18940
 C3 C 0.20841 0.13402 0.15101
 N4 N 0.18388 0.17339 0.13428
 C5 C 0.14398 0.19030 0.15613
 N6 N 0.12878 0.16775 0.19472
 C7 C -0.14301 0.86699 0.21054
 N8 N -0.18298 0.88976 0.19453
 C9 C -0.20297 0.87592 0.15410
 N10 N -0.18227 0.83916 0.12910
 C11 C -0.14210 0.81621 0.14438
 N12 N -0.12243 0.83011 0.18525
 C13 C -0.14698 0.12572 -0.19691
 N14 N -0.11885 0.16371 -0.18376
 C15 C -0.12825 0.18875 -0.14404
 N16 N -0.16565 0.17556 -0.11758
 C17 C -0.19441 0.13867 -0.13071
 N18 N -0.18476 0.11361 -0.17030
 C19 C 0.12549 0.85831 -0.20172
 N20 N 0.11233 0.82109 -0.17421
 C21 C 0.13819 0.81009 -0.13605
 N22 N 0.17712 0.83678 -0.12537
 C23 C 0.19028 0.87451 -0.15258
 N24 N 0.16415 0.88528 -0.19055
 C25 C 0.12316 1.14072 0.79773
 N26 N 0.10765 1.18115 0.82057
 C27 C 0.13179 1.19855 0.85739
 N28 N 0.17168 1.17442 0.87226
 C29 C 0.18725 1.13322 0.84992
 N30 N 0.16302 1.11663 0.81253
 C31 C 0.85498 0.86605 0.79367
 N32 N 0.88017 0.82512 0.80591
 C33 C 0.86913 0.80088 0.84508
 N34 N 0.83264 0.81781 0.87184
 C35 C 0.80732 0.85829 0.85980
 N36 N 0.81884 0.88256 0.82094
 C37 C 0.12188 0.87537 1.19109
 N38 N 0.10240 0.84224 1.16206
 C39 C 0.12740 0.82466 1.12557
 N40 N 0.17157 0.84198 1.11662
 C41 C 0.19051 0.87712 1.14430
 N42 N 0.16586 0.89315 1.18187
 C43 C 0.84710 1.12960 1.20473
 N44 N 0.81211 1.11594 1.17521
 C45 C 0.80374 1.14149 1.13601
 N46 N 0.83131 1.18048 1.12599
 C47 C 0.86699 1.19404 1.15506
 N48 N 0.87457 1.16848 1.19425
 O49 O 0.42911 0.91578 0.90994
 O50 O 0.37696 0.96222 0.95337
 C51 C 0.38645 0.92848 0.92306
 O52 O 0.56465 0.90318 1.06662
 O53 O 0.61636 0.95306 1.02870
 C54 C 0.60721 0.91729 1.05609
 O55 O 0.43061 0.90143 1.06295
 O56 O 0.37788 0.95537 1.02930
 C57 C 0.38773 0.91705 1.05379
 O58 O 0.56249 0.92490 0.89977
 O59 O 0.61507 0.96113 0.94954
 C60 C 0.60529 0.93509 0.91336
 Zr61 Zr 0.49615 0.94394 0.93011
 O62 O 0.50329 0.86754 0.91920
 O63 O 0.49056 0.95612 0.85862
 Zr64 Zr 0.49730 0.93208 1.04602
 O65 O 0.50252 0.85487 1.04223
 O66 O 0.49252 0.92870 1.11861
 O67 O 0.45460 0.92901 0.98744
 O68 O 0.53807 0.92859 0.98680
 O69 O 0.56323 1.08673 0.91422
 O70 O 0.61598 1.04124 0.95742
 C71 C 0.60613 1.07262 0.92547
 O72 O 0.42965 1.08110 1.08230
 O73 O 0.37744 1.04081 1.03490
 C74 C 0.38699 1.07140 1.06777
 O75 O 0.56374 1.07152 1.08771
 O76 O 0.61637 1.03459 1.03742
 C77 C 0.60661 1.06065 1.07382
 O78 O 0.42924 1.09856 0.92462
 O79 O 0.37715 1.04699 0.95999
 C80 C 0.38652 1.08461 0.93483
 Zr81 Zr 0.49633 1.06679 0.94201
 O82 O 0.50386 1.14329 0.95032
 O83 O 0.48967 1.07570 0.87010
 Zr84 Zr 0.49686 1.05532 1.05772
 O85 O 0.50323 1.13228 1.06260
 O86 O 0.49137 1.05141 1.13011
 Zr87 Zr 0.42588 1.00046 0.99426
 Zr88 Zr 0.56755 0.99861 0.99394
 O89 O 0.53829 1.06959 1.00057
 O90 O 0.45422 1.07117 1.00092
 O91 O 0.53848 1.00549 0.92735
 O92 O 0.45558 0.99338 1.06041
 O93 O 0.45442 1.00669 0.92782
 O94 O 0.53957 0.99213 1.06083
 H95 H 0.55947 0.89965 0.98316
 H96 H 0.43379 0.99103 1.08706
 H97 H 0.56069 1.09718 1.00292
 H98 H 0.43206 1.00931 0.90150
 H99 H 0.52345 0.93925 1.13143
 H100 H 0.51088 1.02290 1.13983
 H101 H 0.47420 1.14710 1.04885
 H102 H 0.47733 1.15511 0.97004
 H103 H 0.50738 1.04812 0.85551
 H104 H 0.49004 0.92330 0.84394
 H105 H 0.48192 0.85155 0.94128
 H106 H 0.48041 0.84406 1.01781
 O107 O 0.06885 0.56435 -0.09145
 O108 O 0.03597 0.62017 -0.04083
 C109 C 0.05922 0.60876 -0.07799
 O110 O -0.09399 0.42890 -0.05522
 O111 O -0.03945 0.37589 -0.02286
 C112 C -0.07787 0.38524 -0.04627
 O113 O -0.09411 0.56589 -0.06165
 O114 O -0.04290 0.62065 -0.02857
 C115 C -0.07956 0.60994 -0.05370
 O116 O 0.07869 0.42727 -0.08246
 O117 O 0.04329 0.37552 -0.03141
 C118 C 0.07106 0.38416 -0.06582
 Zr119 Zr 0.05397 0.49706 -0.05927
 O120 O 0.04190 0.48800 -0.13068
 O121 O 0.12804 0.50311 -0.07161
 Zr122 Zr -0.06450 0.49818 -0.03990
 O123 O -0.07504 0.49083 -0.11175
 O124 O -0.13902 0.50312 -0.02889
 O125 O -0.00742 0.54108 -0.05937
 O126 O -0.00605 0.45467 -0.05696
 O127 O 0.10776 0.43282 0.07065
 O128 O 0.05354 0.37809 0.04237
 C129 C 0.09277 0.38867 0.06372
 O130 O -0.06158 0.57107 0.10359
 O131 O -0.02892 0.62352 0.05156
 C132 C -0.05229 0.61459 0.08902
 O133 O -0.07386 0.43479 0.09589
 O134 O -0.03082 0.37894 0.05307
 C135 C -0.06299 0.39028 0.08349
 O136 O 0.10214 0.57024 0.07357
 O137 O 0.05037 0.62287 0.03695
 C138 C 0.08735 0.61383 0.06248
 Zr139 Zr 0.07409 0.50083 0.05575
 O140 O 0.08110 0.49743 0.12819
 O141 O 0.14899 0.50488 0.04980
 Zr142 Zr -0.04383 0.50170 0.07495
 O143 O -0.02633 0.49493 0.14553
 O144 O -0.11627 0.50922 0.09392
 Zr145 Zr 0.00408 0.57260 0.00611
 Zr146 Zr 0.00588 0.42663 0.00931
 O147 O 0.01694 0.45822 0.07457
 O148 O 0.01620 0.54566 0.07306
 O149 O 0.07397 0.45578 -0.00235
 O150 O -0.06334 0.54256 0.01819
 O151 O 0.07229 0.54116 -0.00429
 O152 O -0.06292 0.45695 0.01966
 H153 H -0.00980 0.43149 -0.08305
 H154 H -0.09115 0.56487 0.02268
 H155 H 0.02111 0.43562 0.10080
 H156 H 0.09974 0.56268 -0.00991
 H157 H -0.14755 0.47695 -0.00723
 H158 H -0.13513 0.50313 0.06579
 H159 H -0.01023 0.52530 0.15516
 H160 H 0.07228 0.53001 0.14091
 H161 H 0.15741 0.49021 0.01968
 H162 H 0.14435 0.47567 -0.05578
 H163 H 0.01767 0.51273 -0.13983
 H164 H -0.06254 0.52050 -0.12648
 O165 O 1.09304 -0.07995 0.55886
 O166 O 1.04198 -0.04422 0.61130
 C167 C 1.07884 -0.07106 0.60064
 O168 O 1.07080 0.09775 0.43779
 O169 O 1.03197 0.04886 0.38571
 C170 C 1.05910 0.08523 0.39616
 O171 O 1.08262 0.08230 0.56674
 O172 O 1.03824 0.03562 0.61551
 C173 C 1.07149 0.06673 0.60738
 O174 O 1.08851 -0.07912 0.42972
 O175 O 1.03974 -0.03423 0.38218
 C176 C 1.07477 -0.06466 0.38932
 Zr177 Zr 1.06145 -0.05901 0.49546
 O178 O 1.13678 -0.06315 0.49415
 O179 O 1.05825 -0.13613 0.49313
 Zr180 Zr 1.05343 0.06453 0.50125
 O181 O 1.12825 0.07021 0.49428
 O182 O 1.04834 0.14121 0.51137
 O183 O 1.06715 0.00146 0.53883
 O184 O 1.06571 0.00524 0.45858
 O185 O 0.92009 -0.09173 0.43043
 O186 O 0.96125 -0.04148 0.38211
 C187 C 0.93267 -0.07734 0.38976
 O188 O 0.90977 0.08199 0.56837
 O189 O 0.95612 0.03492 0.61629
 C190 C 0.92373 0.06834 0.60895
 O191 O 0.91244 0.09105 0.43947
 O192 O 0.95351 0.04425 0.38646
 C193 C 0.92364 0.07897 0.39750
 O194 O 0.91877 -0.09577 0.55967
 O195 O 0.95991 -0.04880 0.61154
 C196 C 0.93069 -0.08352 0.60131
 Zr197 Zr 0.94112 -0.06554 0.49641
 O198 O 0.86574 -0.06677 0.49303
 O199 O 0.94490 -0.14290 0.49617
 Zr200 Zr 0.93283 0.05761 0.50234
 O201 O 0.85848 0.04579 0.49828
 O202 O 0.91819 0.13347 0.50757
 Zr203 Zr 0.99812 -0.00326 0.56719
 Zr204 Zr 0.99653 0.00234 0.43076
 O205 O 0.92784 -0.00258 0.45912
 O206 O 0.92814 -0.00615 0.54086
 O207 O 1.00160 -0.07012 0.45454
 O208 O 0.99348 0.06857 0.54193
 O209 O 1.00265 -0.07275 0.53557
 O210 O 0.99197 0.07234 0.46172
 H211 H 1.09336 0.00883 0.43780
 H212 H 0.99354 0.09643 0.56393
 H213 H 0.90031 -0.00295 0.43771
 H214 H 1.00549 -0.10227 0.55500
 H215 H 1.02636 0.15422 0.48763
 H216 H 0.94919 0.14941 0.51244
 H217 H 0.84743 0.03716 0.52944
 H218 H 0.85333 -0.05109 0.52147
 H219 H 0.97027 -0.15278 0.47423
 H220 H 1.09175 -0.14807 0.49403
 H221 H 1.14809 -0.03024 0.48621
 H222 H 1.14306 0.04677 0.51599
 C223 C 1.13759 0.10394 0.25045
 C224 C 1.10449 0.12235 0.27895
 C225 C 1.08816 0.09341 0.31789
 C226 C 1.07747 0.11436 0.35822
 H227 H 1.09013 0.15905 0.27448
 H228 H 1.08609 0.05401 0.31376
 H229 H 1.15431 0.06896 0.25845
 H230 H 1.08345 0.15304 0.36375
 C231 C 0.87600 -0.11725 0.25248
 C232 C 0.91822 -0.13244 0.26910
 C233 C 0.93837 -0.11072 0.31137
 C234 C 0.91262 -0.10291 0.34960
 H235 H 0.94085 -0.15700 0.24910
 H236 H 0.97586 -0.10192 0.31117
 H237 H 0.85612 -0.08933 0.27140
 H238 H 0.87647 -0.11612 0.35169
 C239 C 0.86297 0.09766 0.76363
 C240 C 0.89335 0.11134 0.73090
 C241 C 0.90464 0.07895 0.69145
 C242 C 0.90483 0.09636 0.64865
 H243 H 0.90940 0.14715 0.73222
 H244 H 0.91362 0.04090 0.69777
 H245 H 0.84398 0.06370 0.75890
 H246 H 0.89247 0.13354 0.64265
 C247 C 1.09725 -0.13019 0.75724
 C248 C 1.11734 -0.11214 0.71959
 C249 C 1.08798 -0.09761 0.68012
 C250 C 1.10710 -0.09158 0.63856
 H251 H 1.15565 -0.10756 0.71803
 H252 H 1.05016 -0.09082 0.68545
 H253 H 1.05945 -0.13789 0.75755
 H254 H 1.14425 -0.10102 0.63252
 C255 C 0.24938 1.11559 1.12961
 C256 C 0.26518 1.13134 1.08900
 C257 C 0.30717 1.10855 1.06679
 C258 C 0.34675 1.09663 1.09025
 H259 H 0.24489 1.15819 1.06961
 H260 H 0.30582 1.10281 1.02989
 H261 H 0.26821 1.08565 1.14630
 H262 H 0.35016 1.10680 1.12619
 C263 C 0.22978 0.90278 0.85820
 C264 C 0.26252 0.88864 0.88891
 C265 C 0.30289 0.91982 0.90047
 C266 C 0.34659 0.90048 0.90445
 H267 H 0.26088 0.85292 0.90474
 H268 H 0.29660 0.95861 0.90630
 H269 H 0.23494 0.93649 0.83954
 H270 H 0.35306 0.86249 0.89506
 C271 C 0.75621 0.90047 1.13849
 C272 C 0.72937 0.88372 1.10392
 C273 C 0.68781 0.91198 1.08772
 C274 C 0.64779 0.88971 1.07515
 H275 H 0.73692 0.84834 1.08819
 H276 H 0.68973 0.95157 1.08693
 H277 H 0.74507 0.93373 1.15633
 H278 H 0.64443 0.85061 1.07979
 C279 C 0.76683 1.12724 0.89695
 C280 C 0.73044 1.10044 0.88205
 C281 C 0.69078 1.08922 0.91288
 C282 C 0.64581 1.09079 0.89783
 H283 H 0.72860 1.08824 0.84652
 H284 H 0.69867 1.07941 0.94817
 H285 H 0.76506 1.14318 0.93122
 H286 H 0.63809 1.10396 0.86351
 C287 C 0.11556 0.23116 0.13740
 C288 C 0.13432 0.26544 0.11079
 C289 C 0.10414 0.30532 0.09263
 C290 C 0.12268 0.34822 0.08111
 H291 H 0.17222 0.26492 0.10344
 H292 H 0.06595 0.30008 0.09025
 H293 H 0.07829 0.23397 0.14708
 H294 H 0.16032 0.35456 0.08659
 C295 C -0.09802 0.22974 -0.12919
 C296 C -0.11431 0.26346 -0.09916
 C297 C -0.08476 0.30385 -0.08216
 C298 C -0.10547 0.34400 -0.06412
 H299 H -0.15082 0.26183 -0.08709
 H300 H -0.04625 0.30114 -0.08494
 H301 H -0.06256 0.23274 -0.14353
 H302 H -0.14398 0.34797 -0.06476
 C303 C 0.12382 0.77024 -0.10572
 C304 C 0.09920 0.73225 -0.12156
 C305 C 0.08444 0.69299 -0.09079
 C306 C 0.07530 0.64849 -0.10751
 H307 H 0.09076 0.72941 -0.15789
 H308 H 0.08192 0.70027 -0.05414
 H309 H 0.13507 0.77133 -0.07004
 H310 H 0.08108 0.64055 -0.14369
 C311 C -0.11995 0.77778 0.11530
 C312 C -0.09480 0.74030 0.13249
 C313 C -0.07625 0.70098 0.10202
 C314 C -0.06912 0.65580 0.11803
 H315 H -0.09024 0.73711 0.16938
 H316 H -0.07068 0.70847 0.06588
 H317 H -0.12739 0.77863 0.07870
 H318 H -0.07787 0.64810 0.15352
 C319 C 1.09724 0.12479 0.75983
 C320 C 1.11451 0.09320 0.72871
 C321 C 1.08471 0.07902 0.68966
 C322 C 1.10005 0.08364 0.64655
 H323 H 1.15110 0.07995 0.73033
 H324 H 1.04889 0.06664 0.69652
 H325 H 1.06222 0.14115 0.75412
 H326 H 1.13453 0.09954 0.63996
 C327 C 0.86626 -0.10760 0.75431
 C328 C 0.89434 -0.12526 0.72076
 C329 C 0.90721 -0.09426 0.68173
 C330 C 0.91205 -0.11279 0.63931
 H331 H 0.90742 -0.16278 0.72143
 H332 H 0.91284 -0.05562 0.68799
 H333 H 0.85010 -0.07156 0.75028
 H334 H 0.90292 -0.15055 0.63248
 C335 C 1.09620 -0.10993 0.22990
 C336 C 1.11623 -0.08847 0.26639
 C337 C 1.08685 -0.07503 0.30634
 C338 C 1.10268 -0.08146 0.34926
 H339 H 1.15442 -0.08306 0.26801
 H340 H 1.05126 -0.06050 0.30022
 H341 H 1.05884 -0.11953 0.23168
 H342 H 1.13727 -0.09858 0.35505
 C343 C 0.85528 0.10279 0.24471
 C344 C 0.88256 0.11929 0.27914
 C345 C 0.89450 0.08836 0.31869
 C346 C 0.90311 0.10810 0.35999
 H347 H 0.89671 0.15598 0.27838
 H348 H 0.89786 0.04912 0.31351
 H349 H 0.83797 0.06782 0.24824
 H350 H 0.89642 0.14678 0.36597
 C351 C 0.11466 0.24109 -0.12147
 C352 C 0.13288 0.26024 -0.08295
 C353 C 0.11129 0.30443 -0.06194
 C354 C 0.09583 0.34234 -0.08716
 H355 H 0.16118 0.24145 -0.06447
 H356 H 0.10880 0.30598 -0.02477
 H357 H 0.08375 0.25875 -0.13698
 H358 H 0.10263 0.34325 -0.12381
 C359 C -0.10291 0.23275 0.14490
 C360 C -0.11230 0.26527 0.11194
 C361 C -0.07841 0.30405 0.10132
 C362 C -0.09238 0.35094 0.10201
 H363 H -0.14581 0.26467 0.09333
 H364 H -0.04221 0.29383 0.09191
 H365 H -0.07116 0.23731 0.16577
 H366 H -0.12774 0.36061 0.11443
 C367 C -0.10403 0.75971 -0.14188
 C368 C -0.11736 0.73080 -0.10732
 C369 C -0.08765 0.68926 -0.09195
 C370 C -0.10786 0.65035 -0.07304
 H371 H -0.15122 0.73708 -0.09013
 H372 H -0.04925 0.69051 -0.09597
 H373 H -0.07186 0.75058 -0.16094
 H374 H -0.14637 0.64754 -0.07258
 C375 C 0.10624 0.78634 0.09711
 C376 C 0.12792 0.74297 0.09156
 C377 C 0.10168 0.70180 0.07157
 C378 C 0.11515 0.65551 0.07948
 H379 H 0.16333 0.73678 0.10562
 H380 H 0.06929 0.70958 0.05239
 H381 H 0.06926 0.79101 0.08691
 H382 H 0.14680 0.64800 0.09983
 C383 C 0.22849 1.10476 0.86705
 C384 C 0.26379 1.12504 0.89108
 C385 C 0.30364 1.09479 0.90862
 C386 C 0.34635 1.11403 0.91684
 H387 H 0.26389 1.16424 0.89704
 H388 H 0.29826 1.05601 0.91371
 H389 H 0.23044 1.06610 0.85851
 H390 H 0.35253 1.15202 0.90862
 C391 C 0.23501 0.90159 1.13166
 C392 C 0.26698 0.88181 1.10270
 C393 C 0.30765 0.91051 1.08660
 C394 C 0.34785 0.88875 1.07195
 H395 H 0.26288 0.84462 1.09025
 H396 H 0.30476 0.95013 1.08711
 H397 H 0.24107 0.93773 1.14595
 H398 H 0.35225 0.84943 1.07478
 C399 C 0.76563 1.12661 1.10400
 C400 C 0.72787 1.10170 1.11839
 C401 C 0.68972 1.08644 1.08666
 C402 C 0.64607 1.07790 1.10283
 H403 H 0.72420 1.09344 1.15462
 H404 H 0.69711 1.08286 1.05019
 H405 H 0.76780 1.13779 1.06840
 H406 H 0.63848 1.08490 1.13886
 C407 C 0.76802 0.87563 0.88922
 C408 C 0.72883 0.89640 0.87154
 C409 C 0.68942 0.91269 0.90141
 C410 C 0.64508 0.91674 0.88498
 H411 H 0.72510 0.89999 0.83458
 H412 H 0.69668 0.92064 0.93733
 H413 H 0.77010 0.86855 0.92580
 H414 H 0.63763 0.90586 0.84979
   
