data_POSCAR
  _audit_creation_date              2014-09-24
  _audit_creation_method            'ToBaCCo'
  _symmetry_space_group_name_H-M    'P1'
  _symmetry_Int_Tables_number       1
  _symmetry_cell_setting            triclinic
  loop_
  _symmetry_equiv_pos_as_xyz
 x,y,z
_cell_length_a 26.5120
_cell_length_b 26.4694
_cell_length_c 26.4633
_cell_angle_alpha 90.107100
_cell_angle_beta 90.213300
_cell_angle_gamma 90.000300
loop_
  _atom_site_label
  _atom_site_type_symbol
  _atom_site_fract_x
  _atom_site_fract_y
  _atom_site_fract_z
C1 C 0.52578 0.99856 -0.65915
 C2 C 0.47418 1.00151 -0.65935
 C3 C 0.45907 1.00222 -0.60916
 N4 N 0.49993 0.99999 -0.57855
 C5 C 0.54077 0.99780 -0.60888
 C6 C 0.40824 1.00320 -0.59288
 C7 C 0.39268 1.00130 -0.54165
 C8 C 0.34315 0.99403 -0.52633
 C9 C 0.34337 0.99345 -0.47449
 C10 C 0.39298 1.00045 -0.45911
 N11 N 0.42266 1.00601 -0.50031
 C12 C 0.40878 1.00149 -0.40789
 C13 C 0.45953 1.00162 -0.39133
 C14 C 0.47453 1.00125 -0.34106
 C15 C 0.52620 0.99967 -0.34085
 C16 C 0.54131 0.99920 -0.39104
 N17 N 0.50041 1.00040 -0.42164
 C18 C 0.59213 0.99919 -0.40735
 C19 C 0.60766 1.00002 -0.45864
 C20 C 0.65721 1.00687 -0.47414
 C21 C 0.65701 1.00608 -0.52598
 C22 C 0.60738 0.99886 -0.54118
 N23 N 0.57768 0.99437 -0.49987
 C24 C 0.59153 0.99688 -0.59235
 H25 H 0.54952 0.99752 -0.69231
 H26 H 0.45047 1.00260 -0.69272
 H27 H 0.53998 0.98426 -0.49986
 H28 H 0.31019 0.98894 -0.55007
 H29 H 0.31061 0.98789 -0.45086
 H30 H 0.45077 1.00177 -0.30790
 H31 H 0.54993 0.99917 -0.30748
 H32 H 0.68977 1.01102 -0.54975
 H33 H 0.46034 1.01623 -0.50018
 H34 H 0.69018 1.01245 -0.45054
 C35 C -0.66060 1.52621 -0.00136
 C36 C -0.66066 1.47455 0.00153
 C37 C -0.61053 1.45936 0.00218
 N38 N -0.58008 1.50026 -0.00002
 C39 C -0.61043 1.54126 -0.00214
 C40 C -0.59421 1.40838 0.00306
 C41 C -0.54307 1.39261 0.00107
 C42 C -0.52778 1.34292 -0.00619
 C43 C -0.47604 1.34296 -0.00687
 C44 C -0.46068 1.39261 0.00004
 N45 N -0.50180 1.42250 0.00566
 C46 C -0.40956 1.40828 0.00092
 C47 C -0.39311 1.45907 0.00095
 C48 C -0.34296 1.47404 0.00046
 C49 C -0.34289 1.52579 -0.00114
 C50 C -0.39300 1.54090 -0.00151
 N51 N -0.42347 1.50003 -0.00024
 C52 C -0.40930 1.59175 -0.00144
 C53 C -0.46036 1.60756 -0.00042
 C54 C -0.47551 1.65726 0.00652
 C55 C -0.52726 1.65745 0.00598
 C56 C -0.54277 1.60781 -0.00122
 N57 N -0.50163 1.57779 -0.00592
 C58 C -0.59397 1.59218 -0.00308
 H59 H -0.69379 1.55001 -0.00235
 H60 H -0.69391 1.45085 0.00261
 H61 H -0.50173 1.54002 -0.01607
 H62 H -0.55148 1.30998 -0.01119
 H63 H -0.45244 1.31006 -0.01244
 H64 H -0.30980 1.45020 0.00093
 H65 H -0.30966 1.54953 -0.00170
 H66 H -0.55081 1.69046 0.01105
 H67 H -0.50168 1.46027 0.01581
 H68 H -0.45176 1.69009 0.01203
 C69 C -0.00084 0.52492 0.34175
 C70 C -0.00234 0.47318 0.34164
 C71 C -0.00123 0.45802 0.39185
 N72 N 0.00085 0.49895 0.42236
 C73 C 0.00105 0.53992 0.39197
 C74 C -0.00026 0.40713 0.40822
 C75 C 0.00168 0.39165 0.45954
 C76 C 0.01022 0.34227 0.47505
 C77 C 0.00948 0.34235 0.52687
 C78 C 0.00058 0.39178 0.54211
 N79 N -0.00487 0.42145 0.50074
 C80 C -0.00253 0.40748 0.59333
 C81 C -0.00260 0.45844 0.60974
 C82 C -0.00353 0.47368 0.65996
 C83 C -0.00071 0.52535 0.66003
 C84 C 0.00160 0.54034 0.60983
 N85 N 0.00050 0.49930 0.57934
 C86 C 0.00340 0.59126 0.59345
 C87 C 0.00257 0.60696 0.54217
 C88 C -0.00292 0.65680 0.52670
 C89 C -0.00347 0.65660 0.47486
 C90 C 0.00176 0.60670 0.45961
 N91 N 0.00627 0.57682 0.50091
 C92 C 0.00178 0.59078 0.40842
 H93 H -0.00130 0.54873 0.30855
 H94 H -0.00374 0.44942 0.30833
 H95 H 0.01460 0.53866 0.50092
 H96 H 0.01675 0.30949 0.45146
 H97 H 0.01540 0.30964 0.55066
 H98 H -0.00553 0.45001 0.69320
 H99 H -0.00070 0.54919 0.69331
 H100 H -0.00795 0.68958 0.45114
 H101 H -0.01661 0.45877 0.50062
 H102 H -0.00697 0.68997 0.55034
 O103 O -0.12962 1.00173 -0.06872
 O104 O 0.12974 0.99856 -0.06821
 O105 O -0.00191 1.06843 -0.12996
 O106 O 0.00183 0.93171 -0.13014
 O107 O 0.00198 0.87020 -0.06862
 O108 O -0.00190 1.13004 -0.06831
 O109 O 0.06818 0.99845 -0.12992
 O110 O -0.06829 1.00174 -0.13019
 Zr111 Zr 0.00001 1.00010 -0.08896
 O112 O 0.04589 0.95434 -0.04593
 O113 O -0.04572 1.04592 -0.04599
 C114 C -0.11497 1.00255 -0.11548
 C115 C 0.11491 0.99769 -0.11504
 C116 C -0.00280 1.11522 -0.11512
 C117 C 0.00277 0.88494 -0.11539
 H118 H 0.06704 1.06742 -0.06709
 O119 O 0.04557 1.04583 -0.04559
 H120 H -0.06696 0.93282 -0.06757
 O121 O -0.04542 0.95443 -0.04592
 O122 O 0.12998 1.00212 0.06848
 O123 O -0.12938 0.99821 0.06797
 O124 O 0.06823 1.13017 0.00200
 O125 O 0.06853 0.87032 -0.00195
 O126 O -0.06799 0.87016 0.00133
 O127 O -0.06830 1.12999 -0.00178
 O128 O 0.00205 1.06850 0.12995
 O129 O -0.00124 0.93185 0.12973
 O130 O 0.00185 1.13010 0.06851
 O131 O -0.00131 0.87025 0.06807
 O132 O 0.12977 1.06867 0.00201
 O133 O -0.12962 1.06828 -0.00201
 O134 O -0.12945 0.93172 0.00128
 O135 O 0.12994 0.93195 -0.00176
 O136 O 0.06864 1.00207 0.12995
 O137 O -0.06783 0.99830 0.12968
 Zr138 Zr 0.08883 1.00026 0.00006
 Zr139 Zr -0.08847 1.00005 -0.00029
 Zr140 Zr 0.00004 1.08901 0.00003
 Zr141 Zr 0.00025 0.91131 -0.00023
 Zr142 Zr 0.00033 1.00017 0.08872
 O143 O -0.04546 0.95427 0.04559
 O144 O 0.04594 1.04607 0.04589
 C145 C 0.11531 1.00299 0.11524
 C146 C -0.11455 0.99737 0.11479
 C147 C 0.11496 1.11544 0.00291
 C148 C 0.11522 0.88515 -0.00272
 C149 C -0.11470 0.88495 0.00209
 C150 C -0.11498 1.11508 -0.00273
 C151 C 0.00279 1.11528 0.11528
 C152 C -0.00206 0.88506 0.11488
 H153 H -0.06690 1.06728 0.06709
 O154 O -0.04536 1.04575 0.04552
 H155 H 0.06748 0.93305 0.06713
 O156 O 0.04587 0.95457 0.04555
 C157 C 0.17932 1.00515 0.24382
 C158 C 0.23028 1.00538 0.23027
 C159 C 0.24372 1.00535 0.17920
 C160 C 0.20639 1.00485 0.14176
 C161 C 0.37132 1.00379 0.37061
 C162 C 0.14189 1.00465 0.20647
 C163 C 0.26878 1.00521 0.26874
 C164 C 0.30107 1.00487 0.30091
 C165 C 0.33893 1.00432 0.33851
 C166 C 0.15496 1.00433 0.15493
 H167 H 0.16851 1.00518 0.28326
 H168 H 0.28307 1.00553 0.16830
 H169 H 0.21790 1.00468 0.10254
 H170 H 0.10276 1.00432 0.21806
 C171 C -0.17810 0.99521 0.24311
 C172 C -0.22910 0.99493 0.22936
 C173 C -0.24272 0.99493 0.17823
 C174 C -0.20553 0.99545 0.14094
 C175 C -0.36960 0.99633 0.36919
 C176 C -0.14080 0.99573 0.20591
 C177 C -0.26747 0.99505 0.26768
 C178 C -0.29964 0.99535 0.29973
 C179 C -0.33734 0.99584 0.33721
 C180 C -0.15405 0.99602 0.15431
 H181 H -0.16715 0.99521 0.28259
 H182 H -0.28212 0.99470 0.16718
 H183 H -0.21718 0.99559 0.10168
 H184 H -0.10163 0.99611 0.21765
 C185 C -0.24338 1.00403 -0.17943
 C186 C -0.22994 1.00392 -0.23050
 C187 C -0.17898 1.00397 -0.24405
 C188 C -0.14155 1.00385 -0.20671
 C189 C -0.37095 1.00036 -0.37085
 C190 C -0.20605 1.00391 -0.14199
 C191 C -0.26843 1.00326 -0.26897
 C192 C -0.30072 1.00248 -0.30115
 C193 C -0.33856 1.00137 -0.33875
 C194 C -0.15462 1.00363 -0.15516
 H195 H -0.28273 1.00401 -0.16853
 H196 H -0.16817 1.00390 -0.28350
 H197 H -0.10242 1.00369 -0.21829
 H198 H -0.21756 1.00380 -0.10277
 C199 C 0.17845 0.99631 -0.24337
 C200 C 0.22945 0.99640 -0.22963
 C201 C 0.24308 0.99629 -0.17851
 C202 C 0.20589 0.99638 -0.14121
 C203 C 0.36991 1.00018 -0.36945
 C204 C 0.14115 0.99639 -0.20617
 C205 C 0.26781 0.99711 -0.26796
 C206 C 0.29997 0.99795 -0.30001
 C207 C 0.33766 0.99912 -0.33748
 C208 C 0.15441 0.99662 -0.15457
 H209 H 0.16749 0.99638 -0.28286
 H210 H 0.28248 0.99635 -0.16747
 H211 H 0.21755 0.99649 -0.10195
 H212 H 0.10198 0.99652 -0.21790
 C213 C 0.17849 1.24400 0.00519
 C214 C 0.22950 1.23048 0.00533
 C215 C 0.24315 1.17943 0.00522
 C216 C 0.20596 1.14197 0.00472
 C217 C 0.36937 1.37150 0.00368
 C218 C 0.14120 1.20665 0.00469
 C219 C 0.26782 1.26900 0.00515
 C220 C 0.29988 1.30129 0.00480
 C221 C 0.33736 1.33913 0.00423
 C222 C 0.15447 1.15511 0.00428
 H223 H 0.16751 1.28343 0.00528
 H224 H 0.28255 1.16855 0.00534
 H225 H 0.21763 1.10277 0.00448
 H226 H 0.10203 1.21822 0.00442
 C227 C 0.24350 0.82136 -0.00468
 C228 C 0.22993 0.77029 -0.00504
 C229 C 0.17893 0.75670 -0.00514
 C230 C 0.14160 0.79400 -0.00466
 C231 C 0.36971 0.62917 -0.00360
 C232 C 0.20627 0.85876 -0.00420
 C233 C 0.26828 0.73180 -0.00489
 C234 C 0.30033 0.69950 -0.00459
 C235 C 0.33777 0.66161 -0.00409
 C236 C 0.15480 0.84554 -0.00402
 H237 H 0.28289 0.83229 -0.00461
 H238 H 0.16801 0.71726 -0.00543
 H239 H 0.10244 0.78236 -0.00460
 H240 H 0.21788 0.89799 -0.00377
 C241 C -0.24312 0.82157 0.00374
 C242 C -0.22974 0.77045 0.00339
 C243 C -0.17879 0.75666 0.00321
 C244 C -0.14131 0.79382 0.00310
 C245 C -0.37071 0.63061 -0.00019
 C246 C -0.20575 0.85881 0.00364
 C247 C -0.26831 0.73220 0.00273
 C248 C -0.30065 0.70021 0.00194
 C249 C -0.33849 0.66274 0.00083
 C250 C -0.15433 0.84542 0.00313
 H251 H -0.28246 0.83265 0.00390
 H252 H -0.16803 0.71717 0.00294
 H253 H -0.10219 0.78207 0.00276
 H254 H -0.21724 0.89807 0.00374
 C255 C -0.17930 1.24326 -0.00389
 C256 C -0.23023 1.22939 -0.00417
 C257 C -0.24353 1.17825 -0.00460
 C258 C -0.20610 1.14106 -0.00447
 C259 C -0.37109 1.36930 -0.00042
 C260 C -0.14176 1.20616 -0.00376
 C261 C -0.26884 1.26759 -0.00348
 C262 C -0.30117 1.29958 -0.00266
 C263 C -0.33895 1.33710 -0.00150
 C264 C -0.15470 1.15455 -0.00385
 H265 H -0.16859 1.28276 -0.00356
 H266 H -0.28285 1.16710 -0.00483
 H267 H -0.21752 1.10178 -0.00461
 H268 H -0.10266 1.21798 -0.00334
 C269 C 0.00466 1.17876 0.24405
 C270 C 0.00431 1.22987 0.23070
 C271 C 0.00408 1.24361 0.17967
 C272 C 0.00391 1.20642 0.14208
 C273 C 0.00089 1.37019 0.37174
 C274 C 0.00449 1.14148 0.20657
 C275 C 0.00369 1.26818 0.26936
 C276 C 0.00294 1.30027 0.30173
 C277 C 0.00187 1.33791 0.33954
 C278 C 0.00393 1.15484 0.15506
 H279 H 0.00485 1.16771 0.28345
 H280 H 0.00381 1.28309 0.16892
 H281 H 0.00353 1.21815 0.10290
 H282 H 0.00457 1.10223 0.21803
 C283 C -0.00492 1.24362 -0.17888
 C284 C -0.00507 1.22996 -0.22998
 C285 C -0.00503 1.17886 -0.24360
 C286 C -0.00458 1.14152 -0.20631
 C287 C -0.00320 1.37059 -0.37025
 C288 C -0.00448 1.20637 -0.14149
 C289 C -0.00483 1.26836 -0.26842
 C290 C -0.00443 1.30054 -0.30059
 C291 C -0.00380 1.33827 -0.33819
 C292 C -0.00413 1.15481 -0.15474
 H293 H -0.00497 1.28308 -0.16792
 H294 H -0.00515 1.16787 -0.28306
 H295 H -0.00438 1.10228 -0.21796
 H296 H -0.00419 1.21806 -0.10225
 C297 C 0.00470 0.82078 -0.24385
 C298 C 0.00513 0.76975 -0.23018
 C299 C 0.00529 0.75632 -0.17908
 C300 C 0.00478 0.79372 -0.14173
 C301 C 0.00387 0.62824 -0.37008
 C302 C 0.00420 0.85830 -0.20659
 C303 C 0.00503 0.73113 -0.26855
 C304 C 0.00476 0.69872 -0.30060
 C305 C 0.00431 0.66073 -0.33807
 C306 C 0.00407 0.84523 -0.15501
 H307 H 0.00459 0.83159 -0.28332
 H308 H 0.00563 0.71691 -0.16808
 H309 H 0.00476 0.78220 -0.10249
 H310 H 0.00371 0.89748 -0.21826
 C311 C -0.00340 0.82137 0.24331
 C312 C -0.00327 0.77028 0.22966
 C313 C -0.00335 0.75665 0.17855
 C314 C -0.00328 0.79391 0.14119
 C315 C 0.00047 0.62969 0.36987
 C316 C -0.00332 0.85873 0.20605
 C317 C -0.00257 0.73187 0.26806
 C318 C -0.00175 0.69968 0.30021
 C319 C -0.00059 0.66196 0.33779
 C320 C -0.00308 0.84547 0.15447
 H321 H -0.00334 0.83233 0.28278
 H322 H -0.00327 0.71719 0.16757
 H323 H -0.00315 0.78225 0.10195
 H324 H -0.00322 0.89796 0.21772
   
