data_POSCAR
  _audit_creation_date              2014-09-24
  _audit_creation_method            'ToBaCCo'
  _symmetry_space_group_name_H-M    'P1'
  _symmetry_Int_Tables_number       1
  _symmetry_cell_setting            triclinic
  loop_
  _symmetry_equiv_pos_as_xyz
 x,y,z
_cell_length_a 34.8238
_cell_length_b 38.1900
_cell_length_c 35.0840
_cell_angle_alpha 89.666200
_cell_angle_beta 91.617900
_cell_angle_gamma 89.309200
loop_
  _atom_site_label
  _atom_site_type_symbol
  _atom_site_fract_x
  _atom_site_fract_y
  _atom_site_fract_z
C1 C 0.37240 0.37716 1.36370
 N2 N 0.38932 0.39119 1.33268
 C3 C 0.41857 0.37439 1.31561
 N4 N 0.43146 0.34346 1.33023
 C5 C 0.41531 0.32856 1.36102
 N6 N 0.38517 0.34538 1.37749
 C7 C 1.16638 0.66476 0.87952
 N8 N 1.15176 0.65472 0.84510
 C9 C 1.11880 0.66951 0.83040
 N10 N 1.10055 0.69509 0.85023
 C11 C 1.11523 0.70568 0.88462
 N12 N 1.14779 0.69005 0.89882
 C13 C 0.63910 -0.14438 0.13097
 N14 N 0.62107 -0.17288 0.11618
 C15 C 0.59149 -0.18796 0.13432
 N16 N 0.58016 -0.17404 0.16774
 C17 C 0.59783 -0.14574 0.18327
 N18 N 0.62744 -0.13094 0.16473
 C19 C -0.18285 1.16546 -0.36988
 N20 N -0.16418 1.19234 -0.38636
 C21 C -0.13606 1.20993 -0.36734
 N22 N -0.12600 1.19980 -0.33123
 C23 C -0.14334 1.17216 -0.31445
 N24 N -0.17202 1.15528 -0.33382
 C25 C 0.70351 0.64793 0.61690
 N26 N 0.68991 0.67714 0.59824
 C27 C 0.65474 0.69089 0.60664
 N28 N 0.63323 0.67443 0.63296
 C29 C 0.64620 0.64493 0.65096
 N30 N 0.68151 0.63219 0.64312
 C31 C 0.77273 0.32480 0.18048
 N32 N 0.78682 0.29173 0.17731
 C33 C 0.81745 0.28039 0.19890
 N34 N 0.83342 0.30243 0.22484
 C35 C 0.81976 0.33567 0.22858
 N36 N 0.78974 0.34689 0.20590
 C37 C 0.30850 0.13198 0.88789
 N38 N 0.32770 0.11837 0.85808
 C39 C 0.35792 0.13532 0.84334
 N40 N 0.36894 0.16630 0.85856
 C41 C 0.35000 0.18055 0.88817
 N42 N 0.31970 0.16322 0.90289
 C43 C 0.23179 0.81098 0.31251
 N44 N 0.20623 0.82847 0.28901
 C45 C 0.17578 0.81121 0.27300
 N46 N 0.16963 0.77715 0.28267
 C47 C 0.19452 0.75980 0.30681
 N48 N 0.22587 0.77674 0.32038
 Zn49 Zn 0.01628 0.98651 0.01052
 Zn50 Zn -0.02870 1.04842 -0.00639
 Zn51 Zn -0.06772 0.98292 -0.01115
 Zn52 Zn -0.04106 1.01305 0.06402
 O53 O -0.03019 1.00634 0.01461
 O54 O 0.05090 1.01648 -0.00870
 O55 O -0.04343 1.04820 -0.05535
 O56 O -0.04902 0.94338 -0.03161
 O57 O 0.01855 1.06645 -0.00346
 O58 O 0.01349 0.94815 -0.01799
 O59 O -0.08806 1.00784 -0.05119
 O60 O -0.08553 0.99284 0.07500
 O61 O -0.06158 1.07670 0.01648
 O62 O -0.10622 0.97103 0.01973
 O63 O -0.04796 1.05855 0.07520
 O64 O -0.00529 0.99469 0.09646
 O65 O 0.03584 0.97198 0.05593
 C66 C 0.04959 1.04987 -0.00994
 C67 C -0.07308 1.03320 -0.06896
 C68 C -0.01468 0.93182 -0.03304
 C69 C -0.11056 0.97646 0.05517
 C70 C -0.06403 1.08039 0.05223
 C71 C 0.02494 0.97706 0.08975
 Zn72 Zn 0.50602 -0.00479 0.56129
 Zn73 Zn 0.52059 0.03490 0.48829
 Zn74 Zn 0.48772 -0.03704 0.48719
 Zn75 Zn 0.43986 0.02187 0.51398
 O76 O 0.48871 0.00400 0.51263
 O77 O 0.54985 0.01689 0.57153
 O78 O 0.53919 0.01760 0.44370
 O79 O 0.50521 -0.07395 0.51435
 O80 O 0.56202 0.04565 0.51825
 O81 O 0.51619 -0.05032 0.57094
 O82 O 0.51561 -0.03575 0.44627
 O83 O 0.40549 -0.00214 0.48562
 O84 O 0.49613 0.07619 0.47699
 O85 O 0.44116 -0.04744 0.46888
 O86 O 0.43743 0.06562 0.49660
 O87 O 0.42191 0.02479 0.56130
 O88 O 0.47317 0.00948 0.59653
 C89 C 0.57118 0.03667 0.55239
 C90 C 0.53502 -0.01281 0.42949
 C91 C 0.51595 -0.07665 0.54905
 C92 C 0.40934 -0.03092 0.46815
 C93 C 0.46164 0.08614 0.48238
 C94 C 0.43876 0.02070 0.59359
 Zn95 Zn 1.01437 0.50259 0.54767
 Zn96 Zn 1.04527 0.44912 0.49479
 Zn97 Zn 1.00634 0.51350 0.46358
 Zn98 Zn 1.08423 0.51722 0.50191
 O99 O 1.03758 0.49574 0.50205
 O100 O 1.00281 0.46222 0.57168
 O101 O 1.02182 0.43387 0.45263
 O102 O 0.96392 0.53468 0.48032
 O103 O 1.02563 0.42331 0.53132
 O104 O 0.96992 0.52681 0.54263
 O105 O 0.99042 0.48075 0.43065
 O106 O 1.08663 0.54952 0.46467
 O107 O 1.09463 0.43633 0.49110
 O108 O 1.02953 0.54577 0.43577
 O109 O 1.12367 0.48743 0.49389
 O110 O 1.09509 0.53884 0.54634
 O111 O 1.04355 0.52749 0.57983
 C112 C 1.00803 0.43072 0.56138
 C113 C 0.99902 0.44846 0.42847
 C114 C 0.95153 0.53907 0.51364
 C115 C 1.06270 0.55905 0.43848
 C116 C 1.12489 0.45439 0.48995
 C117 C 1.07621 0.54149 0.57673
 Zn118 Zn 0.55199 0.51846 0.96538
 Zn119 Zn 0.47309 0.53165 0.99284
 Zn120 Zn 0.48546 0.49228 0.91980
 Zn121 Zn 0.50663 0.45904 0.99391
 O122 O 0.50411 0.50044 0.96800
 O123 O 0.55446 0.56232 0.98202
 O124 O 0.43113 0.54280 0.96446
 O125 O 0.51777 0.50533 0.88347
 O126 O 0.49647 0.57266 1.00368
 O127 O 0.56904 0.52039 0.91809
 O128 O 0.44135 0.51512 0.91027
 O129 O 0.48786 0.42246 0.96757
 O130 O 0.45669 0.51480 1.03770
 O131 O 0.47466 0.44705 0.91140
 O132 O 0.48106 0.46105 1.03675
 O133 O 0.55427 0.44789 1.01026
 O134 O 0.58685 0.49462 0.99336
 C135 C 0.53041 0.58263 0.99732
 C136 C 0.42077 0.53482 0.93060
 C137 C 0.55217 0.51590 0.88604
 C138 C 0.47562 0.42039 0.93324
 C139 C 0.46238 0.48498 1.05325
 C140 C 0.58493 0.46552 1.01070
 C141 C 1.31852 0.38010 0.40801
 C142 C 1.28685 0.39863 0.42250
 C143 C 1.27958 0.43364 0.41072
 C144 C 1.30344 0.44938 0.38444
 C145 C 1.33376 0.43056 0.36915
 C146 C 1.34191 0.39565 0.38051
 C147 C 1.24799 0.45223 0.42453
 C148 C 1.22236 0.43590 0.44878
 C149 C 1.22896 0.40070 0.46017
 C150 C 1.26161 0.38250 0.44761
 C151 C 1.20211 0.38403 0.48297
 C152 C 1.16855 0.40171 0.49331
 C153 C 1.16182 0.43669 0.48209
 C154 C 1.18933 0.45385 0.46050
 H155 H 1.32390 0.35325 0.41705
 H156 H 1.29819 0.47615 0.37505
 H157 H 1.35106 0.44381 0.34846
 H158 H 1.24264 0.47908 0.41538
 H159 H 1.26668 0.35552 0.45639
 H160 H 1.20652 0.35704 0.49189
 H161 H 1.14767 0.38796 0.50991
 H162 H 1.18405 0.48064 0.45117
 C163 C 0.22198 0.62530 0.87436
 C164 C 0.25676 0.61161 0.88955
 C165 C 0.27016 0.62225 0.92606
 C166 C 0.24872 0.64633 0.94675
 C167 C 0.21446 0.66014 0.93137
 C168 C 0.20059 0.64997 0.89494
 C169 C 0.30493 0.60888 0.94127
 C170 C 0.32675 0.58521 0.92032
 C171 C 0.31354 0.57458 0.88375
 C172 C 0.27853 0.58773 0.86865
 C173 C 0.33571 0.55107 0.86286
 C174 C 0.37064 0.53825 0.87803
 C175 C 0.38396 0.54863 0.91444
 C176 C 0.36174 0.57213 0.93541
 H177 H 0.21205 0.61705 0.84629
 H178 H 0.25860 0.65474 0.97476
 H179 H 0.19892 0.67891 0.94829
 H180 H 0.31513 0.61709 0.96929
 H181 H 0.26838 0.57958 0.84059
 H182 H 0.32607 0.54264 0.83478
 H183 H 0.38717 0.52009 0.86126
 H184 H 0.37167 0.58040 0.96348
 C185 C -0.30244 0.89371 0.12950
 C186 C -0.27026 0.90651 0.11074
 C187 C -0.26393 0.89685 0.07254
 C188 C -0.28987 0.87465 0.05376
 C189 C -0.32147 0.86168 0.07272
 C190 C -0.32807 0.87088 0.11079
 C191 C -0.23158 0.90920 0.05385
 C192 C -0.20513 0.93078 0.07300
 C193 C -0.21142 0.94036 0.11122
 C194 C -0.24400 0.92836 0.12976
 C195 C -0.18483 0.96163 0.13043
 C196 C -0.15220 0.97319 0.11211
 C197 C -0.14548 0.96389 0.07409
 C198 C -0.17231 0.94272 0.05463
 H199 H -0.30699 0.90090 0.15889
 H200 H -0.28552 0.86699 0.02449
 H201 H -0.34076 0.84430 0.05747
 H202 H -0.22680 0.90172 0.02457
 H203 H -0.24870 0.93572 0.15910
 H204 H -0.18917 0.96924 0.15972
 H205 H -0.13221 0.98956 0.12784
 H206 H -0.16754 0.93528 0.02535
 C207 C 0.76380 0.12388 0.62773
 C208 C 0.73135 0.11020 0.60854
 C209 C 0.72159 0.12161 0.57106
 C210 C 0.74459 0.14618 0.55321
 C211 C 0.77641 0.16006 0.57254
 C212 C 0.78632 0.14951 0.61024
 C213 C 0.68866 0.10873 0.55218
 C214 C 0.66497 0.08487 0.57049
 C215 C 0.67486 0.07330 0.60792
 C216 C 0.70805 0.08584 0.62660
 C217 C 0.65110 0.04965 0.62630
 C218 C 0.61766 0.03783 0.60803
 C219 C 0.60723 0.04928 0.57089
 C220 C 0.63130 0.07271 0.55216
 H221 H 0.77071 0.11522 0.65662
 H222 H 0.73763 0.15514 0.52444
 H223 H 0.79300 0.17945 0.55777
 H224 H 0.68118 0.11768 0.52349
 H225 H 0.71540 0.07704 0.65537
 H226 H 0.65822 0.04047 0.65495
 H227 H 0.59986 0.01969 0.62321
 H228 H 0.62369 0.08174 0.52355
 C229 C 0.41187 0.27686 0.40346
 C230 C 0.42632 0.24368 0.41506
 C231 C 0.45979 0.22987 0.39847
 C232 C 0.47814 0.24915 0.37055
 C233 C 0.46332 0.28153 0.35858
 C234 C 0.42992 0.29600 0.37461
 C235 C 0.47420 0.19677 0.40953
 C236 C 0.45512 0.17668 0.43644
 C237 C 0.42143 0.19022 0.45286
 C238 C 0.40749 0.22374 0.44243
 C239 C 0.40189 0.16976 0.47908
 C240 C 0.41522 0.13610 0.48853
 C241 C 0.44870 0.12228 0.47241
 C242 C 0.46881 0.14298 0.44664
 H243 H 0.38613 0.28720 0.41620
 H244 H 0.50381 0.23898 0.35753
 H245 H 0.47850 0.29522 0.33659
 H246 H 0.49990 0.18639 0.39669
 H247 H 0.38166 0.23401 0.45510
 H248 H 0.37603 0.17962 0.49197
 H249 H 0.39927 0.12086 0.50869
 H250 H 0.49451 0.13259 0.43388
 C251 C 0.90514 0.26173 0.63602
 C252 C 0.92188 0.29054 0.61795
 C253 C 0.91722 0.29471 0.57800
 C254 C 0.89484 0.27112 0.55703
 C255 C 0.87692 0.24358 0.57530
 C256 C 0.88208 0.23815 0.61491
 C257 C 0.93454 0.32268 0.55953
 C258 C 0.95523 0.34749 0.58057
 C259 C 0.95863 0.34454 0.62069
 C260 C 0.94253 0.31563 0.63914
 C261 C 0.97774 0.37081 0.64150
 C262 C 0.99340 0.39956 0.62258
 C263 C 0.99114 0.40170 0.58266
 C264 C 0.97207 0.37558 0.56191
 H265 H 0.90904 0.25848 0.66661
 H266 H 0.89077 0.27419 0.52644
 H267 H 0.85960 0.22608 0.55798
 H268 H 0.93138 0.32546 0.52880
 H269 H 0.94554 0.31296 0.66987
 H270 H 0.98034 0.36924 0.67230
 H271 H 1.00792 0.41965 0.63896
 H272 H 0.96967 0.37757 0.53106
 C273 C 0.06704 0.75308 -0.10981
 C274 C 0.05397 0.78305 -0.09061
 C275 C 0.07270 0.79321 -0.05617
 C276 C 0.10285 0.77290 -0.04067
 C277 C 0.11571 0.74347 -0.05975
 C278 C 0.09883 0.73352 -0.09507
 C279 C 0.06171 0.82400 -0.03798
 C280 C 0.03217 0.84502 -0.05364
 C281 C 0.01213 0.83455 -0.08719
 C282 C 0.02321 0.80355 -0.10559
 C283 C -0.01822 0.85565 -0.10186
 C284 C -0.02787 0.88711 -0.08386
 C285 C -0.00681 0.89809 -0.05145
 C286 C 0.02282 0.87669 -0.03631
 H287 H 0.05327 0.74582 -0.13666
 H288 H 0.11713 0.78019 -0.01407
 H289 H 0.13973 0.72902 -0.04688
 H290 H 0.07667 0.83195 -0.01195
 H291 H 0.00843 0.79576 -0.13175
 H292 H -0.03420 0.84802 -0.12736
 H293 H -0.05102 0.90330 -0.09580
 H294 H 0.03868 0.88476 -0.01085
 C295 C 0.58756 0.76502 1.08690
 C296 C 0.57128 0.73366 1.07373
 C297 C 0.53998 0.71903 1.09278
 C298 C 0.52544 0.73609 1.12462
 C299 C 0.54219 0.76689 1.13803
 C300 C 0.57369 0.78176 1.11962
 C301 C 0.52421 0.68728 1.08016
 C302 C 0.53997 0.66949 1.04926
 C303 C 0.57138 0.68415 1.03032
 C304 C 0.58647 0.71629 1.04233
 C305 C 0.58780 0.66606 1.00013
 C306 C 0.57395 0.63336 0.98932
 C307 C 0.54293 0.61828 1.00798
 C308 C 0.52556 0.63683 1.03758
 H309 H 0.61173 0.77575 1.07212
 H310 H 0.50145 0.72529 1.13958
 H311 H 0.53039 0.77890 1.16309
 H312 H 0.50028 0.67605 1.09492
 H313 H 0.61063 0.72735 1.02779
 H314 H 0.61186 0.67690 0.98530
 H315 H 0.58768 0.61972 0.96629
 H316 H 0.50182 0.62532 1.05236
 C317 C 0.41678 0.41598 1.25959
 C318 C 0.43009 0.42619 1.22376
 C319 C 0.46206 0.40852 1.20849
 C320 C 0.48075 0.38177 1.22946
 C321 C 0.46723 0.37165 1.26478
 C322 C 0.43478 0.38812 1.27998
 C323 C 0.47450 0.41731 1.17217
 C324 C 0.45541 0.44351 1.15069
 C325 C 0.42407 0.46196 1.16600
 C326 C 0.41154 0.45317 1.20255
 C327 C 0.40575 0.48866 1.14425
 C328 C 0.41817 0.49664 1.10756
 C329 C 0.44868 0.47766 1.09194
 C330 C 0.46723 0.45129 1.11390
 H331 H 0.39175 0.42895 1.27092
 H332 H 0.50543 0.36818 1.21821
 H333 H 0.48189 0.35034 1.27987
 H334 H 0.49875 0.40340 1.16039
 H335 H 0.38717 0.46695 1.21423
 H336 H 0.38181 0.50327 1.15555
 H337 H 0.40362 0.51723 1.09121
 H338 H 0.49129 0.43689 1.10244
 C339 C 0.59681 -0.09979 0.23534
 C340 C 0.58387 -0.08820 0.27099
 C341 C 0.55971 -0.11003 0.29222
 C342 C 0.54873 -0.14257 0.27786
 C343 C 0.56126 -0.15364 0.24262
 C344 C 0.58535 -0.13261 0.22082
 C345 C 0.54655 -0.09913 0.32751
 C346 C 0.55670 -0.06643 0.34208
 C347 C 0.58056 -0.04412 0.32132
 C348 C 0.59425 -0.05523 0.28581
 C349 C 0.58992 -0.01116 0.33656
 C350 C 0.57552 -0.00052 0.37182
 C351 C 0.55177 -0.02281 0.39248
 C352 C 0.54280 -0.05579 0.37718
 H353 H 0.61529 -0.08324 0.21887
 H354 H 0.53024 -0.15950 0.29389
 H355 H 0.55210 -0.17905 0.23257
 H356 H 0.52806 -0.11609 0.34359
 H357 H 0.61262 -0.03824 0.26971
 H358 H 0.60815 0.00645 0.32113
 H359 H 0.58287 0.02503 0.38283
 H360 H 0.52439 -0.07341 0.39244
 C361 C -0.14244 1.12806 -0.26059
 C362 C -0.12723 1.11555 -0.22542
 C363 C -0.09920 1.13528 -0.20537
 C364 C -0.08727 1.16726 -0.22040
 C365 C -0.10230 1.17940 -0.25535
 C366 C -0.12973 1.15989 -0.27608
 C367 C -0.08321 1.12267 -0.17078
 C368 C -0.09480 1.09049 -0.15583
 C369 C -0.12310 1.07081 -0.17547
 C370 C -0.13915 1.08345 -0.21020
 C371 C -0.13478 1.03881 -0.15999
 C372 C -0.11856 1.02644 -0.12541
 C373 C -0.09013 1.04571 -0.10586
 C374 C -0.07844 1.07777 -0.12141
 H375 H -0.16349 1.11266 -0.27619
 H376 H -0.06593 1.18275 -0.20530
 H377 H -0.09202 1.20402 -0.26632
 H378 H -0.06159 1.13781 -0.15559
 H379 H -0.16071 1.06826 -0.22542
 H380 H -0.15650 1.02336 -0.17457
 H381 H -0.12815 1.00172 -0.11405
 H382 H -0.05681 1.09311 -0.10651
 C383 C 1.12771 0.64187 0.76693
 C384 C 1.11294 0.62730 0.73308
 C385 C 1.07282 0.62755 0.72570
 C386 C 1.04835 0.64374 0.75159
 C387 C 1.06339 0.65861 0.78506
 C388 C 1.10305 0.65712 0.79340
 C389 C 1.05783 0.61118 0.69292
 C390 C 1.08251 0.59490 0.66728
 C391 C 1.12272 0.59596 0.67388
 C392 C 1.13767 0.61200 0.70685
 C393 C 1.14730 0.58058 0.64758
 C394 C 1.13220 0.56362 0.61540
 C395 C 1.09229 0.56126 0.60938
 C396 C 1.06759 0.57726 0.63529
 H397 H 1.15843 0.64101 0.77288
 H398 H 1.01756 0.64442 0.74623
 H399 H 1.04387 0.67022 0.80504
 H400 H 1.02700 0.61078 0.68759
 H401 H 1.16849 0.61222 0.71230
 H402 H 1.17819 0.58139 0.65206
 H403 H 1.15170 0.55152 0.59575
 H404 H 1.03674 0.57597 0.63053
 C405 C 0.75913 0.63367 0.57489
 C406 C 0.79485 0.61682 0.56972
 C407 C 0.81456 0.60102 0.60134
 C408 C 0.79852 0.60232 0.63741
 C409 C 0.76280 0.61824 0.64209
 C410 C 0.74260 0.63379 0.61101
 C411 C 0.84964 0.58350 0.59644
 C412 C 0.86514 0.58083 0.56017
 C413 C 0.84563 0.59648 0.52842
 C414 C 0.81076 0.61466 0.53342
 C415 C 0.86117 0.59330 0.49215
 C416 C 0.89550 0.57461 0.48735
 C417 C 0.91510 0.55888 0.51876
 C418 C 0.89970 0.56232 0.55518
 H419 H 0.74357 0.64536 0.55073
 H420 H 0.81325 0.59039 0.66192
 H421 H 0.75078 0.61823 0.67024
 H422 H 0.86454 0.57138 0.62079
 H423 H 0.79574 0.62655 0.50904
 H424 H 0.84668 0.60508 0.46744
 H425 H 0.90670 0.57253 0.45897
 H426 H 0.91441 0.55036 0.57969
 C427 C 0.73537 0.37229 1.15003
 C428 C 0.70763 0.38363 1.12281
 C429 C 0.68493 0.35881 1.10303
 C430 C 0.69134 0.32305 1.10969
 C431 C 0.72039 0.31189 1.13524
 C432 C 0.74263 0.33630 1.15592
 C433 C 0.65656 0.37008 1.07651
 C434 C 0.65159 0.40582 1.06844
 C435 C 0.67558 0.43056 1.08680
 C436 C 0.70298 0.41937 1.11438
 C437 C 0.67160 0.46614 1.07740
 C438 C 0.64331 0.47723 1.05092
 C439 C 0.61816 0.45300 1.03396
 C440 C 0.62276 0.41725 1.04246
 H441 H 0.75255 0.39156 1.16508
 H442 H 0.67440 0.30367 1.09458
 H443 H 0.72499 0.28397 1.13912
 H444 H 0.63865 0.35105 1.06190
 H445 H 0.72092 0.43841 1.12894
 H446 H 0.68996 0.48543 1.09092
 H447 H 0.64003 0.50499 1.04495
 H448 H 0.60358 0.39842 1.02925
 C449 C 0.24572 1.12935 -0.07799
 C450 C 0.21384 1.11029 -0.06579
 C451 C 0.21285 1.07361 -0.07120
 C452 C 0.24352 1.05663 -0.08861
 C453 C 0.27456 1.07577 -0.10134
 C454 C 0.27600 1.11226 -0.09642
 C455 C 0.18097 1.05447 -0.05978
 C456 C 0.14949 1.07154 -0.04373
 C457 C 0.15024 1.10821 -0.03843
 C458 C 0.18256 1.12731 -0.04912
 C459 C 0.11834 1.12521 -0.02307
 C460 C 0.08583 1.10621 -0.01360
 C461 C 0.08468 1.06973 -0.01883
 C462 C 0.11694 1.05255 -0.03359
 H463 H 0.24637 1.15750 -0.07429
 H464 H 0.24324 1.02856 -0.09295
 H465 H 0.29757 1.06189 -0.11516
 H466 H 0.18035 1.02637 -0.06405
 H467 H 0.18304 1.15544 -0.04511
 H468 H 0.11833 1.15329 -0.01881
 H469 H 0.06149 1.12015 -0.00219
 H470 H 0.11643 1.02449 -0.03802
 C471 C 0.26366 -0.13611 0.33668
 C472 C 0.29278 -0.12138 0.36003
 C473 C 0.32328 -0.14293 0.37443
 C474 C 0.32410 -0.17857 0.36597
 C475 C 0.29416 -0.19330 0.34488
 C476 C 0.26332 -0.17253 0.33023
 C477 C 0.35204 -0.12891 0.39811
 C478 C 0.35014 -0.09385 0.40906
 C479 C 0.31938 -0.07218 0.39568
 C480 C 0.29117 -0.08593 0.37065
 C481 C 0.31740 -0.03727 0.40790
 C482 C 0.34589 -0.02397 0.43266
 C483 C 0.37699 -0.04529 0.44523
 C484 C 0.37864 -0.08029 0.43344
 H485 H 0.23998 -0.11974 0.32611
 H486 H 0.34729 -0.19537 0.37680
 H487 H 0.29532 -0.22129 0.34001
 H488 H 0.37547 -0.14556 0.40880
 H489 H 0.26760 -0.06934 0.36023
 H490 H 0.29399 -0.02022 0.39817
 H491 H 0.34414 0.00321 0.44114
 H492 H 0.40234 -0.09708 0.44312
 C493 C 0.60895 -0.25999 0.60487
 C494 C 0.59611 -0.22764 0.58999
 C495 C 0.61425 -0.21297 0.55825
 C496 C 0.64584 -0.23048 0.54281
 C497 C 0.65956 -0.26207 0.55886
 C498 C 0.64112 -0.27748 0.58990
 C499 C 0.60086 -0.18084 0.54292
 C500 C 0.57061 -0.16258 0.55999
 C501 C 0.55364 -0.17666 0.59278
 C502 C 0.56594 -0.20940 0.60705
 C503 C 0.52495 -0.15753 0.61111
 C504 C 0.51316 -0.12467 0.59715
 C505 C 0.52893 -0.11100 0.56399
 C506 C 0.55748 -0.13012 0.54531
 H507 H 0.59449 -0.27082 0.62916
 H508 H 0.66031 -0.21949 0.51865
 H509 H 0.68430 -0.27461 0.54651
 H510 H 0.61443 -0.16976 0.51823
 H511 H 0.55254 -0.22037 0.63191
 H512 H 0.51193 -0.16781 0.63646
 H513 H 0.49120 -0.11014 0.61185
 H514 H 0.57007 -0.11927 0.51997
 C515 C 1.15026 0.71110 0.31622
 C516 C 1.14104 0.68075 0.33680
 C517 C 1.16947 0.66402 0.36033
 C518 C 1.20676 0.67708 0.36203
 C519 C 1.21533 0.70783 0.34277
 C520 C 1.18698 0.72598 0.32061
 C521 C 1.15989 0.63542 0.38316
 C522 C 1.12194 0.62388 0.38376
 C523 C 1.09356 0.63993 0.35964
 C524 C 1.10339 0.66798 0.33591
 C525 C 1.05559 0.62824 0.36053
 C526 C 1.04567 0.60162 0.38580
 C527 C 1.07353 0.58620 0.41065
 C528 C 1.11178 0.59718 0.40898
 H529 H 1.12799 0.72443 0.29925
 H530 H 1.22896 0.66434 0.37960
 H531 H 1.24418 0.71785 0.34621
 H532 H 1.18168 0.62304 0.40159
 H533 H 1.08147 0.68068 0.31792
 H534 H 1.03344 0.64009 0.34218
 H535 H 1.01599 0.59353 0.38633
 H536 H 1.13362 0.58528 0.42769
 C537 C -0.17526 1.23005 0.15754
 C538 C -0.15313 1.20177 0.14525
 C539 C -0.12185 1.18919 0.16813
 C540 C -0.11326 1.20536 0.20306
 C541 C -0.13410 1.23494 0.21411
 C542 C -0.16489 1.24809 0.19108
 C543 C -0.09886 1.16163 0.15499
 C544 C -0.10568 1.14787 0.11845
 C545 C -0.13651 1.16121 0.09533
 C546 C -0.16061 1.18737 0.10927
 C547 C -0.14232 1.14872 0.05823
 C548 C -0.11780 1.12321 0.04401
 C549 C -0.08761 1.10920 0.06693
 C550 C -0.08175 1.12148 0.10426
 H551 H -0.19877 1.23955 0.13920
 H552 H -0.08940 1.19607 0.22103
 H553 H -0.12555 1.24786 0.24036
 H554 H -0.07491 1.15180 0.17256
 H555 H -0.18428 1.19749 0.09150
 H556 H -0.16568 1.15883 0.04012
 H557 H -0.12308 1.11378 0.01530
 H558 H -0.05839 1.11082 0.12201
 C559 C 0.38432 0.23738 0.88149
 C560 C 0.39837 0.26891 0.89642
 C561 C 0.39166 0.27762 0.93477
 C562 C 0.36999 0.25499 0.95714
 C563 C 0.35555 0.22384 0.94183
 C564 C 0.36301 0.21449 0.90405
 C565 C 0.40668 0.30875 0.95001
 C566 C 0.42760 0.33160 0.92710
 C567 C 0.43324 0.32324 0.88841
 C568 C 0.41900 0.29181 0.87348
 C569 C 0.45279 0.34662 0.86511
 C570 C 0.46646 0.37815 0.87983
 C571 C 0.46174 0.38652 0.91834
 C572 C 0.44251 0.36296 0.94198
 H573 H 0.38991 0.23072 0.85215
 H574 H 0.36434 0.26132 0.98654
 H575 H 0.33930 0.20667 0.95981
 H576 H 0.40186 0.31529 0.97955
 H577 H 0.42374 0.28530 0.84391
 H578 H 0.45715 0.34068 0.83537
 H579 H 0.48111 0.39593 0.86114
 H580 H 0.43825 0.36951 0.97160
 C581 C 0.63993 0.60333 0.70562
 C582 C 0.61821 0.58725 0.73367
 C583 C 0.57839 0.59454 0.73533
 C584 C 0.56106 0.61793 0.70892
 C585 C 0.58308 0.63439 0.68151
 C586 C 0.62268 0.62729 0.67963
 C587 C 0.55679 0.57899 0.76387
 C588 C 0.57480 0.55727 0.79157
 C589 C 0.61473 0.55026 0.79002
 C590 C 0.63600 0.56475 0.76067
 C591 C 0.63301 0.52989 0.81869
 C592 C 0.61229 0.51778 0.84946
 C593 C 0.57275 0.52481 0.85137
 C594 C 0.55389 0.54375 0.82182
 H595 H 0.67050 0.59780 0.70469
 H596 H 0.53060 0.62389 0.70980
 H597 H 0.56905 0.65259 0.66167
 H598 H 0.52627 0.58469 0.76526
 H599 H 0.66663 0.55943 0.75958
 H600 H 0.66358 0.52437 0.81800
 H601 H 0.62722 0.50331 0.87214
 H602 H 0.52348 0.54975 0.82363
 C603 C 0.35952 0.09952 0.78384
 C604 C 0.37920 0.08581 0.75274
 C605 C 0.41901 0.09178 0.74972
 C606 C 0.43824 0.11196 0.77734
 C607 C 0.41821 0.12635 0.80754
 C608 C 0.37882 0.12011 0.81120
 C609 C 0.43885 0.07802 0.71884
 C610 C 0.41915 0.05945 0.69016
 C611 C 0.37915 0.05425 0.69260
 C612 C 0.35955 0.06689 0.72423
 C613 C 0.35928 0.03716 0.66288
 C614 C 0.37871 0.02595 0.63072
 C615 C 0.41849 0.03062 0.62833
 C616 C 0.43865 0.04692 0.65844
 H617 H 0.32901 0.09494 0.78622
 H618 H 0.46869 0.11694 0.77536
 H619 H 0.43365 0.14203 0.82838
 H620 H 0.46942 0.08247 0.71669
 H621 H 0.32892 0.06272 0.72621
 H622 H 0.32859 0.03313 0.66414
 H623 H 0.36269 0.01354 0.60770
 H624 H 0.46927 0.05118 0.65640
 C625 C 0.14331 0.86424 0.24300
 C626 C 0.12148 0.87990 0.21293
 C627 C 0.10893 0.85924 0.18172
 C628 C 0.11690 0.82322 0.18180
 C629 C 0.13755 0.80775 0.21222
 C630 C 0.15144 0.82807 0.24276
 C631 C 0.08856 0.87481 0.15090
 C632 C 0.07934 0.91061 0.15131
 C633 C 0.09025 0.93109 0.18321
 C634 C 0.11184 0.91573 0.21354
 C635 C 0.07906 0.96651 0.18428
 C636 C 0.05731 0.98144 0.15405
 C637 C 0.04755 0.96151 0.12181
 C638 C 0.05882 0.92616 0.12051
 H639 H 0.15368 0.88003 0.26663
 H640 H 0.10724 0.80699 0.15826
 H641 H 0.14368 0.77990 0.21129
 H642 H 0.07955 0.85898 0.12675
 H643 H 0.12077 0.93155 0.23771
 H644 H 0.08681 0.98256 0.20860
 H645 H 0.04865 1.00873 0.15551
 H646 H 0.05071 0.91058 0.09588
 C647 C 0.87321 0.34916 0.27474
 C648 C 0.89237 0.37178 0.29980
 C649 C 0.87727 0.40571 0.30607
 C650 C 0.84322 0.41642 0.28687
 C651 C 0.82430 0.39368 0.26175
 C652 C 0.83909 0.35982 0.25551
 C653 C 0.89634 0.42820 0.33156
 C654 C 0.93010 0.41697 0.35098
 C655 C 0.94519 0.38304 0.34441
 C656 C 0.92634 0.36076 0.31875
 C657 C 0.97860 0.37166 0.36408
 C658 C 0.99650 0.39334 0.39080
 C659 C 0.98153 0.42692 0.39802
 C660 C 0.94862 0.43883 0.37751
 H661 H 0.88515 0.32323 0.27015
 H662 H 0.83122 0.44234 0.29129
 H663 H 0.79809 0.40261 0.24726
 H664 H 0.88471 0.45419 0.33658
 H665 H 0.93787 0.33470 0.31385
 H666 H 0.99055 0.34578 0.35929
 H667 H 1.02192 0.38362 0.40612
 H668 H 0.93672 0.46460 0.38304
   
