data_POSCAR
  _audit_creation_date              2014-09-24
  _audit_creation_method            'ToBaCCo'
  _symmetry_space_group_name_H-M    'P1'
  _symmetry_Int_Tables_number       1
  _symmetry_cell_setting            triclinic
  loop_
  _symmetry_equiv_pos_as_xyz
 x,y,z
_cell_length_a 30.1221
_cell_length_b 22.6329
_cell_length_c 7.1854
_cell_angle_alpha 89.034800
_cell_angle_beta 90.316200
_cell_angle_gamma 89.890900
loop_
  _atom_site_label
  _atom_site_type_symbol
  _atom_site_fract_x
  _atom_site_fract_y
  _atom_site_fract_z
C1 C 0.21086 0.21461 0.21927
 C2 C 0.20739 0.27559 0.25945
 C3 C 0.24575 0.30756 0.30325
 C4 C 0.28773 0.28091 0.30544
 C5 C 0.29187 0.21998 0.26558
 C6 C 0.25334 0.18846 0.21642
 H7 H 0.25582 0.14130 0.19459
 H8 H 0.24325 0.35475 0.32534
 C9 C 0.78860 0.28365 0.19727
 C10 C 0.79142 0.22213 0.23906
 C11 C 0.75265 0.19077 0.28305
 C12 C 0.71123 0.21882 0.28534
 C13 C 0.70806 0.27977 0.24451
 C14 C 0.74651 0.31110 0.19645
 H15 H 0.74387 0.35841 0.17201
 H16 H 0.75443 0.14348 0.30916
 C17 C 0.71279 0.71887 0.69359
 C18 C 0.70922 0.77874 0.74257
 C19 C 0.74748 0.80987 0.79348
 C20 C 0.78984 0.78344 0.78902
 C21 C 0.79311 0.72302 0.73938
 C22 C 0.75458 0.69186 0.69109
 H23 H 0.75682 0.64520 0.66026
 H24 H 0.74440 0.85649 0.82351
 C25 C 0.29071 0.77982 0.75119
 C26 C 0.28917 0.71926 0.70930
 C27 C 0.24862 0.68919 0.71606
 C28 C 0.20925 0.71757 0.77166
 C29 C 0.21116 0.77866 0.81447
 C30 C 0.25180 0.80865 0.80500
 H31 H 0.25270 0.85570 0.83117
 H32 H 0.24860 0.64221 0.68885
 O33 O 1.04305 -0.07140 0.11176
 O34 O 0.95701 0.03668 0.23159
 O35 O 0.95514 -0.06926 0.10637
 O36 O 1.04358 0.03601 0.22888
 O37 O 1.04531 0.06464 -0.06650
 O38 O 0.95582 -0.03830 -0.18676
 O39 O 0.95807 0.06901 -0.05951
 O40 O 1.04249 -0.04196 -0.18268
 Cu41 Cu 0.99967 -0.02099 0.19780
 Cu42 Cu 1.00021 0.01715 -0.15222
 C43 C 1.05821 -0.07451 -0.05222
 C44 C 0.94261 0.07146 0.10448
 C45 C 0.93988 -0.07099 -0.05846
 C46 C 1.06020 0.06734 0.09846
 O47 O 0.54238 0.43197 0.54939
 O48 O 0.45874 0.54270 0.68078
 O49 O 0.45560 0.43568 0.56790
 O50 O 0.54556 0.53888 0.67688
 O51 O 0.54407 0.57024 0.38451
 O52 O 0.45469 0.46462 0.27297
 O53 O 0.45641 0.57248 0.38699
 O54 O 0.54156 0.46397 0.25802
 Cu55 Cu 0.50093 0.48364 0.64689
 Cu56 Cu 0.49906 0.52168 0.29741
 C57 C 0.55675 0.42929 0.38380
 C58 C 0.44229 0.57555 0.55259
 C59 C 0.43919 0.43299 0.40546
 C60 C 0.56056 0.57197 0.54747
 O61 O -0.04276 0.56831 0.06044
 O62 O 0.04238 0.46085 0.20521
 O63 O 0.04326 0.56694 0.06403
 O64 O -0.04433 0.46102 0.19195
 O65 O -0.04505 0.43100 -0.09917
 O66 O 0.04577 0.53229 -0.22080
 O67 O 0.04186 0.42598 -0.07942
 O68 O -0.04099 0.53732 -0.22877
 Cu69 Cu -0.00041 0.51787 0.15858
 Cu70 Cu 0.00067 0.47772 -0.18511
 C71 C -0.05665 0.57141 -0.10642
 C72 C 0.05689 0.42492 0.08617
 C73 C 0.05982 0.56751 -0.09807
 C74 C -0.06047 0.42914 0.06453
 O75 O 0.54410 1.03826 0.31058
 O76 O 0.45640 0.93265 0.44019
 O77 O 0.45731 1.03822 0.29751
 O78 O 0.54244 0.93079 0.43983
 O79 O 0.54193 0.96221 0.72862
 O80 O 0.45794 1.07275 0.58270
 O81 O 0.45511 0.96631 0.72630
 O82 O 0.54456 1.06921 0.60024
 Cu83 Cu 0.50010 0.98137 0.34395
 Cu84 Cu 0.49968 1.02144 0.68759
 C85 C 0.56000 1.07104 0.43649
 C86 C 0.44047 0.93155 0.60345
 C87 C 0.44283 1.07393 0.41717
 C88 C 0.55704 0.92791 0.60558
 C89 C 1.17318 0.13603 0.04968
 C90 C 1.17310 0.17876 0.18993
 C91 C 1.13514 0.18348 0.30343
 C92 C 1.09859 0.14632 0.27759
 C93 C 1.09870 0.10528 0.13396
 C94 C 1.13604 0.10068 0.01968
 H95 H 1.20137 0.13141 -0.04198
 H96 H 1.13435 0.21431 0.41699
 H97 H 1.07003 0.15020 0.36754
 H98 H 1.13664 0.06905 -0.09186
 C99 C 0.66475 0.66238 0.47520
 C100 C 0.67309 0.68264 0.65526
 C101 C 0.64390 0.66745 0.79976
 C102 C 0.60711 0.63155 0.76513
 C103 C 0.59844 0.61155 0.58443
 C104 C 0.62735 0.62784 0.43942
 H105 H 0.68705 0.67372 0.36238
 H106 H 0.65005 0.68264 0.93974
 H107 H 0.58537 0.61959 0.87924
 H108 H 0.62164 0.61264 0.29915
 C109 C -0.13523 0.31314 0.27794
 C110 C -0.17346 0.31876 0.16442
 C111 C -0.17378 0.36189 0.02088
 C112 C -0.13654 0.39686 -0.01223
 C113 C -0.09893 0.39141 0.10224
 C114 C -0.09855 0.34992 0.24889
 H115 H -0.13432 0.28201 0.39401
 H116 H -0.20230 0.36718 -0.07047
 H117 H -0.13727 0.42889 -0.12604
 H118 H -0.06973 0.34549 0.33895
 C119 C 0.34908 0.85002 0.86220
 C120 C 0.33123 0.81534 0.72011
 C121 C 0.35012 0.81794 0.54236
 C122 C 0.38623 0.85465 0.50647
 C123 C 0.40396 0.89012 0.64731
 C124 C 0.38531 0.88705 0.82630
 H125 H 0.33465 0.84886 0.99998
 H126 H 0.33606 0.79282 0.42952
 H127 H 0.39956 0.85623 0.36678
 H128 H 0.39823 0.91389 0.93754
 C129 C -0.14862 0.65211 -0.36938
 C130 C -0.16570 0.68823 -0.22964
 C131 C -0.14540 0.68776 -0.05359
 C132 C -0.10906 0.65127 -0.01651
 C133 C -0.09239 0.61396 -0.15432
 C134 C -0.11208 0.61538 -0.33228
 H135 H -0.16401 0.65175 -0.50597
 H136 H -0.15854 0.71445 0.05719
 H137 H -0.09480 0.65118 0.12221
 H138 H -0.10001 0.58707 -0.44109
 C139 C 0.34420 1.14312 0.16843
 C140 C 0.33223 1.18857 0.29039
 C141 C 0.35916 1.19789 0.44824
 C142 C 0.39590 1.16192 0.48581
 C143 C 0.40696 1.11586 0.36625
 C144 C 0.38139 1.10769 0.20480
 H145 H 0.32480 1.13493 0.04412
 H146 H 0.35011 1.22993 0.55134
 H147 H 0.41480 1.16901 0.61213
 H148 H 0.38916 1.07252 0.10983
 C149 C 1.13958 -0.17533 -0.29362
 C150 C 1.17094 -0.18553 -0.15122
 C151 C 1.16474 -0.15982 0.02275
 C152 C 1.12719 -0.12542 0.05561
 C153 C 1.09600 -0.11431 -0.08710
 C154 C 1.10260 -0.13925 -0.26254
 H155 H 1.14421 -0.19442 -0.42940
 H156 H 1.18878 -0.16700 0.13355
 H157 H 1.12314 -0.10612 0.19145
 H158 H 1.07914 -0.13104 -0.37482
 C159 C 0.64656 0.31353 0.44827
 C160 C 0.66628 0.31318 0.27191
 C161 C 0.64838 0.34901 0.12868
 C162 C 0.61169 0.38534 0.16246
 C163 C 0.59259 0.38677 0.34068
 C164 C 0.61003 0.34968 0.48218
 H165 H 0.66052 0.28750 0.56213
 H166 H 0.66338 0.34967 -0.00803
 H167 H 0.59910 0.41345 0.05063
 H168 H 0.59634 0.34989 0.62124
 C169 C 0.86598 -0.18447 -0.28374
 C170 C 0.82761 -0.18163 -0.17221
 C171 C 0.82716 -0.14174 -0.02372
 C172 C 0.86430 -0.10719 0.01538
 C173 C 0.90194 -0.10961 -0.09788
 C174 C 0.90245 -0.14796 -0.24885
 H175 H 0.86711 -0.21308 -0.40293
 H176 H 0.79861 -0.13869 0.06668
 H177 H 0.86331 -0.07756 0.13218
 H178 H 0.93119 -0.15000 -0.33851
 C179 C 0.35681 0.32897 0.18223
 C180 C 0.32679 0.31976 0.32890
 C181 C 0.33353 0.34857 0.49765
 C182 C 0.37054 0.38459 0.52193
 C183 C 0.40067 0.39411 0.37570
 C184 C 0.39326 0.36661 0.20464
 H185 H 0.35172 0.30746 0.05030
 H186 H 0.31055 0.34216 0.61165
 H187 H 0.37529 0.40578 0.65464
 H188 H 0.41599 0.37344 0.09001
 C189 C 0.14346 0.69029 -0.04670
 C190 C 0.17028 0.68347 -0.20485
 C191 C 0.15920 0.63869 -0.33120
 C192 C 0.12240 0.60229 -0.30054
 C193 C 0.09640 0.60885 -0.14069
 C194 C 0.10710 0.65357 -0.01523
 H195 H 0.15209 0.72132 0.06023
 H196 H 0.17865 0.63224 -0.45561
 H197 H 0.11498 0.56811 -0.39966
 H198 H 0.08800 0.65934 0.11046
 C199 C 0.66327 1.16235 0.50497
 C200 C 0.67157 1.18277 0.32363
 C201 C 0.64287 1.16714 0.17821
 C202 C 0.60636 1.13062 0.21381
 C203 C 0.59772 1.11051 0.39604
 C204 C 0.62628 1.12719 0.54144
 H205 H 0.68536 1.17390 0.61812
 H206 H 0.64919 1.18243 0.03715
 H207 H 0.58485 1.11835 0.09958
 H208 H 0.62058 1.11190 0.68299
 C209 C 0.14571 0.30767 0.04723
 C210 C 0.16608 0.30968 0.22312
 C211 C 0.14893 0.34758 0.35771
 C212 C 0.11237 0.38368 0.31577
 C213 C 0.09266 0.38280 0.13783
 C214 C 0.10931 0.34371 0.00510
 H215 H 0.15887 0.27943 -0.05961
 H216 H 0.16430 0.34982 0.49406
 H217 H 0.10031 0.41334 0.42096
 H218 H 0.09501 0.34208 -0.13335
 C219 C 0.64654 0.81341 0.54248
 C220 C 0.66717 0.81192 0.71773
 C221 C 0.64993 0.84649 0.86105
 C222 C 0.61295 0.88289 0.82790
 C223 C 0.59299 0.88539 0.65050
 C224 C 0.60974 0.84936 0.50950
 H225 H 0.66001 0.78849 0.42845
 H226 H 0.66567 0.84619 0.99698
 H227 H 0.60083 0.91020 0.93910
 H228 H 0.59536 0.85035 0.37097
 C229 C 0.84909 0.14972 0.35249
 C230 C 0.83266 0.18741 0.21096
 C231 C 0.85389 0.18888 0.03757
 C232 C 0.89044 0.15251 0.00493
 C233 C 0.90646 0.11376 0.14504
 C234 C 0.88581 0.11343 0.32024
 H235 H 0.83311 0.14790 0.48715
 H236 H 0.84137 0.21703 -0.07437
 H237 H 0.90546 0.15374 -0.13168
 H238 H 0.89730 0.08408 0.43102
 C239 C 0.33796 0.66671 0.48667
 C240 C 0.32983 0.68545 0.66806
 C241 C 0.35962 0.66984 0.81160
 C242 C 0.39670 0.63464 0.77465
 C243 C 0.40495 0.61575 0.59271
 C244 C 0.37554 0.63288 0.44872
 H245 H 0.31512 0.67824 0.37476
 H246 H 0.35354 0.68380 0.95271
 H247 H 0.41875 0.62197 0.88807
 H248 H 0.38081 0.61852 0.30747
   
