data_POSCAR
  _audit_creation_date              2014-09-24
  _audit_creation_method            'ToBaCCo'
  _symmetry_space_group_name_H-M    'P1'
  _symmetry_Int_Tables_number       1
  _symmetry_cell_setting            triclinic
  loop_
  _symmetry_equiv_pos_as_xyz
 x,y,z
_cell_length_a 49.3747
_cell_length_b 45.6586
_cell_length_c 45.7905
_cell_angle_alpha 89.312100
_cell_angle_beta 89.724600
_cell_angle_gamma 90.051300
loop_
  _atom_site_label
  _atom_site_type_symbol
  _atom_site_fract_x
  _atom_site_fract_y
  _atom_site_fract_z
C1 C 0.29025 0.28898 0.23771
 H2 H 0.29123 0.28924 0.26131
 C3 C 0.30802 0.30630 0.22114
 H4 H 0.32278 0.31972 0.23217
 C5 C 0.27034 0.27034 0.19477
 H6 H 0.25587 0.25604 0.18455
 C7 C 0.28775 0.28727 0.17735
 H8 H 0.28607 0.28622 0.15382
 N9 N 0.27167 0.27174 0.22439
 C10 C 0.20719 0.25923 0.28884
 H11 H 0.20605 0.23556 0.28954
 C12 C 0.18966 0.27579 0.30603
 H13 H 0.17529 0.26467 0.32024
 C14 C 0.22757 0.30235 0.26957
 H15 H 0.24202 0.31266 0.25497
 C16 C 0.21044 0.31976 0.28640
 H17 H 0.21196 0.34337 0.28451
 Zn18 Zn 0.24875 0.24857 0.24859
 N19 N 0.22590 0.27264 0.27137
 C20 C 0.26972 0.22694 0.30249
 N21 N 0.27138 0.22545 0.27288
 C22 C 0.29012 0.20824 0.25966
 C23 C 0.30776 0.19107 0.27633
 C24 C 0.28699 0.21017 0.32001
 C25 C 0.20767 0.23792 0.20822
 C26 C 0.19029 0.22138 0.19099
 C27 C 0.21075 0.17738 0.21066
 C28 C 0.22776 0.19478 0.22749
 N29 N 0.22617 0.22449 0.22572
 H30 H 0.25512 0.24123 0.31264
 H31 H 0.29136 0.20792 0.23607
 H32 H 0.32268 0.17769 0.26537
 H33 H 0.28507 0.21131 0.34353
 H34 H 0.20648 0.26159 0.20766
 H35 H 0.17561 0.23251 0.17732
 H36 H 0.21266 0.15379 0.21199
 H37 H 0.24216 0.18445 0.24198
 C38 C 0.19124 0.30651 0.30504
 C39 C 0.30686 0.30564 0.19051
 C40 C 0.19176 0.19067 0.19200
 C41 C 0.30630 0.19186 0.30695
 C42 C 0.79028 0.78934 0.23953
 H43 H 0.79163 0.78949 0.26310
 C44 C 0.80782 0.80670 0.22272
 H45 H 0.82289 0.81930 0.23413
 C46 C 0.76989 0.77068 0.19700
 H47 H 0.75521 0.75647 0.18701
 C48 C 0.78706 0.78759 0.17928
 H49 H 0.78411 0.78660 0.15595
 N50 N 0.77156 0.77210 0.22654
 C51 C 0.70771 0.75969 0.29170
 H52 H 0.70659 0.73603 0.29245
 C53 C 0.69020 0.77628 0.30889
 H54 H 0.67588 0.76517 0.32318
 C55 C 0.72795 0.80280 0.27221
 H56 H 0.74232 0.81309 0.25749
 C57 C 0.71085 0.82023 0.28904
 H58 H 0.71230 0.84383 0.28705
 Zn59 Zn 0.74888 0.74898 0.25104
 N60 N 0.72632 0.77309 0.27409
 C61 C 0.77033 0.72724 0.30466
 N62 N 0.77169 0.72576 0.27504
 C63 C 0.79022 0.70846 0.26158
 C64 C 0.80796 0.69119 0.27803
 C65 C 0.78771 0.71036 0.32196
 C66 C 0.70725 0.73861 0.21133
 C67 C 0.68955 0.72222 0.19433
 C68 C 0.71011 0.67805 0.21348
 C69 C 0.72744 0.69530 0.23010
 N70 N 0.72594 0.72502 0.22846
 H71 H 0.75590 0.74159 0.31498
 H72 H 0.79122 0.70814 0.23798
 H73 H 0.82270 0.67774 0.26689
 H74 H 0.78603 0.71150 0.34550
 H75 H 0.70615 0.76228 0.21089
 H76 H 0.67473 0.73347 0.18096
 H77 H 0.71195 0.65444 0.21468
 H78 H 0.74201 0.68485 0.24431
 C79 C 0.69170 0.80699 0.30777
 C80 C 0.80652 0.80626 0.19189
 C81 C 0.69092 0.69150 0.19519
 C82 C 0.80680 0.69196 0.30867
 C83 C 0.79160 0.29030 0.73927
 H84 H 0.79257 0.29058 0.76287
 C85 C 0.80945 0.30750 0.72268
 H86 H 0.82426 0.32087 0.73370
 C87 C 0.77162 0.27170 0.69635
 H88 H 0.75710 0.25745 0.68614
 C89 C 0.78911 0.28851 0.67891
 H90 H 0.78743 0.28744 0.65538
 N91 N 0.77296 0.27313 0.72597
 C92 C 0.70826 0.26086 0.79017
 H93 H 0.70705 0.23720 0.79079
 C94 C 0.69062 0.27743 0.80721
 H95 H 0.67610 0.26631 0.82125
 C96 C 0.72890 0.30397 0.77119
 H97 H 0.74349 0.31426 0.75674
 C98 C 0.71166 0.32139 0.78788
 H99 H 0.71323 0.34499 0.78606
 Zn100 Zn 0.74990 0.25010 0.75014
 N101 N 0.72713 0.27426 0.77289
 C102 C 0.77068 0.22831 0.80400
 N103 N 0.77233 0.22679 0.77448
 C104 C 0.79090 0.20939 0.76139
 C105 C 0.80835 0.19200 0.77807
 C106 C 0.78773 0.21139 0.82162
 C107 C 0.70870 0.23986 0.70986
 C108 C 0.69105 0.22352 0.69277
 C109 C 0.71118 0.17929 0.71233
 C110 C 0.72847 0.19649 0.72903
 N111 N 0.72715 0.22621 0.72726
 H112 H 0.75606 0.24262 0.81408
 H113 H 0.79229 0.20921 0.73780
 H114 H 0.82335 0.17970 0.76618
 H115 H 0.78430 0.21258 0.84487
 H116 H 0.70773 0.26353 0.70932
 H117 H 0.67639 0.23480 0.67921
 H118 H 0.71284 0.15567 0.71367
 H119 H 0.74283 0.18601 0.74345
 C120 C 0.69225 0.30814 0.80628
 C121 C 0.80830 0.30681 0.69205
 C122 C 0.69219 0.19279 0.69381
 C123 C 0.80723 0.19244 0.80904
 C124 C 0.29102 0.79071 0.73930
 H125 H 0.29217 0.79088 0.76289
 C126 C 0.30877 0.80797 0.72264
 H127 H 0.32367 0.82127 0.73360
 C128 C 0.27070 0.77235 0.69647
 H129 H 0.25608 0.75818 0.68632
 C130 C 0.28808 0.78923 0.67896
 H131 H 0.28622 0.78827 0.65544
 N132 N 0.27225 0.77364 0.72608
 C133 C 0.20809 0.76144 0.79093
 H134 H 0.20675 0.73779 0.79150
 C135 C 0.19069 0.77809 0.80819
 H136 H 0.17585 0.76705 0.82190
 C137 C 0.22857 0.80448 0.77157
 H138 H 0.24311 0.81472 0.75703
 C139 C 0.21155 0.82197 0.78843
 H140 H 0.21361 0.84555 0.78708
 Zn141 Zn 0.24935 0.75059 0.75040
 N142 N 0.22678 0.77478 0.77337
 C143 C 0.27048 0.72869 0.80412
 N144 N 0.27198 0.72727 0.77450
 C145 C 0.29054 0.70995 0.76112
 C146 C 0.30814 0.69258 0.77764
 C147 C 0.28772 0.71172 0.82149
 C148 C 0.20794 0.74025 0.71032
 C149 C 0.19033 0.72384 0.69324
 C150 C 0.21063 0.67969 0.71276
 C151 C 0.22789 0.69696 0.72944
 N152 N 0.22647 0.72668 0.72767
 H153 H 0.25604 0.74306 0.81439
 H154 H 0.29165 0.70968 0.73752
 H155 H 0.32290 0.67910 0.76655
 H156 H 0.28592 0.71280 0.84502
 H157 H 0.20690 0.76392 0.70977
 H158 H 0.17562 0.73506 0.67969
 H159 H 0.21241 0.65608 0.71408
 H160 H 0.24231 0.68653 0.74383
 C161 C 0.19235 0.80880 0.80715
 C162 C 0.30738 0.80744 0.69203
 C163 C 0.19160 0.69311 0.69426
 C164 C 0.30683 0.69329 0.80827
 Si165 Si -0.00008 0.00008 -0.00032
 Si166 Si 0.00296 0.50071 0.49982
 Si167 Si 0.50181 0.00181 0.50003
 Si168 Si 0.50165 0.50088 -0.00017
 C169 C 0.15095 -0.16430 -0.12845
 C170 C 0.13978 -0.13848 -0.13992
 C171 C 0.14571 -0.12991 -0.16869
 C172 C 0.16278 -0.14704 -0.18593
 C173 C 0.17413 -0.17303 -0.17460
 C174 C 0.16800 -0.18148 -0.14566
 C175 C 0.12223 -0.12080 -0.12219
 C176 C 0.10752 -0.10599 -0.10737
 C177 C 0.09026 -0.08865 -0.09005
 C178 C 0.07547 -0.07386 -0.07530
 C179 C 0.05772 -0.05624 -0.05774
 C180 C 0.03918 -0.03725 -0.07113
 C181 C 0.02179 -0.02027 -0.05411
 C182 C 0.02267 -0.02234 -0.02354
 C183 C 0.04156 -0.04106 -0.01020
 C184 C 0.05894 -0.05804 -0.02723
 H185 H 0.14654 -0.17110 -0.10618
 H186 H 0.13711 -0.11001 -0.17782
 H187 H 0.16681 -0.14015 -0.20824
 H188 H 0.17669 -0.20115 -0.13619
 H189 H 0.03819 -0.03554 -0.09472
 H190 H 0.00784 -0.00556 -0.06495
 H191 H 0.04275 -0.04264 0.01338
 H192 H 0.07328 -0.07256 -0.01662
 C193 C 0.16576 0.36686 0.35441
 C194 C 0.13856 0.35895 0.35814
 C195 C 0.12853 0.33393 0.34452
 C196 C 0.14563 0.31685 0.32724
 C197 C 0.17301 0.32462 0.32334
 C198 C 0.18288 0.34984 0.33713
 C199 C 0.12100 0.37652 0.37597
 C200 C 0.10642 0.39133 0.39094
 C201 C 0.08947 0.40877 0.40852
 C202 C 0.07512 0.42377 0.42356
 C203 C 0.05812 0.44178 0.44157
 C204 C 0.03025 0.44336 0.43637
 C205 C 0.01378 0.46096 0.45381
 C206 C 0.02503 0.47733 0.47650
 C207 C 0.05296 0.47532 0.48185
 C208 C 0.06941 0.45772 0.46441
 H209 H 0.17375 0.38614 0.36492
 H210 H 0.10749 0.32765 0.34720
 H211 H 0.13734 0.29779 0.31663
 H212 H 0.20393 0.35618 0.33488
 H213 H 0.02124 0.43095 0.41888
 H214 H -0.00769 0.46159 0.44954
 H215 H 0.06216 0.48700 0.49964
 H216 H 0.09093 0.45648 0.46879
 C217 C 0.62877 -0.16559 0.34679
 C218 C 0.63865 -0.14042 0.36026
 C219 C 0.66583 -0.13243 0.35661
 C220 C 0.68309 -0.14951 0.33955
 C221 C 0.67337 -0.17487 0.32591
 C222 C 0.64600 -0.18273 0.32973
 C223 C 0.62093 -0.12276 0.37781
 C224 C 0.60620 -0.10789 0.39255
 C225 C 0.58908 -0.09037 0.40984
 C226 C 0.57458 -0.07532 0.42466
 C227 C 0.55742 -0.05724 0.44242
 C228 C 0.56849 -0.04144 0.46549
 C229 C 0.55189 -0.02379 0.48272
 C230 C 0.52406 -0.02158 0.47692
 C231 C 0.51303 -0.03780 0.45400
 C232 C 0.52964 -0.05546 0.43677
 H233 H 0.60774 -0.17193 0.34940
 H234 H 0.67371 -0.11303 0.36701
 H235 H 0.70412 -0.14310 0.33735
 H236 H 0.63781 -0.20190 0.31921
 H237 H 0.58993 -0.04283 0.47022
 H238 H 0.56090 -0.01223 0.50070
 H239 H 0.49163 -0.03701 0.44938
 H240 H 0.52081 -0.06775 0.41910
 C241 C 0.62908 0.33549 -0.15509
 C242 C 0.63894 0.36047 -0.14126
 C243 C 0.66617 0.36840 -0.14461
 C244 C 0.68350 0.35143 -0.16169
 C245 C 0.67381 0.32624 -0.17566
 C246 C 0.64638 0.31846 -0.17217
 C247 C 0.62117 0.37794 -0.12358
 C248 C 0.60638 0.39262 -0.10872
 C249 C 0.58920 0.40990 -0.09125
 C250 C 0.57465 0.42473 -0.07627
 C251 C 0.55743 0.44255 -0.05831
 C252 C 0.56844 0.45813 -0.03507
 C253 C 0.55179 0.47553 -0.01766
 C254 C 0.52395 0.47773 -0.02345
 C255 C 0.51298 0.46171 -0.04654
 C256 C 0.52964 0.44429 -0.06395
 H257 H 0.60802 0.32919 -0.15271
 H258 H 0.67404 0.38765 -0.13393
 H259 H 0.70458 0.35778 -0.16364
 H260 H 0.63822 0.29943 -0.18294
 H261 H 0.58989 0.45675 -0.03034
 H262 H 0.56076 0.48693 0.00044
 H263 H 0.49158 0.46249 -0.05117
 H264 H 0.52085 0.43217 -0.08176
 C265 C -0.14486 0.13364 -0.16838
 C266 C -0.14075 0.14038 -0.13912
 C267 C -0.15392 0.16441 -0.12707
 C268 C -0.17118 0.18171 -0.14414
 C269 C -0.17582 0.17548 -0.17406
 C270 C -0.16206 0.15082 -0.18564
 C271 C -0.12299 0.12265 -0.12145
 C272 C -0.10811 0.10781 -0.10665
 C273 C -0.09065 0.09045 -0.08934
 C274 C -0.07573 0.07564 -0.07457
 C275 C -0.05786 0.05796 -0.05696
 C276 C -0.03931 0.07130 -0.03829
 C277 C -0.02188 0.05415 -0.02126
 C278 C -0.02274 0.02350 -0.02295
 C279 C -0.04161 0.01022 -0.04139
 C280 C -0.05903 0.02737 -0.05842
 H281 H -0.13494 0.11483 -0.17788
 H282 H -0.15065 0.17003 -0.10443
 H283 H -0.17956 0.20074 -0.13366
 H284 H -0.16525 0.14338 -0.20764
 H285 H -0.03836 0.09495 -0.03685
 H286 H -0.00794 0.06493 -0.00677
 H287 H -0.04279 -0.01342 -0.04268
 H288 H -0.07338 0.01680 -0.07269
 C289 C -0.15064 0.62792 0.33543
 C290 C -0.13907 0.63944 0.36066
 C291 C -0.14516 0.66811 0.36892
 C292 C -0.16275 0.68520 0.35204
 C293 C -0.17450 0.67383 0.32663
 C294 C -0.16823 0.64498 0.31851
 C295 C -0.12097 0.62186 0.37809
 C296 C -0.10583 0.60716 0.39271
 C297 C -0.08810 0.58998 0.40986
 C298 C -0.07297 0.57533 0.42455
 C299 C -0.05492 0.55787 0.44214
 C300 C -0.03365 0.57117 0.45712
 C301 C -0.01619 0.55425 0.47434
 C302 C -0.01966 0.52377 0.47651
 C303 C -0.04132 0.51065 0.46182
 C304 C -0.05877 0.52757 0.44462
 H305 H -0.14612 0.60572 0.32889
 H306 H -0.13625 0.67728 0.38837
 H307 H -0.16688 0.70745 0.35866
 H308 H -0.17720 0.63546 0.29928
 H309 H -0.03063 0.59465 0.45560
 H310 H -0.00023 0.56520 0.48596
 H311 H -0.04512 0.48739 0.46406
 H312 H -0.07538 0.51707 0.43343
 C313 C 0.34892 0.12809 0.33425
 C314 C 0.36019 0.13971 0.35959
 C315 C 0.35388 0.16834 0.36775
 C316 C 0.33635 0.18532 0.35067
 C317 C 0.32491 0.17384 0.32514
 C318 C 0.33140 0.14502 0.31711
 C319 C 0.37823 0.12226 0.37721
 C320 C 0.39333 0.10766 0.39199
 C321 C 0.41100 0.09060 0.40933
 C322 C 0.42609 0.07604 0.42416
 C323 C 0.44409 0.05867 0.44191
 C324 C 0.46528 0.07207 0.45693
 C325 C 0.48269 0.05523 0.47429
 C326 C 0.47925 0.02476 0.47656
 C327 C 0.45766 0.01154 0.46183
 C328 C 0.44025 0.02838 0.44448
 H329 H 0.35362 0.10591 0.32777
 H330 H 0.36256 0.17759 0.38729
 H331 H 0.33205 0.20754 0.35722
 H332 H 0.32266 0.13544 0.29780
 H333 H 0.46828 0.09554 0.45533
 H334 H 0.49860 0.06624 0.48594
 H335 H 0.45389 -0.01171 0.46412
 H336 H 0.42371 0.01781 0.43326
 C337 C 0.35448 0.66910 -0.13126
 C338 C 0.36052 0.64043 -0.13955
 C339 C 0.34904 0.62901 -0.16487
 C340 C 0.33159 0.64618 -0.18186
 C341 C 0.32537 0.67504 -0.17371
 C342 C 0.33703 0.68631 -0.14820
 C343 C 0.37848 0.62275 -0.12207
 C344 C 0.39352 0.60796 -0.10741
 C345 C 0.41112 0.59067 -0.09022
 C346 C 0.42615 0.57593 -0.07550
 C347 C 0.44410 0.55836 -0.05788
 C348 C 0.44027 0.52805 -0.05566
 C349 C 0.45762 0.51103 -0.03844
 C350 C 0.47916 0.52408 -0.02347
 C351 C 0.48259 0.55457 -0.02539
 C352 C 0.46524 0.57159 -0.04263
 H353 H 0.36333 0.67819 -0.11174
 H354 H 0.35351 0.60681 -0.17145
 H355 H 0.32267 0.63675 -0.20116
 H356 H 0.33294 0.70855 -0.14155
 H357 H 0.42376 0.51760 -0.06707
 H358 H 0.45385 0.48775 -0.03641
 H359 H 0.49846 0.56546 -0.01355
 H360 H 0.46823 0.59508 -0.04396
 C361 C -0.15234 -0.16645 0.12790
 C362 C -0.14089 -0.14105 0.13922
 C363 C -0.14673 -0.13303 0.16789
 C364 C -0.16395 -0.15030 0.18525
 C365 C -0.17585 -0.17614 0.17427
 C366 C -0.16961 -0.18380 0.14512
 C367 C -0.12313 -0.12323 0.12142
 C368 C -0.10825 -0.10830 0.10652
 C369 C -0.09081 -0.09083 0.08910
 C370 C -0.07588 -0.07591 0.07424
 C371 C -0.05800 -0.05813 0.05654
 C372 C -0.05926 -0.02755 0.05802
 C373 C -0.04181 -0.01030 0.04092
 C374 C -0.02281 -0.02347 0.02238
 C375 C -0.02186 -0.05411 0.02066
 C376 C -0.03933 -0.07136 0.03777
 H377 H -0.14775 -0.17301 0.10576
 H378 H -0.13812 -0.11323 0.17681
 H379 H -0.16859 -0.14243 0.20687
 H380 H -0.17705 -0.20378 0.13561
 H381 H -0.07371 -0.01706 0.07237
 H382 H -0.04306 0.01334 0.04222
 H383 H -0.00783 -0.06481 0.00610
 H384 H -0.03830 -0.09500 0.03631
 C385 C -0.14903 0.37090 0.66498
 C386 C -0.13754 0.35947 0.63955
 C387 C -0.14369 0.33082 0.63129
 C388 C -0.16128 0.31367 0.64834
 C389 C -0.17295 0.32496 0.67394
 C390 C -0.16660 0.35378 0.68208
 C391 C -0.11952 0.37715 0.62192
 C392 C -0.10447 0.39200 0.60714
 C393 C -0.08690 0.40943 0.58983
 C394 C -0.07193 0.42437 0.57504
 C395 C -0.05412 0.44227 0.55737
 C396 C -0.03287 0.42940 0.54176
 C397 C -0.01561 0.44679 0.52454
 C398 C -0.01950 0.47719 0.52283
 C399 C -0.04079 0.49000 0.53851
 C400 C -0.05803 0.47262 0.55572
 H401 H -0.14447 0.39308 0.67154
 H402 H -0.13486 0.32172 0.61168
 H403 H -0.16547 0.29145 0.64170
 H404 H -0.17552 0.36324 0.70145
 H405 H -0.02965 0.40595 0.54290
 H406 H 0.00074 0.43644 0.51274
 H407 H -0.04407 0.51344 0.53740
 H408 H -0.07441 0.48281 0.56770
 C409 C 0.34993 -0.12837 0.66498
 C410 C 0.36125 -0.13968 0.63942
 C411 C 0.35501 -0.16826 0.63102
 C412 C 0.33750 -0.18548 0.64811
 C413 C 0.32601 -0.17432 0.67386
 C414 C 0.33243 -0.14555 0.68211
 C415 C 0.37923 -0.12194 0.62179
 C416 C 0.39426 -0.10704 0.60704
 C417 C 0.41183 -0.08955 0.58978
 C418 C 0.42680 -0.07458 0.57504
 C419 C 0.44464 -0.05666 0.55743
 C420 C 0.46593 -0.06951 0.54187
 C421 C 0.48322 -0.05211 0.52470
 C422 C 0.47933 -0.02171 0.52300
 C423 C 0.45799 -0.00891 0.53862
 C424 C 0.44071 -0.02631 0.55578
 H425 H 0.35456 -0.10624 0.67163
 H426 H 0.36372 -0.17726 0.61131
 H427 H 0.33324 -0.20766 0.64137
 H428 H 0.32364 -0.13620 0.70159
 H429 H 0.46916 -0.09296 0.54301
 H430 H 0.49960 -0.06245 0.51293
 H431 H 0.45470 0.01452 0.53751
 H432 H 0.42431 -0.01613 0.56772
 C433 C 0.35481 0.32996 0.12982
 C434 C 0.36085 0.35862 0.13814
 C435 C 0.34930 0.36996 0.16357
 C436 C 0.33176 0.35275 0.18062
 C437 C 0.32553 0.32391 0.17243
 C438 C 0.33726 0.31271 0.14682
 C439 C 0.37887 0.37639 0.12060
 C440 C 0.39392 0.39133 0.10591
 C441 C 0.41151 0.40888 0.08874
 C442 C 0.42650 0.42393 0.07409
 C443 C 0.44434 0.44196 0.05661
 C444 C 0.44043 0.47232 0.05520
 C445 C 0.45773 0.48985 0.03821
 C446 C 0.47909 0.47717 0.02252
 C447 C 0.48296 0.44676 0.02398
 C448 C 0.46565 0.42923 0.04098
 H449 H 0.36371 0.32093 0.11021
 H450 H 0.35377 0.39215 0.17017
 H451 H 0.32278 0.36213 0.19999
 H452 H 0.33316 0.29048 0.14014
 H453 H 0.42402 0.48241 0.06720
 H454 H 0.45446 0.51329 0.03729
 H455 H 0.49936 0.43651 0.01215
 H456 H 0.46887 0.40577 0.04194
 C457 C 0.14493 0.12964 0.16783
 C458 C 0.13926 0.13829 0.13909
 C459 C 0.15066 0.16406 0.12764
 C460 C 0.16770 0.18113 0.14484
 C461 C 0.17357 0.17261 0.17376
 C462 C 0.16198 0.14666 0.18507
 C463 C 0.12173 0.12072 0.12136
 C464 C 0.10704 0.10601 0.10654
 C465 C 0.08981 0.08877 0.08923
 C466 C 0.07505 0.07405 0.07449
 C467 C 0.05736 0.05649 0.05696
 C468 C 0.05870 0.05839 0.02645
 C469 C 0.04141 0.04141 0.00946
 C470 C 0.02249 0.02258 0.02284
 C471 C 0.02146 0.02044 0.05341
 C472 C 0.03876 0.03741 0.07040
 H473 H 0.13614 0.10977 0.17695
 H474 H 0.14645 0.17092 0.10539
 H475 H 0.17658 0.20077 0.13537
 H476 H 0.16581 0.13971 0.20736
 H477 H 0.07309 0.07297 0.01581
 H478 H 0.04272 0.04305 -0.01412
 H479 H 0.00748 0.00564 0.06428
 H480 H 0.03767 0.03562 0.09399
 C481 C 0.15006 0.66671 0.63014
 C482 C 0.13863 0.64097 0.64164
 C483 C 0.14438 0.63232 0.67037
 C484 C 0.16154 0.64928 0.68752
 C485 C 0.17319 0.67518 0.67615
 C486 C 0.16721 0.68372 0.64726
 C487 C 0.12114 0.62336 0.62392
 C488 C 0.10656 0.60858 0.60903
 C489 C 0.08958 0.59125 0.59154
 C490 C 0.07514 0.57642 0.57655
 C491 C 0.05797 0.55870 0.55858
 C492 C 0.03884 0.53989 0.57148
 C493 C 0.02226 0.52256 0.55402
 C494 C 0.02458 0.52400 0.52347
 C495 C 0.04394 0.54275 0.51068
 C496 C 0.06050 0.56006 0.52813
 H497 H 0.14581 0.67356 0.60790
 H498 H 0.13558 0.61247 0.67952
 H499 H 0.16545 0.64232 0.70979
 H500 H 0.17613 0.70332 0.63774
 H501 H 0.03680 0.53854 0.59503
 H502 H 0.00781 0.50802 0.56451
 H503 H 0.04630 0.54387 0.48716
 H504 H 0.07533 0.57443 0.51790
 C505 C 0.65028 0.16664 0.62988
 C506 C 0.63867 0.14104 0.64148
 C507 C 0.64447 0.13236 0.67018
 C508 C 0.66185 0.14917 0.68723
 C509 C 0.67366 0.17494 0.67577
 C510 C 0.66765 0.18350 0.64689
 C511 C 0.62091 0.12363 0.62388
 C512 C 0.60611 0.10903 0.60907
 C513 C 0.58887 0.09191 0.59166
 C514 C 0.57424 0.07725 0.57671
 C515 C 0.55690 0.05972 0.55876
 C516 C 0.53766 0.04104 0.57167
 C517 C 0.52100 0.02379 0.55423
 C518 C 0.52335 0.02519 0.52368
 C519 C 0.54276 0.04385 0.51087
 C520 C 0.55941 0.06108 0.52831
 H521 H 0.64599 0.17352 0.60765
 H522 H 0.63553 0.11261 0.67940
 H523 H 0.66578 0.14220 0.70949
 H524 H 0.67668 0.20301 0.63732
 H525 H 0.53564 0.03970 0.59522
 H526 H 0.50651 0.00931 0.56472
 H527 H 0.54515 0.04492 0.48736
 H528 H 0.57431 0.07534 0.51807
 C529 C 0.64359 0.63078 0.17136
 C530 C 0.63763 0.63961 0.14273
 C531 C 0.64897 0.66540 0.13127
 C532 C 0.66625 0.68232 0.14834
 C533 C 0.67243 0.67361 0.17713
 C534 C 0.66088 0.64765 0.18846
 C535 C 0.61999 0.62213 0.12505
 C536 C 0.60530 0.60751 0.11015
 C537 C 0.58820 0.59039 0.09258
 C538 C 0.57368 0.57577 0.07747
 C539 C 0.55648 0.55831 0.05930
 C540 C 0.55910 0.55994 0.02888
 C541 C 0.54255 0.54283 0.01122
 C542 C 0.52312 0.52402 0.02378
 C543 C 0.52068 0.52234 0.05431
 C544 C 0.53725 0.53947 0.07198
 H545 H 0.63487 0.61088 0.18046
 H546 H 0.64456 0.67239 0.10911
 H547 H 0.67509 0.70197 0.13886
 H548 H 0.66496 0.64057 0.21065
 H549 H 0.57400 0.57433 0.01882
 H550 H 0.54501 0.54412 -0.01228
 H551 H 0.50617 0.50775 0.06463
 H552 H 0.53514 0.53793 0.09551
   
