data_POSCAR
  _audit_creation_date              2014-09-24
  _audit_creation_method            'ToBaCCo'
  _symmetry_space_group_name_H-M    'P1'
  _symmetry_Int_Tables_number       1
  _symmetry_cell_setting            triclinic
  loop_
  _symmetry_equiv_pos_as_xyz
 x,y,z
_cell_length_a 52.1293
_cell_length_b 52.1376
_cell_length_c 52.2517
_cell_angle_alpha 90.000300
_cell_angle_beta 89.987200
_cell_angle_gamma 90.050300
loop_
  _atom_site_label
  _atom_site_type_symbol
  _atom_site_fract_x
  _atom_site_fract_y
  _atom_site_fract_z
N1 N 0.15459 0.21803 0.21922
 N2 N 0.16050 0.19837 0.23386
 C3 C 0.14329 0.19672 0.25307
 C4 C 0.12587 0.21637 0.25013
 C5 C 0.13346 0.22953 0.22855
 H6 H 0.14328 0.18234 0.26799
 H7 H 0.12429 0.24617 0.22026
 Cu8 Cu 0.18996 0.17683 0.22608
 Cu9 Cu 0.17476 0.22740 0.18927
 Cu10 Cu 0.22738 0.18921 0.17523
 N11 N 0.21948 0.15548 0.21804
 N12 N 0.23396 0.16037 0.19799
 C13 C 0.25282 0.14279 0.19664
 C14 C 0.24992 0.12613 0.21690
 C15 C 0.22867 0.13457 0.23014
 H16 H 0.26747 0.14213 0.18200
 H17 H 0.22055 0.12602 0.24718
 N18 N 0.21762 0.21926 0.15453
 N19 N 0.19756 0.23378 0.15986
 C20 C 0.19610 0.25280 0.14245
 C21 C 0.21616 0.25000 0.12554
 C22 C 0.22944 0.22866 0.13359
 H23 H 0.18161 0.26763 0.14208
 H24 H 0.24644 0.22067 0.12483
 H25 H 0.18823 0.19090 0.18166
 H26 H 0.20894 0.21196 0.20192
 N27 N 0.65480 0.71822 0.71918
 N28 N 0.66069 0.69851 0.73377
 C29 C 0.64349 0.69686 0.75297
 C30 C 0.62611 0.71655 0.75011
 C31 C 0.63370 0.72975 0.72856
 H32 H 0.64351 0.68244 0.76785
 H33 H 0.62455 0.74644 0.72033
 Cu34 Cu 0.69011 0.67692 0.72601
 Cu35 Cu 0.67499 0.72762 0.68927
 Cu36 Cu 0.72757 0.68946 0.67512
 N37 N 0.71965 0.65564 0.71781
 N38 N 0.73412 0.66060 0.69778
 C39 C 0.75304 0.64309 0.69640
 C40 C 0.75018 0.62642 0.71664
 C41 C 0.72889 0.63476 0.72988
 H42 H 0.76773 0.64250 0.68180
 H43 H 0.72080 0.62620 0.74692
 N44 N 0.71781 0.71953 0.65451
 N45 N 0.69777 0.73406 0.65988
 C46 C 0.69632 0.75312 0.64252
 C47 C 0.71639 0.75033 0.62563
 C48 C 0.72964 0.72896 0.63360
 H49 H 0.68186 0.76796 0.64217
 H50 H 0.74665 0.72098 0.62482
 H51 H 0.68849 0.69111 0.68156
 H52 H 0.70920 0.71209 0.70186
 N53 N 0.34470 0.78209 0.71936
 N54 N 0.33890 0.80186 0.73390
 C55 C 0.35614 0.80353 0.75306
 C56 C 0.37345 0.78376 0.75023
 C57 C 0.36578 0.77052 0.72874
 H58 H 0.35619 0.81799 0.76789
 H59 H 0.37486 0.75378 0.72055
 Cu60 Cu 0.30947 0.82349 0.72616
 Cu61 Cu 0.32444 0.77267 0.68950
 Cu62 Cu 0.27194 0.81095 0.67534
 N63 N 0.27994 0.84482 0.71802
 N64 N 0.26543 0.83987 0.69800
 C65 C 0.24653 0.85741 0.69663
 C66 C 0.24944 0.87407 0.71688
 C67 C 0.27074 0.86573 0.73010
 H68 H 0.23183 0.85800 0.68203
 H69 H 0.27888 0.87426 0.74713
 N70 N 0.28162 0.78080 0.65473
 N71 N 0.30161 0.76621 0.66013
 C72 C 0.30301 0.74712 0.64279
 C73 C 0.28298 0.74993 0.62586
 C74 C 0.26979 0.77137 0.63381
 H75 H 0.31745 0.73224 0.64247
 H76 H 0.25283 0.77940 0.62500
 H77 H 0.31103 0.80917 0.68174
 H78 H 0.29027 0.78830 0.70210
 N79 N 0.84582 0.28164 0.21964
 N80 N 0.83990 0.30132 0.23426
 C81 C 0.85706 0.30296 0.25350
 C82 C 0.87443 0.28327 0.25059
 C83 C 0.86691 0.27009 0.22901
 H84 H 0.85700 0.31737 0.26839
 H85 H 0.87609 0.25343 0.22074
 Cu86 Cu 0.81048 0.32293 0.22651
 Cu87 Cu 0.82569 0.27229 0.18967
 Cu88 Cu 0.77315 0.31050 0.17553
 N89 N 0.78096 0.34423 0.21832
 N90 N 0.76653 0.33932 0.19825
 C91 C 0.74763 0.35685 0.19687
 C92 C 0.75044 0.37348 0.21715
 C93 C 0.77169 0.36510 0.23041
 H94 H 0.73298 0.35749 0.18223
 H95 H 0.77975 0.37361 0.24749
 N96 N 0.78293 0.28047 0.15484
 N97 N 0.80296 0.26591 0.16021
 C98 C 0.80444 0.24690 0.14279
 C99 C 0.78441 0.24974 0.12586
 C100 C 0.77115 0.27110 0.13388
 H101 H 0.81890 0.23206 0.14243
 H102 H 0.75417 0.27911 0.12510
 H103 H 0.81225 0.30879 0.18203
 H104 H 0.79149 0.28777 0.20224
 N105 N 0.84531 0.71850 0.28074
 N106 N 0.83945 0.69874 0.26620
 C107 C 0.85663 0.69709 0.24699
 C108 C 0.87398 0.71686 0.24980
 C109 C 0.86638 0.73008 0.27132
 H110 H 0.85663 0.68265 0.23215
 H111 H 0.87550 0.74682 0.27950
 Cu112 Cu 0.81005 0.67708 0.27398
 Cu113 Cu 0.82511 0.72789 0.31064
 Cu114 Cu 0.77259 0.68957 0.32485
 N115 N 0.78054 0.65573 0.28218
 N116 N 0.76605 0.66067 0.30221
 C117 C 0.74716 0.64310 0.30360
 C118 C 0.75004 0.62642 0.28337
 C119 C 0.77132 0.63481 0.27014
 H120 H 0.73246 0.64248 0.31821
 H121 H 0.77943 0.62626 0.25310
 N122 N 0.78231 0.71970 0.34542
 N123 N 0.80232 0.73430 0.34002
 C124 C 0.80374 0.75338 0.35736
 C125 C 0.78370 0.75053 0.37428
 C126 C 0.77048 0.72911 0.36633
 H127 H 0.81819 0.76827 0.35769
 H128 H 0.75350 0.72107 0.37513
 H129 H 0.81167 0.69138 0.31840
 H130 H 0.79092 0.71226 0.29807
 N131 N 0.34544 0.21850 -0.21979
 N132 N 0.33961 0.19877 -0.23438
 C133 C 0.35694 0.19706 -0.25349
 C134 C 0.37433 0.21678 -0.25053
 C135 C 0.36662 0.23003 -0.22905
 H136 H 0.35702 0.18257 -0.26830
 H137 H 0.37576 0.24671 -0.22075
 Cu138 Cu 0.31014 0.17720 -0.22646
 Cu139 Cu 0.32517 0.22785 -0.18983
 Cu140 Cu 0.27273 0.18925 -0.17560
 N141 N 0.28068 0.15562 -0.21853
 N142 N 0.26628 0.16037 -0.19840
 C143 C 0.24749 0.14269 -0.19700
 C144 C 0.25034 0.12611 -0.21733
 C145 C 0.27151 0.13470 -0.23065
 H146 H 0.23288 0.14192 -0.18232
 H147 H 0.27958 0.12627 -0.24775
 N148 N 0.28240 0.21941 -0.15494
 N149 N 0.30231 0.23415 -0.16039
 C150 C 0.30364 0.25324 -0.14304
 C151 C 0.28365 0.25027 -0.12607
 C152 C 0.27056 0.22875 -0.13400
 H153 H 0.31798 0.26823 -0.14275
 H154 H 0.25365 0.22061 -0.12517
 H155 H 0.31179 0.19132 -0.18199
 H156 H 0.29092 0.21217 -0.20216
 N157 N 0.65444 0.28141 -0.21938
 N158 N 0.66029 0.30111 -0.23404
 C159 C 0.64301 0.30276 -0.25317
 C160 C 0.62560 0.28306 -0.25017
 C161 C 0.63327 0.26985 -0.22865
 H162 H 0.64297 0.31717 -0.26806
 H163 H 0.62420 0.25313 -0.22038
 Cu164 Cu 0.68990 0.32260 -0.22641
 Cu165 Cu 0.67475 0.27205 -0.18951
 Cu166 Cu 0.72729 0.31045 -0.17550
 N167 N 0.71926 0.34421 -0.21826
 N168 N 0.73373 0.33934 -0.19819
 C169 C 0.75258 0.35696 -0.19682
 C170 C 0.74969 0.37361 -0.21707
 C171 C 0.72846 0.36513 -0.23033
 H172 H 0.76730 0.35758 -0.18226
 H173 H 0.72037 0.37364 -0.24740
 N174 N 0.71766 0.28034 -0.15485
 N175 N 0.69765 0.26570 -0.16017
 C176 C 0.69628 0.24668 -0.14275
 C177 C 0.71636 0.24959 -0.12588
 C178 C 0.72953 0.27101 -0.13393
 H179 H 0.68184 0.23179 -0.14234
 H180 H 0.74650 0.27911 -0.12518
 H181 H 0.68823 0.30855 -0.18202
 H182 H 0.70901 0.28752 -0.20221
 N183 N 0.15499 0.78208 0.28066
 N184 N 0.16085 0.80188 0.26616
 C185 C 0.14370 0.80354 0.24693
 C186 C 0.12637 0.78375 0.24968
 C187 C 0.13395 0.77049 0.27119
 H188 H 0.14376 0.81796 0.23206
 H189 H 0.12484 0.75372 0.27931
 Cu190 Cu 0.19046 0.82329 0.27384
 Cu191 Cu 0.17515 0.77263 0.31057
 Cu192 Cu 0.22767 0.81097 0.32488
 N193 N 0.21977 0.84487 0.28220
 N194 N 0.23424 0.83992 0.30224
 C195 C 0.25316 0.85748 0.30364
 C196 C 0.25029 0.87414 0.28339
 C197 C 0.22901 0.86578 0.27013
 H198 H 0.26786 0.85807 0.31824
 H199 H 0.22094 0.87426 0.25304
 N200 N 0.21790 0.78080 0.34545
 N201 N 0.19790 0.76620 0.34000
 C202 C 0.19640 0.74714 0.35736
 C203 C 0.21637 0.74998 0.37436
 C204 C 0.22964 0.77140 0.36643
 H205 H 0.18194 0.73226 0.35766
 H206 H 0.24657 0.77945 0.37529
 H207 H 0.18866 0.80908 0.31826
 H208 H 0.20947 0.78812 0.29811
 N209 N 0.46828 0.40413 0.46944
 N210 N 0.44849 0.40997 0.48395
 C211 C 0.44686 0.39284 0.50322
 C212 C 0.46665 0.37553 0.50049
 C213 C 0.47989 0.38312 0.47894
 H214 H 0.43246 0.39291 0.51812
 H215 H 0.49669 0.37407 0.47083
 Cu216 Cu 0.42706 0.43954 0.47627
 Cu217 Cu 0.47771 0.42441 0.43953
 Cu218 Cu 0.43934 0.47685 0.42526
 N219 N 0.40547 0.46883 0.46795
 N220 N 0.41040 0.48329 0.44790
 C221 C 0.39289 0.50221 0.44656
 C222 C 0.37625 0.49938 0.46683
 C223 C 0.38461 0.47809 0.48006
 H224 H 0.39233 0.51694 0.43199
 H225 H 0.37615 0.47008 0.49719
 N226 N 0.46951 0.46719 0.40469
 N227 N 0.48414 0.44723 0.41011
 C228 C 0.50323 0.44586 0.39275
 C229 C 0.50036 0.46588 0.37580
 C230 C 0.47890 0.47903 0.38375
 H231 H 0.51814 0.43146 0.39242
 H232 H 0.47083 0.49596 0.37494
 H233 H 0.46214 0.45874 0.45199
 H234 H 0.44119 0.43790 0.43182
 N235 N -0.03190 -0.09537 0.96893
 N236 N -0.05165 -0.08950 0.98349
 C237 C -0.05330 -0.10663 1.00274
 C238 C -0.03358 -0.12399 0.99994
 C239 C -0.02036 -0.11644 0.97838
 H240 H -0.06768 -0.10654 1.01766
 H241 H -0.00367 -0.12560 0.97018
 Cu242 Cu -0.07302 -0.05993 0.97584
 Cu243 Cu -0.02253 -0.07518 0.93898
 Cu244 Cu -0.06079 -0.02253 0.92494
 N245 N -0.09452 -0.03056 0.96773
 N246 N -0.08960 -0.01600 0.94775
 C247 C -0.10714 0.00290 0.94650
 C248 C -0.12376 -0.00005 0.96679
 C249 C -0.11536 -0.02138 0.97991
 H250 H -0.10782 0.01761 0.93193
 H251 H -0.12383 -0.02950 0.99698
 N252 N -0.03073 -0.03233 0.90419
 N253 N -0.01618 -0.05237 0.90953
 C254 C 0.00289 -0.05377 0.89217
 C255 C 0.00010 -0.03370 0.87528
 C256 C -0.02129 -0.02046 0.88329
 H257 H 0.01777 -0.06819 0.89182
 H258 H -0.02925 -0.00343 0.87458
 H259 H -0.03795 -0.04093 0.95142
 H260 H -0.05900 -0.06163 0.93127
 N261 N 1.03199 0.59545 0.96904
 N262 N 1.05168 0.58956 0.98366
 C263 C 1.05331 0.60675 1.00286
 C264 C 1.03363 0.62413 0.99997
 C265 C 1.02046 0.61656 0.97840
 H266 H 1.06765 0.60667 1.01782
 H267 H 1.00376 0.62568 0.97018
 Cu268 Cu 1.07302 0.55991 0.97616
 Cu269 Cu 1.02259 0.57520 0.93916
 Cu270 Cu 1.06083 0.52262 0.92512
 N271 N 1.09456 0.53061 0.96789
 N272 N 1.08968 0.51614 0.94784
 C273 C 1.10722 0.49725 0.94652
 C274 C 1.12383 0.50013 0.96680
 C275 C 1.11543 0.52139 0.98002
 H276 H 1.10786 0.48254 0.93193
 H277 H 1.12388 0.52946 0.99712
 N278 N 1.03076 0.53233 0.90446
 N279 N 1.01619 0.55236 0.90980
 C280 C 0.99715 0.55378 0.89241
 C281 C 0.99998 0.53372 0.87552
 C282 C 1.02136 0.52049 0.88353
 H283 H 0.98230 0.56823 0.89203
 H284 H 1.02938 0.50350 0.87478
 H285 H 1.03795 0.54087 0.95178
 H286 H 1.05908 0.56162 0.93168
 N287 N 0.53177 0.09561 0.46941
 N288 N 0.55157 0.08975 0.48390
 C289 C 0.55323 0.10685 0.50318
 C290 C 0.53344 0.12415 0.50052
 C291 C 0.52018 0.11660 0.47897
 H292 H 0.56771 0.10681 0.51800
 H293 H 0.50341 0.12571 0.47086
 Cu294 Cu 0.57318 0.06043 0.47583
 Cu295 Cu 0.52239 0.07544 0.43938
 Cu296 Cu 0.56086 0.02306 0.42497
 N297 N 0.59459 0.03098 0.46778
 N298 N 0.58972 0.01656 0.44769
 C299 C 0.60725 -0.00234 0.44634
 C300 C 0.62383 0.00047 0.46666
 C301 C 0.61543 0.02172 0.47992
 H302 H 0.60789 -0.01701 0.43172
 H303 H 0.62390 0.02975 0.49703
 N304 N 0.53071 0.03278 0.40438
 N305 N 0.51603 0.05269 0.40987
 C306 C 0.49689 0.05401 0.39258
 C307 C 0.49977 0.03401 0.37561
 C308 C 0.52129 0.02092 0.38348
 H309 H 0.48190 0.06832 0.39235
 H310 H 0.52935 0.00398 0.37467
 H311 H 0.53813 0.04119 0.45165
 H312 H 0.55892 0.06207 0.43139
 N313 N -0.03200 0.09563 0.53077
 N314 N -0.05179 0.08976 0.51627
 C315 C -0.05347 0.10691 0.49704
 C316 C -0.03370 0.12424 0.49978
 C317 C -0.02042 0.11668 0.52129
 H318 H -0.06790 0.10684 0.48218
 H319 H -0.00364 0.12579 0.52940
 Cu320 Cu -0.07322 0.06020 0.52394
 Cu321 Cu -0.02255 0.07542 0.56067
 Cu322 Cu -0.06101 0.02301 0.57501
 N323 N -0.09484 0.03097 0.53233
 N324 N -0.08996 0.01654 0.55240
 C325 C -0.10753 -0.00235 0.55377
 C326 C -0.12413 0.00048 0.53347
 C327 C -0.11570 0.02172 0.52022
 H328 H -0.10815 -0.01706 0.56835
 H329 H -0.12413 0.02971 0.50307
 N330 N -0.03082 0.03268 0.59555
 N331 N -0.01615 0.05262 0.59008
 C332 C 0.00299 0.05398 0.60737
 C333 C 0.00012 0.03397 0.62432
 C334 C -0.02140 0.02084 0.61645
 H335 H 0.01796 0.06834 0.60762
 H336 H -0.02948 0.00389 0.62527
 H337 H -0.03814 0.04112 0.54822
 H338 H -0.05907 0.06201 0.56836
 N339 N 0.46823 0.59561 0.03104
 N340 N 0.44845 0.58977 0.01652
 C341 C 0.44682 0.60693 -0.00270
 C342 C 0.46660 0.62425 0.00007
 C343 C 0.47984 0.61666 0.02159
 H344 H 0.43242 0.60686 -0.01760
 H345 H 0.49663 0.62574 0.02972
 Cu346 Cu 0.42704 0.56015 0.02414
 Cu347 Cu 0.47769 0.57534 0.06090
 Cu348 Cu 0.43938 0.52275 0.07502
 N349 N 0.40546 0.53084 0.03242
 N350 N 0.41043 0.51630 0.05239
 C351 C 0.39291 0.49735 0.05370
 C352 C 0.37623 0.50025 0.03348
 C353 C 0.38457 0.52160 0.02032
 H354 H 0.39236 0.48257 0.06822
 H355 H 0.37607 0.52968 0.00325
 N356 N 0.46954 0.53243 0.09560
 N357 N 0.48413 0.55247 0.09025
 C358 C 0.50321 0.55387 0.10760
 C359 C 0.50039 0.53379 0.12447
 C360 C 0.47896 0.52057 0.11649
 H361 H 0.51808 0.56833 0.10796
 H362 H 0.47093 0.50357 0.12525
 H363 H 0.46220 0.54105 0.04831
 H364 H 0.44123 0.56177 0.06856
 N365 N 0.53180 -0.09541 0.03103
 N366 N 0.55160 -0.08958 0.01653
 C367 C 0.55334 -0.10681 -0.00263
 C368 C 0.53355 -0.12414 0.00013
 C369 C 0.52024 -0.11649 0.02159
 H370 H 0.56782 -0.10681 -0.01745
 H371 H 0.50341 -0.12555 0.02967
 Cu372 Cu 0.57303 -0.05994 0.02402
 Cu373 Cu 0.52237 -0.07514 0.06088
 Cu374 Cu 0.56084 -0.02277 0.07523
 N375 N 0.59472 -0.03081 0.03260
 N376 N 0.58984 -0.01636 0.05266
 C377 C 0.60748 0.00246 0.05408
 C378 C 0.62418 -0.00045 0.03386
 C379 C 0.61571 -0.02167 0.02058
 H380 H 0.60808 0.01720 0.06863
 H381 H 0.62419 -0.02974 0.00350
 N382 N 0.53058 -0.03238 0.09572
 N383 N 0.51591 -0.05232 0.09025
 C384 C 0.49675 -0.05367 0.10751
 C385 C 0.49960 -0.03366 0.12447
 C386 C 0.52113 -0.02053 0.11661
 H387 H 0.48179 -0.06805 0.10777
 H388 H 0.52922 -0.00360 0.12544
 H389 H 0.53802 -0.04083 0.04849
 H390 H 0.55900 -0.06176 0.06851
 N391 N 1.03167 0.40455 0.53056
 N392 N 1.05137 0.41047 0.51594
 C393 C 1.05298 0.39334 0.49670
 C394 C 1.03328 0.37594 0.49956
 C395 C 1.02010 0.38346 0.52114
 H396 H 1.06737 0.39341 0.48179
 H397 H 1.00340 0.37430 0.52936
 Cu398 Cu 1.07286 0.43993 0.52384
 Cu399 Cu 1.02228 0.42471 0.56054
 Cu400 Cu 1.06068 0.47731 0.57464
 N401 N 1.09437 0.46938 0.53175
 N402 N 1.08952 0.48383 0.55183
 C403 C 1.10714 0.50269 0.55317
 C404 C 1.12374 0.49982 0.53286
 C405 C 1.11525 0.47858 0.51962
 H406 H 1.10785 0.51735 0.56780
 H407 H 1.12373 0.47048 0.50255
 N408 N 1.03060 0.46755 0.59533
 N409 N 1.01598 0.44752 0.58998
 C410 C 0.99691 0.44614 0.60735
 C411 C 0.99978 0.46620 0.62424
 C412 C 1.02121 0.47940 0.61624
 H413 H 0.98200 0.43171 0.60770
 H414 H 1.02924 0.49640 0.62499
 H415 H 1.03775 0.45897 0.54810
 H416 H 1.05872 0.43823 0.56829
 C417 C 0.34664 -0.02307 0.25611
 C418 C 0.36013 -0.00050 0.25027
 C419 C 0.34663 0.02203 0.24445
 C420 C 0.31975 0.02199 0.24448
 C421 C 0.30637 -0.00056 0.25030
 C422 C 0.31976 -0.02308 0.25611
 C423 C 0.38835 -0.00046 0.25026
 C424 C 0.40185 -0.00624 0.22774
 C425 C 0.42873 -0.00614 0.22773
 C426 C 0.44211 -0.00023 0.25019
 C427 C 0.42874 0.00557 0.27269
 C428 C 0.40185 0.00544 0.27274
 H429 H 0.35704 -0.04049 0.26062
 H430 H 0.35702 0.03947 0.23993
 H431 H 0.39145 -0.01079 0.21035
 H432 H 0.39146 0.00994 0.29015
 H433 H 0.28556 -0.00058 0.25031
 H434 H 0.46292 -0.00013 0.25017
 C435 C 0.15321 -0.02313 0.74390
 C436 C 0.13974 -0.00055 0.74963
 C437 C 0.15327 0.02202 0.75538
 C438 C 0.18015 0.02198 0.75540
 C439 C 0.19350 -0.00058 0.74967
 C440 C 0.18009 -0.02313 0.74392
 C441 C 0.11152 -0.00051 0.74961
 C442 C 0.09799 -0.00631 0.77211
 C443 C 0.07111 -0.00618 0.77210
 C444 C 0.05777 -0.00023 0.74963
 C445 C 0.07117 0.00557 0.72716
 C446 C 0.09805 0.00542 0.72712
 H447 H 0.14279 -0.04057 0.73944
 H448 H 0.14289 0.03947 0.75982
 H449 H 0.10836 -0.01087 0.78951
 H450 H 0.10847 0.00991 0.70972
 H451 H 0.21431 -0.00059 0.74967
 H452 H 0.03696 -0.00010 0.74965
 C453 C 0.65318 0.47722 0.24434
 C454 C 0.63966 0.49977 0.25008
 C455 C 0.65313 0.52235 0.25587
 C456 C 0.68000 0.52237 0.25592
 C457 C 0.69341 0.49985 0.25019
 C458 C 0.68006 0.47728 0.24441
 C459 C 0.61146 0.49974 0.25007
 C460 C 0.59795 0.49388 0.27256
 C461 C 0.57108 0.49392 0.27255
 C462 C 0.55771 0.49984 0.25008
 C463 C 0.57111 0.50570 0.22761
 C464 C 0.59798 0.50564 0.22758
 H465 H 0.64281 0.45976 0.23985
 H466 H 0.64271 0.53978 0.26032
 H467 H 0.60834 0.48932 0.28995
 H468 H 0.60839 0.51018 0.21019
 H469 H 0.71422 0.49988 0.25024
 H470 H 0.53690 0.49989 0.25009
 C471 C 0.84703 0.47746 0.75580
 C472 C 0.86057 0.50000 0.74999
 C473 C 0.84713 0.52256 0.74416
 C474 C 0.82025 0.52256 0.74415
 C475 C 0.80682 0.50004 0.74994
 C476 C 0.82016 0.47750 0.75575
 C477 C 0.88877 0.49998 0.74997
 C478 C 0.90223 0.49416 0.72745
 C479 C 0.92910 0.49417 0.72744
 C480 C 0.94251 0.50002 0.74990
 C481 C 0.92916 0.50586 0.77238
 C482 C 0.90228 0.50584 0.77245
 H483 H 0.85740 0.46001 0.76031
 H484 H 0.85756 0.53998 0.73964
 H485 H 0.89181 0.48965 0.71006
 H486 H 0.89191 0.51037 0.78985
 H487 H 0.78601 0.50006 0.74991
 H488 H 0.96332 0.50002 0.74987
 C489 C 0.25566 0.34770 -0.02269
 C490 C 0.24988 0.36115 -0.00015
 C491 C 0.24398 0.34761 0.02231
 C492 C 0.24383 0.32074 0.02221
 C493 C 0.24962 0.30741 -0.00031
 C494 C 0.25555 0.32082 -0.02275
 C495 C 0.24997 0.38935 -0.00007
 C496 C 0.22744 0.40288 -0.00582
 C497 C 0.22752 0.42975 -0.00573
 C498 C 0.25008 0.44309 0.00008
 C499 C 0.27260 0.42967 0.00581
 C500 C 0.27256 0.40279 0.00576
 H501 H 0.26022 0.35813 -0.04006
 H502 H 0.23952 0.35798 0.03974
 H503 H 0.20997 0.39253 -0.01035
 H504 H 0.28997 0.39237 0.01023
 H505 H 0.24953 0.28660 -0.00036
 H506 H 0.25012 0.46389 0.00013
 C507 C 0.74437 0.15245 -0.02243
 C508 C 0.75024 0.13897 0.00006
 C509 C 0.75623 0.15246 0.02252
 C510 C 0.75639 0.17933 0.02245
 C511 C 0.75053 0.19271 -0.00002
 C512 C 0.74450 0.17932 -0.02245
 C513 C 0.75014 0.11077 0.00010
 C514 C 0.77268 0.09723 -0.00563
 C515 C 0.77258 0.07036 -0.00559
 C516 C 0.75001 0.05704 0.00021
 C517 C 0.72751 0.07045 0.00596
 C518 C 0.72754 0.09733 0.00590
 H519 H 0.73972 0.14204 -0.03979
 H520 H 0.76074 0.14207 0.03991
 H521 H 0.79016 0.10758 -0.01011
 H522 H 0.71012 0.10776 0.01035
 H523 H 0.75065 0.21351 -0.00006
 H524 H 0.74996 0.03623 0.00024
 C525 C 0.24416 0.65224 0.47747
 C526 C 0.25011 0.63874 0.49993
 C527 C 0.25585 0.65222 0.52247
 C528 C 0.25562 0.67909 0.52253
 C529 C 0.24967 0.69248 0.50009
 C530 C 0.24395 0.67911 0.47757
 C531 C 0.25018 0.61054 0.49989
 C532 C 0.27278 0.59709 0.49417
 C533 C 0.27278 0.57021 0.49416
 C534 C 0.25023 0.55680 0.49985
 C535 C 0.22766 0.57013 0.50556
 C536 C 0.22761 0.59700 0.50559
 H537 H 0.23971 0.64186 0.46005
 H538 H 0.26043 0.64181 0.53984
 H539 H 0.29023 0.60751 0.48974
 H540 H 0.21014 0.60735 0.51003
 H541 H 0.24949 0.71328 0.50015
 H542 H 0.25024 0.53599 0.49984
 C543 C 0.75573 0.84793 0.47747
 C544 C 0.74985 0.86138 0.49996
 C545 C 0.74404 0.84788 0.52246
 C546 C 0.74409 0.82102 0.52242
 C547 C 0.74998 0.80766 0.49995
 C548 C 0.75580 0.82107 0.47749
 C549 C 0.74982 0.88956 0.49997
 C550 C 0.72726 0.90301 0.49418
 C551 C 0.72728 0.92987 0.49419
 C552 C 0.74981 0.94328 0.49997
 C553 C 0.77234 0.92993 0.50574
 C554 C 0.77238 0.90306 0.50575
 H555 H 0.76024 0.85834 0.46007
 H556 H 0.73949 0.85826 0.53986
 H557 H 0.70982 0.89259 0.48970
 H558 H 0.78983 0.89269 0.51023
 H559 H 0.75003 0.78686 0.49995
 H560 H 0.74980 0.96408 0.49997
 C561 C -0.02302 0.25625 0.34691
 C562 C -0.00058 0.25012 0.36040
 C563 C 0.02191 0.24397 0.34697
 C564 C 0.02192 0.24393 0.32016
 C565 C -0.00051 0.25008 0.30677
 C566 C -0.02297 0.25624 0.32010
 C567 C -0.00060 0.25012 0.38853
 C568 C -0.00682 0.22767 0.40200
 C569 C -0.00674 0.22768 0.42881
 C570 C -0.00052 0.25011 0.44215
 C571 C 0.00566 0.27255 0.42880
 C572 C 0.00565 0.27257 0.40199
 H573 H -0.04041 0.26099 0.35727
 H574 H 0.03927 0.23923 0.35737
 H575 H -0.01165 0.21031 0.39163
 H576 H 0.01048 0.28992 0.39162
 H577 H -0.00048 0.25006 0.28601
 H578 H -0.00048 0.25010 0.46292
 C579 C -0.02231 0.74403 0.15251
 C580 C 0.00018 0.75009 0.13902
 C581 C 0.02269 0.75616 0.15245
 C582 C 0.02270 0.75618 0.17926
 C583 C 0.00023 0.75013 0.19264
 C584 C -0.02226 0.74405 0.17932
 C585 C 0.00015 0.75010 0.11088
 C586 C -0.00606 0.77255 0.09744
 C587 C -0.00607 0.77254 0.07062
 C588 C 0.00012 0.75011 0.05727
 C589 C 0.00630 0.72767 0.07060
 C590 C 0.00633 0.72765 0.09742
 H591 H -0.03972 0.73935 0.14216
 H592 H 0.04007 0.76084 0.14205
 H593 H -0.01083 0.78991 0.10782
 H594 H 0.01110 0.71028 0.10778
 H595 H 0.00025 0.75015 0.21340
 H596 H 0.00012 0.75012 0.03651
 C597 C 0.47767 0.24372 0.65379
 C598 C 0.50016 0.24985 0.64032
 C599 C 0.52263 0.25597 0.65381
 C600 C 0.52261 0.25595 0.68063
 C601 C 0.50013 0.24981 0.69397
 C602 C 0.47765 0.24370 0.68061
 C603 C 0.50017 0.24987 0.61214
 C604 C 0.49401 0.27235 0.59867
 C605 C 0.49405 0.27236 0.57184
 C606 C 0.50020 0.24990 0.55850
 C607 C 0.50633 0.22744 0.57182
 C608 C 0.50635 0.22742 0.59865
 H609 H 0.46029 0.23900 0.64340
 H610 H 0.54002 0.26071 0.64344
 H611 H 0.48923 0.28971 0.60905
 H612 H 0.51111 0.21005 0.60901
 H613 H 0.50012 0.24979 0.71474
 H614 H 0.50020 0.24991 0.53774
 C615 C 0.47735 0.75626 0.84720
 C616 C 0.49983 0.75013 0.86064
 C617 C 0.52229 0.74400 0.84716
 C618 C 0.52225 0.74398 0.82035
 C619 C 0.49979 0.75011 0.80701
 C620 C 0.47734 0.75625 0.82038
 C621 C 0.49985 0.75013 0.88879
 C622 C 0.49382 0.72763 0.90225
 C623 C 0.49385 0.72764 0.92907
 C624 C 0.49989 0.75012 0.94241
 C625 C 0.50592 0.77261 0.92907
 C626 C 0.50590 0.77264 0.90225
 H627 H 0.45998 0.76098 0.85759
 H628 H 0.53967 0.73928 0.85752
 H629 H 0.48916 0.71022 0.89188
 H630 H 0.51056 0.79004 0.89188
 H631 H 0.49978 0.75011 0.78625
 H632 H 0.49992 0.75011 0.96318
 C633 C 0.10407 0.22190 0.26602
 C634 C 0.08562 0.22671 0.27907
 C635 C 0.06378 0.23253 0.29394
 C636 C 0.04487 0.23764 0.30619
 C637 C 0.60433 0.72207 0.76603
 C638 C 0.58590 0.72686 0.77911
 C639 C 0.56408 0.73266 0.79403
 C640 C 0.54519 0.73775 0.80632
 C641 C 0.39523 0.77821 0.76614
 C642 C 0.41366 0.77339 0.77922
 C643 C 0.43548 0.76758 0.79411
 C644 C 0.45439 0.76248 0.80638
 C645 C -0.10497 0.27806 0.26567
 C646 C -0.08657 0.27329 0.27879
 C647 C -0.06477 0.26753 0.29374
 C648 C -0.04589 0.26246 0.30605
 C649 C -0.10429 0.72239 0.23383
 C650 C -0.08589 0.72716 0.22069
 C651 C -0.06410 0.73289 0.20571
 C652 C -0.04521 0.73791 0.19337
 C653 C 0.39511 0.22195 0.73456
 C654 C 0.41368 0.22669 0.72161
 C655 C 0.43565 0.23244 0.70682
 C656 C 0.45464 0.23749 0.69461
 C657 C 0.60491 0.27779 0.73483
 C658 C 0.58644 0.27298 0.72178
 C659 C 0.56455 0.26720 0.70691
 C660 C 0.54560 0.26215 0.69465
 C661 C 0.10469 0.77816 0.23365
 C662 C 0.08633 0.77332 0.22049
 C663 C 0.06455 0.76749 0.20554
 C664 C 0.04566 0.76240 0.19324
 C665 C 0.26558 0.10425 0.22280
 C666 C 0.27854 0.08577 0.22774
 C667 C 0.29339 0.06390 0.23354
 C668 C 0.30568 0.04497 0.23851
 C669 C 0.76594 0.60464 0.72254
 C670 C 0.77899 0.58624 0.72746
 C671 C 0.79393 0.56445 0.73322
 C672 C 0.80624 0.54555 0.73817
 C673 C 0.76547 0.39542 0.77701
 C674 C 0.77859 0.41381 0.77212
 C675 C 0.79363 0.43560 0.76644
 C676 C 0.80604 0.45451 0.76160
 C677 C 0.26523 -0.10522 0.27778
 C678 C 0.27832 -0.08680 0.27282
 C679 C 0.29332 -0.06500 0.26704
 C680 C 0.30569 -0.04609 0.26208
 C681 C 0.23456 -0.10527 0.72247
 C682 C 0.22149 -0.08685 0.72738
 C683 C 0.20651 -0.06505 0.73311
 C684 C 0.19415 -0.04614 0.73801
 C685 C 0.73467 0.39527 0.22304
 C686 C 0.72158 0.41366 0.22794
 C687 C 0.70656 0.43543 0.23364
 C688 C 0.69417 0.45431 0.23852
 C689 C 0.73431 0.60458 0.27749
 C690 C 0.72128 0.58614 0.27257
 C691 C 0.70635 0.56431 0.26681
 C692 C 0.69403 0.54538 0.26187
 C693 C 0.23465 0.10422 0.77678
 C694 C 0.22161 0.08575 0.77190
 C695 C 0.20663 0.06391 0.76620
 C696 C 0.19426 0.04499 0.76131
 C697 C 0.22199 0.26596 0.10390
 C698 C 0.22692 0.27915 0.08560
 C699 C 0.23274 0.29422 0.06392
 C700 C 0.23776 0.30663 0.04511
 C701 C 0.72224 0.76631 0.60404
 C702 C 0.72720 0.77950 0.58577
 C703 C 0.73304 0.79456 0.56412
 C704 C 0.73806 0.80694 0.54531
 C705 C 0.77783 0.76650 0.39586
 C706 C 0.77284 0.77967 0.41412
 C707 C 0.76695 0.79469 0.43578
 C708 C 0.76189 0.80704 0.45459
 C709 C 0.27771 0.26623 -0.10446
 C710 C 0.27267 0.27940 -0.08617
 C711 C 0.26673 0.29443 -0.06450
 C712 C 0.26164 0.30679 -0.04568
 C713 C 0.72229 0.23371 -0.10423
 C714 C 0.72733 0.22062 -0.08590
 C715 C 0.73328 0.20568 -0.06419
 C716 C 0.73838 0.19336 -0.04536
 C717 C 0.22216 0.73398 0.39597
 C718 C 0.22706 0.72075 0.41424
 C719 C 0.23286 0.70564 0.43589
 C720 C 0.23787 0.69321 0.45468
 C721 C 0.27713 0.73392 0.60426
 C722 C 0.27222 0.72070 0.58598
 C723 C 0.26647 0.70559 0.56431
 C724 C 0.26155 0.69317 0.54548
 C725 C 0.77858 0.23382 0.10420
 C726 C 0.77359 0.22070 0.08587
 C727 C 0.76768 0.20573 0.06417
 C728 C 0.76257 0.19339 0.04534
 C729 C 0.47229 0.35396 0.51668
 C730 C 0.47710 0.33572 0.53003
 C731 C 0.48284 0.31408 0.54526
 C732 C 0.48787 0.29528 0.55774
 C733 C -0.02807 0.85432 0.01597
 C734 C -0.02331 0.83598 0.02917
 C735 C -0.01751 0.81426 0.04421
 C736 C -0.01239 0.79543 0.05658
 C737 C 0.02806 0.64581 0.01598
 C738 C 0.02328 0.66416 0.02917
 C739 C 0.01753 0.68590 0.04420
 C740 C 0.01249 0.70476 0.05656
 C741 C 0.52790 0.14577 0.51667
 C742 C 0.52317 0.16405 0.53001
 C743 C 0.51750 0.18571 0.54523
 C744 C 0.51250 0.20452 0.55771
 C745 C -0.02818 0.14588 0.48369
 C746 C -0.02347 0.16420 0.47042
 C747 C -0.01784 0.18590 0.45529
 C748 C -0.01288 0.20475 0.44288
 C749 C 0.47222 0.64587 0.98396
 C750 C 0.47702 0.66416 0.97069
 C751 C 0.48275 0.68585 0.95555
 C752 C 0.48775 0.70469 0.94313
 C753 C 0.52792 0.85426 0.98400
 C754 C 0.52306 0.83599 0.97071
 C755 C 0.51722 0.81434 0.95556
 C756 C 0.51213 0.79553 0.94314
 C757 C 0.02768 0.35429 0.48352
 C758 C 0.02285 0.33597 0.47030
 C759 C 0.01705 0.31427 0.45523
 C760 C 0.01194 0.29544 0.44285
 C761 C 0.35459 0.51529 0.47283
 C762 C 0.33630 0.52852 0.47775
 C763 C 0.31462 0.54367 0.48345
 C764 C 0.29578 0.55613 0.48831
 C765 C 0.85444 0.01565 -0.02720
 C766 C 0.83605 0.02872 -0.02223
 C767 C 0.81433 0.04376 -0.01645
 C768 C 0.79550 0.05621 -0.01151
 C769 C 0.64585 0.01543 0.02783
 C770 C 0.66413 0.02868 0.02282
 C771 C 0.68575 0.04388 0.01697
 C772 C 0.70454 0.05637 0.01197
 C773 C 0.14556 0.51554 0.52693
 C774 C 0.16398 0.52861 0.52202
 C775 C 0.18577 0.54362 0.51631
 C776 C 0.20467 0.55602 0.51143
 C777 C 0.14558 0.48435 -0.02722
 C778 C 0.16395 0.47126 -0.02226
 C779 C 0.18570 0.45626 -0.01652
 C780 C 0.20457 0.44386 -0.01162
 C781 C 0.64551 0.98463 0.47263
 C782 C 0.66382 0.97145 0.47758
 C783 C 0.68549 0.95636 0.48333
 C784 C 0.70432 0.94394 0.48825
 C785 C 0.85419 0.98463 0.52746
 C786 C 0.83586 0.97148 0.52246
 C787 C 0.81415 0.95643 0.51664
 C788 C 0.79529 0.94402 0.51169
 C789 C 0.35453 0.48438 0.02747
 C790 C 0.33619 0.47121 0.02250
 C791 C 0.31447 0.45613 0.01671
 C792 C 0.29560 0.44372 0.01177
 C793 C 0.51635 0.47181 0.35420
 C794 C 0.52953 0.47684 0.33592
 C795 C 0.54459 0.48276 0.31426
 C796 C 0.55698 0.48784 0.29545
 C797 C 0.01613 -0.02781 0.85370
 C798 C 0.02938 -0.02288 0.83545
 C799 C 0.04452 -0.01711 0.81381
 C800 C 0.05698 -0.01215 0.79501
 C801 C 0.01621 0.02798 0.64581
 C802 C 0.02950 0.02290 0.66399
 C803 C 0.04465 0.01690 0.68554
 C804 C 0.05710 0.01176 0.70429
 C805 C 0.51639 0.52786 0.14604
 C806 C 0.52960 0.52283 0.16429
 C807 C 0.54466 0.51691 0.18592
 C808 C 0.55705 0.51182 0.20472
 C809 C 0.48357 -0.02779 0.14605
 C810 C 0.47035 -0.02286 0.16432
 C811 C 0.45524 -0.01708 0.18598
 C812 C 0.44282 -0.01212 0.20480
 C813 C 0.98378 0.47213 0.64581
 C814 C 0.97058 0.47715 0.66406
 C815 C 0.95553 0.48305 0.68571
 C816 C 0.94315 0.48810 0.70452
 C817 C 0.98399 0.52782 0.85393
 C818 C 0.97078 0.52283 0.83568
 C819 C 0.95569 0.51696 0.81405
 C820 C 0.94326 0.51192 0.79527
 C821 C 0.48368 0.02799 0.35411
 C822 C 0.47041 0.02289 0.33591
 C823 C 0.45527 0.01688 0.31433
 C824 C 0.44284 0.01174 0.29557
   
