data_POSCAR
  _audit_creation_date              2014-09-24
  _audit_creation_method            'ToBaCCo'
  _symmetry_space_group_name_H-M    'P1'
  _symmetry_Int_Tables_number       1
  _symmetry_cell_setting            triclinic
  loop_
  _symmetry_equiv_pos_as_xyz
 x,y,z
_cell_length_a 18.9271
_cell_length_b 18.9271
_cell_length_c 15.9916
_cell_angle_alpha 90.000100
_cell_angle_beta 89.999900
_cell_angle_gamma 88.447100
loop_
  _atom_site_label
  _atom_site_type_symbol
  _atom_site_fract_x
  _atom_site_fract_y
  _atom_site_fract_z
C1 C 0.33443 -0.00033 0.25496
 C2 C 0.14905 0.00717 0.74766
 C3 C 0.64905 0.50717 0.24766
 C4 C 0.83443 0.49967 0.75496
 C5 C 0.25717 0.39905 0.99766
 C6 C 0.74967 0.08443 1.00496
 C7 C 0.24967 0.58443 0.50496
 C8 C 0.75717 0.89905 0.49766
 C9 C -0.00653 0.26011 0.37055
 C10 C 0.01011 0.74347 0.12055
 C11 C 0.51011 0.24347 0.62055
 C12 C 0.49347 0.76011 0.87055
 C13 C -0.25033 0.58443 0.99504
 C14 C -0.24283 0.39905 0.50235
 C15 C 0.25717 -0.10095 0.00235
 C16 C 0.24967 1.08443 0.49504
 C17 C 0.14905 0.50717 0.25234
 C18 C -0.16557 0.99967 0.24504
 C19 C 0.33443 0.49967 -0.25496
 C20 C 0.64905 0.00717 -0.24766
 C21 C 0.01011 0.24347 0.87945
 C22 C 0.49347 0.26011 0.12945
 C23 C -0.00653 0.76011 0.62945
 C24 C 0.51011 0.74347 0.37945
 B25 B -0.04302 0.02603 1.07325
 B26 B -0.07335 0.01778 0.97598
 B27 B -0.01120 0.07781 0.99607
 B28 B 0.04442 0.04337 1.07006
 B29 B 0.01522 -0.03973 1.09219
 B30 B -0.05883 -0.05551 1.03271
 B31 B 0.04990 -0.03685 0.92668
 B32 B 0.08085 -0.02906 1.02401
 B33 B 0.01947 -0.08870 1.00412
 B34 B -0.03663 -0.05463 0.92970
 B35 B -0.00875 0.02926 0.90887
 B36 B 0.06693 0.04322 0.96636
 B37 B 0.45698 0.52603 0.57325
 B38 B 0.42665 0.51778 0.47598
 B39 B 0.48880 0.57781 0.49607
 B40 B 0.54442 0.54337 0.57006
 B41 B 0.51522 0.46027 0.59219
 B42 B 0.44117 0.44449 0.53271
 B43 B 0.54990 0.46315 0.42668
 B44 B 0.58085 0.47094 0.52401
 B45 B 0.51947 0.41130 0.50412
 B46 B 0.46337 0.44537 0.42970
 B47 B 0.49125 0.52926 0.40887
 B48 B 0.56693 0.54322 0.46636
 B49 B 0.54989 0.96315 0.57332
 B50 B 0.58085 0.97094 0.47599
 B51 B 0.51947 0.91130 0.49588
 B52 B 0.46337 0.94537 0.57030
 B53 B 0.49125 1.02926 0.59113
 B54 B 0.56693 1.04322 0.53364
 B55 B 0.45698 1.02603 0.42675
 B56 B 0.42665 1.01778 0.52402
 B57 B 0.48880 1.07781 0.50393
 B58 B 0.54442 1.04337 0.42994
 B59 B 0.51522 0.96027 0.40781
 B60 B 0.44116 0.94449 0.46729
 B61 B 0.04989 0.46315 1.07332
 B62 B 0.08085 0.47094 0.97599
 B63 B 0.01947 0.41130 0.99588
 B64 B -0.03663 0.44537 1.07030
 B65 B -0.00875 0.52926 1.09113
 B66 B 0.06693 0.54322 1.03364
 B67 B -0.04302 0.52603 0.92675
 B68 B -0.07335 0.51779 1.02402
 B69 B -0.01120 0.57781 1.00393
 B70 B 0.04442 0.54337 0.92994
 B71 B 0.01522 0.46027 0.90781
 B72 B -0.05884 0.44449 0.96729
 B73 B 0.03764 0.54397 0.42789
 B74 B 0.06961 0.52808 0.52403
 B75 B 0.00910 0.59355 0.50998
 B76 B -0.04883 0.56824 0.43529
 B77 B -0.02294 0.48401 0.40503
 B78 B 0.05239 0.45957 0.46121
 B79 B -0.05423 0.47959 0.57092
 B80 B -0.08701 0.49664 0.47601
 B81 B -0.02550 0.42993 0.48879
 B82 B 0.03189 0.45571 0.56449
 B83 B 0.00579 0.53983 0.59408
 B84 B -0.06909 0.56394 0.53891
 B85 B 0.53764 0.04397 -0.07211
 B86 B 0.56961 0.02808 0.02403
 B87 B 0.50910 0.09355 0.00998
 B88 B 0.45117 0.06824 -0.06471
 B89 B 0.47706 -0.01599 -0.09497
 B90 B 0.55239 -0.04043 -0.03879
 B91 B 0.44577 -0.02041 0.07092
 B92 B 0.41299 -0.00336 -0.02399
 B93 B 0.47450 -0.07007 -0.01121
 B94 B 0.53189 -0.04429 0.06449
 B95 B 0.50579 0.03983 0.09408
 B96 B 0.43091 0.06394 0.03891
 B97 B 0.44577 0.47959 -0.07092
 B98 B 0.41299 0.49664 0.02399
 B99 B 0.47450 0.42993 0.01120
 B100 B 0.53189 0.45571 -0.06449
 B101 B 0.50579 0.53983 -0.09408
 B102 B 0.43091 0.56394 -0.03891
 B103 B 0.53763 0.54397 0.07211
 B104 B 0.56961 0.52807 -0.02403
 B105 B 0.50910 0.59355 -0.00998
 B106 B 0.45116 0.56824 0.06470
 B107 B 0.47705 0.48401 0.09497
 B108 B 0.55239 0.45956 0.03879
 B109 B -0.05423 0.97959 0.42908
 B110 B -0.08701 0.99664 0.52399
 B111 B -0.02550 0.92993 0.51120
 B112 B 0.03189 0.95571 0.43550
 B113 B 0.00579 1.03983 0.40592
 B114 B -0.06909 1.06394 0.46109
 B115 B 0.03763 1.04396 0.57210
 B116 B 0.06961 1.02807 0.47596
 B117 B 0.00910 1.09355 0.49002
 B118 B -0.04884 1.06824 0.56470
 B119 B -0.02295 0.98401 0.59497
 B120 B 0.05239 0.95956 0.53879
 B121 B 0.77603 0.20698 0.17675
 B122 B 0.76778 0.17665 0.27402
 B123 B 0.82781 0.23880 0.25393
 B124 B 0.79337 0.29442 0.17994
 B125 B 0.71027 0.26522 0.15781
 B126 B 0.69449 0.19117 0.21729
 B127 B 0.71315 0.29990 0.32332
 B128 B 0.72094 0.33085 0.22599
 B129 B 0.66130 0.26947 0.24588
 B130 B 0.69537 0.21337 0.32030
 B131 B 0.77926 0.24125 0.34113
 B132 B 0.79322 0.31693 0.28364
 B133 B 0.71315 0.79989 0.67668
 B134 B 0.72094 0.83085 0.77401
 B135 B 0.66130 0.76947 0.75411
 B136 B 0.69537 0.71337 0.67970
 B137 B 0.77926 0.74125 0.65887
 B138 B 0.79322 0.81693 0.71636
 B139 B 0.77603 0.70698 0.82325
 B140 B 0.76779 0.67665 0.72598
 B141 B 0.82781 0.73880 0.74607
 B142 B 0.79337 0.79442 0.82006
 B143 B 0.71027 0.76522 0.84219
 B144 B 0.69449 0.69116 0.78271
 B145 B 0.29396 0.28764 0.82211
 B146 B 0.27807 0.31961 0.72597
 B147 B 0.34355 0.25910 0.74002
 B148 B 0.31823 0.20116 0.81471
 B149 B 0.23401 0.22706 0.84497
 B150 B 0.20956 0.30239 0.78879
 B151 B 0.22959 0.19577 0.67908
 B152 B 0.24664 0.16299 0.77399
 B153 B 0.17993 0.22450 0.76121
 B154 B 0.20571 0.28189 0.68551
 B155 B 0.28983 0.25579 0.65592
 B156 B 0.31394 0.18091 0.71109
 B157 B 0.22959 0.69577 0.32093
 B158 B 0.24664 0.66299 0.22602
 B159 B 0.17992 0.72450 0.23880
 B160 B 0.20571 0.78189 0.31450
 B161 B 0.28983 0.75579 0.34408
 B162 B 0.31394 0.68092 0.28891
 B163 B 0.29396 0.78763 0.17790
 B164 B 0.27807 0.81961 0.27404
 B165 B 0.34355 0.75910 0.25999
 B166 B 0.31823 0.70116 0.18530
 B167 B 0.23401 0.72705 0.15503
 B168 B 0.20956 0.80239 0.21122
 B169 B 0.27603 0.70698 0.67675
 B170 B 0.26778 0.67665 0.77402
 B171 B 0.32781 0.73880 0.75393
 B172 B 0.29337 0.79442 0.67994
 B173 B 0.21027 0.76522 0.65781
 B174 B 0.19449 0.69117 0.71729
 B175 B 0.21315 0.79990 0.82332
 B176 B 0.22094 0.83085 0.72599
 B177 B 0.16130 0.76947 0.74588
 B178 B 0.19537 0.71337 0.82030
 B179 B 0.27926 0.74125 0.84113
 B180 B 0.29322 0.81693 0.78364
 B181 B 0.21315 0.29989 0.17668
 B182 B 0.22094 0.33085 0.27401
 B183 B 0.16130 0.26947 0.25412
 B184 B 0.19537 0.21337 0.17970
 B185 B 0.27926 0.24125 0.15887
 B186 B 0.29322 0.31693 0.21636
 B187 B 0.27603 0.20698 0.32325
 B188 B 0.26779 0.17665 0.22598
 B189 B 0.32781 0.23880 0.24607
 B190 B 0.29337 0.29442 0.32006
 B191 B 0.21027 0.26522 0.34219
 B192 B 0.19449 0.19116 0.28271
 B193 B 0.79396 0.78763 0.32211
 B194 B 0.77807 0.81961 0.22597
 B195 B 0.84355 0.75910 0.24002
 B196 B 0.81823 0.70116 0.31471
 B197 B 0.73401 0.72706 0.34497
 B198 B 0.70956 0.80239 0.28879
 B199 B 0.72959 0.69577 0.17908
 B200 B 0.74664 0.66299 0.27399
 B201 B 0.67993 0.72450 0.26121
 B202 B 0.70571 0.78189 0.18551
 B203 B 0.78983 0.75579 0.15592
 B204 B 0.81394 0.68091 0.21109
 B205 B 0.72959 0.19577 0.82092
 B206 B 0.74664 0.16299 0.72602
 B207 B 0.67992 0.22450 0.73880
 B208 B 0.70571 0.28189 0.81450
 B209 B 0.78983 0.25579 0.84408
 B210 B 0.81394 0.18092 0.78891
 B211 B 0.79396 0.28763 0.67790
 B212 B 0.77807 0.31961 0.77404
 B213 B 0.84355 0.25910 0.75999
 B214 B 0.81823 0.20116 0.68530
 B215 B 0.73401 0.22705 0.65503
 B216 B 0.70956 0.30239 0.71122
 N217 N 0.37410 0.99550 0.33187
 N218 N 0.41059 1.04719 0.35256
 N219 N -0.12590 0.49550 0.83187
 N220 N -0.08941 0.54719 0.85256
 N221 N 0.08832 -0.01256 0.79589
 N222 N 0.09925 -0.05442 0.85545
 N223 N 0.58832 0.48744 0.29588
 N224 N 0.59925 0.44558 0.35545
 N225 N 0.62652 0.51639 0.16222
 N226 N 0.58073 0.56409 0.14788
 N227 N 0.12652 1.01639 0.66222
 N228 N 0.08073 1.06408 0.64788
 N229 N -0.11503 0.50710 0.68784
 N230 N -0.10147 0.45548 0.64094
 N231 N 0.38497 0.00710 0.18784
 N232 N 0.39853 -0.04452 0.14094
 N233 N 0.32500 0.41997 0.02804
 N234 N 0.33526 0.48411 0.03464
 N235 N -0.17500 0.91997 0.52804
 N236 N -0.16474 0.98411 0.53464
 N237 N -0.18943 0.03691 1.00976
 N238 N -0.14508 0.04598 0.95346
 N239 N 0.31057 0.53691 0.50976
 N240 N 0.35492 0.54598 0.45346
 N241 N 0.18647 0.54388 0.49194
 N242 N 0.14202 0.54980 0.54914
 N243 N 0.68647 0.04388 -0.00806
 N244 N 0.64202 0.04980 0.04914
 N245 N 0.70161 0.95402 0.50266
 N246 N 0.65195 0.93970 0.45451
 N247 N 0.20161 0.45402 1.00266
 N248 N 0.15195 0.43970 0.95451
 N249 N 0.00784 0.32430 0.41974
 N250 N -0.04045 0.35171 0.46497
 N251 N 0.50784 -0.17570 -0.08026
 N252 N 0.45955 -0.14828 -0.03503
 N253 N -0.00889 -0.19311 1.07141
 N254 N 0.03629 -0.16775 1.02262
 N255 N 0.49111 0.30689 0.57141
 N256 N 0.53629 0.33225 0.52262
 N257 N 0.52492 1.18196 0.56659
 N258 N 0.47500 1.15710 0.52415
 N259 N 0.02492 0.68196 1.06659
 N260 N -0.02500 0.65710 1.02415
 N261 N 0.47692 0.69972 -0.07551
 N262 N 0.52599 0.67081 -0.03314
 N263 N -0.02308 1.19972 0.42449
 N264 N 0.02599 1.17080 0.46686
 N265 N 0.74550 0.62410 0.91813
 N266 N 0.79719 0.66059 0.89744
 N267 N 0.24550 0.12410 0.41813
 N268 N 0.29719 0.16059 0.39744
 N269 N 0.73745 0.33832 0.45411
 N270 N 0.69558 0.34925 0.39455
 N271 N 0.23745 0.83832 0.95411
 N272 N 0.19558 0.84925 0.89455
 N273 N 0.26639 0.87652 0.08778
 N274 N 0.31408 0.83073 0.10213
 N275 N 0.76639 0.37652 0.58778
 N276 N 0.81408 0.33073 0.60213
 N277 N 0.25710 0.13497 0.56216
 N278 N 0.20548 0.14853 0.60905
 N279 N 0.75710 0.63497 0.06216
 N280 N 0.70548 0.64853 0.10905
 N281 N 0.16997 0.57500 0.22196
 N282 N 0.23411 0.58525 0.21537
 N283 N 0.66997 0.07500 0.72196
 N284 N 0.73411 0.08525 0.71537
 N285 N 0.78691 0.06057 0.24024
 N286 N 0.79598 0.10492 0.29654
 N287 N 0.28691 0.56057 0.74024
 N288 N 0.29598 0.60492 0.79654
 N289 N 0.29388 0.43647 0.75806
 N290 N 0.29979 0.39202 0.70086
 N291 N 0.79388 0.93647 0.25806
 N292 N 0.79979 0.89202 0.20086
 N293 N 0.70402 0.95161 0.74734
 N294 N 0.68970 0.90195 0.79549
 N295 N 0.20402 0.45161 0.24734
 N296 N 0.18970 0.40195 0.29549
 N297 N 0.07430 0.25784 0.83026
 N298 N 0.10171 0.20955 0.78503
 N299 N 0.57430 0.75784 0.33026
 N300 N 0.60171 0.70955 0.28503
 N301 N 0.55689 0.24111 0.17859
 N302 N 0.58225 0.28629 0.22738
 N303 N 0.05689 0.74111 0.67859
 N304 N 0.08225 0.78629 0.72738
 N305 N 0.93196 0.77492 0.68341
 N306 N 0.90710 0.72500 0.72585
 N307 N 0.43196 0.27492 0.18341
 N308 N 0.40710 0.22500 0.22585
 N309 N 0.44972 0.72692 0.32551
 N310 N 0.42080 0.77599 0.28314
 N311 N 0.94972 0.22692 0.82551
 N312 N 0.92080 0.27599 0.78314
 N313 N 0.58832 0.98744 0.70412
 N314 N 0.59925 0.94558 0.64455
 N315 N 0.08832 0.48744 1.20412
 N316 N 0.09925 0.44558 1.14455
 N317 N -0.12590 -0.00450 1.16813
 N318 N -0.08941 0.04719 1.14745
 N319 N 0.37410 0.49550 0.66813
 N320 N 0.41059 0.54719 0.64745
 N321 N 0.38497 0.50710 -0.18784
 N322 N 0.39853 0.45548 -0.14095
 N323 N -0.11503 1.00710 0.31216
 N324 N -0.10147 0.95548 0.35905
 N325 N 0.12653 0.51640 0.33778
 N326 N 0.08073 0.56409 0.35212
 N327 N 0.62653 0.01640 -0.16222
 N328 N 0.58073 0.06409 -0.14788
 N329 N 0.68647 0.54388 0.00806
 N330 N 0.64202 0.54979 -0.04914
 N331 N 0.18647 1.04388 0.50806
 N332 N 0.14202 1.04979 0.45086
 N333 N 0.20161 -0.04598 0.99734
 N334 N 0.15196 -0.06030 1.04549
 N335 N 0.70161 0.45402 0.49734
 N336 N 0.65196 0.43970 0.54549
 N337 N -0.17499 0.41997 0.47198
 N338 N -0.16474 0.48411 0.46535
 N339 N 0.32501 -0.08003 -0.02802
 N340 N 0.33526 -0.01589 -0.03465
 N341 N 0.31057 1.03691 0.49024
 N342 N 0.35492 1.04599 0.54654
 N343 N -0.18943 0.53691 0.99024
 N344 N -0.14508 0.54599 1.04654
 N345 N -0.02308 0.69972 0.57551
 N346 N 0.02599 0.67081 0.53314
 N347 N 0.47692 0.19972 0.07551
 N348 N 0.52599 0.17081 0.03314
 N349 N 0.02492 0.18196 0.93341
 N350 N -0.02500 0.15710 0.97585
 N351 N 0.52492 0.68196 0.43341
 N352 N 0.47500 0.65710 0.47585
 N353 N 0.49110 0.80689 0.42859
 N354 N 0.53628 0.83225 0.47738
 N355 N -0.00889 0.30689 0.92859
 N356 N 0.03628 0.33225 0.97738
 N357 N 0.50784 0.32430 0.08026
 N358 N 0.45955 0.35171 0.03502
 N359 N 0.00784 0.82430 0.58026
 N360 N -0.04045 0.85171 0.53502
 N361 N 0.23744 0.33832 0.04588
 N362 N 0.19558 0.34925 0.10545
 N363 N 0.73744 0.83832 0.54588
 N364 N 0.69558 0.84925 0.60545
 N365 N 0.24550 0.62409 0.58187
 N366 N 0.29719 0.66059 0.60255
 N367 N 0.74550 0.12409 0.08187
 N368 N 0.79719 0.16059 0.10255
 N369 N 0.75710 0.13497 0.93784
 N370 N 0.70548 0.14853 0.89095
 N371 N 0.25710 0.63497 0.43784
 N372 N 0.20548 0.64853 0.39095
 N373 N 0.76639 0.87653 0.41222
 N374 N 0.81409 0.83073 0.39788
 N375 N 0.26639 0.37653 0.91222
 N376 N 0.31409 0.33073 0.89788
 N377 N 0.79388 0.43647 0.74194
 N378 N 0.79979 0.39202 0.79914
 N379 N 0.29388 0.93647 0.24194
 N380 N 0.29979 0.89202 0.29914
 N381 N 0.20402 0.95161 0.75266
 N382 N 0.18970 0.90196 0.70451
 N383 N 0.70402 0.45161 0.25266
 N384 N 0.68970 0.40196 0.20451
 N385 N 0.66997 0.57500 0.27803
 N386 N 0.73411 0.58526 0.28464
 N387 N 0.16997 0.07500 0.77803
 N388 N 0.23411 0.08526 0.78464
 N389 N 0.28691 0.06057 0.25976
 N390 N 0.29599 0.10492 0.20346
 N391 N 0.78691 0.56057 0.75976
 N392 N 0.79599 0.60492 0.70346
 N393 N 0.94972 0.72692 0.17449
 N394 N 0.92080 0.77599 0.21686
 N395 N 0.44972 0.22692 0.67449
 N396 N 0.42080 0.27599 0.71686
 N397 N 0.43196 0.77492 0.81658
 N398 N 0.40710 0.72500 0.77415
 N399 N 0.93196 0.27492 0.31658
 N400 N 0.90710 0.22500 0.27415
 N401 N 0.05689 0.24110 0.32141
 N402 N 0.08225 0.28628 0.27262
 N403 N 0.55689 0.74110 0.82141
 N404 N 0.58225 0.78628 0.77262
 N405 N 0.57430 0.25784 0.66974
 N406 N 0.60171 0.20955 0.71498
 N407 N 0.07430 0.75784 0.16974
 N408 N 0.10171 0.70955 0.21498
   
