data_POSCAR
  _audit_creation_date              2014-09-24
  _audit_creation_method            'ToBaCCo'
  _symmetry_space_group_name_H-M    'P1'
  _symmetry_Int_Tables_number       1
  _symmetry_cell_setting            triclinic
  loop_
  _symmetry_equiv_pos_as_xyz
 x,y,z
_cell_length_a 39.4031
_cell_length_b 40.6521
_cell_length_c 40.6691
_cell_angle_alpha 88.843300
_cell_angle_beta 89.830000
_cell_angle_gamma 90.722100
loop_
  _atom_site_label
  _atom_site_type_symbol
  _atom_site_fract_x
  _atom_site_fract_y
  _atom_site_fract_z
N1 N 0.16350 0.23585 0.23955
 N2 N 0.17065 0.20846 0.25561
 C3 C 0.15059 0.20563 0.28239
 C4 C 0.12975 0.23283 0.28325
 C5 C 0.13875 0.25147 0.25560
 H6 H 0.15147 0.18545 0.30007
 H7 H 0.12819 0.27471 0.24772
 Cu8 Cu 0.20499 0.17835 0.23998
 Cu9 Cu 0.18732 0.24850 0.19927
 Cu10 Cu 0.26085 0.21224 0.18193
 N11 N 0.24818 0.15774 0.22799
 N12 N 0.26927 0.17055 0.20581
 C13 C 0.29608 0.15063 0.20283
 C14 C 0.29197 0.12421 0.22452
 C15 C 0.26138 0.12968 0.24023
 H16 H 0.31734 0.15534 0.18647
 H17 H 0.24944 0.11447 0.25912
 N18 N 0.24164 0.24587 0.15305
 N19 N 0.21244 0.25969 0.15933
 C20 C 0.20562 0.28186 0.13529
 C21 C 0.23219 0.28221 0.11286
 C22 C 0.25461 0.25898 0.12504
 H23 H 0.18303 0.29660 0.13423
 H24 H 0.27851 0.25184 0.11440
 H25 H 0.21312 0.19502 0.19131
 H26 H 0.23313 0.21797 0.22566
 N27 N 0.64430 0.73128 0.73203
 N28 N 0.65869 0.71225 0.75433
 C29 C 0.64091 0.71348 0.78256
 C30 C 0.61360 0.73398 0.77750
 C31 C 0.61640 0.74473 0.74508
 H32 H 0.64643 0.69935 0.80467
 H33 H 0.59949 0.76102 0.73191
 Cu34 Cu 0.69667 0.68459 0.74307
 Cu35 Cu 0.66272 0.73644 0.68762
 Cu36 Cu 0.74503 0.70825 0.67912
 N37 N 0.73487 0.65849 0.72912
 N38 N 0.75337 0.66754 0.70351
 C39 C 0.77843 0.64583 0.69951
 C40 C 0.77547 0.62167 0.72394
 C41 C 0.74755 0.63067 0.74236
 H42 H 0.79783 0.64814 0.68074
 H43 H 0.73747 0.61830 0.76407
 N44 N 0.72493 0.74073 0.64890
 N45 N 0.69329 0.75065 0.65134
 C46 C 0.68766 0.77370 0.62779
 C47 C 0.71726 0.77851 0.60967
 C48 C 0.74025 0.75704 0.62379
 H49 H 0.66422 0.78700 0.62514
 H50 H 0.76661 0.75432 0.61713
 H51 H 0.69544 0.69634 0.68386
 H52 H 0.70929 0.73256 0.70817
 N53 N 0.32866 0.75886 0.74874
 N54 N 0.31793 0.78359 0.76615
 C55 C 0.33977 0.78903 0.79086
 C56 C 0.36535 0.76619 0.78913
 C57 C 0.35745 0.74732 0.76219
 H58 H 0.33731 0.80826 0.80868
 H59 H 0.37231 0.72763 0.75229
 Cu60 Cu 0.27676 0.80663 0.75480
 Cu61 Cu 0.30631 0.74589 0.70812
 Cu62 Cu 0.24031 0.79538 0.68146
 N63 N 0.24353 0.83709 0.73763
 N64 N 0.22944 0.83279 0.70879
 C65 C 0.20798 0.85762 0.70259
 C66 C 0.20847 0.87868 0.72911
 C67 C 0.23154 0.86471 0.75085
 H68 H 0.19355 0.86029 0.68019
 H69 H 0.23932 0.87385 0.77446
 N70 N 0.25520 0.75630 0.65751
 N71 N 0.28035 0.73749 0.66760
 C72 C 0.28541 0.71392 0.64534
 C73 C 0.26227 0.71800 0.62008
 C74 C 0.24348 0.74503 0.62872
 H75 H 0.30485 0.69546 0.64713
 H76 H 0.22346 0.75627 0.61446
 H77 H 0.28975 0.79305 0.69829
 H78 H 0.25839 0.76362 0.71751
 N79 N 0.85984 0.27825 0.23841
 N80 N 0.85418 0.30719 0.25101
 C81 C 0.87727 0.31306 0.27457
 C82 C 0.89844 0.28608 0.27728
 C83 C 0.88656 0.26457 0.25369
 H84 H 0.87722 0.33457 0.28974
 H85 H 0.89557 0.24015 0.24890
 Cu86 Cu 0.81460 0.33277 0.23897
 Cu87 Cu 0.83038 0.25931 0.20521
 Cu88 Cu 0.76198 0.30588 0.18051
 N89 N 0.76856 0.34908 0.23487
 N90 N 0.74763 0.33765 0.21263
 C91 C 0.71824 0.35403 0.21410
 C92 C 0.72095 0.37719 0.23845
 C93 C 0.75328 0.37336 0.25113
 H94 H 0.69726 0.35070 0.19735
 H95 H 0.76516 0.38770 0.27011
 N96 N 0.77571 0.26587 0.15798
 N97 N 0.80222 0.24831 0.16679
 C98 C 0.80593 0.22365 0.14543
 C99 C 0.78007 0.22552 0.12243
 C100 C 0.76149 0.25262 0.13126
 H101 H 0.82601 0.20583 0.14654
 H102 H 0.73972 0.26260 0.11861
 H103 H 0.81488 0.30377 0.18692
 H104 H 0.78636 0.28377 0.21850
 N105 N 0.85471 0.71894 0.27291
 N106 N 0.84717 0.69077 0.25929
 C107 C 0.86768 0.68656 0.23324
 C108 C 0.88923 0.71368 0.23024
 C109 C 0.88016 0.73371 0.25591
 H110 H 0.86583 0.66601 0.21686
 H111 H 0.89027 0.75785 0.26114
 Cu112 Cu 0.80928 0.66379 0.27487
 Cu113 Cu 0.82923 0.73566 0.30989
 Cu114 Cu 0.75539 0.69331 0.33118
 N115 N 0.76499 0.64380 0.28266
 N116 N 0.74441 0.65480 0.30530
 C117 C 0.71619 0.63584 0.30632
 C118 C 0.71912 0.61190 0.28281
 C119 C 0.75040 0.61775 0.26817
 H120 H 0.69494 0.63942 0.32270
 H121 H 0.76201 0.60374 0.24894
 N122 N 0.77123 0.73285 0.35420
 N123 N 0.79975 0.74853 0.34646
 C124 C 0.80324 0.77481 0.36578
 C125 C 0.77546 0.77599 0.38663
 C126 C 0.75567 0.74896 0.37850
 H127 H 0.82389 0.79247 0.36387
 H128 H 0.73134 0.74194 0.38891
 H129 H 0.80758 0.69190 0.32729
 H130 H 0.78439 0.71436 0.29381
 N131 N 0.34119 0.23480 -0.25012
 N132 N 0.33350 0.20721 -0.26479
 C133 C 0.35543 0.20296 -0.28980
 C134 C 0.37814 0.22939 -0.29081
 C135 C 0.36804 0.24913 -0.26527
 H136 H 0.35525 0.18185 -0.30551
 H137 H 0.38023 0.27153 -0.25729
 Cu138 Cu 0.29671 0.17884 -0.24844
 Cu139 Cu 0.31765 0.24913 -0.21100
 Cu140 Cu 0.25169 0.19947 -0.18169
 N141 N 0.25886 0.15174 -0.23231
 N142 N 0.24198 0.15954 -0.20573
 C143 C 0.21705 0.13718 -0.20022
 C144 C 0.21812 0.11410 -0.22478
 C145 C 0.24497 0.12427 -0.24479
 H146 H 0.19863 0.13847 -0.18057
 H147 H 0.25330 0.11299 -0.26718
 N148 N 0.26546 0.24086 -0.16086
 N149 N 0.29087 0.25950 -0.17179
 C150 C 0.29420 0.28572 -0.15233
 C151 C 0.26959 0.28366 -0.12800
 C152 C 0.25172 0.25494 -0.13436
 H153 H 0.31293 0.30509 -0.15591
 H154 H 0.23015 0.24506 -0.12089
 H155 H 0.30241 0.20289 -0.19427
 H156 H 0.27202 0.22572 -0.22120
 N157 N 0.66557 0.25024 -0.25386
 N158 N 0.67949 0.27185 -0.27442
 C159 C 0.65942 0.27541 -0.30099
 C160 C 0.63086 0.25551 -0.29645
 C161 C 0.63580 0.23986 -0.26625
 H162 H 0.66436 0.29263 -0.32111
 H163 H 0.61906 0.22211 -0.25417
 Cu164 Cu 0.72026 0.29634 -0.26281
 Cu165 Cu 0.68680 0.23721 -0.21242
 Cu166 Cu 0.75198 0.28751 -0.18637
 N167 N 0.75110 0.32884 -0.24447
 N168 N 0.76352 0.32502 -0.21471
 C169 C 0.78297 0.35130 -0.20762
 C170 C 0.78270 0.37295 -0.23428
 C171 C 0.76216 0.35788 -0.25731
 H172 H 0.79548 0.35492 -0.18434
 H173 H 0.75533 0.36744 -0.28136
 N174 N 0.73658 0.24828 -0.16128
 N175 N 0.71200 0.22859 -0.17132
 C176 C 0.70659 0.20478 -0.14824
 C177 C 0.72852 0.21016 -0.12231
 C178 C 0.74717 0.23785 -0.13149
 H179 H 0.68711 0.18586 -0.14942
 H180 H 0.76655 0.24992 -0.11717
 H181 H 0.70361 0.28478 -0.20632
 H182 H 0.73534 0.25463 -0.22173
 N183 N 0.16327 0.76501 0.24879
 N184 N 0.16663 0.79509 0.23662
 C185 C 0.14125 0.80089 0.21526
 C186 C 0.12096 0.77285 0.21370
 C187 C 0.13585 0.75058 0.23537
 H188 H 0.13881 0.82323 0.20067
 H189 H 0.12821 0.72532 0.24016
 Cu190 Cu 0.20659 0.82187 0.24613
 Cu191 Cu 0.19625 0.74582 0.27907
 Cu192 Cu 0.25356 0.80160 0.31151
 N193 N 0.24728 0.84697 0.25721
 N194 N 0.26720 0.83687 0.28111
 C195 C 0.29405 0.85741 0.28316
 C196 C 0.29042 0.88242 0.25981
 C197 C 0.26031 0.87499 0.24378
 H198 H 0.31350 0.85557 0.30180
 H199 H 0.24878 0.88883 0.22388
 N200 N 0.24354 0.75859 0.33226
 N201 N 0.22289 0.73659 0.31931
 C202 C 0.22107 0.70998 0.33966
 C203 C 0.24125 0.71588 0.36680
 C204 C 0.25511 0.74686 0.36119
 H205 H 0.20486 0.68872 0.33591
 H206 H 0.27199 0.76007 0.37732
 H207 H 0.20312 0.79116 0.29806
 H208 H 0.23858 0.77683 0.27159
 N209 N 0.48510 0.42321 0.50546
 N210 N 0.45204 0.42126 0.51077
 C211 C 0.44554 0.39581 0.53172
 C212 C 0.47607 0.38145 0.54018
 C213 C 0.50057 0.39958 0.52325
 H214 H 0.42051 0.38815 0.53999
 H215 H 0.52746 0.39461 0.52230
 Cu216 Cu 0.41970 0.45271 0.49081
 Cu217 Cu 0.50575 0.45266 0.47195
 Cu218 Cu 0.45427 0.50833 0.43854
 N219 N 0.39696 0.49394 0.47943
 N220 N 0.41128 0.51623 0.45988
 C221 C 0.39130 0.54273 0.45765
 C222 C 0.36247 0.53660 0.47642
 C223 C 0.36686 0.50526 0.48976
 H224 H 0.39743 0.56468 0.44336
 H225 H 0.35006 0.49219 0.50673
 N226 N 0.49314 0.49241 0.41452
 N227 N 0.51414 0.47127 0.42797
 C228 C 0.53873 0.46450 0.40615
 C229 C 0.53254 0.48214 0.37726
 C230 C 0.50331 0.49957 0.38361
 H231 H 0.55897 0.44733 0.41082
 H232 H 0.48988 0.51571 0.36687
 H233 H 0.46391 0.47879 0.49054
 H234 H 0.45771 0.45060 0.45540
 N235 N -0.03179 -0.10224 0.98783
 N236 N -0.05502 -0.09136 1.00798
 C237 C -0.05684 -0.11162 1.03458
 C238 C -0.03356 -0.13667 1.03072
 C239 C -0.01828 -0.12984 1.00062
 H240 H -0.07440 -0.10876 1.05475
 H241 H 0.00070 -0.14420 0.98841
 Cu242 Cu -0.08228 -0.05323 0.99579
 Cu243 Cu -0.02207 -0.08097 0.94560
 Cu244 Cu -0.04855 -0.00009 0.94004
 N245 N -0.10473 -0.01204 0.98439
 N246 N -0.09084 0.00882 0.96304
 C247 C -0.11011 0.03579 0.96063
 C248 C -0.13789 0.03165 0.98131
 C249 C -0.13371 0.00086 0.99596
 H250 H -0.10444 0.05669 0.94458
 H251 H -0.15010 -0.01098 1.01409
 N252 N -0.01425 -0.01850 0.91032
 N253 N -0.00441 -0.04935 0.91250
 C254 C 0.01869 -0.05475 0.88889
 C255 C 0.02343 -0.02603 0.87054
 C256 C 0.00191 -0.00357 0.88473
 H257 H 0.03056 -0.07817 0.88491
 H258 H -0.00200 0.02165 0.87695
 H259 H -0.02857 -0.03824 0.96909
 H260 H -0.06252 -0.04809 0.93879
 N261 N 1.01024 0.59017 0.99265
 N262 N 1.03864 0.58262 1.00772
 C263 C 1.04426 0.60422 1.03182
 C264 C 1.01801 0.62657 1.03188
 C265 C 0.99683 0.61679 1.00668
 H266 H 1.06586 0.60368 1.04811
 H267 H 0.97366 0.62840 0.99875
 Cu268 Cu 1.06583 0.54555 0.99430
 Cu269 Cu 0.99354 0.56581 0.95509
 Cu270 Cu 1.04119 0.49944 0.93086
 N271 N 1.09142 0.50723 0.98127
 N272 N 1.08132 0.48928 0.95655
 C273 C 1.10330 0.46474 0.95228
 C274 C 1.12870 0.46732 0.97550
 C275 C 1.12038 0.49466 0.99353
 H276 H 1.10140 0.44675 0.93314
 H277 H 1.13443 0.50471 1.01386
 N278 N 0.99981 0.51339 0.90793
 N279 N 0.98112 0.53814 0.91756
 C280 C 0.95479 0.54160 0.89674
 C281 C 0.95729 0.51810 0.87274
 C282 C 0.98611 0.50069 0.88062
 H283 H 0.93585 0.56052 0.89822
 H284 H 0.99641 0.48033 0.86736
 H285 H 1.01556 0.52189 0.96869
 H286 H 1.04023 0.54947 0.93985
 N287 N 0.52832 0.10685 0.48191
 N288 N 0.54642 0.09287 0.50527
 C289 C 0.54636 0.11184 0.53190
 C290 C 0.52766 0.13968 0.52481
 C291 C 0.51670 0.13573 0.49271
 H292 H 0.55878 0.10547 0.55472
 H293 H 0.50021 0.15181 0.47876
 Cu294 Cu 0.56829 0.05113 0.49895
 Cu295 Cu 0.51918 0.08459 0.44059
 Cu296 Cu 0.53072 0.00017 0.44693
 N297 N 0.58904 0.00994 0.48749
 N298 N 0.57364 -0.01078 0.46797
 C299 C 0.59354 -0.03702 0.46373
 C300 C 0.62331 -0.03223 0.48122
 C301 C 0.61944 -0.00209 0.49601
 H302 H 0.58726 -0.05727 0.44794
 H303 H 0.63773 0.01071 0.51099
 N304 N 0.50062 0.02088 0.41445
 N305 N 0.49846 0.05306 0.41002
 C306 C 0.47931 0.05930 0.38325
 C307 C 0.46873 0.02952 0.37062
 C308 C 0.48255 0.00577 0.39110
 H309 H 0.47336 0.08361 0.37383
 H310 H 0.48101 -0.02060 0.38820
 H311 H 0.51503 0.04373 0.46936
 H312 H 0.55268 0.04510 0.44142
 N313 N -0.02360 0.10645 0.51432
 N314 N -0.04913 0.09723 0.49578
 C315 C -0.05038 0.11729 0.46906
 C316 C -0.02421 0.14030 0.47099
 C317 C -0.00774 0.13256 0.50008
 H318 H -0.06873 0.11509 0.44952
 H319 H 0.01393 0.14511 0.51040
 Cu320 Cu -0.07724 0.05890 0.50767
 Cu321 Cu -0.01360 0.08458 0.55601
 Cu322 Cu -0.06513 0.01920 0.58021
 N323 N -0.10450 0.02043 0.52083
 N324 N -0.09904 0.00491 0.54893
 C325 C -0.11946 -0.02174 0.55124
 C326 C -0.13899 -0.02321 0.52310
 C327 C -0.12879 0.00404 0.50429
 H328 H -0.11923 -0.03926 0.57155
 H329 H -0.13767 0.01095 0.48004
 N330 N -0.02413 0.03215 0.60436
 N331 N -0.00399 0.05670 0.59483
 C332 C 0.02313 0.05766 0.61484
 C333 C 0.01989 0.03248 0.63811
 C334 C -0.01043 0.01683 0.63067
 H335 H 0.04429 0.07466 0.61197
 H336 H -0.02126 -0.00476 0.64277
 H337 H -0.03350 0.03868 0.54412
 H338 H -0.06250 0.06803 0.56494
 N339 N 0.48039 0.59976 0.01311
 N340 N 0.45028 0.59398 0.00048
 C341 C 0.44413 0.61659 -0.02336
 C342 C 0.47216 0.63731 -0.02604
 C343 C 0.49469 0.62587 -0.00262
 H344 H 0.42136 0.61746 -0.03813
 H345 H 0.51946 0.63611 0.00283
 Cu346 Cu 0.42264 0.55654 0.01513
 Cu347 Cu 0.49830 0.57379 0.04966
 Cu348 Cu 0.45647 0.50041 0.06732
 N349 N 0.40297 0.51274 0.02102
 N350 N 0.41622 0.49094 0.04137
 C351 C 0.39748 0.46307 0.04080
 C352 C 0.37119 0.46752 0.01873
 C353 C 0.37552 0.49937 0.00656
 H354 H 0.40278 0.44102 0.05509
 H355 H 0.35984 0.51196 -0.01134
 N356 N 0.49740 0.51485 0.09102
 N357 N 0.51228 0.54371 0.08550
 C358 C 0.53706 0.54802 0.10782
 C359 C 0.53820 0.52021 0.12786
 C360 C 0.51286 0.49966 0.11648
 H361 H 0.55296 0.56977 0.10945
 H362 H 0.50525 0.47611 0.12712
 H363 H 0.47591 0.53181 0.03114
 H364 H 0.45379 0.55124 0.06661
 N365 N 0.51087 -0.08548 -0.00344
 N366 N 0.53919 -0.07852 -0.01938
 C367 C 0.54352 -0.10055 -0.04322
 C368 C 0.51646 -0.12273 -0.04213
 C369 C 0.49622 -0.11225 -0.01651
 H370 H 0.56559 -0.10121 -0.05904
 H371 H 0.47319 -0.12377 -0.00717
 Cu372 Cu 0.56914 -0.04298 -0.00565
 Cu373 Cu 0.49680 -0.06025 0.03449
 Cu374 Cu 0.56705 -0.03036 0.07564
 N375 N 0.60329 -0.01591 0.01545
 N376 N 0.60375 -0.01297 0.04759
 C377 C 0.62989 0.00679 0.05583
 C378 C 0.64611 0.01740 0.02728
 C379 C 0.62839 0.00277 0.00204
 H380 H 0.63473 0.01532 0.08043
 H381 H 0.63256 0.00658 -0.02406
 N382 N 0.52170 -0.03585 0.09638
 N383 N 0.49462 -0.04564 0.08010
 C384 C 0.46700 -0.04273 0.09927
 C385 C 0.47705 -0.03052 0.12934
 C386 C 0.51200 -0.02654 0.12655
 H387 H 0.44143 -0.04819 0.09138
 H388 H 0.52893 -0.01578 0.14434
 H389 H 0.53375 -0.02214 0.03823
 H390 H 0.54589 -0.06592 0.04575
 N391 N 1.01275 0.41340 0.50841
 N392 N 1.04219 0.42171 0.49523
 C393 C 1.05048 0.39952 0.47259
 C394 C 1.02477 0.37593 0.47136
 C395 C 1.00131 0.38555 0.49466
 H396 H 1.07386 0.40031 0.45862
 H397 H 0.97784 0.37315 0.50142
 Cu398 Cu 1.06847 0.45957 0.51008
 Cu399 Cu 0.99287 0.43953 0.54281
 Cu400 Cu 1.02080 0.51698 0.55109
 N401 N 1.08398 0.50524 0.51671
 N402 N 1.06475 0.52769 0.53024
 C403 C 1.08205 0.55645 0.53087
 C404 C 1.11370 0.55164 0.51735
 C405 C 1.11422 0.51899 0.50873
 H406 H 1.07306 0.57864 0.54205
 H407 H 1.13524 0.50617 0.49788
 N408 N 0.98924 0.49645 0.58252
 N409 N 0.97903 0.46571 0.57992
 C410 C 0.95899 0.45758 0.60574
 C411 C 0.95634 0.48478 0.62557
 C412 C 0.97579 0.50906 0.60988
 H413 H 0.94771 0.43349 0.61002
 H414 H 0.98049 0.53389 0.61791
 H415 H 1.02392 0.48314 0.51254
 H416 H 1.04350 0.47272 0.55306
 Si417 Si 0.38338 0.00334 0.24636
 Si418 Si 0.11871 -0.00191 0.75097
 Si419 Si 0.62311 0.49460 0.25354
 Si420 Si 0.86685 0.50081 0.74895
 Si421 Si 0.25052 0.37397 -0.00871
 Si422 Si 0.74938 0.13258 0.00761
 Si423 Si 0.24409 0.63333 0.49607
 Si424 Si 0.74657 0.87641 0.49486
 Si425 Si 0.01074 0.25861 0.37749
 Si426 Si -0.00217 0.74523 0.12387
 Si427 Si 0.50190 0.25352 0.62021
 Si428 Si 0.49416 0.75290 0.87490
 C429 C 0.09584 0.21846 0.33416
 C430 C 0.10420 0.24078 0.30860
 C431 C 0.08724 0.27118 0.30799
 C432 C 0.06025 0.27692 0.32976
 C433 C 0.04986 0.25266 0.35292
 C434 C 0.06935 0.22425 0.35584
 C435 C 0.05887 0.18882 0.35700
 C436 C 0.08769 0.18253 0.33317
 H437 H 0.09350 0.29002 0.28976
 H438 H 0.04636 0.29965 0.32730
 H439 H 0.03333 0.18440 0.34637
 H440 H 0.06296 0.17723 0.38163
 H441 H 0.07885 0.17472 0.30854
 H442 H 0.10812 0.16731 0.34419
 C443 C 0.55316 0.74697 0.79070
 C444 C 0.58605 0.74042 0.80099
 C445 C 0.59118 0.73915 0.83544
 C446 C 0.56377 0.74376 0.85754
 C447 C 0.53027 0.74789 0.84594
 C448 C 0.52659 0.74985 0.81188
 C449 C 0.50180 0.75485 0.78459
 C450 C 0.53189 0.75122 0.76084
 H451 H 0.61629 0.73507 0.84531
 H452 H 0.56882 0.74424 0.88365
 H453 H 0.49092 0.77996 0.78434
 H454 H 0.48307 0.73441 0.78269
 H455 H 0.53828 0.77423 0.74682
 H456 H 0.53056 0.72851 0.74611
 C457 C 0.41172 0.73404 0.81623
 C458 C 0.39545 0.76376 0.81039
 C459 C 0.40973 0.79160 0.82592
 C460 C 0.43932 0.78876 0.84562
 C461 C 0.45476 0.75791 0.85086
 C462 C 0.43940 0.73122 0.83584
 C463 C 0.44205 0.69510 0.83125
 C464 C 0.41064 0.69827 0.80900
 H465 H 0.39865 0.81562 0.82227
 H466 H 0.45017 0.81066 0.85631
 H467 H 0.43703 0.68081 0.85437
 H468 H 0.46551 0.68835 0.81788
 H469 H 0.38758 0.68581 0.81932
 H470 H 0.41607 0.69340 0.78273
 C471 C -0.05962 0.24984 0.30277
 C472 C -0.07625 0.28014 0.30096
 C473 C -0.06772 0.30344 0.32514
 C474 C -0.04185 0.29715 0.34823
 C475 C -0.02420 0.26733 0.34815
 C476 C -0.03435 0.24369 0.32565
 C477 C -0.01396 0.22438 0.30206
 C478 C -0.04146 0.23122 0.27686
 H479 H -0.08006 0.32701 0.32585
 H480 H -0.03496 0.31615 0.36530
 H481 H -0.01267 0.19797 0.30947
 H482 H 0.01076 0.23627 0.29555
 H483 H -0.05558 0.20863 0.26975
 H484 H -0.03273 0.24730 0.25598
 C485 C -0.07134 0.75273 0.19991
 C486 C -0.08642 0.72146 0.20329
 C487 C -0.07883 0.69835 0.17891
 C488 C -0.05439 0.70561 0.15435
 C489 C -0.03724 0.73619 0.15340
 C490 C -0.04734 0.75975 0.17580
 C491 C -0.02730 0.78183 0.19746
 C492 C -0.05343 0.77394 0.22415
 H493 H -0.09053 0.67415 0.17948
 H494 H -0.04795 0.68665 0.13724
 H495 H -0.02782 0.80788 0.18867
 H496 H -0.00170 0.77238 0.20348
 H497 H -0.06863 0.79564 0.23091
 H498 H -0.04297 0.75953 0.24525
 C499 C 0.42726 0.26245 0.69116
 C500 C 0.40682 0.23406 0.68891
 C501 C 0.41752 0.20986 0.66674
 C502 C 0.44602 0.21537 0.64627
 C503 C 0.46448 0.24521 0.64721
 C504 C 0.45493 0.26795 0.67059
 C505 C 0.44852 0.30393 0.66746
 C506 C 0.41808 0.29805 0.68993
 H507 H 0.40380 0.18681 0.66460
 H508 H 0.45278 0.19652 0.62920
 H509 H 0.44127 0.31188 0.64219
 H510 H 0.46896 0.31884 0.67893
 H511 H 0.39336 0.30244 0.67759
 H512 H 0.42108 0.30984 0.71419
 C513 C 0.57203 0.23841 0.69481
 C514 C 0.60240 0.25267 0.68301
 C515 C 0.60270 0.26431 0.64998
 C516 C 0.57273 0.26419 0.63106
 C517 C 0.54144 0.25467 0.64530
 C518 C 0.54223 0.24010 0.67673
 C519 C 0.52149 0.24635 0.70671
 C520 C 0.55389 0.24377 0.72649
 H521 H 0.62587 0.27371 0.63872
 H522 H 0.57388 0.27268 0.60567
 H523 H 0.50303 0.22607 0.71224
 H524 H 0.51101 0.27158 0.70689
 H525 H 0.55433 0.22163 0.74297
 H526 H 0.56149 0.26720 0.73824
 C527 C 0.07773 0.73510 0.18871
 C528 C 0.09255 0.76648 0.19073
 C529 C 0.08069 0.79099 0.16854
 C530 C 0.05291 0.78468 0.14765
 C531 C 0.03656 0.75372 0.14831
 C532 C 0.05042 0.72906 0.16831
 C533 C 0.03429 0.70520 0.19208
 C534 C 0.06407 0.71202 0.21476
 H535 H 0.09187 0.81542 0.16804
 H536 H 0.04336 0.80446 0.13223
 H537 H 0.03392 0.67975 0.18259
 H538 H 0.00971 0.71369 0.20203
 H539 H 0.08050 0.69025 0.21860
 H540 H 0.05674 0.72487 0.23754
 C541 C 0.31806 0.08055 0.26075
 C542 C 0.31603 0.09706 0.23031
 C543 C 0.33937 0.08783 0.20580
 C544 C 0.36037 0.06026 0.21063
 C545 C 0.35861 0.04153 0.24012
 C546 C 0.33908 0.05394 0.26567
 C547 C 0.31543 0.03805 0.29011
 C548 C 0.29193 0.06700 0.28415
 H549 H 0.34017 0.10070 0.18225
 H550 H 0.37681 0.05303 0.19079
 H551 H 0.32628 0.03759 0.31529
 H552 H 0.30447 0.01433 0.28196
 H553 H 0.28890 0.08261 0.30606
 H554 H 0.26796 0.05976 0.27172
 C555 C 0.79673 0.57525 0.75970
 C556 C 0.79867 0.59390 0.73040
 C557 C 0.82438 0.58583 0.70780
 C558 C 0.84496 0.55820 0.71329
 C559 C 0.84071 0.53815 0.74168
 C560 C 0.81709 0.54808 0.76509
 C561 C 0.78919 0.52928 0.78227
 C562 C 0.76699 0.55905 0.77645
 H563 H 0.82778 0.59986 0.68513
 H564 H 0.86318 0.55208 0.69458
 H565 H 0.79466 0.52454 0.80871
 H566 H 0.78022 0.50750 0.76862
 H567 H 0.76001 0.57147 0.79957
 H568 H 0.74555 0.55432 0.75937
 C569 C 0.82435 0.41445 0.78653
 C570 C 0.79956 0.40563 0.76361
 C571 C 0.79131 0.42916 0.73901
 C572 C 0.81038 0.45861 0.73551
 C573 C 0.83822 0.46480 0.75619
 C574 C 0.84331 0.44327 0.78282
 C575 C 0.87499 0.42702 0.79439
 C576 C 0.85419 0.39555 0.79870
 H577 H 0.77109 0.42439 0.72174
 H578 H 0.80427 0.47583 0.71583
 H579 H 0.88419 0.43704 0.81803
 H580 H 0.89444 0.42553 0.77467
 H581 H 0.85124 0.38761 0.82488
 H582 H 0.86182 0.37586 0.78169
 C583 C 0.34365 -0.08873 0.27017
 C584 C 0.31125 -0.08950 0.25606
 C585 C 0.29995 -0.06041 0.24013
 C586 C 0.32108 -0.03219 0.23792
 C587 C 0.35422 -0.03267 0.25072
 C588 C 0.36477 -0.06136 0.26663
 C589 C 0.39559 -0.08138 0.26116
 C590 C 0.37266 -0.11152 0.26505
 H591 H 0.27477 -0.05914 0.22966
 H592 H 0.31184 -0.01038 0.22532
 H593 H 0.41428 -0.07899 0.28141
 H594 H 0.40622 -0.07801 0.23594
 H595 H 0.37824 -0.12648 0.28753
 H596 H 0.37013 -0.12581 0.24213
 C597 C 0.16674 -0.08152 0.70894
 C598 C 0.19009 -0.09212 0.73280
 C599 C 0.19411 -0.07213 0.76067
 C600 C 0.17282 -0.04512 0.76573
 C601 C 0.14689 -0.03739 0.74330
 C602 C 0.14564 -0.05488 0.71408
 C603 C 0.11637 -0.07167 0.69793
 C604 C 0.13950 -0.10039 0.69188
 H605 H 0.21277 -0.07773 0.77932
 H606 H 0.17601 -0.03084 0.78773
 H607 H 0.10851 -0.05877 0.67488
 H608 H 0.09553 -0.07819 0.71543
 H609 H 0.14527 -0.10362 0.66537
 H610 H 0.13172 -0.12324 0.70556
 C611 C 0.70672 0.43344 0.25811
 C612 C 0.69651 0.40336 0.24549
 C613 C 0.66158 0.40025 0.23789
 C614 C 0.63927 0.42707 0.24177
 C615 C 0.65160 0.45833 0.25126
 C616 C 0.68574 0.45970 0.26020
 C617 C 0.71330 0.48130 0.27336
 C618 C 0.73688 0.45168 0.27040
 H619 H 0.65144 0.37720 0.22905
 H620 H 0.61252 0.42335 0.23694
 H621 H 0.70840 0.48841 0.29917
 H622 H 0.72088 0.50178 0.25644
 H623 H 0.74577 0.44185 0.29452
 H624 H 0.75680 0.45509 0.25118
 C625 C 0.69378 0.56958 0.24564
 C626 C 0.69463 0.58525 0.27579
 C627 C 0.67101 0.57349 0.29976
 C628 C 0.64890 0.54661 0.29321
 C629 C 0.64936 0.53131 0.26232
 C630 C 0.67200 0.54436 0.23916
 C631 C 0.68591 0.53936 0.20556
 C632 C 0.71056 0.56800 0.21281
 H633 H 0.67030 0.58422 0.32389
 H634 H 0.63218 0.53749 0.31257
 H635 H 0.66731 0.54517 0.18589
 H636 H 0.69862 0.51528 0.20322
 H637 H 0.70607 0.59044 0.19744
 H638 H 0.73743 0.56020 0.21459
 C639 C 0.19190 0.07119 0.73937
 C640 C 0.19354 0.08690 0.76966
 C641 C 0.16941 0.07711 0.79386
 C642 C 0.14674 0.05064 0.78851
 C643 C 0.14730 0.03371 0.75871
 C644 C 0.16963 0.04519 0.73425
 C645 C 0.19425 0.02758 0.71323
 C646 C 0.21885 0.05600 0.71891
 H647 H 0.16881 0.08890 0.81745
 H648 H 0.12980 0.04274 0.80818
 H649 H 0.18552 0.02610 0.68734
 H650 H 0.20297 0.00404 0.72444
 H651 H 0.22442 0.07070 0.69614
 H652 H 0.24147 0.04881 0.73354
 C653 C 0.21013 0.32449 0.07256
 C654 C 0.23539 0.30229 0.08216
 C655 C 0.26365 0.29936 0.06101
 C656 C 0.26785 0.32059 0.03351
 C657 C 0.24385 0.34500 0.02642
 C658 C 0.21422 0.34524 0.04525
 C659 C 0.19725 0.37311 0.06167
 C660 C 0.19282 0.35052 0.09161
 H661 H 0.28328 0.28170 0.06623
 H662 H 0.29036 0.31860 0.01838
 H663 H 0.17284 0.37957 0.04968
 H664 H 0.21473 0.39426 0.06595
 H665 H 0.16580 0.34415 0.09686
 H666 H 0.20782 0.35851 0.11322
 C667 C 0.75641 0.80614 0.56868
 C668 C 0.72440 0.80370 0.58366
 C669 C 0.70017 0.82744 0.57427
 C670 C 0.70701 0.85019 0.54838
 C671 C 0.73817 0.84968 0.53141
 C672 C 0.76295 0.82830 0.54315
 C673 C 0.78600 0.80542 0.52598
 C674 C 0.77855 0.78076 0.55380
 H675 H 0.67551 0.82785 0.58599
 H676 H 0.68735 0.86703 0.54080
 H677 H 0.81270 0.81458 0.52573
 H678 H 0.77623 0.79737 0.50183
 H679 H 0.80121 0.77542 0.56912
 H680 H 0.76394 0.75876 0.54580
 C681 C 0.73551 0.80410 0.42517
 C682 C 0.76748 0.80216 0.41020
 C683 C 0.79144 0.82709 0.41754
 C684 C 0.78464 0.85040 0.44176
 C685 C 0.75364 0.84960 0.45906
 C686 C 0.72886 0.82712 0.44895
 C687 C 0.70609 0.80406 0.46796
 C688 C 0.71366 0.77863 0.44210
 H689 H 0.81618 0.82775 0.40598
 H690 H 0.80450 0.86772 0.44799
 H691 H 0.67927 0.81220 0.46767
 H692 H 0.71599 0.79717 0.49263
 H693 H 0.69103 0.77196 0.42728
 H694 H 0.72847 0.75747 0.45181
 C695 C 0.23522 0.30402 -0.08051
 C696 C 0.26324 0.30748 -0.10161
 C697 C 0.28520 0.33464 -0.09664
 C698 C 0.28108 0.35498 -0.06933
 C699 C 0.25477 0.34894 -0.04642
 C700 C 0.23127 0.32400 -0.05354
 C701 C 0.21723 0.29615 -0.03284
 C702 C 0.22125 0.27450 -0.06249
 H703 H 0.30665 0.33941 -0.11275
 H704 H 0.29945 0.37447 -0.06569
 H705 H 0.19030 0.29962 -0.02579
 H706 H 0.23412 0.28853 -0.01241
 H707 H 0.19656 0.26612 -0.07272
 H708 H 0.24040 0.25489 -0.05884
 C709 C 0.71897 0.15962 -0.08673
 C710 C 0.72943 0.19255 -0.09022
 C711 C 0.74078 0.20857 -0.06177
 C712 C 0.74513 0.19093 -0.03201
 C713 C 0.73847 0.15684 -0.03006
 C714 C 0.72388 0.14212 -0.05748
 C715 C 0.73287 0.11145 -0.07482
 C716 C 0.72751 0.13056 -0.10691
 H717 H 0.74755 0.23446 -0.06272
 H718 H 0.75555 0.20379 -0.01126
 H719 H 0.71374 0.09149 -0.07049
 H720 H 0.75968 0.10422 -0.07088
 H721 H 0.70532 0.12154 -0.12110
 H722 H 0.75120 0.13440 -0.12150
 C723 C 0.25187 0.70995 0.42702
 C724 C 0.24517 0.69531 0.39686
 C725 C 0.24215 0.66075 0.39660
 C726 C 0.24253 0.64224 0.42634
 C727 C 0.24418 0.65800 0.45687
 C728 C 0.25106 0.69186 0.45636
 C729 C 0.23416 0.71922 0.47387
 C730 C 0.23564 0.73901 0.44190
 H731 H 0.23888 0.64814 0.37361
 H732 H 0.24075 0.61569 0.42547
 H733 H 0.25053 0.72978 0.49332
 H734 H 0.20776 0.71285 0.48153
 H735 H 0.25326 0.76054 0.44281
 H736 H 0.21020 0.74423 0.43137
 C737 C 0.23116 0.70232 0.56899
 C738 C 0.25961 0.69933 0.58928
 C739 C 0.28576 0.67858 0.57873
 C740 C 0.28170 0.65934 0.55050
 C741 C 0.25142 0.66031 0.53215
 C742 C 0.22694 0.68289 0.54161
 C743 C 0.18970 0.67875 0.54773
 C744 C 0.19431 0.70032 0.57750
 H745 H 0.30898 0.67640 0.59269
 H746 H 0.30186 0.64291 0.54409
 H747 H 0.18217 0.65311 0.55461
 H748 H 0.17416 0.69041 0.52806
 H749 H 0.18940 0.68711 0.60129
 H750 H 0.18177 0.72455 0.57474
 C751 C 0.79973 0.18646 0.07896
 C752 C 0.77388 0.20458 0.09361
 C753 C 0.74159 0.20347 0.07872
 C754 C 0.73490 0.18207 0.05275
 C755 C 0.76031 0.16146 0.04079
 C756 C 0.79320 0.16564 0.05293
 C757 C 0.81828 0.14108 0.06499
 C758 C 0.82531 0.16373 0.09352
 H759 H 0.72090 0.21783 0.08811
 H760 H 0.70947 0.18085 0.04275
 H761 H 0.84024 0.13895 0.04798
 H762 H 0.80625 0.11745 0.07287
 H763 H 0.85134 0.17460 0.09293
 H764 H 0.81714 0.15298 0.11767
 C765 C 0.51256 0.34607 0.57579
 C766 C 0.48171 0.35097 0.55957
 C767 C 0.45767 0.32505 0.56033
 C768 C 0.46393 0.29597 0.57856
 C769 C 0.49413 0.29236 0.59665
 C770 C 0.51860 0.31750 0.59419
 C771 C 0.53540 0.33643 0.62091
 C772 C 0.52896 0.36744 0.60068
 H773 H 0.43404 0.32727 0.54700
 H774 H 0.44489 0.27652 0.57902
 H775 H 0.56287 0.33110 0.62318
 H776 H 0.52095 0.33517 0.64443
 H777 H 0.55260 0.37941 0.59108
 H778 H 0.51078 0.38432 0.61246
 C779 C -0.00445 0.81004 0.04423
 C780 C -0.02804 0.83411 0.05239
 C781 C -0.04740 0.82837 0.08127
 C782 C -0.04029 0.80160 0.10265
 C783 C -0.01341 0.78020 0.09589
 C784 C 0.00257 0.78387 0.06535
 C785 C 0.03914 0.78362 0.05592
 C786 C 0.03164 0.81261 0.03294
 H787 H -0.06733 0.84500 0.08806
 H788 H -0.05518 0.79867 0.12482
 H789 H 0.04586 0.76092 0.04272
 H790 H 0.05640 0.79008 0.07639
 H791 H 0.03453 0.80656 0.00655
 H792 H 0.04419 0.83595 0.04039
 C793 C -0.01546 0.67355 0.05448
 C794 C 0.01397 0.65487 0.05384
 C795 C 0.04004 0.66484 0.07563
 C796 C 0.03570 0.69193 0.09663
 C797 C 0.00498 0.70956 0.09693
 C798 C -0.01966 0.69929 0.07492
 C799 C -0.05431 0.70672 0.06267
 C800 C -0.04974 0.67752 0.03958
 H801 H 0.06397 0.65213 0.07638
 H802 H 0.05659 0.69891 0.11220
 H803 H -0.05531 0.73095 0.04957
 H804 H -0.07416 0.70236 0.08177
 H805 H -0.04836 0.68501 0.01317
 H806 H -0.06690 0.65629 0.04547
 C807 C 0.52050 0.16191 0.58158
 C808 C 0.51891 0.16641 0.54738
 C809 C 0.50745 0.19713 0.53539
 C810 C 0.50174 0.22323 0.55698
 C811 C 0.50682 0.21905 0.59110
 C812 C 0.51460 0.18748 0.60277
 C813 C 0.54084 0.17578 0.62652
 C814 C 0.54733 0.14775 0.60332
 H815 H 0.50462 0.20166 0.50924
 H816 H 0.49471 0.24683 0.54662
 H817 H 0.52955 0.16753 0.65042
 H818 H 0.56301 0.19278 0.62827
 H819 H 0.53980 0.12330 0.61388
 H820 H 0.57302 0.14908 0.59194
 C821 C 0.01377 0.18628 0.44966
 C822 C -0.01588 0.16736 0.44733
 C823 C -0.03792 0.17618 0.42117
 C824 C -0.03006 0.20310 0.39956
 C825 C 0.00029 0.22162 0.40315
 C826 C 0.02139 0.21177 0.42866
 C827 C 0.05308 0.22096 0.44616
 C828 C 0.04467 0.19205 0.46995
 H829 H -0.06160 0.16300 0.41772
 H830 H -0.04816 0.20954 0.38071
 H831 H 0.05137 0.24543 0.45772
 H832 H 0.07614 0.21713 0.43099
 H833 H 0.03837 0.20008 0.49519
 H834 H 0.06288 0.17146 0.46854
 C835 C 0.50986 0.67446 0.94033
 C836 C 0.47728 0.66572 0.95134
 C837 C 0.44998 0.68489 0.94030
 C838 C 0.45532 0.71061 0.91714
 C839 C 0.48787 0.71722 0.90392
 C840 C 0.51524 0.69971 0.91709
 C841 C 0.54125 0.67973 0.89971
 C842 C 0.53541 0.65269 0.92528
 H843 H 0.42449 0.67975 0.94917
 H844 H 0.43375 0.72484 0.90907
 H845 H 0.56728 0.69031 0.90135
 H846 H 0.53320 0.67281 0.87456
 H847 H 0.55758 0.64867 0.94165
 H848 H 0.52394 0.62996 0.91506
 C849 C 0.48912 0.82212 0.94804
 C850 C 0.51244 0.84689 0.93862
 C851 C 0.53334 0.84078 0.91118
 C852 C 0.52830 0.81249 0.89225
 C853 C 0.50240 0.78955 0.90039
 C854 C 0.48438 0.79414 0.92954
 C855 C 0.44717 0.79288 0.93647
 C856 C 0.45227 0.82371 0.95645
 H857 H 0.55266 0.85840 0.90336
 H858 H 0.54380 0.80944 0.87056
 H859 H 0.43976 0.77106 0.95188
 H860 H 0.43141 0.79696 0.91421
 H861 H 0.44748 0.81948 0.98316
 H862 H 0.43985 0.84573 0.94546
 C863 C -0.00064 0.32114 0.45574
 C864 C 0.02365 0.34624 0.45073
 C865 C 0.04795 0.34139 0.42568
 C866 C 0.04486 0.31472 0.40419
 C867 C 0.01724 0.29250 0.40696
 C868 C -0.00357 0.29502 0.43463
 C869 C -0.04102 0.29211 0.43936
 C870 C -0.03798 0.32127 0.46219
 H871 H 0.06851 0.35884 0.42153
 H872 H 0.06337 0.31257 0.38476
 H873 H -0.04839 0.26879 0.45239
 H874 H -0.05575 0.29767 0.41677
 H875 H -0.04425 0.31472 0.48819
 H876 H -0.05032 0.34383 0.45229
 C877 C 0.33936 0.59346 0.48268
 C878 C 0.33430 0.55931 0.48291
 C879 C 0.30158 0.54736 0.49135
 C880 C 0.27441 0.56920 0.49560
 C881 C 0.27953 0.60353 0.49247
 C882 C 0.31281 0.61483 0.48740
 C883 C 0.32752 0.64013 0.46422
 C884 C 0.35657 0.61656 0.45876
 H885 H 0.29650 0.52114 0.49292
 H886 H 0.24937 0.55891 0.49994
 H887 H 0.33540 0.66287 0.47702
 H888 H 0.31201 0.64412 0.44179
 H889 H 0.38128 0.62588 0.46814
 H890 H 0.35714 0.60699 0.43334
 C891 C 0.80234 0.04642 -0.00183
 C892 C 0.83449 0.05549 -0.01382
 C893 C 0.83927 0.08933 -0.02179
 C894 C 0.81351 0.11239 -0.01577
 C895 C 0.78205 0.10217 -0.00232
 C896 C 0.77664 0.06812 0.00243
 C897 C 0.75313 0.04289 0.02090
 C898 C 0.78433 0.01916 0.01606
 H899 H 0.86332 0.09836 -0.03144
 H900 H 0.81850 0.13824 -0.02094
 H901 H 0.73582 0.03473 0.00049
 H902 H 0.71959 0.05541 0.08336
 H903 H 0.77890 -0.00194 -0.00019
 H904 H 0.79782 0.01220 0.03908
 C905 C 0.69971 0.04582 0.04257
 C906 C 0.67017 0.04518 0.02466
 C907 C 0.66225 0.07434 0.00684
 C908 C 0.68387 0.10278 0.00483
 C909 C 0.71470 0.10621 0.02233
 C910 C 0.72251 0.08223 0.04534
 C911 C 0.76396 0.06194 0.07058
 C912 C 0.73335 0.01613 0.06580
 H913 H 0.63890 0.07489 -0.00714
 H914 H 0.67661 0.12219 -0.01220
 H915 H 0.76602 0.07067 0.09647
 H916 H 0.79051 0.06378 0.06121
 H917 H 0.72343 0.00602 0.08981
 H918 H 0.74153 -0.00588 0.05207
 C919 C 0.14343 0.60085 0.49291
 C920 C 0.14224 0.57509 0.51614
 C921 C 0.17035 0.57093 0.53697
 C922 C 0.20023 0.58964 0.53161
 C923 C 0.20305 0.61148 0.50435
 C924 C 0.17338 0.61833 0.48672
 C925 C 0.16643 0.61980 0.45061
 C926 C 0.13338 0.60131 0.45766
 H927 H 0.16976 0.55221 0.55629
 H928 H 0.22179 0.58554 0.54756
 H929 H 0.18426 0.60489 0.43614
 H930 H 0.16266 0.64540 0.44132
 H931 H 0.13243 0.57631 0.44704
 H932 H 0.11052 0.61647 0.45316
 C933 C 0.16031 0.41662 -0.03838
 C934 C 0.15884 0.44616 -0.02139
 C935 C 0.18722 0.45502 -0.00232
 C936 C 0.21467 0.43339 0.00148
 C937 C 0.21425 0.40248 -0.01357
 C938 C 0.18738 0.39528 -0.03469
 C939 C 0.16421 0.36586 -0.03482
 C940 C 0.13484 0.38922 -0.03897
 H941 H 0.18797 0.47820 0.01029
 H942 H 0.23571 0.44049 0.01698
 H943 H 0.16378 0.35218 -0.01088
 H944 H 0.16795 0.35055 -0.05682
 H945 H 0.11737 0.38915 -0.01744
 H946 H 0.12223 0.38734 -0.06328
 C947 C 0.68259 0.95583 0.49978
 C948 C 0.65389 0.94700 0.48157
 C949 C 0.65589 0.91819 0.46283
 C950 C 0.68408 0.89734 0.46566
 C951 C 0.71074 0.90478 0.48733
 C952 C 0.71019 0.93521 0.50262
 C953 C 0.71612 0.94391 0.53760
 C954 C 0.68584 0.96651 0.53457
 H955 H 0.63525 0.91091 0.44699
 H956 H 0.68401 0.87487 0.45200
 H957 H 0.74057 0.95737 0.54085
 H958 H 0.71158 0.92287 0.55498
 H959 H 0.69297 0.99296 0.53623
 H960 H 0.66387 0.95848 0.55012
 C961 C 0.82949 0.92409 0.53625
 C962 C 0.83648 0.95044 0.51441
 C963 C 0.81958 0.95046 0.48387
 C964 C 0.79384 0.92708 0.47757
 C965 C 0.78462 0.90304 0.50146
 C966 C 0.80433 0.90087 0.52995
 C967 C 0.79438 0.89830 0.56542
 C968 C 0.82165 0.92391 0.57218
 H969 H 0.82488 0.96936 0.46542
 H970 H 0.77996 0.92887 0.45467
 H971 H 0.80036 0.87391 0.57661
 H972 H 0.76831 0.90700 0.57029
 H973 H 0.84284 0.91400 0.58723
 H974 H 0.81132 0.94771 0.58044
 C975 C 0.33827 0.41544 0.03006
 C976 C 0.34474 0.44316 0.00990
 C977 C 0.32503 0.44695 -0.01877
 C978 C 0.29765 0.42538 -0.02489
 C979 C 0.28946 0.39951 -0.00260
 C980 C 0.31114 0.39420 0.02410
 C981 C 0.30315 0.39050 0.05995
 C982 C 0.33287 0.41353 0.06638
 H983 H 0.32983 0.46725 -0.03584
 H984 H 0.28192 0.42984 -0.04627
 H985 H 0.30749 0.36512 0.06953
 H986 H 0.27820 0.40105 0.06653
 H987 H 0.35421 0.40124 0.07930
 H988 H 0.32519 0.43743 0.07675
 C989 C 0.54248 0.50139 0.31896
 C990 C 0.55164 0.48137 0.34583
 C991 C 0.57966 0.46057 0.34154
 C992 C 0.59995 0.46321 0.31297
 C993 C 0.59264 0.48658 0.28800
 C994 C 0.56237 0.50395 0.29079
 C995 C 0.55495 0.53971 0.28642
 C996 C 0.53346 0.53692 0.31736
 H997 H 0.58713 0.44347 0.36083
 H998 H 0.62245 0.44833 0.31152
 H999 H 0.53940 0.54481 0.26420
 H1000 H 0.57766 0.55583 0.28925
 H1001 H 0.50600 0.54060 0.31258
 H1002 H 0.54406 0.55098 0.33823
 C1003 C 0.03862 0.00230 0.81671
 C1004 C 0.04527 -0.02160 0.84103
 C1005 C 0.07251 -0.04302 0.83503
 C1006 C 0.09435 -0.03767 0.80782
 C1007 C 0.08952 -0.01075 0.78609
 C1008 C 0.05988 0.00731 0.78993
 C1009 C 0.05274 0.04323 0.78786
 C1010 C 0.02980 0.03787 0.81780
 H1011 H 0.07800 -0.06302 0.85206
 H1012 H 0.11558 -0.05390 0.80470
 H1013 H 0.03855 0.04993 0.76516
 H1014 H 0.07520 0.05905 0.79285
 H1015 H 0.00255 0.04212 0.81238
 H1016 H 0.03967 0.05000 0.84016
 C1017 C 0.07354 0.04251 0.66936
 C1018 C 0.04490 0.02280 0.66346
 C1019 C 0.04099 -0.00645 0.68237
 C1020 C 0.06357 -0.01389 0.70805
 C1021 C 0.09114 0.00714 0.71493
 C1022 C 0.09620 0.03494 0.69453
 C1023 C 0.09969 0.07039 0.70342
 C1024 C 0.07510 0.07843 0.67598
 H1025 H 0.01978 -0.02302 0.67841
 H1026 H 0.05851 -0.03538 0.72348
 H1027 H 0.12548 0.08060 0.69830
 H1028 H 0.08953 0.07549 0.72831
 H1029 H 0.08703 0.09278 0.65535
 H1030 H 0.05052 0.08810 0.68488
 C1031 C 0.56093 0.53716 0.18236
 C1032 C 0.55924 0.51436 0.15716
 C1033 C 0.57568 0.48418 0.16211
 C1034 C 0.59592 0.47866 0.19011
 C1035 C 0.59900 0.50259 0.21460
 C1036 C 0.58016 0.53140 0.21046
 C1037 C 0.59090 0.56687 0.21155
 C1038 C 0.56967 0.57289 0.18101
 H1039 H 0.57400 0.46537 0.14368
 H1040 H 0.60950 0.45591 0.19180
 H1041 H 0.61835 0.57099 0.20690
 H1042 H 0.58093 0.57963 0.23334
 H1043 H 0.58518 0.58010 0.15909
 H1044 H 0.54720 0.58845 0.18551
 C1045 C 0.41968 -0.01836 0.15343
 C1046 C 0.45501 -0.02025 0.15689
 C1047 C 0.46883 -0.01060 0.18726
 C1048 C 0.44760 -0.00276 0.21386
 C1049 C 0.41203 -0.00398 0.21072
 C1050 C 0.39881 -0.01051 0.17965
 C1051 C 0.37181 -0.03425 0.16952
 C1052 C 0.39454 -0.04280 0.14080
 H1053 H 0.49597 -0.01052 0.19116
 H1054 H 0.45926 0.00287 0.23712
 H1055 H 0.34815 -0.02164 0.16188
 H1056 H 0.36822 -0.05515 0.18727
 H1057 H 0.38390 -0.03505 0.11661
 H1058 H 0.40397 -0.06846 0.14215
 C1059 C 0.91665 0.46137 0.66874
 C1060 C 0.93796 0.48698 0.65725
 C1061 C 0.94104 0.51499 0.67703
 C1062 C 0.92022 0.51852 0.70487
 C1063 C 0.89580 0.49429 0.71352
 C1064 C 0.89592 0.46498 0.69612
 C1065 C 0.86746 0.44635 0.68062
 C1066 C 0.89031 0.44203 0.65098
 H1067 H 0.95843 0.53484 0.67045
 H1068 H 0.92237 0.54077 0.71897
 H1069 H 0.84527 0.46204 0.67492
 H1070 H 0.86157 0.42285 0.69401
 H1071 H 0.88110 0.45494 0.62841
 H1072 H 0.89791 0.41608 0.64759
 C1073 C 0.94615 0.49826 0.81569
 C1074 C 0.93509 0.51374 0.84393
 C1075 C 0.90146 0.52553 0.84306
 C1076 C 0.88087 0.52156 0.81479
 C1077 C 0.89359 0.50662 0.78619
 C1078 C 0.92684 0.49548 0.78815
 C1079 C 0.95421 0.47851 0.76980
 C1080 C 0.97589 0.48179 0.80095
 H1081 H 0.89081 0.53741 0.86425
 H1082 H 0.85519 0.53027 0.81560
 H1083 H 0.96447 0.49345 0.74883
 H1084 H 0.94746 0.45266 0.76408
 H1085 H 0.99802 0.49878 0.79776
 H1086 H 0.98133 0.45776 0.81321
 C1087 C 0.42976 -0.00554 0.33812
 C1088 C 0.44899 0.02340 0.34060
 C1089 C 0.44988 0.04525 0.31334
 C1090 C 0.43022 0.03881 0.28530
 C1091 C 0.40915 0.01059 0.28400
 C1092 C 0.41002 -0.01187 0.31058
 C1093 C 0.38164 -0.02526 0.33181
 C1094 C 0.40347 -0.01846 0.36150
 H1095 H 0.46540 0.06740 0.31381
 H1096 H 0.43102 0.05623 0.26480
 H1097 H 0.37713 -0.05205 0.32897
 H1098 H 0.35847 -0.01004 0.33053
 H1099 H 0.41182 -0.04117 0.37466
 H1100 H 0.39309 0.00089 0.37750
   
