data_POSCAR
  _audit_creation_date              2014-09-24
  _audit_creation_method            'ToBaCCo'
  _symmetry_space_group_name_H-M    'P1'
  _symmetry_Int_Tables_number       1
  _symmetry_cell_setting            triclinic
  loop_
  _symmetry_equiv_pos_as_xyz
 x,y,z
_cell_length_a 10.5025
_cell_length_b 10.5027
_cell_length_c 20.7071
_cell_angle_alpha 89.754600
_cell_angle_beta 90.149000
_cell_angle_gamma 89.999000
loop_
  _atom_site_label
  _atom_site_type_symbol
  _atom_site_fract_x
  _atom_site_fract_y
  _atom_site_fract_z
O1 O 0.13458 0.59198 1.06181
 O2 O 0.06670 0.35414 0.93630
 O3 O 0.13370 0.59260 0.93579
 O4 O 0.06692 0.35405 1.06198
 O5 O -0.13565 0.41102 1.06192
 O6 O -0.06869 0.64982 0.93580
 O7 O -0.13581 0.41127 0.93599
 O8 O -0.06798 0.64900 1.06167
 Cu9 Cu 0.12087 0.46752 0.99895
 Cu10 Cu -0.12241 0.53607 0.99879
 C11 C 0.04466 0.66038 1.08332
 C12 C -0.04595 0.34244 0.91474
 C13 C 0.04377 0.66158 0.91414
 C14 C -0.04556 0.34233 1.08354
 O15 O 0.59257 -0.13590 0.56450
 O16 O 0.35442 -0.06851 0.43810
 O17 O 0.59240 -0.13617 0.43845
 O18 O 0.35407 -0.06889 0.56383
 O19 O 0.41124 0.13360 0.56366
 O20 O 0.64935 0.06639 0.43816
 O21 O 0.41141 0.13405 0.43776
 O22 O 0.64976 0.06650 0.56398
 Cu23 Cu 0.46769 -0.12277 0.50129
 Cu24 Cu 0.53622 0.12050 0.50090
 C25 C 0.66147 -0.04604 0.58592
 C26 C 0.34279 0.04410 0.41631
 C27 C 0.66086 -0.04612 0.41676
 C28 C 0.34233 0.04368 0.58512
 C29 C 0.00059 -0.00015 0.24998
 C30 C -0.00148 -0.00059 0.74998
 N31 N 0.17091 -0.14023 0.20658
 N32 N 0.18601 -0.22946 0.16217
 C33 C 0.07119 -0.24708 0.13440
 C34 C -0.01472 -0.16614 0.16303
 N35 N 0.05079 -0.10164 0.20826
 H36 H -0.11498 -0.15479 0.15215
 N37 N -0.17040 0.14072 0.20678
 N38 N -0.18605 0.23086 0.16246
 C39 C -0.07159 0.24892 0.13460
 C40 C 0.01460 0.16727 0.16303
 N41 N -0.05030 0.10195 0.20828
 H42 H 0.11470 0.15605 0.15204
 N43 N 0.13977 0.16977 0.70682
 N44 N 0.23035 0.18486 0.66299
 C45 C 0.24851 0.07014 0.63561
 C46 C 0.16637 -0.01566 0.66381
 N47 N 0.10074 0.04977 0.70848
 H48 H 0.15513 -0.11585 0.65308
 N49 N -0.14152 -0.17105 0.70631
 N50 N -0.23147 -0.18612 0.66197
 C51 C -0.24998 -0.07111 0.63433
 C52 C -0.16852 0.01484 0.66293
 N53 N -0.10317 -0.05085 0.70807
 H54 H -0.15744 0.11523 0.65217
 N55 N 0.16881 -0.14097 0.79424
 N56 N 0.18381 -0.23112 0.83860
 C57 C 0.06877 -0.24973 0.86580
 C58 C -0.01716 -0.16813 0.83690
 N59 N 0.04862 -0.10257 0.79203
 H60 H -0.11755 -0.15706 0.84728
 N61 N -0.17201 0.14040 0.79253
 N62 N -0.18718 0.23079 0.83633
 C63 C -0.07250 0.24878 0.86419
 C64 C 0.01333 0.16673 0.83632
 N65 N -0.05201 0.10135 0.79135
 H66 H 0.11350 0.15543 0.84743
 N67 N -0.13948 -0.17109 0.29353
 N68 N -0.22879 -0.18671 0.33798
 C69 C -0.24641 -0.07223 0.36573
 C70 C -0.16538 0.01398 0.33705
 N71 N -0.10084 -0.05097 0.29181
 H72 H -0.15406 0.11412 0.34788
 N73 N 0.14147 0.17021 0.29304
 N74 N 0.23151 0.18534 0.33731
 C75 C 0.24958 0.07055 0.36520
 C76 C 0.16804 -0.01534 0.33680
 N77 N 0.10275 0.05012 0.29157
 H78 H 0.15680 -0.11557 0.34785
   
