data_POSCAR
  _audit_creation_date              2014-09-24
  _audit_creation_method            'ToBaCCo'
  _symmetry_space_group_name_H-M    'P1'
  _symmetry_Int_Tables_number       1
  _symmetry_cell_setting            triclinic
  loop_
  _symmetry_equiv_pos_as_xyz
 x,y,z
_cell_length_a 53.2542
_cell_length_b 53.2896
_cell_length_c 31.1845
_cell_angle_alpha 90.024300
_cell_angle_beta 89.960600
_cell_angle_gamma 89.764000
loop_
  _atom_site_label
  _atom_site_type_symbol
  _atom_site_fract_x
  _atom_site_fract_y
  _atom_site_fract_z
C1 C -0.00088 0.26626 -0.02268
 C2 C -0.00162 0.26661 0.02105
 C3 C -0.02569 0.26472 0.04492
 C4 C 0.02168 0.26801 0.04708
 C5 C 0.02325 0.26468 -0.04647
 C6 C -0.02420 0.26659 -0.04879
 C7 C -0.03215 0.28298 0.07518
 C8 C -0.05501 0.28178 0.09709
 C9 C -0.07232 0.26203 0.08962
 C10 C -0.06496 0.24336 0.05954
 C11 C -0.04205 0.24467 0.03788
 C12 C 0.03924 0.28722 0.04048
 C13 C 0.06188 0.28729 0.06312
 C14 C 0.06722 0.26835 0.09318
 C15 C 0.04918 0.24968 0.10081
 C16 C 0.02661 0.24957 0.07806
 C17 C 0.04037 0.24514 -0.03845
 C18 C 0.06335 0.24423 -0.06004
 C19 C 0.06951 0.26269 -0.09046
 C20 C 0.05203 0.28186 -0.09922
 C21 C 0.02908 0.28278 -0.07750
 C22 C -0.02844 0.24753 -0.07890
 C23 C -0.05093 0.24672 -0.10183
 C24 C -0.06957 0.26509 -0.09530
 C25 C -0.06492 0.28467 -0.06615
 C26 C -0.04239 0.28547 -0.04324
 H27 H -0.01972 0.29865 0.08104
 H28 H -0.05926 0.29741 0.11793
 H29 H -0.07604 0.22680 0.05362
 H30 H -0.03699 0.22988 0.01562
 H31 H 0.03556 0.30191 0.01732
 H32 H 0.07522 0.30217 0.05712
 H33 H 0.01328 0.23462 0.08367
 H34 H 0.03596 0.23064 -0.01534
 H35 H 0.07620 0.22896 -0.05323
 H36 H 0.05631 0.29643 -0.12224
 H37 H 0.01604 0.29792 -0.08427
 H38 H -0.01455 0.23291 -0.08390
 H39 H -0.05377 0.23167 -0.12463
 H40 H -0.07896 0.29901 -0.06024
 H41 H -0.03930 0.30057 -0.02062
 H42 H 0.05284 0.23471 0.12344
 C43 C 0.50068 0.76799 0.47961
 C44 C 0.50135 0.76788 0.52335
 C45 C 0.47798 0.76888 0.54936
 C46 C 0.52543 0.76600 0.54721
 C47 C 0.52404 0.76913 0.45360
 C48 C 0.47661 0.76625 0.45574
 C49 C 0.46016 0.78802 0.54317
 C50 C 0.43750 0.78780 0.56580
 C51 C 0.43240 0.76860 0.59543
 C52 C 0.45069 0.74997 0.60265
 C53 C 0.47329 0.75017 0.57991
 C54 C 0.53148 0.78409 0.57817
 C55 C 0.55441 0.78290 0.59987
 C56 C 0.57164 0.76348 0.59119
 C57 C 0.56524 0.74505 0.56087
 C58 C 0.54229 0.74621 0.53930
 C59 C 0.52885 0.75061 0.42267
 C60 C 0.55143 0.75054 0.39987
 C61 C 0.56959 0.76910 0.40742
 C62 C 0.56437 0.78812 0.43745
 C63 C 0.54173 0.78821 0.46014
 C64 C 0.45993 0.74641 0.46332
 C65 C 0.43696 0.74538 0.44182
 C66 C 0.43036 0.76402 0.41191
 C67 C 0.44742 0.78348 0.40353
 C68 C 0.47037 0.78453 0.42517
 H69 H 0.46365 0.80293 0.52036
 H70 H 0.42397 0.80265 0.56014
 H71 H 0.44722 0.73481 0.62496
 H72 H 0.48683 0.73527 0.58521
 H73 H 0.51865 0.79942 0.58487
 H74 H 0.55888 0.79747 0.62281
 H75 H 0.53770 0.73173 0.51625
 H76 H 0.51541 0.73576 0.41710
 H77 H 0.55499 0.73552 0.37725
 H78 H 0.57780 0.80292 0.44338
 H79 H 0.53814 0.80298 0.48325
 H80 H 0.46466 0.73179 0.48606
 H81 H 0.42444 0.72988 0.44831
 H82 H 0.44280 0.79820 0.38091
 H83 H 0.48307 0.79990 0.41873
 H84 H 0.57789 0.72959 0.55412
 C85 C 1.00154 0.73243 -0.02086
 C86 C 1.00096 0.73259 0.02288
 C87 C 1.02437 0.73155 0.04876
 C88 C 0.97691 0.73460 0.04683
 C89 C 0.97813 0.73104 -0.04670
 C90 C 1.02553 0.73450 -0.04488
 C91 C 1.04223 0.71246 0.04226
 C92 C 1.06481 0.71251 0.06506
 C93 C 1.06984 0.73150 0.09515
 C94 C 1.05155 0.75011 0.10257
 C95 C 1.02901 0.75008 0.07968
 C96 C 0.97079 0.71660 0.07789
 C97 C 0.94784 0.71790 0.09957
 C98 C 0.93067 0.73734 0.09074
 C99 C 0.93717 0.75570 0.06037
 C100 C 0.96013 0.75442 0.03882
 C101 C 0.97317 0.74936 -0.07788
 C102 C 0.95058 0.74914 -0.10061
 C103 C 0.93256 0.73048 -0.09277
 C104 C 0.93792 0.71169 -0.06244
 C105 C 0.96056 0.71188 -0.03982
 C106 C 1.04187 0.75458 -0.03751
 C107 C 1.06467 0.75613 -0.05943
 C108 C 1.07179 0.73770 -0.08983
 C109 C 1.05477 0.71787 -0.09758
 C110 C 1.03197 0.71642 -0.07556
 H111 H 1.03878 0.69768 0.01918
 H112 H 1.07833 0.69767 0.05921
 H113 H 1.05496 0.76512 0.12520
 H114 H 1.01546 0.76494 0.08523
 H115 H 0.98358 0.70125 0.08466
 H116 H 0.94330 0.70340 0.12257
 H117 H 0.96478 0.76883 0.01569
 H118 H 0.98650 0.76427 -0.08373
 H119 H 0.94691 0.76401 -0.12345
 H120 H 0.92460 0.69682 -0.05626
 H121 H 0.96426 0.69726 -0.01652
 H122 H 1.03707 0.76894 -0.01428
 H123 H 1.07701 0.77136 -0.05076
 H124 H 1.05841 0.70375 -0.12171
 H125 H 1.01937 0.70099 -0.08220
 H126 H 0.92456 0.77118 0.05352
 C127 C 0.49865 0.23336 0.47668
 C128 C 0.49924 0.23278 0.52041
 C129 C 0.52322 0.23468 0.54443
 C130 C 0.47585 0.23116 0.54629
 C131 C 0.47458 0.23535 0.45286
 C132 C 0.52205 0.23288 0.45069
 C133 C 0.52969 0.21623 0.57453
 C134 C 0.55247 0.21758 0.59662
 C135 C 0.56909 0.23757 0.58927
 C136 C 0.56227 0.25633 0.55974
 C137 C 0.53950 0.25496 0.53769
 C138 C 0.45830 0.21203 0.53906
 C139 C 0.43566 0.21167 0.56174
 C140 C 0.43030 0.23027 0.59246
 C141 C 0.44831 0.24888 0.60065
 C142 C 0.47089 0.24927 0.57786
 C143 C 0.45765 0.25500 0.46132
 C144 C 0.43468 0.25625 0.43986
 C145 C 0.42833 0.23804 0.40913
 C146 C 0.44564 0.21878 0.39987
 C147 C 0.46859 0.21751 0.42146
 C148 C 0.52646 0.25186 0.42050
 C149 C 0.54899 0.25247 0.39759
 C150 C 0.56751 0.23399 0.40422
 C151 C 0.56269 0.21451 0.43348
 C152 C 0.54012 0.21391 0.45636
 H153 H 0.51724 0.20059 0.58047
 H154 H 0.55701 0.20307 0.61968
 H155 H 0.57474 0.27186 0.55315
 H156 H 0.53463 0.26963 0.51513
 H157 H 0.46201 0.19757 0.51545
 H158 H 0.42235 0.19685 0.55528
 H159 H 0.48420 0.26416 0.58397
 H160 H 0.46220 0.26929 0.48474
 H161 H 0.42196 0.27159 0.44705
 H162 H 0.44120 0.20439 0.37658
 H163 H 0.48149 0.20230 0.41434
 H164 H 0.51267 0.26655 0.41539
 H165 H 0.55195 0.26745 0.37471
 H166 H 0.57663 0.20009 0.43948
 H167 H 0.53690 0.19886 0.47902
 H168 H 0.44463 0.26360 0.62379
 C169 C 0.73653 -0.00028 -0.02673
 C170 C 0.73636 -0.00011 0.01702
 C171 C 0.73582 -0.02373 0.04239
 C172 C 0.73763 0.02368 0.04168
 C173 C 0.73519 0.02334 -0.05207
 C174 C 0.73891 -0.02407 -0.05123
 C175 C 0.71713 -0.04175 0.03575
 C176 C 0.71748 -0.06434 0.05853
 C177 C 0.73652 -0.06954 0.08896
 C178 C 0.75474 -0.05075 0.09618
 C179 C 0.75431 -0.02823 0.07333
 C180 C 0.71917 0.02923 0.07237
 C181 C 0.71996 0.05176 0.09522
 C182 C 0.73939 0.06905 0.08806
 C183 C 0.75816 0.06318 0.05789
 C184 C 0.75735 0.04065 0.03507
 C185 C 0.75361 0.02844 -0.08284
 C186 C 0.75342 0.05111 -0.10530
 C187 C 0.73464 0.06947 -0.09775
 C188 C 0.71570 0.06366 -0.06752
 C189 C 0.71593 0.04089 -0.04527
 C190 C 0.75909 -0.04045 -0.04397
 C191 C 0.76063 -0.06330 -0.06571
 C192 C 0.74211 -0.07039 -0.09585
 C193 C 0.72233 -0.05319 -0.10386
 C194 C 0.72084 -0.03037 -0.08190
 H195 H 0.70246 -0.03849 0.01234
 H196 H 0.70334 -0.07803 0.05041
 H197 H 0.76910 -0.05283 0.12041
 H198 H 0.76870 -0.01437 0.07944
 H199 H 0.70397 0.01622 0.07820
 H200 H 0.70547 0.05558 0.11874
 H201 H 0.77202 0.03649 0.01204
 H202 H 0.76870 0.01515 -0.08852
 H203 H 0.76895 0.05450 -0.12682
 H204 H 0.70009 0.07623 -0.06162
 H205 H 0.70108 0.03700 -0.02249
 H206 H 0.77366 -0.03553 -0.02130
 H207 H 0.77695 -0.07488 -0.05958
 H208 H 0.70711 -0.05762 -0.12544
 H209 H 0.70513 -0.01790 -0.08796
 H210 H 0.77325 0.07619 0.05144
 C211 C 0.23611 0.50028 0.48262
 C212 C 0.23658 0.50006 0.52636
 C213 C 0.23852 0.47620 0.55071
 C214 C 0.23600 0.52368 0.55176
 C215 C 0.23797 0.52406 0.45808
 C216 C 0.23454 0.47673 0.45720
 C217 C 0.22049 0.47034 0.58188
 C218 C 0.22153 0.44741 0.60352
 C219 C 0.24074 0.43000 0.59453
 C220 C 0.25921 0.43628 0.56418
 C221 C 0.25819 0.45922 0.54267
 C222 C 0.21697 0.54164 0.54554
 C223 C 0.21753 0.56445 0.56766
 C224 C 0.23703 0.56965 0.59670
 C225 C 0.25555 0.55125 0.60393
 C226 C 0.25498 0.52846 0.58178
 C227 C 0.25818 0.54045 0.46456
 C228 C 0.25939 0.56312 0.44228
 C229 C 0.24056 0.56970 0.41272
 C230 C 0.22071 0.55292 0.40544
 C231 C 0.21949 0.53025 0.42783
 C232 C 0.25260 0.47166 0.42556
 C233 C 0.25207 0.44910 0.40276
 C234 C 0.23335 0.43120 0.41099
 C235 C 0.21487 0.43661 0.44193
 C236 C 0.21538 0.45923 0.46463
 H237 H 0.20525 0.48328 0.58865
 H238 H 0.20695 0.44303 0.62651
 H239 H 0.27452 0.42348 0.55723
 H240 H 0.27262 0.46367 0.51942
 H241 H 0.20192 0.53814 0.52299
 H242 H 0.20307 0.57828 0.56121
 H243 H 0.26972 0.51478 0.58731
 H244 H 0.27294 0.53570 0.48705
 H245 H 0.27517 0.57544 0.44793
 H246 H 0.20584 0.55755 0.38312
 H247 H 0.20383 0.51775 0.42224
 H248 H 0.26751 0.48493 0.41927
 H249 H 0.26670 0.44539 0.37947
 H250 H 0.19998 0.42338 0.44846
 H251 H 0.20095 0.46301 0.48828
 H252 H 0.27055 0.55450 0.62667
 C253 C 0.26321 1.00024 -0.01747
 C254 C 0.26324 1.00030 0.02628
 C255 C 0.26422 1.02406 0.05125
 C256 C 0.26146 0.97664 0.05117
 C257 C 0.26431 0.97651 -0.04253
 C258 C 0.26134 1.02390 -0.04239
 C259 C 0.28315 1.04176 0.04402
 C260 C 0.28303 1.06465 0.06592
 C261 C 0.26408 1.07045 0.09623
 C262 C 0.24565 1.05196 0.10422
 C263 C 0.24579 1.02916 0.08210
 C264 C 0.27982 0.97078 0.08181
 C265 C 0.27878 0.94815 0.10433
 C266 C 0.25919 0.93108 0.09688
 C267 C 0.24046 0.93733 0.06692
 C268 C 0.24153 0.95995 0.04443
 C269 C 0.24602 0.97163 -0.07360
 C270 C 0.24623 0.94907 -0.09638
 C271 C 0.26489 0.93061 -0.08889
 C272 C 0.28362 0.93612 -0.05815
 C273 C 0.28338 0.95878 -0.03556
 C274 C 0.24143 1.04068 -0.03560
 C275 C 0.24019 1.06324 -0.05823
 C276 C 0.25874 1.06960 -0.08882
 C277 C 0.27829 1.05205 -0.09618
 C278 C 0.27949 1.02954 -0.07333
 H279 H 0.29799 1.03788 0.02116
 H280 H 0.29839 1.07733 0.05969
 H281 H 0.23013 1.05532 0.12584
 H282 H 0.23096 1.01576 0.08812
 H283 H 0.29520 0.98356 0.08773
 H284 H 0.29324 0.94404 0.12772
 H285 H 0.22694 0.96435 0.02141
 H286 H 0.23108 0.98506 -0.07940
 H287 H 0.23083 0.94587 -0.11824
 H288 H 0.29913 0.92345 -0.05219
 H289 H 0.29812 0.96250 -0.01253
 H290 H 0.22679 1.03627 -0.01272
 H291 H 0.22404 1.07513 -0.05248
 H292 H 0.29354 1.05596 -0.11803
 H293 H 0.29500 1.01675 -0.07904
 H294 H 0.22524 0.92450 0.06025
 C295 C 0.76380 0.49987 0.47378
 C296 C 0.76398 0.49960 0.51753
 C297 C 0.76249 0.52316 0.54284
 C298 C 0.76500 0.47575 0.54221
 C299 C 0.76173 0.47633 0.44857
 C300 C 0.76498 0.52372 0.44915
 C301 C 0.78095 0.52847 0.57353
 C302 C 0.78006 0.55088 0.59677
 C303 C 0.76053 0.56826 0.59000
 C304 C 0.74173 0.56259 0.55991
 C305 C 0.74264 0.54019 0.53670
 C306 C 0.78397 0.45790 0.53470
 C307 C 0.78411 0.43515 0.55702
 C308 C 0.76544 0.42995 0.58765
 C309 C 0.74687 0.44816 0.59586
 C310 C 0.74671 0.47085 0.57346
 C311 C 0.74171 0.45974 0.45541
 C312 C 0.74041 0.43720 0.43269
 C313 C 0.75897 0.43093 0.40238
 C314 C 0.77862 0.44792 0.39481
 C315 C 0.77991 0.47047 0.41756
 C316 C 0.74641 0.52920 0.41863
 C317 C 0.74655 0.55208 0.39678
 C318 C 0.76537 0.56991 0.40483
 C319 C 0.78436 0.56407 0.43457
 C320 C 0.78425 0.54114 0.45633
 H321 H 0.79626 0.51542 0.57900
 H322 H 0.79457 0.55454 0.62023
 H323 H 0.72656 0.57568 0.55375
 H324 H 0.72798 0.53621 0.51367
 H325 H 0.79858 0.46154 0.51137
 H326 H 0.79891 0.42169 0.55051
 H327 H 0.73194 0.48438 0.57981
 H328 H 0.72726 0.46414 0.47871
 H329 H 0.72515 0.42444 0.43947
 H330 H 0.79296 0.44379 0.37116
 H331 H 0.79535 0.48317 0.41156
 H332 H 0.73141 0.51601 0.41256
 H333 H 0.73153 0.55610 0.37441
 H334 H 0.79937 0.57721 0.44090
 H335 H 0.79906 0.53705 0.47909
 H336 H 0.73208 0.44461 0.61890
 O337 O 0.22618 0.26423 0.19664
 O338 O 0.28775 0.25690 0.24889
 O339 O 0.26093 0.22961 0.19685
 O340 O 0.25293 0.29124 0.24901
 O341 O 0.23466 0.27289 0.30439
 O342 O 0.24267 0.21133 0.25228
 O343 O 0.26950 0.23858 0.30432
 O344 O 0.20790 0.24591 0.25203
 Cu345 Cu 0.25878 0.26231 0.21723
 Cu346 Cu 0.23683 0.24030 0.28380
 C347 C 0.20665 0.25635 0.21554
 C348 C 0.28900 0.24663 0.28552
 C349 C 0.25313 0.21007 0.21578
 C350 C 0.24251 0.29244 0.28557
 O351 O 0.75552 0.79130 0.25108
 O352 O 0.76305 0.72968 0.30330
 O353 O 0.79010 0.75674 0.25127
 O354 O 0.72850 0.76448 0.30341
 O355 O 0.71019 0.74624 0.24799
 O356 O 0.77182 0.73850 0.19582
 O357 O 0.74476 0.71146 0.24786
 O358 O 0.73722 0.77304 0.19567
 Cu359 Cu 0.76113 0.76236 0.28289
 Cu360 Cu 0.73914 0.74044 0.21629
 C361 C 0.74520 0.79256 0.21448
 C362 C 0.75516 0.71016 0.28438
 C363 C 0.79135 0.74644 0.21465
 C364 C 0.70895 0.75669 0.28450
 O365 O 0.78838 0.24468 0.24968
 O366 O 0.72649 0.23696 0.30070
 O367 O 0.75457 0.20971 0.25024
 O368 O 0.76027 0.27211 0.29996
 O369 O 0.74207 0.28930 0.24335
 O370 O 0.73636 0.22692 0.19365
 O371 O 0.70828 0.25416 0.24411
 O372 O 0.77018 0.26187 0.19308
 Cu373 Cu 0.75926 0.23915 0.28089
 Cu374 Cu 0.73738 0.25982 0.21286
 C375 C 0.78971 0.25441 0.21263
 C376 C 0.70695 0.24431 0.28106
 C377 C 0.74462 0.20781 0.21344
 C378 C 0.75205 0.29122 0.28011
 O379 O 0.27145 0.76287 0.30711
 O380 O 0.20987 0.75410 0.25554
 O381 O 0.23801 0.72756 0.30677
 O382 O 0.24324 0.78965 0.25609
 O383 O 0.26190 0.77232 0.19997
 O384 O 0.25667 0.71017 0.25070
 O385 O 0.22854 0.73674 0.19947
 O386 O 0.29010 0.74552 0.25100
 Cu387 Cu 0.23876 0.76032 0.28701
 Cu388 Cu 0.26118 0.73947 0.21959
 C389 C 0.29115 0.75550 0.28789
 C390 C 0.20882 0.74395 0.21878
 C391 C 0.24655 0.70841 0.28741
 C392 C 0.25338 0.79146 0.21942
 O393 O 0.77178 0.26246 0.80074
 O394 O 0.70993 0.25611 0.74929
 O395 O 0.73683 0.22839 0.80082
 O396 O 0.74499 0.28996 0.74885
 O397 O 0.76288 0.27141 0.69314
 O398 O 0.75471 0.20990 0.74506
 O399 O 0.72780 0.23760 0.69353
 O400 O 0.78968 0.24394 0.74503
 Cu401 Cu 0.73908 0.26108 0.78056
 Cu402 Cu 0.76057 0.23882 0.71359
 C403 C 0.79117 0.25428 0.78159
 C404 C 0.70844 0.24588 0.71265
 C405 C 0.74444 0.20875 0.78172
 C406 C 0.75525 0.29106 0.71217
 O407 O 0.29161 0.74574 0.75416
 O408 O 0.22983 0.73849 0.80583
 O409 O 0.25716 0.71114 0.75422
 O410 O 0.26439 0.77281 0.80607
 O411 O 0.24621 0.79104 0.75039
 O412 O 0.23899 0.72932 0.69850
 O413 O 0.21168 0.75669 0.75011
 O414 O 0.27341 0.76394 0.69848
 Cu415 Cu 0.26258 0.74017 0.78566
 Cu416 Cu 0.24074 0.76205 0.71873
 C417 C 0.29293 0.75610 0.71761
 C418 C 0.21034 0.74650 0.78678
 C419 C 0.24691 0.70981 0.71759
 C420 C 0.25647 0.79233 0.78704
 O421 O 0.25632 0.28813 0.75231
 O422 O 0.26173 0.22615 0.80352
 O423 O 0.28981 0.25240 0.75202
 O424 O 0.22820 0.26162 0.80361
 O425 O 0.20963 0.24421 0.74767
 O426 O 0.27122 0.23498 0.69610
 O427 O 0.24314 0.20870 0.74762
 O428 O 0.23774 0.27073 0.69636
 Cu429 Cu 0.26090 0.25887 0.78348
 Cu430 Cu 0.23856 0.23793 0.71625
 C431 C 0.24620 0.28989 0.71564
 C432 C 0.25322 0.20700 0.78435
 C433 C 0.29091 0.24215 0.71534
 C434 C 0.20853 0.25428 0.78449
 O435 O 0.74529 0.70875 0.75308
 O436 O 0.74007 0.77110 0.80332
 O437 O 0.71185 0.74435 0.75256
 O438 O 0.77348 0.73530 0.80398
 O439 O 0.79206 0.75234 0.74769
 O440 O 0.73042 0.76138 0.69625
 O441 O 0.75865 0.78812 0.74701
 O442 O 0.76387 0.72580 0.69679
 Cu443 Cu 0.74080 0.73819 0.78395
 Cu444 Cu 0.76313 0.75865 0.71628
 C445 C 0.75536 0.70678 0.71635
 C446 C 0.74856 0.79012 0.78371
 C447 C 0.71075 0.75422 0.71559
 C448 C 0.79317 0.74231 0.78454
 C449 C 0.26035 0.14160 0.15824
 C450 C 0.24967 0.12054 0.17750
 C451 C 0.25110 0.09711 0.15747
 C452 C 0.26330 0.09414 0.11741
 C453 C 0.27430 0.11571 0.09881
 C454 C 0.27276 0.13911 0.11899
 C455 C 0.25816 0.16582 0.17845
 C456 C 0.25601 0.18606 0.19544
 H457 H 0.24020 0.12221 0.20815
 H458 H 0.24323 0.08133 0.17451
 H459 H 0.28313 0.11509 0.06760
 H460 H 0.28095 0.15536 0.10359
 C461 C 0.75856 0.63854 0.65753
 C462 C 0.73642 0.62497 0.65131
 C463 C 0.73706 0.60202 0.62963
 C464 C 0.75989 0.59234 0.61388
 C465 C 0.78208 0.60605 0.62058
 C466 C 0.78139 0.62901 0.64225
 C467 C 0.75773 0.66247 0.67881
 C468 C 0.75680 0.68264 0.69621
 H469 H 0.71865 0.63218 0.66306
 H470 H 0.71972 0.59175 0.62544
 H471 H 0.79988 0.59925 0.60834
 H472 H 0.79862 0.63943 0.64672
 C473 C 0.73983 0.86040 0.15450
 C474 C 0.76152 0.87468 0.14911
 C475 C 0.76045 0.89771 0.12781
 C476 C 0.73752 0.90711 0.11118
 C477 C 0.71575 0.89231 0.11712
 C478 C 0.71696 0.86928 0.13855
 C479 C 0.74123 0.83651 0.17594
 C480 C 0.74283 0.81646 0.19368
 H481 H 0.77941 0.86786 0.16096
 H482 H 0.77801 0.90740 0.12297
 H483 H 0.69745 0.89869 0.10678
 H484 H 0.69998 0.85843 0.14281
 C485 C 0.24255 0.35820 0.65715
 C486 C 0.23642 0.37980 0.68053
 C487 C 0.23580 0.40318 0.66022
 C488 C 0.24136 0.40523 0.61625
 C489 C 0.24743 0.38338 0.59303
 C490 C 0.24802 0.36004 0.61339
 C491 C 0.24351 0.33416 0.67807
 C492 C 0.24457 0.31396 0.69534
 H493 H 0.23224 0.37858 0.71447
 H494 H 0.23132 0.41969 0.67902
 H495 H 0.25143 0.38431 0.55902
 H496 H 0.25274 0.34342 0.59498
 C497 C 0.85768 0.25912 0.15289
 C498 C 0.87705 0.27368 0.16958
 C499 C 0.90028 0.27471 0.14876
 C500 C 0.90490 0.26106 0.11035
 C501 C 0.88474 0.24641 0.09424
 C502 C 0.86158 0.24553 0.11525
 C503 C 0.83380 0.25792 0.17443
 C504 C 0.81371 0.25656 0.19209
 H505 H 0.87430 0.28409 0.19909
 H506 H 0.91473 0.28537 0.16471
 H507 H 0.88589 0.23644 0.06416
 H508 H 0.84657 0.23435 0.10178
 C509 C 0.36104 0.76379 0.65934
 C510 C 0.36222 0.77084 0.61617
 C511 C 0.38544 0.77273 0.59553
 C512 C 0.40782 0.76754 0.61785
 C513 C 0.40646 0.76068 0.66136
 C514 C 0.38321 0.75883 0.68194
 C515 C 0.33708 0.76123 0.68019
 C516 C 0.31695 0.75893 0.69741
 H517 H 0.34516 0.77463 0.59833
 H518 H 0.38585 0.77769 0.56187
 H519 H 0.42337 0.75685 0.67950
 H520 H 0.38251 0.75340 0.71540
 C521 C 0.14093 0.73575 0.16000
 C522 C 0.11867 0.74069 0.18240
 C523 C 0.09551 0.73899 0.16152
 C524 C 0.09432 0.73232 0.11789
 C525 C 0.11680 0.72712 0.09580
 C526 C 0.13994 0.72885 0.11673
 C527 C 0.16482 0.73834 0.18108
 C528 C 0.18488 0.74078 0.19845
 H529 H 0.11922 0.74602 0.21591
 H530 H 0.07852 0.74282 0.17951
 H531 H 0.11654 0.72229 0.06207
 H532 H 0.15706 0.72509 0.09904
 C533 C 0.64020 0.24118 0.65406
 C534 C 0.63127 0.21817 0.63888
 C535 C 0.60807 0.21695 0.61804
 C536 C 0.59351 0.23877 0.61207
 C537 C 0.60262 0.26179 0.62762
 C538 C 0.62581 0.26296 0.64848
 C539 C 0.66424 0.24254 0.67494
 C540 C 0.68441 0.24391 0.69226
 H541 H 0.64231 0.20121 0.64291
 H542 H 0.60172 0.19902 0.60593
 H543 H 0.59171 0.27885 0.62400
 H544 H 0.63252 0.28086 0.66019
 C545 C 0.73751 0.14039 0.83947
 C546 C 0.72494 0.13796 0.87855
 C547 C 0.72365 0.11463 0.89896
 C548 C 0.73509 0.09306 0.88076
 C549 C 0.74742 0.09596 0.84082
 C550 C 0.74859 0.11932 0.82056
 C551 C 0.73954 0.16456 0.81913
 C552 C 0.74160 0.18477 0.80207
 H553 H 0.71644 0.15422 0.89367
 H554 H 0.71468 0.11408 0.93004
 H555 H 0.75561 0.08016 0.82407
 H556 H 0.75820 0.12093 0.79005
 C557 C 0.24309 0.64054 0.34717
 C558 C 0.24940 0.63907 0.39064
 C559 C 0.24862 0.61603 0.41193
 C560 C 0.24149 0.59412 0.38997
 C561 C 0.23515 0.59579 0.34626
 C562 C 0.23597 0.61887 0.32501
 C563 C 0.24406 0.66430 0.32544
 C564 C 0.24506 0.68436 0.30776
 H565 H 0.25488 0.65575 0.40812
 H566 H 0.25325 0.61540 0.44572
 H567 H 0.22987 0.57920 0.32840
 H568 H 0.23112 0.61980 0.29131
 C569 C 0.26257 0.86036 0.84613
 C570 C 0.25167 0.88160 0.82759
 C571 C 0.25264 0.90475 0.84861
 C572 C 0.26459 0.90723 0.88895
 C573 C 0.27583 0.88548 0.90679
 C574 C 0.27475 0.86237 0.88561
 C575 C 0.26076 0.83639 0.82504
 C576 C 0.25894 0.81629 0.80756
 H577 H 0.24236 0.88030 0.79678
 H578 H 0.24462 0.92072 0.83214
 H579 H 0.28450 0.88571 0.93811
 H580 H 0.28310 0.84596 0.90045
 C581 C 0.75608 0.35989 0.33732
 C582 C 0.77907 0.36926 0.35178
 C583 C 0.78006 0.39247 0.37260
 C584 C 0.75802 0.40660 0.37927
 C585 C 0.73502 0.39709 0.36434
 C586 C 0.73408 0.37388 0.34351
 C587 C 0.75495 0.33575 0.31677
 C588 C 0.75378 0.31544 0.29988
 H589 H 0.79620 0.35852 0.34731
 H590 H 0.79799 0.39913 0.38424
 H591 H 0.71779 0.40766 0.36853
 H592 H 0.71619 0.36681 0.33237
 C593 C 0.14082 0.26019 0.84490
 C594 C 0.11905 0.26653 0.82216
 C595 C 0.09585 0.26745 0.84316
 C596 C 0.09414 0.26197 0.88720
 C597 C 0.11616 0.25574 0.90980
 C598 C 0.13932 0.25486 0.88876
 C599 C 0.16463 0.25864 0.82318
 C600 C 0.18465 0.25692 0.80531
 H601 H 0.11998 0.27058 0.78815
 H602 H 0.07920 0.27203 0.82480
 H603 H 0.11550 0.25179 0.94384
 H604 H 0.15606 0.24995 0.90668
 C605 C 0.64091 0.76457 0.34320
 C606 C 0.61875 0.75980 0.32057
 C607 C 0.59551 0.76159 0.34126
 C608 C 0.59415 0.76818 0.38490
 C609 C 0.61652 0.77318 0.40725
 C610 C 0.63974 0.77137 0.38651
 C611 C 0.66487 0.76200 0.32225
 C612 C 0.68498 0.75965 0.30491
 H613 H 0.61945 0.75457 0.28702
 H614 H 0.57860 0.75790 0.32309
 H615 H 0.61611 0.77794 0.44101
 H616 H 0.65679 0.77500 0.40437
 C617 C 0.86122 0.73419 0.84300
 C618 C 0.86242 0.72757 0.88638
 C619 C 0.88565 0.72600 0.90712
 C620 C 0.90800 0.73108 0.88471
 C621 C 0.90661 0.73745 0.84098
 C622 C 0.88337 0.73899 0.82030
 C623 C 0.83725 0.73669 0.82211
 C624 C 0.81714 0.73911 0.80483
 H625 H 0.84539 0.72393 0.90431
 H626 H 0.88607 0.72141 0.94093
 H627 H 0.92350 0.74119 0.82276
 H628 H 0.88266 0.74411 0.78670
 C629 C 0.35686 0.24125 0.34536
 C630 C 0.35851 0.24634 0.38929
 C631 C 0.38174 0.24526 0.41004
 C632 C 0.40366 0.23907 0.38707
 C633 C 0.40179 0.23387 0.34294
 C634 C 0.37853 0.23499 0.32224
 C635 C 0.33297 0.24280 0.32400
 C636 C 0.31291 0.24437 0.30631
 H637 H 0.34184 0.25116 0.40750
 H638 H 0.38252 0.24900 0.44415
 H639 H 0.41836 0.22933 0.32432
 H640 H 0.37747 0.23111 0.28818
 C641 C 0.74502 0.85864 0.84165
 C642 C 0.73239 0.87872 0.82251
 C643 C 0.73144 0.90209 0.84286
 C644 C 0.74322 0.90594 0.88303
 C645 C 0.75596 0.88528 0.90169
 C646 C 0.75680 0.86198 0.88121
 C647 C 0.74598 0.83457 0.82080
 C648 C 0.74701 0.81431 0.80368
 H649 H 0.72338 0.87638 0.79162
 H650 H 0.72222 0.91722 0.82591
 H651 H 0.76450 0.88651 0.93306
 H652 H 0.76648 0.84646 0.89650
 C653 C 0.23573 0.36024 0.34539
 C654 C 0.22957 0.36126 0.38899
 C655 C 0.22844 0.38436 0.41021
 C656 C 0.23351 0.40677 0.38805
 C657 C 0.23941 0.40557 0.34409
 C658 C 0.24051 0.38245 0.32294
 C659 C 0.23777 0.33638 0.32396
 C660 C 0.23979 0.31635 0.30627
 H661 H 0.22595 0.34417 0.40673
 H662 H 0.22419 0.38463 0.44417
 H663 H 0.24311 0.42252 0.32606
 H664 H 0.24527 0.38189 0.28917
 C665 C 0.25635 0.13935 0.84500
 C666 C 0.26870 0.11880 0.82676
 C667 C 0.26949 0.09583 0.84835
 C668 C 0.25784 0.09287 0.88887
 C669 C 0.24540 0.11400 0.90661
 C670 C 0.24472 0.13690 0.88489
 C671 C 0.25557 0.16303 0.82293
 C672 C 0.25466 0.18302 0.80499
 H673 H 0.27760 0.12046 0.79563
 H674 H 0.27847 0.08028 0.83209
 H675 H 0.23699 0.11345 0.93815
 H676 H 0.23527 0.15281 0.89948
 C677 C 0.76210 0.64181 0.34234
 C678 C 0.76903 0.64016 0.38553
 C679 C 0.77041 0.61677 0.40573
 C680 C 0.76484 0.59467 0.38295
 C681 C 0.75813 0.59652 0.33941
 C682 C 0.75678 0.61993 0.31929
 C683 C 0.75996 0.66596 0.32188
 C684 C 0.75789 0.68615 0.30477
 H685 H 0.77310 0.65698 0.40374
 H686 H 0.77530 0.61601 0.43940
 H687 H 0.75402 0.57985 0.32088
 H688 H 0.75144 0.62097 0.28581
 C689 C 0.14223 0.74152 0.84593
 C690 C 0.13019 0.71848 0.85083
 C691 C 0.10699 0.71717 0.87169
 C692 C 0.09525 0.73900 0.88834
 C693 C 0.10780 0.76215 0.88277
 C694 C 0.13096 0.76332 0.86182
 C695 C 0.16622 0.74287 0.82482
 C696 C 0.18636 0.74433 0.80735
 H697 H 0.13887 0.70142 0.83891
 H698 H 0.09901 0.69874 0.87616
 H699 H 0.09952 0.77971 0.89298
 H700 H 0.14004 0.78134 0.85784
 C701 C 0.63871 0.23835 0.33956
 C702 C 0.62721 0.26011 0.35542
 C703 C 0.60402 0.25869 0.37623
 C704 C 0.59198 0.23543 0.38149
 C705 C 0.60367 0.21364 0.36538
 C706 C 0.62688 0.21512 0.34452
 C707 C 0.66273 0.23998 0.31858
 C708 C 0.68290 0.24175 0.30129
 H709 H 0.63624 0.27818 0.35192
 H710 H 0.59571 0.27573 0.38886
 H711 H 0.59475 0.19552 0.36855
 H712 H 0.63561 0.19816 0.33230
 C713 C 0.85935 0.26012 0.84005
 C714 C 0.87093 0.23848 0.85611
 C715 C 0.89409 0.24010 0.87693
 C716 C 0.90601 0.26343 0.88197
 C717 C 0.89423 0.28510 0.86566
 C718 C 0.87105 0.28343 0.84480
 C719 C 0.83536 0.25834 0.81911
 C720 C 0.81521 0.25659 0.80183
 H721 H 0.86199 0.22035 0.85278
 H722 H 0.90248 0.22314 0.88972
 H723 H 0.90306 0.30329 0.86866
 H724 H 0.86226 0.30030 0.83242
 C725 C 0.35893 0.76130 0.34786
 C726 C 0.36065 0.75555 0.39154
 C727 C 0.38385 0.75650 0.41239
 C728 C 0.40569 0.76320 0.38977
 C729 C 0.40375 0.76908 0.34590
 C730 C 0.38051 0.76810 0.32510
 C731 C 0.33508 0.75974 0.32634
 C732 C 0.31505 0.75806 0.30861
 H733 H 0.34406 0.75029 0.40949
 H734 H 0.38468 0.75223 0.44631
 H735 H 0.42026 0.77403 0.32752
 H736 H 0.37941 0.77248 0.29122
 C737 C 0.25689 0.85996 0.16164
 C738 C 0.23480 0.87386 0.15584
 C739 C 0.23555 0.89708 0.13507
 C740 C 0.25844 0.90670 0.11983
 C741 C 0.28057 0.89265 0.12608
 C742 C 0.27978 0.86942 0.14683
 C743 C 0.25596 0.83585 0.18227
 C744 C 0.25494 0.81559 0.19934
 H745 H 0.21699 0.86672 0.16727
 H746 H 0.21826 0.90759 0.13121
 H747 H 0.29842 0.89941 0.11419
 H748 H 0.29697 0.85876 0.15102
 C749 C 0.76237 0.35887 0.65272
 C750 C 0.76876 0.35989 0.60922
 C751 C 0.77010 0.38302 0.58817
 C752 C 0.76500 0.40546 0.61039
 C753 C 0.75885 0.40425 0.65425
 C754 C 0.75755 0.38110 0.67523
 C755 C 0.76018 0.33500 0.67399
 C756 C 0.75807 0.31497 0.69158
 H757 H 0.77244 0.34279 0.59143
 H758 H 0.77455 0.38330 0.55429
 H759 H 0.75513 0.42120 0.67236
 H760 H 0.75262 0.38054 0.70893
 C761 C 0.74127 0.13949 0.15504
 C762 C 0.71844 0.13004 0.14001
 C763 C 0.71777 0.10704 0.11850
 C764 C 0.73999 0.09321 0.11170
 C765 C 0.76283 0.10280 0.12718
 C766 C 0.76344 0.12580 0.14871
 C767 C 0.74209 0.16346 0.17618
 C768 C 0.74306 0.18365 0.19345
 H769 H 0.70118 0.14056 0.14458
 H770 H 0.69997 0.10029 0.10647
 H771 H 0.78019 0.09244 0.12292
 H772 H 0.78122 0.13294 0.16026
 C773 C 0.24122 0.64148 0.65932
 C774 C 0.21800 0.62957 0.65461
 C775 C 0.21657 0.60618 0.63437
 C776 C 0.23841 0.59437 0.61864
 C777 C 0.26165 0.60651 0.62358
 C778 C 0.26302 0.62988 0.64377
 C779 C 0.24279 0.66560 0.67998
 C780 C 0.24449 0.68580 0.69718
 H781 H 0.20100 0.63835 0.66661
 H782 H 0.19845 0.59720 0.63146
 H783 H 0.27873 0.59812 0.61123
 H784 H 0.28108 0.63896 0.64710
 C785 C 0.85921 0.74073 0.15471
 C786 C 0.86091 0.74608 0.11089
 C787 C 0.88414 0.74493 0.09007
 C788 C 0.90600 0.73841 0.11287
 C789 C 0.90408 0.73294 0.15689
 C790 C 0.88082 0.73413 0.17766
 C791 C 0.83533 0.74238 0.17615
 C792 C 0.81526 0.74405 0.19387
 H793 H 0.84429 0.75117 0.09281
 H794 H 0.88496 0.74889 0.05604
 H795 H 0.92062 0.72814 0.17539
 H796 H 0.87973 0.73004 0.21164
 C797 C 0.35895 0.23381 0.65678
 C798 C 0.38109 0.23836 0.67958
 C799 C 0.40434 0.23684 0.65888
 C800 C 0.40574 0.23074 0.61503
 C801 C 0.38338 0.22587 0.59253
 C802 C 0.36015 0.22742 0.61329
 C803 C 0.33497 0.23637 0.67769
 C804 C 0.31486 0.23885 0.69500
 H805 H 0.38037 0.24329 0.71327
 H806 H 0.42123 0.24041 0.67716
 H807 H 0.38381 0.22148 0.55862
 H808 H 0.34312 0.22397 0.59529
 C809 C 0.13859 0.26407 0.15704
 C810 C 0.13737 0.27085 0.11374
 C811 C 0.11413 0.27262 0.09313
 C812 C 0.09179 0.26757 0.11559
 C813 C 0.09321 0.26101 0.15923
 C814 C 0.11647 0.25929 0.17979
 C815 C 0.16257 0.26154 0.17787
 C816 C 0.18268 0.25923 0.19515
 H817 H 0.15439 0.27451 0.09579
 H818 H 0.11368 0.27734 0.05937
 H819 H 0.07632 0.25729 0.17748
 H820 H 0.11721 0.25407 0.21335
 C821 C 0.64298 0.76033 0.65555
 C822 C 0.64138 0.75486 0.61174
 C823 C 0.61820 0.75594 0.59080
 C824 C 0.59627 0.76251 0.61344
 C825 C 0.59809 0.76811 0.65744
 C826 C 0.62130 0.76699 0.67833
 C827 C 0.66681 0.75866 0.67714
 C828 C 0.68684 0.75688 0.69490
 H829 H 0.65805 0.74972 0.59378
 H830 H 0.61748 0.75189 0.55679
 H831 H 0.58151 0.77295 0.67583
 H832 H 0.62231 0.77116 0.71230
   
