data_POSCAR
  _audit_creation_date              2014-09-24
  _audit_creation_method            'ToBaCCo'
  _symmetry_space_group_name_H-M    'P1'
  _symmetry_Int_Tables_number       1
  _symmetry_cell_setting            triclinic
  loop_
  _symmetry_equiv_pos_as_xyz
 x,y,z
_cell_length_a 36.0604
_cell_length_b 36.0328
_cell_length_c 13.7127
_cell_angle_alpha 89.936800
_cell_angle_beta 90.035800
_cell_angle_gamma 119.941800
loop_
  _atom_site_label
  _atom_site_type_symbol
  _atom_site_fract_x
  _atom_site_fract_y
  _atom_site_fract_z
O1 O 0.17879 0.43008 0.40722
 O2 O 0.25204 0.43029 0.59566
 O3 O 0.17931 0.43048 0.59619
 O4 O 0.25155 0.43027 0.40658
 O5 O 0.28675 0.50111 0.40625
 O6 O 0.21477 0.50132 0.59552
 O7 O 0.28728 0.50110 0.59494
 O8 O 0.21419 0.50091 0.40694
 Cu9 Cu 0.21186 0.42312 0.50156
 Cu10 Cu 0.25431 0.50823 0.50094
 C11 C 0.18378 0.46550 0.37636
 C12 C 0.28248 0.46577 0.62588
 C13 C 0.18443 0.46599 0.62649
 C14 C 0.28172 0.46572 0.37548
 O15 O 0.56963 -0.25296 0.40466
 O16 O 0.56965 -0.18008 0.59365
 O17 O 0.56932 -0.25307 0.59385
 O18 O 0.56951 -0.18025 0.40471
 O19 O 0.49872 -0.21566 0.40472
 O20 O 0.49855 -0.28819 0.59352
 O21 O 0.49888 -0.21541 0.59327
 O22 O 0.49887 -0.28815 0.40473
 Cu23 Cu 0.57668 -0.21305 0.49926
 Cu24 Cu 0.49164 -0.25542 0.49907
 C25 C 0.53420 -0.28325 0.37382
 C26 C 0.53423 -0.18503 0.62410
 C27 C 0.53384 -0.28334 0.62447
 C28 C 0.53409 -0.18530 0.37403
 O29 O 1.25148 0.82088 0.40763
 O30 O 1.17838 0.74783 0.59611
 O31 O 1.25136 0.82041 0.59657
 O32 O 1.17882 0.74828 0.40703
 O33 O 1.21417 0.71276 0.40706
 O34 O 1.28646 0.78464 0.59628
 O35 O 1.21366 0.71226 0.59577
 O36 O 1.28663 0.78517 0.40770
 Cu37 Cu 1.21144 0.78794 0.50195
 Cu38 Cu 1.25376 0.74511 0.50177
 C39 C 1.28178 0.81570 0.37694
 C40 C 1.18326 0.71726 0.62653
 C41 C 1.28164 0.81514 0.62704
 C42 C 1.18394 0.71797 0.37612
 O43 O 0.74728 0.57010 0.59507
 O44 O 0.82078 0.57048 0.40720
 O45 O 0.74798 0.57022 0.40599
 O46 O 0.82012 0.57014 0.59618
 O47 O 0.78477 0.49930 0.59576
 O48 O 0.71288 0.49938 0.40593
 O49 O 0.78548 0.49965 0.40717
 O50 O 0.71215 0.49929 0.59461
 Cu51 Cu 0.78759 0.57740 0.50122
 Cu52 Cu 0.74527 0.49229 0.50093
 C53 C 0.71686 0.53459 0.62534
 C54 C 0.81587 0.53508 0.37655
 C55 C 0.71788 0.53475 0.37494
 C56 C 0.81505 0.53466 0.62671
 O57 O 0.43079 0.17801 0.59580
 O58 O 0.43057 0.25122 0.40751
 O59 O 0.43081 0.17860 0.40673
 O60 O 0.43083 0.25088 0.59646
 O61 O 0.50162 0.28619 0.59611
 O62 O 0.50160 0.21416 0.40670
 O63 O 0.50134 0.28658 0.40752
 O64 O 0.50155 0.21351 0.59540
 Cu65 Cu 0.42360 0.21109 0.50171
 Cu66 Cu 0.50864 0.25366 0.50147
 C67 C 0.46625 0.18300 0.62619
 C68 C 0.46596 0.28166 0.37684
 C69 C 0.46626 0.18385 0.37580
 C70 C 0.46628 0.28121 0.62697
 O71 O 0.74900 0.17930 0.40821
 O72 O 0.82197 0.25292 0.59600
 O73 O 0.74931 0.18002 0.59718
 O74 O 0.82136 0.25219 0.40696
 O75 O 0.78557 0.28728 0.40653
 O76 O 0.71378 0.21536 0.59642
 O77 O 0.78626 0.28805 0.59519
 O78 O 0.71342 0.21458 0.40782
 Cu79 Cu 0.78902 0.21255 0.50224
 Cu80 Cu 0.74618 0.25487 0.50151
 C81 C 0.71850 0.18417 0.37739
 C82 C 0.81685 0.28337 0.62607
 C83 C 0.71891 0.18508 0.62755
 C84 C 0.81595 0.28230 0.37573
 N85 N 0.95502 0.54414 0.10483
 N86 N 0.92502 0.55404 0.12358
 N87 N 1.04488 0.56256 0.17147
 N88 N 1.07492 0.58362 0.23701
 N89 N 1.04510 0.58879 0.10457
 N90 N 1.07537 0.62856 0.12293
 N91 N 0.95499 0.51794 0.17157
 N92 N 0.92506 0.50926 0.23733
 C93 C 0.90644 0.53160 0.20584
 C94 C 1.09384 0.62451 0.20510
 N95 N 1.04461 0.45652 0.10470
 N96 N 1.07467 0.44667 0.12331
 N97 N 0.95473 0.43799 0.17125
 N98 N 0.92466 0.41683 0.23669
 N99 N 0.95455 0.41185 0.10431
 N100 N 0.92429 0.37206 0.12252
 N101 N 1.04461 0.48262 0.17151
 N102 N 1.07457 0.49129 0.23719
 Mn103 Mn 0.99980 0.50027 0.17228
 C104 C 1.09325 0.46905 0.20558
 C105 C 0.90577 0.37600 0.20465
 N106 N 1.04521 0.58899 -0.10610
 N107 N 1.07548 0.62879 -0.12462
 N108 N 0.95508 0.51819 -0.17278
 N109 N 0.92473 0.50917 -0.23759
 N110 N 0.95512 0.54423 -0.10576
 N111 N 0.92475 0.55370 -0.12325
 N112 N 1.04499 0.56280 -0.17297
 N113 N 1.07503 0.58394 -0.23859
 Mn114 Mn 1.00012 0.56699 -0.00063
 C115 C 1.09398 0.62484 -0.20688
 C116 C 0.90594 0.53117 -0.20509
 N117 N 0.95447 0.41185 -0.10630
 N118 N 0.92429 0.37205 -0.12502
 N119 N 1.04459 0.48273 -0.17288
 N120 N 1.07488 0.49173 -0.23782
 N121 N 1.04456 0.45663 -0.10587
 N122 N 1.07486 0.44709 -0.12350
 N123 N 0.95466 0.43810 -0.17313
 N124 N 0.92470 0.41699 -0.23894
 Mn125 Mn 0.99954 0.43376 -0.00080
 Mn126 Mn 0.99983 0.50046 -0.17381
 Cl127 Cl 0.99982 0.50037 -0.00075
 C128 C 0.90582 0.37604 -0.20735
 C129 C 1.09363 0.46965 -0.20540
 N130 N 0.45641 0.41158 0.10460
 N131 N 0.44675 0.37174 0.12355
 N132 N 0.43742 0.48273 0.17079
 N133 N 0.41622 0.49158 0.23627
 N134 N 0.41130 0.45667 0.10400
 N135 N 0.37149 0.44699 0.12238
 N136 N 0.48250 0.43780 0.17120
 N137 N 0.49135 0.41666 0.23709
 C138 C 0.46923 0.37570 0.20580
 C139 C 0.37538 0.46948 0.20445
 N140 N 0.54297 0.58873 0.10357
 N141 N 0.55280 0.62860 0.12250
 N142 N 0.56209 0.51767 0.17051
 N143 N 0.58336 0.50885 0.23597
 N144 N 0.58813 0.54370 0.10350
 N145 N 0.62796 0.55336 0.12168
 N146 N 0.51699 0.56256 0.17047
 N147 N 0.50837 0.58376 0.23647
 Mn148 Mn 0.49976 0.50019 0.17156
 C149 C 0.53048 0.62469 0.20499
 C150 C 0.62415 0.53092 0.20388
 N151 N 0.41112 0.45652 -0.10665
 N152 N 0.37129 0.44687 -0.12515
 N153 N 0.48228 0.43755 -0.17302
 N154 N 0.49141 0.41628 -0.23776
 N155 N 0.45632 0.41153 -0.10591
 N156 N 0.44702 0.37173 -0.12324
 N157 N 0.43720 0.48251 -0.17367
 N158 N 0.41596 0.49129 -0.23937
 Mn159 Mn 0.43333 0.43363 -0.00101
 C160 C 0.37510 0.46924 -0.20756
 C161 C 0.46958 0.37551 -0.20508
 N162 N 0.58814 0.54354 -0.10714
 N163 N 0.62800 0.55334 -0.12589
 N164 N 0.51691 0.56230 -0.17406
 N165 N 0.50804 0.58346 -0.23980
 N166 N 0.54288 0.58849 -0.10723
 N167 N 0.55247 0.62831 -0.12586
 N168 N 0.56201 0.51738 -0.17378
 N169 N 0.58324 0.50862 -0.23947
 Mn170 Mn 0.56598 0.56657 -0.00183
 Mn171 Mn 0.49960 0.49993 -0.17449
 Cl172 Cl 0.49967 0.50009 -0.00145
 C173 C 0.62415 0.53086 -0.20803
 C174 C 0.53004 0.62435 -0.20810
 N175 N 0.41186 -0.04520 0.10522
 N176 N 0.37201 -0.07526 0.12384
 N177 N 0.48295 0.04471 0.17208
 N178 N 0.49186 0.07480 0.23747
 N179 N 0.45703 0.04494 0.10505
 N180 N 0.44751 0.07524 0.12316
 N181 N 0.43796 -0.04524 0.17204
 N182 N 0.41672 -0.07524 0.23773
 C183 C 0.37584 -0.09390 0.20610
 C184 C 0.46993 0.09373 0.20533
 N185 N 0.58884 0.04476 0.10572
 N186 N 0.62864 0.07489 0.12447
 N187 N 0.51769 -0.04535 0.17206
 N188 N 0.50868 -0.07562 0.23720
 N189 N 0.54372 -0.04540 0.10516
 N190 N 0.55319 -0.07576 0.12306
 N191 N 0.56266 0.04463 0.17248
 N192 N 0.58380 0.07457 0.23825
 Mn193 Mn 0.50031 -0.00032 0.17301
 C194 C 0.62470 0.09337 0.20676
 C195 C 0.53066 -0.09447 0.20500
 N196 N 0.45708 0.04518 -0.10563
 N197 N 0.44738 0.07536 -0.12439
 N198 N 0.43806 -0.04495 -0.17228
 N199 N 0.41684 -0.07524 -0.23724
 N200 N 0.41201 -0.04498 -0.10532
 N201 N 0.37224 -0.07535 -0.12300
 N202 N 0.48312 0.04505 -0.17243
 N203 N 0.49189 0.07505 -0.23822
 Mn204 Mn 0.43405 -0.00001 -0.00018
 C205 C 0.46979 0.09389 -0.20671
 C206 C 0.37606 -0.09408 -0.20488
 N207 N 0.54380 -0.04532 -0.10538
 N208 N 0.55339 -0.07559 -0.12377
 N209 N 0.56280 0.04482 -0.17197
 N210 N 0.58403 0.07522 -0.23679
 N211 N 0.58882 0.04483 -0.10487
 N212 N 0.62858 0.07528 -0.12232
 N213 N 0.51778 -0.04517 -0.17226
 N214 N 0.50891 -0.07523 -0.23779
 Mn215 Mn 0.56675 -0.00028 0.00015
 Mn216 Mn 0.50044 -0.00007 -0.17311
 Cl217 Cl 0.50039 -0.00017 -0.00004
 C218 C 0.53094 -0.09413 -0.20599
 C219 C 0.62477 0.09409 -0.20420
 C220 C 1.15307 0.46573 0.31002
 C221 C 1.12624 0.46675 0.25938
 C222 C 0.53391 0.68756 0.31073
 C223 C 0.53287 0.65988 0.25940
 C224 C 0.31275 -0.15365 0.31062
 C225 C 0.34060 -0.12686 0.25996
 C226 C 0.84663 0.53490 0.31034
 C227 C 0.87347 0.53389 0.25972
 C228 C 0.46616 0.31266 0.31057
 C229 C 0.46711 0.34051 0.25987
 C230 C 0.68763 0.15335 0.31121
 C231 C 0.65986 0.12644 0.26062
 C232 C 0.46658 0.15383 -0.31141
 C233 C 0.46759 0.12695 -0.26068
 C234 C 0.68732 0.53420 -0.31248
 C235 C 0.65941 0.53313 -0.26191
 C236 C 0.84597 0.31294 -0.31181
 C237 C 0.87280 0.34084 -0.26127
 C238 C 0.53398 -0.15424 -0.30986
 C239 C 0.53303 -0.12729 -0.25953
 C240 C 0.31196 0.46608 -0.31184
 C241 C 0.33984 0.46707 -0.26128
 C242 C 1.15406 0.68784 -0.31118
 C243 C 1.12713 0.66002 -0.26061
 C244 C 0.84572 0.53432 -0.30746
 C245 C 0.87270 0.53327 -0.25768
 C246 C 0.46659 0.31221 -0.30731
 C247 C 0.46759 0.34021 -0.25760
 C248 C 0.68798 0.15439 -0.30660
 C249 C 0.66002 0.12739 -0.25681
 C250 C 1.15376 0.46640 -0.30784
 C251 C 1.12682 0.46750 -0.25810
 C252 C 0.53344 0.68735 -0.31286
 C253 C 0.53232 0.65953 -0.26202
 C254 C 0.31275 -0.15422 -0.30734
 C255 C 0.34079 -0.12728 -0.25763
 C256 C 0.53381 -0.15459 0.30811
 C257 C 0.53277 -0.12765 0.25805
 C258 C 0.31243 0.46602 0.30885
 C259 C 0.34021 0.46714 0.25813
 C260 C 1.15349 0.68732 0.30949
 C261 C 1.12677 0.65959 0.25879
 C262 C 0.46660 0.15342 0.30931
 C263 C 0.46770 0.12669 0.25877
 C264 C 0.68718 0.53442 0.30818
 C265 C 0.65937 0.53327 0.25745
 C266 C 0.84626 0.31303 0.30900
 C267 C 0.87290 0.34083 0.25828
   
