data_POSCAR
  _audit_creation_date              2014-09-24
  _audit_creation_method            'ToBaCCo'
  _symmetry_space_group_name_H-M    'P1'
  _symmetry_Int_Tables_number       1
  _symmetry_cell_setting            triclinic
  loop_
  _symmetry_equiv_pos_as_xyz
 x,y,z
_cell_length_a 33.8733
_cell_length_b 33.2339
_cell_length_c 34.1279
_cell_angle_alpha 90.237300
_cell_angle_beta 90.070900
_cell_angle_gamma 89.965100
loop_
  _atom_site_label
  _atom_site_type_symbol
  _atom_site_fract_x
  _atom_site_fract_y
  _atom_site_fract_z
C1 C 0.59659 0.65250 0.62442
 C2 C 0.62665 0.65251 0.59626
 C3 C 0.65662 0.62345 0.59719
 C4 C 0.65653 0.59427 0.62683
 C5 C 0.62648 0.59336 0.65548
 C6 C 0.59651 0.62287 0.65362
 H7 H 0.62674 0.67523 0.57356
 H8 H 0.67946 0.57158 0.62650
 H9 H 0.57354 0.62396 0.67560
 C10 C 0.90467 0.34473 0.12480
 C11 C 0.90283 0.37418 0.15470
 C12 C 0.87341 0.40397 0.15468
 C13 C 0.84500 0.40416 0.12481
 C14 C 0.84593 0.37514 0.09494
 C15 C 0.87579 0.34584 0.09493
 H16 H 0.92500 0.37512 0.17755
 H17 H 0.82213 0.42698 0.12480
 H18 H 0.87545 0.32318 0.07206
 C19 C 0.40337 0.15454 -0.12378
 C20 C 0.37397 0.15372 -0.09484
 C21 C 0.34469 0.12385 -0.09530
 C22 C 0.34504 0.09454 -0.12504
 C23 C 0.37422 0.09498 -0.15423
 C24 C 0.40328 0.12510 -0.15339
 H25 H 0.37385 0.17642 -0.07195
 H26 H 0.32252 0.07140 -0.12550
 H27 H 0.42586 0.12564 -0.17585
 C28 C 0.09530 0.84492 0.37507
 C29 C 0.09687 0.87437 0.34538
 C30 C 0.12637 0.90403 0.34523
 C31 C 0.15512 0.90413 0.37478
 C32 C 0.15449 0.87513 0.40446
 C33 C 0.12454 0.84594 0.40460
 H34 H 0.07445 0.87538 0.32279
 H35 H 0.17805 0.92685 0.37469
 H36 H 0.12510 0.82331 0.42731
 N37 N 0.07743 0.18714 0.10731
 N38 N 0.06391 0.17269 0.14048
 C39 C 0.03265 0.19483 0.15204
 C40 C 0.02601 0.22436 0.12435
 C41 C 0.05492 0.21852 0.09632
 H42 H 0.01547 0.18950 0.17819
 H43 H 0.05961 0.23624 0.07023
 Cu44 Cu 0.08774 0.12537 0.16413
 Cu45 Cu 0.12406 0.16522 0.08154
 Cu46 Cu 0.16791 0.08192 0.12460
 N47 N 0.11201 0.07831 0.18784
 N48 N 0.14368 0.06176 0.17244
 C49 C 0.15447 0.02994 0.19425
 C50 C 0.12795 0.02609 0.22485
 C51 C 0.10138 0.05733 0.21980
 H52 H 0.17927 0.01053 0.18783
 H53 H 0.07632 0.06434 0.23819
 N54 N 0.18792 0.10683 0.07616
 N55 N 0.17149 0.13880 0.06008
 C56 C 0.19249 0.14930 0.02825
 C57 C 0.22346 0.12252 0.02387
 C58 C 0.21956 0.09593 0.05471
 H59 H 0.18565 0.17444 0.00944
 H60 H 0.23888 0.07101 0.06145
 H61 H 0.11729 0.10699 0.10146
 H62 H 0.14959 0.14088 0.13115
 N63 N 0.42320 0.81176 0.60555
 N64 N 0.43859 0.82816 0.63716
 C65 C 0.47035 0.80658 0.64820
 C66 C 0.47531 0.77513 0.62193
 C67 C 0.44484 0.77944 0.59520
 H68 H 0.48878 0.81346 0.67321
 H69 H 0.43848 0.76012 0.57042
 Cu70 Cu 0.41588 0.87628 0.66072
 Cu71 Cu 0.37584 0.83299 0.58071
 Cu72 Cu 0.33331 0.91736 0.62334
 N73 N 0.39117 0.92316 0.68467
 N74 N 0.35860 0.93871 0.67024
 C75 C 0.34748 0.97016 0.69262
 C76 C 0.37466 0.97477 0.72263
 C77 C 0.40201 0.94439 0.71660
 H78 H 0.32179 0.98862 0.68714
 H79 H 0.42756 0.93792 0.73451
 N80 N 0.31207 0.89140 0.57579
 N81 N 0.32788 0.85891 0.55992
 C82 C 0.30631 0.84803 0.52843
 C83 C 0.27560 0.87513 0.52410
 C84 C 0.28024 0.90225 0.55462
 H85 H 0.31274 0.82259 0.50967
 H86 H 0.26145 0.92767 0.56120
 H87 H 0.38327 0.89190 0.59884
 H88 H 0.35271 0.85885 0.63090
 N89 N 0.92186 0.68828 0.39282
 N90 N 0.93411 0.67485 0.35867
 C91 C 0.96533 0.69686 0.34710
 C92 C 0.97326 0.72534 0.37571
 C93 C 0.94514 0.71895 0.40437
 H94 H 0.98158 0.69215 0.32022
 H95 H 0.94146 0.73586 0.43125
 Cu96 Cu 0.90925 0.62904 0.33295
 Cu97 Cu 0.87577 0.66615 0.41887
 Cu98 Cu 0.83180 0.58303 0.37580
 N99 N 0.88583 0.58038 0.31118
 N100 N 0.85526 0.56292 0.32757
 C101 C 0.84509 0.53032 0.30631
 C102 C 0.87092 0.52691 0.27508
 C103 C 0.89643 0.55918 0.27917
 H104 H 0.82120 0.51011 0.31350
 H105 H 0.92072 0.56678 0.26008
 N106 N 0.81230 0.60772 0.42463
 N107 N 0.82877 0.63971 0.44078
 C108 C 0.80814 0.65010 0.47299
 C109 C 0.77737 0.62318 0.47751
 C110 C 0.78100 0.59667 0.44636
 H111 H 0.81509 0.67526 0.49193
 H112 H 0.76170 0.57169 0.43960
 H113 H 0.88349 0.60866 0.39650
 H114 H 0.84872 0.64245 0.36955
 N115 N 0.57637 0.31398 -0.10519
 N116 N 0.56016 0.33110 -0.13590
 C117 C 0.52807 0.30983 -0.14668
 C118 C 0.52375 0.27788 -0.12115
 C119 C 0.55493 0.28155 -0.09513
 H120 H 0.50909 0.31718 -0.17111
 H121 H 0.56197 0.26164 -0.07114
 Cu122 Cu 0.58227 0.37941 -0.15922
 Cu123 Cu 0.62452 0.33433 -0.08128
 Cu124 Cu 0.66833 0.41677 -0.12493
 N125 N 0.60851 0.42473 -0.18396
 N126 N 0.64273 0.43825 -0.17138
 C127 C 0.65462 0.46856 -0.19460
 C128 C 0.62613 0.47462 -0.22304
 C129 C 0.59725 0.44633 -0.21536
 H130 H 0.68159 0.48549 -0.19065
 H131 H 0.57039 0.44148 -0.23185
 N132 N 0.68974 0.39097 -0.07762
 N133 N 0.67331 0.35921 -0.06130
 C134 C 0.69479 0.34845 -0.02980
 C135 C 0.72606 0.37492 -0.02588
 C136 C 0.72187 0.40152 -0.05668
 H137 H 0.68780 0.32367 -0.01062
 H138 H 0.74104 0.42652 -0.06349
 H139 H 0.61832 0.39358 -0.09871
 H140 H 0.64602 0.35928 -0.13249
 C141 C -0.05086 0.29858 0.08923
 C142 C -0.06530 0.31491 0.12473
 C143 C -0.04887 0.30061 0.16012
 C144 C -0.01967 0.27087 0.15996
 C145 C -0.00528 0.25534 0.12451
 C146 C -0.02094 0.26962 0.08919
 H147 H -0.06129 0.30924 0.06116
 H148 H -0.05958 0.31096 0.18826
 H149 H -0.00804 0.26034 0.18765
 H150 H -0.01033 0.25809 0.06140
 C151 C 0.54581 0.69320 0.58867
 C152 C 0.56547 0.68384 0.62371
 C153 C 0.55532 0.70467 0.65813
 C154 C 0.52619 0.73445 0.65750
 C155 C 0.50630 0.74368 0.62251
 C156 C 0.51632 0.72265 0.58811
 H157 H 0.55298 0.67738 0.56179
 H158 H 0.57028 0.69824 0.68546
 H159 H 0.51897 0.74986 0.68455
 H160 H 0.50176 0.72926 0.56064
 C161 C 1.05121 0.79875 0.41073
 C162 C 1.06517 0.81522 0.37524
 C163 C 1.04812 0.80121 0.33992
 C164 C 1.01872 0.77174 0.34013
 C165 C 1.00478 0.75606 0.37557
 C166 C 1.02113 0.76998 0.41084
 H167 H 1.06212 0.80916 0.43879
 H168 H 1.05845 0.81160 0.31174
 H169 H 1.00658 0.76153 0.31246
 H170 H 1.01092 0.75834 0.43863
 C171 C 0.45423 0.19541 -0.08818
 C172 C 0.43414 0.18617 -0.12309
 C173 C 0.44364 0.20732 -0.15734
 C174 C 0.47253 0.23733 -0.15665
 C175 C 0.49286 0.24639 -0.12180
 C176 C 0.48349 0.22504 -0.08760
 H177 H 0.44760 0.17934 -0.06145
 H178 H 0.42837 0.20092 -0.18456
 H179 H 0.47926 0.25302 -0.18355
 H180 H 0.49842 0.23152 -0.06024
 C181 C 0.09212 -0.04391 0.30465
 C182 C 0.12683 -0.06472 0.31440
 C183 C 0.16197 -0.05540 0.29463
 C184 C 0.16231 -0.02605 0.26541
 C185 C 0.12762 -0.00507 0.25575
 C186 C 0.09255 -0.01423 0.27578
 H187 H 0.06473 -0.05031 0.31971
 H188 H 0.18908 -0.07119 0.30149
 H189 H 0.18986 -0.01950 0.25073
 H190 H 0.06527 0.00115 0.26884
 C191 C 0.59069 0.54988 -0.29818
 C192 C 0.62642 0.56373 -0.31465
 C193 C 0.66207 0.54726 -0.30031
 C194 C 0.66194 0.51871 -0.27035
 C195 C 0.62626 0.50501 -0.25452
 C196 C 0.59067 0.52063 -0.26890
 H197 H 0.56238 0.56025 -0.30883
 H198 H 0.69042 0.55755 -0.31081
 H199 H 0.68985 0.50709 -0.25979
 H200 H 0.56269 0.51057 -0.25718
 C201 C 0.40948 1.04449 0.80377
 C202 C 0.37430 1.06408 0.81435
 C203 C 0.33922 1.05406 0.79463
 C204 C 0.33937 1.02520 0.76473
 C205 C 0.37452 1.00545 0.75423
 C206 C 0.40955 1.01531 0.77417
 H207 H 0.43687 1.05147 0.81872
 H208 H 0.31176 1.06895 0.80204
 H209 H 0.31183 1.01810 0.75016
 H210 H 0.43718 1.00088 0.76661
 C211 C 0.90725 0.45655 0.19525
 C212 C 0.87274 0.43531 0.18564
 C213 C 0.83760 0.44433 0.20561
 C214 C 0.83705 0.47387 0.23489
 C215 C 0.87152 0.49537 0.24433
 C216 C 0.90659 0.48648 0.22412
 H217 H 0.93464 0.45032 0.18004
 H218 H 0.81065 0.42820 0.19881
 H219 H 0.80952 0.48023 0.24975
 H220 H 0.93369 0.50229 0.23092
 C221 C 0.30398 0.08758 -0.04541
 C222 C 0.31361 0.12342 -0.06482
 C223 C 0.29336 0.15892 -0.05497
 C224 C 0.26387 0.15854 -0.02638
 C225 C 0.25441 0.12277 -0.00670
 C226 C 0.27485 0.08731 -0.01643
 H227 H 0.31936 0.05987 -0.05235
 H228 H 0.30007 0.18688 -0.06972
 H229 H 0.24889 0.18642 -0.01935
 H230 H 0.26804 0.05922 -0.00199
 C231 C 0.70784 0.65894 0.55734
 C232 C 0.68786 0.62330 0.56687
 C233 C 0.69765 0.58758 0.54703
 C234 C 0.72664 0.58756 0.51792
 C235 C 0.74677 0.62317 0.50845
 C236 C 0.73721 0.65882 0.52861
 H237 H 0.70093 0.68682 0.57239
 H238 H 0.68245 0.55977 0.55368
 H239 H 0.73353 0.55956 0.50313
 H240 H 0.75196 0.68680 0.52178
 C241 C 0.80586 0.41072 0.04397
 C242 C 0.81538 0.37511 0.06386
 C243 C 0.79546 0.33944 0.05399
 C244 C 0.76633 0.33943 0.02497
 C245 C 0.75692 0.37498 0.00487
 C246 C 0.77710 0.41061 0.01455
 H247 H 0.82098 0.43856 0.05095
 H248 H 0.80210 0.31166 0.06913
 H249 H 0.75152 0.31145 0.01799
 H250 H 0.77031 0.43854 -0.00020
 C251 C 0.20517 0.83937 0.44493
 C252 C 0.18539 0.87511 0.43521
 C253 C 0.19544 0.91086 0.45488
 C254 C 0.22455 0.91082 0.48394
 C255 C 0.24455 0.87512 0.49352
 C256 C 0.23463 0.83942 0.47364
 H257 H 0.19815 0.81148 0.42995
 H258 H 0.18045 0.93876 0.44802
 H259 H 0.23171 0.93887 0.49850
 H260 H 0.24928 0.81138 0.48054
   
