data_POSCAR
  _audit_creation_date              2014-09-24
  _audit_creation_method            'ToBaCCo'
  _symmetry_space_group_name_H-M    'P1'
  _symmetry_Int_Tables_number       1
  _symmetry_cell_setting            triclinic
  loop_
  _symmetry_equiv_pos_as_xyz
 x,y,z
_cell_length_a 61.7789
_cell_length_b 62.3171
_cell_length_c 62.8132
_cell_angle_alpha 90.235900
_cell_angle_beta 90.108200
_cell_angle_gamma 89.949100
loop_
  _atom_site_label
  _atom_site_type_symbol
  _atom_site_fract_x
  _atom_site_fract_y
  _atom_site_fract_z
N1 N 0.27349 0.23195 0.21549
 N2 N 0.26508 0.25007 0.20879
 C3 C 0.27611 0.25682 0.19164
 C4 C 0.29243 0.24216 0.18732
 C5 C 0.29020 0.22656 0.20285
 H6 H 0.27262 0.27147 0.18314
 H7 H 0.29996 0.21232 0.20487
 Cu8 Cu 0.24082 0.26347 0.22325
 Cu9 Cu 0.26240 0.21698 0.24033
 Cu10 Cu 0.21518 0.23695 0.26239
 N11 N 0.21248 0.27224 0.23331
 N12 N 0.20251 0.26194 0.24862
 C13 C 0.18357 0.27180 0.25276
 C14 C 0.18152 0.28925 0.23926
 C15 C 0.20022 0.28895 0.22711
 H16 H 0.17223 0.26666 0.26477
 H17 H 0.20485 0.30026 0.21495
 N18 N 0.23060 0.21185 0.27394
 N19 N 0.24859 0.20423 0.26552
 C20 C 0.25546 0.18746 0.27719
 C21 C 0.24113 0.18435 0.29384
 C22 C 0.22556 0.20015 0.29120
 H23 H 0.27008 0.17849 0.27404
 H24 H 0.21161 0.20303 0.30116
 H25 H 0.23115 0.22766 0.23494
 H26 H 0.24739 0.24256 0.25538
 N27 N 0.73044 -0.22660 0.20908
 N28 N 0.74219 -0.24093 0.19898
 C29 C 0.73129 -0.24785 0.18170
 C30 C 0.71150 -0.23723 0.18080
 C31 C 0.71166 -0.22384 0.19857
 H32 H 0.73745 -0.25976 0.17073
 H33 H 0.69913 -0.21289 0.20368
 Cu34 Cu 0.77062 -0.24923 0.20926
 Cu35 Cu 0.74032 -0.21263 0.23513
 Cu36 Cu 0.78760 -0.23220 0.25742
 N37 N 0.79480 -0.26270 0.22378
 N38 N 0.80145 -0.25601 0.24252
 C39 C 0.81813 -0.26830 0.24893
 C40 C 0.82222 -0.28371 0.23336
 C41 C 0.80697 -0.27951 0.21760
 H42 H 0.82638 -0.26621 0.26397
 H43 H 0.80456 -0.28809 0.20282
 N44 N 0.77109 -0.20818 0.26990
 N45 N 0.75308 -0.20071 0.26139
 C46 C 0.74566 -0.18442 0.27350
 C47 C 0.75965 -0.18146 0.29052
 C48 C 0.77560 -0.19685 0.28765
 H49 H 0.73103 -0.17551 0.27023
 H50 H 0.78958 -0.19953 0.29765
 H51 H 0.77332 -0.21725 0.23163
 H52 H 0.75769 -0.23942 0.24445
 N53 N 0.72839 0.23012 0.78977
 N54 N 0.73823 0.24686 0.79807
 C55 C 0.72720 0.25349 0.81537
 C56 C 0.70946 0.24018 0.81808
 C57 C 0.71080 0.22551 0.80149
 H58 H 0.73179 0.26695 0.82528
 H59 H 0.69968 0.21261 0.79795
 Cu60 Cu 0.76434 0.25845 0.78530
 Cu61 Cu 0.73889 0.21572 0.76423
 Cu62 Cu 0.78574 0.23587 0.74146
 N63 N 0.79082 0.26934 0.77264
 N64 N 0.79909 0.26049 0.75548
 C65 C 0.81703 0.27129 0.74987
 C66 C 0.82029 0.28797 0.76429
 C67 C 0.80323 0.28608 0.77856
 H68 H 0.82677 0.26729 0.73615
 H69 H 0.79985 0.29622 0.79213
 N70 N 0.76984 0.21108 0.72969
 N71 N 0.75205 0.20339 0.73837
 C72 C 0.74500 0.18666 0.72663
 C73 C 0.75899 0.18363 0.70968
 C74 C 0.77456 0.19944 0.71219
 H75 H 0.73056 0.17755 0.73004
 H76 H 0.78837 0.20225 0.70207
 H77 H 0.77107 0.22381 0.76841
 H78 H 0.75446 0.24198 0.75137
 N79 N 0.27389 -0.23205 0.78537
 N80 N 0.26558 -0.25022 0.79199
 C81 C 0.27657 -0.25692 0.80925
 C82 C 0.29276 -0.24217 0.81370
 C83 C 0.29051 -0.22658 0.79815
 H84 H 0.27314 -0.27159 0.81770
 H85 H 0.30018 -0.21229 0.79621
 Cu86 Cu 0.24151 -0.26377 0.77731
 Cu87 Cu 0.26282 -0.21714 0.76043
 Cu88 Cu 0.21577 -0.23734 0.73808
 N89 N 0.21323 -0.27266 0.76713
 N90 N 0.20320 -0.26238 0.75180
 C91 C 0.18430 -0.27226 0.74761
 C92 C 0.18228 -0.28982 0.76107
 C93 C 0.20107 -0.28940 0.77328
 H94 H 0.17307 -0.26705 0.73548
 H95 H 0.20582 -0.30048 0.78562
 N96 N 0.23109 -0.21219 0.72659
 N97 N 0.24901 -0.20448 0.73512
 C98 C 0.25582 -0.18772 0.72346
 C99 C 0.24154 -0.18471 0.70670
 C100 C 0.22604 -0.20055 0.70927
 H101 H 0.27040 -0.17870 0.72668
 H102 H 0.21215 -0.20351 0.69921
 H103 H 0.23163 -0.22798 0.76563
 H104 H 0.24801 -0.24277 0.74527
 N105 N 0.73264 -0.22266 0.79257
 N106 N 0.74091 -0.24065 0.79978
 C107 C 0.72954 -0.24697 0.81692
 C108 C 0.71320 -0.23216 0.82068
 C109 C 0.71574 -0.21693 0.80484
 H110 H 0.73272 -0.26146 0.82578
 H111 H 0.70603 -0.20274 0.80232
 Cu112 Cu 0.76546 -0.25426 0.78573
 Cu113 Cu 0.74402 -0.20820 0.76753
 Cu114 Cu 0.78825 -0.23171 0.74276
 N115 N 0.79053 -0.26708 0.77186
 N116 N 0.79935 -0.25815 0.75508
 C117 C 0.81615 -0.27021 0.74853
 C118 C 0.81812 -0.28782 0.76190
 C119 C 0.80146 -0.28516 0.77657
 H120 H 0.82606 -0.26634 0.73493
 H121 H 0.79745 -0.29558 0.78967
 N122 N 0.77472 -0.20497 0.73265
 N123 N 0.75786 -0.19604 0.74202
 C124 C 0.75212 -0.17836 0.73109
 C125 C 0.76604 -0.17600 0.71399
 C126 C 0.78016 -0.19320 0.71555
 H127 H 0.73873 -0.16801 0.73526
 H128 H 0.79317 -0.19715 0.70475
 H129 H 0.75665 -0.23521 0.75298
 H130 H 0.77525 -0.21963 0.77066
 N131 N 0.26460 0.22112 0.79503
 N132 N 0.25586 0.23880 0.80255
 C133 C 0.26726 0.24539 0.81967
 C134 C 0.28407 0.23104 0.82311
 C135 C 0.28180 0.21583 0.80710
 H136 H 0.26360 0.25961 0.82889
 H137 H 0.29209 0.20212 0.80415
 Cu138 Cu 0.23068 0.25176 0.78902
 Cu139 Cu 0.25346 0.20655 0.76983
 Cu140 Cu 0.20947 0.22982 0.74457
 N141 N 0.20636 0.26490 0.77419
 N142 N 0.19818 0.25626 0.75685
 C143 C 0.18181 0.26861 0.74978
 C144 C 0.17954 0.28601 0.76341
 C145 C 0.19546 0.28307 0.77873
 H146 H 0.17226 0.26508 0.73577
 H147 H 0.19904 0.29351 0.79204
 N148 N 0.22313 0.20306 0.73455
 N149 N 0.23990 0.19420 0.74414
 C150 C 0.24574 0.17644 0.73330
 C151 C 0.23199 0.17393 0.71601
 C152 C 0.21785 0.19114 0.71738
 H153 H 0.25907 0.16611 0.73765
 H154 H 0.20492 0.19497 0.70644
 H155 H 0.24069 0.23381 0.75590
 H156 H 0.22194 0.21734 0.77245
 N157 N 0.26458 -0.22151 0.20505
 N158 N 0.25578 -0.23913 0.19744
 C159 C 0.26725 -0.24580 0.18043
 C160 C 0.28417 -0.23157 0.17715
 C161 C 0.28188 -0.21635 0.19315
 H162 H 0.26358 -0.25998 0.17116
 H163 H 0.29225 -0.20272 0.19621
 Cu164 Cu 0.23045 -0.25193 0.21072
 Cu165 Cu 0.25339 -0.20690 0.23017
 Cu166 Cu 0.20919 -0.22990 0.25506
 N167 N 0.20603 -0.26494 0.22540
 N168 N 0.19780 -0.25624 0.24266
 C169 C 0.18131 -0.26845 0.24957
 C170 C 0.17901 -0.28584 0.23593
 C171 C 0.19505 -0.28303 0.22076
 H172 H 0.17189 -0.26500 0.26365
 H173 H 0.19844 -0.29333 0.20730
 N174 N 0.22294 -0.20324 0.26523
 N175 N 0.23978 -0.19448 0.25577
 C176 C 0.24566 -0.17675 0.26667
 C177 C 0.23185 -0.17418 0.28385
 C178 C 0.21764 -0.19130 0.28236
 H179 H 0.25905 -0.16650 0.26242
 H180 H 0.20466 -0.19507 0.29321
 H181 H 0.24043 -0.23411 0.24395
 H182 H 0.22182 -0.21748 0.22730
 N183 N 0.73537 0.21977 0.20583
 N184 N 0.74431 0.23716 0.19805
 C185 C 0.73289 0.24360 0.18094
 C186 C 0.71585 0.22946 0.17777
 C187 C 0.71801 0.21453 0.19392
 H188 H 0.73666 0.25759 0.17155
 H189 H 0.70752 0.20106 0.19711
 Cu190 Cu 0.76969 0.25010 0.21130
 Cu191 Cu 0.74644 0.20558 0.23116
 Cu192 Cu 0.79076 0.22882 0.25598
 N193 N 0.79411 0.26328 0.22600
 N194 N 0.80228 0.25488 0.24339
 C195 C 0.81871 0.26724 0.25034
 C196 C 0.82100 0.28444 0.23660
 C197 C 0.80505 0.28134 0.22132
 H198 H 0.82804 0.26407 0.26455
 H199 H 0.80164 0.29145 0.20780
 N200 N 0.77687 0.20243 0.26635
 N201 N 0.75996 0.19359 0.25695
 C202 C 0.75394 0.17616 0.26807
 C203 C 0.76773 0.17386 0.28534
 C204 C 0.78207 0.19084 0.28367
 H205 H 0.74045 0.16594 0.26393
 H206 H 0.79506 0.19477 0.29453
 H207 H 0.75954 0.23299 0.24466
 H208 H 0.77804 0.21591 0.22829
 C209 C 0.24748 0.01054 0.50101
 C210 C 0.24750 -0.01124 0.49924
 C211 C 0.24812 -0.02536 0.51824
 C212 C 0.24637 -0.02224 0.47824
 C213 C 0.24805 0.02467 0.48201
 C214 C 0.24638 0.02154 0.52201
 C215 C 0.26464 -0.02353 0.53353
 C216 C 0.26513 -0.03727 0.55108
 C217 C 0.24926 -0.05324 0.55350
 C218 C 0.23282 -0.05505 0.53810
 C219 C 0.23231 -0.04130 0.52064
 C220 C 0.26201 -0.03765 0.47290
 C221 C 0.26064 -0.04891 0.45368
 C222 C 0.24346 -0.04510 0.43947
 C223 C 0.22781 -0.02960 0.44484
 C224 C 0.22921 -0.01832 0.46408
 C225 C 0.23222 0.04063 0.47960
 C226 C 0.23269 0.05439 0.46215
 C227 C 0.24909 0.05257 0.44677
 C228 C 0.26497 0.03657 0.44920
 C229 C 0.26453 0.02282 0.46674
 C230 C 0.22925 0.01765 0.53613
 C231 C 0.22787 0.02895 0.55536
 C232 C 0.24352 0.04444 0.56074
 C233 C 0.26066 0.04823 0.54657
 C234 C 0.26202 0.03695 0.52737
 H235 H 0.27725 -0.01162 0.53176
 H236 H 0.27816 -0.03570 0.56254
 H237 H 0.22019 -0.06698 0.53967
 H238 H 0.21944 -0.04299 0.50901
 H239 H 0.27525 -0.04105 0.48371
 H240 H 0.27274 -0.06099 0.45019
 H241 H 0.21675 -0.00675 0.46808
 H242 H 0.21938 0.04233 0.49121
 H243 H 0.22006 0.06634 0.46057
 H244 H 0.27797 0.03498 0.43776
 H245 H 0.27715 0.01089 0.46853
 H246 H 0.21680 0.00609 0.53212
 H247 H 0.21454 0.02560 0.56601
 H248 H 0.27275 0.06031 0.55007
 H249 H 0.27523 0.04033 0.51657
 H250 H 0.21446 -0.02622 0.43416
 C251 C 0.75258 0.01119 0.50045
 C252 C 0.75274 -0.01065 0.50111
 C253 C 0.75228 -0.02392 0.48143
 C254 C 0.75393 -0.02251 0.52154
 C255 C 0.75221 0.02444 0.52015
 C256 C 0.75335 0.02311 0.48003
 C257 C 0.73558 -0.02178 0.46638
 C258 C 0.73537 -0.03459 0.44804
 C259 C 0.75182 -0.04981 0.44450
 C260 C 0.76835 -0.05203 0.45973
 C261 C 0.76852 -0.03927 0.47803
 C262 C 0.73824 -0.03804 0.52619
 C263 C 0.73948 -0.04987 0.54498
 C264 C 0.75656 -0.04654 0.55944
 C265 C 0.77233 -0.03101 0.55471
 C266 C 0.77106 -0.01915 0.53589
 C267 C 0.76834 0.03992 0.52344
 C268 C 0.76824 0.05269 0.54173
 C269 C 0.75188 0.05036 0.55707
 C270 C 0.73556 0.03499 0.55364
 C271 C 0.73570 0.02217 0.53531
 C272 C 0.77034 0.01998 0.46553
 C273 C 0.77138 0.03212 0.44688
 C274 C 0.75557 0.04776 0.44253
 C275 C 0.73853 0.05074 0.45706
 C276 C 0.73750 0.03860 0.47565
 H277 H 0.72270 -0.01025 0.46889
 H278 H 0.72248 -0.03247 0.43655
 H279 H 0.78101 -0.06388 0.45765
 H280 H 0.78144 -0.04129 0.48954
 H281 H 0.72503 -0.04102 0.51521
 H282 H 0.72731 -0.06198 0.54797
 H283 H 0.78355 -0.00751 0.53241
 H284 H 0.78112 0.04204 0.51185
 H285 H 0.78080 0.06465 0.54372
 H286 H 0.72280 0.03277 0.56522
 H287 H 0.72291 0.01053 0.53289
 H288 H 0.78300 0.00842 0.46885
 H289 H 0.78487 0.02968 0.43617
 H290 H 0.72596 0.06245 0.45403
 H291 H 0.72431 0.04129 0.48669
 H292 H 0.78561 -0.02799 0.56558
 C293 C 0.49907 0.24597 -0.00972
 C294 C 0.49990 0.24590 0.01194
 C295 C 0.52075 0.24470 0.02372
 C296 C 0.47997 0.24644 0.02510
 C297 C 0.47822 0.24501 -0.02153
 C298 C 0.51900 0.24643 -0.02287
 C299 C 0.53527 0.22769 0.02032
 C300 C 0.55436 0.22628 0.03224
 C301 C 0.55919 0.24177 0.04790
 C302 C 0.54459 0.25876 0.05123
 C303 C 0.52553 0.26015 0.03932
 C304 C 0.47657 0.23040 0.04031
 C305 C 0.45809 0.23072 0.05303
 C306 C 0.44269 0.24719 0.05090
 C307 C 0.44622 0.26339 0.03578
 C308 C 0.46474 0.26304 0.02300
 C309 C 0.47357 0.26056 -0.03695
 C310 C 0.45454 0.25936 -0.04893
 C311 C 0.43983 0.24245 -0.04584
 C312 C 0.44453 0.22687 -0.03035
 C313 C 0.46358 0.22810 -0.01836
 C314 C 0.53438 0.26285 -0.02049
 C315 C 0.55296 0.26307 -0.03319
 C316 C 0.55640 0.24692 -0.04852
 C317 C 0.54084 0.23065 -0.05096
 C318 C 0.52231 0.23046 -0.03832
 H319 H 0.53170 0.21537 0.00862
 H320 H 0.56535 0.21307 0.02921
 H321 H 0.54764 0.27073 0.06341
 H322 H 0.51441 0.27326 0.04234
 H323 H 0.48822 0.21756 0.04228
 H324 H 0.45602 0.21824 0.06480
 H325 H 0.46725 0.27575 0.01156
 H326 H 0.48477 0.27360 -0.03979
 H327 H 0.45159 0.27139 -0.06098
 H328 H 0.43346 0.21373 -0.02752
 H329 H 0.46706 0.21571 -0.00681
 H330 H 0.53195 0.27551 -0.00887
 H331 H 0.56471 0.27575 -0.03090
 H332 H 0.54284 0.21822 -0.06289
 H333 H 0.51054 0.21776 -0.04050
 H334 H 0.43459 0.27623 0.03374
 C335 C 0.50042 0.75280 -0.01038
 C336 C 0.49970 0.75276 0.01129
 C337 C 0.51971 0.75230 0.02440
 C338 C 0.47891 0.75385 0.02312
 C339 C 0.48042 0.75245 -0.02351
 C340 C 0.52120 0.75383 -0.02221
 C341 C 0.53505 0.73582 0.02209
 C342 C 0.55377 0.73569 0.03466
 C343 C 0.55740 0.75201 0.04978
 C344 C 0.54186 0.76831 0.05219
 C345 C 0.52318 0.76840 0.03968
 C346 C 0.47420 0.73826 0.03845
 C347 C 0.45517 0.73951 0.05036
 C348 C 0.44053 0.75652 0.04730
 C349 C 0.44530 0.77215 0.03192
 C350 C 0.46435 0.77087 0.01999
 C351 C 0.47706 0.76854 -0.03870
 C352 C 0.45853 0.76841 -0.05142
 C353 C 0.44301 0.75208 -0.04930
 C354 C 0.44649 0.73583 -0.03419
 C355 C 0.46506 0.73599 -0.02143
 C356 C 0.53581 0.77078 -0.01892
 C357 C 0.55476 0.77210 -0.03099
 C358 C 0.55937 0.75658 -0.04668
 C359 C 0.54470 0.73962 -0.04986
 C360 C 0.52578 0.73832 -0.03781
 H361 H 0.53250 0.72307 0.01060
 H362 H 0.56550 0.72297 0.03241
 H363 H 0.54400 0.78087 0.06397
 H364 H 0.51145 0.78116 0.04182
 H365 H 0.48534 0.72514 0.04125
 H366 H 0.45216 0.72742 0.06233
 H367 H 0.46787 0.78329 0.00850
 H368 H 0.48880 0.78128 -0.04067
 H369 H 0.45651 0.78091 -0.06317
 H370 H 0.43477 0.72309 -0.03216
 H371 H 0.46753 0.72325 -0.01000
 H372 H 0.53238 0.78313 -0.00723
 H373 H 0.56580 0.78527 -0.02808
 H374 H 0.54758 0.72763 -0.06206
 H375 H 0.51459 0.72526 -0.04074
 H376 H 0.43429 0.78537 0.02911
 C377 C 0.00957 0.50026 0.24399
 C378 C -0.01247 0.50061 0.24422
 C379 C -0.02546 0.48057 0.24462
 C380 C -0.02489 0.52100 0.24351
 C381 C 0.02263 0.52027 0.24409
 C382 C 0.02188 0.47981 0.24319
 C383 C -0.04092 0.47690 0.22864
 C384 C -0.05335 0.45822 0.22868
 C385 C -0.05070 0.44286 0.24480
 C386 C -0.03541 0.44669 0.26100
 C387 C -0.02292 0.46542 0.26093
 C388 C -0.02215 0.53563 0.22679
 C389 C -0.03466 0.55432 0.22593
 C390 C -0.05028 0.55858 0.24165
 C391 C -0.05290 0.54390 0.25838
 C392 C -0.04039 0.52527 0.25924
 C393 C 0.02038 0.53569 0.26030
 C394 C 0.03304 0.55430 0.26017
 C395 C 0.04823 0.55774 0.24388
 C396 C 0.05054 0.54214 0.22782
 C397 C 0.03793 0.52358 0.22797
 C398 C 0.03738 0.47548 0.25893
 C399 C 0.04949 0.45658 0.25820
 C400 C 0.04647 0.44169 0.24159
 C401 C 0.03100 0.44612 0.22574
 C402 C 0.01886 0.46506 0.22650
 H403 H -0.04325 0.48848 0.21603
 H404 H -0.06527 0.45592 0.21621
 H405 H -0.03295 0.43512 0.27358
 H406 H -0.01131 0.46813 0.27359
 H407 H -0.01059 0.53239 0.21424
 H408 H -0.03250 0.56516 0.21268
 H409 H -0.04278 0.51414 0.27223
 H410 H 0.00890 0.53327 0.27307
 H411 H 0.03084 0.56607 0.27271
 H412 H 0.06237 0.54413 0.21528
 H413 H 0.04003 0.51179 0.21542
 H414 H 0.04009 0.48679 0.27181
 H415 H 0.06155 0.45381 0.27042
 H416 H 0.02824 0.43491 0.21280
 H417 H 0.00722 0.46829 0.21400
 H418 H -0.06460 0.54687 0.27087
 C419 C 0.01074 0.50082 0.75488
 C420 C -0.01128 0.50000 0.75496
 C421 C -0.02316 0.47933 0.75583
 C422 C -0.02478 0.51975 0.75471
 C423 C 0.02263 0.52150 0.75569
 C424 C 0.02422 0.48106 0.75456
 C425 C -0.03866 0.47457 0.74018
 C426 C -0.05048 0.45553 0.74108
 C427 C -0.04716 0.44092 0.75777
 C428 C -0.03166 0.44576 0.77350
 C429 C -0.01981 0.46484 0.77257
 C430 C -0.02275 0.53503 0.73847
 C431 C -0.03576 0.55342 0.73849
 C432 C -0.05110 0.55678 0.75470
 C433 C -0.05322 0.54129 0.77077
 C434 C -0.04025 0.52295 0.77072
 C435 C 0.01952 0.53608 0.77251
 C436 C 0.03145 0.55512 0.77342
 C437 C 0.04678 0.55984 0.75759
 C438 C 0.04984 0.54515 0.74081
 C439 C 0.03794 0.52614 0.73993
 C440 C 0.03981 0.47795 0.77051
 C441 C 0.05265 0.45952 0.77058
 C442 C 0.05028 0.44385 0.75458
 C443 C 0.03487 0.44714 0.73840
 C444 C 0.02199 0.46562 0.73836
 H445 H -0.04162 0.48567 0.72726
 H446 H -0.06258 0.45245 0.72895
 H447 H -0.02867 0.43477 0.78648
 H448 H -0.00818 0.46840 0.78501
 H449 H -0.01114 0.53268 0.72578
 H450 H -0.03369 0.56511 0.72596
 H451 H -0.04220 0.51126 0.78328
 H452 H 0.00803 0.53260 0.78503
 H453 H 0.02867 0.56617 0.78648
 H454 H 0.06180 0.54813 0.72860
 H455 H 0.04072 0.51497 0.72696
 H456 H 0.04191 0.48976 0.78305
 H457 H 0.06464 0.45765 0.78303
 H458 H 0.03261 0.43531 0.72592
 H459 H 0.01028 0.46789 0.72571
 H460 H -0.06515 0.54321 0.78324
 C461 C 0.34057 0.24547 0.13806
 C462 C 0.34241 0.23023 0.15424
 C463 C 0.32673 0.22908 0.17019
 C464 C 0.30893 0.24320 0.17020
 C465 C 0.30721 0.25843 0.15377
 C466 C 0.32293 0.25954 0.13783
 C467 C 0.35694 0.24667 0.12186
 C468 C 0.37095 0.24734 0.10856
 C469 C 0.38805 0.24764 0.09307
 C470 C 0.39475 0.22847 0.08348
 C471 C 0.41223 0.22840 0.06941
 C472 C 0.42328 0.24755 0.06477
 C473 C 0.41613 0.26684 0.07412
 C474 C 0.39863 0.26686 0.08823
 H475 H 0.35604 0.21928 0.15460
 H476 H 0.32877 0.21725 0.18258
 H477 H 0.29371 0.26947 0.15310
 H478 H 0.32134 0.27139 0.12534
 H479 H 0.38666 0.21351 0.08710
 H480 H 0.41718 0.21336 0.06222
 H481 H 0.42446 0.28178 0.07103
 H482 H 0.39363 0.28178 0.09565
 C483 C 0.66202 0.75633 0.13441
 C484 C 0.68085 0.74399 0.13283
 C485 C 0.69721 0.74605 0.14813
 C486 C 0.69500 0.76055 0.16535
 C487 C 0.67582 0.77282 0.16667
 C488 C 0.65955 0.77071 0.15135
 C489 C 0.64517 0.75443 0.11867
 C490 C 0.63076 0.75333 0.10576
 C491 C 0.61319 0.75263 0.09071
 C492 C 0.60272 0.73323 0.08613
 C493 C 0.58483 0.73290 0.07244
 C494 C 0.57715 0.75202 0.06327
 C495 C 0.58806 0.77135 0.06766
 C496 C 0.60594 0.77163 0.08130
 H497 H 0.68292 0.73279 0.11976
 H498 H 0.71149 0.73621 0.14628
 H499 H 0.67317 0.78418 0.17944
 H500 H 0.64502 0.78036 0.15271
 H501 H 0.60815 0.71844 0.09342
 H502 H 0.57663 0.71782 0.06953
 H503 H 0.58272 0.78627 0.06059
 H504 H 0.61393 0.78673 0.08472
 C505 C 0.66020 0.24420 -0.13379
 C506 C 0.66181 0.22592 -0.14667
 C507 C 0.67787 0.22456 -0.16225
 C508 C 0.69258 0.24152 -0.16518
 C509 C 0.69088 0.25981 -0.15203
 C510 C 0.67478 0.26113 -0.13647
 C511 C 0.64339 0.24560 -0.11804
 C512 C 0.62905 0.24640 -0.10509
 C513 C 0.61161 0.24684 -0.08997
 C514 C 0.60450 0.22770 -0.08078
 C515 C 0.58680 0.22780 -0.06698
 C516 C 0.57594 0.24707 -0.06221
 C517 C 0.58347 0.26632 -0.07118
 C518 C 0.60118 0.26618 -0.08502
 H519 H 0.65060 0.21271 -0.14471
 H520 H 0.67874 0.21016 -0.17187
 H521 H 0.70177 0.27325 -0.15388
 H522 H 0.67364 0.27539 -0.12660
 H523 H 0.61247 0.21265 -0.08449
 H524 H 0.58157 0.21278 -0.06008
 H525 H 0.57529 0.28136 -0.06798
 H526 H 0.60651 0.28107 -0.09213
 C527 C 0.34078 0.75461 -0.13672
 C528 C 0.32320 0.74049 -0.13661
 C529 C 0.30751 0.74159 -0.15265
 C530 C 0.30920 0.75685 -0.16904
 C531 C 0.32693 0.77103 -0.16889
 C532 C 0.34258 0.76989 -0.15285
 C533 C 0.35715 0.75336 -0.12046
 C534 C 0.37116 0.75260 -0.10711
 C535 C 0.38827 0.75214 -0.09156
 C536 C 0.39870 0.73283 -0.08668
 C537 C 0.41622 0.73268 -0.07253
 C538 C 0.42355 0.75190 -0.06318
 C539 C 0.41265 0.77115 -0.06785
 C540 C 0.39515 0.77126 -0.08196
 H541 H 0.32164 0.72860 -0.12417
 H542 H 0.29407 0.73050 -0.15208
 H543 H 0.32894 0.78289 -0.18124
 H544 H 0.35616 0.78088 -0.15310
 H545 H 0.39356 0.71795 -0.09410
 H546 H 0.42443 0.71766 -0.06942
 H547 H 0.41773 0.78615 -0.06066
 H548 H 0.38717 0.78630 -0.08561
 C549 C 0.13111 0.33687 0.23802
 C550 C 0.13215 0.32213 0.25473
 C551 C 0.14833 0.30642 0.25501
 C552 C 0.16376 0.30530 0.23857
 C553 C 0.16234 0.32003 0.22168
 C554 C 0.14614 0.33569 0.22144
 C555 C 0.11517 0.35370 0.23825
 C556 C 0.10219 0.36815 0.23856
 C557 C 0.08717 0.38580 0.23909
 C558 C 0.07825 0.39248 0.25847
 C559 C 0.06467 0.41041 0.25923
 C560 C 0.05985 0.42192 0.24059
 C561 C 0.06857 0.41483 0.22111
 C562 C 0.08217 0.39690 0.22039
 H563 H 0.12063 0.32296 0.26770
 H564 H 0.14893 0.29550 0.26832
 H565 H 0.17373 0.31957 0.20864
 H566 H 0.14549 0.34704 0.20843
 H567 H 0.08201 0.38399 0.27304
 H568 H 0.05798 0.41531 0.27441
 H569 H 0.06538 0.42351 0.20653
 H570 H 0.08909 0.39193 0.20532
 C571 C 0.13220 0.66378 0.76229
 C572 C 0.13113 0.68089 0.74801
 C573 C 0.14749 0.69638 0.74775
 C574 C 0.16533 0.69499 0.76177
 C575 C 0.16594 0.67777 0.77631
 C576 C 0.14955 0.66234 0.77651
 C577 C 0.11596 0.64726 0.76190
 C578 C 0.10277 0.63302 0.76145
 C579 C 0.08754 0.61558 0.76075
 C580 C 0.08259 0.60428 0.77932
 C581 C 0.06892 0.58643 0.77840
 C582 C 0.06009 0.57962 0.75884
 C583 C 0.06482 0.59136 0.74034
 C584 C 0.07847 0.60921 0.74130
 H585 H 0.11776 0.68213 0.73689
 H586 H 0.14607 0.70923 0.73632
 H587 H 0.17909 0.67588 0.78751
 H588 H 0.15055 0.64913 0.78763
 H589 H 0.08963 0.60900 0.79443
 H590 H 0.06580 0.57757 0.79286
 H591 H 0.05805 0.58667 0.72510
 H592 H 0.08221 0.61785 0.72683
 C593 C -0.13148 0.66610 0.23485
 C594 C -0.13278 0.68071 0.25173
 C595 C -0.14789 0.69743 0.25119
 C596 C -0.16207 0.69981 0.23369
 C597 C -0.16030 0.68506 0.21665
 C598 C -0.14517 0.66839 0.21728
 C599 C -0.11666 0.64831 0.23586
 C600 C -0.10465 0.63309 0.23678
 C601 C -0.09085 0.61453 0.23801
 C602 C -0.09959 0.59478 0.24403
 C603 C -0.08639 0.57662 0.24521
 C604 C -0.06421 0.57796 0.24038
 C605 C -0.05554 0.59789 0.23429
 C606 C -0.06880 0.61607 0.23314
 H607 H -0.12226 0.67906 0.26545
 H608 H -0.14839 0.70825 0.26466
 H609 H -0.17062 0.68608 0.20279
 H610 H -0.14432 0.65712 0.20412
 H611 H -0.11665 0.59339 0.24774
 H612 H -0.09361 0.56145 0.24963
 H613 H -0.03849 0.59946 0.23069
 H614 H -0.06186 0.63130 0.22849
 C615 C -0.13086 0.33565 0.76344
 C616 C -0.14637 0.33561 0.77958
 C617 C -0.16235 0.31977 0.78002
 C618 C -0.16318 0.30362 0.76421
 C619 C -0.14718 0.30373 0.74817
 C620 C -0.13122 0.31963 0.74780
 C621 C -0.11504 0.35254 0.76261
 C622 C -0.10218 0.36705 0.76192
 C623 C -0.08731 0.38478 0.76107
 C624 C -0.08220 0.39620 0.77964
 C625 C -0.06878 0.41421 0.77865
 C626 C -0.06034 0.42106 0.75903
 C627 C -0.06526 0.40924 0.74051
 C628 C -0.07868 0.39122 0.74154
 H629 H -0.14625 0.34797 0.79177
 H630 H -0.17405 0.32051 0.79276
 H631 H -0.14691 0.29176 0.73568
 H632 H -0.11928 0.31954 0.73519
 H633 H -0.08891 0.39141 0.79482
 H634 H -0.06552 0.42313 0.79313
 H635 H -0.05879 0.41396 0.72522
 H636 H -0.08254 0.38249 0.72707
 C637 C 0.24557 0.13781 0.34407
 C638 C 0.25888 0.13598 0.32617
 C639 C 0.25739 0.15103 0.30977
 C640 C 0.24253 0.16815 0.31106
 C641 C 0.22915 0.16972 0.32912
 C642 C 0.23068 0.15467 0.34548
 C643 C 0.24722 0.12258 0.36115
 C644 C 0.24833 0.11013 0.37575
 C645 C 0.24923 0.09568 0.39354
 C646 C 0.25421 0.07397 0.39047
 C647 C 0.25444 0.05993 0.40781
 C648 C 0.24961 0.06747 0.42841
 C649 C 0.24488 0.08938 0.43133
 C650 C 0.24469 0.10336 0.41401
 H651 H 0.27045 0.12297 0.32491
 H652 H 0.26784 0.14914 0.29610
 H653 H 0.21763 0.18269 0.33084
 H654 H 0.22032 0.15626 0.35930
 H655 H 0.25770 0.06786 0.37467
 H656 H 0.25793 0.04312 0.40504
 H657 H 0.24143 0.09572 0.44703
 H658 H 0.24088 0.12015 0.41658
 C659 C 0.75470 0.13621 0.65987
 C660 C 0.74163 0.13450 0.67794
 C661 C 0.74301 0.14989 0.69415
 C662 C 0.75752 0.16723 0.69252
 C663 C 0.77059 0.16875 0.67425
 C664 C 0.76917 0.15335 0.65807
 C665 C 0.75337 0.12044 0.64313
 C666 C 0.75259 0.10744 0.62888
 C667 C 0.75212 0.09223 0.61159
 C668 C 0.73259 0.08728 0.60137
 C669 C 0.73240 0.07331 0.58388
 C670 C 0.75179 0.06420 0.57635
 C671 C 0.77127 0.06899 0.58699
 C672 C 0.77142 0.08292 0.60447
 H673 H 0.73040 0.12126 0.67951
 H674 H 0.73281 0.14804 0.70799
 H675 H 0.78180 0.18190 0.67226
 H676 H 0.77935 0.15485 0.64412
 H677 H 0.71756 0.09447 0.60671
 H678 H 0.71719 0.07011 0.57589
 H679 H 0.78641 0.06199 0.58176
 H680 H 0.78662 0.08662 0.61228
 C681 C 0.24593 -0.13832 0.65633
 C682 C 0.23114 -0.15524 0.65487
 C683 C 0.22962 -0.17024 0.67127
 C684 C 0.24292 -0.16856 0.68943
 C685 C 0.25769 -0.15139 0.69077
 C686 C 0.25917 -0.13639 0.67433
 C687 C 0.24756 -0.12313 0.63923
 C688 C 0.24863 -0.11071 0.62460
 C689 C 0.24951 -0.09629 0.60679
 C690 C 0.24488 -0.10398 0.58633
 C691 C 0.24504 -0.09002 0.56899
 C692 C 0.24982 -0.06813 0.57189
 C693 C 0.25473 -0.06058 0.59248
 C694 C 0.25453 -0.07459 0.60983
 H695 H 0.22084 -0.15691 0.64098
 H696 H 0.21818 -0.18326 0.66951
 H697 H 0.26807 -0.14942 0.70451
 H698 H 0.27066 -0.12333 0.67563
 H699 H 0.24103 -0.12076 0.58379
 H700 H 0.24153 -0.09638 0.55330
 H701 H 0.25825 -0.04378 0.59523
 H702 H 0.25808 -0.06847 0.62563
 C703 C 0.75476 -0.13494 0.34110
 C704 C 0.74148 -0.13322 0.32313
 C705 C 0.74302 -0.14834 0.30668
 C706 C 0.75792 -0.16541 0.30798
 C707 C 0.77117 -0.16698 0.32617
 C708 C 0.76958 -0.15185 0.34258
 C709 C 0.75334 -0.11937 0.35802
 C710 C 0.75252 -0.10652 0.37239
 C711 C 0.75204 -0.09145 0.38979
 C712 C 0.73254 -0.08676 0.40015
 C713 C 0.73235 -0.07288 0.41771
 C714 C 0.75171 -0.06360 0.42517
 C715 C 0.77114 -0.06814 0.41440
 C716 C 0.77129 -0.08198 0.39685
 H717 H 0.72996 -0.12016 0.32181
 H718 H 0.73265 -0.14647 0.29293
 H719 H 0.78267 -0.17994 0.32790
 H720 H 0.77992 -0.15336 0.35645
 H721 H 0.71756 -0.09407 0.39485
 H722 H 0.71719 -0.06986 0.42581
 H723 H 0.78624 -0.06099 0.41958
 H724 H 0.78646 -0.08547 0.38893
 C725 C 0.66381 0.76540 -0.13110
 C726 C 0.68137 0.75124 -0.13032
 C727 C 0.69752 0.75212 -0.14587
 C728 C 0.69632 0.76719 -0.16249
 C729 C 0.67864 0.78148 -0.16298
 C730 C 0.66253 0.78056 -0.14742
 C731 C 0.64683 0.76410 -0.11548
 C732 C 0.63237 0.76296 -0.10266
 C733 C 0.61478 0.76152 -0.08772
 C734 C 0.60867 0.74156 -0.07957
 C735 C 0.59091 0.73999 -0.06590
 C736 C 0.57898 0.75839 -0.06021
 C737 C 0.58549 0.77843 -0.06821
 C738 C 0.60325 0.77996 -0.08189
 H739 H 0.68252 0.73943 -0.11776
 H740 H 0.71089 0.74097 -0.14479
 H741 H 0.67701 0.79322 -0.17551
 H742 H 0.64897 0.79156 -0.14822
 H743 H 0.61749 0.72718 -0.08396
 H744 H 0.58648 0.72437 -0.05980
 H745 H 0.57648 0.79285 -0.06437
 H746 H 0.60778 0.79548 -0.08818
 C747 C 0.33401 0.23417 -0.12909
 C748 C 0.33135 0.21556 -0.14134
 C749 C 0.31503 0.21447 -0.15675
 C750 C 0.30109 0.23203 -0.16016
 C751 C 0.30380 0.25060 -0.14760
 C752 C 0.32016 0.25165 -0.13220
 C753 C 0.35128 0.23547 -0.11371
 C754 C 0.36599 0.23656 -0.10110
 C755 C 0.38384 0.23789 -0.08639
 C756 C 0.39540 0.21938 -0.08093
 C757 C 0.41337 0.22079 -0.06742
 C758 C 0.42006 0.24078 -0.05924
 C759 C 0.40813 0.25925 -0.06458
 C760 C 0.39015 0.25780 -0.07807
 H761 H 0.34199 0.20192 -0.13907
 H762 H 0.31338 0.19983 -0.16591
 H763 H 0.29355 0.26449 -0.14979
 H764 H 0.32212 0.26617 -0.12285
 H765 H 0.39072 0.20391 -0.08736
 H766 H 0.42238 0.20633 -0.06385
 H767 H 0.41270 0.27482 -0.05833
 H768 H 0.38131 0.27223 -0.08218
 C769 C 0.33440 0.76499 0.12983
 C770 C 0.32053 0.74754 0.13290
 C771 C 0.30409 0.74868 0.14815
 C772 C 0.30130 0.76733 0.16060
 C773 C 0.31525 0.78484 0.15723
 C774 C 0.33166 0.78366 0.14197
 C775 C 0.35174 0.76361 0.11459
 C776 C 0.36650 0.76248 0.10209
 C777 C 0.38442 0.76113 0.08751
 C778 C 0.39067 0.74124 0.07910
 C779 C 0.40870 0.73977 0.06573
 C780 C 0.42073 0.75821 0.06060
 C781 C 0.41409 0.77818 0.06887
 C782 C 0.39608 0.77960 0.08225
 H783 H 0.32255 0.73297 0.12364
 H784 H 0.29382 0.73482 0.15032
 H785 H 0.31354 0.79953 0.16630
 H786 H 0.34230 0.79727 0.13972
 H787 H 0.38176 0.72684 0.08305
 H788 H 0.41323 0.72422 0.05941
 H789 H 0.42317 0.79261 0.06545
 H790 H 0.39144 0.79507 0.08875
 C791 C 0.66549 0.23266 0.13042
 C792 C 0.67958 0.25000 0.13333
 C793 C 0.69607 0.24891 0.14857
 C794 C 0.69868 0.23046 0.16119
 C795 C 0.68451 0.21305 0.15798
 C796 C 0.66805 0.21417 0.14272
 C797 C 0.64809 0.23403 0.11520
 C798 C 0.63330 0.23522 0.10270
 C799 C 0.61535 0.23671 0.08812
 C800 C 0.60368 0.21830 0.08251
 C801 C 0.58564 0.21987 0.06911
 C802 C 0.57901 0.23992 0.06119
 C803 C 0.59106 0.25829 0.06668
 C804 C 0.60910 0.25668 0.08006
 H805 H 0.67770 0.26443 0.12394
 H806 H 0.70651 0.26269 0.15062
 H807 H 0.68608 0.19850 0.16719
 H808 H 0.65723 0.20065 0.14060
 H809 H 0.60831 0.20277 0.08874
 H810 H 0.57655 0.20548 0.06542
 H811 H 0.58653 0.27391 0.06062
 H812 H 0.61804 0.27104 0.08428
 C813 C -0.13616 0.66153 0.75826
 C814 C -0.13563 0.67817 0.74343
 C815 C -0.15065 0.69492 0.74463
 C816 C -0.16658 0.69534 0.76074
 C817 C -0.16682 0.67841 0.77561
 C818 C -0.15176 0.66170 0.77434
 C819 C -0.12077 0.64421 0.75700
 C820 C -0.10803 0.62956 0.75618
 C821 C -0.09304 0.61187 0.75557
 C822 C -0.08359 0.60454 0.77444
 C823 C -0.06969 0.58685 0.77411
 C824 C -0.06507 0.57619 0.75485
 C825 C -0.07438 0.58387 0.73589
 C826 C -0.08831 0.60159 0.73627
 H827 H -0.12359 0.67820 0.73090
 H828 H -0.14962 0.70742 0.73280
 H829 H -0.17858 0.67782 0.78830
 H830 H -0.15231 0.64888 0.78592
 H831 H -0.08710 0.61241 0.78946
 H832 H -0.06253 0.58150 0.78892
 H833 H -0.07132 0.57587 0.72086
 H834 H -0.09560 0.60709 0.72157
 C835 C -0.13338 0.33645 0.24108
 C836 C -0.15059 0.33748 0.22661
 C837 C -0.16538 0.32059 0.22511
 C838 C -0.16320 0.30235 0.23811
 C839 C -0.14579 0.30148 0.25260
 C840 C -0.13101 0.31841 0.25406
 C841 C -0.11823 0.35393 0.24253
 C842 C -0.10574 0.36877 0.24343
 C843 C -0.09111 0.38672 0.24406
 C844 C -0.08664 0.39720 0.26333
 C845 C -0.07317 0.41524 0.26369
 C846 C -0.06408 0.42307 0.24472
 C847 C -0.06840 0.41220 0.22550
 C848 C -0.08182 0.39417 0.22519
 H849 H -0.15259 0.35139 0.21650
 H850 H -0.17859 0.32199 0.21388
 H851 H -0.14343 0.28770 0.26275
 H852 H -0.11772 0.31742 0.26529
 H853 H -0.09380 0.39161 0.27803
 H854 H -0.07033 0.42340 0.27869
 H855 H -0.06139 0.41765 0.21069
 H856 H -0.08514 0.38617 0.21019
 C857 C 0.13384 0.33797 0.75884
 C858 C 0.14613 0.33528 0.77736
 C859 C 0.16095 0.31839 0.77888
 C860 C 0.16372 0.30390 0.76184
 C861 C 0.15122 0.30674 0.74328
 C862 C 0.13641 0.32367 0.74181
 C863 C 0.11873 0.35550 0.75734
 C864 C 0.10622 0.37032 0.75638
 C865 C 0.09150 0.38823 0.75568
 C866 C 0.08227 0.39596 0.77453
 C867 C 0.06862 0.41384 0.77412
 C868 C 0.06403 0.42429 0.75481
 C869 C 0.07311 0.41620 0.73587
 C870 C 0.08680 0.39830 0.73633
 H871 H 0.14425 0.34625 0.79066
 H872 H 0.17009 0.31669 0.79347
 H873 H 0.15295 0.29607 0.72977
 H874 H 0.12701 0.32562 0.72737
 H875 H 0.08575 0.38826 0.78959
 H876 H 0.06162 0.41948 0.78891
 H877 H 0.07007 0.42403 0.72080
 H878 H 0.09391 0.39248 0.72164
 C879 C 0.13274 0.66273 0.24002
 C880 C 0.13052 0.68091 0.25296
 C881 C 0.14553 0.69764 0.25164
 C882 C 0.16303 0.69641 0.23733
 C883 C 0.16507 0.67802 0.22439
 C884 C 0.15004 0.66133 0.22575
 C885 C 0.11732 0.64548 0.24133
 C886 C 0.10457 0.63086 0.24219
 C887 C 0.08962 0.61317 0.24286
 C888 C 0.08502 0.60304 0.26218
 C889 C 0.07123 0.58524 0.26262
 C890 C 0.06193 0.57732 0.24369
 C891 C 0.06637 0.58787 0.22442
 C892 C 0.08013 0.60565 0.22402
 H893 H 0.11716 0.68218 0.26405
 H894 H 0.14327 0.71154 0.26176
 H895 H 0.17834 0.67635 0.21331
 H896 H 0.15194 0.64730 0.21567
 H897 H 0.09233 0.60870 0.27685
 H898 H 0.06831 0.57734 0.27766
 H899 H 0.05921 0.58234 0.20963
 H900 H 0.08353 0.61340 0.20899
 C901 C 0.76404 -0.12835 0.66464
 C902 C 0.74671 -0.13036 0.67879
 C903 C 0.74742 -0.14568 0.69499
 C904 C 0.76551 -0.15926 0.69723
 C905 C 0.78295 -0.15692 0.68303
 C906 C 0.78219 -0.14159 0.66686
 C907 C 0.76299 -0.11315 0.64748
 C908 C 0.76206 -0.10072 0.63286
 C909 C 0.76085 -0.08625 0.61509
 C910 C 0.74084 -0.07793 0.60870
 C911 C 0.73948 -0.06472 0.59081
 C912 C 0.75815 -0.05966 0.57906
 C913 C 0.77826 -0.06782 0.58583
 C914 C 0.77957 -0.08105 0.60371
 H915 H 0.73253 -0.12025 0.67716
 H916 H 0.73363 -0.14705 0.70547
 H917 H 0.79723 -0.16688 0.68433
 H918 H 0.79571 -0.14017 0.65600
 H919 H 0.72625 -0.08184 0.61740
 H920 H 0.72382 -0.05845 0.58617
 H921 H 0.79287 -0.06445 0.57697
 H922 H 0.79513 -0.08749 0.60847
 C923 C 0.23441 -0.12612 0.33318
 C924 C 0.21616 -0.13923 0.33106
 C925 C 0.21522 -0.15469 0.31489
 C926 C 0.23256 -0.15728 0.30059
 C927 C 0.25073 -0.14380 0.30272
 C928 C 0.25163 -0.12836 0.31892
 C929 C 0.23571 -0.11086 0.35040
 C930 C 0.23686 -0.09842 0.36511
 C931 C 0.23832 -0.08401 0.38302
 C932 C 0.21976 -0.07880 0.39469
 C933 C 0.22135 -0.06577 0.41281
 C934 C 0.24157 -0.05783 0.41952
 C935 C 0.26008 -0.06286 0.40745
 C936 C 0.25845 -0.07587 0.38933
 H937 H 0.20272 -0.13763 0.34201
 H938 H 0.20087 -0.16456 0.31367
 H939 H 0.26445 -0.14536 0.29216
 H940 H 0.26588 -0.11835 0.32047
 H941 H 0.20412 -0.08511 0.39001
 H942 H 0.20686 -0.06243 0.42191
 H943 H 0.27583 -0.05677 0.41205
 H944 H 0.27292 -0.07980 0.38041
 C945 C 0.76462 0.12732 0.33565
 C946 C 0.78303 0.14013 0.33329
 C947 C 0.78417 0.15505 0.31678
 C948 C 0.76685 0.15742 0.30237
 C949 C 0.74852 0.14422 0.30472
 C950 C 0.74743 0.12931 0.32127
 C951 C 0.76309 0.11275 0.35330
 C952 C 0.76178 0.10096 0.36842
 C953 C 0.76014 0.08744 0.38686
 C954 C 0.76494 0.06551 0.38547
 C955 C 0.76345 0.05254 0.40354
 C956 C 0.75710 0.06136 0.42323
 C957 C 0.75233 0.08342 0.42442
 C958 C 0.75384 0.09633 0.40637
 H959 H 0.79644 0.13873 0.34434
 H960 H 0.79863 0.16470 0.31539
 H961 H 0.73482 0.14563 0.29408
 H962 H 0.73305 0.11953 0.32300
 H963 H 0.76981 0.05846 0.37043
 H964 H 0.76702 0.03558 0.40208
 H965 H 0.74774 0.09077 0.43940
 H966 H 0.75018 0.11330 0.40765
 C967 C 0.23454 0.12579 0.66676
 C968 C 0.21639 0.13909 0.66866
 C969 C 0.21545 0.15458 0.68479
 C970 C 0.23270 0.15702 0.69928
 C971 C 0.25078 0.14336 0.69737
 C972 C 0.25168 0.12789 0.68120
 C973 C 0.23583 0.11047 0.64960
 C974 C 0.23697 0.09797 0.63494
 C975 C 0.23842 0.08350 0.61709
 C976 C 0.21984 0.07827 0.60538
 C977 C 0.22142 0.06519 0.58731
 C978 C 0.24164 0.05721 0.58067
 C979 C 0.26015 0.06224 0.59278
 C980 C 0.25854 0.07531 0.61086
 H981 H 0.20303 0.13761 0.65755
 H982 H 0.20119 0.16460 0.68583
 H983 H 0.26443 0.14480 0.70808
 H984 H 0.26585 0.11773 0.67983
 H985 H 0.20420 0.08462 0.61000
 H986 H 0.20692 0.06185 0.57818
 H987 H 0.27590 0.05612 0.58823
 H988 H 0.27302 0.07924 0.61981
   
