data_POSCAR
  _audit_creation_date              2014-09-24
  _audit_creation_method            'ToBaCCo'
  _symmetry_space_group_name_H-M    'P1'
  _symmetry_Int_Tables_number       1
  _symmetry_cell_setting            triclinic
  loop_
  _symmetry_equiv_pos_as_xyz
 x,y,z
_cell_length_a 38.5613
_cell_length_b 38.9061
_cell_length_c 24.9229
_cell_angle_alpha 90.424700
_cell_angle_beta 89.755000
_cell_angle_gamma 119.241700
loop_
  _atom_site_label
  _atom_site_type_symbol
  _atom_site_fract_x
  _atom_site_fract_y
  _atom_site_fract_z
C1 C -0.12010 0.45527 0.00425
 C2 C -0.12040 0.41990 0.00698
 C3 C -0.08187 0.42775 -0.00342
 N4 N -0.05791 0.46672 -0.01081
 C5 C -0.08113 0.48370 -0.00626
 C6 C -0.06962 0.39930 -0.01247
 C7 C -0.03129 0.40723 0.00415
 C8 C -0.01326 0.38462 -0.00751
 C9 C 0.02302 0.40230 0.01810
 C10 C 0.02640 0.43546 0.04384
 N11 N -0.00684 0.43804 0.03566
 C12 C 0.05874 0.46149 0.07591
 C13 C 0.06537 0.49941 0.09060
 C14 C 0.09046 0.52240 0.13138
 C15 C 0.09084 0.55778 0.12994
 C16 C 0.06608 0.55539 0.08815
 N17 N 0.05044 0.51957 0.06421
 C18 C 0.06009 0.58681 0.07112
 C19 C 0.02816 0.58141 0.03780
 C20 C 0.02300 0.61139 0.01655
 C21 C -0.01321 0.59376 -0.00933
 C22 C -0.02901 0.55322 -0.00442
 N23 N -0.00373 0.54640 0.02554
 C24 C -0.06789 0.52343 -0.01981
 H25 H -0.14569 0.45939 0.00945
 H26 H -0.14617 0.39143 0.01408
 H27 H -0.00981 0.51961 0.04198
 H28 H -0.02455 0.35826 -0.03193
 H29 H 0.04462 0.39215 0.01735
 H30 H 0.10672 0.51449 0.15942
 H31 H 0.10741 0.58239 0.15683
 H32 H -0.02706 0.60970 -0.02572
 H33 H -0.01384 0.45788 0.05440
 H34 H 0.04243 0.64279 0.02121
 C35 C 0.53376 0.45122 -0.12400
 C36 C 0.56840 0.48633 -0.12103
 C37 C 0.56776 0.50322 -0.07225
 N38 N 0.53411 0.47943 -0.04488
 C39 C 0.51346 0.44719 -0.07622
 C40 C 0.59897 0.53922 -0.05271
 C41 C 0.59327 0.56198 -0.01323
 C42 C 0.62339 0.59515 0.01143
 C43 C 0.60520 0.61083 0.04308
 C44 C 0.56456 0.58655 0.03706
 N45 N 0.55759 0.55699 0.00252
 C46 C 0.53522 0.59359 0.06021
 C47 C 0.49463 0.56459 0.06401
 C48 C 0.46577 0.57041 0.08902
 C49 C 0.43146 0.53495 0.08805
 C50 C 0.44009 0.50835 0.06191
 N51 N 0.47897 0.52652 0.04802
 C52 C 0.41304 0.46749 0.05541
 C53 C 0.42246 0.44080 0.02869
 C54 C 0.40007 0.40012 0.03197
 C55 C 0.41803 0.38477 -0.00077
 C56 C 0.45079 0.41644 -0.02385
 N57 N 0.45305 0.45048 -0.00583
 C58 C 0.47720 0.41349 -0.06123
 H59 H 0.52451 0.43105 -0.15777
 H60 H 0.59117 0.49840 -0.15167
 H61 H 0.47218 0.47854 -0.02013
 H62 H 0.65511 0.60729 0.00625
 H63 H 0.62021 0.63733 0.06723
 H64 H 0.46920 0.59705 0.10781
 H65 H 0.40378 0.52956 0.10621
 H66 H 0.40807 0.35373 -0.00640
 H67 H 0.53041 0.53749 -0.01459
 H68 H 0.37359 0.38315 0.05574
 C69 C 0.42660 0.91039 0.09973
 C70 C 0.45908 0.90556 0.09139
 C71 C 0.48031 0.93028 0.04951
 N72 N 0.46183 0.94992 0.03183
 C73 C 0.42889 0.93767 0.06242
 C74 C 0.51403 0.93150 0.02529
 C75 C 0.53903 0.96129 -0.01075
 C76 C 0.56798 0.96020 -0.04271
 C77 C 0.58634 0.99529 -0.07026
 C78 C 0.56789 1.01671 -0.05448
 N79 N 0.53949 0.99595 -0.01774
 C80 C 0.57918 1.05555 -0.07055
 C81 C 0.55425 1.07240 -0.06180
 C82 C 0.56561 1.11208 -0.06571
 C83 C 0.53199 1.11508 -0.05902
 C84 C 0.50057 1.07708 -0.05420
 N85 N 0.51436 1.05106 -0.05472
 C86 C 0.45965 1.06650 -0.05398
 C87 C 0.43072 1.03133 -0.02922
 C88 C 0.38972 1.01551 -0.03324
 C89 C 0.37263 0.98218 -0.00222
 C90 C 0.40347 0.97809 0.01911
 N91 N 0.43872 1.00829 0.00310
 C92 C 0.39856 0.94729 0.05306
 H93 H 0.40341 0.89483 0.12904
 H94 H 0.46599 0.88569 0.11317
 H95 H 0.46662 1.01450 0.01697
 H96 H 0.57531 0.93671 -0.04564
 H97 H 0.61072 1.00410 -0.09823
 H98 H 0.59466 1.13684 -0.07289
 H99 H 0.53076 1.14229 -0.05905
 H100 H 0.34107 0.96272 0.00310
 H101 H 0.52403 1.00652 0.00511
 H102 H 0.37342 1.02625 -0.05651
 C103 C 1.08182 0.55880 0.37665
 C104 C 1.08192 0.52366 0.37510
 C105 C 1.06998 0.50697 0.42543
 N106 N 1.06198 0.53041 0.45754
 C107 C 1.07005 0.56257 0.42801
 C108 C 1.06877 0.47168 0.44223
 C109 C 1.03863 0.44581 0.47792
 C110 C 1.03676 0.41294 0.50230
 C111 C 1.00201 0.39543 0.53169
 C112 C 0.98375 0.41819 0.52494
 N113 N 1.00610 0.44860 0.49186
 C114 C 0.94686 0.41016 0.54773
 C115 C 0.93405 0.43869 0.54882
 C116 C 0.89571 0.43104 0.56017
 C117 C 0.89731 0.46677 0.56655
 C118 C 0.93627 0.49530 0.55656
 N119 N 0.95866 0.47800 0.54590
 C120 C 0.95198 0.53642 0.56298
 C121 C 0.98924 0.56402 0.54204
 C122 C 1.00908 0.60400 0.55400
 C123 C 1.04181 0.62102 0.52096
 C124 C 1.04094 0.59093 0.48972
 N125 N 1.00887 0.55636 0.50289
 C126 C 1.06775 0.59562 0.44802
 H127 H 1.08906 0.57897 0.34348
 H128 H 1.08962 0.51153 0.34077
 H129 H 0.99864 0.52990 0.48195
 H130 H 1.05813 0.40258 0.49966
 H131 H 0.99162 0.36915 0.55572
 H132 H 0.86937 0.40265 0.56499
 H133 H 0.87237 0.47065 0.57782
 H134 H 1.06355 0.65203 0.51996
 H135 H 0.99803 0.46837 0.47602
 H136 H 1.00047 0.61949 0.58266
 C137 C 0.46026 0.53220 0.36097
 C138 C 0.49626 0.56594 0.35701
 C139 C 0.51689 0.56886 0.40380
 N140 N 0.49483 0.53783 0.43598
 C141 C 0.46008 0.51551 0.40996
 C142 C 0.55402 0.60135 0.41828
 C143 C 0.57905 0.59850 0.45720
 C144 C 0.61241 0.63003 0.47965
 C145 C 0.62928 0.61442 0.51353
 C146 C 0.60574 0.57383 0.51077
 N147 N 0.57549 0.56444 0.47598
 C148 C 0.61285 0.54630 0.53842
 C149 C 0.58372 0.50607 0.54103
 C150 C 0.59078 0.47562 0.55518
 C151 C 0.55433 0.44292 0.56181
 C152 C 0.52631 0.45428 0.55015
 N153 N 0.54425 0.49282 0.53732
 C154 C 0.48515 0.43067 0.55814
 C155 C 0.45705 0.43800 0.53211
 C156 C 0.41675 0.42003 0.54357
 C157 C 0.40018 0.43437 0.50716
 C158 C 0.43100 0.46104 0.47521
 N159 N 0.46536 0.46268 0.49024
 C160 C 0.42707 0.48207 0.43207
 H161 H 0.43683 0.52131 0.33125
 H162 H 0.50604 0.58610 0.32355
 H163 H 0.49233 0.47723 0.46989
 H164 H 0.62348 0.66106 0.47244
 H165 H 0.65575 0.63106 0.53747
 H166 H 0.61920 0.47705 0.56160
 H167 H 0.54893 0.41416 0.57447
 H168 H 0.36911 0.42638 0.50482
 H169 H 0.55566 0.53633 0.46191
 H170 H 0.40086 0.39876 0.57466
 C171 C 0.46239 -0.05862 0.36918
 C172 C 0.49953 -0.05498 0.37018
 C173 C 0.51146 -0.04905 0.42343
 N174 N 0.48331 -0.04817 0.45496
 C175 C 0.45302 -0.05474 0.42182
 C176 C 0.54653 -0.04752 0.44317
 C177 C 0.56644 -0.02331 0.48782
 C178 C 0.59797 -0.02271 0.51524
 C179 C 0.60927 0.00608 0.55414
 C180 C 0.58400 0.02188 0.54992
 N181 N 0.55826 0.00404 0.50919
 C182 C 0.58690 0.05374 0.58081
 C183 C 0.55599 0.06351 0.58512
 C184 C 0.55829 0.09471 0.61515
 C185 C 0.52178 0.09243 0.61239
 C186 C 0.49796 0.05982 0.58086
 N187 N 0.51886 0.04191 0.56480
 C188 C 0.45677 0.04526 0.57171
 C189 C 0.43285 0.01096 0.54122
 C190 C 0.39168 -0.01027 0.54310
 C191 C 0.37988 -0.04048 0.50622
 C192 C 0.41417 -0.03641 0.48196
 N193 N 0.44623 -0.00491 0.50359
 C194 C 0.41586 -0.06003 0.43950
 H195 H 0.44415 -0.06382 0.33391
 H196 H 0.51583 -0.05682 0.33584
 H197 H 0.47533 0.00734 0.48975
 H198 H 0.61160 -0.04092 0.50820
 H199 H 0.63339 0.01437 0.58231
 H200 H 0.58318 0.11633 0.63827
 H201 H 0.51358 0.11193 0.63311
 H202 H 0.34945 -0.06263 0.49837
 H203 H 0.53882 0.01267 0.49331
 H204 H 0.37212 -0.00480 0.56865
 O205 O 0.24934 0.41189 0.30593
 O206 O 0.17615 0.40378 0.20334
 O207 O 0.24367 0.40191 0.20222
 O208 O 0.17960 0.40939 0.30731
 O209 O 0.21168 0.47405 0.29866
 O210 O 0.27441 0.46655 0.19292
 O211 O 0.20854 0.46852 0.19543
 O212 O 0.28039 0.47647 0.29641
 Cu213 Cu 0.20906 0.40020 0.25562
 Cu214 Cu 0.24700 0.47779 0.24521
 C215 C 0.27767 0.44586 0.31809
 C216 C 0.17990 0.43515 0.18238
 C217 C 0.26987 0.43299 0.17963
 C218 C 0.18435 0.44304 0.32023
 O219 O 0.57239 0.82564 0.28965
 O220 O 0.59147 0.76626 0.18850
 O221 O 0.59523 0.83632 0.18941
 O222 O 0.57266 0.75837 0.28900
 O223 O 0.50945 0.72918 0.26513
 O224 O 0.53210 0.80651 0.16544
 O225 O 0.52835 0.73797 0.16463
 O226 O 0.50937 0.79543 0.26477
 Cu227 Cu 0.58944 0.79981 0.24126
 Cu228 Cu 0.51363 0.76446 0.21240
 C229 C 0.53716 0.82017 0.29423
 C230 C 0.56262 0.74131 0.16023
 C231 C 0.56735 0.83496 0.16098
 C232 C 0.53723 0.73035 0.29363
 O233 O 0.23700 0.82727 0.20062
 O234 O 0.18871 0.75035 0.30469
 O235 O 0.24751 0.82347 0.30307
 O236 O 0.17471 0.75595 0.20406
 O237 O 0.21445 0.73165 0.18480
 O238 O 0.28756 0.79992 0.28187
 O239 O 0.22987 0.72785 0.28459
 O240 O 0.27535 0.80165 0.17987
 Cu241 Cu 0.20794 0.79168 0.25513
 Cu242 Cu 0.25585 0.76303 0.23075
 C243 C 0.26460 0.82727 0.17249
 C244 C 0.20113 0.72579 0.31175
 C245 C 0.28013 0.82341 0.30897
 C246 C 0.18187 0.73185 0.17826
 O247 O 0.81762 0.55902 0.70270
 O248 O 0.75585 0.55409 0.81936
 O249 O 0.82632 0.55967 0.80717
 O250 O 0.75010 0.55874 0.71637
 O251 O 0.71806 0.49368 0.71907
 O252 O 0.79762 0.49486 0.80112
 O253 O 0.72924 0.48926 0.81934
 O254 O 0.78431 0.49405 0.69745
 Cu255 Cu 0.79082 0.56451 0.76175
 Cu256 Cu 0.75470 0.48651 0.75859
 C257 C 0.81055 0.52700 0.67961
 C258 C 0.73177 0.52055 0.83878
 C259 C 0.82494 0.52738 0.81946
 C260 C 0.72032 0.52583 0.70399
 O261 O 0.40491 0.23993 0.68726
 O262 O 0.43028 0.18513 0.78607
 O263 O 0.41859 0.24659 0.79120
 O264 O 0.41962 0.18046 0.68343
 O265 O 0.48240 0.22369 0.66686
 O266 O 0.48329 0.28422 0.78065
 O267 O 0.49401 0.22369 0.76832
 O268 O 0.46893 0.28235 0.67941
 Cu269 Cu 0.41177 0.20905 0.73843
 Cu270 Cu 0.48847 0.25762 0.72252
 C271 C 0.43297 0.27130 0.66776
 C272 C 0.46650 0.19425 0.79209
 C273 C 0.45121 0.27660 0.80457
 C274 C 0.45158 0.19108 0.65708
 O275 O 0.80462 0.26633 0.81383
 O276 O 0.74584 0.20001 0.70224
 O277 O 0.81335 0.26798 0.71014
 O278 O 0.74130 0.19655 0.80680
 O279 O 0.70619 0.22747 0.80312
 O280 O 0.77838 0.29910 0.70905
 O281 O 0.71198 0.23212 0.69735
 O282 O 0.76759 0.29526 0.80949
 Cu283 Cu 0.77974 0.22945 0.75828
 Cu284 Cu 0.73697 0.26591 0.75348
 C285 C 0.79600 0.29239 0.83004
 C286 C 0.71872 0.20507 0.68107
 C287 C 0.80890 0.29677 0.69525
 C288 C 0.71196 0.20047 0.82210
 C289 C 0.08660 0.44827 0.09546
 C290 C 0.12584 0.47048 0.08792
 C291 C 0.15633 0.46532 0.11665
 C292 C 0.14974 0.43333 0.14457
 H293 H 0.13662 0.49715 0.06452
 H294 H 0.18568 0.49099 0.11731
 H295 H 0.07438 0.42116 0.11794
 H296 H 0.12146 0.40648 0.14254
 C297 C 0.54797 0.63307 0.08363
 C298 C 0.53684 0.65721 0.06090
 C299 C 0.53995 0.69229 0.08819
 C300 C 0.56789 0.71395 0.12442
 H301 H 0.51924 0.64769 0.02451
 H302 H 0.51643 0.69909 0.07968
 H303 H 0.56411 0.64072 0.12118
 H304 H 0.59309 0.70936 0.13086
 C305 C 0.35892 0.92151 0.07677
 C306 C 0.33815 0.88383 0.06102
 C307 C 0.30681 0.85253 0.09353
 C308 C 0.28607 0.85824 0.13250
 H309 H 0.34925 0.87409 0.02748
 H310 H 0.30302 0.82329 0.08726
 H311 H 0.34993 0.93246 0.11109
 H312 H 0.28703 0.88635 0.13750
 C313 C 0.93086 0.55126 0.59774
 C314 C 0.89488 0.54580 0.58576
 C315 C 0.87161 0.55294 0.62665
 C316 C 0.83310 0.52716 0.63210
 H317 H 0.88068 0.53127 0.54850
 H318 H 0.88682 0.57558 0.65687
 H319 H 0.94488 0.56554 0.63520
 H320 H 0.81914 0.50226 0.60474
 C321 C 0.47333 0.40085 0.60083
 C322 C 0.44790 0.36255 0.59394
 C323 C 0.44851 0.33508 0.63361
 C324 C 0.42455 0.29616 0.63191
 H325 H 0.43058 0.35165 0.55749
 H326 H 0.47146 0.34717 0.66423
 H327 H 0.49127 0.41031 0.63701
 H328 H 0.39986 0.28292 0.60410
 C329 C 0.62388 0.07720 0.61205
 C330 C 0.64796 0.11513 0.60105
 C331 C 0.68065 0.14060 0.63728
 C332 C 0.69361 0.17928 0.63789
 H333 H 0.64073 0.12840 0.56785
 H334 H 0.69071 0.12752 0.66745
 H335 H 0.63045 0.06336 0.64511
 H336 H 0.68075 0.19145 0.61040
 C337 C 0.44671 0.09096 0.92102
 C338 C 0.46563 0.11439 0.87943
 C339 C 0.45213 0.13985 0.85444
 C340 C 0.47768 0.16986 0.82432
 H341 H 0.49127 0.11435 0.86163
 H342 H 0.42180 0.13391 0.85992
 H343 H 0.41907 0.08937 0.93367
 H344 H 0.50828 0.17606 0.82134
 C345 C 0.63917 0.55442 0.92390
 C346 C 0.65670 0.53216 0.92299
 C347 C 0.69274 0.54321 0.89119
 C348 C 0.70440 0.51655 0.88229
 H349 H 0.64197 0.50349 0.94201
 H350 H 0.70659 0.57095 0.86984
 H351 H 0.65381 0.58360 0.90651
 H352 H 0.68889 0.48818 0.90197
 C353 C 0.90530 0.36363 0.95982
 C354 C 0.87644 0.35996 0.92658
 C355 C 0.85162 0.32428 0.89488
 C356 C 0.81957 0.32169 0.87087
 H357 H 0.87199 0.38490 0.91917
 H358 H 0.86032 0.30191 0.88901
 H359 H 0.91097 0.33905 0.96208
 H360 H 0.81138 0.34427 0.87884
 C361 C 0.56195 0.92997 0.41790
 C362 C 0.53832 0.89586 0.39260
 C363 C 0.55325 0.87379 0.36073
 C364 C 0.52692 0.84233 0.33300
 H365 H 0.50636 0.88371 0.39453
 H366 H 0.58486 0.88425 0.35729
 H367 H 0.59331 0.93924 0.42101
 H368 H 0.49556 0.83332 0.33638
 C369 C 0.38679 0.46864 0.40962
 C370 C 0.37301 0.49398 0.40294
 C371 C 0.33679 0.48556 0.37283
 C372 C 0.30872 0.44986 0.35604
 H373 H 0.39128 0.52421 0.41614
 H374 H 0.33441 0.51125 0.36200
 H375 H 0.36920 0.43798 0.39833
 H376 H 0.30926 0.42346 0.36793
 C377 C 0.09075 0.63354 0.42551
 C378 C 0.12638 0.64577 0.40281
 C379 C 0.14725 0.68340 0.37396
 C380 C 0.18179 0.69319 0.34987
 H381 H 0.14032 0.62744 0.40444
 H382 H 0.13310 0.70136 0.36895
 H383 H 0.07998 0.65452 0.42864
 H384 H 0.19501 0.67436 0.35464
 C385 C 0.90551 0.53099 0.94985
 C386 C 0.91623 0.55734 0.90989
 C387 C 0.88671 0.55915 0.87377
 C388 C 0.85454 0.52660 0.85598
 H389 H 0.94709 0.57660 0.90018
 H390 H 0.89325 0.58772 0.85867
 H391 H 0.87406 0.51062 0.95347
 H392 H 0.84980 0.49788 0.86777
 C393 C 0.46644 0.37615 0.91516
 C394 C 0.49367 0.36556 0.90105
 C395 C 0.48679 0.33120 0.86769
 C396 C 0.45202 0.30405 0.84664
 H397 H 0.52444 0.38449 0.91219
 H398 H 0.51355 0.33023 0.85683
 H399 H 0.43530 0.35498 0.91035
 H400 H 0.42443 0.30313 0.85767
 C401 C 0.61551 0.07698 0.89589
 C402 C 0.64525 0.11251 0.90918
 C403 C 0.67552 0.13699 0.86947
 C404 C 0.68448 0.17455 0.86342
 H405 H 0.64470 0.12562 0.94746
 H406 H 0.68753 0.12362 0.84220
 H407 H 0.61640 0.06396 0.85766
 H408 H 0.66913 0.18620 0.88767
 C409 C 0.09687 0.46133 0.42146
 C410 C 0.13342 0.48863 0.40515
 C411 C 0.16251 0.48116 0.37583
 C412 C 0.15662 0.44598 0.35866
 H413 H 0.14311 0.51953 0.41200
 H414 H 0.18963 0.50736 0.36441
 H415 H 0.08923 0.43067 0.42057
 H416 H 0.13015 0.41914 0.36971
 C417 C 0.56765 0.63994 0.39148
 C418 C 0.54308 0.65451 0.38311
 C419 C 0.55518 0.69027 0.35119
 C420 C 0.52762 0.69808 0.33141
 H421 H 0.51267 0.63847 0.39742
 H422 H 0.58622 0.70859 0.34070
 H423 H 0.59840 0.65659 0.37878
 H424 H 0.49649 0.67830 0.33993
 C425 C 0.38036 0.91169 0.41379
 C426 C 0.37745 0.87944 0.38902
 C427 C 0.34337 0.85027 0.35722
 C428 C 0.31008 0.85170 0.34661
 H429 H 0.40190 0.87327 0.39145
 H430 H 0.34726 0.82684 0.33955
 H431 H 0.35427 0.91511 0.41637
 H432 H 0.30491 0.87434 0.36397
 C433 C 0.52030 0.89750 0.03564
 C434 C 0.55109 0.90087 0.06407
 C435 C 0.54828 0.86561 0.08985
 C436 C 0.57556 0.86789 0.12475
 H437 H 0.57552 0.92979 0.07390
 H438 H 0.52124 0.83774 0.08427
 H439 H 0.49508 0.86844 0.02885
 H440 H 0.60297 0.89541 0.13003
 C441 C 0.37372 0.45131 0.08234
 C442 C 0.34750 0.46271 0.06771
 C443 C 0.31495 0.45896 0.10286
 C444 C 0.29637 0.43038 0.13903
 H445 H 0.35433 0.48183 0.03329
 H446 H 0.30713 0.48210 0.09983
 H447 H 0.36871 0.43350 0.11771
 H448 H 0.30145 0.40537 0.14000
 C449 C 0.08808 0.62724 0.09061
 C450 C 0.12745 0.64247 0.08440
 C451 C 0.15811 0.67780 0.11255
 C452 C 0.15113 0.70256 0.14248
 H453 H 0.13820 0.62569 0.06172
 H454 H 0.18795 0.68182 0.11096
 H455 H 0.07574 0.64312 0.11183
 H456 H 0.12201 0.70018 0.14356
 C457 C 0.43715 0.06551 0.59851
 C458 C 0.44704 0.10252 0.58585
 C459 C 0.43469 0.12608 0.61933
 C460 C 0.45458 0.16537 0.61597
 H461 H 0.46816 0.11693 0.55363
 H462 H 0.41288 0.11187 0.65082
 H463 H 0.41611 0.05050 0.63052
 H464 H 0.47825 0.17920 0.58666
 C465 C 0.65123 0.56013 0.56759
 C466 C 0.65190 0.54658 0.61663
 C467 C 0.68857 0.55250 0.64286
 C468 C 0.68657 0.52382 0.67423
 H469 H 0.62399 0.52712 0.63628
 H470 H 0.71667 0.57875 0.63514
 H471 H 0.67881 0.58046 0.54803
 H472 H 0.65850 0.49670 0.67782
 C473 C 0.92134 0.37085 0.57302
 C474 C 0.90281 0.36775 0.61980
 C475 C 0.87134 0.33014 0.64132
 C476 C 0.84012 0.32999 0.66524
 H477 H 0.90821 0.39437 0.64093
 H478 H 0.87358 0.30353 0.63782
 H479 H 0.91703 0.34449 0.55226
 H480 H 0.83793 0.35677 0.66477
   
