data_POSCAR
  _audit_creation_date              2014-09-24
  _audit_creation_method            'ToBaCCo'
  _symmetry_space_group_name_H-M    'P1'
  _symmetry_Int_Tables_number       1
  _symmetry_cell_setting            triclinic
  loop_
  _symmetry_equiv_pos_as_xyz
 x,y,z
_cell_length_a 23.0259
_cell_length_b 23.0260
_cell_length_c 58.9239
_cell_angle_alpha 91.553100
_cell_angle_beta 88.446700
_cell_angle_gamma 118.946400
loop_
  _atom_site_label
  _atom_site_type_symbol
  _atom_site_fract_x
  _atom_site_fract_y
  _atom_site_fract_z
Si1 Si 0.00127 -0.01473 0.49750
 Si2 Si 0.98526 0.00127 0.16916
 Si3 Si 0.01704 1.01705 0.83333
 O4 O 0.58183 0.06192 -0.02097
 O5 O 0.46391 0.05714 0.02408
 O6 O 0.58121 0.06575 0.02320
 O7 O 0.47222 0.06958 -0.01992
 O8 O 0.41811 -0.03997 -0.02192
 O9 O 0.53001 -0.04383 0.02145
 O10 O 0.41262 -0.05241 0.02205
 O11 O 0.52757 -0.04767 -0.02271
 Cu12 Cu 0.52993 0.07441 0.00177
 Cu13 Cu 0.46683 -0.05678 -0.00046
 C14 C 0.57445 0.00726 -0.02940
 C15 C 0.41804 0.00093 0.03066
 C16 C 0.57496 0.01093 0.02960
 C17 C 0.42657 0.01612 -0.02823
 O18 O -0.04384 0.53001 0.64521
 O19 O -0.03998 0.41812 0.68858
 O20 O -0.04768 0.52758 0.68937
 O21 O -0.05241 0.41262 0.64461
 O22 O 0.05714 0.46391 0.64258
 O23 O 0.06191 0.58184 0.68763
 O24 O 0.06958 0.47222 0.68657
 O25 O 0.06575 0.58122 0.64346
 Cu26 Cu -0.05679 0.46684 0.66712
 Cu27 Cu 0.07441 0.52993 0.66489
 C28 C 0.01093 0.57497 0.63706
 C29 C 0.01611 0.42658 0.69489
 C30 C 0.00726 0.57446 0.69606
 C31 C 0.00093 0.41804 0.63599
 O32 O 0.51936 0.57526 0.31317
 O33 O 0.41094 0.45754 0.35714
 O34 O 0.51795 0.57320 0.35729
 O35 O 0.40357 0.46808 0.31348
 O36 O 0.45754 0.41095 0.30952
 O37 O 0.57525 0.51936 0.35349
 O38 O 0.46807 0.40357 0.35318
 O39 O 0.57320 0.51795 0.30937
 Cu40 Cu 0.45740 0.52392 0.33563
 Cu41 Cu 0.52392 0.45741 0.33102
 C42 C 0.56510 0.56631 0.30389
 C43 C 0.42157 0.41036 0.36258
 C44 C 0.56630 0.56510 0.36277
 C45 C 0.41035 0.42158 0.30408
 N46 N 0.01782 0.15641 0.52279
 C47 C -0.02434 0.13739 0.54093
 N48 N -0.06316 0.07166 0.54492
 N49 N -0.05902 0.02639 0.53137
 C50 C -0.01601 0.04553 0.51341
 N51 N 0.02197 0.11123 0.50930
 C52 C -0.02291 0.18643 0.55680
 C53 C -0.01923 0.22827 0.57033
 C54 C -0.01370 0.27799 0.58667
 N55 N -0.06896 0.27595 0.59608
 N56 N -0.06392 0.32106 0.61166
 C57 C -0.00350 0.36975 0.61839
 N58 N 0.05186 0.37182 0.60891
 N59 N 0.04680 0.32662 0.59331
 N60 N 0.83595 0.89629 0.21282
 C61 C 0.83601 0.83783 0.21454
 N62 N 0.88209 0.82823 0.20261
 N63 N 0.92666 0.87580 0.18931
 C64 C 0.92641 0.93434 0.18763
 N65 N 0.88036 0.94368 0.19957
 C66 C 0.78791 0.78747 0.22901
 C67 C 0.74700 0.74682 0.24152
 C68 C 0.69867 0.69956 0.25678
 N69 N 0.70247 0.64495 0.26251
 N70 N 0.65914 0.60222 0.27730
 C71 C 0.61053 0.61257 0.28689
 N72 N 0.60662 0.66721 0.28107
 N73 N 0.65004 0.71002 0.26625
 N74 N 0.11521 0.03384 -0.11110
 C75 C 0.17457 0.04269 -0.11918
 N76 N 0.18733 0.04925 -0.14185
 N77 N 0.14153 0.04566 -0.15603
 C78 C 0.08161 0.03556 -0.14799
 N79 N 0.06946 0.03021 -0.12527
 C80 C 0.22090 0.03974 -0.10408
 C81 C 0.25841 0.03552 -0.09118
 C82 C 0.30222 0.03006 -0.07556
 N83 N 0.35321 0.08543 -0.06655
 N84 N 0.39295 0.08060 -0.05162
 C85 C 0.38313 0.02027 -0.04515
 N86 N 0.33207 -0.03521 -0.05423
 N87 N 0.29225 -0.03035 -0.06920
 N88 N -0.03733 0.85328 0.54649
 C89 C 0.01791 0.84668 0.54712
 N90 N 0.07013 0.88397 0.53315
 N91 N 0.06685 0.92627 0.51886
 C92 C 0.01128 0.93255 0.51822
 N93 N -0.04060 0.89540 0.53225
 C94 C 0.01960 0.79939 0.56208
 C95 C 0.01855 0.75884 0.57484
 C96 C 0.01613 0.71053 0.59027
 N97 N 0.07298 0.71309 0.59714
 N98 N 0.07091 0.66929 0.61188
 C99 C 0.01198 0.62142 0.62027
 N100 N -0.04499 0.61881 0.61331
 N101 N -0.04290 0.66269 0.59855
 N102 N 0.12749 0.17911 0.19173
 C103 C 0.12362 0.17188 0.21459
 N104 N 0.07385 0.11587 0.22367
 N105 N 0.03020 0.06787 0.21030
 C106 C 0.03463 0.07442 0.18742
 N107 N 0.08372 0.13105 0.17835
 C108 C 0.17498 0.21946 0.22889
 C109 C 0.21830 0.25729 0.24131
 C110 C 0.26924 0.30074 0.25659
 N111 N 0.31918 0.28845 0.26199
 N112 N 0.36488 0.32727 0.27694
 C113 C 0.36196 0.37958 0.28700
 N114 N 0.31200 0.39177 0.28148
 N115 N 0.26640 0.35302 0.26655
 N116 N 0.86907 -0.04347 -0.11958
 C117 C 0.84289 -0.00275 -0.12285
 N118 N 0.86647 0.04064 -0.14017
 N119 N 0.91543 0.04399 -0.15358
 C120 C 0.94239 0.00406 -0.15017
 N121 N 0.91809 -0.04012 -0.13303
 C122 C 0.79408 -0.00216 -0.10732
 C123 C 0.75424 -0.00015 -0.09408
 C124 C 0.70744 0.00241 -0.07806
 N125 N 0.71631 0.06142 -0.06947
 N126 N 0.67365 0.06343 -0.05412
 C127 C 0.62075 0.00641 -0.04686
 N128 N 0.61203 -0.05246 -0.05556
 N129 N 0.65460 -0.05446 -0.07089
 N130 N 0.15640 0.01782 0.14386
 C131 C 0.13739 -0.02434 0.12573
 N132 N 0.07166 -0.06315 0.12174
 N133 N 0.02639 -0.05901 0.13529
 C134 C 0.04552 -0.01600 0.15325
 N135 N 0.11122 0.02198 0.15736
 C136 C 0.18643 -0.02290 0.10986
 C137 C 0.22826 -0.01923 0.09633
 C138 C 0.27798 -0.01370 0.07998
 N139 N 0.27594 -0.06896 0.07058
 N140 N 0.32106 -0.06392 0.05500
 C141 C 0.36975 -0.00350 0.04826
 N142 N 0.37181 0.05186 0.05775
 N143 N 0.32661 0.04680 0.07335
 N144 N 0.89629 0.83596 0.45384
 C145 C 0.83782 0.83602 0.45212
 N146 N 0.82822 0.88209 0.46405
 N147 N 0.87579 0.92666 0.47735
 C148 C 0.93434 0.92642 0.47903
 N149 N 0.94368 0.88037 0.46709
 C150 C 0.78746 0.78791 0.43765
 C151 C 0.74681 0.74700 0.42514
 C152 C 0.69955 0.69868 0.40987
 N153 N 0.64494 0.70247 0.40415
 N154 N 0.60221 0.65915 0.38936
 C155 C 0.61256 0.61054 0.37977
 N156 N 0.66721 0.60663 0.38559
 N157 N 0.71002 0.65005 0.40041
 N158 N 0.04924 0.18733 0.80850
 C159 C 0.04268 0.17457 0.78584
 N160 N 0.03384 0.11522 0.77775
 N161 N 0.03022 0.06946 0.79193
 C162 C 0.03556 0.08161 0.81465
 N163 N 0.04565 0.14153 0.82269
 C164 C 0.03974 0.22090 0.77073
 C165 C 0.03552 0.25841 0.75784
 C166 C 0.03005 0.30222 0.74222
 N167 N 0.08542 0.35321 0.73321
 N168 N 0.08059 0.39296 0.71827
 C169 C 0.02027 0.38313 0.71181
 N170 N -0.03522 0.33208 0.72089
 N171 N -0.03036 0.29225 0.73586
 N172 N 0.85327 -0.03732 0.12017
 C173 C 0.84667 0.01791 0.11954
 N174 N 0.88396 0.07014 0.13351
 N175 N 0.92627 0.06686 0.14780
 C176 C 0.93255 0.01128 0.14844
 N177 N 0.89539 -0.04059 0.13441
 C178 C 0.79939 0.01960 0.10458
 C179 C 0.75884 0.01855 0.09182
 C180 C 0.71053 0.01613 0.07639
 N181 N 0.71309 0.07298 0.06952
 N182 N 0.66929 0.07091 0.05478
 C183 C 0.62142 0.01198 0.04639
 N184 N 0.61881 -0.04499 0.05334
 N185 N 0.66269 -0.04290 0.06811
 N186 N 0.11587 0.07385 0.44299
 C187 C 0.17187 0.12363 0.45207
 N188 N 0.17910 0.12750 0.47493
 N189 N 0.13104 0.08373 0.48831
 C190 C 0.07441 0.03463 0.47924
 N191 N 0.06787 0.03020 0.45636
 C192 C 0.21946 0.17498 0.43777
 C193 C 0.25728 0.21831 0.42535
 C194 C 0.30073 0.26925 0.41007
 N195 N 0.35301 0.26641 0.40011
 N196 N 0.39176 0.31201 0.38518
 C197 C 0.37957 0.36197 0.37966
 N198 N 0.32727 0.36489 0.38972
 N199 N 0.28845 0.31919 0.40467
 N200 N 0.04063 0.86648 0.80682
 C201 C -0.00276 0.84289 0.78951
 N202 N -0.04347 0.86907 0.78623
 N203 N -0.04012 0.91809 0.79969
 C204 C 0.00406 0.94239 0.81682
 N205 N 0.04399 0.91543 0.82023
 C206 C -0.00217 0.79408 0.77398
 C207 C -0.00015 0.75424 0.76073
 C208 C 0.00241 0.70744 0.74471
 N209 N -0.05446 0.65460 0.73754
 N210 N -0.05247 0.61203 0.72221
 C211 C 0.00641 0.62076 0.71352
 N212 N 0.06343 0.67366 0.72077
 N213 N 0.06141 0.71632 0.73613
   
