data_POSCAR
  _audit_creation_date              2014-09-24
  _audit_creation_method            'ToBaCCo'
  _symmetry_space_group_name_H-M    'P1'
  _symmetry_Int_Tables_number       1
  _symmetry_cell_setting            triclinic
  loop_
  _symmetry_equiv_pos_as_xyz
 x,y,z
_cell_length_a 22.8378
_cell_length_b 22.4140
_cell_length_c 31.1336
_cell_angle_alpha 87.794200
_cell_angle_beta 93.013600
_cell_angle_gamma 97.569300
loop_
  _atom_site_label
  _atom_site_type_symbol
  _atom_site_fract_x
  _atom_site_fract_y
  _atom_site_fract_z
C1 C -0.00159 0.37700 0.95541
 C2 C -0.00685 0.34173 0.99346
 C3 C -0.01138 0.36633 1.03385
 C4 C -0.01309 0.42954 1.03557
 C5 C -0.00910 0.46611 0.99709
 C6 C -0.00327 0.43972 0.95698
 C7 C 0.00187 0.47695 0.91963
 C8 C 0.00011 0.53864 0.92124
 C9 C -0.00651 0.56575 0.96031
 C10 C -0.01000 0.52954 0.99878
 C11 C -0.01683 0.45782 1.07476
 C12 C -0.01816 0.51932 1.07630
 C13 C -0.01358 0.55668 1.03899
 C14 C -0.01428 0.62000 1.04063
 C15 C -0.01173 0.65432 1.00186
 C16 C -0.00773 0.62849 0.96224
 H17 H 0.00786 0.45897 0.88866
 H18 H 0.00469 0.56496 0.89148
 H19 H -0.01817 0.43363 1.10535
 H20 H -0.02356 0.53649 1.10756
 H21 H -0.01126 0.29340 0.99065
 H22 H -0.00929 0.70291 1.00223
 C23 C 0.38372 0.03081 0.53901
 C24 C 0.35068 0.01909 0.50031
 C25 C 0.37748 0.01741 0.46106
 C26 C 0.43987 0.02672 0.46012
 C27 C 0.47447 0.03701 0.49897
 C28 C 0.44629 0.03956 0.53845
 C29 C 0.48155 0.05075 0.57636
 C30 C 0.54269 0.05557 0.57619
 C31 C 0.57151 0.05148 0.53789
 C32 C 0.53739 0.04342 0.49856
 C33 C 0.46853 0.02338 0.42167
 C34 C 0.52995 0.02927 0.42121
 C35 C 0.56578 0.03947 0.45920
 C36 C 0.62869 0.04264 0.45960
 C37 C 0.66078 0.05143 0.49922
 C38 C 0.63350 0.05392 0.53812
 H39 H 0.46264 0.05561 0.60690
 H40 H 0.56693 0.06227 0.60676
 H41 H 0.44362 0.01467 0.39153
 H42 H 0.54828 0.02406 0.39056
 H43 H 0.30294 0.01017 0.50045
 H44 H 0.70863 0.05885 0.50020
 C45 C 0.10459 0.03462 0.28495
 H46 H 0.09593 0.07177 0.26353
 C47 C 0.15824 0.03814 0.30912
 H48 H 0.19001 0.07830 0.30619
 C49 C 0.07413 -0.06223 0.31517
 H50 H 0.04188 -0.10190 0.31691
 C51 C 0.12712 -0.06064 0.33988
 H52 H 0.13290 -0.09855 0.36142
 N53 N 0.06331 -0.01472 0.28877
 C54 C -0.08173 -0.10293 0.20827
 H55 H -0.11537 -0.07504 0.21452
 C56 C -0.09356 -0.14796 0.17818
 H57 H -0.13676 -0.15511 0.16171
 C58 C 0.01720 -0.12374 0.21929
 H59 H 0.06114 -0.11188 0.23358
 C60 C 0.00710 -0.16966 0.18966
 H61 H 0.04368 -0.19277 0.18188
 Zn62 Zn -0.01076 -0.01794 0.25678
 N63 N -0.02671 -0.09074 0.22727
 C64 C -0.00239 0.02999 0.17278
 N65 N -0.00666 0.04569 0.21418
 C66 C -0.00487 0.10449 0.22436
 C67 C 0.00038 0.14991 0.19207
 C68 C 0.00348 0.07368 0.13981
 C69 C -0.08017 -0.05765 0.32624
 C70 C -0.12338 -0.05726 0.35615
 C71 C -0.15531 0.03002 0.31880
 C72 C -0.11088 0.02824 0.28964
 N73 N -0.07348 -0.01444 0.29439
 H74 H -0.00216 -0.01649 0.16509
 H75 H -0.00665 0.11621 0.25760
 H76 H 0.00277 0.19640 0.20091
 H77 H 0.00735 0.06006 0.10717
 H78 H -0.05184 -0.09256 0.32867
 H79 H -0.12685 -0.09133 0.38187
 H80 H -0.18318 0.06552 0.31523
 H81 H -0.10640 0.06116 0.26340
 C82 C -0.04858 -0.18109 0.16789
 C83 C 0.17018 -0.00971 0.33717
 C84 C -0.16134 -0.01289 0.35296
 C85 C 0.00459 0.13437 0.14909
 C86 C 0.02813 0.12424 0.77505
 H87 H 0.02435 0.13374 0.74076
 C88 C 0.03447 0.17155 0.80376
 H89 H 0.03624 0.21741 0.79122
 C90 C 0.03129 0.05276 0.83293
 H91 H 0.02921 0.00652 0.84439
 C92 C 0.03856 0.09850 0.86257
 H93 H 0.04249 0.08687 0.89661
 N94 N 0.02704 0.06623 0.79002
 C95 C 0.08449 -0.03754 0.68843
 H96 H 0.04869 -0.07433 0.68849
 C97 C 0.12549 -0.03310 0.65656
 H98 H 0.12151 -0.06678 0.63216
 C99 C 0.13045 0.05380 0.71817
 H100 H 0.13103 0.08838 0.74150
 C101 C 0.17370 0.05902 0.68753
 H102 H 0.20736 0.09785 0.68722
 Zn103 Zn 0.01847 0.00323 0.75024
 N104 N 0.08582 0.00714 0.71694
 C105 C -0.03821 0.02192 0.66963
 N106 N -0.04823 0.01143 0.71213
 C107 C -0.10409 0.00624 0.72646
 C108 C -0.15272 0.00711 0.69708
 C109 C -0.08512 0.02178 0.63938
 C110 C 0.05990 -0.08706 0.80260
 C111 C 0.05898 -0.14214 0.82510
 C112 C -0.04177 -0.16940 0.79833
 C113 C -0.03884 -0.11360 0.77618
 N114 N 0.01112 -0.07325 0.77942
 H115 H 0.00618 0.02961 0.65867
 H116 H -0.11099 -0.00053 0.76051
 H117 H -0.19710 0.00033 0.70857
 H118 H -0.07621 0.02770 0.60553
 H119 H 0.09953 -0.05476 0.80388
 H120 H 0.09808 -0.15162 0.84400
 H121 H -0.08212 -0.20030 0.79507
 H122 H -0.07652 -0.10282 0.75643
 C123 C 0.16985 0.01620 0.65542
 C124 C 0.03995 0.15867 0.84821
 C125 C 0.00751 -0.18393 0.82380
 C126 C -0.14306 0.01339 0.65285
 C127 C -0.01315 -0.35032 0.08009
 C128 C -0.03533 -0.29847 0.08421
 C129 C -0.02819 -0.26660 0.12498
 C130 C -0.05894 -0.22102 0.13078
 H131 H -0.05998 -0.27931 0.05762
 H132 H 0.00327 -0.27961 0.14969
 H133 H 0.00603 -0.36997 0.10888
 H134 H -0.09262 -0.21140 0.10655
 C135 C -0.01651 0.32748 0.07104
 C136 C 0.00369 0.27381 0.07422
 C137 C -0.00431 0.23403 0.11284
 C138 C 0.01294 0.17929 0.11318
 H139 H 0.02833 0.25893 0.04878
 H140 H -0.02594 0.24865 0.13996
 H141 H -0.03690 0.34090 0.09899
 H142 H 0.03178 0.16525 0.08452
 C143 C 0.35203 0.02963 0.57983
 C144 C 0.29822 0.04659 0.58132
 C145 C 0.26522 0.03908 0.62082
 C146 C 0.20656 0.02562 0.61777
 H147 H 0.27648 0.06395 0.55264
 H148 H 0.28863 0.04145 0.65204
 H149 H 0.37185 0.01176 0.60909
 H150 H 0.18455 0.01794 0.58635
 C151 C -0.32845 0.05774 0.57849
 C152 C -0.28503 0.02332 0.58470
 C153 C -0.24249 0.02907 0.62192
 C154 C -0.19141 0.00678 0.61951
 H155 H -0.27901 -0.00863 0.56050
 H156 H -0.25112 0.05387 0.64960
 H157 H -0.33527 0.08927 0.60267
 H158 H -0.18250 -0.01387 0.58997
 C159 C -0.00004 -0.32915 0.92474
 C160 C -0.04077 -0.32872 0.89217
 C161 C -0.04102 -0.27836 0.85985
 C162 C 0.00760 -0.24051 0.85034
 H163 H -0.07895 -0.36300 0.89187
 H164 H -0.08363 -0.27187 0.84506
 H165 H 0.03474 -0.29170 0.92828
 H166 H 0.05001 -0.24944 0.86445
 C167 C 0.00204 0.34562 0.91440
 C168 C 0.03334 0.29929 0.91281
 C169 C 0.02845 0.25937 0.87589
 C170 C 0.04863 0.20592 0.88072
 H171 H 0.06036 0.28782 0.94085
 H172 H 0.00465 0.27146 0.84651
 H173 H -0.02411 0.35806 0.88624
 H174 H 0.06890 0.19407 0.91165
 C175 C -0.33985 0.03806 0.42186
 C176 C -0.28693 0.01766 0.42288
 C177 C -0.25195 0.01623 0.38448
 C178 C -0.20298 -0.01099 0.38764
 H179 H -0.26887 -0.00059 0.45268
 H180 H -0.26575 0.03753 0.35453
 H181 H -0.35884 0.04972 0.39064
 H182 H -0.19251 -0.03402 0.41782
 C183 C 0.33819 0.00632 0.42187
 C184 C 0.29438 -0.03983 0.42110
 C185 C 0.24667 -0.04858 0.38718
 C186 C 0.22558 -0.00285 0.36492
 H187 H 0.29226 -0.07293 0.44748
 H188 H 0.22474 -0.09405 0.38430
 H189 H 0.34430 0.03734 0.39448
 H190 H 0.24803 0.04244 0.36872
   
