data_POSCAR
  _audit_creation_date              2014-09-24
  _audit_creation_method            'ToBaCCo'
  _symmetry_space_group_name_H-M    'P1'
  _symmetry_Int_Tables_number       1
  _symmetry_cell_setting            triclinic
  loop_
  _symmetry_equiv_pos_as_xyz
 x,y,z
_cell_length_a 37.8062
_cell_length_b 38.5994
_cell_length_c 37.2537
_cell_angle_alpha 91.112300
_cell_angle_beta 91.569600
_cell_angle_gamma 89.438100
loop_
  _atom_site_label
  _atom_site_type_symbol
  _atom_site_fract_x
  _atom_site_fract_y
  _atom_site_fract_z
C1 C 0.22111 0.17934 0.21539
 C2 C 0.20638 0.16606 0.24623
 C3 C 0.17257 0.17677 0.25713
 C4 C 0.15423 0.20221 0.23714
 C5 C 0.16966 0.21705 0.20725
 C6 C 0.20325 0.20553 0.19624
 C7 C 0.25268 0.16545 0.20260
 C8 C 0.26704 0.17714 0.17058
 C9 C 0.25069 0.20556 0.15320
 C10 C 0.21860 0.21955 0.16562
 C11 C 0.20073 0.24623 0.14713
 C12 C 0.16714 0.25762 0.15795
 C13 C 0.15170 0.24271 0.18776
 H14 H 0.22072 0.14595 0.26063
 H15 H 0.12815 0.21089 0.24502
 H16 H 0.26538 0.14447 0.21719
 H17 H 0.26160 0.21546 0.12886
 H18 H 0.21227 0.25725 0.12365
 H19 H 0.12577 0.25147 0.19604
 C20 C -0.25212 0.80313 0.25996
 C21 C -0.23479 0.81953 0.28923
 C22 C -0.20188 0.80713 0.30248
 C23 C -0.18792 0.77619 0.28752
 C24 C -0.20533 0.75919 0.25851
 C25 C -0.23727 0.77305 0.24428
 C26 C -0.28289 0.81785 0.24477
 C27 C -0.29853 0.80387 0.21300
 C28 C -0.28418 0.77300 0.19822
 C29 C -0.25365 0.75761 0.21359
 C30 C -0.23816 0.72813 0.19758
 C31 C -0.20620 0.71410 0.21151
 C32 C -0.19025 0.72964 0.24231
 H33 H -0.24624 0.84311 0.30035
 H34 H -0.16282 0.76588 0.29746
 H35 H -0.29342 0.84145 0.25680
 H36 H -0.29586 0.76153 0.17395
 H37 H -0.25057 0.71670 0.17366
 H38 H -0.16540 0.71948 0.25305
 C39 C -0.23328 0.19157 -0.24155
 C40 C -0.21995 0.17668 -0.27298
 C41 C -0.19134 0.19165 -0.29001
 C42 C -0.17785 0.22342 -0.27672
 C43 C -0.19168 0.23918 -0.24571
 C44 C -0.21885 0.22262 -0.22749
 C45 C -0.25960 0.17474 -0.22304
 C46 C -0.27037 0.18718 -0.18922
 C47 C -0.25598 0.21840 -0.17539
 C48 C -0.23092 0.23654 -0.19473
 C49 C -0.21704 0.26789 -0.18133
 C50 C -0.19070 0.28528 -0.19980
 C51 C -0.17793 0.27051 -0.23186
 H52 H -0.23051 0.15219 -0.28289
 H53 H -0.15601 0.23538 -0.28991
 H54 H -0.27009 0.15069 -0.23422
 H55 H -0.26433 0.22876 -0.14968
 H56 H -0.22648 0.27847 -0.15615
 H57 H -0.15712 0.28321 -0.24593
 C58 C 0.23252 0.80424 -0.21640
 C59 C 0.21759 0.81897 -0.24744
 C60 C 0.18215 0.81239 -0.25801
 C61 C 0.16262 0.78883 -0.23813
 C62 C 0.17785 0.77269 -0.20793
 C63 C 0.21274 0.78082 -0.19667
 C64 C 0.26608 0.81440 -0.20349
 C65 C 0.27943 0.80252 -0.17037
 C66 C 0.26052 0.77775 -0.15178
 C67 C 0.22740 0.76651 -0.16493
 C68 C 0.20791 0.74260 -0.14589
 C69 C 0.17337 0.73397 -0.15732
 C70 C 0.15834 0.74943 -0.18809
 H71 H 0.23306 0.83725 -0.26201
 H72 H 0.13544 0.78306 -0.24596
 H73 H 0.28053 0.83369 -0.21778
 H74 H 0.27099 0.76829 -0.12636
 H75 H 0.21916 0.73152 -0.12156
 H76 H 0.13150 0.74314 -0.19672
 C77 C 0.18055 1.22748 0.79784
 C78 C 0.16668 1.21233 0.76609
 C79 C 0.18567 1.18651 0.74728
 C80 C 0.21935 1.17635 0.76096
 C81 C 0.23339 1.19119 0.79301
 C82 C 0.21399 1.21704 0.81138
 C83 C 0.16095 1.25250 0.81657
 C84 C 0.17453 1.26816 0.84848
 C85 C 0.20832 1.25798 0.86155
 C86 C 0.22770 1.23198 0.84367
 C87 C 0.26007 1.21994 0.85817
 C88 C 0.27906 1.19338 0.84070
 C89 C 0.26597 1.17977 0.80764
 H90 H 0.14075 1.22063 0.75630
 H91 H 0.23443 1.15635 0.74722
 H92 H 0.13510 1.25998 0.80584
 H93 H 0.21911 1.26932 0.88630
 H94 H 0.27015 1.23080 0.88344
 H95 H 0.28039 1.15924 0.79399
 C96 C 0.82232 0.76039 0.74497
 C97 C 0.84174 0.77728 0.71907
 C98 C 0.83016 0.80930 0.70513
 C99 C 0.79840 0.82421 0.71775
 C100 C 0.77946 0.80832 0.74482
 C101 C 0.79132 0.77611 0.75811
 C102 C 0.83413 0.72854 0.75880
 C103 C 0.81560 0.71227 0.78611
 C104 C 0.78452 0.72821 0.79869
 C105 C 0.77268 0.76001 0.78532
 C106 C 0.74330 0.77662 0.80009
 C107 C 0.73221 0.80947 0.78848
 C108 C 0.74978 0.82476 0.75998
 H109 H 0.86587 0.76520 0.70966
 H110 H 0.78920 0.84901 0.70781
 H111 H 0.85827 0.71697 0.74881
 H112 H 0.76986 0.71647 0.81984
 H113 H 0.72969 0.76430 0.82161
 H114 H 0.74139 0.85007 0.75071
 C115 C 0.18770 0.78752 1.19853
 C116 C 0.17422 0.80264 1.22972
 C117 C 0.19376 0.82713 1.25010
 C118 C 0.22748 0.83658 1.23844
 C119 C 0.24138 0.82154 1.20691
 C120 C 0.22148 0.79654 1.18716
 C121 C 0.16740 0.76370 1.17846
 C122 C 0.18063 0.74728 1.14747
 C123 C 0.21494 0.75568 1.13662
 C124 C 0.23502 0.78090 1.15576
 C125 C 0.26796 0.79141 1.14351
 C126 C 0.28756 0.81731 1.16211
 C127 C 0.27437 0.83164 1.19428
 H128 H 0.14814 0.79522 1.23800
 H129 H 0.24269 0.85580 1.25360
 H130 H 0.14132 0.75745 1.18771
 H131 H 0.22554 0.74364 1.11262
 H132 H 0.27795 0.77992 1.11897
 H133 H 0.28921 0.85148 1.20892
 C134 C 0.82610 1.23580 1.24176
 C135 C 0.84395 1.21952 1.27034
 C136 C 0.83223 1.18765 1.28333
 C137 C 0.80156 1.17254 1.26733
 C138 C 0.78426 1.18784 1.23760
 C139 C 0.79664 1.21962 1.22484
 C140 C 0.83792 1.26765 1.22923
 C141 C 0.82092 1.28344 1.19965
 C142 C 0.79204 1.26669 1.18245
 C143 C 0.78008 1.23486 1.19459
 C144 C 0.75247 1.21756 1.17621
 C145 C 0.74043 1.18564 1.18814
 C146 C 0.75569 1.17131 1.21946
 H147 H 0.86704 1.23193 1.28252
 H148 H 0.79213 1.14797 1.27672
 H149 H 0.86061 1.27993 1.24233
 H150 H 0.77910 1.27811 1.15915
 H151 H 0.74046 1.22879 1.15230
 H152 H 0.74651 1.14654 1.22857
 O153 O 0.54905 0.96939 0.92208
 O154 O 0.48696 0.97101 1.06473
 O155 O 0.56536 0.95085 1.03020
 O156 O 0.44219 0.98256 0.96095
 O157 O 0.55056 0.98554 1.07148
 O158 O 0.48521 0.96017 0.93168
 O159 O 0.46418 0.95353 1.01483
 O160 O 0.57357 0.94700 0.96858
 C161 C 0.56916 0.94744 0.93567
 C162 C 0.46976 0.94856 1.04717
 C163 C 0.56202 0.95660 1.06238
 C164 C 0.45338 0.96015 0.93931
 O165 O 0.47677 1.02915 0.93203
 O166 O 0.53764 1.04810 1.04743
 O167 O 0.58772 1.01581 0.96449
 O168 O 0.42774 1.00863 1.02697
 O169 O 0.47354 1.03805 1.04809
 O170 O 0.54314 1.03441 0.92943
 O171 O 0.46280 1.04332 0.98568
 O172 O 0.58470 1.01995 1.03080
 Co173 Co 0.51334 0.99814 0.93515
 Co174 Co 0.51258 1.00900 1.05184
 Co175 Co 0.57294 0.98469 0.99866
 Co176 Co 0.46619 0.99818 1.00104
 O177 O 0.51836 0.99624 0.99391
 C178 C 0.46223 1.04988 0.95320
 C179 C 0.57046 1.04646 1.04478
 C180 C 0.57510 1.03558 0.94010
 C181 C 0.44075 1.03118 1.05049
 O182 O 0.02910 0.47375 0.05918
 O183 O 0.03164 0.53595 -0.03888
 O184 O -0.00761 0.43527 -0.03368
 O185 O -0.00684 0.57979 0.03239
 O186 O 0.03159 0.47344 -0.04041
 O187 O 0.03049 0.54100 0.05239
 O188 O -0.00694 0.57611 -0.03267
 O189 O -0.00490 0.43481 0.03206
 C190 C 0.02252 0.44288 0.05045
 C191 C 0.02416 0.56725 -0.03885
 C192 C 0.02365 0.44251 -0.03971
 C193 C 0.02343 0.57170 0.04480
 O194 O -0.03594 0.54347 0.07512
 O195 O -0.03453 0.47435 -0.07328
 O196 O -0.07135 0.45541 0.03471
 O197 O -0.07177 0.54680 -0.03339
 O198 O -0.03304 0.53662 -0.07311
 O199 O -0.03750 0.47868 0.07719
 O200 O -0.07297 0.55526 0.03191
 O201 O -0.07239 0.46387 -0.03264
 Co202 Co -0.00489 0.50931 0.05971
 Co203 Co -0.00274 0.50523 -0.05170
 Co204 Co -0.03756 0.45297 -0.00013
 Co205 Co -0.03803 0.55961 -0.00049
 O206 O -0.02092 0.50672 0.00210
 C207 C -0.06576 0.55462 0.06460
 C208 C -0.06491 0.46457 -0.06489
 C209 C -0.06443 0.46139 0.06721
 C210 C -0.06381 0.54583 -0.06546
 O211 O 1.08222 0.03684 0.47280
 O212 O 0.92855 0.01426 0.52893
 O213 O 0.98419 0.02287 0.43439
 O214 O 1.03695 0.05175 0.55352
 O215 O 0.96513 0.04473 0.48453
 O216 O 1.08639 0.02861 0.54037
 O217 O 0.97549 0.04086 0.54986
 O218 O 1.04790 0.01504 0.42926
 C219 C 1.07057 0.03692 0.44084
 C220 C 0.94252 0.03588 0.55225
 C221 C 0.96905 0.04723 0.45146
 C222 C 1.06957 0.05244 0.55520
 O223 O 1.08371 -0.03757 0.53044
 O224 O 0.93872 -0.01293 0.46433
 O225 O 1.04071 -0.05319 0.44782
 O226 O 0.98785 -0.02669 0.56834
 O227 O 0.96287 -0.04241 0.51889
 O228 O 1.08860 -0.02841 0.46364
 O229 O 1.05094 -0.01547 0.57326
 O230 O 0.98046 -0.04670 0.45294
 Co231 Co 1.07876 -0.00034 0.50178
 Co232 Co 0.96645 0.00134 0.50303
 Co233 Co 1.01359 -0.01435 0.44559
 Co234 Co 1.01338 0.01124 0.55603
 O235 O 1.02013 -0.00172 0.50005
 C236 C 1.07347 -0.03751 0.56218
 C237 C 0.94864 -0.03975 0.44875
 C238 C 1.07321 -0.05207 0.44688
 C239 C 0.96918 -0.04795 0.55097
 C240 C 1.12730 0.12697 0.34098
 N241 N 1.16251 0.12425 0.33563
 N242 N 1.17708 0.14075 0.30883
 C243 C 1.15719 0.16106 0.28656
 N244 N 1.12198 0.16441 0.29259
 N245 N 1.10723 0.14738 0.31905
 C246 C 1.11126 0.10616 0.36847
 N247 N 1.07793 0.09387 0.36357
 N248 N 1.06473 0.07205 0.38691
 C249 C 1.08426 0.06215 0.41613
 N250 N 1.11733 0.07494 0.42135
 N251 N 1.13072 0.09630 0.39773
 C252 C 0.85803 -0.13198 0.37253
 N253 N 0.82450 -0.12245 0.36308
 N254 N 0.80481 -0.14266 0.34134
 C255 C 0.81774 -0.17324 0.32817
 N256 N 0.85110 -0.18301 0.33843
 N257 N 0.87085 -0.16277 0.36010
 C258 C 0.88089 -0.10847 0.39385
 N259 N 0.91557 -0.11648 0.39945
 N260 N 0.93697 -0.09448 0.41709
 C261 C 0.92450 -0.06365 0.42976
 N262 N 0.88974 -0.05563 0.42441
 N263 N 0.86833 -0.07764 0.40663
 C264 C 0.86199 0.13045 0.63437
 N265 N 0.82772 0.12410 0.64153
 N266 N 0.81033 0.14445 0.66445
 C267 C 0.82640 0.17207 0.68091
 N268 N 0.86048 0.17883 0.67304
 N269 N 0.87793 0.15839 0.65023
 C270 C 0.88232 0.10625 0.61194
 N271 N 0.91782 0.10987 0.60975
 N272 N 0.93679 0.08717 0.59086
 C273 C 0.92102 0.05999 0.57346
 N274 N 0.88546 0.05635 0.57546
 N275 N 0.86645 0.07902 0.59456
 C276 C 1.13495 -0.13054 0.66109
 N277 N 1.17062 -0.13099 0.66588
 N278 N 1.18586 -0.14984 0.69165
 C279 C 1.16614 -0.16944 0.71335
 N280 N 1.13041 -0.16950 0.70786
 N281 N 1.11509 -0.15019 0.68246
 C282 C 1.11823 -0.10776 0.63447
 N283 N 1.08516 -0.09481 0.63938
 N284 N 1.07082 -0.07240 0.61630
 C285 C 1.08889 -0.06254 0.58727
 N286 N 1.12176 -0.07584 0.58212
 N287 N 1.13631 -0.09781 0.60550
 C288 C 0.34609 1.11939 1.12332
 N289 N 0.33717 1.15109 1.11046
 N290 N 0.31208 1.17027 1.12600
 C291 C 0.29544 1.15870 1.15535
 N292 N 0.30522 1.12728 1.16845
 N293 N 0.32975 1.10791 1.15262
 C294 C 0.37126 1.09671 1.10487
 N295 N 0.36577 1.06201 1.10315
 N296 N 0.38805 1.04104 1.08592
 C297 C 0.41705 1.05399 1.07056
 N298 N 0.42279 1.08867 1.07257
 N299 N 0.40011 1.10974 1.08921
 C300 C 0.36071 0.86048 0.87838
 N301 N 0.36087 0.85339 0.84256
 N302 N 0.33586 0.83363 0.82710
 C303 C 0.31014 0.81980 0.84702
 N304 N 0.31059 0.82623 0.88298
 N305 N 0.33532 0.84631 0.89836
 C306 C 0.38561 0.88533 0.89476
 N307 N 0.37754 0.90231 0.92575
 N308 N 0.39905 0.92639 0.93979
 C309 C 0.42953 0.93414 0.92345
 N310 N 0.43782 0.91693 0.89265
 N311 N 0.41605 0.89315 0.87834
 C312 C 0.62727 0.86157 1.15641
 N313 N 0.63865 0.83049 1.14327
 N314 N 0.66150 0.81113 1.16216
 C315 C 0.67410 0.82213 1.19492
 N316 N 0.66178 0.85286 1.20837
 N317 N 0.63888 0.87220 1.18953
 C318 C 0.60622 0.88493 1.13346
 N319 N 0.59601 0.91681 1.14567
 N320 N 0.58060 0.93946 1.12344
 C321 C 0.57512 0.93101 1.08820
 N322 N 0.58480 0.89896 1.07623
 N323 N 0.60000 0.87634 1.09842
 C324 C 0.66270 1.12754 0.86885
 N325 N 0.66657 1.12159 0.83322
 N326 N 0.68800 1.14105 0.81459
 C327 C 0.70595 1.16776 0.83057
 N328 N 0.70148 1.17409 0.86626
 N329 N 0.68048 1.15415 0.88514
 C330 C 0.63943 1.10525 0.88873
 N331 N 0.64713 1.09643 0.92323
 N332 N 0.62680 1.07410 0.93996
 C333 C 0.59790 1.06029 0.92280
 N334 N 0.59010 1.06952 0.88854
 N335 N 0.61067 1.09130 0.87170
 C336 C 0.10928 0.33523 0.10498
 N337 N 0.14485 0.33824 0.11018
 N338 N 0.16358 0.31315 0.12620
 C339 C 0.14730 0.28443 0.13797
 N340 N 0.11179 0.28150 0.13264
 N341 N 0.09319 0.30630 0.11625
 C342 C 0.08796 0.36314 0.08881
 N343 N 0.05489 0.35646 0.07558
 N344 N 0.03444 0.38186 0.06273
 C345 C 0.04610 0.41499 0.06307
 N346 N 0.07925 0.42175 0.07620
 N347 N 0.09990 0.39623 0.08870
 C348 C -0.14586 0.37538 -0.15366
 N349 N -0.13167 0.36028 -0.18325
 N350 N -0.14637 0.33218 -0.19850
 C351 C -0.17565 0.31795 -0.18460
 N352 N -0.19004 0.33349 -0.15535
 N353 N -0.17542 0.36157 -0.14015
 C354 C -0.12744 0.40346 -0.13388
 N355 N -0.13988 0.41507 -0.10197
 N356 N -0.12082 0.43656 -0.08105
 C357 C -0.08869 0.44749 -0.09132
 N358 N -0.07669 0.43678 -0.12377
 N359 N -0.09574 0.41515 -0.14470
 C360 C 0.11354 0.66480 -0.09928
 N361 N 0.09775 0.69149 -0.11689
 N362 N 0.11682 0.71342 -0.13533
 C363 C 0.15249 0.70969 -0.13660
 N364 N 0.16838 0.68315 -0.11867
 N365 N 0.14922 0.66094 -0.10054
 C366 C 0.09182 0.64008 -0.08050
 N367 N 0.10435 0.60803 -0.07211
 N368 N 0.08321 0.58482 -0.05780
 C369 C 0.04899 0.59309 -0.05109
 N370 N 0.03681 0.62533 -0.05882
 N371 N 0.05777 0.64834 -0.07337
 C372 C -0.15257 0.63514 0.15507
 N373 N -0.18352 0.64850 0.14188
 N374 N -0.20101 0.67283 0.16024
 C375 C -0.18824 0.68492 0.19251
 N376 N -0.15748 0.67112 0.20588
 N377 N -0.13999 0.64674 0.18755
 C378 C -0.13166 0.61084 0.13310
 N379 N -0.10005 0.59819 0.14550
 N380 N -0.07960 0.57893 0.12419
 C381 C -0.09002 0.57167 0.08971
 N382 N -0.12187 0.58385 0.07755
 N383 N -0.14233 0.60299 0.09886
 C384 C 1.13981 0.13788 0.65808
 N385 N 1.17336 0.12967 0.66903
 N386 N 1.18842 0.14565 0.69749
 C387 C 1.17056 0.17055 0.71618
 N388 N 1.13714 0.17897 0.70471
 N389 N 1.12203 0.16291 0.67638
 C390 C 1.12216 0.11832 0.62858
 N391 N 1.08691 0.12243 0.62165
 N392 N 1.07022 0.10242 0.59716
 C393 C 1.08827 0.07774 0.57851
 N394 N 1.12363 0.07410 0.58498
 N395 N 1.14027 0.09399 0.60956
 C396 C 0.89092 -0.13901 0.63314
 N397 N 0.85685 -0.12926 0.63850
 N398 N 0.83720 -0.14595 0.66165
 C399 C 0.85059 -0.17349 0.67995
 N400 N 0.88462 -0.18347 0.67400
 N401 N 0.90451 -0.16634 0.65140
 C402 C 0.91305 -0.11897 0.60946
 N403 N 0.94682 -0.11083 0.61952
 N404 N 0.96558 -0.08941 0.59999
 C405 C 0.95155 -0.07609 0.56920
 N406 N 0.91810 -0.08493 0.55875
 N407 N 0.89911 -0.10578 0.57863
 C408 C 1.14667 -0.12785 0.34106
 N409 N 1.12926 -0.15161 0.32021
 N410 N 1.14455 -0.16596 0.29176
 C411 C 1.17783 -0.15713 0.28274
 N412 N 1.19540 -0.13343 0.30380
 N413 N 1.18009 -0.11905 0.33241
 C414 C 1.12854 -0.11060 0.37106
 N415 N 1.14547 -0.08678 0.39236
 N416 N 1.12807 -0.06931 0.41766
 C417 C 1.09314 -0.07501 0.42266
 N418 N 1.07633 -0.09919 0.40169
 N419 N 1.09377 -0.11675 0.37647
 C420 C 0.89081 0.13685 0.36181
 N421 N 0.90443 0.16423 0.34483
 N422 N 0.88512 0.18109 0.32019
 C423 C 0.85172 0.17079 0.31084
 N424 N 0.83827 0.14321 0.32789
 N425 N 0.85731 0.12677 0.35308
 C426 C 0.91266 0.11699 0.38744
 N427 N 0.89850 0.10465 0.41768
 N428 N 0.91753 0.08423 0.43942
 C429 C 0.95122 0.07501 0.43147
 N430 N 0.96539 0.08739 0.40123
 N431 N 0.94661 0.10842 0.37987
 C432 C 0.11384 0.34050 -0.09764
 N433 N 0.09964 0.32076 -0.12470
 N434 N 0.11941 0.29770 -0.14216
 C435 C 0.15412 0.29297 -0.13298
 N436 N 0.16825 0.31264 -0.10554
 N437 N 0.14856 0.33622 -0.08840
 C438 C 0.09151 0.36609 -0.07940
 N439 N 0.10495 0.39635 -0.06601
 N440 N 0.08354 0.42072 -0.05254
 C441 C 0.04811 0.41534 -0.05159
 N442 N 0.03493 0.38483 -0.06431
 N443 N 0.05619 0.36077 -0.07820
 C444 C -0.13901 0.37384 0.15554
 N445 N -0.16934 0.35947 0.14221
 N446 N -0.18249 0.33139 0.15690
 C447 C -0.16578 0.31636 0.18541
 N448 N -0.13574 0.33118 0.19918
 N449 N -0.12254 0.35934 0.18448
 C450 C -0.12226 0.40162 0.13588
 N451 N -0.09082 0.41524 0.14732
 N452 N -0.07327 0.43651 0.12647
 C453 C -0.08655 0.44476 0.09344
 N454 N -0.11839 0.43182 0.08252
 N455 N -0.13598 0.41082 0.10340
 C456 C -0.14294 0.62690 -0.16212
 N457 N -0.12649 0.63998 -0.19076
 N458 N -0.14037 0.66690 -0.20826
 C459 C -0.17121 0.68189 -0.19776
 N460 N -0.18800 0.66801 -0.16966
 N461 N -0.17411 0.64121 -0.15211
 C462 C -0.12521 0.60094 -0.13953
 N463 N -0.13810 0.59361 -0.10689
 N464 N -0.11941 0.57427 -0.08386
 C465 C -0.08723 0.56138 -0.09276
 N466 N -0.07482 0.56783 -0.12581
 N467 N -0.09344 0.58730 -0.14877
 C468 C 0.11731 0.67578 0.09352
 N469 N 0.10367 0.69833 0.11785
 N470 N 0.12425 0.72130 0.13499
 C471 C 0.15931 0.72321 0.12822
 N472 N 0.17288 0.70097 0.10320
 N473 N 0.15234 0.67740 0.08646
 C474 C 0.09421 0.64945 0.07679
 N475 N 0.10625 0.61679 0.06990
 N476 N 0.08386 0.59197 0.05901
 C477 C 0.04878 0.59909 0.05429
 N478 N 0.03698 0.63190 0.06042
 N479 N 0.05921 0.65651 0.07180
 C480 C 0.36695 1.14534 0.89053
 N481 N 0.36175 1.14313 0.85436
 N482 N 0.33441 1.15916 0.83843
 C483 C 0.31123 1.17823 0.85801
 N484 N 0.31684 1.18096 0.89417
 N485 N 0.34410 1.16471 0.91017
 C486 C 0.39486 1.12432 0.90797
 N487 N 0.39623 1.12028 0.94417
 N488 N 0.41893 1.09776 0.95918
 C489 C 0.44111 1.07863 0.93845
 N490 N 0.44021 1.08333 0.90244
 N491 N 0.41756 1.10571 0.88749
 C492 C 0.37766 0.85983 1.11644
 N493 N 0.35646 0.83776 1.09715
 N494 N 0.32857 0.82348 1.11201
 C495 C 0.32052 0.83083 1.14670
 N496 N 0.34206 0.85261 1.16610
 N497 N 0.37006 0.86678 1.15129
 C498 C 0.40598 0.87869 1.09887
 N499 N 0.42737 0.90061 1.11817
 N500 N 0.44974 0.92113 1.10173
 C501 C 0.45163 0.92054 1.06536
 N502 N 0.43084 0.89801 1.04612
 N503 N 0.40860 0.87736 1.06257
 C504 C 0.66440 1.13237 1.12492
 N505 N 0.69200 1.14812 1.10967
 N506 N 0.71589 1.16521 1.12990
 C507 C 0.71353 1.16668 1.16622
 N508 N 0.68606 1.15068 1.18156
 N509 N 0.66181 1.13401 1.16124
 C510 C 0.63877 1.11258 1.10251
 N511 N 0.60534 1.10748 1.11361
 N512 N 0.58285 1.08796 1.09406
 C513 C 0.59305 1.07257 1.06285
 N514 N 0.62644 1.07779 1.05171
 N515 N 0.64873 1.09777 1.07095
 C516 C 0.65580 0.86395 0.84753
 N517 N 0.66406 0.87444 0.81418
 N518 N 0.68791 0.85699 0.79499
 C519 C 0.70419 0.82826 0.80836
 N520 N 0.69554 0.81776 0.84158
 N521 N 0.67195 0.83526 0.86081
 C522 C 0.63131 0.88416 0.86987
 N523 N 0.62937 0.87791 0.90553
 N524 N 0.60886 0.89745 0.92645
 C525 C 0.58922 0.92374 0.91237
 N526 N 0.59078 0.92969 0.87661
 N527 N 0.61151 0.91032 0.85575
   
