data_POSCAR
  _audit_creation_date              2014-09-24
  _audit_creation_method            'ToBaCCo'
  _symmetry_space_group_name_H-M    'P1'
  _symmetry_Int_Tables_number       1
  _symmetry_cell_setting            triclinic
  loop_
  _symmetry_equiv_pos_as_xyz
 x,y,z
_cell_length_a 35.6550
_cell_length_b 35.6140
_cell_length_c 17.2263
_cell_angle_alpha 89.857900
_cell_angle_beta 90.087800
_cell_angle_gamma 119.967300
loop_
  _atom_site_label
  _atom_site_type_symbol
  _atom_site_fract_x
  _atom_site_fract_y
  _atom_site_fract_z
C1 C 0.49981 0.99914 0.46240
 C2 C 0.49955 0.99904 0.54107
 C3 C 0.47884 0.95822 0.58631
 C4 C 0.51996 1.03968 0.58667
 C5 C 0.51995 1.03992 0.41692
 C6 C 0.47989 0.95842 0.41701
 C7 C 0.44289 0.94854 0.63244
 C8 C 0.42429 0.91167 0.67934
 C9 C 0.44184 0.88380 0.68266
 C10 C 0.47781 0.89359 0.63482
 C11 C 0.49598 0.93036 0.58704
 C12 C 0.50443 1.06891 0.58325
 C13 C 0.52260 1.10580 0.63052
 C14 C 0.55669 1.11402 0.68165
 C15 C 0.57245 1.08484 0.68370
 C16 C 0.55404 1.04794 0.63713
 C17 C 0.56465 1.06917 0.42026
 C18 C 0.58330 1.10609 0.37280
 C19 C 0.55744 1.11432 0.32157
 C20 C 0.51257 1.08516 0.31969
 C21 C 0.49413 1.04823 0.36643
 C22 C 0.50596 0.95008 0.36748
 C23 C 0.48767 0.91339 0.32037
 C24 C 0.44273 0.88451 0.32097
 C25 C 0.41664 0.89273 0.37141
 C26 C 0.43512 0.92940 0.41918
 H27 H 0.42935 0.96984 0.63246
 H28 H 0.39665 0.90583 0.71429
 H29 H 0.49245 0.87327 0.63465
 H30 H 0.52400 0.93766 0.55194
 H31 H 0.47775 1.06271 0.54515
 H32 H 0.50974 1.12761 0.62753
 H33 H 0.56629 1.02560 0.64067
 H34 H 0.58512 1.06293 0.45838
 H35 H 0.61793 1.12789 0.37567
 H36 H 0.49165 1.09030 0.28083
 H37 H 0.45961 1.02586 0.36294
 H38 H 0.54055 0.97228 0.36488
 H39 H 0.50877 0.90823 0.28218
 H40 H 0.38195 0.87115 0.37331
 H41 H 0.41446 0.93570 0.45648
 H42 H 0.59850 1.08998 0.72249
 C43 C -0.00051 0.49980 0.45849
 C44 C -0.00045 0.50002 0.53717
 C45 C 0.04028 0.52014 0.58258
 C46 C -0.04114 0.48008 0.58261
 C47 C -0.04126 0.47912 0.41328
 C48 C 0.04010 0.52026 0.41282
 C49 C 0.04854 0.49425 0.63307
 C50 C 0.08546 0.51266 0.67964
 C51 C 0.11466 0.55756 0.67755
 C52 C 0.10646 0.58349 0.62634
 C53 C 0.06955 0.56488 0.57907
 C54 C -0.07025 0.43529 0.58026
 C55 C -0.10702 0.41681 0.62780
 C56 C -0.11524 0.44291 0.67820
 C57 C -0.08625 0.48788 0.67906
 C58 C -0.04946 0.50616 0.63218
 C59 C -0.06930 0.49606 0.41318
 C60 C -0.10603 0.47788 0.36552
 C61 C -0.11549 0.44220 0.31739
 C62 C -0.08754 0.42486 0.31973
 C63 C -0.05070 0.44341 0.36651
 C64 C 0.04836 0.55439 0.36229
 C65 C 0.08519 0.57279 0.31555
 C66 C 0.11431 0.55699 0.31751
 C67 C 0.10611 0.52287 0.36874
 C68 C 0.06929 0.50469 0.41617
 H69 H 0.02616 0.45970 0.63669
 H70 H 0.09058 0.49169 0.71850
 H71 H 0.12828 0.61815 0.62332
 H72 H 0.06335 0.58540 0.54094
 H73 H -0.06398 0.41462 0.54292
 H74 H -0.12868 0.38210 0.62572
 H75 H -0.02720 0.54076 0.63491
 H76 H -0.06218 0.52391 0.44866
 H77 H -0.12663 0.49218 0.36588
 H78 H -0.09338 0.39745 0.28407
 H79 H -0.02927 0.43005 0.36592
 H80 H 0.02605 0.56666 0.35880
 H81 H 0.09032 0.59887 0.27670
 H82 H 0.12787 0.50996 0.37166
 H83 H 0.06309 0.47798 0.45432
 H84 H -0.09141 0.50898 0.71724
 C85 C 0.50022 0.50023 0.46281
 C86 C 0.50019 0.50027 0.54145
 C87 C 0.48010 0.52093 0.58655
 C88 C 0.52026 0.47967 0.58712
 C89 C 0.52105 0.48028 0.41768
 C90 C 0.47945 0.52017 0.41712
 C91 C 0.50633 0.55671 0.63320
 C92 C 0.48804 0.57535 0.67969
 C93 C 0.44279 0.55803 0.68184
 C94 C 0.41660 0.52225 0.63387
 C95 C 0.43516 0.50399 0.58650
 C96 C 0.56520 0.49659 0.58717
 C97 C 0.58375 0.47839 0.63502
 C98 C 0.55756 0.44271 0.68338
 C99 C 0.51232 0.42542 0.68116
 C100 C 0.49404 0.44400 0.63418
 C101 C 0.50549 0.43549 0.42050
 C102 C 0.52381 0.41699 0.37312
 C103 C 0.55805 0.44307 0.32245
 C104 C 0.57392 0.48803 0.32118
 C105 C 0.55539 0.50633 0.36789
 C106 C 0.44519 0.49410 0.36725
 C107 C 0.42671 0.51239 0.32005
 C108 C 0.44256 0.55735 0.32091
 C109 C 0.47674 0.58344 0.37164
 C110 C 0.49500 0.56495 0.41950
 H111 H 0.54110 0.57009 0.63388
 H112 H 0.50957 0.60282 0.71523
 H113 H 0.38173 0.50796 0.63338
 H114 H 0.41447 0.47610 0.55107
 H115 H 0.58590 0.52441 0.55144
 H116 H 0.61862 0.49265 0.63457
 H117 H 0.45927 0.43065 0.63480
 H118 H 0.47862 0.41485 0.45804
 H119 H 0.51085 0.38228 0.37552
 H120 H 0.60011 0.50911 0.28279
 H121 H 0.56763 0.54093 0.36481
 H122 H 0.43296 0.45951 0.36450
 H123 H 0.40057 0.49130 0.28163
 H124 H 0.48969 0.61815 0.37374
 H125 H 0.52183 0.58561 0.45708
 H126 H 0.49078 0.39803 0.71700
 O127 O 0.39890 0.65679 -0.06583
 O128 O 0.39700 0.72831 -0.09167
 C129 C 0.37704 0.74884 -0.10430
 O130 O 0.34396 0.74242 -0.06584
 O131 O 0.27253 0.66916 -0.09193
 C132 C 0.25222 0.62872 -0.10497
 O133 O 0.25861 0.60189 -0.06664
 O134 O 0.33183 0.60365 -0.09171
 C135 C 0.37227 0.62367 -0.10426
 O136 O 0.39695 0.66888 0.08799
 O137 O 0.39866 0.74216 0.06236
 C138 C 0.37187 0.74832 0.10096
 O139 O 0.33147 0.72794 0.08797
 O140 O 0.25833 0.65655 0.06190
 C141 C 0.25191 0.62334 0.10025
 O142 O 0.27231 0.60330 0.08745
 O143 O 0.34384 0.60166 0.06244
 C144 C 0.37687 0.62841 0.10099
 Cr145 Cr 0.39549 0.69784 -0.00182
 Cr146 Cr 0.30277 0.69782 -0.00199
 Cr147 Cr 0.30284 0.60502 -0.00212
 O148 O 0.33369 0.66688 -0.00199
 O149 O 0.60148 0.34391 -0.06306
 O150 O 0.60319 0.27235 -0.08881
 C151 C 0.62318 0.25190 -0.10173
 O152 O 0.65635 0.25826 -0.06349
 O153 O 0.72771 0.33149 -0.08967
 C154 C 0.74804 0.37194 -0.10275
 O155 O 0.74179 0.39874 -0.06428
 O156 O 0.66855 0.39705 -0.08916
 C157 C 0.62810 0.37706 -0.10163
 O158 O 0.60364 0.33158 0.09079
 O159 O 0.60182 0.25831 0.06515
 C160 C 0.62862 0.25193 0.10346
 O161 O 0.66901 0.27231 0.09036
 O162 O 0.74219 0.34380 0.06410
 C163 C 0.74866 0.37693 0.10250
 O164 O 0.72821 0.39697 0.08989
 O165 O 0.65673 0.39879 0.06499
 C166 C 0.62374 0.37202 0.10364
 Cr167 Cr 0.60493 0.30273 0.00099
 Cr168 Cr 0.69762 0.30266 0.00034
 Cr169 Cr 0.69763 0.39550 0.00037
 O170 O 0.66673 0.33363 0.00056
 N171 N 0.39048 0.84058 -0.22271
 C172 C 0.42518 0.84950 -0.26802
 N173 N 0.44321 0.82376 -0.26050
 N174 N 0.42770 0.79125 -0.20931
 C175 C 0.39332 0.78297 -0.16388
 N176 N 0.37489 0.80808 -0.17191
 N177 N 0.16244 0.55095 -0.22684
 C178 C 0.15238 0.57691 -0.26922
 N179 N 0.17643 0.62054 -0.25897
 N180 N 0.20882 0.63737 -0.20771
 C181 C 0.21843 0.61117 -0.16497
 N182 N 0.19478 0.56771 -0.17586
 N183 N 0.38082 0.55721 -0.25969
 C184 C 0.42450 0.57545 -0.26734
 N185 N 0.45036 0.61032 -0.22252
 N186 N 0.43353 0.62597 -0.17193
 C187 C 0.39004 0.60739 -0.16370
 N188 N 0.36390 0.57278 -0.20872
 N189 N 0.55552 0.17590 -0.25513
 C190 C 0.57504 0.15178 -0.26526
 N191 N 0.61100 0.16184 -0.22296
 N192 N 0.62660 0.19425 -0.17219
 C193 C 0.60686 0.21798 -0.16144
 N194 N 0.57110 0.20837 -0.20408
 N195 N 0.82321 0.38005 -0.25744
 C196 C 0.84726 0.42367 -0.26808
 N197 N 0.83744 0.44968 -0.22565
 N198 N 0.80531 0.43296 -0.17427
 C199 C 0.78165 0.38950 -0.16303
 N200 N 0.79103 0.36326 -0.20581
 N201 N 0.61952 0.44351 -0.25779
 C202 C 0.57584 0.42532 -0.26541
 N203 N 0.54998 0.39053 -0.22025
 N204 N 0.56682 0.37489 -0.16938
 C205 C 0.61032 0.39340 -0.16121
 N206 N 0.63645 0.42794 -0.20655
 N207 N 0.84003 0.39012 0.22125
 C208 C 0.84892 0.42489 0.26624
 N209 N 0.82345 0.44316 0.25845
 N210 N 0.79105 0.42769 0.20722
 C211 C 0.78270 0.39317 0.16205
 N212 N 0.80764 0.37457 0.17039
 N213 N 0.62039 0.17608 0.25774
 C214 C 0.57680 0.15204 0.26812
 N215 N 0.55090 0.16210 0.22569
 N216 N 0.56766 0.19444 0.17455
 C217 C 0.61108 0.21808 0.16353
 N218 N 0.63723 0.20847 0.20632
 N219 N 0.61207 0.44978 0.22619
 C220 C 0.57629 0.42379 0.26882
 N221 N 0.55676 0.38017 0.25844
 N222 N 0.57214 0.36337 0.20685
 C223 C 0.60771 0.38960 0.16387
 N224 N 0.62747 0.43305 0.17486
 N225 N 0.17607 0.55575 0.25411
 C226 C 0.15198 0.57530 0.26419
 N227 N 0.16198 0.61125 0.22166
 N228 N 0.19432 0.62681 0.17073
 C229 C 0.21802 0.60704 0.16003
 N230 N 0.20846 0.57129 0.20290
 N231 N 0.44947 0.83744 0.22424
 C232 C 0.42349 0.84718 0.26691
 N233 N 0.37993 0.82320 0.25623
 N234 N 0.36317 0.79116 0.20434
 C235 C 0.38939 0.78186 0.16134
 N236 N 0.43279 0.80545 0.17261
 N237 N 0.38864 0.55061 0.22413
 C238 C 0.42436 0.57661 0.26687
 N239 N 0.44383 0.62024 0.25628
 N240 N 0.42846 0.63704 0.20443
 C241 C 0.39295 0.61081 0.16136
 N242 N 0.37325 0.56735 0.17253
   
