data_POSCAR
  _audit_creation_date              2014-09-24
  _audit_creation_method            'ToBaCCo'
  _symmetry_space_group_name_H-M    'P1'
  _symmetry_Int_Tables_number       1
  _symmetry_cell_setting            triclinic
  loop_
  _symmetry_equiv_pos_as_xyz
 x,y,z
_cell_length_a 47.6534
_cell_length_b 44.2738
_cell_length_c 25.3278
_cell_angle_alpha 89.642900
_cell_angle_beta 89.910500
_cell_angle_gamma 89.866000
loop_
  _atom_site_label
  _atom_site_type_symbol
  _atom_site_fract_x
  _atom_site_fract_y
  _atom_site_fract_z
O1 O 0.28631 0.21694 0.21517
 O2 O 0.23949 0.27761 0.16996
 O3 O 0.29023 0.27532 0.21044
 O4 O 0.23583 0.21863 0.17882
 O5 O 0.21584 0.22785 0.25565
 O6 O 0.27377 0.27777 0.29169
 O7 O 0.22431 0.28437 0.25138
 O8 O 0.26729 0.21920 0.29449
 Cu9 Cu 0.26466 0.24684 0.18546
 Cu10 Cu 0.24376 0.25236 0.28169
 C11 C 0.28470 0.20744 0.26240
 C12 C 0.22390 0.29143 0.20266
 C13 C 0.29162 0.28569 0.25711
 C14 C 0.21574 0.21471 0.21126
 O15 O 0.77793 0.26997 0.23752
 O16 O 0.72638 0.21213 0.27804
 O17 O 0.77557 0.21141 0.23409
 O18 O 0.72811 0.27143 0.28090
 O19 O 0.71116 0.27670 0.20034
 O20 O 0.75389 0.21207 0.15725
 O21 O 0.70369 0.22002 0.20342
 O22 O 0.75965 0.27078 0.15758
 Cu23 Cu 0.75393 0.24095 0.26560
 Cu24 Cu 0.73032 0.24457 0.17141
 C25 C 0.77792 0.27984 0.19028
 C26 C 0.70529 0.20750 0.24861
 C27 C 0.77280 0.20144 0.18751
 C28 C 0.71177 0.28464 0.24841
 O29 O 0.78492 0.72025 0.72019
 O30 O 0.73705 0.78114 0.67892
 O31 O 0.78793 0.77884 0.71583
 O32 O 0.73358 0.72263 0.68458
 O33 O 0.71745 0.72576 0.76601
 O34 O 0.77203 0.78135 0.79742
 O35 O 0.72095 0.78451 0.76035
 O36 O 0.76875 0.72312 0.80164
 Cu37 Cu 0.76247 0.75039 0.69173
 Cu38 Cu 0.74309 0.75400 0.78945
 C39 C 0.78528 0.71143 0.76801
 C40 C 0.72076 0.79326 0.71243
 C41 C 0.78954 0.78951 0.76225
 C42 C 0.71612 0.71467 0.71996
 O43 O 0.23013 0.71653 0.81240
 O44 O 0.28296 0.77387 0.78115
 O45 O 0.23047 0.77514 0.80840
 O46 O 0.28239 0.71521 0.78023
 O47 O 0.26863 0.71497 0.69716
 O48 O 0.21738 0.77474 0.72501
 O49 O 0.27009 0.77360 0.69753
 O50 O 0.21636 0.71609 0.72934
 Cu51 Cu 0.25781 0.74510 0.80386
 Cu52 Cu 0.24179 0.74473 0.70393
 C53 C 0.21388 0.70679 0.77675
 C54 C 0.28570 0.78357 0.73420
 C55 C 0.21496 0.78522 0.77136
 C56 C 0.28460 0.70514 0.73347
 C57 C 0.97823 -0.05244 -0.07171
 C58 C 1.00413 -0.06243 -0.09108
 C59 C 1.02912 -0.04745 -0.07911
 C60 C 1.02813 -0.02072 -0.04889
 C61 C 1.00234 -0.01108 -0.02670
 C62 C 0.97721 -0.02681 -0.03847
 C63 C 0.95180 -0.01625 -0.01717
 C64 C 0.95127 0.00805 0.01733
 C65 C 0.97599 0.02357 0.03038
 C66 C 1.00176 0.01418 0.00773
 C67 C 1.05210 -0.00290 -0.04159
 C68 C 1.05130 0.02246 -0.00948
 C69 C 1.02694 0.03007 0.01904
 C70 C 1.02669 0.05346 0.05743
 C71 C 1.00094 0.06152 0.08060
 C72 C 0.97565 0.04802 0.06596
 H73 H 0.93199 -0.02676 -0.02653
 H74 H 0.93121 0.01427 0.03413
 H75 H 1.07163 -0.00816 -0.06145
 H76 H 1.07008 0.03600 -0.00773
 H77 H 1.00495 -0.08302 -0.11404
 H78 H 1.00029 0.07913 0.11010
 C79 C 0.47861 0.44229 0.44138
 C80 C 0.50452 0.43005 0.42670
 C81 C 0.52981 0.44310 0.44245
 C82 C 0.52943 0.46971 0.47303
 C83 C 0.50335 0.48277 0.48763
 C84 C 0.47782 0.46895 0.47204
 C85 C 0.45228 0.48242 0.48682
 C86 C 0.45174 0.50853 0.51711
 C87 C 0.47671 0.52288 0.53231
 C88 C 0.50279 0.50985 0.51754
 C89 C 0.55442 0.48382 0.48872
 C90 C 0.55387 0.51019 0.51827
 C91 C 0.52831 0.52387 0.53244
 C92 C 0.52758 0.55102 0.56168
 C93 C 0.50171 0.56320 0.57687
 C94 C 0.47636 0.54978 0.56232
 H95 H 0.43235 0.47301 0.47500
 H96 H 0.43142 0.51733 0.52838
 H97 H 0.57472 0.47468 0.47811
 H98 H 0.57379 0.51965 0.53006
 H99 H 0.50504 0.40948 0.40363
 H100 H 0.50127 0.58418 0.59877
 C101 C -0.02706 0.45141 0.09405
 C102 C -0.00114 0.44026 0.11120
 C103 C 0.02413 0.45315 0.09450
 C104 C 0.02366 0.47849 0.06017
 C105 C -0.00248 0.49050 0.04313
 C106 C -0.02794 0.47691 0.06002
 C107 C -0.05355 0.48944 0.04309
 C108 C -0.05418 0.51447 0.00959
 C109 C -0.02926 0.52845 -0.00734
 C110 C -0.00314 0.51627 0.00934
 C111 C 0.04857 0.49237 0.04304
 C112 C 0.04793 0.51720 0.00919
 C113 C 0.02233 0.52983 -0.00755
 C114 C 0.02151 0.55551 -0.04115
 C115 C -0.00439 0.56694 -0.05785
 C116 C -0.02970 0.55413 -0.04097
 H117 H -0.07343 0.48014 0.05580
 H118 H -0.07451 0.52269 -0.00298
 H119 H 0.06891 0.48425 0.05568
 H120 H 0.06783 0.52634 -0.00373
 H121 H -0.00058 0.42053 0.13682
 H122 H -0.00489 0.58692 -0.08285
 C123 C 0.52214 1.05764 0.45804
 C124 C 0.49600 1.06589 0.43651
 C125 C 0.47091 1.05296 0.45394
 C126 C 0.47175 1.02840 0.48959
 C127 C 0.49775 1.01922 0.51159
 C128 C 0.52279 1.03495 0.49825
 C129 C 0.54737 1.02794 0.52662
 C130 C 0.54826 1.00363 0.56181
 C131 C 0.52437 0.98585 0.57127
 C132 C 0.49862 0.99445 0.54754
 C133 C 0.44723 1.01263 0.50329
 C134 C 0.44818 0.98806 0.53759
 C135 C 0.47373 0.97819 0.55938
 C136 C 0.47497 0.95271 0.59323
 C137 C 0.50058 0.94433 0.61585
 C138 C 0.52531 0.96025 0.60506
 H139 H 0.56615 1.04137 0.52265
 H140 H 0.56783 0.99907 0.58198
 H141 H 0.42706 1.01876 0.48677
 H142 H 0.42858 0.97697 0.54697
 H143 H 0.49481 1.08317 0.40614
 H144 H 0.50148 0.92424 0.64057
 C145 C 1.14226 0.18895 0.19890
 C146 C 1.14488 0.16429 0.16425
 C147 C 1.17218 0.15446 0.15029
 C148 C 1.19569 0.17196 0.16375
 C149 C 1.19273 0.19686 0.19747
 C150 C 1.16595 0.20418 0.21680
 C151 C 1.17567 0.12709 0.12380
 C152 C 1.15254 0.10905 0.11221
 C153 C 1.12498 0.11933 0.12210
 C154 C 1.12123 0.14852 0.14437
 C155 C 1.09426 0.16167 0.14360
 C156 C 1.07160 0.14644 0.12188
 C157 C 1.07455 0.11665 0.10488
 C158 C 1.10096 0.10210 0.10803
 C159 C 1.10205 0.07069 0.09900
 C160 C 1.07784 0.05477 0.08528
 C161 C 1.05249 0.06999 0.07501
 C162 C 1.05116 0.10114 0.08545
 H163 H 1.12215 0.19606 0.21424
 H164 H 1.21641 0.16524 0.15041
 H165 H 1.16302 0.22297 0.24351
 H166 H 1.19647 0.11910 0.11346
 H167 H 1.15654 0.08794 0.09237
 H168 H 1.09061 0.18455 0.15655
 H169 H 1.05140 0.15771 0.11999
 H170 H 1.12106 0.05782 0.10526
 H171 H 1.07911 0.03042 0.08223
 H172 H 1.03171 0.11339 0.07938
 C173 C 0.65427 0.66173 0.73532
 C174 C 0.64981 0.65155 0.68308
 C175 C 0.66808 0.66257 0.64315
 C176 C 0.68990 0.68261 0.65552
 C177 C 0.69382 0.69259 0.70739
 C178 C 0.67583 0.68188 0.74703
 C179 C 0.66439 0.65381 0.59088
 C180 C 0.64249 0.63491 0.57679
 C181 C 0.62338 0.62366 0.61474
 C182 C 0.62763 0.63133 0.66900
 C183 C 0.60962 0.61851 0.70735
 C184 C 0.58767 0.59969 0.69325
 C185 C 0.58250 0.59306 0.64048
 C186 C 0.60017 0.60492 0.60029
 C187 C 0.59341 0.59803 0.54722
 C188 C 0.57021 0.58019 0.53503
 C189 C 0.55321 0.56831 0.57506
 C190 C 0.55941 0.57487 0.62768
 H191 H 0.64120 0.65508 0.76807
 H192 H 0.70357 0.69085 0.62438
 H193 H 0.67829 0.68924 0.78746
 H194 H 0.67844 0.66195 0.56026
 H195 H 0.64133 0.62929 0.53557
 H196 H 0.61203 0.62231 0.74902
 H197 H 0.57435 0.59048 0.72413
 H198 H 0.60512 0.60662 0.51402
 H199 H 0.56526 0.57595 0.49401
 H200 H 0.54594 0.56604 0.65868
 C201 C -0.17674 0.32896 0.10210
 C202 C -0.15843 0.34303 0.13840
 C203 C -0.16234 0.33651 0.19282
 C204 C -0.18303 0.31596 0.20949
 C205 C -0.20056 0.30184 0.17285
 C206 C -0.19737 0.30881 0.11917
 C207 C -0.14555 0.35040 0.23047
 C208 C -0.12474 0.37061 0.21556
 C209 C -0.11952 0.37750 0.16191
 C210 C -0.13642 0.36319 0.12262
 C211 C -0.13036 0.36899 0.06889
 C212 C -0.10849 0.38782 0.05388
 C213 C -0.09196 0.40204 0.09155
 C214 C -0.09748 0.39763 0.14614
 C215 C -0.08040 0.41334 0.18256
 C216 C -0.05824 0.43147 0.16534
 C217 C -0.05250 0.43488 0.11151
 C218 C -0.06953 0.42027 0.07477
 H219 H -0.17592 0.33310 0.06021
 H220 H -0.18552 0.31104 0.25123
 H221 H -0.21076 0.29842 0.08994
 H222 H -0.14849 0.34556 0.27213
 H223 H -0.11268 0.37999 0.24736
 H224 H -0.14175 0.35875 0.03704
 H225 H -0.10438 0.39116 0.01214
 H226 H -0.08344 0.41210 0.22463
 H227 H -0.04520 0.44262 0.19427
 H228 H -0.06486 0.42263 0.03301
 C229 C 0.34303 0.84129 0.75388
 C230 C 0.35097 0.84884 0.70156
 C231 C 0.33652 0.83442 0.65979
 C232 C 0.31486 0.81373 0.67046
 C233 C 0.30751 0.80642 0.72256
 C234 C 0.32178 0.82046 0.76397
 C235 C 0.34392 0.84043 0.60754
 C236 C 0.36586 0.85989 0.59553
 C237 C 0.38120 0.87454 0.63556
 C238 C 0.37303 0.86968 0.68938
 C239 C 0.38709 0.88591 0.72919
 C240 C 0.40892 0.90547 0.71724
 C241 C 0.41789 0.90950 0.66534
 C242 C 0.40433 0.89405 0.62362
 C243 C 0.41492 0.89842 0.57180
 C244 C 0.43763 0.91754 0.56219
 C245 C 0.45036 0.93312 0.60353
 C246 C 0.44057 0.92885 0.65505
 H247 H 0.35314 0.85053 0.78813
 H248 H 0.30412 0.80283 0.63806
 H249 H 0.31661 0.81523 0.80467
 H250 H 0.33282 0.82968 0.57542
 H251 H 0.37003 0.86324 0.55413
 H252 H 0.38154 0.88436 0.77031
 H253 H 0.41907 0.91740 0.74919
 H254 H 0.40657 0.88700 0.53789
 H255 H 0.44546 0.92008 0.52222
 H256 H 0.45077 0.94061 0.68718
 C257 C -0.15646 0.65320 -0.23659
 C258 C -0.15233 0.64599 -0.18257
 C259 C -0.17023 0.66006 -0.14523
 C260 C -0.19108 0.68053 -0.16167
 C261 C -0.19435 0.68795 -0.21519
 C262 C -0.17703 0.67384 -0.25237
 C263 C -0.16693 0.65412 -0.09151
 C264 C -0.14557 0.63537 -0.07351
 C265 C -0.12658 0.62153 -0.10877
 C266 C -0.13064 0.62604 -0.16430
 C267 C -0.11274 0.61067 -0.19966
 C268 C -0.09084 0.59269 -0.18166
 C269 C -0.08568 0.58937 -0.12783
 C270 C -0.10350 0.60352 -0.09041
 C271 C -0.09687 0.59973 -0.03619
 C272 C -0.07340 0.58306 -0.02033
 C273 C -0.05602 0.56931 -0.05765
 C274 C -0.06233 0.57240 -0.11129
 H275 H -0.14377 0.64394 -0.26775
 H276 H -0.20430 0.69134 -0.13243
 H277 H -0.17906 0.67909 -0.29402
 H278 H -0.18078 0.66451 -0.06283
 H279 H -0.14460 0.63215 -0.03139
 H280 H -0.11508 0.61196 -0.24187
 H281 H -0.07747 0.58164 -0.21037
 H282 H -0.10882 0.61001 -0.00499
 H283 H -0.06844 0.58139 0.02132
 H284 H -0.04860 0.56204 -0.14024
 C285 C 0.34097 1.14723 0.25847
 C286 C 0.34574 1.14088 0.31256
 C287 C 0.32827 1.15555 0.34997
 C288 C 0.30754 1.17622 0.33350
 C289 C 0.30405 1.18315 0.27987
 C290 C 0.32061 1.16803 0.24268
 C291 C 0.33204 1.15016 0.40375
 C292 C 0.35353 1.13153 0.42164
 C293 C 0.37228 1.11738 0.38624
 C294 C 0.36773 1.12131 0.33074
 C295 C 0.38566 1.10601 0.29530
 C296 C 0.40809 1.08876 0.31313
 C297 C 0.41369 1.08597 0.36687
 C298 C 0.39572 1.09984 0.40440
 C299 C 0.40258 1.09631 0.45852
 C300 C 0.42649 1.08040 0.47416
 C301 C 0.44421 1.06720 0.43675
 C302 C 0.43761 1.06984 0.38319
 H303 H 0.35301 1.13719 0.22715
 H304 H 0.29483 1.18776 0.36268
 H305 H 0.31825 1.17271 0.20088
 H306 H 0.31853 1.16095 0.43252
 H307 H 0.35492 1.12885 0.46382
 H308 H 0.38311 1.10697 0.25313
 H309 H 0.42153 1.07788 0.28433
 H310 H 0.39040 1.10616 0.48985
 H311 H 0.43157 1.07893 0.51579
 H312 H 0.45147 1.05977 0.35417
 C313 C 1.15618 -0.16043 -0.24861
 C314 C 1.15203 -0.14874 -0.19728
 C315 C 1.17040 -0.15890 -0.15687
 C316 C 1.19145 -0.18032 -0.16754
 C317 C 1.19479 -0.19229 -0.21839
 C318 C 1.17710 -0.18171 -0.25878
 C319 C 1.16752 -0.14796 -0.10569
 C320 C 1.14629 -0.12776 -0.09304
 C321 C 1.12680 -0.11766 -0.13126
 C322 C 1.13004 -0.12786 -0.18451
 C323 C 1.11089 -0.11725 -0.22296
 C324 C 1.08873 -0.09836 -0.20974
 C325 C 1.08467 -0.08913 -0.15784
 C326 C 1.10383 -0.09817 -0.11786
 C327 C 1.09864 -0.08796 -0.06581
 C328 C 1.07499 -0.07062 -0.05404
 C329 C 1.05592 -0.06245 -0.09355
 C330 C 1.06106 -0.07145 -0.14551
 H331 H 1.14350 -0.15395 -0.28193
 H332 H 1.20499 -0.18794 -0.13573
 H333 H 1.17908 -0.19016 -0.29868
 H334 H 1.18169 -0.15539 -0.07474
 H335 H 1.14565 -0.12073 -0.05247
 H336 H 1.11216 -0.12337 -0.26394
 H337 H 1.07431 -0.09128 -0.24052
 H338 H 1.11196 -0.09351 -0.03287
 H339 H 1.07112 -0.06428 -0.01342
 H340 H 1.04619 -0.06527 -0.17614
 C341 C 0.65673 0.34624 0.24619
 C342 C 0.65198 0.35181 0.30048
 C343 C 0.66874 0.33574 0.33748
 C344 C 0.68894 0.31473 0.32038
 C345 C 0.69259 0.30883 0.26651
 C346 C 0.67657 0.32510 0.22976
 C347 C 0.66485 0.34016 0.39143
 C348 C 0.64396 0.35933 0.40985
 C349 C 0.62602 0.37507 0.37482
 C350 C 0.63070 0.37200 0.31922
 C351 C 0.61366 0.38886 0.28418
 C352 C 0.59191 0.40684 0.30240
 C353 C 0.58616 0.40887 0.35616
 C354 C 0.60328 0.39342 0.39341
 C355 C 0.59626 0.39636 0.44761
 C356 C 0.57294 0.41321 0.46351
 C357 C 0.55607 0.42785 0.42620
 C358 C 0.56291 0.42586 0.37271
 H359 H 0.64507 0.35722 0.21516
 H360 H 0.70119 0.30225 0.34925
 H361 H 0.67900 0.32116 0.18783
 H362 H 0.67781 0.32823 0.41990
 H363 H 0.64238 0.36118 0.45210
 H364 H 0.61643 0.38864 0.24202
 H365 H 0.57912 0.41895 0.27387
 H366 H 0.60787 0.38538 0.47873
 H367 H 0.56764 0.41430 0.50507
 H368 H 0.54963 0.43709 0.34385
 C369 C 0.85144 -0.15978 -0.25086
 C370 C 0.85554 -0.15004 -0.19830
 C371 C 0.83690 -0.16116 -0.15912
 C372 C 0.81467 -0.18034 -0.17270
 C373 C 0.81096 -0.19000 -0.22498
 C374 C 0.82968 -0.17947 -0.26374
 C375 C 0.84071 -0.15343 -0.10634
 C376 C 0.86319 -0.13566 -0.09107
 C377 C 0.88251 -0.12420 -0.12840
 C378 C 0.87782 -0.13028 -0.18313
 C379 C 0.89533 -0.11611 -0.22083
 C380 C 0.91722 -0.09746 -0.20566
 C381 C 0.92306 -0.09277 -0.15244
 C382 C 0.90611 -0.10642 -0.11291
 C383 C 0.91400 -0.10229 -0.05950
 C384 C 0.93724 -0.08477 -0.04628
 C385 C 0.95303 -0.07033 -0.08554
 C386 C 0.94600 -0.07467 -0.13856
 H387 H 0.86516 -0.15334 -0.28282
 H388 H 0.80068 -0.18840 -0.14188
 H389 H 0.82768 -0.18653 -0.30445
 H390 H 0.82637 -0.16164 -0.07625
 H391 H 0.86447 -0.13066 -0.04958
 H392 H 0.89223 -0.11837 -0.26273
 H393 H 0.92999 -0.08692 -0.23604
 H394 H 0.90320 -0.11303 -0.02708
 H395 H 0.94305 -0.08258 -0.00515
 H396 H 0.95869 -0.06411 -0.16907
 C397 C 0.35513 0.33715 0.24942
 C398 C 0.35840 0.34639 0.30259
 C399 C 0.33894 0.33510 0.34017
 C400 C 0.31715 0.31584 0.32476
 C401 C 0.31428 0.30684 0.27208
 C402 C 0.33347 0.31769 0.23464
 C403 C 0.34135 0.34284 0.39320
 C404 C 0.36310 0.36100 0.41041
 C405 C 0.38337 0.37252 0.37497
 C406 C 0.38046 0.36593 0.31991
 C407 C 0.39960 0.37921 0.28409
 C408 C 0.42130 0.39752 0.30138
 C409 C 0.42515 0.40303 0.35499
 C410 C 0.40640 0.39053 0.39274
 C411 C 0.41195 0.39604 0.44684
 C412 C 0.43500 0.41324 0.46233
 C413 C 0.45302 0.42590 0.42470
 C414 C 0.44802 0.42067 0.37111
 H415 H 0.36919 0.34406 0.21833
 H416 H 0.30256 0.30749 0.35430
 H417 H 0.33185 0.31101 0.19369
 H418 H 0.32634 0.33449 0.42199
 H419 H 0.36318 0.36593 0.45197
 H420 H 0.39823 0.37619 0.24203
 H421 H 0.43549 0.40717 0.27236
 H422 H 0.39943 0.38673 0.47836
 H423 H 0.43905 0.41634 0.50403
 H424 H 0.46232 0.43001 0.34195
 C425 C 0.15138 0.65412 -0.23230
 C426 C 0.14637 0.64648 -0.17863
 C427 C 0.16481 0.65861 -0.14039
 C428 C 0.18713 0.67736 -0.15555
 C429 C 0.19148 0.68512 -0.20866
 C430 C 0.17350 0.67316 -0.24684
 C431 C 0.16077 0.65236 -0.08696
 C432 C 0.13825 0.63506 -0.07005
 C433 C 0.11880 0.62299 -0.10617
 C434 C 0.12348 0.62785 -0.16148
 C435 C 0.10518 0.61389 -0.19765
 C436 C 0.08266 0.59651 -0.18058
 C437 C 0.07711 0.59269 -0.12691
 C438 C 0.09492 0.60604 -0.08881
 C439 C 0.08763 0.60241 -0.03484
 C440 C 0.06404 0.58586 -0.01975
 C441 C 0.04711 0.57209 -0.05757
 C442 C 0.05359 0.57578 -0.11112
 H443 H 0.13826 0.64637 -0.26400
 H444 H 0.20080 0.68654 -0.12547
 H445 H 0.17628 0.67884 -0.28817
 H446 H 0.17504 0.66128 -0.05764
 H447 H 0.13691 0.63126 -0.02811
 H448 H 0.10785 0.61564 -0.23977
 H449 H 0.06920 0.58623 -0.20986
 H450 H 0.09925 0.61263 -0.00325
 H451 H 0.05881 0.58396 0.02179
 H452 H 0.04011 0.56559 -0.14050
 C453 C 0.63261 1.18234 0.27498
 C454 C 0.63666 1.15964 0.31357
 C455 C 0.66443 1.15010 0.32453
 C456 C 0.68730 1.16648 0.30414
 C457 C 0.68297 1.18984 0.26715
 C458 C 0.65547 1.19637 0.25075
 C459 C 0.66897 1.12429 0.35550
 C460 C 0.64637 1.10757 0.37486
 C461 C 0.61855 1.11787 0.36816
 C462 C 0.61398 1.14564 0.34074
 C463 C 0.58733 1.15942 0.34385
 C464 C 0.56575 1.14611 0.37267
 C465 C 0.56921 1.11742 0.39500
 C466 C 0.59519 1.10216 0.39016
 C467 C 0.59638 1.07146 0.40545
 C468 C 0.57266 1.05686 0.42579
 C469 C 0.54784 1.07300 0.43637
 C470 C 0.54662 1.10359 0.42104
 H471 H 0.61190 1.18891 0.26183
 H472 H 0.70850 1.16026 0.31543
 H473 H 0.65144 1.21390 0.22165
 H474 H 0.69012 1.11652 0.36362
 H475 H 0.65117 1.08765 0.39803
 H476 H 0.58328 1.18147 0.32699
 H477 H 0.54586 1.15790 0.37585
 H478 H 0.61491 1.05789 0.39880
 H479 H 0.57378 1.03276 0.43292
 H480 H 0.52770 1.11661 0.42786
 C481 C 0.18031 0.34021 0.11082
 C482 C 0.16207 0.35541 0.14608
 C483 C 0.16650 0.35096 0.20094
 C484 C 0.18735 0.33099 0.21913
 C485 C 0.20424 0.31502 0.18356
 C486 C 0.20091 0.32036 0.12938
 C487 C 0.14973 0.36589 0.23756
 C488 C 0.12795 0.38454 0.22122
 C489 C 0.12177 0.38881 0.16716
 C490 C 0.13931 0.37427 0.12890
 C491 C 0.13302 0.37838 0.07484
 C492 C 0.11002 0.39528 0.05859
 C493 C 0.09242 0.40902 0.09527
 C494 C 0.09823 0.40652 0.15008
 C495 C 0.07974 0.42135 0.18544
 C496 C 0.05624 0.43703 0.16704
 C497 C 0.05047 0.43877 0.11306
 C498 C 0.06867 0.42484 0.07731
 H499 H 0.17908 0.34273 0.06860
 H500 H 0.18991 0.32732 0.26122
 H501 H 0.21382 0.30855 0.10092
 H502 H 0.15324 0.36282 0.27955
 H503 H 0.11600 0.39487 0.25237
 H504 H 0.14517 0.36832 0.04370
 H505 H 0.10578 0.39731 0.01666
 H506 H 0.08254 0.42109 0.22759
 H507 H 0.04224 0.44762 0.19519
 H508 H 0.06396 0.42587 0.03545
 C509 C 0.68032 0.84722 0.62428
 C510 C 0.66135 0.86113 0.65978
 C511 C 0.66334 0.85302 0.71393
 C512 C 0.68307 0.83144 0.73107
 C513 C 0.70113 0.81734 0.69505
 C514 C 0.69975 0.82577 0.64173
 C515 C 0.64532 0.86607 0.75072
 C516 C 0.62460 0.88626 0.73498
 C517 C 0.62094 0.89427 0.68135
 C518 C 0.64009 0.88211 0.64329
 C519 C 0.63700 0.89086 0.58987
 C520 C 0.61515 0.90944 0.57361
 C521 C 0.59554 0.92025 0.60970
 C522 C 0.59837 0.91343 0.66427
 C523 C 0.57780 0.92526 0.69906
 C524 C 0.55489 0.94171 0.67995
 C525 C 0.55186 0.94734 0.62590
 C526 C 0.57252 0.93705 0.59108
 H527 H 0.68053 0.85194 0.58256
 H528 H 0.68402 0.82526 0.77252
 H529 H 0.71349 0.81539 0.61294
 H530 H 0.64697 0.86024 0.79225
 H531 H 0.61154 0.89497 0.76610
 H532 H 0.65095 0.88344 0.55912
 H533 H 0.61330 0.91495 0.53198
 H534 H 0.57825 0.92154 0.74108
 H535 H 0.53898 0.94938 0.70740
 H536 H 0.56996 0.94098 0.54904
 C537 C 0.81468 0.15215 0.09445
 C538 C 0.83513 0.13913 0.12830
 C539 C 0.83264 0.14486 0.18313
 C540 C 0.81164 0.16423 0.20232
 C541 C 0.79258 0.17822 0.16784
 C542 C 0.79388 0.17137 0.11401
 C543 C 0.85149 0.13184 0.21860
 C544 C 0.87342 0.11387 0.20097
 C545 C 0.87772 0.10849 0.14665
 C546 C 0.85818 0.12124 0.10968
 C547 C 0.86288 0.11653 0.05528
 C548 C 0.88613 0.10068 0.03737
 C549 C 0.90550 0.08849 0.07273
 C550 C 0.90137 0.09157 0.12792
 C551 C 0.92151 0.07806 0.16190
 C552 C 0.94507 0.06326 0.14169
 C553 C 0.94928 0.06115 0.08723
 C554 C 0.92936 0.07369 0.05296
 H555 H 0.81426 0.14829 0.05254
 H556 H 0.81060 0.16899 0.24423
 H557 H 0.77925 0.18159 0.08649
 H558 H 0.84950 0.13591 0.26062
 H559 H 0.88710 0.10512 0.23121
 H560 H 0.84931 0.12549 0.02505
 H561 H 0.88912 0.09821 -0.00483
 H562 H 0.91990 0.07862 0.20426
 H563 H 0.96031 0.05369 0.16876
 H564 H 0.93279 0.07239 0.01068
 C565 C 0.34635 0.65138 0.74623
 C566 C 0.35091 0.64230 0.69329
 C567 C 0.33222 0.65360 0.65436
 C568 C 0.31022 0.67316 0.66813
 C569 C 0.30644 0.68247 0.72046
 C570 C 0.32455 0.67116 0.75935
 C571 C 0.33578 0.64581 0.60156
 C572 C 0.35810 0.62782 0.58587
 C573 C 0.37785 0.61664 0.62263
 C574 C 0.37363 0.62307 0.67747
 C575 C 0.39233 0.61017 0.71453
 C576 C 0.41491 0.59254 0.69866
 C577 C 0.42007 0.58730 0.64532
 C578 C 0.40171 0.59926 0.60638
 C579 C 0.40850 0.59396 0.55268
 C580 C 0.43238 0.57752 0.53870
 C581 C 0.45006 0.56548 0.57746
 C582 C 0.44385 0.57048 0.63069
 H583 H 0.35960 0.64425 0.77838
 H584 H 0.29641 0.68177 0.63753
 H585 H 0.32217 0.67799 0.80011
 H586 H 0.32132 0.65408 0.57176
 H587 H 0.35911 0.62290 0.54435
 H588 H 0.39002 0.61308 0.75647
 H589 H 0.42876 0.58325 0.72858
 H590 H 0.39631 0.60285 0.52037
 H591 H 0.43732 0.57451 0.49729
 H592 H 0.45786 0.56157 0.66072
   
