data_POSCAR
  _audit_creation_date              2014-09-24
  _audit_creation_method            'ToBaCCo'
  _symmetry_space_group_name_H-M    'P1'
  _symmetry_Int_Tables_number       1
  _symmetry_cell_setting            triclinic
  loop_
  _symmetry_equiv_pos_as_xyz
 x,y,z
_cell_length_a 48.8654
_cell_length_b 49.0851
_cell_length_c 48.8748
_cell_angle_alpha 90.043600
_cell_angle_beta 89.949600
_cell_angle_gamma 90.045000
loop_
  _atom_site_label
  _atom_site_type_symbol
  _atom_site_fract_x
  _atom_site_fract_y
  _atom_site_fract_z
C1 C 0.32675 0.36015 1.36287
 C2 C 0.33935 0.33654 1.37293
 C3 C 0.36254 0.32596 1.35977
 C4 C 0.37312 0.33903 1.33656
 C5 C 0.36054 0.36262 1.32650
 C6 C 0.33738 0.37318 1.33966
 H7 H 0.33104 0.32635 1.39081
 H8 H 0.39097 0.33082 1.32622
 H9 H 0.32759 0.39137 1.33172
 C10 C 1.17409 0.64104 0.86434
 C11 C 1.16343 0.62783 0.84124
 C12 C 1.14005 0.63809 0.82829
 C13 C 1.12729 0.66156 0.83845
 C14 C 1.13790 0.67480 0.86152
 C15 C 1.16129 0.66453 0.87447
 H16 H 1.17337 0.60973 0.83322
 H17 H 1.10928 0.66960 0.82832
 H18 H 1.16956 0.67492 0.89225
 C19 C 0.67436 -0.14199 0.13617
 C20 C 0.66390 -0.12889 0.15944
 C21 C 0.64053 -0.13914 0.17248
 C22 C 0.62756 -0.16248 0.16225
 C23 C 0.63797 -0.17562 0.13899
 C24 C 0.66137 -0.16535 0.12594
 H25 H 0.67399 -0.11090 0.16752
 H26 H 0.60955 -0.17046 0.17250
 H27 H 0.66954 -0.17560 0.10802
 C28 C -0.17307 1.13977 -0.36249
 C29 C -0.16263 1.12690 -0.33915
 C30 C -0.13929 1.13730 -0.32621
 C31 C -0.12635 1.16058 -0.33662
 C32 C -0.13677 1.17349 -0.35997
 C33 C -0.16013 1.16304 -0.37290
 H34 H -0.17273 1.10897 -0.33101
 H35 H -0.10835 1.16867 -0.32646
 H36 H -0.16835 1.17304 -0.39090
 C37 C 0.67361 0.64150 0.63572
 C38 C 0.66060 0.66468 0.62523
 C39 C 0.63723 0.67507 0.63817
 C40 C 0.62686 0.66226 0.66159
 C41 C 0.63985 0.63909 0.67210
 C42 C 0.66321 0.62871 0.65915
 H43 H 0.66874 0.67468 0.60719
 H44 H 0.60887 0.67040 0.67171
 H45 H 0.67336 0.61087 0.66737
 C46 C 0.82706 0.36073 0.13721
 C47 C 0.83785 0.37361 0.16041
 C48 C 0.86100 0.36287 0.17338
 C49 C 0.87341 0.33924 0.16312
 C50 C 0.86263 0.32632 0.13990
 C51 C 0.83946 0.33711 0.12696
 H52 H 0.82815 0.39180 0.16846
 H53 H 0.89124 0.33087 0.17331
 H54 H 0.83095 0.32708 0.10909
 C55 C 0.32515 0.14009 0.86237
 C56 C 0.33791 0.16361 0.87252
 C57 C 0.36115 0.17409 0.85941
 C58 C 0.37165 0.16106 0.83617
 C59 C 0.35893 0.13756 0.82599
 C60 C 0.33569 0.12707 0.83910
 H61 H 0.32973 0.17384 0.89044
 H62 H 0.38955 0.16926 0.82593
 H63 H 0.32580 0.10895 0.83108
 C64 C 0.17422 0.85841 0.36366
 C65 C 0.16129 0.83504 0.37395
 C66 C 0.13794 0.82468 0.36096
 C67 C 0.12748 0.83768 0.33772
 C68 C 0.14037 0.86103 0.32741
 C69 C 0.16372 0.87140 0.34039
 H70 H 0.16944 0.82482 0.39185
 H71 H 0.10951 0.82956 0.32757
 H72 H 0.17376 0.88938 0.33226
 Zn73 Zn 0.00433 1.03424 -0.01448
 Zn74 Zn -0.02154 0.97918 -0.02039
 Zn75 Zn 0.03344 0.98485 0.00610
 Zn76 Zn -0.01652 1.00502 0.03493
 O77 O -0.00009 1.00081 0.00152
 O78 O -0.01306 1.03684 -0.04656
 O79 O -0.00436 0.94872 -0.03125
 O80 O 0.06102 1.00550 -0.00632
 O81 O -0.03224 0.99614 -0.05109
 O82 O 0.03943 1.04217 -0.02154
 O83 O 0.03627 0.95305 -0.01157
 O84 O 0.00395 0.99249 0.06259
 O85 O -0.05232 0.96816 -0.00365
 O86 O 0.04103 0.97756 0.04119
 O87 O -0.04844 0.98730 0.03727
 O88 O -0.02404 1.03987 0.04279
 O89 O -0.00857 1.06157 0.00615
 C90 C -0.02754 1.02000 -0.05985
 C91 C 0.01955 0.93995 -0.02638
 C92 C 0.06123 1.02880 -0.01748
 C93 C 0.02737 0.98143 0.06290
 C94 C -0.06139 0.97271 0.02023
 C95 C -0.02002 1.06162 0.02943
 Zn96 Zn 0.53315 -0.01510 0.49391
 Zn97 Zn 0.47808 -0.02060 0.52031
 Zn98 Zn 0.50418 0.03436 0.51464
 Zn99 Zn 0.48337 0.00534 0.46509
 O100 O 0.49968 0.00099 0.49851
 O101 O 0.53581 -0.04694 0.51149
 O102 O 0.46732 -0.00365 0.55104
 O103 O 0.53929 0.04212 0.52179
 O104 O 0.49511 -0.05114 0.53111
 O105 O 0.56078 0.00541 0.50642
 O106 O 0.48667 0.03699 0.54669
 O107 O 0.47606 0.04024 0.45732
 O108 O 0.44732 -0.03148 0.50348
 O109 O 0.49151 0.06180 0.49406
 O110 O 0.45138 -0.01223 0.46265
 O111 O 0.50386 -0.00724 0.43741
 O112 O 0.54081 -0.02238 0.45881
 C113 C 0.51899 -0.06000 0.52624
 C114 C 0.47206 0.02018 0.55989
 C115 C 0.56104 0.02868 0.51768
 C116 C 0.48017 0.06196 0.47075
 C117 C 0.43834 -0.02683 0.47961
 C118 C 0.52723 -0.01841 0.43709
 Zn119 Zn 1.00567 0.46520 0.48523
 Zn120 Zn 1.03439 0.51470 0.50625
 Zn121 Zn 0.97944 0.52005 0.47968
 Zn122 Zn 0.98451 0.49392 0.53482
 O123 O 1.00098 0.49848 0.50148
 O124 O 1.04083 0.45762 0.47817
 O125 O 1.03706 0.54661 0.48879
 O126 O 0.96888 0.50317 0.44885
 O127 O 1.06215 0.49435 0.49376
 O128 O 0.98834 0.46261 0.45310
 O129 O 0.99645 0.55070 0.46904
 O130 O 0.95246 0.51134 0.53722
 O131 O 1.04184 0.52187 0.54141
 O132 O 0.94857 0.53074 0.49645
 O133 O 1.00483 0.50647 0.56262
 O134 O 0.97726 0.45895 0.54242
 O135 O 0.99298 0.43763 0.50564
 C136 C 1.06253 0.47113 0.48242
 C137 C 1.02028 0.55963 0.47402
 C138 C 0.97375 0.47940 0.43992
 C139 C 0.93947 0.52596 0.52027
 C140 C 1.02817 0.51774 0.56306
 C141 C 0.98152 0.43731 0.52891
 Zn142 Zn 0.48363 0.49568 0.96566
 Zn143 Zn 0.53345 0.51635 0.99435
 Zn144 Zn 0.47843 0.52167 1.02091
 Zn145 Zn 0.50466 0.46680 1.01514
 O146 O 0.50002 0.50014 0.99903
 O147 O 0.50402 0.50829 0.93793
 O148 O 0.53609 0.54820 1.01195
 O149 O 0.44760 0.53241 1.00416
 O150 O 0.54099 0.52361 0.95923
 O151 O 0.45160 0.51312 0.96332
 O152 O 0.49543 0.55228 1.03168
 O153 O 0.48726 0.46415 1.04725
 O154 O 0.56116 0.49595 1.00677
 O155 O 0.46781 0.50471 1.05167
 O156 O 0.53980 0.45917 1.02217
 O157 O 0.49196 0.43929 0.99461
 O158 O 0.47636 0.46074 0.95791
 C159 C 0.52737 0.51955 0.93755
 C160 C 0.51929 0.56121 1.02677
 C161 C 0.43856 0.52769 0.98031
 C162 C 0.47265 0.48092 1.06050
 C163 C 0.56152 0.47269 1.01800
 C164 C 0.48055 0.43906 0.97134
 C165 C 1.30392 0.37014 0.37534
 C166 C 1.28360 0.37893 0.38621
 C167 C 1.25919 0.38936 0.39893
 C168 C 1.25109 0.41629 0.39424
 C169 C 1.22705 0.42629 0.40607
 C170 C 1.21075 0.40944 0.42274
 C171 C 1.21918 0.38244 0.42747
 C172 C 1.24324 0.37249 0.41564
 C173 C 1.18486 0.41987 0.43473
 C174 C 1.16127 0.40340 0.43534
 C175 C 1.13668 0.41350 0.44587
 C176 C 1.13533 0.44015 0.45598
 C177 C 1.15873 0.45660 0.45573
 C178 C 1.18334 0.44655 0.44519
 C179 C 1.10975 0.45087 0.46585
 C180 C 1.08823 0.46002 0.47367
 H181 H 1.26323 0.42949 0.38125
 H182 H 1.22093 0.44704 0.40173
 H183 H 1.20726 0.36908 0.44047
 H184 H 1.24935 0.35162 0.41943
 H185 H 1.16168 0.38292 0.42711
 H186 H 1.11865 0.40064 0.44583
 H187 H 1.15790 0.47726 0.46352
 H188 H 1.20121 0.45960 0.44533
 C189 C 0.19714 0.63136 0.87659
 C190 C 0.21767 0.62283 0.88724
 C191 C 0.24233 0.61268 0.89965
 C192 C 0.24118 0.59089 0.91806
 C193 C 0.26523 0.58070 0.92968
 C194 C 0.29077 0.59221 0.92301
 C195 C 0.29166 0.61424 0.90462
 C196 C 0.26760 0.62438 0.89303
 C197 C 0.31642 0.58099 0.93475
 C198 C 0.33774 0.59845 0.94298
 C199 C 0.36222 0.58779 0.95319
 C200 C 0.36571 0.55958 0.95532
 C201 C 0.34453 0.54205 0.94746
 C202 C 0.32004 0.55266 0.93726
 C203 C 0.39130 0.54856 0.96476
 C204 C 0.41284 0.53914 0.97215
 H205 H 0.22171 0.58172 0.92337
 H206 H 0.26383 0.56394 0.94401
 H207 H 0.31101 0.62329 0.89878
 H208 H 0.26873 0.64119 0.87872
 H209 H 0.33546 0.62034 0.94162
 H210 H 0.37849 0.60155 0.95923
 H211 H 0.34707 0.52017 0.94888
 H212 H 0.30417 0.53867 0.93076
 C213 C -0.30259 0.86770 0.12384
 C214 C -0.28207 0.87626 0.11315
 C215 C -0.25741 0.88646 0.10070
 C216 C -0.25864 0.90781 0.08178
 C217 C -0.23460 0.91810 0.07017
 C218 C -0.20899 0.90715 0.07735
 C219 C -0.20801 0.88555 0.09625
 C220 C -0.23206 0.87531 0.10784
 C221 C -0.18335 0.91852 0.06564
 C222 C -0.16169 0.90122 0.05800
 C223 C -0.13723 0.91204 0.04783
 C224 C -0.13410 0.94025 0.04514
 C225 C -0.15562 0.95761 0.05240
 C226 C -0.18010 0.94684 0.06256
 C227 C -0.10855 0.95146 0.03575
 C228 C -0.08705 0.96105 0.02838
 H229 H -0.27817 0.91656 0.07607
 H230 H -0.23606 0.93451 0.05545
 H231 H -0.18860 0.87694 0.10249
 H232 H -0.23087 0.85885 0.12255
 H233 H -0.16369 0.87932 0.05981
 H234 H -0.12070 0.89841 0.04227
 H235 H -0.15336 0.97949 0.05054
 H236 H -0.19623 0.96071 0.06860
 C237 C 0.80267 0.12935 0.62451
 C238 C 0.78223 0.12069 0.61377
 C239 C 0.75770 0.11042 0.60117
 C240 C 0.75041 0.08303 0.60431
 C241 C 0.72631 0.07313 0.59255
 C242 C 0.70912 0.09055 0.57749
 C243 C 0.71671 0.11803 0.57432
 C244 C 0.74085 0.12788 0.58609
 C245 C 0.68319 0.08017 0.56553
 C246 C 0.65918 0.09595 0.56665
 C247 C 0.63460 0.08586 0.55610
 C248 C 0.63368 0.05992 0.54425
 C249 C 0.65749 0.04417 0.54279
 C250 C 0.68210 0.05421 0.55334
 C251 C 0.60814 0.04914 0.53434
 C252 C 0.58667 0.03992 0.52648
 H253 H 0.76326 0.06936 0.61604
 H254 H 0.72084 0.05198 0.59568
 H255 H 0.70410 0.13186 0.56258
 H256 H 0.74632 0.14911 0.58350
 H257 H 0.65927 0.11585 0.57623
 H258 H 0.61625 0.09816 0.55747
 H259 H 0.65701 0.02406 0.53365
 H260 H 0.70030 0.04172 0.55186
 C261 C 0.37446 0.30273 0.36925
 C262 C 0.38481 0.28205 0.37759
 C263 C 0.39688 0.25722 0.38750
 C264 C 0.38384 0.23228 0.38275
 C265 C 0.39535 0.20812 0.39254
 C266 C 0.42009 0.20859 0.40725
 C267 C 0.43308 0.23378 0.41186
 C268 C 0.42154 0.25793 0.40203
 C269 C 0.43206 0.18294 0.41800
 C270 C 0.44369 0.18209 0.44432
 C271 C 0.45425 0.15775 0.45471
 C272 C 0.45339 0.13395 0.43894
 C273 C 0.44213 0.13463 0.41264
 C274 C 0.43154 0.15895 0.40221
 C275 C 0.46336 0.10868 0.45002
 C276 C 0.47129 0.08740 0.45942
 H277 H 0.36470 0.23151 0.37161
 H278 H 0.38464 0.18912 0.38900
 H279 H 0.45230 0.23478 0.42283
 H280 H 0.43184 0.27713 0.40576
 H281 H 0.44408 0.20012 0.45710
 H282 H 0.46281 0.15741 0.47515
 H283 H 0.44137 0.11633 0.40025
 H284 H 0.42306 0.15902 0.38175
 C285 C 0.87552 0.19639 0.63016
 C286 C 0.88620 0.21676 0.62145
 C287 C 0.89870 0.24122 0.61105
 C288 C 0.91421 0.25786 0.62839
 C289 C 0.92585 0.28192 0.61843
 C290 C 0.92212 0.28966 0.59096
 C291 C 0.90664 0.27267 0.57366
 C292 C 0.89500 0.24864 0.58367
 C293 C 0.93393 0.31552 0.58048
 C294 C 0.94557 0.31675 0.55416
 C295 C 0.95601 0.34129 0.54405
 C296 C 0.95498 0.36490 0.56009
 C297 C 0.94367 0.36384 0.58638
 C298 C 0.93323 0.33932 0.59654
 C299 C 0.96483 0.39036 0.54929
 C300 C 0.97269 0.41176 0.54008
 H301 H 0.91723 0.25228 0.64961
 H302 H 0.93794 0.29439 0.63216
 H303 H 0.90307 0.27824 0.55253
 H304 H 0.88293 0.23596 0.57011
 H305 H 0.94672 0.29872 0.54145
 H306 H 0.96474 0.34189 0.52367
 H307 H 0.94264 0.38203 0.59891
 H308 H 0.92408 0.33912 0.61672
 C309 C 0.12510 0.69923 -0.12841
 C310 C 0.11456 0.71982 -0.12006
 C311 C 0.10221 0.74454 -0.11016
 C312 C 0.08052 0.74342 -0.09147
 C313 C 0.06881 0.76748 -0.08158
 C314 C 0.07865 0.79300 -0.09029
 C315 C 0.10037 0.79388 -0.10920
 C316 C 0.11206 0.76981 -0.11904
 C317 C 0.06665 0.81861 -0.07940
 C318 C 0.06247 0.84117 -0.09665
 C319 C 0.05196 0.86553 -0.08618
 C320 C 0.04547 0.86767 -0.05836
 C321 C 0.04928 0.84527 -0.04110
 C322 C 0.05977 0.82088 -0.05152
 C323 C 0.03573 0.89308 -0.04736
 C324 C 0.02806 0.91445 -0.03791
 H325 H 0.07269 0.72396 -0.08451
 H326 H 0.05191 0.76613 -0.06730
 H327 H 0.10866 0.81319 -0.11600
 H328 H 0.12889 0.77091 -0.13343
 H329 H 0.06723 0.83995 -0.11825
 H330 H 0.04908 0.88275 -0.09973
 H331 H 0.04447 0.84675 -0.01950
 H332 H 0.06309 0.80402 -0.03765
 C333 C 0.62566 0.80138 1.12937
 C334 C 0.61493 0.78090 1.12095
 C335 C 0.60236 0.75631 1.11096
 C336 C 0.58189 0.75760 1.09098
 C337 C 0.57001 0.73365 1.08100
 C338 C 0.57844 0.70808 1.09090
 C339 C 0.59892 0.70704 1.11110
 C340 C 0.61079 0.73100 1.12103
 C341 C 0.56632 0.68257 1.07989
 C342 C 0.56039 0.66056 1.09737
 C343 C 0.54983 0.63624 1.08683
 C344 C 0.54503 0.63359 1.05873
 C345 C 0.55057 0.65546 1.04122
 C346 C 0.56112 0.67980 1.05171
 C347 C 0.53530 0.60817 1.04771
 C348 C 0.52768 0.58677 1.03828
 H349 H 0.57517 0.77709 1.08309
 H350 H 0.55407 0.73514 1.06570
 H351 H 0.60614 0.68768 1.11885
 H352 H 0.62668 0.72978 1.13643
 H353 H 0.56384 0.66218 1.11919
 H354 H 0.54561 0.61943 1.10057
 H355 H 0.54708 0.65358 1.01941
 H356 H 0.56580 0.69622 1.03768
 C357 C 0.37111 0.37570 1.30236
 C358 C 0.37988 0.38649 1.28200
 C359 C 0.39029 0.39911 1.25754
 C360 C 0.41760 0.39526 1.24987
 C361 C 0.42759 0.40698 1.22579
 C362 C 0.41035 0.42271 1.20902
 C363 C 0.38295 0.42661 1.21702
 C364 C 0.37301 0.41488 1.24113
 C365 C 0.42079 0.43455 1.18307
 C366 C 0.40458 0.43417 1.15928
 C367 C 0.41473 0.44452 1.13464
 C368 C 0.44117 0.45544 1.13343
 C369 C 0.45734 0.45619 1.15704
 C370 C 0.44724 0.44583 1.18170
 C371 C 0.45202 0.46503 1.10780
 C372 C 0.46131 0.47257 1.08624
 H373 H 0.43112 0.38299 1.26237
 H374 H 0.44866 0.40328 1.22001
 H375 H 0.36927 0.43888 1.20473
 H376 H 0.35184 0.41803 1.24691
 H377 H 0.38428 0.42530 1.15957
 H378 H 0.40209 0.44370 1.11645
 H379 H 0.47784 0.46460 1.15633
 H380 H 0.46008 0.44674 1.19973
 C381 C 0.63015 -0.12603 0.19670
 C382 C 0.62155 -0.11523 0.21713
 C383 C 0.61134 -0.10261 0.24168
 C384 C 0.62355 -0.10839 0.26690
 C385 C 0.61343 -0.09653 0.29086
 C386 C 0.59090 -0.07872 0.28991
 C387 C 0.57885 -0.07292 0.26443
 C388 C 0.58903 -0.08480 0.24048
 C389 C 0.57976 -0.06663 0.31547
 C390 C 0.55131 -0.06458 0.31949
 C391 C 0.54082 -0.05396 0.34388
 C392 C 0.55857 -0.04519 0.36455
 C393 C 0.58690 -0.04688 0.36065
 C394 C 0.59744 -0.05751 0.33628
 C395 C 0.54770 -0.03520 0.39002
 C396 C 0.53844 -0.02727 0.41146
 H397 H 0.64077 -0.12223 0.26807
 H398 H 0.62290 -0.10171 0.31019
 H399 H 0.56170 -0.05904 0.26299
 H400 H 0.57946 -0.08014 0.22105
 H401 H 0.53717 -0.07175 0.30404
 H402 H 0.51886 -0.05287 0.34675
 H403 H 0.60083 -0.04013 0.37651
 H404 H 0.61942 -0.05849 0.33365
 C405 C -0.12886 1.12436 -0.30195
 C406 C -0.12018 1.11370 -0.28152
 C407 C -0.10986 1.10121 -0.25698
 C408 C -0.08235 1.10444 -0.24974
 C409 C -0.07241 1.09282 -0.22562
 C410 C -0.08989 1.07783 -0.20837
 C411 C -0.11749 1.07456 -0.21593
 C412 C -0.12738 1.08618 -0.24008
 C413 C -0.07948 1.06610 -0.18238
 C414 C -0.09536 1.06730 -0.15837
 C415 C -0.08520 1.05703 -0.13372
 C416 C -0.05909 1.04539 -0.13272
 C417 C -0.04325 1.04383 -0.15654
 C418 C -0.05336 1.05410 -0.18121
 C419 C -0.04822 1.03585 -0.10711
 C420 C -0.03890 1.02833 -0.08557
 H421 H -0.06864 1.11613 -0.26263
 H422 H -0.05117 1.09603 -0.22018
 H423 H -0.13137 1.06286 -0.20326
 H424 H -0.14870 1.08352 -0.24552
 H425 H -0.11538 1.07673 -0.15852
 H426 H -0.09758 1.05848 -0.11537
 H427 H -0.02301 1.03485 -0.15599
 H428 H -0.04079 1.05256 -0.19940
 C429 C 1.12943 0.62485 0.80425
 C430 C 1.12060 0.61397 0.78397
 C431 C 1.11010 0.60126 0.75960
 C432 C 1.08311 0.60609 0.75139
 C433 C 1.07306 0.59428 0.72738
 C434 C 1.08992 0.57748 0.71122
 C435 C 1.11697 0.57260 0.71976
 C436 C 1.12697 0.58442 0.74380
 C437 C 1.07944 0.56550 0.68534
 C438 C 1.09607 0.56466 0.66183
 C439 C 1.08594 0.55413 0.63726
 C440 C 1.05911 0.54425 0.63585
 C441 C 1.04249 0.54474 0.65918
 C442 C 1.05257 0.55528 0.68378
 C443 C 1.04837 0.53436 0.61029
 C444 C 1.03923 0.52652 0.58878
 H445 H 1.06991 0.61919 0.76341
 H446 H 1.05228 0.59874 0.72116
 H447 H 1.13033 0.55950 0.70795
 H448 H 1.14788 0.58051 0.75000
 H449 H 1.11670 0.57270 0.66227
 H450 H 1.09893 0.55398 0.61928
 H451 H 1.02169 0.53713 0.65832
 H452 H 1.03939 0.55533 0.70160
 C453 C 0.69793 0.63112 0.62278
 C454 C 0.71843 0.62243 0.61218
 C455 C 0.74307 0.61205 0.59986
 C456 C 0.74214 0.58874 0.58339
 C457 C 0.76619 0.57830 0.57195
 C458 C 0.79152 0.59108 0.57686
 C459 C 0.79218 0.61464 0.59328
 C460 C 0.76811 0.62502 0.60470
 C461 C 0.81720 0.57963 0.56537
 C462 C 0.83774 0.59691 0.55502
 C463 C 0.86225 0.58611 0.54499
 C464 C 0.86656 0.55793 0.54515
 C465 C 0.84617 0.54056 0.55516
 C466 C 0.82164 0.55130 0.56518
 C467 C 0.89218 0.54685 0.53580
 C468 C 0.91373 0.53741 0.52844
 H469 H 0.72285 0.57857 0.57947
 H470 H 0.76497 0.56034 0.55914
 H471 H 0.81138 0.62472 0.59776
 H472 H 0.76907 0.64302 0.61751
 H473 H 0.83480 0.61877 0.55457
 H474 H 0.87790 0.59975 0.53727
 H475 H 0.84935 0.51872 0.55552
 H476 H 0.80641 0.53749 0.57335
 C477 C 0.80294 0.37145 1.12425
 C478 C 0.78259 0.38030 1.11354
 C479 C 0.75815 0.39078 1.10097
 C480 C 0.74222 0.37397 1.08418
 C481 C 0.71814 0.38395 1.07245
 C482 C 0.70969 0.41091 1.07737
 C483 C 0.72596 0.42770 1.09413
 C484 C 0.75002 0.41767 1.10585
 C485 C 0.68379 0.42138 1.06547
 C486 C 0.68226 0.44809 1.05516
 C487 C 0.65765 0.45815 1.04467
 C488 C 0.63427 0.44167 1.04433
 C489 C 0.63564 0.41499 1.05429
 C490 C 0.66023 0.40488 1.06477
 C491 C 0.60870 0.45239 1.03450
 C492 C 0.58720 0.46155 1.02671
 H493 H 0.74836 0.35313 1.08024
 H494 H 0.70624 0.37064 1.05939
 H495 H 0.71982 0.44842 1.09861
 H496 H 0.76214 0.43082 1.11890
 H497 H 0.70012 0.46117 1.05510
 H498 H 0.65682 0.47884 1.03700
 H499 H 0.61763 0.40210 1.05425
 H500 H 0.66065 0.38436 1.07288
 C501 C 0.30228 1.13016 -0.12516
 C502 C 0.28193 1.12145 -0.11427
 C503 C 0.25750 1.11110 -0.10151
 C504 C 0.25019 1.08372 -0.10477
 C505 C 0.22617 1.07376 -0.09287
 C506 C 0.20909 1.09110 -0.07754
 C507 C 0.21671 1.11856 -0.07424
 C508 C 0.24076 1.12847 -0.08615
 C509 C 0.18322 1.08067 -0.06547
 C510 C 0.15921 1.09647 -0.06630
 C511 C 0.13467 1.08631 -0.05568
 C512 C 0.13379 1.06028 -0.04405
 C513 C 0.15760 1.04452 -0.04286
 C514 C 0.18217 1.05462 -0.05348
 C515 C 0.10828 1.04943 -0.03411
 C516 C 0.08683 1.04013 -0.02625
 H517 H 0.26295 1.07013 -0.11671
 H518 H 0.22068 1.05263 -0.09610
 H519 H 0.20417 1.13233 -0.06229
 H520 H 0.24625 1.14970 -0.08346
 H521 H 0.15926 1.11643 -0.07571
 H522 H 0.11631 1.09863 -0.05684
 H523 H 0.15715 1.02434 -0.03389
 H524 H 0.20037 1.04212 -0.05222
 C525 C 0.19725 -0.13182 0.37592
 C526 C 0.21777 -0.12321 0.38655
 C527 C 0.24244 -0.11297 0.39892
 C528 C 0.24115 -0.09225 0.41855
 C529 C 0.26519 -0.08195 0.43013
 C530 C 0.29087 -0.09229 0.42221
 C531 C 0.29191 -0.11325 0.40258
 C532 C 0.26785 -0.12349 0.39102
 C533 C 0.31649 -0.08094 0.43394
 C534 C 0.33848 -0.09818 0.44067
 C535 C 0.36291 -0.08737 0.45088
 C536 C 0.36568 -0.05923 0.45452
 C537 C 0.34384 -0.04194 0.44817
 C538 C 0.31939 -0.05270 0.43798
 C539 C 0.39120 -0.04799 0.46396
 C540 C 0.41267 -0.03842 0.47139
 H541 H 0.22157 -0.08399 0.42485
 H542 H 0.26370 -0.06605 0.44542
 H543 H 0.31135 -0.12137 0.39575
 H544 H 0.26909 -0.13947 0.37576
 H545 H 0.33676 -0.12003 0.43813
 H546 H 0.37969 -0.10094 0.45574
 H547 H 0.34583 -0.02010 0.45077
 H548 H 0.30299 -0.03887 0.43265
 C549 C 0.62420 -0.30082 0.62770
 C550 C 0.61344 -0.28050 0.61901
 C551 C 0.60084 -0.25609 0.60870
 C552 C 0.60370 -0.24907 0.58111
 C553 C 0.59198 -0.22507 0.57118
 C554 C 0.57726 -0.20771 0.58878
 C555 C 0.57435 -0.21505 0.61646
 C556 C 0.58607 -0.23909 0.62633
 C557 C 0.56543 -0.18186 0.57837
 C558 C 0.56698 -0.15785 0.59407
 C559 C 0.55662 -0.13333 0.58391
 C560 C 0.54453 -0.13245 0.55798
 C561 C 0.54262 -0.15626 0.54233
 C562 C 0.55298 -0.18081 0.55244
 C563 C 0.53493 -0.10697 0.54707
 C564 C 0.52736 -0.08556 0.53770
 H565 H 0.61518 -0.26204 0.56731
 H566 H 0.59491 -0.21981 0.54987
 H567 H 0.56287 -0.20229 0.63043
 H568 H 0.58370 -0.24435 0.64773
 H569 H 0.57676 -0.15791 0.61394
 H570 H 0.55835 -0.11498 0.59613
 H571 H 0.53330 -0.15581 0.52223
 H572 H 0.55117 -0.19900 0.54002
 C573 C 1.12503 0.80036 0.37119
 C574 C 1.11442 0.77985 0.37967
 C575 C 1.10202 0.75522 0.38975
 C576 C 1.08277 0.75632 0.41094
 C577 C 1.07110 0.73231 0.42102
 C578 C 1.07855 0.70687 0.41000
 C579 C 1.09779 0.70602 0.38858
 C580 C 1.10944 0.73004 0.37855
 C581 C 1.06669 0.68128 0.42109
 C582 C 1.05939 0.65978 0.40347
 C583 C 1.04904 0.63538 0.41403
 C584 C 1.04583 0.63216 0.44229
 C585 C 1.05276 0.65351 0.45996
 C586 C 1.06309 0.67792 0.44946
 C587 C 1.03622 0.60667 0.45325
 C588 C 1.02866 0.58524 0.46261
 H589 H 1.07684 0.77571 0.41971
 H590 H 1.05611 0.73366 0.43729
 H591 H 1.10424 0.68675 0.37994
 H592 H 1.12439 0.72896 0.36220
 H593 H 1.06159 0.66187 0.38153
 H594 H 1.04373 0.61898 0.40016
 H595 H 1.05049 0.65117 0.48189
 H596 H 1.06886 0.69394 0.46358
 C597 C -0.12570 1.30302 0.13025
 C598 C -0.11562 1.28226 0.12173
 C599 C -0.10396 1.25731 0.11158
 C600 C -0.07556 1.25364 0.11139
 C601 C -0.06432 1.22929 0.10163
 C602 C -0.08139 1.20828 0.09198
 C603 C -0.10991 1.21222 0.09222
 C604 C -0.12109 1.23657 0.10195
 C605 C -0.06957 1.18236 0.08166
 C606 C -0.08207 1.15729 0.08793
 C607 C -0.07131 1.13293 0.07777
 C608 C -0.04792 1.13325 0.06124
 C609 C -0.03519 1.15804 0.05505
 C610 C -0.04591 1.18246 0.06521
 C611 C -0.03745 1.10815 0.05017
 C612 C -0.02919 1.08698 0.04077
 H613 H -0.06211 1.26954 0.11887
 H614 H -0.04231 1.22675 0.10200
 H615 H -0.12357 1.19660 0.08456
 H616 H -0.14310 1.23923 0.10193
 H617 H -0.10007 1.15650 0.10084
 H618 H -0.08131 1.11384 0.08272
 H619 H -0.01715 1.15853 0.04216
 H620 H -0.03602 1.20144 0.05977
 C621 C 0.37392 0.19853 0.86954
 C622 C 0.38442 0.21912 0.87796
 C623 C 0.39671 0.24385 0.88795
 C624 C 0.38623 0.26911 0.87990
 C625 C 0.39789 0.29319 0.88979
 C626 C 0.42023 0.29231 0.90791
 C627 C 0.43070 0.26679 0.91581
 C628 C 0.41900 0.24273 0.90587
 C629 C 0.43229 0.31790 0.91878
 C630 C 0.44013 0.31985 0.94642
 C631 C 0.45075 0.34420 0.95682
 C632 C 0.45373 0.36689 0.93976
 C633 C 0.44626 0.36510 0.91219
 C634 C 0.43562 0.34078 0.90174
 C635 C 0.46372 0.39223 0.95073
 C636 C 0.47166 0.41356 0.96006
 H637 H 0.36892 0.27021 0.86610
 H638 H 0.38912 0.31248 0.88363
 H639 H 0.44807 0.26545 0.92948
 H640 H 0.42732 0.22327 0.91219
 H641 H 0.43750 0.30273 0.96013
 H642 H 0.45634 0.34541 0.97823
 H643 H 0.44849 0.38254 0.89880
 H644 H 0.43011 0.33982 0.88031
 C645 C 0.62952 0.62627 0.69649
 C646 C 0.62097 0.61570 0.71705
 C647 C 0.61084 0.60331 0.74174
 C648 C 0.62169 0.61097 0.76709
 C649 C 0.61167 0.59925 0.79116
 C650 C 0.59062 0.57970 0.79018
 C651 C 0.57992 0.57205 0.76457
 C652 C 0.58999 0.58379 0.74052
 C653 C 0.57962 0.56767 0.81582
 C654 C 0.55130 0.56351 0.81907
 C655 C 0.54089 0.55291 0.84349
 C656 C 0.55860 0.54628 0.86496
 C657 C 0.58681 0.55008 0.86184
 C658 C 0.59728 0.56070 0.83744
 C659 C 0.54774 0.53631 0.89044
 C660 C 0.53851 0.52840 0.91190
 H661 H 0.63777 0.62614 0.76827
 H662 H 0.62006 0.60586 0.81056
 H663 H 0.56395 0.55682 0.76313
 H664 H 0.58150 0.57767 0.72099
 H665 H 0.53716 0.56900 0.80295
 H666 H 0.51900 0.55018 0.84575
 H667 H 0.60070 0.54501 0.87833
 H668 H 0.61919 0.56333 0.83543
 C669 C 0.36945 0.12450 0.80180
 C670 C 0.37824 0.11376 0.78142
 C671 C 0.38871 0.10123 0.75693
 C672 C 0.41626 0.10446 0.74980
 C673 C 0.42634 0.09285 0.72569
 C674 C 0.40896 0.07785 0.70836
 C675 C 0.38133 0.07455 0.71582
 C676 C 0.37129 0.08617 0.73995
 C677 C 0.41952 0.06615 0.68238
 C678 C 0.40374 0.06733 0.65833
 C679 C 0.41403 0.05710 0.63368
 C680 C 0.44017 0.04551 0.63273
 C681 C 0.45590 0.04396 0.65659
 C682 C 0.44566 0.05419 0.68126
 C683 C 0.45118 0.03600 0.60713
 C684 C 0.46060 0.02850 0.58560
 H685 H 0.42989 0.11617 0.76274
 H686 H 0.44760 0.09607 0.72034
 H687 H 0.36752 0.06285 0.70308
 H688 H 0.34994 0.08351 0.74531
 H689 H 0.38370 0.07673 0.65843
 H690 H 0.40174 0.05854 0.61530
 H691 H 0.47617 0.03502 0.65609
 H692 H 0.45815 0.05267 0.69948
 C693 C 0.12997 0.87402 0.30318
 C694 C 0.12137 0.88473 0.28273
 C695 C 0.11120 0.89726 0.25816
 C696 C 0.08994 0.91630 0.25952
 C697 C 0.07982 0.92815 0.23556
 C698 C 0.09088 0.92110 0.20992
 C699 C 0.11235 0.90204 0.20881
 C700 C 0.12241 0.89021 0.23278
 C701 C 0.07982 0.93322 0.18438
 C702 C 0.09748 0.94085 0.16295
 C703 C 0.08697 0.95151 0.13861
 C704 C 0.05870 0.95469 0.13537
 C705 C 0.04098 0.94741 0.15665
 C706 C 0.05145 0.93677 0.18101
 C707 C 0.04782 0.96467 0.10993
 C708 C 0.03856 0.97259 0.08851
 H709 H 0.08116 0.92196 0.27907
 H710 H 0.06352 0.94300 0.23711
 H711 H 0.12103 0.89589 0.18937
 H712 H 0.13881 0.87542 0.23149
 H713 H 0.11943 0.93870 0.16506
 H714 H 0.10087 0.95709 0.12227
 H715 H 0.01906 0.94966 0.15430
 H716 H 0.03730 0.93076 0.19697
 C717 C 0.87171 0.37577 0.19757
 C718 C 0.88060 0.38638 0.21796
 C719 C 0.89113 0.39880 0.24247
 C720 C 0.87419 0.41521 0.25865
 C721 C 0.88422 0.42675 0.28282
 C722 C 0.91137 0.42200 0.29112
 C723 C 0.92829 0.40563 0.27459
 C724 C 0.91821 0.39410 0.25045
 C725 C 0.92188 0.43365 0.31713
 C726 C 0.94867 0.44409 0.31871
 C727 C 0.95880 0.45428 0.34343
 C728 C 0.94234 0.45419 0.36687
 C729 C 0.91559 0.44411 0.36545
 C730 C 0.90539 0.43392 0.34075
 C731 C 0.95318 0.46366 0.39255
 C732 C 0.96245 0.47112 0.41414
 H733 H 0.85320 0.41901 0.25264
 H734 H 0.87080 0.43952 0.29492
 H735 H 0.94915 0.40128 0.28060
 H736 H 0.93146 0.38133 0.23813
 H737 H 0.96173 0.44448 0.30081
 H738 H 0.97955 0.46205 0.34430
 H739 H 0.90272 0.44380 0.38351
 H740 H 0.88483 0.42570 0.34029
   
