data_POSCAR
  _audit_creation_date              2014-09-24
  _audit_creation_method            'ToBaCCo'
  _symmetry_space_group_name_H-M    'P1'
  _symmetry_Int_Tables_number       1
  _symmetry_cell_setting            triclinic
  loop_
  _symmetry_equiv_pos_as_xyz
 x,y,z
_cell_length_a 53.0272
_cell_length_b 53.0584
_cell_length_c 28.6977
_cell_angle_alpha 89.889600
_cell_angle_beta 89.950600
_cell_angle_gamma 88.310500
loop_
  _atom_site_label
  _atom_site_type_symbol
  _atom_site_fract_x
  _atom_site_fract_y
  _atom_site_fract_z
O1 O 0.02173 0.27371 -0.00631
 O2 O -0.02661 0.26892 0.08599
 O3 O 0.02282 0.26969 0.08401
 O4 O -0.02780 0.27238 -0.00480
 O5 O -0.02557 0.23091 -0.00991
 O6 O 0.02452 0.22825 0.07788
 O7 O -0.02445 0.22753 0.07995
 O8 O 0.02337 0.23225 -0.01190
 Cu9 Cu -0.00270 0.27536 0.04028
 Cu10 Cu -0.00034 0.22564 0.03344
 C11 C 0.03101 0.25367 -0.02452
 C12 C -0.03400 0.24734 0.09852
 C13 C 0.03252 0.24839 0.09563
 C14 C -0.03549 0.25195 -0.02217
 O15 O 0.47597 0.77502 0.52841
 O16 O 0.52903 0.77274 0.44432
 O17 O 0.47950 0.77433 0.43729
 O18 O 0.52552 0.77391 0.53400
 O19 O 0.52527 0.73235 0.53519
 O20 O 0.47958 0.73278 0.43934
 O21 O 0.52842 0.73119 0.44596
 O22 O 0.47635 0.73346 0.52946
 Cu23 Cu 0.50234 0.77823 0.48583
 Cu24 Cu 0.50228 0.72834 0.48762
 C25 C 0.46706 0.75447 0.54314
 C26 C 0.53815 0.75138 0.43174
 C27 C 0.47160 0.75354 0.42193
 C28 C 0.53373 0.75294 0.55027
 O29 O 1.03146 0.72802 0.02663
 O30 O 0.97877 0.72755 -0.05800
 O31 O 1.02816 0.72872 -0.06325
 O32 O 0.98193 0.72624 0.03302
 O33 O 0.97964 0.76779 0.03413
 O34 O 1.02543 0.77023 -0.06142
 O35 O 0.97665 0.76910 -0.05595
 O36 O 1.02851 0.76952 0.02811
 Cu37 Cu 1.00521 0.72342 -0.01546
 Cu38 Cu 1.00224 0.77326 -0.01355
 C39 C 1.03940 0.74903 0.04101
 C40 C 0.96869 0.74839 -0.07134
 C41 C 1.03509 0.75001 -0.07824
 C42 C 0.97272 0.74669 0.04975
 O43 O 0.47364 0.22451 0.49035
 O44 O 0.52158 0.22727 0.58353
 O45 O 0.47189 0.22876 0.58071
 O46 O 0.52335 0.22362 0.49350
 O47 O 0.52278 0.26508 0.48764
 O48 O 0.47198 0.27016 0.57394
 O49 O 0.52105 0.26871 0.57716
 O50 O 0.47378 0.26595 0.48433
 Cu51 Cu 0.49758 0.22184 0.53767
 Cu52 Cu 0.49736 0.27157 0.53018
 C53 C 0.46531 0.24488 0.47179
 C54 C 0.52984 0.24853 0.59561
 C55 C 0.46291 0.25045 0.59165
 C56 C 0.53212 0.24366 0.47629
 O57 O 0.72574 0.02167 -0.02496
 O58 O 0.72825 -0.03149 0.05902
 O59 O 0.72764 0.01820 0.06481
 O60 O 0.72577 -0.02813 -0.03121
 O61 O 0.76734 -0.02883 -0.03411
 O62 O 0.76921 0.01705 0.06076
 O63 O 0.76977 -0.03173 0.05556
 O64 O 0.76731 0.02015 -0.02836
 Cu65 Cu 0.72262 -0.00492 0.01718
 Cu66 Cu 0.77250 -0.00600 0.01302
 C67 C 0.74632 0.03043 -0.03989
 C68 C 0.74960 -0.04091 0.07122
 C69 C 0.74887 0.02600 0.07831
 C70 C 0.74637 -0.03677 -0.04837
 O71 O 0.23140 0.52755 0.41270
 O72 O 0.22590 0.47922 0.50504
 O73 O 0.22717 0.52898 0.50215
 O74 O 0.23060 0.47780 0.41446
 O75 O 0.27199 0.47599 0.42201
 O76 O 0.26862 0.52655 0.50862
 O77 O 0.26733 0.47757 0.51177
 O78 O 0.27282 0.52503 0.41974
 Cu79 Cu 0.22456 0.50344 0.45789
 Cu80 Cu 0.27427 0.50095 0.46621
 C81 C 0.25314 0.53508 0.40156
 C82 C 0.24581 0.46999 0.52390
 C83 C 0.24756 0.53702 0.51920
 C84 C 0.25198 0.46797 0.40372
 O85 O 0.26782 1.02876 0.00408
 O86 O 0.26383 0.97989 -0.08702
 O87 O 0.26355 1.02933 -0.08609
 O88 O 0.26755 0.97921 0.00371
 O89 O 0.22606 0.98047 0.00924
 O90 O 0.22215 1.03033 -0.07921
 O91 O 0.22237 0.98128 -0.08063
 O92 O 0.22640 1.02945 0.01051
 Cu93 Cu 0.26987 1.00413 -0.04195
 Cu94 Cu 0.22015 1.00548 -0.03442
 C95 C 0.24768 1.03773 0.02256
 C96 C 0.24237 0.97210 -0.09914
 C97 C 0.24207 1.03873 -0.09746
 C98 C 0.24734 0.97109 0.02145
 O99 O 0.76784 0.46776 0.47261
 O100 O 0.76832 0.51975 0.55840
 O101 O 0.76665 0.47062 0.56329
 O102 O 0.77062 0.51695 0.46763
 O103 O 0.72908 0.51982 0.46513
 O104 O 0.72511 0.47355 0.56004
 O105 O 0.72677 0.52229 0.55528
 O106 O 0.72630 0.47104 0.47014
 Cu107 Cu 0.77256 0.49349 0.51570
 Cu108 Cu 0.72270 0.49701 0.51230
 C109 C 0.74684 0.46035 0.45715
 C110 C 0.74747 0.52992 0.57142
 C111 C 0.74517 0.46403 0.57778
 C112 C 0.75046 0.52648 0.45028
 C113 C 0.20974 0.19996 0.21736
 C114 C 0.23540 0.19323 0.21351
 C115 C 0.25352 0.21092 0.22536
 C116 C 0.24615 0.23495 0.24272
 C117 C 0.22013 0.24104 0.24660
 C118 C 0.20196 0.22393 0.23282
 C119 C 0.26540 0.25378 0.25586
 C120 C 0.25964 0.27992 0.25325
 C121 C 0.27713 0.29767 0.26739
 C122 C 0.30117 0.28934 0.28178
 C123 C 0.30753 0.26355 0.28434
 C124 C 0.28947 0.24588 0.27223
 H125 H 0.19572 0.18693 0.20560
 H126 H 0.27326 0.20590 0.22046
 H127 H 0.21367 0.25909 0.26025
 H128 H 0.24155 0.28678 0.24033
 H129 H 0.31457 0.30295 0.29372
 H130 H 0.29425 0.22603 0.27621
 C131 C 0.80439 0.78567 0.21714
 C132 C 0.77872 0.79231 0.22038
 C133 C 0.76155 0.77398 0.23348
 C134 C 0.76990 0.74935 0.24629
 C135 C 0.79600 0.74328 0.24276
 C136 C 0.81308 0.76110 0.22699
 C137 C 0.75144 0.73023 0.26279
 C138 C 0.75752 0.70406 0.26189
 C139 C 0.74045 0.68643 0.27835
 C140 C 0.71662 0.69470 0.29375
 C141 C 0.71010 0.72042 0.29575
 C142 C 0.72764 0.73803 0.28094
 H143 H 0.81748 0.79940 0.20438
 H144 H 0.74173 0.77926 0.23338
 H145 H 0.80352 0.72485 0.25227
 H146 H 0.77538 0.69693 0.24853
 H147 H 0.70339 0.68097 0.30595
 H148 H 0.72275 0.75777 0.28544
 C149 C 0.79902 0.19650 0.24316
 C150 C 0.80589 0.22000 0.26006
 C151 C 0.78723 0.23660 0.27778
 C152 C 0.76142 0.23065 0.27603
 C153 C 0.75496 0.20714 0.25703
 C154 C 0.77364 0.18995 0.24096
 C155 C 0.74135 0.24935 0.29168
 C156 C 0.71719 0.24149 0.30550
 C157 C 0.69816 0.25919 0.31786
 C158 C 0.70363 0.28483 0.31918
 C159 C 0.72772 0.29301 0.30802
 C160 C 0.74614 0.27541 0.29285
 H161 H 0.81351 0.18363 0.22980
 H162 H 0.79323 0.25416 0.29246
 H163 H 0.73541 0.20243 0.25260
 H164 H 0.71291 0.22170 0.30677
 H165 H 0.68936 0.29835 0.33129
 H166 H 0.76408 0.28248 0.28180
 C167 C 0.21266 0.79917 0.17921
 C168 C 0.20709 0.77365 0.18303
 C169 C 0.22620 0.75616 0.19593
 C170 C 0.25060 0.76409 0.20815
 C171 C 0.25553 0.79010 0.20408
 C172 C 0.23694 0.80744 0.18835
 C173 C 0.27063 0.74541 0.22489
 C174 C 0.29643 0.75157 0.22549
 C175 C 0.31488 0.73466 0.24310
 C176 C 0.30793 0.71070 0.25767
 C177 C 0.28262 0.70393 0.25784
 C178 C 0.26411 0.72142 0.24217
 H179 H 0.19830 0.81249 0.16671
 H180 H 0.22164 0.73647 0.19623
 H181 H 0.27361 0.79745 0.21323
 H182 H 0.30273 0.76944 0.21265
 H183 H 0.32230 0.69758 0.27072
 H184 H 0.24463 0.71635 0.24550
 C185 C 0.69819 0.30040 0.75461
 C186 C 0.69230 0.27502 0.75957
 C187 C 0.71098 0.25762 0.77478
 C188 C 0.73521 0.26555 0.78802
 C189 C 0.74035 0.29146 0.78332
 C190 C 0.72233 0.30865 0.76501
 C191 C 0.75508 0.24689 0.80541
 C192 C 0.78093 0.25287 0.80573
 C193 C 0.79933 0.23570 0.82256
 C194 C 0.79228 0.21176 0.83694
 C195 C 0.76689 0.20519 0.83748
 C196 C 0.74843 0.22292 0.82253
 H197 H 0.68429 0.31351 0.73985
 H198 H 0.70630 0.23796 0.77565
 H199 H 0.75829 0.29879 0.79342
 H200 H 0.78734 0.27068 0.79280
 H201 H 0.80669 0.19841 0.84906
 H202 H 0.72891 0.21797 0.82586
 C203 C 0.29133 0.71420 0.66483
 C204 C 0.29816 0.73767 0.68189
 C205 C 0.27943 0.75464 0.69800
 C206 C 0.25362 0.74890 0.69520
 C207 C 0.24718 0.72540 0.67597
 C208 C 0.26592 0.70790 0.66118
 C209 C 0.23362 0.76744 0.71165
 C210 C 0.20975 0.75926 0.72622
 C211 C 0.19100 0.77657 0.74147
 C212 C 0.19648 0.80217 0.74439
 C213 C 0.22029 0.81070 0.73205
 C214 C 0.23841 0.79348 0.71428
 H215 H 0.30598 0.70103 0.65303
 H216 H 0.28541 0.77216 0.71291
 H217 H 0.22764 0.72083 0.67088
 H218 H 0.20558 0.73944 0.72644
 H219 H 0.18258 0.81529 0.75903
 H220 H 0.25620 0.80075 0.70281
 C221 C 0.28445 0.30446 0.71222
 C222 C 0.25877 0.31132 0.70992
 C223 C 0.24072 0.29361 0.72209
 C224 C 0.24817 0.26938 0.73841
 C225 C 0.27423 0.26312 0.74079
 C226 C 0.29233 0.28025 0.72647
 C227 C 0.22897 0.25051 0.75190
 C228 C 0.23462 0.22440 0.74850
 C229 C 0.21724 0.20657 0.76290
 C230 C 0.19335 0.21481 0.77825
 C231 C 0.18706 0.24057 0.78158
 C232 C 0.20505 0.25833 0.76931
 H233 H 0.29833 0.31761 0.70026
 H234 H 0.22095 0.29880 0.71826
 H235 H 0.28077 0.24493 0.75372
 H236 H 0.25256 0.21758 0.73482
 H237 H 0.18007 0.20111 0.79040
 H238 H 0.20035 0.27814 0.77396
 C239 C 0.70327 0.70267 0.71956
 C240 C 0.72773 0.69443 0.73145
 C241 C 0.74524 0.71207 0.74603
 C242 C 0.73915 0.73821 0.74585
 C243 C 0.71465 0.74601 0.73121
 C244 C 0.69654 0.72835 0.71942
 C245 C 0.75825 0.75722 0.75987
 C246 C 0.75055 0.78178 0.77408
 C247 C 0.76829 0.79987 0.78545
 C248 C 0.79397 0.79307 0.78541
 C249 C 0.80213 0.76854 0.77407
 C250 C 0.78440 0.75101 0.75991
 H251 H 0.68980 0.68914 0.70760
 H252 H 0.76352 0.70495 0.75728
 H253 H 0.70935 0.76576 0.72837
 H254 H 0.73081 0.78717 0.77682
 H255 H 0.80757 0.80659 0.79695
 H256 H 0.79145 0.73267 0.74901
 C257 C 0.24971 0.09893 0.11708
 C258 C 0.27216 0.08901 0.09747
 C259 C 0.27170 0.06831 0.06725
 C260 C 0.24868 0.05728 0.05551
 C261 C 0.22634 0.06702 0.07609
 C262 C 0.22688 0.08750 0.10642
 C263 C 0.24952 0.12192 0.14654
 C264 C 0.23353 0.12379 0.18551
 C265 C 0.23012 0.14666 0.20892
 C266 C 0.24267 0.16818 0.19400
 C267 C 0.26000 0.16596 0.15708
 C268 C 0.26339 0.14301 0.13351
 H269 H 0.28934 0.06137 0.05231
 H270 H 0.20821 0.05916 0.06818
 H271 H 0.21694 0.14779 0.23776
 H272 H 0.26978 0.18231 0.14468
 H273 H 0.20920 0.09493 0.12035
 H274 H 0.22300 0.10773 0.19698
 H275 H 0.29006 0.09735 0.10533
 H276 H 0.27573 0.14219 0.10343
 C277 C 0.74525 0.59414 0.66304
 C278 C 0.76852 0.58256 0.65071
 C279 C 0.76937 0.56126 0.62190
 C280 C 0.74697 0.55117 0.60483
 C281 C 0.72375 0.56229 0.61845
 C282 C 0.72291 0.58349 0.64704
 C283 C 0.74395 0.61845 0.68879
 C284 C 0.72403 0.62379 0.72000
 C285 C 0.71972 0.64825 0.73673
 C286 C 0.73545 0.66777 0.72313
 C287 C 0.75664 0.66202 0.69533
 C288 C 0.76082 0.63761 0.67816
 H289 H 0.78755 0.55304 0.61221
 H290 H 0.70612 0.55502 0.60598
 H291 H 0.70341 0.65218 0.75858
 H292 H 0.76892 0.67681 0.68400
 H293 H 0.70467 0.59216 0.65496
 H294 H 0.71107 0.60931 0.72982
 H295 H 0.78606 0.59017 0.66279
 H296 H 0.77622 0.63424 0.65397
 C297 C 0.75564 0.89246 0.15228
 C298 C 0.73175 0.90272 0.14044
 C299 C 0.72954 0.92531 0.11518
 C300 C 0.75124 0.93790 0.10068
 C301 C 0.77506 0.92789 0.11405
 C302 C 0.77719 0.90554 0.13942
 C303 C 0.75860 0.86744 0.17521
 C304 C 0.77747 0.86326 0.20893
 C305 C 0.78322 0.83894 0.22500
 C306 C 0.77012 0.81828 0.20799
 C307 C 0.75016 0.82257 0.17653
 C308 C 0.74447 0.84696 0.16020
 H309 H 0.71087 0.93242 0.10579
 H310 H 0.79228 0.93694 0.10391
 H311 H 0.79841 0.83615 0.24987
 H312 H 0.73987 0.80692 0.16270
 H313 H 0.79589 0.89797 0.14737
 H314 H 0.78834 0.87873 0.22183
 H315 H 0.71480 0.89311 0.15026
 H316 H 0.72998 0.84956 0.13393
 C317 C 0.24330 0.40735 0.61925
 C318 C 0.22105 0.41657 0.59773
 C319 C 0.22154 0.43755 0.56799
 C320 C 0.24433 0.44958 0.55902
 C321 C 0.26635 0.44079 0.58170
 C322 C 0.26585 0.41997 0.61134
 C323 C 0.24375 0.38374 0.64730
 C324 C 0.25947 0.38135 0.68659
 C325 C 0.26330 0.35802 0.70839
 C326 C 0.25128 0.33661 0.69177
 C327 C 0.23418 0.33924 0.65463
 C328 C 0.23050 0.36260 0.63247
 H329 H 0.20425 0.44388 0.55103
 H330 H 0.28423 0.44959 0.57559
 H331 H 0.27633 0.35650 0.73739
 H332 H 0.22484 0.32295 0.64099
 H333 H 0.28343 0.41315 0.62663
 H334 H 0.26950 0.39738 0.69955
 H335 H 0.20335 0.40739 0.60344
 H336 H 0.21842 0.36374 0.60210
 C337 C 0.90480 0.24066 0.19241
 C338 C 0.91699 0.21914 0.17344
 C339 C 0.93770 0.22135 0.14388
 C340 C 0.94675 0.24521 0.13193
 C341 C 0.93522 0.26673 0.15250
 C342 C 0.91452 0.26445 0.18240
 C343 C 0.88073 0.23815 0.21859
 C344 C 0.86048 0.25542 0.21116
 C345 C 0.83644 0.25052 0.22834
 C346 C 0.83210 0.22815 0.25290
 C347 C 0.85264 0.21185 0.26347
 C348 C 0.87675 0.21690 0.24681
 H349 H 0.94601 0.20427 0.12910
 H350 H 0.94175 0.28542 0.14468
 H351 H 0.82086 0.26326 0.21930
 H352 H 0.84978 0.19459 0.28273
 H353 H 0.90582 0.28139 0.19697
 H354 H 0.86273 0.27185 0.18928
 H355 H 0.90983 0.20053 0.17960
 H356 H 0.89204 0.20353 0.25426
 C357 C 0.40036 0.75387 0.62878
 C358 C 0.41278 0.73129 0.61521
 C359 C 0.43489 0.73166 0.58901
 C360 C 0.44515 0.75461 0.57520
 C361 C 0.43337 0.77727 0.59011
 C362 C 0.41120 0.77690 0.61671
 C363 C 0.37507 0.75301 0.65122
 C364 C 0.35566 0.77021 0.63799
 C365 C 0.33073 0.76635 0.65149
 C366 C 0.32472 0.74509 0.67797
 C367 C 0.34424 0.72898 0.69422
 C368 C 0.36921 0.73306 0.68142
 H369 H 0.44344 0.71383 0.57816
 H370 H 0.44090 0.79527 0.58025
 H371 H 0.31590 0.77889 0.63825
 H372 H 0.34000 0.71258 0.71502
 H373 H 0.40229 0.79464 0.62705
 H374 H 0.35937 0.78564 0.61448
 H375 H 0.40481 0.71319 0.62288
 H376 H 0.38377 0.71986 0.69335
 C377 C 0.10686 0.75303 0.11917
 C378 C 0.09231 0.77487 0.10889
 C379 C 0.06964 0.77338 0.08467
 C380 C 0.06083 0.74996 0.06973
 C381 C 0.07490 0.72793 0.08167
 C382 C 0.09773 0.72948 0.10594
 C383 C 0.13213 0.75536 0.14085
 C384 C 0.15303 0.74106 0.12430
 C385 C 0.17742 0.74609 0.13972
 C386 C 0.18130 0.76558 0.17171
 C387 C 0.16032 0.77886 0.19020
 C388 C 0.13601 0.77372 0.17514
 H389 H 0.05946 0.79082 0.07646
 H390 H 0.06874 0.70952 0.07106
 H391 H 0.19333 0.73568 0.12479
 H392 H 0.16283 0.79371 0.21547
 H393 H 0.10841 0.71230 0.11382
 H394 H 0.15071 0.72694 0.09758
 H395 H 0.09893 0.79335 0.11790
 H396 H 0.12026 0.78468 0.18934
 C397 C 0.59436 0.25388 0.68529
 C398 C 0.58032 0.27557 0.67189
 C399 C 0.55876 0.27367 0.64450
 C400 C 0.55067 0.25002 0.62970
 C401 C 0.56405 0.22820 0.64464
 C402 C 0.58574 0.23012 0.67209
 C403 C 0.61880 0.25648 0.70985
 C404 C 0.64012 0.24173 0.69671
 C405 C 0.66395 0.24685 0.71473
 C406 C 0.66687 0.26688 0.74598
 C407 C 0.64540 0.28066 0.76111
 C408 C 0.62161 0.27545 0.74342
 H409 H 0.54891 0.29086 0.63362
 H410 H 0.55828 0.20970 0.63381
 H411 H 0.68025 0.23608 0.70229
 H412 H 0.64716 0.29597 0.78570
 H413 H 0.59601 0.21305 0.68229
 H414 H 0.63865 0.22717 0.67057
 H415 H 0.58661 0.29418 0.68078
 H416 H 0.60550 0.28679 0.75499
 C417 C 0.74887 0.10291 0.89463
 C418 C 0.72545 0.09304 0.90655
 C419 C 0.72421 0.06868 0.92533
 C420 C 0.74638 0.05386 0.93198
 C421 C 0.76949 0.06324 0.91667
 C422 C 0.77071 0.08751 0.89843
 C423 C 0.75128 0.12977 0.88211
 C424 C 0.76865 0.14428 0.90628
 C425 C 0.77282 0.16906 0.89299
 C426 C 0.75998 0.17985 0.85469
 C427 C 0.74172 0.16569 0.83171
 C428 C 0.73730 0.14083 0.84551
 H429 H 0.70613 0.06198 0.93681
 H430 H 0.78690 0.05230 0.92088
 H431 H 0.78643 0.17967 0.91233
 H432 H 0.73158 0.17348 0.80202
 H433 H 0.78893 0.09464 0.88878
 H434 H 0.77924 0.13627 0.93529
 H435 H 0.70836 0.10464 0.90380
 H436 H 0.72376 0.12995 0.82653
 C437 C 0.26211 0.60376 0.32533
 C438 C 0.28311 0.58815 0.33622
 C439 C 0.28001 0.56499 0.35816
 C440 C 0.25581 0.55693 0.36995
 C441 C 0.23467 0.57178 0.35623
 C442 C 0.23780 0.59501 0.33393
 C443 C 0.26596 0.62983 0.30882
 C444 C 0.25265 0.63995 0.27048
 C445 C 0.25758 0.66428 0.25431
 C446 C 0.27573 0.67889 0.27652
 C447 C 0.28814 0.66903 0.31608
 C448 C 0.28342 0.64478 0.33184
 H449 H 0.29670 0.55395 0.36784
 H450 H 0.21578 0.56610 0.36485
 H451 H 0.24775 0.67135 0.22369
 H452 H 0.30166 0.68006 0.33485
 H453 H 0.22132 0.60673 0.32581
 H454 H 0.23903 0.62878 0.25229
 H455 H 0.30204 0.59429 0.32915
 H456 H 0.29345 0.63767 0.36224
 C457 C 0.23678 0.90936 0.80673
 C458 C 0.26032 0.91992 0.81564
 C459 C 0.26216 0.94080 0.84509
 C460 C 0.24047 0.95160 0.86616
 C461 C 0.21687 0.94164 0.85578
 C462 C 0.21506 0.92077 0.82659
 C463 C 0.23484 0.88538 0.78029
 C464 C 0.21371 0.88104 0.75208
 C465 C 0.20970 0.85709 0.73385
 C466 C 0.22685 0.83703 0.74298
 C467 C 0.24889 0.84176 0.76820
 C468 C 0.25281 0.86566 0.78680
 H469 H 0.28061 0.94813 0.85217
 H470 H 0.19979 0.94946 0.87145
 H471 H 0.19270 0.85399 0.71402
 H472 H 0.26229 0.82657 0.77621
 H473 H 0.19667 0.91293 0.82128
 H474 H 0.19980 0.89596 0.74544
 H475 H 0.27739 0.91180 0.80044
 H476 H 0.26915 0.86820 0.80870
 C477 C 0.74349 0.39416 0.37107
 C478 C 0.76692 0.40450 0.38187
 C479 C 0.76813 0.42645 0.40871
 C480 C 0.74593 0.43859 0.42503
 C481 C 0.72254 0.42883 0.41256
 C482 C 0.72133 0.40688 0.38615
 C483 C 0.74191 0.36918 0.34789
 C484 C 0.72162 0.36398 0.31814
 C485 C 0.71767 0.33939 0.30303
 C486 C 0.73415 0.31957 0.31670
 C487 C 0.75543 0.32499 0.34355
 C488 C 0.75921 0.34951 0.35918
 H489 H 0.78644 0.43361 0.41748
 H490 H 0.70505 0.43765 0.42461
 H491 H 0.70128 0.33570 0.28187
 H492 H 0.76828 0.30997 0.35494
 H493 H 0.70297 0.39929 0.37938
 H494 H 0.70828 0.37878 0.30780
 H495 H 0.78434 0.39539 0.37027
 H496 H 0.77486 0.35268 0.38243
 C497 C 0.09290 0.25603 0.87840
 C498 C 0.08395 0.27826 0.90023
 C499 C 0.06331 0.27776 0.93074
 C500 C 0.05137 0.25499 0.94025
 C501 C 0.06000 0.23294 0.91756
 C502 C 0.08047 0.23346 0.88706
 C503 C 0.11596 0.25569 0.84888
 C504 C 0.11745 0.24033 0.80908
 C505 C 0.14031 0.23661 0.78561
 C506 C 0.16216 0.24831 0.80117
 C507 C 0.16036 0.26509 0.83888
 C508 C 0.13745 0.26872 0.86262
 H509 H 0.05710 0.29507 0.94771
 H510 H 0.05128 0.21507 0.92409
 H511 H 0.14116 0.22383 0.75622
 H512 H 0.17699 0.27418 0.85175
 H513 H 0.08713 0.21591 0.87152
 H514 H 0.10110 0.23048 0.79699
 H515 H 0.09303 0.29596 0.89400
 H516 H 0.13696 0.28055 0.89334
 C517 C 0.60936 0.74389 0.36181
 C518 C 0.59428 0.72291 0.36838
 C519 C 0.57046 0.72568 0.38846
 C520 C 0.56120 0.74953 0.40273
 C521 C 0.57564 0.77081 0.39349
 C522 C 0.59956 0.76800 0.37297
 C523 C 0.63585 0.73994 0.34683
 C524 C 0.64593 0.75348 0.30946
 C525 C 0.67043 0.74776 0.29349
 C526 C 0.68518 0.72856 0.31499
 C527 C 0.67541 0.71609 0.35397
 C528 C 0.65101 0.72161 0.36950
 H529 H 0.55975 0.70893 0.39461
 H530 H 0.56900 0.78942 0.40409
 H531 H 0.67748 0.75765 0.26336
 H532 H 0.68656 0.70175 0.37214
 H533 H 0.61091 0.78444 0.36811
 H534 H 0.63455 0.76776 0.29160
 H535 H 0.60130 0.70417 0.35928
 H536 H 0.64383 0.71134 0.39911
 C537 C 0.90321 0.75075 0.83977
 C538 C 0.91468 0.72745 0.85228
 C539 C 0.93640 0.72652 0.88010
 C540 C 0.94706 0.74889 0.89596
 C541 C 0.93606 0.77212 0.88209
 C542 C 0.91443 0.77304 0.85452
 C543 C 0.87853 0.75219 0.81507
 C544 C 0.87297 0.77198 0.78367
 C545 C 0.84835 0.77637 0.76767
 C546 C 0.82886 0.76083 0.78215
 C547 C 0.83475 0.73979 0.81027
 C548 C 0.85933 0.73555 0.82675
 H549 H 0.94450 0.70833 0.89004
 H550 H 0.94375 0.78973 0.89365
 H551 H 0.84430 0.79255 0.74555
 H552 H 0.81999 0.72766 0.82227
 H553 H 0.90590 0.79132 0.84645
 H554 H 0.88745 0.78476 0.77301
 H555 H 0.90665 0.70993 0.84113
 H556 H 0.86284 0.72026 0.85112
 C557 C 0.40287 0.24528 0.37598
 C558 C 0.41150 0.22255 0.39657
 C559 C 0.43239 0.22212 0.42649
 C560 C 0.44495 0.24444 0.43653
 C561 C 0.43675 0.26696 0.41477
 C562 C 0.41600 0.26738 0.38496
 C563 C 0.37937 0.24664 0.34775
 C564 C 0.37750 0.26284 0.30902
 C565 C 0.35435 0.26734 0.28697
 C566 C 0.33259 0.25555 0.30284
 C567 C 0.33469 0.23805 0.33950
 C568 C 0.35787 0.23367 0.36186
 H569 H 0.43825 0.20446 0.44270
 H570 H 0.44596 0.28451 0.42174
 H571 H 0.35326 0.28066 0.25833
 H572 H 0.31814 0.22887 0.35260
 H573 H 0.40963 0.28529 0.37038
 H574 H 0.39382 0.27268 0.29664
 H575 H 0.40192 0.20517 0.39000
 H576 H 0.35861 0.22124 0.39182
 C577 C 0.74828 0.89901 0.86060
 C578 C 0.77014 0.91266 0.86891
 C579 C 0.76917 0.93425 0.89650
 C580 C 0.74633 0.94276 0.91668
 C581 C 0.72419 0.92989 0.90661
 C582 C 0.72516 0.90819 0.87888
 C583 C 0.75031 0.87431 0.83634
 C584 C 0.73713 0.85350 0.85307
 C585 C 0.74203 0.82939 0.83493
 C586 C 0.76029 0.82565 0.79999
 C587 C 0.77244 0.84659 0.78153
 C588 C 0.76740 0.87068 0.79931
 H589 H 0.78658 0.94372 0.90351
 H590 H 0.70630 0.93600 0.92163
 H591 H 0.73255 0.81349 0.84995
 H592 H 0.78634 0.84419 0.75410
 H593 H 0.70795 0.89826 0.87262
 H594 H 0.72407 0.85557 0.88192
 H595 H 0.78832 0.90597 0.85602
 H596 H 0.77746 0.88638 0.78498
 C597 C 0.25794 0.40100 0.31941
 C598 C 0.27962 0.41283 0.33563
 C599 C 0.27761 0.43515 0.36111
 C600 C 0.25386 0.44623 0.37140
 C601 C 0.23218 0.43511 0.35349
 C602 C 0.23420 0.41272 0.32772
 C603 C 0.26027 0.37546 0.29810
 C604 C 0.24303 0.35679 0.30971
 C605 C 0.24765 0.33169 0.29673
 C606 C 0.26969 0.32469 0.27224
 C607 C 0.28606 0.34353 0.25788
 C608 C 0.28130 0.36867 0.27037
 H609 H 0.29472 0.44319 0.37431
 H610 H 0.21361 0.44324 0.36064
 H611 H 0.23485 0.31748 0.30861
 H612 H 0.30303 0.33863 0.23848
 H613 H 0.21714 0.40430 0.31519
 H614 H 0.22681 0.36121 0.33143
 H615 H 0.29818 0.40421 0.33071
 H616 H 0.29464 0.38266 0.25982
 C617 C 0.23617 0.10357 0.81651
 C618 C 0.21449 0.09217 0.83385
 C619 C 0.21643 0.07020 0.86052
 C620 C 0.24018 0.05906 0.87109
 C621 C 0.26184 0.06974 0.85173
 C622 C 0.25984 0.09173 0.82477
 C623 C 0.23399 0.12890 0.79423
 C624 C 0.25144 0.14749 0.80493
 C625 C 0.24689 0.17255 0.79149
 C626 C 0.22472 0.17955 0.76744
 C627 C 0.20820 0.16075 0.75378
 C628 C 0.21288 0.13565 0.76674
 H629 H 0.19923 0.06259 0.87438
 H630 H 0.28045 0.06160 0.85854
 H631 H 0.25981 0.18673 0.80285
 H632 H 0.19112 0.16567 0.73474
 H633 H 0.27689 0.09981 0.81130
 H634 H 0.26775 0.14309 0.82644
 H635 H 0.19597 0.10089 0.82889
 H636 H 0.19939 0.12169 0.75690
 C637 C 0.75353 0.58684 0.35008
 C638 C 0.77590 0.57472 0.36582
 C639 C 0.77499 0.55453 0.39723
 C640 C 0.75170 0.54605 0.41352
 C641 C 0.72938 0.55747 0.39624
 C642 C 0.73028 0.57763 0.36507
 C643 C 0.75408 0.61053 0.32225
 C644 C 0.73510 0.61615 0.28929
 C645 C 0.73197 0.64053 0.27138
 C646 C 0.74801 0.65965 0.28548
 C647 C 0.76856 0.65348 0.31452
 C648 C 0.77152 0.62915 0.33293
 H649 H 0.79254 0.54601 0.40968
 H650 H 0.71111 0.55143 0.40803
 H651 H 0.71607 0.64488 0.24878
 H652 H 0.78100 0.66800 0.32624
 H653 H 0.71266 0.58675 0.35452
 H654 H 0.72176 0.60206 0.27937
 H655 H 0.79411 0.58118 0.35460
 H656 H 0.78627 0.62558 0.35837
 C657 C 0.09585 0.75508 0.82686
 C658 C 0.08250 0.77683 0.84186
 C659 C 0.06193 0.77505 0.87183
 C660 C 0.05411 0.75142 0.88780
 C661 C 0.06682 0.72953 0.87111
 C662 C 0.08755 0.73137 0.84116
 C663 C 0.11935 0.75757 0.79930
 C664 C 0.14114 0.74306 0.81050
 C665 C 0.16431 0.74828 0.78977
 C666 C 0.16608 0.76814 0.75763
 C667 C 0.14404 0.78159 0.74434
 C668 C 0.12091 0.77631 0.76483
 H669 H 0.05268 0.79239 0.88354
 H670 H 0.06132 0.71097 0.88228
 H671 H 0.18107 0.73776 0.80087
 H672 H 0.14487 0.79675 0.71909
 H673 H 0.09734 0.71428 0.82974
 H674 H 0.14060 0.72866 0.83724
 H675 H 0.08861 0.79540 0.83204
 H676 H 0.10436 0.78747 0.75480
 C677 C 0.59913 0.24218 0.39137
 C678 C 0.59033 0.21971 0.41081
 C679 C 0.56797 0.21985 0.43694
 C680 C 0.55407 0.24249 0.44429
 C681 C 0.56249 0.26472 0.42354
 C682 C 0.58470 0.26458 0.39754
 C683 C 0.62400 0.24302 0.36743
 C684 C 0.62729 0.25930 0.32933
 C685 C 0.65134 0.26355 0.31180
 C686 C 0.67262 0.25135 0.33148
 C687 C 0.66931 0.23368 0.36726
 C688 C 0.64519 0.22961 0.38525
 H689 H 0.56198 0.20241 0.45252
 H690 H 0.55229 0.28250 0.42851
 H691 H 0.65345 0.27703 0.28376
 H692 H 0.68550 0.22416 0.38312
 H693 H 0.59109 0.28232 0.38387
 H694 H 0.61132 0.26946 0.31404
 H695 H 0.60090 0.20211 0.40634
 H696 H 0.64336 0.21710 0.41481
 C697 C 0.89970 0.25177 0.88734
 C698 C 0.91217 0.22914 0.90066
 C699 C 0.93368 0.22938 0.92852
 C700 C 0.94326 0.25225 0.94429
 C701 C 0.93140 0.27498 0.92980
 C702 C 0.90986 0.27474 0.90153
 C703 C 0.87505 0.25096 0.86258
 C704 C 0.85508 0.26775 0.87473
 C705 C 0.83065 0.26397 0.85832
 C706 C 0.82569 0.24321 0.82990
 C707 C 0.84584 0.22754 0.81491
 C708 C 0.87032 0.23153 0.83068
 H709 H 0.94229 0.21151 0.93904
 H710 H 0.93840 0.29292 0.94116
 H711 H 0.81533 0.27616 0.87068
 H712 H 0.84244 0.21152 0.79269
 H713 H 0.90092 0.29253 0.89146
 H714 H 0.85790 0.28277 0.89949
 H715 H 0.90470 0.21106 0.89137
 H716 H 0.88535 0.21866 0.81954
 C717 C 0.41214 0.75201 0.31987
 C718 C 0.42333 0.72954 0.33722
 C719 C 0.44318 0.73014 0.36900
 C720 C 0.45234 0.75323 0.38455
 C721 C 0.44189 0.77574 0.36595
 C722 C 0.42200 0.77513 0.33391
 C723 C 0.38881 0.75100 0.29119
 C724 C 0.36850 0.76808 0.29940
 C725 C 0.34480 0.76400 0.27997
 C726 C 0.34092 0.74267 0.25232
 C727 C 0.36163 0.72681 0.24085
 C728 C 0.38539 0.73104 0.25979
 H729 H 0.45077 0.71244 0.38256
 H730 H 0.44864 0.79383 0.37705
 H731 H 0.32905 0.77636 0.28968
 H732 H 0.35911 0.71035 0.21925
 H733 H 0.41400 0.79277 0.32084
 H734 H 0.37035 0.78353 0.32363
 H735 H 0.41598 0.71139 0.32802
 H736 H 0.40080 0.71792 0.25174
 C737 C 0.24901 0.90692 0.11381
 C738 C 0.22604 0.91871 0.10047
 C739 C 0.22566 0.93998 0.07187
 C740 C 0.24824 0.95001 0.05543
 C741 C 0.27129 0.93878 0.06981
 C742 C 0.27168 0.91747 0.09877
 C743 C 0.24893 0.88263 0.13995
 C744 C 0.26612 0.86289 0.12850
 C745 C 0.26330 0.83875 0.14710
 C746 C 0.24312 0.83381 0.17714
 C747 C 0.22697 0.85383 0.19108
 C748 C 0.22997 0.87803 0.17300
 H749 H 0.20755 0.94809 0.06143
 H750 H 0.28902 0.94613 0.05791
 H751 H 0.27586 0.82355 0.13551
 H752 H 0.21143 0.85051 0.21461
 H753 H 0.28971 0.90905 0.10882
 H754 H 0.28079 0.86563 0.10288
 H755 H 0.20820 0.91089 0.11047
 H756 H 0.21681 0.89293 0.18356
 C757 C 0.73967 0.40450 0.67917
 C758 C 0.71788 0.41566 0.65909
 C759 C 0.71969 0.43549 0.62736
 C760 C 0.74333 0.44460 0.61465
 C761 C 0.76510 0.43408 0.63585
 C762 C 0.76329 0.41426 0.66784
 C763 C 0.73768 0.38146 0.70843
 C764 C 0.75520 0.36124 0.70314
 C765 C 0.75110 0.33803 0.72450
 C766 C 0.72932 0.33449 0.75134
 C767 C 0.71269 0.35513 0.75925
 C768 C 0.71690 0.37841 0.73822
 H769 H 0.70254 0.44314 0.61167
 H770 H 0.78360 0.44080 0.62704
 H771 H 0.76407 0.32236 0.71737
 H772 H 0.69591 0.35296 0.78026
 H773 H 0.78041 0.40632 0.68313
 H774 H 0.77125 0.36279 0.68009
 H775 H 0.69942 0.40837 0.66628
 H776 H 0.70337 0.39378 0.74393
 C777 C 0.75466 0.09219 0.16229
 C778 C 0.77611 0.07704 0.15228
 C779 C 0.77394 0.05461 0.12767
 C780 C 0.75025 0.04686 0.11227
 C781 C 0.72855 0.06113 0.12509
 C782 C 0.73075 0.08363 0.15008
 C783 C 0.75784 0.11777 0.18137
 C784 C 0.74389 0.12657 0.21998
 C785 C 0.74849 0.15034 0.23894
 C786 C 0.76694 0.16566 0.21926
 C787 C 0.77989 0.15719 0.17926
 C788 C 0.77550 0.13350 0.16075
 H789 H 0.79100 0.04396 0.11883
 H790 H 0.71004 0.05563 0.11372
 H791 H 0.73822 0.15640 0.26978
 H792 H 0.79363 0.16884 0.16238
 H793 H 0.71396 0.09504 0.15749
 H794 H 0.73008 0.11476 0.23627
 H795 H 0.79471 0.08306 0.16208
 H796 H 0.78602 0.12739 0.13021
 C797 C 0.24927 0.60774 0.59116
 C798 C 0.27121 0.59253 0.58649
 C799 C 0.27025 0.56884 0.56584
 C800 C 0.24733 0.55983 0.54896
 C801 C 0.22507 0.57442 0.55616
 C802 C 0.22602 0.59819 0.57735
 C803 C 0.25140 0.63414 0.60694
 C804 C 0.23647 0.64403 0.64339
 C805 C 0.24051 0.66839 0.66028
 C806 C 0.25939 0.68322 0.64063
 C807 C 0.27322 0.67366 0.60243
 C808 C 0.26939 0.64939 0.58603
 H809 H 0.28774 0.55807 0.56122
 H810 H 0.20712 0.56802 0.54353
 H811 H 0.22958 0.67523 0.68978
 H812 H 0.28735 0.68485 0.58557
 H813 H 0.20886 0.60962 0.58069
 H814 H 0.22242 0.63259 0.65989
 H815 H 0.28929 0.59936 0.59756
 H816 H 0.28073 0.64237 0.55716
 C817 C 0.91190 0.74612 0.14925
 C818 C 0.92316 0.72329 0.13373
 C819 C 0.94354 0.72333 0.10264
 C820 C 0.95308 0.74620 0.08648
 C821 C 0.94252 0.76895 0.10359
 C822 C 0.92218 0.76891 0.13441
 C823 C 0.88817 0.74659 0.17702
 C824 C 0.88339 0.76567 0.21013
 C825 C 0.85930 0.76936 0.22909
 C826 C 0.83958 0.75381 0.21590
 C827 C 0.84483 0.73337 0.18609
 C828 C 0.86887 0.72985 0.16666
 H829 H 0.95136 0.70548 0.09028
 H830 H 0.94938 0.78692 0.09191
 H831 H 0.85574 0.78509 0.25244
 H832 H 0.82987 0.72126 0.17507
 H833 H 0.91377 0.78687 0.14484
 H834 H 0.89800 0.77850 0.21980
 H835 H 0.91589 0.70541 0.14490
 H836 H 0.87177 0.71509 0.14105
 C837 C 0.39549 0.25855 0.67470
 C838 C 0.40663 0.23450 0.66698
 C839 C 0.42913 0.23178 0.64159
 C840 C 0.44097 0.25305 0.62351
 C841 C 0.43045 0.27710 0.63318
 C842 C 0.40800 0.27980 0.65826
 C843 C 0.36988 0.26163 0.69572
 C844 C 0.36352 0.28290 0.72304
 C845 C 0.33844 0.28826 0.73546
 C846 C 0.31923 0.27229 0.72144
 C847 C 0.32577 0.25005 0.69726
 C848 C 0.35081 0.24482 0.68435
 H849 H 0.43682 0.21300 0.63493
 H850 H 0.43904 0.29391 0.61979
 H851 H 0.33391 0.30537 0.75463
 H852 H 0.31128 0.23754 0.68563
 H853 H 0.39984 0.29859 0.66271
 H854 H 0.37781 0.29592 0.73339
 H855 H 0.39768 0.21775 0.67970
 H856 H 0.35490 0.22843 0.66294
 C857 C 0.09875 0.24328 0.18204
 C858 C 0.08698 0.26690 0.17288
 C859 C 0.06484 0.26864 0.14635
 C860 C 0.05401 0.24680 0.12855
 C861 C 0.06508 0.22318 0.13972
 C862 C 0.08718 0.22145 0.16596
 C863 C 0.12419 0.24123 0.20380
 C864 C 0.13096 0.22040 0.23204
 C865 C 0.15614 0.21559 0.24428
 C866 C 0.17500 0.23174 0.22917
 C867 C 0.16801 0.25371 0.20448
 C868 C 0.14287 0.25837 0.19172
 H869 H 0.05667 0.28711 0.13856
 H870 H 0.05724 0.20596 0.12663
 H871 H 0.16107 0.19867 0.26381
 H872 H 0.18225 0.26633 0.19207
 H873 H 0.09586 0.20297 0.17152
 H874 H 0.11695 0.20716 0.24294
 H875 H 0.09523 0.28407 0.18527
 H876 H 0.13844 0.27445 0.16963
 C877 C 0.59793 0.74911 0.64164
 C878 C 0.58885 0.77253 0.62464
 C879 C 0.56720 0.77406 0.59675
 C880 C 0.55428 0.75217 0.58519
 C881 C 0.56274 0.72896 0.60395
 C882 C 0.58428 0.72744 0.63176
 C883 C 0.62248 0.74667 0.66641
 C884 C 0.62582 0.72914 0.70284
 C885 C 0.64975 0.72400 0.72136
 C886 C 0.67086 0.73642 0.70416
 C887 C 0.66739 0.75504 0.66973
 C888 C 0.64343 0.76007 0.65093
 H889 H 0.56115 0.79224 0.58284
 H890 H 0.55325 0.71172 0.59572
 H891 H 0.65191 0.70983 0.74839
 H892 H 0.68340 0.76472 0.65563
 H893 H 0.59092 0.70904 0.64368
 H894 H 0.60999 0.71889 0.71620
 H895 H 0.59878 0.78960 0.63211
 H896 H 0.64157 0.77347 0.62256
   
