data_POSCAR
  _audit_creation_date              2014-09-24
  _audit_creation_method            'ToBaCCo'
  _symmetry_space_group_name_H-M    'P1'
  _symmetry_Int_Tables_number       1
  _symmetry_cell_setting            triclinic
  loop_
  _symmetry_equiv_pos_as_xyz
 x,y,z
_cell_length_a 32.9323
_cell_length_b 34.2570
_cell_length_c 33.5090
_cell_angle_alpha 90.202200
_cell_angle_beta 89.845000
_cell_angle_gamma 90.368500
loop_
  _atom_site_label
  _atom_site_type_symbol
  _atom_site_fract_x
  _atom_site_fract_y
  _atom_site_fract_z
N1 N 0.29701 0.40420 1.38834
 N2 N 0.29372 0.37334 1.41125
 C3 C 0.26436 0.37959 1.43856
 C4 C 0.24858 0.41678 1.43290
 C5 C 0.27000 0.43110 1.40024
 H6 H 0.25516 0.35850 1.46080
 H7 H 0.26416 0.45774 1.38411
 Cu8 Cu 0.32697 0.32732 1.40236
 Cu9 Cu 0.33257 0.40573 1.34198
 Cu10 Cu 0.39589 0.32667 1.32820
 N11 N 0.37215 0.29089 1.40173
 N12 N 0.40020 0.29203 1.37382
 C13 C 0.42777 0.26405 1.38082
 C14 C 0.41658 0.24417 1.41523
 C15 C 0.38059 0.26175 1.42716
 H16 H 0.45256 0.25708 1.36084
 H17 H 0.36218 0.25425 1.45283
 N18 N 0.39411 0.37096 1.29100
 N19 N 0.37038 0.40141 1.29661
 C20 C 0.37488 0.42602 1.26564
 C21 C 0.40228 0.40999 1.23905
 C22 C 0.41440 0.37543 1.25636
 H23 H 0.35894 0.45329 1.26220
 H24 H 0.43572 0.35471 1.24406
 H25 H 0.33634 0.34669 1.33248
 H26 H 0.37511 0.36851 1.36665
 N27 N 1.20005 0.59773 0.88884
 N28 N 1.20570 0.63099 0.90773
 C29 C 1.23734 0.62750 0.93277
 C30 C 1.25221 0.58995 0.92965
 C31 C 1.22811 0.57202 0.90106
 H32 H 1.24933 0.65080 0.95124
 H33 H 1.23171 0.54291 0.88902
 Cu34 Cu 1.17339 0.67678 0.89626
 Cu35 Cu 1.15797 0.59100 0.84861
 Cu36 Cu 1.08968 0.66668 0.83964
 N37 N 1.13196 0.71675 0.89423
 N38 N 1.09821 0.71180 0.87399
 C39 C 1.07519 0.74392 0.87785
 C40 C 1.09632 0.77117 0.90056
 C41 C 1.13190 0.75241 0.91113
 H42 H 1.04636 0.74813 0.86315
 H43 H 1.15560 0.76350 0.93044
 N44 N 1.08666 0.61894 0.80703
 N45 N 1.11299 0.59022 0.80991
 C46 C 1.10521 0.56373 0.78104
 C47 C 1.07221 0.57629 0.75916
 C48 C 1.06164 0.61160 0.77622
 H49 H 1.12319 0.53803 0.77520
 H50 H 1.03898 0.63158 0.76530
 H51 H 1.14956 0.64894 0.83348
 H52 H 1.12093 0.63010 0.87795
 N53 N 0.71081 -0.10035 0.11730
 N54 N 0.70935 -0.12934 0.09154
 C55 C 0.73689 -0.12285 0.06247
 C56 C 0.75641 -0.08773 0.07035
 C57 C 0.73946 -0.07464 0.10577
 H58 H 0.74320 -0.14270 0.03809
 H59 H 0.74847 -0.04914 0.12278
 Cu60 Cu 0.67429 -0.17427 0.10111
 Cu61 Cu 0.67799 -0.10005 0.16567
 Cu62 Cu 0.59231 -0.15925 0.15867
 N63 N 0.63355 -0.21479 0.10904
 N64 N 0.60008 -0.20792 0.12927
 C65 C 0.57574 -0.23962 0.12737
 C66 C 0.59597 -0.26870 0.10649
 C67 C 0.63234 -0.25152 0.09480
 H68 H 0.54637 -0.24192 0.14174
 H69 H 0.65544 -0.26428 0.07591
 N70 N 0.59890 -0.11802 0.19967
 N71 N 0.63171 -0.09583 0.20239
 C72 C 0.62887 -0.07318 0.23511
 C73 C 0.59318 -0.08245 0.25481
 C74 C 0.57454 -0.11045 0.23111
 H75 H 0.65177 -0.05244 0.24471
 H76 H 0.54640 -0.12567 0.23749
 H77 H 0.65334 -0.15690 0.16854
 H78 H 0.63404 -0.12183 0.13059
 N79 N -0.18955 1.08629 -0.39598
 N80 N -0.18638 1.11253 -0.42437
 C81 C -0.21694 1.10740 -0.45053
 C82 C -0.24016 1.07588 -0.43817
 C83 C -0.22213 1.06347 -0.40322
 H84 H -0.22255 1.12586 -0.47603
 H85 H -0.23299 1.04061 -0.38365
 Cu86 Cu -0.14443 1.15257 -0.42323
 Cu87 Cu -0.15317 1.08552 -0.35022
 Cu88 Cu -0.08984 1.16570 -0.33955
 N89 N -0.11462 1.20064 -0.41322
 N90 N -0.09395 1.20593 -0.38019
 C91 C -0.07731 1.24187 -0.38048
 C92 C -0.08869 1.26072 -0.41535
 C93 C -0.11174 1.23298 -0.43574
 H94 H -0.05916 1.25374 -0.35643
 H95 H -0.12418 1.23525 -0.46546
 N96 N -0.09012 1.12172 -0.30190
 N97 N -0.11399 1.09088 -0.30611
 C98 C -0.10720 1.06608 -0.27576
 C99 C -0.07732 1.08195 -0.25162
 C100 C -0.06756 1.11738 -0.26879
 H101 H -0.12323 1.03883 -0.27106
 H102 H -0.04563 1.13840 -0.25777
 H103 H -0.14802 1.14554 -0.35135
 H104 H -0.10509 1.11720 -0.37376
 N105 N 0.68858 0.59533 0.61137
 N106 N 0.68776 0.62199 0.58327
 C107 C 0.71931 0.61627 0.55825
 C108 C 0.74064 0.58401 0.57112
 C109 C 0.72061 0.57189 0.60527
 H110 H 0.72657 0.63432 0.53277
 H111 H 0.72932 0.54827 0.62472
 Cu112 Cu 0.64613 0.66210 0.58292
 Cu113 Cu 0.64882 0.59334 0.65437
 Cu114 Cu 0.57561 0.66543 0.65580
 N115 N 0.60534 0.70296 0.58490
 N116 N 0.57755 0.70369 0.61313
 C117 C 0.55372 0.73500 0.60796
 C118 C 0.56711 0.75485 0.57458
 C119 C 0.60025 0.73406 0.56096
 H120 H 0.52931 0.74354 0.62775
 H121 H 0.61951 0.74154 0.53590
 N122 N 0.57856 0.62414 0.69632
 N123 N 0.60603 0.59628 0.69543
 C124 C 0.60051 0.57299 0.72731
 C125 C 0.56785 0.58666 0.74917
 C126 C 0.55509 0.61947 0.72895
 H127 H 0.61935 0.54834 0.73474
 H128 H 0.53132 0.63920 0.73817
 H129 H 0.60256 0.62068 0.62409
 H130 H 0.63693 0.65255 0.65445
 N131 N 0.80707 0.40810 0.11055
 N132 N 0.80492 0.37695 0.08763
 C133 C 0.77505 0.38170 0.06076
 C134 C 0.75796 0.41800 0.06688
 C135 C 0.77877 0.43378 0.09895
 H136 H 0.76549 0.35994 0.03923
 H137 H 0.77217 0.46097 0.11406
 Cu138 Cu 0.83920 0.33198 0.09658
 Cu139 Cu 0.84276 0.41097 0.15661
 Cu140 Cu 0.91296 0.33708 0.16616
 N141 N 0.88370 0.29516 0.09764
 N142 N 0.91266 0.29734 0.12450
 C143 C 0.93863 0.26763 0.11876
 C144 C 0.92540 0.24601 0.08631
 C145 C 0.89023 0.26404 0.07394
 H146 H 0.96448 0.26144 0.13749
 H147 H 0.87062 0.25479 0.04981
 N148 N 0.90797 0.38005 0.20507
 N149 N 0.88129 0.40838 0.20125
 C150 C 0.88351 0.43194 0.23343
 C151 C 0.91256 0.41739 0.25893
 C152 C 0.92791 0.38486 0.23981
 H153 H 0.86467 0.45720 0.23859
 H154 H 0.95086 0.36542 0.25117
 H155 H 0.88619 0.37695 0.12853
 H156 H 0.85208 0.35176 0.16535
 N157 N 0.31808 0.09167 0.89348
 N158 N 0.31943 0.12021 0.91979
 C159 C 0.28722 0.11700 0.94449
 C160 C 0.26475 0.08462 0.93310
 C161 C 0.28496 0.06950 0.90041
 H162 H 0.27948 0.13760 0.96779
 H163 H 0.27542 0.04496 0.88226
 Cu164 Cu 0.36108 0.16063 0.91672
 Cu165 Cu 0.35743 0.08702 0.85032
 Cu166 Cu 0.43195 0.15877 0.84434
 N167 N 0.40305 0.20069 0.91305
 N168 N 0.43095 0.19957 0.88493
 C169 C 0.45509 0.23129 0.88820
 C170 C 0.44168 0.25332 0.92019
 C171 C 0.40835 0.23333 0.93498
 H172 H 0.47950 0.23868 0.86788
 H173 H 0.38891 0.24255 0.95925
 N174 N 0.42789 0.11503 0.80617
 N175 N 0.39989 0.08739 0.80881
 C176 C 0.40404 0.06273 0.77769
 C177 C 0.43623 0.07537 0.75451
 C178 C 0.45036 0.10880 0.77313
 H179 H 0.38402 0.03840 0.77116
 H180 H 0.47447 0.12772 0.76258
 H181 H 0.40417 0.11642 0.87866
 H182 H 0.37049 0.14605 0.84602
 N183 N 0.18982 0.91299 0.38970
 N184 N 0.18965 0.88516 0.41658
 C185 C 0.22054 0.89146 0.44220
 C186 C 0.24076 0.92529 0.43094
 C187 C 0.22073 0.93775 0.39714
 H188 H 0.22849 0.87243 0.46660
 H189 H 0.22913 0.96214 0.37839
 Cu190 Cu 0.15038 0.84242 0.41381
 Cu191 Cu 0.15161 0.91420 0.34571
 Cu192 Cu 0.08280 0.83764 0.33848
 N193 N 0.11204 0.79914 0.40885
 N194 N 0.08548 0.79765 0.37962
 C195 C 0.06238 0.76532 0.38365
 C196 C 0.07498 0.74567 0.41733
 C197 C 0.10686 0.76762 0.43231
 H198 H 0.03830 0.75658 0.36356
 H199 H 0.12459 0.76114 0.45855
 N200 N 0.08493 0.88104 0.29991
 N201 N 0.11074 0.91051 0.30324
 C202 C 0.10504 0.93526 0.27270
 C203 C 0.07401 0.92090 0.24917
 C204 C 0.06228 0.88622 0.26690
 H205 H 0.12283 0.96133 0.26716
 H206 H 0.03921 0.86620 0.25621
 H207 H 0.10568 0.88238 0.37307
 H208 H 0.14298 0.85424 0.34249
 Zn209 Zn 0.05281 0.97967 0.01231
 Zn210 Zn -0.02272 0.97334 -0.03670
 Zn211 Zn -0.02370 1.01477 0.04192
 Zn212 Zn 0.01956 1.05038 -0.02727
 O213 O 0.00646 1.00455 -0.00251
 O214 O 0.05900 0.93432 -0.01293
 O215 O -0.07170 0.95962 -0.01707
 O216 O -0.00151 0.99638 0.08671
 O217 O 0.00376 0.92950 -0.05009
 O218 O 0.05515 0.96944 0.06456
 O219 O -0.07300 0.99340 0.03948
 O220 O 0.00108 1.09229 -0.00107
 O221 O -0.03268 0.99681 -0.08330
 O222 O -0.03126 1.06574 0.05018
 O223 O -0.00054 1.05336 -0.07671
 O224 O 0.07317 1.05765 -0.03201
 O225 O 0.09780 1.00671 0.00015
 C226 C 0.03816 0.91679 -0.03929
 C227 C -0.08993 0.97088 0.01434
 C228 C 0.03117 0.97798 0.09290
 C229 C -0.01942 1.09550 0.03086
 C230 C -0.02165 1.02960 -0.09725
 C231 C 0.10298 1.03820 -0.01906
 Zn232 Zn 0.48367 -0.04067 0.47061
 Zn233 Zn 0.52948 -0.01079 0.54100
 Zn234 Zn 0.53071 0.03409 0.46454
 Zn235 Zn 0.45526 0.03014 0.51391
 O236 O 0.49985 0.00321 0.49748
 O237 O 0.49828 -0.08474 0.49513
 O238 O 0.58004 0.00786 0.53927
 O239 O 0.54060 0.01128 0.41731
 O240 O 0.53413 -0.06238 0.54616
 O241 O 0.50583 -0.04416 0.42206
 O242 O 0.58048 0.04370 0.48434
 O243 O 0.45394 0.07840 0.49408
 O244 O 0.50815 0.00601 0.58707
 O245 O 0.50789 0.08074 0.45492
 O246 O 0.45252 0.03589 0.56689
 O247 O 0.40860 0.00755 0.49854
 O248 O 0.42991 -0.04358 0.46414
 C249 C 0.51958 -0.09052 0.52600
 C250 C 0.59824 0.03012 0.51481
 C251 C 0.52977 -0.02162 0.40329
 C252 C 0.47656 0.09677 0.46971
 C253 C 0.47597 0.02485 0.59455
 C254 C 0.40135 -0.02218 0.47695
 Zn255 Zn 1.04268 0.52888 0.52014
 Zn256 Zn 0.96760 0.48972 0.54973
 Zn257 Zn 0.96631 0.53214 0.47213
 Zn258 Zn 1.01158 0.45699 0.47959
 O259 O 0.99702 0.50197 0.50533
 O260 O 1.04581 0.53664 0.57306
 O261 O 0.91792 0.51007 0.54913
 O262 O 0.98957 0.57840 0.46153
 O263 O 0.99044 0.50667 0.59484
 O264 O 1.04526 0.57650 0.49826
 O265 O 0.91703 0.54274 0.49227
 O266 O 0.99083 0.45369 0.43059
 O267 O 0.95956 0.43863 0.55530
 O268 O 0.95637 0.50876 0.42524
 O269 O 0.99310 0.41380 0.50384
 O270 O 1.06534 0.45213 0.47410
 O271 O 1.08852 0.50482 0.50516
 C272 C 1.02226 0.52668 0.60137
 C273 C 0.89977 0.53136 0.52408
 C274 C 1.02185 0.59435 0.47455
 C275 C 0.96744 0.47599 0.41137
 C276 C 0.97088 0.40974 0.53451
 C277 C 1.09464 0.47375 0.48532
 Zn278 Zn 0.47355 0.49000 0.95798
 Zn279 Zn 0.54835 0.52874 0.98709
 Zn280 Zn 0.47257 0.53251 1.03528
 Zn281 Zn 0.51829 0.45845 1.02752
 O282 O 0.50294 0.50245 1.00189
 O283 O 0.49390 0.51159 0.91356
 O284 O 0.55613 0.57156 1.01701
 O285 O 0.42625 0.54836 1.01255
 O286 O 0.54762 0.54381 0.93608
 O287 O 0.42270 0.50756 0.96102
 O288 O 0.49958 0.57487 1.05285
 O289 O 0.49290 0.45211 1.07416
 O290 O 0.59344 0.50040 0.99301
 O291 O 0.45706 0.50640 1.07908
 O292 O 0.57177 0.45714 1.03689
 O293 O 0.50617 0.41522 0.99976
 O294 O 0.47071 0.43852 0.94917
 C295 C 0.52376 0.53454 0.90784
 C296 C 0.53476 0.58765 1.04401
 C297 C 0.40710 0.53353 0.98328
 C298 C 0.46696 0.47304 1.09210
 C299 C 0.60066 0.47411 1.01851
 C300 C 0.48592 0.41005 0.96798
 C301 C 1.20652 0.47462 0.45180
 C302 C 1.21420 0.43363 0.45163
 C303 C 1.18432 0.40856 0.46747
 C304 C 1.14638 0.42247 0.47869
 C305 C 1.13663 0.46198 0.47495
 C306 C 1.16686 0.48862 0.46135
 C307 C 1.23771 0.50229 0.44457
 C308 C 1.22915 0.54196 0.44170
 C309 C 1.18959 0.55503 0.44650
 C310 C 1.15867 0.52880 0.45635
 H311 H 1.26916 0.49379 0.44223
 H312 H 1.25335 0.56265 0.43557
 H313 H 1.18292 0.58577 0.44335
 H314 H 1.12855 0.54060 0.45966
 H315 H 1.18893 0.37735 0.46884
 H316 H 1.12392 0.40179 0.48955
 C317 C 0.29312 0.53592 0.96265
 C318 C 0.28980 0.57465 0.94800
 C319 C 0.32387 0.59941 0.94923
 C320 C 0.36128 0.58592 0.96228
 C321 C 0.36591 0.54716 0.97416
 C322 C 0.33169 0.52193 0.97526
 C323 C 0.25891 0.51109 0.96620
 C324 C 0.26285 0.47310 0.98047
 C325 C 0.30068 0.45923 0.99191
 C326 C 0.33484 0.48335 0.98957
 H327 H 0.22871 0.52093 0.95900
 H328 H 0.23633 0.45444 0.98301
 H329 H 0.30348 0.42980 1.00319
 H330 H 0.36348 0.47173 0.99970
 H331 H 0.32197 0.62914 0.93853
 H332 H 0.38725 0.60550 0.96156
 C333 C -0.20180 0.96971 0.04464
 C334 C -0.20758 0.92891 0.04969
 C335 C -0.17679 0.90329 0.03764
 C336 C -0.13952 0.91743 0.02403
 C337 C -0.13180 0.95759 0.02245
 C338 C -0.16339 0.98418 0.03144
 C339 C -0.23353 0.99647 0.05156
 C340 C -0.22717 1.03649 0.04702
 C341 C -0.18944 1.05064 0.03490
 C342 C -0.15787 1.02486 0.02682
 H343 H -0.26376 0.98680 0.05957
 H344 H -0.25179 1.05661 0.05252
 H345 H -0.18478 1.08173 0.03113
 H346 H -0.12950 1.03711 0.01619
 H347 H -0.18074 0.87204 0.04080
 H348 H -0.11574 0.89684 0.01684
 C349 C 0.71093 0.02203 0.54034
 C350 C 0.72067 0.06221 0.54500
 C351 C 0.69160 0.09033 0.53530
 C352 C 0.65249 0.07938 0.52395
 C353 C 0.64125 0.03998 0.52213
 C354 C 0.67082 0.01083 0.52894
 C355 C 0.74040 -0.00728 0.54559
 C356 C 0.73043 -0.04660 0.54056
 C357 C 0.69124 -0.05754 0.52966
 C358 C 0.66170 -0.02923 0.52359
 H359 H 0.77158 -0.00017 0.55267
 H360 H 0.75338 -0.06870 0.54466
 H361 H 0.68381 -0.08809 0.52536
 H362 H 0.63205 -0.03907 0.51389
 H363 H 0.69865 0.12114 0.53821
 H364 H 0.63031 0.10190 0.51825
 C365 C 0.47726 0.20347 0.43168
 C366 C 0.43455 0.21048 0.43168
 C367 C 0.40865 0.18204 0.44803
 C368 C 0.42324 0.14609 0.46012
 C369 C 0.46466 0.13707 0.45786
 C370 C 0.49245 0.16663 0.44513
 C371 C 0.50551 0.23335 0.42211
 C372 C 0.54715 0.22679 0.42354
 C373 C 0.56181 0.19100 0.43606
 C374 C 0.53499 0.16147 0.44745
 H375 H 0.49611 0.26265 0.41522
 H376 H 0.56820 0.25004 0.41601
 H377 H 0.59424 0.18647 0.43813
 H378 H 0.54849 0.13552 0.45951
 H379 H 0.37610 0.18637 0.44911
 H380 H 0.40135 0.12458 0.47039
 C381 C 0.90032 0.32189 0.54503
 C382 C 0.92318 0.29864 0.57225
 C383 C 0.96025 0.31379 0.58677
 C384 C 0.97576 0.34930 0.57351
 C385 C 0.95517 0.37090 0.54495
 C386 C 0.91747 0.35733 0.53009
 C387 C 0.85965 0.31293 0.53471
 C388 C 0.83865 0.33527 0.50693
 C389 C 0.85698 0.36782 0.48979
 C390 C 0.89572 0.37928 0.50170
 H391 H 0.84273 0.28995 0.54922
 H392 H 0.80772 0.32763 0.49914
 H393 H 0.84053 0.38509 0.46828
 H394 H 0.90823 0.40572 0.48886
 H395 H 0.97855 0.29756 0.60764
 H396 H 1.00427 0.35997 0.58557
 C397 C 0.11093 0.84136 -0.08461
 C398 C 0.08362 0.80909 -0.08888
 C399 C 0.04205 0.81507 -0.08174
 C400 C 0.02799 0.85022 -0.06628
 C401 C 0.05472 0.88110 -0.05819
 C402 C 0.09632 0.87759 -0.06913
 C403 C 0.15146 0.83977 -0.09879
 C404 C 0.17749 0.87180 -0.09548
 C405 C 0.16351 0.90669 -0.07961
 C406 C 0.12328 0.90994 -0.06728
 H407 H 0.16317 0.81465 -0.11441
 H408 H 0.20838 0.86987 -0.10640
 H409 H 0.18359 0.93179 -0.07804
 H410 H 0.11358 0.93856 -0.05788
 H411 H 0.02027 0.79154 -0.08563
 H412 H -0.00403 0.85282 -0.05930
 C413 C 0.60737 0.66036 1.09451
 C414 C 0.58159 0.69360 1.09678
 C415 C 0.54018 0.68890 1.08777
 C416 C 0.52541 0.65410 1.07165
 C417 C 0.55114 0.62234 1.06517
 C418 C 0.59184 0.62445 1.07887
 C419 C 0.64705 0.66088 1.11069
 C420 C 0.67111 0.62758 1.11022
 C421 C 0.65596 0.59276 1.09485
 C422 C 0.61670 0.59096 1.07956
 H423 H 0.65932 0.68623 1.12572
 H424 H 0.70128 0.62854 1.12295
 H425 H 0.67437 0.56672 1.09574
 H426 H 0.60563 0.56271 1.06995
 H427 H 0.51947 0.71325 1.09024
 H428 H 0.49386 0.65253 1.06262
 C429 C 0.38936 0.43962 1.17054
 C430 C 0.41635 0.42629 1.20052
 C431 C 0.45827 0.42786 1.19367
 C432 C 0.47390 0.44334 1.15850
 C433 C 0.44815 0.45796 1.12903
 C434 C 0.40543 0.45581 1.13455
 C435 C 0.34681 0.43559 1.17457
 C436 C 0.32077 0.44810 1.14455
 C437 C 0.33641 0.46413 1.10965
 C438 C 0.37825 0.46768 1.10439
 H439 H 0.33312 0.42193 1.20033
 H440 H 0.28825 0.44480 1.14815
 H441 H 0.31603 0.47333 1.08624
 H442 H 0.38881 0.47909 1.07617
 H443 H 0.47923 0.41739 1.21603
 H444 H 0.50654 0.44425 1.15439
 C445 C 0.60447 -0.06401 0.32785
 C446 C 0.57881 -0.06734 0.29387
 C447 C 0.53807 -0.05607 0.29702
 C448 C 0.52271 -0.04071 0.33249
 C449 C 0.54782 -0.03554 0.36568
 C450 C 0.58901 -0.04715 0.36372
 C451 C 0.64451 -0.07870 0.32783
 C452 C 0.66923 -0.07496 0.36136
 C453 C 0.65452 -0.05730 0.39586
 C454 C 0.61473 -0.04382 0.39731
 H455 H 0.65693 -0.09419 0.30256
 H456 H 0.69985 -0.08625 0.36072
 H457 H 0.67379 -0.05467 0.42187
 H458 H 0.60432 -0.03126 0.42516
 H459 H 0.51795 -0.05894 0.27163
 H460 H 0.49098 -0.03265 0.33404
 C461 C -0.04646 1.02800 -0.20935
 C462 C -0.06157 1.06649 -0.21350
 C463 C -0.06126 1.09168 -0.18053
 C464 C -0.04784 1.07912 -0.14348
 C465 C -0.03410 1.04092 -0.13801
 C466 C -0.03243 1.01511 -0.17132
 C467 C -0.04331 1.00255 -0.24247
 C468 C -0.02739 0.96520 -0.23824
 C469 C -0.01354 0.95270 -0.20131
 C470 C -0.01556 0.97738 -0.16822
 H471 H -0.05220 1.01137 -0.27208
 H472 H -0.02518 0.94607 -0.26393
 H473 H -0.00055 0.92390 -0.19840
 H474 H -0.00285 0.96674 -0.14070
 H475 H -0.07231 1.12128 -0.18328
 H476 H -0.04893 1.09934 -0.11856
 C477 C 1.01493 0.56028 0.71080
 C478 C 1.05675 0.56006 0.72096
 C479 C 1.08521 0.54759 0.69261
 C480 C 1.07324 0.53690 0.65430
 C481 C 1.03242 0.53850 0.64279
 C482 C 1.00276 0.55093 0.67102
 C483 C 0.98481 0.56933 0.73942
 C484 C 0.94412 0.57198 0.72858
 C485 C 0.93260 0.56578 0.68918
 C486 C 0.96145 0.55548 0.66059
 H487 H 0.99225 0.57393 0.77048
 H488 H 0.92145 0.57927 0.75080
 H489 H 0.90107 0.56879 0.68074
 H490 H 0.95083 0.55191 0.63036
 H491 H 1.11727 0.54726 0.69971
 H492 H 1.09629 0.52749 0.63328
 C493 C 0.78697 0.52780 0.55143
 C494 C 0.77916 0.56844 0.55467
 C495 C 0.80960 0.59520 0.54384
 C496 C 0.84809 0.58256 0.53259
 C497 C 0.85745 0.54279 0.53224
 C498 C 0.82661 0.51489 0.54065
 C499 C 0.75603 0.49965 0.55746
 C500 C 0.76427 0.45988 0.55456
 C501 C 0.80313 0.44730 0.54485
 C502 C 0.83398 0.47438 0.53747
 H503 H 0.72501 0.50792 0.56349
 H504 H 0.74025 0.43870 0.55943
 H505 H 0.80921 0.41638 0.54246
 H506 H 0.86329 0.46320 0.52861
 H507 H 0.80409 0.62630 0.54562
 H508 H 0.87128 0.60412 0.52570
 C509 C 0.71636 0.47271 1.03689
 C510 C 0.72030 0.43331 1.04899
 C511 C 0.68657 0.40843 1.04734
 C512 C 0.64873 0.42236 1.03643
 C513 C 0.64303 0.46174 1.02663
 C514 C 0.67737 0.48743 1.02618
 C515 C 0.75058 0.49771 1.03492
 C516 C 0.74653 0.53671 1.02422
 C517 C 0.70849 0.55160 1.01537
 C518 C 0.67424 0.52749 1.01648
 H519 H 0.78083 0.48727 1.04106
 H520 H 0.77303 0.55553 1.02299
 H521 H 0.70543 0.58212 1.00774
 H522 H 0.64576 0.54130 1.01014
 H523 H 0.68912 0.37816 1.05623
 H524 H 0.62333 0.40208 1.03637
 C525 C 0.21585 1.06531 -0.01125
 C526 C 0.22419 1.07274 -0.05211
 C527 C 0.19287 1.06948 -0.08010
 C528 C 0.15371 1.05933 -0.06842
 C529 C 0.14461 1.05153 -0.02841
 C530 C 0.17560 1.05492 0.00076
 C531 C 0.24671 1.06714 0.01787
 C532 C 0.23788 1.06037 0.05798
 C533 C 0.19835 1.05159 0.06987
 C534 C 0.16740 1.04887 0.04167
 H535 H 0.27790 1.07348 0.00999
 H536 H 0.26183 1.06204 0.07999
 H537 H 0.19165 1.04675 0.10111
 H538 H 0.13709 1.04242 0.05234
 H539 H 0.19872 1.07520 -0.11139
 H540 H 0.13038 1.05675 -0.09105
 C541 C 0.28802 -0.01827 0.44942
 C542 C 0.27953 -0.05893 0.44697
 C543 C 0.31005 -0.08554 0.45646
 C544 C 0.34890 -0.07280 0.46639
 C545 C 0.35888 -0.03295 0.46690
 C546 C 0.32837 -0.00514 0.45784
 C547 C 0.25722 0.00971 0.44400
 C548 C 0.26635 0.04948 0.44377
 C549 C 0.30617 0.06219 0.44887
 C550 C 0.33696 0.03533 0.45574
 H551 H 0.22576 0.00126 0.44049
 H552 H 0.24244 0.07053 0.43924
 H553 H 0.31323 0.09308 0.44773
 H554 H 0.36735 0.04690 0.45864
 H555 H 0.30425 -0.11667 0.45488
 H556 H 0.37161 -0.09448 0.47335
 C557 C 0.51121 -0.19908 0.55262
 C558 C 0.55276 -0.20692 0.56016
 C559 C 0.58159 -0.17704 0.55581
 C560 C 0.56996 -0.13957 0.54520
 C561 C 0.52915 -0.13081 0.53808
 C562 C 0.49921 -0.16054 0.54200
 C563 C 0.48135 -0.22877 0.55476
 C564 C 0.44051 -0.22041 0.54832
 C565 C 0.42861 -0.18250 0.53961
 C566 C 0.45752 -0.15275 0.53649
 H567 H 0.48920 -0.25872 0.56097
 H568 H 0.41796 -0.24345 0.55024
 H569 H 0.39680 -0.17612 0.53511
 H570 H 0.44671 -0.12371 0.53014
 H571 H 0.61341 -0.18255 0.56154
 H572 H 0.59318 -0.11719 0.54221
 C573 C 1.01765 0.70217 0.44290
 C574 C 1.05918 0.70823 0.43316
 C575 C 1.08692 0.67807 0.43911
 C576 C 1.07411 0.64173 0.45283
 C577 C 1.03310 0.63432 0.46144
 C578 C 1.00450 0.66503 0.45754
 C579 C 0.98915 0.73268 0.44001
 C580 C 0.94872 0.72682 0.45091
 C581 C 0.93599 0.69089 0.46566
 C582 C 0.96350 0.66039 0.46939
 H583 H 0.99783 0.76154 0.43012
 H584 H 0.92728 0.75053 0.44856
 H585 H 0.90470 0.68678 0.47482
 H586 H 0.95226 0.63373 0.48261
 H587 H 1.11880 0.68242 0.43225
 H588 H 1.09648 0.61889 0.45606
 C589 C -0.01650 1.20339 0.06173
 C590 C -0.05813 1.20865 0.07132
 C591 C -0.08518 1.17717 0.06747
 C592 C -0.07176 1.14074 0.05497
 C593 C -0.03089 1.13462 0.04544
 C594 C -0.00263 1.16587 0.04930
 C595 C 0.01157 1.23469 0.06344
 C596 C 0.05256 1.22880 0.05503
 C597 C 0.06640 1.19183 0.04471
 C598 C 0.03923 1.16058 0.04185
 H599 H 0.00220 1.26401 0.07083
 H600 H 0.07374 1.25305 0.05668
 H601 H 0.09835 1.18736 0.03872
 H602 H 0.05153 1.13235 0.03419
 H603 H -0.11704 1.18068 0.07474
 H604 H -0.09369 1.11715 0.05219
 C605 C 0.49682 0.30164 0.94110
 C606 C 0.45567 0.29274 0.93218
 C607 C 0.42661 0.32231 0.93407
 C608 C 0.43747 0.36025 0.94446
 C609 C 0.47771 0.36988 0.95382
 C610 C 0.50804 0.34067 0.95156
 C611 C 0.52696 0.27251 0.94078
 C612 C 0.56739 0.28185 0.94889
 C613 C 0.57859 0.32019 0.95751
 C614 C 0.54935 0.34942 0.95883
 H615 H 0.51966 0.24228 0.93463
 H616 H 0.59018 0.25923 0.94834
 H617 H 0.61010 0.32731 0.96332
 H618 H 0.55963 0.37883 0.96509
 H619 H 0.39510 0.31601 0.92719
 H620 H 0.41392 0.38217 0.94615
 C621 C 0.51218 0.57016 0.79976
 C622 C 0.55381 0.57253 0.78870
 C623 C 0.58354 0.56285 0.81670
 C624 C 0.57300 0.55141 0.85509
 C625 C 0.53228 0.54943 0.86716
 C626 C 0.50137 0.55994 0.83973
 C627 C 0.48091 0.57694 0.77190
 C628 C 0.44029 0.57668 0.78369
 C629 C 0.42995 0.56960 0.82328
 C630 C 0.46003 0.56133 0.85112
 H631 H 0.48731 0.58192 0.74070
 H632 H 0.41672 0.58228 0.76204
 H633 H 0.39841 0.57026 0.83243
 H634 H 0.45037 0.55678 0.88158
 H635 H 0.61547 0.56458 0.80897
 H636 H 0.59705 0.54356 0.87550
 C637 C 0.45706 0.02052 0.70746
 C638 C 0.44821 0.06041 0.71477
 C639 C 0.44899 0.08689 0.68306
 C640 C 0.45747 0.07451 0.64440
 C641 C 0.46605 0.03533 0.63620
 C642 C 0.46561 0.00777 0.66774
 C643 C 0.45824 -0.00690 0.73879
 C644 C 0.46602 -0.04616 0.73103
 C645 C 0.47279 -0.05887 0.69211
 C646 C 0.47258 -0.03232 0.66067
 H647 H 0.45357 0.00169 0.76952
 H648 H 0.46666 -0.06687 0.75534
 H649 H 0.47835 -0.08947 0.68624
 H650 H 0.47751 -0.04368 0.63093
 H651 H 0.44216 0.11741 0.68814
 H652 H 0.45773 0.09589 0.62063
 C653 C 0.04910 0.97666 0.20594
 C654 C 0.06014 0.93695 0.21065
 C655 C 0.06061 0.91223 0.17732
 C656 C 0.05156 0.92632 0.13952
 C657 C 0.04124 0.96549 0.13383
 C658 C 0.04021 0.99123 0.16711
 C659 C 0.04613 1.00216 0.23903
 C660 C 0.03653 1.04138 0.23384
 C661 C 0.02968 1.05599 0.19578
 C662 C 0.03150 1.03132 0.16266
 H663 H 0.05071 0.99204 0.26919
 H664 H 0.03457 1.06059 0.25948
 H665 H 0.02277 1.08659 0.19191
 H666 H 0.02645 1.04418 0.13371
 H667 H 0.06908 0.88188 0.18043
 H668 H 0.05241 0.90632 0.11440
 C669 C 0.89569 0.44012 0.32948
 C670 C 0.92435 0.43258 0.29865
 C671 C 0.96575 0.43887 0.30588
 C672 C 0.97909 0.45344 0.34240
 C673 C 0.95142 0.46243 0.37274
 C674 C 0.90938 0.45544 0.36676
 C675 C 0.85402 0.43109 0.32491
 C676 C 0.82648 0.43786 0.35581
 C677 C 0.83980 0.45315 0.39201
 C678 C 0.88081 0.46165 0.39769
 H679 H 0.84230 0.41787 0.29798
 H680 H 0.79468 0.43074 0.35181
 H681 H 0.81834 0.45793 0.41604
 H682 H 0.88982 0.47249 0.42672
 H683 H 0.98799 0.43270 0.28286
 H684 H 1.01135 0.45789 0.34702
   
