data_POSCAR
  _audit_creation_date              2014-09-24
  _audit_creation_method            'ToBaCCo'
  _symmetry_space_group_name_H-M    'P1'
  _symmetry_Int_Tables_number       1
  _symmetry_cell_setting            triclinic
  loop_
  _symmetry_equiv_pos_as_xyz
 x,y,z
_cell_length_a 45.2205
_cell_length_b 44.6243
_cell_length_c 45.2265
_cell_angle_alpha 89.951200
_cell_angle_beta 90.004600
_cell_angle_gamma 89.999200
loop_
  _atom_site_label
  _atom_site_type_symbol
  _atom_site_fract_x
  _atom_site_fract_y
  _atom_site_fract_z
N1 N 0.59129 0.67208 0.61208
 N2 N 0.57975 0.65983 0.63590
 C3 C 0.55573 0.67568 0.64406
 C4 C 0.55225 0.69892 0.62427
 C5 C 0.57505 0.69611 0.60426
 H6 H 0.54180 0.67078 0.66289
 H7 H 0.57946 0.71044 0.58548
 Cu8 Cu 0.59729 0.62438 0.65380
 Cu9 Cu 0.62646 0.65600 0.59296
 Cu10 Cu 0.65807 0.59278 0.62456
 N11 N 0.61520 0.58894 0.67135
 N12 N 0.63900 0.57668 0.65977
 C13 C 0.64681 0.55262 0.67599
 C14 C 0.62681 0.54984 0.69879
 C15 C 0.60703 0.57307 0.69537
 H16 H 0.66557 0.53828 0.67152
 H17 H 0.58820 0.57797 0.70930
 N18 N 0.67411 0.61235 0.58892
 N19 N 0.66207 0.63644 0.57689
 C20 C 0.67801 0.64442 0.55297
 C21 C 0.70099 0.62441 0.54998
 C22 C 0.69802 0.60440 0.57296
 H23 H 0.67332 0.66333 0.53876
 H24 H 0.71224 0.58550 0.57764
 H25 H 0.62061 0.61221 0.60671
 H26 H 0.64437 0.63656 0.63040
 N27 N 0.91008 0.32745 0.11111
 N28 N 0.92203 0.34005 0.13454
 C29 C 0.94605 0.32417 0.14271
 C30 C 0.94907 0.30058 0.12330
 C31 C 0.92604 0.30316 0.10353
 H32 H 0.96023 0.32931 0.16129
 H33 H 0.92126 0.28852 0.08508
 Cu34 Cu 0.90502 0.37591 0.15210
 Cu35 Cu 0.87475 0.34342 0.09221
 Cu36 Cu 0.84326 0.40663 0.12374
 N37 N 0.88670 0.41097 0.16992
 N38 N 0.86255 0.42287 0.15871
 C39 C 0.85456 0.44669 0.17514
 C40 C 0.87480 0.44972 0.19771
 C41 C 0.89490 0.42684 0.19390
 H42 H 0.83551 0.46074 0.17101
 H43 H 0.91396 0.42217 0.20759
 N44 N 0.82701 0.38694 0.08831
 N45 N 0.83900 0.36286 0.07629
 C46 C 0.82296 0.35483 0.05247
 C47 C 0.79995 0.37481 0.04953
 C48 C 0.80302 0.39487 0.07244
 H49 H 0.82761 0.33593 0.03826
 H50 H 0.78884 0.41379 0.07710
 H51 H 0.88054 0.38738 0.10536
 H52 H 0.85757 0.36305 0.12989
 N53 N 0.40853 0.17310 -0.11205
 N54 N 0.41977 0.16118 -0.13615
 C55 C 0.44378 0.17706 -0.14433
 C56 C 0.44755 0.19997 -0.12428
 C57 C 0.42494 0.19694 -0.10408
 H58 H 0.45750 0.17238 -0.16336
 H59 H 0.42078 0.21101 -0.08507
 Cu60 Cu 0.40197 0.12609 -0.15444
 Cu61 Cu 0.37352 0.15685 -0.09280
 Cu62 Cu 0.34202 0.09359 -0.12422
 N63 N 0.38443 0.09021 -0.17142
 N64 N 0.36098 0.07761 -0.15949
 C65 C 0.35342 0.05333 -0.17545
 C66 C 0.37321 0.05071 -0.19845
 C67 C 0.39260 0.07431 -0.19539
 H68 H 0.33496 0.03868 -0.17070
 H69 H 0.41120 0.07944 -0.20956
 N70 N 0.32605 0.11305 -0.08854
 N71 N 0.33806 0.13715 -0.07657
 C72 C 0.32216 0.14508 -0.05261
 C73 C 0.29924 0.12501 -0.04954
 C74 C 0.30221 0.10501 -0.07251
 H75 H 0.32680 0.16402 -0.03846
 H76 H 0.28801 0.08609 -0.07715
 H77 H 0.37968 0.11326 -0.10701
 H78 H 0.35519 0.13755 -0.13007
 N79 N 0.08995 0.82702 0.38877
 N80 N 0.07796 0.83970 0.36538
 C81 C 0.05394 0.82384 0.35722
 C82 C 0.05096 0.80018 0.37658
 C83 C 0.07401 0.80270 0.39633
 H84 H 0.03973 0.82904 0.33867
 H85 H 0.07882 0.78800 0.41475
 Cu86 Cu 0.09492 0.87565 0.34788
 Cu87 Cu 0.12529 0.84296 0.40767
 Cu88 Cu 0.15666 0.90633 0.37625
 N89 N 0.11318 0.91080 0.33011
 N90 N 0.13732 0.92269 0.34133
 C91 C 0.14527 0.94658 0.32494
 C92 C 0.12501 0.94967 0.30239
 C93 C 0.10495 0.92674 0.30616
 H94 H 0.16431 0.96063 0.32909
 H95 H 0.08589 0.92210 0.29248
 N96 N 0.17298 0.88653 0.41162
 N97 N 0.16102 0.86238 0.42359
 C98 C 0.17711 0.85428 0.44738
 C99 C 0.20009 0.87428 0.45034
 C100 C 0.19697 0.89442 0.42748
 H101 H 0.17249 0.83532 0.46155
 H102 H 0.21112 0.91339 0.42285
 H103 H 0.11942 0.88696 0.39462
 H104 H 0.14241 0.86276 0.37002
 C105 C 0.10190 0.12542 0.14744
 C106 C 0.07991 0.14758 0.14704
 C107 C 0.07967 0.16978 0.12494
 C108 C 0.10180 0.16958 0.10309
 C109 C 0.12394 0.14756 0.10319
 C110 C 0.12399 0.12536 0.12541
 C111 C 0.10215 0.10333 0.16952
 C112 C 0.12418 0.08108 0.16990
 C113 C 0.14609 0.08114 0.14783
 C114 C 0.14613 0.10308 0.12561
 C115 C 0.16803 0.10318 0.10365
 C116 C 0.16813 0.12523 0.08141
 C117 C 0.14596 0.14734 0.08136
 H118 H 0.06317 0.14780 0.16420
 H119 H 0.10158 0.18637 0.08576
 H120 H 0.08495 0.10322 0.18621
 H121 H 0.16336 0.06430 0.14817
 H122 H 0.18525 0.08628 0.10408
 H123 H 0.14564 0.16418 0.06408
 C124 C 0.39729 0.87451 0.64750
 C125 C 0.41935 0.85242 0.64724
 C126 C 0.41977 0.83024 0.62516
 C127 C 0.39773 0.83037 0.60321
 C128 C 0.37549 0.85228 0.60321
 C129 C 0.37525 0.87446 0.62542
 C130 C 0.39692 0.89665 0.66949
 C131 C 0.37477 0.91877 0.66979
 C132 C 0.35287 0.91855 0.64771
 C133 C 0.35298 0.89659 0.62555
 C134 C 0.33116 0.89641 0.60351
 C135 C 0.33122 0.87436 0.58130
 C136 C 0.35349 0.85236 0.58135
 H137 H 0.43648 0.85273 0.66401
 H138 H 0.39765 0.81313 0.58634
 H139 H 0.41367 0.89641 0.68664
 H140 H 0.33594 0.93575 0.64755
 H141 H 0.31385 0.91322 0.60387
 H142 H 0.35393 0.83552 0.56410
 C143 C 0.89812 0.62501 0.35279
 C144 C 0.92010 0.64719 0.35311
 C145 C 0.92037 0.66936 0.37519
 C146 C 0.89828 0.66914 0.39708
 C147 C 0.87614 0.64714 0.39703
 C148 C 0.87603 0.62497 0.37481
 C149 C 0.89782 0.60295 0.33072
 C150 C 0.87574 0.58076 0.33033
 C151 C 0.85382 0.58084 0.35240
 C152 C 0.85384 0.60275 0.37462
 C153 C 0.83200 0.60280 0.39664
 C154 C 0.83197 0.62480 0.41890
 C155 C 0.85415 0.64690 0.41890
 H156 H 0.93681 0.64742 0.33593
 H157 H 0.89855 0.68591 0.41441
 H158 H 0.91457 0.60328 0.31358
 H159 H 0.83695 0.56358 0.35251
 H160 H 0.81476 0.58593 0.39624
 H161 H 0.85451 0.66371 0.43618
 C162 C 0.60284 0.37523 -0.14771
 C163 C 0.58071 0.35321 -0.14737
 C164 C 0.58028 0.33103 -0.12526
 C165 C 0.60236 0.33109 -0.10335
 C166 C 0.62463 0.35298 -0.10340
 C167 C 0.62487 0.37517 -0.12563
 C168 C 0.60327 0.39732 -0.16979
 C169 C 0.62542 0.41945 -0.17012
 C170 C 0.64728 0.41926 -0.14799
 C171 C 0.64714 0.39731 -0.12577
 C172 C 0.66898 0.39709 -0.10375
 C173 C 0.66889 0.37505 -0.08150
 C174 C 0.64659 0.35307 -0.08150
 H175 H 0.56401 0.35309 -0.16457
 H176 H 0.60198 0.31431 -0.08601
 H177 H 0.58611 0.39754 -0.18653
 H178 H 0.66465 0.43599 -0.14829
 H179 H 0.68630 0.41388 -0.10414
 H180 H 0.64613 0.33624 -0.06422
 C181 C 0.01203 0.23750 0.12415
 C182 C 0.04142 0.24520 0.11813
 C183 C 0.06343 0.22320 0.11837
 C184 C -0.02957 0.27916 0.12360
 C185 C 0.02669 0.18566 0.13073
 C186 C 0.00472 0.20770 0.13044
 C187 C -0.01061 0.26016 0.12385
 C188 C 0.05631 0.19317 0.12468
 H189 H 0.04733 0.26822 0.11330
 H190 H 0.08607 0.22974 0.11401
 H191 H 0.02047 0.16269 0.13529
 H192 H -0.01798 0.20148 0.13506
 C193 C 0.48772 0.76283 0.62473
 C194 C 0.47875 0.77623 0.59821
 C195 C 0.45665 0.79814 0.59832
 C196 C 0.52953 0.72140 0.62444
 C197 C 0.45242 0.79335 0.65155
 C198 C 0.47451 0.77143 0.65138
 C199 C 0.51047 0.74028 0.62458
 C200 C 0.44324 0.80695 0.62501
 H201 H 0.48889 0.76979 0.57746
 H202 H 0.45033 0.80846 0.57759
 H203 H 0.44225 0.79939 0.67239
 H204 H 0.48123 0.76115 0.67203
 C205 C 0.98800 0.73710 0.37581
 C206 C 0.99531 0.70730 0.36953
 C207 C 0.97334 0.68526 0.36930
 C208 C 1.02960 0.77875 0.37630
 C209 C 0.93662 0.72278 0.38168
 C210 C 0.95862 0.74479 0.38188
 C211 C 1.01064 0.75976 0.37607
 C212 C 0.94373 0.69276 0.37539
 H213 H 1.01800 0.70109 0.36488
 H214 H 0.97956 0.66229 0.36475
 H215 H 0.91398 0.72931 0.38608
 H216 H 0.95271 0.76780 0.38669
 C217 C 0.51221 0.26375 -0.12471
 C218 C 0.50511 0.29360 -0.13101
 C219 C 0.52722 0.31550 -0.13120
 C220 C 0.47032 0.22240 -0.12442
 C221 C 0.56367 0.27771 -0.11873
 C222 C 0.54152 0.25586 -0.11857
 C223 C 0.48942 0.24124 -0.12455
 C224 C 0.55677 0.30779 -0.12506
 H225 H 0.48247 0.29997 -0.13572
 H226 H 0.52116 0.33851 -0.13578
 H227 H 0.58626 0.27103 -0.11428
 H228 H 0.54727 0.23280 -0.11374
 C229 C 0.12456 0.01361 0.23785
 C230 C 0.13063 0.00578 0.20851
 C231 C 0.13052 0.02769 0.18640
 C232 C 0.12484 -0.02784 0.27966
 C233 C 0.11821 0.06541 0.22293
 C234 C 0.11835 0.04346 0.24500
 C235 C 0.12471 -0.00895 0.26059
 C236 C 0.12430 0.05777 0.19337
 H237 H 0.13538 -0.01728 0.20272
 H238 H 0.13492 0.02106 0.16380
 H239 H 0.11372 0.08842 0.22903
 H240 H 0.11371 0.04979 0.26766
 C241 C 0.62621 0.48697 -0.23800
 C242 C 0.61989 0.45716 -0.24520
 C243 C 0.61963 0.43519 -0.22314
 C244 C 0.62660 0.52851 -0.27974
 C245 C 0.63207 0.47281 -0.18656
 C246 C 0.63229 0.49475 -0.20865
 C247 C 0.62643 0.50958 -0.26071
 C248 C 0.62571 0.44277 -0.19357
 H249 H 0.61522 0.45089 -0.26786
 H250 H 0.61503 0.41220 -0.22928
 H251 H 0.63647 0.47940 -0.16395
 H252 H 0.63713 0.51778 -0.20283
 C253 C 0.37402 0.98642 0.73744
 C254 C 0.40073 0.97782 0.72433
 C255 C 0.40101 0.95581 0.70235
 C256 C 0.37352 1.02807 0.77900
 C257 C 0.34778 0.95094 0.70649
 C258 C 0.34756 0.97293 0.72849
 C259 C 0.37376 1.00908 0.76006
 C260 C 0.37452 0.94213 0.69317
 H261 H 0.42134 0.98818 0.73104
 H262 H 0.42188 0.94978 0.69225
 H263 H 0.32709 0.94055 0.70017
 H264 H 0.32677 0.97937 0.73855
 C265 C 0.87523 0.51344 0.26236
 C266 C 0.84872 0.52679 0.27137
 C267 C 0.84886 0.54866 0.29348
 C268 C 0.87494 0.47213 0.22048
 C269 C 0.90209 0.54392 0.29766
 C270 C 0.90190 0.52204 0.27556
 C271 C 0.87507 0.49095 0.23958
 C272 C 0.87556 0.55749 0.30688
 H273 H 0.82796 0.52036 0.26124
 H274 H 0.82813 0.55896 0.29983
 H275 H 0.92294 0.54996 0.30781
 H276 H 0.92254 0.51179 0.26881
 C277 C 0.23545 0.12507 0.01427
 C278 C 0.22247 0.09810 0.02331
 C279 C 0.20059 0.09813 0.04515
 C280 C 0.27680 0.12501 -0.02708
 C281 C 0.20458 0.15216 0.04897
 C282 C 0.22647 0.15208 0.02715
 C283 C 0.25795 0.12502 -0.00823
 C284 C 0.19139 0.12517 0.05823
 H285 H 0.22920 0.07707 0.01342
 H286 H 0.19060 0.07704 0.05154
 H287 H 0.19823 0.17328 0.05889
 H288 H 0.23643 0.17307 0.02036
 C289 C 0.76477 0.62456 0.48616
 C290 C 0.77770 0.59761 0.47708
 C291 C 0.79955 0.59766 0.45521
 C292 C 0.72344 0.62445 0.52752
 C293 C 0.79561 0.65170 0.45141
 C294 C 0.77375 0.65159 0.47328
 C295 C 0.74228 0.62449 0.50867
 C296 C 0.80875 0.62472 0.44213
 H297 H 0.77097 0.57656 0.48697
 H298 H 0.80951 0.57658 0.44879
 H299 H 0.80195 0.67284 0.44150
 H300 H 0.76382 0.67258 0.48008
 C301 C 0.73608 0.37489 -0.01421
 C302 C 0.72696 0.34791 -0.02707
 C303 C 0.70510 0.34794 -0.04894
 C304 C 0.77746 0.37482 0.02711
 C305 C 0.70141 0.40199 -0.04518
 C306 C 0.72326 0.40191 -0.02330
 C307 C 0.75859 0.37484 0.00828
 C308 C 0.69208 0.37499 -0.05825
 H309 H 0.73679 0.32687 -0.02025
 H310 H 0.69865 0.32684 -0.05884
 H311 H 0.69155 0.42313 -0.05160
 H312 H 0.73010 0.42291 -0.01343
 C313 C 0.26400 0.87425 0.51404
 C314 C 0.27310 0.84727 0.52695
 C315 C 0.29497 0.84728 0.54880
 C316 C 0.22259 0.87424 0.47275
 C317 C 0.29871 0.90133 0.54493
 C318 C 0.27686 0.90127 0.52307
 C319 C 0.24147 0.87423 0.49157
 C320 C 0.30802 0.87432 0.55805
 H321 H 0.26323 0.82624 0.52018
 H322 H 0.30139 0.82618 0.55875
 H323 H 0.30860 0.92245 0.55131
 H324 H 0.27003 0.92227 0.51316
   
