data_POSCAR
  _audit_creation_date              2014-09-24
  _audit_creation_method            'ToBaCCo'
  _symmetry_space_group_name_H-M    'P1'
  _symmetry_Int_Tables_number       1
  _symmetry_cell_setting            triclinic
  loop_
  _symmetry_equiv_pos_as_xyz
 x,y,z
_cell_length_a 27.1503
_cell_length_b 28.3229
_cell_length_c 26.9665
_cell_angle_alpha 86.754100
_cell_angle_beta 94.252200
_cell_angle_gamma 95.654100
loop_
  _atom_site_label
  _atom_site_type_symbol
  _atom_site_fract_x
  _atom_site_fract_y
  _atom_site_fract_z
C1 C 0.30720 0.32703 0.21602
 H2 H 0.30236 0.33704 0.25335
 C3 C 0.33555 0.35765 0.18457
 H4 H 0.35092 0.39155 0.19811
 C5 C 0.29128 0.27109 0.15355
 H6 H 0.27436 0.23697 0.14190
 C7 C 0.32090 0.29984 0.12146
 H8 H 0.32650 0.28658 0.08574
 N9 N 0.28427 0.28546 0.19953
 C10 C 0.18310 0.26537 0.31923
 H11 H 0.18710 0.22893 0.33183
 C12 C 0.15704 0.29373 0.34679
 H13 H 0.14154 0.27909 0.38085
 C14 C 0.19686 0.32831 0.25879
 H15 H 0.21150 0.34144 0.22393
 C16 C 0.17025 0.35753 0.28453
 H17 H 0.16577 0.39336 0.26985
 Zn18 Zn 0.24413 0.24632 0.24302
 N19 N 0.20452 0.28376 0.27741
 C20 C 0.29192 0.21540 0.33701
 N21 N 0.28772 0.21223 0.28667
 C22 C 0.31423 0.18235 0.26409
 C23 C 0.34311 0.15127 0.29235
 C24 C 0.32035 0.18475 0.36682
 C25 C 0.17299 0.21901 0.16602
 C26 C 0.14215 0.18741 0.13686
 C27 C 0.16740 0.12275 0.19217
 C28 C 0.19769 0.15550 0.22017
 N29 N 0.20072 0.20254 0.20620
 H30 H 0.27269 0.24094 0.35435
 H31 H 0.31130 0.18140 0.22393
 H32 H 0.36305 0.12722 0.27339
 H33 H 0.32153 0.18637 0.40691
 H34 H 0.17570 0.25666 0.15603
 H35 H 0.12164 0.20112 0.10413
 H36 H 0.16567 0.08545 0.20391
 H37 H 0.21865 0.14320 0.25318
 C38 C 0.15120 0.34075 0.32985
 C39 C 0.34281 0.34454 0.13622
 C40 C 0.13946 0.13843 0.14957
 C41 C 0.34517 0.15107 0.34454
 C42 C 0.83646 0.79561 0.23884
 H43 H 0.85301 0.77204 0.26674
 C44 C 0.86701 0.82608 0.20942
 H45 H 0.90665 0.82559 0.21652
 C46 C 0.76505 0.82685 0.19974
 H47 H 0.72509 0.82688 0.19631
 C48 C 0.79417 0.85753 0.16883
 H49 H 0.77511 0.87960 0.14125
 N50 N 0.78637 0.79532 0.23240
 C51 C 0.65757 0.77822 0.30443
 H52 H 0.63895 0.75219 0.27999
 C53 C 0.62943 0.80631 0.32986
 H54 H 0.58962 0.80017 0.32519
 C55 C 0.73210 0.81766 0.33898
 H56 H 0.77222 0.82249 0.34138
 C57 C 0.70537 0.84671 0.36493
 H58 H 0.72552 0.87405 0.38693
 Zn59 Zn 0.74566 0.75048 0.26987
 N60 N 0.70794 0.78444 0.30921
 C61 C 0.79029 0.70875 0.35992
 N62 N 0.78599 0.71009 0.30927
 C63 C 0.81032 0.68106 0.28330
 C64 C 0.84102 0.64951 0.30807
 C65 C 0.82086 0.67754 0.38637
 C66 C 0.70063 0.71889 0.17681
 C67 C 0.66921 0.68905 0.14638
 C68 C 0.64508 0.64205 0.21970
 C69 C 0.67642 0.67320 0.24882
 N70 N 0.70308 0.71102 0.22715
 H71 H 0.77001 0.73169 0.37984
 H72 H 0.80604 0.68278 0.24304
 H73 H 0.86074 0.62745 0.28640
 H74 H 0.82337 0.67666 0.42654
 H75 H 0.72322 0.74798 0.15993
 H76 H 0.66789 0.69577 0.10639
 H77 H 0.62395 0.61225 0.23755
 H78 H 0.67966 0.66726 0.28886
 C79 C 0.65315 0.84164 0.36026
 C80 C 0.84630 0.85669 0.17211
 C81 C 0.64088 0.65012 0.16781
 C82 C 0.84662 0.64727 0.36033
 C83 C 0.84744 0.30236 0.73068
 H84 H 0.86304 0.28085 0.76110
 C85 C 0.87900 0.32929 0.69908
 H86 H 0.91868 0.32823 0.70580
 C87 C 0.77703 0.33055 0.68569
 H88 H 0.73710 0.33007 0.68027
 C89 C 0.80722 0.35794 0.65309
 H90 H 0.79011 0.37839 0.62254
 N91 N 0.79740 0.30205 0.72232
 C92 C 0.66701 0.29827 0.78247
 H93 H 0.64974 0.28021 0.75060
 C94 C 0.63884 0.32559 0.80868
 H95 H 0.60011 0.32613 0.79709
 C96 C 0.73888 0.32046 0.83409
 H97 H 0.77821 0.31897 0.84309
 C98 C 0.71206 0.34844 0.86129
 H99 H 0.73144 0.36866 0.89088
 Zn100 Zn 0.75385 0.25922 0.75879
 N101 N 0.71589 0.29540 0.79601
 C102 C 0.78891 0.21105 0.84983
 N103 N 0.79065 0.21682 0.79962
 C104 C 0.81909 0.19085 0.77462
 C105 C 0.84950 0.15948 0.80010
 C106 C 0.81836 0.17939 0.87706
 C107 C 0.72506 0.21950 0.66613
 C108 C 0.69527 0.19174 0.63242
 C109 C 0.63995 0.16806 0.69729
 C110 C 0.67180 0.19496 0.73019
 N111 N 0.71238 0.22148 0.71373
 H112 H 0.76501 0.23114 0.86898
 H113 H 0.81853 0.19501 0.73445
 H114 H 0.87017 0.13906 0.77773
 H115 H 0.81726 0.17739 0.91711
 H116 H 0.75887 0.23881 0.65436
 H117 H 0.70736 0.19017 0.59532
 H118 H 0.60661 0.14939 0.71098
 H119 H 0.66343 0.19572 0.76873
 C120 C 0.66110 0.35121 0.84891
 C121 C 0.85890 0.35630 0.65857
 C122 C 0.65120 0.16625 0.64733
 C123 C 0.85061 0.15344 0.85262
 C124 C 0.33210 0.82687 0.73990
 H125 H 0.34083 0.82012 0.77929
 C126 C 0.36375 0.85822 0.71233
 H127 H 0.39677 0.87578 0.73077
 C128 C 0.27857 0.81181 0.66785
 H129 H 0.24546 0.79332 0.65071
 C130 C 0.30885 0.84332 0.63901
 H131 H 0.29902 0.84846 0.59956
 N132 N 0.29079 0.80403 0.71725
 C133 C 0.17348 0.76622 0.81866
 H134 H 0.16932 0.72784 0.81864
 C135 C 0.14077 0.78981 0.84380
 H136 H 0.11157 0.76912 0.86289
 C137 C 0.21503 0.83956 0.79166
 H138 H 0.24381 0.85894 0.77106
 C139 C 0.18349 0.86454 0.81665
 H140 H 0.18929 0.90292 0.81556
 Zn141 Zn 0.25094 0.75907 0.75512
 N142 N 0.20933 0.79127 0.79269
 C143 C 0.28296 0.70693 0.84422
 N144 N 0.29375 0.72268 0.79727
 C145 C 0.33562 0.71167 0.77763
 C146 C 0.36764 0.68270 0.80461
 C147 C 0.31403 0.67752 0.87256
 C148 C 0.16204 0.71554 0.70558
 C149 C 0.13515 0.68327 0.67394
 C150 C 0.21251 0.65715 0.65254
 C151 C 0.23778 0.68966 0.68455
 N152 N 0.21247 0.71761 0.71091
 H153 H 0.24978 0.71621 0.85950
 H154 H 0.34410 0.72518 0.74064
 H155 H 0.40065 0.67437 0.78798
 H156 H 0.30355 0.66411 0.90887
 H157 H 0.14247 0.73893 0.72561
 H158 H 0.09510 0.68225 0.67015
 H159 H 0.23364 0.63466 0.63285
 H160 H 0.27777 0.69233 0.68853
 C161 C 0.14507 0.83974 0.84250
 C162 C 0.35229 0.86666 0.66117
 C163 C 0.16043 0.65319 0.64720
 C164 C 0.35667 0.66439 0.85242
 C165 C 0.01796 -0.05252 -0.04934
 C166 C 0.05358 -0.02064 -0.01589
 C167 C 0.03069 0.00740 0.01295
 C168 C -0.02622 0.00078 0.00565
 C169 C -0.01691 -0.08040 -0.01375
 C170 C -0.03923 -0.05292 0.01587
 C171 C -0.01517 -0.01866 -0.07900
 C172 C -0.03724 0.01038 -0.05067
 H173 H 0.09332 -0.02063 -0.01587
 H174 H -0.04529 0.02294 0.02937
 H175 H -0.02364 -0.11853 -0.01274
 H176 H -0.01987 -0.01725 -0.11923
 C177 C 0.04548 0.46018 0.44786
 C178 C 0.07931 0.49378 0.48090
 C179 C 0.05503 0.51854 0.51174
 C180 C -0.00173 0.50760 0.50624
 C181 C 0.01406 0.42892 0.48407
 C182 C -0.01064 0.45332 0.51497
 C183 C 0.00911 0.49239 0.42027
 C184 C -0.01587 0.51694 0.45058
 H185 H 0.11936 0.49651 0.48067
 H186 H -0.02153 0.52801 0.53046
 H187 H 0.01021 0.39053 0.48343
 H188 H 0.00502 0.49773 0.38030
 C189 C 0.53990 -0.02838 0.45774
 C190 C 0.56965 0.01234 0.48539
 C191 C 0.54149 0.03720 0.51215
 C192 C 0.48615 0.02024 0.50827
 C193 C 0.51168 -0.05803 0.49787
 C194 C 0.48360 -0.03260 0.52412
 C195 C 0.49976 -0.00353 0.42572
 C196 C 0.47159 0.02178 0.45218
 H197 H 0.60949 0.02001 0.48493
 H198 H 0.46345 0.04084 0.53023
 H199 H 0.51186 -0.09617 0.50273
 H200 H 0.49677 -0.00232 0.38549
 C201 C 0.54577 0.47059 -0.04209
 C202 C 0.57292 0.49939 -0.00003
 C203 C 0.54233 0.52193 0.02632
 C204 C 0.48740 0.51420 0.00840
 C205 C 0.50592 0.43735 -0.01702
 C206 C 0.47575 0.46012 0.00960
 C207 C 0.51687 0.50727 -0.07316
 C208 C 0.48530 0.52955 -0.04736
 H209 H 0.61291 0.50403 0.00613
 H210 H 0.46322 0.53187 0.03120
 H211 H 0.50303 0.39906 -0.01883
 H212 H 0.52344 0.51706 -0.11157
 C213 C 0.08470 -0.15473 -0.09201
 C214 C 0.10878 -0.13447 -0.13335
 C215 C 0.09649 -0.08903 -0.15143
 C216 C 0.06600 -0.06321 -0.12529
 C217 C 0.04525 -0.08260 -0.08120
 C218 C 0.05405 -0.12952 -0.06657
 C219 C 0.07267 -0.14992 -0.01719
 C220 C 0.10611 -0.17747 -0.04507
 H221 H 0.11174 -0.07244 -0.18478
 H222 H 0.06063 -0.02718 -0.13857
 H223 H 0.04348 -0.17327 0.00140
 H224 H 0.09334 -0.12267 0.00654
 H225 H 0.09595 -0.21648 -0.04255
 H226 H 0.14627 -0.16626 -0.03759
 C227 C 0.09425 0.40414 0.33644
 C228 C 0.12655 0.37279 0.35952
 C229 C 0.13609 0.37412 0.41149
 C230 C 0.11048 0.40308 0.43936
 C231 C 0.07447 0.43143 0.41617
 C232 C 0.06850 0.43252 0.36390
 C233 C 0.02249 0.42388 0.33014
 C234 C 0.05101 0.39341 0.30025
 H235 H 0.16253 0.35203 0.43073
 H236 H 0.11764 0.40218 0.47943
 H237 H 0.01235 0.45661 0.30870
 H238 H -0.00837 0.40346 0.34926
 H239 H 0.05783 0.40906 0.26235
 H240 H 0.03672 0.35522 0.30183
 C241 C 0.58308 -0.10576 0.36008
 C242 C 0.62449 -0.12503 0.38474
 C243 C 0.64126 -0.10740 0.43159
 C244 C 0.61492 -0.07501 0.45420
 C245 C 0.57166 -0.05803 0.43019
 C246 C 0.55777 -0.07284 0.38198
 C247 C 0.50847 -0.09322 0.36073
 C248 C 0.53565 -0.12970 0.33765
 H249 H 0.67352 -0.12028 0.45200
 H250 H 0.62734 -0.06472 0.49147
 H251 H 0.49125 -0.06863 0.33248
 H252 H 0.48381 -0.10867 0.38984
 H253 H 0.53336 -0.12650 0.29628
 H254 H 0.52630 -0.16607 0.35411
 C255 C 0.59731 0.41020 -0.14818
 C256 C 0.63260 0.38242 -0.12356
 C257 C 0.64335 0.38866 -0.07213
 C258 C 0.61663 0.41834 -0.04615
 C259 C 0.57925 0.44394 -0.07097
 C260 C 0.57191 0.44040 -0.12269
 C261 C 0.52485 0.43033 -0.15401
 C262 C 0.55188 0.39655 -0.18122
 H263 H 0.67074 0.36877 -0.05125
 H264 H 0.62387 0.41968 -0.00621
 H265 H 0.51480 0.46172 -0.17785
 H266 H 0.49441 0.41227 -0.13244
 H267 H 0.55651 0.40808 -0.22083
 H268 H 0.53652 0.35905 -0.17464
 C269 C -0.12500 0.10753 -0.07186
 C270 C -0.11834 0.12405 -0.12155
 C271 C -0.07668 0.10867 -0.14285
 C272 C -0.04917 0.07353 -0.11882
 C273 C -0.06215 0.05184 -0.07271
 C274 C -0.09771 0.07242 -0.04827
 C275 C -0.14098 0.04942 -0.02230
 C276 C -0.17107 0.08722 -0.04805
 H277 H -0.06440 0.12341 -0.17816
 H278 H -0.01848 0.06262 -0.13739
 H279 H -0.13577 0.05281 0.01865
 H280 H -0.15301 0.01305 -0.03472
 H281 H -0.18348 0.11152 -0.02154
 H282 H -0.20051 0.07284 -0.07555
 C283 C -0.08372 0.62756 0.42327
 C284 C -0.12034 0.61345 0.38613
 C285 C -0.11974 0.56752 0.36852
 C286 C -0.08623 0.53619 0.39003
 C287 C -0.05244 0.54957 0.43014
 C288 C -0.05073 0.59640 0.44474
 C289 C -0.05082 0.61618 0.49484
 C290 C -0.08695 0.65014 0.47151
 H291 H -0.14590 0.55537 0.33859
 H292 H -0.08754 0.50098 0.37597
 H293 H -0.01408 0.63425 0.50710
 H294 H -0.06800 0.59070 0.52283
 H295 H -0.07110 0.68787 0.47047
 H296 H -0.12418 0.64336 0.48649
 C297 C 0.39414 0.12475 0.42259
 C298 C 0.37155 0.11497 0.37539
 C299 C 0.37434 0.06898 0.35861
 C300 C 0.40496 0.03735 0.38482
 C301 C 0.43306 0.05078 0.42869
 C302 C 0.42407 0.09340 0.44861
 C303 C 0.45987 0.13276 0.46766
 C304 C 0.42710 0.16709 0.43919
 H305 H 0.35460 0.05801 0.32420
 H306 H 0.40828 0.00336 0.36955
 H307 H 0.49707 0.13303 0.45287
 H308 H 0.46016 0.13474 0.50873
 H309 H 0.44526 0.18735 0.40787
 H310 H 0.40853 0.18882 0.46392
 C311 C 0.40724 0.63483 -0.07113
 C312 C 0.38918 0.63052 -0.12096
 C313 C 0.40687 0.59475 -0.14721
 C314 C 0.43791 0.56241 -0.12327
 C315 C 0.45299 0.56479 -0.07209
 C316 C 0.43824 0.60285 -0.04735
 C317 C 0.41460 0.60431 0.00076
 C318 C 0.38103 0.63921 -0.02511
 H319 H 0.39510 0.59046 -0.18608
 H320 H 0.44816 0.53426 -0.14479
 H321 H 0.44062 0.62036 0.03033
 H322 H 0.39373 0.57003 0.01182
 H323 H 0.38783 0.67541 -0.01064
 H324 H 0.34162 0.62419 -0.02788
 C325 C -0.07461 -0.12684 0.13182
 C326 C -0.12306 -0.11576 0.13849
 C327 C -0.13952 -0.07674 0.10839
 C328 C -0.11161 -0.05540 0.06951
 C329 C -0.06712 -0.07285 0.05862
 C330 C -0.04816 -0.10684 0.09258
 C331 C -0.02519 -0.15163 0.08582
 C332 C -0.05367 -0.17351 0.12906
 H333 H -0.17423 -0.06272 0.11370
 H334 H -0.12640 -0.02716 0.04627
 H335 H 0.01566 -0.14777 0.09426
 H336 H -0.03819 -0.16896 0.05071
 H337 H -0.02889 -0.18204 0.16237
 H338 H -0.08245 -0.20253 0.11828
 C339 C -0.12082 0.42178 0.59401
 C340 C -0.10887 0.38001 0.62052
 C341 C -0.06621 0.36002 0.60775
 C342 C -0.03440 0.38397 0.57376
 C343 C -0.04412 0.42873 0.55142
 C344 C -0.08907 0.44590 0.56092
 C345 C -0.10049 0.49302 0.57726
 C346 C -0.13572 0.46639 0.61263
 H347 H -0.05675 0.32621 0.62460
 H348 H -0.00119 0.36804 0.56650
 H349 H -0.11980 0.51384 0.54690
 H350 H -0.06836 0.51270 0.59742
 H351 H -0.17534 0.47124 0.60214
 H352 H -0.12386 0.47090 0.65258
 C353 C 0.43765 -0.10099 0.63880
 C354 C 0.38606 -0.10121 0.63095
 C355 C 0.36775 -0.07096 0.59190
 C356 C 0.40006 -0.04691 0.55824
 C357 C 0.45093 -0.05370 0.56225
 C358 C 0.46923 -0.07838 0.60498
 C359 C 0.50423 -0.11605 0.61236
 C360 C 0.46957 -0.14080 0.64963
 H361 H 0.32834 -0.06760 0.58597
 H362 H 0.38479 -0.02566 0.52725
 H363 H 0.54086 -0.10242 0.62984
 H364 H 0.50574 -0.13687 0.57893
 H365 H 0.48625 -0.14132 0.68854
 H366 H 0.45104 -0.17540 0.63739
 C367 C 0.40377 0.41633 0.11968
 C368 C 0.37245 0.37752 0.10180
 C369 C 0.36953 0.37226 0.04964
 C370 C 0.40204 0.40013 0.01891
 C371 C 0.43699 0.43504 0.03917
 C372 C 0.43466 0.44468 0.08902
 C373 C 0.47562 0.45010 0.12883
 C374 C 0.44216 0.41883 0.16248
 H375 H 0.34358 0.34575 0.03228
 H376 H 0.40101 0.39333 -0.02030
 H377 H 0.48271 0.48732 0.14045
 H378 H 0.50912 0.43337 0.12008
 H379 H 0.43068 0.43818 0.19379
 H380 H 0.45611 0.38380 0.17323
 C381 C 0.12330 0.05825 0.11323
 C382 C 0.10847 0.10356 0.11854
 C383 C 0.06358 0.11455 0.09269
 C384 C 0.03814 0.08306 0.05873
 C385 C 0.05719 0.04006 0.04926
 C386 C 0.09888 0.02762 0.07911
 C387 C 0.14665 0.01073 0.06621
 C388 C 0.17302 0.04370 0.10427
 H389 H 0.04884 0.14802 0.09741
 H390 H 0.00495 0.09367 0.03812
 H391 H 0.15635 0.02177 0.02767
 H392 H 0.14902 -0.02750 0.07695
 H393 H 0.19762 0.07316 0.08760
 H394 H 0.18985 0.02446 0.13735
 C395 C 0.15494 0.60335 0.57275
 C396 C 0.13338 0.61724 0.61449
 C397 C 0.08688 0.59357 0.62548
 C398 C 0.06139 0.56085 0.59271
 C399 C 0.08176 0.55106 0.54813
 C400 C 0.12991 0.57131 0.54057
 C401 C 0.14974 0.59800 0.49585
 C402 C 0.17722 0.63312 0.53116
 H403 H 0.06983 0.60064 0.65898
 H404 H 0.02569 0.54381 0.60224
 H405 H 0.12022 0.61346 0.47107
 H406 H 0.17495 0.57742 0.47684
 H407 H 0.16373 0.66905 0.52692
 H408 H 0.21819 0.63266 0.53247
 C409 C 0.58201 0.10200 0.62787
 C410 C 0.61732 0.13802 0.61139
 C411 C 0.61890 0.14622 0.55915
 C412 C 0.59251 0.11450 0.52612
 C413 C 0.56251 0.07508 0.54446
 C414 C 0.55484 0.07172 0.59512
 C415 C 0.55676 0.02985 0.63103
 C416 C 0.58686 0.06274 0.66694
 H417 H 0.64203 0.17567 0.54338
 H418 H 0.59719 0.11959 0.48658
 H419 H 0.57811 0.00190 0.61804
 H420 H 0.51950 0.01696 0.64358
 H421 H 0.62584 0.05406 0.67472
 H422 H 0.56692 0.06817 0.70039
 C423 C 0.60497 0.56832 0.14575
 C424 C 0.60792 0.61759 0.13613
 C425 C 0.57982 0.63475 0.09391
 C426 C 0.55580 0.60312 0.05931
 C427 C 0.56042 0.55408 0.06590
 C428 C 0.58228 0.53733 0.11120
 C429 C 0.61959 0.50229 0.12298
 C430 C 0.64457 0.53635 0.16092
 H431 H 0.57859 0.67257 0.08627
 H432 H 0.53693 0.61725 0.02573
 H433 H 0.64288 0.49821 0.09161
 H434 H 0.60291 0.46849 0.14031
 H435 H 0.68200 0.55212 0.15123
 H436 H 0.64228 0.52207 0.20002
   
