data_POSCAR
  _audit_creation_date              2014-09-24
  _audit_creation_method            'ToBaCCo'
  _symmetry_space_group_name_H-M    'P1'
  _symmetry_Int_Tables_number       1
  _symmetry_cell_setting            triclinic
  loop_
  _symmetry_equiv_pos_as_xyz
 x,y,z
_cell_length_a 16.1110
_cell_length_b 16.2916
_cell_length_c 41.0150
_cell_angle_alpha 91.795500
_cell_angle_beta 87.656800
_cell_angle_gamma 121.548300
loop_
  _atom_site_label
  _atom_site_type_symbol
  _atom_site_fract_x
  _atom_site_fract_y
  _atom_site_fract_z
C1 C 0.00676 0.09505 0.55038
 H2 H 0.06692 0.08355 0.55145
 C3 C 0.00402 0.16320 0.57079
 H4 H 0.06197 0.20318 0.58782
 C5 C -0.14139 0.05618 0.52651
 H6 H -0.19711 0.01442 0.50895
 C7 C -0.14775 0.12345 0.54705
 H8 H -0.20881 0.13344 0.54547
 N9 N -0.06403 0.04449 0.52841
 C10 C -0.09900 -0.15958 0.55465
 H11 H -0.15569 -0.14281 0.55576
 C12 C -0.10198 -0.22417 0.57677
 H13 H -0.16181 -0.25846 0.59447
 C14 C 0.05003 -0.13265 0.53125
 H15 H 0.10950 -0.09638 0.51368
 C16 C 0.05064 -0.19605 0.55343
 H17 H 0.11032 -0.20868 0.55257
 Zn18 Zn -0.03842 -0.03748 0.50218
 N19 N -0.02548 -0.11740 0.53180
 C20 C 0.12008 0.00215 0.45803
 N21 N 0.07820 0.04152 0.47709
 C22 C 0.11087 0.13718 0.47564
 C23 C 0.18685 0.19668 0.45415
 C24 C 0.19700 0.05956 0.43621
 C25 C -0.21940 -0.20085 0.48382
 C26 C -0.27194 -0.27888 0.46261
 C27 C -0.16635 -0.18234 0.41814
 C28 C -0.11580 -0.10615 0.44016
 N29 N -0.13874 -0.11881 0.47269
 H30 H 0.09067 -0.07460 0.45853
 H31 H 0.07510 0.16718 0.48993
 H32 H 0.20974 0.27194 0.45283
 H33 H 0.22807 0.02731 0.42044
 H34 H -0.23807 -0.20981 0.50951
 H35 H -0.32995 -0.34699 0.47229
 H36 H -0.14131 -0.17447 0.39286
 H37 H -0.05274 -0.04012 0.43151
 C38 C -0.02722 -0.24341 0.57617
 C39 C -0.07342 0.17880 0.56908
 C40 C -0.24164 -0.27115 0.42982
 C41 C 0.22957 0.15742 0.43371
 C42 C 1.13599 0.05806 0.12004
 H43 H 1.13527 0.12210 0.12731
 C44 C 1.21040 0.06607 0.09951
 H45 H 1.26611 0.13665 0.09091
 C46 C 1.06304 -0.11129 0.12267
 H47 H 1.00487 -0.18012 0.13155
 C48 C 1.13659 -0.10656 0.10167
 H49 H 1.13520 -0.17180 0.09455
 N50 N 1.06518 -0.02899 0.13163
 C51 C 0.84137 -0.05681 0.11744
 H52 H 0.83310 -0.12633 0.12083
 C53 C 0.78212 -0.04822 0.09584
 H54 H 0.72785 -0.11112 0.08267
 C55 C 0.92389 0.11029 0.12986
 H56 H 0.98133 0.17234 0.14222
 C57 C 0.86573 0.12216 0.10821
 H58 H 0.87753 0.19310 0.10466
 Zn59 Zn 0.98094 -0.01258 0.16086
 N60 N 0.90966 0.02122 0.13433
 C61 C 1.07020 0.16195 0.20299
 N62 N 1.06410 0.07907 0.19211
 C63 C 1.12289 0.05071 0.20377
 C64 C 1.19335 0.10729 0.22622
 C65 C 1.14055 0.22132 0.22578
 C66 C 0.90347 -0.19229 0.19545
 C67 C 0.83660 -0.26170 0.21753
 C68 C 0.74392 -0.18354 0.21843
 C69 C 0.81156 -0.11653 0.19640
 N70 N 0.88927 -0.12190 0.18522
 H71 H 1.02068 0.18182 0.19450
 H72 H 1.11574 -0.01603 0.19515
 H73 H 1.24045 0.08421 0.23491
 H74 H 1.14587 0.28747 0.23424
 H75 H 0.96819 -0.19254 0.18766
 H76 H 0.84923 -0.31633 0.22608
 H77 H 0.68349 -0.17723 0.22761
 H78 H 0.80390 -0.05773 0.18904
 C79 C 0.79376 0.04157 0.09106
 C80 C 1.21192 -0.01677 0.09026
 C81 C 0.75641 -0.25635 0.22942
 C82 C 1.20334 0.19359 0.23724
 C83 C 0.09067 0.94854 0.87886
 H84 H 0.02127 0.88187 0.87653
 C85 C 0.16080 0.95304 0.89885
 H86 H 0.14557 0.88993 0.91210
 C87 C 0.19557 1.11223 0.86434
 H88 H 0.20973 1.17344 0.85032
 C89 C 0.26731 1.12035 0.88463
 H90 H 0.33580 1.18829 0.88643
 N91 N 0.10842 1.02766 0.86243
 C92 C -0.08478 1.00981 0.89686
 H93 H -0.02616 1.00746 0.90773
 C94 C -0.13712 1.04113 0.91583
 H95 H -0.11891 1.06141 0.94114
 C96 C -0.17002 1.00109 0.84982
 H97 H -0.17766 0.99183 0.82366
 C98 C -0.22354 1.03295 0.86791
 H99 H -0.27311 1.04690 0.85560
 Zn100 Zn 0.00443 1.00795 0.83667
 N101 N -0.09860 0.99531 0.86416
 C102 C -0.11715 0.81807 0.80744
 N103 N -0.02747 0.89922 0.81012
 C104 C 0.05158 0.90867 0.79342
 C105 C 0.04296 0.83509 0.77302
 C106 C -0.12933 0.74230 0.78680
 C107 C 0.07467 1.20359 0.82238
 C108 C 0.08630 1.27848 0.80310
 C109 C 0.01710 1.16548 0.75819
 C110 C 0.01021 1.09376 0.77784
 N111 N 0.03828 1.11355 0.80941
 H112 H -0.17881 0.81230 0.82110
 H113 H 0.12188 0.97410 0.79608
 H114 H 0.10714 0.84481 0.75992
 H115 H -0.20071 0.67798 0.78441
 H116 H 0.09172 1.21663 0.84796
 H117 H 0.11509 1.34990 0.81352
 H118 H -0.00729 1.14844 0.73332
 H119 H -0.02197 1.02120 0.76827
 C120 C -0.20326 1.05786 0.90086
 C121 C 0.24935 1.03979 0.90226
 C122 C 0.05493 1.25872 0.77095
 C123 C -0.04841 0.75052 0.76948
 O124 O 0.45194 0.04541 -0.03735
 O125 O 0.61302 0.04647 0.02396
 O126 O 0.43613 0.01639 0.02473
 O127 O 0.62375 0.06437 -0.03957
 O128 O 0.68667 0.22073 -0.03223
 O129 O 0.50267 0.17330 0.03198
 O130 O 0.67920 0.20322 0.03127
 O131 O 0.51770 0.20226 -0.03006
 Cu132 Cu 0.52521 0.02736 -0.00775
 Cu133 Cu 0.60366 0.21554 0.00120
 C134 C 0.45680 0.12367 -0.04386
 C135 C 0.67369 0.12508 0.03802
 C136 C 0.43666 0.08736 0.03869
 C137 C 0.68603 0.15102 -0.04710
 O138 O -0.05533 0.54766 0.63848
 O139 O -0.07722 0.37559 0.69964
 O140 O -0.07203 0.54025 0.70189
 O141 O -0.07868 0.37583 0.63651
 O142 O 0.08113 0.44520 0.63879
 O143 O 0.08873 0.61649 0.70076
 O144 O 0.08324 0.45386 0.70199
 O145 O 0.10473 0.61605 0.63743
 Cu146 Cu -0.08697 0.45271 0.66916
 Cu147 Cu 0.10541 0.54026 0.66981
 C148 C 0.02877 0.61093 0.62746
 C149 C -0.00033 0.38542 0.71107
 C150 C 0.00978 0.60767 0.71185
 C151 C 0.00014 0.38129 0.62716
 O152 O 0.57344 0.58155 0.30523
 O153 O 0.40217 0.43690 0.37149
 O154 O 0.58513 0.57420 0.36847
 O155 O 0.38721 0.45421 0.30937
 O156 O 0.42554 0.34349 0.30027
 O157 O 0.61984 0.46079 0.35954
 O158 O 0.43754 0.32412 0.36202
 O159 O 0.61222 0.47099 0.29661
 Cu160 Cu 0.48358 0.52321 0.33954
 Cu161 Cu 0.52764 0.38882 0.32863
 C162 C 0.62213 0.55098 0.28967
 C163 C 0.39026 0.35556 0.37785
 C164 C 0.63544 0.53712 0.37419
 C165 C 0.37255 0.37796 0.29492
 N166 N -0.07705 0.24938 0.58990
 N167 N -0.00089 0.31288 0.60439
 N168 N 0.68980 0.68088 0.25406
 N169 N 0.68916 0.60756 0.26414
 N170 N 0.31834 0.04407 -0.07582
 N171 N 0.39135 0.12322 -0.06634
 N172 N -0.03266 0.68927 0.59903
 N173 N 0.03858 0.67887 0.60414
 N174 N 0.27822 0.24996 0.25991
 N175 N 0.29506 0.32930 0.27255
 N176 N 0.77302 0.11279 -0.08540
 N177 N 0.75660 0.17265 -0.07277
 N178 N 0.28796 -0.00980 0.06876
 N179 N 0.36077 0.07271 0.06135
 N180 N 0.73179 0.65401 0.41295
 N181 N 0.71090 0.58015 0.39734
 N182 N 0.06113 0.33299 0.75141
 N183 N -0.00843 0.31550 0.73314
 N184 N 0.73258 0.04774 0.06817
 N185 N 0.73706 0.12570 0.06153
 N186 N 0.30110 0.21416 0.40904
 N187 N 0.32141 0.29894 0.40290
 N188 N -0.05951 0.67463 0.74783
 N189 N 0.01522 0.67748 0.73495
   
