data_POSCAR
  _audit_creation_date              2014-09-24
  _audit_creation_method            'ToBaCCo'
  _symmetry_space_group_name_H-M    'P1'
  _symmetry_Int_Tables_number       1
  _symmetry_cell_setting            triclinic
  loop_
  _symmetry_equiv_pos_as_xyz
 x,y,z
_cell_length_a 31.9288
_cell_length_b 31.9426
_cell_length_c 31.8916
_cell_angle_alpha 86.738600
_cell_angle_beta 90.026200
_cell_angle_gamma 88.780500
loop_
  _atom_site_label
  _atom_site_type_symbol
  _atom_site_fract_x
  _atom_site_fract_y
  _atom_site_fract_z
C1 C 0.57550 0.39080 0.03135
 C2 C 0.60561 0.42066 0.03149
 C3 C 0.58695 0.45808 0.01611
 N4 N 0.54583 0.45231 0.00860
 C5 C 0.53900 0.41104 0.01712
 C6 C 0.60670 0.49754 0.01281
 C7 C 0.58251 0.53272 0.02450
 C8 C 0.59405 0.56005 0.05448
 C9 C 0.56338 0.59074 0.05490
 C10 C 0.53295 0.58032 0.02653
 N11 N 0.54410 0.54405 0.00901
 C12 C 0.49661 0.60521 0.01680
 C13 C 0.45866 0.58662 0.00518
 C14 C 0.42222 0.60792 -0.00799
 C15 C 0.39237 0.57828 -0.01217
 C16 C 0.41184 0.53961 -0.00329
 N17 N 0.45233 0.54485 0.00720
 C18 C 0.39201 0.50053 -0.00493
 C19 C 0.41356 0.46122 -0.00361
 C20 C 0.39524 0.42404 -0.01356
 C21 C 0.42591 0.39330 -0.01009
 C22 C 0.46222 0.41229 0.00224
 N23 N 0.45442 0.45371 0.00626
 C24 C 0.50082 0.39075 0.01059
 H25 H 0.57976 0.35808 0.04153
 H26 H 0.63718 0.41560 0.04335
 H27 H 0.47505 0.47476 0.01807
 H28 H 0.62164 0.55790 0.07429
 H29 H 0.56297 0.61732 0.07451
 H30 H 0.41726 0.64129 -0.01413
 H31 H 0.36023 0.58476 -0.02155
 H32 H 0.42182 0.36068 -0.01626
 H33 H 0.52844 0.53007 -0.01512
 H34 H 0.36321 0.41959 -0.02321
 C35 C 0.01969 0.57099 0.59638
 C36 C 0.02079 0.60282 0.56586
 C37 C 0.00646 0.58668 0.52910
 N38 N -0.00248 0.54568 0.53608
 C39 C 0.00582 0.53601 0.57717
 C40 C 0.00058 0.61012 0.49029
 C41 C -0.00548 0.59047 0.45189
 C42 C -0.02115 0.61051 0.41521
 C43 C -0.02025 0.58162 0.38496
 C44 C -0.00508 0.54426 0.40404
 N45 N 0.00406 0.54995 0.44480
 C46 C 0.00234 0.50696 0.38301
 C47 C 0.00810 0.46719 0.40414
 C48 C 0.01863 0.43052 0.38496
 C49 C 0.01777 0.39871 0.41566
 C50 C 0.00624 0.41687 0.45249
 N51 N 0.00021 0.45869 0.44533
 C52 C -0.00099 0.39454 0.49124
 C53 C -0.00889 0.41428 0.52908
 C54 C -0.02385 0.39416 0.56557
 C55 C -0.02400 0.42302 0.59591
 C56 C -0.00955 0.46014 0.57703
 N57 N -0.00024 0.45447 0.53636
 C58 C -0.00162 0.49678 0.59820
 H59 H 0.02825 0.57351 0.62894
 H60 H 0.03111 0.63430 0.57038
 H61 H 0.01598 0.47519 0.51640
 H62 H -0.03215 0.64271 0.41054
 H63 H -0.02981 0.58767 0.35261
 H64 H 0.02563 0.42682 0.35218
 H65 H 0.02432 0.36589 0.41118
 H66 H -0.03301 0.41695 0.62834
 H67 H 0.02006 0.52874 0.46526
 H68 H -0.03304 0.36180 0.57013
 C69 C 0.39474 0.01999 0.58065
 C70 C 0.42505 0.02013 0.61105
 C71 C 0.46275 0.00943 0.59221
 N72 N 0.45595 0.00191 0.55147
 C73 C 0.41452 0.00851 0.54431
 C74 C 0.50151 0.00170 0.61345
 C75 C 0.53944 -0.00726 0.59186
 C76 C 0.57635 -0.02261 0.61074
 C77 C 0.60624 -0.02349 0.57997
 C78 C 0.58761 -0.00738 0.54305
 N79 N 0.54682 0.00218 0.55050
 C80 C 0.60896 -0.00045 0.50419
 C81 C 0.58729 0.00572 0.46540
 C82 C 0.60508 0.02020 0.42771
 C83 C 0.57458 0.01922 0.39766
 C84 C 0.53874 0.00539 0.41803
 N85 N 0.54658 -0.00309 0.45939
 C86 C 0.50036 -0.00184 0.39801
 C87 C 0.46274 -0.00904 0.42023
 C88 C 0.42615 -0.02311 0.40286
 C89 C 0.39606 -0.02221 0.43358
 C90 C 0.41495 -0.00721 0.46875
 N91 N 0.45557 0.00075 0.46034
 C92 C 0.39377 0.00135 0.50631
 H93 H 0.36171 0.02657 0.58515
 H94 H 0.41930 0.02615 0.64358
 H95 H 0.47570 0.01684 0.47898
 H96 H 0.58205 -0.03162 0.64343
 H97 H 0.63834 -0.03431 0.58458
 H98 H 0.63677 0.03052 0.42227
 H99 H 0.57850 0.02792 0.36464
 H100 H 0.36373 -0.03093 0.43010
 H101 H 0.52675 0.01889 0.52969
 H102 H 0.42122 -0.03231 0.37115
 O103 O 0.46686 0.00044 -0.05271
 O104 O 0.46643 -0.00426 0.06293
 O105 O 0.46674 0.05581 0.00451
 O106 O 0.46697 -0.05967 0.00665
 O107 O 0.53601 -0.06102 0.00947
 O108 O 0.53579 0.05453 0.00225
 O109 O 0.53553 -0.00261 0.06314
 O110 O 0.53593 -0.00370 -0.05228
 Cu111 Cu 0.45982 -0.00179 0.00510
 Cu112 Cu 0.54275 -0.00337 0.00549
 C113 C 0.50145 -0.00131 -0.07226
 C114 C 0.50091 -0.00363 0.08274
 C115 C 0.50124 0.07496 0.00315
 C116 C 0.50152 -0.08015 0.00932
 O117 O -0.05941 0.53686 0.98583
 O118 O 0.05608 0.53583 0.98695
 O119 O -0.00073 0.53391 0.92941
 O120 O -0.00238 0.53865 1.04449
 O121 O 0.00083 0.46950 1.05121
 O122 O -0.00232 0.46478 0.93620
 O123 O 0.05683 0.46664 0.99247
 O124 O -0.05851 0.46787 0.99494
 Cu125 Cu -0.00175 0.54327 0.98616
 Cu126 Cu -0.00076 0.46027 0.99443
 C127 C -0.07873 0.50252 0.99022
 C128 C 0.07620 0.50101 0.98934
 C129 C -0.00151 0.49854 0.91318
 C130 C -0.00049 0.50486 1.06751
 O131 O 0.00150 -0.05383 0.46181
 O132 O -0.00073 0.06090 0.46297
 O133 O 0.05832 0.00337 0.46430
 O134 O -0.05729 0.00351 0.46442
 O135 O -0.05671 -0.00057 0.53369
 O136 O 0.05812 -0.00187 0.53356
 O137 O 0.00017 0.05671 0.53225
 O138 O 0.00125 -0.05878 0.53108
 Cu139 Cu 0.00047 0.00395 0.45643
 Cu140 Cu 0.00074 -0.00158 0.53958
 C141 C 0.00153 -0.07602 0.49610
 C142 C -0.00062 0.07854 0.49762
 C143 C 0.07797 0.00062 0.49909
 C144 C -0.07675 0.00152 0.49924
 C145 C -0.26048 0.50358 0.99101
 C146 C -0.28282 0.46807 0.98141
 C147 C -0.32626 0.46704 0.98650
 C148 C -0.34911 0.50070 1.00342
 C149 C -0.32675 0.53830 1.00687
 C150 C -0.28322 0.53925 1.00223
 C151 C -0.21382 0.50325 0.98947
 C152 C -0.19190 0.53945 0.97641
 C153 C -0.14808 0.53927 0.97676
 C154 C -0.12513 0.50280 0.98978
 C155 C -0.14695 0.46648 1.00230
 C156 C -0.19072 0.46676 1.00234
 H157 H -0.34161 0.43970 0.97601
 H158 H -0.34185 0.56773 1.01302
 H159 H -0.13216 0.56766 0.96655
 H160 H -0.13020 0.43791 1.01268
 H161 H -0.26741 0.56795 1.00824
 H162 H -0.20854 0.56790 0.96558
 H163 H -0.26675 0.44100 0.96954
 H164 H -0.20647 0.43853 1.01333
 C165 C 0.25738 0.49933 0.98876
 C166 C 0.28054 0.51409 0.95367
 C167 C 0.32437 0.51410 0.95521
 C168 C 0.34553 0.50031 0.99221
 C169 C 0.32243 0.48540 1.02713
 C170 C 0.27877 0.48471 1.02538
 C171 C 0.21099 0.49942 0.98759
 C172 C 0.18916 0.46376 1.00215
 C173 C 0.14538 0.46415 1.00228
 C174 C 0.12254 0.50044 0.98847
 C175 C 0.14442 0.53610 0.97384
 C176 C 0.18824 0.53547 0.97309
 H177 H 0.34180 0.52517 0.92779
 H178 H 0.33832 0.47440 1.05582
 H179 H 0.12941 0.43620 1.01373
 H180 H 0.12766 0.56445 0.96281
 H181 H 0.26162 0.47344 1.05291
 H182 H 0.20603 0.43550 1.01326
 H183 H 0.26472 0.52513 0.92496
 H184 H 0.20439 0.56344 0.96201
 C185 C 0.00026 -0.25690 0.49146
 C186 C 0.02398 -0.27772 0.46159
 C187 C 0.02371 -0.32141 0.46082
 C188 C -0.00017 -0.34543 0.49007
 C189 C -0.02441 -0.32430 0.51951
 C190 C -0.02414 -0.28066 0.52021
 C191 C 0.00096 -0.21054 0.49271
 C192 C 0.00193 -0.19139 0.53131
 C193 C 0.00227 -0.14773 0.53249
 C194 C 0.00168 -0.12228 0.49508
 C195 C 0.00088 -0.14146 0.45648
 C196 C 0.00052 -0.18508 0.45532
 H197 H 0.04329 -0.33654 0.43817
 H198 H -0.04415 -0.34159 0.54170
 H199 H 0.00303 -0.13393 0.56271
 H200 H 0.00026 -0.12276 0.42707
 H201 H -0.04348 -0.26546 0.54299
 H202 H 0.00288 -0.21020 0.56065
 H203 H 0.04352 -0.26028 0.43935
 H204 H -0.00077 -0.19888 0.42512
 C205 C -0.00213 0.25975 0.49524
 C206 C -0.03205 0.28359 0.47131
 C207 C -0.03172 0.32737 0.47001
 C208 C -0.00127 0.34801 0.49232
 C209 C 0.02861 0.32434 0.51627
 C210 C 0.02812 0.28057 0.51783
 C211 C -0.00213 0.21333 0.49616
 C212 C 0.00381 0.18931 0.53407
 C213 C 0.00403 0.14549 0.53472
 C214 C -0.00137 0.12487 0.49738
 C215 C -0.00728 0.14898 0.45949
 C216 C -0.00779 0.19271 0.45892
 H217 H -0.05524 0.34521 0.45169
 H218 H 0.05233 0.33985 0.53366
 H219 H 0.00864 0.12779 0.56440
 H220 H -0.01153 0.13407 0.43018
 H221 H 0.05179 0.26297 0.53615
 H222 H 0.00787 0.20444 0.56330
 H223 H -0.05599 0.26834 0.45399
 H224 H -0.01196 0.21044 0.42919
 C225 C 0.50173 0.00074 -0.25361
 C226 C 0.49199 0.03779 -0.27775
 C227 C 0.49240 0.03819 -0.32161
 C228 C 0.50193 0.00137 -0.34220
 C229 C 0.51093 -0.03586 -0.31785
 C230 C 0.51132 -0.03603 -0.27402
 C231 C 0.50172 0.00039 -0.20719
 C232 C 0.53620 -0.01633 -0.18406
 C233 C 0.53632 -0.01646 -0.14021
 C234 C 0.50158 -0.00063 -0.11865
 C235 C 0.46693 0.01576 -0.14184
 C236 C 0.46718 0.01665 -0.18573
 H237 H 0.48547 0.06735 -0.33956
 H238 H 0.51726 -0.06494 -0.33281
 H239 H 0.56339 -0.02940 -0.12314
 H240 H 0.43979 0.02829 -0.12604
 H241 H 0.51838 -0.06509 -0.25599
 H242 H 0.56326 -0.02884 -0.20001
 H243 H 0.48470 0.06657 -0.26263
 H244 H 0.44015 0.02950 -0.20294
 C245 C 0.49956 -0.00305 0.26346
 C246 C 0.50161 0.03506 0.28313
 C247 C 0.50113 0.03549 0.32690
 C248 C 0.49964 -0.00225 0.35154
 C249 C 0.49789 -0.04039 0.33192
 C250 C 0.49733 -0.04075 0.28813
 C251 C 0.49999 -0.00347 0.21725
 C252 C 0.46742 -0.02206 0.19593
 C253 C 0.46751 -0.02180 0.15209
 C254 C 0.50072 -0.00386 0.12900
 C255 C 0.53361 0.01417 0.15046
 C256 C 0.53298 0.01481 0.19422
 H257 H 0.50242 0.06515 0.34166
 H258 H 0.49682 -0.06975 0.35058
 H259 H 0.44187 -0.03603 0.13626
 H260 H 0.55946 0.02837 0.13334
 H261 H 0.49590 -0.07045 0.27345
 H262 H 0.44165 -0.03621 0.21323
 H263 H 0.50314 0.06445 0.26455
 H264 H 0.55846 0.02916 0.21020
 C265 C 0.50155 -0.26205 0.02126
 C266 C 0.53412 -0.28494 0.00292
 C267 C 0.53292 -0.32862 0.00269
 C268 C 0.49872 -0.35069 0.02013
 C269 C 0.46716 -0.32780 0.04027
 C270 C 0.46848 -0.28409 0.04066
 C271 C 0.50154 -0.21538 0.01911
 C272 C 0.46404 -0.19216 0.01199
 C273 C 0.46404 -0.14833 0.00885
 C274 C 0.50157 -0.12663 0.01255
 C275 C 0.53907 -0.14978 0.01978
 C276 C 0.53904 -0.19363 0.02310
 H277 H 0.55790 -0.34503 -0.01303
 H278 H 0.44156 -0.34373 0.05617
 H279 H 0.43462 -0.13145 0.00317
 H280 H 0.56848 -0.13403 0.02309
 H281 H 0.44359 -0.26754 0.05629
 H282 H 0.43470 -0.20788 0.00805
 H283 H 0.55992 -0.26900 -0.01259
 H284 H 0.56839 -0.21049 0.02917
 C285 C 0.50193 0.25600 0.00786
 C286 C 0.47913 0.27619 0.03889
 C287 C 0.47918 0.31989 0.04020
 C288 C 0.50174 0.34415 0.01030
 C289 C 0.52463 0.32408 -0.02061
 C290 C 0.52486 0.28041 -0.02173
 C291 C 0.50167 0.20964 0.00620
 C292 C 0.53890 0.18695 -0.00107
 C293 C 0.53872 0.14327 -0.00235
 C294 C 0.50124 0.12134 0.00331
 C295 C 0.46394 0.14411 0.01017
 C296 C 0.46419 0.18776 0.01176
 H297 H 0.46146 0.33487 0.06435
 H298 H 0.54201 0.34235 -0.04408
 H299 H 0.56801 0.12668 -0.00762
 H300 H 0.43455 0.12817 0.01471
 H301 H 0.54234 0.26576 -0.04625
 H302 H 0.56831 0.20295 -0.00509
 H303 H 0.46158 0.25814 0.06238
 H304 H 0.43495 0.20448 0.01692
 C305 C -0.25795 0.00012 0.50263
 C306 C -0.28000 -0.02400 0.47491
 C307 C -0.32370 -0.02450 0.47566
 C308 C -0.34658 -0.00070 0.50406
 C309 C -0.32428 0.02308 0.53212
 C310 C -0.28055 0.02351 0.53136
 C311 C -0.21152 0.00075 0.50164
 C312 C -0.18841 -0.00063 0.53919
 C313 C -0.14470 -0.00029 0.53833
 C314 C -0.12309 0.00150 0.49989
 C315 C -0.14619 0.00301 0.46231
 C316 C -0.18995 0.00260 0.46318
 H317 H -0.33967 -0.04414 0.45443
 H318 H -0.34077 0.04233 0.55392
 H319 H -0.12785 -0.00159 0.56787
 H320 H -0.13047 0.00449 0.43219
 H321 H -0.26441 0.04283 0.55275
 H322 H -0.20413 -0.00260 0.56929
 H323 H -0.26341 -0.04303 0.45302
 H324 H -0.20695 0.00422 0.43372
 C325 C 0.25912 0.00078 0.50299
 C326 C 0.28122 0.03148 0.47930
 C327 C 0.32493 0.03190 0.48080
 C328 C 0.34727 0.00155 0.50583
 C329 C 0.32536 -0.02922 0.52940
 C330 C 0.28164 -0.02952 0.52812
 C331 C 0.21272 0.00052 0.50174
 C332 C 0.18975 -0.00642 0.53892
 C333 C 0.14605 -0.00639 0.53796
 C334 C 0.12431 0.00039 0.49974
 C335 C 0.14728 0.00715 0.46248
 C336 C 0.19106 0.00735 0.46350
 H337 H 0.34144 0.05583 0.46238
 H338 H 0.34220 -0.05311 0.54855
 H339 H 0.12930 -0.01166 0.56724
 H340 H 0.13144 0.01244 0.43256
 H341 H 0.26543 -0.05383 0.54630
 H342 H 0.20560 -0.01128 0.56888
 H343 H 0.26466 0.05547 0.46005
 H344 H 0.20801 0.01236 0.43430
 C345 C 0.00189 0.51019 1.24810
 C346 C -0.03582 0.51453 1.27023
 C347 C -0.03571 0.51351 1.31411
 C348 C 0.00220 0.50926 1.33638
 C349 C 0.03997 0.50574 1.31427
 C350 C 0.03978 0.50574 1.27044
 C351 C 0.00160 0.50923 1.20185
 C352 C 0.02005 0.47518 1.18232
 C353 C 0.01899 0.47361 1.13863
 C354 C 0.00032 0.50656 1.11368
 C355 C -0.01760 0.54094 1.13324
 C356 C -0.01742 0.54201 1.17704
 H357 H -0.06513 0.51592 1.33078
 H358 H 0.06945 0.50227 1.33106
 H359 H 0.03319 0.44684 1.12432
 H360 H -0.03232 0.56666 1.11470
 H361 H 0.06918 0.50244 1.25390
 H362 H 0.03469 0.44949 1.20096
 H363 H -0.06538 0.51767 1.25355
 H364 H -0.03174 0.56859 1.19157
 C365 C -0.00110 0.49267 0.73292
 C366 C 0.03673 0.49428 0.71057
 C367 C 0.03659 0.49447 0.66676
 C368 C -0.00144 0.49412 0.64476
 C369 C -0.03928 0.49242 0.66707
 C370 C -0.03908 0.49119 0.71094
 C371 C -0.00099 0.49379 0.77907
 C372 C -0.01968 0.46182 0.80406
 C373 C -0.01937 0.46301 0.84782
 C374 C -0.00131 0.49676 0.86709
 C375 C 0.01697 0.52893 0.84195
 C376 C 0.01757 0.52720 0.79830
 H377 H 0.06601 0.49575 0.64990
 H378 H -0.06886 0.49225 0.65045
 H379 H -0.03380 0.43792 0.86655
 H380 H 0.03127 0.55517 0.85609
 H381 H -0.06856 0.49017 0.72772
 H382 H -0.03409 0.43578 0.78968
 H383 H 0.06632 0.49530 0.72707
 H384 H 0.03196 0.55223 0.77945
   
