data_POSCAR
  _audit_creation_date              2014-09-24
  _audit_creation_method            'ToBaCCo'
  _symmetry_space_group_name_H-M    'P1'
  _symmetry_Int_Tables_number       1
  _symmetry_cell_setting            triclinic
  loop_
  _symmetry_equiv_pos_as_xyz
 x,y,z
_cell_length_a 45.7357
_cell_length_b 46.3355
_cell_length_c 43.7458
_cell_angle_alpha 92.026300
_cell_angle_beta 88.990200
_cell_angle_gamma 93.364200
loop_
  _atom_site_label
  _atom_site_type_symbol
  _atom_site_fract_x
  _atom_site_fract_y
  _atom_site_fract_z
C1 C 0.27042 0.44683 0.99054
 C2 C 0.24830 0.44338 1.01721
 C3 C 0.23147 0.46649 1.02226
 C4 C 0.23800 0.49096 0.99975
 C5 C 0.25126 0.45289 0.96331
 C6 C 0.23416 0.47586 0.96796
 C7 C 0.28768 0.47537 0.99768
 C8 C 0.27104 0.49844 1.00264
 H9 H 0.24573 0.42413 1.03052
 H10 H 0.22425 0.50969 1.00382
 H11 H 0.25029 0.43926 0.94273
 H12 H 0.31139 0.47708 0.99846
 C13 C 0.73019 0.55056 0.00525
 C14 C 0.75169 0.55171 0.03204
 C15 C 0.76979 0.52932 0.03160
 C16 C 0.76500 0.50782 0.00428
 C17 C 0.74999 0.54887 -0.02337
 C18 C 0.76843 0.52672 -0.02402
 C19 C 0.71443 0.52058 0.00683
 C20 C 0.73235 0.49827 0.00612
 H21 H 0.75262 0.56820 0.05008
 H22 H 0.77969 0.48962 0.00429
 H23 H 0.74944 0.56429 -0.04133
 H24 H 0.69078 0.51732 0.00774
 C25 C 0.04532 0.22732 0.49778
 C26 C 0.03916 0.24419 0.47146
 C27 C 0.01246 0.25910 0.47402
 C28 C -0.00330 0.25366 0.50295
 C29 C 0.04453 0.24924 0.52505
 C30 C 0.01902 0.26306 0.52791
 C31 C 0.01815 0.20707 0.50212
 C32 C -0.00742 0.22051 0.50488
 H33 H 0.05570 0.24880 0.45406
 H34 H -0.02436 0.26399 0.50585
 H35 H 0.06302 0.25455 0.53968
 H36 H 0.01921 0.18376 0.50162
 C37 C 0.95294 0.77307 0.49707
 C38 C 0.95528 0.74887 0.47218
 C39 C 0.98082 0.73499 0.47268
 C40 C 1.00171 0.74652 0.49813
 C41 C 0.95778 0.75788 0.52699
 C42 C 0.98305 0.74368 0.52763
 C43 C 0.98055 0.79266 0.49236
 C44 C 1.00595 0.77908 0.49290
 H45 H 0.93777 0.74164 0.45702
 H46 H 1.02269 0.73568 0.49831
 H47 H 0.94161 0.75726 0.54536
 H48 H 0.97991 0.81559 0.48842
 C49 C 0.50312 0.04825 0.22251
 C50 C 0.47957 0.04689 0.24811
 C51 C 0.47993 0.02281 0.26512
 C52 C 0.50422 0.00259 0.25534
 C53 C 0.53189 0.04600 0.23969
 C54 C 0.53262 0.02212 0.25690
 C55 C 0.49878 0.02111 0.20520
 C56 C 0.49953 -0.00422 0.22288
 H57 H 0.46407 0.06325 0.25273
 H58 H 0.50440 -0.01643 0.26991
 H59 H 0.54918 0.06301 0.23992
 H60 H 0.49730 0.02035 0.18051
 C61 C 0.49342 -0.04714 0.77885
 C62 C 0.46514 -0.04547 0.76099
 C63 C 0.46469 -0.02228 0.74283
 C64 C 0.49285 -0.00244 0.74428
 C65 C 0.51799 -0.04581 0.75431
 C66 C 0.51767 -0.02249 0.73618
 C67 C 0.49737 -0.01787 0.79626
 C68 C 0.49718 0.00560 0.77838
 H69 H 0.44710 -0.06160 0.76253
 H70 H 0.49257 0.01627 0.72923
 H71 H 0.53576 -0.06014 0.75294
 H72 H 0.50036 -0.01613 0.82076
 C73 C 0.30099 0.01653 0.47295
 H74 H 0.30061 0.03262 0.49147
 C75 C 0.32356 0.01785 0.45113
 H76 H 0.34061 0.03501 0.45308
 C77 C 0.27958 -0.02590 0.44865
 H78 H 0.26264 -0.04314 0.44802
 C79 C 0.30186 -0.02547 0.42636
 H80 H 0.30148 -0.04212 0.40834
 N81 N 0.27934 -0.00482 0.47109
 C82 C 0.20654 0.03237 0.52119
 H83 H 0.20179 0.01603 0.53792
 C84 C 0.18916 0.05612 0.52013
 H85 H 0.17088 0.05768 0.53603
 C86 C 0.23529 0.04918 0.47917
 H87 H 0.25289 0.04617 0.46282
 C88 C 0.21859 0.07333 0.47741
 H89 H 0.22413 0.08896 0.46011
 Zn90 Zn 0.25033 -0.00453 0.50240
 N91 N 0.22912 0.02935 0.50092
 C92 C 0.27029 0.01644 0.56086
 N93 N 0.27046 -0.00566 0.53957
 C94 C 0.28757 -0.02836 0.54267
 C95 C 0.30564 -0.02939 0.56788
 C96 C 0.28822 0.01637 0.58641
 C97 C 0.20710 -0.03875 0.47189
 C98 C 0.18557 -0.06105 0.46767
 C99 C 0.19712 -0.07875 0.51706
 C100 C 0.21861 -0.05616 0.52025
 N101 N 0.22316 -0.03674 0.49779
 H102 H 0.25700 0.03458 0.55761
 H103 H 0.28772 -0.04530 0.52502
 H104 H 0.31974 -0.04724 0.56942
 H105 H 0.28814 0.03428 0.60299
 H106 H 0.21091 -0.02279 0.45458
 H107 H 0.17322 -0.06232 0.44673
 H108 H 0.19325 -0.09346 0.53557
 H109 H 0.23107 -0.05378 0.54102
 C110 C 0.19500 0.07699 0.49792
 C111 C 0.32410 -0.00324 0.42733
 C112 C 0.18005 -0.08127 0.49059
 C113 C 0.30643 -0.00664 0.58996
 C114 C 0.70139 0.02649 0.53404
 H115 H 0.70284 0.04342 0.51758
 C116 C 0.67967 0.02651 0.55689
 H117 H 0.66448 0.04360 0.55793
 C118 C 0.71839 -0.01726 0.55152
 H119 H 0.73298 -0.03469 0.54896
 C120 C 0.69696 -0.01815 0.57460
 H121 H 0.69582 -0.03596 0.59004
 N122 N 0.72030 0.00489 0.53186
 C123 C 0.79689 0.03689 0.47978
 H124 H 0.79847 0.01889 0.46352
 C125 C 0.81868 0.05926 0.48041
 H126 H 0.83699 0.05847 0.46442
 C127 C 0.77139 0.05943 0.52089
 H128 H 0.75331 0.05911 0.53709
 C129 C 0.79250 0.08254 0.52196
 H130 H 0.79048 0.09986 0.53901
 Zn131 Zn 0.74711 0.00450 0.49838
 N132 N 0.77392 0.03725 0.49992
 C133 C 0.72911 0.02457 0.44129
 N134 N 0.72460 0.00405 0.46261
 C135 C 0.70240 -0.01668 0.46007
 C136 C 0.68343 -0.01721 0.43543
 C137 C 0.71072 0.02474 0.41614
 C138 C 0.78694 -0.03177 0.52281
 C139 C 0.80421 -0.05555 0.52395
 C140 C 0.78546 -0.07241 0.47481
 C141 C 0.76828 -0.04845 0.47478
 N142 N 0.76920 -0.02881 0.49866
 H143 H 0.74657 0.04114 0.44404
 H144 H 0.69921 -0.03256 0.47755
 H145 H 0.66582 -0.03384 0.43384
 H146 H 0.71418 0.04159 0.39970
 H147 H 0.78753 -0.01563 0.54131
 H148 H 0.81763 -0.05771 0.54377
 H149 H 0.78487 -0.08737 0.45524
 H150 H 0.75462 -0.04534 0.45542
 C151 C 0.81668 0.08237 0.50179
 C152 C 0.67710 0.00381 0.57737
 C153 C 0.80378 -0.07625 0.49964
 C154 C 0.68732 0.00384 0.41319
 C155 C 0.51675 0.20505 1.00666
 H156 H 0.51831 0.19615 0.98357
 C157 C 0.51516 0.18643 1.03106
 H158 H 0.51511 0.16332 1.02640
 C159 C 0.51460 0.24577 1.04080
 H160 H 0.51456 0.26899 1.04436
 C161 C 0.51285 0.22791 1.06588
 H162 H 0.51169 0.23755 1.08875
 N163 N 0.51640 0.23414 1.01185
 C164 C 0.48202 0.29949 0.95446
 H165 H 0.49837 0.30118 0.93646
 C166 C 0.45737 0.31584 0.95339
 H167 H 0.45553 0.33062 0.93499
 C168 C 0.46401 0.27770 0.99970
 H169 H 0.46599 0.26218 1.01722
 C170 C 0.43909 0.29366 0.99957
 H171 H 0.42246 0.29038 1.01722
 Zn172 Zn 0.51879 0.25872 0.97791
 N173 N 0.48520 0.28120 0.97767
 C174 C 0.49284 0.22325 0.93214
 N175 N 0.51897 0.23541 0.94179
 C176 C 0.54461 0.22876 0.92781
 C177 C 0.54462 0.20833 0.90354
 C178 C 0.49184 0.20283 0.90794
 C179 C 0.56101 0.30109 0.95698
 C180 C 0.58585 0.32006 0.95884
 C181 C 0.59672 0.30022 1.00736
 C182 C 0.57178 0.28156 1.00450
 N183 N 0.55395 0.28285 0.98004
 H184 H 0.47285 0.22859 0.94406
 H185 H 0.56512 0.23846 0.93625
 H186 H 0.56525 0.20275 0.89306
 H187 H 0.47091 0.19247 0.90150
 H188 H 0.54737 0.30103 0.93712
 H189 H 0.59049 0.33509 0.94075
 H190 H 0.61031 0.29917 1.02726
 H191 H 0.56671 0.26624 1.02207
 C192 C 0.43560 0.31317 0.97629
 C193 C 0.51317 0.19781 1.06113
 C194 C 0.60374 0.32016 0.98461
 C195 C 0.51800 0.19469 0.89372
 C196 C 0.46148 0.78267 -0.01488
 H197 H 0.44415 0.78258 0.00229
 C198 C 0.46083 0.80108 -0.03940
 H199 H 0.44265 0.81484 -0.04119
 C200 C 0.50629 0.76486 -0.03314
 H201 H 0.52443 0.75139 -0.03019
 C202 C 0.50653 0.78293 -0.05801
 H203 H 0.52487 0.78300 -0.07400
 N204 N 0.48382 0.76484 -0.01235
 C205 C 0.44594 0.69974 0.04852
 H206 H 0.46188 0.70159 0.06658
 C207 C 0.42229 0.67939 0.05019
 H208 H 0.41999 0.66589 0.06988
 C209 C 0.43000 0.71496 0.00075
 H210 H 0.43353 0.72829 -0.01889
 C211 C 0.40606 0.69480 0.00142
 H212 H 0.39144 0.69286 -0.01783
 Zn213 Zn 0.48367 0.74177 0.02249
 N214 N 0.44939 0.71697 0.02406
 C215 C 0.46217 0.77001 0.07631
 N216 N 0.48552 0.76759 0.05687
 C217 C 0.50999 0.78555 0.05974
 C218 C 0.51182 0.80681 0.08312
 C219 C 0.46286 0.79136 0.09969
 C220 C 0.51803 0.69963 -0.00387
 C221 C 0.54157 0.68192 -0.00726
 C222 C 0.55984 0.70110 0.04125
 C223 C 0.53606 0.71873 0.04354
 N224 N 0.51602 0.71802 0.02087
 H225 H 0.44260 0.75610 0.07308
 H226 H 0.52789 0.78367 0.04344
 H227 H 0.53123 0.82130 0.08474
 H228 H 0.44392 0.79351 0.11463
 H229 H 0.50153 0.69918 -0.02133
 H230 H 0.54315 0.66825 -0.02773
 H231 H 0.57532 0.70176 0.05972
 H232 H 0.53356 0.73273 0.06356
 C233 C 0.40218 0.67641 0.02621
 C234 C 0.48361 0.80139 -0.06137
 C235 C 0.56300 0.68252 0.01544
 C236 C 0.48788 0.81013 0.10314
 C237 C 1.03084 0.46276 0.20895
 H238 H 1.01215 0.44732 0.20860
 C239 C 1.05377 0.45962 0.18793
 H240 H 1.05253 0.44168 0.17137
 C241 C 1.05437 0.50556 0.23031
 H242 H 1.05423 0.52366 0.24657
 C243 C 1.07776 0.50338 0.20943
 H244 H 1.09578 0.51960 0.21016
 N245 N 1.03162 0.48527 0.22976
 C246 C 0.97014 0.45297 0.29996
 H247 H 0.95415 0.46929 0.30027
 C248 C 0.96732 0.43049 0.32050
 H249 H 0.94878 0.42941 0.33623
 C250 C 1.01410 0.43506 0.27953
 H251 H 1.03284 0.43738 0.26428
 C252 C 1.01213 0.41225 0.29962
 H253 H 1.02944 0.39727 0.29941
 Zn254 Zn 0.99805 0.48780 0.25542
 N255 N 0.99329 0.45489 0.28004
 C256 C 0.94245 0.47145 0.22795
 N257 N 0.96616 0.49062 0.22893
 C258 C 0.96883 0.51315 0.20981
 C259 C 0.94666 0.51787 0.18949
 C260 C 0.91977 0.47519 0.20759
 C261 C 1.02301 0.52346 0.30290
 C262 C 1.02475 0.54677 0.32413
 C263 C 0.98125 0.56438 0.30249
 C264 C 0.98027 0.54074 0.28182
 N265 N 1.00108 0.52095 0.28219
 H266 H 0.94106 0.45334 0.24290
 H267 H 0.98819 0.52772 0.21070
 H268 H 0.94915 0.53607 0.17462
 H269 H 0.90079 0.46008 0.20727
 H270 H 1.03899 0.50715 0.30309
 H271 H 1.04241 0.54849 0.34037
 H272 H 0.96410 0.57951 0.30214
 H273 H 0.96238 0.53793 0.26603
 C274 C 0.98867 0.40987 0.32071
 C275 C 1.07764 0.48009 0.18794
 C276 C 1.00363 0.56762 0.32409
 C277 C 0.92162 0.49891 0.18836
 C278 C -0.03173 0.49033 0.79117
 H279 H -0.01621 0.47357 0.79080
 C280 C -0.05483 0.48975 0.81247
 H281 H -0.05688 0.47246 0.82852
 C282 C -0.04698 0.53392 0.77151
 H283 H -0.04356 0.55138 0.75590
 C284 C -0.07034 0.53423 0.79252
 H285 H -0.08505 0.55170 0.79236
 N286 N -0.02834 0.51207 0.77110
 C287 C 0.02472 0.47698 0.69626
 H288 H 0.04203 0.49388 0.69525
 C289 C 0.02495 0.45320 0.67577
 H290 H 0.04244 0.45213 0.65885
 C291 C -0.01951 0.45847 0.71909
 H292 H -0.03697 0.46073 0.73579
 C293 C -0.02017 0.43431 0.69899
 H294 H -0.03793 0.41793 0.70088
 Zn295 Zn 0.00479 0.51213 0.74445
 N296 N 0.00295 0.47899 0.71766
 C297 C 0.05607 0.48971 0.76761
 N298 N 0.03813 0.51211 0.76956
 C299 C 0.04198 0.53361 0.79135
 C300 C 0.06447 0.53297 0.81251
 C301 C 0.07879 0.48821 0.78826
 C302 C -0.01600 0.54658 0.69983
 C303 C -0.01647 0.56973 0.68036
 C304 C 0.02939 0.58889 0.70155
 C305 C 0.02890 0.56537 0.72079
 N306 N 0.00626 0.54497 0.71977
 H307 H 0.05234 0.47249 0.75061
 H308 H 0.02703 0.55088 0.79279
 H309 H 0.06665 0.54984 0.83021
 H310 H 0.09274 0.47012 0.78636
 H311 H -0.03343 0.52976 0.69909
 H312 H -0.03432 0.57045 0.66452
 H313 H 0.04738 0.60513 0.70286
 H314 H 0.04669 0.56338 0.73636
 C315 C 0.00239 0.43134 0.67708
 C316 C -0.07446 0.51197 0.81342
 C317 C 0.00637 0.59136 0.68111
 C318 C 0.08298 0.50980 0.81139
 C319 C 0.11640 0.16963 0.49130
 C320 C 0.10147 0.17606 0.46480
 C321 C 0.07957 0.19583 0.46667
 C322 C 0.07256 0.20982 0.49470
 C323 C 0.08806 0.20265 0.52063
 N324 N 0.10910 0.18313 0.51826
 C325 C 0.13802 0.14692 0.49168
 N326 N 0.14555 0.13691 0.51921
 C327 C 0.16400 0.11520 0.52180
 C328 C 0.17604 0.10184 0.49556
 C329 C 0.16914 0.11223 0.46694
 C330 C 0.15038 0.13478 0.46488
 H331 H 0.06728 0.19924 0.44632
 H332 H 0.08266 0.21136 0.54312
 H333 H 0.16916 0.10841 0.54439
 H334 H 0.17769 0.10253 0.44602
 H335 H 0.10541 0.16517 0.44301
 H336 H 0.14579 0.14229 0.44248
 C337 C 0.66171 0.61082 0.00358
 C338 C 0.66509 0.59057 -0.02060
 C339 C 0.68817 0.57230 -0.02035
 C340 C 0.70806 0.57386 0.00389
 C341 C 0.70475 0.59562 0.02682
 N342 N 0.68193 0.61314 0.02611
 C343 C 0.63620 0.62899 0.00565
 N344 N 0.63900 0.65565 0.01973
 C345 C 0.61614 0.67307 0.02306
 C346 C 0.58827 0.66374 0.01219
 C347 C 0.58491 0.63608 -0.00194
 C348 C 0.60873 0.61875 -0.00532
 H349 H 0.68998 0.55613 -0.03868
 H350 H 0.71940 0.59846 0.04583
 H351 H 0.61990 0.69430 0.03384
 H352 H 0.56375 0.62753 -0.00989
 H353 H 0.64994 0.58864 -0.03939
 H354 H 0.60538 0.59727 -0.01565
 C355 C 0.88123 -0.17011 0.49928
 C356 C 0.88186 -0.19188 0.47616
 C357 C 0.90423 -0.21123 0.47555
 C358 C 0.92587 -0.20918 0.49815
 C359 C 0.92367 -0.18759 0.52138
 N360 N 0.90208 -0.16874 0.52112
 C361 C 0.86018 -0.14707 0.49935
 N362 N 0.86843 -0.12074 0.51220
 C363 C 0.85086 -0.09810 0.51271
 C364 C 0.82289 -0.10118 0.49980
 C365 C 0.81374 -0.12834 0.48680
 C366 C 0.83229 -0.15128 0.48648
 H367 H 0.90479 -0.22685 0.45672
 H368 H 0.93992 -0.18499 0.53912
 H369 H 0.85913 -0.07758 0.52261
 H370 H 0.79214 -0.13199 0.47719
 H371 H 0.86616 -0.19318 0.45788
 H372 H 0.82466 -0.17207 0.47668
 C373 C 0.33588 0.38373 0.97818
 C374 C 0.32671 0.39844 0.95285
 C375 C 0.30467 0.41789 0.95661
 C376 C 0.29110 0.42247 0.98535
 C377 C 0.30124 0.40747 1.01011
 N378 N 0.32295 0.38888 1.00593
 C379 C 0.36081 0.36466 0.97641
 N380 N 0.37457 0.35922 1.00277
 C381 C 0.39814 0.34274 1.00328
 C382 C 0.40943 0.33063 0.97602
 C383 C 0.39537 0.33555 0.94858
 C384 C 0.37102 0.35237 0.94866
 H385 H 0.29917 0.43019 0.93717
 H386 H 0.29291 0.41133 1.03306
 H387 H 0.40838 0.33965 1.02495
 H388 H 0.40296 0.32607 0.92712
 H389 H 0.33722 0.39619 0.93065
 H390 H 0.36032 0.35531 0.92726
 C391 C 0.91208 0.16878 0.50902
 C392 C 0.91247 0.19581 0.49537
 C393 C 0.93847 0.21334 0.49487
 C394 C 0.96390 0.20403 0.50807
 C395 C 0.96204 0.17746 0.52270
 N396 N 0.93677 0.16063 0.52237
 C397 C 0.88659 0.14769 0.50732
 N398 N 0.89167 0.11902 0.50659
 C399 C 0.86975 0.09802 0.50470
 C400 C 0.84050 0.10538 0.50386
 C401 C 0.83456 0.13479 0.50518
 C402 C 0.85758 0.15605 0.50666
 H403 H 0.93896 0.23346 0.48299
 H404 H 0.98081 0.16969 0.53390
 H405 H 0.87518 0.07558 0.50421
 H406 H 0.81220 0.14124 0.50466
 H407 H 0.89342 0.20274 0.48395
 H408 H 0.85269 0.17864 0.50776
 C409 C 0.31601 0.58060 0.01972
 C410 C 0.29098 0.57887 0.00128
 C411 C 0.27520 0.55228 -0.00313
 C412 C 0.28441 0.52753 0.01050
 C413 C 0.30854 0.53050 0.02991
 N414 N 0.32361 0.55641 0.03368
 C415 C 0.33624 0.60675 0.02261
 N416 N 0.36319 0.60355 0.03431
 C417 C 0.38407 0.62553 0.03641
 C418 C 0.37857 0.65296 0.02604
 C419 C 0.35073 0.65707 0.01443
 C420 C 0.32947 0.63412 0.01278
 H421 H 0.25681 0.55079 -0.01842
 H422 H 0.31599 0.51202 0.04140
 H423 H 0.40527 0.62117 0.04521
 H424 H 0.34539 0.67803 0.00666
 H425 H 0.28425 0.59725 -0.01078
 H426 H 0.30822 0.63800 0.00388
 C427 C 0.08421 -0.16769 0.48262
 C428 C 0.06221 -0.16739 0.46067
 C429 C 0.03729 -0.18588 0.46327
 C430 C 0.03438 -0.20512 0.48728
 C431 C 0.05778 -0.20650 0.50732
 N432 N 0.08168 -0.18769 0.50481
 C433 C 0.10903 -0.14564 0.48317
 N434 N 0.13465 -0.15158 0.49637
 C435 C 0.15771 -0.13168 0.49865
 C436 C 0.15562 -0.10377 0.48754
 C437 C 0.12927 -0.09722 0.47417
 C438 C 0.10605 -0.11794 0.47197
 H439 H 0.01989 -0.18468 0.44696
 H440 H 0.05630 -0.22126 0.52599
 H441 H 0.17765 -0.13774 0.50904
 H442 H 0.12623 -0.07577 0.46615
 H443 H 0.06383 -0.15267 0.44198
 H444 H 0.08570 -0.11183 0.46253
 C445 C 0.69049 0.41387 1.00025
 C446 C 0.71497 0.42037 0.98130
 C447 C 0.72991 0.44751 0.98433
 C448 C 0.72048 0.46797 1.00609
 C449 C 0.69711 0.45997 1.02577
 N450 N 0.68281 0.43361 1.02228
 C451 C 0.67135 0.38723 0.99602
 N452 N 0.65370 0.37865 1.01978
 C453 C 0.63304 0.35650 1.01696
 C454 C 0.62850 0.34203 0.98857
 C455 C 0.64675 0.35012 0.96382
 C456 C 0.66825 0.37262 0.96744
 H457 H 0.74774 0.45297 0.96867
 H458 H 0.68952 0.47508 1.04319
 H459 H 0.61926 0.35118 1.03657
 H460 H 0.64406 0.33939 0.94157
 H461 H 0.72219 0.40506 0.96394
 H462 H 0.68118 0.37924 0.94770
 C463 C 0.50556 0.11799 1.15914
 C464 C 0.48062 0.11337 1.17788
 C465 C 0.47967 0.09133 1.19887
 C466 C 0.50370 0.07400 1.20169
 C467 C 0.52804 0.07927 1.18214
 N468 N 0.52831 0.10066 1.16173
 C469 C 0.50726 0.13969 1.13508
 N470 N 0.52612 0.13583 1.11108
 C471 C 0.52859 0.15420 1.08756
 C472 C 0.51141 0.17829 1.08729
 C473 C 0.49228 0.18313 1.11213
 C474 C 0.49015 0.16395 1.13608
 H475 H 0.45963 0.08751 1.21185
 H476 H 0.54665 0.06591 1.18263
 H477 H 0.54405 0.14998 1.06915
 H478 H 0.47861 0.20145 1.11280
 H479 H 0.46149 0.12575 1.17565
 H480 H 0.47545 0.16830 1.15509
 C481 C 0.00000 0.68318 0.59621
 C482 C 0.02364 0.69875 0.58219
 C483 C 0.01817 0.71880 0.56009
 C484 C -0.01067 0.72365 0.55213
 C485 C -0.03359 0.70798 0.56704
 N486 N -0.02773 0.68851 0.58822
 C487 C 0.00362 0.66080 0.61913
 N488 N -0.02072 0.65055 0.63457
 C489 C -0.02018 0.62904 0.65480
 C490 C 0.00607 0.61610 0.66044
 C491 C 0.03162 0.62653 0.64522
 C492 C 0.03052 0.64875 0.62451
 H493 H 0.03650 0.73064 0.54945
 H494 H -0.05619 0.71046 0.56131
 H495 H -0.04034 0.62202 0.66636
 H496 H 0.05227 0.61689 0.64861
 H497 H 0.04608 0.69584 0.58810
 H498 H 0.05039 0.65558 0.61244
 C499 C 0.48808 0.88249 -0.15839
 C500 C 0.50689 0.88071 -0.18401
 C501 C 0.50857 0.90295 -0.20479
 C502 C 0.49191 0.92735 -0.19997
 C503 C 0.47270 0.92769 -0.17451
 N504 N 0.47157 0.90586 -0.15455
 C505 C 0.48651 0.86052 -0.13456
 N506 N 0.47665 0.86830 -0.10608
 C507 C 0.47513 0.84979 -0.08264
 C508 C 0.48398 0.82144 -0.08712
 C509 C 0.49371 0.81274 -0.11644
 C510 C 0.49491 0.83211 -0.14021
 H511 H 0.52293 0.90059 -0.22441
 H512 H 0.45888 0.94563 -0.17024
 H513 H 0.46768 0.85752 -0.06037
 H514 H 0.50013 0.79087 -0.12107
 H515 H 0.52077 0.86279 -0.18779
 H516 H 0.50200 0.82465 -0.16268
 C517 C 0.99317 0.32186 0.41031
 C518 C 0.97928 0.32215 0.43917
 C519 C 0.98509 0.30119 0.46005
 C520 C 1.00470 0.27952 0.45250
 C521 C 1.01712 0.27951 0.42273
 N522 N 1.01120 0.30027 0.40294
 C523 C 0.98946 0.34448 0.38769
 N524 N 0.99733 0.33897 0.35798
 C525 C 0.99639 0.35905 0.33614
 C526 C 0.98747 0.38693 0.34374
 C527 C 0.97892 0.39303 0.37416
 C528 C 0.97993 0.37199 0.39615
 H529 H 0.97501 0.30326 0.48246
 H530 H 1.03131 0.26289 0.41475
 H531 H 1.00286 0.35326 0.31292
 H532 H 0.97248 0.41440 0.38123
 H533 H 0.96417 0.33839 0.44587
 H534 H 0.97436 0.37782 0.41957
 C535 C 0.49244 0.91229 0.18096
 C536 C 0.50654 0.91630 0.20910
 C537 C 0.50838 0.94374 0.22349
 C538 C 0.49665 0.96746 0.20967
 C539 C 0.48222 0.96208 0.18165
 N540 N 0.48040 0.93512 0.16841
 C541 C 0.49073 0.88419 0.16397
 N542 N 0.46729 0.87753 0.14575
 C543 C 0.46531 0.85326 0.12739
 C544 C 0.48832 0.83453 0.12586
 C545 C 0.51260 0.84078 0.14461
 C546 C 0.51379 0.86547 0.16391
 H547 H 0.52035 0.94629 0.24459
 H548 H 0.47165 0.97897 0.17041
 H549 H 0.44639 0.84931 0.11299
 H550 H 0.53080 0.82682 0.14391
 H551 H 0.51606 0.89847 0.21990
 H552 H 0.53308 0.87047 0.17751
 C553 C 0.00644 0.33286 0.59284
 C554 C -0.01753 0.31398 0.58450
 C555 C -0.01341 0.29113 0.56343
 C556 C 0.01446 0.28683 0.55080
 C557 C 0.03785 0.30599 0.55998
 N558 N 0.03330 0.32809 0.58041
 C559 C 0.00390 0.35765 0.61497
 N560 N 0.02881 0.36971 0.62786
 C561 C 0.02880 0.39290 0.64774
 C562 C 0.00251 0.40563 0.65574
 C563 C -0.02351 0.39361 0.64277
 C564 C -0.02293 0.36974 0.62235
 H565 H -0.03196 0.27656 0.55745
 H566 H 0.05966 0.30385 0.55053
 H567 H 0.04935 0.40119 0.65745
 H568 H -0.04422 0.40305 0.64784
 H569 H -0.03912 0.31632 0.59437
 H570 H -0.04320 0.36153 0.61207
 C571 C 0.50993 0.09164 0.81684
 C572 C 0.49320 0.08683 0.79031
 C573 C 0.48945 0.05888 0.77741
 C574 C 0.50226 0.03570 0.79075
 C575 C 0.51988 0.04172 0.81643
 N576 N 0.52307 0.06902 0.82867
 C577 C 0.51310 0.12013 0.83324
 N578 N 0.53499 0.12462 0.85387
 C579 C 0.53790 0.14891 0.87211
 C580 C 0.51750 0.17028 0.87082
 C581 C 0.49514 0.16649 0.84924
 C582 C 0.49285 0.14152 0.83043
 H583 H 0.47598 0.05548 0.75746
 H584 H 0.53113 0.02481 0.82692
 H585 H 0.55528 0.15075 0.88865
 H586 H 0.47902 0.18253 0.84741
 H587 H 0.48303 0.10425 0.77954
 H588 H 0.47463 0.13866 0.81499
 C589 C 0.99708 0.66261 0.41230
 C590 C 1.00825 0.66370 0.44210
 C591 C 1.00305 0.68735 0.46174
 C592 C 0.98696 0.71003 0.45184
 C593 C 0.97668 0.70839 0.42175
 N594 N 0.98192 0.68512 0.40311
 C595 C 1.00094 0.63788 0.39035
 N596 N 0.99521 0.64145 0.36032
 C597 C 0.99672 0.61971 0.33879
 C598 C 1.00411 0.59208 0.34702
 C599 C 1.01050 0.58790 0.37775
 C600 C 1.00886 0.61062 0.39947
 H601 H 1.01119 0.68754 0.48483
 H602 H 0.96465 0.72563 0.41293
 H603 H 0.99195 0.62401 0.31530
 H604 H 1.01578 0.56680 0.38520
 H605 H 1.02101 0.64677 0.45036
 H606 H 1.01283 0.60633 0.42310
 C607 C 1.16668 0.46922 0.09400
 C608 C 1.17093 0.44305 0.07774
 C609 C 1.19194 0.44221 0.05431
 C610 C 1.20862 0.46737 0.04667
 C611 C 1.20325 0.49324 0.06287
 N612 N 1.18277 0.49351 0.08581
 C613 C 1.14468 0.47133 0.11921
 N614 N 1.13453 0.49766 0.12721
 C615 C 1.11382 0.50116 0.14955
 C616 C 1.10182 0.47718 0.16516
 C617 C 1.11254 0.45000 0.15789
 C618 C 1.13401 0.44699 0.13518
 H619 H 1.19477 0.42194 0.04185
 H620 H 1.21572 0.51312 0.05779
 H621 H 1.10613 0.52252 0.15444
 H622 H 1.10438 0.43105 0.16989
 H623 H 1.15793 0.42343 0.08247
 H624 H 1.14218 0.42583 0.13057
 C625 C 0.58456 -0.00516 0.66842
 C626 C 0.57192 0.01803 0.68437
 C627 C 0.55001 0.01239 0.70636
 C628 C 0.54045 -0.01617 0.71245
 C629 C 0.55328 -0.03866 0.69575
 N630 N 0.57462 -0.03266 0.67457
 C631 C 0.60825 -0.00121 0.64501
 N632 N 0.61629 -0.02500 0.62848
 C633 C 0.63801 -0.02388 0.60694
 C634 C 0.65330 0.00246 0.60084
 C635 C 0.64545 0.02736 0.61745
 C636 C 0.62310 0.02565 0.63960
 H637 H 0.54101 0.03043 0.71896
 H638 H 0.54626 -0.06102 0.69931
 H639 H 0.64306 -0.04356 0.59438
 H640 H 0.65697 0.04805 0.61370
 H641 H 0.57854 0.04030 0.68019
 H642 H 0.61813 0.04516 0.65236
 C643 C -0.16633 0.51545 0.90538
 C644 C -0.17762 0.49141 0.92142
 C645 C -0.19897 0.49504 0.94423
 C646 C -0.20921 0.52249 0.95132
 C647 C -0.19709 0.54600 0.93494
 N648 N -0.17630 0.54193 0.91288
 C649 C -0.14318 0.51334 0.88133
 N650 N -0.12770 0.53799 0.87326
 C651 C -0.10602 0.53812 0.85160
 C652 C -0.09865 0.51223 0.83654
 C653 C -0.11452 0.48658 0.84417
 C654 C -0.13683 0.48703 0.86636
 H655 H -0.20737 0.47621 0.95611
 H656 H -0.20354 0.56775 0.94001
 H657 H -0.09422 0.55838 0.84664
 H658 H -0.10996 0.46622 0.83267
 H659 H -0.16985 0.47005 0.91706
 H660 H -0.14907 0.46700 0.87117
 C661 C 0.41586 0.00575 0.33557
 C662 C 0.42592 -0.01731 0.31726
 C663 C 0.44729 -0.01179 0.29468
 C664 C 0.45849 0.01656 0.29008
 C665 C 0.44811 0.03892 0.30899
 N666 N 0.42735 0.03303 0.33080
 C667 C 0.39238 0.00195 0.35914
 N668 N 0.37934 0.02592 0.37019
 C669 C 0.35764 0.02475 0.39176
 C670 C 0.34770 -0.00185 0.40364
 C671 C 0.36082 -0.02691 0.39274
 C672 C 0.38322 -0.02514 0.37064
 H673 H 0.45431 -0.02959 0.28017
 H674 H 0.45645 0.06106 0.30650
 H675 H 0.34795 0.04459 0.39930
 H676 H 0.35414 -0.04781 0.40172
 H677 H 0.41701 -0.03926 0.31949
 H678 H 0.39335 -0.04474 0.36329
 C679 C 0.17018 0.49648 0.90282
 C680 C 0.18357 0.51873 0.92134
 C681 C 0.20438 0.51207 0.94267
 C682 C 0.21198 0.48341 0.94561
 C683 C 0.19768 0.46182 0.92704
 N684 N 0.17753 0.46880 0.90656
 C685 C 0.14782 0.50153 0.87972
 N686 N 0.13131 0.47826 0.86852
 C687 C 0.11069 0.48043 0.84690
 C688 C 0.10564 0.50737 0.83497
 C689 C 0.12237 0.53176 0.84610
 C690 C 0.14352 0.52895 0.86834
 H691 H 0.21468 0.52941 0.95654
 H692 H 0.20205 0.43928 0.92904
 H693 H 0.09803 0.46109 0.83939
 H694 H 0.11947 0.55290 0.83721
 H695 H 0.17796 0.54096 0.91989
 H696 H 0.15656 0.54800 0.87586
 C697 C 0.60315 0.01060 0.31754
 C698 C 0.60907 0.02306 0.28908
 C699 C 0.58618 0.02621 0.26902
 C700 C 0.55735 0.01718 0.27715
 C701 C 0.55239 0.00450 0.30554
 N702 N 0.57501 0.00177 0.32475
 C703 C 0.62596 0.00808 0.34087
 N704 N 0.61709 0.00195 0.36993
 C705 C 0.63620 0.00003 0.39308
 C706 C 0.66642 0.00467 0.38775
 C707 C 0.67621 0.01061 0.35794
 C708 C 0.65616 0.01215 0.33443
 H709 H 0.59104 0.03590 0.24721
 H710 H 0.53049 -0.00232 0.31305
 H711 H 0.62768 -0.00440 0.41577
 H712 H 0.69939 0.01381 0.35278
 H713 H 0.63081 0.03104 0.28236
 H714 H 0.66452 0.01629 0.31167
 C715 C 0.83337 0.51984 0.10065
 C716 C 0.82862 0.54749 0.09006
 C717 C 0.80787 0.55054 0.06763
 C718 C 0.79201 0.52621 0.05528
 C719 C 0.79775 0.49893 0.06590
 N720 N 0.81792 0.49648 0.08802
 C721 C 0.85521 0.51516 0.12446
 N722 N 0.86418 0.48793 0.12796
 C723 C 0.88465 0.48200 0.14870
 C724 C 0.89771 0.50431 0.16723
 C725 C 0.88829 0.53235 0.16460
 C726 C 0.86697 0.53784 0.14354
 H727 H 0.80461 0.57192 0.05953
 H728 H 0.78586 0.47962 0.05708
 H729 H 0.89131 0.46005 0.15007
 H730 H 0.89737 0.55004 0.17899
 H731 H 0.84101 0.56666 0.09834
 H732 H 0.85988 0.55961 0.14266
 C733 C 0.39434 -0.00978 0.68222
 C734 C 0.40895 0.01433 0.69679
 C735 C 0.43184 0.01024 0.71658
 C736 C 0.44005 -0.01770 0.72232
 C737 C 0.42453 -0.04123 0.70784
 N738 N 0.40253 -0.03672 0.68843
 C739 C 0.37055 -0.00722 0.66002
 N740 N 0.35401 -0.03155 0.65171
 C741 C 0.33287 -0.03169 0.63028
 C742 C 0.32747 -0.00624 0.61542
 C743 C 0.34387 0.01923 0.62389
 C744 C 0.36544 0.01885 0.64603
 H745 H 0.44275 0.02894 0.72769
 H746 H 0.43027 -0.06318 0.71133
 H747 H 0.32052 -0.05176 0.62464
 H748 H 0.34081 0.03921 0.61257
 H749 H 0.40283 0.03614 0.69342
 H750 H 0.37843 0.03861 0.65107
   
