data_POSCAR
  _audit_creation_date              2014-09-24
  _audit_creation_method            'ToBaCCo'
  _symmetry_space_group_name_H-M    'P1'
  _symmetry_Int_Tables_number       1
  _symmetry_cell_setting            triclinic
  loop_
  _symmetry_equiv_pos_as_xyz
 x,y,z
_cell_length_a 19.1803
_cell_length_b 32.9262
_cell_length_c 13.1030
_cell_angle_alpha 90.027000
_cell_angle_beta 91.379500
_cell_angle_gamma 89.879700
loop_
  _atom_site_label
  _atom_site_type_symbol
  _atom_site_fract_x
  _atom_site_fract_y
  _atom_site_fract_z
C1 C 0.72074 0.36282 0.47375
 C2 C 0.71970 0.34288 0.56875
 C3 C 0.74150 0.30216 0.57323
 C4 C 0.76898 0.28206 0.48737
 C5 C 0.77083 0.30372 0.39407
 C6 C 0.74517 0.34345 0.38624
 C7 C 0.79257 0.23836 0.49481
 C8 C 0.80006 0.21407 0.40624
 C9 C 0.82088 0.17318 0.41276
 C10 C 0.83147 0.15606 0.51028
 C11 C 0.82352 0.17894 0.59920
 C12 C 0.80741 0.22024 0.59104
 H13 H 0.69649 0.39217 0.46410
 H14 H 0.73512 0.28620 0.64434
 H15 H 0.79114 0.29022 0.32587
 H16 H 0.78892 0.22617 0.33109
 H17 H 0.85204 0.12568 0.51893
 H18 H 0.80716 0.23769 0.66078
 C19 C 0.18176 0.84222 0.49472
 C20 C 0.19111 0.82448 0.59179
 C21 C 0.21075 0.78327 0.59706
 C22 C 0.21853 0.75945 0.50752
 C23 C 0.20476 0.77835 0.41197
 C24 C 0.18972 0.81978 0.40516
 C25 C 0.24037 0.71531 0.51261
 C26 C 0.26578 0.69538 0.42505
 C27 C 0.28414 0.65420 0.42661
 C28 C 0.28093 0.63294 0.51899
 C29 C 0.25890 0.65186 0.60912
 C30 C 0.23806 0.69280 0.60470
 H31 H 0.16194 0.87279 0.48674
 H32 H 0.22055 0.77053 0.67188
 H33 H 0.20475 0.76140 0.34147
 H34 H 0.27380 0.71168 0.35491
 H35 H 0.30309 0.60287 0.52315
 H36 H 0.21947 0.70635 0.67395
 C37 C 0.30248 0.35614 -0.48623
 C38 C 0.31370 0.33277 -0.57355
 C39 C 0.29660 0.29149 -0.57219
 C40 C 0.26386 0.27374 -0.48737
 C41 C 0.25347 0.29825 -0.39998
 C42 C 0.27398 0.33918 -0.39940
 C43 C 0.24187 0.22993 -0.49144
 C44 C 0.23293 0.20677 -0.40155
 C45 C 0.21291 0.16563 -0.40640
 C46 C 0.20407 0.14758 -0.50334
 C47 C 0.21301 0.16964 -0.59325
 C48 C 0.22897 0.21089 -0.58683
 H49 H 0.32059 0.38721 -0.48185
 H50 H 0.31014 0.27341 -0.63771
 H51 H 0.22942 0.28624 -0.33269
 H52 H 0.24196 0.22028 -0.32721
 H53 H 0.18350 0.11724 -0.51100
 H54 H 0.23016 0.22791 -0.65728
 C55 C -0.19455 0.85501 -0.47787
 C56 C -0.19998 0.83697 -0.57498
 C57 C -0.22841 0.79784 -0.58239
 C58 C -0.25849 0.77840 -0.49742
 C59 C -0.25322 0.79814 -0.40132
 C60 C -0.22023 0.83588 -0.39105
 C61 C -0.29454 0.73789 -0.50997
 C62 C -0.30896 0.71276 -0.42494
 C63 C -0.34218 0.67498 -0.43754
 C64 C -0.35868 0.66148 -0.53673
 C65 C -0.34358 0.68514 -0.62176
 C66 C -0.31508 0.72372 -0.60830
 H67 H -0.16519 0.88270 -0.46696
 H68 H -0.22671 0.78305 -0.65578
 H69 H -0.27459 0.78495 -0.33355
 H70 H -0.29421 0.72170 -0.34821
 H71 H -0.38539 0.63294 -0.54930
 H72 H -0.30909 0.74191 -0.67595
 N73 N -0.08037 0.92937 -0.09791
 N74 N -0.12636 0.90087 -0.12330
 N75 N 0.06261 0.95464 -0.18380
 N76 N 0.10210 0.94637 -0.26186
 N77 N 0.06457 0.92470 -0.11754
 N78 N 0.10468 0.89480 -0.15034
 N79 N -0.08354 0.95931 -0.16419
 N80 N -0.13277 0.95259 -0.23381
 C81 C -0.15989 0.91651 -0.20691
 C82 C 0.12871 0.90935 -0.23981
 N83 N 0.07753 1.07122 -0.11623
 N84 N 0.12211 1.09881 -0.14835
 N85 N -0.07578 1.04614 -0.16426
 N86 N -0.12082 1.05698 -0.23667
 N87 N -0.06695 1.07569 -0.09776
 N88 N -0.10430 1.10786 -0.12575
 N89 N 0.07047 1.04176 -0.18331
 N90 N 0.11096 1.04802 -0.26141
 Mn91 Mn -0.00653 1.00043 -0.17430
 C92 C 0.14349 1.08328 -0.23827
 C93 C -0.13912 1.09513 -0.21106
 N94 N 0.08220 0.92387 0.10355
 N95 N 0.11886 0.89150 0.13191
 N96 N -0.05317 0.95853 0.19095
 N97 N -0.08988 0.95204 0.27271
 N98 N -0.06188 0.92889 0.12470
 N99 N -0.10362 0.90074 0.16188
 N100 N 0.09246 0.95369 0.16898
 N101 N 0.13761 0.94272 0.24112
 Mn102 Mn 0.00093 0.92628 0.00308
 C103 C 0.15463 0.90428 0.21634
 C104 C -0.12168 0.91637 0.25355
 N105 N -0.05001 1.07453 0.12365
 N106 N -0.09169 1.10373 0.15599
 N107 N 0.09988 1.04087 0.16941
 N108 N 0.14628 1.04934 0.24200
 N109 N 0.09465 1.07107 0.10411
 N110 N 0.13620 1.10123 0.13279
 N111 N -0.04615 1.04490 0.19058
 N112 N -0.08611 1.05250 0.26846
 Mn113 Mn 0.01372 1.07348 0.00348
 Mn114 Mn 0.02346 0.99951 0.18011
 Cl115 Cl 0.00787 0.99989 0.00305
 C116 C -0.11477 1.08891 0.24577
 C117 C 0.16947 1.08661 0.21743
 N118 N 0.53517 0.57159 -0.14100
 N119 N 0.57065 0.60214 -0.17976
 N120 N 0.39002 0.52844 -0.16246
 N121 N 0.33990 0.53336 -0.23178
 N122 N 0.39374 0.56026 -0.10175
 N123 N 0.34710 0.58790 -0.13112
 N124 N 0.53190 0.54107 -0.20559
 N125 N 0.56590 0.54976 -0.28901
 C126 C 0.59030 0.58768 -0.27171
 C127 C 0.31255 0.57005 -0.21064
 N128 N 0.43335 0.41538 -0.08286
 N129 N 0.39789 0.38122 -0.09354
 N130 N 0.55554 0.45524 -0.19614
 N131 N 0.59156 0.45063 -0.27946
 N132 N 0.57376 0.42797 -0.12734
 N133 N 0.62178 0.40324 -0.16374
 N134 N 0.41394 0.44181 -0.15307
 N135 N 0.36430 0.42623 -0.21263
 Mn136 Mn 0.47262 0.49160 -0.17974
 C137 C 0.35367 0.38872 -0.17315
 C138 C 0.63291 0.41847 -0.25827
 N139 N 0.42517 0.56603 0.11661
 N140 N 0.37760 0.59128 0.15172
 N141 N 0.58473 0.55055 0.14467
 N142 N 0.63059 0.56535 0.21090
 N143 N 0.56564 0.57840 0.07768
 N144 N 0.59647 0.61337 0.10005
 N145 N 0.44237 0.53876 0.18596
 N146 N 0.40579 0.54400 0.26875
 Mn147 Mn 0.47990 0.56942 -0.01226
 C148 C 0.36533 0.57651 0.24619
 C149 C 0.63848 0.60417 0.18153
 N150 N 0.60614 0.43378 0.09131
 N151 N 0.65405 0.40658 0.11860
 N152 N 0.46597 0.45302 0.19446
 N153 N 0.42360 0.44692 0.27035
 N154 N 0.46504 0.42200 0.13163
 N155 N 0.42259 0.39343 0.16402
 N156 N 0.60839 0.46491 0.15418
 N157 N 0.65895 0.46011 0.22301
 Mn158 Mn 0.51992 0.42443 0.00311
 Mn159 Mn 0.52538 0.50180 0.17013
 Cl160 Cl 0.49957 0.49688 -0.00482
 C161 C 0.68796 0.42411 0.19916
 C162 C 0.39723 0.40973 0.25062
 C163 C 0.34918 0.35029 0.33731
 C164 C 0.34865 0.39024 0.31905
 H165 H 0.37979 0.33035 0.29002
 H166 H 0.31736 0.41054 0.36397
 C167 C -0.17422 0.85616 0.33693
 C168 C -0.16124 0.89615 0.33322
 H169 H -0.16495 0.83802 0.26950
 H170 H -0.17576 0.91588 0.39514
 C171 C 0.64243 0.66841 0.27542
 C172 C 0.67265 0.63335 0.25027
 H173 H 0.59950 0.68072 0.22989
 H174 H 0.71339 0.62122 0.30049
 C175 C 0.19712 1.15039 0.30651
 C176 C 0.20999 1.11089 0.29129
 H177 H 0.16740 1.16764 0.25001
 H178 H 0.24035 1.09405 0.34787
 C179 C 0.69194 0.36121 -0.34321
 C180 C 0.67730 0.40098 -0.33646
 H181 H 0.67999 0.34203 -0.27869
 H182 H 0.69169 0.42199 -0.39543
 C183 C 0.17496 0.84606 -0.31811
 C184 C 0.16825 0.88671 -0.31586
 H185 H 0.16412 0.82897 -0.24962
 H186 H 0.18588 0.90506 -0.37848
 C187 C 0.26622 0.63193 -0.29567
 C188 C 0.26968 0.59131 -0.28814
 H189 H 0.27489 0.65018 -0.22767
 H190 H 0.25207 0.57263 -0.35170
 C191 C -0.16091 1.15993 -0.30009
 C192 C -0.17780 1.12107 -0.28357
 H193 H -0.12844 1.17628 -0.24522
 H194 H -0.21070 1.10538 -0.33919
 C195 C 0.63645 0.65116 -0.34679
 C196 C 0.62599 0.61091 -0.35085
 H197 H 0.62560 0.66749 -0.27711
 H198 H 0.63967 0.59399 -0.41827
 C199 C 0.19526 1.14463 -0.31632
 C200 C 0.18607 1.10416 -0.31347
 H201 H 0.18455 1.16223 -0.24849
 H202 H 0.20285 1.08505 -0.37527
 C203 C 0.27363 0.36518 -0.30793
 C204 C 0.31525 0.35633 -0.22793
 H205 H 0.25880 0.39666 -0.32008
 H206 H 0.33272 0.32533 -0.21586
 C207 C -0.20526 0.85409 -0.28911
 C208 C -0.20700 0.89448 -0.27743
 H209 H -0.18158 0.83504 -0.23041
 H210 H -0.23166 0.91271 -0.33705
 C211 C 0.31439 0.63530 0.33405
 C212 C 0.31995 0.59500 0.32187
 H213 H 0.33668 0.65517 0.27757
 H214 H 0.29777 0.57432 0.37615
 C215 C -0.16311 1.15147 0.32304
 C216 C -0.15509 1.11098 0.32164
 H217 H -0.15328 1.16844 0.25397
 H218 H -0.17155 1.09261 0.38495
 C219 C 0.73299 0.36247 0.28446
 C220 C 0.73397 0.40288 0.27307
 H221 H 0.71175 0.34350 0.22373
 H222 H 0.75664 0.42143 0.33357
 C223 C 0.17494 0.83929 0.30491
 C224 C 0.19231 0.87814 0.28948
 H225 H 0.14281 0.82322 0.24909
 H226 H 0.22497 0.89358 0.34583
   
