data_POSCAR
  _audit_creation_date              2014-09-24
  _audit_creation_method            'ToBaCCo'
  _symmetry_space_group_name_H-M    'P1'
  _symmetry_Int_Tables_number       1
  _symmetry_cell_setting            triclinic
  loop_
  _symmetry_equiv_pos_as_xyz
 x,y,z
_cell_length_a 21.8875
_cell_length_b 23.3512
_cell_length_c 21.7029
_cell_angle_alpha 86.213200
_cell_angle_beta 89.016400
_cell_angle_gamma 90.095500
loop_
  _atom_site_label
  _atom_site_type_symbol
  _atom_site_fract_x
  _atom_site_fract_y
  _atom_site_fract_z
C1 C 0.32273 0.36258 0.18472
 H2 H 0.28388 0.38309 0.20501
 C3 C 0.36016 0.39433 0.14225
 H4 H 0.34968 0.43889 0.13009
 C5 C 0.38374 0.27978 0.17492
 H6 H 0.39287 0.23520 0.18815
 C7 C 0.42210 0.30985 0.13215
 H8 H 0.46056 0.28831 0.11189
 N9 N 0.33423 0.30597 0.19910
 C10 C 0.23704 0.31496 0.35694
 H11 H 0.27186 0.29084 0.38161
 C12 C 0.19983 0.35185 0.38878
 H13 H 0.20607 0.35575 0.43771
 C14 C 0.18473 0.33880 0.26392
 H15 H 0.17941 0.33364 0.21513
 C16 C 0.14556 0.37484 0.29434
 H17 H 0.10948 0.39731 0.26929
 Zn18 Zn 0.27986 0.26078 0.25105
 N19 N 0.22919 0.30944 0.29548
 C20 C 0.36783 0.23426 0.34304
 N21 N 0.32466 0.21222 0.30678
 C22 C 0.31154 0.15515 0.31044
 C23 C 0.34239 0.11776 0.35166
 C24 C 0.39874 0.19841 0.38621
 C25 C 0.17028 0.20697 0.21533
 C26 C 0.13454 0.17228 0.18003
 C27 C 0.22426 0.15263 0.11877
 C28 C 0.25818 0.18793 0.15485
 N29 N 0.23089 0.21466 0.20188
 H30 H 0.37771 0.27978 0.33883
 H31 H 0.27696 0.13846 0.28153
 H32 H 0.33182 0.07235 0.35365
 H33 H 0.43307 0.21604 0.41494
 H34 H 0.14967 0.22695 0.25406
 H35 H 0.08649 0.16646 0.19138
 H36 H 0.24645 0.13140 0.08161
 H37 H 0.30644 0.19344 0.14548
 C38 C 0.15342 0.38182 0.35708
 C39 C 0.40986 0.36734 0.11484
 C40 C 0.16188 0.14473 0.13109
 C41 C 0.38648 0.13948 0.39015
 C42 C 0.84781 0.80589 0.23778
 H43 H 0.85824 0.78434 0.28190
 C44 C 0.88522 0.85085 0.21437
 H45 H 0.92406 0.86359 0.24065
 C46 C 0.78159 0.81969 0.15283
 H47 H 0.74047 0.80824 0.12970
 C48 C 0.81774 0.86537 0.12793
 H49 H 0.80379 0.88945 0.08615
 N50 N 0.79668 0.79145 0.20735
 C51 C 0.62373 0.75864 0.29240
 H52 H 0.60759 0.72623 0.26330
 C53 C 0.58204 0.78706 0.32921
 H54 H 0.53370 0.77758 0.32725
 C55 C 0.70605 0.81065 0.33152
 H56 H 0.75453 0.81937 0.33240
 C57 C 0.66623 0.83943 0.36937
 H58 H 0.68442 0.87104 0.39848
 Zn59 Zn 0.74434 0.73454 0.24703
 N60 N 0.68439 0.77146 0.29372
 C61 C 0.77338 0.67911 0.36309
 N62 N 0.79149 0.68843 0.30289
 C63 C 0.84526 0.66753 0.28183
 C64 C 0.88364 0.63651 0.32198
 C65 C 0.81056 0.64817 0.40498
 C66 C 0.66309 0.70996 0.15122
 C67 C 0.63532 0.67554 0.10926
 C68 C 0.70250 0.59811 0.14267
 C69 C 0.72766 0.63325 0.18513
 N70 N 0.70813 0.68828 0.18849
 H71 H 0.73026 0.69584 0.37881
 H72 H 0.85867 0.67587 0.23385
 H73 H 0.92641 0.62050 0.30427
 H74 H 0.79609 0.64093 0.45283
 H75 H 0.64801 0.75372 0.15476
 H76 H 0.59931 0.69302 0.08012
 H77 H 0.71880 0.55458 0.13993
 H78 H 0.76291 0.61627 0.21518
 C79 C 0.60330 0.82792 0.36807
 C80 C 0.86961 0.88156 0.15953
 C81 C 0.65553 0.61896 0.10484
 C82 C 0.86640 0.62688 0.38453
 C83 C 0.79176 0.33876 0.66362
 H84 H 0.75080 0.35828 0.68109
 C85 C 0.83379 0.37231 0.62801
 H86 H 0.82516 0.41762 0.61838
 C87 C 0.85332 0.25604 0.65479
 H88 H 0.86070 0.21077 0.66596
 C89 C 0.89615 0.28786 0.61868
 H90 H 0.93679 0.26720 0.60174
 N91 N 0.80236 0.28180 0.67642
 C92 C 0.71831 0.32271 0.80750
 H93 H 0.76638 0.31984 0.81767
 C94 C 0.68201 0.36275 0.83597
 H95 H 0.70232 0.38981 0.86874
 C96 C 0.63353 0.29150 0.75196
 H97 H 0.61502 0.26478 0.71804
 C98 C 0.59542 0.33058 0.77993
 H99 H 0.54746 0.33282 0.76860
 Zn100 Zn 0.74738 0.23697 0.72735
 N101 N 0.69372 0.28783 0.76659
 C102 C 0.84378 0.22075 0.80995
 N103 N 0.79410 0.19425 0.78771
 C104 C 0.77849 0.13979 0.80860
 C105 C 0.81152 0.11121 0.85601
 C106 C 0.87816 0.19361 0.85689
 C107 C 0.65459 0.15608 0.70294
 C108 C 0.62255 0.11893 0.66696
 C109 C 0.69227 0.14412 0.58205
 C110 C 0.72177 0.18191 0.61882
 N111 N 0.70324 0.18677 0.67844
 H112 H 0.85583 0.26376 0.79237
 H113 H 0.73926 0.11916 0.79019
 H114 H 0.79658 0.06928 0.87485
 H115 H 0.91559 0.21646 0.87636
 H116 H 0.64061 0.16053 0.75044
 H117 H 0.58424 0.09442 0.68695
 H118 H 0.70826 0.13960 0.53512
 H119 H 0.75999 0.20670 0.59967
 C120 C 0.61966 0.36673 0.82224
 C121 C 0.88670 0.34651 0.60544
 C122 C 0.64208 0.11254 0.60592
 C123 C 0.86128 0.13878 0.88109
 C124 C 0.27806 0.85607 0.72346
 H125 H 0.27031 0.87491 0.76695
 C126 C 0.31900 0.88259 0.68005
 H127 H 0.34194 0.92183 0.69041
 C128 C 0.26145 0.78041 0.65813
 H129 H 0.24133 0.73930 0.65047
 C130 C 0.30255 0.80494 0.61419
 H131 H 0.31268 0.78324 0.57264
 N132 N 0.25066 0.80542 0.71222
 C133 C 0.09145 0.79944 0.81978
 H134 H 0.07247 0.76728 0.79208
 C135 C 0.05191 0.83425 0.85242
 H136 H 0.00295 0.82864 0.84963
 C137 C 0.17775 0.84557 0.85848
 H138 H 0.22679 0.84906 0.86194
 C139 C 0.13998 0.88134 0.89153
 H140 H 0.16072 0.91242 0.91962
 Zn141 Zn 0.20724 0.76021 0.77557
 N142 N 0.15326 0.80606 0.82265
 C143 C 0.26517 0.71522 0.88798
 N144 N 0.26787 0.72218 0.82518
 C145 C 0.31333 0.69772 0.79245
 C146 C 0.35721 0.66340 0.82222
 C147 C 0.30873 0.68110 0.91988
 C148 C 0.12310 0.71765 0.69107
 C149 C 0.09906 0.67582 0.65495
 C150 C 0.15493 0.60372 0.71558
 C151 C 0.17679 0.64652 0.75130
 N152 N 0.16263 0.70255 0.73712
 H153 H 0.22835 0.73452 0.91314
 H154 H 0.31429 0.70313 0.74265
 H155 H 0.39203 0.64354 0.79482
 H156 H 0.30572 0.67464 0.96969
 H157 H 0.11302 0.76248 0.68018
 H158 H 0.07006 0.68859 0.61656
 H159 H 0.16918 0.55968 0.72507
 H160 H 0.20741 0.63496 0.78851
 C161 C 0.07602 0.87614 0.88838
 C162 C 0.33248 0.85592 0.62533
 C163 C 0.11680 0.61837 0.66617
 C164 C 0.35473 0.65401 0.88671
 C165 C 0.02228 -0.01140 -0.00819
 C166 C 0.06630 0.02716 0.02437
 C167 C 0.03833 0.06255 0.06301
 C168 C -0.03099 0.05654 0.06559
 C169 C -0.01520 -0.04347 0.04423
 C170 C -0.04313 -0.00697 0.08247
 C171 C -0.02323 0.03023 -0.04130
 C172 C -0.05121 0.06548 -0.00145
 H173 H 0.11542 0.02565 0.01783
 H174 H -0.05377 0.08563 0.09730
 H175 H -0.01953 -0.08971 0.04993
 H176 H -0.03418 0.02979 -0.08971
 C177 C 0.07447 0.47149 0.46729
 C178 C 0.09532 0.50892 0.51816
 C179 C 0.04831 0.53845 0.54358
 C180 C -0.01479 0.52691 0.51660
 C181 C 0.02521 0.43238 0.49759
 C182 C -0.02132 0.46128 0.52391
 C183 C 0.04125 0.51225 0.42129
 C184 C -0.00577 0.54024 0.44669
 H185 H 0.14265 0.51380 0.53055
 H186 H -0.05285 0.55053 0.53786
 H187 H 0.02851 0.38602 0.50006
 H188 H 0.05199 0.51645 0.37229
 C189 C 0.53790 -0.06640 0.47100
 C190 C 0.57257 -0.02589 0.51047
 C191 C 0.53597 0.01227 0.53810
 C192 C 0.46797 0.00661 0.52362
 C193 C 0.48928 -0.09527 0.51405
 C194 C 0.45245 -0.05676 0.54156
 C195 C 0.50257 -0.02749 0.42520
 C196 C 0.46650 0.01080 0.45248
 H197 H 0.62165 -0.02736 0.51583
 H198 H 0.43799 0.03783 0.54590
 H199 H 0.48447 -0.14135 0.52177
 H200 H 0.50623 -0.02960 0.37557
 C201 C 0.55907 0.47764 -0.07780
 C202 C 0.59308 0.51851 -0.03822
 C203 C 0.55520 0.55071 -0.00397
 C204 C 0.48682 0.53912 -0.01250
 C205 C 0.51828 0.44193 -0.03232
 C206 C 0.48061 0.47398 0.00211
 C207 C 0.51565 0.51563 -0.11696
 C208 C 0.47783 0.54773 -0.08278
 H209 H 0.64243 0.52061 -0.03638
 H210 H 0.45621 0.56516 0.01583
 H211 H 0.52059 0.39556 -0.02677
 H212 H 0.51514 0.51725 -0.16692
 N213 N 0.03571 -0.08841 -0.07733
 N214 N 0.05757 -0.04829 -0.04733
 N215 N 0.11119 0.41673 0.38803
 N216 N 0.12264 0.43920 0.43842
 N217 N 0.56057 -0.13976 0.40236
 N218 N 0.57906 -0.10495 0.44074
 N219 N 0.57985 0.40491 -0.14723
 N220 N 0.60020 0.44240 -0.11277
 N221 N -0.11708 0.11989 -0.06841
 N222 N -0.09917 0.10542 -0.01621
 N223 N -0.09550 0.59469 0.42703
 N224 N -0.04526 0.57443 0.40823
 N225 N 0.42150 0.10170 0.43022
 N226 N 0.43117 0.05064 0.41578
 N227 N 0.39719 0.61601 -0.08161
 N228 N 0.43468 0.58632 -0.11169
 N229 N -0.10435 -0.07148 0.14506
 N230 N -0.08130 -0.02361 0.13474
 N231 N -0.06788 0.37845 0.56982
 N232 N -0.06942 0.43270 0.55931
 N233 N 0.37963 -0.12346 0.58287
 N234 N 0.40313 -0.07359 0.58319
 N235 N 0.44744 0.39616 0.06798
 N236 N 0.44191 0.44903 0.05058
 N237 N 0.12811 0.10755 0.09425
 N238 N 0.07049 0.10102 0.09973
 N239 N 0.10237 0.57551 0.62456
 N240 N 0.05742 0.57988 0.58822
 N241 N 0.61438 0.07213 0.56829
 N242 N 0.55937 0.05500 0.57580
 N243 N 0.63034 0.58203 0.06182
 N244 N 0.57716 0.58878 0.03975
   
