data_POSCAR
  _audit_creation_date              2014-09-24
  _audit_creation_method            'ToBaCCo'
  _symmetry_space_group_name_H-M    'P1'
  _symmetry_Int_Tables_number       1
  _symmetry_cell_setting            triclinic
  loop_
  _symmetry_equiv_pos_as_xyz
 x,y,z
_cell_length_a 53.8380
_cell_length_b 53.8705
_cell_length_c 54.0117
_cell_angle_alpha 91.543600
_cell_angle_beta 91.442400
_cell_angle_gamma 91.513100
loop_
  _atom_site_label
  _atom_site_type_symbol
  _atom_site_fract_x
  _atom_site_fract_y
  _atom_site_fract_z
N1 N 0.17005 0.22807 0.23421
 N2 N 0.17702 0.20848 0.24627
 C3 C 0.16148 0.20470 0.26503
 C4 C 0.14377 0.22291 0.26473
 C5 C 0.14988 0.23742 0.24485
 H6 H 0.16287 0.18967 0.27778
 H7 H 0.14046 0.25362 0.23852
 Cu8 Cu 0.20560 0.18981 0.23614
 Cu9 Cu 0.18733 0.23988 0.20543
 Cu10 Cu 0.23836 0.20681 0.18692
 N11 N 0.23425 0.17149 0.22558
 N12 N 0.24699 0.17826 0.20635
 C13 C 0.26566 0.16251 0.20301
 C14 C 0.26463 0.14482 0.22115
 C15 C 0.24440 0.15117 0.23513
 H16 H 0.27901 0.16396 0.18848
 H17 H 0.23741 0.14162 0.25095
 N18 N 0.22663 0.23623 0.16972
 N19 N 0.20725 0.24883 0.17678
 C20 C 0.20382 0.26763 0.16125
 C21 C 0.22192 0.26689 0.14348
 C22 C 0.23605 0.24668 0.14952
 H23 H 0.18914 0.28082 0.16278
 H24 H 0.25193 0.23990 0.13985
 H25 H 0.20092 0.20584 0.19457
 H26 H 0.22160 0.22617 0.21521
 N27 N 0.66947 0.72761 0.73415
 N28 N 0.67595 0.70752 0.74567
 C29 C 0.66039 0.70368 0.76439
 C30 C 0.64316 0.72236 0.76461
 C31 C 0.64959 0.73721 0.74510
 H32 H 0.66141 0.68830 0.77677
 H33 H 0.64059 0.75383 0.73925
 Cu34 Cu 0.70397 0.68825 0.73507
 Cu35 Cu 0.68700 0.73969 0.70567
 Cu36 Cu 0.73796 0.70673 0.68708
 N37 N 0.73319 0.67060 0.72486
 N38 N 0.74638 0.67790 0.70614
 C39 C 0.76534 0.66245 0.70303
 C40 C 0.76404 0.64442 0.72081
 C41 C 0.74335 0.65026 0.73435
 H42 H 0.77910 0.66435 0.68894
 H43 H 0.73608 0.64032 0.74981
 N44 N 0.72647 0.73639 0.67017
 N45 N 0.70709 0.74896 0.67728
 C46 C 0.70376 0.76792 0.66192
 C47 C 0.72193 0.76731 0.64421
 C48 C 0.73599 0.74702 0.65011
 H49 H 0.68908 0.78109 0.66350
 H50 H 0.75187 0.74027 0.64041
 H51 H 0.70038 0.70582 0.69403
 H52 H 0.72086 0.72519 0.71580
 N53 N 0.32241 0.75804 0.74473
 N54 N 0.31656 0.77865 0.75650
 C55 C 0.33202 0.78232 0.77635
 C56 C 0.34845 0.76294 0.77708
 C57 C 0.34170 0.74789 0.75667
 H58 H 0.33149 0.79801 0.78919
 H59 H 0.35061 0.73117 0.75049
 Cu60 Cu 0.28974 0.79899 0.74437
 Cu61 Cu 0.30542 0.74646 0.71414
 Cu62 Cu 0.25685 0.78169 0.69271
 N63 N 0.26197 0.81817 0.73239
 N64 N 0.24917 0.81127 0.71224
 C65 C 0.23117 0.82763 0.70813
 C66 C 0.23262 0.84597 0.72675
 C67 C 0.25251 0.83919 0.74182
 H68 H 0.21808 0.82613 0.69264
 H69 H 0.25966 0.84872 0.75844
 N70 N 0.26742 0.75119 0.67550
 N71 N 0.28599 0.73782 0.68356
 C72 C 0.28917 0.71876 0.66737
 C73 C 0.27173 0.72014 0.64820
 C74 C 0.25826 0.74095 0.65406
 H75 H 0.30326 0.70498 0.66931
 H76 H 0.24333 0.74851 0.64312
 H77 H 0.29411 0.78083 0.70288
 H78 H 0.27201 0.76261 0.72190
 N79 N 0.82361 0.25774 0.24392
 N80 N 0.81833 0.27864 0.25543
 C81 C 0.83407 0.28232 0.27505
 C82 C 0.85024 0.26263 0.27594
 C83 C 0.84281 0.24737 0.25579
 H84 H 0.83385 0.29831 0.28752
 H85 H 0.85101 0.23025 0.24969
 Cu86 Cu 0.79170 0.29932 0.24341
 Cu87 Cu 0.80613 0.24605 0.21367
 Cu88 Cu 0.75762 0.28142 0.19254
 N89 N 0.76367 0.31831 0.23172
 N90 N 0.75040 0.31119 0.21193
 C91 C 0.73228 0.32748 0.20810
 C92 C 0.73417 0.34592 0.22651
 C93 C 0.75438 0.33940 0.24117
 H94 H 0.71865 0.32584 0.19308
 H95 H 0.76183 0.34928 0.25749
 N96 N 0.76776 0.25072 0.17542
 N97 N 0.78630 0.23727 0.18339
 C98 C 0.78927 0.21813 0.16725
 C99 C 0.77173 0.21955 0.14818
 C100 C 0.75840 0.24045 0.15406
 H101 H 0.80333 0.20432 0.16912
 H102 H 0.74348 0.24809 0.14317
 H103 H 0.79501 0.28039 0.20209
 H104 H 0.77309 0.26279 0.22188
 N105 N 0.81844 0.73545 0.26149
 N106 N 0.81114 0.71523 0.24896
 C107 C 0.82742 0.71066 0.23097
 C108 C 0.84597 0.72906 0.23222
 C109 C 0.83956 0.74446 0.25191
 H110 H 0.82582 0.69511 0.21794
 H111 H 0.84948 0.76099 0.25889
 Cu112 Cu 0.78121 0.69661 0.25743
 Cu113 Cu 0.80009 0.74863 0.28928
 Cu114 Cu 0.74742 0.71533 0.30582
 N115 N 0.75215 0.67767 0.26775
 N116 N 0.73906 0.68500 0.28667
 C117 C 0.72063 0.66819 0.29017
 C118 C 0.72219 0.64922 0.27248
 C119 C 0.74246 0.65594 0.25857
 H120 H 0.70721 0.66962 0.30465
 H121 H 0.75002 0.64546 0.24331
 N122 N 0.75888 0.74646 0.32296
 N123 N 0.77907 0.75903 0.31683
 C124 C 0.78240 0.77883 0.33244
 C125 C 0.76337 0.77879 0.34923
 C126 C 0.74882 0.75797 0.34258
 H127 H 0.79764 0.79222 0.33172
 H128 H 0.73247 0.75128 0.35179
 H129 H 0.78511 0.71468 0.29927
 H130 H 0.76573 0.73369 0.27820
 N131 N 0.31666 0.23687 -0.24052
 N132 N 0.31136 0.21503 -0.25101
 C133 C 0.32861 0.20990 -0.26790
 C134 C 0.34574 0.22967 -0.26815
 C135 C 0.33738 0.24644 -0.25039
 H136 H 0.32853 0.19304 -0.27916
 H137 H 0.34553 0.26436 -0.24495
 Cu138 Cu 0.28230 0.19564 -0.24145
 Cu139 Cu 0.29589 0.25163 -0.21531
 Cu140 Cu 0.24747 0.21463 -0.19430
 N141 N 0.25298 0.17662 -0.23201
 N142 N 0.23968 0.18396 -0.21325
 C143 C 0.22115 0.16721 -0.20998
 C144 C 0.22284 0.14826 -0.22768
 C145 C 0.24331 0.15493 -0.24136
 H146 H 0.20746 0.16877 -0.19576
 H147 H 0.25095 0.14449 -0.25659
 N148 N 0.25822 0.24642 -0.17798
 N149 N 0.27655 0.26057 -0.18599
 C150 C 0.27972 0.28060 -0.17062
 C151 C 0.26242 0.27909 -0.15212
 C152 C 0.24914 0.25715 -0.15744
 H153 H 0.29372 0.29510 -0.17266
 H154 H 0.23433 0.24924 -0.14678
 H155 H 0.28516 0.21779 -0.20172
 H156 H 0.26265 0.23207 -0.22363
 N157 N 0.67465 0.26608 -0.24652
 N158 N 0.68237 0.28504 -0.25931
 C159 C 0.66590 0.28866 -0.27799
 C160 C 0.64670 0.27095 -0.27690
 C161 C 0.65312 0.25692 -0.25660
 H162 H 0.66772 0.30329 -0.29116
 H163 H 0.64278 0.24147 -0.24922
 Cu164 Cu 0.71285 0.30345 -0.24963
 Cu165 Cu 0.69241 0.25518 -0.21704
 Cu166 Cu 0.74678 0.28776 -0.19966
 N167 N 0.74363 0.32135 -0.24002
 N168 N 0.75672 0.31519 -0.22037
 C169 C 0.77648 0.33091 -0.21735
 C170 C 0.77583 0.34791 -0.23614
 C171 C 0.75469 0.34120 -0.25020
 H172 H 0.79016 0.33011 -0.20242
 H173 H 0.74749 0.35050 -0.26622
 N174 N 0.73361 0.25943 -0.18117
 N175 N 0.71296 0.24702 -0.18781
 C176 C 0.70883 0.22901 -0.17148
 C177 C 0.72780 0.23005 -0.15362
 C178 C 0.74317 0.24962 -0.16045
 H179 H 0.69303 0.21622 -0.17244
 H180 H 0.76011 0.25626 -0.15108
 H181 H 0.70907 0.28921 -0.20739
 H182 H 0.72722 0.26769 -0.22716
 N183 N 0.17613 0.76589 0.25251
 N184 N 0.18454 0.78406 0.23903
 C185 C 0.16832 0.78746 0.22009
 C186 C 0.14872 0.77042 0.22173
 C187 C 0.15440 0.75704 0.24258
 H188 H 0.17054 0.80140 0.20624
 H189 H 0.14326 0.74236 0.25038
 Cu190 Cu 0.21546 0.80210 0.24784
 Cu191 Cu 0.19341 0.75564 0.28241
 Cu192 Cu 0.24721 0.78868 0.30024
 N193 N 0.24524 0.82097 0.25890
 N194 N 0.25745 0.81581 0.27938
 C195 C 0.27658 0.83222 0.28296
 C196 C 0.27644 0.84877 0.26366
 C197 C 0.25618 0.84087 0.24873
 H198 H 0.28934 0.83218 0.29872
 H199 H 0.24942 0.84920 0.23199
 N200 N 0.23391 0.76058 0.31891
 N201 N 0.21343 0.74799 0.31210
 C202 C 0.20922 0.73005 0.32848
 C203 C 0.22796 0.73132 0.34657
 C204 C 0.24328 0.75096 0.33981
 H205 H 0.19357 0.71707 0.32731
 H206 H 0.26011 0.75774 0.34931
 H207 H 0.20984 0.79019 0.29062
 H208 H 0.22866 0.76748 0.27285
 N209 N 0.47930 0.42030 0.48501
 N210 N 0.45986 0.42713 0.49747
 C211 C 0.45649 0.41153 0.51624
 C212 C 0.47481 0.39390 0.51556
 C213 C 0.48893 0.40013 0.49541
 H214 H 0.44164 0.41278 0.52925
 H215 H 0.50511 0.39080 0.48880
 Cu216 Cu 0.44077 0.45570 0.48782
 Cu217 Cu 0.49062 0.43802 0.45620
 Cu218 Cu 0.45696 0.48899 0.43872
 N219 N 0.42197 0.48434 0.47783
 N220 N 0.42850 0.49729 0.45866
 C221 C 0.41264 0.51592 0.45574
 C222 C 0.39509 0.51469 0.47405
 C223 C 0.40165 0.49432 0.48773
 H224 H 0.41368 0.52919 0.44112
 H225 H 0.39241 0.48738 0.50377
 N226 N 0.48631 0.47768 0.42089
 N227 N 0.49914 0.45833 0.42760
 C228 C 0.51794 0.45531 0.41190
 C229 C 0.51696 0.47363 0.39439
 C230 C 0.49661 0.48745 0.40073
 H231 H 0.53119 0.44065 0.41299
 H232 H 0.48986 0.50354 0.39143
 H233 H 0.47682 0.47210 0.46651
 H234 H 0.45637 0.45149 0.44595
 N235 N -0.02027 -0.08007 0.98416
 N236 N -0.03989 -0.07350 0.99647
 C237 C -0.04316 -0.08913 1.01523
 C238 C -0.02462 -0.10651 1.01467
 C239 C -0.01044 -0.10011 0.99462
 H240 H -0.05813 -0.08809 1.02814
 H241 H 0.00591 -0.10924 0.98814
 Cu242 Cu -0.05940 -0.04527 0.98670
 Cu243 Cu -0.00900 -0.06218 0.95544
 Cu244 Cu -0.04274 -0.01120 0.93823
 N245 N -0.07787 -0.01627 0.97712
 N246 N -0.07118 -0.00302 0.95822
 C247 C -0.08693 0.01576 0.95556
 C248 C -0.10456 0.01430 0.97378
 C249 C -0.09817 -0.00633 0.98712
 H250 H -0.08577 0.02926 0.94117
 H251 H -0.10751 -0.01351 1.00300
 N252 N -0.01340 -0.02238 0.92032
 N253 N -0.00053 -0.04174 0.92693
 C254 C 0.01824 -0.04467 0.91119
 C255 C 0.01720 -0.02630 0.89374
 C256 C -0.00316 -0.01253 0.90016
 H257 H 0.03150 -0.05933 0.91218
 H258 H -0.00996 0.00358 0.89092
 H259 H -0.02316 -0.02834 0.96611
 H260 H -0.04320 -0.04879 0.94499
 N261 N 1.02982 0.58895 0.97833
 N262 N 1.05072 0.58463 0.99035
 C263 C 1.05390 0.60152 1.00913
 C264 C 1.03395 0.61733 1.00875
 C265 C 1.01909 0.60868 0.98890
 H266 H 1.06955 0.60227 1.02208
 H267 H 1.00147 0.61586 0.98285
 Cu268 Cu 1.07146 0.55716 0.98020
 Cu269 Cu 1.01755 0.56853 0.95021
 Cu270 Cu 1.05313 0.51897 0.93230
 N271 N 1.09071 0.52850 0.97038
 N272 N 1.08349 0.51392 0.95151
 C273 C 1.09967 0.49551 0.94888
 C274 C 1.11812 0.49852 0.96711
 C275 C 1.11178 0.51971 0.98046
 H276 H 1.09768 0.48062 0.93511
 H277 H 1.12164 0.52799 0.99642
 N278 N 1.02179 0.52705 0.91520
 N279 N 1.00814 0.54583 0.92219
 C280 C 0.98788 0.54647 0.90714
 C281 C 0.98876 0.52717 0.88976
 C282 C 1.01058 0.51527 0.89545
 H283 H 0.97372 0.56025 0.90848
 H284 H 1.01769 0.49912 0.88600
 H285 H 1.03487 0.53646 0.96078
 H286 H 1.05184 0.55680 0.93895
 N287 N 0.52928 0.08959 0.47947
 N288 N 0.55015 0.08525 0.49152
 C289 C 0.55329 0.10209 0.51035
 C290 C 0.53333 0.11790 0.50998
 C291 C 0.51851 0.10929 0.49008
 H292 H 0.56892 0.10282 0.52333
 H293 H 0.50091 0.11649 0.48400
 Cu294 Cu 0.57093 0.05782 0.48137
 Cu295 Cu 0.51708 0.06923 0.45126
 Cu296 Cu 0.55274 0.01973 0.43336
 N297 N 0.59023 0.02919 0.47153
 N298 N 0.58306 0.01465 0.45262
 C299 C 0.59925 -0.00374 0.44998
 C300 C 0.61765 -0.00077 0.46826
 C301 C 0.61128 0.02038 0.48164
 H302 H 0.59730 -0.01860 0.43617
 H303 H 0.62110 0.02863 0.49764
 N304 N 0.52145 0.02782 0.41619
 N305 N 0.50777 0.04659 0.42316
 C306 C 0.48756 0.04723 0.40804
 C307 C 0.48851 0.02795 0.39065
 C308 C 0.51032 0.01606 0.39640
 H309 H 0.47338 0.06099 0.40936
 H310 H 0.51747 -0.00008 0.38696
 H311 H 0.53438 0.03717 0.46181
 H312 H 0.55139 0.05755 0.44008
 N313 N -0.02676 0.09214 0.52843
 N314 N -0.04650 0.08515 0.51496
 C315 C -0.04962 0.10117 0.49652
 C316 C -0.03086 0.11925 0.49844
 C317 C -0.01667 0.11287 0.51899
 H318 H -0.06407 0.09934 0.48229
 H319 H -0.00009 0.12240 0.52643
 Cu320 Cu -0.06580 0.05522 0.52172
 Cu321 Cu -0.01527 0.07333 0.55667
 Cu322 Cu -0.04808 0.01890 0.56830
 N323 N -0.08315 0.02400 0.52803
 N324 N -0.07599 0.00982 0.54612
 C325 C -0.09102 -0.01050 0.54635
 C326 C -0.10865 -0.00906 0.52735
 C327 C -0.10305 0.01316 0.51612
 H328 H -0.08948 -0.02502 0.55968
 H329 H -0.11267 0.02080 0.50038
 N330 N -0.01936 0.03104 0.58879
 N331 N -0.00669 0.05167 0.58439
 C332 C 0.01206 0.05451 0.60136
 C333 C 0.01107 0.03473 0.61725
 C334 C -0.00912 0.02028 0.60864
 H335 H 0.02544 0.06985 0.60210
 H336 H -0.01560 0.00289 0.61598
 H337 H -0.02896 0.03956 0.54262
 H338 H -0.04919 0.05705 0.56422
 N339 N 0.47408 0.59151 0.02855
 N340 N 0.45491 0.58394 0.01452
 C341 C 0.45171 0.59995 -0.00391
 C342 C 0.46986 0.61861 -0.00143
 C343 C 0.48374 0.61260 0.01945
 H344 H 0.43765 0.59778 -0.01849
 H345 H 0.49981 0.62265 0.02736
 Cu346 Cu 0.43664 0.55333 0.02098
 Cu347 Cu 0.48544 0.57297 0.05713
 Cu348 Cu 0.45251 0.51848 0.06900
 N349 N 0.41826 0.52284 0.02779
 N350 N 0.42475 0.50921 0.04656
 C351 C 0.40931 0.48923 0.04720
 C352 C 0.39210 0.49032 0.02777
 C353 C 0.39837 0.51199 0.01586
 H354 H 0.41032 0.47517 0.06106
 H355 H 0.38922 0.51923 -0.00034
 N356 N 0.48112 0.53088 0.08960
 N357 N 0.49382 0.55149 0.08511
 C358 C 0.51250 0.55443 0.10213
 C359 C 0.51144 0.53476 0.11816
 C360 C 0.49128 0.52025 0.10956
 H361 H 0.52591 0.56973 0.10280
 H362 H 0.48481 0.50288 0.11696
 H363 H 0.47274 0.53862 0.04386
 H364 H 0.45146 0.55646 0.06398
 N365 N 0.52597 -0.08471 0.02410
 N366 N 0.54523 -0.07805 0.01114
 C367 C 0.54622 -0.09311 -0.00908
 C368 C 0.52656 -0.11021 -0.00878
 C369 C 0.51410 -0.10428 0.01263
 H370 H 0.56044 -0.09196 -0.02281
 H371 H 0.49756 -0.11339 0.01933
 Cu372 Cu 0.56731 -0.05052 0.02197
 Cu373 Cu 0.51771 -0.06738 0.05471
 Cu374 Cu 0.55568 -0.01703 0.07377
 N375 N 0.58822 -0.02209 0.03269
 N376 N 0.58362 -0.00892 0.05281
 C377 C 0.60060 0.00987 0.05539
 C378 C 0.61678 0.00837 0.03584
 C379 C 0.60825 -0.01218 0.02184
 H380 H 0.60107 0.02360 0.07037
 H381 H 0.61573 -0.01908 0.00469
 N382 N 0.52652 -0.02831 0.09237
 N383 N 0.51226 -0.04759 0.08513
 C384 C 0.49381 -0.05041 0.10123
 C385 C 0.49641 -0.03202 0.11956
 C386 C 0.51740 -0.01833 0.11331
 H387 H 0.47911 -0.06442 0.09933
 H388 H 0.52535 -0.00219 0.12317
 H389 H 0.53358 -0.03336 0.04574
 H390 H 0.55332 -0.05435 0.06433
 N391 N 1.02595 0.41568 0.52338
 N392 N 1.04518 0.42235 0.51039
 C393 C 1.04616 0.40728 0.49017
 C394 C 1.02650 0.39016 0.49053
 C395 C 1.01409 0.39610 0.51195
 H396 H 1.06034 0.40843 0.47643
 H397 H 0.99756 0.38698 0.51869
 Cu398 Cu 1.06724 0.44993 0.52119
 Cu399 Cu 1.01771 0.43298 0.55401
 Cu400 Cu 1.05564 0.48335 0.57305
 N401 N 1.08812 0.47840 0.53190
 N402 N 1.08353 0.49152 0.55205
 C403 C 1.10049 0.51033 0.55465
 C404 C 1.11663 0.50891 0.53506
 C405 C 1.10811 0.48837 0.52104
 H406 H 1.10096 0.52402 0.56967
 H407 H 1.11558 0.48151 0.50386
 N408 N 1.02653 0.47202 0.59169
 N409 N 1.01228 0.45274 0.58444
 C410 C 0.99384 0.44990 0.60055
 C411 C 0.99643 0.46828 0.61889
 C412 C 1.01741 0.48198 0.61264
 H413 H 0.97915 0.43587 0.59865
 H414 H 1.02536 0.49813 0.62250
 H415 H 1.03353 0.46702 0.54504
 H416 H 1.05333 0.44603 0.56357
 C417 C 0.35794 0.02430 0.24263
 C418 C 0.34331 -0.00027 0.24453
 C419 C 0.35796 -0.02002 0.24880
 C420 C 0.38596 -0.01350 0.25079
 C421 C 0.37347 0.02697 0.26674
 C422 C 0.38813 0.00721 0.27096
 C423 C 0.37677 0.01971 0.22233
 C424 C 0.39144 -0.00005 0.22666
 H425 H 0.32318 -0.00191 0.24273
 H426 H 0.39787 -0.02965 0.25428
 H427 H 0.37356 0.04339 0.27889
 H428 H 0.37860 0.03122 0.20623
 C429 C 0.14280 -0.03151 0.74683
 C430 C 0.15804 -0.00745 0.75203
 C431 C 0.14383 0.01268 0.75648
 C432 C 0.11567 0.00701 0.75543
 C433 C 0.12617 -0.03426 0.76922
 C434 C 0.11199 -0.01413 0.77371
 C435 C 0.12509 -0.02571 0.72520
 C436 C 0.11094 -0.00551 0.72974
 H437 H 0.17819 -0.00624 0.75129
 H438 H 0.10410 0.02343 0.75915
 H439 H 0.12561 -0.05067 0.78049
 H440 H 0.12401 -0.03640 0.70784
 C441 C 0.64319 0.46890 0.24785
 C442 C 0.65832 0.49302 0.25313
 C443 C 0.64402 0.51307 0.25764
 C444 C 0.61587 0.50727 0.25655
 C445 C 0.62655 0.46599 0.27022
 C446 C 0.61227 0.48604 0.27475
 C447 C 0.62547 0.47470 0.22623
 C448 C 0.61122 0.49481 0.23082
 H449 H 0.67846 0.49434 0.25234
 H450 H 0.60423 0.52361 0.26032
 H451 H 0.62603 0.44953 0.28141
 H452 H 0.62445 0.46406 0.20884
 C453 C 0.85782 0.52426 0.74208
 C454 C 0.84324 0.49963 0.74384
 C455 C 0.85794 0.47988 0.74797
 C456 C 0.88593 0.48646 0.74999
 C457 C 0.87335 0.52681 0.76619
 C458 C 0.88806 0.50705 0.77028
 C459 C 0.87666 0.51983 0.72175
 C460 C 0.89138 0.50007 0.72596
 H461 H 0.82311 0.49796 0.74213
 H462 H 0.89788 0.47032 0.75338
 H463 H 0.87343 0.54316 0.77843
 H464 H 0.87847 0.53145 0.70572
 C465 C 0.24236 0.36118 0.02383
 C466 C 0.24430 0.34672 -0.00078
 C467 C 0.24859 0.36150 -0.02039
 C468 C 0.25054 0.38945 -0.01370
 C469 C 0.26651 0.37675 0.02656
 C470 C 0.27075 0.39154 0.00695
 C471 C 0.22196 0.37998 0.01938
 C472 C 0.22631 0.39477 -0.00024
 H473 H 0.24250 0.32661 -0.00256
 H474 H 0.25404 0.40147 -0.02972
 H475 H 0.27875 0.37670 0.04287
 H476 H 0.20575 0.38163 0.03083
 C477 C 0.74772 0.13910 -0.03083
 C478 C 0.75282 0.15424 -0.00675
 C479 C 0.75717 0.13996 0.01328
 C480 C 0.75612 0.11183 0.00750
 C481 C 0.77019 0.12250 -0.03357
 C482 C 0.77457 0.10825 -0.01355
 C483 C 0.72597 0.12137 -0.02519
 C484 C 0.73041 0.10715 -0.00509
 H485 H 0.75202 0.17437 -0.00545
 H486 H 0.75976 0.10020 0.02382
 H487 H 0.78160 0.12204 -0.04988
 H488 H 0.70856 0.12041 -0.03584
 C489 C 0.24775 0.64001 0.46916
 C490 C 0.25292 0.65504 0.49330
 C491 C 0.25719 0.64067 0.51327
 C492 C 0.25600 0.61256 0.50739
 C493 C 0.27013 0.62331 0.46636
 C494 C 0.27443 0.60896 0.48634
 C495 C 0.22591 0.62235 0.47473
 C496 C 0.23027 0.60804 0.49477
 H497 H 0.25225 0.67518 0.49466
 H498 H 0.25957 0.60085 0.52366
 H499 H 0.28156 0.62286 0.45006
 H500 H 0.20854 0.62147 0.46403
 C501 C 0.74189 0.86167 0.52454
 C502 C 0.74347 0.84715 0.49993
 C503 C 0.74759 0.86185 0.48024
 C504 C 0.74976 0.88981 0.48686
 C505 C 0.76615 0.87712 0.52696
 C506 C 0.77022 0.89184 0.50726
 C507 C 0.72155 0.88058 0.52031
 C508 C 0.72574 0.89530 0.50061
 H509 H 0.74173 0.82702 0.49824
 H510 H 0.75313 0.90178 0.47077
 H511 H 0.77855 0.87706 0.54315
 H512 H 0.70549 0.88234 0.53195
 C513 C 0.02409 0.24235 0.35954
 C514 C -0.00054 0.24399 0.34504
 C515 C -0.02034 0.24804 0.35969
 C516 C -0.01380 0.25009 0.38759
 C517 C 0.02651 0.26652 0.37507
 C518 C 0.00669 0.27053 0.38975
 C519 C 0.01976 0.22194 0.37829
 C520 C -0.00005 0.22605 0.39297
 H521 H -0.00218 0.24227 0.32496
 H522 H -0.02999 0.25340 0.39950
 H523 H 0.04281 0.27887 0.37518
 H524 H 0.03152 0.20596 0.38009
 C525 C -0.03069 0.74745 0.14115
 C526 C -0.00657 0.75257 0.15628
 C527 C 0.01358 0.75685 0.14208
 C528 C 0.00789 0.75571 0.11401
 C529 C -0.03332 0.76984 0.12452
 C530 C -0.01317 0.77414 0.11033
 C531 C -0.02501 0.72564 0.12353
 C532 C -0.00479 0.73001 0.10938
 H533 H -0.00534 0.75183 0.17637
 H534 H 0.02432 0.75929 0.10245
 H535 H -0.04970 0.78120 0.12392
 H536 H -0.03586 0.70834 0.12245
 C537 C 0.46872 0.24810 0.64236
 C538 C 0.49281 0.25330 0.65750
 C539 C 0.51298 0.25755 0.64330
 C540 C 0.50731 0.25631 0.61522
 C541 C 0.46607 0.27043 0.62565
 C542 C 0.48624 0.27471 0.61146
 C543 C 0.47444 0.22625 0.62482
 C544 C 0.49467 0.23059 0.61066
 H545 H 0.49403 0.25259 0.67758
 H546 H 0.52376 0.25987 0.60367
 H547 H 0.44968 0.28177 0.62499
 H548 H 0.46359 0.20893 0.62377
 C549 C 0.52391 0.74213 0.85988
 C550 C 0.49920 0.74380 0.84551
 C551 C 0.47950 0.74788 0.86028
 C552 C 0.48620 0.74991 0.88814
 C553 C 0.52644 0.76630 0.87540
 C554 C 0.50673 0.77033 0.89019
 C555 C 0.51967 0.72172 0.87864
 C556 C 0.49995 0.72586 0.89344
 H557 H 0.49744 0.74212 0.82544
 H558 H 0.47009 0.75324 0.90015
 H559 H 0.54276 0.77862 0.87542
 H560 H 0.53140 0.70572 0.88037
 C561 C 0.08293 0.23207 0.31391
 C562 C 0.08496 0.24688 0.29317
 C563 C 0.10472 0.24393 0.27719
 C564 C 0.12279 0.22607 0.28175
 C565 C 0.12054 0.21127 0.30272
 C566 C 0.10073 0.21427 0.31867
 C567 C 0.06254 0.23523 0.33022
 C568 C 0.04528 0.23822 0.34363
 H569 H 0.07123 0.26072 0.28931
 H570 H 0.10563 0.25559 0.26125
 H571 H 0.13405 0.19742 0.30699
 H572 H 0.09932 0.20272 0.33472
 C573 C 0.58256 0.73172 0.81401
 C574 C 0.58450 0.74645 0.79320
 C575 C 0.60420 0.74344 0.77716
 C576 C 0.62229 0.72561 0.78173
 C577 C 0.62014 0.71089 0.80277
 C578 C 0.60040 0.71395 0.81879
 C579 C 0.56222 0.73493 0.83039
 C580 C 0.54502 0.73796 0.84385
 H581 H 0.57074 0.76025 0.78934
 H582 H 0.60503 0.75501 0.76114
 H583 H 0.63371 0.69709 0.80704
 H584 H 0.59906 0.70247 0.83489
 C585 C 0.41177 0.75445 0.82593
 C586 C 0.40255 0.73431 0.81126
 C587 C 0.38162 0.73690 0.79581
 C588 C 0.36961 0.75975 0.79476
 C589 C 0.37862 0.77972 0.81011
 C590 C 0.39962 0.77708 0.82552
 C591 C 0.43483 0.75236 0.83968
 C592 C 0.45482 0.75042 0.84990
 H593 H 0.41189 0.71674 0.81133
 H594 H 0.37508 0.72105 0.78454
 H595 H 0.36999 0.79761 0.80972
 H596 H 0.40673 0.79287 0.83663
 C597 C -0.08766 0.25401 0.32443
 C598 C -0.09411 0.23558 0.30656
 C599 C -0.11487 0.23816 0.29090
 C600 C -0.12964 0.25937 0.29274
 C601 C -0.12328 0.27748 0.31141
 C602 C -0.10241 0.27484 0.32701
 C603 C -0.06484 0.25222 0.33864
 C604 C -0.04496 0.25046 0.34912
 H605 H -0.08274 0.21941 0.30432
 H606 H -0.11890 0.22353 0.27720
 H607 H -0.13394 0.29406 0.31380
 H608 H -0.09750 0.28931 0.34071
 C609 C -0.09099 0.73712 0.18528
 C610 C -0.09543 0.75516 0.20361
 C611 C -0.11585 0.75254 0.21888
 C612 C -0.13221 0.73176 0.21605
 C613 C -0.12750 0.71367 0.19754
 C614 C -0.10704 0.71636 0.18229
 C615 C -0.07001 0.74010 0.16954
 C616 C -0.05233 0.74310 0.15658
 H617 H -0.08312 0.77133 0.20608
 H618 H -0.11875 0.76691 0.23277
 H619 H -0.13951 0.69739 0.19475
 H620 H -0.10376 0.70226 0.16814
 C621 C 0.40830 0.23773 0.68634
 C622 C 0.40284 0.25642 0.70364
 C623 C 0.38228 0.25376 0.71873
 C624 C 0.36669 0.23226 0.71679
 C625 C 0.37258 0.21350 0.69928
 C626 C 0.39318 0.21626 0.68422
 C627 C 0.42936 0.24077 0.67071
 C628 C 0.44707 0.24378 0.65779
 H629 H 0.41446 0.27314 0.70544
 H630 H 0.37879 0.26873 0.73180
 H631 H 0.36140 0.19661 0.69695
 H632 H 0.39726 0.20165 0.67088
 C633 C 0.58098 0.26389 0.67829
 C634 C 0.58556 0.24698 0.69691
 C635 C 0.60736 0.24909 0.71146
 C636 C 0.62512 0.26829 0.70771
 C637 C 0.62043 0.28495 0.68847
 C638 C 0.59851 0.28278 0.67397
 C639 C 0.55770 0.26227 0.66456
 C640 C 0.53762 0.26041 0.65420
 H641 H 0.57208 0.23228 0.70043
 H642 H 0.60993 0.23564 0.72571
 H643 H 0.63336 0.29996 0.68467
 H644 H 0.59511 0.29602 0.65961
 C645 C 0.08186 0.76337 0.17652
 C646 C 0.08856 0.74429 0.19222
 C647 C 0.11047 0.74642 0.20661
 C648 C 0.12606 0.76773 0.20554
 C649 C 0.11941 0.78662 0.18931
 C650 C 0.09741 0.78447 0.17495
 C651 C 0.05840 0.76164 0.16313
 C652 C 0.03824 0.75973 0.15292
 H653 H 0.07665 0.72788 0.19360
 H654 H 0.11508 0.73137 0.21861
 H655 H 0.13084 0.80334 0.18807
 H656 H 0.09233 0.79942 0.16296
 C657 C 0.31289 0.08344 0.23148
 C658 C 0.31470 0.09766 0.21030
 C659 C 0.29906 0.11765 0.20692
 C660 C 0.28136 0.12367 0.22473
 C661 C 0.27977 0.10921 0.24599
 C662 C 0.29542 0.08924 0.24930
 C663 C 0.32887 0.06284 0.23499
 C664 C 0.34210 0.04549 0.23824
 H665 H 0.32817 0.09328 0.19638
 H666 H 0.30081 0.12819 0.19027
 H667 H 0.26657 0.11327 0.26020
 H668 H 0.29391 0.07833 0.26579
 C669 C 0.81262 0.58334 0.73118
 C670 C 0.81417 0.59739 0.70986
 C671 C 0.79843 0.61731 0.70648
 C672 C 0.78090 0.62342 0.72443
 C673 C 0.77960 0.60916 0.74584
 C674 C 0.79535 0.58927 0.74916
 C675 C 0.82866 0.56277 0.73465
 C676 C 0.84192 0.54544 0.73782
 H677 H 0.82747 0.59291 0.69581
 H678 H 0.79991 0.62768 0.68970
 H679 H 0.76655 0.61335 0.76017
 H680 H 0.79406 0.57851 0.76577
 C681 C 0.82354 0.41212 0.75468
 C682 C 0.80760 0.40354 0.73527
 C683 C 0.79247 0.38237 0.73806
 C684 C 0.79302 0.36948 0.76038
 C685 C 0.80959 0.37792 0.77957
 C686 C 0.82467 0.39915 0.77675
 C687 C 0.83720 0.43525 0.75249
 C688 C 0.84743 0.45525 0.75052
 H689 H 0.80649 0.41350 0.71813
 H690 H 0.78022 0.37631 0.72278
 H691 H 0.81047 0.36860 0.79705
 H692 H 0.83680 0.40575 0.79198
 C693 C 0.32313 -0.08762 0.25501
 C694 C 0.30473 -0.09408 0.23712
 C695 C 0.28962 -0.11528 0.23972
 C696 C 0.29255 -0.13049 0.26042
 C697 C 0.31167 -0.12404 0.27801
 C698 C 0.32673 -0.10275 0.27534
 C699 C 0.33703 -0.06459 0.25313
 C700 C 0.34737 -0.04463 0.25130
 H701 H 0.30171 -0.08243 0.22134
 H702 H 0.27551 -0.11933 0.22550
 H703 H 0.31491 -0.13502 0.29417
 H704 H 0.34088 -0.09786 0.28937
 C705 C 0.18675 -0.09185 0.73576
 C706 C 0.18254 -0.10850 0.71573
 C707 C 0.19767 -0.12902 0.71268
 C708 C 0.21736 -0.13327 0.72970
 C709 C 0.22134 -0.11619 0.74980
 C710 C 0.20617 -0.09572 0.75275
 C711 C 0.17111 -0.07083 0.73908
 C712 C 0.15821 -0.05314 0.74229
 H713 H 0.16752 -0.10567 0.70246
 H714 H 0.19370 -0.14141 0.69693
 H715 H 0.23611 -0.11840 0.76341
 H716 H 0.20959 -0.08291 0.76835
 C717 C 0.68738 0.40882 0.23638
 C718 C 0.70540 0.40357 0.25444
 C719 C 0.72064 0.38318 0.25124
 C720 C 0.71807 0.36769 0.22986
 C721 C 0.69988 0.37321 0.21176
 C722 C 0.68466 0.39362 0.21503
 C723 C 0.67168 0.42976 0.23988
 C724 C 0.65870 0.44737 0.24322
 H725 H 0.70765 0.41521 0.27106
 H726 H 0.73426 0.37959 0.26565
 H727 H 0.69736 0.36191 0.19500
 H728 H 0.67077 0.39754 0.20090
 C729 C 0.67809 0.58155 0.26489
 C730 C 0.69329 0.58901 0.24568
 C731 C 0.70734 0.61117 0.24800
 C732 C 0.70644 0.62622 0.26965
 C733 C 0.69076 0.61875 0.28872
 C734 C 0.67673 0.59652 0.28636
 C735 C 0.66492 0.55795 0.26287
 C736 C 0.65482 0.53774 0.26075
 H737 H 0.69453 0.57754 0.22899
 H738 H 0.71893 0.61639 0.23282
 H739 H 0.68967 0.62972 0.30570
 H740 H 0.66513 0.59085 0.30142
 C741 C 0.17828 0.08095 0.76407
 C742 C 0.19386 0.08828 0.74510
 C743 C 0.20806 0.11032 0.74763
 C744 C 0.20694 0.12539 0.76924
 C745 C 0.19089 0.11806 0.78806
 C746 C 0.17671 0.09595 0.78550
 C747 C 0.16497 0.05744 0.76189
 C748 C 0.15476 0.03729 0.75967
 H749 H 0.19526 0.07678 0.72845
 H750 H 0.21995 0.11544 0.73264
 H751 H 0.18962 0.12905 0.80502
 H752 H 0.16482 0.09037 0.80037
 C753 C 0.23154 0.31563 0.08248
 C754 C 0.24831 0.29671 0.08655
 C755 C 0.24523 0.28090 0.10637
 C756 C 0.22526 0.28378 0.12246
 C757 C 0.20850 0.30295 0.11816
 C758 C 0.21165 0.31874 0.09831
 C759 C 0.23485 0.33182 0.06206
 C760 C 0.23800 0.34519 0.04486
 H761 H 0.26380 0.29417 0.07438
 H762 H 0.25858 0.26650 0.10897
 H763 H 0.19289 0.30584 0.13000
 H764 H 0.19856 0.33337 0.09530
 C765 C 0.73149 0.81626 0.58338
 C766 C 0.71159 0.81928 0.59919
 C767 C 0.70848 0.80345 0.61902
 C768 C 0.72530 0.78432 0.62329
 C769 C 0.74531 0.78156 0.60724
 C770 C 0.74835 0.79741 0.58744
 C771 C 0.73469 0.83242 0.56292
 C772 C 0.73771 0.84575 0.54566
 H773 H 0.69843 0.83385 0.59619
 H774 H 0.69284 0.80625 0.63084
 H775 H 0.75872 0.76721 0.60983
 H776 H 0.76386 0.79495 0.57529
 C777 C 0.75441 0.82728 0.41275
 C778 C 0.73460 0.81193 0.40389
 C779 C 0.73733 0.79658 0.38293
 C780 C 0.76000 0.79628 0.37052
 C781 C 0.77963 0.81227 0.37921
 C782 C 0.77685 0.82760 0.40024
 C783 C 0.75222 0.84106 0.43575
 C784 C 0.75020 0.85134 0.45568
 H785 H 0.71717 0.81144 0.41351
 H786 H 0.72172 0.78480 0.37665
 H787 H 0.79738 0.81248 0.37027
 H788 H 0.79239 0.83925 0.40706
 C789 C 0.25459 0.32707 -0.08805
 C790 C 0.23535 0.31040 -0.09557
 C791 C 0.23770 0.29518 -0.11667
 C792 C 0.25942 0.29636 -0.13060
 C793 C 0.27844 0.31365 -0.12326
 C794 C 0.27606 0.32885 -0.10205
 C795 C 0.25286 0.34086 -0.06499
 C796 C 0.25108 0.35108 -0.04501
 H797 H 0.21868 0.30880 -0.08482
 H798 H 0.22253 0.28238 -0.12191
 H799 H 0.29546 0.31499 -0.13342
 H800 H 0.29117 0.34156 -0.09629
 C801 C 0.73686 0.18324 -0.09083
 C802 C 0.75284 0.20380 -0.09363
 C803 C 0.74990 0.21903 -0.11398
 C804 C 0.73089 0.21390 -0.13192
 C805 C 0.71488 0.19315 -0.12887
 C806 C 0.71786 0.17796 -0.10847
 C807 C 0.74013 0.16754 -0.06993
 C808 C 0.74329 0.15458 -0.05234
 H809 H 0.76762 0.20806 -0.08007
 H810 H 0.76254 0.23481 -0.11549
 H811 H 0.70009 0.18845 -0.14222
 H812 H 0.70540 0.16205 -0.10650
 C813 C 0.23699 0.68440 0.40930
 C814 C 0.21776 0.67938 0.39187
 C815 C 0.21476 0.69463 0.37151
 C816 C 0.23101 0.71516 0.36828
 C817 C 0.25026 0.72003 0.38603
 C818 C 0.25320 0.70476 0.40636
 C819 C 0.24027 0.66864 0.43016
 C820 C 0.24339 0.65560 0.44770
 H821 H 0.20510 0.66365 0.39396
 H822 H 0.19977 0.69013 0.35833
 H823 H 0.26309 0.73563 0.38439
 H824 H 0.26817 0.70882 0.41976
 C825 C 0.26410 0.67480 0.58156
 C826 C 0.24483 0.69011 0.58875
 C827 C 0.24714 0.70450 0.61063
 C828 C 0.26882 0.70383 0.62567
 C829 C 0.28791 0.68796 0.61854
 C830 C 0.28557 0.67360 0.59658
 C831 C 0.26221 0.66151 0.55808
 C832 C 0.26018 0.65140 0.53792
 H833 H 0.22814 0.69122 0.57724
 H834 H 0.23193 0.71621 0.61563
 H835 H 0.30492 0.68706 0.62954
 H836 H 0.30067 0.66191 0.59111
 C837 C 0.76391 0.17424 0.08151
 C838 C 0.74475 0.18973 0.08864
 C839 C 0.74711 0.20411 0.11053
 C840 C 0.76873 0.20326 0.12563
 C841 C 0.78770 0.18721 0.11856
 C842 C 0.78531 0.17286 0.09660
 C843 C 0.76201 0.16093 0.05804
 C844 C 0.76005 0.15078 0.03790
 H845 H 0.72811 0.19097 0.07707
 H846 H 0.73200 0.21597 0.11547
 H847 H 0.80466 0.18616 0.12959
 H848 H 0.80032 0.16103 0.09119
 C849 C 0.48420 0.33278 0.56445
 C850 C 0.49791 0.33404 0.54283
 C851 C 0.49503 0.35398 0.52699
 C852 C 0.47831 0.37292 0.53253
 C853 C 0.46478 0.37150 0.55444
 C854 C 0.46771 0.35159 0.57022
 C855 C 0.48633 0.31199 0.58052
 C856 C 0.48699 0.29482 0.59439
 H857 H 0.51066 0.31953 0.53811
 H858 H 0.50568 0.35429 0.51028
 H859 H 0.45193 0.38573 0.55954
 H860 H 0.45697 0.35081 0.58689
 C861 C -0.01512 0.83233 0.06346
 C862 C -0.00157 0.83352 0.04173
 C863 C -0.00446 0.85349 0.02593
 C864 C -0.02103 0.87252 0.03164
 C865 C -0.03437 0.87118 0.05366
 C866 C -0.03143 0.85125 0.06940
 C867 C -0.01302 0.81149 0.07948
 C868 C -0.01239 0.79430 0.09331
 H869 H 0.01104 0.81893 0.03689
 H870 H 0.00603 0.85375 0.00912
 H871 H -0.04708 0.88550 0.05888
 H872 H -0.04203 0.85052 0.08617
 C873 C 0.01747 0.67718 0.05958
 C874 C 0.00495 0.67478 0.03661
 C875 C 0.01062 0.65558 0.01997
 C876 C 0.02890 0.63839 0.02605
 C877 C 0.04175 0.64124 0.04902
 C878 C 0.03601 0.66048 0.06569
 C879 C 0.01045 0.69616 0.07715
 C880 C 0.00384 0.71177 0.09180
 H881 H -0.00942 0.68759 0.03167
 H882 H 0.00056 0.65426 0.00237
 H883 H 0.05584 0.62834 0.05439
 H884 H 0.04576 0.66211 0.08348
 C885 C 0.51687 0.17770 0.56089
 C886 C 0.50433 0.17531 0.53794
 C887 C 0.50997 0.15611 0.52128
 C888 C 0.52827 0.13892 0.52732
 C889 C 0.54113 0.14176 0.55029
 C890 C 0.53541 0.16099 0.56698
 C891 C 0.50989 0.19669 0.57847
 C892 C 0.50329 0.21232 0.59312
 H893 H 0.48995 0.18812 0.53302
 H894 H 0.49989 0.15480 0.50370
 H895 H 0.55522 0.12885 0.55564
 H896 H 0.54519 0.16261 0.58475
 C897 C -0.01695 0.17724 0.44696
 C898 C 0.00125 0.17160 0.46474
 C899 C -0.00340 0.15310 0.48184
 C900 C -0.02632 0.13989 0.48130
 C901 C -0.04467 0.14610 0.46365
 C902 C -0.03998 0.16461 0.44660
 C903 C -0.01157 0.19506 0.42833
 C904 C -0.00665 0.20946 0.41236
 H905 H 0.01920 0.18121 0.46511
 H906 H 0.01121 0.14882 0.49503
 H907 H -0.06264 0.13663 0.46281
 H908 H -0.05420 0.16881 0.43290
 C909 C 0.48326 0.67700 0.94744
 C910 C 0.46049 0.66389 0.94673
 C911 C 0.45594 0.64528 0.96369
 C912 C 0.47417 0.63943 0.98160
 C913 C 0.49682 0.65314 0.98252
 C914 C 0.50133 0.67175 0.96550
 C915 C 0.48858 0.69487 0.92883
 C916 C 0.49343 0.70928 0.91286
 H917 H 0.44638 0.66779 0.93282
 H918 H 0.43817 0.63542 0.96258
 H919 H 0.51133 0.64913 0.99592
 H920 H 0.51908 0.68172 0.96613
 C921 C 0.51129 0.82947 0.93891
 C922 C 0.49982 0.82969 0.96187
 C923 C 0.50442 0.84952 0.97878
 C924 C 0.52066 0.86931 0.97295
 C925 C 0.53171 0.86907 0.94961
 C926 C 0.52705 0.84928 0.93276
 C927 C 0.50811 0.80846 0.92205
 C928 C 0.50673 0.79098 0.90765
 H929 H 0.48768 0.81437 0.96687
 H930 H 0.49569 0.84900 0.99659
 H931 H 0.54403 0.88408 0.94431
 H932 H 0.53605 0.84928 0.91504
 C933 C 0.01111 0.32978 0.43833
 C934 C -0.00032 0.33004 0.46131
 C935 C 0.00432 0.34989 0.47818
 C936 C 0.02057 0.36966 0.47229
 C937 C 0.03159 0.36936 0.44895
 C938 C 0.02689 0.34956 0.43213
 C939 C 0.00793 0.30872 0.42152
 C940 C 0.00659 0.29120 0.40717
 H941 H -0.01245 0.31473 0.46635
 H942 H -0.00438 0.34940 0.49600
 H943 H 0.04392 0.38435 0.44361
 H944 H 0.03587 0.34951 0.41440
 C945 C 0.33323 0.56267 0.48417
 C946 C 0.33445 0.54051 0.49702
 C947 C 0.35465 0.52496 0.49395
 C948 C 0.37388 0.53136 0.47789
 C949 C 0.37251 0.55381 0.46525
 C950 C 0.35235 0.56930 0.46837
 C951 C 0.31214 0.57842 0.48637
 C952 C 0.29476 0.59208 0.48706
 H953 H 0.31970 0.53513 0.50923
 H954 H 0.35494 0.50780 0.50389
 H955 H 0.38698 0.55957 0.45294
 H956 H 0.35159 0.58640 0.45830
 C957 C 0.83352 0.06215 -0.01579
 C958 C 0.83469 0.03983 -0.00320
 C959 C 0.85492 0.02434 -0.00636
 C960 C 0.87423 0.03095 -0.02224
 C961 C 0.87292 0.05357 -0.03460
 C962 C 0.85273 0.06900 -0.03139
 C963 C 0.81238 0.07783 -0.01353
 C964 C 0.79496 0.09144 -0.01282
 H965 H 0.81986 0.03428 0.00884
 H966 H 0.85515 0.00705 0.00335
 H967 H 0.88745 0.05948 -0.04676
 H968 H 0.85202 0.08623 -0.04126
 C969 C 0.67710 0.05824 0.01806
 C970 C 0.67473 0.03476 0.00646
 C971 C 0.65537 0.01843 0.01253
 C972 C 0.63798 0.02536 0.03032
 C973 C 0.64078 0.04888 0.04223
 C974 C 0.66019 0.06522 0.03608
 C975 C 0.69627 0.07545 0.01065
 C976 C 0.71202 0.08983 0.00378
 H977 H 0.68770 0.02915 -0.00752
 H978 H 0.65408 0.00042 0.00319
 H979 H 0.62773 0.05492 0.05590
 H980 H 0.66178 0.08341 0.04512
 C981 C 0.17690 0.55895 0.51750
 C982 C 0.17447 0.53558 0.50567
 C983 C 0.15511 0.51920 0.51166
 C984 C 0.13780 0.52597 0.52958
 C985 C 0.14065 0.54938 0.54169
 C986 C 0.16005 0.56577 0.53563
 C987 C 0.19609 0.57621 0.51022
 C988 C 0.21186 0.59065 0.50348
 H989 H 0.18739 0.53009 0.49160
 H990 H 0.15377 0.50128 0.50214
 H991 H 0.12766 0.55531 0.55546
 H992 H 0.16169 0.58388 0.54484
 C993 C 0.17698 0.44813 -0.01808
 C994 C 0.17137 0.46652 -0.00045
 C995 C 0.15259 0.48329 -0.00541
 C996 C 0.13908 0.48179 -0.02807
 C997 C 0.14529 0.46355 -0.04587
 C998 C 0.16406 0.44685 -0.04087
 C999 C 0.19503 0.42978 -0.01231
 C1000 C 0.20959 0.41400 -0.00711
 H1001 H 0.18120 0.46762 0.01732
 H1002 H 0.14831 0.49696 0.00878
 H1003 H 0.13558 0.46199 -0.06364
 H1004 H 0.16824 0.43267 -0.05465
 C1005 C 0.67647 0.94880 0.48303
 C1006 C 0.67077 0.96707 0.50075
 C1007 C 0.65200 0.98386 0.49580
 C1008 C 0.63861 0.98250 0.47307
 C1009 C 0.64491 0.96438 0.45519
 C1010 C 0.66367 0.94765 0.46017
 C1011 C 0.69450 0.93041 0.48875
 C1012 C 0.70903 0.91458 0.49387
 H1013 H 0.68051 0.96805 0.51856
 H1014 H 0.64764 0.99744 0.51004
 H1015 H 0.63530 0.96292 0.43737
 H1016 H 0.66793 0.93357 0.44632
 C1017 C 0.83017 0.93968 0.51148
 C1018 C 0.85045 0.93254 0.52605
 C1019 C 0.87053 0.94905 0.53083
 C1020 C 0.87059 0.97303 0.52113
 C1021 C 0.85033 0.97986 0.50602
 C1022 C 0.83021 0.96329 0.50130
 C1023 C 0.80883 0.92317 0.50836
 C1024 C 0.79111 0.90904 0.50708
 H1025 H 0.85058 0.91432 0.53406
 H1026 H 0.88589 0.94299 0.54224
 H1027 H 0.84966 0.99818 0.49835
 H1028 H 0.81452 0.96905 0.49011
 C1029 C 0.33071 0.43934 0.01184
 C1030 C 0.35049 0.43245 0.02721
 C1031 C 0.37062 0.44888 0.03208
 C1032 C 0.37124 0.47252 0.02164
 C1033 C 0.35147 0.47911 0.00577
 C1034 C 0.33129 0.46262 0.00097
 C1035 C 0.30936 0.42288 0.00848
 C1036 C 0.29163 0.40876 0.00700
 H1037 H 0.35020 0.41447 0.03575
 H1038 H 0.38560 0.44300 0.04409
 H1039 H 0.35123 0.49717 -0.00249
 H1040 H 0.31599 0.46818 -0.01086
 C1041 C 0.56557 0.48358 0.33311
 C1042 C 0.57194 0.46764 0.35214
 C1043 C 0.55625 0.46455 0.37211
 C1044 C 0.53385 0.47736 0.37337
 C1045 C 0.52771 0.49354 0.35422
 C1046 C 0.54346 0.49659 0.33422
 C1047 C 0.58153 0.48583 0.31223
 C1048 C 0.59531 0.48661 0.29498
 H1049 H 0.58901 0.45745 0.35147
 H1050 H 0.56181 0.45214 0.38652
 H1051 H 0.51059 0.50360 0.35441
 H1052 H 0.53827 0.50890 0.31954
 C1053 C 0.06559 -0.01625 0.83230
 C1054 C 0.07209 -0.03210 0.85136
 C1055 C 0.05648 -0.03521 0.87138
 C1056 C 0.03403 -0.02249 0.87268
 C1057 C 0.02776 -0.00637 0.85352
 C1058 C 0.04343 -0.00331 0.83346
 C1059 C 0.08143 -0.01407 0.81133
 C1060 C 0.09512 -0.01339 0.79401
 H1061 H 0.08919 -0.04224 0.85065
 H1062 H 0.06213 -0.04757 0.88580
 H1063 H 0.01060 0.00363 0.85375
 H1064 H 0.03815 0.00894 0.81876
 C1065 C 0.06145 0.01749 0.67709
 C1066 C 0.03810 0.00556 0.67481
 C1067 C 0.02159 0.01148 0.65562
 C1068 C 0.02821 0.02943 0.63832
 C1069 C 0.05158 0.04170 0.64105
 C1070 C 0.06810 0.03570 0.66028
 C1071 C 0.07888 0.01018 0.69603
 C1072 C 0.09344 0.00335 0.71159
 H1073 H 0.03274 -0.00856 0.68771
 H1074 H 0.00369 0.00187 0.65438
 H1075 H 0.05738 0.05550 0.62806
 H1076 H 0.08619 0.04500 0.66181
 C1077 C 0.56174 0.51773 0.17814
 C1078 C 0.56844 0.53583 0.16123
 C1079 C 0.55194 0.54177 0.14196
 C1080 C 0.52855 0.52956 0.13929
 C1081 C 0.52186 0.51173 0.15669
 C1082 C 0.53835 0.50587 0.17592
 C1083 C 0.57915 0.51045 0.19711
 C1084 C 0.59371 0.50365 0.21268
 H1085 H 0.58656 0.54507 0.16271
 H1086 H 0.55779 0.55548 0.12889
 H1087 H 0.50394 0.50217 0.15550
 H1088 H 0.53294 0.49183 0.18889
 C1089 C 0.44538 -0.01765 0.17790
 C1090 C 0.46346 0.00032 0.17224
 C1091 C 0.48044 -0.00450 0.15364
 C1092 C 0.47947 -0.02735 0.14035
 C1093 C 0.46154 -0.04548 0.14661
 C1094 C 0.44461 -0.04063 0.16521
 C1095 C 0.42680 -0.01204 0.19575
 C1096 C 0.41084 -0.00692 0.21014
 H1097 H 0.46414 0.01823 0.18189
 H1098 H 0.49385 0.00995 0.14931
 H1099 H 0.46039 -0.06340 0.13707
 H1100 H 0.43068 -0.05467 0.16942
 C1101 C 0.94532 0.48263 0.67715
 C1102 C 0.96336 0.50063 0.67148
 C1103 C 0.98037 0.49582 0.65290
 C1104 C 0.97947 0.47294 0.63966
 C1105 C 0.96158 0.45478 0.64593
 C1106 C 0.94463 0.45963 0.66451
 C1107 C 0.92673 0.48823 0.69499
 C1108 C 0.91077 0.49331 0.70939
 H1109 H 0.96399 0.51856 0.68109
 H1110 H 0.99375 0.51029 0.64856
 H1111 H 0.96048 0.43684 0.63644
 H1112 H 0.93073 0.44557 0.66874
 C1113 C 0.93668 0.51157 0.82940
 C1114 C 0.96009 0.50088 0.82931
 C1115 C 0.97694 0.50557 0.84914
 C1116 C 0.97059 0.52113 0.86925
 C1117 C 0.94682 0.53137 0.86931
 C1118 C 0.93003 0.52662 0.84952
 C1119 C 0.91987 0.50839 0.80838
 C1120 C 0.90550 0.50703 0.79091
 H1121 H 0.96547 0.48930 0.81374
 H1122 H 0.99509 0.49748 0.84838
 H1123 H 0.94112 0.54313 0.88457
 H1124 H 0.91197 0.53502 0.84976
 C1125 C 0.43663 0.01211 0.33016
 C1126 C 0.42993 0.02731 0.35017
 C1127 C 0.44666 0.03215 0.36999
 C1128 C 0.47041 0.02187 0.37008
 C1129 C 0.47681 0.00620 0.35008
 C1130 C 0.46002 0.00141 0.33022
 C1131 C 0.41987 0.00878 0.30912
 C1132 C 0.40554 0.00729 0.29162
 H1133 H 0.41188 0.03574 0.35028
 H1134 H 0.44092 0.04401 0.38516
 H1135 H 0.49495 -0.00193 0.34943
 H1136 H 0.46545 -0.01027 0.31474
   
