data_POSCAR
  _audit_creation_date              2014-09-24
  _audit_creation_method            'ToBaCCo'
  _symmetry_space_group_name_H-M    'P1'
  _symmetry_Int_Tables_number       1
  _symmetry_cell_setting            triclinic
  loop_
  _symmetry_equiv_pos_as_xyz
 x,y,z
_cell_length_a 35.1703
_cell_length_b 36.8783
_cell_length_c 35.1711
_cell_angle_alpha 89.999900
_cell_angle_beta 90.000400
_cell_angle_gamma 90.000000
loop_
  _atom_site_label
  _atom_site_type_symbol
  _atom_site_fract_x
  _atom_site_fract_y
  _atom_site_fract_z
C1 C 0.25002 0.24992 0.24999
 C2 C 0.75002 0.74999 0.24999
 C3 C 0.75002 0.25005 0.74999
 C4 C 0.25002 0.74999 0.74998
 C5 C 0.05342 0.05449 0.01339
 H6 H 0.05420 0.05606 -0.01732
 C7 C 0.07580 0.07790 0.03515
 H8 H 0.09403 0.09750 0.02123
 C9 C 0.02841 0.02733 0.06919
 H10 H 0.00951 0.00801 0.08238
 C11 C 0.05031 0.05024 0.09200
 H12 H 0.04851 0.04821 0.12268
 N13 N 0.03070 0.02953 0.03061
 C14 C 0.01511 -0.05617 -0.05357
 H15 H -0.01560 -0.05770 -0.05431
 C16 C 0.03681 -0.07955 -0.07606
 H17 H 0.02282 -0.09909 -0.09433
 C18 C 0.07099 -0.02913 -0.02861
 H19 H 0.08425 -0.00985 -0.00969
 C20 C 0.09373 -0.05201 -0.05062
 H21 H 0.12442 -0.05001 -0.04888
 Zn22 Zn 0.00091 -0.00086 -0.00098
 N23 N 0.03241 -0.03128 -0.03083
 C24 C -0.02679 0.02753 -0.07101
 N25 N -0.02887 0.02967 -0.03241
 C26 C -0.05147 0.05463 -0.01503
 C27 C -0.07397 0.07807 -0.03662
 C28 C -0.04883 0.05048 -0.09366
 C29 C -0.01343 -0.05627 0.05147
 C30 C -0.03518 -0.07957 0.07399
 C31 C -0.09204 -0.05183 0.04863
 C32 C -0.06924 -0.02903 0.02659
 N33 N -0.03066 -0.03130 0.02877
 H34 H -0.00800 0.00820 -0.08434
 H35 H -0.05210 0.05614 0.01569
 H36 H -0.09213 0.09765 -0.02256
 H37 H -0.04721 0.04849 -0.12435
 H38 H 0.01728 -0.05789 0.05218
 H39 H -0.02125 -0.09915 0.09225
 H40 H -0.12272 -0.04971 0.04694
 H41 H -0.08245 -0.00969 0.00771
 C42 C 0.07647 -0.07733 -0.07466
 C43 C 0.07431 0.07564 0.07481
 C44 C -0.07484 -0.07719 0.07265
 C45 C -0.07273 0.07585 -0.07629
 C46 C 0.05358 0.55615 0.51508
 H47 H 0.05432 0.55767 0.48437
 C48 C 0.07607 0.57952 0.53677
 H49 H 0.09434 0.59906 0.52279
 C50 C 0.02861 0.52910 0.57095
 H51 H 0.00970 0.50983 0.58421
 C52 C 0.05063 0.55198 0.59370
 H53 H 0.04889 0.54998 0.62438
 N54 N 0.03083 0.53125 0.53237
 C55 C 0.01504 0.44534 0.44849
 H56 H -0.01568 0.44383 0.44787
 C57 C 0.03663 0.42190 0.42599
 H58 H 0.02257 0.40232 0.40783
 C59 C 0.07102 0.47244 0.47317
 H60 H 0.08435 0.49178 0.49196
 C61 C 0.09367 0.44949 0.45113
 H62 H 0.12436 0.45149 0.45274
 Zn63 Zn 0.00099 0.50083 0.50087
 N64 N 0.03242 0.47030 0.47109
 C65 C -0.02658 0.52900 0.43073
 N66 N -0.02876 0.53127 0.46931
 C67 C -0.05147 0.55625 0.48653
 C68 C -0.07399 0.57954 0.46478
 C69 C -0.04862 0.55180 0.40793
 C70 C -0.01338 0.44548 0.55338
 C71 C -0.03514 0.42207 0.57576
 C72 C -0.09199 0.44973 0.55028
 C73 C -0.06918 0.47264 0.52837
 N74 N -0.03060 0.47045 0.53066
 H75 H -0.00770 0.50967 0.41752
 H76 H -0.05218 0.55786 0.51724
 H77 H -0.09224 0.59912 0.47871
 H78 H -0.04693 0.54968 0.37725
 H79 H 0.01733 0.44391 0.55416
 H80 H -0.02122 0.40247 0.59399
 H81 H -0.12267 0.45176 0.54847
 H82 H -0.08238 0.49197 0.50947
 C83 C 0.07630 0.42412 0.42723
 C84 C 0.07467 0.57730 0.57643
 C85 C -0.07480 0.42434 0.57427
 C86 C -0.07265 0.57717 0.42513
 C87 C 0.55152 0.05463 0.51500
 H88 H 0.55215 0.05614 0.48429
 C89 C 0.57403 0.07807 0.53660
 H90 H 0.59218 0.09765 0.52254
 C91 C 0.52685 0.02753 0.57098
 H92 H 0.50805 0.00820 0.58431
 C93 C 0.54888 0.05048 0.59363
 H94 H 0.54727 0.04848 0.62432
 N95 N 0.52893 0.02967 0.53239
 C96 C 0.51348 -0.05627 0.44850
 H97 H 0.48277 -0.05789 0.44779
 C98 C 0.53523 -0.07957 0.42598
 H99 H 0.52130 -0.09915 0.40772
 C100 C 0.56928 -0.02903 0.47339
 H101 H 0.58249 -0.00969 0.49227
 C102 C 0.59209 -0.05183 0.45134
 H103 H 0.62276 -0.04971 0.45303
 Zn104 Zn 0.49914 -0.00085 0.50095
 N105 N 0.53071 -0.03130 0.47120
 C106 C 0.47164 0.02734 0.43079
 N107 N 0.46935 0.02953 0.46937
 C108 C 0.44664 0.05450 0.48659
 C109 C 0.42425 0.07790 0.46482
 C110 C 0.44974 0.05025 0.40798
 C111 C 0.48493 -0.05617 0.55354
 C112 C 0.46324 -0.07955 0.57604
 C113 C 0.40631 -0.05201 0.55059
 C114 C 0.42906 -0.02913 0.52858
 N115 N 0.46764 -0.03127 0.53080
 H116 H 0.49054 0.00801 0.41759
 H117 H 0.44585 0.05606 0.51729
 H118 H 0.40602 0.09751 0.47875
 H119 H 0.45154 0.04822 0.37730
 H120 H 0.51564 -0.05770 0.55428
 H121 H 0.47722 -0.09909 0.59430
 H122 H 0.37563 -0.05000 0.54885
 H123 H 0.41580 -0.00985 0.50967
 C124 C 0.57488 -0.07719 0.42732
 C125 C 0.57278 0.07585 0.57626
 C126 C 0.42358 -0.07732 0.57463
 C127 C 0.42574 0.07564 0.42517
 C128 C 0.55151 0.55624 0.01344
 H129 H 0.55222 0.55786 -0.01727
 C130 C 0.57403 0.57954 0.03519
 H131 H 0.59228 0.59912 0.02126
 C132 C 0.52662 0.52900 0.06925
 H133 H 0.50774 0.50967 0.08245
 C134 C 0.54866 0.55180 0.09205
 H135 H 0.54697 0.54968 0.12272
 N136 N 0.52880 0.53127 0.03067
 C137 C 0.51342 0.44548 -0.05340
 H138 H 0.48271 0.44391 -0.05419
 C139 C 0.53518 0.42207 -0.07579
 H140 H 0.52126 0.40247 -0.09402
 C141 C 0.56922 0.47264 -0.02840
 H142 H 0.58242 0.49197 -0.00950
 C143 C 0.59203 0.44973 -0.05030
 H144 H 0.62271 0.45176 -0.04850
 Zn145 Zn 0.49905 0.50083 -0.00090
 N146 N 0.53064 0.47045 -0.03069
 C147 C 0.47143 0.52910 -0.07098
 N148 N 0.46921 0.53125 -0.03240
 C149 C 0.44646 0.55615 -0.01511
 C150 C 0.42397 0.57952 -0.03680
 C151 C 0.44941 0.55198 -0.09372
 C152 C 0.48500 0.44534 0.05148
 C153 C 0.46341 0.42190 0.07398
 C154 C 0.40637 0.44949 0.04884
 C155 C 0.42902 0.47244 0.02681
 N156 N 0.46762 0.47030 0.02888
 H157 H 0.49034 0.50983 -0.08423
 H158 H 0.44573 0.55767 0.01560
 H159 H 0.40571 0.59906 -0.02282
 H160 H 0.45116 0.54998 -0.12441
 H161 H 0.51572 0.44383 0.05211
 H162 H 0.47747 0.40232 0.09214
 H163 H 0.37568 0.45149 0.04723
 H164 H 0.41569 0.49178 0.00801
 C165 C 0.57484 0.42433 -0.07430
 C166 C 0.57269 0.57716 0.07484
 C167 C 0.42374 0.42412 0.07274
 C168 C 0.42538 0.57730 -0.07646
 C169 C 0.18408 -0.18570 -0.18341
 C170 C 0.19051 -0.19118 -0.14062
 C171 C 0.16854 -0.16930 -0.11842
 C172 C 0.14231 -0.14409 -0.14119
 C173 C 0.11926 -0.16936 -0.16712
 C174 C 0.14123 -0.19124 -0.18932
 C175 C 0.19080 -0.14509 -0.19026
 C176 C 0.16884 -0.12322 -0.16807
 C177 C 0.20776 -0.20914 -0.20733
 C178 C 0.22736 -0.22824 -0.22713
 C179 C 0.11871 -0.12047 -0.11734
 C180 C 0.09940 -0.10088 -0.09784
 H181 H 0.21054 -0.21054 -0.12881
 H182 H 0.16975 -0.16992 -0.08758
 H183 H 0.08841 -0.17002 -0.16796
 H184 H 0.12921 -0.21065 -0.20918
 H185 H 0.21103 -0.13446 -0.21074
 H186 H 0.17026 -0.09385 -0.16954
 C187 C 0.18317 0.31551 0.31804
 C188 C 0.18967 0.35610 0.31087
 C189 C 0.16787 0.37802 0.33317
 C190 C 0.14171 0.35722 0.36045
 C191 C 0.16828 0.33222 0.38309
 C192 C 0.19008 0.31029 0.36078
 C193 C 0.14028 0.30980 0.31262
 C194 C 0.11848 0.33173 0.33493
 C195 C 0.20668 0.29202 0.29400
 C196 C 0.22617 0.27290 0.27416
 C197 C 0.11829 0.38090 0.38441
 C198 C 0.09911 0.40052 0.40400
 H199 H 0.20963 0.36669 0.29010
 H200 H 0.16917 0.40739 0.33151
 H201 H 0.16983 0.33178 0.41391
 H202 H 0.21031 0.29105 0.37249
 H203 H 0.12811 0.29025 0.29301
 H204 H 0.08762 0.33097 0.33443
 C205 C 0.68281 -0.18476 0.31804
 C206 C 0.68932 -0.19036 0.36079
 C207 C 0.66729 -0.16865 0.38310
 C208 C 0.64091 -0.14347 0.36047
 C209 C 0.61794 -0.16875 0.33448
 C210 C 0.63998 -0.19046 0.31216
 C211 C 0.68934 -0.14411 0.31133
 C212 C 0.66731 -0.12240 0.33363
 C213 C 0.70655 -0.20804 0.29400
 C214 C 0.72614 -0.22706 0.27416
 C215 C 0.61724 -0.12003 0.38444
 C216 C 0.59787 -0.10060 0.40404
 H217 H 0.70946 -0.20968 0.37250
 H218 H 0.66855 -0.16937 0.41394
 H219 H 0.58709 -0.16953 0.33367
 H220 H 0.62801 -0.20984 0.29224
 H221 H 0.70949 -0.13332 0.29086
 H222 H 0.66859 -0.09302 0.33228
 C223 C 0.68281 0.31566 -0.18234
 C224 C 0.68916 0.31036 -0.13952
 C225 C 0.66712 0.33230 -0.11746
 C226 C 0.64090 0.35739 -0.14039
 C227 C 0.61793 0.33198 -0.16625
 C228 C 0.63997 0.31004 -0.18831
 C229 C 0.68948 0.35625 -0.18936
 C230 C 0.66745 0.37818 -0.16731
 C231 C 0.70655 0.29216 -0.20614
 C232 C 0.72614 0.27303 -0.22586
 C233 C 0.61722 0.38108 -0.11670
 C234 C 0.59785 0.40072 -0.09733
 H235 H 0.70920 0.29107 -0.12759
 H236 H 0.66828 0.33181 -0.08662
 H237 H 0.58709 0.33128 -0.16714
 H238 H 0.62801 0.29054 -0.20811
 H239 H 0.70973 0.36682 -0.20985
 H240 H 0.66883 0.40755 -0.16891
 C241 C -0.18193 0.18446 -0.18316
 C242 C -0.18787 0.18968 -0.14027
 C243 C -0.16556 0.16775 -0.11847
 C244 C -0.13951 0.14276 -0.14170
 C245 C -0.11686 0.16825 -0.16774
 C246 C -0.13917 0.19018 -0.18954
 C247 C -0.18858 0.14388 -0.19019
 C248 C -0.16628 0.12195 -0.16839
 C249 C -0.20596 0.20796 -0.20667
 C250 C -0.22580 0.22708 -0.22615
 C251 C -0.11555 0.11908 -0.11828
 C252 C -0.09597 0.09946 -0.09910
 H253 H -0.20783 0.20892 -0.12810
 H254 H -0.16641 0.16819 -0.08761
 H255 H -0.08602 0.16902 -0.16894
 H256 H -0.12745 0.20974 -0.20942
 H257 H -0.20901 0.13329 -0.21050
 H258 H -0.16760 0.09258 -0.17003
 C259 C -0.18193 0.68474 0.31720
 C260 C -0.18800 0.69025 0.36003
 C261 C -0.16569 0.66854 0.38207
 C262 C -0.13950 0.64345 0.35910
 C263 C -0.11686 0.66881 0.33292
 C264 C -0.13917 0.69053 0.31088
 C265 C -0.18844 0.64409 0.31047
 C266 C -0.16614 0.62238 0.33250
 C267 C -0.20596 0.70802 0.29346
 C268 C -0.22580 0.72704 0.27386
 C269 C -0.11553 0.62001 0.38277
 C270 C -0.09592 0.60057 0.40214
 H271 H -0.20805 0.70951 0.37199
 H272 H -0.16662 0.66920 0.41291
 H273 H -0.08602 0.66965 0.33179
 H274 H -0.12745 0.70997 0.29088
 H275 H -0.20878 0.63330 0.29019
 H276 H -0.16737 0.59299 0.33109
 C277 C 0.31769 0.18432 0.31721
 C278 C 0.31151 0.18974 0.36004
 C279 C 0.33358 0.16780 0.38207
 C280 C 0.35964 0.14259 0.35911
 C281 C 0.38258 0.16787 0.33310
 C282 C 0.36052 0.18982 0.31106
 C283 C 0.31088 0.14373 0.31032
 C284 C 0.33293 0.12180 0.33235
 C285 C 0.29390 0.20782 0.29347
 C286 C 0.27417 0.22695 0.27387
 C287 C 0.38333 0.11890 0.38279
 C288 C 0.40271 0.09926 0.40216
 H289 H 0.29158 0.20911 0.37200
 H290 H 0.33254 0.16837 0.41292
 H291 H 0.41342 0.16849 0.33208
 H292 H 0.37246 0.20923 0.29116
 H293 H 0.29052 0.13316 0.28993
 H294 H 0.33147 0.09243 0.33084
 C295 C 0.31663 0.68567 -0.18408
 C296 C 0.31058 0.69109 -0.14123
 C297 C 0.33277 0.66921 -0.11926
 C298 C 0.35885 0.64407 -0.14230
 C299 C 0.38162 0.66941 -0.16839
 C300 C 0.35942 0.69129 -0.19036
 C301 C 0.30992 0.64507 -0.19093
 C302 C 0.33211 0.62320 -0.16897
 C303 C 0.29271 0.70912 -0.20775
 C304 C 0.27291 0.72822 -0.22736
 C305 C 0.38269 0.62044 -0.11870
 C306 C 0.40220 0.60086 -0.09939
 H307 H 0.29062 0.71041 -0.12921
 H308 H 0.33184 0.66978 -0.08841
 H309 H 0.41246 0.67011 -0.16951
 H310 H 0.37124 0.71074 -0.21030
 H311 H 0.28953 0.63444 -0.21125
 H312 H 0.33073 0.59383 -0.17048
 C313 C -0.18277 -0.18476 0.18193
 C314 C -0.18903 -0.19060 0.13918
 C315 C -0.16700 -0.16889 0.11686
 C316 C -0.14087 -0.14348 0.13950
 C317 C -0.11790 -0.16852 0.16574
 C318 C -0.13993 -0.19023 0.18805
 C319 C -0.18954 -0.14411 0.18840
 C320 C -0.16751 -0.12241 0.16609
 C321 C -0.20650 -0.20804 0.20597
 C322 C -0.22610 -0.22706 0.22581
 C323 C -0.11719 -0.12004 0.11553
 C324 C -0.09783 -0.10060 0.09593
 H325 H -0.20901 -0.21007 0.12746
 H326 H -0.16809 -0.16975 0.08603
 H327 H -0.08705 -0.16915 0.16670
 H328 H -0.12797 -0.20946 0.20813
 H329 H -0.20985 -0.13332 0.20871
 H330 H -0.16895 -0.09302 0.16729
 C331 C -0.18276 0.31566 0.68232
 C332 C -0.18885 0.31011 0.63950
 C333 C -0.16681 0.33205 0.61744
 C334 C -0.14085 0.35739 0.64037
 C335 C -0.11789 0.33224 0.66650
 C336 C -0.13993 0.31030 0.68856
 C337 C -0.18970 0.35625 0.68908
 C338 C -0.16767 0.37818 0.66702
 C339 C -0.20650 0.29216 0.70612
 C340 C -0.22610 0.27303 0.72584
 C341 C -0.11718 0.38108 0.61668
 C342 C -0.09781 0.40072 0.59730
 H343 H -0.20871 0.29066 0.62756
 H344 H -0.16779 0.33140 0.58659
 H345 H -0.08705 0.33170 0.66757
 H346 H -0.12797 0.29096 0.70853
 H347 H -0.21013 0.36683 0.70939
 H348 H -0.16923 0.40755 0.66845
 C349 C 0.31596 -0.18570 0.68337
 C350 C 0.30972 -0.19135 0.64059
 C351 C 0.33169 -0.16947 0.61839
 C352 C 0.35774 -0.14409 0.64116
 C353 C 0.38078 -0.16919 0.66727
 C354 C 0.35881 -0.19107 0.68947
 C355 C 0.30906 -0.14509 0.69005
 C356 C 0.33103 -0.12322 0.66785
 C357 C 0.29228 -0.20914 0.70730
 C358 C 0.27268 -0.22824 0.72710
 C359 C 0.38134 -0.12046 0.61731
 C360 C 0.40065 -0.10088 0.59781
 H361 H 0.28981 -0.21082 0.62877
 H362 H 0.33060 -0.17020 0.58755
 H363 H 0.41163 -0.16974 0.66824
 H364 H 0.37083 -0.21036 0.70945
 H365 H 0.28872 -0.13446 0.71041
 H366 H 0.32949 -0.09385 0.66921
 C367 C 0.31687 0.31552 0.18194
 C368 C 0.31067 0.30963 0.13918
 C369 C 0.33247 0.33156 0.11687
 C370 C 0.35833 0.35722 0.13952
 C371 C 0.38156 0.33240 0.16575
 C372 C 0.35976 0.31047 0.18806
 C373 C 0.30966 0.35610 0.18841
 C374 C 0.33146 0.37802 0.16611
 C375 C 0.29336 0.29202 0.20597
 C376 C 0.27388 0.27290 0.22581
 C377 C 0.38175 0.38090 0.11556
 C378 C 0.40093 0.40052 0.09598
 H379 H 0.29091 0.28996 0.12746
 H380 H 0.33139 0.33068 0.08603
 H381 H 0.41241 0.33207 0.16672
 H382 H 0.37193 0.29135 0.20814
 H383 H 0.28924 0.36669 0.20872
 H384 H 0.32970 0.40739 0.16732
 C385 C 0.18236 0.18431 0.18277
 C386 C 0.13954 0.18956 0.18918
 C387 C 0.11747 0.16762 0.16715
 C388 C 0.14041 0.14259 0.14087
 C389 C 0.16738 0.12179 0.16737
 C390 C 0.18943 0.14373 0.18939
 C391 C 0.18827 0.18998 0.13994
 C392 C 0.16621 0.16804 0.11790
 C393 C 0.20615 0.20782 0.20651
 C394 C 0.22587 0.22695 0.22611
 C395 C 0.11672 0.11889 0.11719
 C396 C 0.09734 0.09925 0.09782
 H397 H 0.12760 0.20882 0.20925
 H398 H 0.08663 0.16808 0.16833
 H399 H 0.16901 0.09242 0.16871
 H400 H 0.20996 0.13315 0.20961
 H401 H 0.20803 0.20951 0.12798
 H402 H 0.16707 0.16877 0.08705
 C403 C 0.18341 0.68567 0.68404
 C404 C 0.14063 0.69123 0.69039
 C405 C 0.11843 0.66935 0.66842
 C406 C 0.14120 0.64407 0.64227
 C407 C 0.16800 0.62320 0.66888
 C408 C 0.19019 0.64507 0.69084
 C409 C 0.18941 0.69115 0.64120
 C410 C 0.16721 0.66927 0.61923
 C411 C 0.20733 0.70912 0.70772
 C412 C 0.22714 0.72822 0.72733
 C413 C 0.11735 0.62044 0.61867
 C414 C 0.09784 0.60086 0.59936
 H415 H 0.12881 0.71064 0.71037
 H416 H 0.08759 0.67001 0.66958
 H417 H 0.16942 0.59382 0.67034
 H418 H 0.21062 0.63444 0.71112
 H419 H 0.20932 0.71051 0.62918
 H420 H 0.16810 0.66988 0.58838
 C421 C 0.68198 0.18446 0.68314
 C422 C 0.63922 0.18992 0.68980
 C423 C 0.61692 0.16799 0.66800
 C424 C 0.63956 0.14276 0.64168
 C425 C 0.66660 0.12195 0.66809
 C426 C 0.68890 0.14387 0.68989
 C427 C 0.68764 0.18994 0.64025
 C428 C 0.66533 0.16801 0.61844
 C429 C 0.70601 0.20796 0.70665
 C430 C 0.72585 0.22708 0.72613
 C431 C 0.61560 0.11908 0.61826
 C432 C 0.59602 0.09945 0.59908
 H433 H 0.62751 0.20931 0.70986
 H434 H 0.58608 0.16858 0.66938
 H435 H 0.66811 0.09258 0.66955
 H436 H 0.70951 0.13329 0.71002
 H437 H 0.70742 0.20934 0.62808
 H438 H 0.66600 0.16862 0.58759
 C439 C 0.68197 0.68474 0.18278
 C440 C 0.63921 0.69044 0.18917
 C441 C 0.61690 0.66873 0.16714
 C442 C 0.63954 0.64345 0.14087
 C443 C 0.66626 0.62238 0.16739
 C444 C 0.68857 0.64408 0.18941
 C445 C 0.68796 0.69033 0.13994
 C446 C 0.66564 0.66862 0.11791
 C447 C 0.70600 0.70802 0.20651
 C448 C 0.72584 0.72704 0.22611
 C449 C 0.61557 0.62001 0.11720
 C450 C 0.59597 0.60057 0.09784
 H451 H 0.62750 0.70983 0.20923
 H452 H 0.58606 0.66952 0.16832
 H453 H 0.66755 0.59299 0.16874
 H454 H 0.70896 0.63330 0.20964
 H455 H 0.70795 0.70964 0.12798
 H456 H 0.66652 0.66933 0.08706
   
