data_POSCAR
  _audit_creation_date              2014-09-24
  _audit_creation_method            'ToBaCCo'
  _symmetry_space_group_name_H-M    'P1'
  _symmetry_Int_Tables_number       1
  _symmetry_cell_setting            triclinic
  loop_
  _symmetry_equiv_pos_as_xyz
 x,y,z
_cell_length_a 40.5325
_cell_length_b 40.5337
_cell_length_c 40.5875
_cell_angle_alpha 93.180700
_cell_angle_beta 90.528200
_cell_angle_gamma 88.180900
loop_
  _atom_site_label
  _atom_site_type_symbol
  _atom_site_fract_x
  _atom_site_fract_y
  _atom_site_fract_z
C1 C 0.56492 0.41311 -0.00648
 C2 C 0.58813 0.43694 -0.00532
 C3 C 0.57114 0.46728 -0.00278
 N4 N 0.53826 0.46255 -0.00329
 C5 C 0.53441 0.42949 -0.00554
 C6 C 0.58593 0.49862 -0.00021
 C7 C 0.56721 0.52888 -0.00033
 C8 C 0.57882 0.55912 0.01170
 C9 C 0.55427 0.58239 0.00683
 C10 C 0.52818 0.56592 -0.00818
 N11 N 0.53603 0.53317 -0.01210
 C12 C 0.49819 0.58131 -0.01839
 C13 C 0.46924 0.56306 -0.02294
 C14 C 0.44213 0.57247 -0.04163
 C15 C 0.41888 0.54918 -0.03797
 C16 C 0.43212 0.52696 -0.01632
 N17 N 0.46344 0.53479 -0.00811
 C18 C 0.41613 0.49895 -0.00579
 C19 C 0.43341 0.46801 -0.00946
 C20 C 0.41979 0.43890 -0.02192
 C21 C 0.44449 0.41499 -0.02233
 C22 C 0.47295 0.43029 -0.01130
 N23 N 0.46612 0.46277 -0.00387
 C24 C 0.50392 0.41363 -0.00841
 H25 H 0.57001 0.38671 -0.00879
 H26 H 0.61449 0.43220 -0.00680
 H27 H 0.48201 0.47981 0.00717
 H28 H 0.60246 0.56390 0.02333
 H29 H 0.55538 0.60843 0.01405
 H30 H 0.43975 0.59350 -0.05688
 H31 H 0.39534 0.54813 -0.05074
 H32 H 0.44199 0.38941 -0.03088
 H33 H 0.52188 0.51550 -0.02477
 H34 H 0.39490 0.43540 -0.03102
 C35 C 0.02190 0.56193 0.59687
 C36 C 0.02252 0.58528 0.57372
 C37 C 0.00952 0.57094 0.54477
 N38 N 0.00178 0.53930 0.54936
 C39 C 0.00946 0.53376 0.58114
 C40 C 0.00403 0.58710 0.51494
 C41 C -0.00315 0.56897 0.48486
 C42 C -0.01839 0.58217 0.45752
 C43 C -0.01859 0.55753 0.43294
 C44 C -0.00420 0.52969 0.44606
 N45 N 0.00503 0.53672 0.47777
 C46 C 0.00160 0.49932 0.42803
 C47 C 0.00662 0.46910 0.44313
 C48 C 0.01452 0.43907 0.42666
 C49 C 0.01432 0.41567 0.44983
 C50 C 0.00649 0.43229 0.47965
 N51 N 0.00158 0.46489 0.47543
 C52 C 0.00161 0.41708 0.50957
 C53 C -0.00345 0.43485 0.54015
 C54 C -0.01367 0.42110 0.56874
 C55 C -0.01331 0.44581 0.59337
 C56 C -0.00287 0.47398 0.57916
 N57 N 0.00325 0.46703 0.54679
 C58 C 0.00360 0.50422 0.59666
 H59 H 0.03004 0.56523 0.62228
 H60 H 0.03171 0.60995 0.57784
 H61 H 0.01505 0.48229 0.53122
 H62 H -0.02831 0.60707 0.45539
 H63 H -0.02840 0.55979 0.40824
 H64 H 0.01935 0.43443 0.40061
 H65 H 0.01897 0.38940 0.44515
 H66 H -0.01935 0.44309 0.61897
 H67 H 0.01946 0.52153 0.49237
 H68 H -0.02015 0.39575 0.57172
 C69 C 0.41509 0.00975 0.55222
 C70 C 0.43923 0.00945 0.57601
 C71 C 0.46846 -0.00052 0.56026
 N72 N 0.46295 -0.00583 0.52751
 C73 C 0.43036 0.00056 0.52261
 C74 C 0.49941 -0.00509 0.57625
 C75 C 0.52951 -0.00928 0.55857
 C76 C 0.55885 -0.02158 0.57160
 C77 C 0.58243 -0.01988 0.54783
 C78 C 0.56689 -0.00739 0.52029
 N79 N 0.53458 -0.00082 0.52722
 C80 C 0.58319 0.00061 0.49100
 C81 C 0.56602 0.00713 0.46132
 C82 C 0.58059 0.01576 0.43228
 C83 C 0.55622 0.01587 0.40864
 C84 C 0.52757 0.00709 0.42379
 N85 N 0.53365 0.00157 0.45586
 C86 C 0.49717 0.00192 0.40731
 C87 C 0.46750 -0.00439 0.42354
 C88 C 0.43892 -0.01503 0.40776
 C89 C 0.41532 -0.01656 0.43171
 C90 C 0.43017 -0.00691 0.46144
 N91 N 0.46188 0.00068 0.45624
 C92 C 0.41378 -0.00324 0.49200
 H93 H 0.38928 0.01633 0.55620
 H94 H 0.43563 0.01616 0.60193
 H95 H 0.47750 0.01214 0.47342
 H96 H 0.56305 -0.03056 0.59595
 H97 H 0.60820 -0.02663 0.55110
 H98 H 0.60629 0.02043 0.42808
 H99 H 0.55944 0.02106 0.38301
 H100 H 0.39003 -0.02369 0.42765
 H101 H 0.51792 0.01238 0.51300
 H102 H 0.43532 -0.02081 0.38164
 O103 O 0.47277 -0.00156 -0.05498
 O104 O 0.47112 -0.00135 0.03568
 O105 O 0.47279 0.04391 -0.00772
 O106 O 0.47118 -0.04702 -0.01258
 O107 O 0.52556 -0.04968 -0.00889
 O108 O 0.52722 0.04123 -0.00770
 O109 O 0.52555 -0.00230 0.03712
 O110 O 0.52717 -0.00625 -0.05369
 Cu111 Cu 0.46649 -0.00126 -0.00986
 Cu112 Cu 0.53183 -0.00451 -0.00809
 C113 C 0.50025 -0.00421 -0.06984
 C114 C 0.49805 -0.00146 0.05196
 C115 C 0.50027 0.05815 -0.00751
 C116 C 0.49809 -0.06388 -0.01154
 O117 O -0.04532 0.53072 1.01308
 O118 O 0.04550 0.53031 1.01545
 O119 O 0.00101 0.53094 0.96868
 O120 O -0.00086 0.52993 1.05935
 O121 O 0.00065 0.47539 1.05570
 O122 O 0.00246 0.47642 0.96509
 O123 O 0.04694 0.47578 1.01207
 O124 O -0.04385 0.47618 1.00904
 Cu125 Cu -0.00006 0.53595 1.01440
 Cu126 Cu 0.00170 0.47048 1.01003
 C127 C -0.06013 0.50352 1.01083
 C128 C 0.06177 0.50297 1.01445
 C129 C 0.00202 0.50384 0.95135
 C130 C -0.00041 0.50248 1.07304
 O131 O -0.00128 -0.04633 0.47525
 O132 O -0.00212 0.04463 0.47347
 O133 O 0.04344 -0.00213 0.47388
 O134 O -0.04722 0.00007 0.47280
 O135 O -0.04776 0.00401 0.52721
 O136 O 0.04340 0.00240 0.52830
 O137 O -0.00286 0.04846 0.52788
 O138 O -0.00185 -0.04197 0.52968
 Cu139 Cu -0.00182 -0.00132 0.46840
 Cu140 Cu -0.00226 0.00364 0.53372
 C141 C -0.00140 -0.05966 0.50288
 C142 C -0.00267 0.06209 0.50048
 C143 C 0.05898 -0.00027 0.50118
 C144 C -0.06307 0.00232 0.49971
 C145 C -0.30967 0.50289 1.00792
 C146 C -0.32714 0.52017 0.98387
 C147 C -0.36147 0.51912 0.98165
 C148 C -0.37930 0.50021 1.00300
 C149 C -0.36187 0.48332 1.02742
 C150 C -0.32752 0.48473 1.02990
 C151 C -0.27298 0.50341 1.00965
 C152 C -0.25434 0.47507 1.01763
 C153 C -0.21987 0.47529 1.01839
 C154 C -0.20311 0.50373 1.01082
 C155 C -0.22176 0.53213 1.00302
 C156 C -0.25623 0.53203 1.00264
 C157 C -0.16638 0.50370 1.01080
 C158 C -0.14943 0.53219 1.02139
 C159 C -0.11496 0.53223 1.02105
 C160 C -0.09661 0.50366 1.01054
 C161 C -0.11343 0.47513 1.00010
 C162 C -0.14791 0.47522 1.00002
 H163 H -0.31425 0.53396 0.96616
 H164 H -0.37409 0.53226 0.96245
 H165 H -0.37492 0.46945 1.04497
 H166 H -0.31498 0.47180 1.04926
 H167 H -0.26633 0.45245 1.02276
 H168 H -0.20638 0.45313 1.02504
 H169 H -0.20976 0.55436 0.99666
 H170 H -0.26973 0.55448 0.99689
 H171 H -0.16275 0.55438 1.03041
 H172 H -0.10265 0.55450 1.02952
 H173 H -0.09994 0.45281 0.99165
 H174 H -0.16007 0.45304 0.99107
 C175 C 0.31088 0.50229 1.01690
 C176 C 0.32655 0.53112 1.00913
 C177 C 0.36053 0.53063 1.00350
 C178 C 0.37977 0.50085 1.00370
 C179 C 0.36430 0.47344 1.01636
 C180 C 0.33031 0.47379 1.02176
 C181 C 0.27442 0.50172 1.01925
 C182 C 0.25733 0.47515 1.00435
 C183 C 0.22289 0.47522 1.00466
 C184 C 0.20469 0.50176 1.02010
 C185 C 0.22186 0.52807 1.03555
 C186 C 0.25635 0.52810 1.03503
 C187 C 0.16799 0.50222 1.01941
 C188 C 0.14981 0.53186 1.01530
 C189 C 0.11534 0.53214 1.01384
 C190 C 0.09826 0.50275 1.01622
 C191 C 0.11637 0.47314 1.02044
 C192 C 0.15082 0.47290 1.02215
 H193 H 0.31243 0.55401 1.00669
 H194 H 0.37111 0.55407 0.99947
 H195 H 0.37816 0.45144 1.02255
 H196 H 0.31920 0.45173 1.02993
 H197 H 0.27061 0.45474 0.99156
 H198 H 0.21050 0.45485 0.99201
 H199 H 0.20864 0.54860 1.04819
 H200 H 0.26892 0.54871 1.04706
 H201 H 0.16224 0.55479 1.01257
 H202 H 0.10209 0.55535 1.01046
 H203 H 0.10392 0.45013 1.02264
 H204 H 0.16400 0.44974 1.02588
 C205 C 0.00452 -0.30792 0.51337
 C206 C 0.02049 -0.32801 0.48867
 C207 C 0.02081 -0.36239 0.48958
 C208 C 0.00480 -0.37785 0.51500
 C209 C -0.01106 -0.35761 0.53980
 C210 C -0.01100 -0.32318 0.53910
 C211 C 0.00366 -0.27128 0.51197
 C212 C -0.02446 -0.25237 0.52234
 C213 C -0.02537 -0.21801 0.52080
 C214 C 0.00160 -0.20183 0.50843
 C215 C 0.02962 -0.22057 0.49789
 C216 C 0.03075 -0.25489 0.49986
 C217 C 0.00058 -0.16544 0.50679
 C218 C 0.00987 -0.15074 0.47789
 C219 C 0.00884 -0.11633 0.47641
 C220 C -0.00097 -0.09604 0.50400
 C221 C -0.01011 -0.11082 0.53294
 C222 C -0.00958 -0.14519 0.53422
 H223 H 0.03235 -0.31722 0.46823
 H224 H 0.03385 -0.37697 0.47036
 H225 H -0.02445 -0.36837 0.55930
 H226 H -0.02320 -0.30853 0.55879
 H227 H -0.04604 -0.26413 0.53114
 H228 H -0.04740 -0.20408 0.52875
 H229 H 0.05089 -0.20856 0.48866
 H230 H 0.05305 -0.26851 0.49226
 H231 H 0.01758 -0.16590 0.45635
 H232 H 0.01609 -0.10562 0.45382
 H233 H -0.01786 -0.09580 0.55456
 H234 H -0.01664 -0.15597 0.55685
 C235 C -0.00121 0.31115 0.50504
 C236 C 0.02899 0.32706 0.50935
 C237 C 0.02985 0.36155 0.51118
 C238 C 0.00059 0.38059 0.50855
 C239 C -0.02957 0.36491 0.50420
 C240 C -0.03050 0.33043 0.50259
 C241 C -0.00216 0.27457 0.50329
 C242 C -0.02634 0.25853 0.52046
 C243 C -0.02690 0.22405 0.51935
 C244 C -0.00341 0.20488 0.50085
 C245 C 0.02052 0.22092 0.48332
 C246 C 0.02122 0.25542 0.48463
 C247 C -0.00348 0.16829 0.50047
 C248 C 0.00123 0.14904 0.47092
 C249 C 0.00128 0.11452 0.47078
 C250 C -0.00308 0.09860 0.50026
 C251 C -0.00772 0.11793 0.52979
 C252 C -0.00801 0.15237 0.52987
 H253 H 0.05187 0.31282 0.51168
 H254 H 0.05330 0.37344 0.51450
 H255 H -0.05231 0.37941 0.50196
 H256 H -0.05404 0.31882 0.49893
 H257 H -0.04451 0.27266 0.53523
 H258 H -0.04580 0.21233 0.53286
 H259 H 0.03907 0.20675 0.46908
 H260 H 0.03994 0.26715 0.47089
 H261 H 0.00451 0.16071 0.44786
 H262 H 0.00491 0.10031 0.44764
 H263 H -0.01115 0.10645 0.55293
 H264 H -0.01129 0.16658 0.55307
 C265 C 0.50169 -0.00754 -0.31920
 C266 C 0.52248 0.01328 -0.33553
 C267 C 0.52204 0.01374 -0.36992
 C268 C 0.50035 -0.00615 -0.38891
 C269 C 0.47964 -0.02705 -0.37256
 C270 C 0.48049 -0.02792 -0.33822
 C271 C 0.50182 -0.00771 -0.28252
 C272 C 0.47247 -0.01217 -0.26533
 C273 C 0.47247 -0.01212 -0.23093
 C274 C 0.50172 -0.00707 -0.21268
 C275 C 0.53108 -0.00257 -0.22985
 C276 C 0.53117 -0.00312 -0.26431
 C277 C 0.50149 -0.00628 -0.17596
 C278 C 0.52867 -0.01884 -0.15821
 C279 C 0.52842 -0.01789 -0.12373
 C280 C 0.50080 -0.00487 -0.10625
 C281 C 0.47359 0.00752 -0.12386
 C282 C 0.47404 0.00709 -0.15828
 H283 H 0.53867 0.02979 -0.32175
 H284 H 0.53798 0.03047 -0.38168
 H285 H 0.46324 -0.04331 -0.38647
 H286 H 0.46473 -0.04488 -0.32663
 H287 H 0.44928 -0.01528 -0.27840
 H288 H 0.44948 -0.01625 -0.21867
 H289 H 0.55401 0.00182 -0.21670
 H290 H 0.55435 -0.00012 -0.27665
 H291 H 0.54999 -0.02987 -0.17092
 H292 H 0.54965 -0.02784 -0.11076
 H293 H 0.45209 0.01802 -0.11100
 H294 H 0.45297 0.01767 -0.17098
 C295 C 0.49609 0.00107 0.30130
 C296 C 0.48333 0.02863 0.32026
 C297 C 0.48352 0.02884 0.35471
 C298 C 0.49666 0.00163 0.37079
 C299 C 0.50936 -0.02592 0.35213
 C300 C 0.50899 -0.02626 0.31769
 C301 C 0.49615 0.00087 0.26464
 C302 C 0.52286 -0.01356 0.24660
 C303 C 0.52295 -0.01385 0.21217
 C304 C 0.49644 0.00049 0.19486
 C305 C 0.46976 0.01499 0.21289
 C306 C 0.46958 0.01511 0.24734
 C307 C 0.49671 0.00031 0.15820
 C308 C 0.46753 -0.00448 0.13975
 C309 C 0.46789 -0.00484 0.10529
 C310 C 0.49748 -0.00066 0.08846
 C311 C 0.52664 0.00417 0.10686
 C312 C 0.52623 0.00478 0.14130
 H313 H 0.47366 0.05027 0.30849
 H314 H 0.47370 0.05030 0.36890
 H315 H 0.51941 -0.04718 0.36429
 H316 H 0.51848 -0.04810 0.30391
 H317 H 0.54394 -0.02436 0.25910
 H318 H 0.54370 -0.02563 0.19909
 H319 H 0.44912 0.02660 0.20040
 H320 H 0.44843 0.02608 0.26041
 H321 H 0.44446 -0.00849 0.15192
 H322 H 0.44505 -0.00878 0.09181
 H323 H 0.54980 0.00771 0.09465
 H324 H 0.54903 0.00913 0.15471
 C325 C 0.49535 -0.31414 -0.02485
 C326 C 0.52077 -0.33379 -0.04006
 C327 C 0.52156 -0.36816 -0.03831
 C328 C 0.49658 -0.38401 -0.02190
 C329 C 0.47046 -0.36441 -0.00785
 C330 C 0.47010 -0.33002 -0.00893
 C331 C 0.49567 -0.27728 -0.02463
 C332 C 0.46602 -0.25824 -0.02437
 C333 C 0.46636 -0.22372 -0.02237
 C334 C 0.49637 -0.20713 -0.02133
 C335 C 0.52601 -0.22619 -0.02244
 C336 C 0.52567 -0.26070 -0.02370
 C337 C 0.49676 -0.17024 -0.01876
 C338 C 0.52236 -0.15373 -0.00166
 C339 C 0.52291 -0.11921 0.00048
 C340 C 0.49748 -0.10033 -0.01370
 C341 C 0.47165 -0.11658 -0.03038
 C342 C 0.47148 -0.15111 -0.03322
 H343 H 0.54016 -0.32269 -0.05341
 H344 H 0.54159 -0.38246 -0.05019
 H345 H 0.45112 -0.37553 0.00560
 H346 H 0.45047 -0.31590 0.00374
 H347 H 0.44238 -0.26994 -0.02569
 H348 H 0.44297 -0.21011 -0.02110
 H349 H 0.54965 -0.21451 -0.02239
 H350 H 0.54907 -0.27429 -0.02332
 H351 H 0.54185 -0.16739 0.01053
 H352 H 0.54297 -0.10725 0.01372
 H353 H 0.45192 -0.10256 -0.04186
 H354 H 0.45173 -0.16271 -0.04721
 C355 C 0.50368 0.30744 -0.00952
 C356 C 0.51129 0.32339 -0.03833
 C357 C 0.51155 0.35792 -0.03809
 C358 C 0.50426 0.37699 -0.00906
 C359 C 0.49671 0.36128 0.01968
 C360 C 0.49650 0.32683 0.01950
 C361 C 0.50308 0.27078 -0.00963
 C362 C 0.47872 0.25530 0.00791
 C363 C 0.47835 0.22087 0.00830
 C364 C 0.50227 0.20103 -0.00891
 C365 C 0.52656 0.21649 -0.02659
 C366 C 0.52695 0.25096 -0.02695
 C367 C 0.50183 0.16439 -0.00841
 C368 C 0.53140 0.14552 -0.00621
 C369 C 0.53092 0.11106 -0.00574
 C370 C 0.50084 0.09469 -0.00740
 C371 C 0.47128 0.11356 -0.00949
 C372 C 0.47177 0.14798 -0.01003
 H373 H 0.51652 0.30919 -0.06117
 H374 H 0.51723 0.36981 -0.06051
 H375 H 0.49107 0.37576 0.04227
 H376 H 0.49105 0.31536 0.04221
 H377 H 0.45972 0.26981 0.02117
 H378 H 0.45952 0.20979 0.02244
 H379 H 0.54511 0.20192 -0.04042
 H380 H 0.54623 0.26211 -0.04043
 H381 H 0.55494 0.15742 -0.00445
 H382 H 0.55414 0.09727 -0.00404
 H383 H 0.44769 0.10172 -0.01099
 H384 H 0.44858 0.16172 -0.01222
 C385 C -0.31235 0.00185 0.49215
 C386 C -0.33126 0.03117 0.48876
 C387 C -0.36573 0.03069 0.48815
 C388 C -0.38202 0.00089 0.49100
 C389 C -0.36312 -0.02852 0.49370
 C390 C -0.32867 -0.02803 0.49441
 C391 C -0.27574 0.00241 0.49351
 C392 C -0.25789 -0.01657 0.51597
 C393 C -0.22344 -0.01610 0.51728
 C394 C -0.20605 0.00327 0.49608
 C395 C -0.22390 0.02230 0.47366
 C396 C -0.25836 0.02192 0.47244
 C397 C -0.16941 0.00337 0.49712
 C398 C -0.15125 0.00251 0.46774
 C399 C -0.11678 0.00222 0.46863
 C400 C -0.09964 0.00288 0.49892
 C401 C -0.11779 0.00389 0.52832
 C402 C -0.15230 0.00407 0.52742
 H403 H -0.31941 0.05459 0.48725
 H404 H -0.37976 0.05369 0.48602
 H405 H -0.37508 -0.05192 0.49517
 H406 H -0.31476 -0.05109 0.49639
 H407 H -0.27060 -0.03156 0.53278
 H408 H -0.21037 -0.03127 0.53458
 H409 H -0.21121 0.03771 0.45723
 H410 H -0.27141 0.03658 0.45468
 H411 H -0.16371 0.00152 0.44401
 H412 H -0.10356 0.00138 0.44551
 H413 H -0.10534 0.00448 0.55206
 H414 H -0.16562 0.00513 0.55048
 C415 C 0.30787 -0.00378 0.49480
 C416 C 0.32403 0.02429 0.48518
 C417 C 0.35847 0.02424 0.48367
 C418 C 0.37724 -0.00373 0.49210
 C419 C 0.36126 -0.03180 0.50165
 C420 C 0.32682 -0.03191 0.50280
 C421 C 0.27136 -0.00368 0.49660
 C422 C 0.25386 -0.03072 0.48327
 C423 C 0.21941 -0.03046 0.48458
 C424 C 0.20179 -0.00333 0.49959
 C425 C 0.21930 0.02353 0.51329
 C426 C 0.25375 0.02345 0.51162
 C427 C 0.16522 -0.00280 0.50031
 C428 C 0.14811 0.00717 0.52932
 C429 C 0.11357 0.00771 0.52979
 C430 C 0.09552 -0.00129 0.50113
 C431 C 0.11272 -0.01115 0.47213
 C432 C 0.14718 -0.01207 0.47178
 H433 H 0.30998 0.04615 0.47858
 H434 H 0.37055 0.04609 0.47633
 H435 H 0.37552 -0.05350 0.50836
 H436 H 0.31498 -0.05374 0.51055
 H437 H 0.26683 -0.05185 0.47139
 H438 H 0.20651 -0.05158 0.47404
 H439 H 0.20629 0.04485 0.52477
 H440 H 0.26667 0.04447 0.52234
 H441 H 0.16147 0.01422 0.55171
 H442 H 0.10101 0.01546 0.55249
 H443 H 0.09953 -0.01830 0.44966
 H444 H 0.15975 -0.01955 0.44902
 C445 C -0.00041 0.49988 1.32208
 C446 C -0.02614 0.48582 1.33908
 C447 C -0.02541 0.48540 1.37350
 C448 C 0.00093 0.49919 1.39151
 C449 C 0.02654 0.51335 1.37479
 C450 C 0.02599 0.51355 1.34039
 C451 C -0.00108 0.50035 1.28545
 C452 C 0.01052 0.52763 1.26957
 C453 C 0.01033 0.52793 1.23516
 C454 C -0.00174 0.50107 1.21574
 C455 C -0.01359 0.47390 1.23163
 C456 C -0.01316 0.47350 1.26604
 C457 C -0.00176 0.50136 1.17909
 C458 C -0.00868 0.53080 1.16322
 C459 C -0.00818 0.53117 1.12882
 C460 C -0.00105 0.50205 1.10946
 C461 C 0.00558 0.47255 1.12524
 C462 C 0.00538 0.47224 1.15966
 H463 H -0.04709 0.47558 1.32584
 H464 H -0.04549 0.47461 1.38616
 H465 H 0.04705 0.52404 1.38844
 H466 H 0.04647 0.52407 1.32813
 H467 H 0.01957 0.54894 1.28372
 H468 H 0.02004 0.54908 1.22379
 H469 H -0.02346 0.45299 1.21748
 H470 H -0.02192 0.45192 1.27741
 H471 H -0.01485 0.55355 1.17736
 H472 H -0.01364 0.55425 1.11738
 H473 H 0.01136 0.44974 1.11101
 H474 H 0.01137 0.44925 1.17103
 C475 C 0.00383 0.50559 0.70262
 C476 C 0.03352 0.50087 0.68507
 C477 C 0.03347 0.50042 0.65059
 C478 C 0.00380 0.50503 0.63320
 C479 C -0.02582 0.51005 0.65055
 C480 C -0.02585 0.51018 0.68499
 C481 C 0.00373 0.50546 0.73916
 C482 C -0.02020 0.48813 0.75538
 C483 C -0.02022 0.48781 0.78980
 C484 C 0.00350 0.50506 0.80874
 C485 C 0.02734 0.52254 0.79254
 C486 C 0.02756 0.52260 0.75809
 C487 C 0.00337 0.50476 0.84528
 C488 C 0.00770 0.53403 0.86483
 C489 C 0.00718 0.53378 0.89926
 C490 C 0.00262 0.50417 0.91488
 C491 C -0.00147 0.47486 0.89530
 C492 C -0.00125 0.47518 0.86088
 H493 H 0.05668 0.49695 0.69800
 H494 H 0.05650 0.49644 0.63743
 H495 H -0.04890 0.51365 0.63736
 H496 H -0.04902 0.51421 0.69789
 H497 H -0.03868 0.47447 0.74140
 H498 H -0.03904 0.47435 0.80165
 H499 H 0.04606 0.53584 0.80652
 H500 H 0.04613 0.53636 0.74623
 H501 H 0.01101 0.55723 0.85345
 H502 H 0.01042 0.55677 0.91364
 H503 H -0.00504 0.45164 0.90656
 H504 H -0.00431 0.45220 0.84643
   
