data_POSCAR
  _audit_creation_date              2014-09-24
  _audit_creation_method            'ToBaCCo'
  _symmetry_space_group_name_H-M    'P1'
  _symmetry_Int_Tables_number       1
  _symmetry_cell_setting            triclinic
  loop_
  _symmetry_equiv_pos_as_xyz
 x,y,z
_cell_length_a 38.7678
_cell_length_b 38.7491
_cell_length_c 38.7770
_cell_angle_alpha 99.797200
_cell_angle_beta 76.112200
_cell_angle_gamma 100.340200
loop_
  _atom_site_label
  _atom_site_type_symbol
  _atom_site_fract_x
  _atom_site_fract_y
  _atom_site_fract_z
O1 O 0.54762 0.50079 0.02310
 O2 O 0.45386 0.49498 0.01492
 O3 O 0.49384 0.45061 0.02219
 O4 O 0.50733 0.54597 0.01754
 O5 O 0.52363 0.53599 -0.04138
 O6 O 0.51230 0.44008 -0.03651
 O7 O 0.47094 0.48363 -0.04378
 O8 O 0.56484 0.49184 -0.03582
 Cu9 Cu 0.49892 0.49920 0.02530
 Cu10 Cu 0.51954 0.48692 -0.04529
 C11 C 0.57225 0.49707 -0.00501
 C12 C 0.44623 0.48808 -0.01588
 C13 C 0.50132 0.42903 -0.00614
 C14 C 0.51755 0.55740 -0.01261
 O15 O -0.02378 0.54924 0.50453
 O16 O -0.01829 0.45431 0.49294
 O17 O -0.01599 0.50578 0.54543
 O18 O -0.02443 0.49861 0.45173
 O19 O 0.03458 0.50868 0.43441
 O20 O 0.04284 0.51822 0.52821
 O21 O 0.04070 0.46540 0.47651
 O22 O 0.03491 0.56088 0.48593
 Cu23 Cu -0.02649 0.50076 0.50042
 Cu24 Cu 0.04419 0.51438 0.47965
 C25 C 0.00436 0.57139 0.49662
 C26 C 0.01204 0.44350 0.48296
 C27 C 0.01491 0.51343 0.55288
 C28 C 0.00367 0.50266 0.42706
 O29 O 0.48352 0.02488 0.57125
 O30 O 0.49390 0.03098 0.47533
 O31 O 0.44105 0.03191 0.53096
 O32 O 0.53720 0.02594 0.51612
 O33 O 0.52529 -0.03230 0.50664
 O34 O 0.42928 -0.02614 0.51874
 O35 O 0.48360 -0.02726 0.46425
 O36 O 0.47045 -0.03311 0.56032
 Cu37 Cu 0.49019 0.03425 0.52444
 Cu38 Cu 0.47604 -0.03552 0.51130
 C39 C 0.47502 -0.00524 0.58231
 C40 C 0.49031 0.00286 0.45341
 C41 C 0.41872 0.00400 0.52710
 C42 C 0.54765 -0.00420 0.50954
 C43 C 0.49752 -0.07592 -0.06127
 C44 C 0.48732 -0.04380 -0.06422
 C45 C 0.48606 -0.01673 -0.03506
 C46 C 0.49713 -0.02035 -0.00394
 C47 C 0.50800 -0.05267 -0.00200
 C48 C 0.50738 -0.08084 -0.03009
 C49 C 0.49758 0.00961 0.02612
 C50 C 0.49308 0.00324 0.06182
 C51 C 0.49374 0.03137 0.08996
 C52 C 0.49766 0.06616 0.08233
 C53 C 0.50087 0.07318 0.04734
 C54 C 0.50201 0.04496 0.01933
 H55 H 0.49778 -0.09721 -0.08334
 H56 H 0.47593 0.00701 -0.03679
 H57 H 0.51761 -0.05600 0.02103
 H58 H 0.48815 -0.02358 0.06813
 H59 H 0.49867 0.08809 0.10369
 H60 H 0.50580 0.05080 -0.00771
 C61 C -0.06270 0.49897 1.06157
 C62 C -0.06856 0.49375 1.02660
 C63 C -0.03889 0.49287 0.99751
 C64 C -0.00344 0.49950 1.00287
 C65 C 0.00157 0.50584 1.03835
 C66 C -0.02779 0.50443 1.06773
 C67 C 0.02813 0.49987 0.97164
 C68 C 0.06132 0.49204 0.97468
 C69 C 0.09137 0.49355 0.94594
 C70 C 0.08739 0.50055 0.91284
 C71 C 0.05428 0.50719 0.90867
 C72 C 0.02535 0.50807 0.93848
 H73 H -0.08543 0.49878 1.08411
 H74 H -0.04379 0.48649 0.97070
 H75 H 0.02834 0.51243 1.04350
 H76 H 0.06401 0.48421 0.99925
 H77 H 0.11009 0.50082 0.89027
 H78 H 0.00078 0.51566 0.93561
 C79 C -0.08099 -0.06697 0.50009
 C80 C -0.04603 -0.07360 0.49744
 C81 C -0.01806 -0.04502 0.49698
 C82 C -0.02495 -0.00976 0.50163
 C83 C -0.06066 -0.00385 0.50567
 C84 C -0.08869 -0.03229 0.50429
 C85 C 0.00495 0.02061 0.50292
 C86 C 0.00313 0.05327 0.49251
 C87 C 0.03111 0.08179 0.49395
 C88 C 0.06211 0.07688 0.50412
 C89 C 0.06494 0.04443 0.51385
 C90 C 0.03582 0.01704 0.51439
 H91 H -0.10230 -0.08908 0.49850
 H92 H 0.00899 -0.05051 0.49360
 H93 H -0.06708 0.02284 0.51083
 H94 H -0.01972 0.05663 0.48262
 H95 H 0.08415 0.09841 0.50446
 H96 H 0.03740 -0.00698 0.52425
 C97 C -0.31910 0.49607 1.00309
 C98 C -0.32677 0.49934 0.97025
 C99 C -0.36198 0.50008 0.96773
 C100 C -0.39027 0.49800 0.99808
 C101 C -0.38254 0.49545 1.03107
 C102 C -0.34737 0.49430 1.03351
 C103 C -0.28193 0.49416 1.00550
 N104 N -0.27540 0.48348 1.03462
 N105 N -0.24200 0.48163 1.03674
 C106 C -0.21370 0.49048 1.00986
 N107 N -0.22023 0.50118 0.98074
 N108 N -0.25364 0.50286 0.97855
 C109 C -0.17648 0.48935 1.01269
 C110 C -0.14706 0.50630 0.98961
 C111 C -0.11205 0.50699 0.99363
 C112 C -0.10559 0.49046 1.02059
 C113 C -0.13499 0.47249 1.04289
 C114 C -0.17002 0.47211 1.03912
 H115 H -0.30564 0.50074 0.94630
 H116 H -0.36707 0.50212 0.94193
 H117 H -0.40378 0.49368 1.05491
 H118 H -0.34236 0.49197 1.05925
 H119 H -0.15108 0.51992 0.96904
 H120 H -0.09012 0.52149 0.97630
 H121 H -0.13097 0.45884 1.06345
 H122 H -0.19207 0.45842 1.05705
 C123 C 0.33864 0.48218 0.97413
 C124 C 0.34749 0.49015 1.00797
 C125 C 0.38287 0.49173 1.01134
 C126 C 0.41046 0.48562 0.98087
 C127 C 0.40143 0.47736 0.94701
 C128 C 0.36600 0.47556 0.94373
 C129 C 0.30126 0.48146 0.97050
 N130 N 0.29171 0.47013 0.93850
 N131 N 0.25835 0.47031 0.93509
 C132 C 0.23312 0.48191 0.96352
 N133 N 0.24263 0.49309 0.99555
 N134 N 0.27595 0.49281 0.99898
 C135 C 0.19631 0.48334 0.95948
 C136 C 0.17226 0.50071 0.98720
 C137 C 0.13815 0.50351 0.98291
 C138 C 0.12707 0.48880 0.95089
 C139 C 0.15085 0.47078 0.92343
 C140 C 0.18510 0.46817 0.92764
 H141 H 0.32708 0.49527 1.03198
 H142 H 0.38855 0.49810 1.03791
 H143 H 0.42175 0.47238 0.92286
 H144 H 0.36016 0.46939 0.91723
 H145 H 0.18001 0.51283 1.01203
 H146 H 0.12078 0.51806 1.00439
 H147 H 0.14299 0.45863 0.89867
 H148 H 0.20284 0.45436 0.90585
 C149 C -0.00625 -0.32091 0.50078
 C150 C 0.02763 -0.33216 0.48854
 C151 C 0.03143 -0.36755 0.48790
 C152 C 0.00132 -0.39260 0.49908
 C153 C -0.03244 -0.38101 0.51179
 C154 C -0.03611 -0.34569 0.51275
 C155 C -0.01092 -0.28379 0.50065
 N156 N -0.04256 -0.27218 0.51730
 N157 N -0.04739 -0.23918 0.51666
 C158 C -0.02087 -0.21632 0.49923
 N159 N 0.01087 -0.22785 0.48258
 N160 N 0.01576 -0.26090 0.48331
 C161 C -0.02681 -0.17974 0.49843
 C162 C -0.00201 -0.15728 0.47624
 C163 C -0.00822 -0.12293 0.47552
 C164 C -0.03930 -0.11029 0.49707
 C165 C -0.06389 -0.13275 0.51934
 C166 C -0.05781 -0.16701 0.51992
 H167 H 0.05121 -0.31366 0.47933
 H168 H 0.05790 -0.37533 0.47798
 H169 H -0.05633 -0.39927 0.52079
 H170 H -0.06262 -0.33800 0.52236
 H171 H 0.02207 -0.16633 0.45923
 H172 H 0.01109 -0.10642 0.45781
 H173 H -0.08769 -0.12363 0.53688
 H174 H -0.07738 -0.18342 0.53754
 C175 C 0.01666 0.33196 0.47459
 C176 C 0.04821 0.35587 0.46530
 C177 C 0.04679 0.39206 0.46768
 C178 C 0.01377 0.40511 0.47930
 C179 C -0.01779 0.38113 0.48804
 C180 C -0.01637 0.34504 0.48576
 C181 C 0.01811 0.29379 0.47365
 N182 N -0.01198 0.27148 0.48590
 N183 N -0.01059 0.23747 0.48635
 C184 C 0.02095 0.22424 0.47446
 N185 N 0.05101 0.24647 0.46190
 N186 N 0.04962 0.28051 0.46151
 C187 C 0.02279 0.18679 0.47673
 C188 C 0.05502 0.17260 0.46286
 C189 C 0.05742 0.13813 0.46733
 C190 C 0.02769 0.11706 0.48592
 C191 C -0.00487 0.13082 0.49873
 C192 C -0.00731 0.16524 0.49415
 H193 H 0.07412 0.34673 0.45660
 H194 H 0.07158 0.40983 0.46069
 H195 H -0.04370 0.39026 0.49704
 H196 H -0.04122 0.32744 0.49304
 H197 H 0.07863 0.18830 0.44899
 H198 H 0.08270 0.12808 0.45653
 H199 H -0.02815 0.11544 0.51349
 H200 H -0.03258 0.17527 0.50516
 C201 C 0.46589 -0.01369 -0.30819
 C202 C 0.47503 0.01954 -0.32051
 C203 C 0.47749 0.02246 -0.35649
 C204 C 0.47109 -0.00785 -0.38118
 C205 C 0.46133 -0.04104 -0.36859
 C206 C 0.45868 -0.04387 -0.33259
 C207 C 0.46505 -0.01706 -0.27046
 N208 N 0.45376 -0.04874 -0.25788
 N209 N 0.45450 -0.05215 -0.22447
 C210 C 0.46663 -0.02403 -0.20221
 N211 N 0.47763 0.00773 -0.21469
 N212 N 0.47682 0.01116 -0.24808
 C213 C 0.46943 -0.02829 -0.16574
 C214 C 0.48702 -0.00063 -0.14489
 C215 C 0.49201 -0.00546 -0.11163
 C216 C 0.47936 -0.03800 -0.09829
 C217 C 0.46076 -0.06531 -0.11861
 C218 C 0.45592 -0.06054 -0.15199
 H219 H 0.48062 0.04336 -0.30241
 H220 H 0.48494 0.04852 -0.36498
 H221 H 0.45600 -0.06504 -0.38657
 H222 H 0.45156 -0.06989 -0.32405
 H223 H 0.49785 0.02453 -0.15465
 H224 H 0.50686 0.01597 -0.09688
 H225 H 0.45013 -0.09049 -0.10883
 H226 H 0.44196 -0.08232 -0.16719
 C227 C 0.49388 0.00900 0.34274
 C228 C 0.49205 0.03942 0.36833
 C229 C 0.49185 0.03758 0.40406
 C230 C 0.49304 0.00521 0.41512
 C231 C 0.49533 -0.02514 0.38947
 C232 C 0.49598 -0.02322 0.35362
 C233 C 0.49282 0.01086 0.30516
 N234 N 0.50224 -0.01572 0.27860
 N235 N 0.50105 -0.01396 0.24488
 C236 C 0.49009 0.01432 0.23638
 N237 N 0.48059 0.04079 0.26296
 N238 N 0.48197 0.03913 0.29660
 C239 C 0.48911 0.01677 0.19890
 C240 C 0.47069 0.04183 0.19161
 C241 C 0.47120 0.04566 0.15634
 C242 C 0.49052 0.02483 0.12740
 C243 C 0.50810 -0.00100 0.13467
 C244 C 0.50729 -0.00508 0.17006
 H245 H 0.49063 0.06470 0.36081
 H246 H 0.48997 0.06141 0.42318
 H247 H 0.49636 -0.05047 0.39716
 H248 H 0.49738 -0.04713 0.33459
 H249 H 0.45597 0.05872 0.21319
 H250 H 0.45662 0.06521 0.15174
 H251 H 0.52347 -0.01727 0.11302
 H252 H 0.52177 -0.02463 0.17478
 C253 C 0.52758 -0.33065 -0.01634
 C254 C 0.53667 -0.35403 -0.04799
 C255 C 0.53380 -0.39036 -0.04684
 C256 C 0.52190 -0.40406 -0.01401
 C257 C 0.51344 -0.38060 0.01765
 C258 C 0.51620 -0.34437 0.01649
 C259 C 0.52880 -0.29238 -0.01754
 N260 N 0.51638 -0.27063 0.01255
 N261 N 0.51599 -0.23657 0.01134
 C262 C 0.52811 -0.22273 -0.02002
 N263 N 0.54088 -0.24438 -0.05007
 N264 N 0.54121 -0.27849 -0.04886
 C265 C 0.52570 -0.18530 -0.02172
 C266 C 0.53994 -0.17044 -0.05371
 C267 C 0.53516 -0.13608 -0.05609
 C268 C 0.51587 -0.11585 -0.02659
 C269 C 0.50274 -0.13024 0.00577
 C270 C 0.50766 -0.16453 0.00821
 H271 H 0.54552 -0.34438 -0.07375
 H272 H 0.54060 -0.40773 -0.07170
 H273 H 0.50425 -0.39025 0.04340
 H274 H 0.50908 -0.32717 0.04141
 H275 H 0.55431 -0.18553 -0.07717
 H276 H 0.54622 -0.12550 -0.08120
 H277 H 0.48746 -0.11550 0.02888
 H278 H 0.49634 -0.17510 0.03329
 C279 C 0.49587 0.31937 0.00466
 C280 C 0.51254 0.33193 -0.02818
 C281 C 0.51345 0.36735 -0.03215
 C282 C 0.49798 0.39094 -0.00327
 C283 C 0.48071 0.37818 0.02927
 C284 C 0.47954 0.34283 0.03314
 C285 C 0.49618 0.28239 0.00980
 N286 N 0.47724 0.26979 0.04048
 N287 N 0.47817 0.23699 0.04584
 C288 C 0.49819 0.21534 0.02081
 N289 N 0.51708 0.22785 -0.00999
 N290 N 0.51609 0.26071 -0.01538
 C291 C 0.49936 0.17900 0.02731
 C292 C 0.52261 0.15739 0.00339
 C293 C 0.52353 0.12317 0.00994
 C294 C 0.50118 0.10984 0.04050
 C295 C 0.47798 0.13148 0.06433
 C296 C 0.47715 0.16561 0.05789
 H297 H 0.52522 0.31452 -0.05070
 H298 H 0.52702 0.37645 -0.05753
 H299 H 0.46841 0.39564 0.05199
 H300 H 0.46641 0.33411 0.05880
 H301 H 0.54021 0.16694 -0.02033
 H302 H 0.54195 0.10727 -0.00876
 H303 H 0.45990 0.12178 0.08775
 H304 H 0.45877 0.18138 0.07682
 C305 C -0.34151 -0.01056 0.50446
 C306 C -0.35210 0.02177 0.50250
 C307 C -0.38801 0.02376 0.50359
 C308 C -0.41400 -0.00661 0.50620
 C309 C -0.40323 -0.03910 0.50719
 C310 C -0.36743 -0.04101 0.50653
 C311 C -0.30388 -0.01248 0.50522
 N312 N -0.29552 -0.04102 0.51577
 N313 N -0.26185 -0.04272 0.51700
 C314 C -0.23506 -0.01600 0.50762
 N315 N -0.24337 0.01255 0.49694
 N316 N -0.27712 0.01433 0.49590
 C317 C -0.19760 -0.01841 0.50853
 C318 C -0.16859 0.00399 0.49069
 C319 C -0.13321 0.00008 0.48994
 C320 C -0.12613 -0.02614 0.50725
 C321 C -0.15523 -0.04760 0.52617
 C322 C -0.19049 -0.04393 0.52663
 H323 H -0.33280 0.04571 0.50092
 H324 H -0.39549 0.04916 0.50270
 H325 H -0.42261 -0.06295 0.50929
 H326 H -0.36012 -0.06637 0.50784
 H327 H -0.17317 0.02390 0.47646
 H328 H -0.11140 0.01684 0.47488
 H329 H -0.15076 -0.06748 0.54052
 H330 H -0.21221 -0.06127 0.54108
 C331 C 0.30749 0.01284 0.53727
 C332 C 0.33195 0.04267 0.54596
 C333 C 0.36792 0.03968 0.54317
 C334 C 0.38025 0.00677 0.53179
 C335 C 0.35564 -0.02322 0.52395
 C336 C 0.31968 -0.02021 0.52659
 C337 C 0.26990 0.01643 0.53797
 N338 N 0.24745 -0.01138 0.52540
 N339 N 0.21425 -0.00772 0.52430
 C340 C 0.20202 0.02389 0.53578
 N341 N 0.22432 0.05161 0.54874
 N342 N 0.25755 0.04796 0.54978
 C343 C 0.16582 0.02843 0.53255
 C344 C 0.15223 0.06048 0.54628
 C345 C 0.11908 0.06545 0.54109
 C346 C 0.09886 0.03854 0.52194
 C347 C 0.11210 0.00624 0.50896
 C348 C 0.14510 0.00120 0.51429
 H349 H 0.32351 0.06852 0.55430
 H350 H 0.38618 0.06328 0.54954
 H351 H 0.36428 -0.04897 0.51516
 H352 H 0.30156 -0.04376 0.51981
 H353 H 0.16738 0.08192 0.56070
 H354 H 0.10937 0.09043 0.55194
 H355 H 0.09746 -0.01485 0.49364
 H356 H 0.15475 -0.02378 0.50325
 C357 C -0.00476 0.50247 1.31839
 C358 C -0.03522 0.50389 1.34660
 C359 C -0.03267 0.50308 1.38179
 C360 C 0.00047 0.50124 1.38959
 C361 C 0.03084 0.49946 1.36136
 C362 C 0.02822 0.49985 1.32612
 C363 C -0.00725 0.50412 1.28120
 N364 N 0.01976 0.49573 1.25307
 N365 N 0.01754 0.49727 1.21963
 C366 C -0.01167 0.50752 1.21293
 N367 N -0.03861 0.51605 1.24107
 N368 N -0.03647 0.51434 1.27450
 C369 C -0.01447 0.50857 1.17571
 C370 C -0.04087 0.52553 1.16898
 C371 C -0.04451 0.52518 1.13393
 C372 C -0.02209 0.50753 1.10480
 C373 C 0.00479 0.49121 1.11154
 C374 C 0.00867 0.49187 1.14655
 H375 H -0.06106 0.50570 1.34152
 H376 H -0.05653 0.50461 1.40299
 H377 H 0.05674 0.49795 1.36651
 H378 H 0.05220 0.49874 1.30503
 H379 H -0.05885 0.53900 1.19083
 H380 H -0.06501 0.53864 1.12968
 H381 H 0.02218 0.47694 1.08981
 H382 H 0.02921 0.47846 1.15081
 C383 C 0.02538 0.51998 0.66205
 C384 C 0.05549 0.52906 0.63499
 C385 C 0.05205 0.52719 0.59962
 C386 C 0.01840 0.51638 0.59051
 C387 C -0.01178 0.50784 0.61764
 C388 C -0.00832 0.50954 0.65297
 C389 C 0.02918 0.52058 0.69932
 N390 N 0.00102 0.50779 0.72441
 N391 N 0.00461 0.50732 0.75762
 C392 C 0.03650 0.51969 0.76723
 N393 N 0.06463 0.53273 0.74222
 N394 N 0.06105 0.53313 0.70897
 C395 C 0.04070 0.51796 0.80390
 C396 C 0.07252 0.53363 0.81513
 C397 C 0.07679 0.53077 0.84931
 C398 C 0.04941 0.51204 0.87297
 C399 C 0.01747 0.49677 0.86183
 C400 C 0.01312 0.49979 0.82781
 H401 H 0.08185 0.53719 0.64101
 H402 H 0.07583 0.53404 0.57936
 H403 H -0.03809 0.49943 0.61154
 H404 H -0.03211 0.50246 0.67312
 H405 H 0.09422 0.54802 0.79748
 H406 H 0.10151 0.54330 0.85723
 H407 H -0.00393 0.48165 0.87912
 H408 H -0.01168 0.48725 0.82005
   
