data_POSCAR
  _audit_creation_date              2014-09-24
  _audit_creation_method            'ToBaCCo'
  _symmetry_space_group_name_H-M    'P1'
  _symmetry_Int_Tables_number       1
  _symmetry_cell_setting            triclinic
  loop_
  _symmetry_equiv_pos_as_xyz
 x,y,z
_cell_length_a 36.7789
_cell_length_b 36.5516
_cell_length_c 36.7283
_cell_angle_alpha 89.828100
_cell_angle_beta 89.744300
_cell_angle_gamma 89.846900
loop_
  _atom_site_label
  _atom_site_type_symbol
  _atom_site_fract_x
  _atom_site_fract_y
  _atom_site_fract_z
N1 N 0.32790 0.26455 0.22041
 N2 N 0.31133 0.29526 0.21169
 C3 C 0.32739 0.30975 0.18200
 C4 C 0.35556 0.28696 0.17180
 C5 C 0.35525 0.25858 0.19668
 H6 H 0.31824 0.33405 0.16785
 H7 H 0.37227 0.23442 0.19628
 Cu8 Cu 0.26852 0.31176 0.23790
 Cu9 Cu 0.31018 0.23253 0.25910
 Cu10 Cu 0.22767 0.25633 0.29846
 N11 N 0.21967 0.32158 0.25532
 N12 N 0.20418 0.30025 0.27972
 C13 C 0.17080 0.31326 0.28739
 C14 C 0.16507 0.34407 0.26644
 C15 C 0.19651 0.34871 0.24634
 H16 H 0.15182 0.30099 0.30637
 H17 H 0.20209 0.37015 0.22675
 N18 N 0.25576 0.21295 0.31345
 N19 N 0.28728 0.20391 0.29857
 C20 C 0.29911 0.17255 0.31385
 C21 C 0.27380 0.16147 0.33936
 C22 C 0.24673 0.18758 0.33855
 H23 H 0.32401 0.15844 0.30671
 H24 H 0.22213 0.18779 0.35476
 H25 H 0.25673 0.24770 0.25088
 H26 H 0.28126 0.27070 0.28890
 N27 N 0.66930 -0.27068 0.21984
 N28 N 0.68874 -0.29906 0.20942
 C29 C 0.67557 -0.31181 0.17777
 C30 C 0.64631 -0.29027 0.16802
 C31 C 0.64296 -0.26445 0.19524
 H32 H 0.68710 -0.33425 0.16238
 H33 H 0.62374 -0.24204 0.19638
 Cu34 Cu 0.73072 -0.31526 0.23684
 Cu35 Cu 0.68139 -0.24216 0.26289
 Cu36 Cu 0.76192 -0.26476 0.30621
 N37 N 0.77889 -0.32308 0.25663
 N38 N 0.79063 -0.30384 0.28438
 C39 C 0.82449 -0.31485 0.29286
 C40 C 0.83442 -0.34220 0.26897
 C41 C 0.80496 -0.34688 0.24631
 H42 H 0.84084 -0.30363 0.31452
 H43 H 0.80257 -0.36615 0.22417
 N44 N 0.72906 -0.22593 0.32370
 N45 N 0.69864 -0.21686 0.30692
 C46 C 0.68455 -0.18682 0.32291
 C47 C 0.70719 -0.17672 0.35096
 C48 C 0.73501 -0.20205 0.35084
 H49 H 0.66082 -0.17205 0.31361
 H50 H 0.75902 -0.20158 0.36770
 H51 H 0.73639 -0.25249 0.25756
 H52 H 0.71057 -0.28158 0.29061
 N53 N 0.67065 0.27806 0.76891
 N54 N 0.68800 0.30863 0.77594
 C55 C 0.67654 0.32182 0.80824
 C56 C 0.65058 0.29824 0.82194
 C57 C 0.64741 0.27085 0.79637
 H58 H 0.68705 0.34604 0.82131
 H59 H 0.63052 0.24675 0.79828
 Cu60 Cu 0.72548 0.32673 0.74333
 Cu61 Cu 0.68192 0.24797 0.72658
 Cu62 Cu 0.75653 0.27423 0.67492
 N63 N 0.77102 0.33750 0.71882
 N64 N 0.78284 0.31717 0.69173
 C65 C 0.81621 0.32856 0.68177
 C66 C 0.82572 0.35742 0.70394
 C67 C 0.79650 0.36246 0.72713
 H68 H 0.83316 0.31537 0.66154
 H69 H 0.79481 0.38142 0.74965
 N70 N 0.72630 0.23149 0.66294
 N71 N 0.69799 0.22132 0.68274
 C72 C 0.68533 0.18935 0.66983
 C73 C 0.70675 0.17902 0.64071
 C74 C 0.73234 0.20629 0.63692
 H75 H 0.66344 0.17366 0.68182
 H76 H 0.75487 0.20662 0.61793
 H77 H 0.73589 0.26346 0.72620
 H78 H 0.70507 0.28764 0.69368
 N79 N 0.32411 -0.27210 0.77653
 N80 N 0.30718 -0.30296 0.78363
 C81 C 0.32041 -0.31740 0.81467
 C82 C 0.34709 -0.29433 0.82746
 C83 C 0.34883 -0.26594 0.80266
 H84 H 0.31057 -0.34209 0.82764
 H85 H 0.36567 -0.24181 0.80438
 Cu86 Cu 0.26795 -0.31987 0.75289
 Cu87 Cu 0.31028 -0.24020 0.73630
 Cu88 Cu 0.23272 -0.26427 0.68896
 N89 N 0.22141 -0.33000 0.73052
 N90 N 0.20799 -0.30847 0.70514
 C91 C 0.17493 -0.32072 0.69555
 C92 C 0.16731 -0.35134 0.71622
 C93 C 0.19729 -0.35660 0.73815
 H94 H 0.15712 -0.30753 0.67614
 H95 H 0.20082 -0.37738 0.75887
 N96 N 0.26174 -0.22063 0.67698
 N97 N 0.29146 -0.21162 0.69486
 C98 C 0.30376 -0.17940 0.68199
 C99 C 0.28058 -0.16766 0.65495
 C100 C 0.25433 -0.19432 0.65232
 H101 H 0.32692 -0.16475 0.69251
 H102 H 0.23085 -0.19377 0.63471
 H103 H 0.25641 -0.25590 0.73915
 H104 H 0.28513 -0.27841 0.70353
 N105 N 0.69235 -0.24400 0.79909
 N106 N 0.70848 -0.27513 0.80710
 C107 C 0.69328 -0.28912 0.83752
 C108 C 0.66630 -0.26544 0.84899
 C109 C 0.66637 -0.23712 0.82409
 H110 H 0.70115 -0.31458 0.85036
 H111 H 0.64878 -0.21338 0.82413
 Cu112 Cu 0.74754 -0.29457 0.77694
 Cu113 Cu 0.70615 -0.21480 0.75690
 Cu114 Cu 0.78178 -0.24348 0.70833
 N115 N 0.79312 -0.30723 0.75306
 N116 N 0.80606 -0.28751 0.72595
 C117 C 0.83784 -0.30203 0.71475
 C118 C 0.84519 -0.33234 0.73608
 C119 C 0.81637 -0.33489 0.76018
 H120 H 0.85473 -0.29084 0.69330
 H121 H 0.81293 -0.35498 0.78159
 N122 N 0.75333 -0.19964 0.69495
 N123 N 0.72433 -0.18895 0.71341
 C124 C 0.71119 -0.15807 0.69826
 C125 C 0.73304 -0.14888 0.66906
 C126 C 0.75949 -0.17568 0.66763
 H127 H 0.68787 -0.14295 0.70811
 H128 H 0.78175 -0.17722 0.64837
 H129 H 0.72977 -0.25568 0.72575
 H130 H 0.75993 -0.23176 0.75886
 N131 N 0.30869 0.24727 0.80372
 N132 N 0.28900 0.27475 0.81591
 C133 C 0.30410 0.28748 0.84673
 C134 C 0.33461 0.26673 0.85409
 C135 C 0.33679 0.24147 0.82637
 H136 H 0.29373 0.30997 0.86280
 H137 H 0.35735 0.22056 0.82290
 Cu138 Cu 0.24536 0.29076 0.79055
 Cu139 Cu 0.29661 0.22110 0.75943
 Cu140 Cu 0.21876 0.24841 0.71389
 N141 N 0.20090 0.30479 0.76547
 N142 N 0.19096 0.28846 0.73525
 C143 C 0.15970 0.30351 0.72343
 C144 C 0.14952 0.33051 0.74759
 C145 C 0.17613 0.33069 0.77396
 H146 H 0.14532 0.29543 0.69914
 H147 H 0.17738 0.34850 0.79737
 N148 N 0.25048 0.20838 0.69669
 N149 N 0.28007 0.19795 0.71417
 C150 C 0.29470 0.16890 0.69698
 C151 C 0.27329 0.16071 0.66746
 C152 C 0.24554 0.18616 0.66792
 H153 H 0.31841 0.15386 0.70591
 H154 H 0.22276 0.18746 0.64946
 H155 H 0.26862 0.26342 0.73455
 H156 H 0.24112 0.23064 0.76232
 N157 N 0.31479 -0.25780 0.21031
 N158 N 0.29901 -0.28951 0.20464
 C159 C 0.31128 -0.30358 0.17304
 C160 C 0.33603 -0.27933 0.15826
 C161 C 0.33769 -0.25062 0.18250
 H162 H 0.30252 -0.32924 0.16147
 H163 H 0.35424 -0.22633 0.17997
 Cu164 Cu 0.26287 -0.30866 0.23825
 Cu165 Cu 0.30453 -0.22840 0.25334
 Cu166 Cu 0.23959 -0.26237 0.31344
 N167 N 0.21764 -0.31859 0.26396
 N168 N 0.20860 -0.30042 0.29349
 C169 C 0.17606 -0.31230 0.30554
 C170 C 0.16411 -0.33913 0.28210
 C171 C 0.19106 -0.34250 0.25603
 H172 H 0.16187 -0.30166 0.32912
 H173 H 0.19100 -0.36054 0.23274
 N174 N 0.26604 -0.21635 0.32165
 N175 N 0.29044 -0.20313 0.29866
 C176 C 0.30228 -0.17069 0.31122
 C177 C 0.28429 -0.16321 0.34337
 C178 C 0.26154 -0.19260 0.34926
 H179 H 0.32188 -0.15329 0.29768
 H180 H 0.24246 -0.19599 0.37148
 H181 H 0.28917 -0.27055 0.28655
 H182 H 0.25189 -0.24735 0.26112
 N183 N 0.69600 0.24989 0.20255
 N184 N 0.71124 0.28195 0.19707
 C185 C 0.69765 0.29695 0.16647
 C186 C 0.67260 0.27295 0.15216
 C187 C 0.67214 0.24341 0.17564
 H188 H 0.70567 0.32312 0.15528
 H189 H 0.65591 0.21893 0.17306
 Cu190 Cu 0.74787 0.30076 0.22991
 Cu191 Cu 0.70893 0.21881 0.24373
 Cu192 Cu 0.78257 0.24635 0.29529
 N193 N 0.79284 0.31277 0.25455
 N194 N 0.80628 0.29162 0.28023
 C195 C 0.83785 0.30594 0.29188
 C196 C 0.84445 0.33754 0.27230
 C197 C 0.81544 0.34113 0.24885
 H198 H 0.85519 0.29386 0.31239
 H199 H 0.81146 0.36234 0.22866
 N200 N 0.75467 0.20153 0.30595
 N201 N 0.72637 0.19130 0.28648
 C202 C 0.71318 0.15983 0.30027
 C203 C 0.73427 0.14980 0.32961
 C204 C 0.76032 0.17668 0.33253
 H205 H 0.69023 0.14500 0.28953
 H206 H 0.78182 0.17783 0.35247
 H207 H 0.73038 0.25810 0.27807
 H208 H 0.76207 0.23737 0.24384
 C209 C 0.28590 -0.00012 0.40532
 C210 C 0.28222 0.03296 0.42392
 C211 C 0.28174 0.03305 0.46208
 C212 C 0.28763 0.00060 0.48232
 C213 C 0.29318 -0.03216 0.46257
 C214 C 0.29082 -0.03281 0.42448
 C215 C 0.28699 0.00078 0.52347
 C216 C 0.28317 -0.03208 0.54359
 C217 C 0.28263 -0.03208 0.58172
 C218 C 0.28355 0.00110 0.60042
 C219 C 0.28624 0.03411 0.58140
 C220 C 0.28935 0.03384 0.54335
 H221 H 0.28475 -0.00044 0.37584
 H222 H 0.27617 0.05861 0.47545
 H223 H 0.29890 -0.05756 0.47630
 H224 H 0.28016 -0.05817 0.53034
 H225 H 0.28194 0.00153 0.62983
 H226 H 0.29347 0.05968 0.52984
 C227 C 0.71412 0.01114 0.59478
 C228 C 0.70779 0.04134 0.57223
 C229 C 0.70523 0.03643 0.53452
 C230 C 0.71146 0.00185 0.51858
 C231 C 0.71844 -0.02810 0.54198
 C232 C 0.71888 -0.02375 0.57990
 C233 C 0.71156 -0.00264 0.47789
 C234 C 0.70550 -0.03712 0.46174
 C235 C 0.70764 -0.04152 0.42387
 C236 C 0.71365 -0.01107 0.40156
 C237 C 0.71874 0.02353 0.41673
 C238 C 0.71855 0.02746 0.45466
 H239 H 0.71536 0.01511 0.62392
 H240 H 0.69854 0.05983 0.51787
 H241 H 0.72409 -0.05501 0.53122
 H242 H 0.69921 -0.06073 0.47826
 H243 H 0.71457 -0.01465 0.37234
 H244 H 0.72447 0.05421 0.46554
 C245 C 0.41139 0.28766 0.00821
 C246 C 0.43247 0.29328 0.03923
 C247 C 0.47025 0.29723 0.03581
 C248 C 0.48767 0.29306 0.00169
 C249 C 0.46569 0.28613 -0.02901
 C250 C 0.42773 0.28463 -0.02600
 C251 C 0.52841 0.29492 -0.00188
 C252 C 0.54501 0.30206 -0.03589
 C253 C 0.58285 0.30053 -0.04018
 C254 C 0.60487 0.29506 -0.00970
 C255 C 0.58925 0.28961 0.02471
 C256 C 0.55128 0.28850 0.02829
 H257 H 0.38211 0.28523 0.01077
 H258 H 0.48568 0.30337 0.05992
 H259 H 0.47771 0.28103 -0.05533
 H260 H 0.52875 0.30849 -0.05940
 H261 H 0.63410 0.29450 -0.01310
 H262 H 0.54012 0.28204 0.05478
 C263 C 0.59270 0.71106 0.00543
 C264 C 0.57211 0.70453 0.03685
 C265 C 0.53433 0.70039 0.03420
 C266 C 0.51629 0.70560 0.00069
 C267 C 0.53773 0.71347 -0.03039
 C268 C 0.57576 0.71498 -0.02832
 C269 C 0.47547 0.70391 -0.00167
 C270 C 0.45799 0.69797 -0.03529
 C271 C 0.42002 0.69935 -0.03811
 C272 C 0.39883 0.70365 -0.00670
 C273 C 0.41535 0.70809 0.02722
 C274 C 0.45337 0.70929 0.02944
 H275 H 0.62200 0.71358 0.00733
 H276 H 0.51931 0.69339 0.05849
 H277 H 0.52521 0.71912 -0.05628
 H278 H 0.47361 0.69256 -0.05959
 H279 H 0.36951 0.70410 -0.00899
 H280 H 0.46516 0.71502 0.05568
 C281 C 0.00354 0.40685 0.27235
 C282 C 0.03589 0.42668 0.27022
 C283 C 0.03482 0.46501 0.27097
 C284 C 0.00175 0.48400 0.27657
 C285 C -0.03025 0.46297 0.28102
 C286 C -0.02961 0.42480 0.27751
 C287 C 0.00044 0.52525 0.27711
 C288 C -0.03264 0.54412 0.27160
 C289 C -0.03441 0.58237 0.27290
 C290 C -0.00247 0.60258 0.27678
 C291 C 0.03097 0.58475 0.28097
 C292 C 0.03212 0.54640 0.28241
 H293 H 0.00421 0.37726 0.27038
 H294 H 0.05992 0.47953 0.26660
 H295 H -0.05596 0.47582 0.28705
 H296 H -0.05727 0.52952 0.26567
 H297 H -0.00392 0.63214 0.27656
 H298 H 0.05812 0.53367 0.28756
 C299 C 0.00408 0.59757 0.72623
 C300 C 0.03504 0.57609 0.72066
 C301 C 0.03178 0.53803 0.71884
 C302 C -0.00194 0.52069 0.72495
 C303 C -0.03292 0.54301 0.73059
 C304 C -0.03011 0.58133 0.73044
 C305 C -0.00431 0.47966 0.72571
 C306 C -0.03718 0.46142 0.71819
 C307 C -0.03927 0.42312 0.71953
 C308 C -0.00787 0.40255 0.72650
 C309 C 0.02523 0.41992 0.73312
 C310 C 0.02659 0.45819 0.73400
 H311 H 0.00687 0.62701 0.72677
 H312 H 0.05579 0.52217 0.71271
 H313 H -0.05935 0.53107 0.73553
 H314 H -0.06143 0.47658 0.71110
 H315 H -0.00888 0.37298 0.72669
 H316 H 0.05186 0.47096 0.74152
 C317 C 0.43138 0.29614 0.11381
 C318 C 0.40035 0.32257 0.12535
 C319 C 0.37763 0.28950 0.13770
 C320 C 0.40833 0.26309 0.12670
 C321 C 0.36047 0.28647 0.09977
 C322 C 0.38340 0.31950 0.08691
 C323 C 0.41410 0.29308 0.07581
 C324 C 0.39134 0.26006 0.08842
 H325 H 0.46061 0.30017 0.11994
 H326 H 0.40379 0.34826 0.14097
 H327 H 0.41853 0.23979 0.14323
 H328 H 0.33109 0.28240 0.09430
 H329 H 0.37334 0.34276 0.07022
 H330 H 0.38776 0.23429 0.07294
 C331 C 0.57326 0.69930 0.11110
 C332 C 0.60539 0.67403 0.12203
 C333 C 0.62635 0.70777 0.13522
 C334 C 0.59455 0.73303 0.12482
 C335 C 0.64379 0.71280 0.09744
 C336 C 0.62253 0.67910 0.08369
 C337 C 0.59070 0.70436 0.07319
 C338 C 0.61176 0.73803 0.08664
 H339 H 0.54426 0.69364 0.11730
 H340 H 0.60299 0.64771 0.13698
 H341 H 0.58296 0.75536 0.14173
 H342 H 0.67298 0.71846 0.09212
 H343 H 0.63382 0.65687 0.06646
 H344 H 0.61426 0.76440 0.07177
 C345 C 0.62297 0.26973 -0.09181
 C346 C 0.60325 0.27260 -0.12878
 C347 C 0.63213 0.30007 -0.14178
 C348 C 0.65206 0.29720 -0.10518
 C349 C 0.60917 0.33225 -0.12764
 C350 C 0.58001 0.30475 -0.11422
 C351 C 0.59990 0.30185 -0.07746
 C352 C 0.62882 0.32936 -0.09043
 H353 H 0.62854 0.24393 -0.07681
 H354 H 0.59265 0.24910 -0.14454
 H355 H 0.68188 0.29401 -0.10182
 H356 H 0.60370 0.35799 -0.14279
 H357 H 0.55037 0.30793 -0.11878
 H358 H 0.63915 0.35275 -0.07433
 C359 C 0.42030 0.69736 -0.11239
 C360 C 0.39069 0.67018 -0.12509
 C361 C 0.36714 0.70272 -0.13736
 C362 C 0.39646 0.72987 -0.12509
 C363 C 0.34865 0.70443 -0.09979
 C364 C 0.37247 0.67191 -0.08694
 C365 C 0.40181 0.69910 -0.07468
 C366 C 0.37817 0.73157 -0.08718
 H367 H 0.44976 0.69439 -0.11831
 H368 H 0.39560 0.64493 -0.14110
 H369 H 0.40640 0.75386 -0.14079
 H370 H 0.31898 0.70743 -0.09495
 H371 H 0.36280 0.64801 -0.07093
 H372 H 0.37313 0.75690 -0.07132
 C373 C 0.08064 0.37520 0.29478
 C374 C 0.09309 0.35139 0.26230
 C375 C 0.13158 0.36714 0.26608
 C376 C 0.11948 0.39069 0.29852
 C377 C 0.12255 0.39826 0.23934
 C378 C 0.08351 0.38277 0.23560
 C379 C 0.07136 0.40637 0.26807
 C380 C 0.10996 0.42215 0.27185
 H381 H 0.06316 0.36585 0.31768
 H382 H 0.08648 0.32205 0.25840
 H383 H 0.13462 0.39368 0.32442
 H384 H 0.14009 0.40753 0.21646
 H385 H 0.06838 0.37975 0.20971
 H386 H 0.11734 0.45126 0.27592
 C387 C 0.08087 0.62587 0.69214
 C388 C 0.09718 0.64727 0.72447
 C389 C 0.13418 0.62908 0.71698
 C390 C 0.11841 0.60800 0.68460
 C391 C 0.12501 0.59743 0.74305
 C392 C 0.08756 0.61538 0.75053
 C393 C 0.07157 0.59419 0.71821
 C394 C 0.10871 0.57602 0.71070
 H395 H 0.06240 0.63737 0.67117
 H396 H 0.09276 0.67675 0.73020
 H397 H 0.13149 0.60518 0.65745
 H398 H 0.14319 0.58570 0.76414
 H399 H 0.07454 0.61827 0.77770
 H400 H 0.11404 0.54673 0.70483
 C401 C -0.08211 0.62722 0.23949
 C402 C -0.12046 0.60963 0.24047
 C403 C -0.13236 0.63820 0.26877
 C404 C -0.09460 0.65611 0.26772
 C405 C -0.12069 0.61294 0.30010
 C406 C -0.10834 0.58406 0.27187
 C407 C -0.07039 0.60186 0.27082
 C408 C -0.08249 0.63051 0.29908
 H409 H -0.06590 0.63288 0.21455
 H410 H -0.13619 0.60110 0.21623
 H411 H -0.08930 0.68595 0.26603
 H412 H -0.13687 0.60727 0.32508
 H413 H -0.11479 0.55448 0.27376
 H414 H -0.06659 0.63893 0.32326
 C415 C -0.09925 0.40848 0.68022
 C416 C -0.10690 0.36679 0.68166
 C417 C -0.13977 0.37425 0.70658
 C418 C -0.13273 0.41565 0.70503
 C419 C -0.11592 0.37042 0.74061
 C420 C -0.08259 0.36314 0.71580
 C421 C -0.07531 0.40462 0.71428
 C422 C -0.10834 0.41201 0.73912
 H423 H -0.09201 0.42428 0.65538
 H424 H -0.10634 0.34818 0.65784
 H425 H -0.15371 0.43707 0.70057
 H426 H -0.12310 0.35465 0.76549
 H427 H -0.06255 0.34084 0.72019
 H428 H -0.10861 0.43074 0.76285
 C429 C 0.30824 0.08019 0.37492
 C430 C 0.27790 0.08874 0.34710
 C431 C 0.27522 0.12777 0.36236
 C432 C 0.30553 0.11963 0.38988
 C433 C 0.24606 0.11570 0.38999
 C434 C 0.24879 0.07619 0.37502
 C435 C 0.27911 0.06799 0.40261
 C436 C 0.27644 0.10716 0.41783
 H437 H 0.33390 0.06529 0.36891
 H438 H 0.27852 0.08151 0.31778
 H439 H 0.32890 0.13782 0.39572
 H440 H 0.22036 0.13049 0.39609
 H441 H 0.22543 0.05802 0.36912
 H442 H 0.27582 0.11550 0.44685
 C443 C 0.70005 0.11577 0.56924
 C444 C 0.67359 0.12757 0.60007
 C445 C 0.70594 0.14318 0.62127
 C446 C 0.73237 0.13188 0.59073
 C447 C 0.71168 0.10636 0.64078
 C448 C 0.67937 0.09021 0.61935
 C449 C 0.70582 0.07886 0.58880
 C450 C 0.73810 0.09470 0.61008
 H451 H 0.69516 0.12021 0.53977
 H452 H 0.64704 0.14151 0.59617
 H453 H 0.75428 0.14911 0.57894
 H454 H 0.71651 0.10281 0.67039
 H455 H 0.65753 0.07275 0.63095
 H456 H 0.76471 0.08090 0.61409
 C457 C 0.28062 -0.07301 0.64369
 C458 C 0.25118 -0.10280 0.63907
 C459 C 0.28133 -0.13177 0.63547
 C460 C 0.31075 -0.10242 0.64027
 C461 C 0.28225 -0.12673 0.59393
 C462 C 0.25212 -0.09722 0.59725
 C463 C 0.28155 -0.06780 0.60205
 C464 C 0.31168 -0.09690 0.59848
 H465 H 0.27984 -0.05142 0.66484
 H466 H 0.22624 -0.10564 0.65596
 H467 H 0.33504 -0.10467 0.65797
 H468 H 0.28297 -0.14919 0.57367
 H469 H 0.22793 -0.09471 0.57944
 H470 H 0.33663 -0.09414 0.58159
 C471 C 0.67845 -0.08937 0.37679
 C472 C 0.71035 -0.10431 0.35358
 C473 C 0.70589 -0.14183 0.37202
 C474 C 0.67394 -0.12743 0.39503
 C475 C 0.73304 -0.13120 0.40188
 C476 C 0.73750 -0.09336 0.38357
 C477 C 0.70564 -0.07868 0.40663
 C478 C 0.70113 -0.11625 0.42519
 H479 H 0.65596 -0.07184 0.36666
 H480 H 0.71420 -0.09969 0.32392
 H481 H 0.64778 -0.14186 0.39949
 H482 H 0.75560 -0.14851 0.41223
 H483 H 0.76374 -0.07908 0.37896
 H484 H 0.69727 -0.12154 0.45472
 C485 C 0.62859 0.69379 -0.07377
 C486 C 0.61569 0.69768 -0.11365
 C487 C 0.64181 0.73004 -0.11874
 C488 C 0.65502 0.72622 -0.07927
 C489 C 0.61198 0.75713 -0.10691
 C490 C 0.58553 0.72467 -0.10143
 C491 C 0.59870 0.72084 -0.06182
 C492 C 0.62490 0.75322 -0.06699
 H493 H 0.63522 0.66761 -0.05987
 H494 H 0.61219 0.67481 -0.13313
 H495 H 0.68385 0.72689 -0.07047
 H496 H 0.60524 0.78334 -0.12067
 H497 H 0.55706 0.72407 -0.11125
 H498 H 0.62845 0.77609 -0.04751
 C499 C 0.38025 0.24566 -0.06508
 C500 C 0.34788 0.27110 -0.07444
 C501 C 0.35994 0.27094 -0.11456
 C502 C 0.39202 0.24541 -0.10565
 C503 C 0.38381 0.30478 -0.10847
 C504 C 0.37207 0.30501 -0.06796
 C505 C 0.40420 0.27950 -0.05892
 C506 C 0.41623 0.27935 -0.09916
 H507 H 0.37904 0.22134 -0.04695
 H508 H 0.31951 0.26769 -0.06459
 H509 H 0.40011 0.22075 -0.12130
 H510 H 0.38496 0.32909 -0.12661
 H511 H 0.36407 0.32964 -0.05221
 H512 H 0.44426 0.28282 -0.10989
 C513 C 0.35114 0.71133 0.06462
 C514 C 0.35422 0.68440 0.09708
 C515 C 0.35647 0.71711 0.12319
 C516 C 0.35316 0.74409 0.09119
 C517 C 0.39815 0.71750 0.12001
 C518 C 0.39617 0.68476 0.09348
 C519 C 0.39293 0.71171 0.06137
 C520 C 0.39513 0.74443 0.08755
 H521 H 0.33124 0.70888 0.04216
 H522 H 0.33733 0.65959 0.10115
 H523 H 0.33525 0.76858 0.09063
 H524 H 0.41730 0.72002 0.14313
 H525 H 0.41407 0.66026 0.09414
 H526 H 0.41211 0.76915 0.08331
 C527 C 0.65448 0.28525 0.05952
 C528 C 0.65234 0.31107 0.09280
 C529 C 0.65097 0.27750 0.11808
 C530 C 0.65335 0.25161 0.08525
 C531 C 0.60921 0.27709 0.11655
 C532 C 0.61031 0.31071 0.09085
 C533 C 0.61262 0.28485 0.05790
 C534 C 0.61128 0.25127 0.08326
 H535 H 0.67371 0.28852 0.03639
 H536 H 0.66928 0.33580 0.09684
 H537 H 0.67127 0.22721 0.08331
 H538 H 0.59079 0.27373 0.14033
 H539 H 0.59239 0.33512 0.09288
 H540 H 0.59423 0.22665 0.07902
 C541 C -0.09424 0.60097 0.76181
 C542 C -0.09524 0.64319 0.76578
 C543 C -0.12326 0.64529 0.73493
 C544 C -0.12289 0.60342 0.73102
 C545 C -0.09281 0.64906 0.70637
 C546 C -0.06439 0.64678 0.73718
 C547 C -0.06373 0.60479 0.73321
 C548 C -0.09197 0.60691 0.70245
 H549 H -0.09453 0.58103 0.78466
 H550 H -0.09689 0.65834 0.79189
 H551 H -0.14728 0.58580 0.72844
 H552 H -0.09203 0.66874 0.68330
 H553 H -0.04089 0.66548 0.74008
 H554 H -0.09036 0.59177 0.67634
 C555 C -0.07140 0.36953 0.30228
 C556 C -0.11095 0.38310 0.30819
 C557 C -0.12274 0.36146 0.27445
 C558 C -0.08368 0.34757 0.26854
 C559 C -0.11553 0.39477 0.24980
 C560 C -0.10331 0.41675 0.28354
 C561 C -0.06414 0.40286 0.27761
 C562 C -0.07610 0.38111 0.24392
 H563 H -0.05297 0.35936 0.32394
 H564 H -0.12564 0.38364 0.33465
 H565 H -0.07590 0.31890 0.26230
 H566 H -0.13375 0.40513 0.22806
 H567 H -0.11199 0.44514 0.28985
 H568 H -0.06150 0.38046 0.21741
 C569 C 0.07140 0.36852 0.71003
 C570 C 0.11095 0.38219 0.71378
 C571 C 0.11682 0.35475 0.74498
 C572 C 0.07763 0.34077 0.74129
 C573 C 0.10465 0.38337 0.77314
 C574 C 0.09839 0.41116 0.74185
 C575 C 0.05906 0.39722 0.73815
 C576 C 0.06497 0.36970 0.76937
 H577 H 0.05749 0.36257 0.68396
 H578 H 0.13016 0.38708 0.69089
 H579 H 0.06940 0.31158 0.74106
 H580 H 0.11852 0.38934 0.79922
 H581 H 0.10764 0.44003 0.74205
 H582 H 0.04576 0.36479 0.79225
 C583 C 0.07001 0.64807 0.28060
 C584 C 0.09829 0.64608 0.31167
 C585 C 0.12860 0.64106 0.28312
 C586 C 0.10076 0.64326 0.25211
 C587 C 0.12454 0.59925 0.28505
 C588 C 0.09373 0.60396 0.31358
 C589 C 0.06584 0.60616 0.28253
 C590 C 0.09628 0.60123 0.25403
 H591 H 0.04799 0.66879 0.27879
 H592 H 0.09932 0.66466 0.33549
 H593 H 0.10399 0.65956 0.22676
 H594 H 0.14732 0.57935 0.28685
 H595 H 0.09052 0.58763 0.33891
 H596 H 0.09519 0.58261 0.23023
 C597 C 0.72664 -0.05648 0.64604
 C598 C 0.69851 -0.08778 0.64801
 C599 C 0.72966 -0.11579 0.64523
 C600 C 0.75786 -0.08487 0.64346
 C601 C 0.72670 -0.11612 0.60349
 C602 C 0.69550 -0.08771 0.60600
 C603 C 0.72363 -0.05664 0.60420
 C604 C 0.75483 -0.08468 0.60138
 H605 H 0.72685 -0.03237 0.66432
 H606 H 0.67513 -0.08905 0.66718
 H607 H 0.78361 -0.08405 0.65908
 H608 H 0.72673 -0.14098 0.58621
 H609 H 0.66974 -0.08861 0.59040
 H610 H 0.77804 -0.08309 0.58202
 C611 C 0.25676 -0.08168 0.38405
 C612 C 0.28037 -0.09055 0.35028
 C613 C 0.28698 -0.12916 0.36562
 C614 C 0.26334 -0.12066 0.39918
 C615 C 0.32124 -0.11606 0.38549
 C616 C 0.31462 -0.07694 0.37045
 C617 C 0.29095 -0.06840 0.40404
 C618 C 0.29759 -0.10712 0.41938
 H619 H 0.23016 -0.06725 0.38361
 H620 H 0.27320 -0.08405 0.32165
 H621 H 0.24209 -0.13869 0.41100
 H622 H 0.34777 -0.13060 0.38582
 H623 H 0.33580 -0.05868 0.35883
 H624 H 0.30488 -0.11457 0.44774
 C625 C 0.69560 0.08783 0.39123
 C626 C 0.72675 0.11602 0.39437
 C627 C 0.73037 0.11626 0.35265
 C628 C 0.69926 0.08849 0.34924
 C629 C 0.75855 0.08519 0.35417
 C630 C 0.75486 0.08443 0.39620
 C631 C 0.72371 0.05661 0.39278
 C632 C 0.72738 0.05699 0.35097
 H633 H 0.66960 0.08864 0.40668
 H634 H 0.72650 0.14063 0.41199
 H635 H 0.67622 0.09021 0.32990
 H636 H 0.78454 0.08447 0.33870
 H637 H 0.77776 0.08244 0.41569
 H638 H 0.72789 0.03309 0.33243
 C639 C 0.28517 0.10888 0.58771
 C640 C 0.25165 0.11834 0.61163
 C641 C 0.27721 0.12831 0.64305
 C642 C 0.31071 0.11935 0.61951
 C643 C 0.27606 0.08884 0.65755
 C644 C 0.25053 0.07852 0.62593
 C645 C 0.28401 0.06933 0.60231
 C646 C 0.30956 0.07942 0.63375
 H647 H 0.28898 0.11755 0.55897
 H648 H 0.22771 0.13449 0.60263
 H649 H 0.33544 0.13655 0.61714
 H650 H 0.27220 0.08088 0.68650
 H651 H 0.22573 0.06143 0.62843
 H652 H 0.33347 0.06314 0.64265
   
