data_POSCAR
  _audit_creation_date              2014-09-24
  _audit_creation_method            'ToBaCCo'
  _symmetry_space_group_name_H-M    'P1'
  _symmetry_Int_Tables_number       1
  _symmetry_cell_setting            triclinic
  loop_
  _symmetry_equiv_pos_as_xyz
 x,y,z
_cell_length_a 26.8930
_cell_length_b 23.7069
_cell_length_c 20.2708
_cell_angle_alpha 90.558900
_cell_angle_beta 89.490400
_cell_angle_gamma 89.518300
loop_
  _atom_site_label
  _atom_site_type_symbol
  _atom_site_fract_x
  _atom_site_fract_y
  _atom_site_fract_z
Si1 Si 1.25111 0.24373 0.24136
 Si2 Si 0.75545 -0.24830 0.25668
 Si3 Si 0.75681 0.25082 -0.24492
 Si4 Si 1.24802 -0.24848 -0.26697
 Si5 Si 0.24239 0.25289 0.75653
 Si6 Si 0.75701 0.75171 0.75166
 Si7 Si 0.75512 0.25253 0.24622
 Si8 Si 0.24775 0.76095 0.26725
 O9 O 1.07770 0.08360 0.12239
 O10 O 1.13194 0.03452 0.05579
 C11 C 1.12246 0.06913 0.10406
 O12 O 0.93589 -0.11350 0.09819
 O13 O 0.87983 -0.05202 0.05375
 C14 C 0.89089 -0.09602 0.08848
 O15 O 1.07258 -0.10676 0.10971
 O16 O 1.12893 -0.06061 0.04568
 C17 C 1.11768 -0.09711 0.09050
 O18 O 0.93979 0.09718 0.12094
 O19 O 0.88268 0.04832 0.05972
 C20 C 0.89494 0.08587 0.10330
 Zr21 Zr 1.00695 0.06198 0.08680
 O22 O 1.00214 0.05639 0.19089
 O23 O 1.01180 0.15095 0.09113
 Zr24 Zr 1.00445 -0.07925 0.07305
 O25 O 0.99842 -0.09020 0.17624
 O26 O 1.00762 -0.16752 0.05720
 O27 O 1.05017 -0.01086 0.09228
 O28 O 0.96223 -0.00807 0.09379
 O29 O 0.93560 0.10659 -0.10483
 O30 O 0.87996 0.05049 -0.05008
 C31 C 0.89065 0.09148 -0.08922
 O32 O 1.07039 -0.09364 -0.13587
 O33 O 1.12757 -0.05003 -0.06980
 C34 C 1.11554 -0.08149 -0.11972
 O35 O 0.93226 -0.09737 -0.12139
 O36 O 0.87812 -0.04719 -0.05477
 C37 C 0.88788 -0.08507 -0.09950
 O38 O 1.07592 0.09939 -0.11188
 O39 O 1.13069 0.04371 -0.05467
 C40 C 1.12044 0.08306 -0.09598
 Zr41 Zr 1.00540 0.07198 -0.07855
 O42 O 1.00045 0.07811 -0.18244
 O43 O 1.01017 0.16086 -0.07134
 Zr44 Zr 1.00279 -0.06962 -0.09124
 O45 O 0.99723 -0.07118 -0.19515
 O46 O 1.00412 -0.15877 -0.08905
 Zr47 Zr 1.07943 -0.00620 -0.00420
 Zr48 Zr 0.93040 -0.00145 -0.00006
 O49 O 0.96058 0.00310 -0.09601
 O50 O 1.04838 0.00069 -0.09926
 O51 O 0.96200 0.07936 0.00633
 O52 O 1.04742 -0.08639 -0.01142
 O53 O 1.04961 0.07605 0.00408
 O54 O 0.95906 -0.08408 -0.00865
 H55 H 0.94011 -0.00973 0.13303
 H56 H 1.06965 -0.11984 -0.01546
 H57 H 0.93777 0.00535 -0.13404
 H58 H 1.07209 0.10887 0.00716
 H59 H 1.00754 -0.18483 0.10151
 H60 H 1.00355 -0.17160 -0.13570
 H61 H 1.00071 -0.03181 -0.20981
 H62 H 1.02972 0.05833 -0.20187
 H63 H 0.98939 0.17281 -0.03308
 H64 H 1.01386 0.16131 0.13852
 H65 H 1.03124 0.03433 0.20589
 H66 H 1.01835 -0.06020 0.19710
 O67 O 1.09003 0.41193 0.60977
 O68 O 1.04644 0.34886 0.54612
 C69 C 1.08040 0.36161 0.58931
 O70 O 0.91068 0.56647 0.61577
 O71 O 0.95730 0.63358 0.56311
 C72 C 0.92354 0.61821 0.60611
 O73 O 0.90828 0.41429 0.60695
 O74 O 0.95305 0.35010 0.54388
 C75 C 0.91779 0.36366 0.58638
 O76 O 1.09325 0.56420 0.61212
 O77 O 1.04867 0.63208 0.55701
 C78 C 1.08370 0.61581 0.59688
 Zr79 Zr 1.06256 0.48922 0.57808
 O80 O 1.05520 0.48738 0.68207
 O81 O 1.14139 0.48728 0.57550
 Zr82 Zr 0.93979 0.49053 0.57868
 O83 O 0.94607 0.48800 0.68274
 O84 O 0.86121 0.49035 0.58409
 O85 O 1.00108 0.43733 0.58863
 O86 O 1.00136 0.54008 0.59312
 O87 O 1.09704 0.57054 0.38974
 O88 O 1.04809 0.63520 0.44519
 C89 C 1.08539 0.62184 0.40584
 O90 O 0.91638 0.42006 0.37187
 O91 O 0.95866 0.35223 0.42970
 C92 C 0.92711 0.36820 0.38505
 O93 O 0.90915 0.57150 0.38522
 O94 O 0.95195 0.63512 0.44912
 C95 C 0.91771 0.62172 0.40614
 O96 O 1.09072 0.41842 0.37297
 O97 O 1.04793 0.35179 0.43225
 C98 C 1.08101 0.36689 0.38849
 Zr99 Zr 1.06322 0.49450 0.41254
 O100 O 1.05741 0.50373 0.30901
 O101 O 1.14166 0.48978 0.40584
 Zr102 Zr 0.94065 0.49568 0.41318
 O103 O 0.94217 0.49596 0.30850
 O104 O 0.86195 0.49464 0.41787
 Zr105 Zr 1.00156 0.40610 0.49110
 Zr106 Zr 1.00143 0.57905 0.50032
 O107 O 1.00200 0.54660 0.40356
 O108 O 1.00210 0.44377 0.39720
 O109 O 1.07282 0.54196 0.49802
 O110 O 0.93095 0.44456 0.49280
 O111 O 1.07242 0.44282 0.49267
 O112 O 0.92995 0.54371 0.49889
 H113 H 1.00206 0.56393 0.63351
 H114 H 0.90039 0.42227 0.48972
 H115 H 1.00246 0.57428 0.36729
 H116 H 1.10308 0.41937 0.49135
 H117 H 0.84901 0.50757 0.54297
 H118 H 0.84994 0.49253 0.37180
 H119 H 0.95647 0.53183 0.29306
 H120 H 1.04038 0.47001 0.29137
 H121 H 1.15445 0.49956 0.45008
 H122 H 1.15326 0.48552 0.62161
 H123 H 1.08923 0.48864 0.70026
 H124 H 0.96032 0.45095 0.69500
 O125 O 0.57805 0.09287 0.63299
 O126 O 0.63301 0.04822 0.56207
 C127 C 0.62271 0.08031 0.61283
 O128 O 0.43863 -0.10280 0.60604
 O129 O 0.38190 -0.04343 0.55725
 C130 C 0.39384 -0.08690 0.59306
 O131 O 0.57462 -0.10227 0.60575
 O132 O 0.63100 -0.04899 0.54927
 C133 C 0.61993 -0.08949 0.58975
 O134 O 0.44053 0.10640 0.62980
 O135 O 0.38214 0.06042 0.56741
 C136 C 0.39505 0.09631 0.61304
 Zr137 Zr 0.50814 0.07211 0.59440
 O138 O 0.50363 0.06490 0.69819
 O139 O 0.51316 0.16090 0.60205
 Zr140 Zr 0.50591 -0.06783 0.57586
 O141 O 0.50161 -0.07340 0.68007
 O142 O 0.50835 -0.15670 0.56496
 O143 O 0.55217 -0.00053 0.59671
 O144 O 0.46295 0.00250 0.59857
 O145 O 0.43872 0.12682 0.40959
 O146 O 0.38083 0.07101 0.46008
 C147 C 0.39333 0.11507 0.42553
 O148 O 0.57009 -0.07621 0.36476
 O149 O 0.62824 -0.03899 0.43397
 C150 C 0.61551 -0.06953 0.38326
 O151 O 0.43512 -0.08036 0.37575
 O152 O 0.37967 -0.03493 0.44505
 C153 C 0.39046 -0.07024 0.39688
 O154 O 0.57392 0.11668 0.39461
 O155 O 0.63061 0.05964 0.44684
 C156 C 0.61869 0.10038 0.40723
 Zr157 Zr 0.50625 0.08676 0.43030
 O158 O 0.50188 0.08909 0.32630
 O159 O 0.51305 0.17534 0.43699
 Zr160 Zr 0.50335 -0.05251 0.41106
 O161 O 0.49749 -0.04438 0.30750
 O162 O 0.50446 -0.14165 0.40572
 Zr163 Zr 0.58134 0.00691 0.50020
 Zr164 Zr 0.43023 0.01185 0.50525
 O165 O 0.46024 0.01984 0.40995
 O166 O 0.54976 0.01686 0.40622
 O167 O 0.46309 0.09192 0.51536
 O168 O 0.54785 -0.07243 0.49016
 O169 O 0.55107 0.08847 0.51232
 O170 O 0.45992 -0.07009 0.49350
 H171 H 0.44089 0.00028 0.63786
 H172 H 0.56908 -0.10654 0.48460
 H173 H 0.43692 0.02439 0.37273
 H174 H 0.57360 0.12119 0.51615
 H175 H 0.48704 -0.16654 0.52707
 H176 H 0.50456 -0.15183 0.35818
 H177 H 0.51900 -0.01270 0.29427
 H178 H 0.50147 0.12951 0.31432
 H179 H 0.50410 0.18605 0.48284
 H180 H 0.51406 0.17013 0.64983
 H181 H 0.52606 0.03373 0.71073
 H182 H 0.53365 -0.06080 0.69847
 O183 O 0.56765 0.60105 0.12845
 O184 O 0.62365 0.55270 0.06235
 C185 C 0.61274 0.58751 0.11074
 O186 O 0.42753 0.40200 0.11396
 O187 O 0.37174 0.45741 0.05782
 C188 C 0.38262 0.41626 0.09753
 O189 O 0.56584 0.40334 0.11758
 O190 O 0.62252 0.45373 0.05683
 C191 C 0.61102 0.41583 0.10046
 O192 O 0.43073 0.60734 0.12990
 O193 O 0.37338 0.56015 0.06708
 C194 C 0.38539 0.59584 0.11381
 Zr195 Zr 0.49849 0.57685 0.08952
 O196 O 0.49808 0.58151 0.19371
 O197 O 0.50297 0.66598 0.08517
 Zr198 Zr 0.49695 0.43516 0.08350
 O199 O 0.49234 0.43468 0.18787
 O200 O 0.50120 0.34594 0.08052
 O201 O 0.54262 0.50456 0.09893
 O202 O 0.45396 0.50646 0.09934
 O203 O 0.43020 0.61383 -0.10901
 O204 O 0.37274 0.56251 -0.05082
 C205 C 0.38486 0.59992 -0.09502
 O206 O 0.56491 0.41205 -0.12356
 O207 O 0.62188 0.45689 -0.05914
 C208 C 0.61052 0.42277 -0.10742
 O209 O 0.42665 0.40886 -0.11345
 O210 O 0.37117 0.46277 -0.05370
 C211 C 0.38139 0.42327 -0.09702
 O212 O 0.56661 0.60802 -0.11459
 O213 O 0.62282 0.55595 -0.05521
 C214 C 0.61156 0.59360 -0.09934
 Zr215 Zr 0.49812 0.58120 -0.07496
 O216 O 0.49604 0.59059 -0.17850
 O217 O 0.49986 0.66941 -0.05913
 Zr218 Zr 0.49644 0.43952 -0.08210
 O219 O 0.48974 0.44247 -0.18609
 O220 O 0.50158 0.35032 -0.08597
 Zr221 Zr 0.57318 0.50611 0.00244
 Zr222 Zr 0.42178 0.50992 0.00512
 O223 O 0.45392 0.51148 -0.08981
 O224 O 0.54199 0.50956 -0.09264
 O225 O 0.45298 0.59121 0.00846
 O226 O 0.54014 0.42585 -0.00072
 O227 O 0.54260 0.58813 0.00694
 O228 O 0.45189 0.42732 0.00085
 H229 H 0.43168 0.50486 0.13839
 H230 H 0.56166 0.39176 -0.00314
 H231 H 0.43203 0.51175 -0.12856
 H232 H 0.56534 0.62080 0.00805
 H233 H 0.47509 0.33242 0.05034
 H234 H 0.47315 0.33512 -0.06070
 H235 H 0.51851 0.46344 -0.20370
 H236 H 0.51358 0.55764 -0.19815
 H237 H 0.50072 0.68660 -0.10348
 H238 H 0.47170 0.68043 0.06592
 H239 H 0.49032 0.54348 0.21002
 H240 H 0.52223 0.45376 0.20502
 C241 C 1.14831 0.12198 0.20142
 C242 C 1.17666 0.16272 0.23112
 C243 C 1.22257 0.17822 0.20455
 C244 C 1.24427 0.14263 0.15555
 C245 C 1.21355 0.10420 0.12010
 C246 C 1.16321 0.09668 0.14155
 C247 C 1.23492 0.07607 0.06515
 N248 N 1.28392 0.08246 0.05077
 N249 N 1.31303 0.11564 0.08673
 C250 C 1.29489 0.14580 0.13882
 H251 H 1.11236 0.11356 0.22363
 H252 H 1.16130 0.18248 0.27505
 H253 H 1.21424 0.04849 0.03359
 H254 H 1.31986 0.17292 0.16577
 C255 C 1.16885 0.64451 0.61188
 C256 C 1.20628 0.66720 0.65023
 C257 C 1.19528 0.70620 0.70032
 C258 C 1.14468 0.71081 0.72210
 C259 C 1.10617 0.68837 0.68237
 C260 C 1.11862 0.65579 0.62602
 C261 C 1.05649 0.69578 0.70304
 N262 N 1.04624 0.72086 0.76200
 N263 N 1.08235 0.73771 0.80192
 C264 C 1.13102 0.73244 0.78459
 H265 H 1.17918 0.61559 0.57219
 H266 H 1.24421 0.65669 0.63723
 H267 H 1.02589 0.68099 0.67341
 H268 H 1.15837 0.74236 0.82128
 C269 C 0.69904 0.13844 0.61554
 C270 C 0.72680 0.17981 0.64781
 C271 C 0.71687 0.19487 0.71399
 C272 C 0.68184 0.16208 0.74996
 C273 C 0.65786 0.11629 0.71867
 C274 C 0.66296 0.10801 0.64988
 C275 C 0.62819 0.08035 0.75705
 N276 N 0.61976 0.09238 0.82161
 N277 N 0.63892 0.13800 0.84997
 C278 C 0.66911 0.17326 0.81625
 H279 H 0.70415 0.13211 0.56290
 H280 H 0.75546 0.20071 0.61992
 H281 H 0.61217 0.04255 0.73620
 H282 H 0.68148 0.21033 0.84116
 C283 C 0.69096 0.64439 0.11515
 C284 C 0.72234 0.68195 0.14859
 C285 C 0.71630 0.69338 0.21645
 C286 C 0.68080 0.66099 0.25205
 C287 C 0.64974 0.62206 0.21837
 C288 C 0.65308 0.61579 0.14875
 C289 C 0.61574 0.59038 0.25582
 N290 N 0.61231 0.59797 0.32196
 N291 N 0.64051 0.63518 0.35328
 C292 C 0.67427 0.66676 0.32060
 H293 H 0.69464 0.63998 0.06208
 H294 H 0.75040 0.70386 0.12041
 H295 H 0.59214 0.55919 0.23345
 H296 H 0.69524 0.69615 0.34862
 C297 C 0.86934 -0.15513 0.18089
 C298 C 0.84059 -0.19241 0.21492
 C299 C 0.79174 -0.20373 0.19680
 C300 C 0.77168 -0.17480 0.14161
 C301 C 0.80271 -0.13859 0.10340
 C302 C 0.85244 -0.12892 0.12373
 C303 C 0.78259 -0.11408 0.04657
 N304 N 0.73436 -0.12289 0.03091
 N305 N 0.70489 -0.15464 0.06804
 C306 C 0.72178 -0.18056 0.12287
 H307 H 0.90619 -0.14741 0.20008
 H308 H 0.85757 -0.20993 0.25801
 H309 H 0.80421 -0.08804 0.01428
 H310 H 0.69597 -0.20559 0.15079
 C311 C 0.89307 0.29849 0.67323
 C312 C 0.85535 0.27890 0.71441
 C313 C 0.80491 0.28149 0.69630
 C314 C 0.79284 0.30595 0.63495
 C315 C 0.83152 0.32423 0.59206
 C316 C 0.88213 0.32196 0.61217
 C317 C 0.81806 0.34629 0.53062
 N318 N 0.76953 0.35131 0.51408
 N319 N 0.73332 0.33606 0.55514
 C320 C 0.74325 0.31393 0.61502
 H321 H 0.93075 0.29944 0.69165
 H322 H 0.86618 0.26384 0.76234
 H323 H 0.84564 0.35834 0.49504
 H324 H 0.71218 0.30266 0.64607
 C325 C 0.34872 -0.12389 0.68864
 C326 C 0.31859 -0.16392 0.71819
 C327 C 0.29055 -0.20222 0.68064
 C328 C 0.29650 -0.20150 0.61056
 C329 C 0.33177 -0.16478 0.58153
 C330 C 0.35498 -0.12315 0.62035
 C331 C 0.34464 -0.17271 0.51479
 N332 N 0.32150 -0.21258 0.47843
 N333 N 0.28514 -0.24330 0.50395
 C334 C 0.27087 -0.23750 0.56790
 H335 H 0.36896 -0.09465 0.71962
 H336 H 0.31675 -0.16403 0.77155
 H337 H 0.37395 -0.14885 0.49195
 H338 H 0.23917 -0.25987 0.58359
 C339 C 0.32263 0.39110 0.18699
 C340 C 0.29058 0.35257 0.21727
 C341 C 0.27685 0.30210 0.18523
 C342 C 0.28937 0.29614 0.11707
 C343 C 0.32509 0.33266 0.08828
 C344 C 0.34198 0.38046 0.12365
 C345 C 0.34317 0.31966 0.02460
 N346 N 0.32255 0.27724 -0.01076
 N347 N 0.28513 0.24723 0.01347
 C348 C 0.26748 0.25591 0.07563
 H349 H 0.33484 0.42761 0.21481
 H350 H 0.28007 0.35991 0.26836
 H351 H 0.37274 0.34352 0.00215
 H352 H 0.23568 0.23234 0.09098
 C353 C 0.85466 0.12820 -0.18999
 C354 C 0.82416 0.16531 -0.22308
 C355 C 0.79208 0.20255 -0.18871
 C356 C 0.78517 0.19512 -0.11968
 C357 C 0.81115 0.15073 -0.08790
 C358 C 0.85003 0.12192 -0.12201
 C359 C 0.79667 0.13648 -0.02364
 N360 N 0.76167 0.16778 0.00874
 N361 N 0.74111 0.21301 -0.01847
 C362 C 0.75248 0.22835 -0.08095
 H363 H 0.88255 0.10443 -0.21775
 H364 H 0.82793 0.16684 -0.27630
 H365 H 0.81194 0.10038 0.00096
 H366 H 0.73422 0.26490 -0.09966
 C367 C 0.88200 0.66593 0.30955
 C368 C 0.84108 0.68791 0.27705
 C369 C 0.80211 0.71493 0.31170
 C370 C 0.80202 0.71287 0.38205
 C371 C 0.84071 0.68289 0.41438
 C372 C 0.88291 0.66328 0.37840
 C373 C 0.83419 0.66985 0.48116
 N374 N 0.79451 0.69069 0.51528
 N375 N 0.76095 0.72373 0.48689
 C376 C 0.76369 0.73604 0.42186
 H377 H 0.91172 0.64672 0.28038
 H378 H 0.84133 0.68643 0.22359
 H379 H 0.86009 0.64285 0.50638
 H380 H 0.73465 0.76191 0.40264
 C381 C 0.30733 0.13570 0.38425
 C382 C 0.27719 0.16540 0.34034
 C383 C 0.29551 0.21141 0.30380
 C384 C 0.34417 0.23050 0.31804
 C385 C 0.36990 0.20737 0.37215
 C386 C 0.35514 0.15463 0.39838
 C387 C 0.41108 0.23689 0.39653
 N388 N 0.43073 0.27968 0.36133
 N389 N 0.41166 0.29453 0.30364
 C390 C 0.36962 0.27054 0.28035
 H391 H 0.29375 0.09696 0.40537
 H392 H 0.24001 0.14999 0.33265
 H393 H 0.42751 0.22605 0.44319
 H394 H 0.35890 0.28021 0.23119
 C395 C 0.30709 0.65835 -0.10969
 C396 C 0.27758 0.69366 -0.14898
 C397 C 0.28824 0.70134 -0.21648
 C398 C 0.32604 0.66675 -0.24613
 C399 C 0.35355 0.62829 -0.20703
 C400 C 0.34644 0.62690 -0.13751
 C401 C 0.38742 0.59134 -0.23916
 N402 N 0.39555 0.59491 -0.30490
 N403 N 0.37162 0.63258 -0.34112
 C404 C 0.33741 0.66830 -0.31412
 H405 H 0.29999 0.65686 -0.05708
 H406 H 0.24640 0.71527 -0.12589
 H407 H 0.40673 0.55874 -0.21314
 H408 H 0.31924 0.69649 -0.34690
 C409 C 1.19495 -0.13342 -0.12829
 C410 C 1.22523 -0.17203 -0.16199
 C411 C 1.21552 -0.18626 -0.22779
 C412 C 1.18006 -0.15392 -0.26347
 C413 C 1.14959 -0.11449 -0.22923
 C414 C 1.15506 -0.10749 -0.16024
 C415 C 1.11391 -0.08383 -0.26509
 N416 N 1.10907 -0.09255 -0.33078
 N417 N 1.13735 -0.13000 -0.36311
 C418 C 1.17239 -0.16090 -0.33188
 H419 H 1.20051 -0.12696 -0.07587
 H420 H 1.25504 -0.19220 -0.13558
 H421 H 1.09013 -0.05252 -0.24198
 H422 H 1.19353 -0.19043 -0.36128
 C423 C 1.15499 0.30527 0.38814
 C424 C 1.19592 0.28277 0.35362
 C425 C 1.19636 0.27961 0.28444
 C426 C 1.15350 0.29835 0.24970
 C427 C 1.11188 0.32032 0.28517
 C428 C 1.11312 0.32503 0.35458
 C429 C 1.06995 0.33826 0.24991
 N430 N 1.06964 0.33441 0.18324
 N431 N 1.10862 0.31404 0.14962
 C432 C 1.15031 0.29606 0.18042
 H433 H 1.15732 0.31055 0.44118
 H434 H 1.22777 0.26878 0.38147
 H435 H 1.03736 0.35470 0.27513
 H436 H 1.18025 0.28033 0.15017
 C437 C 0.63486 -0.15080 0.31062
 C438 C 0.66621 -0.19236 0.28563
 C439 C 0.71712 -0.19073 0.29703
 C440 C 0.73712 -0.14355 0.33198
 C441 C 0.70516 -0.09885 0.35367
 C442 C 0.65306 -0.10453 0.34693
 C443 C 0.72681 -0.05003 0.38073
 N444 N 0.77641 -0.04852 0.39141
 N445 N 0.80576 -0.09233 0.37661
 C446 C 0.78778 -0.13964 0.34774
 H447 H 0.59544 -0.15648 0.30276
 H448 H 0.64985 -0.22634 0.25753
 H449 H 0.70541 -0.01239 0.39174
 H450 H 0.81312 -0.17409 0.33950
 C451 C 0.63391 0.34798 -0.18957
 C452 C 0.66660 0.31030 -0.22066
 C453 C 0.71756 0.31123 -0.20823
 C454 C 0.73625 0.35632 -0.16893
 C455 C 0.70291 0.39696 -0.13918
 C456 C 0.65035 0.39044 -0.14583
 C457 C 0.72403 0.44273 -0.10490
 N458 N 0.77396 0.44557 -0.09725
 N459 N 0.80452 0.40611 -0.12181
 C460 C 0.78740 0.36172 -0.15719
 H461 H 0.59472 0.34218 -0.19904
 H462 H 0.65110 0.27855 -0.25294
 H463 H 0.70223 0.47753 -0.08587
 H464 H 0.81409 0.33122 -0.17559
 C465 C 1.18901 0.15120 -0.09529
 C466 C 1.21719 0.19026 -0.12992
 C467 C 1.21678 0.19057 -0.19911
 C468 C 1.19243 0.14613 -0.23408
 C469 C 1.16620 0.10525 -0.19823
 C470 C 1.16150 0.11078 -0.12945
 C471 C 1.14288 0.06105 -0.23238
 N472 N 1.14412 0.05911 -0.29906
 N473 N 1.16663 0.09900 -0.33359
 C474 C 1.19014 0.14251 -0.30363
 H475 H 1.18565 0.15523 -0.04213
 H476 H 1.23580 0.22311 -0.10260
 H477 H 1.12369 0.02827 -0.20617
 H478 H 1.20529 0.17409 -0.33509
 C479 C 1.14134 0.64840 0.31493
 C480 C 1.18156 0.67659 0.28827
 C481 C 1.20130 0.72495 0.31818
 C482 C 1.17971 0.74258 0.38050
 C483 C 1.13761 0.71344 0.40760
 C484 C 1.11913 0.66467 0.37526
 C485 C 1.11647 0.73349 0.46727
 N486 N 1.13648 0.77810 0.49907
 N487 N 1.17686 0.80330 0.47604
 C488 C 1.19917 0.78656 0.41891
 H489 H 1.12818 0.61176 0.28811
 H490 H 1.19588 0.66104 0.24133
 H491 H 1.08397 0.71521 0.48909
 H492 H 1.23365 0.80544 0.40756
 C493 C 0.67578 0.18007 0.39889
 C494 C 0.70105 0.21906 0.36027
 C495 C 0.70789 0.20968 0.29237
 C496 C 0.68542 0.16177 0.26224
 C497 C 0.66171 0.12125 0.30212
 C498 C 0.65686 0.13072 0.37069
 C499 C 0.64226 0.07254 0.27185
 N500 N 0.64518 0.06589 0.20552
 N501 N 0.66596 0.10476 0.16753
 C502 C 0.68580 0.15237 0.19343
 H503 H 0.66957 0.18931 0.45080
 H504 H 0.71586 0.25614 0.38409
 H505 H 0.62488 0.03967 0.30041
 H506 H 0.70114 0.18237 0.15964
 C507 C 0.66834 0.67485 -0.10576
 C508 C 0.69803 0.71208 -0.14147
 C509 C 0.71182 0.70084 -0.20740
 C510 C 0.69525 0.64978 -0.23720
 C511 C 0.66520 0.61176 -0.20040
 C512 C 0.65142 0.62466 -0.13431
 C513 C 0.64962 0.56166 -0.23120
 N514 N 0.66320 0.55033 -0.29454
 N515 N 0.69102 0.58583 -0.32914
 C516 C 0.70742 0.63502 -0.30281
 H517 H 0.65715 0.68624 -0.05586
 H518 H 0.71002 0.75021 -0.11688
 H519 H 0.62716 0.53121 -0.20526
 H520 H 0.72917 0.66224 -0.33393
 C521 C 0.86121 -0.17907 -0.12842
 C522 C 0.83018 -0.21724 -0.15808
 C523 C 0.78408 -0.20080 -0.18269
 C524 C 0.76614 -0.14563 -0.16713
 C525 C 0.79906 -0.10514 -0.13961
 C526 C 0.84803 -0.12216 -0.12299
 C527 C 0.78196 -0.04927 -0.13187
 N528 N 0.73419 -0.03596 -0.14655
 N529 N 0.70260 -0.07459 -0.16874
 C530 C 0.71689 -0.12896 -0.17924
 H531 H 0.89731 -0.19407 -0.11239
 H532 H 0.84482 -0.25892 -0.16462
 H533 H 0.80577 -0.01601 -0.11441
 H534 H 0.68956 -0.15877 -0.19628
 C535 C 0.86627 0.29129 0.38056
 C536 C 0.82280 0.27192 0.35122
 C537 C 0.80984 0.28770 0.28689
 C538 C 0.84359 0.32177 0.25032
 C539 C 0.88851 0.33925 0.27965
 C540 C 0.89796 0.32743 0.34663
 C541 C 0.92245 0.37067 0.24189
 N542 N 0.91133 0.38538 0.17942
 N543 N 0.86835 0.37108 0.15241
 C544 C 0.83419 0.34045 0.18568
 H545 H 0.87338 0.28104 0.43155
 H546 H 0.79923 0.24503 0.38009
 H547 H 0.95755 0.38400 0.26189
 H548 H 0.80014 0.33214 0.16084
 C549 C 0.36707 -0.16131 0.34752
 C550 C 0.33488 -0.19966 0.31923
 C551 C 0.28495 -0.18616 0.30846
 C552 C 0.26830 -0.12978 0.32501
 C553 C 0.30218 -0.08994 0.35262
 C554 C 0.35179 -0.10646 0.36565
 C555 C 0.28542 -0.03447 0.36461
 N556 N 0.23738 -0.02026 0.35336
 N557 N 0.20497 -0.05783 0.33109
 C558 C 0.21858 -0.11182 0.31699
 H559 H 0.40482 -0.17557 0.35616
 H560 H 0.35034 -0.24019 0.30550
 H561 H 0.31004 -0.00196 0.38185
 H562 H 0.18985 -0.14029 0.30151
 C563 C 0.35415 0.36454 -0.19187
 C564 C 0.32293 0.32698 -0.22410
 C565 C 0.27611 0.31321 -0.19857
 C566 C 0.25896 0.34359 -0.14178
 C567 C 0.29108 0.38218 -0.10779
 C568 C 0.34060 0.39117 -0.13192
 C569 C 0.27214 0.40895 -0.05032
 N570 N 0.22504 0.39899 -0.02951
 N571 N 0.19517 0.36433 -0.06211
 C572 C 0.21053 0.33670 -0.11746
 H573 H 0.39035 0.37160 -0.21401
 H574 H 0.33667 0.30756 -0.26926
 H575 H 0.29352 0.43753 -0.02096
 H576 H 0.18456 0.31024 -0.14234
 C577 C 1.13779 -0.18167 0.15251
 C578 C 1.16662 -0.21395 0.19311
 C579 C 1.21661 -0.20181 0.20298
 C580 C 1.23880 -0.15837 0.16437
 C581 C 1.20807 -0.12205 0.12607
 C582 C 1.15616 -0.13303 0.12219
 C583 C 1.23088 -0.07652 0.09392
 N584 N 1.28081 -0.06990 0.09658
 N585 N 1.30974 -0.10561 0.12914
 C586 C 1.29058 -0.14966 0.16258
 H587 H 1.09933 -0.19423 0.14776
 H588 H 1.14776 -0.24760 0.21772
 H589 H 1.21045 -0.04616 0.06609
 H590 H 1.31628 -0.17799 0.18616
 C591 C 1.16459 0.32646 0.60394
 C592 C 1.20070 0.30791 0.64762
 C593 C 1.18778 0.28028 0.70583
 C594 C 1.13563 0.27220 0.72018
 C595 C 1.09933 0.28935 0.67358
 C596 C 1.11382 0.31885 0.61700
 C597 C 1.04868 0.27977 0.68668
 N598 N 1.03455 0.25615 0.74420
 N599 N 1.06771 0.24273 0.78975
 C600 C 1.11712 0.25072 0.78022
 H601 H 1.17624 0.35135 0.56205
 H602 H 1.23924 0.31710 0.63655
 H603 H 1.02028 0.29090 0.65154
 H604 H 1.14014 0.24188 0.82122
 C605 C 0.64541 -0.18165 0.63568
 C606 C 0.67636 -0.21765 0.67064
 C607 C 0.72408 -0.20149 0.68908
 C608 C 0.74168 -0.14791 0.66778
 C609 C 0.70902 -0.10962 0.63462
 C610 C 0.65967 -0.12653 0.61903
 C611 C 0.72676 -0.05515 0.62107
 N612 N 0.77403 -0.04105 0.63626
 N613 N 0.80490 -0.07732 0.66472
 C614 C 0.79041 -0.12999 0.68092
 H615 H 0.60869 -0.19689 0.62363
 H616 H 0.66164 -0.25794 0.68522
 H617 H 0.70399 -0.02301 0.59939
 H618 H 0.81730 -0.15707 0.70422
 C619 C 0.67347 0.33755 0.10100
 C620 C 0.70473 0.30003 0.13441
 C621 C 0.71533 0.30740 0.20177
 C622 C 0.69437 0.35529 0.23522
 C623 C 0.66213 0.39286 0.20119
 C624 C 0.65118 0.38361 0.13383
 C625 C 0.64135 0.43898 0.23597
 N626 N 0.65239 0.44751 0.30032
 N627 N 0.68275 0.41284 0.33225
 C628 C 0.70401 0.36726 0.30212
 H629 H 0.66497 0.32917 0.04969
 H630 H 0.71973 0.26437 0.10721
 H631 H 0.61670 0.46845 0.21223
 H632 H 0.72832 0.34140 0.33111
 C633 C 0.84496 0.17171 0.10843
 C634 C 0.81200 0.20829 0.14016
 C635 C 0.79369 0.19635 0.20318
 C636 C 0.80919 0.14493 0.23419
 C637 C 0.83744 0.10477 0.19752
 C638 C 0.85600 0.11923 0.13511
 C639 C 0.84875 0.05225 0.22582
 N640 N 0.83533 0.04198 0.28898
 N641 N 0.81206 0.08099 0.32558
 C642 C 0.79938 0.13201 0.30083
 H643 H 0.86194 0.18443 0.06228
 H644 H 0.80278 0.24703 0.11568
 H645 H 0.86848 0.01956 0.19850
 H646 H 0.78305 0.16168 0.33457
 C647 C 0.87381 0.70733 0.62247
 C648 C 0.83210 0.73238 0.65309
 C649 C 0.81235 0.71187 0.71274
 C650 C 0.83768 0.66606 0.74350
 C651 C 0.88121 0.64287 0.71345
 C652 C 0.89615 0.65955 0.64930
 C653 C 0.90917 0.60290 0.74855
 N654 N 0.89240 0.58356 0.80716
 N655 N 0.84999 0.60244 0.83368
 C656 C 0.82220 0.64270 0.80408
 H657 H 0.88634 0.72296 0.57525
 H658 H 0.81429 0.76698 0.62815
 H659 H 0.94475 0.58778 0.73021
 H660 H 0.79011 0.65774 0.83063
 C661 C 0.32490 0.16465 0.61232
 C662 C 0.29395 0.20425 0.64402
 C663 C 0.29372 0.21044 0.71304
 C664 C 0.32825 0.17783 0.75013
 C665 C 0.35770 0.13574 0.71809
 C666 C 0.35668 0.12994 0.64856
 C667 C 0.38725 0.09999 0.75702
 N668 N 0.38986 0.10857 0.82301
 N669 N 0.36472 0.15027 0.85276
 C670 C 0.33433 0.18513 0.81877
 H671 H 0.32467 0.16181 0.55893
 H672 H 0.26884 0.22844 0.61402
 H673 H 0.40779 0.06482 0.73576
 H674 H 0.31582 0.21839 0.84610
 C675 C 0.31627 0.66590 0.12037
 C676 C 0.28673 0.70464 0.15581
 C677 C 0.28567 0.70653 0.22563
 C678 C 0.31290 0.66367 0.25923
 C679 C 0.34316 0.62426 0.22262
 C680 C 0.34599 0.62658 0.15263
 C681 C 0.36961 0.58291 0.25746
 N682 N 0.36627 0.58097 0.32412
 N683 N 0.33834 0.61762 0.35841
 C684 C 0.31161 0.65863 0.32849
 H685 H 0.31773 0.66858 0.06706
 H686 H 0.26549 0.73390 0.12675
 H687 H 0.39224 0.55146 0.23225
 H688 H 0.29020 0.68716 0.35955
   
