data_POSCAR
  _audit_creation_date              2014-09-24
  _audit_creation_method            'ToBaCCo'
  _symmetry_space_group_name_H-M    'P1'
  _symmetry_Int_Tables_number       1
  _symmetry_cell_setting            triclinic
  loop_
  _symmetry_equiv_pos_as_xyz
 x,y,z
_cell_length_a 63.5713
_cell_length_b 63.4939
_cell_length_c 22.0549
_cell_angle_alpha 89.945500
_cell_angle_beta 89.980600
_cell_angle_gamma 119.863800
loop_
  _atom_site_label
  _atom_site_type_symbol
  _atom_site_fract_x
  _atom_site_fract_y
  _atom_site_fract_z
O1 O 0.25910 0.47600 0.56005
 O2 O 0.21592 0.47457 0.44576
 O3 O 0.25613 0.47310 0.44229
 O4 O 0.21799 0.47603 0.56363
 O5 O 0.23817 0.51604 0.55850
 O6 O 0.27679 0.51313 0.43793
 O7 O 0.23645 0.51455 0.44147
 O8 O 0.27930 0.51601 0.55494
 Cu9 Cu 0.23525 0.47091 0.50351
 Cu10 Cu 0.25972 0.51892 0.49780
 C11 C 0.27681 0.49634 0.57639
 C12 C 0.21868 0.49442 0.42443
 C13 C 0.27314 0.49258 0.41976
 C14 C 0.22125 0.49649 0.58114
 O15 O 0.51237 -0.22532 0.56194
 O16 O 0.51305 -0.26525 0.44186
 O17 O 0.51216 -0.22455 0.44417
 O18 O 0.51303 -0.26604 0.55985
 O19 O 0.47307 -0.28656 0.55972
 O20 O 0.47215 -0.24498 0.44481
 O21 O 0.47304 -0.28575 0.44238
 O22 O 0.47240 -0.24563 0.56177
 Cu23 Cu 0.51665 -0.24325 0.50189
 Cu24 Cu 0.46867 -0.26781 0.50221
 C25 C 0.49227 -0.22833 0.58178
 C26 C 0.49314 -0.28255 0.42215
 C27 C 0.49199 -0.22743 0.42546
 C28 C 0.49318 -0.28365 0.57915
 O29 O 1.26071 0.78111 0.44066
 O30 O 1.21748 0.73889 0.55371
 O31 O 1.25952 0.77949 0.55839
 O32 O 1.21888 0.74155 0.43622
 O33 O 1.23663 0.71927 0.43712
 O34 O 1.27908 0.75896 0.55440
 O35 O 1.23751 0.71885 0.55580
 O36 O 1.27882 0.75917 0.43775
 Cu37 Cu 1.23724 0.76237 0.49769
 Cu38 Cu 1.25975 0.73679 0.49606
 C39 C 1.27724 0.77737 0.42004
 C40 C 1.22012 0.72163 0.57436
 C41 C 1.27671 0.77620 0.57600
 C42 C 1.22064 0.72376 0.41616
 O43 O 0.75209 0.54253 0.55837
 O44 O 0.79330 0.53965 0.44456
 O45 O 0.75284 0.54137 0.44080
 O46 O 0.79279 0.54216 0.56241
 O47 O 0.77178 0.50216 0.56718
 O48 O 0.73296 0.50127 0.44178
 O49 O 0.77293 0.49966 0.45047
 O50 O 0.73088 0.50255 0.55949
 Cu51 Cu 0.77484 0.54545 0.50096
 Cu52 Cu 0.75002 0.49742 0.50517
 C53 C 0.73416 0.52293 0.57787
 C54 C 0.79039 0.51907 0.42905
 C55 C 0.73604 0.52125 0.42070
 C56 C 0.78918 0.52231 0.58556
 O57 O 0.47621 0.21792 0.56069
 O58 O 0.48152 0.26034 0.44021
 O59 O 0.47990 0.21834 0.44296
 O60 O 0.47890 0.26019 0.55777
 O61 O 0.51878 0.27829 0.56439
 O62 O 0.51979 0.23702 0.44947
 O63 O 0.52140 0.27908 0.44754
 O64 O 0.51605 0.23583 0.56640
 Cu65 Cu 0.47514 0.23733 0.49961
 Cu66 Cu 0.52299 0.25936 0.50754
 C67 C 0.49518 0.21936 0.58382
 C68 C 0.50231 0.27729 0.42417
 C69 C 0.50008 0.22039 0.42717
 C70 C 0.49878 0.27658 0.58022
 O71 O 0.73683 0.21677 0.44426
 O72 O 0.77850 0.25928 0.55926
 O73 O 0.73707 0.21866 0.56191
 O74 O 0.77883 0.25650 0.44142
 O75 O 0.76023 0.27796 0.43674
 O76 O 0.71789 0.23953 0.55643
 O77 O 0.75951 0.28029 0.55384
 O78 O 0.71812 0.23812 0.43944
 Cu79 Cu 0.75973 0.23571 0.50231
 Cu80 Cu 0.73708 0.26112 0.49620
 C81 C 0.72014 0.22008 0.42275
 C82 C 0.77633 0.27731 0.57572
 C83 C 0.72005 0.22227 0.57898
 C84 C 0.77685 0.27383 0.41882
 N85 N 0.97822 0.52601 0.06168
 N86 N 0.96173 0.53253 0.07099
 N87 N 1.02802 0.53315 0.10238
 N88 N 1.04693 0.54381 0.13860
 N89 N 1.02912 0.54818 0.05992
 N90 N 1.04882 0.56967 0.06664
 N91 N 0.97712 0.51102 0.10421
 N92 N 0.95977 0.50681 0.14340
 C93 C 0.95028 0.52030 0.12204
 C94 C 1.05975 0.56657 0.11599
 N95 N 1.02316 0.47062 0.06591
 N96 N 1.04025 0.46495 0.07539
 N97 N 0.97354 0.46408 0.10772
 N98 N 0.95491 0.45414 0.14517
 N99 N 0.97225 0.44814 0.06784
 N100 N 0.95270 0.42680 0.07743
 N101 N 1.02450 0.48643 0.10620
 N102 N 1.04268 0.49216 0.14382
 Mn103 Mn 1.00077 0.49866 0.10576
 C104 C 1.05235 0.47863 0.12408
 C105 C 0.94208 0.43087 0.12590
 N106 N 1.02815 0.54647 -0.07105
 N107 N 1.04604 0.56843 -0.08458
 N108 N 0.97545 0.50797 -0.10885
 N109 N 0.95637 0.50101 -0.14398
 N110 N 0.97705 0.52410 -0.06913
 N111 N 0.95905 0.52866 -0.07660
 N112 N 1.02619 0.53074 -0.11244
 N113 N 1.04241 0.54162 -0.15572
 Mn114 Mn 1.00319 0.53651 -0.00470
 C115 C 1.05486 0.56503 -0.13732
 C116 C 0.94633 0.51408 -0.12360
 N117 N 0.97159 0.44646 -0.06275
 N118 N 0.95312 0.42434 -0.07091
 N119 N 1.02316 0.48398 -0.10771
 N120 N 1.04179 0.49012 -0.14410
 N121 N 1.02247 0.46922 -0.06499
 N122 N 1.04056 0.46477 -0.07154
 N123 N 0.97213 0.46117 -0.10536
 N124 N 0.95393 0.44949 -0.14344
 Mn125 Mn 0.99736 0.45833 0.00151
 Mn126 Mn 0.99921 0.49593 -0.10922
 Cl127 Cl 1.00014 0.49738 -0.00167
 C128 C 0.94217 0.42655 -0.12125
 C129 C 1.05243 0.47793 -0.12124
 N130 N 0.46710 0.49167 0.11348
 N131 N 0.45654 0.49988 0.15045
 N132 N 0.47601 0.45004 0.07232
 N133 N 0.47198 0.42774 0.08051
 N134 N 0.49155 0.46487 0.11250
 N135 N 0.49864 0.45309 0.14889
 N136 N 0.45156 0.47676 0.07348
 N137 N 0.42988 0.47426 0.08251
 C138 C 0.43332 0.48884 0.13079
 C139 C 0.48623 0.42992 0.12847
 N140 N 0.48877 0.46303 -0.10116
 N141 N 0.49439 0.45058 -0.13919
 N142 N 0.44988 0.47549 -0.05717
 N143 N 0.42750 0.47115 -0.06551
 N144 N 0.46428 0.48976 -0.10001
 N145 N 0.45214 0.49566 -0.13840
 N146 N 0.47427 0.44883 -0.05836
 N147 N 0.46945 0.42624 -0.06647
 Mn148 Mn 0.46266 0.46252 0.00765
 C149 C 0.48221 0.42766 -0.11705
 C150 C 0.42923 0.48398 -0.11621
 N151 N 0.53726 0.50959 0.10911
 N152 N 0.54962 0.50560 0.15105
 N153 N 0.52731 0.55025 0.06669
 N154 N 0.53124 0.57262 0.07326
 N155 N 0.51272 0.53604 0.10933
 N156 N 0.50621 0.54823 0.14575
 N157 N 0.55170 0.52333 0.06560
 N158 N 0.57432 0.52877 0.07651
 Mn159 Mn 0.50215 0.50051 0.11172
 C160 C 0.57262 0.51736 0.12980
 C161 C 0.51792 0.57103 0.12289
 N162 N 0.51008 0.53425 -0.10406
 N163 N 0.50323 0.54604 -0.14105
 N164 N 0.55004 0.52238 -0.06536
 N165 N 0.57210 0.52632 -0.07697
 N166 N 0.53452 0.50746 -0.10544
 N167 N 0.54552 0.50064 -0.14499
 N168 N 0.52571 0.54913 -0.06410
 N169 N 0.53007 0.57152 -0.07319
 Mn170 Mn 0.49941 0.49863 -0.10335
 Mn171 Mn 0.53899 0.53653 0.00068
 Cl172 Cl 0.50083 0.49955 0.00414
 C173 C 0.51586 0.56928 -0.12134
 C174 C 0.56894 0.51250 -0.12664
 N175 N 0.44952 -0.02565 0.06124
 N176 N 0.42707 -0.04350 0.06957
 N177 N 0.49058 0.02508 0.10168
 N178 N 0.49675 0.04318 0.13998
 N179 N 0.47617 0.02534 0.05939
 N180 N 0.47199 0.04350 0.06810
 N181 N 0.46392 -0.02607 0.10328
 N182 N 0.45173 -0.04429 0.14108
 C183 C 0.42875 -0.05500 0.11955
 C184 C 0.48507 0.05457 0.11841
 N185 N 0.54968 0.02294 0.06256
 N186 N 0.57215 0.04064 0.07144
 N187 N 0.50846 -0.02754 0.10526
 N188 N 0.50147 -0.04579 0.14364
 N189 N 0.52322 -0.02802 0.06435
 N190 N 0.52680 -0.04652 0.07400
 N191 N 0.53506 0.02363 0.10353
 N192 N 0.54711 0.04195 0.14106
 Mn193 Mn 0.49950 -0.00123 0.10416
 C194 C 0.57023 0.05241 0.12049
 C195 C 0.51307 -0.05748 0.12356
 N196 N 0.47659 0.02462 -0.07159
 N197 N 0.47433 0.04400 -0.08000
 N198 N 0.46434 -0.02743 -0.11011
 N199 N 0.45220 -0.04601 -0.14689
 N200 N 0.44980 -0.02644 -0.06938
 N201 N 0.42733 -0.04425 -0.07755
 N202 N 0.49114 0.02371 -0.11245
 N203 N 0.49936 0.04252 -0.14931
 Mn204 Mn 0.46277 -0.00050 -0.00513
 C205 C 0.48867 0.05498 -0.12876
 C206 C 0.42912 -0.05635 -0.12604
 N207 N 0.52351 -0.02882 -0.06617
 N208 N 0.52707 -0.04746 -0.07323
 N209 N 0.53551 0.02231 -0.11058
 N210 N 0.54740 0.04096 -0.14741
 N211 N 0.54997 0.02224 -0.06821
 N212 N 0.57215 0.04076 -0.07535
 N213 N 0.50884 -0.02889 -0.10812
 N214 N 0.50186 -0.04767 -0.14459
 Mn215 Mn 0.53686 -0.00290 -0.00188
 Mn216 Mn 0.49994 -0.00262 -0.11103
 Cl217 Cl 0.49976 -0.00181 -0.00343
 C218 C 0.51338 -0.05909 -0.12228
 C219 C 0.57026 0.05227 -0.12506
 C220 C 1.20369 0.51633 0.36346
 C221 C 1.18604 0.51633 0.32588
 C222 C 1.16641 0.49450 0.30602
 C223 C 1.16470 0.47242 0.32353
 C224 C 1.18217 0.47231 0.36195
 C225 C 1.20180 0.49430 0.38303
 N226 N 1.14788 0.49532 0.27106
 N227 N 1.13127 0.47685 0.24384
 C228 C 1.11222 0.47802 0.21209
 C229 C 1.09727 0.45918 0.17268
 C230 C 1.07805 0.45958 0.14276
 C231 C 1.07326 0.47862 0.15302
 C232 C 1.08830 0.49752 0.19246
 C233 C 1.10773 0.49733 0.22142
 H234 H 1.21846 0.53367 0.37840
 H235 H 1.18749 0.53345 0.31276
 H236 H 1.14956 0.45529 0.30889
 H237 H 1.18007 0.45498 0.37570
 H238 H 1.10049 0.44417 0.16529
 H239 H 1.06665 0.44476 0.11268
 H240 H 1.08504 0.51245 0.20097
 H241 H 1.11893 0.51203 0.25197
 C242 C 0.47206 0.67825 0.36507
 C243 C 0.47265 0.66099 0.32699
 C244 C 0.49434 0.66555 0.29949
 C245 C 0.51552 0.68793 0.30939
 C246 C 0.51503 0.70514 0.34806
 C247 C 0.49335 0.70033 0.37696
 N248 N 0.49465 0.64654 0.26536
 N249 N 0.51285 0.64978 0.23406
 C250 C 0.51315 0.62997 0.20379
 C251 C 0.53166 0.63473 0.16220
 C252 C 0.53299 0.61559 0.13449
 C253 C 0.51604 0.59141 0.14908
 C254 C 0.49738 0.58668 0.19040
 C255 C 0.49584 0.60576 0.21723
 H256 H 0.45510 0.67395 0.38677
 H257 H 0.45624 0.64377 0.31988
 H258 H 0.53254 0.69179 0.28881
 H259 H 0.53171 0.72200 0.35624
 H260 H 0.54517 0.65329 0.15163
 H261 H 0.54757 0.61968 0.10283
 H262 H 0.48400 0.56821 0.20222
 H263 H 0.48143 0.60158 0.24948
 C264 C 0.31694 -0.20555 0.36568
 C265 C 0.33498 -0.18790 0.32879
 C266 C 0.33162 -0.16991 0.30151
 C267 C 0.30974 -0.16992 0.31076
 C268 C 0.29177 -0.18739 0.34834
 C269 C 0.29530 -0.20525 0.37666
 N270 N 0.35120 -0.15114 0.26763
 N271 N 0.34873 -0.13582 0.23562
 C272 C 0.36891 -0.11636 0.20487
 C273 C 0.36469 -0.10258 0.16209
 C274 C 0.38414 -0.08287 0.13321
 C275 C 0.40813 -0.07641 0.14773
 C276 C 0.41233 -0.09031 0.19047
 C277 C 0.39289 -0.11022 0.21854
 H278 H 0.32026 -0.21898 0.38706
 H279 H 0.35181 -0.18801 0.32217
 H280 H 0.30680 -0.15609 0.29035
 H281 H 0.27528 -0.18672 0.35589
 H282 H 0.34630 -0.10707 0.15135
 H283 H 0.38043 -0.07240 0.10050
 H284 H 0.43065 -0.08577 0.20229
 H285 H 0.39663 -0.12050 0.25173
 C286 C 0.80716 0.49515 0.37987
 C287 C 0.82425 0.49357 0.34343
 C288 C 0.84200 0.51401 0.31290
 C289 C 0.84240 0.53626 0.31875
 C290 C 0.82542 0.53797 0.35590
 C291 C 0.80770 0.51742 0.38713
 N292 N 0.85989 0.51175 0.27864
 N293 N 0.87505 0.52839 0.24382
 C294 C 0.89330 0.52570 0.21230
 C295 C 0.90704 0.54241 0.16703
 C296 C 0.92533 0.54044 0.13664
 C297 C 0.93037 0.52193 0.15200
 C298 C 0.91654 0.50516 0.19733
 C299 C 0.89808 0.50693 0.22699
 H300 H 0.79385 0.47900 0.40346
 H301 H 0.82384 0.47636 0.33942
 H302 H 0.85608 0.55235 0.29572
 H303 H 0.82629 0.55536 0.36060
 H304 H 0.90359 0.55698 0.15537
 H305 H 0.93578 0.55364 0.10196
 H306 H 0.92000 0.49067 0.20991
 H307 H 0.88780 0.49384 0.26201
 C308 C 0.52592 0.31787 0.37366
 C309 C 0.52686 0.33631 0.33705
 C310 C 0.50627 0.33280 0.30552
 C311 C 0.48475 0.31029 0.30969
 C312 C 0.48369 0.29193 0.34678
 C313 C 0.50417 0.29566 0.37989
 N314 N 0.50721 0.35276 0.27287
 N315 N 0.48982 0.35027 0.23934
 C316 C 0.49009 0.37048 0.20973
 C317 C 0.47209 0.36610 0.16704
 C318 C 0.47108 0.38544 0.13968
 C319 C 0.48789 0.40951 0.15547
 C320 C 0.50606 0.41390 0.19802
 C321 C 0.50725 0.39455 0.22473
 H322 H 0.54196 0.32134 0.39880
 H323 H 0.54353 0.35360 0.33433
 H324 H 0.46856 0.30716 0.28586
 H325 H 0.46669 0.27500 0.35055
 H326 H 0.45870 0.34763 0.15534
 H327 H 0.45687 0.38155 0.10706
 H328 H 0.51930 0.43228 0.21083
 H329 H 0.52124 0.39838 0.25793
 C330 C 0.68081 0.20269 0.36689
 C331 C 0.66306 0.18496 0.32979
 C332 C 0.66661 0.16689 0.30385
 C333 C 0.68838 0.16688 0.31475
 C334 C 0.70608 0.18445 0.35257
 C335 C 0.70236 0.20242 0.37945
 N336 N 0.64729 0.14812 0.26953
 N337 N 0.64988 0.13269 0.23847
 C338 C 0.62983 0.11332 0.20726
 C339 C 0.63416 0.09937 0.16538
 C340 C 0.61480 0.07980 0.13597
 C341 C 0.59079 0.07368 0.14908
 C342 C 0.58648 0.08776 0.19093
 C343 C 0.60583 0.10751 0.21951
 H344 H 0.67734 0.21620 0.38711
 H345 H 0.64631 0.18508 0.32188
 H346 H 0.69144 0.15297 0.29538
 H347 H 0.72250 0.18380 0.36138
 H348 H 0.65257 0.10361 0.15571
 H349 H 0.61859 0.06919 0.10398
 H350 H 0.56814 0.08347 0.20168
 H351 H 0.60199 0.11793 0.25199
 C352 C 0.47006 0.18459 -0.35071
 C353 C 0.46782 0.16656 -0.31050
 C354 C 0.48831 0.16553 -0.29199
 C355 C 0.51135 0.18350 -0.31186
 C356 C 0.51372 0.20183 -0.35119
 C357 C 0.49304 0.20229 -0.37242
 N358 N 0.48516 0.14542 -0.25581
 N359 N 0.50212 0.14047 -0.24938
 C360 C 0.49905 0.11995 -0.21529
 C361 C 0.51617 0.11242 -0.22220
 C362 C 0.51285 0.09138 -0.19352
 C363 C 0.49254 0.07779 -0.15633
 C364 C 0.47580 0.08583 -0.14747
 C365 C 0.47889 0.10667 -0.17727
 H366 H 0.45370 0.18439 -0.36539
 H367 H 0.44997 0.15284 -0.29535
 H368 H 0.52749 0.18317 -0.29771
 H369 H 0.53173 0.21514 -0.36642
 H370 H 0.53177 0.12253 -0.25131
 H371 H 0.52612 0.08566 -0.20069
 H372 H 0.46002 0.07565 -0.11896
 H373 H 0.46549 0.11225 -0.17106
 C374 C 0.72132 0.54597 -0.35782
 C375 C 0.70429 0.54662 -0.31881
 C376 C 0.68314 0.52521 -0.30299
 C377 C 0.67953 0.50291 -0.32502
 C378 C 0.69667 0.50214 -0.36317
 C379 C 0.71766 0.52370 -0.38099
 N380 N 0.66532 0.52655 -0.26600
 N381 N 0.64394 0.50856 -0.26061
 C382 C 0.62571 0.50951 -0.22453
 C383 C 0.60155 0.49122 -0.23159
 C384 C 0.58309 0.49212 -0.19940
 C385 C 0.58862 0.51115 -0.15859
 C386 C 0.61296 0.52914 -0.15010
 C387 C 0.63139 0.52846 -0.18326
 H388 H 0.73726 0.56296 -0.37004
 H389 H 0.70731 0.56393 -0.30198
 H390 H 0.66339 0.48607 -0.31303
 H391 H 0.69313 0.48460 -0.37966
 H392 H 0.59697 0.47650 -0.26313
 H393 H 0.56449 0.47796 -0.20650
 H394 H 0.61767 0.54400 -0.11891
 H395 H 0.64999 0.54272 -0.17682
 C396 C 0.79197 0.31559 -0.36913
 C397 C 0.80952 0.33351 -0.33195
 C398 C 0.82804 0.33051 -0.30687
 C399 C 0.82871 0.30912 -0.31871
 C400 C 0.81138 0.29128 -0.35671
 C401 C 0.79290 0.29439 -0.38305
 N402 N 0.84658 0.34997 -0.27229
 N403 N 0.86190 0.34741 -0.24067
 C404 C 0.88115 0.36741 -0.20905
 C405 C 0.89446 0.36285 -0.16574
 C406 C 0.91398 0.38208 -0.13595
 C407 C 0.92077 0.40622 -0.15013
 C408 C 0.90733 0.41079 -0.19342
 C409 C 0.88756 0.39154 -0.22235
 H410 H 0.77810 0.31875 -0.38827
 H411 H 0.80887 0.34995 -0.32321
 H412 H 0.84296 0.30648 -0.29997
 H413 H 0.81272 0.27524 -0.36601
 H414 H 0.88976 0.34434 -0.15527
 H415 H 0.92410 0.37808 -0.10289
 H416 H 0.91215 0.42924 -0.20501
 H417 H 0.87763 0.39553 -0.25598
 C418 C 0.46998 -0.21345 -0.35819
 C419 C 0.46992 -0.19582 -0.32043
 C420 C 0.49168 -0.17676 -0.29815
 C421 C 0.51365 -0.17574 -0.31305
 C422 C 0.51383 -0.19311 -0.35160
 C423 C 0.49201 -0.21203 -0.37554
 N424 N 0.49113 -0.15790 -0.26391
 N425 N 0.50954 -0.14199 -0.23506
 C426 C 0.50937 -0.12220 -0.20444
 C427 C 0.52805 -0.10816 -0.16375
 C428 C 0.52905 -0.08793 -0.13570
 C429 C 0.51162 -0.08118 -0.14912
 C430 C 0.49280 -0.09537 -0.18967
 C431 C 0.49155 -0.11584 -0.21679
 H432 H 0.45278 -0.22769 -0.37539
 H433 H 0.45288 -0.19676 -0.30932
 H434 H 0.53073 -0.16109 -0.29652
 H435 H 0.53115 -0.19139 -0.36346
 H436 H 0.54194 -0.11281 -0.15412
 H437 H 0.54378 -0.07725 -0.10471
 H438 H 0.47908 -0.09059 -0.20058
 H439 H 0.47704 -0.12631 -0.24847
 C440 C 0.31731 0.51899 -0.37332
 C441 C 0.33547 0.51969 -0.33641
 C442 C 0.33180 0.49888 -0.30563
 C443 C 0.30950 0.47722 -0.31157
 C444 C 0.29136 0.47641 -0.34916
 C445 C 0.29517 0.49727 -0.38079
 N446 N 0.35143 0.50002 -0.27126
 N447 N 0.34893 0.48297 -0.23627
 C448 C 0.36919 0.48415 -0.20474
 C449 C 0.36507 0.46703 -0.15950
 C450 C 0.38459 0.46727 -0.12957
 C451 C 0.40856 0.48441 -0.14536
 C452 C 0.41266 0.50165 -0.19052
 C453 C 0.39315 0.50163 -0.21973
 H454 H 0.32088 0.53535 -0.39725
 H455 H 0.35262 0.53644 -0.33235
 H456 H 0.30632 0.46086 -0.28838
 H457 H 0.27450 0.45942 -0.35399
 H458 H 0.34671 0.45343 -0.14765
 H459 H 0.38095 0.45374 -0.09501
 H460 H 0.43095 0.51511 -0.20342
 H461 H 0.39682 0.51498 -0.25477
 C462 C 1.20821 0.68840 -0.35309
 C463 C 1.19126 0.67145 -0.31271
 C464 C 1.16897 0.67032 -0.30348
 C465 C 1.16421 0.68716 -0.33258
 C466 C 1.18152 0.70479 -0.37110
 C467 C 1.20354 0.70527 -0.38314
 N468 N 1.15112 0.65154 -0.26595
 N469 N 1.12879 0.64085 -0.28028
 C470 C 1.11056 0.62212 -0.24337
 C471 C 1.09018 0.60319 -0.27138
 C472 C 1.07231 0.58433 -0.23676
 C473 C 1.07412 0.58470 -0.17333
 C474 C 1.09425 0.60401 -0.14499
 C475 C 1.11262 0.62243 -0.17990
 H476 H 1.22499 0.68827 -0.36056
 H477 H 1.19513 0.65858 -0.29030
 H478 H 1.14711 0.68664 -0.32539
 H479 H 1.17721 0.71743 -0.39314
 H480 H 1.08839 0.60283 -0.32025
 H481 H 1.05683 0.56968 -0.25944
 H482 H 1.09593 0.60460 -0.09606
 H483 H 1.12818 0.63707 -0.15751
 C484 C 0.82276 0.54467 -0.33957
 C485 C 0.83987 0.54532 -0.29862
 C486 C 0.84061 0.52417 -0.28509
 C487 C 0.82328 0.50203 -0.31107
 C488 C 0.80598 0.50129 -0.35144
 C489 C 0.80586 0.52269 -0.36711
 N490 N 0.85988 0.52583 -0.24799
 N491 N 0.86373 0.50808 -0.24286
 C492 C 0.88346 0.50942 -0.20851
 C493 C 0.88874 0.49063 -0.21457
 C494 C 0.90899 0.49207 -0.18607
 C495 C 0.92415 0.51224 -0.15003
 C496 C 0.91836 0.53071 -0.14190
 C497 C 0.89824 0.52944 -0.17143
 H498 H 0.82305 0.56145 -0.35049
 H499 H 0.85311 0.56249 -0.27892
 H500 H 0.82339 0.48539 -0.30113
 H501 H 0.79322 0.48409 -0.37188
 H502 H 0.87748 0.47512 -0.24295
 H503 H 0.91292 0.47748 -0.19273
 H504 H 0.92978 0.54643 -0.11431
 H505 H 0.89442 0.54415 -0.16597
 C506 C 0.52068 0.31580 -0.36332
 C507 C 0.52072 0.33359 -0.32614
 C508 C 0.49914 0.33023 -0.30056
 C509 C 0.47735 0.30859 -0.31197
 C510 C 0.47721 0.29086 -0.34993
 C511 C 0.49887 0.29439 -0.37639
 N512 N 0.49977 0.34964 -0.26617
 N513 N 0.48189 0.34720 -0.23480
 C514 C 0.48276 0.36743 -0.20366
 C515 C 0.46487 0.36333 -0.16075
 C516 C 0.46492 0.38288 -0.13133
 C517 C 0.48264 0.40685 -0.14549
 C518 C 0.50060 0.41091 -0.18839
 C519 C 0.50078 0.39139 -0.21694
 H520 H 0.53765 0.31914 -0.38321
 H521 H 0.53760 0.35025 -0.31787
 H522 H 0.46041 0.30569 -0.29291
 H523 H 0.46014 0.27454 -0.35914
 H524 H 0.45084 0.34496 -0.15026
 H525 H 0.45084 0.37929 -0.09852
 H526 H 0.51452 0.42921 -0.19998
 H527 H 0.51472 0.39505 -0.25020
 C528 C 0.67967 0.20472 -0.36932
 C529 C 0.66160 0.18705 -0.33239
 C530 C 0.66567 0.17018 -0.30135
 C531 C 0.68835 0.17154 -0.30638
 C532 C 0.70634 0.18901 -0.34383
 C533 C 0.70206 0.20556 -0.37642
 N534 N 0.64606 0.15096 -0.26847
 N535 N 0.64899 0.13630 -0.23492
 C536 C 0.62902 0.11615 -0.20538
 C537 C 0.63370 0.10282 -0.16221
 C538 C 0.61458 0.08228 -0.13501
 C539 C 0.59047 0.07453 -0.15155
 C540 C 0.58580 0.08803 -0.19454
 C541 C 0.60489 0.10875 -0.22100
 H542 H 0.67578 0.21713 -0.39405
 H543 H 0.64417 0.18614 -0.32903
 H544 H 0.69190 0.15864 -0.28297
 H545 H 0.72341 0.18922 -0.34827
 H546 H 0.65221 0.10827 -0.14999
 H547 H 0.61867 0.07218 -0.10204
 H548 H 0.56738 0.08252 -0.20791
 H549 H 0.60081 0.11866 -0.25454
 C550 C 1.20408 0.51913 -0.36435
 C551 C 1.18660 0.51945 -0.32653
 C552 C 1.16958 0.49832 -0.29668
 C553 C 1.17058 0.47685 -0.30377
 C554 C 1.18790 0.47642 -0.34211
 C555 C 1.20459 0.49748 -0.37354
 N556 N 1.15052 0.49876 -0.26315
 N557 N 1.13556 0.48102 -0.23059
 C558 C 1.11563 0.48126 -0.20090
 C559 C 1.10185 0.46316 -0.15838
 C560 C 1.08152 0.46229 -0.13123
 C561 C 1.07447 0.47929 -0.14723
 C562 C 1.08842 0.49753 -0.18954
 C563 C 1.10890 0.49861 -0.21588
 H564 H 1.21662 0.53562 -0.38805
 H565 H 1.18594 0.53607 -0.32157
 H566 H 1.15753 0.46025 -0.28133
 H567 H 1.18786 0.45948 -0.34816
 H568 H 1.10679 0.44962 -0.14666
 H569 H 1.07104 0.44803 -0.09878
 H570 H 1.08345 0.51093 -0.20250
 H571 H 1.11914 0.51268 -0.24891
 C572 C 0.47168 0.67883 -0.36186
 C573 C 0.47208 0.66131 -0.32428
 C574 C 0.49405 0.66440 -0.30222
 C575 C 0.51578 0.68551 -0.31742
 C576 C 0.51549 0.70293 -0.35576
 C577 C 0.49344 0.69970 -0.37918
 N578 N 0.49389 0.64525 -0.26747
 N579 N 0.51248 0.64791 -0.23904
 C580 C 0.51240 0.62813 -0.20752
 C581 C 0.53145 0.63286 -0.16786
 C582 C 0.53235 0.61377 -0.13856
 C583 C 0.51441 0.58960 -0.14962
 C584 C 0.49525 0.58489 -0.18919
 C585 C 0.49415 0.60399 -0.21759
 H586 H 0.45431 0.67560 -0.37867
 H587 H 0.45522 0.64507 -0.31296
 H588 H 0.53301 0.68823 -0.30108
 H589 H 0.53263 0.71874 -0.36766
 H590 H 0.54568 0.65138 -0.15992
 H591 H 0.54734 0.61787 -0.10836
 H592 H 0.48114 0.56642 -0.19832
 H593 H 0.47932 0.59985 -0.24835
 C594 C 0.31655 -0.20697 -0.37047
 C595 C 0.33470 -0.18946 -0.33365
 C596 C 0.33130 -0.17174 -0.30499
 C597 C 0.30922 -0.17200 -0.31249
 C598 C 0.29112 -0.18937 -0.34988
 C599 C 0.29473 -0.20685 -0.37989
 N600 N 0.35105 -0.15294 -0.27169
 N601 N 0.34875 -0.13756 -0.23960
 C602 C 0.36904 -0.11804 -0.20941
 C603 C 0.39299 -0.11211 -0.22301
 C604 C 0.41252 -0.09210 -0.19557
 C605 C 0.40845 -0.07789 -0.15359
 C606 C 0.38449 -0.08416 -0.13915
 C607 C 0.36496 -0.10397 -0.16733
 H608 H 0.31996 -0.22011 -0.39311
 H609 H 0.35167 -0.18939 -0.32836
 H610 H 0.30622 -0.15841 -0.29094
 H611 H 0.27451 -0.18881 -0.35622
 H612 H 0.39662 -0.12262 -0.25566
 H613 H 0.43080 -0.08772 -0.20732
 H614 H 0.38086 -0.07347 -0.10702
 H615 H 0.34661 -0.10830 -0.15665
 C616 C 0.47009 -0.20886 0.37373
 C617 C 0.47010 -0.19081 0.33742
 C618 C 0.49137 -0.17357 0.30859
 C619 C 0.51272 -0.17477 0.31571
 C620 C 0.51283 -0.19263 0.35266
 C621 C 0.49156 -0.20973 0.38253
 N622 N 0.49109 -0.15440 0.27502
 N623 N 0.50883 -0.13975 0.24204
 C624 C 0.50891 -0.11987 0.21106
 C625 C 0.52693 -0.10689 0.16784
 C626 C 0.52803 -0.08684 0.13847
 C627 C 0.51132 -0.07921 0.15281
 C628 C 0.49319 -0.09230 0.19606
 C629 C 0.49188 -0.11257 0.22472
 H630 H 0.45344 -0.22168 0.39637
 H631 H 0.45355 -0.19002 0.33243
 H632 H 0.52943 -0.16155 0.29405
 H633 H 0.52963 -0.19285 0.35853
 H634 H 0.54020 -0.11228 0.15710
 H635 H 0.54222 -0.07704 0.10539
 H636 H 0.48004 -0.08685 0.20778
 H637 H 0.47787 -0.12224 0.25826
 C638 C 0.28290 0.46919 0.34433
 C639 C 0.29902 0.46754 0.30411
 C640 C 0.32184 0.48775 0.29298
 C641 C 0.32802 0.51003 0.32063
 C642 C 0.31180 0.51181 0.36019
 C643 C 0.28926 0.49128 0.37340
 N644 N 0.33883 0.48489 0.25623
 N645 N 0.36107 0.50127 0.25365
 C646 C 0.37859 0.49848 0.21912
 C647 C 0.40317 0.51522 0.22771
 C648 C 0.42093 0.51218 0.19838
 C649 C 0.41434 0.49248 0.15907
 C650 C 0.38964 0.47609 0.14875
 C651 C 0.37184 0.47894 0.17898
 H652 H 0.26561 0.45310 0.35337
 H653 H 0.29403 0.45028 0.28305
 H654 H 0.34553 0.52596 0.31250
 H655 H 0.31723 0.52905 0.38193
 H656 H 0.40857 0.53035 0.25846
 H657 H 0.43984 0.52518 0.20679
 H658 H 0.38412 0.46077 0.11860
 H659 H 0.35291 0.46582 0.17150
 C660 C 1.18863 0.71488 0.33812
 C661 C 1.17146 0.69927 0.29618
 C662 C 1.16868 0.67635 0.28485
 C663 C 1.18396 0.66950 0.31446
 C664 C 1.20133 0.68521 0.35589
 C665 C 1.20356 0.70789 0.36896
 N666 N 1.14946 0.65991 0.24587
 N667 N 1.14378 0.63773 0.24143
 C668 C 1.12397 0.62062 0.20509
 C669 C 1.11626 0.59595 0.21209
 C670 C 1.09564 0.57847 0.18196
 C671 C 1.08260 0.58541 0.14331
 C672 C 1.09092 0.61022 0.13405
 C673 C 1.11139 0.62777 0.16522
 H674 H 1.19001 0.73230 0.34694
 H675 H 1.15981 0.70475 0.27371
 H676 H 1.18222 0.65190 0.30633
 H677 H 1.21256 0.67931 0.37888
 H678 H 1.12583 0.59024 0.24258
 H679 H 1.08972 0.55946 0.18954
 H680 H 1.08114 0.61600 0.10449
 H681 H 1.11712 0.64679 0.15896
 C682 C 0.52220 0.20188 0.37654
 C683 C 0.52258 0.18426 0.33947
 C684 C 0.50171 0.16751 0.30855
 C685 C 0.48033 0.16874 0.31448
 C686 C 0.47982 0.18622 0.35221
 C687 C 0.50073 0.20286 0.38403
 N688 N 0.50251 0.14883 0.27404
 N689 N 0.48537 0.13453 0.23918
 C690 C 0.48621 0.11526 0.20748
 C691 C 0.46894 0.10245 0.16259
 C692 C 0.46885 0.08300 0.13250
 C693 C 0.48583 0.07583 0.14775
 C694 C 0.50322 0.08878 0.19255
 C695 C 0.50352 0.10842 0.22193
 H696 H 0.53859 0.21433 0.40059
 H697 H 0.53914 0.18344 0.33542
 H698 H 0.46392 0.15587 0.29119
 H699 H 0.46302 0.18652 0.35704
 H700 H 0.45547 0.10748 0.15114
 H701 H 0.45520 0.07328 0.09822
 H702 H 0.51656 0.08369 0.20505
 H703 H 0.51699 0.11794 0.25668
 C704 C 0.70851 0.50210 0.33174
 C705 C 0.69158 0.50141 0.29004
 C706 C 0.68470 0.51920 0.29144
 C707 C 0.69586 0.53844 0.33292
 C708 C 0.71331 0.53956 0.37329
 C709 C 0.71940 0.52112 0.37395
 N710 N 0.66557 0.51687 0.25275
 N711 N 0.65173 0.52491 0.26958
 C712 C 0.63235 0.52310 0.23293
 C713 C 0.61247 0.52246 0.26179
 C714 C 0.59295 0.52025 0.22796
 C715 C 0.59342 0.51955 0.16441
 C716 C 0.61365 0.52083 0.13512
 C717 C 0.63289 0.52220 0.16929
 H718 H 0.71301 0.48773 0.33129
 H719 H 0.68310 0.48649 0.25824
 H720 H 0.69092 0.55247 0.33440
 H721 H 0.72138 0.55436 0.40554
 H722 H 0.61194 0.52325 0.31078
 H723 H 0.57761 0.51947 0.25148
 H724 H 0.61432 0.52031 0.08611
 H725 H 0.64826 0.52290 0.14622
 C726 C 0.80971 0.28271 0.34330
 C727 C 0.82762 0.29850 0.30293
 C728 C 0.83089 0.32164 0.29184
 C729 C 0.81535 0.32852 0.31978
 C730 C 0.79721 0.31262 0.35950
 C731 C 0.79450 0.28973 0.37257
 N732 N 0.85079 0.33820 0.25461
 N733 N 0.85726 0.36063 0.25178
 C734 C 0.87762 0.37767 0.21661
 C735 C 0.88616 0.40245 0.22490
 C736 C 0.90699 0.41971 0.19479
 C737 C 0.91941 0.41242 0.15499
 C738 C 0.91038 0.38753 0.14501
 C739 C 0.88971 0.37022 0.17602
 H740 H 0.80798 0.26514 0.35223
 H741 H 0.83946 0.29298 0.28165
 H742 H 0.81745 0.34629 0.31170
 H743 H 0.78580 0.31855 0.38140
 H744 H 0.87698 0.40839 0.25599
 H745 H 0.91346 0.43879 0.20298
 H746 H 0.91964 0.38146 0.11452
 H747 H 0.88335 0.35112 0.16874
   
