data_POSCAR
  _audit_creation_date              2014-09-24
  _audit_creation_method            'ToBaCCo'
  _symmetry_space_group_name_H-M    'P1'
  _symmetry_Int_Tables_number       1
  _symmetry_cell_setting            triclinic
  loop_
  _symmetry_equiv_pos_as_xyz
 x,y,z
_cell_length_a 39.1354
_cell_length_b 39.1024
_cell_length_c 38.9934
_cell_angle_alpha 78.073600
_cell_angle_beta 99.566800
_cell_angle_gamma 97.261600
loop_
  _atom_site_label
  _atom_site_type_symbol
  _atom_site_fract_x
  _atom_site_fract_y
  _atom_site_fract_z
C1 C 0.58189 0.53163 0.00140
 C2 C 0.57419 0.56568 0.00167
 C3 C 0.54005 0.57407 0.00009
 C4 C 0.51213 0.54732 -0.00315
 C5 C 0.51930 0.51229 -0.00160
 C6 C 0.55420 0.50427 0.00118
 C7 C 0.56051 0.46882 0.00576
 C8 C 0.53328 0.44244 0.00408
 C9 C 0.49852 0.45018 -0.00133
 C10 C 0.49137 0.48518 -0.00307
 C11 C 0.47720 0.55505 -0.01060
 C12 C 0.45002 0.52866 -0.01237
 C13 C 0.45637 0.49319 -0.00661
 C14 C 0.42863 0.46582 -0.00709
 C15 C 0.43650 0.43174 -0.00713
 C16 C 0.47073 0.42364 -0.00428
 H17 H 0.58662 0.46085 0.01133
 H18 H 0.53986 0.41577 0.00748
 H19 H 0.47037 0.58178 -0.01617
 H20 H 0.42390 0.53663 -0.01926
 H21 H 0.59539 0.58632 0.00301
 H22 H 0.41582 0.41050 -0.00767
 C23 C -0.00618 0.57733 0.46021
 C24 C -0.00540 0.57166 0.42613
 C25 C -0.00310 0.53809 0.41949
 C26 C -0.00371 0.50880 0.44814
 C27 C -0.00400 0.51432 0.48300
 C28 C -0.00482 0.54871 0.48909
 C29 C -0.00419 0.55363 0.52392
 C30 C -0.00394 0.52527 0.55210
 C31 C -0.00403 0.49085 0.54665
 C32 C -0.00407 0.48527 0.51183
 C33 C -0.00663 0.47398 0.44265
 C34 C -0.00680 0.44560 0.47080
 C35 C -0.00478 0.45065 0.50572
 C36 C -0.00485 0.42189 0.53454
 C37 C -0.00528 0.42783 0.56861
 C38 C -0.00473 0.46177 0.57504
 H39 H -0.00392 0.57952 0.52981
 H40 H -0.00401 0.53063 0.57823
 H41 H -0.00988 0.46804 0.41637
 H42 H -0.00928 0.41954 0.46474
 H43 H -0.00511 0.59428 0.40467
 H44 H -0.00545 0.40573 0.59062
 C45 C 0.53343 0.01630 0.57490
 C46 C 0.56720 0.01990 0.56602
 C47 C 0.57364 0.01513 0.53301
 C48 C 0.54481 0.01037 0.50634
 C49 C 0.51032 0.00812 0.51418
 C50 C 0.50453 0.01090 0.54849
 C51 C 0.47001 0.01084 0.55457
 C52 C 0.44190 0.00617 0.52852
 C53 C 0.44696 0.00309 0.49455
 C54 C 0.48145 0.00411 0.48724
 C55 C 0.54950 0.01066 0.47121
 C56 C 0.52137 0.00592 0.44522
 C57 C 0.48712 0.00195 0.45279
 C58 C 0.45834 -0.00260 0.42634
 C59 C 0.42457 -0.00386 0.43408
 C60 C 0.41846 -0.00062 0.46753
 H61 H 0.46414 0.01532 0.57930
 H62 H 0.41608 0.00549 0.53528
 H63 H 0.57500 0.01559 0.46300
 H64 H 0.52681 0.00632 0.41882
 H65 H 0.58911 0.02250 0.58670
 H66 H 0.40264 -0.00682 0.41351
 O67 O 0.47740 -0.00157 -0.04987
 O68 O 0.46875 -0.01398 0.04454
 O69 O 0.47101 0.03965 -0.00736
 O70 O 0.47569 -0.05536 0.00188
 O71 O 0.53265 -0.04780 0.01681
 O72 O 0.52820 0.04741 0.00514
 O73 O 0.52579 -0.00513 0.05787
 O74 O 0.53460 0.00458 -0.03637
 Cu75 Cu 0.46748 -0.00863 -0.00400
 Cu76 Cu 0.53604 0.00054 0.01216
 C77 C 0.50748 0.00324 -0.05924
 C78 C 0.49572 -0.01119 0.06733
 C79 C 0.49881 0.05980 -0.00267
 C80 C 0.50501 -0.06782 0.01095
 O81 O -0.03734 0.53083 0.98788
 O82 O 0.05709 0.52609 0.99570
 O83 O 0.00497 0.52439 0.94522
 O84 O 0.01493 0.53282 1.03876
 O85 O 0.00613 0.47525 1.05452
 O86 O -0.00205 0.46673 0.96114
 O87 O 0.04937 0.46857 1.01260
 O88 O -0.04519 0.47317 1.00337
 Cu89 Cu 0.01070 0.53432 0.99037
 Cu90 Cu 0.00130 0.46515 1.00948
 C91 C -0.05743 0.50282 0.99432
 C92 C 0.06938 0.49647 1.00532
 C93 C 0.00010 0.49410 0.93719
 C94 C 0.01185 0.50551 1.06261
 O95 O -0.01633 -0.04000 0.46630
 O96 O -0.00752 0.05309 0.47388
 O97 O 0.03494 0.00926 0.46727
 O98 O -0.05857 0.00394 0.47331
 O99 O -0.04718 -0.01169 0.53141
 O100 O 0.04634 -0.00568 0.52542
 O101 O 0.00371 0.03792 0.53202
 O102 O -0.00459 -0.05525 0.52440
 Cu103 Cu -0.01300 0.00805 0.46437
 Cu104 Cu 0.00071 -0.01022 0.53413
 C105 C -0.01173 -0.06357 0.49400
 C106 C -0.00069 0.06145 0.50425
 C107 C 0.05666 0.00262 0.49531
 C108 C -0.06886 -0.00454 0.50343
 C109 C -0.31255 0.52040 0.99605
 C110 C -0.32107 0.53850 1.02060
 C111 C -0.35574 0.54186 1.02253
 C112 C -0.38306 0.52652 1.00052
 C113 C -0.37445 0.50835 0.97595
 C114 C -0.33967 0.50528 0.97379
 C115 C -0.27548 0.51777 0.99350
 C116 C -0.26489 0.48688 0.98712
 C117 C -0.22990 0.48432 0.98546
 C118 C -0.20461 0.51252 0.99032
 C119 C -0.21529 0.54347 0.99642
 C120 C -0.25026 0.54612 0.99782
 C121 C -0.16717 0.50954 0.98982
 C122 C -0.14559 0.53865 0.97528
 C123 C -0.11006 0.53637 0.97642
 C124 C -0.09531 0.50483 0.99180
 C125 C -0.11695 0.47548 1.00561
 C126 C -0.15243 0.47785 1.00476
 H127 H -0.30090 0.54988 1.03864
 H128 H -0.36119 0.55576 1.04204
 H129 H -0.39460 0.49760 0.95740
 H130 H -0.33403 0.49186 0.95402
 H131 H -0.28356 0.46443 0.98398
 H132 H -0.22267 0.46025 0.98027
 H133 H -0.19653 0.56555 1.00076
 H134 H -0.25754 0.57051 1.00219
 H135 H -0.15617 0.56326 0.96295
 H136 H -0.09412 0.55937 0.96529
 H137 H -0.10632 0.45085 1.01780
 H138 H -0.16812 0.45506 1.01667
 C139 C 0.32333 0.47726 0.99931
 C140 C 0.35075 0.49317 1.02059
 C141 C 0.38538 0.48997 1.01807
 C142 C 0.39362 0.47085 0.99410
 C143 C 0.36601 0.45460 0.97315
 C144 C 0.33144 0.45810 0.97543
 C145 C 0.28643 0.48023 1.00222
 C146 C 0.26108 0.45173 0.99916
 C147 C 0.22629 0.45463 1.00117
 C148 C 0.21596 0.48601 1.00663
 C149 C 0.24137 0.51439 1.01015
 C150 C 0.27616 0.51157 1.00787
 C151 C 0.17872 0.48925 1.00789
 C152 C 0.16386 0.52079 0.99252
 C153 C 0.12854 0.52337 0.99240
 C154 C 0.10717 0.49437 1.00736
 C155 C 0.12206 0.46301 1.02320
 C156 C 0.15744 0.46053 1.02362
 H157 H 0.34546 0.50736 1.03991
 H158 H 0.40573 0.50138 1.03595
 H159 H 0.37113 0.43991 0.95415
 H160 H 0.31102 0.44604 0.95815
 H161 H 0.26811 0.42700 0.99537
 H162 H 0.20740 0.43239 0.99785
 H163 H 0.23443 0.53881 1.01482
 H164 H 0.29491 0.53416 1.01000
 H165 H 0.17930 0.54326 0.97970
 H166 H 0.11780 0.54784 0.97980
 H167 H 0.10633 0.44028 1.03519
 H168 H 0.16814 0.43606 1.03631
 C169 C -0.01125 -0.31618 0.47087
 C170 C 0.01835 -0.32605 0.46065
 C171 C 0.01999 -0.36069 0.45740
 C172 C -0.00780 -0.38617 0.46452
 C173 C -0.03745 -0.37651 0.47460
 C174 C -0.03913 -0.34183 0.47787
 C175 C -0.01302 -0.27922 0.47403
 C176 C -0.02739 -0.27157 0.50199
 C177 C -0.02851 -0.23677 0.50518
 C178 C -0.01535 -0.20883 0.48044
 C179 C -0.00121 -0.21652 0.45235
 C180 C -0.00007 -0.25127 0.44917
 C181 C -0.01583 -0.17181 0.48411
 C182 C -0.02346 -0.14559 0.45408
 C183 C -0.02260 -0.11056 0.45735
 C184 C -0.01414 -0.10091 0.49075
 C185 C -0.00708 -0.12720 0.52086
 C186 C -0.00791 -0.16224 0.51757
 H187 H 0.04043 -0.30705 0.45554
 H188 H 0.04302 -0.36773 0.44948
 H189 H -0.05931 -0.39582 0.47974
 H190 H -0.06247 -0.33496 0.48527
 H191 H -0.03729 -0.29251 0.52175
 H192 H -0.03989 -0.23172 0.52692
 H193 H 0.00952 -0.19563 0.43308
 H194 H 0.01077 -0.25627 0.42708
 H195 H -0.03020 -0.15218 0.42800
 H196 H -0.02833 -0.09099 0.43364
 H197 H -0.00038 -0.12064 0.54696
 H198 H -0.00150 -0.18173 0.54117
 C199 C -0.00112 0.31487 0.52478
 C200 C 0.02649 0.34044 0.51652
 C201 C 0.02513 0.37528 0.51938
 C202 C -0.00390 0.38523 0.53035
 C203 C -0.03142 0.35985 0.53875
 C204 C -0.03013 0.32502 0.53585
 C205 C 0.00039 0.27774 0.52205
 C206 C -0.01199 0.25009 0.54754
 C207 C -0.01093 0.21517 0.54482
 C208 C 0.00260 0.20705 0.51656
 C209 C 0.01520 0.23471 0.49118
 C210 C 0.01410 0.26964 0.49389
 C211 C 0.00300 0.16989 0.51331
 C212 C -0.00525 0.15996 0.48003
 C213 C -0.00593 0.12486 0.47705
 C214 C 0.00154 0.09884 0.50729
 C215 C 0.01022 0.10880 0.54052
 C216 C 0.01098 0.14393 0.54349
 H217 H 0.04943 0.33339 0.50849
 H218 H 0.04684 0.39448 0.51333
 H219 H -0.05395 0.36708 0.54740
 H220 H -0.05200 0.30609 0.54195
 H221 H -0.02230 0.25542 0.56981
 H222 H -0.02122 0.19452 0.56458
 H223 H 0.02613 0.22935 0.46931
 H224 H 0.02354 0.29032 0.47362
 H225 H -0.01198 0.17921 0.45632
 H226 H -0.01285 0.11806 0.45107
 H227 H 0.01626 0.08943 0.56432
 H228 H 0.01797 0.15079 0.56944
 C229 C 0.52588 0.01465 -0.31724
 C230 C 0.54686 0.04140 -0.33616
 C231 C 0.54934 0.04188 -0.37160
 C232 C 0.53005 0.01626 -0.38949
 C233 C 0.50946 -0.01078 -0.37035
 C234 C 0.50742 -0.01157 -0.33476
 C235 C 0.52341 0.01396 -0.27937
 C236 C 0.49203 0.00195 -0.26577
 C237 C 0.48977 0.00090 -0.23018
 C238 C 0.51869 0.01230 -0.20727
 C239 C 0.55000 0.02460 -0.22093
 C240 C 0.55239 0.02521 -0.25643
 C241 C 0.51622 0.01106 -0.16930
 C242 C 0.54474 0.00300 -0.14283
 C243 C 0.54214 0.00117 -0.10715
 C244 C 0.51082 0.00683 -0.09706
 C245 C 0.48238 0.01508 -0.12340
 C246 C 0.48512 0.01745 -0.15910
 H247 H 0.56108 0.06232 -0.32378
 H248 H 0.56559 0.06303 -0.38538
 H249 H 0.49574 -0.03204 -0.38263
 H250 H 0.49190 -0.03322 -0.32079
 H251 H 0.46901 -0.00644 -0.28269
 H252 H 0.46538 -0.00929 -0.22058
 H253 H 0.57269 0.03406 -0.20428
 H254 H 0.57715 0.03414 -0.26573
 H255 H 0.56890 -0.00268 -0.14954
 H256 H 0.56441 -0.00551 -0.08739
 H257 H 0.45799 0.01989 -0.11642
 H258 H 0.46287 0.02450 -0.17871
 C259 C 0.46902 -0.01068 0.32040
 C260 C 0.45526 0.01854 0.32689
 C261 C 0.45186 0.02109 0.36134
 C262 C 0.46244 -0.00533 0.38997
 C263 C 0.47610 -0.03459 0.38374
 C264 C 0.47940 -0.03724 0.34925
 C265 C 0.47253 -0.01331 0.28367
 C266 C 0.50187 -0.02652 0.27659
 C267 C 0.50552 -0.02811 0.24190
 C268 C 0.47994 -0.01644 0.21346
 C269 C 0.45044 -0.00357 0.22061
 C270 C 0.44674 -0.00210 0.25528
 C271 C 0.48430 -0.01686 0.17639
 C272 C 0.45553 -0.02528 0.15174
 C273 C 0.45933 -0.02395 0.11647
 C274 C 0.49202 -0.01435 0.10506
 C275 C 0.52094 -0.00667 0.12984
 C276 C 0.51711 -0.00783 0.16508
 H277 H 0.44753 0.03971 0.30538
 H278 H 0.44124 0.04383 0.36575
 H279 H 0.48401 -0.05539 0.40560
 H280 H 0.48960 -0.06032 0.34511
 H281 H 0.52237 -0.03506 0.29780
 H282 H 0.52837 -0.03855 0.23736
 H283 H 0.43044 0.00603 0.19932
 H284 H 0.42358 0.00776 0.25985
 H285 H 0.43002 -0.03292 0.15972
 H286 H 0.43657 -0.03023 0.09808
 H287 H 0.54646 0.00096 0.12186
 H288 H 0.53971 -0.00073 0.18323
 C289 C 0.52794 -0.32165 0.00882
 C290 C 0.54958 -0.32802 -0.01410
 C291 C 0.55349 -0.36226 -0.01695
 C292 C 0.53519 -0.39121 0.00239
 C293 C 0.51365 -0.38477 0.02549
 C294 C 0.51007 -0.35046 0.02864
 C295 C 0.52424 -0.28507 0.01201
 C296 C 0.49203 -0.27529 0.01620
 C297 C 0.48847 -0.24065 0.01822
 C298 C 0.51696 -0.21488 0.01582
 C299 C 0.54921 -0.22479 0.01195
 C300 C 0.55285 -0.25944 0.01029
 C301 C 0.51302 -0.17765 0.01643
 C302 C 0.54035 -0.15673 0.03261
 C303 C 0.53755 -0.12120 0.03123
 C304 C 0.50718 -0.10584 0.01405
 C305 C 0.47942 -0.12689 -0.00121
 C306 C 0.48238 -0.16235 -0.00021
 H307 H 0.56321 -0.30649 -0.03031
 H308 H 0.57004 -0.36600 -0.03529
 H309 H 0.50039 -0.40635 0.04204
 H310 H 0.49385 -0.34657 0.04719
 H311 H 0.46936 -0.29424 0.01728
 H312 H 0.46337 -0.23408 0.02169
 H313 H 0.57162 -0.20562 0.00951
 H314 H 0.57818 -0.26612 0.00768
 H315 H 0.56402 -0.16779 0.04633
 H316 H 0.55925 -0.10572 0.04353
 H317 H 0.45575 -0.11572 -0.01481
 H318 H 0.46101 -0.17747 -0.01340
 C319 C 0.48292 0.31617 -0.00531
 C320 C 0.49276 0.34319 -0.03280
 C321 C 0.48938 0.37822 -0.03219
 C322 C 0.47623 0.38682 -0.00405
 C323 C 0.46661 0.36004 0.02352
 C324 C 0.47007 0.32505 0.02300
 C325 C 0.48540 0.27881 -0.00640
 C326 C 0.45915 0.25280 0.00459
 C327 C 0.46145 0.21763 0.00384
 C328 C 0.48999 0.20758 -0.00806
 C329 C 0.51616 0.23360 -0.01926
 C330 C 0.51390 0.26882 -0.01844
 C331 C 0.49256 0.17003 -0.00824
 C332 C 0.52469 0.15564 0.00208
 C333 C 0.52683 0.11999 0.00329
 C334 C 0.49687 0.09789 -0.00568
 C335 C 0.46485 0.11238 -0.01655
 C336 C 0.46274 0.14804 -0.01789
 H337 H 0.50228 0.33720 -0.05521
 H338 H 0.49651 0.39862 -0.05389
 H339 H 0.45634 0.36628 0.04540
 H340 H 0.46277 0.30494 0.04484
 H341 H 0.43662 0.25966 0.01354
 H342 H 0.44106 0.19821 0.01308
 H343 H 0.53831 0.22678 -0.02891
 H344 H 0.53470 0.28818 -0.02680
 H345 H 0.54807 0.17175 0.01010
 H346 H 0.55188 0.10962 0.01189
 H347 H 0.44132 0.09612 -0.02384
 H348 H 0.43771 0.15842 -0.02654
 C349 C -0.32115 0.00682 0.52352
 C350 C -0.32976 0.03378 0.53847
 C351 C -0.36434 0.03662 0.54141
 C352 C -0.39143 0.01300 0.52879
 C353 C -0.38258 -0.01431 0.51432
 C354 C -0.34797 -0.01726 0.51158
 C355 C -0.28431 0.00365 0.52065
 C356 C -0.25744 0.01052 0.54782
 C357 C -0.22279 0.00793 0.54497
 C358 C -0.21412 -0.00176 0.51495
 C359 C -0.24100 -0.00889 0.48788
 C360 C -0.27567 -0.00616 0.49067
 C361 C -0.17715 -0.00385 0.51170
 C362 C -0.16492 0.00796 0.47894
 C363 C -0.12991 0.00711 0.47613
 C364 C -0.10628 -0.00541 0.50603
 C365 C -0.11857 -0.01767 0.53868
 C366 C -0.15361 -0.01699 0.54146
 H367 H -0.30979 0.05305 0.54752
 H368 H -0.36998 0.05803 0.55269
 H369 H -0.40234 -0.03420 0.50613
 H370 H -0.34214 -0.03893 0.50086
 H371 H -0.26321 0.01768 0.57148
 H372 H -0.20271 0.01404 0.56610
 H373 H -0.23528 -0.01680 0.46459
 H374 H -0.29567 -0.01129 0.46909
 H375 H -0.18223 0.01870 0.45561
 H376 H -0.12124 0.01692 0.45062
 H377 H -0.10106 -0.02766 0.56218
 H378 H -0.16229 -0.02686 0.56694
 C379 C 0.31128 0.00122 0.47869
 C380 C 0.33522 0.03081 0.48186
 C381 C 0.37016 0.03008 0.47868
 C382 C 0.38185 -0.00035 0.47270
 C383 C 0.35809 -0.02992 0.46955
 C384 C 0.32314 -0.02920 0.47261
 C385 C 0.27398 0.00223 0.48114
 C386 C 0.24785 -0.01269 0.45779
 C387 C 0.21273 -0.01171 0.45998
 C388 C 0.20293 0.00414 0.48562
 C389 C 0.22906 0.01907 0.50899
 C390 C 0.26420 0.01820 0.50672
 C391 C 0.16558 0.00476 0.48814
 C392 C 0.15395 -0.00213 0.52132
 C393 C 0.11865 -0.00250 0.52366
 C394 C 0.09420 0.00411 0.49287
 C395 C 0.10590 0.01143 0.45969
 C396 C 0.14119 0.01171 0.45736
 H397 H 0.32675 0.05477 0.48599
 H398 H 0.38806 0.05336 0.48052
 H399 H 0.36666 -0.05353 0.46466
 H400 H 0.30540 -0.05250 0.47042
 H401 H 0.25456 -0.02483 0.43755
 H402 H 0.19321 -0.02377 0.44186
 H403 H 0.22230 0.03173 0.52882
 H404 H 0.28376 0.02967 0.52526
 H405 H 0.17206 -0.00796 0.54549
 H406 H 0.11048 -0.00828 0.54963
 H407 H 0.08776 0.01672 0.43547
 H408 H 0.14944 0.01756 0.43144
 C409 C 0.00871 0.53077 1.31483
 C410 C -0.01636 0.55083 1.32077
 C411 C -0.02001 0.55343 1.35514
 C412 C 0.00064 0.53523 1.38469
 C413 C 0.02626 0.51579 1.37864
 C414 C 0.03021 0.51357 1.34422
 C415 C 0.01206 0.52750 1.27818
 C416 C 0.01980 0.49568 1.27117
 C417 C 0.02180 0.49224 1.23660
 C418 C 0.01576 0.52040 1.20807
 C419 C 0.00843 0.55235 1.21515
 C420 C 0.00680 0.55590 1.24975
 C421 C 0.01615 0.51623 1.17103
 C422 C 0.02861 0.54431 1.14594
 C423 C 0.02749 0.54078 1.11080
 C424 C 0.01428 0.50895 1.10003
 C425 C 0.00248 0.48066 1.12519
 C426 C 0.00321 0.48431 1.16020
 H427 H -0.03375 0.56401 1.29888
 H428 H -0.04006 0.56864 1.35861
 H429 H 0.04391 0.50296 1.40056
 H430 H 0.05049 0.49875 1.34064
 H431 H 0.02363 0.47311 1.29229
 H432 H 0.02806 0.46742 1.23227
 H433 H 0.00321 0.57448 1.19386
 H434 H 0.00137 0.58099 1.25418
 H435 H 0.03936 0.56905 1.15344
 H436 H 0.03701 0.56298 1.09205
 H437 H -0.00810 0.45588 1.11765
 H438 H -0.00721 0.46232 1.17856
 C439 C -0.00535 0.47217 0.68247
 C440 C 0.02518 0.48178 0.66669
 C441 C 0.02533 0.47860 0.63168
 C442 C -0.00498 0.46572 0.61187
 C443 C -0.03541 0.45590 0.62741
 C444 C -0.03567 0.45924 0.66236
 C445 C -0.00553 0.47550 0.71974
 C446 C -0.02428 0.44992 0.74230
 C447 C -0.02433 0.45299 0.77737
 C448 C -0.00550 0.48162 0.79081
 C449 C 0.01322 0.50720 0.76824
 C450 C 0.01314 0.50423 0.73313
 C451 C -0.00510 0.48467 0.82826
 C452 C -0.00558 0.51761 0.83726
 C453 C -0.00420 0.52062 0.87256
 C454 C -0.00255 0.49073 0.89969
 C455 C -0.00261 0.45772 0.89070
 C456 C -0.00377 0.45474 0.85541
 H457 H 0.04911 0.49125 0.68158
 H458 H 0.04911 0.48596 0.62004
 H459 H -0.05900 0.44587 0.61237
 H460 H -0.05973 0.45208 0.67349
 H461 H -0.03860 0.42724 0.73299
 H462 H -0.03935 0.43303 0.79389
 H463 H 0.02837 0.52936 0.77783
 H464 H 0.02750 0.52462 0.71637
 H465 H -0.00722 0.54111 0.81697
 H466 H -0.00441 0.54641 0.87859
 H467 H -0.00117 0.43421 0.91101
 H468 H -0.00286 0.42904 0.84949
   
