data_POSCAR
  _audit_creation_date              2014-09-24
  _audit_creation_method            'ToBaCCo'
  _symmetry_space_group_name_H-M    'P1'
  _symmetry_Int_Tables_number       1
  _symmetry_cell_setting            triclinic
  loop_
  _symmetry_equiv_pos_as_xyz
 x,y,z
_cell_length_a 28.7732
_cell_length_b 28.1983
_cell_length_c 11.5570
_cell_angle_alpha 89.830700
_cell_angle_beta 90.967600
_cell_angle_gamma 115.937100
loop_
  _atom_site_label
  _atom_site_type_symbol
  _atom_site_fract_x
  _atom_site_fract_y
  _atom_site_fract_z
C1 C 0.45495 0.96449 0.54735
 C2 C 0.44850 0.96420 0.42537
 C3 C 0.47418 1.01146 0.36410
 C4 C 0.51039 1.05787 0.41813
 C5 C 0.51841 1.05806 0.54005
 C6 C 0.48917 1.01174 0.60203
 H7 H 0.49408 1.01215 0.69537
 H8 H 0.46909 1.01075 0.27073
 C9 C 0.05004 0.52940 0.52489
 C10 C 0.04487 0.51623 0.40587
 C11 C -0.00410 0.48133 0.36169
 C12 C -0.04692 0.45780 0.43480
 C13 C -0.04163 0.47295 0.55189
 C14 C 0.00614 0.51095 0.59400
 H15 H 0.01019 0.52321 0.68387
 H16 H -0.00887 0.47235 0.26986
 C17 C 0.49309 0.54723 0.55095
 C18 C 0.49194 0.54670 0.42844
 C19 C 0.51893 0.52360 0.36885
 C20 C 0.54724 0.50111 0.42823
 C21 C 0.55257 0.50566 0.55050
 C22 C 0.52504 0.52862 0.60939
 H23 H 0.52671 0.53006 0.70329
 H24 H 0.51613 0.52112 0.27515
 O25 O 0.41124 0.67054 -0.10878
 O26 O 0.39903 0.75700 -0.14399
 C27 C 0.37286 0.78291 -0.15939
 O28 O 0.32956 0.77035 -0.11237
 O29 O 0.25136 0.68062 -0.16631
 C30 C 0.23270 0.63195 -0.19157
 O31 O 0.24311 0.59926 -0.13376
 O32 O 0.33518 0.60382 -0.15365
 C33 C 0.38366 0.62837 -0.16390
 O34 O 0.40226 0.68113 0.11937
 O35 O 0.39364 0.76816 0.08491
 C36 C 0.35890 0.77580 0.13707
 O37 O 0.31114 0.74968 0.11245
 O38 O 0.22861 0.66079 0.05835
 C39 C 0.22197 0.61804 0.10780
 O40 O 0.25302 0.59755 0.09714
 O41 O 0.34416 0.59926 0.07717
 C42 C 0.38204 0.63186 0.13697
 Cr43 Cr 0.39857 0.71763 -0.01273
 Cr44 Cr 0.28187 0.71383 -0.02662
 Cr45 Cr 0.29510 0.60298 -0.02804
 O46 O 0.32518 0.67805 -0.02228
 O47 O 0.61554 0.35295 -0.14886
 O48 O 0.60168 0.25422 -0.12266
 C49 C 0.63159 0.23896 -0.17304
 O50 O 0.67980 0.25926 -0.15247
 O51 O 0.77005 0.33659 -0.09853
 C52 C 0.78363 0.38215 -0.14282
 O53 O 0.76352 0.41253 -0.11554
 O54 O 0.68082 0.42717 -0.08588
 C55 C 0.64108 0.40287 -0.15018
 O56 O 0.60698 0.36139 0.07699
 O57 O 0.59985 0.26615 0.10609
 C58 C 0.62010 0.23497 0.12668
 O59 O 0.65946 0.23715 0.07376
 O60 O 0.74780 0.31449 0.12905
 C61 C 0.77467 0.36123 0.16354
 O62 O 0.77143 0.40058 0.11662
 O63 O 0.68618 0.41125 0.14401
 C64 C 0.63753 0.39440 0.14929
 Cr65 Cr 0.60894 0.30968 -0.02189
 Cr66 Cr 0.71324 0.28886 -0.01216
 Cr67 Cr 0.72392 0.41001 0.01382
 O68 O 0.68225 0.33615 -0.00762
 C69 C 0.40414 0.92001 -0.28036
 C70 C 0.43040 0.91901 -0.38313
 C71 C 0.43669 0.87344 -0.40870
 C72 C 0.41800 0.82995 -0.33548
 C73 C 0.39372 0.83087 -0.23217
 C74 C 0.38853 0.87715 -0.20146
 C75 C 0.39174 0.96228 -0.25570
 C76 C 0.37020 0.96521 -0.15054
 C77 C 0.36024 0.92616 -0.06817
 C78 C 0.36919 0.88257 -0.09289
 H79 H 0.39846 0.99339 -0.31753
 H80 H 0.36189 0.99832 -0.13230
 H81 H 0.34497 0.92932 0.01492
 H82 H 0.36161 0.85404 -0.02485
 H83 H 0.45804 0.87195 -0.48370
 H84 H 0.42297 0.79534 -0.35939
 C85 C 0.13744 0.53630 -0.40914
 C86 C 0.10126 0.55791 -0.41718
 C87 C 0.11272 0.60643 -0.36425
 C88 C 0.15787 0.63233 -0.29875
 C89 C 0.19338 0.61088 -0.28577
 C90 C 0.18512 0.56458 -0.34854
 C91 C 0.12678 0.48645 -0.45684
 C92 C 0.16412 0.46748 -0.45509
 C93 C 0.21242 0.49733 -0.40447
 C94 C 0.22295 0.54536 -0.35144
 H95 H 0.08954 0.46153 -0.49505
 H96 H 0.15565 0.42962 -0.49387
 H97 H 0.24166 0.48294 -0.40507
 H98 H 0.26120 0.56763 -0.31479
 H99 H 0.08539 0.62329 -0.36987
 H100 H 0.16351 0.66781 -0.25232
 C101 C 0.42891 0.53184 -0.29568
 C102 C 0.46218 0.56422 -0.38306
 C103 C 0.46675 0.61554 -0.39857
 C104 C 0.44085 0.63559 -0.32744
 C105 C 0.40954 0.60511 -0.23848
 C106 C 0.40397 0.55306 -0.22066
 C107 C 0.41833 0.47805 -0.28377
 C108 C 0.38788 0.44760 -0.19439
 C109 C 0.36704 0.46971 -0.11551
 C110 C 0.37487 0.52178 -0.12822
 H111 H 0.43287 0.45871 -0.34399
 H112 H 0.38072 0.40674 -0.18588
 H113 H 0.34424 0.44625 -0.04475
 H114 H 0.35828 0.53715 -0.06416
 H115 H 0.49240 0.64133 -0.46292
 H116 H 0.44573 0.67552 -0.34113
 C117 C 0.58734 0.10201 -0.31006
 C118 C 0.55218 0.10373 -0.39665
 C119 C 0.54823 0.15131 -0.41325
 C120 C 0.57571 0.19519 -0.34297
 C121 C 0.60802 0.19327 -0.25307
 C122 C 0.61352 0.14610 -0.23500
 C123 C 0.59832 0.05787 -0.29842
 C124 C 0.62987 0.05507 -0.20862
 C125 C 0.65133 0.09600 -0.12887
 C126 C 0.64326 0.14098 -0.14160
 H127 H 0.58298 0.02522 -0.35888
 H128 H 0.63721 0.02069 -0.20016
 H129 H 0.67475 0.09316 -0.05735
 H130 H 0.66002 0.17113 -0.07666
 H131 H 0.52141 0.15389 -0.47700
 H132 H 0.57044 0.23058 -0.35663
 C133 C 0.91977 0.42757 -0.25823
 C134 C 0.91397 0.44547 -0.36981
 C135 C 0.86374 0.43508 -0.41523
 C136 C 0.82173 0.41504 -0.33788
 C137 C 0.82818 0.40232 -0.22219
 C138 C 0.87765 0.40968 -0.18155
 C139 C 0.96665 0.42718 -0.22048
 C140 C 0.97430 0.41748 -0.10523
 C141 C 0.93507 0.40657 -0.02652
 C142 C 0.88678 0.40139 -0.06427
 H143 H 0.99783 0.43424 -0.27913
 H144 H 1.01104 0.41921 -0.07660
 H145 H 0.94198 0.40147 0.06377
 H146 H 0.85719 0.39199 -0.00036
 H147 H 0.86073 0.46063 -0.50939
 H148 H 0.78446 0.41155 -0.36756
 C149 C 0.61542 0.51392 -0.29135
 C150 C 0.58119 0.48477 -0.38299
 C151 C 0.56989 0.43139 -0.39598
 C152 C 0.59150 0.40707 -0.32299
 C153 C 0.62277 0.43375 -0.22791
 C154 C 0.63341 0.48767 -0.20866
 C155 C 0.63249 0.56902 -0.28082
 C156 C 0.66139 0.59658 -0.18482
 C157 C 0.67366 0.56996 -0.09731
 C158 C 0.65972 0.51620 -0.10821
 H159 H 0.62350 0.59124 -0.34670
 H160 H 0.67333 0.63857 -0.17712
 H161 H 0.69432 0.59113 -0.02052
 H162 H 0.66872 0.49802 -0.03475
 H163 H 0.54122 0.40660 -0.45776
 H164 H 0.58158 0.36586 -0.33871
 C165 C 0.89971 0.37982 0.31436
 C166 C 0.90468 0.42063 0.39142
 C167 C 0.85888 0.42374 0.43052
 C168 C 0.81531 0.40199 0.35451
 C169 C 0.81404 0.37096 0.25747
 C170 C 0.85410 0.35480 0.24574
 C171 C 0.93828 0.36175 0.30897
 C172 C 0.93355 0.32190 0.23216
 C173 C 0.89022 0.29921 0.15997
 C174 C 0.85100 0.31550 0.16607
 H175 H 0.97115 0.37679 0.36783
 H176 H 0.96349 0.30852 0.22892
 H177 H 0.88680 0.26862 0.09932
 H178 H 0.81857 0.29635 0.10841
 H179 H 0.78426 0.41334 0.36611
 C180 C 0.59517 0.12593 0.34940
 C181 C 0.54011 0.10106 0.34681
 C182 C 0.51379 0.12068 0.27194
 C183 C 0.54049 0.16514 0.20514
 C184 C 0.59453 0.19171 0.21009
 C185 C 0.62234 0.17314 0.28566
 C186 C 0.62399 0.10355 0.40910
 C187 C 0.67766 0.13026 0.41822
 C188 C 0.70377 0.17916 0.36612
 C189 C 0.67657 0.20039 0.29996
 H190 H 0.60530 0.06511 0.44846
 H191 H 0.69902 0.11309 0.46657
 H192 H 0.74537 0.20038 0.37542
 H193 H 0.69842 0.23853 0.26193
 H194 H 0.47191 0.10218 0.26718
 H195 H 0.51857 0.17839 0.14730
 C196 C 0.53829 0.41948 0.32181
 C197 C 0.56935 0.47182 0.35964
 C198 C 0.62234 0.49545 0.33782
 C199 C 0.64455 0.46884 0.27460
 C200 C 0.61478 0.41696 0.23543
 C201 C 0.56175 0.39065 0.26650
 C202 C 0.48470 0.39424 0.34392
 C203 C 0.45546 0.34108 0.31757
 C204 C 0.47904 0.31184 0.27126
 C205 C 0.53162 0.33602 0.24702
 H206 H 0.46518 0.41491 0.38442
 H207 H 0.41462 0.32213 0.33623
 H208 H 0.45659 0.27006 0.25494
 H209 H 0.54839 0.31085 0.21704
 H210 H 0.64636 0.53534 0.36740
 H211 H 0.68501 0.48968 0.25304
 C212 C 0.10421 0.50913 0.25079
 C213 C 0.08995 0.53986 0.32688
 C214 C 0.11823 0.59501 0.32567
 C215 C 0.16073 0.61965 0.25456
 C216 C 0.17524 0.59020 0.17843
 C217 C 0.14490 0.53472 0.17129
 C218 C 0.07927 0.45347 0.25188
 C219 C 0.08992 0.42399 0.16902
 C220 C 0.12573 0.44930 0.08371
 C221 C 0.15297 0.50408 0.08452
 H222 H 0.05178 0.43220 0.31708
 H223 H 0.06972 0.38136 0.17003
 H224 H 0.13272 0.42642 0.01704
 H225 H 0.17907 0.52213 0.01462
 H226 H 0.10749 0.61936 0.38115
 H227 H 0.18259 0.66214 0.25936
 C228 C 0.36779 0.87940 0.36801
 C229 C 0.42071 0.91500 0.35596
 C230 C 0.45058 0.90310 0.27803
 C231 C 0.42949 0.85768 0.21183
 C232 C 0.37746 0.82071 0.22168
 C233 C 0.34636 0.83071 0.30420
 C234 C 0.33579 0.89115 0.44211
 C235 C 0.28493 0.85449 0.46020
 C236 C 0.26501 0.80571 0.40470
 C237 C 0.29518 0.79373 0.32758
 H238 H 0.34993 0.92861 0.48697
 H239 H 0.26103 0.86372 0.51876
 H240 H 0.22585 0.77692 0.42137
 H241 H 0.27804 0.75473 0.29018
 H242 H 0.49119 0.92952 0.26813
 H243 H 0.45483 0.85219 0.15061
 C244 C 0.40587 0.54237 0.35678
 C245 C 0.46068 0.56710 0.35950
 C246 C 0.48733 0.61319 0.29631
 C247 C 0.46084 0.63480 0.22976
 C248 C 0.40666 0.61109 0.22408
 C249 C 0.37857 0.56545 0.29145
 C250 C 0.37760 0.49494 0.41665
 C251 C 0.32377 0.47243 0.41808
 C252 C 0.29715 0.49646 0.35955
 C253 C 0.32408 0.54252 0.29693
 H254 H 0.39681 0.47490 0.46261
 H255 H 0.30261 0.43638 0.46555
 H256 H 0.25538 0.47924 0.36236
 H257 H 0.30177 0.56032 0.25524
 H258 H 0.52922 0.63241 0.29789
 H259 H 0.48311 0.66947 0.17883
   
