data_POSCAR
  _audit_creation_date              2014-09-24
  _audit_creation_method            'ToBaCCo'
  _symmetry_space_group_name_H-M    'P1'
  _symmetry_Int_Tables_number       1
  _symmetry_cell_setting            triclinic
  loop_
  _symmetry_equiv_pos_as_xyz
 x,y,z
_cell_length_a 24.3855
_cell_length_b 24.2588
_cell_length_c 24.2586
_cell_angle_alpha 90.388000
_cell_angle_beta 89.882800
_cell_angle_gamma 89.605100
loop_
  _atom_site_label
  _atom_site_type_symbol
  _atom_site_fract_x
  _atom_site_fract_y
  _atom_site_fract_z
N1 N 0.18460 0.18862 0.18609
 N2 N -0.19149 0.82098 0.18356
 N3 N -0.19302 0.18829 -0.19046
 N4 N 0.18877 0.80694 -0.19432
 N5 N 0.18437 1.18806 0.81403
 N6 N 0.81036 0.81268 0.80750
 N7 N 0.18681 0.81047 1.18596
 N8 N 0.80678 1.18979 1.18548
 O9 O 0.41693 0.89663 0.90475
 O10 O 0.35737 0.95427 0.95115
 C11 C 0.36787 0.91277 0.91859
 O12 O 0.56837 0.90452 1.09939
 O13 O 0.62955 0.95395 1.04783
 C14 C 0.61752 0.91894 1.08619
 O15 O 0.41665 0.90341 1.09117
 O16 O 0.35692 0.95660 1.04129
 C17 C 0.36745 0.91745 1.07611
 O18 O 0.57122 0.89593 0.89911
 O19 O 0.63147 0.94702 0.95016
 C20 C 0.62070 0.90857 0.91463
 Zr21 Zr 0.49431 0.92868 0.92700
 O22 O 0.49140 0.84159 0.92122
 O23 O 0.49307 0.93536 0.84025
 Zr24 Zr 0.49395 0.93411 1.06677
 O25 O 0.49768 0.84731 1.07228
 O26 O 0.48695 0.94098 1.15362
 O27 O 0.44549 0.92215 0.99733
 O28 O 0.54140 0.91968 0.99737
 O29 O 0.57464 1.09279 0.89307
 O30 O 0.63382 1.04076 0.94528
 C31 C 0.62353 1.07699 0.90746
 O32 O 0.42206 1.10529 1.09073
 O33 O 0.35980 1.05335 1.04232
 C34 C 0.37224 1.09103 1.07848
 O35 O 0.57819 1.09825 1.08951
 O36 O 0.63482 1.04536 1.03600
 C37 C 0.62707 1.08227 1.07340
 O38 O 0.42212 1.10285 0.89767
 O39 O 0.36008 1.05279 0.94768
 C40 C 0.37248 1.09037 0.91182
 Zr41 Zr 0.49706 1.06696 0.92270
 O42 O 0.50291 1.15315 0.91259
 O43 O 0.49146 1.05701 0.83606
 Zr44 Zr 0.49821 1.07279 1.06255
 O45 O 0.50426 1.15978 1.06030
 O46 O 0.49692 1.07534 1.14975
 Zr47 Zr 0.41376 1.00331 0.99530
 Zr48 Zr 0.57720 0.99809 0.99450
 O49 O 0.54480 1.07872 0.99195
 O50 O 0.44901 1.08250 0.99275
 O51 O 0.54510 0.99589 0.91397
 O52 O 0.44815 1.00517 1.07489
 O53 O 0.44708 0.99886 0.91528
 O54 O 0.54516 1.00222 1.07510
 H55 H 0.56553 0.88678 0.99942
 H56 H 0.42341 1.00591 1.10734
 H57 H 0.56954 1.11092 0.99072
 H58 H 0.42146 0.99842 0.88361
 H59 H 0.52003 0.95999 1.16736
 H60 H 0.52877 1.05389 1.16324
 H61 H 0.47208 1.17394 1.03987
 H62 H 0.49634 1.16984 0.94927
 H63 H 0.52562 1.03870 0.82322
 H64 H 0.49127 0.89710 0.82590
 H65 H 0.51672 0.82615 0.94897
 H66 H 0.48421 0.83281 1.03668
 O67 O -0.10718 0.42620 0.09402
 O68 O -0.05463 0.36450 0.04439
 C69 C -0.09217 0.37637 0.08078
 O70 O -0.09766 0.57643 -0.10585
 O71 O -0.04899 0.63769 -0.05255
 C72 C -0.08341 0.62596 -0.09183
 O73 O -0.09835 0.42116 -0.10116
 O74 O -0.04910 0.36298 -0.04650
 C75 C -0.08380 0.37179 -0.08548
 O76 O -0.10197 0.58147 0.09741
 O77 O -0.05080 0.64072 0.04558
 C78 C -0.08653 0.63076 0.08367
 Zr79 Zr -0.07797 0.50309 0.06552
 O80 O -0.16382 0.50920 0.05331
 O81 O -0.09287 0.50258 0.15121
 Zr82 Zr -0.07129 0.50037 -0.07295
 O83 O -0.15793 0.50457 -0.07708
 O84 O -0.06274 0.49764 -0.15965
 O85 O -0.08516 0.45223 -0.00364
 O86 O -0.08436 0.55021 -0.00434
 O87 O 0.08658 0.57747 0.10471
 O88 O 0.03955 0.63866 0.05015
 C89 C 0.07389 0.62699 0.08953
 O90 O 0.09846 0.42323 -0.09456
 O91 O 0.04628 0.36376 -0.04333
 C92 C 0.08427 0.37411 -0.07940
 O93 O 0.09462 0.57934 -0.09633
 O94 O 0.04055 0.63855 -0.04673
 C95 C 0.07879 0.62906 -0.08213
 O96 O 0.08896 0.42426 0.10304
 O97 O 0.03911 0.36427 0.05040
 C98 C 0.07416 0.37481 0.08909
 Zr99 Zr 0.06174 0.50123 0.07168
 O100 O 0.14848 0.50549 0.06920
 O101 O 0.06343 0.49735 0.15866
 Zr102 Zr 0.06761 0.50073 -0.06722
 O103 O 0.15414 0.50520 -0.06220
 O104 O 0.07137 0.49660 -0.15431
 Zr105 Zr -0.00490 0.41963 0.00030
 Zr106 Zr -0.00496 0.58319 -0.00059
 O107 O 0.07448 0.54901 0.00267
 O108 O 0.07528 0.45131 0.00286
 O109 O -0.00838 0.55075 0.07978
 O110 O -0.00120 0.45264 -0.07963
 O111 O -0.00876 0.45530 0.07956
 O112 O -0.00165 0.54952 -0.08077
 H113 H -0.11601 0.57602 -0.00548
 H114 H 0.00037 0.42758 -0.11202
 H115 H 0.10642 0.57401 0.00388
 H116 H -0.01026 0.43170 0.11267
 H117 H -0.10046 0.49590 -0.17468
 H118 H 0.04293 0.52207 -0.16852
 H119 H 0.16691 0.47322 -0.04050
 H120 H 0.16262 0.46953 0.05566
 H121 H 0.03209 0.51964 0.17218
 H122 H -0.05661 0.50253 0.16918
 H123 H -0.17718 0.47244 0.04188
 H124 H -0.17243 0.47353 -0.05534
 O125 O 1.09837 -0.09329 0.57659
 O126 O 1.04322 -0.04519 0.63687
 C127 C 1.08340 -0.07914 0.62604
 O128 O 1.09811 0.10081 0.42523
 O129 O 1.04956 0.04890 0.36263
 C130 C 1.08603 0.08568 0.37513
 O131 O 1.09399 0.09699 0.58229
 O132 O 1.04135 0.04430 0.63897
 C133 C 1.07779 0.08175 0.63132
 O134 O 1.09720 -0.10114 0.42441
 O135 O 1.04687 -0.05055 0.36268
 C136 C 1.08272 -0.08855 0.37481
 Zr137 Zr 1.06634 -0.06944 0.49960
 O138 O 1.15266 -0.07695 0.49669
 O139 O 1.05966 -0.15627 0.50558
 Zr140 Zr 1.06824 0.07035 0.50172
 O141 O 1.15505 0.06822 0.50040
 O142 O 1.06880 0.15746 0.50708
 O143 O 1.07645 0.00005 0.54983
 O144 O 1.07890 0.00043 0.45299
 O145 O 0.90033 -0.09214 0.41644
 O146 O 0.95394 -0.04164 0.35772
 C147 C 0.91473 -0.07620 0.36748
 O148 O 0.89465 0.09853 0.57157
 O149 O 0.94423 0.04803 0.63415
 C150 C 0.90691 0.08437 0.62143
 O151 O 0.90400 0.10146 0.41832
 O152 O 0.95681 0.04986 0.35855
 C153 C 0.91885 0.08629 0.36890
 O154 O 0.89580 -0.09531 0.57064
 O155 O 0.94578 -0.04609 0.63386
 C156 C 0.90910 -0.08255 0.62083
 Zr157 Zr 0.92867 -0.06717 0.49530
 O158 O 0.84206 -0.07009 0.49247
 O159 O 0.93331 -0.15438 0.49539
 Zr160 Zr 0.93060 0.07280 0.49658
 O161 O 0.84464 0.08352 0.49258
 O162 O 0.94191 0.15905 0.49860
 Zr163 Zr 0.99534 0.00103 0.58058
 Zr164 Zr 1.00087 0.00181 0.41608
 O165 O 0.92076 0.00329 0.44875
 O166 O 0.91686 0.00279 0.54452
 O167 O 0.99887 -0.07880 0.44762
 O168 O 0.99746 0.08110 0.54770
 O169 O 0.99602 -0.07856 0.54573
 O170 O 1.00115 0.08231 0.44954
 H171 H 1.11189 -0.00050 0.42912
 H172 H 0.99634 0.11324 0.57313
 H173 H 0.88818 0.00455 0.42462
 H174 H 0.99586 -0.11078 0.57063
 H175 H 1.04469 0.17156 0.47751
 H176 H 0.90467 0.17558 0.49749
 H177 H 0.82862 0.04630 0.49417
 H178 H 0.82775 -0.04263 0.51928
 H179 H 0.94818 -0.16683 0.45937
 H180 H 1.04352 -0.17011 0.47080
 H181 H 1.16743 -0.03960 0.50259
 H182 H 1.16741 0.04961 0.53442
 C183 C 1.11947 0.16798 0.32481
 C184 C 1.14209 0.19266 0.27822
 C185 C 1.16176 0.16079 0.23366
 C186 C 1.15838 0.10244 0.23668
 C187 C 1.13870 0.07761 0.28547
 C188 C 1.11658 0.11054 0.32869
 C189 C 1.14186 0.02003 0.28951
 N190 N 1.15776 -0.01082 0.24553
 N191 N 1.17117 0.01220 0.19787
 C192 C 1.17168 0.06759 0.19185
 H193 H 1.10293 0.19392 0.35744
 H194 H 1.14399 0.23720 0.27660
 H195 H 1.13276 -0.00048 0.32753
 H196 H 1.18048 0.08315 0.15155
 C197 C 0.91232 -0.10946 0.27118
 C198 C 0.88839 -0.13975 0.22894
 C199 C 0.83342 -0.15556 0.23215
 C200 C 0.80212 -0.14081 0.27941
 C201 C 0.82688 -0.11044 0.32263
 C202 C 0.88371 -0.09827 0.31998
 C203 C 0.79294 -0.09057 0.36542
 N204 N 0.73915 -0.10428 0.36691
 N205 N 0.71681 -0.13595 0.32812
 C206 C 0.74640 -0.15462 0.28442
 H207 H 0.95414 -0.09577 0.26612
 H208 H 0.91181 -0.14816 0.19182
 H209 H 0.80787 -0.06235 0.39627
 H210 H 0.72609 -0.18009 0.25411
 C211 C 0.90984 0.14473 0.70314
 C212 C 0.88590 0.17250 0.74743
 C213 C 0.82880 0.17178 0.75590
 C214 C 0.79550 0.14740 0.71435
 C215 C 0.82026 0.11621 0.67105
 C216 C 0.87815 0.11384 0.66653
 C217 C 0.78598 0.08800 0.63401
 N218 N 0.73077 0.09384 0.63796
 N219 N 0.70767 0.12586 0.67642
 C220 C 0.73811 0.15306 0.71444
 H221 H 0.95372 0.14732 0.69745
 H222 H 0.91289 0.19247 0.77650
 H223 H 0.80242 0.06142 0.60200
 H224 H 0.71721 0.17972 0.74358
 C225 C 1.08331 -0.12118 0.71881
 C226 C 1.10815 -0.15047 0.76127
 C227 C 1.16381 -0.16569 0.75887
 C228 C 1.19503 -0.14982 0.71237
 C229 C 1.17064 -0.11698 0.67064
 C230 C 1.11348 -0.10470 0.67271
 C231 C 1.20497 -0.09652 0.62891
 N232 N 1.25841 -0.11214 0.62649
 N233 N 1.28006 -0.14640 0.66327
 C234 C 1.25018 -0.16590 0.70598
 H235 H 1.03982 -0.11206 0.72172
 H236 H 1.08358 -0.16086 0.79665
 H237 H 1.19043 -0.06717 0.59905
 H238 H 1.26979 -0.19404 0.73417
 C239 C 0.28008 1.13400 1.07824
 C240 C 0.23534 1.15898 1.10410
 C241 C 0.23549 1.17062 1.16065
 C242 C 0.28293 1.15807 1.19168
 C243 C 0.32744 1.12951 1.16628
 C244 C 0.32649 1.11864 1.10849
 C245 C 0.37017 1.11096 1.20048
 N246 N 0.37071 1.12483 1.25472
 N247 N 0.33104 1.15545 1.27734
 C248 C 0.28722 1.17261 1.24763
 H249 H 0.27784 1.12539 1.03440
 H250 H 0.19820 1.16563 1.08103
 H251 H 0.40230 1.08436 1.18527
 H252 H 0.25655 1.19789 1.26791
 C253 C 0.27803 0.91375 0.87178
 C254 C 0.23673 0.88886 0.84126
 C255 C 0.23576 0.83150 0.83316
 C256 C 0.27958 0.79930 0.85479
 C257 C 0.32079 0.82468 0.88736
 C258 C 0.32108 0.88279 0.89395
 C259 C 0.36003 0.79067 0.91294
 N260 N 0.36091 0.73577 0.90229
 N261 N 0.32521 0.71272 0.86787
 C262 C 0.28498 0.74266 0.84350
 H263 H 0.27667 0.95779 0.87753
 H264 H 0.20429 0.91466 0.82490
 H265 H 0.38943 0.80693 0.94194
 H266 H 0.25905 0.72218 0.81423
 C267 C 0.67584 0.83853 1.10758
 C268 C 0.72395 0.81581 1.12865
 C269 C 0.76267 0.84862 1.15642
 C270 C 0.75084 0.90633 1.16310
 C271 C 0.69862 0.92693 1.14817
 C272 C 0.66329 0.89411 1.11642
 C273 C 0.68289 0.97994 1.16616
 N274 N 0.71946 1.01221 1.19289
 N275 N 0.77114 0.99588 1.19996
 C276 C 0.78849 0.94501 1.18390
 H277 H 0.64850 0.81272 1.08371
 H278 H 0.73078 0.77197 1.12338
 H279 H 0.64187 0.99575 1.15938
 H280 H 0.83154 0.93628 1.18661
 C281 C 0.67393 1.16100 0.88139
 C282 C 0.71943 1.18784 0.85973
 C283 C 0.76343 1.15804 0.83652
 C284 C 0.76159 1.09937 0.83684
 C285 C 0.71420 1.07238 0.85692
 C286 C 0.67077 1.10343 0.88044
 C287 C 0.71126 1.01481 0.85169
 N288 N 0.75461 0.98586 0.83181
 N289 N 0.80046 1.01081 0.81637
 C290 C 0.80553 1.06622 0.81819
 H291 H 0.64105 1.18541 0.89946
 H292 H 0.71975 1.23244 0.85990
 H293 H 0.67461 0.99271 0.86219
 H294 H 0.84428 1.08305 0.80566
 C295 C 0.15478 0.33033 0.13353
 C296 C 0.18200 0.28479 0.15559
 C297 C 0.15517 0.23430 0.16191
 C298 C 0.09961 0.22985 0.14590
 C299 C 0.07082 0.27723 0.12787
 C300 C 0.09934 0.32727 0.11852
 C301 C 0.01392 0.27300 0.12110
 N302 N -0.01112 0.22350 0.12508
 N303 N 0.01710 0.17784 0.13632
 C304 C 0.07163 0.17933 0.14672
 H305 H 0.17759 0.36791 0.12712
 H306 H 0.22459 0.28865 0.16746
 H307 H -0.01087 0.30885 0.11484
 H308 H 0.09240 0.14097 0.15473
 C309 C -0.15281 0.33108 -0.14939
 C310 C -0.18029 0.28707 -0.17392
 C311 C -0.16703 0.23271 -0.16057
 C312 C -0.12415 0.22232 -0.12288
 C313 C -0.09178 0.26649 -0.10260
 C314 C -0.10859 0.32233 -0.11317
 C315 C -0.04308 0.25195 -0.07431
 N316 N -0.03214 0.19866 -0.06179
 N317 N -0.06558 0.15822 -0.07659
 C318 C -0.11097 0.16828 -0.10691
 H319 H -0.16630 0.37245 -0.15934
 H320 H -0.21270 0.29532 -0.20324
 H321 H -0.01171 0.28087 -0.06410
 H322 H -0.13614 0.13393 -0.11815
 C323 C 0.13077 0.66924 -0.15990
 C324 C 0.15511 0.71215 -0.18859
 C325 C 0.15772 0.76511 -0.16591
 C326 C 0.12911 0.77678 -0.11639
 C327 C 0.10206 0.73383 -0.08744
 C328 C 0.10486 0.67815 -0.10875
 C329 C 0.07286 0.74961 -0.03914
 N330 N 0.07130 0.80286 -0.02209
 N331 N 0.09610 0.84246 -0.04990
 C332 C 0.12462 0.83124 -0.09644
 H333 H 0.13156 0.62859 -0.17863
 H334 H 0.17421 0.70356 -0.22810
 H335 H 0.05128 0.72176 -0.01329
 H336 H 0.14146 0.86552 -0.11839
 C337 C -0.12440 0.72591 0.08093
 C338 C -0.15069 0.77150 0.10462
 C339 C -0.16698 0.77135 0.16005
 C340 C -0.15567 0.72382 0.19227
 C341 C -0.12537 0.67905 0.16918
 C342 C -0.11188 0.67901 0.11225
 C343 C -0.10854 0.63639 0.20454
 N344 N -0.12577 0.63591 0.25766
 N345 N -0.15831 0.67537 0.27790
 C346 C -0.17405 0.71900 0.24698
 H347 H -0.11402 0.72723 0.03750
 H348 H -0.15842 0.80745 0.07954
 H349 H -0.08090 0.60411 0.19111
 H350 H -0.20137 0.74877 0.26539
 C351 C 1.15341 0.13474 0.67499
 C352 C 1.18012 0.16013 0.71904
 C353 C 1.15654 0.16229 0.77174
 C354 C 1.10591 0.13511 0.78066
 C355 C 1.07823 0.10873 0.73594
 C356 C 1.10242 0.10882 0.68162
 C357 C 1.02761 0.08330 0.74842
 N358 N 1.00811 0.08253 0.80070
 N359 N 1.03547 0.10493 0.84231
 C360 C 1.08371 0.13066 0.83416
 H361 H 1.17354 0.13492 0.63516
 H362 H 1.21933 0.17953 0.71175
 H363 H 1.00182 0.06448 0.71840
 H364 H 1.10456 0.14617 0.87003
 C365 C 0.86426 -0.08092 0.71210
 C366 C 0.83852 -0.10608 0.75639
 C367 C 0.82782 -0.16259 0.75634
 C368 C 0.84162 -0.19434 0.70920
 C369 C 0.87056 -0.16965 0.66500
 C370 C 0.88106 -0.11191 0.66616
 C371 C 0.88982 -0.20445 0.62245
 N372 N 0.87674 -0.25870 0.62201
 N373 N 0.84622 -0.28078 0.66159
 C374 C 0.82818 -0.25042 0.70514
 H375 H 0.87229 -0.03707 0.71439
 H376 H 0.83082 -0.08261 0.79333
 H377 H 0.91626 -0.18973 0.59032
 H378 H 0.80318 -0.27027 0.73589
 C379 C 1.16534 -0.11315 0.31957
 C380 C 1.18978 -0.13502 0.27200
 C381 C 1.15831 -0.16122 0.23101
 C382 C 1.10064 -0.16593 0.23987
 C383 C 1.07796 -0.15044 0.29145
 C384 C 1.10905 -0.11903 0.32885
 C385 C 1.02546 -0.16937 0.30503
 N386 N 0.99579 -0.19730 0.26692
 N387 N 1.01389 -0.20430 0.21553
 C388 C 1.06444 -0.18727 0.20012
 H389 H 1.19035 -0.09070 0.34884
 H390 H 1.23377 -0.13161 0.26723
 H391 H 1.00809 -0.16265 0.34564
 H392 H 1.07607 -0.19194 0.15745
 C393 C 0.91789 0.13492 0.27873
 C394 C 0.89074 0.16081 0.23516
 C395 C 0.83307 0.16342 0.23268
 C396 C 0.80264 0.13976 0.27663
 C397 C 0.83027 0.11089 0.31936
 C398 C 0.88845 0.11037 0.32156
 C399 C 0.79834 0.08293 0.35852
 N400 N 0.74299 0.08784 0.35794
 N401 N 0.71744 0.11895 0.32096
 C402 C 0.74538 0.14545 0.28084
 H403 H 0.96233 0.13467 0.27933
 H404 H 0.91509 0.17880 0.20270
 H405 H 0.81658 0.05682 0.38927
 H406 H 0.72251 0.17204 0.25419
 C407 C 0.10568 0.31720 -0.16191
 C408 C 0.12830 0.27063 -0.18759
 C409 C 0.15898 0.23131 -0.15776
 C410 C 0.16310 0.23888 -0.09925
 C411 C 0.14239 0.28785 -0.07405
 C412 C 0.11254 0.32648 -0.10542
 C413 C 0.15212 0.29667 -0.01762
 N414 N 0.17668 0.25696 0.01259
 N415 N 0.19134 0.20891 -0.00984
 C416 C 0.18434 0.19803 -0.06409
 H417 H 0.08227 0.34619 -0.18639
 H418 H 0.12329 0.26627 -0.23174
 H419 H 0.14075 0.33487 0.00259
 H420 H 0.19451 0.15711 -0.07846
 C421 C -0.13326 0.28353 0.07909
 C422 C -0.15787 0.23854 0.10407
 C423 C -0.16981 0.23863 0.16083
 C424 C -0.15664 0.28587 0.19263
 C425 C -0.12839 0.33036 0.16787
 C426 C -0.11854 0.32999 0.11002
 C427 C -0.10947 0.37282 0.20260
 N428 N -0.12286 0.37330 0.25687
 N429 N -0.15338 0.33388 0.27897
 C430 C -0.17088 0.29031 0.24868
 H431 H -0.12537 0.28188 0.03511
 H432 H -0.16721 0.20311 0.07859
 H433 H -0.08308 0.40483 0.18771
 H434 H -0.19605 0.25995 0.26870
 C435 C -0.16599 0.67800 -0.12073
 C436 C -0.19144 0.72368 -0.14442
 C437 C -0.16062 0.76604 -0.16848
 C438 C -0.10231 0.76110 -0.16878
 C439 C -0.07723 0.71220 -0.14911
 C440 C -0.10892 0.67215 -0.12199
 C441 C -0.02088 0.70448 -0.15795
 N442 N 0.00947 0.74561 -0.17950
 N443 N -0.01294 0.79405 -0.19201
 C444 C -0.06747 0.80350 -0.18648
 H445 H -0.19101 0.64729 -0.10067
 H446 H -0.23577 0.72631 -0.14358
 H447 H -0.00118 0.66568 -0.14893
 H448 H -0.08215 0.84441 -0.19463
 C449 C 0.13136 0.70990 0.08344
 C450 C 0.16094 0.75325 0.10617
 C451 C 0.16641 0.75881 0.16349
 C452 C 0.14532 0.71663 0.19775
 C453 C 0.11101 0.67546 0.17485
 C454 C 0.10365 0.67246 0.11692
 C455 C 0.08449 0.63934 0.21115
 N456 N 0.09541 0.64154 0.26591
 N457 N 0.13071 0.67767 0.28682
 C458 C 0.15619 0.71511 0.25459
 H459 H 0.13063 0.70516 0.03923
 H460 H 0.17811 0.78374 0.07883
 H461 H 0.05469 0.60999 0.19674
 H462 H 0.18484 0.74317 0.27361
 C463 C 0.28922 1.08678 0.85493
 C464 C 0.24462 1.11024 0.82805
 C465 C 0.23566 1.16779 0.82856
 C466 C 0.27811 1.20170 0.85073
 C467 C 0.32244 1.17733 0.88016
 C468 C 0.32706 1.11916 0.88324
 C469 C 0.36036 1.21232 0.90609
 N470 N 0.35656 1.26763 0.89929
 N471 N 0.31743 1.29023 0.86844
 C472 C 0.27847 1.25921 0.84360
 H473 H 0.29405 1.04262 0.85401
 H474 H 0.21471 1.08247 0.81044
 H475 H 0.39296 1.19638 0.93163
 H476 H 0.24873 1.27974 0.81781
 C477 C 0.27212 0.91611 1.11356
 C478 C 0.22904 0.89073 1.14149
 C479 C 0.23370 0.83623 1.15996
 C480 C 0.28271 0.80646 1.14873
 C481 C 0.32445 0.83052 1.11610
 C482 C 0.32062 0.88706 1.10107
 C483 C 0.36796 0.79629 1.09848
 N484 N 0.37254 0.74409 1.11763
 N485 N 0.33613 0.72352 1.15270
 C486 C 0.29152 0.75298 1.16907
 H487 H 0.26761 0.95898 1.10205
 H488 H 0.19148 0.91365 1.14869
 H489 H 0.39733 0.80971 1.06837
 H490 H 0.26370 0.73436 1.19802
 C491 C 0.66911 1.15905 1.12590
 C492 C 0.71216 1.18585 1.15204
 C493 C 0.76430 1.16182 1.15470
 C494 C 0.77528 1.11357 1.12357
 C495 C 0.73217 1.08656 1.09451
 C496 C 0.67704 1.10860 1.09811
 C497 C 0.74697 1.03829 1.06437
 N498 N 0.79971 1.02039 1.06280
 N499 N 0.83949 1.04677 1.08907
 C500 C 0.82906 1.09262 1.11930
 H501 H 0.62899 1.17843 1.12745
 H502 H 0.70429 1.22482 1.17273
 H503 H 0.71875 1.01310 1.04220
 H504 H 0.86329 1.11290 1.13853
 C505 C 0.66676 0.86231 0.83468
 C506 C 0.71331 0.84102 0.80814
 C507 C 0.76354 0.83648 0.83590
 C508 C 0.76668 0.85337 0.89167
 C509 C 0.71855 0.87052 0.91985
 C510 C 0.66858 0.87822 0.89036
 C511 C 0.72218 0.87848 0.97712
 N512 N 0.77142 0.87622 1.00284
 N513 N 0.81744 0.86562 0.97511
 C514 C 0.81678 0.85427 0.92037
 H515 H 0.62943 0.86759 0.81112
 H516 H 0.71041 0.82839 0.76536
 H517 H 0.68619 0.88449 1.00179
 H518 H 0.85543 0.84667 0.89990
   
