data_POSCAR
  _audit_creation_date              2014-09-24
  _audit_creation_method            'ToBaCCo'
  _symmetry_space_group_name_H-M    'P1'
  _symmetry_Int_Tables_number       1
  _symmetry_cell_setting            triclinic
  loop_
  _symmetry_equiv_pos_as_xyz
 x,y,z
_cell_length_a 53.6772
_cell_length_b 40.3437
_cell_length_c 39.4930
_cell_angle_alpha 90.123500
_cell_angle_beta 89.994800
_cell_angle_gamma 89.886100
loop_
  _atom_site_label
  _atom_site_type_symbol
  _atom_site_fract_x
  _atom_site_fract_y
  _atom_site_fract_z
C1 C 0.25536 0.26269 0.23949
 C2 C 0.25567 0.22888 0.23848
 C3 C 0.23610 0.20994 0.22028
 C4 C 0.27526 0.20906 0.25575
 C5 C 0.27295 0.28180 0.26106
 C6 C 0.23711 0.28215 0.21931
 C7 C 0.21097 0.21347 0.22891
 C8 C 0.19263 0.19591 0.21138
 C9 C 0.19883 0.17408 0.18438
 C10 C 0.22453 0.17055 0.17655
 C11 C 0.24275 0.18800 0.19438
 C12 C 0.26834 0.18354 0.27791
 C13 C 0.28647 0.16487 0.29463
 C14 C 0.31191 0.17124 0.28941
 C15 C 0.31883 0.19649 0.26680
 C16 C 0.30067 0.21507 0.24994
 C17 C 0.28708 0.30749 0.24685
 C18 C 0.30404 0.32520 0.26667
 C19 C 0.30715 0.31759 0.30112
 C20 C 0.29258 0.29236 0.31550
 C21 C 0.27547 0.27484 0.29573
 C22 C 0.23488 0.27738 0.18421
 C23 C 0.21689 0.29471 0.16576
 C24 C 0.20101 0.31756 0.18196
 C25 C 0.20386 0.32303 0.21693
 C26 C 0.22176 0.30555 0.23539
 H27 H 0.20550 0.23022 0.24908
 H28 H 0.17359 0.20134 0.21827
 H29 H 0.23117 0.15314 0.15779
 H30 H 0.26218 0.18453 0.18778
 H31 H 0.24886 0.17843 0.28268
 H32 H 0.28056 0.14584 0.31215
 H33 H 0.30641 0.23414 0.23235
 H34 H 0.28529 0.31341 0.22022
 H35 H 0.31512 0.34438 0.25489
 H36 H 0.29426 0.28638 0.34212
 H37 H 0.26427 0.25574 0.30744
 H38 H 0.24687 0.25991 0.17118
 H39 H 0.21509 0.28971 0.13893
 H40 H 0.19228 0.34092 0.23005
 H41 H 0.22336 0.30984 0.26239
 H42 H 0.33829 0.20160 0.26186
 C43 C 0.74671 0.23784 0.24798
 C44 C 0.74502 0.27147 0.24553
 C45 C 0.76206 0.29090 0.22359
 C46 C 0.72610 0.29017 0.26516
 C47 C 0.72763 0.21828 0.26639
 C48 C 0.76743 0.21897 0.23208
 C49 C 0.77553 0.31754 0.23723
 C50 C 0.79288 0.33453 0.21741
 C51 C 0.79700 0.32521 0.18354
 C52 C 0.78282 0.29932 0.16959
 C53 C 0.76536 0.28252 0.18934
 C54 C 0.72622 0.28933 0.30068
 C55 C 0.70753 0.30544 0.31907
 C56 C 0.68831 0.32234 0.30219
 C57 C 0.68847 0.32361 0.26664
 C58 C 0.70740 0.30795 0.24827
 C59 C 0.70237 0.22052 0.25749
 C60 C 0.68451 0.20217 0.27499
 C61 C 0.69160 0.18095 0.30151
 C62 C 0.71697 0.17840 0.31001
 C63 C 0.73483 0.19680 0.29250
 C64 C 0.76212 0.19276 0.20986
 C65 C 0.78140 0.17553 0.19383
 C66 C 0.80640 0.18403 0.19991
 C67 C 0.81168 0.20983 0.22280
 C68 C 0.79238 0.22701 0.23888
 H69 H 0.77318 0.32451 0.26354
 H70 H 0.80362 0.35427 0.22887
 H71 H 0.78527 0.29204 0.14339
 H72 H 0.75470 0.26258 0.17807
 H73 H 0.74062 0.27583 0.31407
 H74 H 0.70772 0.30401 0.34645
 H75 H 0.70710 0.30886 0.22086
 H76 H 0.69650 0.23648 0.23697
 H77 H 0.66511 0.20485 0.26800
 H78 H 0.72306 0.16186 0.32993
 H79 H 0.75427 0.19451 0.29949
 H80 H 0.74300 0.18614 0.20435
 H81 H 0.77671 0.15604 0.17606
 H82 H 0.83076 0.21656 0.22844
 H83 H 0.79687 0.24672 0.25649
 H84 H 0.67395 0.33676 0.25313
 C85 C 0.75379 0.76432 0.74452
 C86 C 0.75264 0.73056 0.74565
 C87 C 0.73190 0.71218 0.72931
 C88 C 0.77205 0.71050 0.76300
 C89 C 0.77231 0.78325 0.76473
 C90 C 0.73633 0.78392 0.72324
 C91 C 0.70701 0.71960 0.73724
 C92 C 0.68760 0.70379 0.72011
 C93 C 0.69272 0.67999 0.69498
 C94 C 0.71767 0.67174 0.68801
 C95 C 0.73708 0.68763 0.70511
 C96 C 0.76511 0.68690 0.78724
 C97 C 0.78322 0.66844 0.80426
 C98 C 0.80865 0.67310 0.79721
 C99 C 0.81553 0.69628 0.77239
 C100 C 0.79739 0.71465 0.75530
 C101 C 0.78760 0.80659 0.74889
 C102 C 0.80529 0.82427 0.76750
 C103 C 0.80815 0.81922 0.80274
 C104 C 0.79221 0.79597 0.81845
 C105 C 0.77449 0.77845 0.79973
 C106 C 0.73380 0.77724 0.68851
 C107 C 0.71638 0.79459 0.66909
 C108 C 0.70137 0.81925 0.68396
 C109 C 0.70456 0.82661 0.71852
 C110 C 0.72193 0.80918 0.73793
 H111 H 0.70264 0.73800 0.75636
 H112 H 0.66857 0.71020 0.72650
 H113 H 0.72222 0.65372 0.66860
 H114 H 0.75617 0.68150 0.69874
 H115 H 0.74565 0.68323 0.79344
 H116 H 0.77736 0.65099 0.82345
 H117 H 0.80312 0.73219 0.73610
 H118 H 0.78622 0.81063 0.72185
 H119 H 0.81737 0.84072 0.75355
 H120 H 0.79252 0.79195 0.84549
 H121 H 0.76233 0.76121 0.81264
 H122 H 0.74505 0.75822 0.67656
 H123 H 0.71428 0.78816 0.64262
 H124 H 0.69362 0.84588 0.73055
 H125 H 0.72378 0.81491 0.76462
 H126 H 0.83493 0.69997 0.76595
 C127 C 0.24994 0.73700 0.75502
 C128 C 0.24914 0.77068 0.75260
 C129 C 0.26804 0.78936 0.73288
 C130 C 0.22952 0.79054 0.76988
 C131 C 0.23277 0.71842 0.77751
 C132 C 0.26766 0.71704 0.73462
 C133 C 0.29358 0.78549 0.73951
 C134 C 0.31118 0.80369 0.72131
 C135 C 0.30355 0.82641 0.69641
 C136 C 0.27795 0.83043 0.69005
 C137 C 0.26038 0.81214 0.70819
 C138 C 0.23628 0.81673 0.79127
 C139 C 0.21813 0.83499 0.80850
 C140 C 0.19252 0.82755 0.80484
 C141 C 0.18597 0.80155 0.78248
 C142 C 0.20420 0.78357 0.76507
 C143 C 0.21778 0.69332 0.76403
 C144 C 0.20064 0.67672 0.78444
 C145 C 0.19805 0.68463 0.81920
 C146 C 0.21390 0.70938 0.83263
 C147 C 0.23106 0.72586 0.81209
 C148 C 0.26662 0.71748 0.69912
 C149 C 0.28326 0.69834 0.68009
 C150 C 0.30134 0.67878 0.69630
 C151 C 0.30230 0.67835 0.73184
 C152 C 0.28539 0.69706 0.75085
 H153 H 0.29987 0.76868 0.75908
 H154 H 0.33073 0.80049 0.72722
 H155 H 0.27152 0.84751 0.67082
 H156 H 0.24076 0.81560 0.70282
 H157 H 0.25576 0.82253 0.79532
 H158 H 0.22455 0.85380 0.82594
 H159 H 0.19853 0.76410 0.74781
 H160 H 0.21879 0.68726 0.73733
 H161 H 0.18864 0.65895 0.77209
 H162 H 0.21381 0.71561 0.85926
 H163 H 0.24298 0.74460 0.82318
 H164 H 0.25287 0.73255 0.68623
 H165 H 0.28226 0.69913 0.65271
 H166 H 0.31594 0.66322 0.74486
 H167 H 0.28631 0.69632 0.77824
 H168 H 0.16673 0.79557 0.77722
 O169 O 1.02179 -0.05526 0.00935
 O170 O 0.97425 -0.01123 0.05955
 O171 O 0.97334 -0.05512 0.01118
 O172 O 1.02267 -0.01130 0.05799
 O173 O 1.02209 0.02866 0.01997
 O174 O 0.97262 -0.01499 -0.02665
 O175 O 0.97361 0.02889 0.02172
 O176 O 1.02106 -0.01515 -0.02850
 Cu177 Cu 0.99812 -0.03725 0.03831
 Cu178 Cu 0.99729 0.01087 -0.00715
 C179 C 1.02950 -0.04281 -0.01825
 C180 C 0.96578 0.01638 0.04922
 C181 C 0.96451 -0.04255 -0.01575
 C182 C 1.03078 0.01624 0.04705
 O183 O 0.51948 0.46364 0.48982
 O184 O 0.47137 0.50832 0.53877
 O185 O 0.47098 0.46649 0.48860
 O186 O 0.51982 0.50458 0.54090
 O187 O 0.52205 0.54661 0.50539
 O188 O 0.47336 0.50803 0.45254
 O189 O 0.47388 0.55022 0.50311
 O190 O 0.52203 0.50594 0.45467
 Cu191 Cu 0.49516 0.48154 0.51807
 Cu192 Cu 0.49795 0.53184 0.47526
 C193 C 0.52918 0.47740 0.46408
 C194 C 0.46456 0.53706 0.52939
 C195 C 0.46381 0.48063 0.46162
 C196 C 0.52933 0.53207 0.53216
 O197 O -0.02134 0.54860 -0.00004
 O198 O 0.02396 0.50151 0.05084
 O199 O 0.02707 0.54458 0.00206
 O200 O -0.02445 0.50541 0.04876
 O201 O -0.02546 0.46500 0.01108
 O202 O 0.02610 0.50402 -0.03544
 O203 O 0.02310 0.46104 0.01321
 O204 O -0.02225 0.50811 -0.03763
 Cu205 Cu 0.00138 0.52908 0.02918
 Cu206 Cu 0.00026 0.48045 -0.01592
 C207 C -0.02954 0.53645 -0.02757
 C208 C 0.03141 0.47329 0.04064
 C209 C 0.03545 0.53095 -0.02466
 C210 C -0.03383 0.47853 0.03785
 O211 O 0.52685 1.00585 0.46198
 O212 O 0.47740 0.95913 0.50513
 O213 O 0.47851 1.00496 0.45848
 O214 O 0.52585 0.96062 0.50865
 O215 O 0.52357 0.99931 0.54807
 O216 O 0.47644 1.04370 0.49787
 O217 O 0.47518 0.99790 0.54446
 O218 O 0.52478 1.04462 0.50134
 Cu219 Cu 0.50231 0.97873 0.47963
 Cu220 Cu 0.49973 1.02525 0.52690
 C221 C 0.53431 1.03322 0.47425
 C222 C 0.46790 0.97040 0.53227
 C223 C 0.46953 1.03210 0.46947
 C224 C 0.53287 0.97244 0.53693
 C225 C 1.18550 0.14443 0.13368
 C226 C 1.16714 0.12751 0.11555
 C227 C 1.14360 0.12207 0.12958
 C228 C 1.13849 0.13463 0.16199
 C229 C 1.15668 0.15188 0.18014
 C230 C 1.18085 0.15720 0.16661
 C231 C 1.12461 0.10437 0.10928
 C232 C 1.10621 0.08654 0.12316
 C233 C 1.08734 0.06862 0.10281
 C234 C 1.07596 0.04043 0.11657
 C235 C 1.05780 0.02318 0.09834
 C236 C 1.05037 0.03410 0.06610
 C237 C 1.06156 0.06257 0.05248
 C238 C 1.07985 0.07967 0.07061
 H239 H 1.20281 0.14880 0.12050
 H240 H 1.17138 0.11864 0.09027
 H241 H 1.12031 0.13151 0.17337
 H242 H 1.15168 0.15942 0.20550
 H243 H 1.12675 0.10467 0.08201
 H244 H 1.10558 0.08342 0.15038
 H245 H 1.08124 0.03162 0.14146
 H246 H 1.04942 0.00146 0.10965
 H247 H 1.05612 0.07176 0.02781
 H248 H 1.08766 0.10189 0.05963
 C249 C 0.65190 0.68372 0.66434
 C250 C 0.63285 0.66943 0.64517
 C251 C 0.63345 0.63559 0.63694
 C252 C 0.65378 0.61632 0.64797
 C253 C 0.67286 0.63063 0.66711
 C254 C 0.67214 0.66449 0.67549
 C255 C 0.61315 0.62179 0.61571
 C256 C 0.60728 0.58949 0.61479
 C257 C 0.58703 0.57579 0.59342
 C258 C 0.57633 0.54538 0.60251
 C259 C 0.55750 0.53129 0.58278
 C260 C 0.54909 0.54720 0.55327
 C261 C 0.55997 0.57749 0.54394
 C262 C 0.57879 0.59160 0.56369
 H263 H 0.65104 0.71001 0.66984
 H264 H 0.61758 0.68493 0.63668
 H265 H 0.65538 0.59039 0.64133
 H266 H 0.68819 0.61517 0.67541
 H267 H 0.60202 0.63931 0.60152
 H268 H 0.61681 0.57237 0.63143
 H269 H 0.58249 0.53253 0.62508
 H270 H 0.54959 0.50785 0.59061
 H271 H 0.55408 0.59021 0.52118
 H272 H 0.58712 0.61448 0.55514
 C273 C -0.16734 0.32304 0.14264
 C274 C -0.14848 0.33846 0.12412
 C275 C -0.14521 0.37295 0.12571
 C276 C -0.16170 0.39185 0.14575
 C277 C -0.18050 0.37637 0.16443
 C278 C -0.18346 0.34180 0.16316
 C279 C -0.12476 0.38798 0.10560
 C280 C -0.11547 0.41836 0.11139
 C281 C -0.09458 0.43302 0.09181
 C282 C -0.08196 0.46037 0.10556
 C283 C -0.06225 0.47515 0.08811
 C284 C -0.05470 0.46291 0.05639
 C285 C -0.06746 0.43577 0.04239
 C286 C -0.08727 0.42111 0.05974
 H287 H -0.16903 0.29631 0.14141
 H288 H -0.13620 0.32329 0.10876
 H289 H -0.16052 0.41856 0.14684
 H290 H -0.19295 0.39149 0.17956
 H291 H -0.11634 0.37243 0.08643
 H292 H -0.12251 0.43282 0.13240
 H293 H -0.08728 0.47028 0.13004
 H294 H -0.05286 0.49610 0.09956
 H295 H -0.06231 0.42603 0.01779
 H296 H -0.09694 0.40089 0.04752
 C297 C 0.31802 0.87994 0.67090
 C298 C 0.33570 0.89864 0.65341
 C299 C 0.35784 0.88399 0.64175
 C300 C 0.36216 0.85022 0.64853
 C301 C 0.34449 0.83153 0.66612
 C302 C 0.32222 0.84616 0.67745
 C303 C 0.37627 0.90498 0.62387
 C304 C 0.39334 0.89285 0.60231
 C305 C 0.41184 0.91379 0.58449
 C306 C 0.42264 0.90178 0.55451
 C307 C 0.44061 0.92029 0.53735
 C308 C 0.44837 0.95118 0.54999
 C309 C 0.43768 0.96317 0.58013
 C310 C 0.41968 0.94467 0.59727
 H311 H 0.30123 0.89206 0.67981
 H312 H 0.33204 0.92468 0.64890
 H313 H 0.37930 0.83821 0.64092
 H314 H 0.34822 0.80553 0.67071
 H315 H 0.37482 0.93150 0.62757
 H316 H 0.39320 0.86671 0.59611
 H317 H 0.41711 0.87796 0.54428
 H318 H 0.44855 0.91026 0.51429
 H319 H 0.44342 0.98673 0.59071
 H320 H 0.41244 0.95435 0.62086
 C321 C -0.17553 0.62025 -0.17707
 C322 C -0.15753 0.60244 -0.15909
 C323 C -0.13582 0.61806 -0.14742
 C324 C -0.13215 0.65180 -0.15492
 C325 C -0.15013 0.66959 -0.17297
 C326 C -0.17208 0.65405 -0.18409
 C327 C -0.11726 0.59818 -0.12839
 C328 C -0.10087 0.61143 -0.10658
 C329 C -0.08273 0.59149 -0.08688
 C330 C -0.07309 0.60477 -0.05675
 C331 C -0.05588 0.58691 -0.03745
 C332 C -0.04774 0.55542 -0.04805
 C333 C -0.05710 0.54231 -0.07849
 C334 C -0.07433 0.56015 -0.09777
 H335 H -0.19205 0.60745 -0.18579
 H336 H -0.16068 0.57640 -0.15405
 H337 H -0.11533 0.66452 -0.14733
 H338 H -0.14698 0.69564 -0.17789
 H339 H -0.11823 0.57152 -0.13116
 H340 H -0.10154 0.63777 -0.10137
 H341 H -0.07905 0.62897 -0.04795
 H342 H -0.04895 0.59781 -0.01421
 H343 H -0.05102 0.51826 -0.08754
 H344 H -0.08064 0.54951 -0.12141
 C345 C 0.32835 1.11735 0.31190
 C346 C 0.34603 1.09912 0.33000
 C347 C 0.36666 1.11485 0.34471
 C348 C 0.36971 1.14919 0.33998
 C349 C 0.35206 1.16741 0.32176
 C350 C 0.33108 1.15174 0.30778
 C351 C 0.38474 1.09457 0.36413
 C352 C 0.39919 1.10702 0.38877
 C353 C 0.41679 1.08676 0.40905
 C354 C 0.42435 1.09869 0.44082
 C355 C 0.44123 1.08078 0.46059
 C356 C 0.45111 1.05058 0.44888
 C357 C 0.44369 1.03868 0.41697
 C358 C 0.42678 1.05660 0.39719
 H359 H 0.31260 1.10450 0.30092
 H360 H 0.34341 1.07265 0.33287
 H361 H 0.38577 1.16206 0.34997
 H362 H 0.35464 1.19389 0.31906
 H363 H 0.38490 1.06818 0.35921
 H364 H 0.39722 1.13284 0.39582
 H365 H 0.41711 1.12196 0.45046
 H366 H 0.44664 1.09075 0.48498
 H367 H 0.45115 1.01567 0.40706
 H368 H 0.42208 1.04702 0.37241
 C369 C 1.17833 -0.12179 -0.16551
 C370 C 1.16032 -0.10450 -0.14697
 C371 C 1.13764 -0.11943 -0.13856
 C372 C 1.13294 -0.15180 -0.15000
 C373 C 1.15082 -0.16909 -0.16879
 C374 C 1.17405 -0.15459 -0.17674
 C375 C 1.11912 -0.10021 -0.11875
 C376 C 1.10210 -0.11441 -0.09860
 C377 C 1.08388 -0.09522 -0.07823
 C378 C 1.07393 -0.10961 -0.04890
 C379 C 1.05646 -0.09251 -0.02923
 C380 C 1.04832 -0.06074 -0.03874
 C381 C 1.05806 -0.04645 -0.06834
 C382 C 1.07562 -0.06350 -0.08792
 H383 H 1.19520 -0.10862 -0.17196
 H384 H 1.16421 -0.07932 -0.13901
 H385 H 1.11537 -0.16385 -0.14477
 H386 H 1.14653 -0.19438 -0.17573
 H387 H 1.12062 -0.07347 -0.11939
 H388 H 1.10227 -0.14104 -0.09534
 H389 H 1.07981 -0.13413 -0.04106
 H390 H 1.04921 -0.10430 -0.00669
 H391 H 1.05202 -0.02213 -0.07653
 H392 H 1.08224 -0.05200 -0.11094
 C393 C 0.64294 0.33200 0.31294
 C394 C 0.62361 0.34630 0.33170
 C395 C 0.62886 0.36754 0.35892
 C396 C 0.65385 0.37355 0.36770
 C397 C 0.67318 0.35878 0.34931
 C398 C 0.66788 0.33807 0.32163
 C399 C 0.60801 0.38244 0.37818
 C400 C 0.60923 0.41301 0.39137
 C401 C 0.58819 0.42863 0.40959
 C402 C 0.58487 0.46301 0.40715
 C403 C 0.56541 0.47870 0.42439
 C404 C 0.54923 0.46039 0.44511
 C405 C 0.55276 0.42599 0.44797
 C406 C 0.57197 0.41019 0.43020
 H407 H 0.63842 0.31575 0.29196
 H408 H 0.60449 0.34109 0.32470
 H409 H 0.65848 0.38920 0.38909
 H410 H 0.69228 0.36374 0.35651
 H411 H 0.59071 0.36873 0.37955
 H412 H 0.62561 0.42801 0.38683
 H413 H 0.59726 0.47774 0.39164
 H414 H 0.56329 0.50530 0.42194
 H415 H 0.54063 0.41130 0.46388
 H416 H 0.57444 0.38372 0.43318
 C417 C 0.83563 -0.13221 -0.18938
 C418 C 0.85371 -0.11514 -0.17088
 C419 C 0.86316 -0.12813 -0.14063
 C420 C 0.85438 -0.15902 -0.12945
 C421 C 0.83627 -0.17616 -0.14788
 C422 C 0.82644 -0.16317 -0.17832
 C423 C 0.88265 -0.10921 -0.12230
 C424 C 0.88764 -0.11303 -0.08923
 C425 C 0.90730 -0.09426 -0.07107
 C426 C 0.91708 -0.10755 -0.04107
 C427 C 0.93564 -0.09081 -0.02309
 C428 C 0.94471 -0.06019 -0.03462
 C429 C 0.93463 -0.04657 -0.06435
 C430 C 0.91607 -0.06332 -0.08234
 H431 H 0.82835 -0.12013 -0.21170
 H432 H 0.86014 -0.09137 -0.18009
 H433 H 0.86190 -0.17066 -0.10703
 H434 H 0.83103 -0.20041 -0.13874
 H435 H 0.89303 -0.09128 -0.13691
 H436 H 0.87730 -0.13098 -0.07460
 H437 H 0.91050 -0.13117 -0.03164
 H438 H 0.94292 -0.10193 -0.00019
 H439 H 0.94101 -0.02285 -0.07371
 H440 H 0.90845 -0.05156 -0.10463
 C441 C 0.34124 0.31832 0.34443
 C442 C 0.35892 0.33519 0.36382
 C443 C 0.36159 0.36972 0.36121
 C444 C 0.34583 0.38713 0.33889
 C445 C 0.32823 0.37018 0.31932
 C446 C 0.32575 0.33562 0.32190
 C447 C 0.38050 0.38626 0.38290
 C448 C 0.38842 0.41756 0.37866
 C449 C 0.40749 0.43340 0.40062
 C450 C 0.42028 0.46131 0.38850
 C451 C 0.43847 0.47687 0.40829
 C452 C 0.44423 0.46483 0.44072
 C453 C 0.43112 0.43730 0.45312
 C454 C 0.41285 0.42192 0.43348
 H455 H 0.33991 0.29164 0.34672
 H456 H 0.37067 0.32111 0.38088
 H457 H 0.34659 0.41379 0.33669
 H458 H 0.31623 0.38420 0.30256
 H459 H 0.38886 0.37119 0.40245
 H460 H 0.38170 0.43195 0.35749
 H461 H 0.41636 0.47094 0.36347
 H462 H 0.44818 0.49812 0.39806
 H463 H 0.43484 0.42773 0.47822
 H464 H 0.40281 0.40140 0.44449
 C465 C 0.17008 0.68411 -0.13101
 C466 C 0.15166 0.66880 -0.11155
 C467 C 0.14254 0.63742 -0.12030
 C468 C 0.15217 0.62167 -0.14927
 C469 C 0.17057 0.63691 -0.16879
 C470 C 0.17989 0.66861 -0.16027
 C471 C 0.12234 0.62280 -0.09945
 C472 C 0.11679 0.59036 -0.09920
 C473 C 0.09596 0.57600 -0.07942
 C474 C 0.08597 0.54556 -0.08995
 C475 C 0.06629 0.53102 -0.07228
 C476 C 0.05629 0.54646 -0.04338
 C477 C 0.06651 0.57670 -0.03247
 C478 C 0.08617 0.59131 -0.05022
 H479 H 0.17555 0.70887 -0.12365
 H480 H 0.14432 0.68176 -0.08964
 H481 H 0.14535 0.59781 -0.15755
 H482 H 0.17780 0.62301 -0.19006
 H483 H 0.11167 0.63976 -0.08389
 H484 H 0.12741 0.57333 -0.11470
 H485 H 0.09327 0.53310 -0.11217
 H486 H 0.05895 0.50762 -0.08127
 H487 H 0.05939 0.58907 -0.01010
 H488 H 0.09385 0.61420 -0.04055
 C489 C 0.65280 1.14638 0.30265
 C490 C 0.63489 1.12807 0.32013
 C491 C 0.63620 1.12461 0.35543
 C492 C 0.65620 1.13934 0.37291
 C493 C 0.67413 1.15764 0.35540
 C494 C 0.67259 1.16145 0.32010
 C495 C 0.61687 1.10464 0.37276
 C496 C 0.61133 1.10773 0.40575
 C497 C 0.59166 1.08804 0.42273
 C498 C 0.58083 1.10051 0.45250
 C499 C 0.56222 1.08276 0.46928
 C500 C 0.55418 1.05195 0.45675
 C501 C 0.56533 1.03917 0.42727
 C502 C 0.58393 1.05691 0.41052
 H503 H 0.65134 1.14837 0.27539
 H504 H 0.61987 1.11666 0.30599
 H505 H 0.65836 1.13644 0.39996
 H506 H 0.68912 1.16905 0.36957
 H507 H 0.60600 1.08803 0.35711
 H508 H 0.62051 1.12656 0.42074
 H509 H 0.58661 1.12424 0.46265
 H510 H 0.55410 1.09323 0.49202
 H511 H 0.55976 1.01534 0.41717
 H512 H 0.59242 1.04583 0.38838
 C513 C 0.18584 0.34635 0.12941
 C514 C 0.16717 0.36251 0.11107
 C515 C 0.14370 0.36833 0.12556
 C516 C 0.13907 0.35703 0.15864
 C517 C 0.15769 0.34072 0.17691
 C518 C 0.18133 0.33525 0.16257
 C519 C 0.12431 0.38518 0.10511
 C520 C 0.10569 0.40289 0.11882
 C521 C 0.08665 0.42031 0.09829
 C522 C 0.07516 0.44872 0.11167
 C523 C 0.05721 0.46592 0.09299
 C524 C 0.05007 0.45473 0.06070
 C525 C 0.06116 0.42582 0.04761
 C526 C 0.07927 0.40878 0.06618
 H527 H 0.20390 0.34285 0.11771
 H528 H 0.17115 0.37080 0.08557
 H529 H 0.12094 0.36002 0.17023
 H530 H 0.15340 0.33175 0.20206
 H531 H 0.12636 0.38438 0.07784
 H532 H 0.10508 0.40653 0.14598
 H533 H 0.08033 0.45789 0.13649
 H534 H 0.04891 0.48798 0.10389
 H535 H 0.05596 0.41644 0.02290
 H536 H 0.08714 0.38636 0.05552
 C537 C 0.68694 0.84616 0.63004
 C538 C 0.66865 0.86222 0.61090
 C539 C 0.64529 0.86957 0.62501
 C540 C 0.64038 0.85992 0.65857
 C541 C 0.65864 0.84380 0.67767
 C542 C 0.68215 0.83680 0.66368
 C543 C 0.62631 0.88623 0.60371
 C544 C 0.60775 0.90469 0.61655
 C545 C 0.58887 0.92166 0.59535
 C546 C 0.57675 0.94974 0.60843
 C547 C 0.55865 0.96629 0.58944
 C548 C 0.55203 0.95484 0.55704
 C549 C 0.56389 0.92641 0.54411
 C550 C 0.58209 0.90995 0.56305
 H551 H 0.70492 0.84136 0.61859
 H552 H 0.67285 0.86918 0.58504
 H553 H 0.62231 0.86403 0.66996
 H554 H 0.65415 0.83617 0.70322
 H555 H 0.62857 0.88450 0.57653
 H556 H 0.60696 0.90913 0.64357
 H557 H 0.58144 0.95907 0.63337
 H558 H 0.54978 0.98801 0.60023
 H559 H 0.55908 0.91681 0.51933
 H560 H 0.59042 0.88776 0.55254
 C561 C 0.84734 0.18388 0.16920
 C562 C 0.86619 0.16735 0.15148
 C563 C 0.86510 0.13294 0.14641
 C564 C 0.84451 0.11537 0.15918
 C565 C 0.82566 0.13190 0.17690
 C566 C 0.82682 0.16634 0.18203
 C567 C 0.88511 0.11667 0.12644
 C568 C 0.89028 0.08415 0.12815
 C569 C 0.90998 0.06781 0.10769
 C570 C 0.91974 0.03745 0.11886
 C571 C 0.93793 0.02082 0.10001
 C572 C 0.94663 0.03409 0.06934
 C573 C 0.93671 0.06434 0.05796
 C574 C 0.91851 0.08097 0.07682
 H575 H 0.84855 0.21051 0.17222
 H576 H 0.88166 0.18156 0.14158
 H577 H 0.84250 0.08902 0.15499
 H578 H 0.81015 0.11768 0.18661
 H579 H 0.89652 0.13252 0.11077
 H580 H 0.88047 0.06884 0.14621
 H581 H 0.91333 0.02659 0.14236
 H582 H 0.94512 -0.00250 0.10944
 H583 H 0.94284 0.07508 0.03428
 H584 H 0.91088 0.10370 0.06668
 C585 C 0.31080 0.63807 0.65010
 C586 C 0.32771 0.61898 0.63142
 C587 C 0.35335 0.62102 0.63796
 C588 C 0.36178 0.64181 0.66418
 C589 C 0.34483 0.66043 0.68324
 C590 C 0.31922 0.65888 0.67622
 C591 C 0.37083 0.60066 0.61773
 C592 C 0.39355 0.61143 0.60917
 C593 C 0.41100 0.59166 0.58831
 C594 C 0.42721 0.60813 0.56623
 C595 C 0.44428 0.59030 0.54663
 C596 C 0.44590 0.55564 0.54939
 C597 C 0.42988 0.53914 0.57186
 C598 C 0.41246 0.55695 0.59100
 H599 H 0.29110 0.63623 0.64449
 H600 H 0.32080 0.60290 0.61155
 H601 H 0.38140 0.64329 0.67034
 H602 H 0.35174 0.67631 0.70328
 H603 H 0.36421 0.57716 0.60795
 H604 H 0.39909 0.63639 0.61594
 H605 H 0.42655 0.63488 0.56398
 H606 H 0.45654 0.60371 0.52975
 H607 H 0.43078 0.51245 0.57457
 H608 H 0.40057 0.54365 0.60842
   
