data_POSCAR
  _audit_creation_date              2014-09-24
  _audit_creation_method            'ToBaCCo'
  _symmetry_space_group_name_H-M    'P1'
  _symmetry_Int_Tables_number       1
  _symmetry_cell_setting            triclinic
  loop_
  _symmetry_equiv_pos_as_xyz
 x,y,z
_cell_length_a 47.1902
_cell_length_b 48.0730
_cell_length_c 47.2198
_cell_angle_alpha 89.984900
_cell_angle_beta 90.003600
_cell_angle_gamma 90.053400
loop_
  _atom_site_label
  _atom_site_type_symbol
  _atom_site_fract_x
  _atom_site_fract_y
  _atom_site_fract_z
C1 C 1.21224 0.26169 0.29318
 H2 H 1.21107 0.23930 0.29530
 C3 C 1.19586 0.27870 0.31071
 H4 H 1.18191 0.26943 0.32630
 C5 C 1.23219 0.30121 0.27064
 H6 H 1.24672 0.30996 0.25540
 C7 C 1.21620 0.31897 0.28775
 H8 H 1.21824 0.34129 0.28537
 N9 N 1.22973 0.27311 0.27342
 C10 C 1.24240 0.20863 0.20936
 H11 H 1.26531 0.20838 0.20853
 C12 C 1.22675 0.19129 0.19150
 H13 H 1.23761 0.17755 0.17692
 C14 C 1.20020 0.22705 0.22915
 H15 H 1.18992 0.24126 0.24355
 C16 C 1.18375 0.21004 0.21164
 H17 H 1.16084 0.21103 0.21280
 Zn18 Zn 1.25207 0.24872 0.25111
 N19 N 1.22900 0.22580 0.22795
 C20 C 1.27271 0.19850 0.27547
 N21 N 1.27392 0.22678 0.27625
 C22 C 1.29067 0.24029 0.29527
 C23 C 1.30793 0.22529 0.31381
 C24 C 1.28960 0.18267 0.29363
 C25 C 1.26400 0.28526 0.20639
 C26 C 1.28081 0.30081 0.18788
 C27 C 1.32248 0.28230 0.21088
 C28 C 1.30491 0.26711 0.22897
 N29 N 1.27622 0.26918 0.22673
 H30 H 1.25879 0.18813 0.26071
 H31 H 1.29090 0.26280 0.29569
 H32 H 1.32151 0.23633 0.32854
 H33 H 1.28871 0.16015 0.29253
 H34 H 1.24115 0.28614 0.20475
 H35 H 1.27093 0.31385 0.17199
 H36 H 1.34529 0.28077 0.21299
 H37 H 1.31427 0.25367 0.24470
 C38 C 1.19716 0.19193 0.19273
 C39 C 1.19785 0.30761 0.30793
 C40 C 1.31031 0.29942 0.19027
 C41 C 1.30757 0.19618 0.31282
 C42 C 0.71041 -0.24101 0.29447
 H43 H 0.71028 -0.26352 0.29466
 C44 C 0.69302 -0.22627 0.31308
 H45 H 0.67940 -0.23740 0.32768
 C46 C 0.72819 -0.19892 0.27511
 H47 H 0.74208 -0.18833 0.26049
 C48 C 0.71115 -0.18339 0.29338
 H49 H 0.71180 -0.16087 0.29259
 N50 N 0.72712 -0.22721 0.27562
 C51 C 0.73715 -0.28490 0.20522
 H52 H 0.76000 -0.28581 0.20361
 C53 C 0.72034 -0.30025 0.18654
 H54 H 0.73022 -0.31318 0.17056
 C55 C 0.69624 -0.26688 0.22790
 H56 H 0.68687 -0.25356 0.24372
 C57 C 0.67867 -0.28187 0.20965
 H58 H 0.65586 -0.28033 0.21175
 Zn59 Zn 0.74902 -0.24882 0.25029
 N60 N 0.72492 -0.26899 0.22568
 C61 C 0.76885 -0.30147 0.26934
 N62 N 0.77132 -0.27340 0.27236
 C63 C 0.78874 -0.26214 0.29228
 C64 C 0.80501 -0.27931 0.30976
 C65 C 0.78474 -0.31937 0.28640
 C66 C 0.75864 -0.20831 0.20899
 C67 C 0.77426 -0.19080 0.19129
 C68 C 0.81730 -0.20969 0.21126
 C69 C 0.80086 -0.22687 0.22862
 N70 N 0.77207 -0.22564 0.22742
 H71 H 0.75436 -0.31009 0.25398
 H72 H 0.78990 -0.23978 0.29460
 H73 H 0.81889 -0.27017 0.32549
 H74 H 0.78268 -0.34168 0.28384
 H75 H 0.73573 -0.20809 0.20816
 H76 H 0.76339 -0.17695 0.17682
 H77 H 0.84020 -0.21068 0.21241
 H78 H 0.81116 -0.24121 0.24289
 C79 C 0.69084 -0.29882 0.18892
 C80 C 0.69324 -0.19720 0.31233
 C81 C 0.80385 -0.19144 0.19251
 C82 C 0.80300 -0.30818 0.30675
 C83 C 0.71101 0.25969 -0.20676
 H84 H 0.71086 0.23719 -0.20632
 C85 C 0.69378 0.27465 -0.18816
 H86 H 0.68026 0.26368 -0.17335
 C87 C 0.72874 0.30156 -0.22664
 H88 H 0.74255 0.31200 -0.24145
 C89 C 0.71185 0.31730 -0.20840
 H90 H 0.71254 0.33981 -0.20941
 N91 N 0.72764 0.27327 -0.22585
 C92 C 0.73730 0.21472 -0.29568
 H93 H 0.76014 0.21380 -0.29742
 C94 C 0.72038 0.19911 -0.31404
 H95 H 0.73016 0.18599 -0.32992
 C96 C 0.69653 0.23301 -0.27299
 H97 H 0.68726 0.24652 -0.25728
 C98 C 0.67885 0.21776 -0.29092
 H99 H 0.65606 0.21933 -0.28870
 Zn100 Zn 0.74945 0.25137 -0.25105
 N101 N 0.72521 0.23089 -0.27535
 C102 C 0.76940 0.19888 -0.23149
 N103 N 0.77185 0.22698 -0.22876
 C104 C 0.78933 0.23843 -0.20900
 C105 C 0.80567 0.22144 -0.19141
 C106 C 0.78536 0.18115 -0.21431
 C107 C 0.75906 0.29155 -0.29279
 C108 C 0.77468 0.30901 -0.31058
 C109 C 0.81773 0.29021 -0.29047
 C110 C 0.80127 0.27311 -0.27305
 N111 N 0.77248 0.27434 -0.27425
 H112 H 0.75487 0.19011 -0.24673
 H113 H 0.79048 0.26081 -0.20691
 H114 H 0.81960 0.23073 -0.17581
 H115 H 0.78331 0.15882 -0.21665
 H116 H 0.73615 0.29179 -0.29361
 H117 H 0.76367 0.32277 -0.32508
 H118 H 0.84065 0.28915 -0.28919
 H119 H 0.81156 0.25886 -0.25868
 C120 C 0.69088 0.20054 -0.31150
 C121 C 0.69405 0.30371 -0.18917
 C122 C 0.80431 0.30843 -0.30935
 C123 C 0.80368 0.19253 -0.19412
 C124 C 1.21157 -0.23772 -0.20794
 H125 H 1.21043 -0.26007 -0.20554
 C126 C 1.19534 -0.22052 -0.19048
 H127 H 1.18152 -0.22961 -0.17467
 C128 C 1.23137 -0.19844 -0.23106
 H129 H 1.24583 -0.18987 -0.24649
 C130 C 1.21553 -0.18050 -0.21403
 H131 H 1.21758 -0.15820 -0.21665
 N132 N 1.22893 -0.22650 -0.22794
 C133 C 1.24163 -0.29186 -0.29093
 H134 H 1.26454 -0.29208 -0.29176
 C135 C 1.22602 -0.30949 -0.30851
 H136 H 1.23689 -0.32342 -0.32289
 C137 C 1.19940 -0.27322 -0.27141
 H138 H 1.18910 -0.25880 -0.25723
 C139 C 1.18298 -0.29051 -0.28865
 H140 H 1.16007 -0.28953 -0.28750
 Zn141 Zn 1.25123 -0.25115 -0.24988
 N142 N 1.22820 -0.27444 -0.27261
 C143 C 1.27197 -0.30090 -0.22472
 N144 N 1.27310 -0.27261 -0.22443
 C145 C 1.28979 -0.25871 -0.20564
 C146 C 1.30708 -0.27335 -0.18685
 C147 C 1.28892 -0.31634 -0.20627
 C148 C 1.26307 -0.21527 -0.29512
 C149 C 1.27987 -0.19997 -0.31385
 C150 C 1.32155 -0.21823 -0.29065
 C151 C 1.30399 -0.23317 -0.27235
 N152 N 1.27531 -0.23108 -0.27458
 H153 H 1.25810 -0.31158 -0.23929
 H154 H 1.28995 -0.23621 -0.20561
 H155 H 1.32068 -0.26215 -0.17229
 H156 H 1.28823 -0.33886 -0.20688
 H157 H 1.24022 -0.21439 -0.29673
 H158 H 1.26998 -0.18711 -0.32989
 H159 H 1.34436 -0.21974 -0.28854
 H160 H 1.31336 -0.24642 -0.25646
 C161 C 1.19643 -0.30887 -0.30727
 C162 C 1.19735 -0.19165 -0.19358
 C163 C 1.30937 -0.20137 -0.31146
 C164 C 1.30680 -0.30243 -0.18737
 C165 C 0.26273 0.21440 0.70549
 H166 H 0.23987 0.21348 0.70392
 C167 C 0.27949 0.19905 0.68680
 H168 H 0.26956 0.18611 0.67084
 C169 C 0.30370 0.23245 0.72810
 H170 H 0.31311 0.24579 0.74390
 C171 C 0.32122 0.21746 0.70983
 H172 H 0.34403 0.21902 0.71189
 N173 N 0.27501 0.23033 0.72593
 C174 C 0.21132 0.23725 0.79262
 H175 H 0.21022 0.25961 0.79491
 C176 C 0.19503 0.22012 0.81016
 H177 H 0.18121 0.22936 0.82589
 C178 C 0.23106 0.19788 0.76970
 H179 H 0.24550 0.18925 0.75431
 C180 C 0.21516 0.18000 0.78679
 H181 H 0.21721 0.15769 0.78420
 Zn182 Zn 0.25097 0.25052 0.75055
 N183 N 0.22867 0.22595 0.77269
 C184 C 0.19910 0.27240 0.72896
 N185 N 0.22790 0.27366 0.72769
 C186 C 0.24129 0.29100 0.70924
 C187 C 0.22565 0.30852 0.69158
 C188 C 0.18264 0.28958 0.71165
 C189 C 0.28965 0.25845 0.79468
 C190 C 0.30698 0.27326 0.81333
 C191 C 0.28875 0.31607 0.79364
 C192 C 0.27178 0.30048 0.77534
 N193 N 0.27291 0.27219 0.77583
 H194 H 0.18883 0.25805 0.74325
 H195 H 0.26420 0.29125 0.70836
 H196 H 0.23649 0.32239 0.67710
 H197 H 0.15974 0.28857 0.71285
 H198 H 0.28981 0.23595 0.79487
 H199 H 0.32060 0.26218 0.82795
 H200 H 0.28805 0.33858 0.79287
 H201 H 0.25787 0.31102 0.76072
 C202 C 0.19695 0.19122 0.80719
 C203 C 0.30899 0.20050 0.68913
 C204 C 0.30668 0.30233 0.81261
 C205 C 0.19606 0.30786 0.69288
 C206 C 0.75767 0.70887 0.70858
 H207 H 0.73476 0.70863 0.70773
 C208 C 0.77328 0.69139 0.69085
 H209 H 0.76240 0.67758 0.67634
 C210 C 0.79991 0.72734 0.72832
 H211 H 0.81022 0.74161 0.74266
 C212 C 0.81633 0.71020 0.71094
 H213 H 0.83923 0.71116 0.71214
 N214 N 0.77111 0.72612 0.72710
 C215 C 0.70953 0.74089 0.79441
 H216 H 0.70937 0.76339 0.79475
 C217 C 0.69226 0.72595 0.81302
 H218 H 0.67871 0.73700 0.82774
 C219 C 0.72734 0.69901 0.77472
 H220 H 0.74121 0.68857 0.75999
 C221 C 0.71043 0.68327 0.79297
 H222 H 0.71120 0.66075 0.79199
 Zn223 Zn 0.74809 0.74914 0.75017
 N224 N 0.72622 0.72729 0.77541
 C225 C 0.69527 0.76745 0.72805
 N226 N 0.72395 0.76953 0.72575
 C227 C 0.73615 0.78560 0.70537
 C228 C 0.71932 0.80113 0.68688
 C229 C 0.67768 0.78261 0.70998
 C230 C 0.78795 0.76220 0.79221
 C231 C 0.80435 0.77925 0.80972
 C232 C 0.78414 0.81947 0.78663
 C233 C 0.76812 0.80168 0.76954
 N234 N 0.77051 0.77359 0.77240
 H235 H 0.68591 0.75401 0.74381
 H236 H 0.75900 0.78649 0.70369
 H237 H 0.72918 0.81416 0.67096
 H238 H 0.65487 0.78107 0.71214
 H239 H 0.78905 0.73983 0.79440
 H240 H 0.81826 0.77001 0.82535
 H241 H 0.78215 0.84179 0.78419
 H242 H 0.75362 0.81040 0.75426
 C243 C 0.69255 0.69686 0.81212
 C244 C 0.80288 0.69199 0.69213
 C245 C 0.80244 0.80815 0.80686
 C246 C 0.68982 0.79972 0.68934
 C247 C 0.75831 0.20832 0.20837
 H248 H 0.73539 0.20807 0.20754
 C249 C 0.77391 0.19081 0.19070
 H250 H 0.76304 0.17693 0.17625
 C251 C 0.80054 0.22694 0.22798
 H252 H 0.81084 0.24131 0.24223
 C253 C 0.81696 0.20977 0.21065
 H254 H 0.83987 0.21078 0.21179
 N255 N 0.77174 0.22568 0.22677
 C256 C 0.71016 0.24108 0.29380
 H257 H 0.71007 0.26358 0.29395
 C258 C 0.69280 0.22636 0.31249
 H259 H 0.67924 0.23750 0.32710
 C260 C 0.72785 0.19896 0.27451
 H261 H 0.74170 0.18835 0.25988
 C262 C 0.71084 0.18345 0.29285
 H263 H 0.71146 0.16094 0.29212
 Zn264 Zn 0.74873 0.24884 0.24961
 N265 N 0.72682 0.22726 0.27496
 C266 C 0.69598 0.26685 0.22721
 N267 N 0.72467 0.26900 0.22499
 C268 C 0.73691 0.28492 0.20453
 C269 C 0.72012 0.30027 0.18586
 C270 C 0.67843 0.28184 0.20897
 C271 C 0.78841 0.26213 0.29161
 C272 C 0.80466 0.27927 0.30915
 C273 C 0.78451 0.31937 0.28577
 C274 C 0.76864 0.30149 0.26867
 N275 N 0.77106 0.27342 0.27167
 H276 H 0.68661 0.25351 0.24303
 H277 H 0.75976 0.28585 0.20293
 H278 H 0.73000 0.31322 0.16989
 H279 H 0.65562 0.28027 0.21107
 H280 H 0.78952 0.23977 0.29392
 H281 H 0.81848 0.27012 0.32491
 H282 H 0.78249 0.34168 0.28324
 H283 H 0.75420 0.31012 0.25328
 C284 C 0.69299 0.19729 0.31182
 C285 C 0.80350 0.19148 0.19193
 C286 C 0.80269 0.30815 0.30617
 C287 C 0.69062 0.29881 0.18825
 C288 C 0.26371 0.71475 0.20614
 H289 H 0.24086 0.71386 0.20448
 C290 C 0.28052 0.69916 0.18768
 H291 H 0.27063 0.68609 0.17181
 C292 C 0.30462 0.73292 0.22874
 H293 H 0.31400 0.74639 0.24445
 C294 C 0.32219 0.71770 0.21070
 H295 H 0.34500 0.71923 0.21285
 N296 N 0.27593 0.73086 0.22646
 C297 C 0.21194 0.73828 0.29293
 H298 H 0.21078 0.76066 0.29505
 C299 C 0.19556 0.72124 0.31048
 H300 H 0.18162 0.73049 0.32607
 C301 C 0.23187 0.69879 0.27041
 H302 H 0.24640 0.69006 0.25516
 C303 C 0.21588 0.68101 0.28754
 H304 H 0.21791 0.65869 0.28516
 Zn305 Zn 0.25179 0.75131 0.25083
 N306 N 0.22942 0.72688 0.27317
 C307 C 0.19991 0.77295 0.22890
 N308 N 0.22871 0.77422 0.22766
 C309 C 0.24210 0.79143 0.20907
 C310 C 0.22645 0.80880 0.19125
 C311 C 0.18345 0.78998 0.21143
 C312 C 0.29039 0.75981 0.29501
 C313 C 0.30763 0.77485 0.31357
 C314 C 0.28930 0.81743 0.29337
 C315 C 0.27244 0.80157 0.27518
 N316 N 0.27366 0.77329 0.27597
 H317 H 0.18963 0.75871 0.24330
 H318 H 0.26501 0.79171 0.20821
 H319 H 0.23730 0.82257 0.17668
 H320 H 0.16055 0.78897 0.21263
 H321 H 0.29062 0.73731 0.29544
 H322 H 0.32119 0.76383 0.32832
 H323 H 0.28841 0.83995 0.29226
 H324 H 0.25853 0.81192 0.26041
 C325 C 0.19753 0.69234 0.30772
 C326 C 0.31002 0.70055 0.19012
 C327 C 0.30725 0.80395 0.31258
 C328 C 0.19685 0.80814 0.19253
 N329 N 0.97082 -0.02980 0.04919
 N330 N 0.95204 -0.03567 0.06904
 N331 N 1.03028 -0.04910 0.02939
 N332 N 1.04894 -0.06868 0.03536
 N333 N 1.03035 -0.02982 0.04908
 N334 N 1.04907 -0.03580 0.06895
 N335 N 0.97075 -0.04908 0.02950
 N336 N 0.95193 -0.06855 0.03544
 C337 C 0.94016 -0.05975 0.06002
 C338 C 1.06077 -0.05996 0.05994
 N339 N 1.03009 -0.02977 -0.05143
 N340 N 1.04895 -0.03559 -0.07121
 N341 N 0.97060 -0.04907 -0.03160
 N342 N 0.95179 -0.06857 -0.03746
 N343 N 0.97055 -0.02979 -0.05132
 N344 N 0.95171 -0.03572 -0.07110
 N345 N 1.03012 -0.04904 -0.03172
 N346 N 1.04900 -0.06845 -0.03757
 Mn347 Mn 1.00044 -0.04931 -0.00111
 C348 C 1.06083 -0.05963 -0.06211
 C349 C 0.93991 -0.05982 -0.06201
 N350 N 1.03040 0.03026 0.04906
 N351 N 1.04917 0.03620 0.06891
 N352 N 0.97084 0.04954 0.02947
 N353 N 0.95198 0.06895 0.03535
 N354 N 0.97088 0.03025 0.04917
 N355 N 0.95203 0.03606 0.06896
 N356 N 1.03037 0.04956 0.02937
 N357 N 1.04911 0.06911 0.03532
 Mn358 Mn 1.00061 0.00023 0.04938
 C359 C 1.06094 0.06035 0.05989
 C360 C 0.94016 0.06011 0.05989
 N361 N 0.97061 0.03031 -0.05134
 N362 N 0.95186 0.03629 -0.07118
 N363 N 1.03023 0.04956 -0.03174
 N364 N 1.04909 0.06900 -0.03763
 N365 N 1.03015 0.03029 -0.05145
 N366 N 1.04897 0.03615 -0.07127
 N367 N 0.97070 0.04959 -0.03164
 N368 N 0.95200 0.06915 -0.03757
 Mn369 Mn 1.00035 0.00026 -0.05164
 Mn370 Mn 1.00053 0.04979 -0.00113
 Cl371 Cl 1.00048 0.00024 -0.00113
 C372 C 0.94015 0.06042 -0.06214
 C373 C 1.06088 0.06021 -0.06220
 N374 N 1.02913 0.45024 0.53014
 N375 N 1.04792 0.43078 0.53610
 N376 N 0.96949 0.46949 0.54952
 N377 N 0.95071 0.46346 0.56932
 N378 N 0.96960 0.45023 0.52979
 N379 N 0.95089 0.43063 0.53568
 N380 N 1.02903 0.46949 0.54986
 N381 N 1.04775 0.46361 0.56975
 C382 C 1.05963 0.43955 0.56072
 C383 C 0.93900 0.43931 0.56024
 N384 N 0.96972 0.54888 0.52987
 N385 N 0.95101 0.56844 0.53575
 N386 N 1.02909 0.52954 0.54990
 N387 N 1.04788 0.53534 0.56976
 N388 N 1.02924 0.54884 0.53021
 N389 N 1.04813 0.56823 0.53616
 N390 N 0.96956 0.52958 0.54956
 N391 N 0.95074 0.53554 0.56934
 Mn392 Mn 0.99929 0.49953 0.54996
 C393 C 0.93907 0.55969 0.56027
 C394 C 1.05984 0.55939 0.56074
 N395 N 0.96999 0.45035 0.46869
 N396 N 0.95108 0.43096 0.46275
 N397 N 1.02968 0.46960 0.44934
 N398 N 1.04858 0.46368 0.42963
 N399 N 1.02951 0.45030 0.46904
 N400 N 1.04830 0.43080 0.46324
 N401 N 0.97014 0.46964 0.44899
 N402 N 0.95134 0.46385 0.42913
 Mn403 Mn 0.99956 0.45005 0.49941
 C404 C 0.93937 0.43981 0.43816
 C405 C 1.06030 0.43957 0.43875
 N406 N 1.02963 0.54895 0.46911
 N407 N 1.04839 0.56852 0.46329
 N408 N 0.97021 0.52970 0.44903
 N409 N 0.95146 0.53558 0.42916
 N410 N 0.97010 0.54894 0.46877
 N411 N 0.95128 0.56837 0.46285
 N412 N 1.02975 0.52970 0.44938
 N413 N 1.04859 0.53571 0.42963
 Mn414 Mn 0.99967 0.54913 0.49949
 Mn415 Mn 0.99995 0.49966 0.44893
 Cl416 Cl 0.99962 0.49959 0.49945
 C417 C 1.06032 0.55983 0.43876
 C418 C 0.93956 0.55962 0.43823
 N419 N 0.54933 0.02928 0.53099
 N420 N 0.56874 0.04834 0.53632
 N421 N 0.52967 -0.02914 0.55079
 N422 N 0.53517 -0.04824 0.57011
 N423 N 0.54927 -0.02915 0.53107
 N424 N 0.56860 -0.04824 0.53642
 N425 N 0.52973 0.02933 0.55072
 N426 N 0.53532 0.04842 0.57003
 C427 C 0.55960 0.06032 0.56060
 C428 C 0.55940 -0.06018 0.56072
 N429 N 0.44898 -0.02914 0.53095
 N430 N 0.42980 -0.04847 0.53609
 N431 N 0.46860 0.02931 0.55064
 N432 N 0.46317 0.04854 0.56983
 N433 N 0.44901 0.02928 0.53090
 N434 N 0.42975 0.04847 0.53611
 N435 N 0.46856 -0.02913 0.55070
 N436 N 0.46321 -0.04846 0.56982
 Mn437 Mn 0.49913 0.00009 0.55101
 C438 C 0.43906 -0.06053 0.56029
 C439 C 0.43898 0.06051 0.56034
 N440 N 0.54926 -0.02919 0.47011
 N441 N 0.56861 -0.04829 0.46487
 N442 N 0.52975 0.02921 0.45026
 N443 N 0.53531 0.04837 0.43100
 N444 N 0.54931 0.02921 0.47004
 N445 N 0.56865 0.04835 0.46479
 N446 N 0.52971 -0.02924 0.45032
 N447 N 0.53529 -0.04837 0.43106
 Mn448 Mn 0.54955 0.00004 0.50054
 C449 C 0.55950 -0.06028 0.44058
 C450 C 0.55952 0.06033 0.44050
 N451 N 0.44901 0.02922 0.46992
 N452 N 0.42959 0.04822 0.46451
 N453 N 0.46854 -0.02924 0.45024
 N454 N 0.46285 -0.04822 0.43084
 N455 N 0.44895 -0.02920 0.46997
 N456 N 0.42944 -0.04815 0.46455
 N457 N 0.46859 0.02922 0.45018
 N458 N 0.46298 0.04822 0.43078
 Mn459 Mn 0.44872 0.00004 0.50044
 Mn460 Mn 0.49915 -0.00001 0.44995
 Cl461 Cl 0.49914 0.00004 0.50048
 C462 C 0.43871 0.06011 0.44017
 C463 C 0.43852 -0.06006 0.44021
 N464 N 0.55057 0.52946 0.03128
 N465 N 0.56980 0.54874 0.03642
 N466 N 0.53108 0.47099 0.05105
 N467 N 0.53650 0.45165 0.07014
 N468 N 0.55061 0.47104 0.03125
 N469 N 0.56981 0.45176 0.03632
 N470 N 0.53103 0.52943 0.05107
 N471 N 0.53648 0.54870 0.07023
 C472 C 0.56062 0.56075 0.06067
 C473 C 0.56062 0.43965 0.06053
 N474 N 0.45031 0.47086 0.03163
 N475 N 0.43100 0.45171 0.03701
 N476 N 0.46992 0.52933 0.05132
 N477 N 0.46443 0.54841 0.07065
 N478 N 0.45026 0.52929 0.03165
 N479 N 0.43089 0.54834 0.03706
 N480 N 0.46997 0.47087 0.05130
 N481 N 0.46454 0.45173 0.07060
 Mn482 Mn 0.50051 0.50016 0.05149
 C483 C 0.44028 0.43975 0.06126
 C484 C 0.44013 0.56030 0.06133
 N485 N 0.55047 0.47107 -0.02971
 N486 N 0.56997 0.45219 -0.03522
 N487 N 0.53077 0.52948 -0.04938
 N488 N 0.53635 0.54850 -0.06878
 N489 N 0.55041 0.52949 -0.02969
 N490 N 0.56983 0.54851 -0.03513
 N491 N 0.53083 0.47102 -0.04940
 N492 N 0.53649 0.45210 -0.06886
 Mn493 Mn 0.55078 0.50027 0.00079
 C494 C 0.56085 0.44031 -0.05956
 C495 C 0.56066 0.56041 -0.05945
 N496 N 0.45011 0.52931 -0.02931
 N497 N 0.43079 0.54846 -0.03447
 N498 N 0.46966 0.47092 -0.04916
 N499 N 0.46407 0.45179 -0.06842
 N500 N 0.45015 0.47090 -0.02934
 N501 N 0.43079 0.45176 -0.03457
 N502 N 0.46962 0.52937 -0.04913
 N503 N 0.46407 0.54858 -0.06832
 Mn504 Mn 0.44994 0.50009 0.00115
 Mn505 Mn 0.50021 0.50020 -0.04957
 Cl506 Cl 0.50036 0.50018 0.00096
 C507 C 0.43990 0.56051 -0.05874
 C508 C 0.43987 0.43981 -0.05888
 C509 C 1.10951 0.11890 0.08286
 C510 C 1.11845 0.10947 0.10945
 C511 C 1.10950 0.08343 0.11929
 C512 C 1.09128 0.06710 0.10285
 C513 C 1.18062 0.17410 0.17461
 C514 C 1.09130 0.10260 0.06639
 C515 C 1.13598 0.12691 0.12702
 C516 C 1.15028 0.14170 0.14191
 C517 C 1.16673 0.15915 0.15950
 C518 C 1.08175 0.07667 0.07638
 H519 H 1.11629 0.13902 0.07503
 H520 H 1.11626 0.07593 0.13985
 H521 H 1.08428 0.04722 0.11108
 H522 H 1.08431 0.11050 0.04608
 C523 C 1.10897 0.61751 0.58349
 C524 C 1.11771 0.60815 0.61016
 C525 C 1.10848 0.58225 0.62014
 C526 C 1.09014 0.56601 0.60374
 C527 C 1.17993 0.67307 0.67485
 C528 C 1.09064 0.60131 0.56707
 C529 C 1.13529 0.62555 0.62768
 C530 C 1.14962 0.64039 0.64248
 C531 C 1.16605 0.65797 0.65991
 C532 C 1.08079 0.57555 0.57719
 H533 H 1.11597 0.63753 0.57557
 H534 H 1.11509 0.57481 0.64076
 H535 H 1.08290 0.54626 0.61207
 H536 H 1.08380 0.60918 0.54670
 C537 C 0.58200 0.11067 0.61806
 C538 C 0.60802 0.12012 0.60750
 C539 C 0.61758 0.11088 0.58108
 C540 C 0.60147 0.09187 0.56549
 C541 C 0.67299 0.18406 0.67041
 C542 C 0.56585 0.09166 0.60249
 C543 C 0.62545 0.13835 0.62427
 C544 C 0.64032 0.15314 0.63855
 C545 C 0.65792 0.16999 0.65558
 C546 C 0.57561 0.08183 0.57621
 H547 H 0.57443 0.11766 0.63851
 H548 H 0.63770 0.11802 0.57274
 H549 H 0.60950 0.08468 0.54530
 H550 H 0.54601 0.08428 0.61124
 C551 C 0.58253 0.61162 0.11776
 C552 C 0.60850 0.62115 0.10719
 C553 C 0.61816 0.61185 0.08083
 C554 C 0.60221 0.59266 0.06533
 C555 C 0.67307 0.68490 0.17055
 C556 C 0.56654 0.59242 0.10229
 C557 C 0.62583 0.63943 0.12396
 C558 C 0.64062 0.65421 0.13832
 C559 C 0.65810 0.67097 0.15552
 C560 C 0.57642 0.58250 0.07609
 H561 H 0.57490 0.61865 0.13818
 H562 H 0.63826 0.61906 0.07249
 H563 H 0.61031 0.58539 0.04520
 H564 H 0.54674 0.58496 0.11107
 C565 C 0.89132 -0.11809 0.08290
 C566 C 0.88249 -0.10870 0.10952
 C567 C 0.89158 -0.08273 0.11942
 C568 C 0.90985 -0.06644 0.10300
 C569 C 0.82036 -0.17348 0.17451
 C570 C 0.90959 -0.10184 0.06645
 C571 C 0.86495 -0.12612 0.12708
 C572 C 0.85065 -0.14094 0.14194
 C573 C 0.83423 -0.15845 0.15947
 C574 C 0.91928 -0.07600 0.07649
 H575 H 0.88444 -0.13816 0.07504
 H576 H 0.88489 -0.07526 0.14001
 H577 H 0.91697 -0.04662 0.11126
 H578 H 0.91650 -0.10972 0.04611
 C579 C 0.89044 0.41587 0.61953
 C580 C 0.88153 0.38987 0.60957
 C581 C 0.89050 0.38058 0.58294
 C582 C 0.90870 0.39698 0.56656
 C583 C 0.81934 0.32476 0.67430
 C584 C 0.90864 0.43231 0.60317
 C585 C 0.86399 0.37231 0.62704
 C586 C 0.84968 0.35742 0.64183
 C587 C 0.83323 0.33983 0.65929
 C588 C 0.91820 0.42288 0.57666
 H589 H 0.88365 0.42327 0.64011
 H590 H 0.88375 0.36049 0.57502
 H591 H 0.91570 0.38918 0.54622
 H592 H 0.91562 0.45216 0.61149
 C593 C 0.38172 -0.11186 0.58042
 C594 C 0.39148 -0.12122 0.60672
 C595 C 0.41744 -0.11166 0.61727
 C596 C 0.43335 -0.09237 0.60182
 C597 C 0.32712 -0.18512 0.67013
 C598 C 0.39758 -0.09257 0.56494
 C599 C 0.37422 -0.13957 0.62349
 C600 C 0.35949 -0.15439 0.63786
 C601 C 0.34205 -0.17118 0.65508
 C602 C 0.42337 -0.08238 0.57568
 H603 H 0.36162 -0.11909 0.57210
 H604 H 0.42515 -0.11874 0.63764
 H605 H 0.45314 -0.08488 0.61057
 H606 H 0.38940 -0.08525 0.54485
 C607 C 0.38260 0.38899 0.08207
 C608 C 0.39240 0.37973 0.10840
 C609 C 0.41848 0.38921 0.11876
 C610 C 0.43445 0.40829 0.10310
 C611 C 0.32808 0.31583 0.17199
 C612 C 0.39854 0.40807 0.06639
 C613 C 0.37514 0.36147 0.12532
 C614 C 0.36042 0.34668 0.13975
 C615 C 0.34301 0.32986 0.15698
 C616 C 0.42445 0.41815 0.07692
 H617 H 0.36243 0.38183 0.07388
 H618 H 0.42623 0.38220 0.13915
 H619 H 0.45435 0.41570 0.11171
 H620 H 0.39033 0.41529 0.04627
 C621 C 0.89157 0.11899 -0.08488
 C622 C 0.88262 0.10967 -0.11151
 C623 C 0.89158 0.08369 -0.12147
 C624 C 0.90981 0.06732 -0.10511
 C625 C 0.82025 0.17458 -0.17615
 C626 C 0.90980 0.10265 -0.06850
 C627 C 0.86504 0.12716 -0.12898
 C628 C 0.85068 0.14201 -0.14375
 C629 C 0.83418 0.15955 -0.16118
 C630 C 0.91935 0.07679 -0.07859
 H631 H 0.88479 0.13906 -0.07696
 H632 H 0.88481 0.07627 -0.14205
 H633 H 0.91682 0.04749 -0.11342
 H634 H 0.91678 0.11048 -0.04815
 C635 C 0.89097 0.58274 0.37890
 C636 C 0.88177 0.60858 0.38897
 C637 C 0.89054 0.61784 0.41568
 C638 C 0.90885 0.60158 0.43203
 C639 C 0.81948 0.67371 0.32459
 C640 C 0.90929 0.56643 0.39523
 C641 C 0.86417 0.62605 0.37154
 C642 C 0.84983 0.64093 0.35682
 C643 C 0.83337 0.65857 0.33947
 C644 C 0.91866 0.57586 0.42182
 H645 H 0.88434 0.57538 0.35825
 H646 H 0.88356 0.63782 0.42368
 H647 H 0.91570 0.60936 0.45243
 H648 H 0.91650 0.54671 0.38683
 C649 C 0.41601 0.10990 0.38233
 C650 C 0.39000 0.11930 0.39287
 C651 C 0.38057 0.11028 0.41943
 C652 C 0.39679 0.09150 0.43515
 C653 C 0.32414 0.18168 0.32937
 C654 C 0.43228 0.09111 0.39804
 C655 C 0.37239 0.13719 0.37594
 C656 C 0.35732 0.15164 0.36152
 C657 C 0.33946 0.16804 0.34435
 C658 C 0.42264 0.08147 0.42444
 H659 H 0.42348 0.11671 0.36177
 H660 H 0.36045 0.11738 0.42776
 H661 H 0.38885 0.08445 0.45544
 H662 H 0.45211 0.08374 0.38928
 C663 C 0.38194 0.61104 -0.07888
 C664 C 0.39132 0.62017 -0.10541
 C665 C 0.41728 0.61078 -0.11609
 C666 C 0.43354 0.59186 -0.10056
 C667 C 0.32512 0.68199 -0.16896
 C668 C 0.39815 0.59213 -0.06333
 C669 C 0.37364 0.63802 -0.12227
 C670 C 0.35850 0.65238 -0.13667
 C671 C 0.34053 0.66857 -0.15390
 C672 C 0.42391 0.58207 -0.07420
 H673 H 0.36185 0.61813 -0.07046
 H674 H 0.42469 0.61768 -0.13665
 H675 H 0.45331 0.58447 -0.10942
 H676 H 0.39024 0.58496 -0.04307
 C677 C 1.10965 -0.08255 -0.12129
 C678 C 1.11879 -0.10844 -0.11125
 C679 C 1.10993 -0.11778 -0.08461
 C680 C 1.09157 -0.10156 -0.06828
 C681 C 1.18094 -0.17352 -0.17573
 C682 C 1.09129 -0.06629 -0.10498
 C683 C 1.13638 -0.12588 -0.12870
 C684 C 1.15070 -0.14074 -0.14344
 C685 C 1.16711 -0.15837 -0.16082
 C686 C 1.08181 -0.07581 -0.07846
 H687 H 1.11636 -0.07513 -0.14190
 H688 H 1.11685 -0.13779 -0.07665
 H689 H 1.08463 -0.10940 -0.04793
 H690 H 1.08412 -0.04654 -0.11335
 C691 C 1.10934 0.41642 0.37979
 C692 C 1.11834 0.39049 0.38987
 C693 C 1.10925 0.38117 0.41645
 C694 C 1.09086 0.39746 0.43268
 C695 C 1.18119 0.32557 0.32577
 C696 C 1.09094 0.43274 0.39600
 C697 C 1.13607 0.37303 0.37255
 C698 C 1.15054 0.35818 0.35791
 C699 C 1.16717 0.34062 0.34063
 C700 C 1.08127 0.42327 0.42247
 H701 H 1.11622 0.42383 0.35924
 H702 H 1.11606 0.36114 0.42445
 H703 H 1.08377 0.38964 0.45299
 H704 H 1.08391 0.45253 0.38760
 C705 C 0.61756 -0.11066 0.42034
 C706 C 0.60827 -0.11967 0.39374
 C707 C 0.58234 -0.11024 0.38303
 C708 C 0.56602 -0.09141 0.39860
 C709 C 0.67480 -0.18152 0.33056
 C710 C 0.60129 -0.09183 0.43593
 C711 C 0.62601 -0.13748 0.37690
 C712 C 0.64123 -0.15183 0.36256
 C713 C 0.65929 -0.16806 0.34547
 C714 C 0.57555 -0.08175 0.42503
 H715 H 0.63763 -0.11778 0.42880
 H716 H 0.57499 -0.11705 0.36242
 H717 H 0.54626 -0.08399 0.38971
 H718 H 0.60913 -0.08477 0.45625
 C719 C 0.61925 0.39057 -0.08061
 C720 C 0.60981 0.38159 -0.10717
 C721 C 0.58371 0.39088 -0.11762
 C722 C 0.56736 0.40951 -0.10182
 C723 C 0.67581 0.31960 -0.17090
 C724 C 0.60295 0.40919 -0.06478
 C725 C 0.62748 0.36384 -0.12420
 C726 C 0.64258 0.34949 -0.13867
 C727 C 0.66048 0.33318 -0.15590
 C728 C 0.57702 0.41910 -0.07540
 H729 H 0.63943 0.38355 -0.07234
 H730 H 0.57623 0.38409 -0.13819
 H731 H 0.54747 0.41680 -0.11050
 H732 H 0.61090 0.41621 -0.04449
 C733 C 1.10967 0.08323 -0.12144
 C734 C 1.11885 0.10912 -0.11141
 C735 C 1.11000 0.11844 -0.08477
 C736 C 1.09163 0.10220 -0.06842
 C737 C 1.18131 0.17412 -0.17590
 C738 C 1.09129 0.06695 -0.10512
 C739 C 1.13650 0.12656 -0.12886
 C740 C 1.15089 0.14141 -0.14360
 C741 C 1.16739 0.15900 -0.16097
 C742 C 1.08184 0.07644 -0.07859
 H743 H 1.11636 0.07582 -0.14204
 H744 H 1.11696 0.13845 -0.07681
 H745 H 1.08472 0.11003 -0.04807
 H746 H 1.08410 0.04719 -0.11348
 C747 C 1.10915 0.61843 0.41638
 C748 C 1.11816 0.60920 0.38976
 C749 C 1.10916 0.58326 0.37968
 C750 C 1.09083 0.56685 0.39592
 C751 C 1.18089 0.67434 0.32558
 C752 C 1.09082 0.60205 0.43265
 C753 C 1.13584 0.62674 0.37242
 C754 C 1.15028 0.64164 0.35776
 C755 C 1.16688 0.65925 0.34045
 C756 C 1.08123 0.57623 0.42243
 H757 H 1.11595 0.63847 0.42440
 H758 H 1.11598 0.57591 0.35909
 H759 H 1.08379 0.54705 0.38751
 H760 H 1.08378 0.60982 0.45299
 C761 C 0.58224 0.11037 0.38293
 C762 C 0.60819 0.11983 0.39360
 C763 C 0.61754 0.11082 0.42018
 C764 C 0.60130 0.09196 0.43580
 C765 C 0.67460 0.18164 0.33013
 C766 C 0.56594 0.09151 0.39853
 C767 C 0.62591 0.13765 0.37671
 C768 C 0.64110 0.15199 0.36231
 C769 C 0.65912 0.16820 0.34513
 C770 C 0.57553 0.08184 0.42494
 H771 H 0.57485 0.11718 0.36234
 H772 H 0.63763 0.11797 0.42860
 H773 H 0.60918 0.08489 0.45610
 H774 H 0.54617 0.08406 0.38968
 C775 C 0.58330 0.61018 -0.11735
 C776 C 0.60935 0.61959 -0.10687
 C777 C 0.61883 0.61059 -0.08033
 C778 C 0.60261 0.59182 -0.06456
 C779 C 0.67526 0.68182 -0.17057
 C780 C 0.56703 0.59140 -0.10160
 C781 C 0.62697 0.63745 -0.12386
 C782 C 0.64205 0.65188 -0.13832
 C783 C 0.65992 0.66823 -0.15555
 C784 C 0.57672 0.58178 -0.07521
 H785 H 0.57580 0.61698 -0.13790
 H786 H 0.63898 0.61770 -0.07204
 H787 H 0.61058 0.58478 -0.04428
 H788 H 0.54717 0.58402 -0.11031
 C789 C 0.89089 -0.11821 -0.08445
 C790 C 0.88193 -0.10891 -0.11108
 C791 C 0.89102 -0.08299 -0.12113
 C792 C 0.90941 -0.06667 -0.10487
 C793 C 0.81909 -0.17385 -0.17529
 C794 C 0.90928 -0.10192 -0.06817
 C795 C 0.86420 -0.12637 -0.12844
 C796 C 0.84974 -0.14122 -0.14312
 C797 C 0.83312 -0.15879 -0.16043
 C798 C 0.91896 -0.07612 -0.07836
 H799 H 0.88401 -0.13824 -0.07646
 H800 H 0.88424 -0.07559 -0.14172
 H801 H 0.91652 -0.04689 -0.11325
 H802 H 0.91627 -0.10974 -0.04782
 C803 C 0.89065 0.41700 0.37881
 C804 C 0.88139 0.39111 0.38879
 C805 C 0.89016 0.38173 0.41545
 C806 C 0.90852 0.39791 0.43185
 C807 C 0.81914 0.32622 0.32408
 C808 C 0.90902 0.43321 0.39519
 C809 C 0.86378 0.37372 0.37128
 C810 C 0.84944 0.35890 0.35649
 C811 C 0.83300 0.34133 0.33905
 C812 C 0.91839 0.42366 0.42173
 H813 H 0.88402 0.42444 0.35819
 H814 H 0.88314 0.36172 0.42337
 H815 H 0.91538 0.39004 0.45222
 H816 H 0.91628 0.45297 0.38686
 C817 C 0.41570 -0.10978 0.38234
 C818 C 0.38961 -0.11910 0.39282
 C819 C 0.38015 -0.11004 0.41935
 C820 C 0.39643 -0.09130 0.43510
 C821 C 0.32379 -0.18151 0.32917
 C822 C 0.43202 -0.09104 0.39808
 C823 C 0.37197 -0.13698 0.37586
 C824 C 0.35691 -0.15144 0.36141
 C825 C 0.33908 -0.16785 0.34419
 C826 C 0.42236 -0.08136 0.42446
 H827 H 0.42319 -0.11663 0.36181
 H828 H 0.35998 -0.11709 0.42764
 H829 H 0.38848 -0.08423 0.45537
 H830 H 0.45191 -0.08373 0.38937
 C831 C 0.38184 0.38929 -0.07917
 C832 C 0.39120 0.38025 -0.10573
 C833 C 0.41715 0.38972 -0.11640
 C834 C 0.43343 0.40862 -0.10083
 C835 C 0.32502 0.31808 -0.16909
 C836 C 0.39807 0.40818 -0.06357
 C837 C 0.37352 0.36235 -0.12258
 C838 C 0.35838 0.34793 -0.13696
 C839 C 0.34043 0.33161 -0.15412
 C840 C 0.42384 0.41830 -0.07443
 H841 H 0.36176 0.38213 -0.07074
 H842 H 0.42455 0.38289 -0.13698
 H843 H 0.45320 0.41606 -0.10969
 H844 H 0.39019 0.41526 -0.04328
 C845 C 1.10921 -0.08320 0.11938
 C846 C 1.11813 -0.10921 0.10950
 C847 C 1.10919 -0.11858 0.08289
 C848 C 1.09102 -0.10224 0.06643
 C849 C 1.18030 -0.17399 0.17447
 C850 C 1.09104 -0.06682 0.10295
 C851 C 1.13564 -0.12669 0.12704
 C852 C 1.14995 -0.14151 0.14189
 C853 C 1.16640 -0.15900 0.15942
 C854 C 1.08152 -0.07633 0.07645
 H855 H 1.11597 -0.07574 0.13995
 H856 H 1.11594 -0.13868 0.07503
 H857 H 1.08404 -0.11010 0.04610
 H858 H 1.08407 -0.04696 0.11121
 C859 C 1.10814 0.41654 0.62015
 C860 C 1.11728 0.39063 0.61019
 C861 C 1.10850 0.38129 0.58352
 C862 C 1.09023 0.39753 0.56709
 C863 C 1.17952 0.32583 0.67495
 C864 C 1.08987 0.43282 0.60375
 C865 C 1.13484 0.37321 0.62770
 C866 C 1.14917 0.35840 0.64251
 C867 C 1.16562 0.34087 0.65997
 C868 C 1.08048 0.42331 0.57719
 H869 H 1.11479 0.42397 0.64077
 H870 H 1.11542 0.36126 0.57560
 H871 H 1.08336 0.38968 0.54672
 H872 H 1.08271 0.45259 0.61206
 C873 C 0.58146 -0.11059 0.61822
 C874 C 0.60748 -0.12005 0.60776
 C875 C 0.61716 -0.11082 0.58137
 C876 C 0.60116 -0.09179 0.56572
 C877 C 0.67203 -0.18387 0.67110
 C878 C 0.56542 -0.09155 0.60260
 C879 C 0.62480 -0.13827 0.62461
 C880 C 0.63958 -0.15305 0.63899
 C881 C 0.65706 -0.16985 0.65615
 C882 C 0.57530 -0.08172 0.57635
 H883 H 0.57380 -0.11757 0.63866
 H884 H 0.63729 -0.11798 0.57309
 H885 H 0.60927 -0.08460 0.54555
 H886 H 0.54557 -0.08416 0.61129
 C887 C 0.61804 0.38843 0.08044
 C888 C 0.60837 0.37901 0.10676
 C889 C 0.58243 0.38850 0.11739
 C890 C 0.56647 0.40778 0.10200
 C891 C 0.67286 0.31510 0.16990
 C892 C 0.60213 0.40770 0.06503
 C893 C 0.62567 0.36067 0.12345
 C894 C 0.64044 0.34585 0.13776
 C895 C 0.65791 0.32906 0.15490
 C896 C 0.57637 0.41782 0.07585
 H897 H 0.63812 0.38125 0.07206
 H898 H 0.57478 0.38138 0.13777
 H899 H 0.54669 0.41521 0.11082
 H900 H 0.61025 0.41506 0.04493
 C901 C 0.89134 0.08292 0.11912
 C902 C 0.88225 0.10885 0.10917
 C903 C 0.89115 0.11827 0.08257
 C904 C 0.90949 0.10209 0.06619
 C905 C 0.82000 0.17353 0.17396
 C906 C 0.90969 0.06669 0.10276
 C907 C 0.86466 0.12623 0.12667
 C908 C 0.85032 0.14102 0.14148
 C909 C 0.83388 0.15851 0.15896
 C910 C 0.91920 0.07628 0.07628
 H911 H 0.88461 0.07543 0.13969
 H912 H 0.88426 0.13832 0.07467
 H913 H 0.91646 0.10999 0.04587
 H914 H 0.91682 0.04690 0.11106
 C915 C 0.89053 0.61829 0.58293
 C916 C 0.88153 0.60895 0.60954
 C917 C 0.89042 0.58295 0.61950
 C918 C 0.90864 0.56656 0.60316
 C919 C 0.81938 0.67400 0.67417
 C920 C 0.90875 0.60194 0.56657
 C921 C 0.86400 0.62647 0.62700
 C922 C 0.84969 0.64135 0.64177
 C923 C 0.83326 0.65893 0.65920
 C924 C 0.91824 0.57605 0.57667
 H925 H 0.88381 0.63838 0.57502
 H926 H 0.88361 0.57552 0.64007
 H927 H 0.91561 0.54672 0.61147
 H928 H 0.91579 0.60977 0.54624
 C929 C 0.41715 0.11125 0.61755
 C930 C 0.39111 0.12067 0.60709
 C931 C 0.38136 0.11134 0.58077
 C932 C 0.39731 0.09223 0.56519
 C933 C 0.32671 0.18425 0.67071
 C934 C 0.43313 0.09213 0.60200
 C935 C 0.37381 0.13889 0.62394
 C936 C 0.35906 0.15362 0.63836
 C937 C 0.34163 0.17033 0.65563
 C938 C 0.42317 0.08218 0.57584
 H939 H 0.42485 0.11831 0.63794
 H940 H 0.36121 0.11847 0.57251
 H941 H 0.38914 0.08494 0.54508
 H942 H 0.45299 0.08475 0.61070
 C943 C 0.41819 0.61071 0.11887
 C944 C 0.39211 0.62012 0.10850
 C945 C 0.38234 0.61083 0.08216
 C946 C 0.39830 0.59181 0.06648
 C947 C 0.32778 0.68408 0.17190
 C948 C 0.43421 0.59168 0.10321
 C949 C 0.37484 0.63836 0.12538
 C950 C 0.36012 0.65317 0.13978
 C951 C 0.34270 0.67002 0.15695
 C952 C 0.42424 0.58181 0.07701
 H953 H 0.42594 0.61773 0.13925
 H954 H 0.36216 0.61795 0.07396
 H955 H 0.39012 0.58458 0.04635
 H956 H 0.45411 0.58434 0.11182
   
