data_POSCAR
  _audit_creation_date              2014-09-24
  _audit_creation_method            'ToBaCCo'
  _symmetry_space_group_name_H-M    'P1'
  _symmetry_Int_Tables_number       1
  _symmetry_cell_setting            triclinic
  loop_
  _symmetry_equiv_pos_as_xyz
 x,y,z
_cell_length_a 36.1392
_cell_length_b 35.8350
_cell_length_c 26.2713
_cell_angle_alpha 89.914500
_cell_angle_beta 89.997200
_cell_angle_gamma 120.238700
loop_
  _atom_site_label
  _atom_site_type_symbol
  _atom_site_fract_x
  _atom_site_fract_y
  _atom_site_fract_z
C1 C -0.05729 0.48663 -0.13543
 C2 C -0.05786 0.44815 -0.13541
 C3 C -0.05474 0.43844 -0.08501
 N4 N -0.05211 0.46997 -0.05440
 C5 C -0.05395 0.49932 -0.08509
 C6 C -0.05765 0.39945 -0.06784
 C7 C -0.03251 0.39904 -0.02650
 C8 C -0.02205 0.36738 -0.01702
 C9 C 0.00640 0.38164 0.02308
 C10 C 0.01331 0.42203 0.03674
 N11 N -0.01133 0.43164 0.00702
 C12 C 0.04009 0.44819 0.07691
 C13 C 0.03972 0.48553 0.09419
 C14 C 0.04995 0.50196 0.14311
 C15 C 0.05115 0.54075 0.14265
 C16 C 0.04138 0.54696 0.09351
 N17 N 0.03391 0.51288 0.06421
 C18 C 0.04192 0.58474 0.07608
 C19 C 0.01488 0.58387 0.03650
 C20 C 0.00231 0.61420 0.02941
 C21 C -0.02641 0.59989 -0.01037
 C22 C -0.03124 0.56075 -0.02628
 N23 N -0.00520 0.55196 0.00196
 C24 C -0.05669 0.53525 -0.06768
 H25 H -0.05882 0.50346 -0.16883
 H26 H -0.05967 0.42992 -0.16894
 H27 H 0.00076 0.52698 -0.00427
 H28 H -0.03192 0.33794 -0.03797
 H29 H 0.01901 0.36319 0.04074
 H30 H 0.05557 0.48746 0.17608
 H31 H 0.05763 0.56143 0.17528
 H32 H -0.04050 0.61762 -0.02629
 H33 H -0.01459 0.45852 0.01036
 H34 H 0.01130 0.64286 0.05165
 C35 C 0.49146 0.54131 0.14328
 C36 C 0.45216 0.50443 0.14264
 C37 C 0.44562 0.48846 0.09343
 N38 N 0.47996 0.51441 0.06424
 C39 C 0.50780 0.54713 0.09439
 C40 C 0.40749 0.45189 0.07581
 C41 C 0.40749 0.42536 0.03588
 C42 C 0.37648 0.38251 0.02850
 C43 C 0.39001 0.36752 -0.01148
 C44 C 0.42935 0.40136 -0.02713
 N45 N 0.43911 0.43659 0.00133
 C46 C 0.45418 0.40059 -0.06848
 C47 C 0.49145 0.43842 -0.08524
 C48 C 0.50593 0.44665 -0.13504
 C49 C 0.54532 0.48334 -0.13424
 C50 C 0.55385 0.49666 -0.08392
 N51 N 0.52060 0.46926 -0.05415
 C52 C 0.59279 0.53217 -0.06604
 C53 C 0.59335 0.55845 -0.02526
 C54 C 0.62497 0.60097 -0.01678
 C55 C 0.61123 0.61605 0.02287
 C56 C 0.57116 0.58274 0.03726
 N57 N 0.56124 0.54760 0.00855
 C58 C 0.54551 0.58440 0.07715
 H59 H 0.50633 0.56134 0.17624
 H60 H 0.43139 0.49068 0.17522
 H61 H 0.53476 0.51719 0.01325
 H62 H 0.34786 0.36316 0.05070
 H63 H 0.37167 0.33572 -0.02772
 H64 H 0.48972 0.42848 -0.16870
 H65 H 0.56484 0.49876 -0.16734
 H66 H 0.62978 0.64764 0.03966
 H67 H 0.46459 0.46744 -0.00482
 H68 H 0.65406 0.62025 -0.03819
 C69 C 0.41747 0.87368 0.05300
 C70 C 0.45512 0.87363 0.05300
 C71 C 0.48677 0.91438 0.03788
 N72 N 0.46894 0.93892 0.02691
 C73 C 0.42660 0.91448 0.03792
 C74 C 0.53128 0.92833 0.03662
 C75 C 0.56091 0.96387 0.00711
 C76 C 0.59835 0.96868 -0.01357
 C77 C 0.61661 1.00618 -0.04202
 C78 C 0.58979 1.02323 -0.03779
 N79 N 0.55628 0.99743 -0.00736
 C80 C 0.59707 1.06269 -0.05889
 C81 C 0.56753 1.07671 -0.05103
 C82 C 0.57785 1.11908 -0.04345
 C83 C 0.53986 1.11905 -0.04355
 C84 C 0.50786 1.07667 -0.05140
 N85 N 0.52473 1.05068 -0.05533
 C86 C 0.46427 1.06256 -0.05994
 C87 C 0.43211 1.02324 -0.03819
 C88 C 0.38818 1.00625 -0.04170
 C89 C 0.36917 0.96894 -0.01292
 C90 C 0.40190 0.96408 0.00731
 N91 N 0.43996 0.99748 -0.00775
 C92 C 0.39613 0.92858 0.03689
 H93 H 0.38685 0.84589 0.06177
 H94 H 0.45794 0.84581 0.06179
 H95 H 0.46976 1.00418 0.00542
 H96 H 0.61040 0.94660 -0.01052
 H97 H 0.64643 1.01930 -0.06272
 H98 H 0.60947 1.14697 -0.03849
 H99 H 0.53609 1.14696 -0.03880
 H100 H 0.33507 0.94699 -0.00938
 H101 H 0.53341 1.00430 0.00625
 H102 H 0.37125 1.01928 -0.06208
 C103 C 1.13354 0.59070 0.47027
 C104 C 1.13393 0.55259 0.46978
 C105 C 1.09179 0.52001 0.46379
 N106 N 1.06559 0.53659 0.46120
 C107 C 1.09117 0.57983 0.46453
 C108 C 1.07770 0.47600 0.45593
 C109 C 1.03960 0.44404 0.47970
 C110 C 1.02181 0.39966 0.47627
 C111 C 0.98694 0.38131 0.50862
 C112 C 0.98397 0.41494 0.53048
 N113 N 1.01676 0.45279 0.51340
 C114 C 0.95470 0.41173 0.56846
 C115 C 0.95540 0.44925 0.58664
 C116 C 0.94680 0.45563 0.63621
 C117 C 0.94642 0.49365 0.63653
 C118 C 0.95492 0.50943 0.58717
 N119 N 0.96083 0.48243 0.55669
 C120 C 0.95357 0.54611 0.56962
 C121 C 0.98260 0.57323 0.53166
 C122 C 0.98510 0.60985 0.51020
 C123 C 1.01997 0.62760 0.47779
 C124 C 1.03824 0.60169 0.48076
 N125 N 1.01570 0.56937 0.51426
 C126 C 1.07646 0.60907 0.45680
 H127 H 1.16118 0.62279 0.47375
 H128 H 1.16191 0.54912 0.47306
 H129 H 1.02474 0.54793 0.52802
 H130 H 1.03359 0.38202 0.45494
 H131 H 0.96795 0.34726 0.51642
 H132 H 0.94188 0.43539 0.66898
 H133 H 0.94120 0.50823 0.66966
 H134 H 1.03150 0.65737 0.45678
 H135 H 1.02539 0.48318 0.52754
 H136 H 0.96586 0.62424 0.51831
 C137 C 0.45773 0.59111 0.46935
 C138 C 0.41909 0.55318 0.46883
 C139 C 0.42839 0.52025 0.46510
 N140 N 0.47114 0.53645 0.46389
 C141 C 0.48903 0.57977 0.46589
 C142 C 0.39834 0.47625 0.45798
 C143 C 0.40426 0.44415 0.48157
 C144 C 0.37746 0.39987 0.47780
 C145 C 0.39372 0.38112 0.50997
 C146 C 0.43037 0.41446 0.53206
 N147 N 0.43571 0.45252 0.51530
 C148 C 0.45625 0.41083 0.56996
 C149 C 0.49315 0.44813 0.58828
 C150 C 0.50810 0.45428 0.63785
 C151 C 0.54659 0.49216 0.63829
 C152 C 0.55399 0.50801 0.58896
 N153 N 0.52104 0.48127 0.55842
 C154 C 0.59208 0.54458 0.57150
 C155 C 0.59036 0.57194 0.53372
 C156 C 0.62463 0.60841 0.51222
 C157 C 0.60768 0.62641 0.47986
 C158 C 0.56357 0.60081 0.48296
 N159 N 0.55354 0.56844 0.51644
 C160 C 0.53309 0.60862 0.45900
 H161 H 0.46238 0.62336 0.47157
 H162 H 0.38776 0.55010 0.47088
 H163 H 0.52305 0.54723 0.53031
 H164 H 0.34810 0.38260 0.45632
 H165 H 0.37847 0.34701 0.51750
 H166 H 0.49268 0.43397 0.67055
 H167 H 0.56644 0.50660 0.67141
 H168 H 0.62600 0.65612 0.45876
 H169 H 0.45750 0.48278 0.52971
 H170 H 0.65823 0.62245 0.52024
 C171 C 0.54362 0.12428 0.54998
 C172 C 0.58133 0.12435 0.54992
 C173 C 0.57219 0.08342 0.53560
 N174 N 0.52981 0.05875 0.52512
 C175 C 0.51197 0.08331 0.53566
 C176 C 0.60263 0.06931 0.53510
 C177 C 0.59690 0.03366 0.50602
 C178 C 0.62963 0.02873 0.48594
 C179 C 0.61059 -0.00861 0.45731
 C180 C 0.56667 -0.02554 0.46089
 N181 N 0.55884 0.00027 0.49113
 C182 C 0.53443 -0.06484 0.43939
 C183 C 0.49095 -0.07885 0.44825
 C184 C 0.45909 -0.12112 0.45721
 C185 C 0.42107 -0.12120 0.45726
 C186 C 0.43126 -0.07898 0.44831
 N187 N 0.47401 -0.05299 0.44336
 C188 C 0.40165 -0.06508 0.43966
 C189 C 0.40869 -0.02577 0.46109
 C190 C 0.38164 -0.00887 0.45755
 C191 C 0.39991 0.02850 0.48609
 C192 C 0.43760 0.03347 0.50610
 N193 N 0.44233 0.00010 0.49123
 C194 C 0.46743 0.06909 0.53521
 H195 H 0.54073 0.15209 0.55841
 H196 H 0.61196 0.15224 0.55828
 H197 H 0.46550 -0.00654 0.50434
 H198 H 0.66372 0.05067 0.48942
 H199 H 0.62746 -0.02171 0.43697
 H200 H 0.46298 -0.14890 0.46261
 H201 H 0.38949 -0.14905 0.46273
 H202 H 0.38771 0.05042 0.48959
 H203 H 0.52903 -0.00641 0.50424
 H204 H 0.35164 -0.02202 0.43730
 O205 O 0.15939 0.39393 0.20540
 O206 O 0.23620 0.40213 0.30463
 O207 O 0.16429 0.40212 0.30431
 O208 O 0.23404 0.39474 0.20584
 O209 O 0.26809 0.46580 0.19773
 O210 O 0.20001 0.47313 0.29493
 O211 O 0.27117 0.47312 0.29502
 O212 O 0.19538 0.46504 0.19774
 Cu213 Cu 0.19478 0.39081 0.25516
 Cu214 Cu 0.23712 0.47625 0.24507
 C215 C 0.16373 0.42852 0.18633
 C216 C 0.26667 0.43939 0.31653
 C217 C 0.17086 0.43932 0.31630
 C218 C 0.26395 0.42951 0.18666
 O219 O 0.60594 0.76414 0.19855
 O220 O 0.60279 0.84061 0.29139
 O221 O 0.60468 0.76878 0.29765
 O222 O 0.60416 0.83752 0.19131
 O223 O 0.53353 0.79873 0.19064
 O224 O 0.53390 0.73212 0.29472
 O225 O 0.53205 0.80294 0.28834
 O226 O 0.53514 0.72760 0.19773
 Cu227 Cu 0.61173 0.80676 0.24442
 Cu228 Cu 0.52670 0.76180 0.24253
 C229 C 0.57072 0.73218 0.18373
 C230 C 0.56644 0.83421 0.30563
 C231 C 0.56883 0.73855 0.31377
 C232 C 0.56821 0.82976 0.17360
 O233 O 0.23316 0.83740 0.19266
 O234 O 0.16449 0.76817 0.29899
 O235 O 0.23813 0.84011 0.29277
 O236 O 0.15840 0.76362 0.20011
 O237 O 0.19324 0.72761 0.19842
 O238 O 0.27141 0.80262 0.28927
 O239 O 0.19883 0.73170 0.29544
 O240 O 0.26549 0.79903 0.19160
 Cu241 Cu 0.19519 0.80633 0.24591
 Cu242 Cu 0.23568 0.76173 0.24333
 C243 C 0.26149 0.82992 0.17472
 C244 C 0.17022 0.73788 0.31468
 C245 C 0.26821 0.83380 0.30676
 C246 C 0.16197 0.73190 0.18489
 O247 O 0.76258 0.59765 0.80043
 O248 O 0.83772 0.60166 0.70139
 O249 O 0.76451 0.60148 0.70142
 O250 O 0.83616 0.59863 0.80054
 O251 O 0.80071 0.52732 0.79621
 O252 O 0.72951 0.53010 0.69930
 O253 O 0.80158 0.53030 0.69834
 O254 O 0.72836 0.52631 0.79712
 Cu255 Cu 0.80385 0.60714 0.75125
 Cu256 Cu 0.76156 0.52145 0.74737
 C257 C 0.73228 0.56101 0.81480
 C258 C 0.83258 0.56630 0.68391
 C259 C 0.73421 0.56594 0.68458
 C260 C 0.83083 0.56223 0.81431
 O261 O 0.39377 0.23186 0.69410
 O262 O 0.39558 0.15724 0.79141
 O263 O 0.39279 0.22939 0.79297
 O264 O 0.39492 0.15861 0.69110
 O265 O 0.46555 0.19766 0.69137
 O266 O 0.46361 0.26544 0.79333
 O267 O 0.46634 0.19469 0.78932
 O268 O 0.46457 0.26899 0.69588
 Cu269 Cu 0.38697 0.19020 0.74233
 Cu270 Cu 0.47199 0.23521 0.74252
 C271 C 0.42927 0.26378 0.67970
 C272 C 0.43174 0.16356 0.80643
 C273 C 0.42818 0.25994 0.80955
 C274 C 0.43107 0.16654 0.67404
 O275 O 0.83714 0.23130 0.79278
 O276 O 0.76469 0.15995 0.69090
 O277 O 0.83879 0.23341 0.69378
 O278 O 0.76244 0.15901 0.79117
 O279 O 0.72887 0.19625 0.78861
 O280 O 0.80485 0.27033 0.69507
 O281 O 0.73279 0.19875 0.69065
 O282 O 0.80206 0.26709 0.79254
 Cu283 Cu 0.80404 0.19189 0.74214
 Cu284 Cu 0.76367 0.23660 0.74168
 C285 C 0.83201 0.26176 0.80913
 C286 C 0.73635 0.16763 0.67362
 C287 C 0.83504 0.26518 0.67909
 C288 C 0.73250 0.16527 0.80598
 C289 C 0.10757 0.45205 0.17299
 C290 C 0.11559 0.47494 0.12111
 C291 C 0.07189 0.43775 0.10239
 C292 C 0.06410 0.41479 0.15413
 C293 C 0.09448 0.41370 0.08219
 C294 C 0.13799 0.45084 0.10165
 C295 C 0.12984 0.42798 0.15333
 C296 C 0.08679 0.39051 0.13458
 H297 H 0.11331 0.46827 0.21046
 H298 H 0.12847 0.51009 0.11566
 H299 H 0.03366 0.40003 0.17595
 H300 H 0.09118 0.39869 0.04433
 H301 H 0.16862 0.46561 0.08017
 H302 H 0.07529 0.35564 0.14009
 C303 C 0.54509 0.68158 0.10153
 C304 C 0.58073 0.67395 0.08042
 C305 C 0.55696 0.62741 0.10214
 C306 C 0.52123 0.63518 0.12254
 C307 C 0.58155 0.64343 0.15263
 C308 C 0.60559 0.69035 0.13150
 C309 C 0.56957 0.69715 0.15197
 C310 C 0.54574 0.65090 0.17320
 H311 H 0.53016 0.69759 0.08064
 H312 H 0.59431 0.68467 0.04173
 H313 H 0.48611 0.61330 0.11883
 H314 H 0.59648 0.62758 0.17384
 H315 H 0.64043 0.71354 0.13520
 H316 H 0.53084 0.64129 0.21144
 C317 C 0.32909 0.90497 0.14451
 C318 C 0.36172 0.89267 0.12506
 C319 C 0.35613 0.90439 0.07009
 C320 C 0.32367 0.91732 0.08955
 C321 C 0.31951 0.85789 0.06082
 C322 C 0.32542 0.84604 0.11556
 C323 C 0.29289 0.85840 0.13506
 C324 C 0.28655 0.87015 0.08064
 H325 H 0.33285 0.92424 0.17919
 H326 H 0.39256 0.90175 0.14409
 H327 H 0.32266 0.94696 0.07996
 H328 H 0.31552 0.83837 0.02632
 H329 H 0.32671 0.81669 0.12608
 H330 H 0.25527 0.86089 0.06274
 C331 C 0.88859 0.54286 0.66741
 C332 C 0.87881 0.51876 0.61629
 C333 C 0.92130 0.55596 0.59466
 C334 C 0.93081 0.58013 0.64570
 C335 C 0.89716 0.57881 0.57557
 C336 C 0.85483 0.54167 0.59797
 C337 C 0.86483 0.56575 0.64891
 C338 C 0.90663 0.60320 0.62723
 H339 H 0.88467 0.52730 0.70498
 H340 H 0.86633 0.48360 0.61186
 H341 H 0.96214 0.59594 0.66564
 H342 H 0.89776 0.59252 0.53755
 H343 H 0.82329 0.52586 0.57851
 H344 H 0.91781 0.63807 0.63182
 C345 C 0.45762 0.31410 0.59693
 C346 C 0.42249 0.32096 0.57244
 C347 C 0.44464 0.36747 0.59401
 C348 C 0.47986 0.36051 0.61775
 C349 C 0.41784 0.35099 0.64305
 C350 C 0.39545 0.30413 0.62214
 C351 C 0.43099 0.29815 0.64597
 C352 C 0.45316 0.34440 0.66691
 H353 H 0.47394 0.29859 0.57809
 H354 H 0.41092 0.30984 0.53322
 H355 H 0.51502 0.38283 0.61597
 H356 H 0.40154 0.36634 0.66229
 H357 H 0.36060 0.28049 0.62402
 H358 H 0.46637 0.35448 0.70570
 C359 C 0.67246 0.15171 0.61419
 C360 C 0.67891 0.14009 0.55957
 C361 C 0.64232 0.09351 0.56859
 C362 C 0.63616 0.10499 0.62342
 C363 C 0.67465 0.08059 0.58856
 C364 C 0.71174 0.12783 0.57989
 C365 C 0.70484 0.13934 0.63413
 C366 C 0.66868 0.09270 0.64338
 H367 H 0.67108 0.18100 0.62464
 H368 H 0.68321 0.15970 0.52498
 H369 H 0.60511 0.09573 0.64204
 H370 H 0.67584 0.05106 0.57908
 H371 H 0.74322 0.13728 0.56238
 H372 H 0.66467 0.07335 0.67814
 C373 C 0.45494 0.10673 0.82757
 C374 C 0.48624 0.12493 0.87264
 C375 C 0.45336 0.08765 0.90670
 C376 C 0.42211 0.06921 0.86124
 C377 C 0.43337 0.11489 0.92296
 C378 C 0.46640 0.15240 0.88905
 C379 C 0.43530 0.13416 0.84387
 C380 C 0.40200 0.09694 0.87703
 H381 H 0.46364 0.10338 0.78798
 H382 H 0.52100 0.13742 0.86750
 H383 H 0.40408 0.03485 0.84927
 H384 H 0.42462 0.11826 0.96249
 H385 H 0.48468 0.18690 0.90040
 H386 H 0.36722 0.08560 0.87834
 C387 C 0.68568 0.53211 0.90066
 C388 C 0.67865 0.56743 0.92500
 C389 C 0.63163 0.54334 0.90636
 C390 C 0.63867 0.50785 0.88286
 C391 C 0.64487 0.56888 0.85612
 C392 C 0.69224 0.59324 0.87408
 C393 C 0.69849 0.55755 0.85042
 C394 C 0.65173 0.53336 0.83240
 H395 H 0.70279 0.51709 0.91875
 H396 H 0.69047 0.58097 0.96345
 H397 H 0.61699 0.47239 0.88625
 H398 H 0.62799 0.58397 0.83763
 H399 H 0.71478 0.62849 0.87045
 H400 H 0.64033 0.51845 0.79451
 C401 C 0.88573 0.34195 0.82939
 C402 C 0.87296 0.35364 0.88029
 C403 C 0.91518 0.36055 0.90380
 C404 C 0.92776 0.34859 0.85308
 C405 C 0.89190 0.31270 0.92097
 C406 C 0.84987 0.30588 0.89663
 C407 C 0.86272 0.29436 0.84589
 C408 C 0.90433 0.30036 0.86949
 H409 H 0.88272 0.35434 0.79191
 H410 H 0.85925 0.37512 0.88442
 H411 H 0.95987 0.36626 0.83499
 H412 H 0.89313 0.29984 0.95899
 H413 H 0.81761 0.28799 0.91433
 H414 H 0.91684 0.27791 0.86499
 C415 C 0.54287 0.89096 0.32674
 C416 C 0.51191 0.87277 0.37223
 C417 C 0.54508 0.91005 0.40591
 C418 C 0.57597 0.92848 0.36007
 C419 C 0.56514 0.88280 0.42186
 C420 C 0.53185 0.84529 0.38831
 C421 C 0.56260 0.86354 0.34275
 C422 C 0.59616 0.90074 0.37556
 H423 H 0.53389 0.89426 0.28727
 H424 H 0.47710 0.86031 0.36772
 H425 H 0.59396 0.96285 0.34803
 H426 H 0.57418 0.87945 0.46126
 H427 H 0.51365 0.81078 0.39978
 H428 H 0.63094 0.91206 0.37639
 C429 C 0.34626 0.46439 0.34122
 C430 C 0.35854 0.49673 0.38530
 C431 C 0.36142 0.46416 0.42138
 C432 C 0.34939 0.43187 0.37701
 C433 C 0.31387 0.44434 0.43573
 C434 C 0.31089 0.47705 0.39970
 C435 C 0.29891 0.44489 0.35561
 C436 C 0.30131 0.41191 0.39090
 H437 H 0.35959 0.47258 0.30212
 H438 H 0.38144 0.53168 0.37981
 H439 H 0.36559 0.41349 0.36720
 H440 H 0.30075 0.43623 0.47496
 H441 H 0.29477 0.49565 0.40884
 H442 H 0.27746 0.37687 0.39270
 C443 C 0.11396 0.65922 0.34130
 C444 C 0.13410 0.64695 0.38496
 C445 C 0.09940 0.64436 0.42165
 C446 C 0.07903 0.65638 0.37759
 C447 C 0.12791 0.69234 0.43552
 C448 C 0.16285 0.69498 0.39893
 C449 C 0.14275 0.70707 0.35505
 C450 C 0.10805 0.70500 0.39083
 H451 H 0.10809 0.64559 0.30230
 H452 H 0.14558 0.62381 0.37909
 H453 H 0.04441 0.64013 0.36816
 H454 H 0.13363 0.70581 0.47462
 H455 H 0.19760 0.71108 0.40762
 H456 H 0.09753 0.72920 0.39273
 C457 C 0.84832 0.53087 0.89771
 C458 C 0.87412 0.51018 0.87854
 C459 C 0.91465 0.54567 0.90564
 C460 C 0.88855 0.56610 0.92560
 C461 C 0.92751 0.57423 0.85775
 C462 C 0.88721 0.53873 0.83046
 C463 C 0.86153 0.55933 0.84982
 C464 C 0.90135 0.59499 0.87704
 H465 H 0.81550 0.51310 0.91394
 H466 H 0.86167 0.47483 0.87893
 H467 H 0.88718 0.57640 0.96502
 H468 H 0.96017 0.59204 0.84110
 H469 H 0.88642 0.52680 0.79144
 H470 H 0.91217 0.62998 0.87637
 C471 C 0.45344 0.30431 0.89704
 C472 C 0.47783 0.35203 0.88061
 C473 C 0.44209 0.35869 0.90338
 C474 C 0.41777 0.31080 0.92059
 C475 C 0.41810 0.34634 0.85225
 C476 C 0.45394 0.34005 0.82939
 C477 C 0.42958 0.29250 0.84600
 C478 C 0.39352 0.29816 0.86880
 H479 H 0.46794 0.28673 0.91527
 H480 H 0.51291 0.37357 0.88529
 H481 H 0.40370 0.29728 0.95838
 H482 H 0.40360 0.36373 0.83359
 H483 H 0.46970 0.35250 0.79212
 H484 H 0.35869 0.27550 0.86386
 C485 C 0.65249 0.10900 0.82737
 C486 C 0.64767 0.07109 0.86035
 C487 C 0.63522 0.08932 0.90634
 C488 C 0.63981 0.12703 0.87303
 C489 C 0.68252 0.11608 0.92239
 C490 C 0.69554 0.09830 0.87594
 C491 C 0.69962 0.13594 0.84346
 C492 C 0.68719 0.15403 0.88919
 H493 H 0.64031 0.10609 0.78792
 H494 H 0.63105 0.03680 0.84811
 H495 H 0.61768 0.13979 0.86875
 H496 H 0.69469 0.11895 0.96182
 H497 H 0.71876 0.08665 0.87666
 H498 H 0.70370 0.18845 0.90096
 C499 C 0.16428 0.47649 0.39981
 C500 C 0.13700 0.49699 0.38543
 C501 C 0.10112 0.46447 0.42110
 C502 C 0.12816 0.44387 0.43545
 C503 C 0.08075 0.43260 0.37637
 C504 C 0.11685 0.46503 0.34102
 C505 C 0.14404 0.44475 0.35536
 C506 C 0.10822 0.41184 0.39022
 H507 H 0.19893 0.49456 0.40924
 H508 H 0.14965 0.53209 0.38017
 H509 H 0.13279 0.43529 0.47462
 H510 H 0.04625 0.41473 0.36620
 H511 H 0.11215 0.47373 0.30199
 H512 H 0.09655 0.37668 0.39165
 C513 C 0.54750 0.66030 0.34124
 C514 C 0.57951 0.65814 0.37831
 C515 C 0.54664 0.64590 0.42185
 C516 C 0.51468 0.64787 0.38440
 C517 C 0.56537 0.69390 0.43522
 C518 C 0.59836 0.70675 0.39108
 C519 C 0.56581 0.70813 0.35451
 C520 C 0.53317 0.69586 0.39791
 H521 H 0.54025 0.64639 0.30237
 H522 H 0.59835 0.64223 0.36965
 H523 H 0.48024 0.62429 0.37827
 H524 H 0.57257 0.70754 0.47426
 H525 H 0.63294 0.73128 0.39333
 H526 H 0.51402 0.71157 0.40593
 C527 C 0.31410 0.84495 0.38924
 C528 C 0.36143 0.87225 0.37287
 C529 C 0.36578 0.90970 0.40643
 C530 C 0.31855 0.88263 0.42269
 C531 C 0.35317 0.92805 0.36063
 C532 C 0.34852 0.89036 0.32741
 C533 C 0.30146 0.86313 0.34373
 C534 C 0.30533 0.90049 0.37643
 H535 H 0.29777 0.81047 0.40087
 H536 H 0.38368 0.85966 0.36825
 H537 H 0.30637 0.87946 0.46217
 H538 H 0.36956 0.96238 0.34841
 H539 H 0.36061 0.89349 0.28787
 H540 H 0.28194 0.91192 0.37736
 C541 C 0.58264 0.86985 0.07954
 C542 C 0.53731 0.85755 0.06012
 C543 C 0.54716 0.90404 0.06952
 C544 C 0.59265 0.91701 0.08859
 C545 C 0.53015 0.89232 0.12460
 C546 C 0.51986 0.84569 0.11499
 C547 C 0.56486 0.85810 0.13408
 C548 C 0.57518 0.90465 0.14366
 H549 H 0.60458 0.86060 0.06137
 H550 H 0.52163 0.83803 0.02568
 H551 H 0.62319 0.94665 0.07884
 H552 H 0.50847 0.90139 0.14388
 H553 H 0.48934 0.81632 0.12569
 H554 H 0.59084 0.92393 0.17827
 C555 C 0.30463 0.39262 0.13625
 C556 C 0.31901 0.41482 0.08321
 C557 C 0.36571 0.44061 0.10273
 C558 C 0.35170 0.41859 0.15510
 C559 C 0.35793 0.47723 0.12030
 C560 C 0.31130 0.45144 0.10147
 C561 C 0.29766 0.42955 0.15382
 C562 C 0.34413 0.45530 0.17284
 H563 H 0.28218 0.35768 0.14277
 H564 H 0.30787 0.39853 0.04585
 H565 H 0.36849 0.40518 0.17728
 H566 H 0.37958 0.51237 0.11391
 H567 H 0.29438 0.46486 0.07954
 H568 H 0.35452 0.47240 0.20982
 C569 C 0.10784 0.65026 0.17302
 C570 C 0.06351 0.64138 0.15462
 C571 C 0.07195 0.62716 0.10279
 C572 C 0.11638 0.63623 0.12099
 C573 C 0.09253 0.67397 0.08241
 C574 C 0.08431 0.68861 0.13488
 C575 C 0.12822 0.69683 0.15311
 C576 C 0.13686 0.68296 0.10128
 H577 H 0.11453 0.64044 0.21039
 H578 H 0.03324 0.62407 0.17665
 H579 H 0.13028 0.61508 0.11538
 H580 H 0.08724 0.68442 0.04465
 H581 H 0.07151 0.71070 0.14061
 H582 H 0.16725 0.70039 0.07948
 C583 C 0.41628 0.12702 0.58024
 C584 C 0.46143 0.13960 0.55990
 C585 C 0.45179 0.09310 0.56880
 C586 C 0.40649 0.07988 0.58881
 C587 C 0.46940 0.10458 0.62364
 C588 C 0.47947 0.15123 0.61452
 C589 C 0.43466 0.13853 0.63449
 C590 C 0.42454 0.09198 0.64362
 H591 H 0.39409 0.13630 0.56281
 H592 H 0.47664 0.15930 0.52534
 H593 H 0.37590 0.05024 0.57931
 H594 H 0.49136 0.09548 0.64218
 H595 H 0.51000 0.18062 0.62503
 H596 H 0.40930 0.07254 0.67835
 C597 C 0.65483 0.54361 0.66982
 C598 C 0.65017 0.58045 0.64606
 C599 C 0.63414 0.55429 0.59647
 C600 C 0.63914 0.51750 0.62012
 C601 C 0.68061 0.57561 0.57605
 C602 C 0.69694 0.60201 0.62627
 C603 C 0.70101 0.56498 0.64998
 C604 C 0.68554 0.53893 0.60045
 H605 H 0.64393 0.53003 0.70840
 H606 H 0.63547 0.59749 0.66507
 H607 H 0.61613 0.48227 0.61762
 H608 H 0.69269 0.58763 0.53717
 H609 H 0.72115 0.63689 0.62888
 H610 H 0.70040 0.52188 0.58185
 C611 C 0.85658 0.31551 0.59649
 C612 C 0.88113 0.36192 0.61727
 C613 C 0.92297 0.36857 0.59286
 C614 C 0.89822 0.32206 0.57135
 C615 C 0.93360 0.35196 0.64159
 C616 C 0.89203 0.34568 0.66612
 C617 C 0.86756 0.29944 0.64521
 C618 C 0.90872 0.30510 0.62073
 H619 H 0.82461 0.30019 0.57807
 H620 H 0.86842 0.38439 0.61587
 H621 H 0.89826 0.31093 0.53201
 H622 H 0.96540 0.36714 0.66039
 H623 H 0.88937 0.35578 0.70511
 H624 H 0.91976 0.28128 0.62223
   
