data_POSCAR
  _audit_creation_date              2014-09-24
  _audit_creation_method            'ToBaCCo'
  _symmetry_space_group_name_H-M    'P1'
  _symmetry_Int_Tables_number       1
  _symmetry_cell_setting            triclinic
  loop_
  _symmetry_equiv_pos_as_xyz
 x,y,z
_cell_length_a 44.2308
_cell_length_b 44.2220
_cell_length_c 44.1781
_cell_angle_alpha 89.751700
_cell_angle_beta 89.924100
_cell_angle_gamma 90.001100
loop_
  _atom_site_label
  _atom_site_type_symbol
  _atom_site_fract_x
  _atom_site_fract_y
  _atom_site_fract_z
C1 C 0.20421 0.52446 1.03493
 H2 H 0.20430 0.54195 1.01773
 C3 C 0.18332 0.52566 1.05859
 H4 H 0.16848 0.54504 1.05944
 C5 C 0.22482 0.47903 1.05434
 H6 H 0.24049 0.46043 1.05214
 C7 C 0.20435 0.47928 1.07845
 H8 H 0.20472 0.46023 1.09385
 N9 N 0.22446 0.50148 1.03326
 C10 C 0.29722 0.53626 0.97637
 H11 H 0.29765 0.51897 0.95913
 C12 C 0.31834 0.55968 0.97561
 H13 H 0.33470 0.56051 0.95737
 C14 C 0.27541 0.55586 1.02121
 H15 H 0.25913 0.55388 1.03935
 C16 C 0.29615 0.57970 1.02134
 H17 H 0.29555 0.59588 1.03965
 Zn18 Zn 0.25038 0.50075 0.99917
 N19 N 0.27627 0.53480 0.99887
 C20 C 0.22692 0.52313 0.94341
 N21 N 0.22545 0.50058 0.96440
 C22 C 0.20471 0.47801 0.96216
 C23 C 0.18452 0.47736 0.93792
 C24 C 0.20712 0.52338 0.91880
 C25 C 0.29582 0.46427 1.02316
 C26 C 0.31664 0.44060 1.02426
 C27 C 0.29553 0.42122 0.97781
 C28 C 0.27507 0.44530 0.97761
 N29 N 0.27558 0.46620 1.00011
 H30 H 0.24311 0.54122 0.94591
 H31 H 0.20365 0.46069 0.97950
 H32 H 0.16781 0.45950 0.93689
 H33 H 0.20872 0.54144 0.90225
 H34 H 0.29599 0.48144 1.04053
 H35 H 0.33248 0.43944 1.04289
 H36 H 0.29528 0.40522 0.95933
 H37 H 0.25935 0.44764 0.95906
 C38 C 0.31814 0.58170 0.99843
 C39 C 0.18276 0.50272 1.08098
 C40 C 0.31687 0.41881 1.00123
 C41 C 0.18546 0.50034 0.91589
 C42 C 0.79699 0.52370 -0.03471
 H43 H 0.79725 0.54061 -0.01709
 C44 C 0.81798 0.52518 -0.05828
 H45 H 0.83404 0.54365 -0.05889
 C46 C 0.77583 0.47892 -0.05497
 H47 H 0.75987 0.46051 -0.05318
 C48 C 0.79644 0.47952 -0.07896
 H49 H 0.79607 0.46148 -0.09545
 N50 N 0.77645 0.50086 -0.03349
 C51 C 0.70493 0.53480 0.02517
 H52 H 0.70461 0.51707 0.04211
 C53 C 0.68407 0.55841 0.02669
 H54 H 0.66804 0.55894 0.04522
 C55 C 0.72616 0.55533 -0.01971
 H56 H 0.74210 0.55364 -0.03816
 C57 C 0.70567 0.57937 -0.01907
 H58 H 0.70612 0.59600 -0.03713
 Zn59 Zn 0.75086 0.49934 0.00082
 N60 N 0.72544 0.53369 0.00227
 C61 C 0.77573 0.51973 0.05657
 N62 N 0.77629 0.49770 0.03517
 C63 C 0.79669 0.47475 0.03649
 C64 C 0.81762 0.47326 0.06006
 C65 C 0.79629 0.51913 0.08055
 C66 C 0.70482 0.46416 -0.02362
 C67 C 0.68380 0.44070 -0.02517
 C68 C 0.70506 0.41960 0.02064
 C69 C 0.72572 0.44350 0.02130
 N70 N 0.72525 0.46513 -0.00068
 H71 H 0.75990 0.53823 0.05470
 H72 H 0.79689 0.45777 0.01894
 H73 H 0.83359 0.45471 0.06073
 H74 H 0.79600 0.53726 0.09694
 H75 H 0.70470 0.48189 -0.04057
 H76 H 0.66784 0.44029 -0.04372
 H77 H 0.70531 0.40298 0.03870
 H78 H 0.74160 0.44509 0.03978
 C79 C 0.68409 0.58099 0.00423
 C80 C 0.81806 0.50275 -0.08070
 C81 C 0.68356 0.41813 -0.00270
 C82 C 0.81778 0.49580 0.08236
 C83 C -0.02343 0.29673 0.46602
 H84 H -0.04083 0.29666 0.48327
 C85 C -0.02459 0.31779 0.44245
 H86 H -0.04386 0.33280 0.44169
 C87 C 0.02175 0.27593 0.44646
 H88 H 0.04025 0.26012 0.44857
 C89 C 0.02153 0.29656 0.42243
 H90 H 0.04050 0.29616 0.40700
 N91 N -0.00059 0.27630 0.46758
 C92 C -0.03526 0.20346 0.52457
 H93 H -0.01776 0.20284 0.54165
 C94 C -0.05882 0.18252 0.52553
 H95 H -0.05955 0.16609 0.54376
 C96 C -0.05527 0.22563 0.47996
 H97 H -0.05341 0.24201 0.46185
 C98 C -0.07927 0.20507 0.48004
 H99 H -0.09568 0.20588 0.46190
 Zn100 Zn 0.00025 0.25021 0.50162
 N101 N -0.03394 0.22451 0.50209
 C102 C -0.02163 0.27356 0.55745
 N103 N 0.00082 0.27500 0.53642
 C104 C 0.02347 0.29565 0.53860
 C105 C 0.02428 0.31583 0.56279
 C106 C -0.02172 0.29334 0.58201
 C107 C 0.03620 0.20468 0.47734
 C108 C 0.05977 0.18377 0.47599
 C109 C 0.07980 0.20460 0.52229
 C110 C 0.05580 0.22516 0.52274
 N111 N 0.03464 0.22483 0.50043
 H112 H -0.03980 0.25745 0.55500
 H113 H 0.04071 0.29668 0.52123
 H114 H 0.04217 0.33250 0.56376
 H115 H -0.03972 0.29179 0.59858
 H116 H 0.01883 0.20466 0.46012
 H117 H 0.06064 0.16802 0.45732
 H118 H 0.09603 0.20471 0.54061
 H119 H 0.05376 0.24083 0.54132
 C120 C -0.08114 0.18300 0.50294
 C121 C -0.00176 0.31834 0.42002
 C122 C 0.08185 0.18336 0.49881
 C123 C 0.00137 0.31496 0.58483
 C124 C 0.97508 0.70397 0.53346
 H125 H 0.95792 0.70393 0.51603
 C126 C 0.97379 0.68288 0.55702
 H127 H 0.95523 0.66693 0.55781
 C128 C 1.02025 0.72476 0.55329
 H129 H 1.03872 0.74063 0.55136
 C130 C 1.01984 0.70405 0.57725
 H131 H 1.03809 0.70426 0.59356
 N132 N 0.99800 0.72441 0.53206
 C133 C 0.96403 0.79725 0.47473
 H134 H 0.98170 0.79782 0.45778
 C135 C 0.94054 0.81827 0.47359
 H136 H 0.94005 0.83469 0.45535
 C137 C 0.94351 0.77516 0.51920
 H138 H 0.94515 0.75879 0.53733
 C139 C 0.91958 0.79580 0.51893
 H140 H 0.90298 0.79505 0.53696
 Zn141 Zn 0.99921 0.75047 0.49800
 N142 N 0.96507 0.77622 0.49723
 C143 C 0.97789 0.72707 0.44203
 N144 N 1.00012 0.72564 0.46324
 C145 C 1.02275 0.70494 0.46127
 C146 C 1.02375 0.68469 0.43714
 C147 C 0.97800 0.70722 0.41753
 C148 C 1.03492 0.79599 0.52253
 C149 C 1.05854 0.81682 0.52413
 C150 C 1.07915 0.79587 0.47809
 C151 C 1.05509 0.77539 0.47738
 N152 N 1.03363 0.77580 0.49946
 H153 H 0.95972 0.74322 0.44431
 H154 H 1.03981 0.70391 0.47877
 H155 H 1.04162 0.66798 0.43636
 H156 H 0.96016 0.70875 0.40083
 H157 H 1.01732 0.79607 0.53956
 H158 H 1.05920 0.83259 0.54279
 H159 H 1.09564 0.79568 0.45996
 H160 H 1.05326 0.75969 0.45881
 C161 C 0.91801 0.81788 0.49602
 C162 C 0.99649 0.68260 0.57923
 C163 C 1.08094 0.81713 0.50157
 C164 C 1.00106 0.68554 0.41494
 C165 C 0.46261 -0.02219 0.29649
 H166 H 0.48022 -0.03913 0.29770
 C167 C 0.43860 -0.02301 0.31700
 H168 H 0.43801 -0.04062 0.33410
 C169 C 0.44295 0.02217 0.27356
 H170 H 0.44500 0.04004 0.25695
 C171 C 0.41855 0.02223 0.29367
 H172 H 0.40171 0.03991 0.29190
 N173 N 0.46429 0.00007 0.27523
 C174 C 0.52258 -0.03653 0.20476
 H175 H 0.53957 -0.01894 0.20371
 C176 C 0.52388 -0.06076 0.18468
 H177 H 0.54179 -0.06061 0.16803
 C178 C 0.47759 -0.05563 0.22657
 H179 H 0.45938 -0.05338 0.24271
 C180 C 0.47789 -0.08025 0.20687
 H181 H 0.46027 -0.09699 0.20948
 Zn182 Zn 0.49879 0.00042 0.24987
 N183 N 0.49978 -0.03444 0.22523
 C184 C 0.55423 -0.02042 0.27525
 N185 N 0.53298 0.00181 0.27550
 C186 C 0.53444 0.02496 0.29558
 C187 C 0.55808 0.02653 0.31640
 C188 C 0.57829 -0.01976 0.29570
 C189 C 0.47548 0.03542 0.20274
 C190 C 0.47441 0.05884 0.18150
 C191 C 0.52004 0.07943 0.20324
 C192 C 0.52024 0.05558 0.22409
 N193 N 0.49808 0.03426 0.22354
 H194 H 0.55227 -0.03906 0.25966
 H195 H 0.51700 0.04212 0.29555
 H196 H 0.55891 0.04527 0.33205
 H197 H 0.59462 -0.03799 0.29561
 H198 H 0.45838 0.01793 0.20256
 H199 H 0.45608 0.05946 0.16529
 H200 H 0.53820 0.09584 0.20363
 H201 H 0.53845 0.05385 0.24026
 C202 C 0.50119 -0.08328 0.18514
 C203 C 0.41621 -0.00052 0.31585
 C204 C 0.49700 0.08117 0.18145
 C205 C 0.58031 0.00385 0.31679
 C206 C 0.53486 -0.02453 0.70342
 H207 H 0.51747 -0.04174 0.70335
 C208 C 0.55827 -0.02559 0.68226
 H209 H 0.55898 -0.04401 0.66621
 C210 C 0.55478 0.02046 0.72446
 H211 H 0.55296 0.03874 0.74048
 C212 C 0.57861 0.02028 0.70366
 H213 H 0.59493 0.03852 0.70395
 N214 N 0.53359 -0.00183 0.72404
 C215 C 0.47770 -0.03756 0.79722
 H216 H 0.46055 -0.02015 0.79830
 C217 C 0.47721 -0.06152 0.81788
 H218 H 0.45964 -0.06227 0.83496
 C219 C 0.52224 -0.05676 0.77446
 H220 H 0.54006 -0.05455 0.75786
 C221 C 0.52264 -0.08110 0.79472
 H222 H 0.54051 -0.09774 0.79307
 Zn223 Zn 0.49982 -0.00129 0.75035
 N224 N 0.49989 -0.03568 0.77598
 C225 C 0.44387 -0.02318 0.72725
 N226 N 0.46490 -0.00078 0.72566
 C227 C 0.46263 0.02188 0.70490
 C228 C 0.43837 0.02276 0.68475
 C229 C 0.41923 -0.02321 0.70749
 C230 C 0.52405 0.03487 0.79580
 C231 C 0.52537 0.05862 0.81645
 C232 C 0.47886 0.07823 0.79551
 C233 C 0.47844 0.05408 0.77522
 N234 N 0.50090 0.03306 0.77569
 H235 H 0.44638 -0.04135 0.74346
 H236 H 0.48000 0.03908 0.70375
 H237 H 0.43735 0.04067 0.66800
 H238 H 0.40267 -0.04116 0.70915
 H239 H 0.54139 0.01761 0.79593
 H240 H 0.54411 0.05972 0.83214
 H241 H 0.46045 0.09436 0.79525
 H242 H 0.45982 0.05183 0.75961
 C243 C 0.49996 -0.08365 0.81688
 C244 C 0.58047 -0.00288 0.68208
 C245 C 0.50244 0.08060 0.81664
 C246 C 0.41633 -0.00009 0.68577
 C247 C 0.24985 -0.00016 0.50113
 C248 C 0.74947 0.00084 0.49910
 C249 C 0.49987 0.25026 0.99799
 C250 C 0.50143 0.74991 0.00261
 C251 C 1.00135 0.49989 0.25020
 C252 C 0.00065 0.50037 0.74976
 C253 C 0.15854 0.14550 0.50750
 C254 C 0.15174 0.11575 0.49921
 C255 C 0.12229 0.10820 0.49059
 C256 C 0.09966 0.13022 0.49032
 C257 C 0.10616 0.16019 0.49867
 C258 C 0.13589 0.16761 0.50726
 C259 C 0.17468 0.09267 0.49985
 C260 C 0.19312 0.07261 0.50028
 C261 C 0.21377 0.04829 0.50067
 C262 C 0.23056 0.02680 0.50092
 H263 H 0.18128 0.15159 0.51420
 H264 H 0.11674 0.08521 0.48427
 H265 H 0.07692 0.12364 0.48409
 H266 H 0.14166 0.19053 0.51353
 C267 C 0.64675 0.65806 -0.00358
 C268 C 0.61685 0.65125 0.00431
 C269 C 0.60903 0.62164 0.01239
 C270 C 0.63092 0.59889 0.01252
 C271 C 0.66104 0.60543 0.00456
 C272 C 0.66874 0.63529 -0.00348
 C273 C 0.59390 0.67432 0.00378
 C274 C 0.57394 0.69287 0.00341
 C275 C 0.54973 0.71365 0.00306
 C276 C 0.52832 0.73054 0.00283
 H277 H 0.65306 0.68092 -0.00985
 H278 H 0.58592 0.61608 0.01839
 H279 H 0.62414 0.57606 0.01831
 H280 H 0.69178 0.64109 -0.00943
 C281 C 0.84101 -0.14479 0.50403
 C282 C 0.84788 -0.11476 0.49659
 C283 C 0.87752 -0.10683 0.48883
 C284 C 0.90024 -0.12876 0.48854
 C285 C 0.89364 -0.15901 0.49601
 C286 C 0.86375 -0.16680 0.50377
 C287 C 0.82483 -0.09180 0.49722
 C288 C 0.80630 -0.07182 0.49768
 C289 C 0.78558 -0.04757 0.49818
 C290 C 0.76875 -0.02612 0.49859
 H291 H 0.81812 -0.15117 0.51006
 H292 H 0.88312 -0.08363 0.48319
 H293 H 0.92309 -0.12191 0.48297
 H294 H 0.85790 -0.18994 0.50934
 C295 C 0.39195 0.37805 1.00886
 C296 C 0.38428 0.34872 0.99996
 C297 C 0.35447 0.34212 0.99167
 C298 C 0.33243 0.36483 0.99220
 C299 C 0.33997 0.39442 1.00107
 C300 C 0.37000 0.40074 1.00942
 C301 C 0.40727 0.32571 0.99910
 C302 C 0.42727 0.30720 0.99855
 C303 C 0.45153 0.28648 0.99812
 C304 C 0.47296 0.26962 0.99795
 H305 H 0.41498 0.38344 1.01518
 H306 H 0.34828 0.31947 0.98477
 H307 H 0.30946 0.35919 0.98593
 H308 H 0.37667 0.42337 1.01586
 C309 C 0.87798 0.10789 0.50987
 C310 C 0.84844 0.11595 0.50193
 C311 C 0.84177 0.14600 0.49444
 C312 C 0.86461 0.16791 0.49484
 C313 C 0.89440 0.15998 0.50278
 C314 C 0.90079 0.12970 0.51030
 C315 C 0.82529 0.09310 0.50119
 C316 C 0.80666 0.07321 0.50064
 C317 C 0.78582 0.04907 0.50008
 C318 C 0.76888 0.02770 0.49963
 H319 H 0.88343 0.08466 0.51556
 H320 H 0.81897 0.15249 0.48827
 H321 H 0.85892 0.19108 0.48923
 H322 H 0.92356 0.12276 0.51601
 C323 C 0.35582 0.65836 0.00774
 C324 C 0.38578 0.65153 0.00016
 C325 C 0.39356 0.62204 -0.00809
 C326 C 0.37155 0.59941 -0.00876
 C327 C 0.34136 0.60596 -0.00117
 C328 C 0.33372 0.63571 0.00711
 C329 C 0.40881 0.67451 0.00106
 C330 C 0.42882 0.69300 0.00165
 C331 C 0.45307 0.71372 0.00217
 C332 C 0.47451 0.73057 0.00246
 H333 H 0.34955 0.68113 0.01414
 H334 H 0.41672 0.61647 -0.01386
 H335 H 0.37828 0.57666 -0.01472
 H336 H 0.31062 0.64152 0.01278
 C337 C 0.12162 -0.10791 0.51030
 C338 C 0.15117 -0.11560 0.50207
 C339 C 0.15794 -0.14538 0.49385
 C340 C 0.13518 -0.16738 0.49379
 C341 C 0.10536 -0.15981 0.50199
 C342 C 0.09887 -0.12981 0.51027
 C343 C 0.17423 -0.09264 0.50174
 C344 C 0.19278 -0.07267 0.50154
 C345 C 0.21355 -0.04845 0.50136
 C346 C 0.23044 -0.02704 0.50125
 H347 H 0.11609 -0.08490 0.51655
 H348 H 0.18076 -0.15158 0.48745
 H349 H 0.14094 -0.19033 0.48759
 H350 H 0.07608 -0.12313 0.51620
 C351 C 0.64560 0.34134 1.00506
 C352 C 0.61579 0.34838 0.99710
 C353 C 0.60822 0.37805 0.98902
 C354 C 0.63029 0.40063 0.98894
 C355 C 0.66032 0.39388 0.99696
 C356 C 0.66776 0.36395 1.00501
 C357 C 0.59268 0.32547 0.99753
 C358 C 0.57260 0.30703 0.99778
 C359 C 0.54829 0.28638 0.99797
 C360 C 0.52681 0.26957 0.99803
 H361 H 0.65171 0.31844 1.01133
 H362 H 0.58518 0.38378 0.98297
 H363 H 0.62371 0.42351 0.98313
 H364 H 0.69073 0.35798 1.01100
 C365 C 0.48966 0.12178 1.10601
 C366 C 0.49777 0.15133 1.11374
 C367 C 0.50544 0.15811 1.14368
 C368 C 0.50508 0.13536 1.16580
 C369 C 0.49701 0.10555 1.15821
 C370 C 0.48928 0.09905 1.12804
 C371 C 0.49849 0.17441 1.09068
 C372 C 0.49899 0.19301 1.07067
 C373 C 0.49944 0.21387 1.04641
 C374 C 0.49971 0.23083 1.02496
 H375 H 0.48383 0.11626 1.08287
 H376 H 0.51172 0.18092 1.14991
 H377 H 0.51084 0.14113 1.18888
 H378 H 0.48344 0.07626 1.12135
 C379 C 0.00523 0.64492 0.65621
 C380 C -0.00279 0.61506 0.64957
 C381 C -0.01137 0.60738 0.62012
 C382 C -0.01181 0.62938 0.59734
 C383 C -0.00366 0.65945 0.60369
 C384 C 0.00482 0.66700 0.63342
 C385 C -0.00187 0.59205 0.67270
 C386 C -0.00115 0.57215 0.69141
 C387 C -0.00039 0.54811 0.71251
 C388 C 0.00015 0.52692 0.72978
 H389 H 0.01187 0.65112 0.67895
 H390 H -0.01749 0.58431 0.61470
 H391 H -0.01796 0.62272 0.57461
 H392 H 0.01090 0.69000 0.63909
 C393 C 0.52829 0.85944 -0.12518
 C394 C 0.50127 0.84588 -0.11578
 C395 C 0.47390 0.85468 -0.12901
 C396 C 0.47349 0.87725 -0.15127
 C397 C 0.50050 0.89136 -0.16056
 C398 C 0.52795 0.88200 -0.14744
 C399 C 0.50147 0.82389 -0.09167
 C400 C 0.50159 0.80604 -0.07097
 C401 C 0.50165 0.78585 -0.04615
 C402 C 0.50161 0.76924 -0.02443
 H403 H 0.54959 0.85294 -0.11495
 H404 H 0.45284 0.84434 -0.12189
 H405 H 0.45206 0.88369 -0.16120
 H406 H 0.54906 0.89269 -0.15379
 C407 C 1.01390 0.35731 0.34584
 C408 C 0.99901 0.38482 0.34998
 C409 C 0.98350 0.39021 0.37696
 C410 C 0.98298 0.36833 0.39985
 C411 C 0.99813 0.34035 0.39636
 C412 C 1.01351 0.33530 0.36868
 C413 C 1.00003 0.40792 0.32695
 C414 C 1.00070 0.42789 0.30830
 C415 C 1.00124 0.45201 0.28729
 C416 C 1.00145 0.47326 0.27008
 H417 H 1.02583 0.35280 0.32490
 H418 H 0.97211 0.41160 0.38053
 H419 H 0.97178 0.37434 0.42073
 H420 H 1.02456 0.31405 0.36391
 C421 C 0.52855 0.86015 0.12817
 C422 C 0.50154 0.84608 0.11998
 C423 C 0.47455 0.85455 0.13402
 C424 C 0.47443 0.87735 0.15584
 C425 C 0.50143 0.89245 0.16404
 C426 C 0.52858 0.88300 0.14992
 C427 C 0.50136 0.82392 0.09622
 C428 C 0.50126 0.80598 0.07575
 C429 C 0.50122 0.78575 0.05114
 C430 C 0.50126 0.76915 0.02955
 H431 H 0.54965 0.85360 0.11757
 H432 H 0.45342 0.84396 0.12762
 H433 H 0.45271 0.88397 0.16486
 H434 H 0.55024 0.89251 0.15602
 C435 C -0.02648 0.37274 0.64170
 C436 C 0.00059 0.38157 0.65543
 C437 C 0.02781 0.36795 0.64681
 C438 C 0.02805 0.34590 0.62422
 C439 C 0.00101 0.33721 0.60992
 C440 C -0.02630 0.35069 0.61912
 C441 C 0.00057 0.40560 0.67730
 C442 C 0.00054 0.42630 0.69497
 C443 C 0.00051 0.45120 0.71483
 C444 C 0.00053 0.47306 0.73106
 H445 H -0.04765 0.38329 0.64805
 H446 H 0.04891 0.37465 0.65727
 H447 H 0.04937 0.33568 0.61790
 H448 H -0.04743 0.34483 0.60828
 C449 C 0.51088 0.12202 0.89116
 C450 C 0.50198 0.15133 0.88315
 C451 C 0.49347 0.15771 0.85328
 C452 C 0.49376 0.13479 0.83153
 C453 C 0.50261 0.10520 0.83942
 C454 C 0.51120 0.09912 0.86949
 C455 C 0.50123 0.17454 0.90587
 C456 C 0.50072 0.19320 0.92567
 C457 C 0.50026 0.21406 0.94975
 C458 C 0.50000 0.23097 0.97109
 H459 H 0.51736 0.11680 0.91424
 H460 H 0.48656 0.18034 0.84684
 H461 H 0.48732 0.14025 0.80852
 H462 H 0.51763 0.07650 0.87643
 C463 C 1.02796 0.63225 0.35333
 C464 C 1.00079 0.61868 0.34456
 C465 C 0.97361 0.62762 0.35808
 C466 C 0.97363 0.64975 0.38058
 C467 C 1.00089 0.66320 0.38993
 C468 C 1.02804 0.65438 0.37585
 C469 C 1.00091 0.59460 0.32274
 C470 C 1.00097 0.57388 0.30510
 C471 C 1.00105 0.54898 0.28523
 C472 C 1.00115 0.52714 0.26898
 H473 H 1.04914 0.62547 0.34304
 H474 H 0.95247 0.61712 0.35161
 H475 H 0.95241 0.65571 0.39126
 H476 H 1.04933 0.66457 0.38228
 C477 C 1.14420 0.48705 0.15531
 C478 C 1.11679 0.50220 0.15130
 C479 C 1.11135 0.51788 0.12437
 C480 C 1.13306 0.51831 0.10139
 C481 C 1.16094 0.50291 0.10474
 C482 C 1.16604 0.48735 0.13237
 C483 C 1.09380 0.50122 0.17438
 C484 C 1.07385 0.50058 0.19298
 C485 C 1.04966 0.50007 0.21384
 C486 C 1.02826 0.49985 0.23079
 H487 H 1.14874 0.47497 0.17621
 H488 H 1.09004 0.52946 0.12090
 H489 H 1.12699 0.52965 0.08055
 H490 H 1.18723 0.47610 0.13703
 C491 C 0.62116 -0.01051 0.60686
 C492 C 0.65066 -0.00222 0.61462
 C493 C 0.65738 0.00567 0.64451
 C494 C 0.63462 0.00536 0.66655
 C495 C 0.60486 -0.00290 0.65893
 C496 C 0.59842 -0.01086 0.62881
 C497 C 0.67373 -0.00147 0.59163
 C498 C 0.69232 -0.00090 0.57166
 C499 C 0.71315 -0.00027 0.54745
 C500 C 0.73008 0.00024 0.52603
 H501 H 0.61568 -0.01652 0.58375
 H502 H 0.68016 0.01211 0.65077
 H503 H 0.64035 0.01129 0.68959
 H504 H 0.57566 -0.01684 0.62209
 C505 C -0.10666 0.51061 0.87880
 C506 C -0.11435 0.50252 0.84922
 C507 C -0.14425 0.49475 0.84238
 C508 C -0.16634 0.49497 0.86508
 C509 C -0.15877 0.50301 0.89493
 C510 C -0.12867 0.51087 0.90150
 C511 C -0.09132 0.50186 0.82619
 C512 C -0.07136 0.50138 0.80760
 C513 C -0.04724 0.50091 0.78667
 C514 C -0.02598 0.50061 0.76955
 H515 H -0.08356 0.51653 0.88439
 H516 H -0.15045 0.48847 0.81954
 H517 H -0.18937 0.48911 0.85926
 H518 H -0.12199 0.51667 0.92431
 C519 C 0.35484 -0.02739 0.36979
 C520 C 0.34573 -0.00014 0.38296
 C521 C 0.35896 0.02707 0.37354
 C522 C 0.38151 0.02702 0.35134
 C523 C 0.39118 -0.00031 0.33829
 C524 C 0.37740 -0.02750 0.34759
 C525 C 0.32378 -0.00021 0.40704
 C526 C 0.30596 -0.00024 0.42770
 C527 C 0.28580 -0.00026 0.45248
 C528 C 0.26919 -0.00023 0.47416
 H529 H 0.34476 -0.04859 0.37693
 H530 H 0.35221 0.04827 0.38372
 H531 H 0.39195 0.04827 0.34499
 H532 H 0.38409 -0.04885 0.33772
 C533 C 0.12786 0.52831 0.85862
 C534 C 0.11909 0.50127 0.84486
 C535 C 0.13268 0.47403 0.85360
 C536 C 0.15465 0.47375 0.87633
 C537 C 0.16329 0.50077 0.89066
 C538 C 0.14984 0.52810 0.88134
 C539 C 0.09514 0.50129 0.82284
 C540 C 0.07451 0.50125 0.80504
 C541 C 0.04968 0.50109 0.78500
 C542 C 0.02788 0.50084 0.76863
 H543 H 0.11734 0.54950 0.85218
 H544 H 0.12603 0.45295 0.84312
 H545 H 0.16485 0.45241 0.88274
 H546 H 0.15567 0.54921 0.89220
 C547 C 0.65735 -0.00436 0.35396
 C548 C 0.65078 0.00402 0.38377
 C549 C 0.62136 0.01264 0.39157
 C550 C 0.59854 0.01278 0.36975
 C551 C 0.60483 0.00427 0.33973
 C552 C 0.63452 -0.00425 0.33205
 C553 C 0.67388 0.00333 0.40667
 C554 C 0.69247 0.00276 0.42659
 C555 C 0.71327 0.00209 0.45077
 C556 C 0.73016 0.00153 0.47217
 H557 H 0.68006 -0.01106 0.34768
 H558 H 0.61599 0.01901 0.41461
 H559 H 0.57585 0.01897 0.37652
 H560 H 0.64013 -0.01061 0.30908
 C561 C 0.89311 0.48801 0.12260
 C562 C 0.88550 0.49642 0.15213
 C563 C 0.85564 0.50430 0.15906
 C564 C 0.83349 0.50391 0.13647
 C565 C 0.84098 0.49560 0.10665
 C566 C 0.87105 0.48760 0.10002
 C567 C 0.90862 0.49735 0.17500
 C568 C 0.92869 0.49807 0.19342
 C569 C 0.95299 0.49882 0.21406
 C570 C 0.97444 0.49937 0.23087
 H571 H 0.91618 0.48202 0.11695
 H572 H 0.84950 0.51082 0.18187
 H573 H 0.81049 0.50989 0.14235
 H574 H 0.87767 0.48159 0.07722
 C575 C 0.35917 -0.02760 0.62810
 C576 C 0.34549 -0.00045 0.61923
 C577 C 0.35422 0.02671 0.63280
 C578 C 0.37688 0.02680 0.65485
 C579 C 0.39113 -0.00032 0.66358
 C580 C 0.38182 -0.02757 0.65015
 C581 C 0.32350 -0.00033 0.59524
 C582 C 0.30569 -0.00025 0.57461
 C583 C 0.28558 -0.00019 0.54984
 C584 C 0.26905 -0.00016 0.52815
 H585 H 0.35272 -0.04873 0.61760
 H586 H 0.34379 0.04786 0.62608
 H587 H 0.38329 0.04808 0.66503
 H588 H 0.39262 -0.04875 0.65605
   
