data_POSCAR
  _audit_creation_date              2014-09-24
  _audit_creation_method            'ToBaCCo'
  _symmetry_space_group_name_H-M    'P1'
  _symmetry_Int_Tables_number       1
  _symmetry_cell_setting            triclinic
  loop_
  _symmetry_equiv_pos_as_xyz
 x,y,z
_cell_length_a 29.5715
_cell_length_b 29.7216
_cell_length_c 29.4081
_cell_angle_alpha 89.998100
_cell_angle_beta 90.749600
_cell_angle_gamma 91.135200
loop_
  _atom_site_label
  _atom_site_type_symbol
  _atom_site_fract_x
  _atom_site_fract_y
  _atom_site_fract_z
C1 C 0.25193 0.50000 0.99590
 C2 C 0.74855 0.49935 0.00403
 C3 C -0.00126 0.25085 0.50067
 C4 C 1.00095 0.74928 0.49990
 C5 C 0.49950 0.00006 0.25061
 C6 C 0.50017 0.00020 0.74918
 C7 C 0.30813 0.04312 0.43307
 H8 H 0.30485 0.07346 0.45294
 C9 C 0.33706 0.04302 0.39597
 H10 H 0.35482 0.07393 0.38715
 C11 C 0.28987 -0.03385 0.42135
 H12 H 0.27248 -0.06426 0.43189
 C13 C 0.31939 -0.03576 0.38479
 H14 H 0.32227 -0.06738 0.36712
 N15 N 0.28490 0.00512 0.44493
 C16 C 0.18166 0.05934 0.53428
 H17 H 0.18185 0.03311 0.55979
 C18 C 0.15212 0.09507 0.53824
 H19 H 0.12881 0.09445 0.56623
 C20 C 0.20861 0.08815 0.46454
 H21 H 0.22893 0.08440 0.43466
 C22 C 0.17994 0.12494 0.46747
 H23 H 0.17865 0.14868 0.43960
 Zn24 Zn 0.24794 0.00577 0.49749
 N25 N 0.20961 0.05664 0.49817
 C26 C 0.28529 0.03717 0.58318
 N27 N 0.28662 0.00601 0.54931
 C28 C 0.31679 -0.02776 0.55062
 C29 C 0.34720 -0.03132 0.58688
 C30 C 0.31487 0.03449 0.62065
 C31 C 0.18871 -0.06004 0.46054
 C32 C 0.16164 -0.09892 0.45999
 C33 C 0.17956 -0.11026 0.53935
 C34 C 0.20817 -0.07224 0.53778
 N35 N 0.21138 -0.04741 0.49903
 H36 H 0.26190 0.06455 0.58099
 H37 H 0.31765 -0.05161 0.52288
 H38 H 0.37234 -0.05718 0.58537
 H39 H 0.31435 0.06052 0.64634
 H40 H 0.19199 -0.03997 0.43002
 H41 H 0.14476 -0.10853 0.42848
 H42 H 0.17724 -0.12871 0.57090
 H43 H 0.22676 -0.06187 0.56801
 C44 C 0.15152 0.12937 0.50510
 C45 C 0.34526 0.00253 0.37279
 C46 C 0.15403 -0.12306 0.50055
 C47 C 0.34604 -0.00061 0.62334
 C48 C 0.68447 0.02982 0.55476
 H49 H 0.68556 0.05516 0.52836
 C50 C 0.65408 0.03372 0.59029
 H51 H 0.63110 0.06153 0.58937
 C52 C 0.70987 -0.03947 0.58401
 H53 H 0.72974 -0.06922 0.58038
 C54 C 0.68034 -0.03656 0.62067
 H55 H 0.67816 -0.06422 0.64454
 N56 N 0.71224 -0.00591 0.55251
 C57 C 0.82052 0.04901 0.46868
 H58 H 0.82235 0.02191 0.44425
 C59 C 0.84973 0.08618 0.46534
 H60 H 0.87506 0.08589 0.43917
 C61 C 0.78763 0.07933 0.53458
 H62 H 0.76414 0.07606 0.56224
 C63 C 0.81594 0.11763 0.53212
 H64 H 0.81442 0.14279 0.55862
 Zn65 Zn 0.75175 -0.00595 0.50178
 N66 N 0.79015 0.04616 0.50279
 C67 C 0.71208 0.03439 0.42373
 N68 N 0.71559 -0.00427 0.44817
 C69 C 0.69241 -0.04224 0.43559
 C70 C 0.66395 -0.04213 0.39748
 C71 C 0.68242 0.03650 0.38639
 C72 C 0.80920 -0.07190 0.53960
 C73 C 0.83646 -0.10968 0.53944
 C74 C 0.82248 -0.11745 0.45888
 C75 C 0.79407 -0.08051 0.46093
 N76 N 0.78819 -0.05822 0.50080
 H77 H 0.73102 0.06421 0.43410
 H78 H 0.69591 -0.07266 0.45541
 H79 H 0.64617 -0.07301 0.38811
 H80 H 0.67993 0.06797 0.36829
 H81 H 0.80537 -0.05306 0.57071
 H82 H 0.85250 -0.11989 0.57099
 H83 H 0.82639 -0.13379 0.42644
 H84 H 0.77814 -0.06873 0.43004
 C85 C 0.84718 0.12196 0.49664
 C86 C 0.65243 0.00091 0.62489
 C87 C 0.84590 -0.13152 0.49816
 C88 C 0.65599 -0.00161 0.37406
 C89 C 0.45648 0.18857 1.06320
 H90 H 0.42661 0.19115 1.04182
 C91 C 0.45583 0.16041 1.10111
 H92 H 0.42478 0.14230 1.10888
 C93 C 0.53275 0.20932 1.07882
 H94 H 0.56303 0.22795 1.06980
 C95 C 0.53402 0.18041 1.11618
 H96 H 0.56506 0.17865 1.13581
 N97 N 0.49457 0.21242 1.05274
 C98 C 0.43776 0.31111 0.95859
 H99 H 0.46184 0.30884 0.93135
 C100 C 0.40145 0.34015 0.95444
 H101 H 0.39775 0.35906 0.92325
 C102 C 0.41350 0.28816 1.03144
 H103 H 0.41860 0.26867 1.06195
 C104 C 0.37706 0.31729 1.02897
 H105 H 0.35415 0.31835 1.05729
 Zn106 Zn 0.49502 0.24886 0.99975
 N107 N 0.44334 0.28593 0.99673
 C108 C 0.46429 0.21034 0.91490
 N109 N 0.49684 0.21072 0.94809
 C110 C 0.53223 0.18242 0.94636
 C111 C 0.53635 0.15277 0.91002
 C112 C 0.46739 0.18153 0.87753
 C113 C 0.55297 0.31256 1.03977
 C114 C 0.59041 0.34147 1.04430
 C115 C 0.61590 0.31673 0.97103
 C116 C 0.57839 0.28741 0.96835
 N117 N 0.54732 0.28663 1.00204
 H118 H 0.43516 0.23138 0.91773
 H119 H 0.55695 0.18243 0.97381
 H120 H 0.56362 0.12911 0.91125
 H121 H 0.44024 0.18064 0.85250
 H122 H 0.52833 0.31048 1.06661
 H123 H 0.59426 0.36070 1.07534
 H124 H 0.63975 0.31710 0.94345
 H125 H 0.57367 0.26614 0.93882
 C126 C 0.37197 0.34590 0.99115
 C127 C 0.49586 0.15355 1.12655
 C128 C 0.62111 0.34630 1.00828
 C129 C 0.50421 0.15256 0.87418
 C130 C 0.46868 0.81659 -0.05498
 H131 H 0.44314 0.81545 -0.02898
 C132 C 0.46455 0.84639 -0.09131
 H133 H 0.43643 0.86903 -0.09125
 C134 C 0.53847 0.79136 -0.08277
 H135 H 0.56829 0.77141 -0.07842
 C136 C 0.53534 0.82030 -0.12019
 H137 H 0.56305 0.82229 -0.14384
 N138 N 0.50496 0.78951 -0.05144
 C139 C 0.44375 0.68923 0.03730
 H140 H 0.46592 0.69249 0.06672
 C141 C 0.40569 0.66086 0.03900
 H142 H 0.39898 0.64276 0.07020
 C143 C 0.42522 0.71048 -0.03809
 H144 H 0.43280 0.73012 -0.06805
 C145 C 0.38746 0.68136 -0.03833
 H146 H 0.36631 0.67992 -0.06854
 Zn147 Zn 0.50552 0.75094 0.00018
 N148 N 0.45303 0.71311 -0.00095
 C149 C 0.46454 0.79236 0.07558
 N150 N 0.50419 0.78736 0.05332
 C151 C 0.54255 0.80918 0.06769
 C152 C 0.54201 0.83697 0.10590
 C153 C 0.46218 0.82097 0.11309
 C154 C 0.56706 0.69106 -0.03806
 C155 C 0.60396 0.66253 -0.03931
 C156 C 0.62003 0.68032 0.03926
 C157 C 0.58338 0.70926 0.03874
 N158 N 0.55744 0.71390 0.00054
 H159 H 0.43411 0.77543 0.06337
 H160 H 0.57361 0.80532 0.04920
 H161 H 0.57313 0.85387 0.11662
 H162 H 0.42996 0.82406 0.12948
 H163 H 0.54568 0.69460 -0.06791
 H164 H 0.61081 0.64499 -0.07066
 H165 H 0.63973 0.67781 0.07029
 H166 H 0.57487 0.72663 0.06958
 C167 C 0.37840 0.65412 -0.00014
 C168 C 0.49762 0.84800 -0.12542
 C169 C 0.62957 0.65451 0.00051
 C170 C 0.50086 0.84557 0.12763
 C171 C 1.05865 0.46470 0.17930
 H172 H 1.03065 0.44075 0.17743
 C173 C 1.09418 0.46165 0.14882
 H174 H 1.09193 0.43590 0.12288
 C175 C 1.09206 0.53010 0.21225
 H176 H 1.09036 0.55800 0.23553
 C177 C 1.12868 0.52796 0.18273
 H178 H 1.15419 0.55457 0.18370
 N179 N 1.05824 0.49831 0.21051
 C180 C 0.97496 0.44915 0.32197
 H181 H 0.95356 0.47796 0.32599
 C182 C 0.97159 0.41315 0.35219
 H183 H 0.94827 0.41547 0.38011
 C184 C 1.03362 0.41339 0.28271
 H185 H 1.05857 0.41403 0.25624
 C186 C 1.03107 0.37627 0.31205
 H187 H 1.05488 0.34947 0.30807
 Zn188 Zn 1.00702 0.50000 0.24914
 N189 N 1.00549 0.44873 0.28793
 C190 C 0.91816 0.47165 0.21903
 N191 N 0.95388 0.50042 0.21237
 C192 C 0.95337 0.53106 0.17821
 C193 C 0.91614 0.53354 0.14892
 C194 C 0.87974 0.47337 0.19072
 C195 C 1.04556 0.56092 0.31265
 C196 C 1.04732 0.59833 0.34126
 C197 C 0.97306 0.61846 0.31443
 C198 C 0.97347 0.58157 0.28490
 N199 N 1.00889 0.55298 0.28538
 H200 H 0.91953 0.44686 0.24584
 H201 H 0.98248 0.55304 0.17322
 H202 H 0.91796 0.55669 0.12059
 H203 H 0.85257 0.44905 0.19562
 H204 H 1.07343 0.53788 0.31243
 H205 H 1.07759 0.60412 0.36162
 H206 H 0.94398 0.63995 0.31396
 H207 H 0.94465 0.57499 0.26278
 C208 C 0.99923 0.37541 0.34717
 C209 C 1.13063 0.49296 0.15074
 C210 C 1.00935 0.62603 0.34510
 C211 C 0.87803 0.50507 0.15526
 C212 C -0.05968 0.46446 0.82054
 H213 H -0.03271 0.44042 0.82210
 C214 C -0.09552 0.46095 0.85076
 H215 H -0.09452 0.43475 0.87623
 C216 C -0.09009 0.53058 0.78873
 H217 H -0.08700 0.55899 0.76615
 C218 C -0.12691 0.52803 0.81801
 H219 H -0.15118 0.55481 0.81751
 N220 N -0.05771 0.49861 0.78993
 C221 C 0.02372 0.45105 0.67803
 H222 H 0.04551 0.48041 0.67393
 C223 C 0.02642 0.41517 0.64777
 H224 H 0.04960 0.41815 0.61970
 C225 C -0.03517 0.41369 0.71764
 H226 H -0.05995 0.41363 0.74425
 C227 C -0.03320 0.37660 0.68832
 H228 H -0.05725 0.34909 0.69248
 Zn229 Zn -0.00657 0.50086 0.75123
 N230 N -0.00657 0.44975 0.71229
 C231 C 0.08115 0.47281 0.78126
 N232 N 0.04669 0.50175 0.78777
 C233 C 0.04864 0.53276 0.82160
 C234 C 0.08608 0.53543 0.85073
 C235 C 0.11970 0.47467 0.80944
 C236 C -0.04398 0.56173 0.68860
 C237 C -0.04503 0.59933 0.66033
 C238 C 0.03061 0.61946 0.68549
 C239 C 0.02942 0.58250 0.71494
 N240 N -0.00708 0.55384 0.71511
 H241 H 0.07859 0.44774 0.75472
 H242 H 0.02048 0.55488 0.82647
 H243 H 0.08535 0.55886 0.87886
 H244 H 0.14575 0.45014 0.80475
 H245 H -0.07264 0.53855 0.68922
 H246 H -0.07540 0.60507 0.64043
 H247 H 0.06050 0.64098 0.68547
 H248 H 0.05844 0.57591 0.73644
 C249 C -0.00153 0.37660 0.65306
 C250 C -0.13057 0.49245 0.84926
 C251 C -0.00611 0.62710 0.65575
 C252 C 0.12290 0.50671 0.84460
 C253 C 0.04426 0.21915 0.50144
 C254 C 0.03933 0.17482 0.47336
 C255 C 0.07455 0.14674 0.47591
 C256 C 0.11424 0.16413 0.50465
 C257 C 0.12555 0.21086 0.48465
 C258 C 0.08953 0.23927 0.48289
 C259 C 0.05895 0.20277 0.54961
 C260 C 0.09458 0.17490 0.55116
 H261 H 0.01257 0.16646 0.44965
 H262 H 0.07533 0.11593 0.45606
 H263 H 0.15914 0.22129 0.47395
 H264 H 0.09402 0.27315 0.47024
 H265 H 0.04430 0.21330 0.58115
 H266 H 0.10943 0.16475 0.58339
 C267 C 0.71706 0.54491 0.00243
 C268 C 0.70176 0.56166 0.04986
 C269 C 0.67343 0.59689 0.04966
 C270 C 0.66240 0.61526 0.00218
 C271 C 0.70878 0.62487 -0.01912
 C272 C 0.73705 0.58883 -0.01897
 C273 C 0.67173 0.53907 -0.02471
 C274 C 0.64362 0.57419 -0.02353
 H275 H 0.71066 0.54649 0.08195
 H276 H 0.65886 0.60845 0.08105
 H277 H 0.71879 0.65744 -0.03276
 H278 H 0.77064 0.59231 -0.03266
 H279 H 0.66168 0.51099 -0.04563
 H280 H 0.61092 0.57266 -0.04073
 C281 C 0.95504 -0.21964 0.49869
 C282 C 0.96012 -0.17542 0.52681
 C283 C 0.92526 -0.14720 0.52430
 C284 C 0.88478 -0.16477 0.49650
 C285 C 0.90468 -0.17461 0.44964
 C286 C 0.94001 -0.20314 0.45068
 C287 C 0.90992 -0.24001 0.51719
 C288 C 0.87401 -0.21152 0.51639
 H289 H 0.98751 -0.16629 0.54939
 H290 H 0.92644 -0.11520 0.54214
 H291 H 0.89354 -0.15991 0.41784
 H292 H 0.95614 -0.21192 0.41927
 H293 H 0.90535 -0.27416 0.52903
 H294 H 0.84058 -0.22186 0.52764
 C295 C 0.28377 0.45482 0.99345
 C296 C 0.26320 0.41058 0.97273
 C297 C 0.29182 0.37485 0.97211
 C298 C 0.33920 0.38517 0.99199
 C299 C 0.35611 0.42631 0.96550
 C300 C 0.32752 0.46110 0.96503
 C301 C 0.30178 0.43850 1.04048
 C302 C 0.33062 0.40378 1.03958
 H303 H 0.22903 0.40673 0.95971
 H304 H 0.28156 0.34213 0.95874
 H305 H 0.38818 0.42875 0.94812
 H306 H 0.33630 0.48953 0.94427
 H307 H 0.29426 0.45349 1.07279
 H308 H 0.34704 0.39221 1.07050
 C309 C 0.95337 0.21716 0.50019
 C310 C 0.90795 0.23534 0.51857
 C311 C 0.87212 0.20520 0.51709
 C312 C 0.88382 0.15884 0.49743
 C313 C 0.90340 0.17023 0.45086
 C314 C 0.93880 0.19977 0.45216
 C315 C 0.95859 0.17330 0.52866
 C316 C 0.92360 0.14355 0.52634
 H317 H 0.90324 0.26915 0.53082
 H318 H 0.83845 0.21424 0.52754
 H319 H 0.88874 0.15879 0.41877
 H320 H 0.95342 0.21066 0.42054
 H321 H 0.98529 0.16646 0.55259
 H322 H 0.92296 0.11297 0.54658
 C323 C 0.28560 0.54529 -0.00239
 C324 C 0.26774 0.58930 0.01917
 C325 C 0.29776 0.62508 0.01949
 C326 C 0.34368 0.61515 -0.00182
 C327 C 0.36043 0.57378 0.02368
 C328 C 0.33060 0.53897 0.02474
 C329 C 0.30177 0.56209 -0.04976
 C330 C 0.33182 0.59710 -0.04937
 H331 H 0.23429 0.59300 0.03283
 H332 H 0.28934 0.65770 0.03325
 H333 H 0.39317 0.57164 0.04057
 H334 H 0.33936 0.51070 0.04544
 H335 H 0.29205 0.54722 -0.08194
 H336 H 0.34688 0.60899 -0.08065
 C337 C 0.04629 -0.21706 0.50080
 C338 C 0.04042 -0.17347 0.47221
 C339 C 0.07472 -0.14325 0.47441
 C340 C 0.11557 -0.15827 0.50230
 C341 C 0.09591 -0.16864 0.54928
 C342 C 0.06106 -0.19916 0.54863
 C343 C 0.09171 -0.23508 0.48249
 C344 C 0.12711 -0.20459 0.48292
 H345 H 0.01275 -0.16598 0.44976
 H346 H 0.07258 -0.11129 0.45671
 H347 H 0.10700 -0.15278 0.58077
 H348 H 0.04509 -0.20848 0.58016
 H349 H 0.09687 -0.26907 0.47102
 H350 H 0.16069 -0.21317 0.47175
 C351 C 0.71456 0.45443 1.00628
 C352 C 0.73301 0.40999 1.02686
 C353 C 0.70265 0.37450 1.02741
 C354 C 0.65575 0.38528 1.00761
 C355 C 0.64089 0.42655 1.03419
 C356 C 0.67117 0.46103 1.03475
 C357 C 0.69570 0.43834 0.95921
 C358 C 0.66520 0.40383 0.96006
 H359 H 0.76701 0.40583 1.03981
 H360 H 0.71134 0.34167 1.04067
 H361 H 0.60885 0.42949 1.05135
 H362 H 0.66371 0.48951 1.05551
 H363 H 0.70408 0.45319 0.92690
 H364 H 0.64843 0.39206 0.92914
 C365 C 0.49888 0.04521 1.21770
 C366 C 0.47036 0.03887 1.17321
 C367 C 0.47131 0.07352 1.14384
 C368 C 0.49825 0.11474 1.16056
 C369 C 0.47905 0.12509 1.20756
 C370 C 0.47961 0.08957 1.23719
 C371 C 0.54594 0.06147 1.20033
 C372 C 0.54551 0.09640 1.17061
 H373 H 0.44918 0.01043 1.16439
 H374 H 0.45369 0.07125 1.11128
 H375 H 0.46705 0.15799 1.21717
 H376 H 0.46810 0.09394 1.27155
 H377 H 0.57773 0.04628 1.20909
 H378 H 0.57641 0.10813 1.15470
 C379 C -0.00065 0.71712 0.54590
 C380 C 0.04612 0.70121 0.56398
 C381 C 0.04486 0.67190 0.59945
 C382 C -0.00293 0.66081 0.61645
 C383 C -0.02336 0.70689 0.62601
 C384 C -0.02193 0.73611 0.58999
 C385 C -0.02818 0.67245 0.53893
 C386 C -0.02791 0.64351 0.57400
 H387 H 0.07834 0.71092 0.54973
 H388 H 0.07555 0.65726 0.61284
 H389 H -0.03673 0.71626 0.65880
 H390 H -0.03410 0.76987 0.59386
 H391 H -0.04827 0.66310 0.50975
 H392 H -0.04455 0.61075 0.57099
 C393 C 0.49996 0.95502 -0.21782
 C394 C 0.52832 0.96017 -0.17304
 C395 C 0.52625 0.92500 -0.14406
 C396 C 0.49760 0.88526 -0.16106
 C397 C 0.45116 0.90439 -0.17237
 C398 C 0.45228 0.93996 -0.20105
 C399 C 0.51835 0.91023 -0.23734
 C400 C 0.51702 0.87432 -0.20802
 H401 H 0.55169 0.98718 -0.16492
 H402 H 0.54622 0.92439 -0.11280
 H403 H 0.41923 0.88925 -0.16207
 H404 H 0.42073 0.95429 -0.21186
 H405 H 0.53057 0.90597 -0.27147
 H406 H 0.52768 0.84104 -0.21795
 C407 C 0.99974 0.28337 0.45487
 C408 C 0.95246 0.29936 0.43836
 C409 C 0.95244 0.32785 0.40242
 C410 C 0.99943 0.33949 0.38423
 C411 C 1.02677 0.35659 0.42503
 C412 C 1.02775 0.32801 0.46067
 C413 C 1.01968 0.26423 0.41014
 C414 C 1.01941 0.29316 0.37376
 H415 H 0.92055 0.28859 0.45243
 H416 H 0.92118 0.33929 0.38695
 H417 H 1.04687 0.38758 0.42475
 H418 H 1.05039 0.33627 0.48837
 H419 H 1.03185 0.23047 0.40614
 H420 H 1.03055 0.28289 0.34041
 C421 C 0.49940 0.95453 0.21812
 C422 C 0.51918 0.91037 0.23806
 C423 C 0.51903 0.87455 0.20875
 C424 C 0.49861 0.88442 0.16161
 C425 C 0.45157 0.90276 0.17153
 C426 C 0.45192 0.93804 0.20085
 C427 C 0.52683 0.96041 0.17362
 C428 C 0.52513 0.92546 0.14458
 H429 H 0.53155 0.90638 0.27249
 H430 H 0.53127 0.84175 0.21870
 H431 H 0.42015 0.89086 0.15607
 H432 H 0.42032 0.95325 0.20945
 H433 H 0.54815 0.98857 0.16479
 H434 H 0.54254 0.92700 0.11232
 C435 C -0.00235 0.28366 0.54620
 C436 C -0.02221 0.26409 0.59111
 C437 C -0.02191 0.29335 0.62725
 C438 C -0.00195 0.34038 0.61632
 C439 C 0.04499 0.33044 0.59818
 C440 C 0.04493 0.30170 0.56249
 C441 C -0.03045 0.32709 0.54006
 C442 C -0.02939 0.35605 0.57543
 H443 H -0.03441 0.22990 0.59540
 H444 H -0.03306 0.28297 0.66069
 H445 H 0.07629 0.34316 0.61353
 H446 H 0.07685 0.29215 0.54851
 H447 H -0.05323 0.33412 0.51236
 H448 H -0.04956 0.38620 0.57552
 C449 C 0.50088 0.04539 0.78212
 C450 C 0.47310 0.04031 0.82655
 C451 C 0.47543 0.07560 0.85540
 C452 C 0.50382 0.11529 0.83866
 C453 C 0.55017 0.09619 0.82816
 C454 C 0.54877 0.06053 0.79952
 C455 C 0.48220 0.09010 0.76222
 C456 C 0.48387 0.12608 0.79139
 H457 H 0.44999 0.01323 0.83452
 H458 H 0.45588 0.07627 0.88642
 H459 H 0.58213 0.11124 0.83936
 H460 H 0.58018 0.04606 0.78929
 H461 H 0.46970 0.09433 0.72787
 H462 H 0.47333 0.15935 0.78104
 C463 C 1.00312 0.71676 0.45422
 C464 C 0.95663 0.69796 0.43644
 C465 C 0.95837 0.66832 0.40136
 C466 C 1.00626 0.65984 0.38425
 C467 C 1.02574 0.70700 0.37411
 C468 C 1.02392 0.73649 0.40986
 C469 C 1.03149 0.67377 0.46158
 C470 C 1.03174 0.64447 0.42680
 H471 H 0.92428 0.70603 0.45060
 H472 H 0.92795 0.65178 0.38811
 H473 H 1.03889 0.71678 0.34120
 H474 H 1.03553 0.77088 0.40563
 H475 H 1.05160 0.66582 0.49095
 H476 H 1.04874 0.61263 0.43033
 C477 C 1.22023 0.49870 0.04193
 C478 C 1.17625 0.52654 0.03830
 C479 C 1.14821 0.52351 0.07406
 C480 C 1.16540 0.49447 0.11293
 C481 C 1.17512 0.44878 0.09175
 C482 C 1.20288 0.45082 0.05559
 C483 C 1.24113 0.51647 0.08765
 C484 C 1.21284 0.51413 0.12423
 H485 H 1.16822 0.55036 0.01211
 H486 H 1.11768 0.54315 0.07588
 H487 H 1.16387 0.41675 0.10574
 H488 H 1.21241 0.41983 0.03969
 H489 H 1.27546 0.52896 0.09198
 H490 H 1.22390 0.52405 0.15815
 C491 C 0.54529 -0.00021 0.71642
 C492 C 0.53931 -0.02802 0.67176
 C493 C 0.57455 -0.02645 0.64303
 C494 C 0.61510 0.00121 0.66015
 C495 C 0.59680 0.04770 0.67103
 C496 C 0.56121 0.04707 0.69946
 C497 C 0.59006 -0.01949 0.73636
 C498 C 0.62599 -0.01862 0.70732
 H499 H 0.51161 -0.05061 0.66357
 H500 H 0.57462 -0.04608 0.61186
 H501 H 0.61248 0.07924 0.66047
 H502 H 0.54744 0.07865 0.70994
 H503 H 0.59432 -0.03196 0.77060
 H504 H 0.65927 -0.02986 0.71760
 C505 C -0.21985 0.49796 0.95803
 C506 C -0.17463 0.52556 0.96180
 C507 C -0.14674 0.52254 0.92603
 C508 C -0.16522 0.49374 0.88706
 C509 C -0.17695 0.44801 0.90803
 C510 C -0.20466 0.45004 0.94418
 C511 C -0.23996 0.51597 0.91239
 C512 C -0.21178 0.51363 0.87582
 H513 H -0.16550 0.54924 0.98808
 H514 H -0.11532 0.54203 0.92432
 H515 H -0.16712 0.41598 0.89389
 H516 H -0.21565 0.41905 0.95993
 H517 H -0.27373 0.52862 0.90808
 H518 H -0.22240 0.52369 0.84193
 C519 C 0.45424 0.00034 0.28312
 C520 C 0.40953 0.01943 0.26298
 C521 C 0.37385 0.01961 0.29213
 C522 C 0.38436 0.00027 0.33938
 C523 C 0.40303 -0.04660 0.32989
 C524 C 0.43817 -0.04665 0.30066
 C525 C 0.46054 0.02847 0.32749
 C526 C 0.42564 0.02723 0.35642
 H527 H 0.40501 0.03114 0.22852
 H528 H 0.34073 0.03147 0.28201
 H529 H 0.39158 -0.07752 0.34590
 H530 H 0.45371 -0.07812 0.29243
 H531 H 0.48910 0.04960 0.33642
 H532 H 0.42758 0.04485 0.38875
 C533 C 0.21812 0.50109 0.95064
 C534 C 0.20171 0.54885 0.93742
 C535 C 0.17222 0.55066 0.90194
 C536 C 0.15991 0.50489 0.88104
 C537 C 0.20609 0.48553 0.86856
 C538 C 0.23614 0.48345 0.90444
 C539 C 0.17343 0.47295 0.95536
 C540 C 0.14374 0.47574 0.92030
 H541 H 0.21289 0.57987 0.95331
 H542 H 0.16076 0.58253 0.88847
 H543 H 0.21530 0.47588 0.83439
 H544 H 0.26987 0.47134 0.89924
 H545 H 0.16593 0.44905 0.98170
 H546 H 0.11256 0.45578 0.91920
 C547 C 0.54544 0.00018 0.28339
 C548 C 0.53993 -0.02741 0.32801
 C549 C 0.57532 -0.02586 0.35719
 C550 C 0.61644 0.00069 0.34014
 C551 C 0.62596 -0.01925 0.29318
 C552 C 0.58971 -0.01926 0.26376
 C553 C 0.56202 0.04735 0.30053
 C554 C 0.59783 0.04752 0.32996
 H555 H 0.51159 -0.04845 0.33701
 H556 H 0.57384 -0.04302 0.38975
 H557 H 0.65886 -0.03128 0.28342
 H558 H 0.59349 -0.03132 0.22944
 H559 H 0.54650 0.07878 0.29173
 H560 H 0.61006 0.07859 0.34544
 C561 C 0.78242 0.50007 0.04931
 C562 C 0.82582 0.47169 0.04447
 C563 C 0.85568 0.47425 0.07951
 C564 C 0.84086 0.50338 0.11888
 C565 C 0.83057 0.54925 0.09815
 C566 C 0.80100 0.54769 0.06270
 C567 C 0.76364 0.48238 0.09547
 C568 C 0.79382 0.48420 0.13134
 H569 H 0.83217 0.44776 0.01809
 H570 H 0.88593 0.45410 0.08054
 H571 H 0.84349 0.58102 0.11171
 H572 H 0.79125 0.57882 0.04693
 H573 H 0.72937 0.47041 0.10063
 H574 H 0.78422 0.47447 0.16548
 C575 C 0.45447 0.00069 0.71602
 C576 C 0.43818 -0.04654 0.69889
 C577 C 0.40202 -0.04705 0.67023
 C578 C 0.38364 -0.00050 0.65924
 C579 C 0.37362 0.01934 0.70632
 C580 C 0.41008 0.02007 0.73562
 C581 C 0.45971 0.02848 0.67141
 C582 C 0.42392 0.02707 0.64245
 H583 H 0.45235 -0.07813 0.70919
 H584 H 0.38629 -0.07846 0.65891
 H585 H 0.34050 0.03033 0.71655
 H586 H 0.40636 0.03233 0.76989
 H587 H 0.48734 0.05096 0.66338
 H588 H 0.42330 0.04676 0.61132
   
