data_POSCAR
  _audit_creation_date              2014-09-24
  _audit_creation_method            'ToBaCCo'
  _symmetry_space_group_name_H-M    'P1'
  _symmetry_Int_Tables_number       1
  _symmetry_cell_setting            triclinic
  loop_
  _symmetry_equiv_pos_as_xyz
 x,y,z
_cell_length_a 56.4223
_cell_length_b 56.9048
_cell_length_c 42.0862
_cell_angle_alpha 89.997000
_cell_angle_beta 89.900500
_cell_angle_gamma 121.438300
loop_
  _atom_site_label
  _atom_site_type_symbol
  _atom_site_fract_x
  _atom_site_fract_y
  _atom_site_fract_z
C1 C 0.05496 0.51873 0.07247
 C2 C 0.05662 0.54362 0.07211
 C3 C 0.04288 0.54400 0.04500
 N4 N 0.03323 0.52027 0.02856
 C5 C 0.04062 0.50480 0.04534
 C6 C 0.04181 0.56700 0.03422
 C7 C 0.02540 0.56572 0.00819
 C8 C 0.02829 0.58830 -0.00802
 C9 C 0.00761 0.57828 -0.03050
 C10 C -0.00788 0.54988 -0.02680
 N11 N 0.00323 0.54244 -0.00328
 C12 C -0.03201 0.53136 -0.04423
 C13 C -0.04245 0.50271 -0.04361
 C14 C -0.06975 0.48240 -0.04995
 C15 C -0.07062 0.45793 -0.05032
 C16 C -0.04386 0.46408 -0.04411
 N17 N -0.02665 0.49146 -0.03952
 C18 C -0.03515 0.44486 -0.04554
 C19 C -0.01217 0.44899 -0.02731
 C20 C 0.00197 0.43521 -0.03121
 C21 C 0.02210 0.44484 -0.00806
 C22 C 0.02018 0.46470 0.00881
 N23 N -0.00077 0.46703 -0.00293
 C24 C 0.03701 0.47949 0.03495
 H25 H 0.06392 0.51197 0.09030
 H26 H 0.06729 0.55976 0.08955
 H27 H -0.00837 0.47863 0.00691
 H28 H 0.04369 0.60981 -0.00428
 H29 H 0.00450 0.59061 -0.04759
 H30 H -0.08714 0.48504 -0.05418
 H31 H -0.08879 0.43788 -0.05498
 H32 H 0.03686 0.43837 -0.00446
 H33 H -0.00551 0.52281 0.00649
 H34 H -0.00151 0.42006 -0.04904
 C35 C 0.45176 0.52445 0.04938
 C36 C 0.47726 0.54794 0.05275
 C37 C 0.49643 0.54278 0.03896
 N38 N 0.48341 0.51672 0.02759
 C39 C 0.45604 0.50553 0.03369
 C40 C 0.52557 0.56130 0.03946
 C41 C 0.54474 0.55612 0.02422
 C42 C 0.57331 0.57138 0.02863
 C43 C 0.58448 0.56052 0.00861
 C44 C 0.56247 0.53909 -0.00762
 N45 N 0.53840 0.53671 0.00180
 C46 C 0.56506 0.52345 -0.03183
 C47 C 0.54223 0.49928 -0.04458
 C48 C 0.54318 0.48684 -0.07242
 C49 C 0.51780 0.46315 -0.07544
 C50 C 0.50225 0.46158 -0.04902
 N51 N 0.51719 0.48388 -0.03027
 C52 C 0.47524 0.43905 -0.04189
 C53 C 0.45749 0.44144 -0.01985
 C54 C 0.43354 0.41947 -0.00672
 C55 C 0.42214 0.43043 0.01270
 C56 C 0.43974 0.45880 0.01165
 N57 N 0.46107 0.46537 -0.00847
 C58 C 0.43515 0.47772 0.02817
 H59 H 0.43241 0.52148 0.05839
 H60 H 0.48116 0.56642 0.06479
 H61 H 0.47577 0.48508 -0.01622
 H62 H 0.58501 0.58871 0.04438
 H63 H 0.60635 0.56782 0.00602
 H64 H 0.56038 0.49413 -0.08890
 H65 H 0.51153 0.44869 -0.09491
 H66 H 0.40322 0.41872 0.02636
 H67 H 0.51920 0.52452 -0.00897
 H68 H 0.42516 0.39771 -0.01043
 C69 C 0.56241 1.08039 -0.04313
 C70 C 0.53932 1.08230 -0.04036
 C71 C 0.51856 1.05752 -0.02768
 N72 N 0.52810 1.04032 -0.02318
 C73 C 0.55491 1.05420 -0.03289
 C74 C 0.49075 1.05037 -0.02302
 C75 C 0.47112 1.02698 -0.00561
 C76 C 0.44285 1.01690 -0.00453
 C77 C 0.43150 0.99532 0.01668
 C78 C 0.45315 0.99278 0.02801
 N79 N 0.47725 1.01241 0.01455
 C80 C 0.45054 0.97394 0.05178
 C81 C 0.47224 0.96951 0.06001
 C82 C 0.47147 0.95350 0.08533
 C83 C 0.49539 0.95292 0.08384
 C84 C 0.50983 0.96810 0.05730
 N85 N 0.49566 0.97822 0.04276
 C86 C 0.53420 0.97004 0.04529
 C87 C 0.54935 0.98681 0.01922
 C88 C 0.56789 0.98338 0.00121
 C89 C 0.57839 1.00370 -0.02154
 C90 C 0.56647 1.01945 -0.01638
 N91 N 0.54866 1.00887 0.00853
 C92 C 0.57234 1.04308 -0.03429
 H93 H 0.58244 1.09648 -0.05191
 H94 H 0.53809 1.09998 -0.04708
 H95 H 0.53854 1.01763 0.01947
 H96 H 0.43157 1.02457 -0.01719
 H97 H 0.40982 0.98333 0.02340
 H98 H 0.45526 0.94287 0.10288
 H99 H 0.50110 0.94192 0.10003
 H100 H 0.59292 1.00627 -0.04000
 H101 H 0.49711 1.01762 0.02127
 H102 H 0.57290 0.96754 0.00379
 C103 C 1.04231 0.54172 0.40883
 C104 C 1.04817 0.52133 0.41147
 C105 C 1.03844 0.50915 0.44095
 N106 N 1.02611 0.52103 0.45604
 C107 C 1.02831 0.54095 0.43637
 C108 C 1.04251 0.48851 0.45410
 C109 C 1.02658 0.47207 0.48028
 C110 C 1.03335 0.45644 0.49927
 C111 C 1.01250 0.44338 0.52146
 C112 C 0.99375 0.45163 0.51571
 N113 N 1.00235 0.46896 0.49050
 C114 C 0.96898 0.44255 0.53300
 C115 C 0.95397 0.45604 0.53166
 C116 C 0.92738 0.44547 0.54359
 C117 C 0.92179 0.46615 0.54149
 C118 C 0.94526 0.48874 0.52860
 N119 N 0.96485 0.48246 0.52245
 C120 C 0.94945 0.51538 0.52557
 C121 C 0.97158 0.53633 0.50753
 C122 C 0.97999 0.56396 0.50811
 C123 C 1.00017 0.57682 0.48516
 C124 C 1.00403 0.55678 0.47161
 N125 N 0.98636 0.53217 0.48529
 C126 C 1.02086 0.56046 0.44480
 H127 H 1.04841 0.55573 0.38896
 H128 H 1.05878 0.51635 0.39375
 H129 H 0.98214 0.51313 0.47706
 H130 H 1.05160 0.45484 0.49762
 H131 H 1.01146 0.42965 0.53995
 H132 H 0.91367 0.42512 0.55335
 H133 H 0.90283 0.46486 0.54916
 H134 H 1.01019 0.59834 0.47882
 H135 H 0.99110 0.47638 0.47928
 H136 H 0.97200 0.57382 0.52296
 C137 C 0.46271 0.54021 0.45811
 C138 C 0.43874 0.51482 0.45789
 C139 C 0.44564 0.49623 0.46904
 N140 N 0.47300 0.50940 0.47609
 C141 C 0.48349 0.53629 0.46932
 C142 C 0.42747 0.46734 0.46942
 C143 C 0.43336 0.44947 0.48621
 C144 C 0.41895 0.42106 0.48297
 C145 C 0.43050 0.41143 0.50418
 C146 C 0.45170 0.43424 0.51965
 N147 N 0.45312 0.45730 0.50879
 C148 C 0.46840 0.43327 0.54397
 C149 C 0.49356 0.45664 0.55423
 C150 C 0.50873 0.45706 0.58032
 C151 C 0.53281 0.48229 0.58040
 C152 C 0.53149 0.49677 0.55462
 N153 N 0.50753 0.48093 0.53852
 C154 C 0.55324 0.52313 0.54480
 C155 C 0.55030 0.53838 0.52026
 C156 C 0.57205 0.56140 0.50556
 C157 C 0.56039 0.57081 0.48427
 C158 C 0.53182 0.55355 0.48688
 N159 N 0.52588 0.53397 0.50901
 C160 C 0.51203 0.55686 0.47018
 H161 H 0.46470 0.55931 0.45041
 H162 H 0.41860 0.51046 0.44996
 H163 H 0.50633 0.52022 0.51832
 H164 H 0.40190 0.40855 0.46702
 H165 H 0.42408 0.39007 0.50771
 H166 H 0.50327 0.44071 0.59730
 H167 H 0.54951 0.48888 0.59731
 H168 H 0.57171 0.58852 0.46886
 H169 H 0.46506 0.47692 0.51842
 H170 H 0.59407 0.57062 0.50975
 C171 C 0.45780 -0.05479 0.42910
 C172 C 0.48219 -0.05433 0.42695
 C173 C 0.49631 -0.04322 0.45518
 N174 N 0.48150 -0.03645 0.47440
 C175 C 0.45776 -0.04386 0.45853
 C176 C 0.52187 -0.04079 0.46331
 C177 C 0.53986 -0.02133 0.48618
 C178 C 0.56239 -0.02082 0.50016
 C179 C 0.57503 0.00196 0.51951
 C180 C 0.55945 0.01434 0.51761
 N181 N 0.53817 0.00014 0.49712
 C182 C 0.56585 0.03887 0.53343
 C183 C 0.54635 0.04703 0.53840
 C184 C 0.55218 0.07106 0.55365
 C185 C 0.52748 0.07001 0.55675
 C186 C 0.50728 0.04542 0.54316
 N187 N 0.51884 0.03129 0.53219
 C188 C 0.47845 0.03537 0.54378
 C189 C 0.45838 0.01107 0.52807
 C190 C 0.42994 -0.00228 0.53323
 C191 C 0.41768 -0.02433 0.51281
 C192 C 0.43889 -0.02357 0.49522
 N193 N 0.46361 -0.00189 0.50464
 C194 C 0.43521 -0.04231 0.47080
 H195 H 0.44191 -0.06221 0.41098
 H196 H 0.48888 -0.06127 0.40681
 H197 H 0.48266 0.00507 0.49360
 H198 H 0.56912 -0.03531 0.49689
 H199 H 0.59346 0.00842 0.53357
 H200 H 0.57199 0.08732 0.56262
 H201 H 0.52475 0.08535 0.56849
 H202 H 0.39564 -0.03924 0.51126
 H203 H 0.52493 0.00631 0.48866
 H204 H 0.41903 0.00313 0.55002
 O205 O 0.23141 0.42203 0.27689
 O206 O 0.18517 0.42351 0.21514
 O207 O 0.22948 0.41954 0.21529
 O208 O 0.18599 0.42405 0.27738
 O209 O 0.21230 0.46936 0.27621
 O210 O 0.25478 0.46494 0.21261
 O211 O 0.21140 0.46887 0.21427
 O212 O 0.25754 0.46733 0.27373
 Cu213 Cu 0.20528 0.41772 0.24641
 Cu214 Cu 0.23648 0.47215 0.24424
 C215 C 0.25291 0.44466 0.28506
 C216 C 0.19074 0.44667 0.20401
 C217 C 0.24958 0.44144 0.20340
 C218 C 0.19169 0.44745 0.28748
 O219 O 0.56175 0.80236 0.28391
 O220 O 0.56625 0.75951 0.22116
 O221 O 0.56577 0.80530 0.22195
 O222 O 0.56134 0.75602 0.28275
 O223 O 0.51582 0.73188 0.27665
 O224 O 0.52003 0.78177 0.21868
 O225 O 0.52065 0.73710 0.21567
 O226 O 0.51605 0.77786 0.28037
 Cu227 Cu 0.56840 0.78325 0.25297
 Cu228 Cu 0.51357 0.75487 0.24765
 C229 C 0.53804 0.79734 0.29292
 C230 C 0.54418 0.74117 0.20753
 C231 C 0.54348 0.80171 0.20981
 C232 C 0.53769 0.73508 0.28935
 O233 O 0.23575 0.81981 0.22228
 O234 O 0.18031 0.77548 0.27930
 O235 O 0.22849 0.82133 0.28350
 O236 O 0.18765 0.77308 0.21850
 O237 O 0.20917 0.75054 0.22718
 O238 O 0.24707 0.79627 0.29342
 O239 O 0.19995 0.75089 0.28619
 O240 O 0.25703 0.79740 0.23310
 Cu241 Cu 0.20608 0.79989 0.24983
 Cu242 Cu 0.23060 0.77163 0.26065
 C243 C 0.25626 0.81662 0.21874
 C244 C 0.18040 0.75518 0.29173
 C245 C 0.24451 0.81662 0.29986
 C246 C 0.19099 0.75307 0.21258
 O247 O 0.76735 0.57732 0.77991
 O248 O 0.80335 0.56609 0.71344
 O249 O 0.76012 0.57154 0.71854
 O250 O 0.81086 0.57225 0.77474
 O251 O 0.78426 0.52708 0.77935
 O252 O 0.73247 0.52689 0.72692
 O253 O 0.77547 0.52119 0.71935
 O254 O 0.74186 0.53235 0.78731
 Cu255 Cu 0.78813 0.57636 0.74597
 Cu256 Cu 0.75572 0.52239 0.75369
 C257 C 0.74850 0.55659 0.79506
 C258 C 0.79576 0.54160 0.70547
 C259 C 0.73727 0.54910 0.71394
 C260 C 0.80639 0.54955 0.78605
 O261 O 0.42863 0.18808 0.78486
 O262 O 0.43089 0.23525 0.72312
 O263 O 0.43000 0.18874 0.72317
 O264 O 0.43033 0.23512 0.78513
 O265 O 0.47613 0.25734 0.78587
 O266 O 0.47588 0.21221 0.72370
 O267 O 0.47670 0.25793 0.72410
 O268 O 0.47447 0.21101 0.78569
 Cu269 Cu 0.42533 0.20952 0.75403
 Cu270 Cu 0.48035 0.23687 0.75498
 C271 C 0.45120 0.19147 0.79572
 C272 C 0.45423 0.25461 0.71299
 C273 C 0.45303 0.19280 0.71278
 C274 C 0.45347 0.25418 0.79609
 O275 O 0.78019 0.18264 0.71305
 O276 O 0.82367 0.22998 0.77699
 O277 O 0.77546 0.18386 0.77437
 O278 O 0.82842 0.22953 0.71509
 O279 O 0.80772 0.25335 0.71151
 O280 O 0.75389 0.20649 0.76705
 O281 O 0.80165 0.25239 0.77197
 O282 O 0.76047 0.20709 0.70621
 Cu283 Cu 0.80413 0.20418 0.74535
 Cu284 Cu 0.77880 0.23209 0.73864
 C285 C 0.76275 0.18670 0.69891
 C286 C 0.82008 0.24938 0.78531
 C287 C 0.75526 0.18718 0.78023
 C288 C 0.82735 0.24974 0.70392
 C289 C 0.03923 0.44421 0.06848
 C290 C 0.05444 0.43573 0.08624
 C291 C 0.08351 0.45181 0.08688
 C292 C 0.09728 0.47594 0.06835
 C293 C 0.08213 0.48434 0.05057
 C294 C 0.05300 0.46891 0.05113
 N295 N 0.09857 0.44438 0.10787
 N296 N 0.12465 0.46025 0.11154
 C297 C 0.14079 0.45490 0.13323
 C298 C 0.16860 0.47545 0.13748
 C299 C 0.18477 0.47239 0.16011
 C300 C 0.17349 0.44844 0.17882
 C301 C 0.14577 0.42725 0.17382
 C302 C 0.12939 0.43054 0.15128
 H303 H 0.01675 0.43202 0.06907
 H304 H 0.04355 0.41711 0.10035
 H305 H 0.11972 0.48868 0.06822
 H306 H 0.09308 0.50332 0.03708
 H307 H 0.17759 0.49427 0.12369
 H308 H 0.20613 0.48896 0.16316
 H309 H 0.13658 0.40860 0.18792
 H310 H 0.10787 0.41436 0.14832
 C311 C 0.54782 0.58913 0.08846
 C312 C 0.55499 0.61195 0.10765
 C313 C 0.55020 0.63247 0.09719
 C314 C 0.53971 0.63080 0.06644
 C315 C 0.53313 0.60831 0.04698
 C316 C 0.53644 0.58698 0.05822
 N317 N 0.55411 0.65357 0.11891
 N318 N 0.54246 0.66734 0.11445
 C319 C 0.54495 0.68765 0.13648
 C320 C 0.52545 0.69574 0.13516
 C321 C 0.52547 0.71349 0.15806
 C322 C 0.54555 0.72402 0.18221
 C323 C 0.56594 0.71691 0.18273
 C324 C 0.56545 0.69854 0.16022
 H325 H 0.55037 0.57275 0.09750
 H326 H 0.56301 0.61299 0.13130
 H327 H 0.53600 0.64652 0.05778
 H328 H 0.52432 0.60689 0.02371
 H329 H 0.50958 0.68748 0.11696
 H330 H 0.50965 0.71883 0.15705
 H331 H 0.58158 0.72473 0.20119
 H332 H 0.58081 0.69262 0.16156
 C333 C 0.40079 0.93525 0.05151
 C334 C 0.37588 0.91757 0.06737
 C335 C 0.37346 0.92065 0.09999
 C336 C 0.39564 0.94270 0.11627
 C337 C 0.42022 0.96096 0.10019
 C338 C 0.42326 0.95686 0.06791
 N339 N 0.34894 0.90056 0.11646
 N340 N 0.35010 0.89458 0.14533
 C341 C 0.32611 0.87472 0.16272
 C342 C 0.32980 0.86216 0.18923
 C343 C 0.30693 0.84265 0.20684
 C344 C 0.27999 0.83602 0.19873
 C345 C 0.27628 0.84888 0.17233
 C346 C 0.29918 0.86785 0.15413
 H347 H 0.40280 0.93179 0.02660
 H348 H 0.35890 0.90068 0.05458
 H349 H 0.39402 0.94560 0.14143
 H350 H 0.43729 0.97761 0.11315
 H351 H 0.35048 0.86737 0.19611
 H352 H 0.31037 0.83326 0.22730
 H353 H 0.25570 0.84414 0.16571
 H354 H 0.29594 0.87751 0.13381
 C355 C 0.91619 0.53240 0.52808
 C356 C 0.89838 0.53797 0.54524
 C357 C 0.89432 0.53237 0.57786
 C358 C 0.90911 0.52213 0.59343
 C359 C 0.92745 0.51732 0.57652
 C360 C 0.93082 0.52192 0.54359
 N361 N 0.87512 0.53699 0.59492
 N362 N 0.86334 0.52331 0.61999
 C363 C 0.84496 0.52774 0.63897
 C364 C 0.82746 0.50724 0.66049
 C365 C 0.81059 0.51140 0.68109
 C366 C 0.81146 0.53654 0.68106
 C367 C 0.82883 0.55708 0.65915
 C368 C 0.84529 0.55260 0.63797
 H369 H 0.91847 0.53610 0.50270
 H370 H 0.88719 0.54596 0.53300
 H371 H 0.90661 0.51806 0.61872
 H372 H 0.93881 0.50964 0.58906
 H373 H 0.82717 0.48808 0.66157
 H374 H 0.79765 0.49530 0.69789
 H375 H 0.82995 0.57666 0.65870
 H376 H 0.85891 0.56881 0.62165
 C377 C 0.43575 0.39265 0.57766
 C378 C 0.42983 0.36929 0.59518
 C379 C 0.44801 0.35947 0.59438
 C380 C 0.47137 0.37231 0.57429
 C381 C 0.47711 0.39542 0.55653
 C382 C 0.45984 0.40629 0.55888
 N383 N 0.44349 0.33785 0.61567
 N384 N 0.46214 0.33199 0.62018
 C385 C 0.45896 0.31140 0.64226
 C386 C 0.48203 0.30922 0.64879
 C387 C 0.48042 0.29065 0.67164
 C388 C 0.45547 0.27361 0.68813
 C389 C 0.43206 0.27530 0.68096
 C390 C 0.43383 0.29420 0.65833
 H391 H 0.42219 0.40076 0.57971
 H392 H 0.41173 0.35956 0.61050
 H393 H 0.48560 0.36497 0.57300
 H394 H 0.49568 0.40559 0.54197
 H395 H 0.50150 0.32238 0.63656
 H396 H 0.49875 0.28970 0.67645
 H397 H 0.41257 0.26244 0.69330
 H398 H 0.41570 0.29553 0.65362
 C399 C 0.61305 0.08152 0.53256
 C400 C 0.63832 0.09971 0.54730
 C401 C 0.64513 0.09283 0.57639
 C402 C 0.62651 0.06721 0.59044
 C403 C 0.60099 0.04924 0.57601
 C404 C 0.59402 0.05640 0.54711
 N405 N 0.66977 0.11305 0.59248
 N406 N 0.67977 0.10701 0.61599
 C407 C 0.70288 0.12776 0.63379
 C408 C 0.71625 0.11986 0.65546
 C409 C 0.73689 0.13935 0.67556
 C410 C 0.74398 0.16697 0.67472
 C411 C 0.73108 0.17499 0.65234
 C412 C 0.71087 0.15561 0.63185
 H413 H 0.60783 0.08744 0.51041
 H414 H 0.65238 0.11948 0.53639
 H415 H 0.63119 0.06161 0.61313
 H416 H 0.58636 0.03006 0.58770
 H417 H 0.71016 0.09845 0.65731
 H418 H 0.74634 0.13257 0.69276
 H419 H 0.73618 0.19615 0.65117
 H420 H 0.70070 0.16219 0.61544
 C421 C 0.48938 0.09360 0.97330
 C422 C 0.48395 0.11127 0.95601
 C423 C 0.47010 0.10291 0.92683
 C424 C 0.46106 0.07632 0.91541
 C425 C 0.46697 0.05886 0.93237
 C426 C 0.48155 0.06757 0.96116
 N427 N 0.46753 0.12245 0.90804
 N428 N 0.45131 0.11525 0.88424
 C429 C 0.45063 0.13508 0.86393
 C430 C 0.42817 0.12653 0.84328
 C431 C 0.42788 0.14510 0.82172
 C432 C 0.45051 0.17235 0.81995
 C433 C 0.47297 0.18093 0.84081
 C434 C 0.47292 0.16254 0.86284
 H435 H 0.50074 0.10063 0.99543
 H436 H 0.49114 0.13175 0.96496
 H437 H 0.45053 0.06950 0.89279
 H438 H 0.46093 0.03888 0.92264
 H439 H 0.41097 0.10538 0.84372
 H440 H 0.41040 0.13793 0.80576
 H441 H 0.49062 0.20185 0.83998
 H442 H 0.49066 0.16953 0.87835
 C443 C 0.60392 0.51500 0.96177
 C444 C 0.62830 0.52038 0.94674
 C445 C 0.64221 0.54262 0.92579
 C446 C 0.63217 0.56038 0.92115
 C447 C 0.60770 0.55503 0.93627
 C448 C 0.59310 0.53189 0.95604
 N449 N 0.66453 0.54476 0.90727
 N450 N 0.67835 0.56397 0.88727
 C451 C 0.69865 0.56358 0.86708
 C452 C 0.71424 0.58551 0.84610
 C453 C 0.73166 0.58398 0.82351
 C454 C 0.73334 0.56023 0.82137
 C455 C 0.71850 0.53876 0.84327
 C456 C 0.70144 0.54046 0.86598
 H457 H 0.59282 0.49703 0.97689
 H458 H 0.63577 0.50649 0.95035
 H459 H 0.64252 0.57763 0.90491
 H460 H 0.59948 0.56814 0.93150
 H461 H 0.71221 0.60341 0.84660
 H462 H 0.74280 0.60078 0.80684
 H463 H 0.71954 0.52030 0.84234
 H464 H 0.68963 0.52319 0.88187
 C465 C 0.94251 0.42602 0.90316
 C466 C 0.92652 0.40383 0.88311
 C467 C 0.91851 0.37715 0.89231
 C468 C 0.92729 0.37282 0.92178
 C469 C 0.94326 0.39514 0.94219
 C470 C 0.95067 0.42210 0.93341
 N471 N 0.90025 0.35507 0.87172
 N472 N 0.89366 0.33017 0.87532
 C473 C 0.87433 0.30941 0.85388
 C474 C 0.87280 0.28409 0.85170
 C475 C 0.85496 0.26425 0.82963
 C476 C 0.83799 0.26934 0.80991
 C477 C 0.83901 0.29443 0.81294
 C478 C 0.85706 0.31429 0.83452
 H479 H 0.94845 0.44643 0.89494
 H480 H 0.92000 0.40740 0.86035
 H481 H 0.92108 0.35221 0.92941
 H482 H 0.94850 0.39104 0.96545
 H483 H 0.88589 0.27998 0.86655
 H484 H 0.85455 0.24506 0.82788
 H485 H 0.82628 0.29904 0.79809
 H486 H 0.85759 0.33355 0.83595
 C487 C 0.55568 0.95137 0.43519
 C488 C 0.56140 0.93396 0.41763
 C489 C 0.54072 0.90635 0.41272
 C490 C 0.51451 0.89599 0.42676
 C491 C 0.50878 0.91324 0.44428
 C492 C 0.52901 0.94140 0.44817
 N493 N 0.54611 0.88958 0.39211
 N494 N 0.52680 0.86543 0.38438
 C495 C 0.53072 0.84822 0.36292
 C496 C 0.50748 0.82311 0.35384
 C497 C 0.50993 0.80641 0.33144
 C498 C 0.53587 0.81447 0.31786
 C499 C 0.55939 0.83941 0.32763
 C500 C 0.55683 0.85625 0.34990
 H501 H 0.57167 0.97295 0.43709
 H502 H 0.58168 0.94224 0.40689
 H503 H 0.49822 0.87466 0.42370
 H504 H 0.48828 0.90456 0.45465
 H505 H 0.48725 0.81673 0.36373
 H506 H 0.49145 0.78729 0.32455
 H507 H 0.57964 0.84619 0.31757
 H508 H 0.57510 0.87560 0.35661
 C509 C 0.37548 0.44100 0.46221
 C510 C 0.35222 0.43319 0.44303
 C511 C 0.35559 0.44020 0.41071
 C512 C 0.38236 0.45346 0.39732
 C513 C 0.40545 0.46088 0.41627
 C514 C 0.40231 0.45554 0.44903
 N515 N 0.33222 0.43573 0.39230
 N516 N 0.33618 0.44975 0.36716
 C517 C 0.31448 0.44737 0.34734
 C518 C 0.32143 0.46816 0.32505
 C519 C 0.30122 0.46725 0.30529
 C520 C 0.27359 0.44510 0.30694
 C521 C 0.26657 0.42385 0.32899
 C522 C 0.28688 0.42512 0.34941
 H523 H 0.37269 0.43667 0.48745
 H524 H 0.33172 0.42292 0.45366
 H525 H 0.38552 0.45877 0.37233
 H526 H 0.42596 0.47183 0.40563
 H527 H 0.34265 0.48532 0.32321
 H528 H 0.30735 0.48377 0.28831
 H529 H 0.24542 0.40653 0.33066
 H530 H 0.28116 0.40874 0.36644
 C531 C 0.02422 0.58341 0.39451
 C532 C 0.03863 0.60644 0.37487
 C533 C 0.06018 0.63133 0.38709
 C534 C 0.06634 0.63341 0.41966
 C535 C 0.05229 0.61022 0.43926
 C536 C 0.03167 0.58476 0.42662
 N537 N 0.07791 0.65267 0.36533
 N538 N 0.09472 0.67740 0.37389
 C539 C 0.11461 0.69695 0.35188
 C540 C 0.12591 0.72522 0.35663
 C541 C 0.14677 0.74448 0.33635
 C542 C 0.15720 0.73553 0.31194
 C543 C 0.14585 0.70726 0.30724
 C544 C 0.12450 0.68811 0.32675
 H545 H 0.00821 0.56410 0.38428
 H546 H 0.03380 0.60458 0.34977
 H547 H 0.08319 0.65240 0.42948
 H548 H 0.05868 0.61176 0.46382
 H549 H 0.11863 0.73229 0.37609
 H550 H 0.15542 0.76627 0.34036
 H551 H 0.15357 0.69999 0.28842
 H552 H 0.11636 0.66639 0.32292
 C553 C 0.94866 0.56126 0.94727
 C554 C 0.93269 0.56847 0.92888
 C555 C 0.92185 0.55560 0.89964
 C556 C 0.92855 0.53665 0.88806
 C557 C 0.94463 0.52967 0.90608
 C558 C 0.95425 0.54113 0.93646
 N559 N 0.90279 0.56051 0.88273
 N560 N 0.88659 0.54307 0.86226
 C561 C 0.86679 0.54575 0.84403
 C562 C 0.84667 0.52263 0.82751
 C563 C 0.82692 0.52394 0.80913
 C564 C 0.82722 0.54870 0.80642
 C565 C 0.84765 0.57214 0.82278
 C566 C 0.86723 0.57062 0.84179
 H567 H 0.95525 0.57027 0.97066
 H568 H 0.92768 0.58314 0.93810
 H569 H 0.92096 0.52684 0.86521
 H570 H 0.94934 0.51494 0.89628
 H571 H 0.84627 0.50342 0.82901
 H572 H 0.81164 0.50562 0.79659
 H573 H 0.84834 0.59148 0.82104
 H574 H 0.88279 0.58879 0.85429
 C575 C 0.44035 0.39790 0.92853
 C576 C 0.43319 0.37382 0.91170
 C577 C 0.45179 0.36458 0.90965
 C578 C 0.47726 0.37911 0.92578
 C579 C 0.48445 0.40306 0.94248
 C580 C 0.46646 0.41328 0.94348
 N581 N 0.44539 0.34155 0.88971
 N582 N 0.46314 0.33446 0.88540
 C583 C 0.45895 0.31269 0.86469
 C584 C 0.48115 0.30875 0.85993
 C585 C 0.47906 0.28935 0.83809
 C586 C 0.45450 0.27324 0.82072
 C587 C 0.43177 0.27650 0.82627
 C588 C 0.43403 0.29626 0.84800
 H589 H 0.42607 0.40523 0.92848
 H590 H 0.41349 0.36286 0.89936
 H591 H 0.49194 0.37231 0.92496
 H592 H 0.50433 0.41382 0.95449
 H593 H 0.50044 0.32130 0.87267
 H594 H 0.49686 0.28720 0.83456
 H595 H 0.41261 0.26438 0.81317
 H596 H 0.41659 0.29900 0.85136
 C597 C 0.62215 0.06170 0.95502
 C598 C 0.64533 0.07601 0.93505
 C599 C 0.64255 0.08459 0.90485
 C600 C 0.61605 0.07743 0.89414
 C601 C 0.59294 0.06297 0.91381
 C602 C 0.59566 0.05555 0.94495
 N603 N 0.66678 0.10160 0.88591
 N604 N 0.66538 0.11470 0.86220
 C605 C 0.68846 0.13238 0.84223
 C606 C 0.68516 0.14895 0.82043
 C607 C 0.70701 0.16685 0.80062
 C608 C 0.73260 0.16824 0.80188
 C609 C 0.73586 0.15130 0.82355
 C610 C 0.71396 0.13360 0.84385
 H611 H 0.62520 0.05662 0.97887
 H612 H 0.66563 0.08135 0.94360
 H613 H 0.61321 0.08333 0.87065
 H614 H 0.57281 0.05773 0.90471
 H615 H 0.66557 0.14810 0.81897
 H616 H 0.70372 0.17942 0.78401
 H617 H 0.75536 0.15194 0.82499
 H618 H 0.71686 0.12083 0.86053
 C619 C 0.09013 0.50769 0.43427
 C620 C 0.10991 0.50448 0.41821
 C621 C 0.10372 0.47842 0.40846
 C622 C 0.07778 0.45522 0.41631
 C623 C 0.05793 0.45835 0.43260
 C624 C 0.06351 0.48477 0.44091
 N625 N 0.12347 0.47647 0.38899
 N626 N 0.11899 0.45374 0.37778
 C627 C 0.13840 0.45251 0.35686
 C628 C 0.13234 0.42691 0.34531
 C629 C 0.14992 0.42519 0.32322
 C630 C 0.17391 0.44917 0.31218
 C631 C 0.18023 0.47483 0.32430
 C632 C 0.16267 0.47650 0.34645
 H633 H 0.09551 0.52824 0.44119
 H634 H 0.12990 0.52249 0.41253
 H635 H 0.07255 0.43481 0.40905
 H636 H 0.03767 0.44026 0.43708
 H637 H 0.11369 0.40828 0.35306
 H638 H 0.14444 0.40510 0.31439
 H639 H 0.19855 0.49367 0.31636
 H640 H 0.16781 0.49657 0.35496
 C641 C 0.53489 0.60836 0.46472
 C642 C 0.54185 0.63164 0.44632
 C643 C 0.53512 0.62886 0.41395
 C644 C 0.52262 0.60270 0.39979
 C645 C 0.51617 0.57961 0.41795
 C646 C 0.52159 0.58211 0.45071
 N647 N 0.53987 0.65238 0.39606
 N648 N 0.52641 0.64916 0.37057
 C649 C 0.52991 0.67144 0.35125
 C650 C 0.50967 0.66582 0.32846
 C651 C 0.51210 0.68670 0.30884
 C652 C 0.53526 0.71359 0.31119
 C653 C 0.55585 0.71925 0.33388
 C654 C 0.55305 0.69833 0.35408
 H655 H 0.53927 0.61070 0.48995
 H656 H 0.55155 0.65169 0.45751
 H657 H 0.51756 0.60006 0.37474
 H658 H 0.50622 0.55959 0.40663
 H659 H 0.49183 0.64515 0.32601
 H660 H 0.49605 0.68164 0.29139
 H661 H 0.57391 0.73981 0.33613
 H662 H 0.56904 0.70301 0.37148
 C663 C 0.39910 0.91111 0.45532
 C664 C 0.37407 0.89315 0.44029
 C665 C 0.35782 0.90280 0.42774
 C666 C 0.36608 0.93055 0.43194
 C667 C 0.39104 0.94860 0.44762
 C668 C 0.40833 0.93925 0.45857
 N669 N 0.33441 0.88422 0.40884
 N670 N 0.32004 0.89121 0.39264
 C671 C 0.29829 0.87153 0.37235
 C672 C 0.28477 0.88009 0.35168
 C673 C 0.26619 0.86194 0.32877
 C674 C 0.26108 0.83504 0.32624
 C675 C 0.27363 0.82619 0.34807
 C676 C 0.29195 0.84417 0.37089
 H677 H 0.41154 0.90306 0.46410
 H678 H 0.36781 0.87177 0.43727
 H679 H 0.35374 0.93839 0.42236
 H680 H 0.39760 0.97015 0.44946
 H681 H 0.28946 0.90111 0.35249
 H682 H 0.25678 0.86929 0.31226
 H683 H 0.26986 0.80549 0.34701
 H684 H 0.30188 0.83687 0.38667
 C685 C 0.56706 0.96308 0.07815
 C686 C 0.57313 0.94570 0.09515
 C687 C 0.55519 0.91707 0.09375
 C688 C 0.53191 0.90592 0.07361
 C689 C 0.52594 0.92322 0.05654
 C690 C 0.54298 0.95189 0.05948
 N691 N 0.55959 0.89983 0.11471
 N692 N 0.54131 0.87437 0.11759
 C693 C 0.54361 0.85636 0.13936
 C694 C 0.52070 0.82970 0.14298
 C695 C 0.52092 0.81198 0.16566
 C696 C 0.54431 0.82051 0.18500
 C697 C 0.56776 0.84705 0.18069
 C698 C 0.56736 0.86499 0.15814
 H699 H 0.58043 0.98519 0.08059
 H700 H 0.59114 0.95457 0.11051
 H701 H 0.51781 0.88386 0.07188
 H702 H 0.50737 0.91430 0.04208
 H703 H 0.50231 0.82287 0.12865
 H704 H 0.50263 0.79158 0.16816
 H705 H 0.58606 0.85413 0.19526
 H706 H 0.58533 0.88558 0.15569
 C707 C 0.38950 0.47501 0.02912
 C708 C 0.36549 0.46954 0.04533
 C709 C 0.35886 0.45620 0.07483
 C710 C 0.37616 0.44764 0.08763
 C711 C 0.40046 0.45359 0.07173
 C712 C 0.40746 0.46767 0.04261
 N713 N 0.33614 0.45398 0.09264
 N714 N 0.32604 0.43836 0.11681
 C715 C 0.30513 0.43825 0.13625
 C716 C 0.28999 0.41647 0.15750
 C717 C 0.27105 0.41697 0.17857
 C718 C 0.26758 0.43969 0.17922
 C719 C 0.28257 0.46139 0.15763
 C720 C 0.30100 0.46056 0.13609
 H721 H 0.39481 0.48617 0.00683
 H722 H 0.35244 0.47641 0.03535
 H723 H 0.37161 0.43757 0.11057
 H724 H 0.41431 0.44810 0.08260
 H725 H 0.29315 0.39928 0.15802
 H726 H 0.25989 0.40008 0.19512
 H727 H 0.28022 0.47910 0.15762
 H728 H 0.31270 0.47777 0.12009
 C729 C 0.08385 0.61481 0.03623
 C730 C 0.10118 0.63936 0.05257
 C731 C 0.09475 0.64278 0.08372
 C732 C 0.07000 0.62197 0.09780
 C733 C 0.05226 0.59782 0.08113
 C734 C 0.05937 0.59381 0.05051
 N735 N 0.11427 0.66658 0.10143
 N736 N 0.11625 0.66495 0.13135
 C737 C 0.13536 0.68776 0.15053
 C738 C 0.14408 0.68224 0.17909
 C739 C 0.16277 0.70371 0.19860
 C740 C 0.17238 0.73117 0.19039
 C741 C 0.16323 0.73685 0.16201
 C742 C 0.14512 0.71522 0.14183
 H743 H 0.08968 0.61198 0.01265
 H744 H 0.12023 0.65521 0.04151
 H745 H 0.06458 0.62432 0.12179
 H746 H 0.03343 0.58184 0.09245
 H747 H 0.13655 0.66116 0.18607
 H748 H 0.16922 0.69882 0.22061
 H749 H 0.17029 0.75789 0.15538
 H750 H 0.13834 0.71981 0.11991
 C751 C 0.45684 0.04038 0.59337
 C752 C 0.44963 0.05563 0.61280
 C753 C 0.45493 0.08142 0.60290
 C754 C 0.46638 0.09130 0.57259
 C755 C 0.47300 0.07577 0.55286
 C756 C 0.46877 0.05047 0.56338
 N757 N 0.44997 0.09781 0.62457
 N758 N 0.46159 0.12372 0.62089
 C759 C 0.45769 0.14069 0.64274
 C760 C 0.47726 0.16896 0.64310
 C761 C 0.47551 0.18592 0.66573
 C762 C 0.45362 0.17494 0.68784
 C763 C 0.43327 0.14675 0.68665
 C764 C 0.43547 0.12962 0.66449
 H765 H 0.45358 0.02093 0.60187
 H766 H 0.44088 0.04783 0.63611
 H767 H 0.47052 0.11113 0.56437
 H768 H 0.48223 0.08383 0.52979
 H769 H 0.49442 0.17770 0.62643
 H770 H 0.49134 0.20763 0.66607
 H771 H 0.41626 0.13785 0.70354
 H772 H 0.42003 0.10780 0.66446
 C773 C 0.60226 0.53368 0.54445
 C774 C 0.62685 0.54094 0.56049
 C775 C 0.62981 0.54821 0.59265
 C776 C 0.60876 0.55013 0.60804
 C777 C 0.58456 0.54370 0.59176
 C778 C 0.58076 0.53452 0.56019
 N779 N 0.65310 0.55129 0.60992
 N780 N 0.65076 0.54506 0.63926
 C781 C 0.67306 0.54705 0.65757
 C782 C 0.66656 0.53096 0.68499
 C783 C 0.68753 0.53141 0.70294
 C784 C 0.71550 0.54869 0.69427
 C785 C 0.72217 0.56546 0.66720
 C786 C 0.70101 0.56434 0.64862
 H787 H 0.59959 0.52652 0.52012
 H788 H 0.64292 0.53936 0.54840
 H789 H 0.61078 0.55594 0.63284
 H790 H 0.56816 0.54447 0.60421
 H791 H 0.64509 0.51763 0.69210
 H792 H 0.68192 0.51852 0.72391
 H793 H 0.74364 0.57898 0.66017
 H794 H 0.70643 0.57708 0.62756
 C795 C 0.95928 0.42532 0.58874
 C796 C 0.94678 0.40382 0.61063
 C797 C 0.93465 0.37650 0.60063
 C798 C 0.93629 0.37086 0.56843
 C799 C 0.94876 0.39248 0.54634
 C800 C 0.95962 0.41978 0.55632
 N801 N 0.91811 0.35524 0.62306
 N802 N 0.90775 0.32965 0.61797
 C803 C 0.88901 0.30981 0.64071
 C804 C 0.88264 0.28247 0.63956
 C805 C 0.86315 0.26274 0.66076
 C806 C 0.84930 0.27010 0.68267
 C807 C 0.85592 0.29752 0.68382
 C808 C 0.87568 0.31719 0.66331
 H809 H 0.96761 0.44627 0.59684
 H810 H 0.94549 0.40837 0.63533
 H811 H 0.92682 0.34983 0.56019
 H812 H 0.94881 0.38789 0.52138
 H813 H 0.89263 0.27644 0.62216
 H814 H 0.85830 0.24168 0.65941
 H815 H 0.84571 0.30379 0.70066
 H816 H 0.87998 0.33806 0.66459
   
