data_POSCAR
  _audit_creation_date              2014-09-24
  _audit_creation_method            'ToBaCCo'
  _symmetry_space_group_name_H-M    'P1'
  _symmetry_Int_Tables_number       1
  _symmetry_cell_setting            triclinic
  loop_
  _symmetry_equiv_pos_as_xyz
 x,y,z
_cell_length_a 33.3701
_cell_length_b 33.3822
_cell_length_c 33.3600
_cell_angle_alpha 89.970900
_cell_angle_beta 90.026900
_cell_angle_gamma 89.779800
loop_
  _atom_site_label
  _atom_site_type_symbol
  _atom_site_fract_x
  _atom_site_fract_y
  _atom_site_fract_z
C1 C 0.19982 0.14861 0.19909
 C2 C 0.18246 0.13234 0.23374
 C3 C 0.14806 0.14987 0.25044
 C4 C 0.13088 0.18392 0.23268
 C5 C 0.14786 0.20056 0.19802
 C6 C 0.18247 0.18286 0.18109
 C7 C 0.23399 0.13104 0.18189
 C8 C 0.25084 0.14730 0.14702
 C9 C 0.23371 0.18133 0.12919
 C10 C 0.19955 0.19925 0.14600
 C11 C 0.18195 0.23307 0.12815
 C12 C 0.14760 0.25051 0.14495
 C13 C 0.13065 0.23437 0.17978
 H14 H 0.19555 0.10591 0.24755
 H15 H 0.10418 0.19729 0.24566
 H16 H 0.24733 0.10462 0.19549
 H17 H 0.24682 0.19372 0.10214
 H18 H 0.19477 0.24574 0.10112
 H19 H 0.10399 0.24804 0.19248
 C20 C -0.19683 0.85390 0.20265
 C21 C -0.17860 0.87098 0.23644
 C22 C -0.14369 0.85393 0.25261
 C23 C -0.12685 0.81957 0.23518
 C24 C -0.14469 0.80212 0.20139
 C25 C -0.17984 0.81932 0.18500
 C26 C -0.23153 0.87097 0.18598
 C27 C -0.24927 0.85390 0.15197
 C28 C -0.23251 0.81952 0.13448
 C29 C -0.19782 0.80209 0.15077
 C30 C -0.18056 0.76794 0.13325
 C31 C -0.14568 0.75101 0.14951
 C32 C -0.12785 0.76798 0.18348
 H33 H -0.19143 0.89764 0.25001
 H34 H -0.09976 0.80657 0.24777
 H35 H -0.24457 0.89765 0.19931
 H36 H -0.24630 0.80651 0.10808
 H37 H -0.19407 0.75464 0.10686
 H38 H -0.10078 0.75471 0.19577
 C39 C -0.20240 0.14516 -0.19864
 C40 C -0.18445 0.12832 -0.23276
 C41 C -0.15054 0.14613 -0.24981
 C42 C -0.13440 0.18097 -0.23301
 C43 C -0.15196 0.19820 -0.19890
 C44 C -0.18611 0.18026 -0.18157
 C45 C -0.23610 0.12734 -0.18107
 C46 C -0.25354 0.14418 -0.14673
 C47 C -0.23747 0.17904 -0.12980
 C48 C -0.20377 0.19724 -0.14700
 C49 C -0.18718 0.23188 -0.13006
 C50 C -0.15325 0.24954 -0.14724
 C51 C -0.13576 0.23283 -0.18157
 H52 H -0.19664 0.10128 -0.24593
 H53 H -0.10807 0.19445 -0.24637
 H54 H -0.24861 0.10029 -0.19396
 H55 H -0.25104 0.19186 -0.10315
 H56 H -0.20041 0.24498 -0.10339
 H57 H -0.10942 0.24665 -0.19456
 C58 C 0.20144 0.85201 -0.19985
 C59 C 0.18502 0.87036 -0.23398
 C60 C 0.15064 0.85451 -0.25210
 C61 C 0.13255 0.82011 -0.23630
 C62 C 0.14860 0.80141 -0.20218
 C63 C 0.18319 0.81740 -0.18382
 C64 C 0.23556 0.86787 -0.18120
 C65 C 0.25146 0.84960 -0.14686
 C66 C 0.23348 0.81522 -0.13096
 C67 C 0.19935 0.79895 -0.14922
 C68 C 0.18082 0.76481 -0.13331
 C69 C 0.14647 0.74909 -0.15152
 C70 C 0.13046 0.76725 -0.18586
 H71 H 0.19880 0.89706 -0.24628
 H72 H 0.10587 0.80806 -0.25038
 H73 H 0.24963 0.89456 -0.19319
 H74 H 0.24594 0.80138 -0.10428
 H75 H 0.19290 0.75061 -0.10664
 H76 H 0.10378 0.75492 -0.19965
 C77 C 0.14861 1.19970 0.80084
 C78 C 0.13243 1.18229 0.76618
 C79 C 0.14997 1.14782 0.74965
 C80 C 0.18392 1.13062 0.76759
 C81 C 0.20048 1.14766 0.80226
 C82 C 0.18278 1.18234 0.81902
 C83 C 0.13104 1.23395 0.81787
 C84 C 0.14721 1.25087 0.85275
 C85 C 0.18116 1.23373 0.87076
 C86 C 0.19908 1.19950 0.85412
 C87 C 0.23282 1.18190 0.87214
 C88 C 0.25026 1.14749 0.85551
 C89 C 0.23421 1.13046 0.82068
 H90 H 0.10607 1.19538 0.75224
 H91 H 0.19729 1.10387 0.75474
 H92 H 0.10469 1.24729 0.80414
 H93 H 0.19347 1.24689 0.89781
 H94 H 0.24542 1.19478 0.89918
 H95 H 0.24788 1.10375 0.80811
 C96 C 0.85395 0.80296 0.79726
 C97 C 0.87103 0.82121 0.76347
 C98 C 0.85399 0.85614 0.74736
 C99 C 0.81966 0.87299 0.76484
 C100 C 0.80222 0.85513 0.79863
 C101 C 0.81940 0.81997 0.81497
 C102 C 0.87101 0.76823 0.81388
 C103 C 0.85394 0.75048 0.84790
 C104 C 0.81959 0.76726 0.86543
 C105 C 0.80217 0.80198 0.84919
 C106 C 0.76805 0.81924 0.86677
 C107 C 0.75114 0.85415 0.85056
 C108 C 0.76810 0.87199 0.81659
 H109 H 0.89767 0.80837 0.74986
 H110 H 0.80667 0.90009 0.75229
 H111 H 0.89768 0.75518 0.80052
 H112 H 0.80659 0.75347 0.89184
 H113 H 0.75476 0.80572 0.89315
 H114 H 0.75484 0.89908 0.80435
 C115 C 0.14514 0.79753 1.19865
 C116 C 0.12828 0.81547 1.23276
 C117 C 0.14612 0.84933 1.24985
 C118 C 0.18102 0.86542 1.23310
 C119 C 0.19828 0.84786 1.19901
 C120 C 0.18029 0.81377 1.18164
 C121 C 0.12728 0.76387 1.18104
 C122 C 0.14414 0.74643 1.14671
 C123 C 0.17907 0.76246 1.12984
 C124 C 0.19729 0.79610 1.14708
 C125 C 0.23200 0.81265 1.13018
 C126 C 0.24969 0.84652 1.14740
 C127 C 0.23296 0.86401 1.18173
 H128 H 0.10119 0.80332 1.24589
 H129 H 0.19453 0.89172 1.24649
 H130 H 0.10019 0.75140 1.19389
 H131 H 0.19191 0.74889 1.10320
 H132 H 0.24510 0.79943 1.10352
 H133 H 0.24680 0.89032 1.19474
 C134 C 0.85217 1.20138 1.19974
 C135 C 0.87053 1.18498 1.23389
 C136 C 0.85467 1.15064 1.25205
 C137 C 0.82024 1.13256 1.23628
 C138 C 0.80153 1.14858 1.20215
 C139 C 0.81753 1.18313 1.18375
 C140 C 0.86805 1.23546 1.18106
 C141 C 0.84975 1.25133 1.14671
 C142 C 0.81535 1.23336 1.13085
 C143 C 0.79908 1.19926 1.14915
 C144 C 0.76491 1.18074 1.13326
 C145 C 0.74918 1.14643 1.15151
 C146 C 0.76735 1.13044 1.18586
 H147 H 0.89726 1.19876 1.24617
 H148 H 0.80818 1.10591 1.25040
 H149 H 0.89475 1.24953 1.19302
 H150 H 0.80150 1.24579 1.10416
 H151 H 0.75070 1.19280 1.10659
 H152 H 0.75500 1.10379 1.19968
 O153 O 0.44467 0.92393 0.93316
 O154 O 0.40035 0.96253 0.96914
 C155 C 0.40872 0.93474 0.94337
 O156 O 0.55711 0.92771 1.07675
 O157 O 0.60076 0.96435 1.03825
 C158 C 0.59288 0.93847 1.06605
 O159 O 0.44443 0.92339 1.07285
 O160 O 0.40015 0.96176 1.03644
 C161 C 0.40848 0.93394 1.06222
 O162 O 0.55720 0.92808 0.92996
 O163 O 0.60082 0.96449 0.96870
 C164 C 0.59296 0.93878 0.94075
 Zr165 Zr 0.50070 0.94656 0.95266
 O166 O 0.50575 0.88331 0.95326
 O167 O 0.49637 0.94644 0.88934
 Zr168 Zr 0.50059 0.94637 1.05405
 O169 O 0.50569 0.88313 1.05376
 O170 O 0.49603 0.94639 1.11735
 O171 O 0.46495 0.93844 1.00328
 O172 O 0.53552 0.93936 1.00338
 O173 O 0.55593 1.06721 0.93021
 O174 O 0.60021 1.03105 0.96879
 C175 C 0.59188 1.05685 0.94097
 O176 O 0.44317 1.07005 1.07312
 O177 O 0.39956 1.03127 1.03675
 C178 C 0.40741 1.05912 1.06257
 O179 O 0.55583 1.06706 1.07684
 O180 O 0.60014 1.03096 1.03832
 C181 C 0.59178 1.05674 1.06610
 O182 O 0.44325 1.07024 0.93375
 O183 O 0.39957 1.03148 0.97008
 C184 C 0.40748 1.05932 0.94424
 Zr185 Zr 0.49978 1.04797 0.95279
 O186 O 0.50371 1.11126 0.95327
 O187 O 0.49534 1.04809 0.88948
 Zr188 Zr 0.49971 1.04779 1.05414
 O189 O 0.50360 1.11108 1.05394
 O190 O 0.49522 1.04752 1.11744
 Zr191 Zr 0.44063 0.99684 1.00336
 Zr192 Zr 0.55973 0.99748 1.00347
 O193 O 0.53448 1.05535 1.00351
 O194 O 0.46392 1.05549 1.00344
 O195 O 0.53593 0.99747 0.94491
 O196 O 0.46538 0.99688 1.06139
 O197 O 0.46552 0.99712 0.94538
 O198 O 0.53584 0.99725 1.06199
 H199 H 0.55394 0.91601 1.00336
 H200 H 0.44718 0.99672 1.08485
 H201 H 0.55244 1.07891 1.00355
 H202 H 0.44751 0.99717 0.92177
 H203 H 0.51826 0.96284 1.12787
 H204 H 0.51775 1.03128 1.12791
 H205 H 0.48100 1.12143 1.03773
 H206 H 0.48092 1.12156 0.96923
 H207 H 0.51780 1.03177 0.87898
 H208 H 0.51821 0.96346 0.87891
 H209 H 0.48279 0.87276 0.96868
 H210 H 0.48347 0.87260 1.03728
 O211 O -0.07581 0.44446 0.06677
 O212 O -0.03761 0.40014 0.03030
 C213 C -0.06519 0.40851 0.05631
 O214 O -0.07231 0.55690 -0.07672
 O215 O -0.03569 0.60061 -0.03829
 C216 C -0.06157 0.59268 -0.06608
 O217 O -0.07647 0.44421 -0.07265
 O218 O -0.03790 0.40001 -0.03633
 C219 C -0.06580 0.40829 -0.06206
 O220 O -0.07176 0.55707 0.07018
 O221 O -0.03547 0.60071 0.03133
 C222 C -0.06111 0.59282 0.05935
 Zr223 Zr -0.05336 0.50061 0.04734
 O224 O -0.11663 0.50561 0.04655
 O225 O -0.05378 0.49631 0.11065
 Zr226 Zr -0.05369 0.50046 -0.05385
 O227 O -0.11696 0.50549 -0.05302
 O228 O -0.05426 0.49589 -0.11714
 O229 O -0.06138 0.46479 -0.00315
 O230 O -0.06064 0.53546 -0.00330
 O231 O 0.06734 0.55602 0.06966
 O232 O 0.03106 0.60021 0.03109
 C233 C 0.05690 0.59193 0.05888
 O234 O 0.07012 0.44328 -0.07342
 O235 O 0.03111 0.39968 -0.03735
 C236 C 0.05905 0.40754 -0.06306
 O237 O 0.06702 0.55581 -0.07694
 O238 O 0.03090 0.60008 -0.03839
 C239 C 0.05668 0.59175 -0.06619
 O240 O 0.07052 0.44351 0.06652
 O241 O 0.03133 0.39978 0.03081
 C242 C 0.05938 0.40773 0.05639
 Zr243 Zr 0.04818 0.49983 0.04714
 O244 O 0.11148 0.50384 0.04639
 O245 O 0.04848 0.49554 0.11046
 Zr246 Zr 0.04781 0.49968 -0.05425
 O247 O 0.11111 0.50364 -0.05420
 O248 O 0.04731 0.49521 -0.11755
 Zr249 Zr -0.00288 0.44056 -0.00326
 Zr250 Zr -0.00250 0.55965 -0.00350
 O251 O 0.05542 0.53448 -0.00363
 O252 O 0.05574 0.46390 -0.00350
 O253 O -0.00242 0.53587 0.05506
 O254 O -0.00311 0.46535 -0.06130
 O255 O -0.00269 0.46556 0.05466
 O256 O -0.00283 0.53572 -0.06199
 H257 H -0.08399 0.55389 -0.00326
 H258 H -0.00333 0.44725 -0.08483
 H259 H 0.07896 0.55247 -0.00371
 H260 H -0.00273 0.44761 0.07832
 H261 H -0.03716 0.51757 -0.12775
 H262 H 0.03125 0.51789 -0.12798
 H263 H 0.12152 0.48112 -0.03790
 H264 H 0.12177 0.48090 0.03067
 H265 H 0.03200 0.51787 0.12095
 H266 H -0.03627 0.51773 0.12111
 H267 H -0.12716 0.48240 0.03149
 H268 H -0.12741 0.48277 -0.03717
 O269 O 0.92955 0.07241 0.55655
 O270 O 0.96827 0.03593 0.60048
 C271 C 0.94030 0.06171 0.59240
 O272 O 0.93327 -0.07000 0.44368
 O273 O 0.96944 -0.03145 0.39968
 C274 C 0.94367 -0.05920 0.40781
 O275 O 0.92995 -0.06671 0.55630
 O276 O 0.96853 -0.03059 0.60032
 C277 C 0.94076 -0.05633 0.59218
 O278 O 0.93308 0.07646 0.44380
 O279 O 0.96953 0.03802 0.39973
 C280 C 0.94359 0.06578 0.40791
 Zr281 Zr 0.95224 0.05379 0.50010
 O282 O 0.88896 0.05405 0.49567
 O283 O 0.95257 0.11704 0.50475
 Zr284 Zr 0.95239 -0.04758 0.50000
 O285 O 0.88909 -0.04717 0.49564
 O286 O 0.95266 -0.11085 0.50434
 O287 O 0.94455 0.00304 0.53578
 O288 O 0.94492 0.00319 0.46528
 O289 O 1.07280 0.07603 0.44373
 O290 O 1.03689 0.03721 0.39980
 C291 C 1.06254 0.06507 0.40787
 O292 O 1.07644 -0.06704 0.55621
 O293 O 1.03802 -0.03056 0.60028
 C294 C 1.06576 -0.05652 0.59210
 O295 O 1.07240 -0.07054 0.44346
 O296 O 1.03597 -0.03178 0.39953
 C297 C 1.06173 -0.05977 0.40761
 O298 O 1.07618 0.07263 0.55630
 O299 O 1.03728 0.03677 0.60023
 C300 C 1.06520 0.06237 0.59216
 Zr301 Zr 1.05363 0.05352 0.50001
 O302 O 1.11692 0.05308 0.49562
 O303 O 1.05323 0.11678 0.50442
 Zr304 Zr 1.05379 -0.04784 0.49991
 O305 O 1.11707 -0.04757 0.49527
 O306 O 1.05400 -0.11110 0.50434
 Zr307 Zr 1.00311 0.00281 0.55959
 Zr308 Zr 1.00287 0.00308 0.44042
 O309 O 1.06092 0.00284 0.46517
 O310 O 1.06162 0.00276 0.53573
 O311 O 1.00288 0.06156 0.46429
 O312 O 1.00316 -0.05511 0.53472
 O313 O 1.00294 0.06085 0.53485
 O314 O 1.00303 -0.05546 0.46423
 H315 H 0.92139 0.00329 0.44715
 H316 H 1.00323 -0.07864 0.55283
 H317 H 1.08443 0.00268 0.44704
 H318 H 1.00280 0.08434 0.55299
 H319 H 0.96882 -0.12131 0.48178
 H320 H 1.03719 -0.12152 0.48228
 H321 H 1.12754 -0.03168 0.51796
 H322 H 1.12738 0.03685 0.51816
 H323 H 1.03707 0.12725 0.48184
 H324 H 0.96851 0.12749 0.48208
 H325 H 0.87851 0.03725 0.51771
 H326 H 0.87865 -0.03111 0.51828
 C327 C 1.13084 0.13334 0.28356
 C328 C 1.11541 0.11841 0.31260
 C329 C 1.09714 0.10047 0.34624
 C330 C 1.08140 0.08464 0.37461
 C331 C 0.87423 -0.12888 0.28499
 C332 C 0.89017 -0.11345 0.31347
 C333 C 0.90888 -0.09503 0.34658
 C334 C 0.92482 -0.07892 0.37466
 C335 C 0.86822 0.12820 0.71572
 C336 C 0.88425 0.11309 0.68707
 C337 C 0.90338 0.09530 0.65379
 C338 C 0.92005 0.08002 0.62561
 C339 C 1.13431 -0.12705 0.71528
 C340 C 1.11944 -0.11074 0.68663
 C341 C 1.10145 -0.09171 0.65338
 C342 C 1.08550 -0.07556 0.62524
 C343 C 0.28357 1.12965 1.13004
 C344 C 0.31233 1.11388 1.11479
 C345 C 0.34575 1.09518 1.09673
 C346 C 0.37405 1.07892 1.08118
 C347 C 0.28590 0.86670 0.87257
 C348 C 0.31449 0.88146 0.88886
 C349 C 0.34767 0.89934 0.90793
 C350 C 0.37573 0.91516 0.92416
 C351 C 0.71756 0.87114 1.13537
 C352 C 0.68845 0.88648 1.12029
 C353 C 0.65473 0.90451 1.10206
 C354 C 0.62627 0.91998 1.08596
 C355 C 0.71418 1.12627 0.87061
 C356 C 0.68581 1.11035 0.88620
 C357 C 0.65283 1.09167 0.90482
 C358 C 0.62487 1.07574 0.92109
 C359 C 0.12931 0.28474 0.12602
 C360 C 0.11375 0.31323 0.11007
 C361 C 0.09522 0.34638 0.09134
 C362 C 0.07906 0.37450 0.07535
 C363 C -0.13573 0.28447 -0.12911
 C364 C -0.12055 0.31341 -0.11387
 C365 C -0.10217 0.34693 -0.09593
 C366 C -0.08590 0.37519 -0.08053
 C367 C 0.12715 0.71463 -0.13439
 C368 C 0.11090 0.68602 -0.11962
 C369 C 0.09190 0.65282 -0.10174
 C370 C 0.07574 0.62475 -0.08588
 C371 C -0.12773 0.71647 0.13084
 C372 C -0.11257 0.68776 0.11495
 C373 C -0.09470 0.65440 0.09600
 C374 C -0.07939 0.62614 0.07948
 C375 C 1.13350 0.13055 0.71652
 C376 C 1.11860 0.11512 0.68747
 C377 C 1.10065 0.09688 0.65381
 C378 C 1.08480 0.08118 0.62543
 C379 C 0.87117 -0.12592 0.71498
 C380 C 0.88658 -0.10994 0.68651
 C381 C 0.90497 -0.09119 0.65340
 C382 C 0.92106 -0.07522 0.62532
 C383 C 1.12818 -0.13191 0.28432
 C384 C 1.11307 -0.11587 0.31296
 C385 C 1.09528 -0.09672 0.34622
 C386 C 1.08001 -0.08004 0.37440
 C387 C 0.87311 0.13433 0.28468
 C388 C 0.88942 0.11948 0.31334
 C389 C 0.90844 0.10149 0.34661
 C390 C 0.92457 0.08554 0.37477
 C391 C 0.12953 0.28365 -0.13041
 C392 C 0.11375 0.31245 -0.11528
 C393 C 0.09504 0.34590 -0.09729
 C394 C 0.07879 0.37420 -0.08175
 C395 C -0.13316 0.28574 0.12723
 C396 C -0.11843 0.31432 0.11088
 C397 C -0.10060 0.34748 0.09176
 C398 C -0.08479 0.37552 0.07550
 C399 C -0.12882 0.71730 -0.13554
 C400 C -0.11351 0.68819 -0.12045
 C401 C -0.09550 0.65447 -0.10220
 C402 C -0.08006 0.62603 -0.08605
 C403 C 0.12623 0.71420 0.12933
 C404 C 0.11031 0.68586 0.11371
 C405 C 0.09166 0.65290 0.09505
 C406 C 0.07575 0.62494 0.07876
 C407 C 0.28444 1.12922 0.87460
 C408 C 0.31290 1.11370 0.89065
 C409 C 0.34604 1.09519 0.90944
 C410 C 0.37419 1.07904 0.92541
 C411 C 0.28465 0.86402 1.12930
 C412 C 0.31362 0.87917 1.11407
 C413 C 0.34715 0.89753 1.09613
 C414 C 0.37540 0.91381 1.08071
 C415 C 0.71469 1.12711 1.13439
 C416 C 0.68607 1.11090 1.11960
 C417 C 0.65286 1.09193 1.10170
 C418 C 0.62479 1.07580 1.08581
 C419 C 0.71662 0.87210 0.86928
 C420 C 0.68792 0.88727 0.88519
 C421 C 0.65456 0.90515 0.90415
 C422 C 0.62630 0.92048 0.92066
   
