data_POSCAR
  _audit_creation_date              2014-09-24
  _audit_creation_method            'ToBaCCo'
  _symmetry_space_group_name_H-M    'P1'
  _symmetry_Int_Tables_number       1
  _symmetry_cell_setting            triclinic
  loop_
  _symmetry_equiv_pos_as_xyz
 x,y,z
_cell_length_a 16.6484
_cell_length_b 16.6591
_cell_length_c 30.3261
_cell_angle_alpha 90.159000
_cell_angle_beta 89.978800
_cell_angle_gamma 119.527400
loop_
  _atom_site_label
  _atom_site_type_symbol
  _atom_site_fract_x
  _atom_site_fract_y
  _atom_site_fract_z
Zn1 Zn 0.93287 0.05626 1.01853
 Zn2 Zn 1.10727 0.04427 1.02002
 Zn3 Zn 0.92344 -0.12786 1.02034
 Zn4 Zn 0.98889 -0.01252 0.93997
 O5 O 0.98816 -0.00979 0.99986
 O6 O 1.00985 0.15494 1.05083
 O7 O 1.12863 -0.03214 1.05329
 O8 O 0.82987 -0.14502 1.05489
 O9 O 1.13735 0.14449 1.05301
 O10 O 0.83496 -0.00952 1.05364
 O11 O 0.99200 -0.15913 1.05362
 O12 O 0.92688 -0.12604 0.91768
 O13 O 1.19109 0.08207 0.97658
 O14 O 0.87708 -0.21297 0.97741
 O15 O 1.10216 0.03636 0.91749
 O16 O 0.93968 0.05052 0.91605
 O17 O 0.89480 0.10021 0.97377
 C18 C 1.09272 0.18542 1.06330
 C19 C 1.07608 -0.11502 1.06509
 C20 C 0.80021 -0.09176 1.06755
 C21 C 0.88397 -0.20449 0.93582
 C22 C 1.18163 0.07416 0.93504
 C23 C 0.90345 0.09526 0.93240
 Zn24 Zn 0.04578 0.93000 0.52165
 Zn25 Zn -0.13323 0.93285 0.51732
 Zn26 Zn 0.04714 1.11037 0.51945
 Zn27 Zn -0.00758 0.99210 0.44009
 O28 O -0.01205 0.99110 0.49986
 O29 O -0.02963 0.83339 0.55528
 O30 O -0.15934 1.00553 0.55080
 O31 O 0.14231 1.13460 0.55446
 O32 O -0.16190 0.83477 0.55131
 O33 O 0.14164 1.00159 0.55730
 O34 O -0.02599 1.13660 0.55251
 O35 O 0.04866 1.10530 0.41724
 O36 O -0.21427 0.89446 0.47232
 O37 O 0.09146 1.19423 0.47617
 O38 O -0.11874 0.93724 0.41559
 O39 O 0.05018 0.93488 0.41869
 O40 O 0.08863 0.88594 0.47878
 C41 C -0.11349 0.80133 0.56632
 C42 C -0.10965 1.08788 0.56405
 C43 C 0.17405 1.08494 0.56953
 C44 C 0.08679 1.18497 0.43461
 C45 C -0.19977 0.90148 0.43106
 C46 C 0.08632 0.89217 0.43709
 O47 O 0.19034 0.52051 0.29940
 O48 O 0.17538 0.66734 0.28703
 C49 C 0.23005 0.73930 0.30838
 O50 O 0.31467 0.78773 0.29854
 O51 O 0.47421 0.79931 0.28670
 C52 C 0.49860 0.74718 0.30583
 O53 O 0.45974 0.66088 0.29885
 O54 O 0.31100 0.49995 0.28689
 C55 C 0.23896 0.48343 0.30822
 O56 O 0.18658 0.49403 0.21107
 O57 O 0.17855 0.64479 0.19963
 C58 C 0.22071 0.72970 0.19008
 O59 O 0.29273 0.78938 0.20997
 O60 O 0.45205 0.79586 0.19921
 C61 C 0.49990 0.75667 0.19281
 O62 O 0.48303 0.68206 0.21158
 O63 O 0.33170 0.52536 0.19915
 C64 C 0.24634 0.48280 0.19003
 Cr65 Cr 0.18828 0.58440 0.24928
 Cr66 Cr 0.38048 0.78754 0.24859
 Cr67 Cr 0.39302 0.59441 0.24906
 O68 O 0.32070 0.65558 0.24864
 O69 O 0.79195 0.48676 0.78770
 O70 O 0.79638 0.33427 0.79834
 C71 C 0.75713 0.24879 0.80629
 O72 O 0.68387 0.18992 0.78680
 O73 O 0.52919 0.18927 0.80194
 C74 C 0.48475 0.23089 0.81075
 O75 O 0.49465 0.30042 0.78921
 O76 O 0.64745 0.45440 0.80196
 C77 C 0.73314 0.49710 0.81016
 O78 O 0.78671 0.46176 0.69941
 O79 O 0.79651 0.31027 0.71084
 C80 C 0.74040 0.23585 0.69122
 O81 O 0.65466 0.19138 0.69936
 O82 O 0.49551 0.18336 0.71465
 C83 C 0.47595 0.23886 0.69492
 O84 O 0.51877 0.32518 0.70166
 O85 O 0.66816 0.48374 0.71453
 C86 C 0.74217 0.50446 0.69389
 Cr87 Cr 0.78745 0.39551 0.74896
 Cr88 Cr 0.59330 0.19382 0.75059
 Cr89 Cr 0.58520 0.38849 0.75168
 O90 O 0.65538 0.32585 0.75021
 C91 C 0.12876 0.34811 0.08498
 C92 C 0.13753 0.26838 0.09189
 C93 C 0.18885 0.26594 0.12802
 C94 C 0.22632 0.33768 0.15858
 C95 C 0.21368 0.41420 0.15404
 C96 C 0.16698 0.42142 0.11647
 C97 C 0.08570 0.35832 0.04689
 C98 C 0.07880 0.43763 0.04052
 C99 C 0.11568 0.50878 0.07140
 C100 C 0.15990 0.50128 0.10889
 H101 H 0.05900 0.30668 0.02114
 H102 H 0.04573 0.44443 0.01113
 H103 H 0.11119 0.57068 0.06599
 H104 H 0.19031 0.55934 0.13125
 H105 H 0.19725 0.20626 0.13357
 H106 H 0.26268 0.33185 0.18694
 C107 C 0.74040 0.84307 0.14290
 C108 C 0.72759 0.87469 0.10154
 C109 C 0.64483 0.87406 0.09267
 C110 C 0.57262 0.83749 0.12305
 C111 C 0.58096 0.80032 0.16307
 C112 C 0.66685 0.80588 0.17404
 C113 C 0.82623 0.85066 0.15456
 C114 C 0.83925 0.82195 0.19571
 C115 C 0.76797 0.78633 0.22626
 C116 C 0.68298 0.77866 0.21583
 H117 H 0.88487 0.88062 0.13255
 H118 H 0.90545 0.82866 0.20418
 H119 H 0.77889 0.76560 0.25850
 H120 H 0.63189 0.75372 0.24161
 H121 H 0.63515 0.89986 0.06151
 H122 H 0.50878 0.83613 0.11478
 C123 C 0.19160 0.83218 0.08283
 C124 C 0.11259 0.83929 0.09389
 C125 C 0.06716 0.80296 0.13387
 C126 C 0.10186 0.76499 0.16406
 C127 C 0.18266 0.76192 0.15499
 C128 C 0.22704 0.79320 0.11376
 C129 C 0.23453 0.86032 0.04127
 C130 C 0.31093 0.85086 0.03058
 C131 C 0.34578 0.81318 0.06089
 C132 C 0.30454 0.78458 0.10218
 H133 H 0.20830 0.88779 0.01638
 H134 H 0.34266 0.87197 -0.00157
 H135 H 0.40445 0.80517 0.05209
 H136 H 0.33252 0.75406 0.12455
 H137 H 0.00588 0.80671 0.14240
 H138 H 0.06692 0.74034 0.19537
 C139 C 0.80899 0.73753 0.63977
 C140 C 0.84603 0.72676 0.59940
 C141 C 0.85081 0.64629 0.59185
 C142 C 0.81681 0.57527 0.62274
 C143 C 0.77861 0.58313 0.66265
 C144 C 0.77725 0.66628 0.67210
 C145 C 0.80643 0.81934 0.64964
 C146 C 0.77362 0.83076 0.69008
 C147 C 0.74626 0.76312 0.72219
 C148 C 0.74910 0.68238 0.71369
 H149 H 0.83052 0.87592 0.62669
 H150 H 0.77099 0.89321 0.69689
 H151 H 0.72362 0.77365 0.75409
 H152 H 0.73122 0.63457 0.74063
 H153 H 0.88033 0.63797 0.56149
 H154 H 0.81986 0.51319 0.61525
 C155 C 0.24575 0.17720 0.63964
 C156 C 0.24847 0.12462 0.60312
 C157 C 0.32288 0.10797 0.59901
 C158 C 0.39580 0.14525 0.62906
 C159 C 0.39671 0.20045 0.66415
 C160 C 0.32049 0.21535 0.67028
 C161 C 0.16883 0.18973 0.64761
 C162 C 0.16633 0.23966 0.68402
 C163 C 0.23910 0.27660 0.71383
 C164 C 0.31509 0.26423 0.70733
 H165 H 0.10881 0.15987 0.62664
 H166 H 0.10698 0.24868 0.68947
 H167 H 0.23615 0.31405 0.74245
 H168 H 0.36833 0.29186 0.73215
 H169 H 0.32529 0.06687 0.57182
 H170 H 0.45278 0.13196 0.62454
 C171 C 0.86763 0.11850 0.64265
 C172 C 0.85266 0.12474 0.59717
 C173 C 0.80007 0.16474 0.58351
 C174 C 0.76330 0.20004 0.61441
 C175 C 0.77837 0.19599 0.65958
 C176 C 0.82969 0.15380 0.67411
 C177 C 0.91863 0.07662 0.65758
 C178 C 0.93220 0.07013 0.70249
 C179 C 0.89385 0.10335 0.73331
 C180 C 0.84254 0.14414 0.71937
 H181 H 0.94789 0.04799 0.63477
 H182 H 0.97160 0.03806 0.71340
 H183 H 0.90335 0.09696 0.76818
 H184 H 0.81227 0.16704 0.74429
 H185 H 0.78783 0.16902 0.54873
 H186 H 0.72353 0.23145 0.60303
 C187 C 0.34844 0.11567 0.91624
 C188 C 0.26371 0.11299 0.90574
 C189 C 0.25615 0.15072 0.86574
 C190 C 0.32914 0.18990 0.83629
 C191 C 0.41331 0.19387 0.84563
 C192 C 0.42473 0.15933 0.88653
 C193 C 0.35927 0.07478 0.95493
 C194 C 0.44427 0.08262 0.96568
 C195 C 0.52000 0.13068 0.93822
 C196 C 0.51069 0.16874 0.89901
 H197 H 0.30273 0.03534 0.97707
 H198 H 0.45161 0.05180 0.99570
 H199 H 0.58624 0.13807 0.94723
 H200 H 0.57182 0.20689 0.87914
 H201 H 0.19277 0.15023 0.85703
 H202 H 0.31893 0.21612 0.80540
 C203 C 0.86381 0.64097 0.91105
 C204 C 0.84190 0.71294 0.90740
 C205 C 0.78164 0.70900 0.87422
 C206 C 0.74393 0.63615 0.84435
 C207 C 0.76681 0.56589 0.84612
 C208 C 0.82488 0.56617 0.88043
 C209 C 0.92536 0.64263 0.94360
 C210 C 0.94480 0.57044 0.94707
 C211 C 0.90372 0.49561 0.91832
 C212 C 0.84428 0.49321 0.88533
 H213 H 0.95937 0.69943 0.96653
 H214 H 0.99163 0.57237 0.97236
 H215 H 0.91809 0.43918 0.92153
 H216 H 0.81266 0.43323 0.86425
 H217 H 0.76436 0.76353 0.87113
 H218 H 0.69872 0.63627 0.81871
 C219 C 0.93105 0.20400 0.86907
 C220 C 0.87211 0.14323 0.90204
 C221 C 0.77968 0.12180 0.90373
 C222 C 0.74395 0.15664 0.87237
 C223 C 0.79995 0.21559 0.83896
 C224 C 0.89463 0.23976 0.83697
 C225 C 1.02572 0.23000 0.86732
 C226 C 1.08206 0.28616 0.83359
 C227 C 1.04581 0.31819 0.80127
 C228 C 0.95338 0.29575 0.80288
 H229 H 1.05737 0.20772 0.89198
 H230 H 1.15412 0.30454 0.83242
 H231 H 1.08952 0.36065 0.77475
 H232 H 0.92857 0.32090 0.77645
 H233 H 0.73393 0.07499 0.92860
 H234 H 0.67157 0.13678 0.87398
 C235 C 0.72687 0.91915 0.36135
 C236 C 0.72201 0.86857 0.39983
 C237 C 0.64420 0.78216 0.40697
 C238 C 0.57292 0.74391 0.37611
 C239 C 0.57745 0.79050 0.33696
 C240 C 0.65639 0.87828 0.32871
 C241 C 0.80008 1.01018 0.35470
 C242 C 0.80823 1.05648 0.31538
 C243 C 0.74379 1.01372 0.28201
 C244 C 0.66863 0.92594 0.28844
 H245 H 0.85112 1.04731 0.37988
 H246 H 0.86533 1.12561 0.31065
 H247 H 0.75156 1.04904 0.25106
 H248 H 0.62221 0.89620 0.26091
 H249 H 0.63945 0.74296 0.43625
 H250 H 0.51356 0.67712 0.38289
 C251 C 0.14054 0.35567 0.41687
 C252 C 0.12795 0.26708 0.40512
 C253 C 0.15660 0.25518 0.36318
 C254 C 0.19492 0.32684 0.33297
 C255 C 0.20761 0.41388 0.34362
 C256 C 0.18460 0.43028 0.38641
 C257 C 0.10901 0.37254 0.45735
 C258 C 0.12845 0.46134 0.46912
 C259 C 0.17854 0.53499 0.44088
 C260 C 0.20571 0.51982 0.39970
 H261 H 0.06763 0.31837 0.48019
 H262 H 0.10464 0.47308 0.50042
 H263 H 0.19451 0.60395 0.45049
 H264 H 0.24380 0.57887 0.37851
 H265 H 0.14867 0.18911 0.35328
 H266 H 0.21298 0.31352 0.30047
 C267 C 0.08462 0.75105 0.40500
 C268 C 0.12506 0.84807 0.40858
 C269 C 0.19886 0.90502 0.38131
 C270 C 0.23285 0.86775 0.35036
 C271 C 0.19312 0.77193 0.34482
 C272 C 0.11870 0.71219 0.37297
 C273 C 0.00939 0.69180 0.43197
 C274 C -0.03031 0.59641 0.42836
 C275 C 0.00376 0.55823 0.39794
 C276 C 0.07740 0.61504 0.37065
 H277 H -0.01949 0.71840 0.45607
 H278 H -0.08754 0.55188 0.44943
 H279 H -0.02653 0.48403 0.39569
 H280 H 0.10182 0.58098 0.34872
 H281 H 0.22958 0.97935 0.38351
 H282 H 0.28908 0.91483 0.32940
   
