data_POSCAR
  _audit_creation_date              2014-09-24
  _audit_creation_method            'ToBaCCo'
  _symmetry_space_group_name_H-M    'P1'
  _symmetry_Int_Tables_number       1
  _symmetry_cell_setting            triclinic
  loop_
  _symmetry_equiv_pos_as_xyz
 x,y,z
_cell_length_a 52.5277
_cell_length_b 52.3706
_cell_length_c 52.5087
_cell_angle_alpha 89.996400
_cell_angle_beta 89.997600
_cell_angle_gamma 89.997200
loop_
  _atom_site_label
  _atom_site_type_symbol
  _atom_site_fract_x
  _atom_site_fract_y
  _atom_site_fract_z
C1 C 0.60595 0.62477 0.64469
 C2 C 0.58714 0.64379 0.64457
 C3 C 0.58720 0.66273 0.62572
 C4 C 0.60602 0.66276 0.60681
 C5 C 0.62497 0.64388 0.60664
 C6 C 0.62497 0.62479 0.62566
 C7 C 0.60607 0.60573 0.66349
 C8 C 0.62495 0.58680 0.66344
 C9 C 0.64387 0.58682 0.64460
 C10 C 0.64401 0.60571 0.62565
 C11 C 0.66282 0.60588 0.60669
 C12 C 0.66278 0.62482 0.58785
 C13 C 0.64392 0.64375 0.58781
 H14 H 0.57247 0.64390 0.65911
 H15 H 0.60589 0.67749 0.59228
 H16 H 0.59149 0.60565 0.67813
 H17 H 0.65845 0.57214 0.64467
 H18 H 0.67749 0.59130 0.60655
 H19 H 0.64405 0.65834 0.57315
 C20 C 0.89459 0.37476 0.14406
 C21 C 0.91338 0.35572 0.14394
 C22 C 0.91333 0.33679 0.12506
 C23 C 0.89450 0.33681 0.10613
 C24 C 0.87557 0.35572 0.10598
 C25 C 0.87558 0.37479 0.12503
 C26 C 0.89447 0.39376 0.16289
 C27 C 0.87562 0.41269 0.16285
 C28 C 0.85673 0.41275 0.14402
 C29 C 0.85656 0.39389 0.12504
 C30 C 0.83776 0.39378 0.10607
 C31 C 0.83779 0.37486 0.08720
 C32 C 0.85662 0.35591 0.08715
 H33 H 0.92802 0.35563 0.15852
 H34 H 0.89456 0.32213 0.09154
 H35 H 0.90900 0.39386 0.17756
 H36 H 0.84220 0.42747 0.14415
 H37 H 0.82311 0.40838 0.10594
 H38 H 0.85647 0.34134 0.07247
 C39 C 0.39403 0.12473 -0.14462
 C40 C 0.41285 0.14374 -0.14449
 C41 C 0.41279 0.16267 -0.12564
 C42 C 0.39396 0.16271 -0.10674
 C43 C 0.37500 0.14384 -0.10658
 C44 C 0.37500 0.12475 -0.12560
 C45 C 0.39391 0.10570 -0.16343
 C46 C 0.37503 0.08677 -0.16338
 C47 C 0.35611 0.08679 -0.14454
 C48 C 0.35596 0.10568 -0.12560
 C49 C 0.33714 0.10585 -0.10664
 C50 C 0.33718 0.12479 -0.08780
 C51 C 0.35604 0.14372 -0.08776
 H52 H 0.42752 0.14385 -0.15903
 H53 H 0.39409 0.17743 -0.09221
 H54 H 0.40849 0.10562 -0.17807
 H55 H 0.34153 0.07210 -0.14461
 H56 H 0.32247 0.09127 -0.10650
 H57 H 0.35590 0.15831 -0.07310
 C58 C 0.10533 0.87475 0.35598
 C59 C 0.08654 0.85571 0.35611
 C60 C 0.08660 0.83678 0.37499
 C61 C 0.10543 0.83680 0.39392
 C62 C 0.12436 0.85571 0.39406
 C63 C 0.12435 0.87478 0.37501
 C64 C 0.10545 0.89376 0.33715
 C65 C 0.12429 0.91269 0.33720
 C66 C 0.14319 0.91275 0.35602
 C67 C 0.14336 0.89388 0.37500
 C68 C 0.16217 0.89377 0.39397
 C69 C 0.16214 0.87485 0.41283
 C70 C 0.14332 0.85589 0.41288
 H71 H 0.07190 0.85562 0.34152
 H72 H 0.10538 0.82212 0.40850
 H73 H 0.09091 0.89386 0.32248
 H74 H 0.15771 0.92747 0.35589
 H75 H 0.17681 0.90837 0.39409
 H76 H 0.14346 0.84132 0.42757
 N77 N 0.09400 0.16562 0.11400
 N78 N 0.08366 0.15484 0.13409
 C79 C 0.06304 0.16841 0.14112
 C80 C 0.06025 0.18886 0.12453
 C81 C 0.08033 0.18635 0.10755
 H82 H 0.05106 0.16377 0.15717
 H83 H 0.08486 0.19870 0.09171
 Cu84 Cu 0.09882 0.12456 0.14927
 Cu85 Cu 0.12453 0.15213 0.09769
 Cu86 Cu 0.15168 0.09819 0.12489
 N87 N 0.11399 0.09430 0.16448
 N88 N 0.13486 0.08431 0.15495
 C89 C 0.14170 0.06400 0.16906
 C90 C 0.12419 0.06098 0.18860
 C91 C 0.10685 0.08065 0.18501
 H92 H 0.15830 0.05242 0.16532
 H93 H 0.09029 0.08479 0.19647
 N94 N 0.16573 0.11512 0.09443
 N95 N 0.15537 0.13557 0.08405
 C96 C 0.16908 0.14230 0.06345
 C97 C 0.18912 0.12529 0.06065
 C98 C 0.18631 0.10834 0.08073
 H99 H 0.16467 0.15837 0.05134
 H100 H 0.19828 0.09215 0.08506
 H101 H 0.11978 0.11472 0.10911
 H102 H 0.13971 0.13540 0.13008
 N103 N 0.40517 0.83452 0.61483
 N104 N 0.41555 0.84537 0.63486
 C105 C 0.43619 0.83184 0.64188
 C106 C 0.43895 0.81133 0.62537
 C107 C 0.41883 0.81376 0.60844
 H108 H 0.44822 0.83657 0.65788
 H109 H 0.41427 0.80136 0.59265
 Cu110 Cu 0.40043 0.87571 0.64994
 Cu111 Cu 0.37467 0.84797 0.59847
 Cu112 Cu 0.34768 0.90212 0.62540
 N113 N 0.38530 0.90604 0.66505
 N114 N 0.36452 0.91611 0.65542
 C115 C 0.35770 0.93646 0.66946
 C116 C 0.37512 0.93942 0.68910
 C117 C 0.39240 0.91969 0.68560
 H118 H 0.34118 0.94812 0.66562
 H119 H 0.40887 0.91546 0.69717
 N120 N 0.33361 0.88511 0.59501
 N121 N 0.34386 0.86452 0.58478
 C122 C 0.33009 0.85768 0.56425
 C123 C 0.31015 0.87478 0.56131
 C124 C 0.31307 0.89190 0.58124
 H125 H 0.33439 0.84147 0.55230
 H126 H 0.30122 0.90821 0.58542
 H127 H 0.37956 0.88541 0.60968
 H128 H 0.35958 0.86487 0.63072
 N129 N 0.90594 0.66561 0.38604
 N130 N 0.91628 0.65484 0.36595
 C131 C 0.93691 0.66839 0.35894
 C132 C 0.93967 0.68887 0.37550
 C133 C 0.91959 0.68636 0.39248
 H134 H 0.94889 0.66376 0.34288
 H135 H 0.91507 0.69870 0.40832
 Cu136 Cu 0.90111 0.62456 0.35078
 Cu137 Cu 0.87540 0.65213 0.40234
 Cu138 Cu 0.84824 0.59819 0.37516
 N139 N 0.88594 0.59430 0.33557
 N140 N 0.86508 0.58430 0.34510
 C141 C 0.85822 0.56401 0.33098
 C142 C 0.87573 0.56099 0.31144
 C143 C 0.89310 0.58064 0.31505
 H144 H 0.84164 0.55241 0.33474
 H145 H 0.90965 0.58479 0.30358
 N146 N 0.83420 0.61513 0.40560
 N147 N 0.84455 0.63559 0.41598
 C148 C 0.83084 0.64232 0.43658
 C149 C 0.81082 0.62530 0.43940
 C150 C 0.81362 0.60835 0.41932
 H151 H 0.83526 0.65838 0.44869
 H152 H 0.80166 0.59215 0.41501
 H153 H 0.88012 0.61468 0.39092
 H154 H 0.86020 0.63536 0.36995
 N155 N 0.59562 0.33363 -0.11565
 N156 N 0.58576 0.34396 -0.13620
 C157 C 0.56513 0.33042 -0.14324
 C158 C 0.56182 0.31046 -0.12616
 C159 C 0.58166 0.31318 -0.10894
 H160 H 0.55332 0.33492 -0.15947
 H161 H 0.58570 0.30130 -0.09261
 Cu162 Cu 0.60069 0.37449 -0.15111
 Cu163 Cu 0.62557 0.34764 -0.09875
 Cu164 Cu 0.65196 0.40237 -0.12508
 N165 N 0.61562 0.40503 -0.16601
 N166 N 0.63549 0.41599 -0.15547
 C167 C 0.64181 0.43684 -0.16902
 C168 C 0.62506 0.43917 -0.18930
 C169 C 0.60867 0.41854 -0.18671
 H170 H 0.65750 0.44932 -0.16433
 H171 H 0.59286 0.41368 -0.19893
 N172 N 0.66577 0.38562 -0.09442
 N173 N 0.65587 0.36469 -0.08454
 C174 C 0.66981 0.35770 -0.06418
 C175 C 0.68945 0.37508 -0.06095
 C176 C 0.68618 0.39253 -0.08053
 H177 H 0.66597 0.34104 -0.05268
 H178 H 0.69781 0.40906 -0.08449
 H179 H 0.61993 0.38507 -0.11019
 H180 H 0.64105 0.36490 -0.13047
 C181 C 0.02148 0.24754 0.10681
 C182 C 0.00248 0.24725 0.12546
 C183 C 0.00242 0.22802 0.14395
 C184 C 0.02120 0.20908 0.14373
 C185 C -0.06840 0.31830 0.12516
 C186 C 0.04027 0.22864 0.10653
 C187 C -0.01697 0.26663 0.12554
 C188 C -0.03322 0.28289 0.12547
 C189 C -0.05221 0.30197 0.12530
 C190 C 0.04035 0.20908 0.12495
 H191 H 0.02175 0.26237 0.09242
 H192 H -0.01217 0.22762 0.15854
 H193 H 0.02056 0.19450 0.15829
 H194 H 0.05462 0.22947 0.09181
 C195 C 0.49696 0.77241 0.64467
 C196 C 0.49689 0.75314 0.62623
 C197 C 0.47784 0.75275 0.60764
 C198 C 0.45899 0.77159 0.60738
 C199 C 0.56788 0.68223 0.62585
 C200 C 0.47813 0.79130 0.64447
 C201 C 0.51637 0.73381 0.62629
 C202 C 0.53266 0.71758 0.62620
 C203 C 0.55167 0.69853 0.62601
 C204 C 0.45890 0.79118 0.62576
 H205 H 0.51160 0.77288 0.65921
 H206 H 0.47756 0.73789 0.59329
 H207 H 0.44460 0.77069 0.59271
 H208 H 0.47878 0.80591 0.65899
 C209 C 0.97846 0.74753 0.39323
 C210 C 0.99746 0.74724 0.37457
 C211 C 0.99752 0.72801 0.35608
 C212 C 0.97874 0.70907 0.35631
 C213 C 1.06833 0.81829 0.37489
 C214 C 0.95967 0.72863 0.39351
 C215 C 1.01691 0.76662 0.37450
 C216 C 1.03316 0.78288 0.37458
 C217 C 1.05214 0.80196 0.37475
 C218 C 0.95958 0.70907 0.37509
 H219 H 0.97819 0.76236 0.40762
 H220 H 1.01211 0.72761 0.34150
 H221 H 0.97937 0.69450 0.34175
 H222 H 0.94532 0.72946 0.40823
 C223 C 0.50320 0.27217 -0.14484
 C224 C 0.50283 0.25335 -0.12594
 C225 C 0.52156 0.25327 -0.10702
 C226 C 0.54068 0.27183 -0.10704
 C227 C 0.43208 0.18220 -0.12576
 C228 C 0.52231 0.29077 -0.14492
 C229 C 0.48334 0.23402 -0.12599
 C230 C 0.46712 0.21772 -0.12597
 C231 C 0.44821 0.19857 -0.12587
 C232 C 0.54139 0.29080 -0.12606
 H233 H 0.48874 0.27246 -0.15955
 H234 H 0.52142 0.23883 -0.09225
 H235 H 0.55485 0.27115 -0.09214
 H236 H 0.52204 0.30500 -0.15982
 C237 C 0.10485 0.02196 0.24655
 C238 C 0.12391 0.00331 0.24707
 C239 C 0.14309 0.00354 0.22861
 C240 C 0.14323 0.02228 0.20966
 C241 C 0.12416 -0.06781 0.31787
 C242 C 0.10494 0.04075 0.22761
 C243 C 0.12383 -0.01607 0.26652
 C244 C 0.12388 -0.03236 0.28274
 C245 C 0.12402 -0.05147 0.30169
 C246 C 0.12412 0.04114 0.20886
 H247 H 0.08991 0.02199 0.26077
 H248 H 0.15797 -0.01080 0.22884
 H249 H 0.15835 0.02184 0.19571
 H250 H 0.08993 0.05486 0.22778
 C251 C 0.60621 0.47784 -0.24765
 C252 C 0.62460 0.49716 -0.24748
 C253 C 0.64305 0.49762 -0.22829
 C254 C 0.64319 0.47884 -0.20938
 C255 C 0.62486 0.56831 -0.31829
 C256 C 0.60629 0.45902 -0.22875
 C257 C 0.62455 0.51654 -0.26694
 C258 C 0.62462 0.53282 -0.28318
 C259 C 0.62474 0.55195 -0.30213
 C260 C 0.62482 0.45923 -0.20936
 H261 H 0.59181 0.47730 -0.26241
 H262 H 0.65738 0.51250 -0.22795
 H263 H 0.65776 0.47979 -0.19488
 H264 H 0.59181 0.44438 -0.22947
 C265 C 0.39424 0.97832 0.74721
 C266 C 0.37521 0.99699 0.74769
 C267 C 0.35608 0.99679 0.72917
 C268 C 0.35601 0.97809 0.71018
 C269 C 0.37512 1.06827 0.81835
 C270 C 0.39422 0.95957 0.72824
 C271 C 0.37530 1.01640 0.76711
 C272 C 0.37529 1.03273 0.78330
 C273 C 0.37521 1.05190 0.80221
 C274 C 0.37512 0.95923 0.70940
 H275 H 0.40914 0.97825 0.76149
 H276 H 0.34121 1.01114 0.72937
 H277 H 0.34094 0.97856 0.69618
 H278 H 0.40922 0.94544 0.72843
 C279 C 0.85683 0.50355 0.27144
 C280 C 0.87601 0.50332 0.25298
 C281 C 0.89507 0.52197 0.25350
 C282 C 0.89499 0.54075 0.27244
 C283 C 0.87575 0.43219 0.18218
 C284 C 0.85670 0.52229 0.29039
 C285 C 0.87610 0.48393 0.23354
 C286 C 0.87604 0.46763 0.21732
 C287 C 0.87589 0.44852 0.19836
 C288 C 0.87581 0.54114 0.29119
 H289 H 0.84196 0.48921 0.27121
 H290 H 0.91002 0.52199 0.23928
 H291 H 0.91000 0.55487 0.27226
 H292 H 0.84158 0.52185 0.30434
 C293 C 0.22790 0.14367 0.00230
 C294 C 0.24680 0.12487 0.00234
 C295 C 0.24685 0.10615 0.02133
 C296 C 0.22813 0.10625 0.04027
 C297 C 0.31777 0.12481 -0.06843
 C298 C 0.20915 0.14383 0.02120
 C299 C 0.26619 0.12482 -0.01705
 C300 C 0.28245 0.12481 -0.03326
 C301 C 0.30151 0.12481 -0.05223
 C302 C 0.20902 0.12513 0.04049
 H303 H 0.22765 0.15826 -0.01234
 H304 H 0.26139 0.09147 0.02155
 H305 H 0.22878 0.09151 0.05465
 H306 H 0.19486 0.15867 0.02059
 C307 C 0.75309 0.60616 0.47871
 C308 C 0.75314 0.62488 0.49771
 C309 C 0.77204 0.64369 0.49775
 C310 C 0.79078 0.64384 0.47884
 C311 C 0.68218 0.62484 0.56848
 C312 C 0.77180 0.60627 0.45978
 C313 C 0.73375 0.62484 0.51710
 C314 C 0.71750 0.62483 0.53331
 C315 C 0.69844 0.62483 0.55227
 C316 C 0.79092 0.62514 0.45956
 H317 H 0.73855 0.59149 0.47850
 H318 H 0.77228 0.65827 0.51238
 H319 H 0.80507 0.65868 0.47946
 H320 H 0.77116 0.59152 0.44540
 C321 C 0.74727 0.39405 -0.02169
 C322 C 0.74762 0.37490 -0.00313
 C323 C 0.72904 0.35577 -0.00345
 C324 C 0.71016 0.35579 -0.02222
 C325 C 0.81842 0.37489 0.06779
 C326 C 0.72842 0.39411 -0.04049
 C327 C 0.76700 0.37490 0.01626
 C328 C 0.78322 0.37491 0.03251
 C329 C 0.80221 0.37490 0.05154
 C330 C 0.70956 0.37499 -0.04101
 H331 H 0.76157 0.40896 -0.02163
 H332 H 0.72912 0.34084 0.01083
 H333 H 0.69611 0.34072 -0.02187
 H334 H 0.72876 0.40920 -0.05453
 C335 C 0.25237 0.89378 0.52201
 C336 C 0.25233 0.87493 0.50314
 C337 C 0.27117 0.85606 0.50321
 C338 C 0.28998 0.85601 0.52206
 C339 C 0.18152 0.87488 0.43223
 C340 C 0.27114 0.89378 0.54088
 C341 C 0.23296 0.87492 0.48374
 C342 C 0.21673 0.87492 0.46750
 C343 C 0.19774 0.87489 0.44848
 C344 C 0.29021 0.87486 0.54120
 H345 H 0.23787 0.90850 0.52215
 H346 H 0.27134 0.84137 0.48868
 H347 H 0.30423 0.84113 0.52151
 H348 H 0.27057 0.90863 0.55516
   
