data_POSCAR
  _audit_creation_date              2014-09-24
  _audit_creation_method            'ToBaCCo'
  _symmetry_space_group_name_H-M    'P1'
  _symmetry_Int_Tables_number       1
  _symmetry_cell_setting            triclinic
  loop_
  _symmetry_equiv_pos_as_xyz
 x,y,z
_cell_length_a 46.4323
_cell_length_b 45.6388
_cell_length_c 46.6865
_cell_angle_alpha 88.737500
_cell_angle_beta 88.667900
_cell_angle_gamma 90.984700
loop_
  _atom_site_label
  _atom_site_type_symbol
  _atom_site_fract_x
  _atom_site_fract_y
  _atom_site_fract_z
N1 N 0.28804 0.24003 0.21323
 N2 N 0.28323 0.26825 0.21040
 C3 C 0.30262 0.28047 0.19177
 C4 C 0.32025 0.25878 0.18189
 C5 C 0.31055 0.23325 0.19593
 H6 H 0.30326 0.30335 0.18516
 H7 H 0.31939 0.21159 0.19402
 Cu8 Cu 0.25043 0.28657 0.22835
 Cu9 Cu 0.26546 0.21529 0.24063
 Cu10 Cu 0.20042 0.24395 0.26250
 N11 N 0.21108 0.29911 0.23355
 N12 N 0.19116 0.28216 0.24607
 C13 C 0.16572 0.29592 0.24545
 C14 C 0.17015 0.32286 0.23165
 C15 C 0.19913 0.32416 0.22449
 H16 H 0.14562 0.28688 0.25417
 H17 H 0.21060 0.34186 0.21312
 N18 N 0.21419 0.20597 0.27688
 N19 N 0.23915 0.19492 0.26888
 C20 C 0.24385 0.17061 0.28500
 C21 C 0.22065 0.16637 0.30397
 C22 C 0.20233 0.18905 0.29809
 H23 H 0.26327 0.15792 0.28398
 H24 H 0.18253 0.19375 0.30962
 H25 H 0.22979 0.23769 0.22842
 H26 H 0.24573 0.24734 0.26380
 N27 N 0.71203 -0.21858 0.21182
 N28 N 0.72152 -0.24115 0.19759
 C29 C 0.70385 -0.24645 0.17576
 C30 C 0.68206 -0.22609 0.17642
 C31 C 0.68795 -0.20875 0.19956
 H32 H 0.70654 -0.26396 0.16079
 H33 H 0.67552 -0.19047 0.20699
 Cu34 Cu 0.75566 -0.26182 0.20951
 Cu35 Cu 0.73133 -0.20397 0.24550
 Cu36 Cu 0.79233 -0.24084 0.26678
 N37 N 0.78996 -0.28224 0.22139
 N38 N 0.80428 -0.27377 0.24381
 C39 C 0.82684 -0.29146 0.24762
 C40 C 0.82651 -0.31225 0.22645
 C41 C 0.80286 -0.30575 0.21021
 H42 H 0.84199 -0.28946 0.26472
 H43 H 0.79559 -0.31745 0.19175
 N44 N 0.77691 -0.20698 0.28719
 N45 N 0.75392 -0.19270 0.27894
 C46 C 0.74897 -0.17075 0.29716
 C47 C 0.76982 -0.17140 0.31785
 C48 C 0.78707 -0.19459 0.31092
 H49 H 0.73130 -0.15573 0.29571
 H50 H 0.80562 -0.20191 0.32249
 H51 H 0.77186 -0.21839 0.23440
 H52 H 0.74892 -0.24344 0.25778
 N53 N 0.71233 0.22264 0.78990
 N54 N 0.72307 0.24532 0.80316
 C55 C 0.70483 0.25257 0.82461
 C56 C 0.68145 0.23335 0.82472
 C57 C 0.68689 0.21472 0.80242
 H58 H 0.70820 0.27058 0.83886
 H59 H 0.67326 0.19678 0.79579
 Cu60 Cu 0.75958 0.26351 0.79087
 Cu61 Cu 0.73194 0.20520 0.75730
 Cu62 Cu 0.79661 0.23786 0.73431
 N63 N 0.79551 0.28201 0.77716
 N64 N 0.81002 0.27170 0.75519
 C65 C 0.83369 0.28858 0.74995
 C66 C 0.83393 0.31080 0.76969
 C67 C 0.80943 0.30595 0.78661
 H68 H 0.84915 0.28513 0.73275
 H69 H 0.80219 0.31913 0.80426
 N70 N 0.77959 0.20347 0.71592
 N71 N 0.75506 0.19086 0.72474
 C72 C 0.74907 0.16827 0.70762
 C73 C 0.77087 0.16676 0.68704
 C74 C 0.78976 0.18934 0.69290
 H75 H 0.73003 0.15436 0.70964
 H76 H 0.80935 0.19515 0.68097
 H77 H 0.77302 0.21810 0.76786
 H78 H 0.75315 0.24325 0.74351
 N79 N 0.29520 -0.22941 0.79947
 N80 N 0.28490 -0.25555 0.80690
 C81 C 0.30126 -0.26719 0.82755
 C82 C 0.32261 -0.24709 0.83368
 C83 C 0.31822 -0.22326 0.81548
 H84 H 0.29795 -0.28865 0.83745
 H85 H 0.33132 -0.20342 0.81342
 Cu86 Cu 0.25071 -0.27158 0.78957
 Cu87 Cu 0.27882 -0.20682 0.76793
 Cu88 Cu 0.21714 -0.23587 0.73684
 N89 N 0.21655 -0.28794 0.77247
 N90 N 0.20280 -0.27387 0.75223
 C91 C 0.17972 -0.29016 0.74477
 C92 C 0.17925 -0.31580 0.76140
 C93 C 0.20286 -0.31360 0.77861
 H94 H 0.16471 -0.28392 0.72841
 H95 H 0.20950 -0.32959 0.79444
 N96 N 0.23537 -0.19794 0.72441
 N97 N 0.25914 -0.18746 0.73578
 C98 C 0.26793 -0.16321 0.72088
 C99 C 0.24869 -0.15789 0.69943
 C100 C 0.22822 -0.18023 0.70225
 H101 H 0.28742 -0.15074 0.72468
 H102 H 0.21045 -0.18416 0.68819
 H103 H 0.23705 -0.22263 0.77359
 H104 H 0.26005 -0.24137 0.74660
 N105 N 0.72037 -0.23484 0.79542
 N106 N 0.72807 -0.25955 0.80780
 C107 C 0.71239 -0.26379 0.83230
 C108 C 0.69398 -0.24037 0.83514
 C109 C 0.69970 -0.22252 0.81145
 H110 H 0.71389 -0.28269 0.84653
 H111 H 0.68897 -0.20240 0.80590
 Cu112 Cu 0.75721 -0.28409 0.79013
 Cu113 Cu 0.73557 -0.22156 0.75829
 Cu114 Cu 0.79468 -0.25793 0.73206
 N115 N 0.79402 -0.30047 0.77819
 N116 N 0.80891 -0.28939 0.75610
 C117 C 0.83312 -0.30469 0.75234
 C118 C 0.83341 -0.32678 0.77314
 C119 C 0.80829 -0.32343 0.78922
 H120 H 0.84873 -0.30045 0.73516
 H121 H 0.80081 -0.33691 0.80734
 N122 N 0.78036 -0.22187 0.71398
 N123 N 0.75782 -0.20790 0.72415
 C124 C 0.75306 -0.18433 0.70721
 C125 C 0.77358 -0.18355 0.68527
 C126 C 0.79051 -0.20760 0.69019
 H127 H 0.73568 -0.16921 0.71041
 H128 H 0.80871 -0.21429 0.67719
 H129 H 0.75153 -0.26013 0.74285
 H130 H 0.77520 -0.23896 0.76697
 N131 N 0.29209 0.22161 0.79413
 N132 N 0.27877 0.24165 0.80898
 C133 C 0.29429 0.24775 0.83226
 C134 C 0.31854 0.23050 0.83178
 C135 C 0.31643 0.21429 0.80734
 H136 H 0.28851 0.26366 0.84812
 H137 H 0.33155 0.19825 0.79983
 Cu138 Cu 0.24282 0.25828 0.79613
 Cu139 Cu 0.27660 0.20566 0.75943
 Cu140 Cu 0.21324 0.23467 0.73486
 N141 N 0.20971 0.27706 0.77932
 N142 N 0.19787 0.26758 0.75587
 C143 C 0.17616 0.28537 0.74876
 C144 C 0.17445 0.30720 0.76883
 C145 C 0.19602 0.30125 0.78784
 H146 H 0.16337 0.28319 0.72985
 H147 H 0.20175 0.31411 0.80610
 N148 N 0.23264 0.20162 0.71639
 N149 N 0.25771 0.19190 0.72490
 C150 C 0.26686 0.17126 0.70686
 C151 C 0.24644 0.16743 0.68630
 C152 C 0.22493 0.18696 0.69288
 H153 H 0.28692 0.15971 0.70847
 H154 H 0.20572 0.19094 0.68083
 H155 H 0.25467 0.24329 0.74755
 H156 H 0.23367 0.21436 0.76847
 N157 N 0.28469 -0.21574 0.20945
 N158 N 0.27519 -0.23799 0.19472
 C159 C 0.29286 -0.24163 0.17182
 C160 C 0.31458 -0.22051 0.17236
 C161 C 0.30875 -0.20453 0.19650
 H162 H 0.29048 -0.25871 0.15634
 H163 H 0.32136 -0.18631 0.20422
 Cu164 Cu 0.24138 -0.26066 0.20783
 Cu165 Cu 0.26563 -0.20339 0.24471
 Cu166 Cu 0.20505 -0.24355 0.26803
 N167 N 0.20741 -0.28307 0.22092
 N168 N 0.19322 -0.27611 0.24443
 C169 C 0.17080 -0.29489 0.24874
 C170 C 0.17101 -0.31472 0.22675
 C171 C 0.19453 -0.30665 0.20954
 H172 H 0.15575 -0.29430 0.26672
 H173 H 0.20167 -0.31729 0.19023
 N174 N 0.22048 -0.20980 0.28882
 N175 N 0.24340 -0.19439 0.27982
 C176 C 0.24844 -0.17287 0.29844
 C177 C 0.22773 -0.17491 0.32019
 C178 C 0.21043 -0.19853 0.31345
 H179 H 0.26600 -0.15707 0.29641
 H180 H 0.19186 -0.20682 0.32569
 H181 H 0.24819 -0.24409 0.25656
 H182 H 0.22493 -0.21916 0.23539
 N183 N 0.70221 0.23195 0.20968
 N184 N 0.71903 0.24845 0.19271
 C185 C 0.70502 0.25460 0.16834
 C186 C 0.67802 0.24114 0.17050
 C187 C 0.67699 0.22722 0.19696
 H188 H 0.71401 0.26722 0.15030
 H189 H 0.65932 0.21403 0.20602
 Cu190 Cu 0.75776 0.25959 0.20429
 Cu191 Cu 0.71423 0.21654 0.24648
 Cu192 Cu 0.78589 0.22638 0.26194
 N193 N 0.79204 0.27528 0.22243
 N194 N 0.80269 0.26210 0.24506
 C195 C 0.82501 0.27798 0.25450
 C196 C 0.82860 0.30246 0.23694
 C197 C 0.80743 0.30014 0.21662
 H198 H 0.83716 0.27257 0.27334
 H199 H 0.80273 0.31591 0.19981
 N200 N 0.75989 0.20010 0.28456
 N201 N 0.73208 0.19775 0.27971
 C202 C 0.71949 0.18054 0.30035
 C203 C 0.74053 0.17119 0.31858
 C204 C 0.76595 0.18395 0.30806
 H205 H 0.69676 0.17498 0.30194
 H206 H 0.78706 0.18232 0.31721
 H207 H 0.74724 0.24563 0.25400
 H208 H 0.75533 0.21313 0.23171
 C209 C 0.23615 0.01546 0.47260
 C210 C 0.23777 -0.01543 0.47510
 C211 C 0.23453 -0.02905 0.50236
 C212 C 0.22918 -0.01278 0.52705
 C213 C 0.22745 0.01801 0.52455
 C214 C 0.23108 0.03171 0.49741
 H215 H 0.23002 0.05538 0.49563
 H216 H 0.23611 -0.05265 0.50449
 C217 C 0.74745 0.01035 0.53115
 C218 C 0.74782 -0.02057 0.53065
 C219 C 0.74887 -0.03458 0.50414
 C220 C 0.75019 -0.01853 0.47812
 C221 C 0.74959 0.01236 0.47865
 C222 C 0.74819 0.02636 0.50513
 H223 H 0.74810 0.05007 0.50552
 H224 H 0.74784 -0.05830 0.50380
 C225 C 0.52628 0.26112 0.01352
 C226 C 0.52479 0.26181 -0.01665
 C227 C 0.49769 0.26018 -0.02936
 C228 C 0.47209 0.25686 -0.01282
 C229 C 0.47356 0.25657 0.01735
 C230 C 0.50063 0.25881 0.03009
 H231 H 0.50182 0.25811 0.05324
 H232 H 0.49650 0.26208 -0.05246
 C233 C 0.47901 0.75923 -0.01204
 C234 C 0.47692 0.76058 0.01812
 C235 C 0.50195 0.75725 0.03419
 C236 C 0.52909 0.75343 0.02095
 C237 C 0.53113 0.75203 -0.00924
 C238 C 0.50602 0.75480 -0.02527
 H239 H 0.50759 0.75388 -0.04842
 H240 H 0.50021 0.75663 0.05736
 C241 C 0.00652 0.47244 0.23332
 C242 C -0.02383 0.47325 0.23436
 C243 C -0.03749 0.50017 0.23767
 C244 C -0.02162 0.52654 0.23949
 C245 C 0.00881 0.52581 0.23868
 C246 C 0.02243 0.49870 0.23594
 H247 H 0.04569 0.49796 0.23680
 H248 H -0.06082 0.50063 0.23833
 C249 C 0.02337 0.52365 0.73738
 C250 C -0.00702 0.52292 0.74007
 C251 C -0.02164 0.49571 0.74081
 C252 C -0.00681 0.46915 0.73981
 C253 C 0.02361 0.46980 0.73764
 C254 C 0.03823 0.49706 0.73623
 H255 H 0.06147 0.49756 0.73354
 H256 H -0.04498 0.49523 0.74147
 C257 C 0.34416 0.26341 0.16103
 C258 C 0.35467 0.24149 0.14355
 C259 C 0.37772 0.24797 0.12197
 N260 N 0.38304 0.22913 0.10045
 N261 N 0.40379 0.23510 0.08083
 C262 C 0.42003 0.26009 0.08212
 N263 N 0.41483 0.27877 0.10374
 N264 N 0.39399 0.27291 0.12319
 C265 C 0.44389 0.26659 0.06159
 C266 C 0.44744 0.25193 0.03589
 H267 H 0.34495 0.21975 0.14474
 H268 H 0.45920 0.28370 0.06687
 H269 H 0.35237 0.28565 0.15794
 H270 H 0.43076 0.23688 0.02916
 C271 C 0.65866 0.77673 0.15835
 C272 C 0.65417 0.75839 0.13524
 C273 C 0.62920 0.76115 0.11660
 N274 N 0.62654 0.74327 0.09393
 N275 N 0.60401 0.74530 0.07689
 C276 C 0.58327 0.76528 0.08192
 N277 N 0.58588 0.78312 0.10462
 N278 N 0.60844 0.78113 0.12164
 C279 C 0.55809 0.76765 0.06353
 C280 C 0.55493 0.75114 0.03894
 H281 H 0.66931 0.74135 0.13039
 H282 H 0.54179 0.78328 0.06933
 H283 H 0.64345 0.79393 0.16264
 H284 H 0.57215 0.73691 0.03241
 C285 C 0.65577 0.23248 -0.15619
 C286 C 0.65269 0.25097 -0.13299
 C287 C 0.62686 0.25003 -0.11413
 N288 N 0.62548 0.26735 -0.09090
 N289 N 0.60217 0.26677 -0.07367
 C290 C 0.57938 0.24886 -0.07911
 N291 N 0.58074 0.23160 -0.10237
 N292 N 0.60404 0.23214 -0.11955
 C293 C 0.55341 0.24789 -0.06050
 C294 C 0.55121 0.26346 -0.03517
 H295 H 0.66969 0.26650 -0.12825
 H296 H 0.53571 0.23378 -0.06665
 H297 H 0.63894 0.21656 -0.16049
 H298 H 0.56964 0.27606 -0.02831
 C299 C 0.34570 0.74804 -0.14586
 C300 C 0.36066 0.77083 -0.13313
 C301 C 0.38357 0.76490 -0.11259
 N302 N 0.39165 0.78563 -0.09382
 N303 N 0.41222 0.78025 -0.07503
 C304 C 0.42561 0.75400 -0.07451
 N305 N 0.41782 0.73347 -0.09356
 N306 N 0.39708 0.73873 -0.11212
 C307 C 0.44900 0.74787 -0.05465
 C308 C 0.45362 0.76409 -0.03017
 H309 H 0.35451 0.79329 -0.13725
 H310 H 0.46274 0.72952 -0.05917
 H311 H 0.34992 0.72560 -0.13944
 H312 H 0.43812 0.78036 -0.02387
 C313 C 0.14937 0.34585 0.22511
 C314 C 0.12050 0.34432 0.23398
 C315 C 0.10106 0.36887 0.22853
 N316 N 0.07424 0.36878 0.24074
 N317 N 0.05711 0.39165 0.23710
 C318 C 0.06616 0.41537 0.22099
 N319 N 0.09279 0.41525 0.20848
 N320 N 0.10991 0.39245 0.21216
 C321 C 0.04859 0.44174 0.21835
 C322 C 0.02173 0.44417 0.23197
 H323 H 0.11227 0.32543 0.24619
 H324 H 0.05773 0.46029 0.20622
 H325 H 0.15749 0.36511 0.21337
 H326 H 0.01177 0.42500 0.24241
 C327 C 0.16016 0.66028 0.76185
 C328 C 0.13604 0.65797 0.74473
 C329 C 0.11739 0.63143 0.74622
 N330 N 0.09320 0.62977 0.73047
 N331 N 0.07653 0.60564 0.73160
 C332 C 0.08349 0.58229 0.74850
 N333 N 0.10762 0.58399 0.76420
 N334 N 0.12421 0.60807 0.76311
 C335 C 0.06596 0.55513 0.74986
 C336 C 0.03995 0.55181 0.73589
 H337 H 0.13068 0.67568 0.73009
 H338 H 0.07376 0.53712 0.76285
 H339 H 0.16471 0.64242 0.77666
 H340 H 0.03139 0.57037 0.72430
 C341 C -0.15486 0.66452 0.22209
 C342 C -0.13107 0.65932 0.23911
 C343 C -0.11270 0.63373 0.23507
 N344 N -0.08919 0.63009 0.25142
 N345 N -0.07275 0.60665 0.24846
 C346 C -0.07928 0.58599 0.22903
 N347 N -0.10276 0.58965 0.21267
 N348 N -0.11916 0.61310 0.21560
 C349 C -0.06204 0.55951 0.22598
 C350 C -0.03731 0.55447 0.24161
 H351 H -0.12570 0.67408 0.25607
 H352 H -0.06920 0.54337 0.21092
 H353 H -0.15938 0.64991 0.20471
 H354 H -0.02926 0.57140 0.25532
 C355 C -0.14632 0.33396 0.77217
 C356 C -0.12192 0.33762 0.75430
 C357 C -0.10236 0.36319 0.75607
 N358 N -0.07878 0.36559 0.73839
 N359 N -0.06129 0.38900 0.73917
 C360 C -0.06677 0.41089 0.75766
 N361 N -0.09030 0.40845 0.77538
 N362 N -0.10776 0.38504 0.77464
 C363 C -0.04838 0.43741 0.75814
 C364 C -0.02356 0.44114 0.74092
 H365 H -0.11703 0.32167 0.73817
 H366 H -0.05479 0.45468 0.77237
 H367 H -0.15048 0.34982 0.78862
 H368 H -0.01640 0.42316 0.72800
 C369 C 0.21660 0.14509 0.32797
 C370 C 0.23654 0.12378 0.33516
 C371 C 0.23244 0.10506 0.36120
 N372 N 0.25145 0.08365 0.36739
 N373 N 0.24822 0.06727 0.39132
 C374 C 0.22589 0.07175 0.40998
 N375 N 0.20692 0.09310 0.40375
 N376 N 0.21010 0.10939 0.37984
 C377 C 0.22226 0.05474 0.43705
 C378 C 0.23955 0.03115 0.44443
 H379 H 0.25575 0.12121 0.32195
 H380 H 0.20508 0.06096 0.45166
 H381 H 0.19728 0.14712 0.34117
 H382 H 0.25555 0.02388 0.42908
 C383 C 0.77358 0.14677 0.66289
 C384 C 0.75496 0.12293 0.65928
 C385 C 0.75750 0.10408 0.63422
 N386 N 0.74009 0.08006 0.63213
 N387 N 0.74191 0.06315 0.60926
 C388 C 0.76119 0.06971 0.58763
 N389 N 0.77856 0.09372 0.58973
 N390 N 0.77679 0.11057 0.61260
 C391 C 0.76300 0.05202 0.56177
 C392 C 0.74675 0.02638 0.55845
 H393 H 0.73809 0.11790 0.67510
 H394 H 0.77767 0.05956 0.54468
 H395 H 0.79095 0.15113 0.64741
 H396 H 0.73355 0.01790 0.57624
 C397 C 0.25208 -0.13525 0.67660
 C398 C 0.22926 -0.12605 0.65997
 C399 C 0.23367 -0.10501 0.63581
 N400 N 0.21100 -0.09044 0.62490
 N401 N 0.21469 -0.07212 0.60240
 C402 C 0.24117 -0.06792 0.58982
 N403 N 0.26378 -0.08259 0.60066
 N404 N 0.26016 -0.10065 0.62332
 C405 C 0.24538 -0.04946 0.56376
 C406 C 0.22570 -0.02847 0.55510
 H407 H 0.20764 -0.13415 0.66499
 H408 H 0.26476 -0.05248 0.55085
 H409 H 0.27321 -0.12517 0.67317
 H410 H 0.20772 -0.02325 0.56915
 C411 C 0.77313 -0.15258 0.34280
 C412 C 0.75630 -0.12804 0.34733
 C413 C 0.75913 -0.11013 0.37298
 N414 N 0.74327 -0.08563 0.37584
 N415 N 0.74515 -0.06955 0.39923
 C416 C 0.76294 -0.07744 0.42066
 N417 N 0.77882 -0.10193 0.41778
 N418 N 0.77700 -0.11795 0.39436
 C419 C 0.76455 -0.06062 0.44710
 C420 C 0.75028 -0.03425 0.45064
 H421 H 0.74052 -0.12172 0.33177
 H422 H 0.77740 -0.06932 0.46427
 H423 H 0.78945 -0.15834 0.35804
 H424 H 0.73918 -0.02462 0.43269
 C425 C 0.67120 0.76476 -0.14326
 C426 C 0.66489 0.74603 -0.11990
 C427 C 0.63983 0.75121 -0.10080
 N428 N 0.63429 0.73359 -0.07742
 N429 N 0.61109 0.73777 -0.06069
 C430 C 0.59259 0.75969 -0.06681
 N431 N 0.59819 0.77727 -0.09011
 N432 N 0.62135 0.77315 -0.10674
 C433 C 0.56618 0.76417 -0.04960
 C434 C 0.55915 0.74818 -0.02454
 H435 H 0.67799 0.72704 -0.11592
 H436 H 0.55158 0.78077 -0.05710
 H437 H 0.65827 0.78402 -0.14657
 H438 H 0.57451 0.73295 -0.01598
 C439 C 0.34237 0.22904 -0.14808
 C440 C 0.34337 0.24486 -0.12290
 C441 C 0.36841 0.24318 -0.10413
 N442 N 0.36907 0.25848 -0.07952
 N443 N 0.39204 0.25752 -0.06289
 C444 C 0.41514 0.24118 -0.07031
 N445 N 0.41439 0.22586 -0.09482
 N446 N 0.39148 0.22679 -0.11138
 C447 C 0.44136 0.24074 -0.05329
 C448 C 0.44407 0.25515 -0.02743
 H449 H 0.32575 0.25889 -0.11696
 H450 H 0.45949 0.22883 -0.06183
 H451 H 0.35996 0.21475 -0.15355
 H452 H 0.42538 0.26513 -0.01765
 C453 C 0.33972 0.78372 0.15283
 C454 C 0.34326 0.76806 0.12773
 C455 C 0.36940 0.77131 0.10941
 N456 N 0.37143 0.75670 0.08446
 N457 N 0.39535 0.75873 0.06815
 C458 C 0.41814 0.77543 0.07622
 N459 N 0.41606 0.79009 0.10112
 N460 N 0.39213 0.78812 0.11738
 C461 C 0.44529 0.77669 0.05934
 C462 C 0.44854 0.76291 0.03311
 H463 H 0.32664 0.75277 0.12137
 H464 H 0.46341 0.78835 0.06821
 H465 H 0.35601 0.79965 0.15860
 H466 H 0.42980 0.75321 0.02340
 C467 C 0.65504 0.23921 0.14952
 C468 C 0.65584 0.25334 0.12275
 C469 C 0.63154 0.25005 0.10323
 N470 N 0.62973 0.26742 0.07937
 N471 N 0.60702 0.26526 0.06249
 C472 C 0.58540 0.24553 0.06884
 N473 N 0.58747 0.22791 0.09240
 N474 N 0.61007 0.23013 0.10926
 C475 C 0.55930 0.24364 0.05172
 C476 C 0.55427 0.26202 0.02820
 H477 H 0.67388 0.26759 0.11645
 H478 H 0.54296 0.22754 0.05846
 H479 H 0.63637 0.22582 0.15581
 H480 H 0.57106 0.27711 0.02047
 C481 C -0.14642 0.65114 0.77661
 C482 C -0.12159 0.64950 0.75924
 C483 C -0.10195 0.62461 0.76063
 N484 N -0.07825 0.62444 0.74309
 N485 N -0.06087 0.60152 0.74304
 C486 C -0.06659 0.57788 0.76055
 N487 N -0.09021 0.57812 0.77823
 N488 N -0.10758 0.60106 0.77828
 C489 C -0.04839 0.55183 0.75988
 C490 C -0.02388 0.55017 0.74211
 H491 H -0.11651 0.66656 0.74338
 H492 H -0.05470 0.53328 0.77362
 H493 H -0.15063 0.63446 0.79312
 H494 H -0.01690 0.56938 0.72969
 C495 C -0.15129 0.32688 0.24186
 C496 C -0.14312 0.34749 0.22071
 C497 C -0.12331 0.37179 0.22717
 N498 N -0.10607 0.38417 0.20623
 N499 N -0.08770 0.40584 0.21219
 C500 C -0.08618 0.41609 0.23923
 N501 N -0.10379 0.40406 0.26004
 N502 N -0.12186 0.38214 0.25417
 C503 C -0.06671 0.44053 0.24590
 C504 C -0.04164 0.44665 0.22978
 H505 H -0.15011 0.34495 0.19893
 H506 H -0.07191 0.45369 0.26429
 H507 H -0.14178 0.32799 0.26280
 H508 H -0.03478 0.43155 0.21350
 C509 C 0.15561 0.33282 0.76954
 C510 C 0.13322 0.33702 0.75055
 C511 C 0.11551 0.36351 0.75109
 N512 N 0.09234 0.36579 0.73402
 N513 N 0.07639 0.38982 0.73414
 C514 C 0.08310 0.41251 0.75129
 N515 N 0.10630 0.41023 0.76829
 N516 N 0.12216 0.38620 0.76823
 C517 C 0.06609 0.43946 0.75158
 C518 C 0.04042 0.44239 0.73689
 H519 H 0.12844 0.32054 0.73494
 H520 H 0.07371 0.45731 0.76447
 H521 H 0.15968 0.34897 0.78568
 H522 H 0.03209 0.42383 0.72549
 C523 C 0.15124 0.66033 0.22229
 C524 C 0.12641 0.65532 0.23917
 C525 C 0.10705 0.62998 0.23511
 N526 N 0.08254 0.62680 0.25135
 N527 N 0.06498 0.60375 0.24823
 C528 C 0.07132 0.58302 0.22874
 N529 N 0.09582 0.58621 0.21249
 N530 N 0.11336 0.60928 0.21558
 C531 C 0.05259 0.55705 0.22547
 C532 C 0.02667 0.55292 0.24089
 H533 H 0.12082 0.67040 0.25589
 H534 H 0.05944 0.54074 0.21037
 H535 H 0.15636 0.64567 0.20505
 H536 H 0.01925 0.57015 0.25462
 C537 C 0.77657 -0.16270 0.66090
 C538 C 0.75925 -0.13821 0.65822
 C539 C 0.76117 -0.11844 0.63297
 N540 N 0.74404 -0.09470 0.63147
 N541 N 0.74501 -0.07699 0.60840
 C542 C 0.76315 -0.08243 0.58597
 N543 N 0.78033 -0.10611 0.58750
 N544 N 0.77938 -0.12380 0.61058
 C545 C 0.76399 -0.06365 0.56004
 C546 C 0.74745 -0.03857 0.55743
 H547 H 0.74350 -0.13345 0.67484
 H548 H 0.77820 -0.06972 0.54250
 H549 H 0.79271 -0.16703 0.64448
 H550 H 0.73455 -0.03173 0.57559
 C551 C 0.22432 -0.15650 0.34551
 C552 C 0.24159 -0.13175 0.34978
 C553 C 0.23800 -0.11337 0.37508
 N554 N 0.25410 -0.08846 0.37732
 N555 N 0.25107 -0.07158 0.40008
 C556 C 0.23183 -0.07904 0.42149
 N557 N 0.21581 -0.10399 0.41928
 N558 N 0.21880 -0.12084 0.39650
 C559 C 0.22811 -0.06078 0.44684
 C560 C 0.24222 -0.03376 0.44954
 H561 H 0.25808 -0.12531 0.33402
 H562 H 0.21306 -0.06855 0.46349
 H563 H 0.20746 -0.16253 0.36106
 H564 H 0.25586 -0.02548 0.43200
 C565 C 0.73604 0.15186 0.34380
 C566 C 0.75779 0.13417 0.35404
 C567 C 0.75260 0.11395 0.37854
 N568 N 0.77044 0.09115 0.38303
 N569 N 0.76574 0.07261 0.40515
 C570 C 0.74312 0.07634 0.42362
 N571 N 0.72546 0.09927 0.41925
 N572 N 0.73003 0.11767 0.39703
 C573 C 0.73814 0.05681 0.44865
 C574 C 0.75237 0.03036 0.45194
 H575 H 0.77853 0.13396 0.34292
 H576 H 0.72271 0.06345 0.46490
 H577 H 0.71454 0.15005 0.35328
 H578 H 0.76579 0.02260 0.43451
 C579 C 0.24898 0.14787 0.66181
 C580 C 0.22521 0.13683 0.64764
 C581 C 0.22885 0.11707 0.62336
 N582 N 0.20708 0.09866 0.61605
 N583 N 0.21042 0.08061 0.59417
 C584 C 0.23556 0.08057 0.57867
 N585 N 0.25714 0.09923 0.58578
 N586 N 0.25393 0.11701 0.60782
 C587 C 0.23953 0.06150 0.55399
 C588 C 0.22280 0.03634 0.54999
 H589 H 0.20365 0.14159 0.65534
 H590 H 0.25711 0.06682 0.53899
 H591 H 0.27034 0.14065 0.65578
 H592 H 0.20715 0.02927 0.56637
   
