data_POSCAR
  _audit_creation_date              2014-09-24
  _audit_creation_method            'ToBaCCo'
  _symmetry_space_group_name_H-M    'P1'
  _symmetry_Int_Tables_number       1
  _symmetry_cell_setting            triclinic
  loop_
  _symmetry_equiv_pos_as_xyz
 x,y,z
_cell_length_a 19.2212
_cell_length_b 19.2266
_cell_length_c 19.0826
_cell_angle_alpha 88.813700
_cell_angle_beta 91.700200
_cell_angle_gamma 88.138200
loop_
  _atom_site_label
  _atom_site_type_symbol
  _atom_site_fract_x
  _atom_site_fract_y
  _atom_site_fract_z
O1 O 0.59462 0.53089 0.09754
 O2 O 0.40365 0.51435 0.10003
 O3 O 0.51066 0.42730 0.10286
 O4 O 0.48874 0.61762 0.10529
 O5 O 0.49365 0.62254 -0.01018
 O6 O 0.49534 0.43006 -0.01232
 O7 O 0.39814 0.52979 -0.01490
 O8 O 0.59017 0.52478 -0.01793
 Cu9 Cu 0.49983 0.52207 0.11294
 Cu10 Cu 0.49371 0.52692 -0.02550
 C11 C 0.62501 0.52928 0.03929
 C12 C 0.36803 0.52153 0.04294
 C13 C 0.50502 0.39603 0.04530
 C14 C 0.48968 0.65271 0.04839
 O15 O -0.06459 0.56028 0.48101
 O16 O -0.04055 0.36982 0.49249
 O17 O -0.05013 0.46842 0.58479
 O18 O -0.05391 0.46101 0.39197
 O19 O 0.05876 0.48118 0.39214
 O20 O 0.06487 0.46865 0.58505
 O21 O 0.07296 0.38040 0.48353
 O22 O 0.04918 0.57065 0.49227
 Cu23 Cu -0.06391 0.46403 0.48812
 Cu24 Cu 0.07300 0.47655 0.48869
 C25 C -0.01182 0.59809 0.48557
 C26 C 0.02016 0.34270 0.48709
 C27 C 0.00832 0.46780 0.61763
 C28 C 0.00166 0.47093 0.35947
 O29 O 0.49093 0.02907 0.59731
 O30 O 0.49628 0.02754 0.40474
 O31 O 0.40038 0.01185 0.49744
 O32 O 0.58843 0.04066 0.50720
 O33 O 0.60860 -0.07288 0.50253
 O34 O 0.42125 -0.10143 0.51052
 O35 O 0.50798 -0.08712 0.40914
 O36 O 0.52068 -0.08287 0.60201
 Cu37 Cu 0.49204 0.03885 0.50076
 Cu38 Cu 0.51686 -0.09758 0.50611
 C39 C 0.50606 -0.02643 0.63260
 C40 C 0.50123 -0.03032 0.37407
 C41 C 0.37885 -0.04962 0.50464
 C42 C 0.63055 -0.01146 0.50591
 C43 C 0.51690 0.20188 -0.12805
 C44 C 0.51638 0.15194 -0.17843
 C45 C 0.49608 0.09104 -0.14588
 N46 N 0.48444 0.10207 -0.07741
 C47 C 0.49726 0.16973 -0.06636
 C48 C 0.48388 0.02777 -0.17973
 C49 C 0.47004 -0.03363 -0.14123
 C50 C 0.43531 -0.09032 -0.16705
 C51 C 0.44110 -0.14191 -0.11596
 C52 C 0.47822 -0.11481 -0.06006
 N53 N 0.49482 -0.04854 -0.07547
 C54 C 0.50155 -0.15254 0.00072
 C55 C 0.52278 -0.11787 0.06183
 C56 C 0.56364 -0.14626 0.11691
 C57 C 0.56645 -0.09631 0.16736
 C58 C 0.52686 -0.03942 0.14137
 N59 N 0.50099 -0.05246 0.07661
 C60 C 0.50969 0.02151 0.17814
 C61 C 0.48759 0.08367 0.14197
 C62 C 0.45411 0.14022 0.17180
 C63 C 0.44712 0.19162 0.12050
 C64 C 0.47732 0.16542 0.06096
 N65 N 0.50098 0.09923 0.07428
 C66 C 0.48690 0.20345 -0.00233
 H67 H 0.53027 0.25565 -0.13607
 H68 H 0.52925 0.15992 -0.23275
 H69 H 0.53178 0.06924 0.04161
 H70 H 0.40946 -0.09457 -0.21786
 H71 H 0.42097 -0.19366 -0.11985
 H72 H 0.58904 -0.19732 0.12031
 H73 H 0.59451 -0.10137 0.21731
 H74 H 0.42286 0.24261 0.12667
 H75 H 0.52898 -0.01851 -0.04648
 H76 H 0.43664 0.14422 0.22500
 C77 C -0.13557 0.54437 0.80952
 C78 C -0.18499 0.54230 0.85990
 C79 C -0.15014 0.52439 0.92263
 N80 N -0.08104 0.51564 0.91211
 C81 C -0.07184 0.52838 0.84308
 C82 C -0.18229 0.51217 0.98733
 C83 C -0.14262 0.49950 1.05038
 C84 C -0.16660 0.46757 1.11037
 C85 C -0.11552 0.47284 1.16166
 C86 C -0.06037 0.50572 1.13112
 N87 N -0.07746 0.52174 1.06324
 C88 C 0.00076 0.52696 1.16684
 C89 C 0.06009 0.54751 1.13116
 C90 C 0.11551 0.58204 1.16070
 C91 C 0.16490 0.58565 1.11035
 C92 C 0.13880 0.55146 1.05243
 N93 N 0.07446 0.52880 1.06517
 C94 C 0.17519 0.53721 0.99061
 C95 C 0.13969 0.52069 0.92705
 C96 C 0.17180 0.49850 0.86699
 C97 C 0.12066 0.49486 0.81547
 C98 C 0.05784 0.51310 0.84547
 N99 N 0.07023 0.52949 0.91335
 C100 C -0.00774 0.52010 0.80899
 H101 H -0.14579 0.55572 0.75433
 H102 H -0.24028 0.55233 0.85094
 H103 H 0.03451 0.55312 0.94583
 H104 H -0.21633 0.44394 1.11723
 H105 H -0.12011 0.45547 1.21545
 H106 H 0.12008 0.60243 1.21300
 H107 H 0.21433 0.61059 1.11604
 H108 H 0.13005 0.48165 0.76178
 H109 H -0.04992 0.55410 1.03047
 H110 H 0.22666 0.48737 0.86002
 C111 C 0.18184 -0.14119 0.44033
 C112 C 0.13638 -0.19485 0.44271
 C113 C 0.07794 -0.16966 0.47601
 N114 N 0.08632 -0.10303 0.49457
 C115 C 0.15001 -0.08567 0.47351
 C116 C 0.02009 -0.20865 0.49412
 C117 C -0.04303 -0.17482 0.51274
 C118 C -0.09574 -0.20414 0.55048
 C119 C -0.15085 -0.15648 0.54838
 C120 C -0.12942 -0.09872 0.51123
 N121 N -0.06351 -0.10988 0.49050
 C122 C -0.17175 -0.03977 0.49211
 C123 C -0.14228 0.02488 0.47669
 C124 C -0.17611 0.08246 0.44461
 C125 C -0.13055 0.13598 0.44816
 C126 C -0.07004 0.10861 0.48065
 N127 N -0.07725 0.04086 0.49785
 C128 C -0.01080 0.14624 0.49868
 C129 C 0.05370 0.11148 0.51529
 C130 C 0.10975 0.13926 0.55125
 C131 C 0.16457 0.09178 0.54737
 C132 C 0.13984 0.03578 0.51064
 N133 N 0.07217 0.04775 0.49203
 C134 C 0.18051 -0.02193 0.48972
 H135 H 0.23251 -0.14320 0.41712
 H136 H 0.14522 -0.24625 0.42199
 H137 H 0.04304 0.01793 0.45764
 H138 H -0.09513 -0.25475 0.57638
 H139 H -0.20093 -0.16346 0.57159
 H140 H -0.22811 0.08593 0.42127
 H141 H -0.14055 0.18869 0.42856
 H142 H 0.21673 0.09788 0.56882
 H143 H -0.03737 -0.07821 0.45566
 H144 H 0.11154 0.18894 0.57673
 C145 C -0.29860 0.53378 1.03916
 C146 C -0.26003 0.50876 0.98725
 H147 H -0.27358 0.55720 1.08401
 H148 H -0.28624 0.48643 0.94242
 C149 C 0.29539 0.51986 1.04487
 C150 C 0.25307 0.54015 0.99022
 H151 H 0.27322 0.50220 1.09332
 H152 H 0.27620 0.55796 0.94225
 C153 C -0.02197 -0.32975 0.48275
 C154 C 0.02933 -0.28600 0.49700
 H155 H -0.07375 -0.30931 0.46869
 H156 H 0.08120 -0.30727 0.50975
 C157 C 0.03016 0.26683 0.48373
 C158 C -0.01908 0.22322 0.50286
 H159 H 0.07917 0.24677 0.46461
 H160 H -0.06862 0.24451 0.51964
 C161 C 0.50679 -0.02647 -0.29437
 C162 C 0.48270 0.02772 -0.25785
 H163 H 0.52689 -0.07304 -0.26680
 H164 H 0.46324 0.07442 -0.28566
 C165 C 0.49816 -0.03259 0.29704
 C166 C 0.51403 0.02201 0.25637
 H167 H 0.48256 -0.08069 0.27368
 H168 H 0.52794 0.07006 0.28112
 C169 C 0.48645 -0.27087 0.05162
 C170 C 0.50432 -0.22992 -0.00203
 H171 H 0.47021 -0.24797 0.10012
 H172 H 0.51863 -0.25345 -0.05091
 C173 C 0.51017 0.31948 0.04680
 C174 C 0.48233 0.28112 -0.00390
 H175 H 0.53602 0.29417 0.09212
 H176 H 0.45753 0.30727 -0.04937
 C177 C -0.29440 -0.00005 0.50921
 C178 C -0.24824 -0.04844 0.48860
 H179 H -0.27722 0.04900 0.52917
 H180 H -0.26670 -0.09807 0.47113
 C181 C 0.30402 -0.06156 0.50708
 C182 C 0.25659 -0.01293 0.48519
 H183 H 0.28796 -0.11115 0.52786
 H184 H 0.27374 0.03727 0.46690
 C185 C -0.00027 0.46937 1.28303
 C186 C 0.00386 0.52767 1.24451
 H187 H -0.00808 0.41997 1.25818
 H188 H 0.01286 0.57650 1.27016
 C189 C 0.01098 0.46557 0.69441
 C190 C -0.01051 0.52028 0.73100
 H191 H 0.03379 0.41963 0.72099
 H192 H -0.03377 0.56549 0.70335
   
