data_POSCAR
  _audit_creation_date              2014-09-24
  _audit_creation_method            'ToBaCCo'
  _symmetry_space_group_name_H-M    'P1'
  _symmetry_Int_Tables_number       1
  _symmetry_cell_setting            triclinic
  loop_
  _symmetry_equiv_pos_as_xyz
 x,y,z
_cell_length_a 35.9191
_cell_length_b 37.5701
_cell_length_c 36.6303
_cell_angle_alpha 91.380600
_cell_angle_beta 90.868100
_cell_angle_gamma 87.814600
loop_
  _atom_site_label
  _atom_site_type_symbol
  _atom_site_fract_x
  _atom_site_fract_y
  _atom_site_fract_z
N1 N 0.33263 0.24975 0.23631
 N2 N 0.32794 0.28457 0.23508
 C3 C 0.34617 0.29641 0.20621
 C4 C 0.36350 0.26739 0.18865
 C5 C 0.35387 0.23819 0.20824
 H6 H 0.34564 0.32381 0.19775
 H7 H 0.36039 0.21046 0.20160
 Cu8 Cu 0.29507 0.31031 0.26879
 Cu9 Cu 0.30794 0.22169 0.27196
 Cu10 Cu 0.26774 0.26991 0.34378
 N11 N 0.25277 0.32878 0.29673
 N12 N 0.24245 0.31334 0.32657
 C13 C 0.21073 0.32953 0.33856
 C14 C 0.20062 0.35655 0.31493
 C15 C 0.22789 0.35516 0.28859
 H16 H 0.19463 0.32044 0.36101
 H17 H 0.22837 0.37074 0.26416
 N18 N 0.28005 0.21869 0.34597
 N19 N 0.29358 0.20004 0.31786
 C20 C 0.29556 0.16537 0.32624
 C21 C 0.28204 0.16202 0.36103
 C22 C 0.27309 0.19642 0.37306
 H23 H 0.30535 0.14398 0.30813
 H24 H 0.26132 0.20456 0.39910
 H25 H 0.26625 0.25711 0.29006
 H26 H 0.31431 0.26174 0.30913
 N27 N 0.67883 -0.25898 0.23335
 N28 N 0.69702 -0.28872 0.22403
 C29 C 0.68329 -0.30094 0.19189
 C30 C 0.65423 -0.27798 0.18061
 C31 C 0.65282 -0.25135 0.20767
 H32 H 0.69356 -0.32490 0.17788
 H33 H 0.63598 -0.22688 0.20775
 Cu34 Cu 0.73795 -0.30709 0.25446
 Cu35 Cu 0.69052 -0.23184 0.27785
 Cu36 Cu 0.77694 -0.25359 0.31673
 N37 N 0.77707 -0.32512 0.28732
 N38 N 0.79233 -0.30364 0.31155
 C39 C 0.82156 -0.32063 0.32759
 C40 C 0.82493 -0.35511 0.31309
 C41 C 0.79604 -0.35673 0.28733
 H42 H 0.84097 -0.30746 0.34571
 H43 H 0.79009 -0.37876 0.26892
 N44 N 0.74822 -0.20945 0.32903
 N45 N 0.71513 -0.20132 0.31469
 C46 C 0.70334 -0.16914 0.32790
 C47 C 0.73049 -0.15636 0.35140
 C48 C 0.75818 -0.18291 0.35201
 H49 H 0.67745 -0.15549 0.32020
 H50 H 0.78383 -0.18274 0.36785
 H51 H 0.74509 -0.24401 0.26924
 H52 H 0.72422 -0.26836 0.30723
 N53 N 0.65089 0.30948 0.76186
 N54 N 0.67570 0.32920 0.77850
 C55 C 0.66346 0.33865 0.81200
 C56 C 0.62874 0.32465 0.81644
 C57 C 0.62172 0.30624 0.78398
 H58 H 0.67966 0.35262 0.83251
 H59 H 0.59828 0.28975 0.77783
 Cu60 Cu 0.72277 0.33856 0.75588
 Cu61 Cu 0.66082 0.28539 0.71508
 Cu62 Cu 0.75326 0.28327 0.68935
 N63 N 0.76544 0.34967 0.72677
 N64 N 0.77677 0.32841 0.69990
 C65 C 0.80745 0.34141 0.68536
 C66 C 0.81603 0.37294 0.70396
 C67 C 0.78873 0.37672 0.73054
 H68 H 0.82258 0.32831 0.66323
 H69 H 0.78735 0.39594 0.75292
 N70 N 0.71777 0.24799 0.67175
 N71 N 0.68203 0.25007 0.67969
 C72 C 0.66545 0.22139 0.66502
 C73 C 0.69238 0.19966 0.64810
 C74 C 0.72502 0.21781 0.65227
 H75 H 0.63629 0.21604 0.66790
 H76 H 0.75237 0.20887 0.64313
 H77 H 0.71519 0.27837 0.73190
 H78 H 0.70639 0.31262 0.69630
 N79 N 0.33821 -0.28762 0.76489
 N80 N 0.32433 -0.31917 0.76870
 C81 C 0.33959 -0.33421 0.79872
 C82 C 0.36449 -0.31076 0.81429
 C83 C 0.36256 -0.28140 0.79225
 H84 H 0.33153 -0.35922 0.80968
 H85 H 0.37655 -0.25666 0.79679
 Cu86 Cu 0.28456 -0.33513 0.73633
 Cu87 Cu 0.32015 -0.25493 0.72779
 Cu88 Cu 0.27099 -0.29435 0.65657
 N89 N 0.24017 -0.34268 0.70635
 N90 N 0.23592 -0.32821 0.67421
 C91 C 0.20317 -0.33765 0.65935
 C92 C 0.18470 -0.35783 0.68425
 C93 C 0.20991 -0.36125 0.71336
 H94 H 0.19407 -0.33050 0.63215
 H95 H 0.20587 -0.37471 0.73869
 N96 N 0.29399 -0.24782 0.65280
 N97 N 0.31105 -0.23214 0.68062
 C98 C 0.31865 -0.19872 0.67167
 C99 C 0.30596 -0.19300 0.63641
 C100 C 0.29027 -0.22469 0.62535
 H101 H 0.33037 -0.17919 0.69025
 H102 H 0.27494 -0.22967 0.60021
 H103 H 0.27119 -0.27746 0.70916
 H104 H 0.31663 -0.29770 0.69368
 N105 N 0.70864 -0.21527 0.80313
 N106 N 0.71675 -0.24968 0.80299
 C107 C 0.69669 -0.26493 0.82866
 C108 C 0.67467 -0.23873 0.84596
 C109 C 0.68361 -0.20737 0.82940
 H110 H 0.69860 -0.29292 0.83496
 H111 H 0.67349 -0.18066 0.83654
 Cu112 Cu 0.75530 -0.27089 0.77181
 Cu113 Cu 0.73188 -0.18343 0.76955
 Cu114 Cu 0.78466 -0.22514 0.70136
 N115 N 0.80159 -0.28448 0.74724
 N116 N 0.81287 -0.26661 0.71939
 C117 C 0.84503 -0.28166 0.70719
 C118 C 0.85528 -0.31024 0.72914
 C119 C 0.82629 -0.31150 0.75385
 H120 H 0.86033 -0.27171 0.68462
 H121 H 0.82225 -0.33151 0.77398
 N122 N 0.76554 -0.17566 0.69832
 N123 N 0.74655 -0.15926 0.72476
 C124 C 0.73760 -0.12575 0.71455
 C125 C 0.75217 -0.12072 0.68032
 C126 C 0.76926 -0.15315 0.67071
 H127 H 0.72101 -0.10659 0.73046
 H128 H 0.78273 -0.16009 0.64517
 H129 H 0.73442 -0.22328 0.73104
 H130 H 0.77929 -0.21369 0.75499
 N131 N 0.27423 0.21253 0.81518
 N132 N 0.26639 0.24679 0.81952
 C133 C 0.28967 0.26047 0.84479
 C134 C 0.31349 0.23332 0.85710
 C135 C 0.30225 0.20304 0.83819
 H136 H 0.28897 0.28806 0.85397
 H137 H 0.31311 0.17601 0.84128
 Cu138 Cu 0.22452 0.26949 0.79392
 Cu139 Cu 0.24757 0.18371 0.77912
 Cu140 Cu 0.20717 0.23544 0.71045
 N141 N 0.18904 0.29272 0.76114
 N142 N 0.18356 0.28042 0.72770
 C143 C 0.15914 0.30254 0.71042
 C144 C 0.14848 0.33013 0.73447
 C145 C 0.16759 0.32239 0.76666
 H146 H 0.14919 0.29836 0.68269
 H147 H 0.16524 0.33659 0.79259
 N148 N 0.21975 0.18393 0.70409
 N149 N 0.23369 0.16420 0.73073
 C150 C 0.23895 0.13045 0.71829
 C151 C 0.22736 0.12861 0.68217
 C152 C 0.21566 0.16309 0.67393
 H153 H 0.25128 0.10894 0.73405
 H154 H 0.20571 0.17242 0.64770
 H155 H 0.25022 0.22727 0.74856
 H156 H 0.20199 0.21662 0.76162
 N157 N 0.29415 -0.25071 0.18840
 N158 N 0.28167 -0.28289 0.18293
 C159 C 0.30152 -0.29965 0.15631
 C160 C 0.32788 -0.27670 0.14464
 C161 C 0.32202 -0.24569 0.16515
 H162 H 0.29685 -0.32627 0.14577
 H163 H 0.33711 -0.22142 0.16352
 Cu164 Cu 0.23952 -0.29891 0.21007
 Cu165 Cu 0.27319 -0.21800 0.22545
 Cu166 Cu 0.22461 -0.26025 0.29199
 N167 N 0.19784 -0.31172 0.23979
 N168 N 0.19256 -0.29687 0.27226
 C169 C 0.16294 -0.31106 0.28762
 C170 C 0.14835 -0.33554 0.26312
 C171 C 0.17144 -0.33566 0.23319
 H172 H 0.15255 -0.30384 0.31447
 H173 H 0.16939 -0.35223 0.20874
 N174 N 0.24603 -0.21327 0.29983
 N175 N 0.26299 -0.19647 0.27398
 C176 C 0.27302 -0.16445 0.28721
 C177 C 0.26222 -0.16118 0.32328
 C178 C 0.24472 -0.19240 0.33019
 H179 H 0.28712 -0.14496 0.27176
 H180 H 0.23177 -0.19927 0.35540
 H181 H 0.26987 -0.26157 0.25622
 H182 H 0.22402 -0.24189 0.24066
 N183 N 0.70700 0.24919 0.19398
 N184 N 0.73408 0.26316 0.17600
 C185 C 0.72111 0.27348 0.14312
 C186 C 0.68380 0.26589 0.14056
 C187 C 0.67584 0.25009 0.17309
 H188 H 0.73733 0.28632 0.12294
 H189 H 0.64918 0.24070 0.18125
 Cu190 Cu 0.78281 0.26971 0.19806
 Cu191 Cu 0.71379 0.23229 0.24361
 Cu192 Cu 0.80338 0.23334 0.27869
 N193 N 0.82220 0.28758 0.22965
 N194 N 0.82845 0.27518 0.26246
 C195 C 0.85462 0.29450 0.27943
 C196 C 0.86544 0.32063 0.25597
 C197 C 0.84489 0.31451 0.22418
 H198 H 0.86503 0.28977 0.30681
 H199 H 0.84647 0.32815 0.19864
 N200 N 0.76545 0.20319 0.29826
 N201 N 0.73056 0.20464 0.28650
 C202 C 0.71131 0.18072 0.30454
 C203 C 0.73566 0.16217 0.32761
 C204 C 0.76961 0.17779 0.32342
 H205 H 0.68198 0.17637 0.30019
 H206 H 0.79573 0.17031 0.33673
 H207 H 0.75907 0.26182 0.25923
 H208 H 0.76833 0.21851 0.23397
 C209 C 0.27093 -0.00379 0.40609
 C210 C 0.27211 0.02605 0.42957
 C211 C 0.27154 0.02182 0.46745
 C212 C 0.26745 -0.01206 0.48231
 C213 C 0.26477 -0.04165 0.45802
 C214 C 0.26783 -0.03773 0.42026
 C215 C 0.26654 -0.01669 0.52277
 C216 C 0.27814 -0.04937 0.53813
 C217 C 0.27693 -0.05416 0.57581
 C218 C 0.26549 -0.02587 0.59899
 C219 C 0.25435 0.00711 0.58452
 C220 C 0.25448 0.01144 0.54653
 H221 H 0.27226 -0.00060 0.37681
 H222 H 0.27449 0.04519 0.48492
 H223 H 0.26057 -0.06801 0.46804
 H224 H 0.28871 -0.07135 0.52119
 H225 H 0.26513 -0.02955 0.62824
 H226 H 0.24501 0.03688 0.53591
 C227 C 0.70857 0.03160 0.60132
 C228 C 0.69593 0.05951 0.57906
 C229 C 0.69434 0.05388 0.54105
 C230 C 0.70752 0.02148 0.52465
 C231 C 0.71990 -0.00622 0.54790
 C232 C 0.71962 -0.00148 0.58601
 C233 C 0.71007 0.01728 0.48376
 C234 C 0.71258 -0.01686 0.46667
 C235 C 0.71913 -0.02075 0.42915
 C236 C 0.72043 0.00943 0.40777
 C237 C 0.71535 0.04362 0.42331
 C238 C 0.71162 0.04741 0.46135
 H239 H 0.71058 0.03574 0.63066
 H240 H 0.68322 0.07540 0.52463
 H241 H 0.73063 -0.03146 0.53699
 H242 H 0.71014 -0.04076 0.48215
 H243 H 0.72544 0.00621 0.37874
 H244 H 0.71053 0.07409 0.47300
 C245 C 0.40345 0.25135 0.01470
 C246 C 0.42588 0.26236 0.04408
 C247 C 0.46164 0.27407 0.03760
 C248 C 0.47656 0.27256 0.00226
 C249 C 0.45341 0.26161 -0.02705
 C250 C 0.41681 0.25129 -0.02107
 C251 C 0.51619 0.28184 -0.00358
 C252 C 0.52794 0.29415 -0.03742
 C253 C 0.56539 0.30148 -0.04293
 C254 C 0.59133 0.29782 -0.01425
 C255 C 0.58009 0.28662 0.01990
 C256 C 0.54299 0.27767 0.02471
 H257 H 0.37542 0.24308 0.01968
 H258 H 0.47758 0.28435 0.06055
 H259 H 0.46351 0.26090 -0.05471
 H260 H 0.50836 0.29825 -0.05976
 H261 H 0.62031 0.30335 -0.01860
 H262 H 0.53550 0.26714 0.05071
 C263 C 0.60341 0.73510 0.00900
 C264 C 0.58380 0.72324 0.03888
 C265 C 0.54787 0.71058 0.03337
 C266 C 0.52954 0.71305 -0.00077
 C267 C 0.54984 0.72502 -0.03049
 C268 C 0.58678 0.73573 -0.02593
 C269 C 0.48897 0.70510 -0.00456
 C270 C 0.47286 0.69585 -0.03873
 C271 C 0.43426 0.69195 -0.04254
 C272 C 0.41159 0.69549 -0.01184
 C273 C 0.42708 0.70333 0.02246
 C274 C 0.46531 0.70898 0.02587
 H275 H 0.63154 0.74410 0.01296
 H276 H 0.53418 0.69950 0.05637
 H277 H 0.53715 0.72665 -0.05735
 H278 H 0.48974 0.69247 -0.06283
 H279 H 0.38176 0.69261 -0.01476
 H280 H 0.47590 0.71746 0.05234
 C281 C 0.02422 0.40060 0.28890
 C282 C 0.05313 0.42212 0.30098
 C283 C 0.04629 0.45879 0.30635
 C284 C 0.01056 0.47433 0.30025
 C285 C -0.01866 0.45189 0.29033
 C286 C -0.01200 0.41515 0.28374
 C287 C 0.00426 0.51387 0.30251
 C288 C -0.03087 0.52938 0.31153
 C289 C -0.03721 0.56639 0.31094
 C290 C -0.00818 0.58842 0.30246
 C291 C 0.02692 0.57358 0.29364
 C292 C 0.03300 0.53654 0.29351
 H293 H 0.02996 0.37238 0.28395
 H294 H 0.06910 0.47500 0.31540
 H295 H -0.04664 0.46293 0.28674
 H296 H -0.05360 0.51302 0.31892
 H297 H -0.01316 0.61704 0.30183
 H298 H 0.05993 0.52566 0.28506
 C299 C 0.01137 0.60312 0.69208
 C300 C 0.04122 0.57990 0.68218
 C301 C 0.03611 0.54298 0.68120
 C302 C 0.00192 0.52899 0.69136
 C303 C -0.02768 0.55312 0.70085
 C304 C -0.02315 0.58997 0.70077
 C305 C -0.00222 0.48972 0.69530
 C306 C -0.03761 0.47492 0.69270
 C307 C -0.04310 0.43996 0.70357
 C308 C -0.01217 0.41843 0.71390
 C309 C 0.02391 0.43145 0.71362
 C310 C 0.02862 0.46710 0.70435
 H311 H 0.01522 0.63159 0.69401
 H312 H 0.05923 0.52544 0.67307
 H313 H -0.05408 0.54367 0.70968
 H314 H -0.06136 0.49070 0.68288
 H315 H -0.01615 0.39127 0.72193
 H316 H 0.05643 0.47708 0.70503
 C317 C 0.37990 0.28428 0.08960
 C318 C 0.36556 0.28631 0.12468
 C319 C 0.38236 0.26678 0.15302
 C320 C 0.41509 0.24553 0.14596
 C321 C 0.42923 0.24286 0.11000
 C322 C 0.41152 0.26269 0.08174
 C323 C 0.46047 0.21993 0.10348
 N324 N 0.47738 0.20246 0.13151
 N325 N 0.46512 0.20624 0.16555
 C326 C 0.43470 0.22722 0.17375
 H327 H 0.36618 0.29972 0.06834
 H328 H 0.34051 0.30263 0.12950
 H329 H 0.47154 0.21552 0.07641
 H330 H 0.42657 0.22971 0.20199
 C331 C 0.63430 0.70484 0.08207
 C332 C 0.65057 0.70321 0.11677
 C333 C 0.63379 0.72058 0.14720
 C334 C 0.59798 0.73777 0.14211
 C335 C 0.58260 0.74117 0.10631
 C336 C 0.60066 0.72393 0.07619
 C337 C 0.54925 0.76169 0.10191
 N338 N 0.53056 0.77445 0.13158
 N339 N 0.54294 0.76806 0.16528
 C340 C 0.57561 0.74983 0.17155
 H341 H 0.64825 0.69113 0.05947
 H342 H 0.67747 0.68943 0.11916
 H343 H 0.53774 0.76765 0.07523
 H344 H 0.58286 0.74383 0.19947
 C345 C 0.57886 0.28356 -0.10653
 C346 C 0.59388 0.28923 -0.14056
 C347 C 0.60835 0.32221 -0.14884
 C348 C 0.60536 0.35071 -0.12272
 C349 C 0.59070 0.34462 -0.08773
 C350 C 0.57809 0.31054 -0.07957
 C351 C 0.58862 0.37310 -0.06216
 N352 N 0.59987 0.40568 -0.07139
 N353 N 0.61282 0.41167 -0.10447
 C354 C 0.61575 0.38543 -0.13047
 H355 H 0.56906 0.25740 -0.10066
 H356 H 0.59566 0.26704 -0.15995
 H357 H 0.57768 0.36990 -0.03514
 H358 H 0.62536 0.39224 -0.15711
 C359 C 0.39420 0.71737 -0.09104
 C360 C 0.37772 0.71685 -0.12556
 C361 C 0.38299 0.68743 -0.14941
 C362 C 0.40570 0.65789 -0.13805
 C363 C 0.42254 0.65846 -0.10268
 C364 C 0.41678 0.68861 -0.07921
 C365 C 0.44441 0.62862 -0.09191
 N366 N 0.44979 0.60054 -0.11545
 N367 N 0.43477 0.60033 -0.14892
 C368 C 0.41304 0.62803 -0.16106
 H369 H 0.38961 0.74068 -0.07343
 H370 H 0.36041 0.73965 -0.13364
 H371 H 0.45720 0.62732 -0.06504
 H372 H 0.40205 0.62650 -0.18864
 C373 C 0.10938 0.39144 0.27597
 C374 C 0.14527 0.37654 0.27916
 C375 C 0.16407 0.37604 0.31298
 C376 C 0.14650 0.39191 0.34409
 C377 C 0.10964 0.40664 0.34091
 C378 C 0.09112 0.40641 0.30645
 C379 C 0.09234 0.42068 0.37261
 N380 N 0.11137 0.42125 0.40485
 N381 N 0.14644 0.40866 0.40755
 C382 C 0.16467 0.39413 0.37832
 H383 H 0.09563 0.39121 0.24943
 H384 H 0.15806 0.36443 0.25507
 H385 H 0.06387 0.43109 0.37215
 H386 H 0.19329 0.38494 0.38211
 C387 C 0.10792 0.58101 0.69962
 C388 C 0.14209 0.59719 0.70137
 C389 C 0.14868 0.62792 0.68151
 C390 C 0.11879 0.64256 0.65954
 C391 C 0.08490 0.62427 0.65583
 C392 C 0.07884 0.59432 0.67745
 C393 C 0.05749 0.63718 0.63116
 N394 N 0.06185 0.66847 0.61447
 N395 N 0.09161 0.68776 0.62108
 C396 C 0.11977 0.67626 0.64344
 H397 H 0.10386 0.55834 0.71666
 H398 H 0.16368 0.58492 0.71833
 H399 H 0.03249 0.62281 0.62526
 H400 H 0.14141 0.69457 0.64966
 C401 C -0.10113 0.57795 0.28788
 C402 C -0.13540 0.59648 0.28868
 C403 C -0.14466 0.62020 0.31782
 C404 C -0.12047 0.62061 0.34914
 C405 C -0.08503 0.60258 0.34762
 C406 C -0.07505 0.58220 0.31616
 C407 C -0.06095 0.60482 0.37813
 N408 N -0.07250 0.62234 0.40893
 N409 N -0.10653 0.63745 0.41127
 C410 C -0.13099 0.63683 0.38270
 H411 H -0.09404 0.56171 0.26395
 H412 H -0.15313 0.59418 0.26469
 H413 H -0.03341 0.59210 0.37806
 H414 H -0.15882 0.64782 0.38705
 C415 C -0.08592 0.39274 0.68432
 C416 C -0.12031 0.37694 0.68319
 C417 C -0.15172 0.39324 0.70016
 C418 C -0.14819 0.42835 0.71540
 C419 C -0.11238 0.44305 0.71922
 C420 C -0.08102 0.42520 0.70298
 C421 C -0.10935 0.47523 0.73940
 N422 N -0.14047 0.49366 0.75050
 N423 N -0.17430 0.48202 0.74294
 C424 C -0.17922 0.45032 0.72541
 H425 H -0.06259 0.37898 0.67102
 H426 H -0.12133 0.35080 0.67032
 H427 H -0.08268 0.48602 0.74645
 H428 H -0.20732 0.44334 0.71832
 C429 C 0.30600 0.07096 0.39667
 C430 C 0.30816 0.10370 0.38007
 C431 C 0.27783 0.12831 0.38030
 C432 C 0.24427 0.11939 0.39736
 C433 C 0.24234 0.08617 0.41476
 C434 C 0.27350 0.06190 0.41418
 C435 C 0.20865 0.07775 0.43108
 N436 N 0.17889 0.10097 0.42965
 N437 N 0.18040 0.13180 0.41269
 C438 C 0.21186 0.14168 0.39629
 H439 H 0.32985 0.05241 0.39573
 H440 H 0.33384 0.10989 0.36685
 H441 H 0.20551 0.05281 0.44460
 H442 H 0.21073 0.16646 0.38201
 C443 C 0.70838 0.12380 0.58077
 C444 C 0.70800 0.15723 0.59788
 C445 C 0.68873 0.16394 0.63045
 C446 C 0.66832 0.13616 0.64545
 C447 C 0.66725 0.10252 0.62686
 C448 C 0.68894 0.09585 0.59521
 C449 C 0.64462 0.07645 0.64081
 N450 N 0.62657 0.08271 0.67267
 N451 N 0.62964 0.11324 0.69146
 C452 C 0.65007 0.13999 0.67916
 H453 H 0.72530 0.11939 0.55672
 H454 H 0.72376 0.17792 0.58591
 H455 H 0.64100 0.05122 0.62663
 H456 H 0.65228 0.16346 0.69639
 C457 C 0.25968 -0.11530 0.58865
 C458 C 0.26701 -0.14907 0.60240
 C459 C 0.30167 -0.15812 0.61848
 C460 C 0.33004 -0.13276 0.61925
 C461 C 0.32227 -0.09813 0.60572
 C462 C 0.28667 -0.08947 0.59071
 C463 C 0.35065 -0.07338 0.60722
 N464 N 0.38479 -0.08303 0.62076
 N465 N 0.39243 -0.11575 0.63268
 C466 C 0.36636 -0.14095 0.63223
 H467 H 0.23245 -0.10903 0.57681
 H468 H 0.24490 -0.16790 0.60150
 H469 H 0.34608 -0.04657 0.59752
 H470 H 0.37457 -0.16726 0.64134
 C471 C 0.69489 -0.07928 0.41028
 C472 C 0.69736 -0.11142 0.39054
 C473 C 0.72976 -0.12169 0.37152
 C474 C 0.76040 -0.09885 0.37243
 C475 C 0.75818 -0.06658 0.39335
 C476 C 0.72477 -0.05643 0.41162
 C477 C 0.78960 -0.04530 0.39519
 N478 N 0.82036 -0.05487 0.37579
 N479 N 0.82180 -0.08421 0.35469
 C480 C 0.79290 -0.10636 0.35216
 H481 H 0.66912 -0.07175 0.42392
 H482 H 0.67368 -0.12846 0.39009
 H483 H 0.79007 -0.02122 0.41193
 H484 H 0.79556 -0.12917 0.33381
 C485 C 0.64271 0.72698 -0.06426
 C486 C 0.66330 0.73258 -0.09534
 C487 C 0.65057 0.75664 -0.12187
 C488 C 0.61596 0.77559 -0.11649
 C489 C 0.59582 0.77107 -0.08384
 C490 C 0.60879 0.74563 -0.05808
 C491 C 0.56336 0.79246 -0.07801
 N492 N 0.55046 0.81474 -0.10427
 N493 N 0.56787 0.81716 -0.13588
 C494 C 0.59995 0.79824 -0.14297
 H495 H 0.65315 0.70737 -0.04506
 H496 H 0.68960 0.71785 -0.09860
 H497 H 0.54820 0.79189 -0.05278
 H498 H 0.61203 0.80069 -0.16952
 C499 C 0.35713 0.26290 -0.05378
 C500 C 0.33272 0.25902 -0.08324
 C501 C 0.34165 0.23616 -0.11290
 C502 C 0.37643 0.21672 -0.11250
 C503 C 0.40052 0.21935 -0.08143
 C504 C 0.39120 0.24354 -0.05232
 C505 C 0.43311 0.19738 -0.08051
 N506 N 0.44234 0.17642 -0.10987
 N507 N 0.42114 0.17586 -0.13998
 C508 C 0.38872 0.19541 -0.14240
 H509 H 0.34944 0.28168 -0.03201
 H510 H 0.30642 0.27411 -0.08270
 H511 H 0.45124 0.19647 -0.05671
 H512 H 0.37346 0.19453 -0.16796
 C513 C 0.37808 0.73685 0.05700
 C514 C 0.35459 0.74186 0.08673
 C515 C 0.35479 0.71715 0.11478
 C516 C 0.38008 0.68721 0.11329
 C517 C 0.40402 0.68215 0.08298
 C518 C 0.40284 0.70722 0.05469
 C519 C 0.42826 0.65185 0.08188
 N520 N 0.42907 0.62881 0.10983
 N521 N 0.40730 0.63403 0.13872
 C522 C 0.38296 0.66242 0.14148
 H523 H 0.37699 0.75627 0.03558
 H524 H 0.33554 0.76493 0.08750
 H525 H 0.44656 0.64624 0.05912
 H526 H 0.36650 0.66547 0.16586
 C527 C 0.61318 0.24955 0.06591
 C528 C 0.63788 0.24468 0.09516
 C529 C 0.65767 0.27317 0.10985
 C530 C 0.65158 0.30764 0.09538
 C531 C 0.62620 0.31265 0.06567
 C532 C 0.60725 0.28314 0.05060
 C533 C 0.61966 0.34741 0.05290
 N534 N 0.63769 0.37502 0.06860
 N535 N 0.66145 0.37033 0.09645
 C536 C 0.66884 0.33773 0.11051
 H537 H 0.59864 0.22681 0.05497
 H538 H 0.64195 0.21827 0.10616
 H539 H 0.60000 0.35310 0.03102
 H540 H 0.68757 0.33592 0.13377
 C541 C -0.06934 0.63663 0.68269
 C542 C -0.09811 0.66151 0.68979
 C543 C -0.11317 0.66619 0.72496
 C544 C -0.09619 0.64636 0.75409
 C545 C -0.06759 0.62005 0.74632
 C546 C -0.05438 0.61521 0.71028
 C547 C -0.05174 0.60052 0.77534
 N548 N -0.06253 0.60793 0.81004
 N549 N -0.08755 0.63395 0.81771
 C550 C -0.10421 0.65370 0.79115
 H551 H -0.05897 0.63365 0.65511
 H552 H -0.10960 0.67605 0.66682
 H553 H -0.03033 0.57993 0.77091
 H554 H -0.12199 0.67597 0.79972
 C555 C -0.04601 0.35983 0.29288
 C556 C -0.07571 0.33766 0.28680
 C557 C -0.10503 0.34702 0.26273
 C558 C -0.10400 0.38011 0.24468
 C559 C -0.07174 0.40081 0.24798
 C560 C -0.04327 0.39150 0.27377
 C561 C -0.06915 0.43013 0.22505
 N562 N -0.09874 0.44065 0.20405
 N563 N -0.13058 0.42368 0.20425
 C564 C -0.13434 0.39407 0.22409
 H565 H -0.02499 0.35209 0.31298
 H566 H -0.07549 0.31281 0.30116
 H567 H -0.04391 0.44473 0.22350
 H568 H -0.16137 0.38256 0.22434
 C569 C 0.05847 0.37417 0.70154
 C570 C 0.08867 0.35028 0.70578
 C571 C 0.11901 0.35853 0.72855
 C572 C 0.11888 0.39245 0.74674
 C573 C 0.08674 0.41569 0.74458
 C574 C 0.05668 0.40688 0.72082
 C575 C 0.08574 0.44679 0.76680
 N576 N 0.11626 0.45581 0.78663
 N577 N 0.14757 0.43571 0.78596
 C578 C 0.15001 0.40455 0.76654
 H579 H 0.03612 0.36689 0.68295
 H580 H 0.08785 0.32478 0.69143
 H581 H 0.06099 0.46394 0.76884
 H582 H 0.17656 0.39013 0.76614
 C583 C 0.08710 0.60032 0.30863
 C584 C 0.11606 0.62261 0.30143
 C585 C 0.11635 0.64177 0.26909
 C586 C 0.08631 0.63880 0.24370
 C587 C 0.05689 0.61594 0.25102
 C588 C 0.05734 0.59683 0.28390
 C589 C 0.02793 0.61286 0.22498
 N590 N 0.02798 0.63231 0.19428
 N591 N 0.05497 0.65459 0.18791
 C592 C 0.08401 0.65861 0.21156
 H593 H 0.08774 0.58587 0.33389
 H594 H 0.13870 0.62462 0.32117
 H595 H 0.00530 0.59518 0.22868
 H596 H 0.10463 0.67756 0.20512
 C597 C 0.70280 -0.04449 0.63239
 C598 C 0.71073 -0.07287 0.65536
 C599 C 0.74653 -0.08899 0.65715
 C600 C 0.77535 -0.07502 0.63618
 C601 C 0.76709 -0.04629 0.61243
 C602 C 0.73035 -0.03131 0.61029
 C603 C 0.79626 -0.03280 0.59235
 N604 N 0.83133 -0.04702 0.59604
 N605 N 0.83924 -0.07353 0.61869
 C606 C 0.81259 -0.08783 0.63901
 H607 H 0.67466 -0.03304 0.63136
 H608 H 0.68836 -0.08288 0.67125
 H609 H 0.79168 -0.01080 0.57413
 H610 H 0.82109 -0.10845 0.65773
 C611 C 0.23561 -0.08826 0.39121
 C612 C 0.23447 -0.11811 0.36802
 C613 C 0.26600 -0.13011 0.34852
 C614 C 0.29987 -0.11220 0.35359
 C615 C 0.30087 -0.08153 0.37695
 C616 C 0.26829 -0.06942 0.39553
 C617 C 0.33489 -0.06452 0.38177
 N618 N 0.36578 -0.07762 0.36453
 N619 N 0.36504 -0.10672 0.34312
 C620 C 0.33331 -0.12456 0.33725
 H621 H 0.21064 -0.07948 0.40559
 H622 H 0.20846 -0.13161 0.36478
 H623 H 0.33740 -0.04122 0.39940
 H624 H 0.33491 -0.14860 0.32054
 C625 C 0.74113 0.10202 0.40873
 C626 C 0.74647 0.12992 0.38522
 C627 C 0.72810 0.13157 0.35117
 C628 C 0.70331 0.10425 0.34099
 C629 C 0.69573 0.07742 0.36623
 C630 C 0.71628 0.07526 0.39960
 C631 C 0.66780 0.05334 0.35704
 N632 N 0.65148 0.05383 0.32347
 N633 N 0.66114 0.07680 0.29854
 C634 C 0.68669 0.10171 0.30598
 H635 H 0.75726 0.10093 0.43393
 H636 H 0.76558 0.15027 0.39365
 H637 H 0.65872 0.03415 0.37622
 H638 H 0.69432 0.11839 0.28401
 C639 C 0.27229 0.04881 0.63424
 C640 C 0.26580 0.07802 0.65762
 C641 C 0.23162 0.09730 0.65697
 C642 C 0.20289 0.08597 0.63282
 C643 C 0.20956 0.05609 0.60891
 C644 C 0.24480 0.03772 0.60942
 C645 C 0.18020 0.04491 0.58607
 N646 N 0.14663 0.06262 0.58703
 N647 N 0.14030 0.09049 0.60952
 C648 C 0.16713 0.10262 0.63256
 H649 H 0.29933 0.03501 0.63510
 H650 H 0.28804 0.08606 0.67597
 H651 H 0.18337 0.02196 0.56787
 H652 H 0.15989 0.12467 0.65085
   
