data_POSCAR
  _audit_creation_date              2014-09-24
  _audit_creation_method            'ToBaCCo'
  _symmetry_space_group_name_H-M    'P1'
  _symmetry_Int_Tables_number       1
  _symmetry_cell_setting            triclinic
  loop_
  _symmetry_equiv_pos_as_xyz
 x,y,z
_cell_length_a 11.0592
_cell_length_b 11.0781
_cell_length_c 11.0625
_cell_angle_alpha 88.471000
_cell_angle_beta 88.402400
_cell_angle_gamma 88.416600
loop_
  _atom_site_label
  _atom_site_type_symbol
  _atom_site_fract_x
  _atom_site_fract_y
  _atom_site_fract_z
N1 N 0.18261 0.18204 0.18129
 N2 N 0.73808 -0.26371 0.34033
 N3 N 0.73825 0.34044 0.73638
 N4 N 0.34295 -0.26337 0.73485
 N5 N 0.81739 -0.18204 0.81871
 N6 N 0.26192 0.26371 0.65967
 N7 N 0.26175 -0.34044 0.26362
 N8 N 0.65705 0.26337 0.26515
 O9 O 0.32542 0.06678 0.29368
 O10 O 0.40948 -0.15219 0.55237
 O11 O 0.34553 -0.16029 0.33002
 O12 O 0.34981 0.12131 0.51607
 O13 O 0.16384 0.09212 0.58010
 O14 O 0.17271 -0.20390 0.40989
 O15 O 0.23301 -0.11079 0.63205
 O16 O 0.13734 0.04101 0.34232
 Cu17 Cu 0.37434 -0.02981 0.42404
 Cu18 Cu 0.16780 -0.05267 0.48806
 C19 C 0.21594 0.09127 0.27378
 C20 C 0.33292 -0.16762 0.64015
 C21 C 0.25921 -0.23267 0.33897
 C22 C 0.25724 0.15708 0.58062
 O23 O 0.65447 0.16029 0.66998
 O24 O 0.65019 -0.12131 0.48393
 O25 O 0.67458 -0.06677 0.70632
 O26 O 0.59052 0.15220 0.44763
 O27 O 0.76699 0.11079 0.36795
 O28 O 0.86266 -0.04101 0.65768
 O29 O 0.83616 -0.09211 0.41991
 O30 O 0.82729 0.20390 0.59011
 Cu31 Cu 0.62566 0.02981 0.57596
 Cu32 Cu 0.83220 0.05267 0.51194
 C33 C 0.74079 0.23267 0.66103
 C34 C 0.74276 -0.15707 0.41938
 C35 C 0.78406 -0.09127 0.72622
 C36 C 0.66708 0.16762 0.35985
 O37 O 0.29442 0.32375 0.06473
 O38 O 0.55518 0.40683 -0.15249
 O39 O 0.33019 0.34899 -0.16129
 O40 O 0.51425 0.35192 0.12226
 O41 O 0.57852 0.16690 0.09223
 O42 O 0.40879 0.17606 -0.20464
 O43 O 0.63341 0.22945 -0.11257
 O44 O 0.34235 0.13569 0.03891
 Cu45 Cu 0.42509 0.37385 -0.03058
 Cu46 Cu 0.48862 0.16546 -0.05436
 C47 C 0.27439 0.21459 0.08947
 C48 C 0.64268 0.32994 -0.16818
 C49 C 0.33830 0.26245 -0.23335
 C50 C 0.57861 0.25960 0.15785
 O51 O 0.66981 0.65101 0.16129
 O52 O 0.48575 0.64808 -0.12226
 O53 O 0.70558 0.67625 -0.06473
 O54 O 0.44482 0.59317 0.15249
 O55 O 0.36659 0.77055 0.11257
 O56 O 0.65765 0.86431 -0.03891
 O57 O 0.42148 0.83310 -0.09223
 O58 O 0.59121 0.82394 0.20464
 Cu59 Cu 0.57491 0.62615 0.03058
 Cu60 Cu 0.51138 0.83454 0.05436
 C61 C 0.66170 0.73756 0.23335
 C62 C 0.42139 0.74040 -0.15785
 C63 C 0.72561 0.78541 -0.08947
 C64 C 0.35732 0.67006 0.16818
 O65 O 0.06471 0.29326 0.32269
 O66 O -0.15193 0.55335 0.40631
 O67 O -0.16215 0.32893 0.34974
 O68 O 0.12133 0.51425 0.35208
 O69 O 0.09028 0.57875 0.16730
 O70 O -0.20570 0.40831 0.17710
 O71 O -0.11167 0.63157 0.22873
 O72 O 0.04023 0.34163 0.13432
 Cu73 Cu -0.03056 0.42357 0.37327
 Cu74 Cu -0.05469 0.48679 0.16482
 C75 C 0.09033 0.27358 0.21346
 C76 C -0.16699 0.64085 0.32952
 C77 C -0.23476 0.33809 0.26359
 C78 C 0.15586 0.57948 0.25993
 O79 O 0.16215 0.67107 0.65026
 O80 O -0.12133 0.48575 0.64792
 O81 O -0.06471 0.70674 0.67731
 O82 O 0.15193 0.44665 0.59369
 O83 O 0.11167 0.36843 0.77127
 O84 O -0.04023 0.65838 0.86568
 O85 O -0.09028 0.42125 0.83270
 O86 O 0.20570 0.59169 0.82290
 Cu87 Cu 0.03056 0.57643 0.62673
 Cu88 Cu 0.05469 0.51321 0.83518
 C89 C 0.23476 0.66192 0.73641
 C90 C -0.15586 0.42052 0.74007
 C91 C -0.09033 0.72642 0.78654
 C92 C 0.16699 0.35915 0.67048
   
