data_POSCAR
  _audit_creation_date              2014-09-24
  _audit_creation_method            'ToBaCCo'
  _symmetry_space_group_name_H-M    'P1'
  _symmetry_Int_Tables_number       1
  _symmetry_cell_setting            triclinic
  loop_
  _symmetry_equiv_pos_as_xyz
 x,y,z
_cell_length_a 56.8245
_cell_length_b 56.0627
_cell_length_c 56.8301
_cell_angle_alpha 89.959500
_cell_angle_beta 89.999900
_cell_angle_gamma 90.017200
loop_
  _atom_site_label
  _atom_site_type_symbol
  _atom_site_fract_x
  _atom_site_fract_y
  _atom_site_fract_z
N1 N 0.59822 0.66250 0.61426
 N2 N 0.58904 0.65278 0.63322
 C3 C 0.56992 0.66539 0.63968
 C4 C 0.56705 0.68394 0.62392
 C5 C 0.58529 0.68160 0.60802
 H6 H 0.55888 0.66146 0.65469
 H7 H 0.58886 0.69296 0.59305
 Cu8 Cu 0.60302 0.62461 0.64753
 Cu9 Cu 0.62624 0.64972 0.59908
 Cu10 Cu 0.65145 0.59950 0.62434
 N11 N 0.61731 0.59645 0.66155
 N12 N 0.63626 0.58672 0.65237
 C13 C 0.64250 0.56762 0.66531
 C14 C 0.62659 0.56527 0.68357
 C15 C 0.61083 0.58384 0.68068
 H16 H 0.65747 0.55628 0.66172
 H17 H 0.59582 0.58781 0.69169
 N18 N 0.66420 0.61505 0.59595
 N19 N 0.65460 0.63417 0.58633
 C20 C 0.66728 0.64049 0.56729
 C21 C 0.68568 0.62461 0.56486
 C22 C 0.68323 0.60873 0.58327
 H23 H 0.66348 0.65552 0.55598
 H24 H 0.69453 0.59370 0.58708
 H25 H 0.62162 0.61488 0.61008
 H26 H 0.64048 0.63434 0.62892
 N27 N 0.90255 0.33695 0.11390
 N28 N 0.91175 0.34667 0.13284
 C29 C 0.93086 0.33404 0.13933
 C30 C 0.93371 0.31546 0.12360
 C31 C 0.91545 0.31782 0.10768
 H32 H 0.94188 0.33801 0.15434
 H33 H 0.91183 0.30648 0.09272
 Cu34 Cu 0.89781 0.37487 0.14710
 Cu35 Cu 0.87455 0.34976 0.09871
 Cu36 Cu 0.84941 0.40003 0.12386
 N37 N 0.88356 0.40306 0.16105
 N38 N 0.86463 0.41281 0.15185
 C39 C 0.85842 0.43192 0.16477
 C40 C 0.87433 0.43424 0.18301
 C41 C 0.89005 0.41567 0.18016
 H42 H 0.84348 0.44329 0.16120
 H43 H 0.90504 0.41172 0.19120
 N44 N 0.83663 0.38448 0.09551
 N45 N 0.84620 0.36534 0.08593
 C46 C 0.83350 0.35902 0.06691
 C47 C 0.81513 0.37493 0.06445
 C48 C 0.81760 0.39082 0.08282
 H49 H 0.83727 0.34397 0.05563
 H50 H 0.80633 0.40588 0.08660
 H51 H 0.87922 0.38460 0.10963
 H52 H 0.86033 0.36518 0.12851
 N53 N 0.40182 0.16307 -0.11423
 N54 N 0.41103 0.15333 -0.13315
 C55 C 0.43014 0.16595 -0.13963
 C56 C 0.43299 0.18452 -0.12392
 C57 C 0.41474 0.18219 -0.10803
 H58 H 0.44120 0.16200 -0.15462
 H59 H 0.41116 0.19356 -0.09309
 Cu60 Cu 0.39708 0.12512 -0.14739
 Cu61 Cu 0.37381 0.15027 -0.09903
 Cu62 Cu 0.34867 0.09997 -0.12415
 N63 N 0.38282 0.09691 -0.16133
 N64 N 0.36388 0.08717 -0.15213
 C65 C 0.35768 0.06804 -0.16503
 C66 C 0.37359 0.06570 -0.18326
 C67 C 0.38932 0.08428 -0.18042
 H68 H 0.34273 0.05666 -0.16145
 H69 H 0.40432 0.08823 -0.19146
 N70 N 0.33588 0.11554 -0.09582
 N71 N 0.34545 0.13469 -0.08626
 C72 C 0.33275 0.14103 -0.06724
 C73 C 0.31437 0.12511 -0.06477
 C74 C 0.31685 0.10920 -0.08313
 H75 H 0.33652 0.15608 -0.05598
 H76 H 0.30557 0.09414 -0.08690
 H77 H 0.37847 0.11542 -0.10992
 H78 H 0.35960 0.13481 -0.12883
 N79 N 0.09721 0.83701 0.38630
 N80 N 0.08770 0.84706 0.36767
 C81 C 0.06859 0.83443 0.36119
 C82 C 0.06605 0.81551 0.37662
 C83 C 0.08450 0.81768 0.39233
 H84 H 0.05736 0.83861 0.34638
 H85 H 0.08838 0.80606 0.40703
 Cu86 Cu 0.10123 0.87563 0.35368
 Cu87 Cu 0.12533 0.84970 0.40134
 Cu88 Cu 0.15041 0.90002 0.37622
 N89 N 0.11586 0.90353 0.33948
 N90 N 0.13508 0.91297 0.34838
 C91 C 0.14145 0.93193 0.33530
 C92 C 0.12536 0.93447 0.31725
 C93 C 0.10936 0.91618 0.32039
 H94 H 0.15664 0.94306 0.33863
 H95 H 0.09417 0.91244 0.30954
 N96 N 0.16333 0.88432 0.40443
 N97 N 0.15378 0.86515 0.41400
 C98 C 0.16655 0.85874 0.43295
 C99 C 0.18495 0.87463 0.43538
 C100 C 0.18242 0.89060 0.41705
 H101 H 0.16279 0.84367 0.44422
 H102 H 0.19369 0.90567 0.41327
 H103 H 0.12074 0.88470 0.39087
 H104 H 0.13899 0.86534 0.37134
 C105 C 0.10671 0.12527 0.14278
 C106 C 0.08922 0.14292 0.14254
 C107 C 0.08897 0.16063 0.12497
 C108 C 0.10657 0.16045 0.10754
 C109 C 0.12418 0.14291 0.10757
 C110 C 0.12427 0.12525 0.12524
 C111 C 0.10691 0.10764 0.16032
 C112 C 0.12444 0.08991 0.16061
 C113 C 0.14188 0.09004 0.14302
 C114 C 0.14190 0.10756 0.12538
 C115 C 0.15931 0.10765 0.10787
 C116 C 0.15938 0.12520 0.09015
 C117 C 0.14170 0.14278 0.09017
 H118 H 0.07579 0.14281 0.15608
 H119 H 0.10662 0.17396 0.09389
 H120 H 0.09336 0.10778 0.17374
 H121 H 0.15550 0.07651 0.14301
 H122 H 0.17281 0.09400 0.10810
 H123 H 0.14151 0.15641 0.07664
 C124 C 0.39279 0.87475 0.64274
 C125 C 0.41033 0.85714 0.64253
 C126 C 0.41062 0.83943 0.62499
 C127 C 0.39302 0.83956 0.60756
 C128 C 0.37537 0.85706 0.60756
 C129 C 0.37524 0.87472 0.62521
 C130 C 0.39255 0.89238 0.66025
 C131 C 0.37497 0.91007 0.66052
 C132 C 0.35753 0.90988 0.64293
 C133 C 0.35755 0.89236 0.62532
 C134 C 0.34014 0.89222 0.60781
 C135 C 0.34011 0.87467 0.59012
 C136 C 0.35784 0.85714 0.59017
 H137 H 0.42376 0.85728 0.65607
 H138 H 0.39300 0.82604 0.59394
 H139 H 0.40610 0.89228 0.67367
 H140 H 0.34388 0.92338 0.64290
 H141 H 0.32661 0.90584 0.60802
 H142 H 0.35806 0.84350 0.57666
 C143 C 0.89328 0.62500 0.35726
 C144 C 0.91079 0.64265 0.35751
 C145 C 0.91105 0.66034 0.37507
 C146 C 0.89345 0.66013 0.39251
 C147 C 0.87584 0.64259 0.39249
 C148 C 0.87574 0.62495 0.37481
 C149 C 0.89307 0.60739 0.33973
 C150 C 0.87553 0.58966 0.33944
 C151 C 0.85810 0.58977 0.35704
 C152 C 0.85809 0.60726 0.37468
 C153 C 0.84069 0.60732 0.39219
 C154 C 0.84063 0.62485 0.40992
 C155 C 0.85833 0.64243 0.40989
 H156 H 0.92421 0.64257 0.34396
 H157 H 0.89341 0.67363 0.40615
 H158 H 0.90662 0.60755 0.32631
 H159 H 0.84448 0.57624 0.35705
 H160 H 0.82719 0.59367 0.39197
 H161 H 0.85853 0.65604 0.42341
 C162 C 0.60740 0.37532 -0.14303
 C163 C 0.58984 0.35773 -0.14278
 C164 C 0.58953 0.34001 -0.12522
 C165 C 0.60714 0.34013 -0.10780
 C166 C 0.62481 0.35761 -0.10783
 C167 C 0.62496 0.37528 -0.12550
 C168 C 0.60766 0.39296 -0.16056
 C169 C 0.62525 0.41063 -0.16086
 C170 C 0.64270 0.41043 -0.14327
 C171 C 0.64266 0.39291 -0.12564
 C172 C 0.66008 0.39276 -0.10814
 C173 C 0.66009 0.37520 -0.09042
 C174 C 0.64234 0.35768 -0.09044
 H175 H 0.57640 0.35788 -0.15632
 H176 H 0.60715 0.32661 -0.09416
 H177 H 0.59410 0.39286 -0.17397
 H178 H 0.65637 0.42392 -0.14326
 H179 H 0.67363 0.40637 -0.10836
 H180 H 0.64211 0.34404 -0.07692
 N181 N -0.01514 0.28140 0.14082
 C182 C -0.01473 0.26421 0.12406
 N183 N -0.03155 0.26416 0.10715
 N184 N -0.04829 0.28080 0.10699
 C185 C -0.04878 0.29806 0.12375
 N186 N -0.03188 0.29804 0.14067
 C187 C 0.00329 0.24628 0.12423
 C188 C 0.01841 0.23120 0.12437
 C189 C 0.03639 0.21324 0.12453
 N190 N 0.03664 0.19621 0.14146
 N191 N 0.05333 0.17952 0.14159
 C192 C 0.07038 0.17924 0.12482
 N193 N 0.07002 0.19639 0.10790
 N194 N 0.05333 0.21308 0.10775
 N195 N 0.51493 0.71886 0.64108
 C196 C 0.51449 0.73604 0.62428
 N197 N 0.53131 0.73610 0.60736
 N198 N 0.54807 0.71948 0.60724
 C199 C 0.54857 0.70225 0.62405
 N200 N 0.53169 0.70224 0.64097
 C201 C 0.49645 0.75394 0.62442
 C202 C 0.48131 0.76900 0.62452
 C203 C 0.46329 0.78692 0.62465
 N204 N 0.46301 0.80396 0.64155
 N205 N 0.44629 0.82062 0.64165
 C206 C 0.42924 0.82086 0.62487
 N207 N 0.42965 0.80370 0.60798
 N208 N 0.44636 0.78704 0.60786
 N209 N 1.03174 0.76374 0.39266
 C210 C 1.01468 0.76404 0.37599
 N211 N 1.01480 0.78155 0.35952
 N212 N 1.03148 0.79826 0.35972
 C213 C 1.04862 0.79803 0.37639
 N214 N 1.04842 0.78045 0.39286
 C215 C 0.99670 0.74606 0.37580
 C216 C 0.98160 0.73096 0.37565
 C217 C 0.96362 0.71298 0.37549
 N218 N 0.94669 0.71279 0.39228
 N219 N 0.93001 0.69608 0.39214
 C220 C 0.92963 0.67895 0.37522
 N221 N 0.94669 0.67927 0.35843
 N222 N 0.96337 0.69597 0.35856
 N223 N 0.48514 0.21945 -0.14113
 C224 C 0.48557 0.23665 -0.12438
 N225 N 0.46873 0.23673 -0.10747
 N226 N 0.45196 0.22010 -0.10733
 C227 C 0.45148 0.20285 -0.12408
 N228 N 0.46837 0.20282 -0.14099
 C229 C 0.50361 0.25456 -0.12454
 C230 C 0.51877 0.26961 -0.12467
 C231 C 0.53680 0.28753 -0.12481
 N232 N 0.55374 0.28763 -0.10803
 N233 N 0.57047 0.30429 -0.10817
 C234 C 0.57089 0.32145 -0.12508
 N235 N 0.55383 0.32123 -0.14185
 N236 N 0.53709 0.30458 -0.14172
 N237 N 0.10804 -0.03044 0.26525
 C238 C 0.12508 -0.01352 0.26455
 N239 N 0.14222 -0.01369 0.28114
 N240 N 0.14231 -0.03029 0.29794
 C241 C 0.12527 -0.04726 0.29870
 N242 N 0.10813 -0.04703 0.28205
 C243 C 0.12496 0.00437 0.24648
 C244 C 0.12486 0.01942 0.23132
 C245 C 0.12474 0.03736 0.21330
 N246 N 0.10785 0.05441 0.21300
 N247 N 0.10775 0.07108 0.19628
 C248 C 0.12454 0.07132 0.17923
 N249 N 0.14143 0.05414 0.17965
 N250 N 0.14153 0.03747 0.19637
 N251 N 0.60940 0.53128 -0.26520
 C252 C 0.62617 0.51410 -0.26474
 N253 N 0.64309 0.51403 -0.28156
 N254 N 0.64323 0.53065 -0.29834
 C255 C 0.62645 0.54791 -0.29887
 N256 N 0.60953 0.54790 -0.28198
 C257 C 0.62601 0.49619 -0.24670
 C258 C 0.62588 0.48113 -0.23155
 C259 C 0.62571 0.46319 -0.21353
 N260 N 0.64251 0.46302 -0.19661
 N261 N 0.64236 0.44634 -0.17989
 C262 C 0.62541 0.42922 -0.17947
 N263 N 0.60861 0.42952 -0.19651
 N264 N 0.60875 0.44619 -0.21323
 N265 N 0.35716 1.01347 0.78108
 C266 C 0.37408 1.01355 0.76426
 N267 N 0.39084 1.03076 0.76467
 N268 N 0.39068 1.04740 0.78141
 C269 C 0.37376 1.04737 0.79828
 N270 N 0.35700 1.03010 0.79781
 C271 C 0.37425 0.99563 0.74624
 C272 C 0.37439 0.98057 0.73112
 C273 C 0.37455 0.96262 0.71312
 N274 N 0.39148 0.94561 0.71286
 N275 N 0.39161 0.92894 0.69617
 C276 C 0.37483 0.92866 0.67911
 N277 N 0.35791 0.94579 0.67950
 N278 N 0.35776 0.96247 0.69619
 N279 N 0.85787 0.48642 0.21872
 C280 C 0.87478 0.48633 0.23556
 N281 N 0.89154 0.46913 0.23513
 N282 N 0.89140 0.45252 0.21837
 C283 C 0.87449 0.45256 0.20149
 N284 N 0.85773 0.46981 0.20197
 C285 C 0.87493 0.50423 0.25359
 C286 C 0.87505 0.51927 0.26874
 C287 C 0.87519 0.53719 0.28676
 N288 N 0.89208 0.55425 0.28704
 N289 N 0.89219 0.57089 0.30376
 C290 C 0.87542 0.57110 0.32082
 N291 N 0.85853 0.55392 0.32042
 N292 N 0.85841 0.53727 0.30370
 N293 N 0.27938 0.14207 -0.01286
 C294 C 0.26236 0.12510 -0.01279
 N295 N 0.26244 0.10814 -0.02978
 N296 N 0.27902 0.10815 -0.04636
 C297 C 0.29608 0.12511 -0.04649
 N298 N 0.29596 0.14207 -0.02944
 C299 C 0.24451 0.12510 0.00507
 C300 C 0.22950 0.12511 0.02006
 C301 C 0.21164 0.12514 0.03791
 N302 N 0.21159 0.10824 0.05497
 N303 N 0.19500 0.10826 0.07155
 C304 C 0.17786 0.12518 0.07168
 N305 N 0.17804 0.14207 0.05450
 N306 N 0.19462 0.14206 0.03792
 N307 N 0.72063 0.64156 0.51289
 C308 C 0.73767 0.62464 0.51286
 N309 N 0.73763 0.60771 0.52991
 N310 N 0.72105 0.60770 0.54649
 C311 C 0.70396 0.62462 0.54658
 N312 N 0.70405 0.64155 0.52947
 C313 C 0.75552 0.62465 0.49501
 C314 C 0.77053 0.62467 0.48001
 C315 C 0.78838 0.62471 0.46216
 N316 N 0.78843 0.60783 0.44511
 N317 N 0.80501 0.60788 0.42853
 C318 C 0.82216 0.62480 0.42839
 N319 N 0.82199 0.64168 0.44556
 N320 N 0.80541 0.64164 0.46214
 N321 N 0.78013 0.35802 0.01252
 C322 C 0.76312 0.37498 0.01246
 N323 N 0.76320 0.39192 0.02948
 N324 N 0.77978 0.39190 0.04606
 C325 C 0.79684 0.37494 0.04617
 N326 N 0.79672 0.35801 0.02910
 C327 C 0.74527 0.37499 -0.00539
 C328 C 0.73026 0.37502 -0.02038
 C329 C 0.71239 0.37506 -0.03822
 N330 N 0.71239 0.39197 -0.05527
 N331 N 0.69579 0.39201 -0.07183
 C332 C 0.67858 0.37515 -0.07196
 N333 N 0.67871 0.35825 -0.05479
 N334 N 0.69530 0.35820 -0.03823
 N335 N 0.23697 0.89153 0.47026
 C336 C 0.23707 0.87455 0.48725
 N337 N 0.22006 0.85759 0.48720
 N338 N 0.20344 0.85760 0.47066
 C339 C 0.20329 0.87459 0.45361
 N340 N 0.22035 0.89156 0.45371
 C341 C 0.25495 0.87455 0.50508
 C342 C 0.26996 0.87456 0.52007
 C343 C 0.28783 0.87458 0.53791
 N344 N 0.30489 0.85770 0.53794
 N345 N 0.32148 0.85773 0.55451
 C346 C 0.32163 0.87464 0.57166
 N347 N 0.30444 0.89151 0.57150
 N348 N 0.28785 0.89149 0.55494
   
