data_POSCAR
  _audit_creation_date              2014-09-24
  _audit_creation_method            'ToBaCCo'
  _symmetry_space_group_name_H-M    'P1'
  _symmetry_Int_Tables_number       1
  _symmetry_cell_setting            triclinic
  loop_
  _symmetry_equiv_pos_as_xyz
 x,y,z
_cell_length_a 32.3668
_cell_length_b 33.2178
_cell_length_c 32.2429
_cell_angle_alpha 89.254400
_cell_angle_beta 89.784700
_cell_angle_gamma 89.825200
loop_
  _atom_site_label
  _atom_site_type_symbol
  _atom_site_fract_x
  _atom_site_fract_y
  _atom_site_fract_z
C1 C 0.15084 0.15644 0.21073
 C2 C 0.18737 0.13712 0.19733
 C3 C 0.20986 0.15139 0.16242
 C4 C 0.19608 0.18688 0.14233
 C5 C 0.16030 0.20668 0.15563
 C6 C 0.13788 0.19149 0.18944
 H7 H 0.19810 0.11091 0.21438
 H8 H 0.21251 0.19889 0.11557
 H9 H 0.11096 0.20814 0.19954
 C10 C -0.14490 0.84922 0.19755
 C11 C -0.13084 0.81523 0.17578
 C12 C -0.15107 0.80217 0.14010
 C13 C -0.18573 0.82321 0.12547
 C14 C -0.20048 0.85688 0.14671
 C15 C -0.18050 0.86944 0.18291
 H16 H -0.10487 0.79769 0.18700
 H17 H -0.20131 0.81331 0.09771
 H18 H -0.19218 0.89569 0.19883
 C19 C -0.15371 0.17088 -0.21376
 C20 C -0.13909 0.20782 -0.19862
 C21 C -0.15734 0.22599 -0.16430
 C22 C -0.18998 0.20674 -0.14377
 C23 C -0.20688 0.17069 -0.15890
 C24 C -0.18963 0.15408 -0.19532
 H25 H -0.11365 0.22325 -0.21369
 H26 H -0.20363 0.22164 -0.11736
 H27 H -0.20183 0.12606 -0.20695
 C28 C 0.18503 0.81810 -0.22963
 C29 C 0.16765 0.78188 -0.21559
 C30 C 0.18038 0.76442 -0.17805
 C31 C 0.20992 0.78405 -0.15392
 C32 C 0.22762 0.82091 -0.16704
 C33 C 0.21560 0.83692 -0.20603
 H34 H 0.14332 0.76796 -0.23338
 H35 H 0.21954 0.76933 -0.12550
 H36 H 0.22787 0.86544 -0.21708
 C37 C 0.13488 1.15060 0.80307
 C38 C 0.17310 1.13569 0.81664
 C39 C 0.19415 1.15415 0.84912
 C40 C 0.17755 1.18876 0.86731
 C41 C 0.13876 1.20349 0.85475
 C42 C 0.11744 1.18413 0.82273
 H43 H 0.18613 1.10903 0.80253
 H44 H 0.19366 1.20282 0.89270
 H45 H 0.08789 1.19584 0.81241
 C46 C 0.84856 0.83934 0.80335
 C47 C 0.85761 0.79841 0.81158
 C48 C 0.83561 0.77652 0.84243
 C49 C 0.80272 0.79585 0.86311
 C50 C 0.79438 0.83649 0.85564
 C51 C 0.81763 0.85823 0.82679
 H52 H 0.88216 0.78381 0.79436
 H53 H 0.78508 0.78060 0.88714
 H54 H 0.80898 0.88926 0.82052
 C55 C 0.15078 0.85716 1.19972
 C56 C 0.18397 0.87297 1.17614
 C57 C 0.19695 0.85467 1.13937
 C58 C 0.17658 0.82026 1.12552
 C59 C 0.14424 0.80353 1.14890
 C60 C 0.13187 0.82147 1.18610
 H61 H 0.20090 0.89896 1.18658
 H62 H 0.18633 0.80611 1.09699
 H63 H 0.10636 0.80834 1.20339
 C64 C 0.83518 1.15655 1.21451
 C65 C 0.79826 1.14563 1.19454
 C66 C 0.78082 1.17027 1.16353
 C67 C 0.80109 1.20566 1.15107
 C68 C 0.83892 1.21604 1.16901
 C69 C 0.85497 1.19230 1.20152
 H70 H 0.78141 1.11905 1.20426
 H71 H 0.78868 1.22383 1.12586
 H72 H 0.88389 1.20110 1.21559
 O73 O 0.43882 0.93639 0.91883
 O74 O 0.39463 0.97553 0.95727
 C75 C 0.40222 0.94836 0.92969
 O76 O 0.55576 0.93388 1.06645
 O77 O 0.60234 0.96910 1.02631
 C78 C 0.59321 0.94296 1.05513
 O79 O 0.44033 0.93584 1.06629
 O80 O 0.39579 0.97427 1.02713
 C81 C 0.40351 0.94703 1.05523
 O82 O 0.55426 0.93406 0.91548
 O83 O 0.60131 0.96839 0.95459
 C84 C 0.59175 0.94244 0.92654
 Zr85 Zr 0.49749 0.95591 0.93885
 O86 O 0.49782 0.89219 0.93851
 O87 O 0.49605 0.95978 0.87339
 Zr88 Zr 0.49831 0.95523 1.04337
 O89 O 0.49639 0.89200 1.03721
 O90 O 0.49879 0.94969 1.10878
 O91 O 0.46060 0.94904 0.99165
 O92 O 0.53360 0.94678 0.99089
 O93 O 0.55932 1.07222 0.91106
 O94 O 0.60367 1.03660 0.95320
 C95 C 0.59609 1.06133 0.92273
 O96 O 0.44519 1.08283 1.06188
 O97 O 0.39804 1.04441 1.02703
 C98 C 0.40766 1.07269 1.05249
 O99 O 0.56160 1.07438 1.06456
 O100 O 0.60466 1.03473 1.02558
 C101 C 0.59799 1.06120 1.05395
 O102 O 0.44389 1.08307 0.91903
 O103 O 0.39773 1.04515 0.95688
 C104 C 0.40657 1.07340 0.93030
 Zr105 Zr 0.50127 1.05743 0.93787
 O106 O 0.50947 1.12065 0.93855
 O107 O 0.49602 1.05878 0.87249
 Zr108 Zr 0.50223 1.05727 1.04254
 O109 O 0.50928 1.12061 1.04191
 O110 O 0.49865 1.05680 1.10811
 Zr111 Zr 0.43810 1.00858 0.99153
 Zr112 Zr 0.56120 1.00396 0.99020
 O113 O 0.53807 1.06324 0.98965
 O114 O 0.46504 1.06644 0.99057
 O115 O 0.53619 1.00515 0.92999
 O116 O 0.46450 1.00763 1.05108
 O117 O 0.46332 1.00809 0.93126
 O118 O 0.53685 1.00475 1.05093
 H119 H 0.55125 0.92235 0.99106
 H120 H 0.44605 1.00850 1.07564
 H121 H 0.55791 1.08590 0.98895
 H122 H 0.44466 1.00920 0.90698
 H123 H 0.49195 0.97646 1.11992
 H124 H 0.52162 1.03978 1.11855
 H125 H 0.48717 1.13207 1.02423
 H126 H 0.48571 1.13239 0.95358
 H127 H 0.51140 1.03518 0.86205
 H128 H 0.49499 0.93171 0.86343
 H129 H 0.47748 0.88300 0.95955
 H130 H 0.49759 0.88069 1.06577
 O131 O 0.08327 0.44170 -0.05454
 O132 O 0.03968 0.39938 -0.01854
 C133 C 0.07037 0.40608 -0.04363
 O134 O 0.07273 0.55998 0.08593
 O135 O 0.03681 0.60309 0.04293
 C136 C 0.06255 0.59585 0.07285
 O137 O 0.07507 0.44642 0.08847
 O138 O 0.03786 0.40153 0.05004
 C139 C 0.06505 0.41010 0.07792
 O140 O 0.08060 0.55482 -0.06452
 O141 O 0.04216 0.60015 -0.02742
 C142 C 0.07042 0.59128 -0.05427
 Zr143 Zr 0.05870 0.49908 -0.03968
 O144 O 0.12399 0.50133 -0.03857
 O145 O 0.05767 0.49496 -0.10501
 Zr146 Zr 0.05346 0.50261 0.06501
 O147 O 0.11875 0.50341 0.06463
 O148 O 0.05110 0.50103 0.13064
 O149 O 0.06366 0.46496 0.01484
 O150 O 0.06391 0.53565 0.01138
 O151 O -0.06267 0.55590 -0.07277
 O152 O -0.02567 0.60087 -0.03416
 C153 C -0.05076 0.59210 -0.06392
 O154 O -0.07740 0.44898 0.07978
 O155 O -0.03469 0.40293 0.04889
 C156 C -0.06587 0.41237 0.07224
 O157 O -0.07027 0.56127 0.08050
 O158 O -0.03179 0.60353 0.03907
 C159 C -0.05910 0.59682 0.06776
 O160 O -0.06828 0.44243 -0.06239
 O161 O -0.03204 0.39992 -0.01901
 C162 C -0.05923 0.40687 -0.04754
 Zr163 Zr -0.04558 0.50002 -0.04493
 O164 O -0.11071 0.50540 -0.04790
 O165 O -0.04215 0.49371 -0.11007
 Zr166 Zr -0.05086 0.50402 0.05988
 O167 O -0.11588 0.51032 0.05703
 O168 O -0.05361 0.50079 0.12546
 Zr169 Zr 0.00326 0.44172 0.01323
 Zr170 Zr 0.00448 0.56118 0.00714
 O171 O -0.05548 0.53714 0.00526
 O172 O -0.05669 0.46643 0.00897
 O173 O 0.00745 0.53513 -0.05203
 O174 O 0.00048 0.46856 0.07185
 O175 O 0.00661 0.46418 -0.04800
 O176 O 0.00130 0.53943 0.06876
 H177 H 0.08854 0.55328 0.01181
 H178 H -0.00096 0.45100 0.09688
 H179 H -0.07920 0.55596 0.00302
 H180 H 0.00749 0.44493 -0.07121
 H181 H 0.03351 0.52378 0.13948
 H182 H -0.03693 0.52322 0.13622
 H183 H -0.12625 0.48922 0.03841
 H184 H -0.12263 0.48271 -0.03174
 H185 H -0.01972 0.51158 -0.12008
 H186 H 0.08695 0.49435 -0.11403
 H187 H 0.13283 0.48699 -0.01301
 H188 H 0.12728 0.50438 0.09409
 O189 O 1.06774 -0.08207 0.56077
 O190 O 1.02731 -0.04659 0.60634
 C191 C 1.05557 -0.07303 0.59798
 O192 O 1.07409 0.06209 0.44731
 O193 O 1.03340 0.02912 0.40051
 C194 C 1.06272 0.05383 0.40981
 O195 O 1.07429 0.05565 0.56362
 O196 O 1.03053 0.02161 0.60783
 C197 C 1.06117 0.04573 0.60045
 O198 O 1.06282 -0.08446 0.44388
 O199 O 1.03027 -0.04054 0.39901
 C200 C 1.05394 -0.07117 0.40687
 Zr201 Zr 1.04508 -0.06134 0.50245
 O202 O 1.11022 -0.06584 0.49899
 O203 O 1.03831 -0.12462 0.50394
 Zr204 Zr 1.05079 0.03999 0.50485
 O205 O 1.11571 0.03299 0.50428
 O206 O 1.05482 0.10335 0.50985
 O207 O 1.05504 -0.01228 0.54086
 O208 O 1.05604 -0.00994 0.46760
 O209 O 0.92002 -0.07417 0.44188
 O210 O 0.96166 -0.03715 0.39792
 C211 C 0.93242 -0.06287 0.40516
 O212 O 0.92083 0.06217 0.56173
 O213 O 0.95940 0.02397 0.60724
 C214 C 0.93096 0.05037 0.59887
 O215 O 0.93099 0.07318 0.44576
 O216 O 0.96496 0.03247 0.39969
 C217 C 0.94115 0.06258 0.40847
 O218 O 0.91847 -0.07908 0.55856
 O219 O 0.95682 -0.04340 0.60520
 C220 C 0.92937 -0.07009 0.59609
 Zr221 Zr 0.94070 -0.05564 0.50102
 O222 O 0.87563 -0.04969 0.49770
 O223 O 0.93600 -0.11914 0.50098
 Zr224 Zr 0.94624 0.04593 0.50354
 O225 O 0.88138 0.05034 0.49663
 O226 O 0.94946 0.10903 0.51115
 Zr227 Zr 0.99439 -0.00967 0.56462
 Zr228 Zr 0.99679 -0.00554 0.44139
 O229 O 0.93660 -0.00308 0.46614
 O230 O 0.93459 -0.00581 0.53918
 O231 O 0.99313 -0.06495 0.46461
 O232 O 0.99815 0.04926 0.54032
 O233 O 0.99209 -0.06696 0.53751
 O234 O 0.99969 0.05219 0.46755
 H235 H 1.08061 -0.01112 0.44920
 H236 H 0.99871 0.07215 0.55971
 H237 H 0.91283 -0.00070 0.44697
 H238 H 0.99136 -0.09149 0.55531
 H239 H 1.03998 0.11535 0.48592
 H240 H 0.96946 0.11950 0.49046
 H241 H 0.86887 0.03043 0.51594
 H242 H 0.86584 -0.03902 0.52453
 H243 H 0.95953 -0.12934 0.48446
 H244 H 1.06669 -0.13589 0.50429
 H245 H 1.12147 -0.04438 0.51666
 H246 H 1.12738 0.06052 0.50518
 C247 C 1.12801 0.10291 0.30803
 C248 C 1.08544 0.10970 0.31246
 N249 N 1.06523 0.13212 0.28354
 C250 C 1.08558 0.14831 0.25039
 C251 C 1.12838 0.14099 0.24509
 N252 N 1.14817 0.11800 0.27431
 N253 N 1.14859 0.08167 0.33774
 C254 C 1.12838 0.06669 0.37159
 C255 C 1.08555 0.07240 0.37538
 N256 N 1.06499 0.09371 0.34558
 H257 H 1.06779 0.16502 0.22766
 H258 H 1.14531 0.04954 0.39475
 C259 C 0.87245 -0.10423 0.29824
 C260 C 0.91472 -0.11151 0.30435
 N261 N 0.93653 -0.13172 0.27530
 C262 C 0.91804 -0.14530 0.24042
 C263 C 0.87559 -0.13753 0.23349
 N264 N 0.85416 -0.11667 0.26282
 N265 N 0.85029 -0.08525 0.32807
 C266 C 0.86864 -0.07298 0.36362
 C267 C 0.91122 -0.07914 0.36912
 N268 N 0.93333 -0.09816 0.33920
 H269 H 0.93706 -0.16034 0.21774
 H270 H 0.85051 -0.05751 0.38680
 C271 C 0.86752 0.10493 0.69804
 C272 C 0.90978 0.11190 0.69127
 N273 N 0.93024 0.13766 0.71594
 C274 C 0.91044 0.15736 0.74683
 C275 C 0.86776 0.15082 0.75411
 N276 N 0.84770 0.12398 0.72957
 N277 N 0.84683 0.08003 0.67230
 C278 C 0.86655 0.06195 0.64006
 C279 C 0.90897 0.06855 0.63373
 N280 N 0.92961 0.09330 0.65966
 H281 H 0.92870 0.17650 0.76640
 H282 H 0.84943 0.04248 0.61971
 C283 C 1.10862 -0.13434 0.70007
 C284 C 1.13309 -0.12319 0.66577
 N285 N 1.17432 -0.13112 0.66635
 C286 C 1.19213 -0.14974 0.69969
 C287 C 1.16746 -0.16158 0.73362
 N288 N 1.12623 -0.15357 0.73286
 N289 N 1.06776 -0.12520 0.70039
 C290 C 1.05013 -0.10530 0.66791
 C291 C 1.07429 -0.09462 0.63320
 N292 N 1.11532 -0.10399 0.63286
 H293 H 1.22503 -0.15568 0.69956
 H294 H 1.01744 -0.09833 0.66894
 C295 C 0.30669 1.13310 1.10646
 C296 C 0.31270 1.09177 1.11331
 N297 N 0.28545 1.07096 1.13728
 C298 C 0.25228 1.08950 1.15476
 C299 C 0.24514 1.13099 1.14710
 N300 N 0.27294 1.15143 1.12282
 N301 N 0.33464 1.15424 1.08347
 C302 C 0.36824 1.13572 1.06673
 C303 C 0.37352 1.09407 1.07242
 N304 N 0.34553 1.07303 1.09561
 H305 H 0.23088 1.07117 1.17245
 H306 H 0.39000 1.15305 1.04827
 C307 C 0.30798 0.89243 0.86233
 C308 C 0.31377 0.88309 0.90446
 N309 N 0.29049 0.85397 0.92264
 C310 C 0.26206 0.83321 0.90062
 C311 C 0.25632 0.84186 0.85783
 N312 N 0.27945 0.87194 0.84032
 N313 N 0.33183 0.92098 0.84374
 C314 C 0.36157 0.94033 0.86538
 C315 C 0.36752 0.93089 0.90749
 N316 N 0.34336 0.90251 0.92620
 H317 H 0.24366 0.81127 0.91723
 H318 H 0.38081 0.96247 0.84978
 C319 C 0.69322 0.88103 1.11130
 C320 C 0.69822 0.92018 1.09517
 N321 N 0.73565 0.93835 1.09758
 C322 C 0.76843 0.91899 1.11513
 C323 C 0.76381 0.87941 1.13024
 N324 N 0.72620 0.86131 1.12792
 N325 N 0.65551 0.86333 1.10990
 C326 C 0.62256 0.88291 1.09290
 C327 C 0.62769 0.92173 1.07570
 N328 N 0.66559 0.93934 1.07728
 H329 H 0.79807 0.93393 1.11643
 H330 H 0.59292 0.86796 1.09196
 C331 C 0.69920 1.11137 0.86018
 C332 C 0.69369 1.11619 0.90302
 N333 N 0.72115 1.13824 0.92458
 C334 C 0.75368 1.15629 0.90533
 C335 C 0.75986 1.15165 0.86216
 N336 N 0.73243 1.12851 0.84092
 N337 N 0.67054 1.09064 0.83841
 C338 C 0.63668 1.07457 0.85762
 C339 C 0.63171 1.07870 0.90067
 N340 N 0.66055 1.09930 0.92234
 H341 H 0.77523 1.17272 0.92419
 H342 H 0.61420 1.05825 0.83967
 C343 C 0.12186 0.31050 0.13703
 C344 C 0.11090 0.30917 0.09499
 N345 N 0.11824 0.27524 0.07310
 C346 C 0.13567 0.24231 0.09150
 C347 C 0.14535 0.24308 0.13391
 N348 N 0.13822 0.27729 0.15568
 N349 N 0.11547 0.34482 0.15861
 C350 C 0.09822 0.37783 0.14012
 C351 C 0.08590 0.37608 0.09845
 N352 N 0.09268 0.34170 0.07688
 H353 H 0.14071 0.21538 0.07360
 H354 H 0.09318 0.40474 0.15804
 C355 C -0.11733 0.30268 -0.09231
 C356 C -0.10839 0.33504 -0.11937
 N357 N -0.11623 0.33147 -0.16049
 C358 C -0.13229 0.29691 -0.17581
 C359 C -0.14121 0.26447 -0.14876
 N360 N -0.13374 0.26841 -0.10752
 N361 N -0.10830 0.30554 -0.05145
 C362 C -0.09031 0.33915 -0.03638
 C363 C -0.08118 0.37162 -0.06329
 N364 N -0.09077 0.36893 -0.10425
 H365 H -0.13818 0.29480 -0.20873
 H366 H -0.08309 0.34048 -0.00366
 C367 C 0.13258 0.69204 -0.10425
 C368 C 0.12341 0.65922 -0.12965
 N369 N 0.13305 0.66125 -0.17068
 C370 C 0.15131 0.69464 -0.18740
 C371 C 0.16073 0.72737 -0.16183
 N372 N 0.15116 0.72497 -0.12079
 N373 N 0.12206 0.69089 -0.06357
 C374 C 0.10246 0.65844 -0.04702
 C375 C 0.09329 0.62537 -0.07214
 N376 N 0.10423 0.62636 -0.11300
 H377 H 0.15880 0.69546 -0.22014
 H378 H 0.09420 0.65839 -0.01444
 C379 C -0.11330 0.69821 0.12390
 C380 C -0.10195 0.69936 0.08184
 N381 N -0.10857 0.73347 0.05909
 C382 C -0.12571 0.76665 0.07665
 C383 C -0.13588 0.76592 0.11906
 N384 N -0.12941 0.73158 0.14162
 N385 N -0.10776 0.66385 0.14643
 C386 C -0.09114 0.63052 0.12885
 C387 C -0.07866 0.63186 0.08707
 N388 N -0.08440 0.66639 0.06451
 H389 H -0.13023 0.79366 0.05806
 H390 H -0.08683 0.60355 0.14757
 C391 C 1.11896 0.10148 0.70172
 C392 C 1.07666 0.09237 0.70304
 N393 N 1.05385 0.10309 0.73661
 C394 C 1.07147 0.12246 0.76900
 C395 C 1.11400 0.13101 0.76805
 N396 N 1.13666 0.12012 0.73431
 N397 N 1.14158 0.09199 0.66768
 C398 C 1.12378 0.07384 0.63472
 C399 C 1.08157 0.06412 0.63611
 N400 N 1.05900 0.07358 0.67043
 H401 H 1.05268 0.13037 0.79552
 H402 H 1.14245 0.06683 0.60782
 C403 C 0.88815 -0.13751 0.69976
 C404 C 0.89476 -0.09587 0.70231
 N405 N 0.88825 -0.07695 0.73869
 C406 C 0.87446 -0.09754 0.77258
 C407 C 0.86750 -0.13944 0.77044
 N408 N 0.87542 -0.15845 0.73397
 N409 N 0.89291 -0.15594 0.66267
 C410 C 0.90421 -0.13460 0.62813
 C411 C 0.91186 -0.09309 0.63100
 N412 N 0.90717 -0.07486 0.66823
 H413 H 0.86961 -0.08132 0.80108
 H414 H 0.90857 -0.15010 0.59910
 C415 C 1.10153 -0.12836 0.30094
 C416 C 1.10665 -0.08690 0.30655
 N417 N 1.12683 -0.06477 0.27734
 C418 C 1.14232 -0.08211 0.24265
 C419 C 1.13654 -0.12375 0.23605
 N420 N 1.11584 -0.14557 0.26568
 N421 N 1.08251 -0.15073 0.33096
 C422 C 1.06812 -0.13333 0.36622
 C423 C 1.07202 -0.09158 0.37114
 N424 N 1.09117 -0.06935 0.34105
 H425 H 1.15706 -0.06284 0.21980
 H426 H 1.05270 -0.15164 0.38956
 C427 C 0.89338 0.12975 0.30789
 C428 C 0.88506 0.08851 0.31216
 N429 N 0.86057 0.07029 0.28409
 C430 C 0.84358 0.09144 0.25203
 C431 C 0.85207 0.13299 0.24711
 N432 N 0.87733 0.15071 0.27532
 N433 N 0.91660 0.14838 0.33687
 C434 C 0.93193 0.12750 0.36999
 C435 C 0.92436 0.08603 0.37376
 N436 N 0.90121 0.06743 0.34461
 H437 H 0.82513 0.07526 0.22997
 H438 H 0.95035 0.14289 0.39278
 C439 C 0.12632 0.30492 -0.09923
 C440 C 0.08526 0.30355 -0.08512
 N441 N 0.06251 0.26986 -0.09095
 C442 C 0.07891 0.23742 -0.11040
 C443 C 0.12015 0.23845 -0.12426
 N444 N 0.14297 0.27226 -0.11807
 N445 N 0.14857 0.33917 -0.09457
 C446 C 0.13156 0.37220 -0.07658
 C447 C 0.09056 0.37077 -0.06205
 N448 N 0.06851 0.33626 -0.06661
 H449 H 0.06013 0.21088 -0.11456
 H450 H 0.14989 0.39919 -0.07349
 C451 C -0.13439 0.31720 0.12649
 C452 C -0.09246 0.31215 0.11634
 N453 N -0.07361 0.27640 0.12447
 C454 C -0.09480 0.24538 0.14225
 C455 C -0.13698 0.25006 0.15183
 N456 N -0.15581 0.28597 0.14350
 N457 N -0.15294 0.35329 0.11926
 C458 C -0.13149 0.38458 0.10228
 C459 C -0.08969 0.37940 0.09140
 N460 N -0.07124 0.34312 0.09866
 H461 H -0.07913 0.21703 0.14797
 H462 H -0.14709 0.41300 0.09673
 C463 C -0.09573 0.69303 -0.13029
 C464 C -0.12303 0.66616 -0.11048
 N465 N -0.16395 0.67481 -0.10943
 C466 C -0.17881 0.70971 -0.12609
 C467 C -0.15149 0.73757 -0.14512
 N468 N -0.11060 0.72766 -0.14754
 N469 N -0.05449 0.68549 -0.12932
 C470 C -0.03930 0.65255 -0.10896
 C471 C -0.06660 0.62569 -0.08910
 N472 N -0.10795 0.63295 -0.09066
 H473 H -0.21172 0.71521 -0.12469
 H474 H -0.00624 0.64753 -0.10791
 C475 C 0.12001 0.69718 0.12566
 C476 C 0.08403 0.70147 0.10178
 N477 N 0.06789 0.73871 0.09483
 C478 C 0.08630 0.77196 0.11046
 C479 C 0.12268 0.76782 0.13369
 N480 N 0.13871 0.73044 0.14083
 N481 N 0.13590 0.65988 0.13286
 C482 C 0.11759 0.62663 0.11708
 C483 C 0.08198 0.63084 0.09247
 N484 N 0.06610 0.66835 0.08552
 H485 H 0.07306 0.80141 0.10437
 H486 H 0.13121 0.59733 0.12301
 C487 C 0.30291 1.13443 0.88030
 C488 C 0.29938 1.09590 0.89834
 N489 N 0.26210 1.07747 0.89991
 C490 C 0.22798 1.09582 0.88418
 C491 C 0.23113 1.13457 0.86654
 N492 N 0.26862 1.15316 0.86506
 N493 N 0.34066 1.15220 0.87800
 C494 C 0.37497 1.13322 0.89308
 C495 C 0.37124 1.09491 0.91180
 N496 N 0.33336 1.07736 0.91389
 H497 H 0.19853 1.08047 0.88564
 H498 H 0.40461 1.14812 0.89111
 C499 C 0.30184 0.89422 1.11748
 C500 C 0.29903 0.90517 1.07537
 N501 N 0.26337 0.89828 1.05457
 C502 C 0.23029 0.88116 1.07407
 C503 C 0.23271 0.87121 1.11649
 N504 N 0.26857 0.87804 1.13713
 N505 N 0.33780 0.89989 1.13805
 C506 C 0.37115 0.91619 1.11847
 C507 C 0.36821 0.92816 1.07661
 N508 N 0.33205 0.92236 1.05602
 H509 H 0.20209 0.87622 1.05695
 H510 H 0.39943 0.92053 1.13566
 C511 C 0.70497 1.10379 1.11323
 C512 C 0.67142 1.12985 1.10605
 N513 N 0.67449 1.16912 1.11697
 C514 C 0.70953 1.18338 1.13485
 C515 C 0.74276 1.15702 1.14277
 N516 N 0.73944 1.11781 1.13170
 N517 N 0.70282 1.06494 1.10123
 C518 C 0.66859 1.05083 1.08224
 C519 C 0.63457 1.07646 1.07550
 N520 N 0.63670 1.11555 1.08771
 H521 H 0.71114 1.21470 1.14353
 H522 H 0.66785 1.01978 1.07268
 C523 C 0.68930 0.87441 0.87587
 C524 C 0.69625 0.90099 0.90861
 N525 N 0.73477 0.90455 0.92463
 C526 C 0.76682 0.88289 0.90908
 C527 C 0.75988 0.85649 0.87624
 N528 N 0.72127 0.85288 0.86033
 N529 N 0.65088 0.87115 0.85963
 C530 C 0.61891 0.89316 0.87479
 C531 C 0.62573 0.91976 0.90765
 N532 N 0.66439 0.92296 0.92371
 H533 H 0.79750 0.88667 0.92167
 H534 H 0.58852 0.88976 0.86140
   
