data_POSCAR
  _audit_creation_date              2014-09-24
  _audit_creation_method            'ToBaCCo'
  _symmetry_space_group_name_H-M    'P1'
  _symmetry_Int_Tables_number       1
  _symmetry_cell_setting            triclinic
  loop_
  _symmetry_equiv_pos_as_xyz
 x,y,z
_cell_length_a 27.3495
_cell_length_b 27.3021
_cell_length_c 10.9556
_cell_angle_alpha 89.971300
_cell_angle_beta 90.067500
_cell_angle_gamma 119.947400
loop_
  _atom_site_label
  _atom_site_type_symbol
  _atom_site_fract_x
  _atom_site_fract_y
  _atom_site_fract_z
O1 O 0.25229 0.40748 0.61973
 O2 O 0.15978 0.40712 0.36891
 O3 O 0.25581 0.40970 0.38075
 O4 O 0.15509 0.40670 0.61151
 O5 O 0.20282 0.50008 0.61951
 O6 O 0.29906 0.50309 0.38333
 O7 O 0.20080 0.49978 0.38931
 O8 O 0.29874 0.50089 0.61657
 Cu9 Cu 0.20091 0.39818 0.49574
 Cu10 Cu 0.25496 0.51019 0.50202
 C11 C 0.29273 0.45464 0.65624
 C12 C 0.16351 0.45405 0.34095
 C13 C 0.29505 0.45745 0.34444
 C14 C 0.16155 0.45315 0.65269
 O15 O 0.59100 -0.15555 0.62666
 O16 O 0.59472 -0.24951 0.38576
 O17 O 0.59421 -0.15306 0.38483
 O18 O 0.59195 -0.24933 0.62741
 O19 O 0.49918 -0.29878 0.60959
 O20 O 0.50098 -0.20155 0.37768
 O21 O 0.50146 -0.29565 0.37897
 O22 O 0.49820 -0.20007 0.60876
 Cu23 Cu 0.60245 -0.19705 0.50600
 Cu24 Cu 0.49057 -0.25371 0.49491
 C25 C 0.54353 -0.16098 0.65514
 C26 C 0.54838 -0.28939 0.34429
 C27 C 0.54760 -0.16048 0.34284
 C28 C 0.54479 -0.29174 0.65610
 O29 O 1.15350 0.74611 0.61491
 O30 O 1.24918 0.84139 0.37228
 O31 O 1.15474 0.74677 0.37604
 O32 O 1.25008 0.84370 0.61548
 O33 O 1.29365 0.79398 0.62521
 O34 O 1.20518 0.70385 0.37667
 O35 O 1.30096 0.80071 0.39568
 O36 O 1.19877 0.69802 0.60970
 Cu37 Cu 1.19730 0.79953 0.49553
 Cu38 Cu 1.25415 0.74443 0.50167
 C39 C 1.15869 0.70434 0.64878
 C40 C 1.29293 0.83829 0.34721
 C41 C 1.16401 0.70838 0.33699
 C42 C 1.28863 0.83560 0.65900
 O43 O 0.75088 0.59173 0.62678
 O44 O 0.84519 0.59096 0.38331
 O45 O 0.74969 0.59350 0.38360
 O46 O 0.84430 0.58979 0.62167
 O47 O 0.79240 0.49651 0.62237
 O48 O 0.70524 0.50018 0.37329
 O49 O 0.79914 0.49759 0.38925
 O50 O 0.69713 0.49952 0.60289
 Cu51 Cu 0.80217 0.60111 0.50312
 Cu52 Cu 0.74382 0.48920 0.49725
 C53 C 0.70642 0.54548 0.65182
 C54 C 0.83942 0.54378 0.34963
 C55 C 0.71092 0.54712 0.33970
 C56 C 0.83425 0.54192 0.66113
 O57 O 0.40891 0.25323 0.38111
 O58 O 0.40670 0.15897 0.62963
 O59 O 0.40926 0.25512 0.61972
 O60 O 0.40659 0.15531 0.38660
 O61 O 0.49984 0.20323 0.37987
 O62 O 0.50240 0.29684 0.62208
 O63 O 0.49901 0.19789 0.60976
 O64 O 0.50210 0.29979 0.38857
 Cu65 Cu 0.39832 0.20081 0.50360
 Cu66 Cu 0.51008 0.25402 0.50077
 C67 C 0.45627 0.29405 0.34709
 C68 C 0.45287 0.16109 0.65731
 C69 C 0.45683 0.29347 0.65887
 C70 C 0.45306 0.16220 0.34521
 O71 O 0.83929 0.24677 0.63127
 O72 O 0.74683 0.15616 0.37960
 O73 O 0.84478 0.25172 0.38850
 O74 O 0.74312 0.15431 0.61773
 O75 O 0.70113 0.20566 0.61686
 O76 O 0.79777 0.29809 0.38021
 O77 O 0.70090 0.20362 0.38376
 O78 O 0.80015 0.30013 0.61075
 Cu79 Cu 0.79834 0.19750 0.50356
 Cu80 Cu 0.74552 0.25665 0.49800
 C81 C 0.83656 0.29047 0.65961
 C82 C 0.70651 0.16318 0.34374
 C83 C 0.83879 0.29198 0.34725
 C84 C 0.70444 0.16348 0.65477
 N85 N 0.94218 0.55728 0.13639
 N86 N 0.90485 0.57219 0.16949
 N87 N 1.06219 0.58182 0.20568
 N88 N 1.10134 0.60892 0.28858
 N89 N 1.06011 0.61723 0.12778
 N90 N 1.09698 0.67006 0.15863
 N91 N 0.94315 0.52161 0.21554
 N92 N 0.90577 0.51018 0.30256
 C93 C 0.88197 0.54156 0.27242
 C94 C 1.12312 0.66361 0.25781
 N95 N 1.06077 0.43928 0.13259
 N96 N 1.09542 0.42162 0.17134
 N97 N 0.94452 0.41716 0.21575
 N98 N 0.90649 0.39134 0.30154
 N99 N 0.94344 0.38046 0.13672
 N100 N 0.90553 0.32826 0.16897
 N101 N 1.06446 0.47973 0.20328
 N102 N 1.10669 0.49413 0.28920
 Mn103 Mn 1.00349 0.49989 0.21022
 C104 C 1.12400 0.45674 0.26600
 C105 C 0.88241 0.33621 0.27122
 N106 N 1.05581 0.61462 -0.13829
 N107 N 1.09268 0.66699 -0.17176
 N108 N 0.93631 0.51750 -0.20707
 N109 N 0.89710 0.50512 -0.29015
 N110 N 0.93797 0.55490 -0.12944
 N111 N 0.90078 0.57036 -0.16048
 N112 N 1.05538 0.57811 -0.21699
 N113 N 1.09269 0.60431 -0.30400
 Mn114 Mn 0.99903 0.58670 -0.00091
 C115 C 1.11581 0.65949 -0.27453
 C116 C 0.87483 0.53765 -0.25942
 N117 N 0.94033 0.37801 -0.13024
 N118 N 0.90316 0.32262 -0.16896
 N119 N 1.05621 0.47314 -0.21518
 N120 N 1.09384 0.48491 -0.30169
 N121 N 1.05778 0.43801 -0.13526
 N122 N 1.09564 0.42369 -0.16765
 N123 N 0.93658 0.41366 -0.20458
 N124 N 0.89652 0.38687 -0.28601
 Mn125 Mn 1.00060 0.40821 0.00088
 Mn126 Mn 0.99614 0.49555 -0.21106
 Cl127 Cl 0.99978 0.49766 -0.00031
 C128 C 0.87621 0.33145 -0.26348
 C129 C 1.11825 0.45420 -0.27083
 N130 N 0.44393 0.38446 0.13388
 N131 N 0.42788 0.33189 0.16732
 N132 N 0.42121 0.48042 0.21238
 N133 N 0.39489 0.49276 0.29689
 N134 N 0.38504 0.44370 0.13426
 N135 N 0.33271 0.42885 0.16593
 N136 N 0.48084 0.42060 0.21169
 N137 N 0.49211 0.39401 0.29771
 C138 C 0.45935 0.33895 0.26861
 C139 C 0.33997 0.46088 0.26633
 N140 N 0.56214 0.62103 0.13173
 N141 N 0.57789 0.67359 0.16479
 N142 N 0.58523 0.52533 0.20879
 N143 N 0.61187 0.51350 0.29330
 N144 N 0.62106 0.56191 0.13002
 N145 N 0.67360 0.57718 0.16152
 N146 N 0.52584 0.58490 0.21045
 N147 N 0.51475 0.61139 0.29665
 Mn148 Mn 0.50331 0.50284 0.21070
 C149 C 0.54698 0.66634 0.26704
 C150 C 0.66661 0.54555 0.26259
 N151 N 0.38369 0.44271 -0.13171
 N152 N 0.33101 0.42636 -0.16423
 N153 N 0.47933 0.42004 -0.21137
 N154 N 0.49156 0.39343 -0.29543
 N155 N 0.44329 0.38413 -0.13206
 N156 N 0.42875 0.33162 -0.16246
 N157 N 0.41934 0.47936 -0.21044
 N158 N 0.39237 0.49018 -0.29618
 Mn159 Mn 0.41332 0.41307 0.00111
 C160 C 0.33759 0.45741 -0.26606
 C161 C 0.46035 0.33859 -0.26333
 N162 N 0.62001 0.56227 -0.13676
 N163 N 0.67493 0.57946 -0.17598
 N164 N 0.52294 0.58453 -0.21029
 N165 N 0.50901 0.61095 -0.29197
 N166 N 0.56128 0.62068 -0.13495
 N167 N 0.57819 0.67582 -0.17265
 N168 N 0.58363 0.52424 -0.21224
 N169 N 0.60962 0.51080 -0.29560
 Mn170 Mn 0.59181 0.59215 -0.00252
 Mn171 Mn 0.50136 0.50213 -0.21121
 Cl172 Cl 0.50239 0.50250 -0.00043
 C173 C 0.66528 0.54460 -0.27256
 C174 C 0.54278 0.66662 -0.26781
 N175 N 0.38013 -0.05953 0.13779
 N176 N 0.32817 -0.09437 0.17715
 N177 N 0.47471 0.05814 0.21251
 N178 N 0.48667 0.09643 0.29769
 N179 N 0.43817 0.05793 0.13428
 N180 N 0.42289 0.09512 0.16688
 N181 N 0.41740 -0.06206 0.20897
 N182 N 0.39014 -0.10364 0.29677
 C183 C 0.33528 -0.12177 0.27335
 C184 C 0.45455 0.11934 0.26803
 N185 N 0.61640 0.06026 0.13129
 N186 N 0.66883 0.09738 0.16362
 N187 N 0.52273 -0.05887 0.20943
 N188 N 0.51226 -0.09643 0.29530
 N189 N 0.55940 -0.05775 0.13069
 N190 N 0.57617 -0.09383 0.16343
 N191 N 0.58034 0.06023 0.21044
 N192 N 0.60684 0.09809 0.29637
 Mn193 Mn 0.49868 -0.00061 0.21039
 C194 C 0.66172 0.12127 0.26567
 C195 C 0.54533 -0.11812 0.26548
 N196 N 0.43616 0.05686 -0.13302
 N197 N 0.41883 0.09483 -0.17101
 N198 N 0.41458 -0.06082 -0.20899
 N199 N 0.38794 -0.09890 -0.29434
 N200 N 0.37864 -0.06077 -0.12959
 N201 N 0.32613 -0.09795 -0.16146
 N202 N 0.47430 0.05911 -0.20893
 N203 N 0.48759 0.09897 -0.29118
 Mn204 Mn 0.40758 -0.00134 0.00233
 C205 C 0.45370 0.12063 -0.26724
 C206 C 0.33314 -0.12200 -0.26341
 N207 N 0.55841 -0.05746 -0.13584
 N208 N 0.57630 -0.09486 -0.17403
 N209 N 0.57868 0.05955 -0.21312
 N210 N 0.60464 0.09815 -0.29810
 N211 N 0.61514 0.06016 -0.13427
 N212 N 0.66726 0.09814 -0.16583
 N213 N 0.51928 -0.06077 -0.21036
 N214 N 0.50598 -0.10094 -0.29216
 Mn215 Mn 0.58801 0.00135 -0.00215
 Mn216 Mn 0.49665 -0.00080 -0.21056
 Cl217 Cl 0.49781 -0.00027 -0.00003
 C218 C 0.54083 -0.12167 -0.26878
 C219 C 0.65959 0.12221 -0.26687
   
