data_POSCAR
  _audit_creation_date              2014-09-24
  _audit_creation_method            'ToBaCCo'
  _symmetry_space_group_name_H-M    'P1'
  _symmetry_Int_Tables_number       1
  _symmetry_cell_setting            triclinic
  loop_
  _symmetry_equiv_pos_as_xyz
 x,y,z
_cell_length_a 39.2984
_cell_length_b 45.6923
_cell_length_c 25.1692
_cell_angle_alpha 90.332100
_cell_angle_beta 91.241500
_cell_angle_gamma 90.179000
loop_
  _atom_site_label
  _atom_site_type_symbol
  _atom_site_fract_x
  _atom_site_fract_y
  _atom_site_fract_z
C1 C 0.70787 0.31512 0.48458
 C2 C 0.70444 0.29791 0.53055
 C3 C 0.71861 0.26950 0.53025
 C4 C 0.73621 0.25869 0.48592
 C5 C 0.73936 0.27690 0.44121
 C6 C 0.72449 0.30464 0.43976
 C7 C 0.75024 0.22819 0.48527
 C8 C 0.75379 0.21310 0.43664
 C9 C 0.76841 0.18503 0.43419
 C10 C 0.77701 0.17119 0.48247
 C11 C 0.77265 0.18517 0.53160
 C12 C 0.76019 0.21393 0.53268
 H13 H 0.69791 0.33712 0.48307
 H14 H 0.71413 0.25507 0.56320
 H15 H 0.75341 0.26978 0.40701
 H16 H 0.74399 0.22281 0.40043
 H17 H 0.78952 0.15014 0.48245
 H18 H 0.75830 0.22499 0.57059
 C19 C 0.22566 0.82922 0.49895
 C20 C 0.23578 0.82017 0.55031
 C21 C 0.25291 0.79316 0.55531
 C22 C 0.25799 0.77469 0.51090
 C23 C 0.24574 0.78400 0.46073
 C24 C 0.23062 0.81146 0.45431
 C25 C 0.27584 0.74580 0.51669
 C26 C 0.29214 0.73280 0.47310
 C27 C 0.30718 0.70508 0.47712
 C28 C 0.30757 0.69084 0.52629
 C29 C 0.29282 0.70357 0.57142
 C30 C 0.27637 0.73078 0.56555
 H31 H 0.21140 0.84922 0.49335
 H32 H 0.26342 0.78713 0.59369
 H33 H 0.24782 0.77011 0.42609
 H34 H 0.29310 0.74398 0.43550
 H35 H 0.32154 0.67056 0.52977
 H36 H 0.26254 0.73953 0.59866
 C37 C 0.29597 0.31541 -0.48192
 C38 C 0.29886 0.29843 -0.52816
 C39 C 0.28442 0.27026 -0.52972
 C40 C 0.26585 0.25934 -0.48660
 C41 C 0.26313 0.27722 -0.44084
 C42 C 0.27905 0.30470 -0.43768
 C43 C 0.25024 0.22925 -0.48901
 C44 C 0.24351 0.21362 -0.44199
 C45 C 0.22769 0.18579 -0.44335
 C46 C 0.22238 0.17253 -0.49361
 C47 C 0.22888 0.18737 -0.54082
 C48 C 0.24164 0.21599 -0.53832
 H49 H 0.30759 0.33692 -0.47977
 H50 H 0.28872 0.25670 -0.56423
 H51 H 0.24860 0.27028 -0.40721
 H52 H 0.24962 0.22371 -0.40434
 H53 H 0.21305 0.15032 -0.49691
 H54 H 0.24497 0.22759 -0.57515
 C55 C -0.23688 0.83654 -0.50330
 C56 C -0.24348 0.82448 -0.55414
 C57 C -0.25721 0.79589 -0.55726
 C58 C -0.26247 0.77907 -0.51116
 C59 C -0.25396 0.79158 -0.46128
 C60 C -0.24202 0.82039 -0.45706
 C61 C -0.27629 0.74845 -0.51475
 C62 C -0.29402 0.73618 -0.47194
 C63 C -0.30560 0.70707 -0.47362
 C64 C -0.30071 0.69045 -0.51981
 C65 C -0.28470 0.70248 -0.56387
 C66 C -0.27187 0.73114 -0.56071
 H67 H -0.22493 0.85780 -0.49901
 H68 H -0.26491 0.78717 -0.59566
 H69 H -0.25632 0.77902 -0.42528
 H70 H -0.29966 0.74934 -0.43743
 H71 H -0.30997 0.66813 -0.52199
 H72 H -0.25814 0.73952 -0.59417
 N73 N -0.03815 0.94295 -0.05344
 N74 N -0.06163 0.92259 -0.06184
 N75 N 0.03102 0.96412 -0.09515
 N76 N 0.05412 0.95962 -0.13152
 N77 N 0.03318 0.94411 -0.05804
 N78 N 0.05768 0.92531 -0.06838
 N79 N -0.04049 0.96336 -0.08981
 N80 N -0.06573 0.95761 -0.12364
 C81 C -0.07890 0.93226 -0.10547
 C82 C 0.07070 0.93542 -0.11424
 N83 N 0.03176 1.04800 -0.06140
 N84 N 0.05649 1.06653 -0.07277
 N85 N -0.04134 1.02648 -0.09223
 N86 N -0.06435 1.03260 -0.12949
 N87 N -0.03966 1.04760 -0.05662
 N88 N -0.06137 1.06862 -0.06895
 N89 N 0.03003 1.02681 -0.09683
 N90 N 0.05348 1.03012 -0.13278
 Mn91 Mn -0.00530 0.99518 -0.09396
 C92 C 0.06994 1.05486 -0.11739
 C93 C -0.07703 1.05876 -0.11405
 N94 N 0.03783 0.94546 0.05672
 N95 N 0.06213 0.92618 0.06667
 N96 N -0.03250 0.96543 0.09667
 N97 N -0.05597 0.96115 0.13257
 N98 N -0.03350 0.94443 0.06087
 N99 N -0.05756 0.92524 0.07151
 N100 N 0.03907 0.96677 0.09192
 N101 N 0.06441 0.96286 0.12619
 Mn102 Mn -0.00011 0.94389 0.00153
 C103 C 0.07876 0.93761 0.10978
 C104 C -0.07152 0.93605 0.11626
 N105 N -0.03529 1.04868 0.05814
 N106 N -0.06092 1.06659 0.06738
 N107 N 0.03797 1.02960 0.09048
 N108 N 0.06172 1.03641 0.12636
 N109 N 0.03611 1.04974 0.05355
 N110 N 0.05832 1.07091 0.06367
 N111 N -0.03350 1.02827 0.09460
 N112 N -0.05785 1.03149 0.12920
 Mn113 Mn -0.00174 1.04886 -0.00157
 Mn114 Mn 0.00278 0.99752 0.09392
 Cl115 Cl -0.00110 0.99639 -0.00003
 C116 C -0.07482 1.05540 0.11183
 C117 C 0.07450 1.06207 0.10883
 N118 N 0.52718 0.55122 -0.06809
 N119 N 0.54635 0.57194 -0.08863
 N120 N 0.45236 0.52912 -0.07686
 N121 N 0.42483 0.53416 -0.10604
 N122 N 0.45792 0.55056 -0.04279
 N123 N 0.43442 0.57105 -0.04869
 N124 N 0.52153 0.53017 -0.10293
 N125 N 0.53661 0.53601 -0.14794
 C126 C 0.55238 0.56192 -0.13836
 C127 C 0.41355 0.56014 -0.08769
 N128 N 0.45959 0.44598 -0.04063
 N129 N 0.43698 0.42457 -0.04586
 N130 N 0.52264 0.46716 -0.10144
 N131 N 0.53884 0.46146 -0.14557
 N132 N 0.52887 0.44689 -0.06579
 N133 N 0.54949 0.42679 -0.08492
 N134 N 0.45339 0.46649 -0.07580
 N135 N 0.42634 0.45981 -0.10527
 Mn136 Mn 0.48746 0.49823 -0.08955
 C137 C 0.41598 0.43383 -0.08579
 C138 C 0.55579 0.43640 -0.13464
 N139 N 0.47640 0.55176 0.06941
 N140 N 0.45522 0.57155 0.08809
 N141 N 0.55182 0.53225 0.07936
 N142 N 0.57885 0.53923 0.10873
 N143 N 0.54553 0.55259 0.04385
 N144 N 0.56804 0.57404 0.04857
 N145 N 0.48245 0.53141 0.10499
 N146 N 0.46532 0.53661 0.14849
 Mn147 Mn 0.50175 0.55185 0.00061
 C148 C 0.44825 0.56158 0.13733
 C149 C 0.58908 0.56513 0.08865
 N150 N 0.54718 0.44807 0.04618
 N151 N 0.57003 0.42712 0.05239
 N152 N 0.48370 0.46842 0.10646
 N153 N 0.46804 0.46283 0.15106
 N154 N 0.47790 0.44748 0.07142
 N155 N 0.45804 0.42709 0.09139
 N156 N 0.55287 0.46925 0.08078
 N157 N 0.57977 0.46334 0.11103
 Mn158 Mn 0.50338 0.44680 0.00282
 Mn159 Mn 0.51778 0.50036 0.09325
 Cl160 Cl 0.50262 0.49931 0.00180
 C161 C 0.59060 0.43722 0.09240
 C162 C 0.45180 0.43717 0.14099
 C163 C 0.30516 0.30537 0.37328
 C164 C 0.32122 0.31849 0.33030
 C165 C 0.34937 0.33688 0.33893
 C166 C 0.36231 0.34097 0.39092
 C167 C 0.34663 0.32762 0.43369
 C168 C 0.31737 0.31022 0.42561
 N169 N 0.36393 0.35187 0.29497
 N170 N 0.38402 0.37344 0.30276
 C171 C 0.39961 0.38922 0.26078
 C172 C 0.41741 0.41489 0.27369
 C173 C 0.43369 0.43076 0.23443
 C174 C 0.43281 0.42095 0.18143
 C175 C 0.41474 0.39521 0.16828
 C176 C 0.39805 0.37948 0.20770
 H177 H 0.28257 0.29225 0.36569
 H178 H 0.31106 0.31507 0.29041
 H179 H 0.38442 0.35467 0.39858
 H180 H 0.35733 0.33114 0.47323
 H181 H 0.41876 0.42257 0.31448
 H182 H 0.44747 0.45046 0.24582
 H183 H 0.41368 0.38718 0.12770
 H184 H 0.38445 0.35961 0.19691
 C185 C -0.22320 0.82547 0.35358
 C186 C -0.20820 0.84094 0.31221
 C187 C -0.20449 0.87148 0.31552
 C188 C -0.21789 0.88642 0.35872
 C189 C -0.23261 0.87112 0.40020
 C190 C -0.23418 0.84020 0.39972
 N191 N -0.18460 0.88761 0.27864
 N192 N -0.17003 0.87571 0.23940
 C193 C -0.14786 0.89207 0.20606
 C194 C -0.13358 0.87830 0.16205
 C195 C -0.10942 0.89288 0.13177
 C196 C -0.09892 0.92142 0.14552
 C197 C -0.11390 0.93548 0.18887
 C198 C -0.13823 0.92099 0.21881
 H199 H -0.22339 0.80183 0.35089
 H200 H -0.19808 0.82890 0.27894
 H201 H -0.21571 0.91002 0.36128
 H202 H -0.24253 0.88379 0.43282
 H203 H -0.14064 0.85600 0.15191
 H204 H -0.09830 0.88152 0.09852
 H205 H -0.10642 0.95752 0.20021
 H206 H -0.14876 0.93212 0.25276
 C207 C 0.72395 0.65558 0.38620
 C208 C 0.71779 0.63828 0.34107
 C209 C 0.70349 0.65053 0.29497
 C210 C 0.69782 0.68087 0.29306
 C211 C 0.70418 0.69827 0.33813
 C212 C 0.71599 0.68554 0.38575
 N213 N 0.69081 0.63125 0.25406
 N214 N 0.67477 0.64037 0.21294
 C215 C 0.65852 0.62052 0.17604
 C216 C 0.63957 0.63181 0.13314
 C217 C 0.61838 0.61348 0.10224
 C218 C 0.61574 0.58357 0.11425
 C219 C 0.63643 0.57198 0.15512
 C220 C 0.65768 0.59026 0.18573
 H221 H 0.73341 0.64531 0.42224
 H222 H 0.72225 0.61493 0.34304
 H223 H 0.68673 0.69085 0.25786
 H224 H 0.69763 0.72127 0.33684
 H225 H 0.63988 0.65509 0.12534
 H226 H 0.60274 0.62298 0.07090
 H227 H 0.63509 0.54897 0.16499
 H228 H 0.67209 0.58094 0.21860
 C229 C 0.22985 1.14336 0.39963
 C230 C 0.21752 1.12786 0.35529
 C231 C 0.19609 1.14140 0.31791
 C232 C 0.18850 1.17129 0.32386
 C233 C 0.20079 1.18688 0.36844
 C234 C 0.22071 1.17276 0.40760
 N235 N 0.17981 1.12356 0.27783
 N236 N 0.16078 1.13393 0.24102
 C237 C 0.14236 1.11513 0.20468
 C238 C 0.12461 1.12738 0.16147
 C239 C 0.10361 1.10989 0.12865
 C240 C 0.09965 1.07992 0.13925
 C241 C 0.11824 1.06750 0.18166
 C242 C 0.13956 1.08489 0.21394
 H243 H 0.24555 1.13206 0.42880
 H244 H 0.22358 1.10486 0.35113
 H245 H 0.17185 1.18220 0.29551
 H246 H 0.19320 1.20945 0.37376
 H247 H 0.12640 1.15064 0.15401
 H248 H 0.08948 1.12004 0.09628
 H249 H 0.11574 1.04445 0.19061
 H250 H 0.15287 1.07488 0.24722
 C251 C 0.66188 0.33096 -0.43103
 C252 C 0.64663 0.34377 -0.38729
 C253 C 0.65545 0.33491 -0.33558
 C254 C 0.67883 0.31219 -0.32852
 C255 C 0.69444 0.29933 -0.37245
 C256 C 0.68693 0.30904 -0.42472
 N257 N 0.64126 0.34923 -0.29031
 N258 N 0.62505 0.37311 -0.29608
 C259 C 0.60957 0.38877 -0.25367
 C260 C 0.60810 0.37765 -0.20181
 C261 C 0.59114 0.39336 -0.16239
 C262 C 0.57564 0.42030 -0.17443
 C263 C 0.57794 0.43146 -0.22610
 C264 C 0.59465 0.41576 -0.26526
 H265 H 0.65304 0.33804 -0.46983
 H266 H 0.62785 0.36070 -0.39406
 H267 H 0.68578 0.30502 -0.28882
 H268 H 0.71373 0.28298 -0.36467
 H269 H 0.61949 0.35676 -0.19209
 H270 H 0.58971 0.38427 -0.12286
 H271 H 0.56631 0.45215 -0.23663
 H272 H 0.59568 0.42450 -0.30510
 C273 C 0.22212 0.86772 -0.40851
 C274 C 0.20819 0.88370 -0.36697
 C275 C 0.19870 0.86983 -0.32033
 C276 C 0.20555 0.83990 -0.31398
 C277 C 0.21989 0.82379 -0.35538
 C278 C 0.22696 0.83715 -0.40452
 N279 N 0.17950 0.88615 -0.28264
 N280 N 0.16760 0.87499 -0.24069
 C281 C 0.14606 0.89151 -0.20642
 C282 C 0.13354 0.87840 -0.16061
 C283 C 0.10977 0.89299 -0.12943
 C284 C 0.09798 0.92088 -0.14403
 C285 C 0.11135 0.93435 -0.18908
 C286 C 0.13520 0.91986 -0.21994
 H287 H 0.22895 0.87956 -0.44384
 H288 H 0.20352 0.90689 -0.37198
 H289 H 0.19849 0.82871 -0.27805
 H290 H 0.22267 0.80044 -0.34995
 H291 H 0.14157 0.85654 -0.14981
 H292 H 0.09991 0.88211 -0.09487
 H293 H 0.10288 0.95590 -0.20112
 H294 H 0.14439 0.93051 -0.25517
 C295 C 0.29863 0.70627 -0.33079
 C296 C 0.30655 0.69270 -0.28233
 C297 C 0.31075 0.66236 -0.27990
 C298 C 0.30545 0.64552 -0.32618
 C299 C 0.29827 0.65898 -0.37468
 C300 C 0.29579 0.68972 -0.37836
 N301 N 0.32387 0.64931 -0.23203
 N302 N 0.32514 0.62162 -0.22737
 C303 C 0.34193 0.60715 -0.18396
 C304 C 0.34181 0.57659 -0.18389
 C305 C 0.36356 0.56128 -0.14963
 C306 C 0.38582 0.57637 -0.11464
 C307 C 0.38404 0.60705 -0.11162
 C308 C 0.36229 0.62243 -0.14634
 H309 H 0.29748 0.72993 -0.33118
 H310 H 0.31073 0.70598 -0.24701
 H311 H 0.30825 0.62197 -0.32542
 H312 H 0.29456 0.64505 -0.40926
 H313 H 0.32632 0.56461 -0.21278
 H314 H 0.36423 0.53762 -0.15250
 H315 H 0.40101 0.61918 -0.08506
 H316 H 0.36286 0.64611 -0.14587
 C317 C -0.22513 1.13961 -0.41367
 C318 C -0.21242 1.12366 -0.37054
 C319 C -0.19203 1.13723 -0.33142
 C320 C -0.18549 1.16745 -0.33480
 C321 C -0.19812 1.18348 -0.37823
 C322 C -0.21740 1.16953 -0.41881
 N323 N -0.17627 1.11933 -0.29141
 N324 N -0.15882 1.12980 -0.25255
 C325 C -0.14126 1.11116 -0.21545
 C326 C -0.12521 1.12358 -0.17052
 C327 C -0.10541 1.10630 -0.13617
 C328 C -0.10097 1.07632 -0.14677
 C329 C -0.11784 1.06373 -0.19108
 C330 C -0.13794 1.08095 -0.22501
 H331 H -0.24038 1.12835 -0.44382
 H332 H -0.21769 1.10042 -0.36835
 H333 H -0.16964 1.17839 -0.30507
 H334 H -0.19153 1.20643 -0.38127
 H335 H -0.12745 1.14682 -0.16275
 H336 H -0.09263 1.11661 -0.10238
 H337 H -0.11493 1.04069 -0.20013
 H338 H -0.14999 1.07080 -0.25958
 C339 C 0.68857 0.69989 -0.37497
 C340 C 0.67376 0.68583 -0.33185
 C341 C 0.64770 0.66527 -0.34027
 C342 C 0.63564 0.65973 -0.39234
 C343 C 0.65006 0.67400 -0.43531
 C344 C 0.67719 0.69382 -0.42734
 N345 N 0.63426 0.64982 -0.29588
 N346 N 0.61575 0.62716 -0.30286
 C347 C 0.60138 0.61101 -0.26021
 C348 C 0.58495 0.58454 -0.27217
 C349 C 0.56977 0.56833 -0.23225
 C350 C 0.57040 0.57853 -0.17947
 C351 C 0.58717 0.60504 -0.16725
 C352 C 0.60272 0.62115 -0.20735
 H353 H 0.70958 0.71483 -0.36740
 H354 H 0.68325 0.69037 -0.29193
 H355 H 0.61514 0.64428 -0.39988
 H356 H 0.64001 0.66937 -0.47486
 H357 H 0.58377 0.57652 -0.31275
 H358 H 0.55700 0.54803 -0.24296
 H359 H 0.58801 0.61340 -0.12690
 H360 H 0.61527 0.64162 -0.19724
 C361 C 0.22868 1.17948 -0.34475
 C362 C 0.21534 1.16662 -0.29915
 C363 C 0.18972 1.14544 -0.30368
 C364 C 0.17717 1.13755 -0.35424
 C365 C 0.18971 1.15069 -0.39951
 C366 C 0.21602 1.17191 -0.39629
 N367 N 0.17557 1.13263 -0.25720
 N368 N 0.16068 1.10793 -0.26109
 C369 C 0.14267 1.09422 -0.21926
 C370 C 0.13198 1.06537 -0.22733
 C371 C 0.10966 1.05228 -0.19244
 C372 C 0.09727 1.06800 -0.14885
 C373 C 0.10934 1.09657 -0.13898
 C374 C 0.13201 1.10968 -0.17413
 H375 H 0.24948 1.19471 -0.33874
 H376 H 0.22534 1.17290 -0.26030
 H377 H 0.15666 1.12178 -0.35878
 H378 H 0.17698 1.14492 -0.43657
 H379 H 0.13994 1.05335 -0.26211
 H380 H 0.10111 1.03015 -0.20088
 H381 H 0.10018 1.10911 -0.10561
 H382 H 0.13982 1.13217 -0.16754
 C383 C 0.27612 0.35179 -0.38636
 C384 C 0.28436 0.36819 -0.34083
 C385 C 0.29774 0.35455 -0.29538
 C386 C 0.30053 0.32390 -0.29457
 C387 C 0.29200 0.30740 -0.33998
 C388 C 0.28092 0.32133 -0.38691
 N389 N 0.31199 0.37254 -0.25369
 N390 N 0.32790 0.36212 -0.21349
 C391 C 0.34517 0.38081 -0.17562
 C392 C 0.36479 0.36829 -0.13457
 C393 C 0.38652 0.38572 -0.10273
 C394 C 0.38898 0.41595 -0.11191
 C395 C 0.36768 0.42867 -0.15086
 C396 C 0.34596 0.41131 -0.18239
 H397 H 0.26737 0.36301 -0.42187
 H398 H 0.28212 0.39180 -0.34196
 H399 H 0.31085 0.31286 -0.25989
 H400 H 0.29618 0.28399 -0.33950
 H401 H 0.36450 0.34481 -0.12897
 H402 H 0.40265 0.37536 -0.07298
 H403 H 0.36884 0.45195 -0.15853
 H404 H 0.33100 0.42161 -0.21365
 C405 C -0.24115 0.86283 -0.39384
 C406 C -0.22855 0.87670 -0.34796
 C407 C -0.20760 0.86160 -0.31199
 C408 C -0.20067 0.83184 -0.32100
 C409 C -0.21322 0.81790 -0.36707
 C410 C -0.23278 0.83355 -0.40468
 N411 N -0.19072 0.87786 -0.27042
 N412 N -0.17165 0.86599 -0.23526
 C413 C -0.15219 0.88336 -0.19800
 C414 C -0.13318 0.86952 -0.15778
 C415 C -0.11044 0.88565 -0.12549
 C416 C -0.10609 0.91580 -0.13379
 C417 C -0.12619 0.92982 -0.17266
 C418 C -0.14918 0.91381 -0.20431
 H419 H -0.25657 0.87528 -0.42179
 H420 H -0.23399 0.89965 -0.34145
 H421 H -0.18431 0.81978 -0.29383
 H422 H -0.20615 0.79539 -0.37459
 H423 H -0.13514 0.84606 -0.15267
 H424 H -0.09516 0.87433 -0.09581
 H425 H -0.12345 0.95308 -0.17962
 H426 H -0.16348 0.92505 -0.23519
 C427 C 0.34145 0.70710 0.39347
 C428 C 0.35653 0.69325 0.35018
 C429 C 0.35353 0.66294 0.34305
 C430 C 0.33452 0.64662 0.37916
 C431 C 0.31916 0.66043 0.42204
 C432 C 0.32274 0.69080 0.43016
 N433 N 0.37061 0.64909 0.29990
 N434 N 0.37294 0.62136 0.29662
 C435 C 0.39025 0.60678 0.25460
 C436 C 0.39708 0.57690 0.25968
 C437 C 0.41552 0.56215 0.22108
 C438 C 0.42694 0.57700 0.17610
 C439 C 0.41914 0.60681 0.17006
 C440 C 0.40114 0.62171 0.20928
 H441 H 0.34510 0.73043 0.39879
 H442 H 0.37119 0.70608 0.32273
 H443 H 0.33154 0.62319 0.37431
 H444 H 0.30435 0.64730 0.44882
 H445 H 0.38873 0.56517 0.29434
 H446 H 0.42105 0.53915 0.22662
 H447 H 0.42773 0.61876 0.13579
 H448 H 0.39597 0.64480 0.20440
 C449 C -0.21604 1.18882 0.33985
 C450 C -0.20340 1.17585 0.29385
 C451 C -0.19865 1.14560 0.29107
 C452 C -0.20872 1.12815 0.33369
 C453 C -0.22117 1.14098 0.37976
 C454 C -0.22383 1.17170 0.38472
 N455 N -0.18049 1.13340 0.24746
 N456 N -0.17367 1.10623 0.24561
 C457 C -0.15273 1.09339 0.20604
 C458 C -0.14456 1.06379 0.21092
 C459 C -0.12014 1.05125 0.17864
 C460 C -0.10364 1.06812 0.14044
 C461 C -0.11323 1.09746 0.13328
 C462 C -0.13753 1.11013 0.16619
 H463 H -0.21695 1.21247 0.34119
 H464 H -0.19565 1.18957 0.26129
 H465 H -0.20589 1.10460 0.33225
 H466 H -0.22864 1.12655 0.41139
 H467 H -0.15606 1.05072 0.24153
 H468 H -0.11344 1.02851 0.18469
 H469 H -0.10085 1.11089 0.10407
 H470 H -0.14347 1.13311 0.16182
 C471 C 0.72914 0.35234 0.39153
 C472 C 0.72132 0.36952 0.34719
 C473 C 0.70754 0.35672 0.30086
 C474 C 0.70397 0.32613 0.29793
 C475 C 0.71197 0.30888 0.34220
 C476 C 0.72338 0.32197 0.39007
 N477 N 0.69360 0.37545 0.26051
 N478 N 0.67814 0.36562 0.21914
 C479 C 0.66095 0.38466 0.18237
 C480 C 0.64291 0.37248 0.13899
 C481 C 0.62135 0.38989 0.10752
 C482 C 0.61740 0.41976 0.11934
 C483 C 0.63704 0.43226 0.16095
 C484 C 0.65865 0.41490 0.19219
 H485 H 0.73824 0.36294 0.42775
 H486 H 0.72420 0.39306 0.34994
 H487 H 0.69335 0.31572 0.26253
 H488 H 0.70707 0.28556 0.34011
 H489 H 0.64436 0.34921 0.13107
 H490 H 0.60655 0.37968 0.07565
 H491 H 0.63467 0.45527 0.17078
 H492 H 0.67232 0.42490 0.22543
 C493 C 0.20003 0.80316 0.36662
 C494 C 0.18613 0.81403 0.31903
 C495 C 0.19079 0.84341 0.30540
 C496 C 0.21092 0.86154 0.33874
 C497 C 0.22481 0.85074 0.38612
 C498 C 0.21882 0.82166 0.40122
 N499 N 0.17248 0.85508 0.26050
 N500 N 0.17297 0.88238 0.25081
 C501 C 0.15291 0.89550 0.20936
 C502 C 0.15066 0.92601 0.20842
 C503 C 0.12746 0.93974 0.17422
 C504 C 0.10651 0.92312 0.13964
 C505 C 0.11029 0.89256 0.13802
 C506 C 0.13317 0.87875 0.17311
 H507 H 0.19486 0.78070 0.37742
 H508 H 0.17055 0.79986 0.29381
 H509 H 0.21511 0.88430 0.32905
 H510 H 0.23968 0.86532 0.41162
 H511 H 0.16575 0.93909 0.23620
 H512 H 0.12514 0.96335 0.17596
 H513 H 0.09432 0.87931 0.11175
 H514 H 0.13459 0.85510 0.17315
   
