data_POSCAR
  _audit_creation_date              2014-09-24
  _audit_creation_method            'ToBaCCo'
  _symmetry_space_group_name_H-M    'P1'
  _symmetry_Int_Tables_number       1
  _symmetry_cell_setting            triclinic
  loop_
  _symmetry_equiv_pos_as_xyz
 x,y,z
_cell_length_a 52.7199
_cell_length_b 52.7199
_cell_length_c 52.6606
_cell_angle_alpha 89.991800
_cell_angle_beta 90.008200
_cell_angle_gamma 89.879300
loop_
  _atom_site_label
  _atom_site_type_symbol
  _atom_site_fract_x
  _atom_site_fract_y
  _atom_site_fract_z
C1 C 0.19065 0.15641 0.19041
 C2 C 0.17971 0.14567 0.21219
 C3 C 0.15786 0.15643 0.22336
 C4 C 0.14712 0.17827 0.21216
 C5 C 0.15788 0.18918 0.19039
 C6 C 0.17972 0.17823 0.17947
 C7 C 0.21242 0.14563 0.17947
 C8 C 0.22359 0.15635 0.15762
 C9 C 0.21239 0.17819 0.14687
 C10 C 0.19063 0.18914 0.15763
 C11 C 0.17967 0.21090 0.14686
 C12 C 0.15788 0.22200 0.15763
 C13 C 0.14712 0.21094 0.17942
 H14 H 0.18836 0.12889 0.22039
 H15 H 0.13034 0.18694 0.22032
 H16 H 0.22062 0.12885 0.18813
 H17 H 0.22056 0.18683 0.13009
 H18 H 0.18819 0.21919 0.13008
 H19 H 0.13034 0.21927 0.18794
 C20 C -0.18922 0.84379 0.19027
 C21 C -0.17829 0.85452 0.21206
 C22 C -0.15643 0.84378 0.22322
 C23 C -0.14566 0.82196 0.21201
 C24 C -0.15641 0.81106 0.19023
 C25 C -0.17826 0.82199 0.17932
 C26 C -0.21101 0.85455 0.17934
 C27 C -0.22217 0.84384 0.15748
 C28 C -0.21095 0.82203 0.14671
 C29 C -0.18917 0.81109 0.15746
 C30 C -0.17818 0.78935 0.14668
 C31 C -0.15638 0.77827 0.15744
 C32 C -0.14562 0.78932 0.17924
 H33 H -0.18696 0.87128 0.22028
 H34 H -0.12887 0.81330 0.22017
 H35 H -0.21923 0.87131 0.18801
 H36 H -0.21911 0.81339 0.12992
 H37 H -0.18669 0.78107 0.12989
 H38 H -0.12883 0.78101 0.18776
 C39 C -0.19018 0.15725 -0.18925
 C40 C -0.17921 0.14647 -0.21101
 C41 C -0.15743 0.15720 -0.22209
 C42 C -0.14668 0.17897 -0.21101
 C43 C -0.15745 0.18994 -0.18927
 C44 C -0.17928 0.17907 -0.17833
 C45 C -0.21193 0.14654 -0.17831
 C46 C -0.22313 0.15731 -0.15647
 C47 C -0.21197 0.17914 -0.14574
 C48 C -0.19022 0.19003 -0.15651
 C49 C -0.17928 0.21178 -0.14577
 C50 C -0.15750 0.22280 -0.15656
 C51 C -0.14672 0.21168 -0.17834
 H52 H -0.18771 0.12971 -0.21932
 H53 H -0.12992 0.18746 -0.21931
 H54 H -0.22009 0.12978 -0.18695
 H55 H -0.22016 0.18782 -0.12897
 H56 H -0.18780 0.22012 -0.12901
 H57 H -0.12995 0.21993 -0.18688
 C58 C 0.19082 0.84287 -0.19032
 C59 C 0.17985 0.85366 -0.21208
 C60 C 0.15802 0.84295 -0.22326
 C61 C 0.14733 0.82112 -0.21208
 C62 C 0.15812 0.81016 -0.19033
 C63 C 0.17994 0.82105 -0.17940
 C64 C 0.21256 0.85358 -0.17936
 C65 C 0.22367 0.84278 -0.15757
 C66 C 0.21264 0.82100 -0.14681
 C67 C 0.19090 0.81008 -0.15756
 C68 C 0.17999 0.78833 -0.14682
 C69 C 0.15822 0.77729 -0.15760
 C70 C 0.14742 0.78840 -0.17938
 H71 H 0.18847 0.87043 -0.22025
 H72 H 0.13057 0.81249 -0.22026
 H73 H 0.22084 0.87035 -0.18787
 H74 H 0.22096 0.81245 -0.13004
 H75 H 0.18854 0.78000 -0.13005
 H76 H 0.13066 0.78012 -0.18791
 C77 C 0.15702 1.19004 0.80977
 C78 C 0.14628 1.17909 0.78799
 C79 C 0.15704 1.15724 0.77682
 C80 C 0.17888 1.14650 0.78803
 C81 C 0.18979 1.15726 0.80979
 C82 C 0.17884 1.17910 0.82071
 C83 C 0.14624 1.21181 0.82071
 C84 C 0.15696 1.22298 0.84256
 C85 C 0.17880 1.21178 0.85331
 C86 C 0.18975 1.19002 0.84255
 C87 C 0.21151 1.17906 0.85332
 C88 C 0.22261 1.15727 0.84256
 C89 C 0.21155 1.14650 0.82076
 H90 H 0.12950 1.18774 0.77979
 H91 H 0.18755 1.12972 0.77986
 H92 H 0.12946 1.22001 0.81205
 H93 H 0.18744 1.21995 0.87010
 H94 H 0.21980 1.18758 0.87010
 H95 H 0.21988 1.12973 0.81225
 C96 C 0.84440 0.81016 0.80991
 C97 C 0.85513 0.82110 0.78812
 C98 C 0.84439 0.84296 0.77696
 C99 C 0.82258 0.85373 0.78818
 C100 C 0.81167 0.84298 0.80995
 C101 C 0.82261 0.82113 0.82086
 C102 C 0.85516 0.78838 0.82084
 C103 C 0.84445 0.77721 0.84270
 C104 C 0.82264 0.78844 0.85347
 C105 C 0.81171 0.81022 0.84272
 C106 C 0.78997 0.82121 0.85350
 C107 C 0.77889 0.84301 0.84274
 C108 C 0.78994 0.85377 0.82094
 H109 H 0.87189 0.81242 0.77991
 H110 H 0.81392 0.87052 0.78002
 H111 H 0.87192 0.78016 0.81217
 H112 H 0.81400 0.78028 0.87026
 H113 H 0.78168 0.81270 0.87029
 H114 H 0.78163 0.87055 0.81242
 C115 C 0.15786 0.80920 1.18943
 C116 C 0.14708 0.82018 1.21119
 C117 C 0.15782 0.84196 1.22227
 C118 C 0.17958 0.85270 1.21120
 C119 C 0.19056 0.84194 1.18945
 C120 C 0.17968 0.82011 1.17851
 C121 C 0.14716 0.78745 1.17849
 C122 C 0.15793 0.77626 1.15665
 C123 C 0.17975 0.78742 1.14592
 C124 C 0.19064 0.80917 1.15669
 C125 C 0.21239 0.82011 1.14595
 C126 C 0.22341 0.84189 1.15674
 C127 C 0.21229 0.85267 1.17852
 H128 H 0.13033 0.81168 1.21950
 H129 H 0.18808 0.86947 1.21950
 H130 H 0.13039 0.77929 1.18714
 H131 H 0.18843 0.77923 1.12915
 H132 H 0.22074 0.81159 1.12919
 H133 H 0.22055 0.86944 1.18706
 C134 C 0.84348 1.19021 1.19050
 C135 C 0.85427 1.17924 1.21226
 C136 C 0.84357 1.15741 1.22344
 C137 C 0.82173 1.14672 1.21227
 C138 C 0.81077 1.15751 1.19051
 C139 C 0.82166 1.17933 1.17958
 C140 C 0.85420 1.21195 1.17954
 C141 C 0.84339 1.22305 1.15776
 C142 C 0.82161 1.21202 1.14699
 C143 C 0.81070 1.19028 1.15774
 C144 C 0.78894 1.17938 1.14700
 C145 C 0.77791 1.15761 1.15778
 C146 C 0.78901 1.14681 1.17956
 H147 H 0.87104 1.18785 1.22044
 H148 H 0.81310 1.12996 1.22044
 H149 H 0.87097 1.22022 1.18806
 H150 H 0.81306 1.22035 1.13022
 H151 H 0.78062 1.18792 1.13023
 H152 H 0.78073 1.13005 1.18809
 N153 N 0.47374 1.04496 1.02765
 N154 N 0.45431 1.06049 1.03078
 N155 N 0.52720 1.02751 1.04533
 N156 N 0.54653 1.03064 1.06095
 N157 N 0.52713 1.04515 1.02773
 N158 N 0.54641 1.06077 1.03086
 N159 N 0.47381 1.02732 1.04525
 N160 N 0.45444 1.03035 1.06085
 C161 C 0.44250 1.05112 1.05157
 C162 C 0.55829 1.05147 1.05167
 N163 N 0.52764 0.95529 1.02759
 N164 N 0.54707 0.93977 1.03072
 N165 N 0.47412 0.97268 1.04516
 N166 N 0.45474 0.96949 1.06071
 N167 N 0.47425 0.95510 1.02750
 N168 N 0.45497 0.93945 1.03053
 N169 N 0.52751 0.97288 1.04525
 N170 N 0.54685 0.96981 1.06089
 Mn171 Mn 0.50066 1.00010 1.04556
 C172 C 0.55883 0.94908 1.05157
 C173 C 0.44303 0.94867 1.05133
 N174 N 0.52721 1.04524 0.97303
 N175 N 0.54650 1.06088 0.96997
 N176 N 0.47394 1.02747 0.95529
 N177 N 0.45460 1.03055 0.93966
 N178 N 0.47382 1.04506 0.97295
 N179 N 0.45439 1.06059 0.96983
 N180 N 0.52733 1.02765 0.95537
 N181 N 0.54669 1.03083 0.93981
 Mn182 Mn 0.50047 1.04541 1.00034
 C183 C 0.55842 1.05164 0.94916
 C184 C 0.44263 1.05129 0.94898
 N185 N 0.47432 0.95520 0.97281
 N186 N 0.45504 0.93957 0.96966
 N187 N 0.52764 0.97302 0.95529
 N188 N 0.54701 0.96998 0.93970
 N189 N 0.52771 0.95538 0.97290
 N190 N 0.54713 0.93985 0.96979
 N191 N 0.47425 0.97284 0.95521
 N192 N 0.45492 0.96971 0.93959
 Mn193 Mn 0.50098 0.95494 1.00020
 Mn194 Mn 0.50079 1.00025 0.95498
 Cl195 Cl 0.50072 1.00017 1.00027
 C196 C 0.44317 0.94887 0.94885
 C197 C 0.55895 0.94921 0.94900
 N198 N -0.02670 0.47350 -0.04498
 N199 N -0.02990 0.45413 -0.06053
 N200 N -0.04409 0.52702 -0.02741
 N201 N -0.05962 0.54646 -0.03054
 N202 N -0.02651 0.52689 -0.04507
 N203 N -0.02958 0.54624 -0.06070
 N204 N -0.04428 0.47364 -0.02732
 N205 N -0.05994 0.45436 -0.03035
 C206 C -0.05071 0.44242 -0.05115
 C207 C -0.05031 0.55822 -0.05139
 N208 N -0.02637 0.52702 0.04489
 N209 N -0.02941 0.54640 0.06048
 N210 N -0.04419 0.47371 0.02737
 N211 N -0.05982 0.45443 0.03052
 N212 N -0.02655 0.47364 0.04497
 N213 N -0.02967 0.45431 0.06060
 N214 N -0.04400 0.52709 0.02728
 N215 N -0.05954 0.54652 0.03039
 Mn216 Mn -0.04445 0.50037 -0.00002
 C217 C -0.05018 0.55834 0.05118
 C218 C -0.05051 0.44256 0.05133
 N219 N 0.02812 0.52659 -0.04515
 N220 N 0.03125 0.54592 -0.06077
 N221 N 0.04558 0.47312 -0.02747
 N222 N 0.06110 0.45369 -0.03060
 N223 N 0.02793 0.47320 -0.04507
 N224 N 0.03096 0.45383 -0.06067
 N225 N 0.04576 0.52651 -0.02754
 N226 N 0.06138 0.54579 -0.03068
 Mn227 Mn 0.00071 0.50004 -0.04538
 C228 C 0.05208 0.55767 -0.05149
 C229 C 0.05173 0.44188 -0.05139
 N230 N 0.02809 0.47333 0.04489
 N231 N 0.03116 0.45399 0.06052
 N232 N 0.04585 0.52660 0.02715
 N233 N 0.06150 0.54588 0.03021
 N234 N 0.02826 0.52672 0.04481
 N235 N 0.03145 0.54607 0.06037
 N236 N 0.04567 0.47321 0.02723
 N237 N 0.06120 0.45378 0.03035
 Mn238 Mn 0.00086 0.50018 0.04520
 Mn239 Mn 0.04602 0.49986 -0.00016
 Cl240 Cl 0.00079 0.50011 -0.00009
 C241 C 0.05190 0.44202 0.05120
 C242 C 0.05226 0.55781 0.05102
 N243 N 0.95568 0.02737 0.52680
 N244 N 0.94008 0.03048 0.54617
 N245 N 0.97327 0.04498 0.47336
 N246 N 0.97014 0.06057 0.45399
 N247 N 0.95567 0.02738 0.47336
 N248 N 0.94008 0.03052 0.45399
 N249 N 0.97326 0.04497 0.52681
 N250 N 0.97012 0.06056 0.54619
 C251 C 0.94934 0.05126 0.55803
 C252 C 0.94936 0.05131 0.44214
 N253 N 1.04554 0.02728 0.47337
 N254 N 1.06113 0.03037 0.45401
 N255 N 1.02790 0.04492 0.52681
 N256 N 1.03098 0.06052 0.54617
 N257 N 1.04553 0.02730 0.52683
 N258 N 1.06111 0.03041 0.54620
 N259 N 1.02791 0.04492 0.47336
 N260 N 1.03102 0.06050 0.45398
 Mn261 Mn 1.00058 0.04526 0.50008
 C262 C 1.05183 0.05117 0.44214
 C263 C 1.05178 0.05122 0.55804
 N264 N 0.95572 -0.02724 0.47337
 N265 N 0.94013 -0.03032 0.45400
 N266 N 0.97337 -0.04489 0.52681
 N267 N 0.97029 -0.06048 0.54618
 N268 N 0.95573 -0.02726 0.52682
 N269 N 0.94016 -0.03036 0.54620
 N270 N 0.97335 -0.04488 0.47336
 N271 N 0.97025 -0.06045 0.45398
 Mn272 Mn 0.95539 0.00006 0.50009
 C273 C 0.94944 -0.05112 0.44213
 C274 C 0.94950 -0.05117 0.55805
 N275 N 1.04559 -0.02734 0.52682
 N276 N 1.06119 -0.03047 0.54619
 N277 N 1.02798 -0.04494 0.47338
 N278 N 1.03109 -0.06053 0.45402
 N279 N 1.04559 -0.02735 0.47337
 N280 N 1.06117 -0.03049 0.45400
 N281 N 1.02800 -0.04494 0.52682
 N282 N 1.03113 -0.06054 0.54619
 Mn283 Mn 1.04587 -0.00003 0.50010
 Mn284 Mn 1.00068 -0.04522 0.50009
 Cl285 Cl 1.00063 0.00002 0.50009
 C286 C 1.05192 -0.05126 0.55805
 C287 C 1.05187 -0.05127 0.44215
 C288 C 1.12615 0.12490 0.28776
 N289 N 1.11577 0.14584 0.27695
 N290 N 1.12598 0.15598 0.25617
 C291 C 1.14701 0.14562 0.24531
 N292 N 1.15731 0.12461 0.25624
 N293 N 1.14710 0.11446 0.27703
 C294 C 1.11494 0.11378 0.31074
 N295 N 1.12537 0.09286 0.32161
 N296 N 1.11526 0.08284 0.34251
 C297 C 1.09434 0.09336 0.35329
 N298 N 1.08391 0.11427 0.34240
 N299 N 1.09402 0.12429 0.32151
 C300 C 1.08325 0.08236 0.37637
 N301 N 1.06237 0.09292 0.38719
 N302 N 1.05234 0.08298 0.40817
 C303 C 1.06285 0.06213 0.41907
 N304 N 1.08370 0.05155 0.40826
 N305 N 1.09373 0.06149 0.38729
 C306 C 0.87524 -0.12473 0.28766
 N307 N 0.85427 -0.11430 0.27693
 N308 N 0.84408 -0.12444 0.25613
 C309 C 0.85441 -0.14543 0.24518
 N310 N 0.87544 -0.15578 0.25604
 N311 N 0.88564 -0.14565 0.27683
 C312 C 0.88642 -0.11363 0.31065
 N313 N 0.90735 -0.12414 0.32143
 N314 N 0.91745 -0.11413 0.34233
 C315 C 0.90699 -0.09325 0.35323
 N316 N 0.88607 -0.08273 0.34244
 N317 N 0.87597 -0.09274 0.32154
 C318 C 0.91807 -0.08227 0.37633
 N319 N 0.90757 -0.06141 0.38725
 N320 N 0.91758 -0.05148 0.40823
 C321 C 0.93844 -0.06206 0.41905
 N322 N 0.94896 -0.08290 0.40815
 N323 N 0.93895 -0.09283 0.38716
 C324 C 0.87488 0.12505 0.71242
 N325 N 0.88523 0.14597 0.72323
 N326 N 0.87500 0.15613 0.74401
 C327 C 0.85401 0.14579 0.75482
 N328 N 0.84372 0.12482 0.74394
 N329 N 0.85394 0.11465 0.72316
 C330 C 0.88611 0.11392 0.68945
 N331 N 0.87572 0.09303 0.67857
 N332 N 0.88586 0.08300 0.65767
 C333 C 0.90675 0.09349 0.64689
 N334 N 0.91714 0.11437 0.65778
 N335 N 0.90701 0.12440 0.67867
 C336 C 0.91787 0.08248 0.62381
 N337 N 0.93872 0.09301 0.61298
 N338 N 0.94876 0.08305 0.59200
 C339 C 0.93830 0.06223 0.58110
 N340 N 0.91747 0.05168 0.59191
 N341 N 0.90743 0.06163 0.61289
 C342 C 1.12626 -0.12535 0.71238
 N343 N 1.11592 -0.14629 0.72316
 N344 N 1.12615 -0.15648 0.74393
 C345 C 1.14715 -0.14619 0.75481
 N346 N 1.15741 -0.12518 0.74391
 N347 N 1.14719 -0.11498 0.72314
 C348 C 1.11505 -0.11418 0.68942
 N349 N 1.12545 -0.09327 0.67858
 N350 N 1.11533 -0.08319 0.65769
 C351 C 1.09444 -0.09365 0.64688
 N352 N 1.08403 -0.11454 0.65773
 N353 N 1.09415 -0.12462 0.67861
 C354 C 1.08335 -0.08259 0.62380
 N355 N 1.06249 -0.09309 0.61295
 N356 N 1.05247 -0.08309 0.59198
 C357 C 1.06294 -0.06226 0.58111
 N358 N 1.08378 -0.05174 0.59195
 N359 N 1.09380 -0.06174 0.61292
 C360 C 0.28800 1.12474 1.12592
 N361 N 0.27727 1.11433 1.14687
 N362 N 0.25648 1.12450 1.15707
 C363 C 0.24554 1.14552 1.14677
 N364 N 0.25640 1.15584 1.12575
 N365 N 0.27718 1.14568 1.11553
 C366 C 0.31098 1.11362 1.11471
 N367 N 0.32174 1.12412 1.09379
 N368 N 0.34264 1.11410 1.08368
 C369 C 0.35356 1.09320 1.09411
 N370 N 0.34279 1.08269 1.11502
 N371 N 0.32188 1.09271 1.12514
 C372 C 0.37666 1.08222 1.08301
 N373 N 0.38761 1.06136 1.09348
 N374 N 0.40861 1.05144 1.08345
 C375 C 0.41940 1.06203 1.06260
 N376 N 0.40845 1.08287 1.05211
 N377 N 0.38746 1.09278 1.06214
 C378 C 0.28910 0.87487 0.87464
 N379 N 0.27830 0.88531 0.85370
 N380 N 0.25754 0.87515 0.84351
 C381 C 0.24674 0.85415 0.85384
 N382 N 0.25762 0.84377 0.87482
 N383 N 0.27838 0.85392 0.88502
 C384 C 0.31204 0.88601 0.88581
 N385 N 0.32289 0.87552 0.90672
 N386 N 0.34375 0.88557 0.91681
 C387 C 0.35452 0.90649 0.90637
 N388 N 0.34366 0.91699 0.88547
 N389 N 0.32280 0.90693 0.87538
 C390 C 0.37756 0.91753 0.91744
 N391 N 0.38835 0.93842 0.90696
 N392 N 0.40928 0.94841 0.91698
 C393 C 0.42017 0.93786 0.93782
 N394 N 0.40939 0.91699 0.94832
 N395 N 0.38846 0.90700 0.93831
 C396 C 0.71337 0.87541 1.12582
 N397 N 0.72410 0.88581 1.14679
 N398 N 0.74490 0.87564 1.15698
 C399 C 0.75586 0.85466 1.14665
 N400 N 0.74501 0.84435 1.12561
 N401 N 0.72422 0.85451 1.11541
 C402 C 0.69038 0.88654 1.11464
 N403 N 0.67963 0.87608 1.09370
 N404 N 0.65871 0.88610 1.08360
 C405 C 0.64778 0.90696 1.09407
 N406 N 0.65854 0.91743 1.11501
 N407 N 0.67945 0.90741 1.12511
 C408 C 0.62467 0.91795 1.08299
 N409 N 0.61368 0.93876 1.09351
 N410 N 0.59268 0.94869 1.08349
 C411 C 0.58192 0.93815 1.06260
 N412 N 0.59290 0.91736 1.05206
 N413 N 0.61390 0.90743 1.06208
 C414 C 0.71254 1.12578 0.87519
 N415 N 0.72328 1.14671 0.88558
 N416 N 0.74404 1.15686 0.87538
 C417 C 0.75495 1.14652 0.85437
 N418 N 0.74409 1.12552 0.84407
 N419 N 0.72333 1.11536 0.85425
 C420 C 0.68960 1.11463 0.88636
 N421 N 0.67883 1.09373 0.87589
 N422 N 0.65797 1.08366 0.88596
 C423 C 0.64711 1.09413 0.90686
 N424 N 0.65788 1.11503 0.91734
 N425 N 0.67874 1.12510 0.90727
 C426 C 0.62406 1.08307 0.91791
 N427 N 0.61314 1.09355 0.93878
 N428 N 0.59220 1.08354 0.94875
 C429 C 0.58144 1.06269 0.93820
 N430 N 0.59234 1.05219 0.91735
 N431 N 0.61328 1.06220 0.90738
 C432 C 0.12572 0.28753 0.12540
 N433 N 0.14664 0.27670 0.11498
 N434 N 0.15681 0.25590 0.12518
 C435 C 0.14648 0.24511 0.14620
 N436 N 0.12551 0.25601 0.15656
 N437 N 0.11533 0.27680 0.14637
 C438 C 0.11457 0.31051 0.11422
 N439 N 0.09370 0.32142 0.12470
 N440 N 0.08365 0.34232 0.11460
 C441 C 0.09411 0.35309 0.09367
 N442 N 0.11497 0.34218 0.08318
 N443 N 0.12502 0.32128 0.09327
 C444 C 0.08309 0.37619 0.08259
 N445 N 0.09359 0.38698 0.06168
 N446 N 0.08364 0.40798 0.05167
 C447 C 0.06284 0.41893 0.06222
 N448 N 0.05232 0.40815 0.08311
 N449 N 0.06227 0.38716 0.09312
 C450 C -0.12526 0.28824 -0.12455
 N451 N -0.11489 0.27738 -0.14548
 N452 N -0.12510 0.25662 -0.15559
 C453 C -0.14609 0.24588 -0.14520
 N454 N -0.15641 0.25681 -0.12422
 N455 N -0.14621 0.27757 -0.11410
 C456 C -0.11405 0.31119 -0.11347
 N457 N -0.12445 0.32213 -0.09257
 N458 N -0.11431 0.34301 -0.08259
 C459 C -0.09341 0.35370 -0.09314
 N460 N -0.08300 0.34275 -0.11403
 N461 N -0.09314 0.32188 -0.12401
 C462 C -0.08228 0.37675 -0.08219
 N463 N -0.06141 0.38747 -0.09279
 N464 N -0.05135 0.40842 -0.08289
 C465 C -0.06180 0.41939 -0.06205
 N466 N -0.08264 0.40869 -0.05144
 N467 N -0.09271 0.38774 -0.06133
 C468 C 0.12613 0.71182 -0.12547
 N469 N 0.11570 0.72265 -0.14641
 N470 N 0.12586 0.74342 -0.15656
 C471 C 0.14685 0.75421 -0.14621
 N472 N 0.15722 0.74331 -0.12523
 N473 N 0.14707 0.72254 -0.11507
 C474 C 0.11498 0.68887 -0.11433
 N475 N 0.12546 0.67799 -0.09344
 N476 N 0.11540 0.65712 -0.08338
 C477 C 0.09449 0.64636 -0.09385
 N478 N 0.08400 0.65725 -0.11474
 N479 N 0.09407 0.67812 -0.12480
 C480 C 0.08344 0.62331 -0.08281
 N481 N 0.06255 0.61253 -0.09332
 N482 N 0.05256 0.59159 -0.08333
 C483 C 0.06309 0.58069 -0.06249
 N484 N 0.08396 0.59145 -0.05197
 N485 N 0.09395 0.61239 -0.06196
 C486 C -0.12412 0.71280 0.12522
 N487 N -0.11373 0.72356 0.14618
 N488 N -0.12394 0.74433 0.15637
 C489 C -0.14494 0.75519 0.14602
 N490 N -0.15527 0.74437 0.12501
 N491 N -0.14507 0.72359 0.11481
 C492 C -0.11294 0.68983 0.11405
 N493 N -0.12340 0.67903 0.09313
 N494 N -0.11333 0.65813 0.08306
 C495 C -0.09243 0.64727 0.09354
 N496 N -0.08196 0.65808 0.11445
 N497 N -0.09203 0.67898 0.12452
 C498 C -0.08139 0.62417 0.08249
 N499 N -0.06053 0.61326 0.09301
 N500 N -0.05057 0.59226 0.08302
 C501 C -0.06112 0.58143 0.06217
 N502 N -0.08196 0.59233 0.05164
 N503 N -0.09192 0.61333 0.06163
 C504 C 1.12551 0.12553 0.71242
 N505 N 1.14645 0.11515 0.72324
 N506 N 1.15659 0.12537 0.74402
 C507 C 1.14624 0.14639 0.75488
 N508 N 1.12522 0.15669 0.74394
 N509 N 1.11507 0.14649 0.72316
 C510 C 1.11439 0.11433 0.68945
 N511 N 1.09348 0.12476 0.67857
 N512 N 1.08345 0.11464 0.65768
 C513 C 1.09398 0.09373 0.64690
 N514 N 1.11488 0.08329 0.65778
 N515 N 1.12491 0.09341 0.67867
 C516 C 1.08298 0.08263 0.62381
 N517 N 1.09354 0.06175 0.61299
 N518 N 1.08359 0.05173 0.59201
 C519 C 1.06274 0.06223 0.58111
 N520 N 1.05216 0.08309 0.59192
 N521 N 1.06211 0.09311 0.61290
 C522 C 0.87588 -0.12538 0.71252
 N523 N 0.88631 -0.14634 0.72325
 N524 N 0.87617 -0.15653 0.74405
 C525 C 0.85518 -0.14621 0.75500
 N526 N 0.84484 -0.12517 0.74414
 N527 N 0.85496 -0.11497 0.72335
 C528 C 0.88698 -0.11419 0.68953
 N529 N 0.87647 -0.09326 0.67875
 N530 N 0.88648 -0.08316 0.65785
 C531 C 0.90737 -0.09362 0.64695
 N532 N 0.91788 -0.11454 0.65774
 N533 N 0.90788 -0.12464 0.67865
 C534 C 0.91835 -0.08254 0.62386
 N535 N 0.93920 -0.09304 0.61294
 N536 N 0.94913 -0.08303 0.59195
 C537 C 0.93856 -0.06217 0.58113
 N538 N 0.91772 -0.05166 0.59203
 N539 N 0.90779 -0.06167 0.61302
 C540 C 1.12566 -0.12573 0.28776
 N541 N 1.11527 -0.14667 0.27703
 N542 N 1.12544 -0.15689 0.25624
 C543 C 1.14641 -0.14660 0.24536
 N544 N 1.15675 -0.12562 0.25617
 N545 N 1.14659 -0.11538 0.27695
 C546 C 1.11453 -0.11451 0.31074
 N547 N 1.12501 -0.09361 0.32151
 N548 N 1.11498 -0.08347 0.34240
 C549 C 1.09410 -0.09387 0.35329
 N550 N 1.08361 -0.11475 0.34251
 N551 N 1.09365 -0.12489 0.32162
 C552 C 1.08309 -0.08275 0.37637
 N553 N 1.06225 -0.09318 0.38729
 N554 N 1.05230 -0.08314 0.40827
 C555 C 1.06284 -0.06231 0.41908
 N556 N 1.08367 -0.05185 0.40818
 N557 N 1.09362 -0.06190 0.38720
 C558 C 0.87526 0.12565 0.28780
 N559 N 0.88563 0.14658 0.27704
 N560 N 0.87543 0.15680 0.25627
 C561 C 0.85442 0.14654 0.24537
 N562 N 0.84413 0.12554 0.25626
 N563 N 0.85432 0.11531 0.27703
 C564 C 0.88643 0.11444 0.31077
 N565 N 0.87599 0.09354 0.32157
 N566 N 0.88607 0.08342 0.34246
 C567 C 0.90696 0.09383 0.35330
 N568 N 0.91742 0.11472 0.34249
 N569 N 0.90734 0.12484 0.32160
 C570 C 0.91802 0.08273 0.37638
 N571 N 0.93888 0.09319 0.38726
 N572 N 0.94887 0.08316 0.40823
 C573 C 0.93835 0.06233 0.41907
 N574 N 0.91752 0.05186 0.40821
 N575 N 0.90753 0.06188 0.38723
 C576 C 0.12536 0.28739 -0.12574
 N577 N 0.11494 0.27666 -0.14669
 N578 N 0.12512 0.25587 -0.15689
 C579 C 0.14613 0.24493 -0.14659
 N580 N 0.15645 0.25578 -0.12557
 N581 N 0.14629 0.27657 -0.11535
 C582 C 0.11423 0.31037 -0.11453
 N583 N 0.12473 0.32113 -0.09361
 N584 N 0.11471 0.34203 -0.08350
 C585 C 0.09381 0.35294 -0.09393
 N586 N 0.08330 0.34218 -0.11484
 N587 N 0.09332 0.32127 -0.12496
 C588 C 0.08283 0.37604 -0.08283
 N589 N 0.06197 0.38700 -0.09330
 N590 N 0.05205 0.40800 -0.08327
 C591 C 0.06264 0.41879 -0.06242
 N592 N 0.08348 0.40784 -0.05193
 N593 N 0.09340 0.38684 -0.06196
 C594 C -0.12452 0.28849 0.12555
 N595 N -0.14547 0.27776 0.11516
 N596 N -0.15562 0.25700 0.12536
 C597 C -0.14523 0.24613 0.14634
 N598 N -0.12424 0.25692 0.15667
 N599 N -0.11408 0.27768 0.14649
 C600 C -0.11338 0.31143 0.11437
 N601 N -0.09245 0.32219 0.12480
 N602 N -0.08240 0.34305 0.11471
 C603 C -0.09290 0.35391 0.09382
 N604 N -0.11381 0.34314 0.08337
 N605 N -0.12387 0.32228 0.09346
 C606 C -0.08185 0.37695 0.08274
 N607 N -0.09239 0.38785 0.06188
 N608 N -0.08239 0.40877 0.05186
 C609 C -0.06152 0.41955 0.06236
 N610 N -0.05097 0.40867 0.08320
 N611 N -0.06096 0.38774 0.09322
 C612 C -0.12397 0.71276 -0.12564
 N613 N -0.11358 0.72349 -0.14661
 N614 N -0.12375 0.74429 -0.15680
 C615 C -0.14473 0.75525 -0.14646
 N616 N -0.15503 0.74440 -0.12543
 N617 N -0.14488 0.72360 -0.11523
 C618 C -0.11285 0.68976 -0.11446
 N619 N -0.12331 0.67901 -0.09351
 N620 N -0.11329 0.65810 -0.08342
 C621 C -0.09243 0.64717 -0.09389
 N622 N -0.08195 0.65792 -0.11483
 N623 N -0.09198 0.67884 -0.12493
 C624 C -0.08144 0.62406 -0.08281
 N625 N -0.06063 0.61307 -0.09333
 N626 N -0.05070 0.59207 -0.08330
 C627 C -0.06124 0.58131 -0.06242
 N628 N -0.08203 0.59228 -0.05188
 N629 N -0.09195 0.61328 -0.06190
 C630 C 0.12639 0.71193 0.12499
 N631 N 0.11597 0.72272 0.14593
 N632 N 0.12613 0.74348 0.15612
 C633 C 0.14713 0.75434 0.14581
 N634 N 0.15747 0.74342 0.12480
 N635 N 0.14732 0.72267 0.11460
 C636 C 0.11525 0.68898 0.11383
 N637 N 0.12571 0.67813 0.09291
 N638 N 0.11564 0.65727 0.08284
 C639 C 0.09474 0.64649 0.09332
 N640 N 0.08427 0.65736 0.11422
 N641 N 0.09434 0.67822 0.12429
 C642 C 0.08368 0.62345 0.08227
 N643 N 0.06281 0.61267 0.09281
 N644 N 0.05280 0.59173 0.08284
 C645 C 0.06330 0.58082 0.06198
 N646 N 0.08415 0.59159 0.05143
 N647 N 0.09416 0.61253 0.06140
 C648 C 0.28814 1.12511 0.87478
 N649 N 0.27731 1.14603 0.88520
 N650 N 0.25652 1.15620 0.87500
 C651 C 0.24572 1.14586 0.85398
 N652 N 0.25662 1.12490 0.84362
 N653 N 0.27741 1.11472 0.85381
 C654 C 0.31113 1.11396 0.88596
 N655 N 0.32203 1.09309 0.87549
 N656 N 0.34294 1.08304 0.88558
 C657 C 0.35371 1.09349 0.90651
 N658 N 0.34280 1.11436 0.91700
 N659 N 0.32189 1.12441 0.90691
 C660 C 0.37681 1.08248 0.91759
 N661 N 0.38760 1.09298 0.93850
 N662 N 0.40859 1.08303 0.94851
 C663 C 0.41954 1.06223 0.93796
 N664 N 0.40877 1.05171 0.91707
 N665 N 0.38777 1.06166 0.90706
 C666 C 0.28886 0.87413 1.12473
 N667 N 0.27819 0.85318 1.11428
 N668 N 0.25742 0.84298 1.12441
 C669 C 0.24649 0.85330 1.14538
 N670 N 0.25723 0.87429 1.15578
 N671 N 0.27799 0.88450 1.14566
 C672 C 0.31181 0.88534 1.11365
 N673 N 0.32249 0.90625 1.12419
 N674 N 0.34336 0.91638 1.11421
 C675 C 0.35431 0.90598 1.09332
 N676 N 0.34362 0.88507 1.08277
 N677 N 0.32275 0.87494 1.09276
 C678 C 0.37737 0.91711 1.08237
 N679 N 0.38836 0.90668 1.06151
 N680 N 0.40930 0.91674 1.05162
 C681 C 0.42001 0.93759 1.06224
 N682 N 0.40903 0.94804 1.08308
 N683 N 0.38809 0.93797 1.09297
 C684 C 0.71244 1.12552 1.12566
 N685 N 0.72326 1.11509 1.14659
 N686 N 0.74403 1.12525 1.15675
 C687 C 0.75482 1.14624 1.14639
 N688 N 0.74392 1.15661 1.12542
 N689 N 0.72315 1.14646 1.11525
 C690 C 0.68948 1.11437 1.11451
 N691 N 0.67860 1.12485 1.09362
 N692 N 0.65773 1.11478 1.08356
 C693 C 0.64697 1.09388 1.09403
 N694 N 0.65786 1.08339 1.11492
 N695 N 0.67873 1.09346 1.12498
 C696 C 0.62393 1.08282 1.08299
 N697 N 0.61314 1.06194 1.09350
 N698 N 0.59220 1.05195 1.08352
 C699 C 0.58130 1.06248 1.06268
 N700 N 0.59207 1.08335 1.05215
 N701 N 0.61301 1.09334 1.06214
 C702 C 0.71342 0.87527 0.87496
 N703 N 0.72417 0.88566 0.85400
 N704 N 0.74495 0.87545 0.84381
 C705 C 0.75580 0.85445 0.85416
 N706 N 0.74498 0.84412 0.87517
 N707 N 0.72420 0.85431 0.88537
 C708 C 0.69044 0.88644 0.88613
 N709 N 0.67964 0.87599 0.90705
 N710 N 0.65874 0.88606 0.91712
 C711 C 0.64788 0.90696 0.90664
 N712 N 0.65869 0.91743 0.88573
 N713 N 0.67959 0.90735 0.87566
 C714 C 0.62479 0.91800 0.91769
 N715 N 0.61387 0.93885 0.90717
 N716 N 0.59287 0.94881 0.91716
 C717 C 0.58204 0.93826 0.93801
 N718 N 0.59295 0.91743 0.94854
 N719 N 0.61394 0.90747 0.93856
   
