data_POSCAR
  _audit_creation_date              2014-09-24
  _audit_creation_method            'ToBaCCo'
  _symmetry_space_group_name_H-M    'P1'
  _symmetry_Int_Tables_number       1
  _symmetry_cell_setting            triclinic
  loop_
  _symmetry_equiv_pos_as_xyz
 x,y,z
_cell_length_a 11.2954
_cell_length_b 11.3418
_cell_length_c 29.5909
_cell_angle_alpha 89.518300
_cell_angle_beta 88.872700
_cell_angle_gamma 120.576600
loop_
  _atom_site_label
  _atom_site_type_symbol
  _atom_site_fract_x
  _atom_site_fract_y
  _atom_site_fract_z
C1 C -0.05168 0.05799 0.52926
 C2 C -0.16719 -0.04574 0.49964
 C3 C -0.12601 -0.11832 0.47332
 C4 C 0.02454 -0.08078 0.47913
 C5 C -0.00560 -0.02575 0.55615
 C6 C 0.03312 -0.09911 0.53029
 C7 C 0.06683 0.14614 0.49612
 C8 C 0.10695 0.07479 0.46963
 H9 H -0.26850 -0.05780 0.49870
 H10 H 0.05645 -0.14041 0.45777
 H11 H -0.01334 -0.03453 0.59271
 H12 H 0.10947 0.25560 0.49219
 C13 C 0.93907 -0.06423 0.20278
 C14 C 1.03329 -0.08442 0.16933
 C15 C 1.10422 0.02424 0.13970
 C16 C 1.07489 0.14108 0.14641
 C17 C 1.02727 0.06151 0.22606
 C18 C 1.10782 0.17673 0.19659
 C19 C 0.84827 -0.03473 0.17296
 C20 C 0.91780 0.07122 0.14316
 H21 H 1.04453 -0.17367 0.16977
 H22 H 1.13265 0.22914 0.12241
 H23 H 1.05571 0.06034 0.26088
 H24 H 0.73747 -0.10080 0.17292
 C25 C 0.11727 1.02158 0.86276
 C26 C 0.12678 1.13156 0.82980
 C27 C 0.00992 1.08575 0.80521
 C28 C -0.10328 0.93629 0.81581
 C29 C -0.01220 0.97782 0.89143
 C30 C -0.12720 0.93455 0.86722
 C31 C 0.08494 0.89974 0.83336
 C32 C -0.02948 0.85482 0.80851
 H33 H 0.21525 1.23402 0.82653
 H34 H -0.19734 0.90036 0.79581
 H35 H -0.01061 0.99187 0.92763
 H36 H 0.15329 0.85929 0.83021
 O37 O 0.66115 0.10340 -0.03995
 O38 O 0.40798 0.06915 0.04756
 O39 O 0.65829 0.10565 0.04749
 O40 O 0.42320 0.09256 -0.04082
 O41 O 0.32290 -0.13311 -0.03969
 O42 O 0.55926 -0.11961 0.04493
 O43 O 0.31408 -0.15583 0.04742
 O44 O 0.55852 -0.12205 -0.04309
 Cu45 Cu 0.54728 0.11562 0.00361
 Cu46 Cu 0.42919 -0.15496 0.00206
 C47 C 0.65344 -0.00369 -0.05600
 C48 C 0.31796 -0.04971 0.06248
 C49 C 0.64862 -0.00581 0.06076
 C50 C 0.33187 -0.02376 -0.05459
 O51 O 0.12479 0.43458 0.61954
 O52 O 0.13408 0.67110 0.70376
 O53 O 0.16698 0.46197 0.70521
 O54 O 0.11181 0.65730 0.61636
 O55 O -0.11267 0.53157 0.62928
 O56 O -0.05786 0.32793 0.71515
 O57 O -0.09044 0.54251 0.71611
 O58 O -0.10103 0.30561 0.62810
 Cu59 Cu 0.15665 0.56926 0.65987
 Cu60 Cu -0.11346 0.41321 0.67317
 C61 C 0.01181 0.33004 0.60955
 C62 C 0.02465 0.64793 0.72437
 C63 C 0.06441 0.36094 0.72490
 C64 C -0.00959 0.63014 0.60875
 O65 O 0.48437 0.38761 0.28026
 O66 O 0.63872 0.58988 0.38069
 O67 O 0.41445 0.33539 0.37132
 O68 O 0.68311 0.61490 0.29746
 O69 O 0.54751 0.70242 0.29336
 O70 O 0.28448 0.42786 0.36501
 O71 O 0.49568 0.66871 0.37854
 O72 O 0.33820 0.46238 0.27727
 Cu73 Cu 0.56180 0.46602 0.33450
 Cu74 Cu 0.40124 0.57214 0.32805
 C75 C 0.39028 0.39572 0.26036
 C76 C 0.59803 0.66860 0.39551
 C77 C 0.30556 0.33731 0.38153
 C78 C 0.65939 0.70694 0.28331
 N79 N -0.08397 0.14113 0.55874
 N80 N 0.01767 0.23860 0.57830
 N81 N 0.85594 0.81943 0.23348
 N82 N 0.75600 0.81717 0.25491
 N83 N 0.23564 0.05963 -0.10908
 N84 N 0.23195 -0.03712 -0.08578
 N85 N 0.05559 0.79925 0.55046
 N86 N -0.03146 0.71882 0.58033
 N87 N 0.22900 0.26093 0.20732
 N88 N 0.35014 0.33588 0.21706
 N89 N 0.75015 -0.08253 -0.11161
 N90 N 0.76145 0.01100 -0.08546
 N91 N 0.20256 0.03485 0.10619
 N92 N 0.21827 -0.06524 0.09617
 N93 N 0.79017 0.78403 0.44065
 N94 N 0.67263 0.76341 0.43003
 N95 N -0.00970 0.16723 0.77234
 N96 N 0.08787 0.28278 0.75790
 N97 N 0.84884 0.09278 0.10654
 N98 N 0.73407 -0.00836 0.09503
 N99 N 0.20301 0.14071 0.43239
 N100 N 0.20837 0.24621 0.41481
 N101 N -0.06083 0.75723 0.77343
 N102 N 0.03658 0.74201 0.75804
   
