data_POSCAR
  _audit_creation_date              2014-09-24
  _audit_creation_method            'ToBaCCo'
  _symmetry_space_group_name_H-M    'P1'
  _symmetry_Int_Tables_number       1
  _symmetry_cell_setting            triclinic
  loop_
  _symmetry_equiv_pos_as_xyz
 x,y,z
_cell_length_a 36.1592
_cell_length_b 36.0853
_cell_length_c 35.9664
_cell_angle_alpha 99.935500
_cell_angle_beta 83.569700
_cell_angle_gamma 79.971800
loop_
  _atom_site_label
  _atom_site_type_symbol
  _atom_site_fract_x
  _atom_site_fract_y
  _atom_site_fract_z
C1 C 0.56029 0.41185 -0.02176
 C2 C 0.58332 0.43834 -0.02182
 C3 C 0.56051 0.47394 -0.00609
 N4 N 0.52413 0.47007 0.00220
 C5 C 0.52387 0.43224 -0.00759
 C6 C 0.57263 0.50947 0.00152
 C7 C 0.54548 0.54427 0.01228
 C8 C 0.55110 0.57733 0.03514
 C9 C 0.52039 0.60563 0.03509
 C10 C 0.49692 0.58917 0.01199
 N11 N 0.51189 0.55140 -0.00096
 C12 C 0.46401 0.60959 0.00106
 C13 C 0.43467 0.59040 -0.00948
 C14 C 0.40541 0.60397 -0.02850
 C15 C 0.38292 0.57692 -0.03177
 C16 C 0.39949 0.54757 -0.01510
 N17 N 0.43109 0.55580 -0.00157
 C18 C 0.38456 0.51471 -0.01073
 C19 C 0.40604 0.48241 -0.00033
 C20 C 0.39100 0.45318 0.01220
 C21 C 0.42118 0.42513 0.01454
 C22 C 0.45397 0.43814 0.00381
 N23 N 0.44439 0.47320 -0.00507
 C24 C 0.49131 0.41607 -0.00189
 H25 H 0.56945 0.38122 -0.03168
 H26 H 0.61334 0.43182 -0.03260
 H27 H 0.46275 0.48769 -0.01844
 H28 H 0.57523 0.58076 0.04978
 H29 H 0.51613 0.63518 0.04983
 H30 H 0.40093 0.63028 -0.03940
 H31 H 0.35755 0.57850 -0.04525
 H32 H 0.41891 0.39779 0.02206
 H33 H 0.50232 0.53284 -0.02164
 H34 H 0.36134 0.45165 0.01798
 C35 C 0.00470 0.56693 0.58265
 C36 C 0.00378 0.59128 0.55725
 C37 C 0.01722 0.56870 0.52133
 N38 N 0.02521 0.53127 0.52398
 C39 C 0.01734 0.53012 0.56137
 C40 C 0.02267 0.58220 0.48669
 C41 C 0.02936 0.55635 0.45099
 C42 C 0.04709 0.56302 0.41714
 C43 C 0.04387 0.53360 0.38865
 C44 C 0.02489 0.50943 0.40592
 N45 N 0.01660 0.52312 0.44399
 C46 C 0.01281 0.47745 0.38614
 C47 C 0.00518 0.44720 0.40388
 C48 C -0.01078 0.41703 0.38807
 C49 C -0.01012 0.39256 0.41342
 C50 C 0.00606 0.40881 0.44380
 N51 N 0.01544 0.44211 0.43786
 C52 C 0.01437 0.39189 0.47519
 C53 C 0.02493 0.41236 0.50827
 C54 C 0.04009 0.39573 0.53662
 C55 C 0.04252 0.42523 0.56543
 C56 C 0.02942 0.45919 0.55367
 N57 N 0.01873 0.45105 0.51880
 C58 C 0.02361 0.49634 0.57652
 H59 H -0.00345 0.57552 0.61322
 H60 H -0.00606 0.62205 0.56463
 H61 H 0.00353 0.47070 0.50535
 H62 H 0.06032 0.58705 0.41328
 H63 H 0.05396 0.53055 0.35858
 H64 H -0.02145 0.41290 0.36103
 H65 H -0.02025 0.36584 0.40983
 H66 H 0.05209 0.42175 0.59227
 H67 H -0.00118 0.51315 0.46318
 H68 H 0.04775 0.36545 0.53701
 C69 C 0.41766 -0.02352 0.57925
 C70 C 0.44152 -0.02280 0.60625
 C71 C 0.47759 -0.02415 0.58742
 N72 N 0.47639 -0.02644 0.54964
 C73 C 0.43973 -0.02549 0.54464
 C74 C 0.51142 -0.02778 0.60426
 C75 C 0.54772 -0.02970 0.58313
 C76 C 0.58245 -0.04184 0.59477
 C77 C 0.61011 -0.03592 0.56845
 C78 C 0.59192 -0.01883 0.54198
 N79 N 0.55391 -0.01564 0.55080
 C80 C 0.61055 -0.00477 0.51191
 C81 C 0.59283 0.00255 0.47996
 C82 C 0.60539 0.02308 0.45345
 C83 C 0.58146 0.02201 0.42648
 C84 C 0.55468 0.00146 0.43768
 N85 N 0.56161 -0.01044 0.47035
 C86 C 0.52547 -0.00751 0.41690
 C87 C 0.49410 -0.02111 0.43283
 C88 C 0.46832 -0.03639 0.41210
 C89 C 0.43995 -0.04190 0.43808
 C90 C 0.44946 -0.03058 0.47407
 N91 N 0.48249 -0.01782 0.47055
 C92 C 0.42637 -0.02943 0.50893
 H93 H 0.38769 -0.02389 0.58453
 H94 H 0.43322 -0.02291 0.63605
 H95 H 0.49388 -0.00316 0.49254
 H96 H 0.58810 -0.05318 0.61986
 H97 H 0.64031 -0.04280 0.56931
 H98 H 0.62914 0.03764 0.45362
 H99 H 0.58326 0.03528 0.40172
 H100 H 0.41496 -0.05249 0.43092
 H101 H 0.53336 -0.00013 0.53837
 H102 H 0.46928 -0.04214 0.38143
 O103 O 0.45442 0.01836 -0.02653
 O104 O 0.45973 0.02406 0.07581
 O105 O 0.45779 0.07246 0.03029
 O106 O 0.45683 -0.03105 0.01924
 O107 O 0.51941 -0.04394 0.00813
 O108 O 0.52021 0.05872 0.01484
 O109 O 0.52229 0.01190 0.06358
 O110 O 0.51695 0.00218 -0.03934
 Cu111 Cu 0.45090 0.02219 0.02594
 Cu112 Cu 0.52601 0.00599 0.01075
 C113 C 0.48475 0.00907 -0.05040
 C114 C 0.49187 0.01927 0.08727
 C115 C 0.48919 0.08307 0.02376
 C116 C 0.48809 -0.05521 0.01194
 O117 O -0.08107 0.53907 0.99929
 O118 O 0.01777 0.55212 0.99611
 O119 O -0.03012 0.54744 0.94668
 O120 O -0.03390 0.54383 1.04863
 O121 O -0.01301 0.48116 1.03386
 O122 O -0.00951 0.48462 0.93190
 O123 O 0.03779 0.48933 0.98064
 O124 O -0.06132 0.47619 0.98544
 Cu125 Cu -0.03379 0.55193 0.99913
 Cu126 Cu -0.00963 0.47648 0.98141
 C127 C -0.08813 0.50548 0.99307
 C128 C 0.04470 0.52295 0.98795
 C129 C -0.01917 0.51661 0.92196
 C130 C -0.02387 0.51195 1.05870
 O131 O 0.02870 -0.06663 0.47964
 O132 O 0.01942 0.03572 0.47612
 O133 O 0.07496 -0.01873 0.48224
 O134 O -0.02598 -0.01312 0.47238
 O135 O -0.04089 -0.00007 0.53505
 O136 O 0.05951 -0.00036 0.54474
 O137 O 0.00182 0.05072 0.53848
 O138 O 0.01656 -0.05196 0.54254
 Cu139 Cu 0.02589 -0.01716 0.47130
 Cu140 Cu 0.00780 0.00093 0.54653
 C141 C 0.02430 -0.07679 0.51167
 C142 C 0.00853 0.06077 0.50666
 C143 C 0.08435 -0.00977 0.51509
 C144 C -0.05069 -0.00610 0.50202
 C145 C -0.33711 0.54375 0.98044
 C146 C -0.31030 0.51796 0.99405
 C147 C -0.32300 0.48768 1.00883
 C148 C -0.36158 0.48510 1.01191
 C149 C -0.38815 0.51131 0.99875
 C150 C -0.37502 0.54037 0.98272
 C151 C -0.29715 0.46015 1.02053
 C152 C -0.25874 0.46150 1.01714
 C153 C -0.24479 0.49143 1.00315
 C154 C -0.27132 0.52102 0.99305
 C155 C -0.25826 0.55326 0.98333
 C156 C -0.22045 0.55612 0.98247
 C157 C -0.19390 0.52663 0.99025
 C158 C -0.20537 0.49343 0.99990
 C159 C -0.17671 0.46350 1.00541
 C160 C -0.13866 0.46714 1.00258
 C161 C -0.12801 0.50077 0.99469
 C162 C -0.15581 0.53031 0.98843
 H163 H -0.32958 0.56627 0.96680
 H164 H -0.37097 0.46321 1.02567
 H165 H -0.39416 0.56037 0.97099
 H166 H -0.30663 0.43695 1.03198
 H167 H -0.24075 0.43922 1.02695
 H168 H -0.27688 0.57761 0.97744
 H169 H -0.21186 0.58166 0.97532
 H170 H -0.18265 0.43664 1.01120
 H171 H -0.11756 0.44374 1.00715
 H172 H -0.14766 0.55616 0.98154
 C173 C 0.29913 0.48204 0.95229
 C174 C 0.26831 0.50954 0.97452
 C175 C 0.27689 0.54056 0.99987
 C176 C 0.31469 0.54226 1.00436
 C177 C 0.34464 0.51396 0.98314
 C178 C 0.33657 0.48438 0.95659
 C179 C 0.24775 0.56952 1.02094
 C180 C 0.21005 0.56852 1.01758
 C181 C 0.19983 0.53777 0.99361
 C182 C 0.22942 0.50728 0.97251
 C183 C 0.21916 0.47494 0.95116
 C184 C 0.18141 0.47238 0.95037
 C185 C 0.15230 0.50221 0.96995
 C186 C 0.16096 0.53582 0.99102
 C187 C 0.13019 0.56602 1.00864
 C188 C 0.09266 0.56208 1.00682
 C189 C 0.08442 0.52800 0.98761
 C190 C 0.11445 0.49836 0.96884
 H191 H 0.29540 0.45859 0.93100
 H192 H 0.32091 0.56542 1.02472
 H193 H 0.35947 0.46270 0.93936
 H194 H 0.25416 0.59332 1.04031
 H195 H 0.18941 0.59181 1.03530
 H196 H 0.23972 0.45031 0.93568
 H197 H 0.17495 0.44663 0.93419
 H198 H 0.13409 0.59322 1.02377
 H199 H 0.06995 0.58562 1.02120
 H200 H 0.10835 0.47212 0.95325
 C201 C 0.00162 -0.32192 0.45939
 C202 C 0.01961 -0.29918 0.48485
 C203 C 0.03702 -0.31632 0.51276
 C204 C 0.03858 -0.35547 0.51306
 C205 C 0.02127 -0.37809 0.48700
 C206 C 0.00234 -0.36038 0.46066
 C207 C 0.05282 -0.29430 0.54022
 C208 C 0.05086 -0.25531 0.54122
 C209 C 0.03431 -0.23708 0.51366
 C210 C 0.02026 -0.25988 0.48389
 C211 C 0.00830 -0.24301 0.45355
 C212 C 0.00868 -0.20477 0.45296
 C213 C 0.01985 -0.18152 0.48303
 C214 C 0.03213 -0.19699 0.51426
 C215 C 0.04092 -0.17143 0.54508
 C216 C 0.03822 -0.13244 0.54434
 C217 C 0.02742 -0.11788 0.51271
 C218 C 0.01844 -0.14263 0.48211
 H219 H -0.01435 -0.31056 0.43892
 H220 H 0.05413 -0.36849 0.53315
 H221 H -0.01278 -0.37625 0.44117
 H222 H 0.06632 -0.30721 0.56160
 H223 H 0.06378 -0.24038 0.56329
 H224 H -0.00035 -0.25904 0.42899
 H225 H -0.00043 -0.19315 0.42888
 H226 H 0.04889 -0.18044 0.57060
 H227 H 0.04488 -0.11365 0.56851
 H228 H 0.00924 -0.13133 0.45787
 C229 C 0.03727 0.28389 0.44230
 C230 C 0.01419 0.27131 0.47017
 C231 C -0.00918 0.29969 0.49971
 C232 C -0.00993 0.33882 0.50043
 C233 C 0.01339 0.35055 0.47285
 C234 C 0.03691 0.32286 0.44386
 C235 C -0.03128 0.28893 0.52874
 C236 C -0.02977 0.25051 0.53005
 C237 C -0.00655 0.22110 0.50173
 C238 C 0.01431 0.23166 0.47032
 C239 C 0.03432 0.20228 0.44000
 C240 C 0.03531 0.16386 0.44101
 C241 C 0.01717 0.15306 0.47253
 C242 C -0.00375 0.18142 0.50355
 C243 C -0.02018 0.16880 0.53554
 C244 C -0.01622 0.12980 0.53632
 C245 C 0.00389 0.10200 0.50528
 C246 C 0.02029 0.11388 0.47333
 H247 H 0.05683 0.26440 0.41962
 H248 H -0.02803 0.36032 0.52301
 H249 H 0.05552 0.33148 0.42260
 H250 H -0.04949 0.31051 0.55116
 H251 H -0.04783 0.24478 0.55342
 H252 H 0.04902 0.20804 0.41454
 H253 H 0.05103 0.14231 0.41705
 H254 H -0.03540 0.18826 0.56089
 H255 H -0.02900 0.12139 0.56147
 H256 H 0.03635 0.09258 0.44934
 C257 C 0.52549 -0.06193 -0.30516
 C258 C 0.50626 -0.02970 -0.27722
 C259 C 0.48587 0.00177 -0.28998
 C260 C 0.48785 0.00214 -0.32912
 C261 C 0.50877 -0.02919 -0.35648
 C262 C 0.52627 -0.06172 -0.34403
 C263 C 0.46386 0.03289 -0.26365
 C264 C 0.46140 0.03346 -0.22474
 C265 C 0.48222 0.00347 -0.21051
 C266 C 0.50629 -0.02779 -0.23717
 C267 C 0.53077 -0.05521 -0.22299
 C268 C 0.53153 -0.05240 -0.18409
 C269 C 0.50694 -0.02314 -0.15772
 C270 C 0.48094 0.00445 -0.17046
 C271 C 0.45457 0.03171 -0.14246
 C272 C 0.45534 0.03247 -0.10360
 C273 C 0.48268 0.00666 -0.09140
 C274 C 0.50827 -0.02124 -0.11857
 H275 H 0.53936 -0.08809 -0.29785
 H276 H 0.47344 0.02717 -0.33841
 H277 H 0.54062 -0.08723 -0.36454
 H278 H 0.44815 0.05702 -0.27324
 H279 H 0.44416 0.05876 -0.20635
 H280 H 0.55102 -0.07837 -0.24145
 H281 H 0.55146 -0.07359 -0.17455
 H282 H 0.43253 0.05230 -0.14967
 H283 H 0.43496 0.05393 -0.08296
 H284 H 0.52891 -0.04188 -0.10915
 C285 C 0.56043 -0.02081 0.31111
 C286 C 0.53060 0.00233 0.29817
 C287 C 0.49932 0.02293 0.32569
 C288 C 0.49856 0.02074 0.36435
 C289 C 0.52794 -0.00290 0.37638
 C290 C 0.55890 -0.02342 0.34954
 C291 C 0.46858 0.04510 0.31447
 C292 C 0.46730 0.04620 0.27625
 C293 C 0.49725 0.02560 0.24757
 C294 C 0.53022 0.00486 0.25889
 C295 C 0.56168 -0.01248 0.23058
 C296 C 0.56046 -0.01106 0.19238
 C297 C 0.52767 0.00688 0.18061
 C298 C 0.49543 0.02522 0.20794
 C299 C 0.46233 0.04148 0.19427
 C300 C 0.46152 0.03967 0.15532
 C301 C 0.49361 0.02202 0.12855
 C302 C 0.52677 0.00601 0.14148
 H303 H 0.58478 -0.03824 0.29217
 H304 H 0.47454 0.03667 0.38516
 H305 H 0.58171 -0.04214 0.35830
 H306 H 0.44482 0.06127 0.33543
 H307 H 0.44253 0.06413 0.27018
 H308 H 0.58810 -0.02694 0.23712
 H309 H 0.58532 -0.02482 0.17170
 H310 H 0.43616 0.05483 0.21276
 H311 H 0.43545 0.05213 0.14611
 H312 H 0.55164 -0.00817 0.12095
 C313 C 0.42454 -0.28472 0.01734
 C314 C 0.45655 -0.27003 0.00462
 C315 C 0.49079 -0.29681 -0.01017
 C316 C 0.49257 -0.33624 -0.01208
 C317 C 0.46086 -0.35050 0.00124
 C318 C 0.42676 -0.32408 0.01567
 C319 C 0.52339 -0.28427 -0.02281
 C320 C 0.52333 -0.24549 -0.02015
 C321 C 0.49032 -0.21739 -0.00488
 C322 C 0.45605 -0.22988 0.00661
 C323 C 0.42251 -0.20181 0.01954
 C324 C 0.42253 -0.16294 0.02203
 C325 C 0.45595 -0.15025 0.01234
 C326 C 0.49041 -0.17722 -0.00097
 C327 C 0.52372 -0.16273 -0.00925
 C328 C 0.52261 -0.12341 -0.00498
 C329 C 0.48843 -0.09690 0.00761
 C330 C 0.45511 -0.11060 0.01617
 H331 H 0.39754 -0.26655 0.02967
 H332 H 0.51896 -0.35610 -0.02434
 H333 H 0.40193 -0.33363 0.02732
 H334 H 0.54954 -0.30470 -0.03456
 H335 H 0.54977 -0.23858 -0.03084
 H336 H 0.39545 -0.20895 0.02764
 H337 H 0.39605 -0.14251 0.03206
 H338 H 0.55134 -0.18084 -0.01848
 H339 H 0.54887 -0.11377 -0.01166
 H340 H 0.42851 -0.09037 0.02625
 C341 C 0.51202 0.30831 -0.03734
 C342 C 0.50299 0.29438 -0.00365
 C343 C 0.48940 0.32168 0.03067
 C344 C 0.48742 0.36102 0.03133
 C345 C 0.49632 0.37419 -0.00233
 C346 C 0.50816 0.34763 -0.03663
 C347 C 0.47717 0.30968 0.06398
 C348 C 0.47674 0.27120 0.06373
 C349 C 0.49021 0.24291 0.03037
 C350 C 0.50580 0.25445 -0.00312
 C351 C 0.52438 0.22571 -0.03462
 C352 C 0.52646 0.18702 -0.03396
 C353 C 0.50872 0.17549 -0.00265
 C354 C 0.48942 0.20330 0.02960
 C355 C 0.46916 0.19034 0.05923
 C356 C 0.46889 0.15135 0.05708
 C357 C 0.48958 0.12409 0.02601
 C358 C 0.50966 0.13624 -0.00365
 H359 H 0.52061 0.28962 -0.06492
 H360 H 0.47763 0.38168 0.05782
 H361 H 0.51428 0.35745 -0.06305
 H362 H 0.46695 0.33037 0.09036
 H363 H 0.46687 0.26423 0.09060
 H364 H 0.53883 0.23228 -0.05983
 H365 H 0.54144 0.16591 -0.05861
 H366 H 0.45214 0.20976 0.08375
 H367 H 0.45274 0.14238 0.07998
 H368 H 0.52492 0.11512 -0.02820
 C369 C -0.30428 0.02325 0.55021
 C370 C -0.27487 0.00750 0.51918
 C371 C -0.28522 -0.01007 0.48452
 C372 C -0.32306 -0.01337 0.48201
 C373 C -0.35168 0.00089 0.51359
 C374 C -0.34176 0.01991 0.54737
 C375 C -0.25768 -0.02494 0.45262
 C376 C -0.21987 -0.02310 0.45424
 C377 C -0.20779 -0.00678 0.48826
 C378 C -0.23570 0.00834 0.52142
 C379 C -0.22339 0.02282 0.55596
 C380 C -0.18530 0.02257 0.55819
 C381 C -0.15785 0.00842 0.52612
 C382 C -0.16861 -0.00587 0.49050
 C383 C -0.13954 -0.01875 0.45867
 C384 C -0.10159 -0.01839 0.46249
 C385 C -0.09112 -0.00530 0.49800
 C386 C -0.11953 0.00833 0.52966
 H387 H -0.29947 0.03856 0.57712
 H388 H -0.32992 -0.02859 0.45574
 H389 H -0.36330 0.03250 0.57188
 H390 H -0.26543 -0.03834 0.42602
 H391 H -0.20061 -0.03569 0.42832
 H392 H -0.24244 0.03384 0.58230
 H393 H -0.17724 0.03355 0.58548
 H394 H -0.14502 -0.02908 0.43031
 H395 H -0.08028 -0.02881 0.43744
 H396 H -0.11185 0.01900 0.55723
 C397 C 0.33809 -0.06901 0.49066
 C398 C 0.30864 -0.03658 0.50524
 C399 C 0.31888 -0.00243 0.52321
 C400 C 0.35721 -0.00024 0.52353
 C401 C 0.38593 -0.03229 0.50804
 C402 C 0.37607 -0.06689 0.49255
 C403 C 0.29086 0.02934 0.54081
 C404 C 0.25267 0.02788 0.54159
 C405 C 0.24099 -0.00505 0.52324
 C406 C 0.26945 -0.03703 0.50311
 C407 C 0.25789 -0.06771 0.48040
 C408 C 0.21979 -0.06738 0.47779
 C409 C 0.19163 -0.03741 0.49897
 C410 C 0.20175 -0.00649 0.52312
 C411 C 0.17207 0.02149 0.54651
 C412 C 0.13408 0.01965 0.54450
 C413 C 0.12446 -0.00956 0.51873
 C414 C 0.15331 -0.03814 0.49614
 H415 H 0.33258 -0.09666 0.47863
 H416 H 0.36487 0.02633 0.53635
 H417 H 0.39795 -0.09225 0.48149
 H418 H 0.29853 0.05554 0.55457
 H419 H 0.23283 0.05377 0.55545
 H420 H 0.27789 -0.09172 0.46288
 H421 H 0.21227 -0.09111 0.45927
 H422 H 0.17731 0.04464 0.56725
 H423 H 0.11208 0.04172 0.56256
 H424 H 0.14585 -0.06132 0.47679
 C425 C 0.02701 0.44406 1.27868
 C426 C 0.00327 0.47410 1.26680
 C427 C -0.01722 0.50525 1.29543
 C428 C -0.01456 0.50555 1.33408
 C429 C 0.00902 0.47563 1.34516
 C430 C 0.02985 0.44503 1.31723
 C431 C -0.04003 0.53618 1.28545
 C432 C -0.04232 0.53761 1.24748
 C433 C -0.02222 0.50766 1.21775
 C434 C -0.00022 0.47471 1.22762
 C435 C 0.01726 0.44339 1.19805
 C436 C 0.01449 0.44462 1.16009
 C437 C -0.00519 0.47724 1.14989
 C438 C -0.02362 0.50939 1.17844
 C439 C -0.04203 0.54224 1.16630
 C440 C -0.04223 0.54282 1.12763
 C441 C -0.02439 0.51077 1.09967
 C442 C -0.00612 0.47795 1.11108
 H443 H 0.04450 0.41987 1.25894
 H444 H -0.03051 0.52943 1.35576
 H445 H 0.04876 0.42197 1.32529
 H446 H -0.05599 0.55989 1.30727
 H447 H -0.06076 0.56251 1.24244
 H448 H 0.03290 0.41703 1.20331
 H449 H 0.02838 0.41984 1.13840
 H450 H -0.05581 0.56836 1.18582
 H451 H -0.05639 0.56865 1.11962
 H452 H 0.00818 0.45309 1.08967
 C453 C 0.05678 0.49058 0.67187
 C454 C 0.02229 0.50149 0.69750
 C455 C -0.01143 0.51391 0.68264
 C456 C -0.01080 0.51197 0.64326
 C457 C 0.02341 0.49979 0.61828
 C458 C 0.05722 0.49016 0.63293
 C459 C -0.04561 0.52798 0.70711
 C460 C -0.04709 0.53051 0.74624
 C461 C -0.01458 0.51735 0.76229
 C462 C 0.02019 0.50082 0.73729
 C463 C 0.05122 0.48280 0.75260
 C464 C 0.04856 0.48141 0.79114
 C465 C 0.01557 0.49937 0.81621
 C466 C -0.01603 0.51883 0.80241
 C467 C -0.04757 0.53939 0.82948
 C468 C -0.04811 0.53919 0.86833
 C469 C -0.01778 0.51791 0.88124
 C470 C 0.01402 0.49809 0.85514
 H471 H 0.08394 0.48304 0.68118
 H472 H -0.03693 0.52005 0.63188
 H473 H 0.08401 0.48151 0.61397
 H474 H -0.07149 0.53752 0.69592
 H475 H -0.07465 0.54136 0.76313
 H476 H 0.07754 0.46793 0.73509
 H477 H 0.07280 0.46650 0.80151
 H478 H -0.07178 0.55670 0.82164
 H479 H -0.07268 0.55517 0.88833
 H480 H 0.03794 0.48239 0.86536
   
