data_POSCAR
  _audit_creation_date              2014-09-24
  _audit_creation_method            'ToBaCCo'
  _symmetry_space_group_name_H-M    'P1'
  _symmetry_Int_Tables_number       1
  _symmetry_cell_setting            triclinic
  loop_
  _symmetry_equiv_pos_as_xyz
 x,y,z
_cell_length_a 24.1650
_cell_length_b 24.3733
_cell_length_c 31.0681
_cell_angle_alpha 84.018500
_cell_angle_beta 96.319200
_cell_angle_gamma 88.253600
loop_
  _atom_site_label
  _atom_site_type_symbol
  _atom_site_fract_x
  _atom_site_fract_y
  _atom_site_fract_z
O1 O -0.03389 0.44390 1.02961
 O2 O -0.01885 0.55597 0.94316
 O3 O -0.00040 0.44706 0.95140
 O4 O -0.04590 0.55123 1.02112
 O5 O 0.04248 0.56212 1.04380
 O6 O 0.08570 0.45239 0.98203
 O7 O 0.07060 0.55813 0.96613
 O8 O 0.05197 0.45534 1.05844
 Cu9 Cu -0.03353 0.49821 0.98336
 Cu10 Cu 0.07134 0.50755 1.01526
 C11 C 0.00590 0.43170 1.05965
 C12 C 0.02841 0.57643 0.93987
 C13 C 0.05094 0.43153 0.95551
 C14 C -0.00869 0.57549 1.04349
 O15 O 0.52887 0.03507 0.43934
 O16 O 0.43887 0.03743 0.52723
 O17 O 0.54388 0.05148 0.52121
 O18 O 0.42297 0.01226 0.44746
 O19 O 0.44368 -0.07503 0.47170
 O20 O 0.56833 -0.03690 0.53682
 O21 O 0.46437 -0.04938 0.54980
 O22 O 0.54330 -0.05483 0.45524
 Cu23 Cu 0.48150 0.04295 0.48138
 Cu24 Cu 0.50755 -0.06262 0.50549
 C25 C 0.55076 -0.01038 0.43166
 C26 C 0.43685 -0.00528 0.55400
 C27 C 0.57703 0.01331 0.54132
 C28 C 0.41191 -0.03867 0.44834
 C29 C -0.11698 0.00168 0.25613
 C30 C -0.06314 0.01264 0.24621
 C31 C -0.04883 0.06716 0.23627
 C32 C -0.08869 0.11067 0.23446
 C33 C -0.14341 0.09924 0.24318
 C34 C -0.15788 0.04441 0.25467
 C35 C -0.02280 -0.03360 0.24478
 C36 C -0.03786 -0.07611 0.21926
 C37 C -0.00155 -0.12188 0.21861
 C38 C 0.05049 -0.12448 0.24403
 C39 C 0.06614 -0.08243 0.27020
 C40 C 0.02938 -0.03653 0.26982
 H41 H -0.12622 -0.04067 0.26599
 H42 H -0.00710 0.07561 0.22839
 H43 H -0.07787 -0.07293 0.19945
 H44 H 0.04005 -0.00435 0.29047
 H45 H -0.17418 0.13291 0.24127
 H46 H 0.07859 -0.15992 0.24409
 C47 C 0.02615 -0.03305 0.77488
 C48 C 0.01393 0.02122 0.75625
 C49 C -0.03956 0.03626 0.73574
 C50 C -0.08072 -0.00328 0.73265
 C51 C -0.06712 -0.05841 0.75050
 C52 C -0.01327 -0.07390 0.77117
 C53 C 0.05990 0.05934 0.75350
 C54 C 0.10598 0.04338 0.73347
 C55 C 0.15286 0.07545 0.73320
 C56 C 0.15312 0.12489 0.75255
 C57 C 0.10789 0.14082 0.77440
 C58 C 0.06068 0.10812 0.77379
 H59 H 0.06750 -0.04338 0.79153
 H60 H -0.04796 0.07796 0.72008
 H61 H 0.10574 0.00498 0.71866
 H62 H 0.02613 0.11835 0.79134
 H63 H -0.09805 -0.08937 0.74748
 H64 H 0.18973 0.14940 0.75227
 C65 C 0.00315 -0.30353 0.10950
 C66 C -0.05077 -0.29632 0.11875
 C67 C -0.09339 -0.32925 0.10385
 C68 C -0.07968 -0.37132 0.07856
 C69 C -0.02405 -0.37983 0.06921
 C70 C 0.01768 -0.34510 0.08494
 O71 O 0.03760 -0.26816 0.12646
 C72 C 0.00490 -0.23795 0.14714
 C73 C -0.04955 -0.25343 0.14362
 C74 C -0.09038 -0.22762 0.16360
 C75 C -0.07434 -0.18430 0.18820
 C76 C -0.01832 -0.16736 0.19211
 C77 C 0.02160 -0.19479 0.17092
 H78 H -0.13560 -0.32284 0.11145
 H79 H -0.11209 -0.39754 0.06677
 H80 H 0.06047 -0.35008 0.07823
 H81 H -0.13290 -0.24073 0.16078
 H82 H -0.10540 -0.16470 0.20478
 H83 H 0.06447 -0.18279 0.17259
 C84 C -0.05205 0.31507 0.12891
 C85 C -0.01267 0.30942 0.16474
 C86 C 0.03319 0.34242 0.16843
 C87 C 0.03871 0.38293 0.13376
 C88 C -0.00133 0.38968 0.09634
 C89 C -0.04764 0.35536 0.09422
 O90 O -0.09030 0.27714 0.13054
 C91 C -0.07468 0.24680 0.16819
 C92 C -0.02748 0.26497 0.19043
 C93 C -0.00155 0.23708 0.22905
 C94 C -0.02431 0.18768 0.24476
 C95 C -0.07215 0.16740 0.22190
 C96 C -0.09849 0.19812 0.18362
 H97 H 0.06413 0.33659 0.19665
 H98 H 0.07436 0.40875 0.13601
 H99 H -0.07848 0.35880 0.06592
 H100 H 0.03606 0.25168 0.24558
 H101 H -0.00356 0.16403 0.27383
 H102 H -0.13394 0.18258 0.16487
 C103 C 0.33291 0.04276 0.62600
 C104 C 0.33123 -0.00379 0.65481
 C105 C 0.36378 -0.05142 0.65322
 C106 C 0.39933 -0.05121 0.62039
 C107 C 0.40150 -0.00390 0.58989
 C108 C 0.36800 0.04393 0.59318
 O109 O 0.29689 0.08278 0.63198
 C110 C 0.27176 0.06093 0.66523
 C111 C 0.29128 0.00800 0.68034
 C112 C 0.26896 -0.02378 0.71344
 C113 C 0.22421 -0.00033 0.73130
 C114 C 0.20291 0.05397 0.71603
 C115 C 0.22767 0.08540 0.68298
 H116 H 0.36130 -0.08774 0.67604
 H117 H 0.42448 -0.08819 0.61840
 H118 H 0.36812 0.08055 0.57025
 H119 H 0.28462 -0.06554 0.72446
 H120 H 0.20554 -0.02466 0.75667
 H121 H 0.21155 0.12654 0.67029
 C122 C -0.28668 -0.00246 0.61391
 C123 C -0.28470 0.04793 0.63009
 C124 C -0.32567 0.08970 0.61737
 C125 C -0.37071 0.07872 0.58717
 C126 C -0.37408 0.02652 0.57081
 C127 C -0.33103 -0.01434 0.58433
 O128 O -0.24361 -0.03641 0.62959
 C129 C -0.21374 -0.00701 0.65648
 C130 C -0.23704 0.04480 0.65821
 C131 C -0.21253 0.08209 0.68466
 C132 C -0.16176 0.06546 0.70991
 C133 C -0.13627 0.01248 0.70805
 C134 C -0.16324 -0.02420 0.68094
 H135 H -0.32320 0.12917 0.63037
 H136 H -0.40339 0.11035 0.57727
 H137 H -0.33206 -0.05452 0.57238
 H138 H -0.23175 0.12253 0.68581
 H139 H -0.14236 0.09391 0.73088
 H140 H -0.14487 -0.06448 0.67792
 C141 C -0.00527 -0.29819 0.86192
 C142 C 0.04687 -0.28679 0.85058
 C143 C 0.09412 -0.31960 0.86684
 C144 C 0.08752 -0.36575 0.89649
 C145 C 0.03392 -0.37945 0.90809
 C146 C -0.01333 -0.34557 0.88949
 O147 O -0.04338 -0.25827 0.84695
 C148 C -0.01465 -0.22106 0.82544
 C149 C 0.04051 -0.23711 0.82611
 C150 C 0.07860 -0.20414 0.80672
 C151 C 0.05946 -0.15191 0.78662
 C152 C 0.00350 -0.13241 0.78771
 C153 C -0.03440 -0.16848 0.80657
 H154 H 0.13498 -0.30880 0.85838
 H155 H 0.12427 -0.39077 0.91033
 H156 H -0.05457 -0.35344 0.89863
 H157 H 0.12172 -0.21794 0.80735
 H158 H 0.08883 -0.12643 0.77082
 H159 H -0.07711 -0.15525 0.80855
 C160 C 0.05935 0.32331 0.87640
 C161 C 0.11533 0.30905 0.88399
 C162 C 0.15171 0.33284 0.91362
 C163 C 0.12964 0.37315 0.93654
 C164 C 0.07191 0.38897 0.92980
 C165 C 0.03622 0.36358 0.89904
 O166 O 0.03229 0.29441 0.84730
 C167 C 0.07220 0.26126 0.83658
 C168 C 0.12364 0.26878 0.85822
 C169 C 0.17106 0.23756 0.85333
 C170 C 0.16535 0.19641 0.82511
 C171 C 0.11289 0.18741 0.80192
 C172 C 0.06561 0.22083 0.80777
 H173 H 0.19557 0.32061 0.91908
 H174 H 0.15786 0.39178 0.95980
 H175 H -0.00794 0.37444 0.89318
 H176 H 0.21088 0.24382 0.87136
 H177 H 0.20174 0.17046 0.82261
 H178 H 0.02492 0.21526 0.79084
 C179 C -0.35300 0.03232 0.35044
 C180 C -0.34688 -0.01610 0.33207
 C181 C -0.37322 -0.06386 0.34533
 C182 C -0.40716 -0.06170 0.37902
 C183 C -0.41618 -0.01160 0.39741
 C184 C -0.38935 0.03643 0.38203
 O185 O -0.31817 0.07033 0.33771
 C186 C -0.28982 0.04547 0.31040
 C187 C -0.30679 -0.00699 0.30513
 C188 C -0.28172 -0.04125 0.27930
 C189 C -0.23586 -0.02156 0.25943
 C190 C -0.21404 0.03054 0.26733
 C191 C -0.24308 0.06538 0.29192
 H192 H -0.36607 -0.10207 0.33151
 H193 H -0.42693 -0.09897 0.39033
 H194 H -0.39340 0.07477 0.39641
 H195 H -0.29618 -0.08221 0.27533
 H196 H -0.21602 -0.04814 0.23932
 H197 H -0.22755 0.10491 0.29930
 C198 C 0.27689 -0.04098 0.37323
 C199 C 0.26678 -0.09629 0.37960
 C200 C 0.30208 -0.13415 0.40666
 C201 C 0.34985 -0.11433 0.42840
 C202 C 0.36160 -0.05732 0.42309
 C203 C 0.32441 -0.02005 0.39484
 O204 O 0.23742 -0.01242 0.34595
 C205 C 0.20183 -0.05069 0.33515
 C206 C 0.21804 -0.10255 0.35504
 C207 C 0.18698 -0.14871 0.34921
 C208 C 0.13705 -0.14133 0.32145
 C209 C 0.11928 -0.08850 0.29970
 C210 C 0.15228 -0.04239 0.30699
 H211 H 0.29307 -0.17748 0.41104
 H212 H 0.37739 -0.14371 0.44981
 H213 H 0.33196 0.02360 0.39008
 H214 H 0.20048 -0.18895 0.36576
 H215 H 0.11187 -0.17682 0.31747
 H216 H 0.14013 -0.00155 0.29095
   
