data_POSCAR
  _audit_creation_date              2014-09-24
  _audit_creation_method            'ToBaCCo'
  _symmetry_space_group_name_H-M    'P1'
  _symmetry_Int_Tables_number       1
  _symmetry_cell_setting            triclinic
  loop_
  _symmetry_equiv_pos_as_xyz
 x,y,z
_cell_length_a 42.0782
_cell_length_b 42.5957
_cell_length_c 41.4587
_cell_angle_alpha 90.450400
_cell_angle_beta 90.465500
_cell_angle_gamma 89.972800
loop_
  _atom_site_label
  _atom_site_type_symbol
  _atom_site_fract_x
  _atom_site_fract_y
  _atom_site_fract_z
N1 N 0.18918 1.25413 0.16657
 N2 N 0.16653 1.25265 0.18808
 C3 C 0.14482 1.27507 0.18181
 C4 C 0.15430 1.29166 0.15477
 C5 C 0.18276 1.27755 0.14592
 H6 H 0.12348 1.27855 0.19568
 H7 H 0.19759 1.28333 0.12569
 Cu8 Cu 0.16656 1.22083 0.22155
 Cu9 Cu 0.22458 1.22482 0.16597
 Cu10 Cu 0.22430 1.16580 0.22279
 N11 N 0.16619 1.18622 0.25197
 N12 N 0.18874 1.16492 0.25240
 C13 C 0.18212 1.14345 0.27499
 C14 C 0.15364 1.15152 0.28967
 C15 C 0.14436 1.17898 0.27428
 H16 H 0.19685 1.12324 0.27983
 H17 H 0.12309 1.19254 0.27849
 N18 N 0.25828 1.17052 0.19084
 N19 N 0.25838 1.19299 0.16916
 C20 C 0.28369 1.18906 0.14986
 C21 C 0.30039 1.16274 0.15976
 C22 C 0.28353 1.15170 0.18592
 H23 H 0.28890 1.20367 0.12941
 H24 H 0.28878 1.13105 0.19994
 H25 H 0.19939 1.18834 0.18639
 H26 H 0.22365 1.21355 0.21433
 N27 N 0.80550 0.74372 0.16499
 N28 N 0.82614 0.74338 0.18891
 C29 C 0.84815 0.72114 0.18309
 C30 C 0.84094 0.70667 0.15384
 C31 C 0.81361 0.72168 0.14314
 H32 H 0.86827 0.71647 0.19869
 H33 H 0.80067 0.71725 0.12096
 Cu34 Cu 0.82307 0.77270 0.22484
 Cu35 Cu 0.77049 0.77362 0.16323
 Cu36 Cu 0.77066 0.83227 0.22148
 N37 N 0.82640 0.80874 0.25364
 N38 N 0.80578 0.83185 0.25238
 C39 C 0.81397 0.85392 0.27428
 C40 C 0.84144 0.84428 0.29026
 C41 C 0.84850 0.81530 0.27635
 H42 H 0.80101 0.87556 0.27775
 H43 H 0.86839 0.80015 0.28178
 N44 N 0.73729 0.82847 0.18803
 N45 N 0.73726 0.80616 0.16578
 C46 C 0.71259 0.81082 0.14548
 C47 C 0.69627 0.83744 0.15533
 C48 C 0.71263 0.84790 0.18248
 H49 H 0.70736 0.79627 0.12466
 H50 H 0.70773 0.86883 0.19646
 H51 H 0.79652 0.80773 0.18737
 H52 H 0.76772 0.78461 0.21181
 N53 N 0.81115 1.25369 -0.16685
 N54 N 0.83231 1.25358 -0.18996
 C55 C 0.85435 1.27571 -0.18353
 C56 C 0.84661 1.29059 -0.15474
 C57 C 0.81894 1.27590 -0.14495
 H58 H 0.87477 1.28014 -0.19846
 H59 H 0.80550 1.28073 -0.12339
 Cu60 Cu 0.82959 1.22407 -0.22585
 Cu61 Cu 0.77573 1.22432 -0.16620
 Cu62 Cu 0.77603 1.16543 -0.22412
 N63 N 0.83263 1.18792 -0.25453
 N64 N 0.81158 1.16521 -0.25390
 C65 C 0.81950 1.14310 -0.27572
 C66 C 0.84723 1.15228 -0.29103
 C67 C 0.85476 1.18104 -0.27677
 H68 H 0.80610 1.12178 -0.27968
 H69 H 0.87492 1.19588 -0.28175
 N70 N 0.74220 1.16983 -0.19180
 N71 N 0.74209 1.19229 -0.16971
 C72 C 0.71692 1.18819 -0.15034
 C73 C 0.70035 1.16178 -0.16060
 C74 C 0.71712 1.15086 -0.18706
 H75 H 0.71173 1.20277 -0.12961
 H76 H 0.71189 1.13023 -0.20144
 H77 H 0.80170 1.18966 -0.18921
 H78 H 0.77380 1.21316 -0.21482
 N79 N 0.19092 0.74571 -0.16334
 N80 N 0.16855 0.74646 -0.18558
 C81 C 0.14681 0.72422 -0.17919
 C82 C 0.15601 0.70862 -0.15139
 C83 C 0.18423 0.72298 -0.14210
 H84 H 0.12547 0.72026 -0.19331
 H85 H 0.19874 0.71764 -0.12123
 Cu86 Cu 0.16884 0.77716 -0.22013
 Cu87 Cu 0.22619 0.77512 -0.16263
 Cu88 Cu 0.22595 0.83286 -0.22073
 N89 N 0.16828 0.81144 -0.25094
 N90 N 0.19056 0.83300 -0.25112
 C91 C 0.18379 0.85413 -0.27412
 C92 C 0.15551 0.84556 -0.28934
 C93 C 0.14649 0.81816 -0.27383
 H94 H 0.19829 0.87446 -0.27886
 H95 H 0.12542 0.80430 -0.27834
 N96 N 0.25980 0.82896 -0.18797
 N97 N 0.25988 0.80695 -0.16579
 C98 C 0.28497 0.81148 -0.14593
 C99 C 0.30153 0.83771 -0.15600
 C100 C 0.28484 0.84807 -0.18283
 H101 H 0.29033 0.79716 -0.12520
 H102 H 0.28979 0.86876 -0.19681
 H103 H 0.20071 0.81076 -0.18466
 H104 H 0.22573 0.78529 -0.21127
 C105 C 0.50041 1.00576 -0.00103
 C106 C 0.00163 0.50029 1.00143
 C107 C 1.00138 -0.00227 0.49900
 C108 C 0.10536 0.36514 1.10711
 C109 C 0.13456 0.35453 1.09549
 C110 C 0.15089 0.33051 1.11134
 C111 C 0.13822 0.31650 1.13921
 C112 C 0.10885 0.32779 1.15081
 C113 C 0.09262 0.35184 1.13485
 C114 C 0.08821 0.38923 1.09013
 C115 C 0.07379 0.40914 1.07557
 C116 C 0.05649 0.43257 1.05781
 C117 C 0.06379 0.43816 1.02556
 C118 C 0.04647 0.46025 1.00798
 C119 C 0.02195 0.47799 1.02249
 C120 C 0.01419 0.47111 1.05482
 C121 C 0.03158 0.44897 1.07235
 H122 H 0.14465 0.36469 1.07400
 H123 H 0.17331 0.32301 1.10136
 H124 H 0.09800 0.31812 1.17207
 H125 H 0.06998 0.35989 1.14406
 H126 H 0.08262 0.42512 1.01383
 H127 H 0.05211 0.46347 0.98279
 H128 H -0.00587 0.48202 1.06656
 H129 H 0.02518 0.44422 1.09710
 C130 C -0.10587 0.63454 1.10495
 C131 C -0.13080 0.64985 1.08905
 C132 C -0.14821 0.67314 1.10497
 C133 C -0.14090 0.68152 1.13711
 C134 C -0.11585 0.66582 1.15293
 C135 C -0.09847 0.64251 1.13693
 C136 C -0.08772 0.61093 1.08825
 C137 C -0.07259 0.59133 1.07392
 C138 C -0.05461 0.56812 1.05645
 C139 C -0.06879 0.55144 1.03100
 C140 C -0.05126 0.52937 1.01350
 C141 C -0.01925 0.52279 1.02171
 C142 C -0.00506 0.54089 1.04667
 C143 C -0.02266 0.56294 1.06413
 H144 H -0.13670 0.64389 1.06426
 H145 H -0.16712 0.68471 1.09185
 H146 H -0.10961 0.67137 1.17767
 H147 H -0.07922 0.63077 1.14949
 H148 H -0.09331 0.55590 1.02430
 H149 H -0.06278 0.51819 0.99305
 H150 H 0.01985 0.53791 1.05264
 H151 H -0.01122 0.57621 1.08336
 C152 C -0.10157 0.36364 0.89508
 C153 C -0.09280 0.35455 0.86390
 C154 C -0.10967 0.33090 0.84761
 C155 C -0.13560 0.31597 0.86232
 C156 C -0.14423 0.32545 0.89368
 C157 C -0.12733 0.34907 0.90989
 C158 C -0.08404 0.38768 0.91210
 C159 C -0.06949 0.40763 0.92676
 C160 C -0.05224 0.43122 0.94472
 C161 C -0.02759 0.44782 0.93025
 C162 C -0.01047 0.47032 0.94790
 C163 C -0.01827 0.47737 0.98030
 C164 C -0.04244 0.45938 0.99476
 C165 C -0.05950 0.43694 0.97705
 H166 H -0.07287 0.36569 0.85220
 H167 H -0.10236 0.32448 0.82350
 H168 H -0.16385 0.31453 0.90598
 H169 H -0.13429 0.35589 0.93406
 H170 H -0.02124 0.44299 0.90542
 H171 H 0.00937 0.48144 0.93619
 H172 H -0.04808 0.46275 1.01998
 H173 H -0.07813 0.42377 0.98872
 C174 C 0.10560 0.63561 0.89795
 C175 C 0.09567 0.64503 0.86723
 C176 C 0.11214 0.66860 0.85107
 C177 C 0.13883 0.68314 0.86546
 C178 C 0.14869 0.67329 0.89631
 C179 C 0.13217 0.64973 0.91240
 C180 C 0.08831 0.61178 0.91486
 C181 C 0.07380 0.59200 0.92925
 C182 C 0.05639 0.56860 0.94666
 C183 C 0.02455 0.56272 0.93902
 C184 C 0.00744 0.54051 0.95638
 C185 C 0.02203 0.52294 0.98122
 C186 C 0.05392 0.53020 0.98940
 C187 C 0.07097 0.55245 0.97199
 H188 H 0.07511 0.63424 0.85581
 H189 H 0.10390 0.67529 0.82733
 H190 H 0.16893 0.68391 0.90834
 H191 H 0.14003 0.64266 0.93621
 H192 H 0.01279 0.57557 0.91989
 H193 H -0.01742 0.53700 0.95045
 H194 H 0.06570 0.51945 1.00977
 H195 H 0.09541 0.55744 0.97867
 C196 C 1.10451 0.10162 0.36192
 C197 C 1.13359 0.09047 0.35051
 C198 C 1.14994 0.10700 0.32684
 C199 C 1.13744 0.13510 0.31404
 C200 C 1.10815 0.14614 0.32608
 C201 C 1.09189 0.12951 0.34975
 C202 C 1.08745 0.08423 0.38585
 C203 C 1.07306 0.06956 0.40574
 C204 C 1.05572 0.05199 0.42931
 C205 C 1.07052 0.02755 0.44598
 C206 C 1.05359 0.01021 0.46860
 C207 C 1.02160 0.01757 0.47573
 C208 C 1.00677 0.04146 0.45750
 C209 C 1.02375 0.05874 0.43494
 H210 H 1.14359 0.06888 0.35980
 H211 H 1.17229 0.09741 0.31871
 H212 H 1.09741 0.16752 0.31732
 H213 H 1.06936 0.13836 0.35845
 H214 H 1.09507 0.02157 0.44116
 H215 H 1.06557 -0.00939 0.47977
 H216 H 0.98184 0.04678 0.46087
 H217 H 1.01183 0.07720 0.42168
 C218 C 1.10611 -0.10579 0.63686
 C219 C 1.09377 -0.13370 0.64906
 C220 C 1.11013 -0.14993 0.67323
 C221 C 1.13924 -0.13846 0.68576
 C222 C 1.15147 -0.11036 0.67291
 C223 C 1.13501 -0.09424 0.64875
 C224 C 1.08888 -0.08873 0.61251
 C225 C 1.07432 -0.07429 0.59233
 C226 C 1.05676 -0.05691 0.56847
 C227 C 1.03173 -0.07118 0.55157
 C228 C 1.01414 -0.05416 0.52893
 C229 C 1.02182 -0.02260 0.52198
 C230 C 1.04641 -0.00833 0.54033
 C231 C 1.06395 -0.02540 0.56294
 H232 H 1.07137 -0.14286 0.64001
 H233 H 1.09960 -0.17133 0.68200
 H234 H 1.17366 -0.10045 0.68141
 H235 H 1.14480 -0.07262 0.63946
 H236 H 1.02541 -0.09535 0.55630
 H237 H 0.99402 -0.06573 0.51767
 H238 H 1.05199 0.01626 0.53714
 H239 H 1.08286 -0.01390 0.57639
 C240 C 0.89361 -0.10624 0.36226
 C241 C 0.90395 -0.13571 0.35164
 C242 C 0.88669 -0.15218 0.32804
 C243 C 0.85866 -0.13939 0.31451
 C244 C 0.84847 -0.10968 0.32573
 C245 C 0.86582 -0.09333 0.34933
 C246 C 0.91166 -0.08906 0.38616
 C247 C 0.92679 -0.07448 0.40603
 C248 C 0.94487 -0.05688 0.42959
 C249 C 0.97697 -0.06372 0.43475
 C250 C 0.99466 -0.04633 0.45725
 C251 C 0.98043 -0.02226 0.47586
 C252 C 0.94826 -0.01486 0.46923
 C253 C 0.93063 -0.03230 0.44669
 H254 H 0.92548 -0.14594 0.36152
 H255 H 0.89565 -0.17484 0.32051
 H256 H 0.82719 -0.09870 0.31641
 H257 H 0.85758 -0.07050 0.35740
 H258 H 0.98844 -0.08229 0.42116
 H259 H 1.01966 -0.05169 0.46023
 H260 H 0.93666 0.00486 0.48072
 H261 H 0.90597 -0.02627 0.44224
 C262 C 0.89822 0.10256 0.63708
 C263 C 0.90925 0.13164 0.64827
 C264 C 0.89242 0.14818 0.67190
 C265 C 0.86414 0.13584 0.68484
 C266 C 0.85329 0.10649 0.67309
 C267 C 0.87021 0.09008 0.64948
 C268 C 0.91571 0.08535 0.61305
 C269 C 0.93029 0.07070 0.59304
 C270 C 0.94765 0.05301 0.56929
 C271 C 0.97226 0.06714 0.55227
 C272 C 0.98939 0.04990 0.52945
 C273 C 0.98161 0.01824 0.52243
 C274 C 0.95755 0.00409 0.54098
 C275 C 0.94048 0.02140 0.56376
 H276 H 0.93095 0.14154 0.63880
 H277 H 0.90188 0.17053 0.67987
 H278 H 0.83180 0.09585 0.68197
 H279 H 0.86144 0.06756 0.64096
 H280 H 0.97856 0.09142 0.55698
 H281 H 1.00918 0.06139 0.51804
 H282 H 0.95195 -0.02054 0.53773
 H283 H 0.92189 0.01001 0.57728
 C284 C 0.37907 1.11859 0.11165
 C285 C 0.36416 1.10351 0.13726
 C286 C 0.33910 1.11813 0.15341
 C287 C 0.32845 1.14810 0.14409
 C288 C 0.34420 1.16339 0.11880
 C289 C 0.36927 1.14868 0.10267
 C290 C 0.40294 1.10230 0.09334
 C291 C 0.42198 1.08786 0.07751
 C292 C 0.44347 1.06965 0.05807
 C293 C 0.46868 1.05336 0.07236
 C294 C 0.48771 1.03342 0.05375
 C295 C 0.48109 1.02852 0.02058
 C296 C 0.45712 1.04717 0.00624
 C297 C 0.43819 1.06705 0.02486
 H298 H 0.37146 1.08013 0.14431
 H299 H 0.32770 1.10550 0.17264
 H300 H 0.33703 1.18653 0.11108
 H301 H 0.38060 1.16055 0.08281
 H302 H 0.47346 1.05582 0.09797
 H303 H 0.50751 1.02206 0.06561
 H304 H 0.45233 1.04542 -0.01942
 H305 H 0.41904 1.07996 0.01341
 C306 C 0.62215 1.11731 -0.11282
 C307 C 0.63155 1.14761 -0.10371
 C308 C 0.65648 1.16240 -0.11971
 C309 C 0.67248 1.14699 -0.14502
 C310 C 0.66224 1.11679 -0.15446
 C311 C 0.63732 1.10208 -0.13842
 C312 C 0.59835 1.10102 -0.09469
 C313 C 0.57933 1.08666 -0.07901
 C314 C 0.55784 1.06862 -0.05972
 C315 C 0.56314 1.06623 -0.02654
 C316 C 0.54409 1.04664 -0.00806
 C317 C 0.51995 1.02808 -0.02251
 C318 C 0.51336 1.03275 -0.05565
 C319 C 0.53251 1.05239 -0.07412
 H320 H 0.62001 1.15959 -0.08385
 H321 H 0.66334 1.18572 -0.11191
 H322 H 0.67388 1.10405 -0.17368
 H323 H 0.63033 1.07853 -0.14557
 H324 H 0.58236 1.07910 -0.01500
 H325 H 0.54887 1.04508 0.01759
 H326 H 0.49347 1.02145 -0.06758
 H327 H 0.52772 1.05470 -0.09971
 C328 C 0.37858 0.88539 -0.10763
 C329 C 0.36293 0.86067 -0.09246
 C330 C 0.33845 0.84458 -0.10847
 C331 C 0.32913 0.85312 -0.13990
 C332 C 0.34566 0.87748 -0.15525
 C333 C 0.37015 0.89351 -0.13918
 C334 C 0.40161 0.90384 -0.09002
 C335 C 0.41983 0.92007 -0.07475
 C336 C 0.44019 0.94037 -0.05593
 C337 C 0.47234 0.94364 -0.06338
 C338 C 0.49145 0.96443 -0.04555
 C339 C 0.47853 0.98328 -0.02066
 C340 C 0.44646 0.97797 -0.01224
 C341 C 0.42748 0.95719 -0.03004
 H342 H 0.36914 0.85431 -0.06795
 H343 H 0.32631 0.82611 -0.09575
 H344 H 0.33951 0.88450 -0.17952
 H345 H 0.38205 0.91269 -0.15113
 H346 H 0.48263 0.93022 -0.08299
 H347 H 0.51638 0.96626 -0.05155
 H348 H 0.43579 0.98938 0.00835
 H349 H 0.40280 0.95418 -0.02349
 C350 C 0.62061 0.88553 0.10584
 C351 C 0.63624 0.86046 0.09082
 C352 C 0.66028 0.84427 0.10717
 C353 C 0.66915 0.85304 0.13880
 C354 C 0.65266 0.87778 0.15397
 C355 C 0.62862 0.89392 0.13756
 C356 C 0.59798 0.90398 0.08797
 C357 C 0.58003 0.92017 0.07256
 C358 C 0.55991 0.94039 0.05369
 C359 C 0.52777 0.94404 0.06107
 C360 C 0.50889 0.96479 0.04327
 C361 C 0.52203 0.98324 0.01848
 C362 C 0.55407 0.97752 0.01012
 C363 C 0.57283 0.95677 0.02788
 H364 H 0.63036 0.85389 0.06618
 H365 H 0.67242 0.82551 0.09458
 H366 H 0.65849 0.88500 0.17837
 H367 H 0.61672 0.91336 0.14939
 H368 H 0.51732 0.93096 0.08061
 H369 H 0.48397 0.96694 0.04922
 H370 H 0.56489 0.98860 -0.01041
 H371 H 0.59751 0.95346 0.02139
   
