data_POSCAR
  _audit_creation_date              2014-09-24
  _audit_creation_method            'ToBaCCo'
  _symmetry_space_group_name_H-M    'P1'
  _symmetry_Int_Tables_number       1
  _symmetry_cell_setting            triclinic
  loop_
  _symmetry_equiv_pos_as_xyz
 x,y,z
_cell_length_a 26.7792
_cell_length_b 38.8435
_cell_length_c 42.6818
_cell_angle_alpha 82.723600
_cell_angle_beta 84.138900
_cell_angle_gamma 149.881600
loop_
  _atom_site_label
  _atom_site_type_symbol
  _atom_site_fract_x
  _atom_site_fract_y
  _atom_site_fract_z
N1 N 0.13305 0.15503 0.21834
 N2 N 0.15415 0.13349 0.21380
 C3 C 0.14727 0.11633 0.24147
 C4 C 0.12509 0.12518 0.25081
 C5 C 0.11646 0.14780 0.23635
 H6 H 0.16217 0.09866 0.24118
 H7 H 0.09904 0.15930 0.24216
 Cu8 Cu 0.18161 0.13503 0.18199
 Cu9 Cu 0.13238 0.18418 0.18531
 Cu10 Cu 0.18431 0.18322 0.13117
 N11 N 0.21251 0.13519 0.15477
 N12 N 0.21438 0.15191 0.12664
 C13 C 0.23552 0.14808 0.11119
 C14 C 0.24040 0.12213 0.11453
 C15 C 0.22981 0.11977 0.14821
 H16 H 0.24026 0.16212 0.09541
 H17 H 0.23477 0.09798 0.17121
 N18 N 0.15403 0.21270 0.12666
 N19 N 0.13192 0.21489 0.15500
 C20 C 0.11550 0.23562 0.14910
 C21 C 0.12452 0.24900 0.12296
 C22 C 0.14826 0.23593 0.11281
 H23 H 0.09807 0.23938 0.16426
 H24 H 0.16190 0.24043 0.09508
 H25 H 0.15837 0.15286 0.15023
 H26 H 0.17399 0.17992 0.17688
 N27 N -0.13253 0.84627 0.21282
 N28 N -0.15325 0.86669 0.21184
 C29 C -0.14875 0.88501 0.23811
 C30 C -0.12535 0.87531 0.25043
 C31 C -0.11641 0.85141 0.23496
 H32 H -0.16267 0.90243 0.24018
 H33 H -0.09815 0.83718 0.23854
 Cu34 Cu -0.18359 0.86537 0.18358
 Cu35 Cu -0.13246 0.81513 0.18543
 Cu36 Cu -0.18383 0.81657 0.13211
 N37 N -0.21218 0.86586 0.15397
 N38 N -0.21269 0.84465 0.13209
 C39 C -0.23110 0.85047 0.11846
 C40 C -0.24897 0.87642 0.12768
 C41 C -0.23642 0.88554 0.14909
 H42 H -0.23659 0.83538 0.09745
 H43 H -0.23997 0.90262 0.16267
 N44 N -0.15421 0.78723 0.13105
 N45 N -0.13258 0.78648 0.15464
 C46 C -0.11527 0.76389 0.14970
 C47 C -0.12465 0.74909 0.12514
 C48 C -0.14900 0.76460 0.11487
 H49 H -0.09692 0.75873 0.16299
 H50 H -0.16243 0.75978 0.09646
 H51 H -0.15587 0.84472 0.15309
 H52 H -0.17658 0.81699 0.17803
 N53 N -0.13345 0.15740 -0.22078
 N54 N -0.14974 0.12102 -0.21320
 C55 C -0.14395 0.10707 -0.23547
 C56 C -0.12435 0.12504 -0.25285
 C57 C -0.11814 0.15574 -0.24168
 H58 H -0.15879 0.08768 -0.23571
 H59 H -0.10274 0.17514 -0.25269
 Cu60 Cu -0.19054 0.12800 -0.19908
 Cu61 Cu -0.12336 0.18480 -0.19478
 Cu62 Cu -0.17849 0.18353 -0.12305
 N63 N -0.22944 0.13202 -0.16196
 N64 N -0.23232 0.15632 -0.14770
 C65 C -0.23356 0.13447 -0.13525
 C66 C -0.25545 0.11760 -0.13940
 C67 C -0.23717 0.10256 -0.15372
 H68 H -0.23708 0.13621 -0.08718
 H69 H -0.23823 0.09424 -0.15985
 N70 N -0.15291 0.21635 -0.12186
 N71 N -0.11528 0.22672 -0.13512
 C72 C -0.11452 0.25623 -0.15019
 C73 C -0.12641 0.25726 -0.12165
 C74 C -0.13219 0.24842 -0.13296
 H75 H -0.09293 0.24008 -0.16516
 H76 H -0.17917 0.24894 -0.08910
 H77 H -0.13387 0.16645 -0.14401
 H78 H -0.18107 0.19719 -0.18779
 N79 N 0.12974 0.84193 -0.22099
 N80 N 0.15224 0.87512 -0.21522
 C81 C 0.14574 0.89138 -0.23368
 C82 C 0.12490 0.87519 -0.25052
 C83 C 0.11715 0.84643 -0.24167
 H84 H 0.15906 0.91158 -0.23395
 H85 H 0.10068 0.82739 -0.24627
 Cu86 Cu 0.18323 0.86662 -0.18378
 Cu87 Cu 0.13115 0.81516 -0.18392
 Cu88 Cu 0.18764 0.81259 -0.12707
 N89 N 0.22432 0.87414 -0.15156
 N90 N 0.20775 0.84538 -0.13401
 C91 C 0.25365 0.84011 -0.11897
 C92 C 0.24294 0.88545 -0.13122
 C93 C 0.23180 0.89475 -0.14675
 H94 H 0.24331 0.84175 -0.08890
 H95 H 0.23979 0.90817 -0.15866
 N96 N 0.15120 0.78394 -0.13909
 N97 N 0.12345 0.77246 -0.14981
 C98 C 0.11845 0.75301 -0.15306
 C99 C 0.12755 0.74319 -0.13552
 C100 C 0.14737 0.74869 -0.12827
 H101 H 0.09652 0.74902 -0.16794
 H102 H 0.16825 0.74686 -0.10037
 H103 H 0.13444 0.83469 -0.16348
 H104 H 0.18319 0.82920 -0.18884
 N105 N 0.15387 1.13293 0.78765
 N106 N 0.13357 1.15373 0.78781
 C107 C 0.11569 1.14926 0.76350
 C108 C 0.12400 1.12698 0.75071
 C109 C 0.14738 1.11660 0.76282
 H110 H 0.09757 1.16284 0.75925
 H111 H 0.16215 1.09775 0.76052
 Cu112 Cu 0.13450 1.18302 0.81647
 Cu113 Cu 0.18344 1.13358 0.81669
 Cu114 Cu 0.18447 1.18282 0.86819
 N115 N 0.13288 1.21331 0.84463
 N116 N 0.15448 1.21281 0.86912
 C117 C 0.14959 1.23469 0.88570
 C118 C 0.12547 1.24670 0.87658
 C119 C 0.11602 1.23464 0.85007
 H120 H 0.16243 1.24021 0.90380
 H121 H 0.09751 1.24007 0.83646
 N122 N 0.21517 1.15294 0.86885
 N123 N 0.21392 1.13279 0.84612
 C124 C 0.23745 1.11432 0.85189
 C125 C 0.24931 1.12525 0.87320
 C126 C 0.23611 1.14823 0.88558
 H127 H 0.24093 1.09706 0.83784
 H128 H 0.24082 1.16186 0.90351
 H129 H 0.16041 1.14975 0.84505
 H130 H 0.18753 1.17298 0.82272
 N131 N 0.84585 0.86736 0.78497
 N132 N 0.86681 0.84581 0.78726
 C133 C 0.88256 0.85290 0.76742
 C134 C 0.86732 0.87375 0.75464
 C135 C 0.85587 0.88690 0.75760
 H136 H 0.90151 0.83823 0.75669
 H137 H 0.83763 0.90304 0.75743
 Cu138 Cu 0.86564 0.81660 0.81573
 Cu139 Cu 0.81638 0.86702 0.81589
 Cu140 Cu 0.81536 0.81722 0.86897
 N141 N 0.86739 0.78606 0.84457
 N142 N 0.84601 0.78723 0.87252
 C143 C 0.85110 0.76484 0.88669
 C144 C 0.87138 0.75245 0.87448
 C145 C 0.88391 0.76492 0.84988
 H146 H 0.83793 0.75984 0.90478
 H147 H 0.90235 0.75966 0.83592
 N148 N 0.78306 0.84816 0.87237
 N149 N 0.78691 0.86575 0.84568
 C150 C 0.76725 0.87583 0.85930
 C151 C 0.76300 0.88088 0.88846
 C152 C 0.76443 0.85191 0.88888
 H153 H 0.76352 0.90577 0.82747
 H154 H 0.75977 0.83767 0.90477
 H155 H 0.84121 0.85056 0.84465
 H156 H 0.81284 0.82852 0.82740
 N157 N 0.14845 0.87901 1.21207
 N158 N 0.13254 0.84140 1.21477
 C159 C 0.11872 0.84361 1.24104
 C160 C 0.12496 0.87389 1.25468
 C161 C 0.14484 0.89190 1.24054
 H162 H 0.10371 0.82323 1.24912
 H163 H 0.15890 0.91165 1.23636
 Cu164 Cu 0.12603 0.81466 1.19345
 Cu165 Cu 0.19037 0.87240 1.19593
 Cu166 Cu 0.19046 0.81467 1.11202
 N167 N 0.10975 0.79126 1.16557
 N168 N 0.14860 0.79086 1.12232
 C169 C 0.13813 0.74681 1.13468
 C170 C 0.12897 0.73777 1.12600
 C171 C 0.11167 0.74287 1.15178
 H172 H 0.17945 0.73930 1.07858
 H173 H 0.09510 0.76070 1.16656
 N174 N 0.22718 0.84252 1.13704
 N175 N 0.24573 0.87434 1.17705
 C176 C 0.19499 0.89088 1.15952
 C177 C 0.25158 0.88239 1.12894
 C178 C 0.25243 0.85517 1.14263
 H179 H 0.22518 0.91300 1.16180
 H180 H 0.23442 0.85100 1.14241
 H181 H 0.14200 0.84601 1.13428
 H182 H 0.19534 0.80397 1.18334
 N183 N 0.84671 1.12453 1.21547
 N184 N 0.86958 1.15790 1.21895
 C185 C 0.88228 1.15423 1.24114
 C186 C 0.87461 1.13015 1.24651
 C187 C 0.85330 1.10951 1.23211
 H188 H 0.90031 1.17130 1.24740
 H189 H 0.84097 1.08898 1.23429
 Cu190 Cu 0.86594 1.18324 1.18428
 Cu191 Cu 0.81568 1.13078 1.18418
 Cu192 Cu 0.81509 1.18622 1.13143
 N193 N 0.87272 1.22567 1.15388
 N194 N 0.84772 1.21509 1.13479
 C195 C 0.85039 1.24042 1.12851
 C196 C 0.87613 1.26023 1.12945
 C197 C 0.88350 1.24605 1.15393
 H198 H 0.82593 1.24822 1.10227
 H199 H 0.90209 1.24688 1.16622
 N200 N 0.78307 1.15341 1.13783
 N201 N 0.76106 1.12237 1.15782
 C202 C 0.75968 1.10955 1.14215
 C203 C 0.74757 1.11609 1.12235
 C204 C 0.77124 1.13857 1.11862
 H205 H 0.75505 1.09063 1.15609
 H206 H 0.75972 1.14652 1.08433
 H207 H 0.86214 1.15540 1.15386
 H208 H 0.81299 1.16460 1.18845
 O209 O 0.51651 0.95318 0.93780
 O210 O 0.47231 0.95266 1.08264
 O211 O 0.55228 0.94849 1.03020
 O212 O 0.39569 0.99394 0.99897
 O213 O 0.51250 0.94788 1.08671
 O214 O 0.47176 0.95273 0.94657
 O215 O 0.42921 0.97262 1.03823
 O216 O 0.55149 0.94939 0.98362
 C217 C 0.55223 0.94774 0.95512
 C218 C 0.45105 0.93318 1.05720
 C219 C 0.55610 0.94495 1.04990
 C220 C 0.44775 0.95229 0.95557
 O221 O 0.46226 1.02202 0.93889
 O222 O 0.51014 0.99747 1.07650
 O223 O 0.54073 1.01860 0.99083
 O224 O 0.41466 1.01903 1.01534
 O225 O 0.46666 1.01679 1.09335
 O226 O 0.49401 1.02219 0.92963
 O227 O 0.41923 1.01947 0.98871
 O228 O 0.54530 1.02250 1.01998
 Co229 Co 0.30423 0.84367 0.99906
 Co230 Co 0.29982 0.84438 1.12737
 Co231 Co 0.36069 0.84603 1.07544
 Co232 Co 0.20672 0.86865 1.06584
 O233 O 0.45739 0.97527 1.01488
 C234 C 0.44872 1.05347 0.95636
 C235 C 0.55396 1.04214 1.04412
 C236 C 0.56001 1.04153 0.96627
 C237 C 0.44713 1.05637 1.03851
 O238 O 0.03866 0.48989 0.06156
 O239 O 0.01342 0.51787 -0.08415
 O240 O 0.01318 0.44286 -0.02454
 O241 O 0.01519 0.55453 0.01186
 O242 O 0.03527 0.49223 -0.08668
 O243 O 0.01128 0.51983 0.04089
 O244 O 0.00142 0.55330 -0.01311
 O245 O 0.02430 0.45980 0.00289
 C246 C 0.04944 0.45225 0.03766
 C247 C 0.02742 0.53746 -0.06463
 C248 C 0.05002 0.45474 -0.03699
 C249 C 0.03937 0.55850 0.03517
 O250 O -0.07372 0.52147 0.04988
 O251 O -0.03240 0.46544 -0.07296
 O252 O -0.03491 0.43411 0.01089
 O253 O -0.04368 0.55088 -0.03796
 O254 O -0.04278 0.52433 -0.08411
 O255 O -0.03412 0.46785 0.05112
 O256 O -0.03588 0.54849 0.00870
 O257 O -0.03876 0.44243 -0.02733
 Co258 Co -0.14260 0.42513 -0.01552
 Co259 Co -0.14617 0.41636 -0.14552
 Co260 Co -0.15727 0.37141 -0.07621
 Co261 Co -0.15188 0.47257 -0.08468
 O262 O -0.03361 0.48026 -0.02089
 C263 C -0.05134 0.55599 0.03296
 C264 C -0.06034 0.43168 -0.04240
 C265 C -0.06114 0.43515 0.03968
 C266 C -0.05869 0.53473 -0.05420
 O267 O 1.04854 0.01288 0.47443
 O268 O 0.91856 0.03533 0.52917
 O269 O 0.95766 0.01863 0.45594
 O270 O 1.03565 0.00069 0.55291
 O271 O 0.92591 0.01450 0.48290
 O272 O 1.04540 0.02080 0.53284
 O273 O 0.96117 0.01596 0.56686
 O274 O 1.01334 0.02257 0.45088
 C275 C 1.05899 0.04214 0.45357
 C276 C 0.95310 0.04148 0.55526
 C277 C 0.94660 0.04489 0.45506
 C278 C 1.06111 0.04261 0.56258
 O279 O 1.04989 -0.04001 0.57099
 O280 O 0.91070 -0.04519 0.48998
 O281 O 1.01660 -0.03877 0.45030
 O282 O 0.97194 -0.05105 0.56910
 O283 O 0.79978 -0.00465 0.46929
 O284 O 1.05286 -0.03810 0.47715
 O285 O 1.02913 -0.04702 0.57377
 O286 O 0.96736 -0.04491 0.44694
 Co287 Co 0.85792 -0.15122 0.57818
 Co288 Co 0.73194 -0.13319 0.55632
 Co289 Co 0.80492 -0.14611 0.51297
 Co290 Co 0.90894 -0.14396 0.65302
 O291 O 0.97451 -0.03932 0.52780
 C292 C 1.05470 -0.04270 0.54674
 C293 C 0.93837 -0.04725 0.43533
 C294 C 1.05046 -0.04225 0.44881
 C295 C 0.90075 -0.02509 0.53380
 C296 C 1.09986 0.07321 0.31864
 C297 C 1.07580 0.09242 0.32744
 C298 C 1.07122 0.12666 0.31086
 C299 C 1.09064 0.13348 0.29012
 C300 C 1.11136 0.11270 0.27447
 C301 C 1.11659 0.08279 0.29396
 O302 O 1.08956 0.08209 0.33747
 C303 C 1.08270 0.06321 0.35918
 C304 C 1.07414 0.08675 0.35154
 C305 C 1.06971 0.09973 0.37224
 C306 C 1.04615 0.07284 0.40336
 C307 C 1.08018 0.06624 0.41424
 C308 C 1.12311 0.05155 0.39096
 H309 H 1.05973 0.14153 0.32396
 H310 H 1.08689 0.15629 0.28083
 H311 H 1.13243 0.06650 0.28306
 H312 H 1.03674 0.11277 0.36831
 H313 H 1.03002 0.07648 0.41475
 H314 H 1.10066 0.02911 0.40429
 C315 C 0.89690 -0.07810 0.32158
 C316 C 0.92382 -0.09412 0.32739
 C317 C 0.93328 -0.11845 0.30971
 C318 C 0.91603 -0.12727 0.28472
 C319 C 0.88833 -0.11215 0.27628
 C320 C 0.87821 -0.08713 0.29468
 O321 O 0.89265 -0.05531 0.34204
 C322 C 0.91626 -0.05678 0.36216
 C323 C 0.93226 -0.07789 0.35201
 C324 C 0.94642 -0.08422 0.36543
 C325 C 0.96752 -0.06755 0.40739
 C326 C 0.94978 -0.04492 0.41152
 C327 C 0.92367 -0.03990 0.39245
 H328 H 0.95339 -0.13062 0.31412
 H329 H 0.92489 -0.14605 0.27366
 H330 H 0.85728 -0.07504 0.29000
 H331 H 0.96642 -0.11181 0.35701
 H332 H 0.96598 -0.08132 0.41365
 H333 H 0.91291 -0.02536 0.39668
 C334 C 0.92600 0.08655 0.68766
 C335 C 0.90245 0.08766 0.66446
 C336 C 0.87195 0.10050 0.67029
 C337 C 0.86485 0.11223 0.69835
 C338 C 0.88826 0.11134 0.71868
 C339 C 0.91898 0.09841 0.71729
 O340 O 0.95300 0.07298 0.67643
 C341 C 0.94559 0.06754 0.64655
 C342 C 0.91516 0.07525 0.63797
 C343 C 0.90171 0.07110 0.60705
 C344 C 0.92084 0.05695 0.58571
 C345 C 0.94852 0.04975 0.58984
 C346 C 0.95880 0.05754 0.62518
 H347 H 0.85504 0.10024 0.65249
 H348 H 0.84218 0.12183 0.70379
 H349 H 0.93529 0.09941 0.73633
 H350 H 0.87975 0.07575 0.60205
 H351 H 0.90573 0.05780 0.56660
 H352 H 0.97442 0.05470 0.63000
 C353 C 1.08837 -0.07460 0.68363
 C354 C 1.08997 -0.09225 0.66723
 C355 C 1.09826 -0.12705 0.67116
 C356 C 1.11136 -0.13608 0.70001
 C357 C 1.11362 -0.12183 0.73029
 C358 C 1.08865 -0.07197 0.73245
 O359 O 1.08862 -0.04602 0.67249
 C360 C 1.06503 -0.05728 0.64447
 C361 C 1.07089 -0.08698 0.63734
 C362 C 1.07339 -0.09920 0.61040
 C363 C 1.05822 -0.08545 0.58772
 C364 C 1.05168 -0.05267 0.58743
 C365 C 1.06545 -0.04199 0.62360
 H366 H 1.09820 -0.14508 0.65390
 H367 H 1.11975 -0.15772 0.70443
 H368 H 1.10042 -0.06271 0.73799
 H369 H 1.09161 -0.12126 0.61484
 H370 H 1.05149 -0.09165 0.56446
 H371 H 1.06073 -0.02748 0.63038
 C372 C 0.30886 1.07888 1.07874
 C373 C 0.33502 1.09545 1.09530
 C374 C 0.33898 1.12091 1.12082
 C375 C 0.30837 1.12477 1.12086
 C376 C 0.27360 1.11336 1.10723
 C377 C 0.27306 1.08542 1.08185
 O378 O 0.31447 1.06058 1.05842
 C379 C 0.33999 1.05796 1.05264
 C380 C 0.36222 1.08201 1.07787
 C381 C 0.40038 1.08439 1.08531
 C382 C 0.43365 1.06664 1.07378
 C383 C 0.40859 1.05065 1.04826
 C384 C 0.37104 1.04312 1.04000
 H385 H 0.35626 1.12883 1.12410
 H386 H 0.31930 1.14152 1.13844
 H387 H 0.25634 1.07705 1.07754
 H388 H 0.40912 1.10261 1.09929
 H389 H 0.44025 1.08168 1.07228
 H390 H 0.36006 1.02800 1.02412
 C391 C 0.34184 0.93213 0.89105
 C392 C 0.31451 0.91200 0.94332
 C393 C 0.28667 0.90759 0.93881
 C394 C 0.25896 0.90523 0.94494
 C395 C 0.27162 0.90494 0.89903
 C396 C 0.29680 0.91242 0.88488
 O397 O 0.36531 0.92445 0.88735
 C398 C 0.37748 0.92442 0.91257
 C399 C 0.33941 0.91293 0.92675
 C400 C 0.35409 0.93177 0.97724
 C401 C 0.38487 0.93549 0.97809
 C402 C 0.42033 0.94222 0.96595
 C403 C 0.40746 0.93327 0.91581
 H404 H 0.28038 0.91015 0.95775
 H405 H 0.24875 0.89715 0.92485
 H406 H 0.31751 0.89534 0.83777
 H407 H 0.31407 0.92678 0.98625
 H408 H 0.39253 0.94397 0.99015
 H409 H 0.42956 0.93742 0.90468
 C410 C 0.68454 0.92684 1.09630
 C411 C 0.66752 0.90137 1.08117
 C412 C 0.67701 0.86970 1.07962
 C413 C 0.70407 0.86530 1.09614
 C414 C 0.72386 0.88826 1.11371
 C415 C 0.71384 0.92100 1.11440
 O416 O 0.67087 0.95350 1.09486
 C417 C 0.64493 0.94578 1.07735
 C418 C 0.64089 0.91492 1.06849
 C419 C 0.61508 0.90084 1.04879
 C420 C 0.59103 0.91884 1.03591
 C421 C 0.59286 0.94756 1.04700
 C422 C 0.62012 0.95752 1.06662
 H423 H 0.66375 0.85243 1.07040
 H424 H 0.70450 0.84297 1.09123
 H425 H 0.72693 0.93825 1.12295
 H426 H 0.61361 0.87726 1.04547
 H427 H 0.57197 0.91013 1.02571
 H428 H 0.61323 0.96464 1.08603
 C429 C 0.69104 1.05810 0.91109
 C430 C 0.65550 1.09889 0.91380
 C431 C 0.67300 1.12691 0.89565
 C432 C 0.66863 1.14477 0.88747
 C433 C 0.73547 1.09755 0.88458
 C434 C 0.72380 1.06419 0.89903
 O435 O 0.68141 1.04699 0.93092
 C436 C 0.64360 1.05185 0.93945
 C437 C 0.64658 1.08421 0.91203
 C438 C 0.60099 1.11231 0.94073
 C439 C 0.58641 1.08676 0.95320
 C440 C 0.58795 1.04188 0.96885
 C441 C 0.62340 1.04024 0.95587
 H442 H 0.64815 1.14882 0.89408
 H443 H 0.70823 1.15758 0.87589
 H444 H 0.74152 1.06774 0.88991
 H445 H 0.59816 1.13197 0.92671
 H446 H 0.56314 1.09170 0.96054
 H447 H 0.61823 1.02954 0.96195
 C448 C 0.07873 0.31017 0.07922
 C449 C 0.09411 0.33703 0.09387
 C450 C 0.11813 0.33471 0.11721
 C451 C 0.12637 0.30467 0.12496
 C452 C 0.11223 0.27625 0.11098
 C453 C 0.08777 0.27812 0.08713
 O454 O 0.05771 0.31782 0.05715
 C455 C 0.06513 0.34889 0.05884
 C456 C 0.08188 0.36240 0.08091
 C457 C 0.08771 0.39573 0.08546
 C458 C 0.07364 0.41572 0.07031
 C459 C 0.06194 0.40565 0.04804
 C460 C 0.05310 0.37704 0.03211
 H461 H 0.12989 0.35344 0.12583
 H462 H 0.14362 0.30463 0.14158
 H463 H 0.07660 0.25878 0.07915
 H464 H 0.10514 0.40306 0.10053
 H465 H 0.07897 0.43953 0.07576
 H466 H 0.02696 0.36698 0.02565
 C467 C -0.08336 0.31116 -0.07256
 C468 C -0.08772 0.33713 -0.09634
 C469 C -0.10377 0.33184 -0.12738
 C470 C -0.12000 0.30835 -0.13610
 C471 C -0.09999 0.29608 -0.13122
 C472 C -0.09061 0.28174 -0.07837
 O473 O -0.07581 0.31739 -0.05464
 C474 C -0.06945 0.35174 -0.05915
 C475 C -0.07799 0.35406 -0.09184
 C476 C -0.07053 0.39039 -0.09977
 C477 C -0.05581 0.40623 -0.09056
 C478 C -0.04648 0.40371 -0.06067
 C479 C -0.05671 0.37369 -0.05040
 H480 H -0.10584 0.34995 -0.14272
 H481 H -0.12677 0.30055 -0.15606
 H482 H -0.09395 0.26115 -0.06517
 H483 H -0.07905 0.39632 -0.12236
 H484 H -0.05498 0.43484 -0.10264
 H485 H -0.05796 0.36002 -0.02603
 C486 C 0.05937 0.70065 -0.06722
 C487 C 0.10215 0.66477 -0.07950
 C488 C 0.13090 0.67040 -0.10416
 C489 C 0.15077 0.69176 -0.12635
 C490 C 0.11180 0.70852 -0.12632
 C491 C 0.08191 0.73201 -0.08420
 O492 O 0.05975 0.68581 -0.06783
 C493 C 0.06390 0.65005 -0.05376
 C494 C 0.08631 0.64815 -0.06998
 C495 C 0.09929 0.61819 -0.05700
 C496 C 0.09104 0.58645 -0.05896
 C497 C 0.05347 0.57964 -0.03447
 C498 C 0.04976 0.63604 -0.02628
 H499 H 0.14843 0.65725 -0.10584
 H500 H 0.15850 0.70734 -0.12411
 H501 H 0.06128 0.73964 -0.09583
 H502 H 0.13367 0.62352 -0.07503
 H503 H 0.10837 0.56221 -0.04348
 H504 H 0.02859 0.64247 -0.03061
 C505 C -0.08905 0.67172 0.10508
 C506 C -0.08640 0.67744 0.07342
 C507 C -0.09627 0.70585 0.06062
 C508 C -0.10867 0.72823 0.07922
 C509 C -0.11163 0.72343 0.11092
 C510 C -0.10169 0.69491 0.12479
 O511 O -0.07940 0.64322 0.11119
 C512 C -0.07343 0.63366 0.08150
 C513 C -0.07380 0.65178 0.05959
 C514 C -0.06587 0.64446 0.02784
 C515 C -0.05315 0.61600 0.02162
 C516 C -0.06365 0.58837 0.03602
 C517 C -0.06919 0.60350 0.06883
 H518 H -0.09418 0.70992 0.03635
 H519 H -0.11619 0.74992 0.06929
 H520 H -0.10421 0.69160 0.14920
 H521 H -0.06903 0.65957 0.01087
 H522 H -0.04720 0.61062 0.00541
 H523 H -0.05510 0.58479 0.10080
 C524 C 1.08321 0.07144 0.68475
 C525 C 1.08103 0.09822 0.66750
 C526 C 1.10541 0.12945 0.67176
 C527 C 1.11766 0.13915 0.70114
 C528 C 1.11111 0.11433 0.72371
 C529 C 1.09389 0.08219 0.71745
 O530 O 1.07004 0.04744 0.67605
 C531 C 1.06795 0.05487 0.64216
 C532 C 1.07735 0.09397 0.63406
 C533 C 1.08524 0.10464 0.59729
 C534 C 1.06563 0.06996 0.58991
 C535 C 1.05892 0.03442 0.62621
 C536 C 1.06090 0.03898 0.61009
 H537 H 1.11106 0.14521 0.65490
 H538 H 1.13054 0.15641 0.70239
 H539 H 1.08914 0.06663 0.73415
 H540 H 1.08884 0.11608 0.59820
 H541 H 1.06571 0.09425 0.56737
 H542 H 1.03565 0.02326 0.63330
 C543 C 0.94886 -0.09363 0.68051
 C544 C 0.90364 -0.08851 0.66853
 C545 C 0.86300 -0.08770 0.67765
 C546 C 0.83920 -0.10313 0.71019
 C547 C 0.88495 -0.10944 0.72516
 C548 C 0.92260 -0.10608 0.71166
 O549 O 0.95401 -0.07520 0.67156
 C550 C 0.94524 -0.07529 0.64650
 C551 C 0.92810 -0.07555 0.65059
 C552 C 0.89082 -0.06828 0.60204
 C553 C 0.90083 -0.05502 0.61136
 C554 C 0.94328 -0.05635 0.59864
 C555 C 0.97013 -0.05903 0.61796
 H556 H 0.84291 -0.08890 0.66093
 H557 H 0.83934 -0.11583 0.71124
 H558 H 0.94666 -0.10573 0.72101
 H559 H 0.87158 -0.06208 0.61019
 H560 H 0.90611 -0.05530 0.57431
 H561 H 0.97952 -0.05750 0.61210
 C562 C 1.09154 -0.10483 0.32978
 C563 C 1.08534 -0.07537 0.32153
 C564 C 1.09221 -0.06253 0.29132
 C565 C 1.10380 -0.07959 0.27022
 C566 C 1.11056 -0.11004 0.28090
 C567 C 1.10545 -0.12383 0.30783
 O568 O 1.08379 -0.11173 0.36065
 C569 C 1.07380 -0.08904 0.37037
 C570 C 1.07921 -0.06716 0.34730
 C571 C 1.07665 -0.03180 0.35770
 C572 C 1.05652 -0.04872 0.38063
 C573 C 1.07617 -0.04127 0.41834
 C574 C 1.06038 -0.07902 0.40251
 H575 H 1.08601 -0.03863 0.28627
 H576 H 1.10893 -0.07101 0.24658
 H577 H 1.11123 -0.14764 0.31126
 H578 H 1.06065 -0.02356 0.33102
 H579 H 1.02892 -0.00934 0.36903
 H580 H 1.05759 -0.09418 0.41992
 C581 C 0.91426 0.10847 0.32938
 C582 C 0.90383 0.07682 0.33167
 C583 C 0.87316 0.05323 0.31637
 C584 C 0.87955 0.08067 0.28137
 C585 C 0.88675 0.11317 0.27507
 C586 C 0.91873 0.13630 0.29297
 O587 O 0.94922 0.11048 0.34423
 C588 C 0.93589 0.09046 0.36996
 C589 C 0.91470 0.06512 0.35476
 C590 C 0.89170 0.02719 0.36232
 C591 C 0.92156 0.02919 0.39827
 C592 C 0.94204 0.05651 0.41755
 C593 C 0.96535 0.08839 0.40771
 H594 H 0.86532 0.05256 0.30994
 H595 H 0.84764 0.07315 0.27462
 H596 H 0.92036 0.14263 0.29104
 H597 H 0.89231 0.02151 0.37277
 H598 H 0.91389 0.01284 0.41501
 H599 H 0.95725 0.09086 0.40002
 C600 C 0.07958 0.30909 -0.07725
 C601 C 0.09374 0.33739 -0.09397
 C602 C 0.11719 0.33776 -0.12007
 C603 C 0.12578 0.30529 -0.12722
 C604 C 0.11303 0.27512 -0.11131
 C605 C 0.08886 0.27492 -0.08435
 O606 O 0.05766 0.31838 -0.05629
 C607 C 0.05956 0.34971 -0.05515
 C608 C 0.08174 0.36225 -0.08069
 C609 C 0.08909 0.39543 -0.08910
 C610 C 0.07736 0.41620 -0.07004
 C611 C 0.05573 0.40480 -0.04225
 C612 C 0.04254 0.37133 -0.03476
 H613 H 0.12914 0.35418 -0.12812
 H614 H 0.14369 0.30426 -0.14343
 H615 H 0.07744 0.25790 -0.07698
 H616 H 0.10451 0.40351 -0.10303
 H617 H 0.08079 0.43789 -0.07686
 H618 H 0.02327 0.36692 -0.02336
 C619 C -0.09349 0.33223 0.10772
 C620 C -0.08930 0.32911 0.07147
 C621 C -0.08516 0.28568 0.06794
 C622 C -0.08660 0.27159 0.07609
 C623 C -0.10705 0.29068 0.12494
 C624 C -0.11074 0.31472 0.12935
 O625 O -0.08722 0.36140 0.10926
 C626 C -0.07580 0.37301 0.08513
 C627 C -0.07940 0.34549 0.06121
 C628 C -0.05837 0.35340 0.02739
 C629 C -0.04448 0.37382 0.01911
 C630 C -0.06184 0.41793 0.04660
 C631 C -0.06963 0.39458 0.08081
 H632 H -0.07860 0.28090 0.03887
 H633 H -0.10104 0.24168 0.07444
 H634 H -0.11652 0.31403 0.14844
 H635 H -0.05433 0.33244 0.01186
 H636 H -0.02845 0.38483 0.01197
 H637 H -0.06516 0.42148 0.09884
 C638 C -0.10774 0.67637 -0.07569
 C639 C -0.07429 0.67610 -0.08976
 C640 C -0.05300 0.69962 -0.11330
 C641 C -0.07694 0.72230 -0.12469
 C642 C -0.11254 0.72535 -0.11225
 C643 C -0.13373 0.70205 -0.08674
 O644 O -0.11284 0.64630 -0.06142
 C645 C -0.08874 0.63357 -0.05888
 C646 C -0.06784 0.64753 -0.08202
 C647 C -0.03201 0.64660 -0.09970
 C648 C -0.04234 0.60377 -0.08357
 C649 C -0.06408 0.58532 -0.05892
 C650 C -0.09028 0.59548 -0.03117
 H651 H -0.03511 0.70235 -0.11652
 H652 H -0.06520 0.74170 -0.13369
 H653 H -0.15263 0.70054 -0.08875
 H654 H -0.01893 0.64800 -0.09404
 H655 H -0.01416 0.59869 -0.09152
 H656 H -0.09750 0.58819 -0.04034
 C657 C 0.06418 0.69049 0.08709
 C658 C 0.10075 0.65602 0.09241
 C659 C 0.13225 0.66767 0.10353
 C660 C 0.14236 0.69525 0.12008
 C661 C 0.10240 0.70598 0.12449
 C662 C 0.07485 0.71604 0.09769
 O663 O 0.05285 0.67724 0.07807
 C664 C 0.05816 0.64346 0.06492
 C665 C 0.08588 0.63825 0.07685
 C666 C 0.09907 0.60864 0.07079
 C667 C 0.08068 0.58878 0.06026
 C668 C 0.05875 0.58739 0.04663
 C669 C 0.03863 0.62166 0.05619
 H670 H 0.14911 0.65345 0.10247
 H671 H 0.16082 0.70512 0.12306
 H672 H 0.06258 0.73503 0.09976
 H673 H 0.12246 0.60354 0.07476
 H674 H 0.10918 0.56638 0.05381
 H675 H 0.02467 0.62813 0.05372
 C676 C 0.33138 1.10827 0.91977
 C677 C 0.32319 1.07346 0.91326
 C678 C 0.29397 1.05930 0.89572
 C679 C 0.26838 1.07633 0.88034
 C680 C 0.27601 1.11082 0.88689
 C681 C 0.30488 1.12620 0.90435
 O682 O 0.35854 1.11304 0.93252
 C683 C 0.37000 1.08570 0.93620
 C684 C 0.35061 1.05841 0.92525
 C685 C 0.35506 1.02380 0.92484
 C686 C 0.38390 1.02417 0.94212
 C687 C 0.40813 1.04919 0.95585
 C688 C 0.40128 1.08411 0.95488
 H689 H 0.29012 1.03538 0.89536
 H690 H 0.25073 1.06725 0.87559
 H691 H 0.30869 1.15006 0.90462
 H692 H 0.34026 1.01078 0.92108
 H693 H 0.37934 1.00014 0.93436
 H694 H 0.41572 1.09774 0.95856
 C695 C 0.33363 0.89787 1.09321
 C696 C 0.33644 0.89808 1.08487
 C697 C 0.29150 0.88568 1.04728
 C698 C 0.29004 0.89316 1.04361
 C699 C 0.27440 0.91765 1.12251
 C700 C 0.29280 0.92852 1.11618
 O701 O 0.34653 0.91716 1.09147
 C702 C 0.36068 0.92560 1.08744
 C703 C 0.33371 0.88913 1.08189
 C704 C 0.37183 0.88281 1.02900
 C705 C 0.40825 0.90810 1.04742
 C706 C 0.41690 0.98747 1.04978
 C707 C 0.37678 0.97367 1.06851
 H708 H 0.30927 0.88602 1.03276
 H709 H 0.25791 0.86717 1.06534
 H710 H 0.31000 0.94130 1.14498
 H711 H 0.36442 0.88674 1.02340
 H712 H 0.42584 0.90779 0.99443
 H713 H 0.39887 0.98890 1.07194
 C714 C 0.65857 1.10966 1.08970
 C715 C 0.67327 1.06943 1.07718
 C716 C 0.70838 1.05694 1.09225
 C717 C 0.72886 1.06855 1.10031
 C718 C 0.72813 1.09544 1.11440
 C719 C 0.67992 1.12308 1.11412
 O720 O 0.63971 1.11356 1.07936
 C721 C 0.63425 1.08986 1.07410
 C722 C 0.65249 1.06089 1.07293
 C723 C 0.64577 1.04174 1.05448
 C724 C 0.61604 1.03157 1.03891
 C725 C 0.58866 1.05077 1.03801
 C726 C 0.59860 1.08816 1.04698
 H727 H 0.71196 1.03714 1.08977
 H728 H 0.75397 1.06532 1.11766
 H729 H 0.68694 1.15163 1.11350
 H730 H 0.67030 1.03243 1.05394
 H731 H 0.60013 1.01494 1.03440
 H732 H 0.57982 1.10082 1.05149
 C733 C 0.69132 0.92243 0.91992
 C734 C 0.66742 0.90417 0.90257
 C735 C 0.65994 0.87212 0.87719
 C736 C 0.69144 0.87341 0.88163
 C737 C 0.72706 0.88611 0.89444
 C738 C 0.72884 0.91916 0.91725
 O739 O 0.68623 0.94077 0.93781
 C740 C 0.66513 0.94377 0.94764
 C741 C 0.63821 0.91674 0.92291
 C742 C 0.59811 0.91468 0.91663
 C743 C 0.56230 0.92929 0.92908
 C744 C 0.59104 0.94881 0.95056
 C745 C 0.62985 0.95685 0.95856
 H746 H 0.64376 0.86805 0.88328
 H747 H 0.67976 0.85481 0.86101
 H748 H 0.74347 0.92476 0.92045
 H749 H 0.58876 0.89396 0.90652
 H750 H 0.56015 0.91453 0.92980
 H751 H 0.63914 0.97195 0.97067
   
