data_POSCAR
  _audit_creation_date              2014-09-24
  _audit_creation_method            'ToBaCCo'
  _symmetry_space_group_name_H-M    'P1'
  _symmetry_Int_Tables_number       1
  _symmetry_cell_setting            triclinic
  loop_
  _symmetry_equiv_pos_as_xyz
 x,y,z
_cell_length_a 27.3619
_cell_length_b 27.3621
_cell_length_c 47.7728
_cell_angle_alpha 90.657600
_cell_angle_beta 92.286400
_cell_angle_gamma 96.159100
loop_
  _atom_site_label
  _atom_site_type_symbol
  _atom_site_fract_x
  _atom_site_fract_y
  _atom_site_fract_z
C1 C -0.02556 0.34648 0.98322
 C2 C -0.02980 0.34596 1.01169
 C3 C -0.01336 0.39302 1.02158
 N4 N -0.00027 0.42251 1.00004
 C5 C -0.00750 0.39397 0.97662
 C6 C -0.00724 0.40740 1.05019
 C7 C -0.00258 0.45774 1.05846
 C8 C 0.01827 0.47639 1.08384
 C9 C 0.01507 0.52612 1.08388
 C10 C -0.00779 0.53674 1.05855
 N11 N -0.01792 0.49488 1.04300
 C12 C -0.01922 0.58417 1.05049
 C13 C -0.02680 0.59576 1.02190
 C14 C -0.04907 0.63591 1.01214
 C15 C -0.04497 0.63620 0.98364
 C16 C -0.02102 0.59587 0.97686
 N17 N -0.01014 0.57098 1.00022
 C18 C -0.00636 0.58449 0.94977
 C19 C 0.00830 0.53815 0.94281
 C20 C 0.03276 0.52747 0.91897
 C21 C 0.03606 0.47762 0.91889
 C22 C 0.01364 0.45947 0.94271
 N23 N -0.00309 0.49654 0.95717
 C24 C 0.00578 0.40942 0.94967
 H25 H -0.03461 0.31547 0.96899
 H26 H -0.04305 0.31440 1.02376
 H27 H -0.02605 0.49277 0.97405
 H28 H 0.03499 0.45643 1.10044
 H29 H 0.02890 0.55166 1.10053
 H30 H -0.06625 0.66243 1.02431
 H31 H -0.05810 0.66302 0.96951
 H32 H 0.05254 0.45704 0.90296
 H33 H -0.03794 0.49123 1.02393
 H34 H 0.04625 0.55280 0.90310
 C35 C 0.34722 -0.01990 0.48942
 C36 C 0.35131 -0.02027 0.51811
 C37 C 0.40070 -0.00809 0.52541
 N38 N 0.42686 -0.00016 0.50221
 C39 C 0.39424 -0.00749 0.48017
 C40 C 0.42007 -0.00017 0.55308
 C41 C 0.47095 0.00793 0.56009
 C42 C 0.49065 0.02805 0.58534
 C43 C 0.54082 0.02883 0.58436
 C44 C 0.55053 0.00827 0.55870
 N45 N 0.50756 -0.00425 0.54398
 C46 C 0.59819 0.00110 0.54969
 C47 C 0.60725 -0.00745 0.52106
 C48 C 0.64954 -0.02456 0.51131
 C49 C 0.64532 -0.02450 0.48266
 C50 C 0.60015 -0.00848 0.47575
 N51 N 0.57690 0.00202 0.49921
 C52 C 0.58282 -0.00041 0.44815
 C53 C 0.53385 0.00787 0.44115
 C54 C 0.51753 0.02407 0.41538
 C55 C 0.46736 0.02407 0.41644
 C56 C 0.45446 0.00769 0.44278
 N57 N 0.49518 -0.00243 0.45763
 C58 C 0.40578 0.00026 0.45192
 H59 H 0.31341 -0.02729 0.47682
 H60 H 0.32126 -0.02786 0.53203
 H61 H 0.49600 -0.02040 0.47665
 H62 H 0.47095 0.04140 0.60256
 H63 H 0.56711 0.04344 0.60066
 H64 H 0.68037 -0.03593 0.52354
 H65 H 0.67241 -0.03514 0.46853
 H66 H 0.44312 0.03454 0.39961
 H67 H 0.50312 -0.02421 0.52522
 H68 H 0.53937 0.03431 0.39755
 C69 C 0.07084 0.04443 0.27678
 H70 H 0.06479 0.07643 0.26473
 C71 C 0.11181 0.04635 0.29531
 H72 H 0.13658 0.07994 0.29733
 C73 C 0.04755 -0.03855 0.28822
 H74 H 0.02298 -0.07192 0.28493
 C75 C 0.08825 -0.03836 0.30681
 H76 H 0.09386 -0.07132 0.31830
 N77 N 0.03902 0.00270 0.27399
 C78 C -0.06207 -0.08960 0.22365
 H79 H -0.09516 -0.08133 0.23351
 C80 C -0.06326 -0.13106 0.20615
 H81 H -0.09752 -0.15442 0.20259
 C82 C 0.02230 -0.06808 0.21532
 H83 H 0.05539 -0.04306 0.21893
 C84 C 0.02272 -0.10896 0.19767
 H85 H 0.05658 -0.11554 0.18799
 Zn86 Zn -0.01790 -0.00064 0.24948
 N87 N -0.01980 -0.05888 0.22761
 C88 C -0.01416 0.04622 0.19711
 N89 N -0.01454 0.05442 0.22523
 C90 C -0.01311 0.10091 0.23596
 C91 C -0.00984 0.14136 0.21825
 C92 C -0.01093 0.08549 0.17869
 C93 C -0.08289 -0.03738 0.29068
 C94 C -0.12300 -0.03789 0.30789
 C95 C -0.14788 0.03280 0.28355
 C96 C -0.10745 0.03178 0.26670
 N97 N -0.07525 -0.00231 0.27089
 H98 H -0.01648 0.00917 0.18879
 H99 H -0.01436 0.10661 0.25836
 H100 H -0.00774 0.17806 0.22723
 H101 H -0.01102 0.07798 0.15638
 H102 H -0.05762 -0.06477 0.29338
 H103 H -0.12761 -0.06526 0.32404
 H104 H -0.17280 0.06052 0.28008
 H105 H -0.10185 0.05850 0.25038
 C106 C -0.02060 -0.14079 0.19261
 C107 C 0.12070 0.00468 0.31077
 C108 C -0.15568 -0.00197 0.30473
 C109 C -0.00826 0.13388 0.18918
 C110 C 0.01932 0.09539 0.76412
 H111 H 0.01638 0.09929 0.74162
 C112 C 0.02044 0.13679 0.78166
 H113 H 0.01887 0.17264 0.77252
 C114 C 0.02502 0.04384 0.80337
 H115 H 0.02603 0.00757 0.81186
 C116 C 0.02648 0.08414 0.82162
 H117 H 0.02850 0.07830 0.84400
 N118 N 0.02218 0.05013 0.77518
 C119 C 0.08579 -0.04244 0.71460
 H120 H 0.05927 -0.07475 0.71464
 C121 C 0.12648 -0.04158 0.69782
 H122 H 0.13085 -0.07330 0.68476
 C123 C 0.11124 0.03878 0.73093
 H124 H 0.10533 0.06997 0.74392
 C125 C 0.15229 0.04132 0.71434
 H126 H 0.17769 0.07454 0.71478
 Zn127 Zn 0.02024 -0.00504 0.75069
 N128 N 0.07840 -0.00227 0.73027
 C129 C -0.02878 -0.00422 0.69751
 N130 N -0.03511 -0.00406 0.72560
 C131 C -0.08016 -0.00060 0.73607
 C132 C -0.12124 0.00208 0.71799
 C133 C -0.06870 -0.00156 0.67874
 C134 C 0.05694 -0.07272 0.78697
 C135 C 0.05576 -0.11328 0.80446
 C136 C -0.02937 -0.13503 0.78975
 C137 C -0.02645 -0.09417 0.77238
 N138 N 0.01597 -0.06340 0.77180
 H139 H 0.00732 -0.00597 0.68949
 H140 H -0.08405 0.00055 0.75851
 H141 H -0.15671 0.00537 0.72668
 H142 H -0.06286 -0.00235 0.65646
 H143 H 0.09037 -0.04795 0.78586
 H144 H 0.08879 -0.11984 0.81642
 H145 H -0.06402 -0.15799 0.79072
 H146 H -0.05845 -0.08656 0.75991
 C147 C 0.15992 0.00102 0.69720
 C148 C 0.02445 0.13140 0.81083
 C149 C 0.01191 -0.14463 0.80643
 C150 C -0.11569 0.00182 0.68889
 C151 C -0.02282 -0.30364 0.11290
 C152 C 0.00192 -0.29370 0.08780
 C153 C 0.00291 -0.33082 0.06741
 C154 C -0.02047 -0.37850 0.07133
 C155 C -0.04448 -0.38828 0.09648
 C156 C -0.04578 -0.35152 0.11691
 C157 C -0.02317 -0.26265 0.13406
 C158 C -0.04747 -0.26820 0.15951
 C159 C -0.04666 -0.22874 0.17845
 C160 C -0.02150 -0.18284 0.17260
 C161 C 0.00261 -0.17694 0.14728
 C162 C 0.00189 -0.21619 0.12807
 C163 C 0.02586 -0.24684 0.08318
 C164 C 0.02594 -0.20897 0.10289
 H165 H 0.04492 -0.23928 0.06398
 H166 H 0.04506 -0.17337 0.09831
 H167 H 0.02318 -0.32283 0.04865
 H168 H -0.06345 -0.42434 0.10011
 H169 H -0.06529 -0.23434 0.19792
 H170 H 0.02137 -0.14137 0.14229
 H171 H -0.06506 -0.36139 0.13562
 H172 H -0.06732 -0.30258 0.16520
 C173 C 0.00235 0.29435 0.11012
 C174 C -0.02649 0.33325 0.11518
 C175 C -0.02852 0.37126 0.09573
 C176 C -0.00302 0.37074 0.07072
 C177 C 0.02638 0.33246 0.06624
 C178 C 0.02911 0.29498 0.08554
 C179 C 0.00218 0.25356 0.13084
 C180 C 0.02944 0.21315 0.12756
 C181 C 0.02644 0.17504 0.14673
 C182 C -0.00372 0.17598 0.16975
 C183 C -0.03002 0.21671 0.17367
 C184 C -0.02735 0.25532 0.15442
 C185 C -0.05400 0.33340 0.13929
 C186 C -0.05455 0.29522 0.15843
 H187 H -0.07603 0.36319 0.14324
 H188 H -0.07698 0.29678 0.17655
 H189 H -0.05183 0.40012 0.09947
 H190 H 0.04796 0.33174 0.04774
 H191 H 0.04799 0.14463 0.14354
 H192 H -0.05367 0.21776 0.19129
 H193 H 0.05211 0.26674 0.08060
 H194 H 0.05312 0.20995 0.11029
 C195 C 0.31426 0.00852 0.61675
 C196 C 0.34020 -0.03340 0.61452
 C197 C 0.37568 -0.03542 0.59420
 C198 C 0.38496 0.00337 0.57566
 C199 C 0.35956 0.04487 0.57784
 C200 C 0.32472 0.04763 0.59818
 C201 C 0.27582 0.00873 0.63827
 C202 C 0.24856 0.04888 0.64248
 C203 C 0.21179 0.04652 0.66198
 C204 C 0.20114 0.00417 0.67783
 C205 C 0.22886 -0.03558 0.67432
 C206 C 0.26611 -0.03354 0.65483
 C207 C 0.32981 -0.07343 0.63212
 C208 C 0.29335 -0.07364 0.65170
 H209 H 0.34966 -0.10549 0.63042
 H210 H 0.28619 -0.10585 0.66451
 H211 H 0.39530 -0.06762 0.59228
 H212 H 0.36647 0.07501 0.56352
 H213 H 0.19070 0.07756 0.66416
 H214 H 0.22140 -0.06817 0.68681
 H215 H 0.30598 0.08030 0.59866
 H216 H 0.25466 0.08231 0.63081
 C217 C -0.28020 0.00964 0.60872
 C218 C -0.32482 -0.01897 0.61439
 C219 C -0.36510 -0.02110 0.59505
 C220 C -0.36170 0.00445 0.56967
 C221 C -0.31741 0.03329 0.56442
 C222 C -0.27737 0.03592 0.58355
 C223 C -0.23765 0.00996 0.62955
 C224 C -0.19169 0.03704 0.62574
 C225 C -0.15269 0.03479 0.64521
 C226 C -0.15827 0.00560 0.66905
 C227 C -0.20424 -0.02062 0.67343
 C228 C -0.24378 -0.01875 0.65389
 C229 C -0.32875 -0.04590 0.63912
 C230 C -0.28910 -0.04587 0.65840
 H231 H -0.36292 -0.06776 0.64352
 H232 H -0.29392 -0.06772 0.67707
 H233 H -0.39870 -0.04411 0.59933
 H234 H -0.31393 0.05462 0.54549
 H235 H -0.11792 0.05618 0.64161
 H236 H -0.20891 -0.04355 0.69169
 H237 H -0.24459 0.05863 0.57810
 H238 H -0.18483 0.06003 0.60785
 C239 C -0.00181 -0.30400 0.88645
 C240 C 0.02498 -0.29521 0.91233
 C241 C 0.02345 -0.33175 0.93274
 C242 C -0.00509 -0.37696 0.92802
 C243 C -0.03220 -0.38548 0.90262
 C244 C -0.03058 -0.34959 0.88202
 C245 C 0.00138 -0.26411 0.86508
 C246 C -0.02242 -0.26958 0.83833
 C247 C -0.01864 -0.23108 0.81930
 C248 C 0.00888 -0.18607 0.82639
 C249 C 0.03303 -0.18048 0.85291
 C250 C 0.02979 -0.21901 0.87211
 C251 C 0.05287 -0.24993 0.91781
 C252 C 0.05492 -0.21253 0.89822
 H253 H 0.07320 -0.24316 0.93766
 H254 H 0.07678 -0.17804 0.90357
 H255 H 0.04446 -0.32514 0.95240
 H256 H -0.05472 -0.42011 0.89875
 H257 H -0.03698 -0.23679 0.79884
 H258 H 0.05385 -0.14571 0.85886
 H259 H -0.05228 -0.35821 0.86292
 H260 H -0.04392 -0.30329 0.83159
 C261 C 0.02391 0.29500 0.88943
 C262 C -0.01136 0.32845 0.88416
 C263 C -0.01636 0.36642 0.90354
 C264 C 0.01318 0.37143 0.92826
 C265 C 0.04880 0.33909 0.93317
 C266 C 0.05424 0.30137 0.91405
 C267 C 0.02660 0.25366 0.86885
 C268 C 0.05933 0.21764 0.87263
 C269 C 0.05896 0.17866 0.85355
 C270 C 0.02621 0.17451 0.83010
 C271 C -0.00569 0.21083 0.82571
 C272 C -0.00596 0.25005 0.84494
 C273 C -0.04193 0.32330 0.85985
 C274 C -0.03924 0.28501 0.84065
 H275 H -0.06876 0.34901 0.85574
 H276 H -0.06408 0.28237 0.82232
 H277 H -0.04394 0.39151 0.89978
 H278 H 0.07208 0.34278 0.95212
 H279 H 0.08448 0.15152 0.85716
 H280 H -0.03145 0.20771 0.80777
 H281 H 0.08201 0.27744 0.91915
 H282 H 0.08518 0.21847 0.89030
 C283 C -0.30982 0.00502 0.38454
 C284 C -0.33642 -0.04031 0.39137
 C285 C -0.37230 -0.04168 0.41165
 C286 C -0.38145 0.00144 0.42561
 C287 C -0.35530 0.04623 0.41897
 C288 C -0.32000 0.04819 0.39860
 C289 C -0.27116 0.00476 0.36314
 C290 C -0.24329 0.04788 0.35452
 C291 C -0.20656 0.04554 0.33525
 C292 C -0.19656 0.00025 0.32404
 C293 C -0.22480 -0.04283 0.33201
 C294 C -0.26200 -0.04090 0.35131
 C295 C -0.32639 -0.08404 0.37836
 C296 C -0.28979 -0.08437 0.35890
 H297 H -0.34670 -0.11871 0.38360
 H298 H -0.28301 -0.11929 0.34971
 H299 H -0.39246 -0.07635 0.41708
 H300 H -0.36204 0.07971 0.42979
 H301 H -0.18507 0.07928 0.32959
 H302 H -0.21786 -0.07793 0.32311
 H303 H -0.30075 0.08369 0.39452
 H304 H -0.24891 0.08377 0.36250
 C305 C 0.28531 0.00826 0.39189
 C306 C 0.31301 -0.03263 0.39175
 C307 C 0.35264 -0.03472 0.41115
 C308 C 0.36470 0.00310 0.43100
 C309 C 0.33735 0.04345 0.43128
 C310 C 0.29815 0.04617 0.41196
 C311 C 0.24315 0.00898 0.37088
 C312 C 0.21403 0.04839 0.36884
 C313 C 0.17475 0.04698 0.34919
 C314 C 0.16328 0.00630 0.33110
 C315 C 0.19233 -0.03292 0.33274
 C316 C 0.23216 -0.03178 0.35231
 C317 C 0.30067 -0.07140 0.37251
 C318 C 0.26097 -0.07111 0.35332
 H319 H 0.32181 -0.10270 0.37243
 H320 H 0.25270 -0.10220 0.33902
 H321 H 0.37384 -0.06602 0.41112
 H322 H 0.34641 0.07288 0.44658
 H323 H 0.15266 0.07754 0.34848
 H324 H 0.18421 -0.06419 0.31853
 H325 H 0.27830 0.07802 0.41328
 H326 H 0.22080 0.08061 0.38220
   
