data_POSCAR
  _audit_creation_date              2014-09-24
  _audit_creation_method            'ToBaCCo'
  _symmetry_space_group_name_H-M    'P1'
  _symmetry_Int_Tables_number       1
  _symmetry_cell_setting            triclinic
  loop_
  _symmetry_equiv_pos_as_xyz
 x,y,z
_cell_length_a 35.2101
_cell_length_b 30.6973
_cell_length_c 38.1055
_cell_angle_alpha 86.805200
_cell_angle_beta 86.398200
_cell_angle_gamma 89.377000
loop_
  _atom_site_label
  _atom_site_type_symbol
  _atom_site_fract_x
  _atom_site_fract_y
  _atom_site_fract_z
C1 C 0.25016 0.22183 0.25743
 C2 C 0.73873 0.73579 0.24550
 C3 C 0.74700 0.24972 0.75190
 C4 C 0.23556 0.73287 0.75170
 C5 C 0.05275 0.08271 0.01607
 H6 H 0.05553 0.08732 -0.01233
 C7 C 0.07331 0.10891 0.03681
 H8 H 0.09204 0.13366 0.02419
 C9 C 0.02480 0.04493 0.06699
 H10 H 0.00532 0.02056 0.07872
 C11 C 0.04476 0.07044 0.08871
 H12 H 0.03991 0.06534 0.11694
 N13 N 0.02975 0.05079 0.03136
 C14 C 0.02519 -0.04564 -0.04823
 H15 H -0.00527 -0.04875 -0.04944
 C16 C 0.04983 -0.07018 -0.06966
 H17 H 0.03766 -0.09138 -0.08759
 C18 C 0.07732 -0.01285 -0.02379
 H19 H 0.08802 0.00907 -0.00561
 C20 C 0.10297 -0.03673 -0.04471
 H21 H 0.13324 -0.03254 -0.04262
 Zn22 Zn 0.00386 0.01541 0.00156
 N23 N 0.03920 -0.01718 -0.02627
 C24 C -0.01932 0.05413 -0.06316
 N25 N -0.02543 0.05293 -0.02755
 C26 C -0.05152 0.07970 -0.01186
 C27 C -0.07376 0.10793 -0.03220
 C28 C -0.04081 0.08191 -0.08456
 C29 C -0.00996 -0.05573 0.04934
 C30 C -0.03122 -0.08608 0.07073
 C31 C -0.08858 -0.05393 0.04869
 C32 C -0.06610 -0.02420 0.02768
 N33 N -0.02759 -0.02508 0.02886
 H34 H 0.00245 0.03376 -0.07517
 H35 H -0.05524 0.07885 0.01657
 H36 H -0.09473 0.12848 -0.01899
 H37 H -0.03461 0.08163 -0.11263
 H38 H 0.02077 -0.05619 0.04933
 H39 H -0.01639 -0.10976 0.08715
 H40 H -0.11899 -0.05200 0.04670
 H41 H -0.07958 -0.00048 0.01043
 C42 C 0.08943 -0.06583 -0.06805
 C43 C 0.07007 0.10235 0.07359
 C44 C -0.07119 -0.08525 0.07115
 C45 C -0.06905 0.10911 -0.06918
 C46 C 0.05291 0.58046 0.50601
 H47 H 0.05489 0.58546 0.47762
 C48 C 0.07284 0.60759 0.52654
 H49 H 0.09032 0.63342 0.51380
 C50 C 0.02738 0.54101 0.55714
 H51 H 0.00907 0.51562 0.56908
 C52 C 0.04677 0.56735 0.57864
 H53 H 0.04264 0.56188 0.60690
 N54 N 0.03135 0.54736 0.52149
 C55 C 0.02655 0.44702 0.44522
 H56 H -0.00380 0.44137 0.44668
 C57 C 0.05065 0.42309 0.42291
 H58 H 0.03831 0.39958 0.40693
 C59 C 0.07885 0.48611 0.46345
 H60 H 0.08981 0.51051 0.47937
 C61 C 0.10396 0.46304 0.44139
 H62 H 0.13409 0.47014 0.44037
 Zn63 Zn 0.00562 0.51080 0.49240
 N64 N 0.04082 0.47835 0.46445
 C65 C -0.02095 0.54411 0.42745
 N66 N -0.02475 0.54664 0.46300
 C67 C -0.04955 0.57536 0.47810
 C68 C -0.07273 0.60191 0.45729
 C69 C -0.04371 0.56972 0.40566
 C70 C -0.00705 0.43933 0.54039
 C71 C -0.02806 0.40911 0.56217
 C72 C -0.08577 0.44214 0.54164
 C73 C -0.06357 0.47167 0.52022
 N74 N -0.02500 0.47031 0.52048
 H75 H -0.00019 0.52226 0.41576
 H76 H -0.05152 0.57735 0.50641
 H77 H -0.09259 0.62417 0.46999
 H78 H -0.03923 0.56683 0.37760
 H79 H 0.02371 0.43849 0.53964
 H80 H -0.01301 0.38518 0.57817
 H81 H -0.11625 0.44448 0.54033
 H82 H -0.07731 0.49571 0.50344
 C83 C 0.08996 0.43117 0.42071
 C84 C 0.07050 0.60067 0.56330
 C85 C -0.06806 0.41053 0.56361
 C86 C -0.07066 0.59881 0.42053
 C87 C 0.56028 0.06974 0.52275
 H88 H 0.56351 0.07130 0.49428
 C89 C 0.57964 0.09918 0.54168
 H90 H 0.59799 0.12324 0.52761
 C91 C 0.53197 0.03683 0.57558
 H92 H 0.51271 0.01315 0.58868
 C93 C 0.55068 0.06572 0.59555
 H94 H 0.54513 0.06377 0.62382
 N95 N 0.53755 0.03884 0.53989
 C96 C 0.53309 -0.06520 0.46670
 H97 H 0.50262 -0.06957 0.46691
 C98 C 0.55744 -0.09061 0.44576
 H99 H 0.54523 -0.11496 0.43049
 C100 C 0.58554 -0.02901 0.48766
 H101 H 0.59644 -0.00531 0.50428
 C102 C 0.61093 -0.05381 0.46720
 H103 H 0.64124 -0.04861 0.46799
 Zn104 Zn 0.51206 0.00026 0.51238
 N105 N 0.54736 -0.03438 0.48641
 C106 C 0.48696 0.03151 0.44598
 N107 N 0.48253 0.03475 0.48143
 C108 C 0.45722 0.06342 0.49585
 C109 C 0.43394 0.08894 0.47449
 C110 C 0.46422 0.05631 0.42358
 C111 C 0.49691 -0.06658 0.56446
 C112 C 0.47470 -0.09539 0.58652
 C113 C 0.41866 -0.06586 0.56014
 C114 C 0.44200 -0.03767 0.53860
 N115 N 0.48028 -0.03799 0.54150
 H116 H 0.50814 0.00969 0.43487
 H117 H 0.45478 0.06596 0.52411
 H118 H 0.41358 0.11106 0.48672
 H119 H 0.46898 0.05270 0.39564
 H120 H 0.52752 -0.06674 0.56576
 H121 H 0.48866 -0.11755 0.60484
 H122 H 0.38852 -0.06455 0.55651
 H123 H 0.42937 -0.01577 0.51939
 C124 C 0.59697 -0.08433 0.44527
 C125 C 0.57544 0.09700 0.57858
 C126 C 0.43489 -0.09511 0.58498
 C127 C 0.43663 0.08517 0.43780
 C128 C 0.54816 0.56976 0.01045
 H129 H 0.55178 0.57063 -0.01799
 C130 C 0.56936 0.59756 0.02930
 H131 H 0.58943 0.61976 0.01524
 C132 C 0.51728 0.54007 0.06331
 H133 H 0.49631 0.51843 0.07646
 C134 C 0.53795 0.56718 0.08319
 H135 H 0.53232 0.56599 0.11146
 N136 N 0.52324 0.54118 0.02765
 C137 C 0.51438 0.43676 -0.04459
 H138 H 0.48387 0.43597 -0.04652
 C139 C 0.53776 0.40750 -0.06284
 H140 H 0.52486 0.38410 -0.07857
 C141 C 0.56780 0.46701 -0.02024
 H142 H 0.57936 0.48969 -0.00312
 C143 C 0.59219 0.43804 -0.03775
 H144 H 0.62247 0.43910 -0.03434
 Zn145 Zn 0.49596 0.50420 0.00015
 N146 N 0.52971 0.46631 -0.02435
 C147 C 0.47168 0.53577 -0.06681
 N148 N 0.46851 0.54030 -0.03146
 C149 C 0.44542 0.57128 -0.01722
 C150 C 0.42329 0.59826 -0.03860
 C151 C 0.44975 0.56172 -0.08920
 C152 C 0.47648 0.44044 0.05354
 C153 C 0.45262 0.41282 0.07508
 C154 C 0.39909 0.44199 0.04446
 C155 C 0.42395 0.46947 0.02389
 N156 N 0.46182 0.46857 0.02901
 H157 H 0.49111 0.51195 -0.07780
 H158 H 0.44386 0.57462 0.01095
 H159 H 0.40474 0.62231 -0.02650
 H160 H 0.45339 0.55717 -0.11711
 H161 H 0.50687 0.43948 0.05631
 H162 H 0.46561 0.39068 0.09391
 H163 H 0.36903 0.44331 0.03984
 H164 H 0.41295 0.49108 0.00354
 C165 C 0.57731 0.40831 -0.05980
 C166 C 0.56491 0.59590 0.06617
 C167 C 0.41309 0.41350 0.07087
 C168 C 0.42450 0.59318 -0.07509
 C169 C 0.20806 -0.24674 -0.22438
 C170 C 0.21649 -0.21142 -0.20442
 C171 C 0.18847 -0.19097 -0.17964
 C172 C 0.20184 -0.16626 -0.15316
 C173 C 0.17642 -0.14533 -0.12986
 C174 C 0.13690 -0.14815 -0.13292
 C175 C 0.12354 -0.17320 -0.15922
 C176 C 0.14897 -0.19415 -0.18253
 C177 C 0.10881 -0.12595 -0.10922
 C178 C 0.11748 -0.08958 -0.09075
 H179 H 0.24506 -0.19845 -0.20661
 H180 H 0.23213 -0.16335 -0.15036
 H181 H 0.18799 -0.12756 -0.10933
 H182 H 0.09327 -0.17592 -0.16218
 H183 H 0.13748 -0.21182 -0.20317
 H184 H 0.08005 -0.13816 -0.10744
 H185 H 0.18063 -0.26222 -0.21877
 H186 H 0.14624 -0.07731 -0.09297
 C187 C 0.22372 0.24354 0.28443
 C188 C 0.20908 0.28586 0.27966
 C189 C 0.18345 0.30634 0.30632
 C190 C 0.18317 0.35192 0.30755
 C191 C 0.15944 0.37251 0.33242
 C192 C 0.13523 0.34780 0.35644
 C193 C 0.13469 0.30231 0.35453
 C194 C 0.15865 0.28168 0.32983
 C195 C 0.10916 0.36859 0.38262
 C196 C 0.11672 0.40880 0.39604
 H197 H 0.21796 0.30561 0.25622
 H198 H 0.20156 0.37165 0.28931
 H199 H 0.15963 0.40776 0.33228
 H200 H 0.11575 0.28266 0.37230
 H201 H 0.15707 0.24661 0.32881
 H202 H 0.08428 0.35051 0.39285
 H203 H 0.21511 0.22423 0.30819
 H204 H 0.14400 0.42398 0.38922
 C205 C 0.71032 -0.24391 0.27161
 C206 C 0.71909 -0.20854 0.29116
 C207 C 0.69202 -0.18909 0.31733
 C208 C 0.70632 -0.16334 0.34270
 C209 C 0.68172 -0.14334 0.36728
 C210 C 0.64208 -0.14865 0.36692
 C211 C 0.62781 -0.17399 0.34124
 C212 C 0.65240 -0.19401 0.31669
 C213 C 0.61462 -0.12680 0.39145
 C214 C 0.62435 -0.10885 0.42258
 H215 H 0.74734 -0.19483 0.28761
 H216 H 0.73669 -0.15848 0.34340
 H217 H 0.69405 -0.12302 0.38576
 H218 H 0.59741 -0.17807 0.33997
 H219 H 0.64010 -0.21230 0.29685
 H220 H 0.58546 -0.12442 0.38411
 H221 H 0.68343 -0.26031 0.27758
 H222 H 0.65343 -0.11079 0.43009
 C223 C 0.72052 0.27613 -0.22434
 C224 C 0.70351 0.25929 -0.19242
 C225 C 0.67533 0.28480 -0.17157
 C226 C 0.67468 0.28133 -0.13469
 C227 C 0.64897 0.30630 -0.11455
 C228 C 0.62305 0.33463 -0.13109
 C229 C 0.62272 0.33665 -0.16792
 C230 C 0.64874 0.31221 -0.18802
 C231 C 0.59569 0.36191 -0.11083
 C232 C 0.60350 0.37825 -0.07861
 H233 H 0.71251 0.22774 -0.18163
 H234 H 0.69454 0.25986 -0.12149
 H235 H 0.64915 0.30299 -0.08614
 H236 H 0.60261 0.35769 -0.18121
 H237 H 0.64771 0.31444 -0.21640
 H238 H 0.57022 0.37277 -0.12333
 H239 H 0.71194 0.30838 -0.23404
 H240 H 0.63112 0.37193 -0.06830
 C241 C -0.22446 0.22367 -0.22700
 C242 C -0.20062 0.24281 -0.20436
 C243 C -0.17234 0.21703 -0.18469
 C244 C -0.16263 0.23000 -0.15171
 C245 C -0.13682 0.20533 -0.13216
 C246 C -0.12003 0.16732 -0.14550
 C247 C -0.12865 0.15547 -0.17912
 C248 C -0.15453 0.17994 -0.19851
 C249 C -0.09297 0.13964 -0.12576
 C250 C -0.09274 0.13710 -0.08892
 H251 H -0.20435 0.27709 -0.19953
 H252 H -0.17546 0.25893 -0.14083
 H253 H -0.12984 0.21647 -0.10694
 H254 H -0.11559 0.12684 -0.19031
 H255 H -0.16017 0.16994 -0.22445
 H256 H -0.07492 0.11837 -0.14121
 H257 H -0.22207 0.18887 -0.22998
 H258 H -0.11331 0.15676 -0.07440
 C259 C -0.23337 0.70816 0.26617
 C260 C -0.20307 0.72575 0.28257
 C261 C -0.17702 0.69846 0.30358
 C262 C -0.15970 0.71642 0.33157
 C263 C -0.13494 0.69126 0.35187
 C264 C -0.12674 0.64775 0.34415
 C265 C -0.14323 0.63026 0.31551
 C266 C -0.16827 0.65522 0.29551
 C267 C -0.10014 0.62027 0.36445
 C268 C -0.09523 0.62490 0.40026
 H269 H -0.19899 0.76070 0.28093
 H270 H -0.16557 0.74990 0.33789
 H271 H -0.12175 0.70619 0.37306
 H272 H -0.13686 0.59706 0.30870
 H273 H -0.18014 0.64085 0.27336
 H274 H -0.08682 0.59344 0.35108
 H275 H -0.23938 0.67377 0.27127
 H276 H -0.11296 0.64865 0.41367
 C277 C 0.27759 0.19253 0.27715
 C278 C 0.30211 0.20936 0.30046
 C279 C 0.32931 0.18254 0.32061
 C280 C 0.34323 0.19920 0.35081
 C281 C 0.36899 0.17508 0.37065
 C282 C 0.38140 0.13363 0.36059
 C283 C 0.36837 0.11752 0.32980
 C284 C 0.34253 0.14162 0.30999
 C285 C 0.40857 0.10695 0.38094
 C286 C 0.41182 0.11036 0.41715
 H287 H 0.30008 0.24383 0.30517
 H288 H 0.33404 0.23101 0.35916
 H289 H 0.37951 0.18939 0.39342
 H290 H 0.37805 0.08603 0.32114
 H291 H 0.33362 0.12830 0.28618
 H292 H 0.42409 0.08201 0.36704
 H293 H 0.27761 0.15779 0.27373
 H294 H 0.39271 0.13269 0.43064
 C295 C 0.26065 0.70606 -0.22723
 C296 C 0.29241 0.72210 -0.21173
 C297 C 0.31785 0.69384 -0.19083
 C298 C 0.33788 0.71197 -0.16458
 C299 C 0.36262 0.68622 -0.14476
 C300 C 0.36810 0.64185 -0.15120
 C301 C 0.34889 0.62405 -0.17815
 C302 C 0.32383 0.64967 -0.19768
 C303 C 0.39438 0.61372 -0.13107
 C304 C 0.40065 0.61969 -0.09573
 H305 H 0.29866 0.75661 -0.21454
 H306 H 0.33424 0.74614 -0.15931
 H307 H 0.37793 0.70131 -0.12495
 H308 H 0.35314 0.59014 -0.18398
 H309 H 0.30986 0.63504 -0.21857
 H310 H 0.40607 0.58557 -0.14383
 H311 H 0.25269 0.67250 -0.22016
 H312 H 0.38437 0.64506 -0.08282
 C313 C -0.24084 -0.22969 0.22135
 C314 C -0.21163 -0.24059 0.19675
 C315 C -0.19162 -0.20840 0.17190
 C316 C -0.15574 -0.21946 0.15668
 C317 C -0.13584 -0.19012 0.13307
 C318 C -0.15155 -0.14893 0.12416
 C319 C -0.18792 -0.13840 0.13859
 C320 C -0.20778 -0.16770 0.16224
 C321 C -0.13144 -0.11676 0.09932
 C322 C -0.09170 -0.11568 0.09384
 H323 H -0.20210 -0.27428 0.19666
 H324 H -0.14296 -0.25092 0.16316
 H325 H -0.10855 -0.20021 0.12150
 H326 H -0.20098 -0.10723 0.13166
 H327 H -0.23595 -0.15848 0.17228
 H328 H -0.14882 -0.09173 0.08716
 H329 H -0.25015 -0.19610 0.22263
 H330 H -0.07533 -0.13894 0.10922
 C331 C -0.23138 0.28026 0.72525
 C332 C -0.20716 0.26508 0.69807
 C333 C -0.18715 0.29478 0.67128
 C334 C -0.15292 0.28107 0.65434
 C335 C -0.13328 0.30864 0.62909
 C336 C -0.14777 0.35043 0.62016
 C337 C -0.18269 0.36344 0.63623
 C338 C -0.20217 0.33602 0.66157
 C339 C -0.12790 0.38095 0.59384
 C340 C -0.08834 0.38060 0.58693
 H341 H -0.20192 0.23030 0.69711
 H342 H -0.14120 0.24908 0.66088
 H343 H -0.10717 0.29681 0.61633
 H344 H -0.19483 0.39512 0.62935
 H345 H -0.22924 0.34703 0.67303
 H346 H -0.14515 0.40642 0.58210
 H347 H -0.23364 0.31508 0.72825
 H348 H -0.07190 0.35691 0.60184
 C349 C 0.25652 -0.23512 0.72891
 C350 C 0.28691 -0.24678 0.70561
 C351 C 0.30858 -0.21512 0.68164
 C352 C 0.34555 -0.22632 0.66920
 C353 C 0.36703 -0.19746 0.64647
 C354 C 0.35184 -0.15669 0.63565
 C355 C 0.31448 -0.14601 0.64734
 C356 C 0.29303 -0.17482 0.67012
 C357 C 0.37342 -0.12527 0.61131
 C358 C 0.41328 -0.12422 0.60794
 H359 H 0.29632 -0.28055 0.70622
 H360 H 0.35792 -0.25751 0.67717
 H361 H 0.39515 -0.20766 0.63699
 H362 H 0.30184 -0.11516 0.63885
 H363 H 0.26414 -0.16561 0.67798
 H364 H 0.35681 -0.10086 0.59752
 H365 H 0.24760 -0.20125 0.72879
 H366 H 0.42872 -0.14643 0.62505
 C367 C 0.27411 0.25475 0.23460
 C368 C 0.28853 0.24730 0.20042
 C369 C 0.31565 0.27724 0.18059
 C370 C 0.31459 0.28261 0.14388
 C371 C 0.34028 0.31036 0.12444
 C372 C 0.36791 0.33266 0.14143
 C373 C 0.36965 0.32630 0.17802
 C374 C 0.34360 0.29909 0.19751
 C375 C 0.39610 0.36131 0.12152
 C376 C 0.38725 0.38639 0.09128
 H377 H 0.27895 0.21941 0.18730
 H378 H 0.29369 0.26549 0.13027
 H379 H 0.33898 0.31358 0.09611
 H380 H 0.39110 0.34260 0.19157
 H381 H 0.34598 0.29443 0.22566
 H382 H 0.42315 0.36498 0.13290
 H383 H 0.28352 0.28336 0.24692
 H384 H 0.35801 0.38623 0.08392
 C385 C 0.22574 0.19472 0.23556
 C386 C 0.19816 0.21369 0.21457
 C387 C 0.17372 0.18836 0.19302
 C388 C 0.15627 0.20988 0.16475
 C389 C 0.13295 0.18714 0.14378
 C390 C 0.12660 0.14222 0.15076
 C391 C 0.14326 0.12101 0.17960
 C392 C 0.16653 0.14372 0.20055
 C393 C 0.10218 0.11657 0.12938
 C394 C 0.09301 0.12948 0.09515
 H395 H 0.19552 0.24893 0.21279
 H396 H 0.16078 0.24442 0.15879
 H397 H 0.11963 0.20512 0.12261
 H398 H 0.13830 0.08661 0.18596
 H399 H 0.17818 0.12622 0.22287
 H400 H 0.09329 0.08478 0.14037
 H401 H 0.23060 0.15988 0.23548
 H402 H 0.10536 0.15888 0.08251
 C403 C 0.21563 0.70537 0.72933
 C404 C 0.18673 0.72134 0.70821
 C405 C 0.16611 0.69389 0.68504
 C406 C 0.14722 0.71411 0.65708
 C407 C 0.12681 0.68938 0.63504
 C408 C 0.12484 0.64374 0.64064
 C409 C 0.14316 0.62366 0.66902
 C410 C 0.16357 0.64836 0.69100
 C411 C 0.10288 0.61615 0.61860
 C412 C 0.09233 0.62908 0.58479
 H413 H 0.17966 0.75582 0.70808
 H414 H 0.14819 0.74921 0.65231
 H415 H 0.11208 0.70632 0.61422
 H416 H 0.14155 0.58866 0.67431
 H417 H 0.17649 0.63165 0.71302
 H418 H 0.09660 0.58327 0.62889
 H419 H 0.22526 0.67203 0.72633
 H420 H 0.10241 0.65981 0.57257
 C421 C 0.72290 0.21911 0.73278
 C422 C 0.69482 0.23442 0.71073
 C423 C 0.67128 0.20521 0.69151
 C424 C 0.65446 0.22180 0.66109
 C425 C 0.63245 0.19501 0.64201
 C426 C 0.62681 0.15092 0.65310
 C427 C 0.64263 0.13478 0.68417
 C428 C 0.66460 0.16154 0.70322
 C429 C 0.60409 0.12101 0.63368
 C430 C 0.59665 0.12817 0.59820
 H431 H 0.69125 0.26936 0.70620
 H432 H 0.65859 0.25556 0.65190
 H433 H 0.61964 0.20923 0.61895
 H434 H 0.63813 0.10120 0.69369
 H435 H 0.67572 0.14794 0.72730
 H436 H 0.59528 0.09067 0.64742
 H437 H 0.72845 0.18439 0.73543
 H438 H 0.60902 0.15613 0.58335
 C439 C 0.71728 0.70653 0.22281
 C440 C 0.68823 0.72255 0.20214
 C441 C 0.66568 0.69449 0.18102
 C442 C 0.64712 0.71346 0.15237
 C443 C 0.62493 0.68808 0.13229
 C444 C 0.62073 0.64310 0.14069
 C445 C 0.63864 0.62437 0.16980
 C446 C 0.66093 0.64967 0.18975
 C447 C 0.59689 0.61507 0.12072
 C448 C 0.58806 0.62494 0.08592
 H449 H 0.68234 0.75731 0.20096
 H450 H 0.64978 0.74807 0.14551
 H451 H 0.61057 0.70403 0.11078
 H452 H 0.63534 0.58996 0.17720
 H453 H 0.67359 0.63412 0.21241
 H454 H 0.58803 0.58406 0.13335
 H455 H 0.72562 0.67257 0.22165
 H456 H 0.60070 0.65321 0.07170
   
