data_POSCAR
  _audit_creation_date              2014-09-24
  _audit_creation_method            'ToBaCCo'
  _symmetry_space_group_name_H-M    'P1'
  _symmetry_Int_Tables_number       1
  _symmetry_cell_setting            triclinic
  loop_
  _symmetry_equiv_pos_as_xyz
 x,y,z
_cell_length_a 42.2229
_cell_length_b 42.1819
_cell_length_c 24.4720
_cell_angle_alpha 89.969600
_cell_angle_beta 89.988000
_cell_angle_gamma 89.922300
loop_
  _atom_site_label
  _atom_site_type_symbol
  _atom_site_fract_x
  _atom_site_fract_y
  _atom_site_fract_z
C1 C -0.02915 0.26123 0.02964
 C2 C -0.02933 0.26590 -0.02827
 C3 C -0.00013 0.26904 -0.05587
 C4 C 0.02915 0.26481 -0.02918
 C5 C 0.02902 0.25969 0.02821
 C6 C 0.00018 0.25768 0.05624
 H7 H 0.00091 0.25567 0.10040
 H8 H -0.00025 0.27097 -0.10003
 C9 C 0.47079 0.76965 0.52886
 C10 C 0.47109 0.76977 0.47101
 C11 C 0.50019 0.76980 0.44338
 C12 C 0.52897 0.76952 0.47198
 C13 C 0.52868 0.76998 0.52983
 C14 C 0.49957 0.77013 0.55747
 H15 H 0.49932 0.77006 0.60179
 H16 H 0.50046 0.76948 0.39907
 C17 C 1.02945 0.73590 0.02877
 C18 C 1.02870 0.73537 -0.02936
 C19 C 0.99950 0.73484 -0.05669
 C20 C 0.97046 0.73571 -0.02843
 C21 C 0.97119 0.73554 0.02970
 C22 C 1.00041 0.73518 0.05706
 H23 H 1.00028 0.73561 0.10136
 H24 H 0.99963 0.73502 -0.10099
 C25 C 0.52941 0.23188 0.52937
 C26 C 0.52926 0.23152 0.47151
 C27 C 0.50020 0.23129 0.44369
 C28 C 0.47135 0.23161 0.47211
 C29 C 0.47151 0.23149 0.52997
 C30 C 0.50056 0.23154 0.55780
 H31 H 0.50070 0.23181 0.60211
 H32 H 0.50004 0.23137 0.39938
 C33 C 0.72975 -0.02943 0.03312
 C34 C 0.72686 -0.02894 -0.02493
 C35 C 0.72546 0.00019 -0.05257
 C36 C 0.72803 0.02902 -0.02461
 C37 C 0.73100 0.02884 0.03290
 C38 C 0.73204 -0.00020 0.06081
 H39 H 0.73318 0.00027 0.10505
 H40 H 0.72436 0.00038 -0.09685
 C41 C 0.22793 0.47110 0.52404
 C42 C 0.22908 0.47129 0.46621
 C43 C 0.22973 0.50036 0.43838
 C44 C 0.22925 0.52925 0.46674
 C45 C 0.22821 0.52903 0.52458
 C46 C 0.22697 0.49997 0.55240
 H47 H 0.22689 0.49981 0.59672
 H48 H 0.23025 0.50050 0.39407
 C49 C 0.27072 1.03005 0.02496
 C50 C 0.26644 1.02992 -0.03317
 C51 C 0.26393 1.00050 -0.06023
 C52 C 0.26638 0.97166 -0.03221
 C53 C 0.27090 0.97182 0.02490
 C54 C 0.27393 1.00077 0.05235
 H55 H 0.27581 1.00025 0.09653
 H56 H 0.26193 0.99976 -0.10437
 C57 C 0.77181 0.52925 0.53276
 C58 C 0.77274 0.52911 0.47491
 C59 C 0.77386 0.50009 0.44702
 C60 C 0.77293 0.47119 0.47533
 C61 C 0.77202 0.47130 0.53317
 C62 C 0.77145 0.50033 0.56107
 H63 H 0.77105 0.50041 0.60538
 H64 H 0.77380 0.49999 0.40270
 O65 O 0.22339 0.26473 0.18241
 O66 O 0.29999 0.25543 0.25250
 O67 O 0.26732 0.22168 0.18301
 O68 O 0.25583 0.29845 0.25177
 O69 O 0.23184 0.27420 0.32037
 O70 O 0.24332 0.19735 0.25152
 O71 O 0.27600 0.23113 0.32104
 O72 O 0.19939 0.24045 0.25099
 Cu73 Cu 0.26410 0.26251 0.21054
 Cu74 Cu 0.23526 0.23332 0.29295
 C75 C 0.19849 0.25400 0.20473
 C76 C 0.30089 0.24190 0.29877
 C77 C 0.25697 0.19660 0.20535
 C78 C 0.24195 0.29928 0.29772
 O79 O 0.75646 0.79973 0.24920
 O80 O 0.76781 0.72351 0.31998
 O81 O 0.80030 0.75625 0.24928
 O82 O 0.72400 0.76673 0.31979
 O83 O 0.69964 0.74199 0.25216
 O84 O 0.77599 0.73151 0.18160
 O85 O 0.74347 0.69874 0.25236
 O86 O 0.73212 0.77502 0.18153
 Cu87 Cu 0.76462 0.76408 0.29134
 Cu88 Cu 0.73536 0.73435 0.21002
 C89 C 0.74243 0.80025 0.20338
 C90 C 0.75740 0.69829 0.29828
 C91 C 0.80103 0.74214 0.20354
 C92 C 0.69898 0.75593 0.29806
 O93 O 0.80215 0.24309 0.25274
 O94 O 0.72562 0.23236 0.32270
 O95 O 0.75849 0.19971 0.25214
 O96 O 0.76922 0.27591 0.32312
 O97 O 0.74495 0.30065 0.25529
 O98 O 0.73421 0.22446 0.18431
 O99 O 0.70135 0.25711 0.25488
 O100 O 0.77788 0.26783 0.18491
 Cu101 Cu 0.76632 0.23529 0.29453
 Cu102 Cu 0.73715 0.26503 0.21303
 C103 C 0.80291 0.25708 0.20687
 C104 C 0.70058 0.24300 0.30067
 C105 C 0.74466 0.19925 0.20613
 C106 C 0.75877 0.30112 0.30129
 O107 O 0.26766 0.77807 0.18206
 O108 O 0.25537 0.70186 0.25211
 O109 O 0.22322 0.73561 0.18179
 O110 O 0.29955 0.74482 0.25296
 O111 O 0.27528 0.76969 0.32064
 O112 O 0.19898 0.76044 0.24952
 O113 O 0.23112 0.72664 0.31989
 O114 O 0.24339 0.80299 0.24969
 Cu115 Cu 0.26389 0.73753 0.21045
 Cu116 Cu 0.23474 0.76740 0.29181
 C117 C 0.25746 0.80337 0.20387
 C118 C 0.24133 0.70137 0.29792
 C119 C 0.19826 0.74671 0.20343
 C120 C 0.30029 0.75880 0.29884
 O121 O 0.76917 0.27413 0.68022
 O122 O 0.75677 0.19790 0.75078
 O123 O 0.72465 0.23159 0.68028
 O124 O 0.80154 0.24016 0.74961
 O125 O 0.77798 0.26522 0.81783
 O126 O 0.70106 0.25669 0.74842
 O127 O 0.73319 0.22305 0.81886
 O128 O 0.74561 0.29914 0.74849
 Cu129 Cu 0.76538 0.23340 0.70833
 Cu130 Cu 0.73707 0.26354 0.79028
 C131 C 0.75937 0.29949 0.70243
 C132 C 0.74307 0.19766 0.79694
 C133 C 0.69992 0.24286 0.70244
 C134 C 0.80272 0.25403 0.79553
 O135 O 0.24199 0.79959 0.75017
 O136 O 0.23212 0.72326 0.67938
 O137 O 0.19903 0.75550 0.74993
 O138 O 0.27538 0.76697 0.68005
 O139 O 0.29989 0.74254 0.74796
 O140 O 0.22353 0.73105 0.81784
 O141 O 0.25664 0.69877 0.74723
 O142 O 0.26650 0.77520 0.81812
 Cu143 Cu 0.23467 0.76383 0.70805
 Cu144 Cu 0.26414 0.73445 0.78966
 C145 C 0.25573 0.80027 0.79624
 C146 C 0.24280 0.69816 0.70122
 C147 C 0.19841 0.74142 0.79572
 C148 C 0.30049 0.75646 0.70203
 O149 O 0.25453 0.30026 0.74434
 O150 O 0.26597 0.22387 0.81461
 O151 O 0.29850 0.25702 0.74460
 O152 O 0.22176 0.26689 0.81432
 O153 O 0.19778 0.24224 0.74621
 O154 O 0.27456 0.23236 0.67644
 O155 O 0.24201 0.19921 0.74646
 O156 O 0.23057 0.27562 0.67620
 Cu157 Cu 0.26256 0.26454 0.78633
 Cu158 Cu 0.23378 0.23491 0.70445
 C159 C 0.24082 0.30081 0.69823
 C160 C 0.25590 0.19865 0.79242
 C161 C 0.29948 0.24305 0.69873
 C162 C 0.19685 0.25603 0.79224
 O163 O 0.72513 0.76977 0.67825
 O164 O 0.80151 0.76014 0.74923
 O165 O 0.76928 0.72654 0.67890
 O166 O 0.75744 0.80307 0.74853
 O167 O 0.73316 0.77845 0.81644
 O168 O 0.74501 0.70201 0.74690
 O169 O 0.77720 0.73557 0.81716
 O170 O 0.70088 0.74519 0.74622
 Cu171 Cu 0.76578 0.76731 0.70679
 Cu172 Cu 0.73660 0.73777 0.78846
 C173 C 0.70011 0.75910 0.70027
 C174 C 0.80219 0.74650 0.79543
 C175 C 0.75904 0.70137 0.70109
 C176 C 0.74349 0.80362 0.79444
 C177 C 0.26372 0.11351 0.12103
 C178 C 0.28611 0.09026 0.13409
 C179 C 0.28821 0.06258 0.10284
 C180 C 0.26822 0.05790 0.05728
 C181 C 0.24509 0.08118 0.04585
 C182 C 0.24307 0.10877 0.07717
 C183 C 0.26196 0.14242 0.15211
 C184 C 0.26001 0.16698 0.17705
 H185 H 0.30218 0.09366 0.16810
 H186 H 0.30638 0.04543 0.11311
 H187 H 0.22813 0.07788 0.01318
 H188 H 0.22533 0.12643 0.06716
 C189 C 0.76800 0.61671 0.62213
 C190 C 0.74531 0.59314 0.63136
 C191 C 0.74689 0.56448 0.60287
 C192 C 0.77111 0.55916 0.56460
 C193 C 0.79419 0.58267 0.55629
 C194 C 0.79255 0.61136 0.58478
 C195 C 0.76557 0.64660 0.65017
 C196 C 0.76292 0.67163 0.67349
 H197 H 0.72619 0.59705 0.66014
 H198 H 0.72885 0.54670 0.60982
 H199 H 0.81328 0.57888 0.52745
 H200 H 0.81026 0.62942 0.57739
 C201 C 0.73304 0.88456 0.12322
 C202 C 0.75176 0.91031 0.13884
 C203 C 0.75022 0.93882 0.10982
 C204 C 0.73018 0.94200 0.06390
 C205 C 0.71063 0.91608 0.04995
 C206 C 0.71225 0.88761 0.07910
 C207 C 0.73574 0.85484 0.15178
 C208 C 0.73853 0.82991 0.17545
 H209 H 0.76797 0.90821 0.17298
 H210 H 0.76596 0.95781 0.12191
 H211 H 0.69351 0.91792 0.01723
 H212 H 0.69729 0.86796 0.06712
 C213 C 0.23344 0.38444 0.61553
 C214 C 0.25714 0.39208 0.57777
 C215 C 0.25546 0.42039 0.54829
 C216 C 0.22989 0.44127 0.55593
 C217 C 0.20639 0.43371 0.59441
 C218 C 0.20811 0.40535 0.62395
 C219 C 0.23530 0.35512 0.64546
 C220 C 0.23747 0.33039 0.66990
 H221 H 0.27691 0.37614 0.57111
 H222 H 0.27410 0.42603 0.51948
 H223 H 0.18657 0.44958 0.60100
 H224 H 0.18969 0.39970 0.65318
 C225 C 0.88680 0.26327 0.12491
 C226 C 0.89062 0.28460 0.08167
 C227 C 0.91852 0.28446 0.05090
 C228 C 0.94302 0.26258 0.06231
 C229 C 0.93921 0.24206 0.10747
 C230 C 0.91128 0.24229 0.13811
 C231 C 0.85735 0.26200 0.15448
 C232 C 0.83255 0.26017 0.17870
 H233 H 0.87192 0.30118 0.07143
 H234 H 0.92097 0.30171 0.01840
 H235 H 0.95713 0.22464 0.11759
 H236 H 0.90855 0.22562 0.17148
 C237 C 0.38407 0.76380 0.61964
 C238 C 0.40510 0.78887 0.62899
 C239 C 0.43346 0.79067 0.59965
 C240 C 0.44094 0.76752 0.56047
 C241 C 0.41993 0.74221 0.55183
 C242 C 0.39160 0.74045 0.58112
 C243 C 0.35476 0.76189 0.64942
 C244 C 0.33005 0.75975 0.67379
 H245 H 0.39952 0.80702 0.65879
 H246 H 0.44941 0.81031 0.60696
 H247 H 0.42550 0.72386 0.52240
 H248 H 0.37556 0.72089 0.57375
 C249 C 0.11487 0.74131 0.11978
 C250 C 0.09024 0.72168 0.13737
 C251 C 0.06199 0.72015 0.10768
 C252 C 0.05800 0.73793 0.05921
 C253 C 0.08280 0.75829 0.04300
 C254 C 0.11099 0.75976 0.07278
 C255 C 0.14410 0.74273 0.14996
 C256 C 0.16874 0.74428 0.17469
 H257 H 0.09295 0.70736 0.17385
 H258 H 0.04375 0.70403 0.12165
 H259 H 0.08017 0.77391 0.00823
 H260 H 0.12970 0.77549 0.05931
 C261 C 0.61603 0.23724 0.62055
 C262 C 0.60874 0.26062 0.58189
 C263 C 0.58042 0.25905 0.55250
 C264 C 0.55920 0.23392 0.56118
 C265 C 0.56643 0.21077 0.60055
 C266 C 0.59477 0.21238 0.62998
 C267 C 0.64541 0.23878 0.65019
 C268 C 0.67020 0.24041 0.67442
 H269 H 0.62496 0.28002 0.57442
 H270 H 0.57505 0.27739 0.52292
 H271 H 0.55032 0.19126 0.60789
 H272 H 0.60017 0.19420 0.65985
 C273 C 0.73447 0.11480 0.88156
 C274 C 0.70840 0.09467 0.87496
 C275 C 0.70628 0.06668 0.90545
 C276 C 0.73013 0.05870 0.94308
 C277 C 0.75638 0.07886 0.94900
 C278 C 0.75845 0.10680 0.91858
 C279 C 0.73677 0.14375 0.85066
 C280 C 0.73932 0.16823 0.82560
 H281 H 0.68973 0.10062 0.84637
 H282 H 0.68593 0.05138 0.90014
 H283 H 0.77530 0.07288 0.97706
 H284 H 0.77878 0.12214 0.92386
 C285 C 0.23265 0.61680 0.37737
 C286 C 0.25545 0.59328 0.36813
 C287 C 0.25402 0.56460 0.39665
 C288 C 0.22984 0.55921 0.43496
 C289 C 0.20667 0.58268 0.44331
 C290 C 0.20816 0.61139 0.41479
 C291 C 0.23491 0.64669 0.34924
 C292 C 0.23746 0.67170 0.32577
 H293 H 0.27453 0.59723 0.33931
 H294 H 0.27214 0.54685 0.38967
 H295 H 0.18761 0.57885 0.47216
 H296 H 0.19036 0.62940 0.42219
 C297 C 0.26253 0.88444 0.87744
 C298 C 0.28811 0.89051 0.91226
 C299 C 0.28956 0.91902 0.94125
 C300 C 0.26530 0.94168 0.93602
 C301 C 0.23992 0.93562 0.90043
 C302 C 0.23851 0.90711 0.87142
 C303 C 0.26064 0.85480 0.84849
 C304 C 0.25867 0.82991 0.82450
 H305 H 0.30685 0.87318 0.91714
 H306 H 0.30957 0.92340 0.96787
 H307 H 0.22097 0.95275 0.89582
 H308 H 0.21860 0.90264 0.84461
 C309 C 0.76656 0.38466 0.38390
 C310 C 0.74306 0.39246 0.42197
 C311 C 0.74502 0.42074 0.45141
 C312 C 0.77066 0.44142 0.44343
 C313 C 0.79395 0.43370 0.40464
 C314 C 0.79195 0.40538 0.37513
 C315 C 0.76445 0.35536 0.35406
 C316 C 0.76215 0.33066 0.32966
 H317 H 0.72324 0.37667 0.42889
 H318 H 0.72654 0.42650 0.48047
 H319 H 0.81383 0.44941 0.39779
 H320 H 0.81022 0.39959 0.34566
 C321 C 0.11357 0.26139 0.87640
 C322 C 0.08975 0.28320 0.86340
 C323 C 0.06180 0.28421 0.89417
 C324 C 0.05737 0.26368 0.93916
 C325 C 0.08136 0.24127 0.95061
 C326 C 0.10919 0.24033 0.91981
 C327 C 0.14256 0.26031 0.84543
 C328 C 0.16720 0.25873 0.82058
 H329 H 0.09285 0.29959 0.82972
 H330 H 0.04420 0.30193 0.88387
 H331 H 0.07832 0.22364 0.98229
 H332 H 0.12723 0.22295 0.92968
 C333 C 0.61554 0.76319 0.38089
 C334 C 0.59444 0.78821 0.37124
 C335 C 0.56614 0.79018 0.40073
 C336 C 0.55880 0.76724 0.44036
 C337 C 0.57989 0.74198 0.44933
 C338 C 0.60817 0.74005 0.41989
 C339 C 0.64479 0.76116 0.35098
 C340 C 0.66945 0.75903 0.32647
 H341 H 0.59991 0.80620 0.34108
 H342 H 0.55012 0.80977 0.39316
 H343 H 0.57443 0.72379 0.47912
 H344 H 0.62428 0.72053 0.42752
 C345 C 0.88530 0.74096 0.87983
 C346 C 0.90992 0.72110 0.86283
 C347 C 0.93806 0.71957 0.89283
 C348 C 0.94195 0.73759 0.94101
 C349 C 0.91712 0.75812 0.95669
 C350 C 0.88904 0.75959 0.92659
 C351 C 0.85621 0.74243 0.84927
 C352 C 0.83166 0.74401 0.82428
 H353 H 0.90731 0.70662 0.82656
 H354 H 0.95631 0.70330 0.87930
 H355 H 0.91967 0.77390 0.99123
 H356 H 0.87032 0.77548 0.93961
 C357 C 0.38467 0.23629 0.38102
 C358 C 0.39187 0.25989 0.41924
 C359 C 0.42022 0.25854 0.44858
 C360 C 0.44155 0.23341 0.44029
 C361 C 0.43441 0.21003 0.40137
 C362 C 0.40603 0.21142 0.37198
 C363 C 0.35530 0.23768 0.35132
 C364 C 0.33054 0.23931 0.32700
 H365 H 0.37557 0.27930 0.42639
 H366 H 0.42552 0.27705 0.47782
 H367 H 0.45061 0.19052 0.39434
 H368 H 0.40071 0.19307 0.34243
 C369 C 0.73506 0.88665 0.87827
 C370 C 0.75887 0.89458 0.91560
 C371 C 0.75637 0.92222 0.94668
 C372 C 0.72982 0.94207 0.94113
 C373 C 0.70629 0.93435 0.90281
 C374 C 0.70884 0.90667 0.87168
 C375 C 0.73745 0.85771 0.84751
 C376 C 0.73993 0.83316 0.82272
 H377 H 0.77930 0.87930 0.92087
 H378 H 0.77499 0.92803 0.97539
 H379 H 0.68575 0.94948 0.89777
 H380 H 0.69031 0.90076 0.84284
 C381 C 0.23290 0.38411 0.37606
 C382 C 0.20808 0.38955 0.41285
 C383 C 0.20640 0.41818 0.44149
 C384 C 0.22971 0.44155 0.43391
 C385 C 0.25417 0.43617 0.39612
 C386 C 0.25579 0.40757 0.36747
 C387 C 0.23542 0.35421 0.34810
 C388 C 0.23810 0.32913 0.32497
 H389 H 0.19021 0.37158 0.41974
 H390 H 0.18713 0.42202 0.46996
 H391 H 0.27239 0.45385 0.38974
 H392 H 0.27511 0.40359 0.33913
 C393 C 0.26514 0.11451 0.87297
 C394 C 0.24507 0.08937 0.85954
 C395 C 0.24603 0.06124 0.88964
 C396 C 0.26682 0.05789 0.93449
 C397 C 0.28785 0.08303 0.94600
 C398 C 0.28681 0.11114 0.91577
 C399 C 0.26263 0.14410 0.84401
 C400 C 0.25986 0.16898 0.82022
 H401 H 0.22818 0.09175 0.82645
 H402 H 0.22925 0.04277 0.87944
 H403 H 0.30528 0.08095 0.97826
 H404 H 0.30272 0.13035 0.92613
 C405 C 0.76570 0.61506 0.38184
 C406 C 0.79122 0.59439 0.37339
 C407 C 0.79345 0.56627 0.40349
 C408 C 0.77027 0.55871 0.44254
 C409 C 0.74451 0.57935 0.45022
 C410 C 0.74232 0.60743 0.42019
 C411 C 0.76338 0.64419 0.35149
 C412 C 0.76093 0.66879 0.32678
 H413 H 0.80941 0.60006 0.34373
 H414 H 0.81342 0.55059 0.39685
 H415 H 0.72611 0.57369 0.47948
 H416 H 0.72241 0.62319 0.42690
 C417 C 0.11418 0.73403 0.87594
 C418 C 0.09128 0.75744 0.86684
 C419 C 0.06316 0.75736 0.89684
 C420 C 0.05774 0.73394 0.93658
 C421 C 0.08039 0.70991 0.94441
 C422 C 0.10858 0.71007 0.91439
 C423 C 0.14387 0.73552 0.84726
 C424 C 0.16877 0.73776 0.82354
 H425 H 0.09541 0.77610 0.83724
 H426 H 0.04599 0.77607 0.89021
 H427 H 0.07647 0.69149 0.97449
 H428 H 0.12617 0.69183 0.92171
 C429 C 0.61617 0.23465 0.38054
 C430 C 0.59246 0.25723 0.37111
 C431 C 0.56398 0.25583 0.40011
 C432 C 0.55896 0.23191 0.43910
 C433 C 0.58259 0.20892 0.44761
 C434 C 0.61110 0.21038 0.41861
 C435 C 0.64591 0.23695 0.35204
 C436 C 0.67086 0.23943 0.32842
 H437 H 0.59613 0.27613 0.34180
 H438 H 0.54610 0.27381 0.39300
 H439 H 0.57904 0.19007 0.47703
 H440 H 0.62927 0.19276 0.42618
 C441 C 0.88651 0.25969 0.87765
 C442 C 0.89155 0.23887 0.92121
 C443 C 0.91941 0.24062 0.95174
 C444 C 0.94267 0.26363 0.93981
 C445 C 0.93771 0.28375 0.89446
 C446 C 0.90974 0.28193 0.86399
 C447 C 0.85729 0.25824 0.84753
 C448 C 0.83249 0.25658 0.82333
 H449 H 0.87391 0.22124 0.93165
 H450 H 0.92290 0.22355 0.98425
 H451 H 0.95483 0.30183 0.88384
 H452 H 0.90609 0.29812 0.83017
 C453 C 0.38443 0.76658 0.37952
 C454 C 0.38945 0.79094 0.41740
 C455 C 0.41788 0.79240 0.44659
 C456 C 0.44147 0.76934 0.43844
 C457 C 0.43649 0.74531 0.39967
 C458 C 0.40809 0.74391 0.37048
 C459 C 0.35479 0.76437 0.35075
 C460 C 0.32993 0.76204 0.32689
 H461 H 0.37131 0.80864 0.42465
 H462 H 0.42140 0.81132 0.47585
 H463 H 0.45435 0.72728 0.39287
 H464 H 0.40444 0.72495 0.34131
 C465 C 0.26571 0.88629 0.11954
 C466 C 0.24111 0.89442 0.08387
 C467 C 0.24282 0.92229 0.05326
 C468 C 0.26931 0.94225 0.05762
 C469 C 0.29379 0.93419 0.09396
 C470 C 0.29204 0.90624 0.12466
 C471 C 0.26371 0.85735 0.15048
 C472 C 0.26124 0.83284 0.17542
 H473 H 0.22059 0.87921 0.07975
 H474 H 0.22342 0.92835 0.02624
 H475 H 0.31432 0.94936 0.09806
 H476 H 0.31118 0.90018 0.15223
 C477 C 0.76853 0.38402 0.62316
 C478 C 0.79317 0.38940 0.58602
 C479 C 0.79474 0.41806 0.55741
 C480 C 0.77151 0.44151 0.56539
 C481 C 0.74722 0.43619 0.60352
 C482 C 0.74571 0.40756 0.63213
 C483 C 0.76611 0.35414 0.65121
 C484 C 0.76341 0.32914 0.67461
 H485 H 0.81098 0.37137 0.57884
 H486 H 0.81387 0.42186 0.52867
 H487 H 0.72905 0.45392 0.61020
 H488 H 0.72653 0.40362 0.66076
 C489 C 0.73619 0.11546 0.12446
 C490 C 0.71093 0.11035 0.08849
 C491 C 0.70898 0.08202 0.05910
 C492 C 0.73244 0.05860 0.06509
 C493 C 0.75748 0.06370 0.10184
 C494 C 0.75938 0.09203 0.13124
 C495 C 0.73869 0.14494 0.15368
 C496 C 0.74118 0.16970 0.17784
 H497 H 0.69283 0.12831 0.08301
 H498 H 0.68926 0.07838 0.03153
 H499 H 0.77581 0.04596 0.10703
 H500 H 0.77904 0.09576 0.15893
 C501 C 0.23513 0.61486 0.61787
 C502 C 0.20963 0.59421 0.62626
 C503 C 0.20744 0.56613 0.59610
 C504 C 0.23063 0.55859 0.55704
 C505 C 0.25638 0.57920 0.54943
 C506 C 0.25853 0.60723 0.57952
 C507 C 0.23734 0.64398 0.64818
 C508 C 0.23962 0.66861 0.67283
 H509 H 0.19142 0.59987 0.65589
 H510 H 0.18749 0.55048 0.60268
 H511 H 0.27479 0.57355 0.52017
 H512 H 0.27841 0.62298 0.57285
 C513 C 0.88544 0.73477 0.12374
 C514 C 0.90829 0.75821 0.13265
 C515 C 0.93652 0.75792 0.10295
 C516 C 0.94211 0.73427 0.06370
 C517 C 0.91953 0.71022 0.05610
 C518 C 0.89122 0.71059 0.08582
 C519 C 0.85566 0.73640 0.15216
 C520 C 0.83070 0.73863 0.17572
 H521 H 0.90403 0.77703 0.16186
 H522 H 0.95364 0.77665 0.10939
 H523 H 0.92357 0.69162 0.02640
 H524 H 0.87370 0.69232 0.07867
 C525 C 0.38429 0.23476 0.62004
 C526 C 0.40782 0.25749 0.62932
 C527 C 0.43644 0.25601 0.60072
 C528 C 0.44177 0.23186 0.56229
 C529 C 0.41834 0.20871 0.55401
 C530 C 0.38970 0.21024 0.58260
 C531 C 0.35439 0.23712 0.64805
 C532 C 0.32932 0.23959 0.67129
 H533 H 0.40388 0.27657 0.65816
 H534 H 0.45416 0.27411 0.60763
 H535 H 0.42213 0.18969 0.52501
 H536 H 0.37168 0.19250 0.57517
 C537 C 0.11465 0.25929 0.12279
 C538 C 0.10810 0.28470 0.08773
 C539 C 0.08004 0.28511 0.05746
 C540 C 0.05839 0.25992 0.06160
 C541 C 0.06483 0.23482 0.09772
 C542 C 0.09288 0.23447 0.12799
 C543 C 0.14407 0.25816 0.15232
 C544 C 0.16886 0.25660 0.17655
 H545 H 0.12478 0.30404 0.08347
 H546 H 0.07530 0.30488 0.03040
 H547 H 0.04843 0.21523 0.10157
 H548 H 0.09775 0.21469 0.15498
 C549 C 0.61564 0.76710 0.62055
 C550 C 0.61044 0.79133 0.58244
 C551 C 0.58187 0.79273 0.55360
 C552 C 0.55834 0.76974 0.56232
 C553 C 0.56348 0.74588 0.60139
 C554 C 0.59202 0.74453 0.63023
 C555 C 0.64544 0.76487 0.64887
 C556 C 0.67041 0.76248 0.67241
 H557 H 0.62853 0.80895 0.57470
 H558 H 0.57823 0.81153 0.52410
 H559 H 0.54568 0.72789 0.60862
 H560 H 0.59580 0.72566 0.65959
   
