data_POSCAR
  _audit_creation_date              2014-09-24
  _audit_creation_method            'ToBaCCo'
  _symmetry_space_group_name_H-M    'P1'
  _symmetry_Int_Tables_number       1
  _symmetry_cell_setting            triclinic
  loop_
  _symmetry_equiv_pos_as_xyz
 x,y,z
_cell_length_a 44.2191
_cell_length_b 36.6010
_cell_length_c 23.5122
_cell_angle_alpha 89.999600
_cell_angle_beta 89.849700
_cell_angle_gamma 89.897400
loop_
  _atom_site_label
  _atom_site_type_symbol
  _atom_site_fract_x
  _atom_site_fract_y
  _atom_site_fract_z
C1 C 0.68597 0.30983 0.50171
 C2 C 0.70079 0.30195 0.55256
 C3 C 0.72630 0.27920 0.55236
 C4 C 0.73637 0.26227 0.50147
 C5 C 0.72039 0.27002 0.45073
 C6 C 0.69593 0.29436 0.45083
 C7 C 0.76315 0.23677 0.50140
 C8 C 0.77925 0.22897 0.45059
 C9 C 0.80369 0.20451 0.45067
 C10 C 0.81345 0.18906 0.50167
 C11 C 0.79847 0.19702 0.55241
 C12 C 0.77304 0.21982 0.55223
 H13 H 0.66657 0.32806 0.50163
 H14 H 0.73808 0.27518 0.59209
 H15 H 0.72645 0.25728 0.41085
 H16 H 0.77326 0.24180 0.41078
 H17 H 0.83281 0.17076 0.50200
 H18 H 0.76125 0.22383 0.59203
 C19 C 0.18632 0.81053 0.50370
 C20 C 0.20119 0.80279 0.55455
 C21 C 0.22671 0.78006 0.55445
 C22 C 0.23674 0.76300 0.50369
 C23 C 0.22072 0.77061 0.45289
 C24 C 0.19625 0.79495 0.45287
 C25 C 0.26358 0.73761 0.50379
 C26 C 0.27967 0.72985 0.45302
 C27 C 0.30416 0.70557 0.45309
 C28 C 0.31406 0.69018 0.50398
 C29 C 0.29913 0.69807 0.55487
 C30 C 0.27358 0.72077 0.55470
 H31 H 0.16691 0.82875 0.50358
 H32 H 0.23851 0.77615 0.59418
 H33 H 0.22677 0.75777 0.41309
 H34 H 0.27366 0.74254 0.41313
 H35 H 0.33349 0.67198 0.50388
 H36 H 0.26172 0.72480 0.59445
 C37 C 0.31304 0.30996 -0.50142
 C38 C 0.29817 0.30200 -0.55210
 C39 C 0.27278 0.27921 -0.55172
 C40 C 0.26284 0.26233 -0.50075
 C41 C 0.27886 0.27018 -0.45009
 C42 C 0.30323 0.29455 -0.45042
 C43 C 0.23619 0.23676 -0.50051
 C44 C 0.22019 0.22893 -0.44963
 C45 C 0.19585 0.20443 -0.44960
 C46 C 0.18610 0.18894 -0.50056
 C47 C 0.20098 0.19693 -0.55136
 C48 C 0.22631 0.21978 -0.55129
 H49 H 0.33236 0.32820 -0.50169
 H50 H 0.26105 0.27517 -0.59146
 H51 H 0.27290 0.25748 -0.41014
 H52 H 0.22618 0.24178 -0.40985
 H53 H 0.16681 0.17061 -0.50081
 H54 H 0.23803 0.22382 -0.59115
 C55 C -0.18582 0.81061 -0.50260
 C56 C -0.20059 0.80284 -0.55352
 C57 C -0.22601 0.78007 -0.55354
 C58 C -0.23606 0.76301 -0.50283
 C59 C -0.22015 0.77066 -0.45195
 C60 C -0.19576 0.79503 -0.45181
 C61 C -0.26279 0.73757 -0.50310
 C62 C -0.27890 0.72968 -0.45242
 C63 C -0.30331 0.70538 -0.45273
 C64 C -0.31308 0.69008 -0.50375
 C65 C -0.29811 0.69809 -0.55446
 C66 C -0.27268 0.72081 -0.55411
 H67 H -0.16647 0.82885 -0.50239
 H68 H -0.23773 0.77615 -0.59334
 H69 H -0.22622 0.75782 -0.41216
 H70 H -0.27298 0.74228 -0.41244
 H71 H -0.33243 0.67188 -0.50400
 H72 H -0.26088 0.72488 -0.59388
 N73 N 0.03163 1.03913 0.10077
 N74 N 0.05268 1.04523 0.13918
 N75 N -0.03188 1.06513 0.06196
 N76 N -0.05167 1.09097 0.07484
 N77 N -0.03190 1.03947 0.10102
 N78 N -0.05171 1.04711 0.14139
 N79 N 0.03173 1.06489 0.06185
 N80 N 0.05290 1.08934 0.07289
 C81 C 0.06594 1.07627 0.12081
 C82 C -0.06417 1.07889 0.12390
 N83 N -0.03172 1.03914 -0.09986
 N84 N -0.05280 1.04523 -0.13826
 N85 N 0.03172 1.06511 -0.06105
 N86 N 0.05145 1.09094 -0.07390
 N87 N 0.03181 1.03945 -0.10011
 N88 N 0.05161 1.04708 -0.14045
 N89 N -0.03189 1.06490 -0.06094
 N90 N -0.05314 1.08934 -0.07196
 Mn91 Mn -0.00008 1.06541 0.00045
 C92 C -0.06615 1.07627 -0.11987
 C93 C 0.06399 1.07885 -0.12295
 N94 N -0.03195 0.96084 0.10071
 N95 N -0.05309 0.95470 0.13914
 N96 N 0.03169 0.93485 0.06200
 N97 N 0.05146 0.90902 0.07487
 N98 N 0.03158 0.96050 0.10108
 N99 N 0.05128 0.95287 0.14144
 N100 N -0.03192 0.93508 0.06179
 N101 N -0.05307 0.91059 0.07286
 Mn102 Mn -0.00016 0.99999 0.10133
 C103 C -0.06626 0.92363 0.12077
 C104 C 0.06380 0.92110 0.12395
 N105 N 0.03208 0.96082 -0.09980
 N106 N 0.05324 0.95467 -0.13822
 N107 N -0.03150 0.93486 -0.06109
 N108 N -0.05122 0.90906 -0.07393
 N109 N -0.03146 0.96051 -0.10017
 N110 N -0.05115 0.95290 -0.14051
 N111 N 0.03211 0.93506 -0.06088
 N112 N 0.05334 0.91057 -0.07193
 Mn113 Mn 0.00018 0.99998 -0.10043
 Mn114 Mn 0.00010 0.93456 0.00046
 Cl115 Cl 0.00001 0.99999 0.00045
 C116 C 0.06650 0.92360 -0.11984
 C117 C -0.06361 0.92115 -0.12300
 N118 N 0.46803 0.53920 -0.10083
 N119 N 0.44700 0.54548 -0.13927
 N120 N 0.53159 0.56507 -0.06248
 N121 N 0.55142 0.59078 -0.07529
 N122 N 0.53157 0.53943 -0.10158
 N123 N 0.55138 0.54696 -0.14193
 N124 N 0.46799 0.56496 -0.06191
 N125 N 0.44688 0.58958 -0.07299
 C126 C 0.43380 0.57662 -0.12091
 C127 C 0.56388 0.57865 -0.12437
 N128 N 0.53192 0.53914 0.09931
 N129 N 0.55298 0.54533 0.13768
 N130 N 0.46831 0.56514 0.06097
 N131 N 0.44851 0.59094 0.07388
 N132 N 0.46838 0.53950 0.10007
 N133 N 0.44861 0.54711 0.14050
 N134 N 0.53192 0.56490 0.06039
 N135 N 0.55303 0.58943 0.07140
 Mn136 Mn 0.49995 0.56541 -0.00076
 C137 C 0.56615 0.57642 0.11929
 C138 C 0.43609 0.57885 0.12300
 N139 N 0.53179 0.46080 -0.10136
 N140 N 0.55278 0.45455 -0.14010
 N141 N 0.46830 0.43493 -0.06195
 N142 N 0.44847 0.40920 -0.07446
 N143 N 0.46825 0.46056 -0.10106
 N144 N 0.44838 0.45301 -0.14110
 N145 N 0.53191 0.43504 -0.06243
 N146 N 0.55303 0.41046 -0.07381
 Mn147 Mn 0.49991 0.50000 -0.10165
 C148 C 0.56603 0.42343 -0.12192
 C149 C 0.43592 0.42132 -0.12335
 N150 N 0.46828 0.46086 0.09984
 N151 N 0.44728 0.45468 0.13854
 N152 N 0.53182 0.43486 0.06045
 N153 N 0.55162 0.40904 0.07308
 N154 N 0.53182 0.46050 0.09955
 N155 N 0.55164 0.45287 0.13968
 N156 N 0.46821 0.43510 0.06092
 N157 N 0.44710 0.41059 0.07225
 Mn158 Mn 0.50010 0.50000 0.10013
 Mn159 Mn 0.50006 0.43459 -0.00075
 Cl160 Cl 0.50001 0.50000 -0.00076
 C161 C 0.43407 0.42360 0.12035
 C162 C 0.56412 0.42112 0.12201
 C163 C 0.34331 0.35296 0.21498
 C164 C 0.35349 0.32256 0.25690
 C165 C 0.33935 0.34433 0.30616
 C166 C 0.32882 0.37443 0.26516
 C167 C 0.37329 0.37297 0.22564
 C168 C 0.35911 0.39466 0.27495
 C169 C 0.38372 0.34288 0.26673
 C170 C 0.36934 0.36438 0.31648
 C171 C 0.32224 0.32887 0.35384
 C172 C 0.31015 0.31650 0.39558
 C173 C 0.39361 0.38980 0.18391
 C174 C 0.41155 0.40465 0.15297
 H175 H 0.33287 0.34844 0.17269
 H176 H 0.35095 0.29272 0.24999
 H177 H 0.30604 0.38723 0.26505
 H178 H 0.36164 0.42449 0.28199
 H179 H 0.40649 0.33004 0.26699
 H180 H 0.37990 0.36898 0.35866
 C181 C -0.15674 0.85268 0.21594
 C182 C -0.14628 0.82258 0.25812
 C183 C -0.16044 0.84446 0.30723
 C184 C -0.17125 0.87427 0.26598
 C185 C -0.12687 0.87301 0.22614
 C186 C -0.14107 0.89481 0.27531
 C187 C -0.11616 0.84321 0.26749
 C188 C -0.13056 0.86482 0.31710
 C189 C -0.17731 0.82905 0.35519
 C190 C -0.18921 0.81667 0.39710
 C191 C -0.10669 0.88980 0.18421
 C192 C -0.08879 0.90466 0.15324
 H193 H -0.16725 0.84787 0.17378
 H194 H -0.14865 0.79268 0.25159
 H195 H -0.19411 0.88685 0.26592
 H196 H -0.13870 0.92470 0.28197
 H197 H -0.09331 0.83058 0.26771
 H198 H -0.11994 0.86972 0.35915
 C199 C 0.65593 0.64913 0.21265
 C200 C 0.64517 0.67791 0.25687
 C201 C 0.66084 0.65586 0.30401
 C202 C 0.67195 0.62737 0.26071
 C203 C 0.62693 0.62716 0.22382
 C204 C 0.64263 0.60518 0.27101
 C205 C 0.61593 0.65564 0.26722
 C206 C 0.63183 0.63386 0.31484
 C207 C 0.67792 0.67132 0.35155
 C208 C 0.68998 0.68366 0.39323
 C209 C 0.60662 0.61030 0.18232
 C210 C 0.58868 0.59542 0.15160
 H211 H 0.66559 0.65524 0.17008
 H212 H 0.64644 0.70801 0.25156
 H213 H 0.69519 0.61593 0.25857
 H214 H 0.64137 0.57509 0.27645
 H215 H 0.59270 0.66713 0.26952
 H216 H 0.62206 0.62767 0.35731
 C217 C 0.15539 1.14897 0.21529
 C218 C 0.14439 1.17718 0.26017
 C219 C 0.16022 1.15485 0.30679
 C220 C 0.17158 1.12693 0.26284
 C221 C 0.12658 1.12656 0.22593
 C222 C 0.14244 1.10429 0.27260
 C223 C 0.11533 1.15447 0.26998
 C224 C 0.13139 1.13241 0.31710
 C225 C 0.17714 1.17014 0.35462
 C226 C 0.18910 1.18242 0.39641
 C227 C 0.10637 1.10991 0.18410
 C228 C 0.08846 1.09515 0.15321
 H229 H 0.16500 1.15560 0.17287
 H230 H 0.14541 1.20734 0.25559
 H231 H 0.19491 1.11579 0.26047
 H232 H 0.14141 1.07414 0.27730
 H233 H 0.09202 1.16566 0.27253
 H234 H 0.12168 1.12570 0.35941
 C235 C 0.64243 0.39447 -0.27470
 C236 C 0.67165 0.37191 -0.26487
 C237 C 0.66040 0.34370 -0.30829
 C238 C 0.63149 0.36607 -0.31866
 C239 C 0.62663 0.37252 -0.22753
 C240 C 0.61549 0.34431 -0.27104
 C241 C 0.65553 0.35018 -0.21683
 C242 C 0.64462 0.32167 -0.26117
 C243 C 0.67739 0.32816 -0.35611
 C244 C 0.68938 0.31574 -0.39797
 C245 C 0.60639 0.38944 -0.18567
 C246 C 0.58851 0.40438 -0.15464
 H247 H 0.64132 0.42459 -0.27988
 H248 H 0.69494 0.38308 -0.26288
 H249 H 0.62175 0.37250 -0.36097
 H250 H 0.59221 0.33310 -0.27320
 H251 H 0.66515 0.34382 -0.17441
 H252 H 0.64574 0.29155 -0.25611
 C253 C 0.13786 0.89356 -0.27852
 C254 C 0.17004 0.87771 -0.27026
 C255 C 0.16100 0.84442 -0.30614
 C256 C 0.12910 0.86011 -0.31493
 C257 C 0.12730 0.87296 -0.22510
 C258 C 0.11833 0.83968 -0.26107
 C259 C 0.15920 0.85733 -0.21598
 C260 C 0.15050 0.82372 -0.25279
 C261 C 0.17791 0.82900 -0.35409
 C262 C 0.18983 0.81662 -0.39602
 C263 C 0.10705 0.88976 -0.18321
 C264 C 0.08909 0.90462 -0.15228
 H265 H 0.13244 0.92245 -0.28872
 H266 H 0.19150 0.89316 -0.27459
 H267 H 0.11687 0.86115 -0.35608
 H268 H 0.09688 0.82420 -0.25688
 H269 H 0.17132 0.85637 -0.17472
 H270 H 0.15594 0.79482 -0.24275
 C271 C 0.36144 0.60673 -0.27793
 C272 C 0.32981 0.62403 -0.26872
 C273 C 0.33938 0.65642 -0.30618
 C274 C 0.37073 0.63928 -0.31591
 C275 C 0.37315 0.62761 -0.22575
 C276 C 0.38265 0.65998 -0.26330
 C277 C 0.34182 0.64469 -0.21569
 C278 C 0.35106 0.67739 -0.25407
 C279 C 0.32241 0.67195 -0.35388
 C280 C 0.31047 0.68434 -0.39569
 C281 C 0.39340 0.61066 -0.18412
 C282 C 0.41130 0.59571 -0.15332
 H283 H 0.36592 0.57749 -0.28738
 H284 H 0.30789 0.60942 -0.27147
 H285 H 0.38247 0.63715 -0.35758
 H286 H 0.40457 0.67462 -0.26069
 H287 H 0.33018 0.64674 -0.17392
 H288 H 0.34655 0.70664 -0.24478
 C289 C -0.15643 1.14787 -0.21430
 C290 C -0.14581 1.17707 -0.25789
 C291 C -0.16071 1.15492 -0.30570
 C292 C -0.17167 1.12601 -0.26305
 C293 C -0.12697 1.12657 -0.22490
 C294 C -0.14190 1.10448 -0.27277
 C295 C -0.11611 1.15547 -0.26765
 C296 C -0.13124 1.13358 -0.31596
 C297 C -0.17767 1.17023 -0.35352
 C298 C -0.18965 1.18253 -0.39532
 C299 C -0.10670 1.10990 -0.18310
 C300 C -0.08874 1.09514 -0.15224
 H301 H -0.16652 1.15356 -0.17194
 H302 H -0.14765 1.20711 -0.25229
 H303 H -0.19472 1.11407 -0.26172
 H304 H -0.14007 1.07445 -0.27849
 H305 H -0.09307 1.16744 -0.26915
 H306 H -0.12103 1.12780 -0.35822
 C307 C 0.60640 0.66125 -0.27737
 C308 C 0.63298 0.68795 -0.26689
 C309 C 0.65153 0.66756 -0.31224
 C310 C 0.62520 0.64117 -0.32327
 C311 C 0.61953 0.63539 -0.23221
 C312 C 0.63810 0.61512 -0.27764
 C313 C 0.64583 0.66176 -0.22088
 C314 C 0.66470 0.64170 -0.26712
 C315 C 0.66854 0.68366 -0.35948
 C316 C 0.68177 0.69479 -0.40083
 C317 C 0.60079 0.61622 -0.19036
 C318 C 0.58444 0.59945 -0.15872
 H319 H 0.58222 0.66908 -0.28117
 H320 H 0.63108 0.71809 -0.26302
 H321 H 0.61685 0.63287 -0.36584
 H322 H 0.64003 0.58498 -0.28168
 H323 H 0.65410 0.66998 -0.17823
 H324 H 0.68888 0.63388 -0.26342
 C325 C 0.10664 1.16229 -0.27524
 C326 C 0.13385 1.18809 -0.26495
 C327 C 0.15162 1.16760 -0.31128
 C328 C 0.12467 1.14210 -0.32214
 C329 C 0.11959 1.13561 -0.23105
 C330 C 0.13739 1.11524 -0.27747
 C331 C 0.14652 1.16109 -0.21990
 C332 C 0.16461 1.14093 -0.26713
 C333 C 0.16863 1.18355 -0.35872
 C334 C 0.18180 1.19449 -0.40031
 C335 C 0.10085 1.11649 -0.18907
 C336 C 0.08452 1.09973 -0.15736
 H337 H 0.08261 1.17086 -0.27819
 H338 H 0.13259 1.21824 -0.26033
 H339 H 0.11581 1.13445 -0.36463
 H340 H 0.13868 1.08510 -0.28226
 H341 H 0.15530 1.16865 -0.17732
 H342 H 0.18865 1.13235 -0.26427
 C343 C 0.39363 0.34053 -0.27797
 C344 C 0.36839 0.31200 -0.26732
 C345 C 0.34825 0.33227 -0.31016
 C346 C 0.37326 0.36049 -0.32136
 C347 C 0.38024 0.36448 -0.23046
 C348 C 0.36009 0.38464 -0.27339
 C349 C 0.35526 0.33627 -0.21895
 C350 C 0.33481 0.35621 -0.26270
 C351 C 0.33126 0.31618 -0.35727
 C352 C 0.31807 0.30507 -0.39856
 C353 C 0.39897 0.38369 -0.18882
 C354 C 0.41534 0.40048 -0.15741
 H355 H 0.41802 0.33430 -0.28385
 H356 H 0.37159 0.28194 -0.26535
 H357 H 0.38053 0.37030 -0.36393
 H358 H 0.35686 0.41469 -0.27550
 H359 H 0.34808 0.32656 -0.17629
 H360 H 0.31042 0.36243 -0.25692
 C361 C -0.13642 0.88474 -0.27772
 C362 C -0.12371 0.85751 -0.32198
 C363 C -0.15091 0.83238 -0.31099
 C364 C -0.16388 0.85943 -0.26724
 C365 C -0.11900 0.86440 -0.23094
 C366 C -0.14618 0.83929 -0.21966
 C367 C -0.10606 0.83736 -0.27473
 C368 C -0.13352 0.81192 -0.26430
 C369 C -0.16788 0.81640 -0.35829
 C370 C -0.18102 0.80538 -0.39972
 C371 C -0.10033 0.88353 -0.18905
 C372 C -0.08406 0.90029 -0.15738
 H373 H -0.13745 0.91487 -0.28287
 H374 H -0.11459 0.86485 -0.36451
 H375 H -0.18787 0.86830 -0.26464
 H376 H -0.15521 0.83204 -0.17704
 H377 H -0.08208 0.82848 -0.27741
 H378 H -0.13253 0.78178 -0.25931
 C379 C 0.36472 0.61561 0.28022
 C380 C 0.37716 0.64422 0.32239
 C381 C 0.34900 0.66792 0.31199
 C382 C 0.33630 0.63950 0.27033
 C383 C 0.38076 0.63578 0.23146
 C384 C 0.35261 0.65945 0.22076
 C385 C 0.39343 0.66420 0.27314
 C386 C 0.36500 0.68821 0.26331
 C387 C 0.33212 0.68397 0.35950
 C388 C 0.31899 0.69506 0.40103
 C389 C 0.39936 0.61658 0.18933
 C390 C 0.41562 0.59976 0.15752
 H391 H 0.36477 0.58558 0.28679
 H392 H 0.38713 0.63811 0.36464
 H393 H 0.31260 0.62955 0.26968
 H394 H 0.34272 0.66546 0.17843
 H395 H 0.41712 0.67414 0.27387
 H396 H 0.36490 0.71826 0.25691
 C397 C -0.10660 1.16030 0.27879
 C398 C -0.13248 1.18813 0.26856
 C399 C -0.15192 1.16768 0.31242
 C400 C -0.12628 1.14015 0.32321
 C401 C -0.11983 1.13569 0.23213
 C402 C -0.13929 1.11536 0.27608
 C403 C -0.14544 1.16321 0.22104
 C404 C -0.16519 1.14308 0.26580
 C405 C -0.16897 1.18362 0.35986
 C406 C -0.18219 1.19457 0.40142
 C407 C -0.10106 1.11657 0.19011
 C408 C -0.08471 1.09980 0.15835
 H409 H -0.08231 1.16717 0.28375
 H410 H -0.12988 1.21824 0.26598
 H411 H -0.11853 1.13082 0.36568
 H412 H -0.14191 1.08525 0.27882
 H413 H -0.15311 1.17245 0.17848
 H414 H -0.18949 1.13622 0.26095
 C415 C 0.60583 0.34183 0.27888
 C416 C 0.63006 0.31186 0.26884
 C417 C 0.65122 0.33195 0.31000
 C418 C 0.62722 0.36161 0.32060
 C419 C 0.61948 0.36413 0.22978
 C420 C 0.64066 0.38412 0.27103
 C421 C 0.64345 0.33447 0.21888
 C422 C 0.66493 0.35424 0.26095
 C423 C 0.66808 0.31590 0.35736
 C424 C 0.68118 0.30483 0.39881
 C425 C 0.60088 0.38334 0.18786
 C426 C 0.58461 0.40018 0.15624
 H427 H 0.58133 0.33694 0.28586
 H428 H 0.62591 0.28196 0.26847
 H429 H 0.62068 0.37262 0.36288
 H430 H 0.64483 0.41401 0.27154
 H431 H 0.64991 0.32357 0.17649
 H432 H 0.68944 0.35912 0.25409
 C433 C 0.10716 0.83447 0.27195
 C434 C 0.13654 0.81214 0.26200
 C435 C 0.15123 0.83230 0.31211
 C436 C 0.12213 0.85431 0.32263
 C437 C 0.11927 0.86431 0.23199
 C438 C 0.13401 0.88433 0.28217
 C439 C 0.14837 0.84232 0.22118
 C440 C 0.16337 0.86213 0.27216
 C441 C 0.16823 0.81631 0.35942
 C442 C 0.18142 0.80530 0.40083
 C443 C 0.10058 0.88345 0.19006
 C444 C 0.08428 0.90022 0.15836
 H445 H 0.08384 0.82330 0.27144
 H446 H 0.13778 0.78226 0.25424
 H447 H 0.11147 0.85910 0.36479
 H448 H 0.13281 0.91420 0.29011
 H449 H 0.15895 0.83763 0.17894
 H450 H 0.18668 0.87331 0.27273
   
