data_POSCAR
  _audit_creation_date              2014-09-24
  _audit_creation_method            'ToBaCCo'
  _symmetry_space_group_name_H-M    'P1'
  _symmetry_Int_Tables_number       1
  _symmetry_cell_setting            triclinic
  loop_
  _symmetry_equiv_pos_as_xyz
 x,y,z
_cell_length_a 43.7238
_cell_length_b 44.8519
_cell_length_c 46.1136
_cell_angle_alpha 89.512700
_cell_angle_beta 87.955400
_cell_angle_gamma 90.331100
loop_
  _atom_site_label
  _atom_site_type_symbol
  _atom_site_fract_x
  _atom_site_fract_y
  _atom_site_fract_z
N1 N 0.19635 1.27505 0.15547
 N2 N 0.16748 1.27496 0.16430
 C3 C 0.15296 1.29750 0.15133
 C4 C 0.17390 1.31280 0.13320
 C5 C 0.20136 1.29786 0.13671
 H6 H 0.12883 1.30186 0.15459
 H7 H 0.22327 1.30246 0.12598
 Cu8 Cu 0.15150 1.24481 0.19132
 Cu9 Cu 0.22448 1.24431 0.16809
 Cu10 Cu 0.18734 1.17916 0.19112
 N11 N 0.13983 1.21354 0.21895
 N12 N 0.15257 1.18711 0.21778
 C13 C 0.13944 1.16944 0.23850
 C14 C 0.11773 1.18599 0.25410
 C15 C 0.11872 1.21394 0.24084
 H16 H 0.14640 1.14676 0.24268
 H17 H 0.10505 1.23320 0.24636
 N18 N 0.23019 1.18020 0.17617
 N19 N 0.24484 1.20537 0.16975
 C20 C 0.27434 1.19936 0.16318
 C21 C 0.27842 1.16890 0.16525
 C22 C 0.24995 1.15736 0.17338
 H23 H 0.29146 1.21586 0.15677
 H24 H 0.24433 1.13425 0.17798
 H25 H 0.18896 1.21615 0.16275
 H26 H 0.20005 1.22103 0.20111
 N27 N 0.81345 0.71739 0.18142
 N28 N 0.83529 0.71458 0.20009
 C29 C 0.85073 0.68931 0.19466
 C30 C 0.83831 0.67574 0.17096
 C31 C 0.81475 0.69426 0.16293
 H32 H 0.87051 0.68205 0.20619
 H33 H 0.79983 0.69124 0.14497
 Cu34 Cu 0.84431 0.74584 0.22731
 Cu35 Cu 0.78566 0.75128 0.18271
 Cu36 Cu 0.78857 0.79393 0.24532
 N37 N 0.84740 0.77181 0.26042
 N38 N 0.82532 0.79023 0.26779
 C39 C 0.83394 0.80653 0.29051
 C40 C 0.86324 0.79797 0.29782
 C41 C 0.87082 0.77562 0.27817
 H42 H 0.82020 0.82403 0.30014
 H43 H 0.89204 0.76348 0.27622
 N44 N 0.75392 0.79481 0.21913
 N45 N 0.75324 0.77953 0.19482
 C46 C 0.72753 0.78647 0.18101
 C47 C 0.71125 0.80719 0.19740
 C48 C 0.72877 0.81187 0.22139
 H49 H 0.72120 0.77715 0.16052
 H50 H 0.72412 0.82739 0.23875
 H51 H 0.80935 0.78256 0.20672
 H52 H 0.78924 0.75156 0.22683
 N53 N 0.83162 1.22643 -0.16406
 N54 N 0.84950 1.21949 -0.18645
 C55 C 0.87056 1.24119 -0.19094
 C56 C 0.86571 1.26296 -0.17014
 C57 C 0.84077 1.25273 -0.15342
 H58 H 0.88816 1.24096 -0.20800
 H59 H 0.82980 1.26373 -0.13510
 Cu60 Cu 0.84369 1.18297 -0.20792
 Cu61 Cu 0.79785 1.20083 -0.15061
 Cu62 Cu 0.77867 1.14326 -0.19598
 N63 N 0.82957 1.15417 -0.23568
 N64 N 0.80343 1.13988 -0.23182
 C65 C 0.79879 1.12267 -0.25507
 C66 C 0.82366 1.12604 -0.27450
 C67 C 0.84273 1.14627 -0.26124
 H68 H 0.77916 1.10820 -0.25716
 H69 H 0.86419 1.15537 -0.26975
 N70 N 0.75700 1.15045 -0.15845
 N71 N 0.76452 1.17235 -0.14112
 C72 C 0.74686 1.17069 -0.11667
 C73 C 0.72722 1.14649 -0.11854
 C74 C 0.73434 1.13422 -0.14543
 H75 H 0.74886 1.18553 -0.09851
 H76 H 0.72417 1.11462 -0.15467
 H77 H 0.81134 1.16071 -0.16949
 H78 H 0.79036 1.18768 -0.19282
 N79 N 0.17431 0.80071 -0.18187
 N80 N 0.15364 0.80902 -0.20023
 C81 C 0.13072 0.78894 -0.19974
 C82 C 0.13714 0.76664 -0.17993
 C83 C 0.16510 0.77495 -0.16895
 H84 H 0.11083 0.79066 -0.21286
 H85 H 0.17788 0.76316 -0.15288
 Cu86 Cu 0.15820 0.84504 -0.22347
 Cu87 Cu 0.21135 0.82430 -0.17624
 Cu88 Cu 0.21963 0.88880 -0.21837
 N89 N 0.16881 0.87455 -0.25323
 N90 N 0.19259 0.89219 -0.25075
 C91 C 0.19337 0.91220 -0.27264
 C92 C 0.16872 0.90678 -0.29012
 C93 C 0.15379 0.88241 -0.27706
 H94 H 0.21058 0.92949 -0.27524
 H95 H 0.13288 0.87184 -0.28353
 N96 N 0.24993 0.87579 -0.19052
 N97 N 0.24689 0.85164 -0.17407
 C98 C 0.27141 0.84961 -0.15717
 C99 C 0.29090 0.87335 -0.16381
 C100 C 0.27652 0.88938 -0.18501
 H101 H 0.27506 0.83205 -0.14149
 H102 H 0.28468 0.90976 -0.19540
 H103 H 0.19347 0.86423 -0.18763
 H104 H 0.21311 0.84327 -0.21754
 C105 C 0.55439 1.00965 0.04002
 H106 H 0.55193 1.00582 0.06318
 C107 C 0.57764 1.02835 0.02886
 H108 H 0.59326 1.03856 0.04360
 C109 C 0.53688 1.00098 -0.00722
 H110 H 0.52105 0.99026 -0.02128
 C111 C 0.55982 1.01953 -0.01931
 H112 H 0.56091 1.02329 -0.04254
 N113 N 0.53397 0.99718 0.02206
 C114 C 0.44891 0.99167 0.07478
 H115 H 0.44240 0.96849 0.07294
 C116 C 0.43021 1.01110 0.09096
 H117 H 0.40975 1.00249 0.10206
 C118 C 0.48314 1.03114 0.06215
 H119 H 0.50323 1.03927 0.05031
 C120 C 0.46513 1.05126 0.07786
 H121 H 0.47183 1.07454 0.07780
 Zn122 Zn 0.50082 0.97518 0.03967
 N123 N 0.47528 1.00177 0.06139
 C124 C 0.50564 0.93938 0.09082
 N125 N 0.51797 0.94580 0.06399
 C126 C 0.54517 0.93396 0.05487
 C127 C 0.56193 0.91624 0.07356
 C128 C 0.52129 0.92121 0.10998
 C129 C 0.46260 0.97725 -0.00679
 C130 C 0.44606 0.96677 -0.02988
 C131 C 0.45756 0.91631 -0.01515
 C132 C 0.47448 0.92784 0.00748
 N133 N 0.47705 0.95787 0.01083
 H134 H 0.48413 0.94898 0.09787
 H135 H 0.55465 0.93956 0.03352
 H136 H 0.58435 0.90871 0.06629
 H137 H 0.51097 0.91658 0.13123
 H138 H 0.46470 1.00099 -0.00332
 H139 H 0.43535 0.98251 -0.04422
 H140 H 0.45609 0.89243 -0.01813
 H141 H 0.48594 0.91290 0.02201
 C142 C 0.43848 1.04132 0.09293
 C143 C 0.58014 1.03405 -0.00112
 C144 C 0.44372 0.93601 -0.03443
 C145 C 0.55038 0.91018 0.10187
 C146 C -0.03663 0.50507 1.01003
 H147 H -0.03111 0.48169 1.00899
 C148 C -0.05595 0.51531 1.03249
 H149 H -0.06520 0.49953 1.04843
 C150 C -0.03156 0.55388 0.99044
 H151 H -0.02214 0.56891 0.97401
 C152 C -0.05063 0.56512 1.01266
 H153 H -0.05492 0.58885 1.01335
 N154 N -0.02415 0.52445 0.99000
 C155 C 0.06466 0.50170 0.98705
 H156 H 0.07040 0.52366 0.97877
 C157 C 0.08636 0.48570 1.00234
 H158 H 0.10840 0.49584 1.00600
 C159 C 0.02919 0.46179 0.99256
 H160 H 0.00710 0.45225 0.98814
 C161 C 0.05015 0.44503 1.00775
 H162 H 0.04384 0.42269 1.01485
 Zn163 Zn 0.00561 0.50992 0.96257
 N164 N 0.03651 0.48971 0.98281
 C165 C 0.03583 0.56569 0.95264
 N166 N 0.02237 0.54206 0.93970
 C167 C 0.01934 0.54152 0.91045
 C168 C 0.02968 0.56538 0.89312
 C169 C 0.04633 0.59020 0.93609
 C170 C -0.04310 0.47671 0.93865
 C171 C -0.05549 0.45475 0.92112
 C172 C -0.00442 0.44355 0.90274
 C173 C 0.00697 0.46553 0.92068
 N174 N -0.01235 0.48161 0.93810
 H175 H 0.03752 0.56595 0.97598
 H176 H 0.00836 0.52282 0.90044
 H177 H 0.02706 0.56431 0.86989
 H178 H 0.05602 0.60917 0.94694
 H179 H -0.05801 0.48976 0.95270
 H180 H -0.08001 0.45116 0.92168
 H181 H 0.01140 0.43069 0.88935
 H182 H 0.03136 0.46971 0.92095
 C183 C 0.07912 0.45701 1.01308
 C184 C -0.06252 0.54586 1.03450
 C185 C -0.03603 0.43786 0.90286
 C186 C 0.04295 0.59040 0.90591
 C187 C 1.04649 0.01308 0.50677
 H188 H 1.05268 0.02736 0.48855
 C189 C 1.06854 0.00613 0.52691
 H190 H 1.09164 0.01444 0.52316
 C191 C 1.00906 -0.01481 0.53381
 H192 H 0.98567 -0.02265 0.53646
 C193 C 1.03017 -0.02180 0.55476
 H194 H 1.02249 -0.03468 0.57361
 N195 N 1.01748 0.00220 0.51029
 C196 C 0.98200 0.06367 0.45031
 H197 H 0.96094 0.06738 0.46267
 C198 C 0.99140 0.08421 0.42887
 H199 H 0.97716 0.10341 0.42512
 C200 C 1.02428 0.03281 0.43861
 H201 H 1.03661 0.01233 0.44212
 C202 C 1.03502 0.05317 0.41747
 H203 H 1.05621 0.04838 0.40566
 Zn204 Zn 0.98581 0.01117 0.48458
 N205 N 0.99885 0.03890 0.45529
 C206 C 0.95826 0.05362 0.52071
 N207 N 0.95346 0.02692 0.50789
 C208 C 0.92793 0.01040 0.51440
 C209 C 0.90633 0.02033 0.53516
 C210 C 0.93689 0.06478 0.54092
 C211 C 0.98528 -0.05068 0.47113
 C212 C 0.97651 -0.07561 0.45540
 C213 C 0.94241 -0.04429 0.42872
 C214 C 0.95155 -0.02007 0.44518
 N215 N 0.97280 -0.02360 0.46570
 H216 H 0.97907 0.06604 0.51556
 H217 H 0.92504 -0.01118 0.50457
 H218 H 0.88707 0.00600 0.54104
 H219 H 0.94117 0.08633 0.55038
 H220 H 1.00237 -0.05296 0.48733
 H221 H 0.98659 -0.09699 0.46021
 H222 H 0.92630 -0.04063 0.41178
 H223 H 0.94228 0.00183 0.44112
 C224 C 1.01869 0.07956 0.41246
 C225 C 1.06052 -0.01145 0.55146
 C226 C 0.95509 -0.07256 0.43355
 C227 C 0.91081 0.04775 0.54910
 C228 C 0.13284 0.37167 1.09300
 C229 C 0.15617 0.38305 1.07542
 C230 C 0.18603 0.37276 1.07646
 C231 C 0.19198 0.34963 1.09621
 C232 C 0.16814 0.33703 1.11444
 C233 C 0.13816 0.34881 1.11276
 O234 O 0.10590 0.38379 1.08813
 C235 C 0.11231 0.40319 1.06690
 C236 C 0.14274 0.40370 1.05828
 C237 C 0.15407 0.42177 1.03563
 C238 C 0.13312 0.43976 1.02115
 C239 C 0.10150 0.43935 1.02949
 C240 C 0.09122 0.42096 1.05302
 H241 H 0.20406 0.38194 1.06232
 H242 H 0.21517 0.34151 1.09678
 H243 H 0.11905 0.34028 1.12589
 H244 H 0.17806 0.42161 1.02898
 H245 H 0.14141 0.45332 1.00296
 H246 H 0.06739 0.42020 1.06021
 C247 C -0.13499 0.62266 1.11243
 C248 C -0.12127 0.60118 1.12892
 C249 C -0.12139 0.60201 1.15905
 C250 C -0.13578 0.62624 1.17273
 C251 C -0.14983 0.64887 1.15624
 C252 C -0.14995 0.64669 1.12565
 O253 O -0.13017 0.61891 1.08410
 C254 C -0.11298 0.59459 1.08271
 C255 C -0.10702 0.58283 1.10954
 C256 C -0.08799 0.55850 1.11324
 C257 C -0.07429 0.54592 1.08830
 C258 C -0.07965 0.55780 1.06026
 C259 C -0.09969 0.58235 1.05757
 H260 H -0.11001 0.58510 1.17153
 H261 H -0.13552 0.62765 1.19615
 H262 H -0.15978 0.66402 1.11248
 H263 H -0.08318 0.55002 1.13463
 H264 H -0.05852 0.52767 1.09100
 H265 H -0.10424 0.59211 1.03662
 C266 C -0.10192 0.33292 0.86260
 C267 C -0.08264 0.34278 0.84029
 C268 C -0.07934 0.32786 0.81409
 C269 C -0.09657 0.30167 0.81076
 C270 C -0.11663 0.29092 0.83348
 C271 C -0.11932 0.30703 0.85974
 O272 O -0.10118 0.34992 0.88598
 C273 C -0.08098 0.37099 0.87827
 C274 C -0.06897 0.36766 0.85053
 C275 C -0.04686 0.38684 0.83835
 C276 C -0.03653 0.41025 0.85559
 C277 C -0.04836 0.41402 0.88441
 C278 C -0.07116 0.39415 0.89573
 H279 H -0.06393 0.33598 0.79686
 H280 H -0.09429 0.28995 0.79040
 H281 H -0.13401 0.29945 0.87771
 H282 H -0.03768 0.38375 0.81648
 H283 H -0.01932 0.42541 0.84649
 H284 H -0.08030 0.39609 0.91776
 C285 C 0.10618 0.69659 0.85770
 C286 C 0.08081 0.69117 0.84175
 C287 C 0.07281 0.70903 0.81854
 C288 C 0.09164 0.73361 0.81149
 C289 C 0.11795 0.74004 0.82767
 C290 C 0.12528 0.72099 0.85111
 O291 O 0.10954 0.67683 0.87898
 C292 C 0.08573 0.65863 0.87636
 C293 C 0.06747 0.66648 0.85391
 C294 C 0.04118 0.65077 0.84738
 C295 C 0.03336 0.62583 0.86467
 C296 C 0.05186 0.61693 0.88792
 C297 C 0.07845 0.63379 0.89381
 H298 H 0.05274 0.70422 0.80627
 H299 H 0.08551 0.74743 0.79333
 H300 H 0.14498 0.72507 0.86406
 H301 H 0.02705 0.65758 0.82973
 H302 H 0.01258 0.61375 0.86017
 H303 H 0.09320 0.62762 0.91121
 C304 C 1.08045 0.13863 0.31205
 C305 C 1.06535 0.15998 0.32811
 C306 C 1.06600 0.18998 0.32051
 C307 C 1.08306 0.19841 0.29540
 C308 C 1.09969 0.17697 0.27861
 C309 C 1.09809 0.14651 0.28732
 O310 O 1.07652 0.11128 0.32286
 C311 C 1.05874 0.11556 0.34639
 C312 C 1.05146 0.14498 0.35068
 C313 C 1.03396 0.15458 0.37449
 C314 C 1.02351 0.13297 0.39473
 C315 C 1.03008 0.10219 0.39065
 C316 C 1.04800 0.09358 0.36585
 H317 H 1.05382 0.20638 0.33348
 H318 H 1.08377 0.22184 0.28977
 H319 H 1.10987 0.12922 0.27523
 H320 H 1.02898 0.17797 0.37766
 H321 H 1.01080 0.14049 0.41381
 H322 H 1.05335 0.07050 0.36154
 C323 C 1.12572 -0.06875 0.64575
 C324 C 1.14038 -0.04229 0.63902
 C325 C 1.16515 -0.03198 0.65416
 C326 C 1.17503 -0.04950 0.67738
 C327 C 1.15979 -0.07668 0.68545
 C328 C 1.13487 -0.08637 0.66889
 O329 O 1.10248 -0.07443 0.62888
 C330 C 1.10230 -0.05090 0.61126
 C331 C 1.12492 -0.03050 0.61661
 C332 C 1.12803 -0.00368 0.60144
 C333 C 1.10688 0.00238 0.57996
 C334 C 1.08335 -0.01844 0.57377
 C335 C 1.08142 -0.04563 0.58970
 H336 H 1.17636 -0.01105 0.64846
 H337 H 1.19407 -0.04120 0.68931
 H338 H 1.12258 -0.10689 0.67371
 H339 H 1.14572 0.01229 0.60635
 H340 H 1.10850 0.02363 0.56873
 H341 H 1.06417 -0.06231 0.58558
 C342 C 0.89100 -0.15249 0.35585
 C343 C 0.92029 -0.16285 0.35838
 C344 C 0.93169 -0.18664 0.34235
 C345 C 0.91225 -0.20010 0.32265
 C346 C 0.88191 -0.18953 0.31901
 C347 C 0.87124 -0.16548 0.33644
 O348 O 0.88494 -0.12900 0.37235
 C349 C 0.91105 -0.12437 0.38547
 C350 C 0.93343 -0.14446 0.37768
 C351 C 0.96292 -0.14287 0.38788
 C352 C 0.96969 -0.11946 0.40668
 C353 C 0.94703 -0.09827 0.41504
 C354 C 0.91715 -0.10116 0.40438
 H355 H 0.95490 -0.19435 0.34463
 H356 H 0.92138 -0.21842 0.31007
 H357 H 0.84853 -0.15641 0.33473
 H358 H 0.98030 -0.15868 0.38109
 H359 H 0.99286 -0.11740 0.41394
 H360 H 0.89918 -0.08562 0.41030
 C361 C 0.86217 0.09970 0.65740
 C362 C 0.83854 0.08489 0.64482
 C363 C 0.80953 0.08252 0.65802
 C364 C 0.80472 0.09604 0.68521
 C365 C 0.82865 0.11211 0.69846
 C366 C 0.85780 0.11381 0.68397
 O367 O 0.88829 0.09851 0.64197
 C368 C 0.88096 0.08279 0.61899
 C369 C 0.85077 0.07408 0.61948
 C370 C 0.83841 0.05754 0.59731
 C371 C 0.85803 0.04955 0.57384
 C372 C 0.88958 0.05768 0.57315
 C373 C 0.90093 0.07466 0.59629
 H374 H 0.79128 0.07053 0.64787
 H375 H 0.78214 0.09434 0.69544
 H376 H 0.87704 0.12510 0.69320
 H377 H 0.81450 0.05111 0.59798
 H378 H 0.84850 0.03715 0.55626
 H379 H 0.92482 0.08082 0.59722
 C380 C 0.33560 1.11089 0.14062
 C381 C 0.36238 1.12405 0.14887
 C382 C 0.36321 1.15139 0.16281
 C383 C 0.33528 1.16585 0.16834
 C384 C 0.30731 1.15265 0.16028
 C385 C 0.30747 1.12457 0.14652
 O386 O 0.34007 1.08584 0.12595
 C387 C 0.37033 1.08312 0.12498
 C388 C 0.38499 1.10583 0.13887
 C389 C 0.41663 1.10793 0.13980
 C390 C 0.43395 1.08599 0.12544
 C391 C 0.41953 1.06271 0.11012
 C392 C 0.38712 1.06111 0.11038
 H393 H 0.38463 1.16152 0.16866
 H394 H 0.33541 1.18732 0.17889
 H395 H 0.28650 1.11432 0.13961
 H396 H 0.42762 1.12602 0.15090
 H397 H 0.45864 1.08732 0.12606
 H398 H 0.37531 1.04403 0.09859
 C399 C 0.67000 1.09735 -0.07671
 C400 C 0.66360 1.11481 -0.05294
 C401 C 0.67671 1.14277 -0.04944
 C402 C 0.69742 1.15310 -0.07126
 C403 C 0.70469 1.13546 -0.09601
 C404 C 0.69052 1.10715 -0.09867
 O405 O 0.65496 1.07153 -0.07591
 C406 C 0.63871 1.07276 -0.05108
 C407 C 0.64322 1.09875 -0.03618
 C408 C 0.62843 1.10473 -0.00971
 C409 C 0.60803 1.08308 0.00182
 C410 C 0.60278 1.05606 -0.01316
 C411 C 0.61853 1.05093 -0.04003
 H412 H 0.67120 1.15617 -0.03058
 H413 H 0.70757 1.17491 -0.06873
 H414 H 0.69544 1.09291 -0.11703
 H415 H 0.63226 1.12542 0.00155
 H416 H 0.59582 1.08768 0.02211
 H417 H 0.61526 1.03053 -0.05195
 C418 C 0.35288 0.88489 -0.10985
 C419 C 0.37378 0.90099 -0.12671
 C420 C 0.36966 0.90743 -0.15581
 C421 C 0.34267 0.89727 -0.16800
 C422 C 0.32043 0.88101 -0.15106
 C423 C 0.32595 0.87421 -0.12166
 O424 O 0.36025 0.88314 -0.08217
 C425 C 0.38627 0.89856 -0.08158
 C426 C 0.39549 0.90990 -0.10832
 C427 C 0.42080 0.92855 -0.11244
 C428 C 0.43706 0.93619 -0.08792
 C429 C 0.42792 0.92507 -0.06005
 C430 C 0.40247 0.90552 -0.05689
 H431 H 0.38627 0.92048 -0.16850
 H432 H 0.33892 0.90248 -0.19055
 H433 H 0.30911 0.86244 -0.10804
 H434 H 0.42725 0.93759 -0.13364
 H435 H 0.45646 0.95123 -0.09048
 H436 H 0.39465 0.89734 -0.03573
 C437 C 0.64539 0.83859 0.15570
 C438 C 0.63064 0.85486 0.17705
 C439 C 0.64022 0.85561 0.20542
 C440 C 0.66630 0.83919 0.21203
 C441 C 0.68245 0.82260 0.19033
 C442 C 0.67142 0.82206 0.16179
 O443 O 0.63322 0.84189 0.12989
 C444 C 0.61040 0.86076 0.13508
 C445 C 0.60790 0.86937 0.16358
 C446 C 0.58674 0.89024 0.17349
 C447 C 0.56753 0.90300 0.15314
 C448 C 0.56947 0.89460 0.12343
 C449 C 0.59116 0.87278 0.11452
 H450 H 0.62828 0.86869 0.22181
 H451 H 0.67392 0.83972 0.23407
 H452 H 0.68322 0.81005 0.14455
 H453 H 0.58565 0.89711 0.19595
 H454 H 0.55196 0.92023 0.16051
 H455 H 0.59346 0.86566 0.09220
   
