data_POSCAR
  _audit_creation_date              2014-09-24
  _audit_creation_method            'ToBaCCo'
  _symmetry_space_group_name_H-M    'P1'
  _symmetry_Int_Tables_number       1
  _symmetry_cell_setting            triclinic
  loop_
  _symmetry_equiv_pos_as_xyz
 x,y,z
_cell_length_a 22.9351
_cell_length_b 22.9750
_cell_length_c 26.8711
_cell_angle_alpha 90.863600
_cell_angle_beta 88.872800
_cell_angle_gamma 90.282300
loop_
  _atom_site_label
  _atom_site_type_symbol
  _atom_site_fract_x
  _atom_site_fract_y
  _atom_site_fract_z
O1 O 0.05220 0.55741 1.04562
 O2 O 0.04796 0.44794 0.94661
 O3 O 0.03818 0.56144 0.94985
 O4 O 0.04423 0.44382 1.04342
 O5 O -0.05164 0.44763 1.05069
 O6 O -0.05767 0.55514 0.95311
 O7 O -0.04779 0.44159 0.95397
 O8 O -0.04387 0.56102 1.04903
 Cu9 Cu 0.05500 0.50276 0.99582
 Cu10 Cu -0.05960 0.50126 1.00214
 C11 C 0.00567 0.57919 1.06366
 C12 C 0.00025 0.42463 0.93404
 C13 C -0.01164 0.57833 0.93553
 C14 C -0.00353 0.42606 1.06320
 O15 O 0.44851 -0.05444 0.44839
 O16 O 0.55563 -0.05965 0.54555
 O17 O 0.44073 -0.04413 0.54646
 O18 O 0.56060 -0.04094 0.45109
 O19 O 0.55819 0.05498 0.45535
 O20 O 0.44817 0.05129 0.55398
 O21 O 0.56037 0.03607 0.54972
 O22 O 0.44324 0.04109 0.45588
 Cu23 Cu 0.50051 -0.05850 0.49809
 Cu24 Cu 0.50184 0.05449 0.50367
 C25 C 0.42635 -0.00670 0.43584
 C26 C 0.57816 -0.01371 0.56349
 C27 C 0.42428 0.00390 0.56661
 C28 C 0.57967 0.00861 0.43699
 C29 C -0.07219 0.01612 0.26918
 C30 C -0.01630 0.02758 0.24945
 C31 C -0.00368 0.08250 0.22968
 C32 C -0.04671 0.12543 0.22922
 C33 C -0.10241 0.11390 0.24934
 C34 C -0.11503 0.05922 0.26952
 C35 C 0.02875 -0.01795 0.24939
 C36 C 0.01656 -0.07366 0.23007
 C37 C 0.05916 -0.11700 0.22992
 C38 C 0.11407 -0.10505 0.24986
 C39 C 0.12632 -0.04953 0.26957
 C40 C 0.08390 -0.00602 0.26891
 H41 H -0.08197 -0.02599 0.28511
 H42 H 0.03921 0.09138 0.21377
 H43 H -0.02574 -0.08292 0.21435
 H44 H 0.09331 0.03672 0.28454
 H45 H -0.13570 0.14725 0.24929
 H46 H 0.14701 -0.13873 0.25008
 C47 C -0.01663 -0.08207 0.76993
 C48 C -0.02817 -0.02716 0.75029
 C49 C -0.08306 -0.01611 0.73039
 C50 C -0.12588 -0.05966 0.72971
 C51 C -0.11429 -0.11434 0.74973
 C52 C -0.05965 -0.12544 0.77003
 C53 C 0.01714 0.01858 0.75046
 C54 C 0.07325 0.00666 0.73131
 C55 C 0.11618 0.05011 0.73103
 C56 C 0.10342 0.10560 0.75068
 C57 C 0.04753 0.11760 0.77023
 C58 C 0.00444 0.07430 0.76972
 H59 H 0.02543 -0.09063 0.78597
 H60 H -0.09197 0.02596 0.71451
 H61 H 0.08311 -0.03608 0.71576
 H62 H -0.03861 0.08357 0.78516
 H63 H -0.14757 -0.14804 0.74950
 H64 H 0.13677 0.13923 0.75076
 C65 C 0.02605 -0.27296 0.16110
 C66 C 0.07246 -0.31105 0.15204
 C67 C 0.06483 -0.36045 0.12203
 C68 C 0.01053 -0.37259 0.10051
 C69 C -0.03670 -0.33544 0.11146
 C70 C -0.02885 -0.28567 0.14147
 C71 C 0.03651 -0.21888 0.18724
 C72 C 0.04677 -0.17289 0.20752
 H73 H 0.11511 -0.30164 0.16692
 H74 H 0.10202 -0.38832 0.11457
 H75 H -0.07889 -0.34353 0.09526
 H76 H -0.06505 -0.25627 0.14811
 C77 C -0.01541 0.27958 0.15975
 C78 C -0.06116 0.31933 0.15783
 C79 C -0.05591 0.36837 0.12810
 C80 C -0.00470 0.37851 0.09974
 C81 C 0.04224 0.33981 0.10356
 C82 C 0.03675 0.29035 0.13329
 C83 C -0.02441 0.22588 0.18577
 C84 C -0.03414 0.18042 0.20628
 H85 H -0.10170 0.31145 0.17806
 H86 H -0.09275 0.39752 0.12622
 H87 H 0.08203 0.34636 0.08196
 H88 H 0.07240 0.25966 0.13439
 C89 C 0.27390 0.01854 0.66307
 C90 C 0.31463 0.06386 0.66048
 C91 C 0.36496 0.05774 0.63091
 C92 C 0.37538 0.00609 0.60336
 C93 C 0.33560 -0.04038 0.60791
 C94 C 0.28492 -0.03403 0.63750
 C95 C 0.21903 0.02822 0.68872
 C96 C 0.17252 0.03801 0.70876
 H97 H 0.30656 0.10472 0.68002
 H98 H 0.39486 0.09426 0.62841
 H99 H 0.34231 -0.08050 0.58696
 H100 H 0.25351 -0.06935 0.63911
 C101 C -0.27854 -0.03196 0.65835
 C102 C -0.30951 -0.08084 0.64205
 C103 C -0.35777 -0.07447 0.61191
 C104 C -0.37612 -0.01880 0.59728
 C105 C -0.34581 0.03043 0.61538
 C106 C -0.29713 0.02378 0.64554
 C107 C -0.22573 -0.04005 0.68543
 C108 C -0.18069 -0.04870 0.70646
 H109 H -0.29551 -0.12416 0.65166
 H110 H -0.37987 -0.11360 0.59926
 H111 H -0.35852 0.07392 0.60514
 H112 H -0.27326 0.06197 0.65791
 C113 C -0.03057 -0.27847 0.84049
 C114 C -0.07926 -0.31049 0.85608
 C115 C -0.07261 -0.35879 0.88618
 C116 C -0.01684 -0.37613 0.90149
 C117 C 0.03227 -0.34484 0.88399
 C118 C 0.02533 -0.29610 0.85388
 C119 C -0.03911 -0.22549 0.81369
 C120 C -0.04818 -0.18035 0.79294
 H121 H -0.12270 -0.29723 0.84601
 H122 H -0.11165 -0.38168 0.89833
 H123 H 0.07584 -0.35675 0.89475
 H124 H 0.06338 -0.27142 0.84206
 C125 C 0.01468 0.27456 0.83808
 C126 C -0.03782 0.28532 0.86417
 C127 C -0.04417 0.33590 0.89359
 C128 C 0.00224 0.37584 0.89748
 C129 C 0.05377 0.36567 0.86941
 C130 C 0.05988 0.31546 0.83999
 C131 C 0.02452 0.21984 0.81256
 C132 C 0.03470 0.17356 0.79255
 H133 H -0.07305 0.25377 0.86308
 H134 H -0.08418 0.34243 0.91497
 H135 H 0.09023 0.39570 0.87138
 H136 H 0.10068 0.30761 0.82005
 C137 C -0.27142 0.02821 0.33955
 C138 C -0.28553 -0.02684 0.35828
 C139 C -0.33553 -0.03429 0.38842
 C140 C -0.37154 0.01347 0.40038
 C141 C -0.35793 0.06803 0.37987
 C142 C -0.30830 0.07528 0.34974
 C143 C -0.21721 0.03796 0.31302
 C144 C -0.17109 0.04759 0.29237
 H145 H -0.25707 -0.06356 0.35076
 H146 H -0.34477 -0.07671 0.40382
 H147 H -0.38489 0.10566 0.38812
 H148 H -0.29780 0.11805 0.33556
 C149 C 0.28053 -0.01916 0.33892
 C150 C 0.32019 -0.06491 0.34146
 C151 C 0.36905 -0.05953 0.37129
 C152 C 0.37907 -0.00818 0.39916
 C153 C 0.34044 0.03871 0.39472
 C154 C 0.29120 0.03310 0.36488
 C155 C 0.22693 -0.02814 0.31284
 C156 C 0.18146 -0.03759 0.29237
 H157 H 0.31237 -0.10554 0.32163
 H158 H 0.39811 -0.09635 0.37367
 H159 H 0.34689 0.07861 0.41591
 H160 H 0.26058 0.06874 0.36330
   
