data_POSCAR
  _audit_creation_date              2014-09-24
  _audit_creation_method            'ToBaCCo'
  _symmetry_space_group_name_H-M    'P1'
  _symmetry_Int_Tables_number       1
  _symmetry_cell_setting            triclinic
  loop_
  _symmetry_equiv_pos_as_xyz
 x,y,z
_cell_length_a 20.4750
_cell_length_b 17.0862
_cell_length_c 17.3043
_cell_angle_alpha 89.459000
_cell_angle_beta 90.564100
_cell_angle_gamma 90.303000
loop_
  _atom_site_label
  _atom_site_type_symbol
  _atom_site_fract_x
  _atom_site_fract_y
  _atom_site_fract_z
C1 C 0.51063 0.98496 -0.53245
 C2 C 0.51080 1.01388 -0.45949
 C3 C 0.57189 1.03782 -0.41926
 C4 C 0.44932 1.03473 -0.42046
 C5 C 0.44891 0.96256 -0.57196
 C6 C 0.57170 0.96506 -0.57358
 C7 C 0.60838 1.10132 -0.44711
 C8 C 0.66251 1.12906 -0.40560
 C9 C 0.68221 1.09324 -0.33500
 C10 C 0.64543 1.02853 -0.30818
 C11 C 0.59060 1.00182 -0.34940
 C12 C 0.41981 0.98355 -0.36720
 C13 C 0.36506 1.00746 -0.32548
 C14 C 0.33901 1.08280 -0.33661
 C15 C 0.36908 1.13356 -0.39034
 C16 C 0.42359 1.10971 -0.43165
 C17 C 0.41554 1.01559 -0.62032
 C18 C 0.36101 0.99086 -0.66352
 C19 C 0.33883 0.91295 -0.65841
 C20 C 0.37245 0.86041 -0.60926
 C21 C 0.42699 0.88500 -0.56675
 C22 C 0.58303 0.99485 -0.64827
 C23 C 0.63690 0.97002 -0.69070
 C24 C 0.67990 0.91384 -0.65985
 C25 C 0.66901 0.88515 -0.58438
 C26 C 0.61546 0.91041 -0.54186
 H27 H 0.59402 1.13059 -0.50039
 H28 H 0.68836 1.17850 -0.43006
 H29 H 0.65830 0.99879 -0.25462
 H30 H 0.56260 0.95301 -0.32663
 H31 H 0.43963 0.92564 -0.35732
 H32 H 0.34302 0.96702 -0.28470
 H33 H 0.44653 1.15034 -0.47159
 H34 H 0.43242 1.07556 -0.62559
 H35 H 0.33605 1.03265 -0.70066
 H36 H 0.35762 0.79972 -0.60458
 H37 H 0.45292 0.84312 -0.53061
 H38 H 0.54973 1.03680 -0.67413
 H39 H 0.64414 0.99354 -0.74834
 H40 H 0.70158 0.84297 -0.55778
 H41 H 0.60717 0.88564 -0.48493
 H42 H 0.35151 1.19243 -0.39990
 C43 C -0.49485 1.46130 0.01653
 C44 C -0.49623 1.53315 -0.01721
 C45 C -0.43567 1.57396 -0.04029
 C46 C -0.55799 1.57327 -0.03796
 C47 C -0.55482 1.41979 0.04061
 C48 C -0.43281 1.42319 0.03836
 C49 C -0.39769 1.61480 0.01396
 C50 C -0.34414 1.65965 -0.01027
 C51 C -0.32763 1.66343 -0.08888
 C52 C -0.36577 1.62183 -0.14278
 C53 C -0.41953 1.57788 -0.11864
 C54 C -0.60235 1.53955 -0.09024
 C55 C -0.65706 1.58137 -0.11570
 C56 C -0.66826 1.65791 -0.08947
 C57 C -0.62434 1.69082 -0.03597
 C58 C -0.56943 1.64912 -0.01095
 C59 C -0.59110 1.44723 0.10271
 C60 C -0.64426 1.40409 0.13023
 C61 C -0.66273 1.33270 0.09543
 C62 C -0.62636 1.30633 0.03221
 C63 C -0.57251 1.34902 0.00572
 C64 C -0.39983 1.37590 -0.01407
 C65 C -0.34434 1.33434 0.00984
 C66 C -0.32093 1.34022 0.08623
 C67 C -0.35420 1.38822 0.13826
 C68 C -0.40982 1.42900 0.11452
 H69 H -0.41036 1.61318 0.07458
 H70 H -0.31546 1.69103 0.03240
 H71 H -0.35504 1.62438 -0.20384
 H72 H -0.44917 1.54758 -0.16120
 H73 H -0.59375 1.48163 -0.11280
 H74 H -0.69030 1.55339 -0.15587
 H75 H -0.53539 1.67635 0.02900
 H76 H -0.57737 1.50134 0.13084
 H77 H -0.67058 1.42773 0.17841
 H78 H -0.63885 1.25203 0.00367
 H79 H -0.54443 1.32676 -0.04195
 H80 H -0.41770 1.37024 -0.07288
 H81 H -0.31956 1.29792 -0.03141
 H82 H -0.33822 1.39325 0.19777
 H83 H -0.43553 1.46445 0.15582
 H84 H -0.63183 1.74939 -0.01448
 C85 C -0.03904 0.52998 0.47455
 C86 C -0.03675 0.46852 0.52505
 C87 C -0.03119 0.38594 0.49926
 C88 C -0.03739 0.47842 0.60984
 C89 C -0.03687 0.61308 0.49967
 C90 C -0.04079 0.51876 0.38999
 C91 C -0.07237 0.35520 0.44183
 C92 C -0.06245 0.27975 0.41478
 C93 C -0.01363 0.23166 0.44761
 C94 C 0.02305 0.25967 0.51062
 C95 C 0.01514 0.33658 0.53508
 C96 C -0.08492 0.43745 0.65151
 C97 C -0.07675 0.42466 0.73024
 C98 C -0.02119 0.45349 0.76919
 C99 C 0.02165 0.50429 0.72951
 C100 C 0.01436 0.51515 0.64951
 C101 C 0.00544 0.66609 0.46218
 C102 C 0.01165 0.74314 0.48730
 C103 C -0.02264 0.76783 0.55251
 C104 C -0.06807 0.71621 0.58672
 C105 C -0.07644 0.64045 0.55914
 C106 C 0.01355 0.48988 0.35057
 C107 C 0.01739 0.49897 0.27026
 C108 C -0.03276 0.53777 0.22976
 C109 C -0.08960 0.55922 0.26848
 C110 C -0.09362 0.54972 0.34809
 H111 H -0.11123 0.38999 0.41655
 H112 H -0.09295 0.25926 0.36751
 H113 H 0.06093 0.22473 0.53774
 H114 H 0.04659 0.35825 0.58090
 H115 H -0.12550 0.40950 0.62181
 H116 H -0.11173 0.38717 0.75947
 H117 H 0.05162 0.54688 0.61793
 H118 H 0.03555 0.64717 0.41484
 H119 H 0.04679 0.78086 0.45892
 H120 H -0.09685 0.73406 0.63567
 H121 H -0.11246 0.60267 0.58593
 H122 H 0.05496 0.46649 0.38244
 H123 H 0.06219 0.48365 0.24142
 H124 H -0.12833 0.59012 0.23810
 H125 H -0.13578 0.57224 0.37784
 H126 H 0.06474 0.52808 0.75755
 O127 O -0.16203 1.05427 -0.09292
 O128 O 0.17586 1.04465 -0.09524
 O129 O 0.00506 1.19398 -0.11406
 O130 O 0.00806 1.01474 -0.22374
 O131 O 0.00449 0.88413 -0.18908
 O132 O 0.01161 1.22695 0.01468
 O133 O 0.09479 1.09979 -0.17165
 O134 O -0.08036 1.10617 -0.16943
 Zr135 Zr 0.00728 1.07050 -0.11554
 O136 O 0.06598 0.97484 -0.09475
 O137 O -0.05132 1.09778 -0.02409
 C138 C -0.14113 1.09278 -0.15318
 C139 C 0.15513 1.08225 -0.15646
 C140 C 0.00769 1.24399 -0.05813
 C141 C 0.00611 0.94077 -0.23928
 H142 H 0.09655 1.14071 -0.03654
 O143 O 0.06834 1.09524 -0.02418
 H144 H -0.08128 0.96473 -0.13920
 O145 O -0.05318 0.97660 -0.09402
 O146 O 0.17563 0.94962 0.09731
 O147 O -0.16232 0.95046 0.09380
 O148 O 0.09832 1.16720 0.10556
 O149 O 0.09158 0.82866 -0.10317
 O150 O -0.08294 0.82758 -0.09816
 O151 O -0.07606 1.17498 0.09859
 O152 O 0.01121 0.98433 0.22525
 O153 O 0.00071 0.80553 0.11582
 O154 O 0.01079 1.11499 0.19057
 O155 O 0.00319 0.77241 -0.01294
 O156 O 0.17836 1.09027 0.05245
 O157 O -0.15910 1.09902 0.04715
 O158 O -0.16279 0.90602 -0.04663
 O159 O 0.17463 0.90333 -0.05003
 O160 O 0.09416 0.89672 0.17349
 O161 O -0.08124 0.89590 0.17062
 Zr162 Zr 0.12394 0.99777 0.00088
 Zr163 Zr -0.10938 1.00157 0.00057
 Zr164 Zr 0.00988 1.11640 0.06914
 Zr165 Zr 0.00526 0.88284 -0.06764
 Zr166 Zr 0.00674 0.92880 0.11706
 O167 O -0.05402 0.90349 0.02537
 O168 O 0.06805 1.02248 0.09629
 C169 C 0.15472 0.91273 0.15849
 C170 C -0.14179 0.91110 0.15403
 C171 C 0.15858 1.14996 0.09193
 C172 C 0.15253 0.84396 -0.08911
 C173 C -0.14305 0.84454 -0.08334
 C174 C -0.13689 1.16019 0.08333
 C175 C 0.01169 1.05829 0.24074
 C176 C 0.00005 0.75546 0.05990
 H177 H -0.07824 1.03753 0.14049
 O178 O -0.05114 1.02467 0.09546
 H179 H 0.09249 0.85566 0.03847
 O180 O 0.06567 0.90209 0.02588
 C181 C 0.28037 0.88700 0.29696
 C182 C 0.24273 0.82235 0.31597
 C183 C 0.19215 0.82237 0.26454
 C184 C 0.20256 0.88635 0.21710
 O185 O 0.25587 0.92612 0.23670
 H186 H 0.24948 0.78163 0.36357
 H187 H 0.15138 0.78179 0.26302
 C188 C -0.26424 0.88585 0.29370
 C189 C -0.22803 0.81972 0.31082
 C190 C -0.17950 0.81864 0.25777
 C191 C -0.18967 0.88344 0.21125
 O192 O -0.24116 0.92435 0.23261
 H193 H -0.23500 0.77772 0.35718
 H194 H -0.14001 0.77691 0.25476
 C195 C -0.26484 1.11867 -0.29415
 C196 C -0.22535 1.18201 -0.31389
 C197 C -0.17622 1.18287 -0.26049
 C198 C -0.18882 1.12105 -0.21116
 O199 O -0.24254 1.08222 -0.23091
 H200 H -0.22969 1.22233 -0.36212
 H201 H -0.13459 1.22220 -0.25933
 C202 C 0.28025 1.10787 -0.29349
 C203 C 0.24170 1.17093 -0.31455
 C204 C 0.19148 1.17073 -0.26391
 C205 C 0.20272 1.10815 -0.21488
 O206 O 0.25645 1.06947 -0.23266
 H207 H 0.24753 1.21087 -0.36285
 H208 H 0.15034 1.21027 -0.26398
 C209 C 0.28310 1.28885 0.12125
 C210 C 0.24497 1.30669 0.18439
 C211 C 0.19560 1.25327 0.18409
 C212 C 0.20700 1.20603 0.12164
 O213 O 0.26011 1.22696 0.08363
 H214 H 0.25055 1.35388 0.22511
 H215 H 0.15447 1.25096 0.22290
 C216 C 0.27431 0.70346 -0.11632
 C217 C 0.23484 0.68421 -0.17865
 C218 C 0.18576 0.73750 -0.17890
 C219 C 0.19902 0.78602 -0.11744
 O220 O 0.25277 0.76581 -0.07945
 H221 H 0.23996 0.63625 -0.21841
 H222 H 0.14394 0.73925 -0.21764
 C223 C -0.27028 0.70966 -0.11407
 C224 C -0.23553 0.69554 -0.18053
 C225 C -0.18431 0.74642 -0.17860
 C226 C -0.19188 0.78855 -0.11180
 O227 O -0.24375 0.76632 -0.07217
 H228 H -0.24457 0.65126 -0.22365
 H229 H -0.14506 0.75103 -0.21989
 C230 C -0.26165 1.29717 0.11092
 C231 C -0.22234 1.31762 0.17300
 C232 C -0.17142 1.26698 0.17195
 C233 C -0.18350 1.21878 0.10994
 O234 O -0.23804 1.23696 0.07250
 H235 H -0.22834 1.36562 0.21258
 H236 H -0.12951 1.26639 0.21060
 C237 C 0.00110 1.16089 0.41192
 C238 C 0.04080 1.10150 0.44038
 C239 C 0.04650 1.04975 0.38091
 C240 C 0.01094 1.08248 0.32102
 O241 O -0.01693 1.14857 0.33986
 H242 H 0.06423 1.09698 0.49651
 H243 H 0.07636 0.99771 0.37966
 C244 C -0.00434 1.41906 -0.15978
 C245 C 0.04427 1.44282 -0.10879
 C246 C 0.05098 1.38226 -0.05690
 C247 C 0.00698 1.32618 -0.08130
 O248 O -0.02682 1.34872 -0.14228
 H249 H 0.07355 1.49567 -0.11102
 H250 H 0.08743 1.37680 -0.01147
 C251 C -0.00835 0.83886 -0.41124
 C252 C 0.02808 0.90088 -0.44051
 C253 C 0.03502 0.95213 -0.38059
 C254 C 0.00344 0.91661 -0.31966
 O255 O -0.02329 0.84919 -0.33827
 H256 H 0.04850 0.90762 -0.49759
 H257 H 0.06300 1.00604 -0.37999
 C258 C -0.01911 0.57773 0.15660
 C259 C 0.01068 0.54716 0.09248
 C260 C 0.01923 0.60987 0.04347
 C261 C -0.00464 0.67330 0.08301
 O262 O -0.02788 0.65375 0.15092
 H263 H 0.02567 0.48732 0.08358
 H264 H 0.04288 0.61008 -0.01218
   
