data_POSCAR
  _audit_creation_date              2014-09-24
  _audit_creation_method            'ToBaCCo'
  _symmetry_space_group_name_H-M    'P1'
  _symmetry_Int_Tables_number       1
  _symmetry_cell_setting            triclinic
  loop_
  _symmetry_equiv_pos_as_xyz
 x,y,z
_cell_length_a 25.2925
_cell_length_b 25.0939
_cell_length_c 48.1262
_cell_angle_alpha 85.580000
_cell_angle_beta 93.568000
_cell_angle_gamma 84.199600
loop_
  _atom_site_label
  _atom_site_type_symbol
  _atom_site_fract_x
  _atom_site_fract_y
  _atom_site_fract_z
C1 C 0.02986 0.63016 1.00549
 C2 C 0.01575 0.60056 1.02949
 C3 C 0.00447 0.54716 1.02707
 C4 C 0.01199 0.52191 1.00222
 C5 C 0.02855 0.55231 0.97909
 C6 C 0.03516 0.60726 0.97984
 C7 C 0.00323 0.46385 1.00038
 C8 C -0.00859 0.44391 0.97427
 C9 C -0.01474 0.38944 0.97227
 C10 C -0.01164 0.35467 0.99656
 C11 C -0.00064 0.37326 1.02277
 C12 C 0.00749 0.42744 1.02456
 H13 H 0.03174 0.67283 1.00633
 H14 H -0.00821 0.52452 1.04495
 H15 H 0.03835 0.53268 0.96062
 H16 H -0.01356 0.47024 0.95521
 H17 H -0.01687 0.31263 0.99499
 H18 H 0.01881 0.44008 1.04485
 C19 C 0.35236 0.02321 0.49841
 C20 C 0.38302 0.01878 0.52388
 C21 C 0.43879 0.01394 0.52386
 C22 C 0.46429 0.01760 0.49857
 C23 C 0.43206 0.02412 0.47321
 C24 C 0.37644 0.02520 0.47297
 C25 C 0.52397 0.01533 0.49855
 C26 C 0.55054 0.00007 0.47500
 C27 C 0.60614 -0.00039 0.47415
 C28 C 0.63541 0.01313 0.49798
 C29 C 0.61062 0.02682 0.52222
 C30 C 0.55480 0.02862 0.52197
 H31 H 0.30947 0.02381 0.49850
 H32 H 0.46172 0.00801 0.54375
 H33 H 0.44956 0.02928 0.45339
 H34 H 0.52834 -0.01425 0.45771
 H35 H 0.67811 0.01270 0.49776
 H36 H 0.53540 0.04326 0.53968
 C37 C 0.07458 -0.02909 0.26719
 H38 H 0.07952 -0.02943 0.24504
 C39 C 0.11732 -0.01962 0.28540
 H40 H 0.15527 -0.01319 0.27718
 C41 C 0.01845 -0.03427 0.30472
 H42 H -0.02022 -0.03900 0.31226
 C43 C 0.05979 -0.02453 0.32352
 H44 H 0.05261 -0.02310 0.34542
 N45 N 0.02637 -0.03653 0.27711
 C46 C -0.06748 -0.12461 0.22071
 H47 H -0.10601 -0.10248 0.22228
 C48 C -0.06264 -0.16657 0.20331
 H49 H -0.09769 -0.17643 0.19151
 C50 C 0.02558 -0.13567 0.23254
 H51 H 0.05996 -0.12305 0.24361
 C52 C 0.03228 -0.17760 0.21517
 H53 H 0.07190 -0.19705 0.21312
 Zn54 Zn -0.03267 -0.04401 0.25188
 N55 N -0.02351 -0.10895 0.23421
 C56 C -0.03864 0.00394 0.19686
 N57 N -0.03788 0.01453 0.22416
 C58 C -0.03452 0.06526 0.23179
 C59 C -0.03012 0.10750 0.21156
 C60 C -0.03448 0.04476 0.17608
 C61 C -0.09872 -0.09012 0.28850
 C62 C -0.13856 -0.09163 0.30718
 C63 C -0.17136 -0.00032 0.29032
 C64 C -0.13070 -0.00055 0.27187
 N65 N -0.09455 -0.04455 0.27195
 H66 H -0.04069 -0.03652 0.19108
 H67 H -0.03300 0.07247 0.25369
 H68 H -0.02543 0.14723 0.21803
 H69 H -0.03457 0.03520 0.15451
 H70 H -0.06943 -0.12453 0.28807
 H71 H -0.14016 -0.12770 0.32085
 H72 H -0.19815 0.03593 0.29111
 H73 H -0.12663 0.03518 0.25849
 C74 C -0.01201 -0.19240 0.19967
 C75 C 0.10991 -0.01672 0.31394
 C76 C -0.17451 -0.04577 0.30888
 C77 C -0.02879 0.09707 0.18334
 C78 C -0.02845 0.12521 0.76751
 H79 H -0.05936 0.12051 0.75172
 C80 C -0.03608 0.16668 0.78508
 H81 H -0.07305 0.19296 0.78285
 C82 C 0.05715 0.09756 0.78972
 H83 H 0.09342 0.07054 0.79151
 C84 C 0.05153 0.13901 0.80743
 H85 H 0.08324 0.14287 0.82310
 N86 N 0.01682 0.09034 0.77077
 C87 C 0.10901 -0.01891 0.72256
 H88 H 0.09417 -0.05611 0.72977
 C89 C 0.14958 -0.01963 0.70416
 H90 H 0.16571 -0.05766 0.69732
 C91 C 0.10266 0.07621 0.72095
 H92 H 0.08310 0.11345 0.72702
 C93 C 0.14307 0.07735 0.70248
 H94 H 0.15507 0.11569 0.69481
 Zn95 Zn 0.02405 0.02836 0.75019
 N96 N 0.08596 0.02860 0.73019
 C97 C -0.02612 0.02683 0.69654
 N98 N -0.03580 0.02846 0.72396
 C99 C -0.08655 0.03144 0.73213
 C100 C -0.12989 0.03493 0.71228
 C101 C -0.06804 0.02932 0.67614
 C102 C 0.07731 -0.04540 0.79201
 C103 C 0.08393 -0.08922 0.81206
 C104 C -0.00383 -0.11086 0.79740
 C105 C -0.00867 -0.06671 0.77752
 N106 N 0.03116 -0.03427 0.77559
 H107 H 0.01422 0.02390 0.69027
 H108 H -0.09349 0.03248 0.75404
 H109 H -0.16991 0.03913 0.71918
 H110 H -0.05889 0.02706 0.65456
 H111 H 0.10928 -0.02038 0.78948
 H112 H 0.12100 -0.09721 0.82490
 H113 H -0.03680 -0.13496 0.79925
 H114 H -0.04468 -0.05805 0.76402
 C115 C 0.16620 0.02904 0.69334
 C116 C 0.00382 0.17321 0.80571
 C117 C 0.04267 -0.12216 0.81530
 C118 C -0.12093 0.03451 0.68375
 C119 C 0.00585 -0.32374 0.10579
 C120 C 0.04328 -0.31024 0.08651
 C121 C 0.04621 -0.33553 0.06160
 C122 C 0.01281 -0.37532 0.05522
 C123 C -0.02278 -0.39014 0.07515
 C124 C -0.02644 -0.36461 0.09990
 C125 C 0.00212 -0.29340 0.13144
 C126 C -0.03647 -0.30060 0.15095
 C127 C -0.04011 -0.26898 0.17359
 C128 C -0.00498 -0.23000 0.17757
 C129 C 0.03446 -0.22360 0.15873
 C130 C 0.03779 -0.25426 0.13563
 C131 C 0.07776 -0.27149 0.09210
 C132 C 0.07539 -0.24446 0.11624
 H133 H 0.10689 -0.26161 0.07746
 H134 H 0.10268 -0.21451 0.11946
 H135 H 0.07622 -0.32514 0.04760
 H136 H -0.05011 -0.41964 0.07125
 H137 H -0.07088 -0.27458 0.18789
 H138 H 0.06102 -0.19273 0.16129
 H139 H -0.05515 -0.37718 0.11402
 H140 H -0.06499 -0.32943 0.14875
 C141 C 0.00197 0.25766 0.09387
 C142 C -0.02701 0.30899 0.09389
 C143 C -0.02576 0.34760 0.07121
 C144 C 0.00300 0.33529 0.04811
 C145 C 0.03264 0.28495 0.04846
 C146 C 0.03243 0.24670 0.07102
 C147 C -0.00270 0.21654 0.11765
 C148 C 0.02405 0.16427 0.11928
 C149 C 0.01601 0.12634 0.14086
 C150 C -0.01876 0.13925 0.16151
 C151 C -0.04406 0.19184 0.16077
 C152 C -0.03646 0.23041 0.13896
 C153 C -0.05835 0.32080 0.11609
 C154 C -0.06312 0.28232 0.13808
 H155 H -0.08041 0.36012 0.11619
 H156 H -0.08867 0.29318 0.15446
 H157 H -0.04905 0.38640 0.07094
 H158 H 0.05562 0.27491 0.03097
 H159 H 0.03719 0.08651 0.14137
 H160 H -0.07093 0.20225 0.17667
 H161 H 0.05551 0.20856 0.06978
 H162 H 0.05104 0.15150 0.10404
 C163 C 0.30135 0.02339 0.59994
 C164 C 0.28548 0.06111 0.57677
 C165 C 0.31281 0.05946 0.55235
 C166 C 0.35609 0.02068 0.55037
 C167 C 0.37272 -0.01592 0.57350
 C168 C 0.34572 -0.01472 0.59799
 C169 C 0.26947 0.02536 0.62523
 C170 C 0.28042 -0.01142 0.64907
 C171 C 0.24780 -0.00938 0.67146
 C172 C 0.20372 0.02954 0.67080
 C173 C 0.19336 0.06713 0.64749
 C174 C 0.22547 0.06517 0.62479
 C175 C 0.24209 0.09999 0.57791
 C176 C 0.21280 0.10205 0.60142
 H177 H 0.23021 0.12903 0.56021
 H178 H 0.17920 0.13259 0.60112
 H179 H 0.30036 0.08857 0.53474
 H180 H 0.40600 -0.04627 0.57243
 H181 H 0.25689 -0.03860 0.68932
 H182 H 0.15884 0.09677 0.64649
 H183 H 0.35991 -0.04421 0.61500
 H184 H 0.31342 -0.04251 0.65067
 C185 C -0.28869 0.04393 0.59445
 C186 C -0.27598 0.06450 0.56780
 C187 C -0.31022 0.06044 0.54419
 C188 C -0.35826 0.03695 0.54643
 C189 C -0.37289 0.02116 0.57339
 C190 C -0.33846 0.02409 0.59700
 C191 C -0.24810 0.04362 0.61860
 C192 C -0.25349 0.01779 0.64520
 C193 C -0.21278 0.01561 0.66645
 C194 C -0.16592 0.03961 0.66187
 C195 C -0.16118 0.06694 0.63570
 C196 C -0.20095 0.06791 0.61399
 C197 C -0.22886 0.08856 0.56473
 C198 C -0.19262 0.09113 0.58744
 H199 H -0.21960 0.10530 0.54438
 H200 H -0.15653 0.10979 0.58393
 H201 H -0.29949 0.07654 0.52401
 H202 H -0.40937 0.00292 0.57631
 H203 H -0.21744 -0.00639 0.68624
 H204 H -0.12581 0.08668 0.63192
 H205 H -0.35113 0.00982 0.61698
 H206 H -0.28799 -0.00246 0.64972
 C207 C 0.05024 -0.28956 0.90658
 C208 C 0.07157 -0.27736 0.93291
 C209 C 0.06901 -0.31279 0.95670
 C210 C 0.04415 -0.36052 0.95523
 C211 C 0.02550 -0.37346 0.92857
 C212 C 0.02847 -0.33871 0.90474
 C213 C 0.05038 -0.24876 0.88206
 C214 C 0.02819 -0.25595 0.85516
 C215 C 0.02665 -0.21538 0.83345
 C216 C 0.04726 -0.16664 0.83788
 C217 C 0.07069 -0.15971 0.86441
 C218 C 0.07228 -0.20009 0.88640
 C219 C 0.09425 -0.22917 0.93555
 C220 C 0.09454 -0.19137 0.91282
 H221 H 0.11106 -0.21998 0.95567
 H222 H 0.11166 -0.15426 0.91610
 H223 H 0.08698 -0.30281 0.97638
 H224 H 0.00519 -0.40885 0.92596
 H225 H 0.00916 -0.22221 0.81309
 H226 H 0.08611 -0.12200 0.86827
 H227 H 0.01205 -0.35051 0.88521
 H228 H 0.01123 -0.29223 0.85049
 C229 C -0.02253 0.31187 0.89585
 C230 C 0.01899 0.34402 0.90186
 C231 C 0.01897 0.37248 0.92587
 C232 C -0.02053 0.36739 0.94478
 C233 C -0.06183 0.33599 0.93877
 C234 C -0.06326 0.30898 0.91448
 C235 C -0.01934 0.27958 0.87093
 C236 C -0.05937 0.24774 0.86261
 C237 C -0.05245 0.21488 0.84072
 C238 C -0.00553 0.21281 0.82662
 C239 C 0.03344 0.24630 0.83379
 C240 C 0.02664 0.27999 0.85558
 C241 C 0.06174 0.34527 0.88474
 C242 C 0.06589 0.31332 0.86236
 H243 H 0.09351 0.36987 0.88933
 H244 H 0.10068 0.31432 0.85035
 H245 H 0.05156 0.39590 0.93081
 H246 H -0.09245 0.33141 0.95329
 H247 H -0.08312 0.18945 0.83546
 H248 H 0.06936 0.24557 0.82258
 H249 H -0.09542 0.28452 0.91127
 H250 H -0.09595 0.24703 0.87293
 C251 C -0.31127 -0.02945 0.40128
 C252 C -0.28669 -0.04582 0.42819
 C253 C -0.31468 -0.03769 0.45200
 C254 C -0.36767 -0.01335 0.44987
 C255 C -0.39297 -0.00048 0.42289
 C256 C -0.36519 -0.00806 0.39901
 C257 C -0.27839 -0.03513 0.37653
 C258 C -0.29731 -0.01587 0.34901
 C259 C -0.26401 -0.01995 0.32693
 C260 C -0.21133 -0.04383 0.33169
 C261 C -0.19247 -0.06372 0.35892
 C262 C -0.22513 -0.05906 0.38125
 C263 C -0.23400 -0.06981 0.43133
 C264 C -0.20405 -0.07674 0.40835
 H265 H -0.21538 -0.08300 0.45194
 H266 H -0.16328 -0.09511 0.41193
 H267 H -0.29499 -0.05165 0.47226
 H268 H -0.43346 0.01864 0.41997
 H269 H -0.27944 -0.00432 0.30608
 H270 H -0.15140 -0.08105 0.36294
 H271 H -0.38641 0.00390 0.37901
 H272 H -0.33727 0.00335 0.34418
 C273 C 0.27410 0.01730 0.39862
 C274 C 0.25866 0.05222 0.41912
 C275 C 0.29337 0.05680 0.44251
 C276 C 0.34323 0.02616 0.44631
 C277 C 0.35931 -0.00690 0.42549
 C278 C 0.32537 -0.01123 0.40191
 C279 C 0.23421 0.01061 0.37503
 C280 C 0.24487 -0.02410 0.35386
 C281 C 0.20500 -0.03174 0.33354
 C282 C 0.15361 -0.00510 0.33382
 C283 C 0.14328 0.03122 0.35405
 C284 C 0.18288 0.03914 0.37458
 C285 C 0.20798 0.08100 0.41672
 C286 C 0.17086 0.07449 0.39498
 H287 H 0.19632 0.10802 0.43231
 H288 H 0.13172 0.09673 0.39444
 H289 H 0.28093 0.08325 0.45822
 H290 H 0.39745 -0.03123 0.42797
 H291 H 0.21390 -0.05993 0.31809
 H292 H 0.10392 0.05284 0.35405
 H293 H 0.33950 -0.03823 0.38696
 H294 H 0.28333 -0.04646 0.35291
   
