data_POSCAR
  _audit_creation_date              2014-09-24
  _audit_creation_method            'ToBaCCo'
  _symmetry_space_group_name_H-M    'P1'
  _symmetry_Int_Tables_number       1
  _symmetry_cell_setting            triclinic
  loop_
  _symmetry_equiv_pos_as_xyz
 x,y,z
_cell_length_a 52.2345
_cell_length_b 52.3259
_cell_length_c 19.3875
_cell_angle_alpha 90.023000
_cell_angle_beta 90.026200
_cell_angle_gamma 119.996600
loop_
  _atom_site_label
  _atom_site_type_symbol
  _atom_site_fract_x
  _atom_site_fract_y
  _atom_site_fract_z
C1 C 0.19551 0.50003 0.43723
 C2 C 0.18226 0.49976 0.50003
 C3 C 0.19545 0.49995 0.56290
 C4 C 0.22278 0.50046 0.56372
 C5 C 0.23652 0.50078 0.50029
 C6 C 0.22287 0.50057 0.43670
 C7 C 0.23692 0.50087 0.37454
 C8 C 0.26380 0.50134 0.37473
 C9 C 0.27763 0.50147 0.43703
 C10 C 0.26393 0.50123 0.50045
 C11 C 0.23669 0.50059 0.62603
 C12 C 0.26354 0.50098 0.62615
 C13 C 0.27756 0.50130 0.56398
 C14 C 0.30481 0.50162 0.56326
 C15 C 0.31798 0.50188 0.50041
 C16 C 0.30479 0.50177 0.43776
 H17 H 0.22719 0.50073 0.32512
 H18 H 0.27368 0.50157 0.32548
 H19 H 0.22687 0.50036 0.67536
 H20 H 0.27327 0.50103 0.67552
 H21 H 0.16122 0.49932 0.49999
 H22 H 0.33885 0.50201 0.50010
 C23 C 0.49996 -0.19695 0.56292
 C24 C 0.50032 -0.18366 0.50022
 C25 C 0.50006 -0.19684 0.43740
 C26 C 0.49936 -0.22417 0.43652
 C27 C 0.49898 -0.23795 0.49987
 C28 C 0.49928 -0.22428 0.56342
 C29 C 0.49895 -0.23826 0.62556
 C30 C 0.49840 -0.26515 0.62542
 C31 C 0.49813 -0.27908 0.56308
 C32 C 0.49838 -0.26538 0.49965
 C33 C 0.49909 -0.23802 0.37416
 C34 C 0.49850 -0.26493 0.37390
 C35 C 0.49817 -0.27898 0.43603
 C36 C 0.49771 -0.30625 0.43657
 C37 C 0.49743 -0.31948 0.49929
 C38 C 0.49769 -0.30632 0.56215
 H39 H 0.49915 -0.22848 0.67492
 H40 H 0.49819 -0.27498 0.67471
 H41 H 0.49936 -0.22813 0.32494
 H42 H 0.49833 -0.27466 0.32448
 H43 H 0.50089 -0.16263 0.50032
 H44 H 0.49719 -0.34039 0.49920
 C45 C 1.19562 0.69682 0.56390
 C46 C 1.18263 0.68380 0.50090
 C47 C 1.19581 0.69700 0.43833
 C48 C 1.22281 0.72400 0.43788
 C49 C 1.23632 0.73752 0.50142
 C50 C 1.22269 0.72390 0.56482
 C51 C 1.23647 0.73775 0.62712
 C52 C 1.26305 0.76443 0.62724
 C53 C 1.27691 0.77833 0.56506
 C54 C 1.26344 0.76474 0.50152
 C55 C 1.23661 0.73782 0.37571
 C56 C 1.26320 0.76448 0.37578
 C57 C 1.27701 0.77835 0.43806
 C58 C 1.30400 0.80548 0.43882
 C59 C 1.31700 0.81861 0.50172
 C60 C 1.30387 0.80548 0.56448
 H61 H 1.22676 0.72803 0.67642
 H62 H 1.27269 0.77412 0.67665
 H63 H 1.22693 0.72812 0.32634
 H64 H 1.27287 0.77420 0.32646
 H65 H 1.16182 0.66304 0.50040
 H66 H 1.33771 0.83950 0.50183
 C67 C 0.69615 0.50027 0.56469
 C68 C 0.68315 0.50052 0.50185
 C69 C 0.69611 0.50029 0.43909
 C70 C 0.72287 0.49975 0.43833
 C71 C 0.73634 0.49946 0.50174
 C72 C 0.72296 0.49972 0.56531
 C73 C 0.73677 0.49946 0.62745
 C74 C 0.76320 0.49899 0.62724
 C75 C 0.77685 0.49879 0.56488
 C76 C 0.76329 0.49900 0.50153
 C77 C 0.73651 0.49956 0.37599
 C78 C 0.76296 0.49915 0.37578
 C79 C 0.77670 0.49889 0.43790
 C80 C 0.80357 0.49859 0.43830
 C81 C 0.81666 0.49832 0.50081
 C82 C 0.80376 0.49844 0.56379
 H83 H 0.72721 0.49964 0.67688
 H84 H 0.77290 0.49883 0.67649
 H85 H 0.72683 0.49975 0.32673
 H86 H 0.77259 0.49905 0.32640
 H87 H 0.66258 0.50098 0.50164
 H88 H 0.83739 0.49817 0.50028
 C89 C 0.50095 0.19689 0.56485
 C90 C 0.50127 0.18391 0.50223
 C91 C 0.50112 0.19682 0.43941
 C92 C 0.50073 0.22361 0.43844
 C93 C 0.50044 0.23709 0.50180
 C94 C 0.50056 0.22368 0.56537
 C95 C 0.50021 0.23734 0.62750
 C96 C 0.49973 0.26372 0.62731
 C97 C 0.49954 0.27740 0.56494
 C98 C 0.49992 0.26395 0.50157
 C99 C 0.50053 0.23719 0.37608
 C100 C 0.50002 0.26355 0.37583
 C101 C 0.49968 0.27727 0.43795
 C102 C 0.49907 0.30395 0.43830
 C103 C 0.49874 0.31699 0.50090
 C104 C 0.49896 0.30414 0.56393
 H105 H 0.50029 0.22771 0.67686
 H106 H 0.49947 0.27333 0.67659
 H107 H 0.50078 0.22751 0.32688
 H108 H 0.49986 0.27311 0.32642
 H109 H 0.50147 0.16325 0.50241
 H110 H 0.49824 0.33750 0.50040
 C111 C 0.69510 0.19766 0.56388
 C112 C 0.68213 0.18458 0.50104
 C113 C 0.69528 0.19769 0.43843
 C114 C 0.72218 0.22480 0.43792
 C115 C 0.73561 0.23837 0.50153
 C116 C 0.72202 0.22474 0.56488
 C117 C 0.73572 0.23849 0.62725
 C118 C 0.76236 0.26515 0.62751
 C119 C 0.77626 0.27904 0.56537
 C120 C 0.76272 0.26554 0.50176
 C121 C 0.73602 0.23862 0.37579
 C122 C 0.76263 0.26530 0.37600
 C123 C 0.77633 0.27909 0.43835
 C124 C 0.80335 0.30607 0.43920
 C125 C 0.81644 0.31914 0.50195
 C126 C 0.80337 0.30605 0.56473
 H127 H 0.72593 0.22869 0.67644
 H128 H 0.77203 0.27481 0.67693
 H129 H 0.72637 0.22887 0.32642
 H130 H 0.77242 0.27504 0.32678
 H131 H 0.66147 0.16369 0.50086
 H132 H 0.83730 0.33985 0.50176
 O133 O 0.96011 0.52341 -0.13006
 O134 O 0.92721 0.48488 -0.06244
 C135 C 0.93355 0.50369 -0.11205
 O136 O 1.04257 0.47507 -0.12218
 O137 O 1.07541 0.51570 -0.05959
 C138 C 1.06911 0.49527 -0.10521
 O139 O 0.95997 0.43589 -0.12789
 O140 O 0.92717 0.44239 -0.06182
 C141 C 0.93345 0.42944 -0.11048
 O142 O 1.04247 0.56722 -0.12316
 O143 O 1.07531 0.55965 -0.05990
 C144 C 1.06902 0.57363 -0.10599
 Zr145 Zr 1.00121 0.53304 -0.08711
 O146 O 1.00210 0.53756 -0.19558
 O147 O 1.00010 0.57258 -0.07460
 Zr148 Zr 1.00121 0.46826 -0.08722
 O149 O 1.00391 0.46854 -0.19619
 O150 O 0.99805 0.42633 -0.08315
 O151 O 0.97504 0.48757 -0.10095
 O152 O 1.02674 0.51337 -0.10014
 O153 O 1.04265 0.56781 0.11993
 O154 O 1.07544 0.55982 0.05757
 C155 C 1.06918 0.57404 0.10304
 O156 O 0.96013 0.43658 0.12774
 O157 O 0.92723 0.44258 0.06076
 C158 C 0.93358 0.42995 0.11001
 O159 O 1.04265 0.47543 0.12152
 O160 O 1.07542 0.51563 0.05796
 C161 C 1.06918 0.49548 0.10423
 O162 O 0.96008 0.52435 0.12646
 O163 O 0.92722 0.48507 0.06045
 C164 C 0.93355 0.50429 0.10913
 Zr165 Zr 1.00127 0.53318 0.08551
 O166 O 1.00448 0.53618 0.19438
 O167 O 0.99831 0.57206 0.08103
 Zr168 Zr 1.00128 0.46840 0.08584
 O169 O 1.00437 0.46797 0.19458
 O170 O 0.99793 0.42640 0.08016
 Zr171 Zr 0.95685 0.47854 -0.00074
 Zr172 Zr 1.04551 0.52275 -0.00078
 O173 O 1.02678 0.51354 0.09863
 O174 O 0.97507 0.48773 0.09950
 O175 O 1.02798 0.55134 -0.00094
 O176 O 0.97519 0.45073 -0.00062
 O177 O 0.97505 0.52464 -0.00096
 O178 O 1.02793 0.47664 -0.00067
 H179 H 1.03973 0.51978 -0.14122
 H180 H 0.96159 0.42910 -0.00044
 H181 H 1.03976 0.52009 0.13982
 H182 H 0.96139 0.53263 -0.00121
 H183 H 1.01601 0.42881 -0.05983
 H184 H 1.01657 0.42914 0.06023
 H185 H 0.99127 0.47483 0.21342
 H186 H 0.98949 0.51684 0.21316
 H187 H 1.01527 0.58674 0.05351
 H188 H 0.99944 0.57949 -0.12178
 H189 H 1.00564 0.52215 -0.21498
 H190 H 0.98884 0.47296 -0.21436
 O191 O 0.43548 0.47629 0.12582
 O192 O 0.44192 0.51547 0.05969
 C193 C 0.42903 0.49631 0.10841
 O194 O 0.56693 0.52503 0.12109
 O195 O 0.55936 0.48474 0.05766
 C196 C 0.57334 0.50494 0.10384
 O197 O 0.52323 0.56377 0.12765
 O198 O 0.48445 0.55789 0.06030
 C199 C 0.50336 0.57045 0.10981
 O200 O 0.47435 0.43275 0.11979
 O201 O 0.51515 0.44071 0.05768
 C202 C 0.49465 0.42652 0.10314
 Zr203 Zr 0.46777 0.46735 0.08488
 O204 O 0.46691 0.46376 0.19372
 O205 O 0.42683 0.42780 0.07504
 Zr206 Zr 0.53269 0.53214 0.08525
 O207 O 0.53660 0.53312 0.19391
 O208 O 0.57138 0.57413 0.07871
 O209 O 0.48712 0.51280 0.09884
 O210 O 0.51294 0.48700 0.09811
 O211 O 0.47447 0.43272 -0.12226
 O212 O 0.51518 0.44060 -0.05963
 C213 C 0.49471 0.42643 -0.10525
 O214 O 0.52355 0.56405 -0.12940
 O215 O 0.48456 0.55798 -0.06268
 C216 C 0.50362 0.57067 -0.11176
 O217 O 0.56714 0.52513 -0.12288
 O218 O 0.55933 0.48464 -0.06001
 C219 C 0.57346 0.50496 -0.10579
 O220 O 0.43558 0.47631 -0.12914
 O221 O 0.44196 0.51548 -0.06287
 C222 C 0.42908 0.49632 -0.11172
 Zr223 Zr 0.46784 0.46739 -0.08792
 O224 O 0.46811 0.46441 -0.19675
 O225 O 0.42593 0.42853 -0.08368
 Zr226 Zr 0.53275 0.53214 -0.08765
 O227 O 0.53635 0.53261 -0.19637
 O228 O 0.57148 0.57413 -0.08179
 Zr229 Zr 0.47807 0.52193 -0.00140
 Zr230 Zr 0.52239 0.47767 -0.00123
 O231 O 0.51303 0.48701 -0.10069
 O232 O 0.48719 0.51286 -0.10164
 O233 O 0.47624 0.44915 -0.00143
 O234 O 0.52427 0.54977 -0.00120
 O235 O 0.45015 0.47583 -0.00152
 O236 O 0.55106 0.52378 -0.00113
 H237 H 0.51929 0.48050 0.13948
 H238 H 0.53222 0.57139 -0.00108
 H239 H 0.51945 0.48048 -0.14187
 H240 H 0.42847 0.46774 -0.00163
 H241 H 0.58737 0.57127 0.05978
 H242 H 0.58725 0.57141 -0.06099
 H243 H 0.51646 0.52610 -0.21538
 H244 H 0.47281 0.48384 -0.21550
 H245 H 0.42800 0.41411 -0.05462
 H246 H 0.41993 0.42104 0.12269
 H247 H 0.47235 0.48336 0.21277
 H248 H 0.51644 0.52482 0.21284
 O249 O 0.56316 0.03997 -0.12816
 O250 O 0.55750 0.07283 -0.06036
 C251 C 0.56997 0.06649 -0.11004
 O252 O 0.43225 -0.04223 -0.12020
 O253 O 0.44008 -0.07501 -0.05768
 C254 C 0.42591 -0.06873 -0.10327
 O255 O 0.47563 0.04014 -0.12557
 O256 O 0.51498 0.07288 -0.05952
 C257 C 0.49570 0.06661 -0.10810
 O258 O 0.52460 -0.04235 -0.12126
 O259 O 0.48427 -0.07512 -0.05775
 C260 C 0.50450 -0.06886 -0.10397
 Zr261 Zr 0.53173 -0.00108 -0.08524
 O262 O 0.53533 -0.00201 -0.19372
 O263 O 0.57246 0.00003 -0.07294
 Zr264 Zr 0.46685 -0.00102 -0.08508
 O265 O 0.46442 -0.00372 -0.19406
 O266 O 0.42803 0.00218 -0.08094
 O267 O 0.51235 0.02507 -0.09889
 O268 O 0.48649 -0.02654 -0.09827
 O269 O 0.52526 -0.04233 0.12182
 O270 O 0.48438 -0.07504 0.05967
 C271 C 0.50494 -0.06881 0.10498
 O272 O 0.47626 0.04004 0.12980
 O273 O 0.51519 0.07285 0.06295
 C274 C 0.49617 0.06654 0.11211
 O275 O 0.43273 -0.04237 0.12355
 O276 O 0.44031 -0.07511 0.06014
 C277 C 0.42633 -0.06886 0.10634
 O278 O 0.56420 0.04006 0.12860
 O279 O 0.55777 0.07284 0.06251
 C280 C 0.57069 0.06655 0.11122
 Zr281 Zr 0.53194 -0.00105 0.08733
 O282 O 0.53204 -0.00422 0.19615
 O283 O 0.57387 0.00198 0.08224
 Zr284 Zr 0.46703 -0.00108 0.08800
 O285 O 0.46369 -0.00417 0.19677
 O286 O 0.42829 0.00225 0.08271
 Zr287 Zr 0.52157 0.04326 0.00135
 Zr288 Zr 0.47717 -0.04525 0.00102
 O289 O 0.48676 -0.02651 0.10050
 O290 O 0.51261 0.02511 0.10157
 O291 O 0.52335 -0.02776 0.00084
 O292 O 0.47536 0.02495 0.00161
 O293 O 0.54954 0.02509 0.00092
 O294 O 0.44858 -0.02768 0.00142
 H295 H 0.47987 -0.03955 -0.13932
 H296 H 0.46727 0.03851 0.00186
 H297 H 0.48041 -0.03940 0.14175
 H298 H 0.57120 0.03873 0.00066
 H299 H 0.41260 -0.01566 -0.05736
 H300 H 0.41240 -0.01631 0.06250
 H301 H 0.48355 0.00943 0.21559
 H302 H 0.52691 0.01019 0.21507
 H303 H 0.57151 -0.01516 0.05539
 H304 H 0.57998 0.00063 -0.12016
 H305 H 0.51640 -0.00540 -0.21310
 H306 H 0.48391 0.01135 -0.21219
 C307 C 1.18095 0.49960 0.37810
 C308 C 1.16696 0.49914 0.32809
 C309 C 1.14914 0.49852 0.27254
 C310 C 1.13268 0.49791 0.22810
 C311 C 1.11195 0.49710 0.18004
 C312 C 1.09305 0.49637 0.14293
 C313 C 0.49792 0.67942 0.37772
 C314 C 0.49828 0.66543 0.32866
 C315 C 0.49891 0.64754 0.27491
 C316 C 0.49965 0.63118 0.23219
 C317 C 0.50074 0.61091 0.18588
 C318 C 0.50185 0.59282 0.14945
 C319 C 0.31829 -0.18006 0.37981
 C320 C 0.33194 -0.16617 0.32990
 C321 C 0.34925 -0.14847 0.27444
 C322 C 0.36518 -0.13210 0.23008
 C323 C 0.38517 -0.11148 0.18207
 C324 C 0.40336 -0.09266 0.14500
 C325 C 0.81896 0.49894 0.37609
 C326 C 0.83337 0.49940 0.32711
 C327 C 0.85192 0.50011 0.27337
 C328 C 0.86903 0.50087 0.23069
 C329 C 0.89041 0.50192 0.18452
 C330 C 0.90964 0.50295 0.14833
 C331 C 0.49860 0.31878 0.37580
 C332 C 0.49812 0.33231 0.32595
 C333 C 0.49746 0.34950 0.27059
 C334 C 0.49684 0.36535 0.22632
 C335 C 0.49607 0.38529 0.17848
 C336 C 0.49540 0.40349 0.14159
 C337 C 0.68028 0.18211 0.37634
 C338 C 0.66630 0.16748 0.32759
 C339 C 0.64840 0.14868 0.27424
 C340 C 0.63197 0.13136 0.23194
 C341 C 0.61157 0.10979 0.18621
 C342 C 0.59331 0.09046 0.15030
 C343 C 0.50067 0.18150 -0.37307
 C344 C 0.50027 0.16703 -0.32431
 C345 C 0.49962 0.14841 -0.27092
 C346 C 0.49892 0.13123 -0.22856
 C347 C 0.49793 0.10979 -0.18281
 C348 C 0.49696 0.09052 -0.14695
 C349 C 0.68202 0.50075 -0.37630
 C350 C 0.66841 0.50126 -0.32658
 C351 C 0.65104 0.50196 -0.27162
 C352 C 0.63501 0.50262 -0.22779
 C353 C 0.61488 0.50344 -0.18051
 C354 C 0.59657 0.50416 -0.14401
 C355 C 0.81810 0.32026 -0.37648
 C356 C 0.83261 0.33415 -0.32749
 C357 C 0.85133 0.35195 -0.27390
 C358 C 0.86861 0.36830 -0.23141
 C359 C 0.89015 0.38863 -0.18550
 C360 C 0.90948 0.40685 -0.14951
 C361 C 0.50045 -0.18150 -0.37473
 C362 C 0.50095 -0.16730 -0.32521
 C363 C 0.50161 -0.14920 -0.27035
 C364 C 0.50223 -0.13254 -0.22651
 C365 C 0.50301 -0.11165 -0.17909
 C366 C 0.50370 -0.09270 -0.14242
 C367 C 0.31919 0.50134 -0.37801
 C368 C 0.33325 0.50096 -0.32905
 C369 C 0.35124 0.50033 -0.27546
 C370 C 0.36773 0.49965 -0.23296
 C371 C 0.38819 0.49865 -0.18699
 C372 C 0.40647 0.49766 -0.15092
 C373 C 1.18106 0.68247 -0.37724
 C374 C 1.16702 0.66870 -0.32761
 C375 C 1.14910 0.65120 -0.27262
 C376 C 1.13257 0.63511 -0.22868
 C377 C 1.11178 0.61496 -0.18117
 C378 C 1.09287 0.59667 -0.14444
 C379 C 0.81846 0.49860 -0.37768
 C380 C 0.83294 0.49890 -0.32894
 C381 C 0.85161 0.49948 -0.27564
 C382 C 0.86884 0.50016 -0.23333
 C383 C 0.89033 0.50119 -0.18752
 C384 C 0.90963 0.50224 -0.15144
 C385 C 0.49848 0.31833 -0.37721
 C386 C 0.49799 0.33189 -0.32740
 C387 C 0.49736 0.34913 -0.27210
 C388 C 0.49677 0.36503 -0.22790
 C389 C 0.49603 0.38505 -0.18021
 C390 C 0.49541 0.40332 -0.14347
 C391 C 0.67988 0.18206 -0.37432
 C392 C 0.66572 0.16742 -0.32584
 C393 C 0.64764 0.14860 -0.27283
 C394 C 0.63111 0.13127 -0.23078
 C395 C 0.61066 0.10970 -0.18524
 C396 C 0.59243 0.09038 -0.14934
 C397 C 1.18082 0.49941 -0.37813
 C398 C 1.16681 0.49884 -0.32819
 C399 C 1.14897 0.49810 -0.27272
 C400 C 1.13251 0.49744 -0.22836
 C401 C 1.11180 0.49665 -0.18046
 C402 C 1.09292 0.49600 -0.14357
 C403 C 0.49795 0.67934 -0.37916
 C404 C 0.49837 0.66543 -0.33010
 C405 C 0.49911 0.64768 -0.27630
 C406 C 0.49992 0.63141 -0.23357
 C407 C 0.50108 0.61120 -0.18735
 C408 C 0.50219 0.59310 -0.15109
 C409 C 0.31800 -0.18003 -0.37642
 C410 C 0.33149 -0.16612 -0.32638
 C411 C 0.34866 -0.14840 -0.27082
 C412 C 0.36453 -0.13201 -0.22641
 C413 C 0.38452 -0.11135 -0.17851
 C414 C 0.40279 -0.09250 -0.14162
 C415 C 0.50067 -0.18132 0.37522
 C416 C 0.50126 -0.16715 0.32565
 C417 C 0.50202 -0.14912 0.27066
 C418 C 0.50272 -0.13250 0.22676
 C419 C 0.50355 -0.11162 0.17943
 C420 C 0.50423 -0.09264 0.14298
 C421 C 0.31996 0.50155 0.37571
 C422 C 0.33395 0.50118 0.32672
 C423 C 0.35175 0.50053 0.27290
 C424 C 0.36807 0.49979 0.23010
 C425 C 0.38833 0.49874 0.18382
 C426 C 0.40650 0.49769 0.14757
 C427 C 1.18057 0.68204 0.37586
 C428 C 1.16666 0.66846 0.32592
 C429 C 1.14895 0.65126 0.27039
 C430 C 1.13256 0.63539 0.22598
 C431 C 1.11189 0.61541 0.17809
 C432 C 1.09302 0.59715 0.14126
 C433 C 0.50100 0.18136 0.37755
 C434 C 0.50073 0.16687 0.32893
 C435 C 0.50019 0.14824 0.27564
 C436 C 0.49954 0.13107 0.23330
 C437 C 0.49856 0.10966 0.18744
 C438 C 0.49755 0.09042 0.15137
 C439 C 0.68114 0.50078 0.37680
 C440 C 0.66754 0.50127 0.32702
 C441 C 0.65032 0.50193 0.27165
 C442 C 0.63446 0.50255 0.22733
 C443 C 0.61452 0.50336 0.17941
 C444 C 0.59634 0.50409 0.14243
 C445 C 0.81887 0.32119 0.37724
 C446 C 0.83337 0.33518 0.32842
 C447 C 0.85197 0.35298 0.27479
 C448 C 0.86910 0.36928 0.23209
 C449 C 0.89047 0.38948 0.18582
 C450 C 0.90969 0.40756 0.14946
   
