data_POSCAR
  _audit_creation_date              2014-09-24
  _audit_creation_method            'ToBaCCo'
  _symmetry_space_group_name_H-M    'P1'
  _symmetry_Int_Tables_number       1
  _symmetry_cell_setting            triclinic
  loop_
  _symmetry_equiv_pos_as_xyz
 x,y,z
_cell_length_a 12.5702
_cell_length_b 12.5702
_cell_length_c 20.6086
_cell_angle_alpha 89.781900
_cell_angle_beta 90.217800
_cell_angle_gamma 87.517700
loop_
  _atom_site_label
  _atom_site_type_symbol
  _atom_site_fract_x
  _atom_site_fract_y
  _atom_site_fract_z
O1 O 0.08988 0.59884 1.06197
 O2 O 0.08471 0.39166 0.93648
 O3 O 0.08979 0.59966 0.93569
 O4 O 0.08485 0.39155 1.06156
 O5 O -0.09116 0.40419 1.06177
 O6 O -0.08615 0.61228 0.93585
 O7 O -0.09128 0.40425 0.93553
 O8 O -0.08613 0.61152 1.06103
 Cu9 Cu 0.10507 0.49445 0.99887
 Cu10 Cu -0.10645 0.50909 0.99842
 C11 C 0.00272 0.64102 1.08222
 C12 C -0.00413 0.36169 0.91553
 C13 C 0.00265 0.64240 0.91514
 C14 C -0.00395 0.36182 1.08241
 O15 O 0.61228 -0.08615 0.56415
 O16 O 0.40419 -0.09116 0.43823
 O17 O 0.61152 -0.08613 0.43897
 O18 O 0.40425 -0.09128 0.56447
 O19 O 0.39166 0.08471 0.56352
 O20 O 0.59884 0.08988 0.43803
 O21 O 0.39156 0.08485 0.43844
 O22 O 0.59966 0.08979 0.56431
 Cu23 Cu 0.50909 -0.10645 0.50158
 Cu24 Cu 0.49445 0.10507 0.50112
 C25 C 0.64240 0.00265 0.58486
 C26 C 0.36182 -0.00395 0.41759
 C27 C 0.64102 0.00272 0.41778
 C28 C 0.36169 -0.00413 0.58447
 C29 C 0.00023 0.00023 0.25000
 C30 C -0.00061 -0.00061 0.75000
 C31 C 0.03484 -0.21598 0.22732
 C32 C -0.06316 -0.25707 0.19081
 C33 C 0.00429 -0.26919 0.12916
 C34 C 0.10236 -0.22984 0.16492
 C35 C -0.02799 -0.15521 0.10799
 C36 C -0.09559 -0.14177 0.17006
 C37 C 0.00238 -0.10081 0.20624
 C38 C 0.07010 -0.11466 0.14414
 H39 H 0.06129 -0.24334 0.27621
 H40 H -0.11800 -0.31653 0.20983
 H41 H 0.18407 -0.26680 0.16272
 H42 H -0.05422 -0.13003 0.05864
 H43 H -0.17845 -0.10789 0.17091
 H44 H 0.12645 -0.05888 0.12297
 C45 C -0.07105 0.11672 0.14420
 C46 C -0.10298 0.23163 0.16504
 C47 C -0.00532 0.27143 0.12933
 C48 C 0.02660 0.15775 0.10809
 C49 C 0.06291 0.25834 0.19098
 C50 C -0.03466 0.21678 0.22745
 C51 C -0.00254 0.10191 0.20630
 C52 C 0.09500 0.14334 0.17015
 H53 H -0.12770 0.06126 0.12300
 H54 H -0.18468 0.26870 0.16285
 H55 H 0.05214 0.13336 0.05870
 H56 H 0.11803 0.31748 0.21005
 H57 H -0.06047 0.24346 0.27635
 H58 H 0.17785 0.10943 0.17095
 C59 C 0.14255 0.09458 0.67044
 C60 C 0.25748 0.06233 0.69206
 C61 C 0.27082 -0.00560 0.63069
 C62 C 0.15719 0.02650 0.60865
 C63 C 0.23075 -0.10342 0.66640
 C64 C 0.21575 -0.03540 0.72853
 C65 C 0.10094 -0.00311 0.70662
 C66 C 0.11590 -0.07129 0.64479
 H67 H 0.10862 0.17743 0.67076
 H68 H 0.31656 0.11732 0.71137
 H69 H 0.13300 0.05232 0.55905
 H70 H 0.26775 -0.18514 0.66468
 H71 H 0.24237 -0.06147 0.77763
 H72 H 0.06023 -0.12762 0.62346
 C73 C -0.14342 -0.09608 0.67007
 C74 C -0.25851 -0.06376 0.69079
 C75 C -0.27134 0.00405 0.62898
 C76 C -0.15771 -0.02817 0.60777
 C77 C -0.23155 0.10202 0.66438
 C78 C -0.21687 0.03410 0.72698
 C79 C -0.10196 0.00171 0.70598
 C80 C -0.11658 0.06974 0.64367
 H81 H -0.10948 -0.17892 0.67110
 H82 H -0.31767 -0.11870 0.71005
 H83 H -0.13317 -0.05417 0.55849
 H84 H -0.26838 0.18383 0.66205
 H85 H -0.24365 0.06029 0.77578
 H86 H -0.06079 0.12599 0.62239
 C87 C -0.09608 -0.14342 0.82993
 C88 C -0.06376 -0.25851 0.80921
 C89 C 0.00405 -0.27133 0.87102
 C90 C -0.02817 -0.15771 0.89223
 C91 C 0.10202 -0.23155 0.83562
 C92 C 0.03410 -0.21687 0.77302
 C93 C 0.00170 -0.10196 0.79402
 C94 C 0.06974 -0.11658 0.85633
 H95 H -0.17892 -0.10947 0.82890
 H96 H -0.11870 -0.31766 0.78995
 H97 H -0.05417 -0.13317 0.94151
 H98 H 0.18382 -0.26838 0.83795
 H99 H 0.06029 -0.24365 0.72422
 H100 H 0.12599 -0.06078 0.87761
 C101 C -0.03541 0.21575 0.77147
 C102 C -0.10342 0.23075 0.83360
 C103 C -0.00561 0.27082 0.86931
 C104 C 0.06233 0.25748 0.80793
 C105 C 0.02650 0.15719 0.89135
 C106 C -0.07129 0.11590 0.85521
 C107 C -0.00311 0.10095 0.79338
 C108 C 0.09458 0.14255 0.82956
 H109 H -0.06147 0.24237 0.72237
 H110 H -0.18514 0.26775 0.83532
 H111 H 0.11732 0.31656 0.78863
 H112 H 0.05232 0.13300 0.94095
 H113 H -0.12762 0.06023 0.87654
 H114 H 0.17742 0.10862 0.82924
 C115 C -0.11465 0.07010 0.35586
 C116 C -0.22984 0.10236 0.33508
 C117 C -0.26918 0.00428 0.37084
 C118 C -0.15521 -0.02799 0.39201
 C119 C -0.25707 -0.06317 0.30919
 C120 C -0.21597 0.03483 0.27268
 C121 C -0.10081 0.00237 0.29376
 C122 C -0.14176 -0.09559 0.32994
 H123 H -0.05887 0.12644 0.37703
 H124 H -0.26680 0.18406 0.33728
 H125 H -0.13003 -0.05422 0.44136
 H126 H -0.31653 -0.11801 0.29017
 H127 H -0.24334 0.06129 0.22379
 H128 H -0.10788 -0.17845 0.32910
 C129 C 0.21679 -0.03467 0.27255
 C130 C 0.25835 0.06291 0.30902
 C131 C 0.27144 -0.00532 0.37067
 C132 C 0.23164 -0.10298 0.33496
 C133 C 0.15776 0.02660 0.39191
 C134 C 0.14334 0.09499 0.32985
 C135 C 0.10192 -0.00254 0.29370
 C136 C 0.11673 -0.07106 0.35580
 H137 H 0.24347 -0.06048 0.22365
 H138 H 0.31748 0.11803 0.28995
 H139 H 0.26870 -0.18468 0.33715
 H140 H 0.13336 0.05214 0.44130
 H141 H 0.10943 0.17785 0.32904
 H142 H 0.06127 -0.12770 0.37700
   
