data_POSCAR
  _audit_creation_date              2014-09-24
  _audit_creation_method            'ToBaCCo'
  _symmetry_space_group_name_H-M    'P1'
  _symmetry_Int_Tables_number       1
  _symmetry_cell_setting            triclinic
  loop_
  _symmetry_equiv_pos_as_xyz
 x,y,z
_cell_length_a 24.9415
_cell_length_b 24.8588
_cell_length_c 21.4109
_cell_angle_alpha 90.734300
_cell_angle_beta 88.389300
_cell_angle_gamma 79.727400
loop_
  _atom_site_label
  _atom_site_type_symbol
  _atom_site_fract_x
  _atom_site_fract_y
  _atom_site_fract_z
O1 O -0.06387 0.28026 0.07457
 O2 O 0.04316 0.33515 -0.00568
 O3 O -0.04823 0.30005 -0.04364
 O4 O 0.03059 0.29507 0.10038
 O5 O 0.06686 0.20921 0.07623
 O6 O -0.00201 0.21878 -0.07145
 O7 O 0.08661 0.25129 -0.02810
 O8 O -0.02699 0.19575 0.04519
 Cu9 Cu -0.01423 0.31090 0.03121
 Cu10 Cu 0.03471 0.21056 0.00118
 C11 C -0.06373 0.22933 0.07480
 C12 C 0.08493 0.30279 -0.02620
 C13 C -0.03933 0.25898 -0.08098
 C14 C 0.06166 0.25019 0.11280
 O15 O 0.44410 0.81444 0.53250
 O16 O 0.50692 0.83247 0.38008
 O17 O 0.42261 0.80602 0.42166
 O18 O 0.54620 0.83428 0.49985
 O19 O 0.58097 0.74638 0.49571
 O20 O 0.46067 0.71854 0.41445
 O21 O 0.54781 0.74612 0.37395
 O22 O 0.48242 0.72715 0.52961
 Cu23 Cu 0.48023 0.83104 0.46095
 Cu24 Cu 0.52364 0.72636 0.45412
 C25 C 0.44937 0.76694 0.55513
 C26 C 0.53169 0.79186 0.34804
 C27 C 0.42133 0.75703 0.40416
 C28 C 0.58372 0.79471 0.51283
 O29 O 0.96867 0.70786 -0.10446
 O30 O 1.03856 0.70691 0.04638
 O31 O 0.93790 0.70698 0.01688
 O32 O 1.06939 0.71091 -0.06700
 O33 O 1.05513 0.80088 -0.05627
 O34 O 0.92251 0.79719 0.02287
 O35 O 1.01843 0.79724 0.05157
 O36 O 0.95358 0.79791 -0.10120
 Cu37 Cu 1.00414 0.69907 -0.02874
 Cu38 Cu 0.98374 0.80694 -0.02395
 C39 C 0.95055 0.75333 -0.12920
 C40 C 1.04150 0.75208 0.07360
 C41 C 0.90917 0.75175 0.03674
 C42 C 1.08646 0.75608 -0.07094
 O43 O 0.56677 0.20185 0.57898
 O44 O 0.44870 0.19692 0.47851
 O45 O 0.55480 0.18917 0.45991
 O46 O 0.46231 0.20343 0.59829
 O47 O 0.45018 0.29333 0.58995
 O48 O 0.54111 0.27919 0.45241
 O49 O 0.43810 0.28676 0.47053
 O50 O 0.55179 0.29187 0.57117
 Cu51 Cu 0.50944 0.18850 0.52959
 Cu52 Cu 0.49387 0.29678 0.52005
 C53 C 0.57865 0.24831 0.59228
 C54 C 0.42367 0.24183 0.45745
 C55 C 0.56385 0.23205 0.43313
 C56 C 0.44096 0.25108 0.61768
 O57 O 0.69604 0.05427 -0.07746
 O58 O 0.64977 -0.06144 0.00109
 O59 O 0.68644 0.02744 0.03650
 O60 O 0.65774 -0.02896 -0.11480
 O61 O 0.74285 -0.07110 -0.13025
 O62 O 0.77177 -0.01553 0.02656
 O63 O 0.73320 -0.10861 -0.01006
 O64 O 0.77999 0.00698 -0.08687
 Cu65 Cu 0.66388 0.00129 -0.03698
 Cu66 Cu 0.76419 -0.05465 -0.04854
 C67 C 0.74561 0.05005 -0.09612
 C68 C 0.68385 -0.10511 0.00783
 C69 C 0.73484 0.01874 0.05547
 C70 C 0.69527 -0.05468 -0.15064
 O71 O 0.19445 0.56317 0.48557
 O72 O 0.20877 0.46563 0.61696
 O73 O 0.21027 0.57097 0.60488
 O74 O 0.19358 0.45853 0.49780
 O75 O 0.28298 0.44191 0.48095
 O76 O 0.29945 0.55140 0.58705
 O77 O 0.29799 0.44969 0.59924
 O78 O 0.28373 0.54364 0.46878
 Cu79 Cu 0.19246 0.51653 0.55335
 Cu80 Cu 0.29996 0.49481 0.53226
 C81 C 0.23724 0.56937 0.45474
 C82 C 0.25632 0.44123 0.63005
 C83 C 0.25805 0.57998 0.61377
 C84 C 0.23618 0.43149 0.47106
 O85 O 0.34574 0.94481 -0.01799
 O86 O 0.29893 1.03259 0.11740
 O87 O 0.29887 0.93051 0.08960
 O88 O 0.34599 1.04554 0.01336
 O89 O 0.26494 1.07132 -0.02686
 O90 O 0.21754 0.95489 0.04976
 O91 O 0.21728 1.05531 0.07749
 O92 O 0.26529 0.96866 -0.06013
 Cu93 Cu 0.33054 0.98520 0.05459
 Cu94 Cu 0.23318 1.01416 0.00489
 C95 C 0.31387 0.94258 -0.06246
 C96 C 0.25075 1.05979 0.11985
 C97 C 0.24985 0.92406 0.08430
 C98 C 0.31321 1.07894 -0.01781
 O99 O 0.78588 0.42326 0.41618
 O100 O 0.79703 0.53925 0.52518
 O101 O 0.79502 0.43412 0.53671
 O102 O 0.78223 0.53099 0.40472
 O103 O 0.69276 0.54458 0.41904
 O104 O 0.70553 0.45280 0.55130
 O105 O 0.70750 0.55537 0.53887
 O106 O 0.69650 0.44054 0.43125
 Cu107 Cu 0.79909 0.48033 0.46902
 Cu108 Cu 0.69190 0.50003 0.48647
 C109 C 0.73904 0.41196 0.40582
 C110 C 0.75387 0.56683 0.55067
 C111 C 0.75179 0.42748 0.56632
 C112 C 0.73469 0.55396 0.38960
 O113 O 0.22404 0.16269 0.27870
 O114 O 0.17923 0.27975 0.38612
 O115 O 0.14592 0.24494 0.27954
 O116 O 0.26199 0.19883 0.38130
 O117 O 0.31021 0.24882 0.32589
 O118 O 0.19589 0.29467 0.22625
 O119 O 0.23005 0.32679 0.33018
 O120 O 0.27539 0.21119 0.22554
 Cu121 Cu 0.19745 0.21668 0.33718
 Cu122 Cu 0.25763 0.27532 0.27108
 C123 C 0.25686 0.16754 0.23365
 C124 C 0.19911 0.32260 0.37717
 C125 C 0.15203 0.27662 0.23475
 C126 C 0.30563 0.21756 0.37132
 O127 O 0.62747 0.70733 0.19958
 O128 O 0.76548 0.67666 0.12546
 O129 O 0.71920 0.64203 0.22851
 O130 O 0.67122 0.72786 0.09698
 O131 O 0.69057 0.80103 0.14513
 O132 O 0.74386 0.71220 0.27661
 O133 O 0.78316 0.75262 0.16833
 O134 O 0.64800 0.77927 0.24863
 Cu135 Cu 0.69459 0.68024 0.15955
 Cu136 Cu 0.71983 0.76604 0.21755
 C137 C 0.61312 0.75059 0.23278
 C138 C 0.79595 0.71239 0.13035
 C139 C 0.73887 0.66217 0.27534
 C140 C 0.67200 0.77868 0.09835
 O141 O 0.82543 0.19252 0.20677
 O142 O 0.72261 0.16204 0.32048
 O143 O 0.76083 0.12257 0.20851
 O144 O 0.78761 0.23461 0.31512
 O145 O 0.72337 0.29349 0.27112
 O146 O 0.69745 0.18299 0.16545
 O147 O 0.66073 0.22311 0.27596
 O148 O 0.76297 0.25424 0.16389
 Cu149 Cu 0.78012 0.17172 0.26756
 Cu150 Cu 0.70459 0.24369 0.21396
 C151 C 0.81158 0.22884 0.16641
 C152 C 0.67462 0.18929 0.31892
 C153 C 0.72495 0.13487 0.16752
 C154 C 0.75998 0.28286 0.31148
 O155 O 0.26995 0.75539 0.18037
 O156 O 0.23344 0.66013 0.29667
 O157 O 0.19702 0.69096 0.18452
 O158 O 0.30228 0.72413 0.28819
 O159 O 0.24270 0.79202 0.33101
 O160 O 0.13686 0.75777 0.22815
 O161 O 0.17214 0.72564 0.34084
 O162 O 0.20739 0.82135 0.22192
 Cu163 Cu 0.25576 0.70036 0.23250
 Cu164 Cu 0.18310 0.78029 0.28524
 C165 C 0.24552 0.80472 0.18185
 C166 C 0.19894 0.67714 0.34040
 C167 C 0.14978 0.72022 0.18686
 C168 C 0.29063 0.76416 0.32665
 O169 O 0.81760 0.26795 0.67241
 O170 O 0.78688 0.16700 0.78629
 O171 O 0.75034 0.19905 0.67858
 O172 O 0.85357 0.23667 0.78258
 O173 O 0.79102 0.29943 0.82944
 O174 O 0.68884 0.26325 0.72502
 O175 O 0.72330 0.22944 0.83212
 O176 O 0.75456 0.33026 0.71931
 Cu177 Cu 0.80888 0.21148 0.72558
 Cu178 Cu 0.73368 0.28718 0.78183
 C179 C 0.78959 0.31583 0.67528
 C180 C 0.74894 0.18063 0.82736
 C181 C 0.70194 0.22559 0.68388
 C182 C 0.83963 0.27384 0.82417
 O183 O 0.35694 0.74713 0.71674
 O184 O 0.26961 0.73605 0.85636
 O185 O 0.28772 0.69044 0.74137
 O186 O 0.34796 0.79380 0.81953
 O187 O 0.27670 0.85635 0.79720
 O188 O 0.21996 0.75242 0.70859
 O189 O 0.20092 0.79454 0.82027
 O190 O 0.29265 0.81335 0.68496
 Cu191 Cu 0.31993 0.73541 0.79031
 Cu192 Cu 0.24072 0.81100 0.75002
 C193 C 0.33952 0.78327 0.67718
 C194 C 0.22056 0.76101 0.86146
 C195 C 0.24568 0.70363 0.70905
 C196 C 0.32370 0.84299 0.81986
 O197 O 0.28081 0.35060 0.78775
 O198 O 0.33780 0.24881 0.90087
 O199 O 0.35832 0.27134 0.78510
 O200 O 0.25568 0.33226 0.90188
 O201 O 0.20172 0.27625 0.87098
 O202 O 0.30547 0.21437 0.75358
 O203 O 0.28338 0.19315 0.87041
 O204 O 0.22544 0.29648 0.75533
 Cu205 Cu 0.31376 0.30580 0.84851
 Cu206 Cu 0.24837 0.23920 0.81009
 C207 C 0.24488 0.34030 0.75080
 C208 C 0.32121 0.20364 0.90461
 C209 C 0.34842 0.23472 0.74753
 C210 C 0.21067 0.31556 0.90525
 O211 O 0.73142 0.79579 0.60119
 O212 O 0.86323 0.78176 0.67771
 O213 O 0.81326 0.72282 0.60868
 O214 O 0.77031 0.85922 0.68101
 O215 O 0.73014 0.82621 0.76118
 O216 O 0.77334 0.68805 0.68814
 O217 O 0.82862 0.75202 0.76369
 O218 O 0.69557 0.76254 0.68480
 Cu219 Cu 0.79868 0.79528 0.63670
 Cu220 Cu 0.75709 0.75380 0.73511
 C221 C 0.69162 0.77945 0.62882
 C222 C 0.86904 0.76413 0.73273
 C223 C 0.79641 0.68275 0.63391
 C224 C 0.73921 0.86666 0.72948
 N225 N 0.23541 0.09946 0.16811
 N226 N 0.27125 0.12477 0.18887
 N227 N 0.75610 0.61270 0.59138
 N228 N 0.79887 0.63345 0.59752
 N229 N 0.66713 0.85177 0.02970
 N230 N 0.65073 0.81022 0.04648
 N231 N 0.26473 0.40403 0.68034
 N232 N 0.22957 0.37679 0.70079
 N233 N 0.89510 0.20998 0.11044
 N234 N 0.85152 0.24319 0.12472
 N235 N 0.41660 0.75766 0.60866
 N236 N 0.37293 0.79103 0.62362
 N237 N 0.07460 0.75344 0.12666
 N238 N 0.11284 0.71411 0.13859
 N239 N 0.62188 0.25318 0.63257
 N240 N 0.66185 0.21495 0.64158
 N241 N 0.76277 0.09297 0.86947
 N242 N 0.73324 0.14011 0.86701
 N243 N 0.23473 0.60559 0.40343
 N244 N 0.19401 0.64250 0.39222
 N245 N 0.33192 0.91275 0.88862
 N246 N 0.35112 0.88374 0.84378
 N247 N 0.73275 0.36748 0.36460
 N248 N 0.76954 0.32536 0.35392
 N249 N 0.12835 0.32261 0.95924
 N250 N 0.16966 0.34181 0.94826
 N251 N 0.52559 0.79488 0.28173
 N252 N 0.55649 0.77407 0.23586
 N253 N 0.93348 0.75453 0.81339
 N254 N 0.92263 0.75679 0.75748
 N255 N 0.37906 0.24357 0.41732
 N256 N 0.34892 0.20753 0.41410
 N257 N 0.68457 0.94792 0.78394
 N258 N 0.70484 0.91912 0.73635
 N259 N 0.23305 0.38888 0.42800
 N260 N 0.19270 0.36457 0.42359
 N261 N 0.32907 0.12319 0.96241
 N262 N 0.34663 0.16474 0.94794
 N263 N 0.72677 0.58935 0.33751
 N264 N 0.75220 0.62877 0.32857
 N265 N 0.13873 0.75521 0.91851
 N266 N 0.18887 0.75105 0.91554
 N267 N 0.60120 0.22847 0.38151
 N268 N 0.63715 0.18635 0.36941
 N269 N 0.92498 0.25468 0.86931
 N270 N 0.87794 0.28432 0.86875
 N271 N 0.37661 0.74460 0.37008
 N272 N 0.33222 0.77827 0.36494
 N273 N 0.23013 0.88330 0.12012
 N274 N 0.26306 0.84238 0.13963
 N275 N 0.75370 0.39037 0.61654
 N276 N 0.79414 0.35267 0.62575
 N277 N 0.74828 0.05165 0.10643
 N278 N 0.71541 0.09574 0.12120
 N279 N 0.26676 0.62275 0.65414
 N280 N 0.23011 0.66337 0.66937
 N281 N 0.86192 0.75192 0.07646
 N282 N 0.84348 0.70877 0.09016
 N283 N 0.40591 0.25850 0.67147
 N284 N 0.38352 0.22079 0.69424
 N285 N 0.09475 0.24577 0.16585
 N286 N 0.11231 0.28652 0.18824
 N287 N 0.62938 0.80437 0.54763
 N288 N 0.64320 0.77606 0.59567
   
