data_POSCAR
  _audit_creation_date              2014-09-24
  _audit_creation_method            'ToBaCCo'
  _symmetry_space_group_name_H-M    'P1'
  _symmetry_Int_Tables_number       1
  _symmetry_cell_setting            triclinic
  loop_
  _symmetry_equiv_pos_as_xyz
 x,y,z
_cell_length_a 20.4702
_cell_length_b 20.4702
_cell_length_c 30.6901
_cell_angle_alpha 89.506400
_cell_angle_beta 89.506400
_cell_angle_gamma 88.300700
loop_
  _atom_site_label
  _atom_site_type_symbol
  _atom_site_fract_x
  _atom_site_fract_y
  _atom_site_fract_z
O1 O -0.04746 0.43487 1.04036
 O2 O -0.04054 0.57196 0.95913
 O3 O -0.05692 0.44534 0.95486
 O4 O -0.05174 0.56087 1.04324
 O5 O 0.05608 0.56053 1.04043
 O6 O 0.04993 0.42851 0.95719
 O7 O 0.06591 0.55397 0.95490
 O8 O 0.06034 0.43405 1.04192
 Cu9 Cu -0.05968 0.50375 0.99910
 Cu10 Cu 0.06854 0.49354 0.99838
 C11 C 0.00659 0.41341 1.05620
 C12 C 0.01500 0.58505 0.94244
 C13 C -0.00561 0.41605 0.94118
 C14 C 0.00196 0.58107 1.05707
 O15 O 0.55397 0.06591 0.45490
 O16 O 0.43405 0.06034 0.54192
 O17 O 0.56053 0.05608 0.54043
 O18 O 0.42851 0.04993 0.45719
 O19 O 0.44534 -0.05692 0.45486
 O20 O 0.56087 -0.05174 0.54324
 O21 O 0.43487 -0.04746 0.54036
 O22 O 0.57196 -0.04054 0.45913
 Cu23 Cu 0.49354 0.06854 0.49838
 Cu24 Cu 0.50375 -0.05968 0.49910
 C25 C 0.58505 0.01500 0.44244
 C26 C 0.41341 0.00659 0.55620
 C27 C 0.58107 0.00196 0.55707
 C28 C 0.41605 -0.00561 0.44118
 C29 C 0.00041 -0.00477 0.24936
 C30 C -0.00477 0.00041 0.74936
 C31 C 0.04047 -0.31893 0.09590
 C32 C 0.02805 -0.26961 0.12702
 C33 C -0.02578 -0.27490 0.15603
 C34 C -0.06470 -0.32972 0.15476
 C35 C -0.05271 -0.37758 0.12367
 C36 C -0.00129 -0.37210 0.09335
 C37 C -0.04122 -0.22467 0.18526
 C38 C -0.00358 -0.16884 0.18632
 C39 C 0.05125 -0.16369 0.15845
 C40 C 0.06681 -0.21409 0.12883
 C41 C 0.08852 -0.10750 0.16013
 C42 C 0.07198 -0.05756 0.18944
 C43 C 0.01810 -0.06247 0.21838
 C44 C -0.02086 -0.11791 0.21474
 H45 H 0.08001 -0.31426 0.07246
 H46 H -0.10567 -0.33471 0.17703
 H47 H -0.08503 -0.41851 0.12257
 H48 H -0.08310 -0.22877 0.20693
 H49 H 0.10823 -0.20965 0.10684
 H50 H 0.13041 -0.10203 0.13873
 H51 H 0.10169 -0.01467 0.18983
 H52 H -0.06586 -0.12184 0.23304
 C53 C -0.03263 0.31225 0.09489
 C54 C -0.02118 0.26217 0.12603
 C55 C 0.03199 0.26648 0.15501
 C56 C 0.07154 0.32090 0.15344
 C57 C 0.06061 0.36947 0.12223
 C58 C 0.00954 0.36518 0.09217
 C59 C 0.04609 0.21573 0.18454
 C60 C 0.00792 0.16021 0.18579
 C61 C -0.04600 0.15586 0.15771
 C62 C -0.06036 0.20691 0.12793
 C63 C -0.08370 0.09989 0.15940
 C64 C -0.06843 0.04929 0.18886
 C65 C -0.01546 0.05335 0.21793
 C66 C 0.02373 0.10881 0.21461
 H67 H -0.07185 0.30849 0.07162
 H68 H 0.11209 0.32511 0.17562
 H69 H 0.09326 0.41017 0.12097
 H70 H 0.08736 0.21916 0.20629
 H71 H -0.10120 0.20317 0.10591
 H72 H -0.12494 0.09511 0.13788
 H73 H -0.09846 0.00661 0.18933
 H74 H 0.06761 0.11241 0.23361
 C75 C 0.31225 -0.03263 0.59489
 C76 C 0.26217 -0.02118 0.62603
 C77 C 0.26648 0.03199 0.65501
 C78 C 0.32090 0.07154 0.65344
 C79 C 0.36947 0.06061 0.62223
 C80 C 0.36518 0.00954 0.59217
 C81 C 0.21573 0.04609 0.68454
 C82 C 0.16021 0.00792 0.68579
 C83 C 0.15586 -0.04600 0.65771
 C84 C 0.20691 -0.06036 0.62793
 C85 C 0.09989 -0.08370 0.65940
 C86 C 0.04929 -0.06843 0.68886
 C87 C 0.05335 -0.01546 0.71793
 C88 C 0.10881 0.02373 0.71461
 H89 H 0.30849 -0.07185 0.57162
 H90 H 0.32511 0.11209 0.67562
 H91 H 0.41017 0.09326 0.62097
 H92 H 0.21916 0.08736 0.70629
 H93 H 0.20317 -0.10120 0.60591
 H94 H 0.09511 -0.12494 0.63788
 H95 H 0.00661 -0.09846 0.68933
 H96 H 0.11241 0.06761 0.73361
 C97 C -0.31893 0.04047 0.59590
 C98 C -0.26961 0.02805 0.62702
 C99 C -0.27490 -0.02578 0.65603
 C100 C -0.32972 -0.06470 0.65476
 C101 C -0.37758 -0.05271 0.62367
 C102 C -0.37210 -0.00129 0.59335
 C103 C -0.22467 -0.04122 0.68526
 C104 C -0.16884 -0.00358 0.68632
 C105 C -0.16369 0.05125 0.65845
 C106 C -0.21409 0.06681 0.62883
 C107 C -0.10750 0.08852 0.66013
 C108 C -0.05756 0.07198 0.68944
 C109 C -0.06247 0.01810 0.71838
 C110 C -0.11791 -0.02086 0.71474
 H111 H -0.31426 0.08001 0.57246
 H112 H -0.33471 -0.10567 0.67703
 H113 H -0.41851 -0.08503 0.62257
 H114 H -0.22877 -0.08310 0.70693
 H115 H -0.20965 0.10823 0.60684
 H116 H -0.10203 0.13041 0.63873
 H117 H -0.01467 0.10169 0.68983
 H118 H -0.12184 -0.06586 0.73304
 C119 C -0.02674 -0.31723 0.90287
 C120 C -0.01520 -0.26586 0.87308
 C121 C 0.04380 -0.26600 0.84869
 C122 C 0.09085 -0.31580 0.85503
 C123 C 0.08066 -0.36444 0.88599
 C124 C 0.02195 -0.36617 0.91036
 C125 C 0.05590 -0.21560 0.81893
 C126 C 0.01105 -0.16323 0.81421
 C127 C -0.04684 -0.16123 0.83955
 C128 C -0.06037 -0.21323 0.86825
 C129 C -0.08910 -0.10635 0.83657
 C130 C -0.07459 -0.05476 0.80824
 C131 C -0.01945 -0.05809 0.78015
 C132 C 0.02440 -0.11216 0.78509
 H133 H -0.07185 -0.31711 0.92165
 H134 H 0.13637 -0.31639 0.83671
 H135 H 0.11906 -0.40143 0.89037
 H136 H 0.10097 -0.21650 0.80003
 H137 H -0.10506 -0.21193 0.88750
 H138 H -0.13291 -0.10283 0.85658
 H139 H -0.10746 -0.01233 0.80742
 H140 H 0.07035 -0.11437 0.76747
 C141 C 0.02943 0.31214 0.90297
 C142 C 0.01634 0.26293 0.87268
 C143 C -0.03846 0.27029 0.84503
 C144 C -0.07856 0.32662 0.84749
 C145 C -0.06599 0.37444 0.87800
 C146 C -0.01263 0.36745 0.90637
 C147 C -0.05322 0.22083 0.81580
 C148 C -0.01417 0.16362 0.81373
 C149 C 0.04077 0.15604 0.84103
 C150 C 0.05588 0.20579 0.87029
 C151 C 0.07899 0.09832 0.83905
 C152 C 0.06357 0.04924 0.80985
 C153 C 0.01024 0.05674 0.78101
 C154 C -0.02982 0.11382 0.78484
 H155 H 0.07039 0.30618 0.92495
 H156 H -0.12051 0.33312 0.82642
 H157 H -0.09879 0.41687 0.87979
 H158 H -0.09546 0.22669 0.79485
 H159 H 0.09779 0.19969 0.89148
 H160 H 0.12086 0.09105 0.86009
 H161 H 0.09424 0.00523 0.80914
 H162 H -0.07401 0.12002 0.76610
 C163 C -0.31723 -0.02674 0.40287
 C164 C -0.26586 -0.01520 0.37308
 C165 C -0.26600 0.04380 0.34869
 C166 C -0.31580 0.09085 0.35503
 C167 C -0.36444 0.08066 0.38599
 C168 C -0.36617 0.02195 0.41036
 C169 C -0.21560 0.05590 0.31893
 C170 C -0.16323 0.01105 0.31421
 C171 C -0.16124 -0.04684 0.33955
 C172 C -0.21323 -0.06037 0.36825
 C173 C -0.10635 -0.08910 0.33657
 C174 C -0.05476 -0.07459 0.30824
 C175 C -0.05809 -0.01945 0.28015
 C176 C -0.11216 0.02440 0.28509
 H177 H -0.31711 -0.07185 0.42165
 H178 H -0.31639 0.13637 0.33671
 H179 H -0.40143 0.11906 0.39037
 H180 H -0.21650 0.10097 0.30003
 H181 H -0.21193 -0.10506 0.38750
 H182 H -0.10283 -0.13291 0.35658
 H183 H -0.01233 -0.10746 0.30742
 H184 H -0.11437 0.07035 0.26747
 C185 C 0.31214 0.02943 0.40297
 C186 C 0.26293 0.01634 0.37268
 C187 C 0.27029 -0.03846 0.34503
 C188 C 0.32662 -0.07856 0.34749
 C189 C 0.37444 -0.06599 0.37800
 C190 C 0.36745 -0.01263 0.40637
 C191 C 0.22083 -0.05322 0.31580
 C192 C 0.16362 -0.01417 0.31373
 C193 C 0.15604 0.04077 0.34103
 C194 C 0.20579 0.05588 0.37029
 C195 C 0.09832 0.07899 0.33905
 C196 C 0.04924 0.06357 0.30985
 C197 C 0.05674 0.01024 0.28101
 C198 C 0.11382 -0.02982 0.28484
 H199 H 0.30618 0.07039 0.42495
 H200 H 0.33312 -0.12051 0.32642
 H201 H 0.41687 -0.09879 0.37979
 H202 H 0.22669 -0.09546 0.29485
 H203 H 0.19969 0.09779 0.39148
 H204 H 0.09105 0.12086 0.36009
 H205 H 0.00523 0.09424 0.30914
 H206 H 0.12002 -0.07401 0.26610
   
