data_POSCAR
  _audit_creation_date              2014-09-24
  _audit_creation_method            'ToBaCCo'
  _symmetry_space_group_name_H-M    'P1'
  _symmetry_Int_Tables_number       1
  _symmetry_cell_setting            triclinic
  loop_
  _symmetry_equiv_pos_as_xyz
 x,y,z
_cell_length_a 42.4368
_cell_length_b 45.0924
_cell_length_c 44.8871
_cell_angle_alpha 90.092400
_cell_angle_beta 90.061200
_cell_angle_gamma 90.425100
loop_
  _atom_site_label
  _atom_site_type_symbol
  _atom_site_fract_x
  _atom_site_fract_y
  _atom_site_fract_z
O1 O 0.36598 0.32613 -0.03111
 O2 O 0.31865 0.36516 0.02484
 O3 O 0.36438 0.32741 0.02695
 O4 O 0.32056 0.36412 -0.03301
 O5 O 0.28496 0.32829 -0.03255
 O6 O 0.33025 0.29022 0.02617
 O7 O 0.28385 0.32850 0.02476
 O8 O 0.33107 0.28959 -0.03167
 Cu9 Cu 0.34589 0.34934 -0.00305
 Cu10 Cu 0.30411 0.30537 -0.00337
 C11 C 0.35667 0.30112 -0.04088
 C12 C 0.29305 0.35371 0.03410
 C13 C 0.35503 0.30241 0.03660
 C14 C 0.29493 0.35295 -0.04269
 O15 O 0.61862 0.66532 -0.02923
 O16 O 0.65860 0.62092 0.02796
 O17 O 0.61868 0.66404 0.02887
 O18 O 0.65809 0.62165 -0.03019
 O19 O 0.69810 0.65306 -0.02905
 O20 O 0.65762 0.69682 0.02881
 O21 O 0.69804 0.65314 0.02853
 O22 O 0.65815 0.69744 -0.02883
 Cu23 Cu 0.63455 0.63978 -0.00074
 Cu24 Cu 0.68195 0.67835 -0.00015
 C25 C 0.63142 0.68908 -0.03859
 C26 C 0.68521 0.62940 0.03793
 C27 C 0.63123 0.68774 0.03876
 C28 C 0.68511 0.62972 -0.03946
 O29 O 0.69652 0.35035 0.97533
 O30 O 0.65281 0.30609 1.03046
 O31 O 0.69477 0.34775 1.03314
 O32 O 0.65196 0.31083 0.97277
 O33 O 0.68752 0.27530 0.97157
 O34 O 0.73260 0.31463 1.03044
 O35 O 0.68993 0.27206 1.02902
 O36 O 0.73280 0.31556 0.97299
 Cu37 Cu 0.67035 0.33218 1.00309
 Cu38 Cu 0.71440 0.29089 1.00079
 C39 C 0.72232 0.34059 0.96499
 C40 C 0.66389 0.28143 1.03904
 C41 C 0.72124 0.33812 1.04184
 C42 C 0.66195 0.28656 0.96224
 O43 O 0.35461 0.68629 1.03370
 O44 O 0.31325 0.64117 0.97658
 O45 O 0.35728 0.68151 0.97591
 O46 O 0.31331 0.64338 1.03521
 O47 O 0.27516 0.67606 1.03167
 O48 O 0.32086 0.71617 0.97388
 O49 O 0.27636 0.67533 0.97391
 O50 O 0.31678 0.71953 1.03113
 Cu51 Cu 0.33824 0.65965 1.00566
 Cu52 Cu 0.29353 0.70006 1.00238
 C53 C 0.34282 0.71088 1.04181
 C54 C 0.28764 0.65073 0.96552
 C55 C 0.34702 0.70560 0.96517
 C56 C 0.28659 0.65283 1.04350
 O57 O -0.02842 0.35772 0.31590
 O58 O 0.02614 0.31346 0.36171
 O59 O 0.03249 0.35690 0.32399
 O60 O -0.03481 0.31695 0.35637
 O61 O -0.03116 0.28237 0.32183
 O62 O 0.03474 0.32431 0.28731
 O63 O 0.02918 0.28038 0.32551
 O64 O -0.02591 0.32372 0.28057
 Cu65 Cu -0.00141 0.33961 0.34302
 Cu66 Cu 0.00195 0.29942 0.30015
 C67 C -0.03626 0.34823 0.29022
 C68 C 0.03656 0.28910 0.35147
 C69 C 0.04480 0.34785 0.29993
 C70 C -0.04404 0.29243 0.34535
 O71 O 0.03190 0.66857 0.63186
 O72 O -0.03154 0.62912 0.67077
 O73 O -0.02925 0.66771 0.62814
 O74 O 0.02954 0.63129 0.67593
 O75 O 0.02594 0.66787 0.70849
 O76 O -0.03183 0.70472 0.66016
 O77 O -0.03465 0.66556 0.70357
 O78 O 0.02853 0.70565 0.66391
 Cu79 Cu 0.00053 0.64547 0.64847
 Cu80 Cu -0.00334 0.68962 0.68734
 C81 C 0.04059 0.69405 0.64081
 C82 C -0.04364 0.64035 0.69397
 C83 C -0.04018 0.69281 0.63568
 C84 C 0.03742 0.64317 0.70057
 O85 O 1.02900 0.62792 0.32578
 O86 O 0.97122 0.66649 0.37311
 O87 O 0.96796 0.62769 0.33077
 O88 O 1.03268 0.66482 0.37039
 O89 O 1.03037 0.70235 0.33912
 O90 O 0.96721 0.66366 0.29742
 O91 O 0.96941 0.70285 0.34030
 O92 O 1.02781 0.66506 0.29382
 Cu93 Cu 1.00049 0.64308 0.35327
 Cu94 Cu 0.99868 0.68722 0.31445
 C95 C 1.03784 0.63976 0.30146
 C96 C 0.96036 0.69130 0.36463
 C97 C 0.95683 0.63902 0.30720
 C98 C 1.04222 0.69024 0.36211
 O99 O 0.96818 0.33041 0.62505
 O100 O 1.02874 0.37772 0.66106
 O101 O 1.02935 0.33635 0.62122
 O102 O 0.96724 0.37398 0.66338
 O103 O 0.97232 0.34174 0.69997
 O104 O 1.03361 0.30281 0.65663
 O105 O 1.03339 0.34462 0.69693
 O106 O 0.97305 0.29765 0.66122
 Cu107 Cu 0.99776 0.35789 0.63912
 Cu108 Cu 1.00343 0.31844 0.68233
 C109 C 0.96067 0.30571 0.63682
 C110 C 1.04154 0.36907 0.68513
 C111 C 1.04212 0.31310 0.63147
 C112 C 0.95947 0.36468 0.68903
 O113 O 0.31857 -0.02962 0.36062
 O114 O 0.36724 0.02715 0.32376
 O115 O 0.32666 0.02744 0.36629
 O116 O 0.36130 -0.03019 0.31864
 O117 O 0.32403 -0.02324 0.28510
 O118 O 0.28867 0.03409 0.33338
 O119 O 0.32970 0.03354 0.29028
 O120 O 0.28093 -0.02271 0.32743
 Cu121 Cu 0.34719 -0.00220 0.34565
 Cu122 Cu 0.30199 0.00592 0.30572
 C123 C 0.29117 -0.03542 0.35066
 C124 C 0.35668 0.04002 0.30071
 C125 C 0.30189 0.04072 0.35798
 C126 C 0.34910 -0.03611 0.29346
 O127 O 0.63065 0.03181 0.67015
 O128 O 0.66794 -0.02861 0.62872
 O129 O 0.62646 -0.02591 0.67115
 O130 O 0.67372 0.02928 0.62936
 O131 O 0.71120 0.02642 0.66336
 O132 O 0.66377 -0.02811 0.70535
 O133 O 0.70561 -0.03095 0.66258
 O134 O 0.66760 0.02912 0.70471
 Cu135 Cu 0.64601 0.00186 0.64639
 Cu136 Cu 0.69084 -0.00111 0.68738
 C137 C 0.64248 0.04054 0.69462
 C138 C 0.69317 -0.04002 0.63843
 C139 C 0.63696 -0.03622 0.69556
 C140 C 0.70060 0.03721 0.63926
 O141 O 0.31628 1.03052 0.64416
 O142 O 0.36267 0.97383 0.68258
 O143 O 0.32265 0.97334 0.63934
 O144 O 0.35715 1.03085 0.68777
 O145 O 0.31865 1.02432 0.72021
 O146 O 0.28368 0.96717 0.67136
 O147 O 0.32425 0.96779 0.71527
 O148 O 0.27740 1.02405 0.67616
 Cu149 Cu 0.34351 1.00296 0.66020
 Cu150 Cu 0.29701 0.99530 0.69895
 C151 C 0.28873 1.03659 0.65319
 C152 C 0.35150 0.96137 0.70564
 C153 C 0.29725 0.96047 0.64707
 C154 C 0.34433 1.03682 0.71261
 O155 O 0.64503 0.97205 0.31793
 O156 O 0.68549 1.03481 0.35328
 O157 O 0.64368 1.02962 0.31141
 O158 O 0.68924 0.97726 0.35765
 O159 O 0.72580 0.97554 0.32275
 O160 O 0.68111 1.02828 0.27734
 O161 O 0.72356 1.03259 0.32003
 O162 O 0.68102 0.97102 0.28244
 Cu163 Cu 0.66216 1.00359 0.33848
 Cu164 Cu 0.70653 1.00172 0.29714
 C165 C 0.65574 0.96104 0.29403
 C166 C 0.71171 1.04417 0.34332
 C167 C 0.65470 1.03776 0.28635
 C168 C 0.71550 0.96771 0.34809
 O169 O 0.86732 0.82687 0.46894
 O170 O 0.82804 0.86742 0.52892
 O171 O 0.86965 0.82620 0.52708
 O172 O 0.82352 0.86708 0.47113
 O173 O 0.78642 0.83257 0.47304
 O174 O 0.83286 0.79127 0.52822
 O175 O 0.79057 0.83319 0.53054
 O176 O 0.83076 0.79181 0.47079
 Cu177 Cu 0.85087 0.85032 0.49869
 Cu178 Cu 0.80639 0.80873 0.50069
 C179 C 0.85620 0.80223 0.46000
 C180 C 0.80260 0.85738 0.53990
 C181 C 0.85907 0.80175 0.53711
 C182 C 0.79679 0.85706 0.46299
 O183 O 0.13769 0.18435 0.47683
 O184 O 0.18279 0.13992 0.53093
 O185 O 0.14100 0.18142 0.53466
 O186 O 0.17608 0.13980 0.47300
 O187 O 0.21596 0.17149 0.47125
 O188 O 0.17908 0.21500 0.53175
 O189 O 0.22146 0.17286 0.52881
 O190 O 0.17710 0.21656 0.47458
 Cu191 Cu 0.15555 0.15807 0.50403
 Cu192 Cu 0.20240 0.19715 0.50139
 C193 C 0.14965 0.20831 0.46688
 C194 C 0.20996 0.14893 0.53903
 C195 C 0.15354 0.20556 0.54326
 C196 C 0.20207 0.14818 0.46180
 O197 O 0.12721 0.82679 0.52404
 O198 O 0.17688 0.86584 0.46931
 O199 O 0.13276 0.82592 0.46599
 O200 O 0.16913 0.86842 0.52679
 O201 O 0.20651 0.83483 0.53097
 O202 O 0.16836 0.79083 0.47134
 O203 O 0.21310 0.83123 0.47383
 O204 O 0.16400 0.79278 0.52895
 Cu205 Cu 0.14780 0.85015 0.49597
 Cu206 Cu 0.19164 0.80892 0.50168
 C207 C 0.13732 0.80317 0.53600
 C208 C 0.20359 0.85528 0.46243
 C209 C 0.14405 0.80105 0.45847
 C210 C 0.19406 0.85909 0.53912
 O211 O 0.84806 0.19538 0.52559
 O212 O 0.80714 0.15184 0.46737
 O213 O 0.84849 0.19432 0.46756
 O214 O 0.80645 0.15151 0.52545
 O215 O 0.76797 0.18414 0.52483
 O216 O 0.81037 0.22744 0.46772
 O217 O 0.76846 0.18438 0.46749
 O218 O 0.80965 0.22810 0.52497
 Cu219 Cu 0.83138 0.16997 0.49676
 Cu220 Cu 0.78526 0.20926 0.49634
 C221 C 0.83632 0.21970 0.53447
 C222 C 0.78062 0.16060 0.45780
 C223 C 0.83674 0.21836 0.45809
 C224 C 0.77956 0.16002 0.53433
 O225 O 0.46974 0.87803 0.84008
 O226 O 0.53094 0.83522 0.87864
 O227 O 0.53109 0.87670 0.83802
 O228 O 0.46955 0.83759 0.88078
 O229 O 0.46703 0.80284 0.84614
 O230 O 0.52787 0.84278 0.80260
 O231 O 0.52797 0.80081 0.84369
 O232 O 0.46718 0.84368 0.80500
 Cu233 Cu 0.50078 0.86031 0.86289
 Cu234 Cu 0.49741 0.81903 0.82087
 C235 C 0.45813 0.86817 0.81589
 C236 C 0.53944 0.81041 0.86802
 C237 C 0.53947 0.86685 0.81273
 C238 C 0.45777 0.81356 0.87082
 O239 O 0.53359 0.17900 0.13674
 O240 O 0.47096 0.13459 0.17157
 O241 O 0.47263 0.17470 0.13057
 O242 O 0.53169 0.13795 0.17751
 O243 O 0.52582 0.17235 0.21208
 O244 O 0.46698 0.20958 0.16469
 O245 O 0.46562 0.16896 0.20633
 O246 O 0.52755 0.21381 0.17086
 Cu247 Cu 0.50292 0.15315 0.15060
 Cu248 Cu 0.49597 0.19474 0.19191
 C249 C 0.54095 0.20415 0.14756
 C250 C 0.45797 0.14405 0.19516
 C251 C 0.45974 0.19841 0.13955
 C252 C 0.53835 0.14844 0.20305
 O253 O 0.53081 0.12437 0.83207
 O254 O 0.46952 0.16496 0.87233
 O255 O 0.46984 0.12828 0.82749
 O256 O 0.53104 0.16207 0.87545
 O257 O 0.53565 0.19910 0.84363
 O258 O 0.47475 0.16552 0.79591
 O259 O 0.47459 0.20248 0.84114
 O260 O 0.53513 0.16115 0.79986
 Cu261 Cu 0.49971 0.14125 0.85508
 Cu262 Cu 0.50541 0.18588 0.81703
 C263 C 0.54325 0.13566 0.80899
 C264 C 0.46172 0.19070 0.86382
 C265 C 0.46228 0.14093 0.80324
 C266 C 0.54397 0.18632 0.86753
 O267 O 0.46605 0.82081 0.14070
 O268 O 0.52950 0.86693 0.17266
 O269 O 0.52651 0.82496 0.13317
 O270 O 0.46852 0.86308 0.18075
 O271 O 0.47605 0.82979 0.21596
 O272 O 0.53329 0.79128 0.16823
 O273 O 0.53657 0.83369 0.20804
 O274 O 0.47345 0.78717 0.17564
 Cu275 Cu 0.49679 0.84736 0.15340
 Cu276 Cu 0.50547 0.80724 0.19562
 C277 C 0.45957 0.79574 0.15213
 C278 C 0.54389 0.85819 0.19582
 C279 C 0.53937 0.80133 0.14243
 C280 C 0.46273 0.85317 0.20668
 O281 O 0.86917 0.52822 0.82887
 O282 O 0.82465 0.46967 0.86768
 O283 O 0.86944 0.47030 0.82820
 O284 O 0.82598 0.52746 0.86935
 O285 O 0.78915 0.52750 0.83451
 O286 O 0.83369 0.47111 0.79247
 O287 O 0.78843 0.47039 0.83231
 O288 O 0.83297 0.52871 0.79350
 Cu289 Cu 0.85096 0.49877 0.85205
 Cu290 Cu 0.80749 0.49946 0.80957
 C291 C 0.85860 0.53847 0.80452
 C292 C 0.79874 0.46034 0.85680
 C293 C 0.85924 0.46110 0.80322
 C294 C 0.80009 0.53703 0.85913
 O295 O 0.18708 0.47319 0.14104
 O296 O 0.14301 0.52559 0.18840
 O297 O 0.18515 0.53073 0.14621
 O298 O 0.14192 0.46827 0.17966
 O299 O 0.17781 0.46470 0.21509
 O300 O 0.22244 0.52644 0.18025
 O301 O 0.17977 0.52171 0.22298
 O302 O 0.22336 0.46970 0.17618
 Cu303 Cu 0.16060 0.49991 0.16042
 Cu304 Cu 0.20438 0.49543 0.20221
 C305 C 0.21300 0.46281 0.15057
 C306 C 0.15379 0.53219 0.21405
 C307 C 0.21162 0.53863 0.15684
 C308 C 0.15225 0.45585 0.20302
 O309 O 0.86378 0.46903 0.18168
 O310 O 0.82412 0.52282 0.13323
 O311 O 0.86607 0.52639 0.17510
 O312 O 0.82226 0.46531 0.13931
 O313 O 0.78401 0.47036 0.17224
 O314 O 0.82836 0.53068 0.20866
 O315 O 0.78600 0.52724 0.16637
 O316 O 0.82603 0.47374 0.21513
 Cu317 Cu 0.84787 0.49539 0.15399
 Cu318 Cu 0.80229 0.50093 0.19397
 C319 C 0.85188 0.46241 0.20678
 C320 C 0.79818 0.53406 0.14144
 C321 C 0.85485 0.53875 0.19816
 C322 C 0.79544 0.45777 0.14939
 O323 O 0.14619 0.47258 0.81421
 O324 O 0.18907 0.53189 0.85315
 O325 O 0.14711 0.53013 0.81035
 O326 O 0.19005 0.47428 0.85450
 O327 O 0.22726 0.47347 0.82009
 O328 O 0.18461 0.52884 0.77634
 O329 O 0.22694 0.53044 0.81951
 O330 O 0.18267 0.47174 0.77914
 Cu331 Cu 0.16438 0.50244 0.83645
 Cu332 Cu 0.20907 0.50104 0.79530
 C333 C 0.15673 0.46234 0.78989
 C334 C 0.21565 0.54075 0.84362
 C335 C 0.15831 0.53848 0.78543
 C336 C 0.21632 0.46485 0.84492
 C337 C 0.24058 0.36726 0.05508
 C338 C 0.27355 0.37033 0.05540
 C339 C 0.28776 0.39044 0.07525
 C340 C 0.26927 0.40763 0.09438
 C341 C 0.23602 0.40526 0.09318
 C342 C 0.22193 0.38480 0.07363
 C343 C 0.21753 0.42347 0.11146
 C344 C 0.23196 0.44327 0.13152
 C345 C 0.26499 0.44476 0.13317
 C346 C 0.28350 0.42731 0.11455
 H347 H 0.31321 0.39268 0.07580
 H348 H 0.19652 0.38251 0.07255
 H349 H 0.19204 0.42204 0.11035
 H350 H 0.30893 0.42927 0.11586
 H351 H 0.22921 0.35193 0.03981
 H352 H 0.27651 0.45999 0.14845
 C353 C 0.68440 0.59310 0.07992
 C354 C 0.70162 0.61124 0.06031
 C355 C 0.73470 0.61129 0.06159
 C356 C 0.75047 0.59289 0.08179
 C357 C 0.73295 0.57494 0.10168
 C358 C 0.69993 0.57535 0.10068
 C359 C 0.74873 0.55643 0.12178
 C360 C 0.78178 0.55486 0.12154
 C361 C 0.79898 0.57252 0.10149
 C362 C 0.78348 0.59165 0.08201
 H363 H 0.74815 0.62494 0.04625
 H364 H 0.68612 0.56164 0.11566
 H365 H 0.73530 0.54255 0.13692
 H366 H 0.79727 0.60514 0.06682
 H367 H 0.65889 0.59281 0.07930
 H368 H 0.82447 0.57163 0.10101
 C369 C 0.77386 0.35697 0.94396
 C370 C 0.74085 0.35901 0.94428
 C371 C 0.72589 0.37971 0.92583
 C372 C 0.74377 0.39860 0.90760
 C373 C 0.77706 0.39725 0.90836
 C374 C 0.79185 0.37612 0.92633
 C375 C 0.79497 0.41730 0.89145
 C376 C 0.78003 0.43818 0.87322
 C377 C 0.74698 0.43859 0.87165
 C378 C 0.72897 0.41913 0.88892
 H379 H 0.70040 0.38116 0.92578
 H380 H 0.81732 0.37463 0.92702
 H381 H 0.82049 0.41670 0.89248
 H382 H 0.70349 0.42033 0.88790
 H383 H 0.78582 0.34120 0.95812
 H384 H 0.73507 0.45462 0.85776
 C385 C 0.23717 0.63465 0.94203
 C386 C 0.27020 0.63300 0.94316
 C387 C 0.28603 0.61451 0.92294
 C388 C 0.26894 0.59772 0.90188
 C389 C 0.23564 0.59888 0.90167
 C390 C 0.22003 0.61754 0.92168
 C391 C 0.21843 0.58098 0.88181
 C392 C 0.23398 0.56218 0.86173
 C393 C 0.26709 0.56211 0.86115
 C394 C 0.28444 0.57959 0.88120
 H395 H 0.31154 0.61342 0.92344
 H396 H 0.19454 0.61880 0.92171
 H397 H 0.19289 0.58133 0.88230
 H398 H 0.30993 0.57856 0.88085
 H399 H 0.22451 0.64875 0.95740
 H400 H 0.27955 0.54762 0.84601
 C401 C 0.05496 0.23917 0.36706
 C402 C 0.05659 0.27015 0.37020
 C403 C 0.07673 0.28265 0.39170
 C404 C 0.09518 0.26434 0.40987
 C405 C 0.09267 0.23313 0.40715
 C406 C 0.07259 0.22079 0.38560
 C407 C 0.11033 0.21481 0.42600
 C408 C 0.13125 0.22731 0.44681
 C409 C 0.13426 0.25830 0.44878
 C410 C 0.11612 0.27668 0.43070
 H411 H 0.07828 0.30656 0.39402
 H412 H 0.07051 0.19695 0.38307
 H413 H 0.10817 0.19090 0.42422
 H414 H 0.11849 0.30052 0.43299
 H415 H 0.03942 0.22912 0.35070
 H416 H 0.15019 0.26831 0.46484
 C417 C 0.08751 0.69581 0.60754
 C418 C 0.06386 0.71079 0.62322
 C419 C 0.06068 0.74156 0.61982
 C420 C 0.08014 0.75710 0.59992
 C421 C 0.10389 0.74184 0.58417
 C422 C 0.10769 0.71129 0.58847
 C423 C 0.12289 0.75720 0.56379
 C424 C 0.11789 0.78746 0.55824
 C425 C 0.09413 0.80242 0.57386
 C426 C 0.07561 0.78743 0.59477
 H427 H 0.04205 0.75311 0.63149
 H428 H 0.12571 0.69924 0.57649
 H429 H 0.14099 0.74541 0.55165
 H430 H 0.05742 0.79943 0.60654
 H431 H 0.09017 0.67205 0.60985
 H432 H 0.09002 0.82578 0.57003
 C433 C 0.91982 0.69219 0.40519
 C434 C 0.93741 0.70724 0.38336
 C435 C 0.93351 0.73796 0.37986
 C436 C 0.91298 0.75364 0.39844
 C437 C 0.89530 0.73833 0.42031
 C438 C 0.89869 0.70756 0.42332
 C439 C 0.87533 0.75420 0.43938
 C440 C 0.87383 0.78526 0.43756
 C441 C 0.89144 0.80024 0.41574
 C442 C 0.91053 0.78453 0.39606
 H443 H 0.94719 0.74985 0.36329
 H444 H 0.88544 0.69547 0.44004
 H445 H 0.86218 0.74260 0.45654
 H446 H 0.92400 0.79660 0.37948
 H447 H 0.92236 0.66850 0.40819
 H448 H 0.89059 0.82418 0.41408
 C449 C 0.94111 0.25483 0.62439
 C450 C 0.93806 0.28572 0.62161
 C451 C 0.91405 0.29718 0.60350
 C452 C 0.89356 0.27798 0.58801
 C453 C 0.89765 0.24693 0.58999
 C454 C 0.92129 0.23560 0.60850
 C455 C 0.87838 0.22779 0.57306
 C456 C 0.85459 0.23927 0.55467
 C457 C 0.84987 0.27010 0.55390
 C458 C 0.86931 0.28928 0.57022
 H459 H 0.91134 0.32098 0.60149
 H460 H 0.92466 0.21189 0.61047
 H461 H 0.88210 0.20405 0.57394
 H462 H 0.86567 0.31298 0.56859
 H463 H 0.95950 0.24554 0.63819
 H464 H 0.83183 0.27949 0.53975
 C465 C 0.39730 0.08018 0.30193
 C466 C 0.37613 0.06245 0.28561
 C467 C 0.37408 0.06574 0.25458
 C468 C 0.39368 0.08602 0.23981
 C469 C 0.41472 0.10405 0.25643
 C470 C 0.41619 0.10113 0.28748
 C471 C 0.43461 0.12405 0.24163
 C472 C 0.43469 0.12532 0.21041
 C473 C 0.41397 0.10721 0.19402
 C474 C 0.39322 0.08800 0.20864
 H475 H 0.35803 0.05180 0.24188
 H476 H 0.43232 0.11466 0.30051
 H477 H 0.45104 0.13765 0.25429
 H478 H 0.37737 0.07422 0.19558
 H479 H 0.39906 0.07795 0.32589
 H480 H 0.41388 0.10795 0.16990
 C481 C 0.60790 0.08491 0.69731
 C482 C 0.62609 0.06348 0.71190
 C483 C 0.62653 0.06260 0.74315
 C484 C 0.60768 0.08198 0.75970
 C485 C 0.58921 0.10336 0.74482
 C486 C 0.58994 0.10500 0.71366
 C487 C 0.56936 0.12192 0.76128
 C488 C 0.56676 0.11854 0.79226
 C489 C 0.58533 0.09740 0.80688
 C490 C 0.60596 0.07953 0.79077
 H491 H 0.64019 0.04580 0.75450
 H492 H 0.57587 0.12118 0.70190
 H493 H 0.55478 0.13795 0.74984
 H494 H 0.61987 0.06321 0.80251
 H495 H 0.60735 0.08591 0.67321
 H496 H 0.58371 0.09457 0.83079
 C497 C 0.39154 0.92130 0.70633
 C498 C 0.37089 0.93991 0.72186
 C499 C 0.37032 0.93929 0.75312
 C500 C 0.39105 0.92097 0.76882
 C501 C 0.41167 0.90214 0.75300
 C502 C 0.41147 0.90221 0.72177
 C503 C 0.43278 0.88420 0.76865
 C504 C 0.43441 0.88564 0.79985
 C505 C 0.41406 0.90456 0.81541
 C506 C 0.39224 0.92182 0.80003
 H507 H 0.35475 0.95402 0.76517
 H508 H 0.42724 0.88804 0.70932
 H509 H 0.44874 0.86993 0.75651
 H510 H 0.37674 0.93624 0.81249
 H511 H 0.39226 0.92158 0.68220
 H512 H 0.41498 0.90588 0.83949
 C513 C 0.62194 0.91582 0.29691
 C514 C 0.63784 0.93696 0.27946
 C515 C 0.63409 0.93654 0.24838
 C516 C 0.61332 0.91609 0.23498
 C517 C 0.59724 0.89500 0.25278
 C518 C 0.60218 0.89472 0.28365
 C519 C 0.57558 0.87530 0.23961
 C520 C 0.56884 0.87709 0.20902
 C521 C 0.58502 0.89801 0.19147
 C522 C 0.60735 0.91710 0.20427
 H523 H 0.64592 0.95315 0.23489
 H524 H 0.58999 0.87879 0.29764
 H525 H 0.56297 0.85945 0.25338
 H526 H 0.61935 0.93316 0.19028
 H527 H 0.62457 0.91587 0.32092
 H528 H 0.58027 0.89968 0.16782
 C529 C 0.39817 0.30040 0.91965
 C530 C 0.37629 0.28501 0.93743
 C531 C 0.37437 0.25396 0.93546
 C532 C 0.39484 0.23834 0.91671
 C533 C 0.41684 0.25401 0.89895
 C534 C 0.41805 0.28506 0.90032
 C535 C 0.43787 0.23834 0.88079
 C536 C 0.43787 0.20718 0.88090
 C537 C 0.41586 0.19183 0.89857
 C538 C 0.39430 0.20727 0.91608
 H539 H 0.35781 0.24187 0.94935
 H540 H 0.43481 0.29743 0.88694
 H541 H 0.45500 0.25036 0.86746
 H542 H 0.37765 0.19491 0.92960
 H543 H 0.39996 0.32435 0.92077
 H544 H 0.41538 0.16782 0.89889
 C545 C 0.59291 0.69452 0.91973
 C546 C 0.61460 0.70753 0.93956
 C547 C 0.61884 0.73847 0.93952
 C548 C 0.60070 0.75635 0.92066
 C549 C 0.57891 0.74303 0.90079
 C550 C 0.57550 0.71209 0.90022
 C551 C 0.56009 0.76091 0.88258
 C552 C 0.56186 0.79196 0.88478
 C553 C 0.58359 0.80502 0.90453
 C554 C 0.60317 0.78736 0.92205
 H555 H 0.63524 0.74869 0.95505
 H556 H 0.55882 0.70153 0.88522
 H557 H 0.54303 0.75066 0.86772
 H558 H 0.61965 0.79794 0.93723
 H559 H 0.58937 0.67070 0.91939
 H560 H 0.58529 0.82892 0.90653
 C561 C 0.35550 0.76109 0.06197
 C562 C 0.35996 0.73025 0.06298
 C563 C 0.38165 0.71847 0.08338
 C564 C 0.39916 0.73738 0.10214
 C565 C 0.39540 0.76844 0.10001
 C566 C 0.37322 0.78003 0.08014
 C567 C 0.41440 0.78744 0.11723
 C568 C 0.43687 0.77583 0.13694
 C569 C 0.43940 0.74492 0.13998
 C570 C 0.42084 0.72584 0.12259
 H571 H 0.38501 0.69468 0.08451
 H572 H 0.36989 0.80377 0.07835
 H573 H 0.41213 0.81126 0.11488
 H574 H 0.42390 0.70210 0.12472
 H575 H 0.33897 0.77068 0.04638
 H576 H 0.45668 0.73547 0.15491
 C577 C 0.64893 0.23209 0.05980
 C578 C 0.64580 0.26308 0.06014
 C579 C 0.62416 0.27623 0.07966
 C580 C 0.60517 0.25856 0.09810
 C581 C 0.60749 0.22732 0.09663
 C582 C 0.62977 0.21432 0.07776
 C583 C 0.58700 0.20961 0.11352
 C584 C 0.56451 0.22271 0.13219
 C585 C 0.56335 0.25374 0.13457
 C586 C 0.58340 0.27156 0.11750
 H587 H 0.62189 0.30016 0.08025
 H588 H 0.63200 0.19043 0.07652
 H589 H 0.58823 0.18565 0.11181
 H590 H 0.58148 0.29546 0.11907
 H591 H 0.66546 0.22153 0.04485
 H592 H 0.54612 0.26426 0.14881
 C593 C 0.23634 0.05654 0.63777
 C594 C 0.26940 0.05768 0.63608
 C595 C 0.28387 0.07784 0.61649
 C596 C 0.26560 0.09616 0.59825
 C597 C 0.23235 0.09409 0.59927
 C598 C 0.21796 0.07448 0.61938
 C599 C 0.21414 0.11142 0.57992
 C600 C 0.22878 0.13121 0.56004
 C601 C 0.26181 0.13372 0.55990
 C602 C 0.28007 0.11620 0.57869
 H603 H 0.30936 0.07905 0.61520
 H604 H 0.19251 0.07272 0.62061
 H605 H 0.18865 0.10958 0.58038
 H606 H 0.30552 0.11817 0.57774
 H607 H 0.22468 0.04108 0.65263
 H608 H 0.27359 0.14880 0.54473
 C609 C 0.75964 0.07341 0.35269
 C610 C 0.72780 0.06678 0.35880
 C611 C 0.71261 0.08227 0.38193
 C612 C 0.72905 0.10311 0.39925
 C613 C 0.76150 0.10815 0.39416
 C614 C 0.77644 0.09357 0.37050
 C615 C 0.77844 0.12734 0.41312
 C616 C 0.76295 0.14222 0.43634
 C617 C 0.73039 0.13823 0.44017
 C618 C 0.71362 0.11857 0.42200
 H619 H 0.68793 0.07807 0.38669
 H620 H 0.80121 0.09746 0.36599
 H621 H 0.80354 0.13064 0.40993
 H622 H 0.68868 0.11516 0.42601
 H623 H 0.77204 0.06207 0.33498
 H624 H 0.71814 0.14948 0.45804
 C625 C 0.69075 0.91855 0.60151
 C626 C 0.70854 0.93647 0.62098
 C627 C 0.74134 0.93294 0.62243
 C628 C 0.75643 0.91269 0.60361
 C629 C 0.73837 0.89487 0.58390
 C630 C 0.70551 0.89765 0.58338
 C631 C 0.75358 0.87548 0.56423
 C632 C 0.78661 0.87465 0.56316
 C633 C 0.80434 0.89222 0.58296
 C634 C 0.78937 0.91080 0.60333
 H635 H 0.75525 0.94694 0.63716
 H636 H 0.69131 0.88425 0.56838
 H637 H 0.73981 0.86225 0.54869
 H638 H 0.80357 0.92433 0.61821
 H639 H 0.66540 0.92086 0.60018
 H640 H 0.82985 0.89178 0.58247
 C641 C 0.23771 0.94537 0.36386
 C642 C 0.27061 0.94370 0.36692
 C643 C 0.28356 0.92325 0.38698
 C644 C 0.26387 0.90525 0.40443
 C645 C 0.23078 0.90798 0.40208
 C646 C 0.21794 0.92777 0.38142
 C647 C 0.21112 0.89126 0.42080
 C648 C 0.22411 0.87149 0.44150
 C649 C 0.25695 0.86807 0.44287
 C650 C 0.27671 0.88497 0.42462
 H651 H 0.30893 0.92164 0.38930
 H652 H 0.19264 0.92999 0.37918
 H653 H 0.18577 0.89377 0.41940
 H654 H 0.30200 0.88246 0.42658
 H655 H 0.22721 0.96103 0.34858
 H656 H 0.26743 0.85295 0.45871
 C657 C 0.08233 0.40959 0.68373
 C658 C 0.06595 0.38762 0.69977
 C659 C 0.07279 0.38361 0.73014
 C660 C 0.09509 0.40176 0.74453
 C661 C 0.11156 0.42373 0.72819
 C662 C 0.10516 0.42730 0.69774
 C663 C 0.13332 0.44237 0.74283
 C664 C 0.13775 0.44005 0.77376
 C665 C 0.12132 0.41814 0.78974
 C666 C 0.10052 0.39885 0.77518
 H667 H 0.06012 0.36692 0.74282
 H668 H 0.11743 0.44410 0.68489
 H669 H 0.14551 0.45966 0.73053
 H670 H 0.08802 0.38221 0.78805
 H671 H 0.07758 0.41298 0.66028
 H672 H 0.12438 0.41618 0.81362
 C673 C 0.05786 0.62843 0.25048
 C674 C 0.05916 0.62354 0.28137
 C675 C 0.07992 0.60223 0.29269
 C676 C 0.09897 0.58574 0.27334
 C677 C 0.09670 0.59008 0.24220
 C678 C 0.07627 0.61167 0.23103
 C679 C 0.11472 0.57262 0.22279
 C680 C 0.13559 0.55143 0.23418
 C681 C 0.13842 0.54799 0.26518
 C682 C 0.12007 0.56480 0.28459
 H683 H 0.08124 0.59851 0.31652
 H684 H 0.07435 0.61544 0.20726
 H685 H 0.11264 0.57558 0.19890
 H686 H 0.12226 0.56130 0.30838
 H687 H 0.04189 0.64466 0.24128
 H688 H 0.15429 0.53169 0.27443
 C689 C 0.94505 0.36309 0.23981
 C690 C 0.94321 0.36620 0.27091
 C691 C 0.92246 0.38708 0.28315
 C692 C 0.90394 0.40485 0.26446
 C693 C 0.90678 0.40216 0.23318
 C694 C 0.92720 0.38106 0.22110
 C695 C 0.88942 0.42080 0.21448
 C696 C 0.86870 0.44176 0.22656
 C697 C 0.86516 0.44360 0.25762
 C698 C 0.88283 0.42546 0.27644
 H699 H 0.92069 0.38943 0.30713
 H700 H 0.92952 0.37860 0.19719
 H701 H 0.89204 0.41903 0.19051
 H702 H 0.88018 0.42772 0.30034
 H703 H 0.96097 0.34722 0.22989
 H704 H 0.84936 0.45967 0.26738
 C705 C 0.91138 0.60465 0.69508
 C706 C 0.93260 0.62316 0.71046
 C707 C 0.93303 0.62299 0.74172
 C708 C 0.91349 0.60335 0.75751
 C709 C 0.89230 0.58465 0.74184
 C710 C 0.89102 0.58586 0.71067
 C711 C 0.87357 0.56427 0.75751
 C712 C 0.87657 0.56155 0.78854
 C713 C 0.89762 0.58023 0.80395
 C714 C 0.91568 0.60124 0.78860
 H715 H 0.94980 0.63689 0.75363
 H716 H 0.87499 0.57160 0.69832
 H717 H 0.85761 0.54971 0.74542
 H718 H 0.93188 0.61531 0.80095
 H719 H 0.91084 0.60451 0.67095
 H720 H 0.90014 0.57856 0.82791
 C721 C 0.68518 0.58866 0.92487
 C722 C 0.70084 0.61239 0.93922
 C723 C 0.73291 0.61759 0.93268
 C724 C 0.74929 0.59865 0.91336
 C725 C 0.73316 0.57505 0.89905
 C726 C 0.70104 0.57050 0.90469
 C727 C 0.74966 0.55580 0.88014
 C728 C 0.78235 0.55902 0.87649
 C729 C 0.79827 0.58231 0.89098
 C730 C 0.78180 0.60229 0.90886
 H731 H 0.74560 0.63551 0.94363
 H732 H 0.68834 0.55244 0.89403
 H733 H 0.73740 0.53751 0.86936
 H734 H 0.79462 0.62012 0.91978
 H735 H 0.66051 0.58404 0.92917
 H736 H 0.82351 0.58503 0.88840
 C737 C 0.24608 0.35994 0.92912
 C738 C 0.27732 0.36842 0.93591
 C739 C 0.29026 0.39354 0.92170
 C740 C 0.27226 0.41020 0.90170
 C741 C 0.24041 0.40243 0.89635
 C742 C 0.22768 0.37705 0.90990
 C743 C 0.22191 0.42032 0.87771
 C744 C 0.23538 0.44506 0.86352
 C745 C 0.26737 0.45178 0.86793
 C746 C 0.28559 0.43473 0.88717
 H747 H 0.31442 0.40022 0.92610
 H748 H 0.20344 0.37052 0.90579
 H749 H 0.19726 0.41495 0.87406
 H750 H 0.31004 0.44084 0.89081
 H751 H 0.23536 0.34070 0.93952
 H752 H 0.27801 0.47088 0.85719
 C753 C 0.23749 0.64322 0.07068
 C754 C 0.26953 0.63712 0.06537
 C755 C 0.28395 0.61426 0.08181
 C756 C 0.26661 0.59738 0.10243
 C757 C 0.23406 0.60256 0.10611
 C758 C 0.21985 0.62583 0.09047
 C759 C 0.21620 0.58396 0.12483
 C760 C 0.23072 0.56083 0.14060
 C761 C 0.26342 0.55705 0.13816
 C762 C 0.28118 0.57496 0.11900
 H763 H 0.30874 0.60950 0.07864
 H764 H 0.19500 0.63037 0.09329
 H765 H 0.19097 0.58711 0.12676
 H766 H 0.30619 0.57087 0.11670
 H767 H 0.22561 0.66070 0.05865
 H768 H 0.27500 0.53922 0.14993
 C769 C 0.77021 0.34844 0.06904
 C770 C 0.73817 0.35424 0.06343
 C771 C 0.72365 0.37779 0.07872
 C772 C 0.74098 0.39599 0.09810
 C773 C 0.77359 0.39122 0.10194
 C774 C 0.78785 0.36703 0.08780
 C775 C 0.79141 0.41113 0.11934
 C776 C 0.77672 0.43512 0.13356
 C777 C 0.74401 0.43862 0.13096
 C778 C 0.72630 0.41939 0.11312
 H779 H 0.69884 0.38231 0.07533
 H780 H 0.81274 0.36279 0.09082
 H781 H 0.81664 0.40819 0.12158
 H782 H 0.70125 0.42315 0.11064
 H783 H 0.78210 0.33040 0.05786
 H784 H 0.73233 0.45704 0.14171
 C785 C 0.92604 0.69340 0.59148
 C786 C 0.93912 0.70781 0.61654
 C787 C 0.93222 0.73800 0.62131
 C788 C 0.91370 0.75371 0.60089
 C789 C 0.90034 0.73880 0.57614
 C790 C 0.90642 0.70861 0.57181
 C791 C 0.88172 0.75452 0.55579
 C792 C 0.87754 0.78519 0.55914
 C793 C 0.89148 0.80000 0.58335
 C794 C 0.90900 0.78429 0.60437
 H795 H 0.94236 0.74972 0.64018
 H796 H 0.89653 0.69689 0.55284
 H797 H 0.87132 0.74315 0.53683
 H798 H 0.91929 0.79614 0.62306
 H799 H 0.93075 0.67022 0.58711
 H800 H 0.88841 0.82366 0.58619
 C801 C 0.92649 0.24608 0.35276
 C802 C 0.93232 0.27604 0.36006
 C803 C 0.91534 0.28881 0.38377
 C804 C 0.89407 0.27180 0.40060
 C805 C 0.89013 0.24127 0.39436
 C806 C 0.90598 0.22878 0.37003
 C807 C 0.87089 0.22376 0.41291
 C808 C 0.85473 0.23672 0.43688
 C809 C 0.85740 0.26736 0.44182
 C810 C 0.87721 0.28473 0.42405
 H811 H 0.91887 0.31199 0.38946
 H812 H 0.90290 0.20550 0.36464
 H813 H 0.86861 0.20012 0.40888
 H814 H 0.87971 0.30816 0.42896
 H815 H 0.93893 0.23552 0.33460
 H816 H 0.84518 0.27766 0.46027
 C817 C 0.07746 0.31187 0.58854
 C818 C 0.06536 0.29864 0.61463
 C819 C 0.07629 0.27034 0.62285
 C820 C 0.09757 0.25501 0.60459
 C821 C 0.10940 0.26864 0.57849
 C822 C 0.09955 0.29721 0.57095
 C823 C 0.12976 0.25296 0.55966
 C824 C 0.13711 0.22333 0.56579
 C825 C 0.12533 0.20988 0.59169
 C826 C 0.10621 0.22579 0.61128
 H827 H 0.06721 0.25960 0.64269
 H828 H 0.10827 0.30793 0.55096
 H829 H 0.13826 0.26312 0.53927
 H830 H 0.09723 0.21489 0.63105
 H831 H 0.06987 0.33367 0.58158
 H832 H 0.13060 0.18691 0.59649
 C833 C 0.08051 0.69083 0.40282
 C834 C 0.06514 0.70529 0.37912
 C835 C 0.07175 0.73555 0.37409
 C836 C 0.09161 0.75144 0.39353
 C837 C 0.10650 0.73666 0.41741
 C838 C 0.10129 0.70625 0.42146
 C839 C 0.12525 0.75278 0.43761
 C840 C 0.12804 0.78369 0.43503
 C841 C 0.11335 0.79820 0.41116
 C842 C 0.09570 0.78215 0.39028
 H843 H 0.06011 0.74723 0.35613
 H844 H 0.11247 0.69457 0.43966
 H845 H 0.13618 0.74155 0.45625
 H846 H 0.08439 0.79390 0.37220
 H847 H 0.07629 0.66753 0.40725
 H848 H 0.11532 0.82205 0.40884
 C849 C 0.59433 0.92512 0.69896
 C850 C 0.61763 0.94252 0.71298
 C851 C 0.62182 0.94006 0.74398
 C852 C 0.60250 0.92103 0.76085
 C853 C 0.57931 0.90344 0.74648
 C854 C 0.57558 0.90551 0.71550
 C855 C 0.55970 0.88470 0.76345
 C856 C 0.56220 0.88416 0.79470
 C857 C 0.58522 0.90186 0.80873
 C858 C 0.60547 0.91982 0.79195
 H859 H 0.63946 0.95364 0.75510
 H860 H 0.55783 0.89233 0.70410
 H861 H 0.54165 0.87149 0.75248
 H862 H 0.62301 0.93324 0.80336
 H863 H 0.59072 0.92658 0.67512
 H864 H 0.58750 0.90182 0.83277
 C865 C 0.36057 0.94437 0.24235
 C866 C 0.36503 0.94269 0.27334
 C867 C 0.38647 0.92197 0.28480
 C868 C 0.40387 0.90375 0.26556
 C869 C 0.40020 0.90652 0.23438
 C870 C 0.37814 0.92659 0.22304
 C871 C 0.41906 0.88958 0.21513
 C872 C 0.44117 0.86952 0.22668
 C873 C 0.44368 0.86615 0.25772
 C874 C 0.42537 0.88323 0.27698
 H875 H 0.38993 0.92030 0.30867
 H876 H 0.37483 0.92889 0.19922
 H877 H 0.41672 0.89219 0.19123
 H878 H 0.42836 0.88068 0.30081
 H879 H 0.34429 0.96022 0.23297
 H880 H 0.46056 0.85091 0.26718
 C881 C 0.64018 0.05658 0.23599
 C882 C 0.63644 0.05789 0.26706
 C883 C 0.61491 0.07807 0.27931
 C884 C 0.59716 0.09661 0.26065
 C885 C 0.60043 0.09440 0.22938
 C886 C 0.62216 0.07447 0.21730
 C887 C 0.58165 0.11186 0.21067
 C888 C 0.55998 0.13198 0.22277
 C889 C 0.55774 0.13484 0.25388
 C890 C 0.57600 0.11716 0.27267
 H891 H 0.61211 0.07944 0.30328
 H892 H 0.62509 0.07260 0.19339
 H893 H 0.58373 0.10964 0.18670
 H894 H 0.57331 0.11933 0.29657
 H895 H 0.65658 0.04116 0.22606
 H896 H 0.54109 0.15008 0.26370
 C897 C 0.35618 0.05418 0.76431
 C898 C 0.36043 0.05731 0.73343
 C899 C 0.38223 0.07834 0.72276
 C900 C 0.40040 0.09531 0.74270
 C901 C 0.39711 0.09091 0.77373
 C902 C 0.37451 0.07070 0.78431
 C903 C 0.41697 0.10629 0.79358
 C904 C 0.43964 0.12644 0.78280
 C905 C 0.44170 0.13163 0.75200
 C906 C 0.42242 0.11604 0.73210
 H907 H 0.38549 0.08106 0.69896
 H908 H 0.37148 0.06720 0.80801
 H909 H 0.41502 0.10238 0.81734
 H910 H 0.42511 0.11984 0.70840
 H911 H 0.33962 0.03800 0.77302
 H912 H 0.45904 0.14702 0.74320
 C913 C 0.59619 0.69026 0.08320
 C914 C 0.61464 0.70496 0.06179
 C915 C 0.61598 0.73611 0.06177
 C916 C 0.59820 0.75246 0.08237
 C917 C 0.57991 0.73741 0.10399
 C918 C 0.57932 0.70633 0.10439
 C919 C 0.56180 0.75367 0.12432
 C920 C 0.56069 0.78475 0.12262
 C921 C 0.57870 0.79953 0.10093
 C922 C 0.59766 0.78355 0.08123
 H923 H 0.62983 0.74757 0.04501
 H924 H 0.56529 0.69446 0.12070
 H925 H 0.54755 0.74207 0.14068
 H926 H 0.61137 0.79545 0.06471
 H927 H 0.59493 0.66626 0.08357
 H928 H 0.57811 0.82348 0.09926
 C929 C 0.39166 0.30379 0.08018
 C930 C 0.37366 0.28722 0.05972
 C931 C 0.37490 0.25610 0.06049
 C932 C 0.39477 0.24170 0.08082
 C933 C 0.41273 0.25859 0.10139
 C934 C 0.41072 0.28961 0.10109
 C935 C 0.43306 0.24423 0.12133
 C936 C 0.43654 0.21328 0.12023
 C937 C 0.41868 0.19672 0.09964
 C938 C 0.39769 0.21076 0.08035
 H939 H 0.36140 0.24317 0.04450
 H940 H 0.42440 0.30291 0.11660
 H941 H 0.44704 0.25720 0.13690
 H942 H 0.38422 0.19747 0.06466
 H943 H 0.39099 0.32780 0.07997
 H944 H 0.42096 0.17283 0.09849
 C945 C 0.62698 0.28778 0.91787
 C946 C 0.64277 0.27120 0.93961
 C947 C 0.63742 0.24049 0.94151
 C948 C 0.61529 0.22667 0.92265
 C949 C 0.59938 0.24363 0.90091
 C950 C 0.60579 0.27404 0.89837
 C951 C 0.57664 0.23012 0.88264
 C952 C 0.56882 0.20000 0.88625
 C953 C 0.58469 0.18331 0.90793
 C954 C 0.60794 0.19646 0.92580
 H955 H 0.64915 0.22774 0.95866
 H956 H 0.59375 0.28737 0.88190
 H957 H 0.56440 0.24329 0.86614
 H958 H 0.61978 0.18314 0.94241
 H959 H 0.63077 0.31150 0.91624
 H960 H 0.57920 0.16002 0.91100
 C961 C 0.38555 0.70585 0.92318
 C962 C 0.36635 0.72167 0.94302
 C963 C 0.36762 0.75281 0.94308
 C964 C 0.38881 0.76797 0.92434
 C965 C 0.40804 0.75183 0.90444
 C966 C 0.40589 0.72080 0.90376
 C967 C 0.42977 0.76693 0.88622
 C968 C 0.43335 0.79787 0.88840
 C969 C 0.41418 0.81368 0.90830
 C970 C 0.39186 0.79892 0.92585
 H971 H 0.35324 0.76514 0.95867
 H972 H 0.42051 0.70805 0.88876
 H973 H 0.44469 0.75450 0.87118
 H974 H 0.37744 0.81166 0.94104
 H975 H 0.38493 0.68183 0.92283
 H976 H 0.41645 0.83754 0.91026
 C977 C 0.76779 0.94875 0.36437
 C978 C 0.73478 0.94791 0.36678
 C979 C 0.72063 0.92850 0.38735
 C980 C 0.73930 0.91011 0.40531
 C981 C 0.77254 0.91181 0.40330
 C982 C 0.78651 0.93109 0.38266
 C983 C 0.79124 0.89429 0.42205
 C984 C 0.77719 0.87449 0.44228
 C985 C 0.74416 0.87225 0.44342
 C986 C 0.72537 0.89010 0.42531
 H987 H 0.69516 0.92751 0.38912
 H988 H 0.81193 0.93257 0.38069
 H989 H 0.81671 0.89598 0.42083
 H990 H 0.69996 0.88834 0.42704
 H991 H 0.77918 0.96363 0.34873
 H992 H 0.73283 0.85723 0.45896
 C993 C 0.30200 0.92119 0.60805
 C994 C 0.28301 0.93800 0.62722
 C995 C 0.25016 0.93422 0.62637
 C996 C 0.23630 0.91460 0.60585
 C997 C 0.25558 0.89765 0.58668
 C998 C 0.28843 0.90088 0.58821
 C999 C 0.24165 0.87848 0.56572
 C1000 C 0.20872 0.87699 0.56290
 C1001 C 0.18979 0.89397 0.58196
 C1002 C 0.20344 0.91232 0.60354
 H1003 H 0.23535 0.94742 0.64083
 H1004 H 0.30357 0.88819 0.57362
 H1005 H 0.25636 0.86571 0.55078
 H1006 H 0.18832 0.92523 0.61795
 H1007 H 0.32740 0.92377 0.60845
 H1008 H 0.16434 0.89302 0.58012
 C1009 C 0.30767 0.07954 0.39748
 C1010 C 0.28832 0.06390 0.37735
 C1011 C 0.25588 0.06990 0.37657
 C1012 C 0.24275 0.09054 0.39638
 C1013 C 0.26245 0.10620 0.41653
 C1014 C 0.29492 0.10074 0.41666
 C1015 C 0.24920 0.12629 0.43687
 C1016 C 0.21639 0.12999 0.43812
 C1017 C 0.19705 0.11437 0.41800
 C1018 C 0.21013 0.09513 0.39703
 H1019 H 0.24073 0.05773 0.36132
 H1020 H 0.31037 0.11242 0.43200
 H1021 H 0.26421 0.13793 0.45265
 H1022 H 0.19465 0.08327 0.38185
 H1023 H 0.33276 0.07538 0.39836
 H1024 H 0.17170 0.11694 0.41864
 C1025 C 0.75293 0.05776 0.62355
 C1026 C 0.71987 0.05897 0.62246
 C1027 C 0.70541 0.08093 0.60507
 C1028 C 0.72377 0.10137 0.58887
 C1029 C 0.75701 0.09935 0.58935
 C1030 C 0.77134 0.07756 0.60692
 C1031 C 0.77530 0.11894 0.57202
 C1032 C 0.76080 0.14097 0.55469
 C1033 C 0.72779 0.14341 0.55530
 C1034 C 0.70944 0.12369 0.57203
 H1035 H 0.67992 0.08227 0.60439
 H1036 H 0.79677 0.07575 0.60772
 H1037 H 0.80073 0.11691 0.57187
 H1038 H 0.68402 0.12572 0.57154
 H1039 H 0.76456 0.04101 0.63679
 H1040 H 0.71601 0.16003 0.54201
 C1041 C 0.90972 0.60590 0.30624
 C1042 C 0.93229 0.62269 0.29071
 C1043 C 0.93297 0.62169 0.25946
 C1044 C 0.91230 0.60279 0.24389
 C1045 C 0.88977 0.58578 0.25975
 C1046 C 0.88828 0.58792 0.29086
 C1047 C 0.86999 0.56598 0.24438
 C1048 C 0.87328 0.56201 0.21351
 C1049 C 0.89557 0.57910 0.19788
 C1050 C 0.91465 0.59963 0.21289
 H1051 H 0.95073 0.63428 0.24744
 H1052 H 0.87124 0.57497 0.30335
 H1053 H 0.85311 0.55259 0.25665
 H1054 H 0.93185 0.61239 0.20040
 H1055 H 0.90892 0.60645 0.33036
 H1056 H 0.89838 0.57640 0.17405
 C1057 C 0.91366 0.39910 0.69164
 C1058 C 0.93585 0.38137 0.70638
 C1059 C 0.93666 0.38134 0.73769
 C1060 C 0.91641 0.39976 0.75404
 C1061 C 0.89433 0.41767 0.73895
 C1062 C 0.89285 0.41683 0.70776
 C1063 C 0.87480 0.43681 0.75522
 C1064 C 0.87774 0.43902 0.78634
 C1065 C 0.89965 0.42100 0.80112
 C1066 C 0.91857 0.40133 0.78517
 H1067 H 0.95395 0.36801 0.74925
 H1068 H 0.87613 0.43043 0.69580
 H1069 H 0.85821 0.45081 0.74355
 H1070 H 0.93539 0.38784 0.79712
 H1071 H 0.91256 0.39943 0.66753
 H1072 H 0.90226 0.42221 0.82510
 C1073 C 0.05691 0.63084 0.75157
 C1074 C 0.05948 0.62766 0.72052
 C1075 C 0.08234 0.60862 0.70874
 C1076 C 0.10216 0.59256 0.72774
 C1077 C 0.09860 0.59497 0.75898
 C1078 C 0.07612 0.61443 0.77066
 C1079 C 0.11729 0.57761 0.77794
 C1080 C 0.14000 0.55843 0.76602
 C1081 C 0.14412 0.55711 0.73498
 C1082 C 0.12522 0.57382 0.71600
 H1083 H 0.08466 0.60629 0.68479
 H1084 H 0.07317 0.61674 0.79453
 H1085 H 0.11411 0.57893 0.80187
 H1086 H 0.12840 0.57185 0.69213
 H1087 H 0.03935 0.64535 0.76110
 H1088 H 0.16135 0.54236 0.72527
 C1089 C 0.09042 0.38293 0.30415
 C1090 C 0.07022 0.36572 0.28618
 C1091 C 0.07264 0.36781 0.25504
 C1092 C 0.09389 0.38803 0.24201
 C1093 C 0.11391 0.40548 0.26032
 C1094 C 0.11237 0.40233 0.29135
 C1095 C 0.13417 0.42662 0.24736
 C1096 C 0.13377 0.43135 0.21642
 C1097 C 0.11398 0.41372 0.19843
 C1098 C 0.09452 0.39200 0.21106
 H1099 H 0.05681 0.35494 0.24103
 H1100 H 0.12744 0.41555 0.30575
 H1101 H 0.14909 0.44035 0.26144
 H1102 H 0.07931 0.37891 0.19667
 H1103 H 0.08893 0.38163 0.32821
 H1104 H 0.11339 0.41691 0.17453
   
