data_POSCAR
  _audit_creation_date              2014-09-24
  _audit_creation_method            'ToBaCCo'
  _symmetry_space_group_name_H-M    'P1'
  _symmetry_Int_Tables_number       1
  _symmetry_cell_setting            triclinic
  loop_
  _symmetry_equiv_pos_as_xyz
 x,y,z
_cell_length_a 20.7528
_cell_length_b 20.7528
_cell_length_c 35.4196
_cell_angle_alpha 89.878800
_cell_angle_beta 90.121200
_cell_angle_gamma 90.000300
loop_
  _atom_site_label
  _atom_site_type_symbol
  _atom_site_fract_x
  _atom_site_fract_y
  _atom_site_fract_z
O1 O 0.05297 0.43647 0.96384
 O2 O 0.05305 0.56203 1.03717
 O3 O 0.05305 0.43629 1.03724
 O4 O 0.05297 0.56215 0.96377
 O5 O -0.05360 0.56215 0.96368
 O6 O -0.05351 0.43629 1.03716
 O7 O -0.05352 0.56203 1.03709
 O8 O -0.05360 0.43647 0.96375
 Cu9 Cu 0.06376 0.49923 1.00052
 Cu10 Cu -0.06431 0.49923 1.00042
 C11 C -0.00033 0.41509 0.95153
 C12 C -0.00022 0.58346 1.04936
 C13 C -0.00021 0.41481 1.04947
 C14 C -0.00033 0.58359 0.95145
 O15 O 0.43825 -0.05257 0.46377
 O16 O 0.56411 -0.05265 0.53724
 O17 O 0.43837 -0.05265 0.53717
 O18 O 0.56393 -0.05257 0.46384
 O19 O 0.56393 0.05400 0.46375
 O20 O 0.43837 0.05391 0.53709
 O21 O 0.56411 0.05391 0.53716
 O22 O 0.43825 0.05400 0.46368
 Cu23 Cu 0.50117 -0.06336 0.50052
 Cu24 Cu 0.50117 0.06471 0.50042
 C25 C 0.41681 0.00073 0.45145
 C26 C 0.58559 0.00061 0.54947
 C27 C 0.41694 0.00061 0.54936
 C28 C 0.58531 0.00073 0.45153
 Si29 Si 0.00028 0.00072 0.24964
 Si30 Si -0.00032 0.00012 0.74964
 C31 C 0.05293 -0.22343 0.17200
 C32 C 0.00006 -0.27609 0.16981
 C33 C -0.00009 -0.26946 0.12660
 C34 C 0.05275 -0.21769 0.12838
 C35 C 0.00003 -0.17174 0.17376
 C36 C -0.00012 -0.16521 0.13055
 C37 C -0.05284 -0.22347 0.17199
 C38 C -0.05296 -0.21774 0.12837
 C39 C -0.00014 -0.32304 0.09974
 C40 C -0.00018 -0.36622 0.07705
 C41 C 0.00010 -0.11651 0.19942
 C42 C 0.00017 -0.07028 0.21991
 H43 H 0.09646 -0.22512 0.19025
 H44 H 0.00013 -0.32230 0.18564
 H45 H 0.09617 -0.21589 0.11016
 H46 H -0.00019 -0.11901 0.11468
 H47 H -0.09625 -0.22521 0.19023
 H48 H -0.09650 -0.21598 0.11014
 C49 C 0.05293 0.22460 0.17118
 C50 C 0.05275 0.21872 0.12758
 C51 C -0.00009 0.27048 0.12561
 C52 C 0.00006 0.27725 0.16880
 C53 C 0.00003 0.17292 0.17312
 C54 C -0.05284 0.22465 0.17117
 C55 C -0.00012 0.16624 0.12993
 C56 C -0.05296 0.21877 0.12757
 C57 C -0.00014 0.32399 0.09857
 C58 C -0.00018 0.36713 0.07574
 C59 C 0.00010 0.11777 0.19899
 C60 C 0.00017 0.07162 0.21965
 H61 H 0.09646 0.22635 0.18942
 H62 H 0.09617 0.21686 0.10937
 H63 H 0.00014 0.32352 0.18447
 H64 H -0.09625 0.22644 0.18940
 H65 H -0.00019 0.12000 0.11424
 H66 H -0.09650 0.21695 0.10935
 C67 C 0.22382 -0.05253 0.67200
 C68 C 0.21809 -0.05235 0.62838
 C69 C 0.26986 0.00048 0.62660
 C70 C 0.27648 0.00033 0.66981
 C71 C 0.17214 0.00037 0.67376
 C72 C 0.22387 0.05323 0.67200
 C73 C 0.16560 0.00052 0.63055
 C74 C 0.21814 0.05336 0.62838
 C75 C 0.32344 0.00054 0.59974
 C76 C 0.36662 0.00058 0.57705
 C77 C 0.11690 0.00030 0.69942
 C78 C 0.07068 0.00023 0.71991
 H79 H 0.22552 -0.09606 0.69024
 H80 H 0.21629 -0.09577 0.61016
 H81 H 0.32270 0.00026 0.68564
 H82 H 0.22561 0.09664 0.69023
 H83 H 0.11941 0.00059 0.61468
 H84 H 0.21638 0.09690 0.61015
 C85 C -0.16584 0.00052 0.62993
 C86 C -0.21832 -0.05235 0.62758
 C87 C -0.27008 0.00049 0.62561
 C88 C -0.21837 0.05336 0.62757
 C89 C -0.17252 0.00037 0.67312
 C90 C -0.22425 0.05324 0.67117
 C91 C -0.22420 -0.05253 0.67118
 C92 C -0.27685 0.00034 0.66880
 C93 C -0.32359 0.00054 0.59857
 C94 C -0.36673 0.00058 0.57574
 C95 C -0.11737 0.00030 0.69899
 C96 C -0.07122 0.00023 0.71965
 H97 H -0.11960 0.00059 0.61424
 H98 H -0.21647 -0.09577 0.60937
 H99 H -0.21656 0.09690 0.60935
 H100 H -0.22604 0.09664 0.68940
 H101 H -0.22595 -0.09606 0.68942
 H102 H -0.32312 0.00026 0.68447
 C103 C -0.00043 -0.16537 0.86926
 C104 C -0.05327 -0.21789 0.87159
 C105 C -0.00039 -0.26959 0.87368
 C106 C 0.05245 -0.21784 0.87175
 C107 C -0.00039 -0.17216 0.82608
 C108 C 0.05251 -0.22383 0.82816
 C109 C -0.05325 -0.22388 0.82799
 C110 C -0.00035 -0.27648 0.83050
 C111 C -0.00038 -0.32303 0.90077
 C112 C -0.00036 -0.36612 0.92362
 C113 C -0.00038 -0.11706 0.80019
 C114 C -0.00036 -0.07089 0.77954
 H115 H -0.00047 -0.11908 0.88492
 H116 H -0.09677 -0.21602 0.88974
 H117 H 0.09591 -0.21593 0.89004
 H118 H 0.09600 -0.22564 0.80999
 H119 H -0.09671 -0.22572 0.80969
 H120 H -0.00031 -0.32279 0.81488
 C121 C -0.05325 0.22345 0.82808
 C122 C -0.05327 0.21710 0.87168
 C123 C -0.00039 0.26879 0.87379
 C124 C -0.00035 0.27603 0.83061
 C125 C -0.00039 0.17175 0.82615
 C126 C 0.05251 0.22340 0.82825
 C127 C -0.00043 0.16460 0.86934
 C128 C 0.05245 0.21705 0.87184
 C129 C -0.00038 0.32202 0.90089
 C130 C -0.00036 0.36496 0.92373
 C131 C -0.00038 0.11686 0.80024
 C132 C -0.00036 0.07087 0.77957
 H133 H -0.09671 0.22544 0.80979
 H134 H -0.09676 0.21508 0.88983
 H135 H -0.00031 0.32247 0.81500
 H136 H 0.09600 0.22536 0.81008
 H137 H -0.00046 0.11819 0.88497
 H138 H 0.09591 0.21500 0.89012
 C139 C -0.22300 -0.05212 0.32825
 C140 C -0.21666 -0.05205 0.37184
 C141 C -0.26839 0.00079 0.37379
 C142 C -0.27563 0.00075 0.33061
 C143 C -0.17135 0.00079 0.32615
 C144 C -0.22305 0.05365 0.32808
 C145 C -0.16420 0.00083 0.36934
 C146 C -0.21670 0.05367 0.37168
 C147 C -0.32162 0.00078 0.40089
 C148 C -0.36457 0.00076 0.42373
 C149 C -0.11646 0.00078 0.30024
 C150 C -0.07048 0.00076 0.27957
 H151 H -0.22496 -0.09560 0.31008
 H152 H -0.21460 -0.09551 0.39012
 H153 H -0.32207 0.00071 0.31500
 H154 H -0.22504 0.09710 0.30979
 H155 H -0.11779 0.00086 0.38497
 H156 H -0.21468 0.09716 0.38983
 C157 C 0.16577 0.00083 0.36926
 C158 C 0.21824 -0.05205 0.37175
 C159 C 0.26999 0.00079 0.37368
 C160 C 0.21828 0.05367 0.37159
 C161 C 0.17256 0.00079 0.32608
 C162 C 0.22428 0.05365 0.32799
 C163 C 0.22423 -0.05212 0.32816
 C164 C 0.27687 0.00075 0.33050
 C165 C 0.32342 0.00078 0.40077
 C166 C 0.36652 0.00076 0.42362
 C167 C 0.11746 0.00078 0.30019
 C168 C 0.07129 0.00076 0.27954
 H169 H 0.11948 0.00087 0.38492
 H170 H 0.21633 -0.09551 0.39004
 H171 H 0.21642 0.09716 0.38974
 H172 H 0.22612 0.09710 0.30969
 H173 H 0.22604 -0.09560 0.30999
 H174 H 0.32319 0.00071 0.31488
   
