data_POSCAR
  _audit_creation_date              2014-09-24
  _audit_creation_method            'ToBaCCo'
  _symmetry_space_group_name_H-M    'P1'
  _symmetry_Int_Tables_number       1
  _symmetry_cell_setting            triclinic
  loop_
  _symmetry_equiv_pos_as_xyz
 x,y,z
_cell_length_a 47.1182
_cell_length_b 46.4819
_cell_length_c 46.4168
_cell_angle_alpha 89.811300
_cell_angle_beta 89.906800
_cell_angle_gamma 89.972100
loop_
  _atom_site_label
  _atom_site_type_symbol
  _atom_site_fract_x
  _atom_site_fract_y
  _atom_site_fract_z
N1 N 0.17646 1.23396 0.15497
 N2 N 0.15724 1.23430 0.17556
 C3 C 0.13992 1.25707 0.17151
 C4 C 0.14878 1.27155 0.14700
 C5 C 0.17201 1.25632 0.13708
 H6 H 0.12200 1.26250 0.18504
 H7 H 0.18459 1.26103 0.11813
 Cu8 Cu 0.15644 1.20417 0.20477
 Cu9 Cu 0.20576 1.20448 0.15259
 Cu10 Cu 0.20381 1.15031 0.20413
 N11 N 0.15563 1.17404 0.23397
 N12 N 0.17398 1.15271 0.23315
 C13 C 0.16863 1.13444 0.25502
 C14 C 0.14575 1.14491 0.27044
 C15 C 0.13800 1.17010 0.25655
 H16 H 0.18049 1.11498 0.25938
 H17 H 0.12069 1.18426 0.26235
 N18 N 0.23244 1.15185 0.17315
 N19 N 0.23352 1.17275 0.15384
 C20 C 0.25599 1.16834 0.13640
 C21 C 0.26955 1.14346 0.14512
 C22 C 0.25409 1.13352 0.16839
 H23 H 0.26214 1.18216 0.11868
 H24 H 0.25855 1.11450 0.18107
 H25 H 0.18227 1.17244 0.17228
 H26 H 0.20630 1.19386 0.19585
 N27 N 0.82704 0.76692 0.15496
 N28 N 0.84913 0.77053 0.17183
 C29 C 0.86753 0.74875 0.16769
 C30 C 0.85630 0.73058 0.14714
 C31 C 0.83060 0.74272 0.13952
 H32 H 0.88766 0.74640 0.17863
 H33 H 0.81590 0.73483 0.12353
 Cu34 Cu 0.85186 0.80328 0.19752
 Cu35 Cu 0.79618 0.79470 0.15298
 Cu36 Cu 0.80107 0.85385 0.19808
 N37 N 0.84787 0.82995 0.22947
 N38 N 0.82810 0.84991 0.22943
 C39 C 0.83110 0.86651 0.25292
 C40 C 0.85395 0.85629 0.26859
 C41 C 0.86405 0.83297 0.25318
 H42 H 0.81794 0.88493 0.25792
 H43 H 0.88224 0.81973 0.25838
 N44 N 0.76946 0.84810 0.17107
 N45 N 0.76741 0.82549 0.15405
 C46 C 0.74374 0.82806 0.13800
 C47 C 0.73023 0.85334 0.14549
 C48 C 0.74701 0.86547 0.16656
 H49 H 0.73691 0.81287 0.12184
 H50 H 0.74330 0.88562 0.17752
 H51 H 0.81945 0.82946 0.16521
 H52 H 0.80077 0.80990 0.19480
 N53 N 0.82653 1.23113 -0.15171
 N54 N 0.84552 1.23164 -0.17250
 C55 C 0.86335 1.25388 -0.16813
 C56 C 0.85502 1.26790 -0.14328
 C57 C 0.83166 1.25288 -0.13339
 H58 H 0.88101 1.25953 -0.18192
 H59 H 0.81917 1.25766 -0.11443
 Cu60 Cu 0.84477 1.20321 -0.20321
 Cu61 Cu 0.79591 1.20307 -0.15042
 Cu62 Cu 0.79326 1.15321 -0.20577
 N63 N 0.84357 1.17456 -0.23368
 N64 N 0.82306 1.15541 -0.23485
 C65 C 0.82707 1.13844 -0.25796
 C66 C 0.85152 1.14733 -0.27189
 C67 C 0.86146 1.17030 -0.25594
 H68 H 0.81348 1.12069 -0.26394
 H69 H 0.88034 1.18283 -0.26020
 N70 N 0.76515 1.15442 -0.17428
 N71 N 0.76649 1.17311 -0.15295
 C72 C 0.74477 1.16823 -0.13468
 C73 C 0.72902 1.14550 -0.14506
 C74 C 0.74247 1.13722 -0.17016
 H75 H 0.74058 1.18032 -0.11527
 H76 H 0.73623 1.11983 -0.18420
 H77 H 0.81679 1.17100 -0.17285
 H78 H 0.79422 1.19612 -0.19433
 N79 N 0.17476 0.76816 -0.15487
 N80 N 0.15235 0.77208 -0.17126
 C81 C 0.13386 0.75046 -0.16676
 C82 C 0.14535 0.73204 -0.14648
 C83 C 0.17131 0.74387 -0.13937
 H84 H 0.11354 0.74831 -0.17734
 H85 H 0.18636 0.73560 -0.12385
 Cu86 Cu 0.14910 0.80506 -0.19679
 Cu87 Cu 0.20621 0.79532 -0.15430
 Cu88 Cu 0.20481 0.84952 -0.20560
 N89 N 0.15109 0.83204 -0.22872
 N90 N 0.17295 0.84928 -0.23224
 C91 C 0.16885 0.86550 -0.25596
 C92 C 0.14299 0.85800 -0.26785
 C93 C 0.13227 0.83671 -0.25001
 H94 H 0.18347 0.88163 -0.26388
 H95 H 0.11234 0.82543 -0.25240
 N96 N 0.23514 0.84594 -0.17667
 N97 N 0.23588 0.82508 -0.15730
 C98 C 0.25889 0.82866 -0.14049
 C99 C 0.27315 0.85297 -0.14967
 C100 C 0.25757 0.86340 -0.17261
 H101 H 0.26457 0.81501 -0.12249
 H102 H 0.26210 0.88252 -0.18513
 H103 H 0.18521 0.83122 -0.16990
 H104 H 0.20061 0.80599 -0.19714
 C105 C 0.54112 1.04004 -0.00691
 H106 H 0.53897 1.04170 0.01623
 C107 C 0.56158 1.05634 -0.02130
 H108 H 0.57498 1.07065 -0.00899
 C109 C 0.52693 1.01826 -0.05067
 H110 H 0.51392 1.00279 -0.06188
 C111 C 0.54734 1.03397 -0.06592
 H112 H 0.54947 1.03071 -0.08891
 N113 N 0.52428 1.02152 -0.02168
 C114 C 0.45863 1.00545 0.04246
 H115 H 0.46075 0.98235 0.04442
 C116 C 0.43794 1.01989 0.05835
 H117 H 0.42437 1.00765 0.07269
 C118 C 0.47303 1.04903 0.02020
 H119 H 0.48620 1.06013 0.00466
 C120 C 0.45238 1.06432 0.03547
 H121 H 0.45024 1.08724 0.03184
 Zn122 Zn 0.49994 0.99787 0.00043
 N123 N 0.47566 1.02011 0.02388
 C124 C 0.52653 0.97792 0.05180
 N125 N 0.52382 0.97409 0.02289
 C126 C 0.54044 0.95505 0.00846
 C127 C 0.56068 0.93874 0.02314
 C128 C 0.54682 0.96233 0.06729
 C129 C 0.45915 0.99068 -0.04207
 C130 C 0.43890 0.97636 -0.05855
 C131 C 0.45313 0.93170 -0.03603
 C132 C 0.47332 0.94687 -0.02013
 N133 N 0.47591 0.97584 -0.02342
 H134 H 0.51372 0.99382 0.06271
 H135 H 0.53832 0.95298 -0.01464
 H136 H 0.57394 0.92401 0.01110
 H137 H 0.54906 0.96607 0.09018
 H138 H 0.46121 1.01381 -0.04372
 H139 H 0.42556 0.98872 -0.07298
 H140 H 0.45108 0.90871 -0.03280
 H141 H 0.48620 0.93562 -0.00450
 C142 C 0.43432 1.04967 0.05467
 C143 C 0.56517 1.05314 -0.05117
 C144 C 0.43543 0.94651 -0.05541
 C145 C 0.56439 0.94260 0.05289
 C146 C -0.00574 0.54192 1.04207
 H147 H 0.01715 0.54044 1.04316
 C148 C -0.02005 0.56246 1.05843
 H149 H -0.00792 0.57661 1.07219
 C150 C -0.04900 0.52589 1.02172
 H151 H -0.06010 0.51211 1.00680
 C152 C -0.06418 0.54635 1.03751
 H153 H -0.08696 0.54775 1.03489
 N154 N -0.02028 0.52413 1.02422
 C155 C 0.04364 0.45825 1.00817
 H156 H 0.04493 0.45979 0.98495
 C157 C 0.06004 0.43798 1.02283
 H158 H 0.07402 0.42407 1.01064
 C159 C 0.02277 0.47377 1.05194
 H160 H 0.00768 0.48726 1.06309
 C161 C 0.03855 0.45351 1.06745
 H162 H 0.03575 0.45197 1.09056
 Zn163 Zn 0.00167 0.49968 1.00051
 N164 N 0.02550 0.47566 1.02281
 C165 C 0.05190 0.52634 0.97894
 N166 N 0.02324 0.52409 0.97623
 C167 C 0.00856 0.54139 0.95789
 C168 C 0.02268 0.56201 0.94132
 C169 C 0.06687 0.54682 0.96288
 C170 C -0.03933 0.45718 0.99399
 C171 C -0.05536 0.43634 0.97988
 C172 C -0.03459 0.45177 0.93478
 C173 C -0.01911 0.47254 0.94977
 N174 N -0.02170 0.47479 0.97886
 H175 H 0.06309 0.51298 0.99425
 H176 H -0.01429 0.53952 0.95660
 H177 H 0.01044 0.57580 0.92718
 H178 H 0.08961 0.54863 0.96574
 H179 H -0.04048 0.45903 1.01719
 H180 H -0.06894 0.42231 0.99246
 H181 H -0.03194 0.45002 0.91168
 H182 H -0.00437 0.48617 0.93824
 C183 C 0.05731 0.43511 1.05283
 C184 C -0.04965 0.56515 1.05600
 C185 C -0.05285 0.43316 0.94990
 C186 C 0.05220 0.56524 0.94399
 C187 C 1.04814 -0.02065 0.52638
 H188 H 1.05913 -0.00549 0.51265
 C189 C 1.06337 -0.03605 0.54716
 H190 H 1.08607 -0.03290 0.54879
 C191 C 1.00510 -0.04194 0.54205
 H192 H 0.98226 -0.04355 0.54033
 C193 C 1.01947 -0.05785 0.56299
 H194 H 1.00744 -0.07180 0.57718
 N195 N 1.01950 -0.02375 0.52432
 C196 C 1.01680 0.05089 0.47190
 H197 H 1.00120 0.06194 0.48489
 C198 C 1.03215 0.06615 0.45106
 H199 H 1.02850 0.08902 0.44856
 C200 C 1.03923 0.00740 0.45813
 H201 H 1.04127 -0.01567 0.46054
 C202 C 1.05527 0.02183 0.43737
 H203 H 1.06980 0.00965 0.42406
 Zn204 Zn 0.99739 -0.00018 0.49975
 N205 N 1.02059 0.02203 0.47499
 C206 C 0.98952 0.04223 0.54119
 N207 N 0.97527 0.02344 0.52414
 C208 C 0.94671 0.01985 0.52668
 C209 C 0.93139 0.03554 0.54710
 C210 C 0.97503 0.05852 0.56169
 C211 C 0.95543 -0.00784 0.45850
 C212 C 0.93935 -0.02234 0.43796
 C213 C 0.96245 -0.06662 0.45205
 C214 C 0.97781 -0.05129 0.47267
 N215 N 0.97410 -0.02242 0.47541
 H216 H 1.01232 0.04412 0.53919
 H217 H 0.93589 0.00414 0.51358
 H218 H 0.90875 0.03206 0.54909
 H219 H 0.98692 0.07305 0.57527
 H220 H 0.95345 0.01524 0.46065
 H221 H 0.92484 -0.01020 0.42455
 H222 H 0.96608 -0.08950 0.44979
 H223 H 0.99338 -0.06230 0.48575
 C224 C 1.05158 0.05155 0.43335
 C225 C 1.04896 -0.05469 0.56607
 C226 C 0.94306 -0.05207 0.43422
 C227 C 0.94560 0.05504 0.56511
 C228 C 0.11261 0.34280 1.10950
 N229 N 0.13536 0.32976 1.09719
 N230 N 0.14719 0.30679 1.10949
 C231 C 0.13664 0.29587 1.13448
 N232 N 0.11388 0.30894 1.14680
 N233 N 0.10211 0.33200 1.13455
 C234 C 0.09913 0.36762 1.09546
 N235 N 0.07773 0.38210 1.10861
 N236 N 0.06484 0.40394 1.09534
 C237 C 0.07279 0.41208 1.06836
 N238 N 0.09435 0.39766 1.05535
 N239 N 0.10732 0.37592 1.06866
 C240 C -0.10576 0.65746 1.11162
 N241 N -0.13222 0.66562 1.10341
 N242 N -0.14441 0.68878 1.11491
 C243 C -0.13059 0.70460 1.13504
 N244 N -0.10422 0.69634 1.14336
 N245 N -0.09201 0.67322 1.13183
 C246 C -0.09177 0.63264 1.09816
 N247 N -0.06450 0.62603 1.10479
 N248 N -0.05132 0.60432 1.09173
 C249 C -0.06489 0.58828 1.07158
 N250 N -0.09231 0.59476 1.06519
 N251 N -0.10549 0.61654 1.07820
 C252 C -0.10794 0.34025 0.89452
 N253 N -0.12957 0.32619 0.90781
 N254 N -0.14144 0.30324 0.89566
 C255 C -0.13201 0.29340 0.86986
 N256 N -0.11039 0.30747 0.85653
 N257 N -0.09859 0.33051 0.86864
 C258 C -0.09443 0.36510 0.90836
 N259 N -0.07400 0.38039 0.89448
 N260 N -0.06115 0.40233 0.90747
 C261 C -0.06815 0.40978 0.93487
 N262 N -0.08872 0.39452 0.94862
 N263 N -0.10165 0.37266 0.93561
 C264 C 0.10761 0.65841 0.88860
 N265 N 0.09341 0.67500 0.86928
 N266 N 0.10555 0.69830 0.85792
 C267 C 0.13229 0.70594 0.86555
 N268 N 0.14654 0.68931 0.88481
 N269 N 0.13442 0.66596 0.89611
 C270 C 0.09376 0.63336 0.90188
 N271 N 0.10797 0.61638 0.92084
 N272 N 0.09495 0.59440 0.93379
 C273 C 0.06721 0.58858 0.92834
 N274 N 0.05314 0.60549 0.90916
 N275 N 0.06616 0.62741 0.89616
 C276 C 1.10797 0.10751 0.34101
 N277 N 1.09839 0.13306 0.33061
 N278 N 1.11070 0.14527 0.30777
 C279 C 1.13306 0.13241 0.29453
 N280 N 1.14269 0.10692 0.30506
 N281 N 1.13034 0.09467 0.32782
 C282 C 1.09397 0.09355 0.36564
 N283 N 1.10189 0.06677 0.37410
 N284 N 1.08866 0.05363 0.39582
 C285 C 1.06705 0.06678 0.41005
 N286 N 1.05930 0.09371 0.40169
 N287 N 1.07247 0.10683 0.37987
 C288 C 1.10516 -0.10773 0.66012
 N289 N 1.13129 -0.09872 0.66845
 N290 N 1.14361 -0.10988 0.69178
 C291 C 1.13029 -0.13049 0.70760
 N292 N 1.10421 -0.13956 0.69916
 N293 N 1.09185 -0.12834 0.67591
 C294 C 1.09110 -0.09485 0.63497
 N295 N 1.06385 -0.10173 0.62863
 N296 N 1.05065 -0.08930 0.60649
 C297 C 1.06420 -0.06959 0.58973
 N298 N 1.09160 -0.06295 0.59598
 N299 N 1.10479 -0.07530 0.61818
 C300 C 0.88840 -0.10796 0.34139
 N301 N 0.86542 -0.09587 0.32857
 N302 N 0.85401 -0.10771 0.30521
 C303 C 0.86525 -0.13201 0.29367
 N304 N 0.88814 -0.14420 0.30662
 N305 N 0.89948 -0.13242 0.33007
 C306 C 0.90170 -0.09416 0.36636
 N307 N 0.92361 -0.10700 0.38034
 N308 N 0.93639 -0.09389 0.40226
 C309 C 0.92784 -0.06737 0.41097
 N310 N 0.90580 -0.05465 0.39702
 N311 N 0.89294 -0.06781 0.37520
 C312 C 0.88888 0.11117 0.65684
 N313 N 0.86376 0.10098 0.66696
 N314 N 0.85154 0.11280 0.68998
 C315 C 0.86394 0.13531 0.70368
 N316 N 0.88895 0.14562 0.69338
 N317 N 0.90122 0.13372 0.67045
 C318 C 0.90299 0.09744 0.63220
 N319 N 0.92968 0.10533 0.62452
 N320 N 0.94303 0.09214 0.60297
 C321 C 0.93019 0.07062 0.58814
 N322 N 0.90334 0.06296 0.59569
 N323 N 0.89002 0.07607 0.61734
 C324 C 0.34173 1.10558 0.10884
 N325 N 0.32742 1.09231 0.13053
 N326 N 0.30454 1.10448 0.14218
 C327 C 0.29504 1.13032 0.13248
 N328 N 0.30936 1.14364 0.11082
 N329 N 0.33231 1.13150 0.09922
 C330 C 0.36648 1.09167 0.09555
 N331 N 0.38178 1.10531 0.07480
 N332 N 0.40365 1.09219 0.06216
 C333 C 0.41101 1.06492 0.06973
 N334 N 0.39574 1.05143 0.09063
 N335 N 0.37396 1.06456 0.10332
 C336 C 0.65707 1.10873 -0.10707
 N337 N 0.67138 1.13019 -0.09367
 N338 N 0.69418 1.14201 -0.10588
 C339 C 0.70360 1.13271 -0.13189
 N340 N 0.68927 1.11129 -0.14533
 N341 N 0.66640 1.09952 -0.13316
 C342 C 0.63244 1.09519 -0.09315
 N343 N 0.61730 1.07455 -0.10691
 N344 N 0.59559 1.06157 -0.09380
 C345 C 0.58823 1.06867 -0.06640
 N346 N 0.60332 1.08948 -0.05279
 N347 N 0.62495 1.10252 -0.06591
 C348 C 0.34484 0.89053 -0.11245
 N349 N 0.33098 0.90385 -0.13438
 N350 N 0.30833 0.89171 -0.14643
 C351 C 0.29864 0.86588 -0.13692
 N352 N 0.31254 0.85250 -0.11505
 N353 N 0.33526 0.86460 -0.10306
 C354 C 0.36917 0.90447 -0.09852
 N355 N 0.38395 0.89075 -0.07748
 N356 N 0.40532 0.90390 -0.06414
 C357 C 0.41268 0.93129 -0.07124
 N358 N 0.39794 0.94487 -0.09244
 N359 N 0.37665 0.93171 -0.10585
 C360 C 0.65682 0.88831 0.10885
 N361 N 0.66898 0.86437 0.09755
 N362 N 0.69217 0.85304 0.10943
 C363 C 0.70416 0.86533 0.13293
 N364 N 0.69199 0.88924 0.14427
 N365 N 0.66871 0.90049 0.13249
 C366 C 0.63190 0.90142 0.09510
 N367 N 0.61827 0.92388 0.10763
 N368 N 0.59642 0.93655 0.09452
 C369 C 0.58743 0.92734 0.06832
 N370 N 0.60100 0.90472 0.05594
 N371 N 0.62275 0.89195 0.06910
   
