data_POSCAR
  _audit_creation_date              2014-09-24
  _audit_creation_method            'ToBaCCo'
  _symmetry_space_group_name_H-M    'P1'
  _symmetry_Int_Tables_number       1
  _symmetry_cell_setting            triclinic
  loop_
  _symmetry_equiv_pos_as_xyz
 x,y,z
_cell_length_a 36.5071
_cell_length_b 31.0577
_cell_length_c 30.6394
_cell_angle_alpha 90.294700
_cell_angle_beta 90.750400
_cell_angle_gamma 89.123800
loop_
  _atom_site_label
  _atom_site_type_symbol
  _atom_site_fract_x
  _atom_site_fract_y
  _atom_site_fract_z
N1 N 0.27700 0.21121 0.15104
 N2 N 0.27211 0.23902 0.11920
 C3 C 0.30319 0.24101 0.09608
 C4 C 0.32873 0.21308 0.11463
 C5 C 0.31127 0.19482 0.14949
 H6 H 0.30669 0.26018 0.06710
 H7 H 0.32206 0.16984 0.17070
 Cu8 Cu 0.22510 0.26841 0.10993
 Cu9 Cu 0.23759 0.19417 0.18884
 Cu10 Cu 0.15330 0.24426 0.17329
 N11 N 0.17846 0.29952 0.10519
 N12 N 0.15040 0.28879 0.12909
 C13 C 0.12254 0.31663 0.12167
 C14 C 0.13371 0.34671 0.09194
 C15 C 0.16935 0.33498 0.08191
 H16 H 0.09685 0.31683 0.13885
 H17 H 0.18777 0.35222 0.06115
 N18 N 0.16191 0.19880 0.21682
 N19 N 0.19444 0.18080 0.22364
 C20 C 0.19205 0.15208 0.25616
 C21 C 0.15640 0.15202 0.27039
 C22 C 0.13790 0.18195 0.24485
 H23 H 0.21445 0.13224 0.26844
 H24 H 0.10922 0.19085 0.24674
 H25 H 0.19527 0.20843 0.14560
 H26 H 0.20864 0.25201 0.18479
 N27 N 0.72701 -0.25633 0.15992
 N28 N 0.73474 -0.29766 0.16365
 C29 C 0.71026 -0.32036 0.14008
 C30 C 0.68620 -0.29145 0.12006
 C31 C 0.69779 -0.25113 0.13312
 H32 H 0.71023 -0.35510 0.13749
 H33 H 0.68544 -0.22036 0.12462
 Cu34 Cu 0.77682 -0.31722 0.19819
 Cu35 Cu 0.75468 -0.21295 0.19226
 Cu36 Cu 0.79354 -0.25621 0.28634
 N37 N 0.81625 -0.33167 0.23902
 N38 N 0.81962 -0.31072 0.27624
 C39 C 0.84736 -0.32836 0.29966
 C40 C 0.86342 -0.36058 0.27468
 C41 C 0.84302 -0.36186 0.23634
 H42 H 0.85729 -0.31580 0.33055
 H43 H 0.84745 -0.38286 0.20856
 N44 N 0.78297 -0.19395 0.27927
 N45 N 0.77083 -0.17752 0.24202
 C46 C 0.77464 -0.13459 0.24313
 C47 C 0.78980 -0.12329 0.28305
 C48 C 0.79436 -0.16158 0.30542
 H49 H 0.76911 -0.11344 0.21580
 H50 H 0.80887 -0.16601 0.33612
 H51 H 0.79886 -0.24710 0.22101
 H52 H 0.75123 -0.25651 0.23975
 N53 N 0.72720 0.19103 0.77924
 N54 N 0.72694 0.22556 0.80424
 C55 C 0.69451 0.22881 0.82443
 C56 C 0.67319 0.19475 0.81104
 C57 C 0.69469 0.17137 0.78227
 H58 H 0.68735 0.25332 0.84818
 H59 H 0.68781 0.14136 0.76633
 Cu60 Cu 0.76962 0.26159 0.81012
 Cu61 Cu 0.77077 0.17267 0.74753
 Cu62 Cu 0.84808 0.23593 0.76054
 N63 N 0.81545 0.28760 0.82792
 N64 N 0.84619 0.27820 0.80789
 C65 C 0.87305 0.30305 0.82433
 C66 C 0.85823 0.32912 0.85658
 C67 C 0.82165 0.31824 0.85820
 H68 H 0.90104 0.30270 0.81316
 H69 H 0.80084 0.33247 0.87877
 N70 N 0.84702 0.18382 0.72333
 N71 N 0.81760 0.15994 0.71829
 C72 C 0.82521 0.12758 0.69026
 C73 C 0.86106 0.13112 0.67729
 C74 C 0.87419 0.16702 0.69886
 H75 H 0.80599 0.10348 0.67946
 H76 H 0.90126 0.18034 0.69626
 H77 H 0.80844 0.20074 0.79011
 H78 H 0.79336 0.23209 0.74129
 N79 N 0.26585 -0.16100 0.84973
 N80 N 0.25717 -0.18492 0.88320
 C81 C 0.28769 -0.19469 0.90643
 C82 C 0.31705 -0.17648 0.88591
 C83 C 0.30229 -0.15514 0.85015
 H84 H 0.28884 -0.21645 0.93389
 H85 H 0.31708 -0.13854 0.82509
 Cu86 Cu 0.20826 -0.20759 0.88876
 Cu87 Cu 0.22942 -0.14273 0.80640
 Cu88 Cu 0.15590 -0.21177 0.79775
 N89 N 0.16730 -0.24615 0.88402
 N90 N 0.14688 -0.24797 0.84840
 C91 C 0.12124 -0.27821 0.85351
 C92 C 0.12638 -0.29664 0.89420
 C93 C 0.15586 -0.27551 0.91274
 H94 H 0.10086 -0.28676 0.82916
 H95 H 0.16836 -0.28127 0.94441
 N96 N 0.16966 -0.17170 0.75087
 N97 N 0.19617 -0.14350 0.75553
 C98 C 0.19791 -0.11949 0.71917
 C99 C 0.17170 -0.13380 0.68996
 C100 C 0.15428 -0.16690 0.71095
 H101 H 0.21764 -0.09451 0.71375
 H102 H 0.13184 -0.18569 0.69816
 H103 H 0.17922 -0.16255 0.83173
 H104 H 0.21120 -0.20445 0.80985
 N105 N 0.72612 -0.17112 0.81446
 N106 N 0.73949 -0.17957 0.85356
 C107 C 0.71170 -0.18439 0.88148
 C108 C 0.67924 -0.17893 0.85839
 C109 C 0.68933 -0.17031 0.81601
 H110 H 0.71485 -0.19428 0.91514
 H111 H 0.67134 -0.16556 0.78808
 Cu112 Cu 0.79125 -0.19177 0.86186
 Cu113 Cu 0.75786 -0.16308 0.76477
 Cu114 Cu 0.84960 -0.19115 0.77778
 N115 N 0.83632 -0.22538 0.86285
 N116 N 0.85906 -0.22632 0.82989
 C117 C 0.88559 -0.25611 0.83804
 C118 C 0.87835 -0.27521 0.87779
 C119 C 0.84714 -0.25454 0.89270
 H120 H 0.90722 -0.26482 0.81569
 H121 H 0.83212 -0.26162 0.92193
 N122 N 0.82844 -0.16893 0.72211
 N123 N 0.79288 -0.16186 0.71659
 C124 C 0.78636 -0.14887 0.67543
 C125 C 0.81930 -0.14668 0.65420
 C126 C 0.84559 -0.15928 0.68469
 H127 H 0.75987 -0.13898 0.66248
 H128 H 0.87490 -0.16087 0.68011
 H129 H 0.79674 -0.20802 0.78495
 H130 H 0.80709 -0.15057 0.79637
 N131 N 0.24536 0.16261 0.83342
 N132 N 0.24458 0.19524 0.86094
 C133 C 0.27870 0.20199 0.87641
 C134 C 0.30204 0.17208 0.85737
 C135 C 0.27998 0.14740 0.83045
 H136 H 0.28602 0.22678 0.89973
 H137 H 0.28837 0.12054 0.81011
 Cu138 Cu 0.19888 0.22560 0.87397
 Cu139 Cu 0.20121 0.14374 0.80277
 Cu140 Cu 0.13902 0.22812 0.79022
 N141 N 0.15459 0.26109 0.87608
 N142 N 0.13137 0.26228 0.84290
 C143 C 0.10434 0.29085 0.85155
 C144 C 0.11081 0.30818 0.89247
 C145 C 0.14295 0.28863 0.90721
 H146 H 0.08187 0.29876 0.82950
 H147 H 0.15719 0.29470 0.93775
 N148 N 0.14159 0.17854 0.74991
 N149 N 0.16292 0.14453 0.75709
 C150 C 0.15916 0.11663 0.72363
 C151 C 0.13495 0.13444 0.69357
 C152 C 0.12435 0.17368 0.71115
 H153 H 0.17606 0.08809 0.71901
 H154 H 0.10708 0.19789 0.69566
 H155 H 0.19315 0.20755 0.79671
 H156 H 0.15784 0.18058 0.82998
 N157 N 0.30450 -0.27162 0.18180
 N158 N 0.29529 -0.31238 0.18072
 C159 C 0.31802 -0.33397 0.15367
 C160 C 0.34229 -0.30475 0.13670
 C161 C 0.33278 -0.26559 0.15503
 H162 H 0.31645 -0.36795 0.14609
 H163 H 0.34563 -0.23496 0.14952
 Cu164 Cu 0.25277 -0.33165 0.21279
 Cu165 Cu 0.27933 -0.22925 0.21792
 Cu166 Cu 0.23190 -0.27479 0.30275
 N167 N 0.21169 -0.34707 0.24930
 N168 N 0.20572 -0.32656 0.28626
 C169 C 0.17708 -0.34409 0.30627
 C170 C 0.16365 -0.37646 0.27985
 C171 C 0.18605 -0.37749 0.24377
 H172 H 0.16541 -0.33226 0.33640
 H173 H 0.18368 -0.39848 0.21562
 N174 N 0.24632 -0.21401 0.30247
 N175 N 0.26412 -0.19675 0.26985
 C176 C 0.26807 -0.15446 0.27762
 C177 C 0.25128 -0.14447 0.31657
 C178 C 0.23763 -0.18284 0.33148
 H179 H 0.28077 -0.13225 0.25558
 H180 H 0.22153 -0.18746 0.36043
 H181 H 0.27769 -0.27681 0.26190
 H182 H 0.23211 -0.26096 0.23815
 N183 N 0.74226 0.20904 0.12182
 N184 N 0.73979 0.24381 0.09758
 C185 C 0.70863 0.24252 0.07357
 C186 C 0.69065 0.20505 0.08376
 C187 C 0.71286 0.18446 0.11422
 H188 H 0.69911 0.26759 0.05162
 H189 H 0.70760 0.15446 0.13061
 Cu190 Cu 0.77654 0.28840 0.10259
 Cu191 Cu 0.78205 0.20006 0.16394
 Cu192 Cu 0.81871 0.29573 0.20027
 N193 N 0.81696 0.32757 0.11220
 N194 N 0.83224 0.33183 0.15109
 C195 C 0.85975 0.35999 0.14874
 C196 C 0.86222 0.37348 0.10603
 C197 C 0.83460 0.35241 0.08360
 H198 H 0.87797 0.36811 0.17559
 H199 H 0.82852 0.35392 0.04899
 N200 N 0.81891 0.24316 0.23592
 N201 N 0.80857 0.20570 0.21977
 C202 C 0.81462 0.17496 0.24979
 C203 C 0.82869 0.19414 0.28692
 C204 C 0.83098 0.23747 0.27729
 H205 H 0.80724 0.14155 0.24588
 H206 H 0.84097 0.26277 0.29850
 H207 H 0.77246 0.26257 0.17752
 H208 H 0.81796 0.25042 0.15299
 C209 C 0.15458 0.04350 0.38320
 C210 C 0.17839 0.01326 0.36446
 C211 C 0.19312 -0.02134 0.38824
 C212 C 0.18314 -0.02668 0.43230
 C213 C 0.16124 0.00554 0.45277
 C214 C 0.14676 0.04070 0.42821
 C215 C 0.12588 0.07250 0.44977
 C216 C 0.12114 0.07109 0.49471
 C217 C 0.13817 0.03885 0.52009
 C218 C 0.15524 0.00366 0.49839
 C219 C 0.19568 -0.06209 0.45705
 C220 C 0.18679 -0.06579 0.50098
 C221 C 0.16688 -0.03301 0.52236
 C222 C 0.15923 -0.03511 0.56743
 C223 C 0.14735 0.00222 0.58920
 C224 C 0.13860 0.04024 0.56645
 H225 H 0.11385 0.09960 0.43263
 H226 H 0.10340 0.09522 0.50918
 H227 H 0.21248 -0.08729 0.44278
 H228 H 0.19732 -0.09352 0.51863
 H229 H 0.18559 0.01663 0.33040
 H230 H 0.14470 0.00144 0.62438
 C231 C 0.87872 0.02652 0.56100
 C232 C 0.86964 -0.01488 0.57432
 C233 C 0.85781 -0.04612 0.54431
 C234 C 0.85685 -0.03605 0.49914
 C235 C 0.86300 0.00677 0.48568
 C236 C 0.87465 0.03798 0.51658
 C237 C 0.88137 0.07999 0.50230
 C238 C 0.87446 0.09180 0.45928
 C239 C 0.85943 0.06257 0.42911
 C240 C 0.85629 0.01876 0.44149
 C241 C 0.85027 -0.06749 0.46700
 C242 C 0.84562 -0.05632 0.42324
 C243 C 0.84633 -0.01301 0.40999
 C244 C 0.83834 -0.00027 0.36632
 C245 C 0.83824 0.04378 0.35633
 C246 C 0.84807 0.07543 0.38673
 H247 H 0.89157 0.10448 0.52432
 H248 H 0.88167 0.12402 0.44997
 H249 H 0.84917 -0.10125 0.47534
 H250 H 0.84127 -0.08230 0.40043
 H251 H 0.87018 -0.02212 0.60893
 H252 H 0.82918 0.05396 0.32416
 C253 C 0.42672 0.19332 0.01081
 C254 C 0.40457 0.18894 -0.02637
 C255 C 0.41930 0.18412 -0.06802
 C256 C 0.45778 0.18627 -0.07324
 C257 C 0.48081 0.19041 -0.03576
 C258 C 0.46524 0.19447 0.00637
 C259 C 0.48855 0.20105 0.04256
 C260 C 0.52639 0.20021 0.03814
 C261 C 0.54247 0.19376 -0.00281
 C262 C 0.51952 0.19064 -0.04039
 C263 C 0.47383 0.18608 -0.11470
 C264 C 0.51175 0.18697 -0.11925
 C265 C 0.53521 0.18775 -0.08251
 C266 C 0.57390 0.18736 -0.08650
 C267 C 0.59596 0.19012 -0.04892
 C268 C 0.58095 0.19184 -0.00732
 H269 H 0.47791 0.20757 0.07469
 H270 H 0.54291 0.20573 0.06714
 H271 H 0.45724 0.18638 -0.14417
 H272 H 0.52237 0.18773 -0.15199
 H273 H 0.37516 0.18678 -0.02243
 H274 H 0.62553 0.18830 -0.05195
 C275 C 0.42731 0.77483 -0.03654
 C276 C 0.41077 0.74958 -0.00484
 C277 C 0.43153 0.72633 0.02598
 C278 C 0.47027 0.72764 0.02511
 C279 C 0.48742 0.75394 -0.00602
 C280 C 0.46587 0.77941 -0.03522
 C281 C 0.48350 0.81008 -0.06075
 C282 C 0.52142 0.81075 -0.06303
 C283 C 0.54321 0.78128 -0.03929
 C284 C 0.52626 0.75521 -0.00780
 C285 C 0.49232 0.70474 0.05532
 C286 C 0.53047 0.70636 0.05384
 C287 C 0.54803 0.73067 0.02188
 C288 C 0.58672 0.73237 0.01939
 C289 C 0.60284 0.75571 -0.01409
 C290 C 0.58158 0.77845 -0.04483
 H291 H 0.46828 0.83450 -0.07862
 H292 H 0.53353 0.83530 -0.08291
 H293 H 0.48032 0.68555 0.08062
 H294 H 0.54599 0.68838 0.07809
 H295 H 0.38119 0.74678 -0.00490
 H296 H 0.63240 0.75453 -0.01728
 C297 C -0.02239 0.56275 0.25397
 C298 C 0.01194 0.57245 0.27218
 C299 C 0.04475 0.55825 0.25356
 C300 C 0.04362 0.53382 0.21454
 C301 C 0.00920 0.52344 0.19528
 C302 C -0.02393 0.53752 0.21522
 C303 C -0.05745 0.52498 0.19634
 C304 C -0.05859 0.49993 0.15859
 C305 C -0.02625 0.48528 0.13859
 C306 C 0.00795 0.49782 0.15663
 C307 C 0.07586 0.51823 0.19504
 C308 C 0.07456 0.49376 0.15700
 C309 C 0.04093 0.48316 0.13721
 C310 C 0.03949 0.45663 0.09960
 C311 C 0.00562 0.44475 0.08198
 C312 C -0.02723 0.45789 0.10143
 H313 H -0.08338 0.53340 0.21084
 H314 H -0.08528 0.49215 0.14532
 H315 H 0.10258 0.52406 0.20923
 H316 H 0.10034 0.48268 0.14365
 H317 H 0.01343 0.59299 0.30080
 H318 H 0.00495 0.42239 0.05466
 C319 C -0.04832 0.42683 0.90421
 C320 C -0.01675 0.40116 0.90925
 C321 C 0.01767 0.41939 0.91586
 C322 C 0.02122 0.46472 0.91560
 C323 C -0.01037 0.49125 0.90962
 C324 C -0.04527 0.47233 0.90368
 C325 C -0.07583 0.49944 0.89570
 C326 C -0.07267 0.54398 0.89623
 C327 C -0.03862 0.56337 0.90342
 C328 C -0.00699 0.53683 0.90894
 C329 C 0.05567 0.48420 0.91960
 C330 C 0.05897 0.52879 0.91845
 C331 C 0.02795 0.55580 0.91374
 C332 C 0.03089 0.60125 0.91240
 C333 C -0.00063 0.62688 0.90676
 C334 C -0.03529 0.60868 0.90396
 H335 H -0.10253 0.48672 0.88805
 H336 H -0.09713 0.56313 0.88970
 H337 H 0.08060 0.46515 0.92273
 H338 H 0.08626 0.54175 0.92064
 H339 H -0.01917 0.36639 0.90977
 H340 H 0.00164 0.66168 0.90744
 C341 C 0.36490 0.20119 0.09745
 C342 C 0.38928 0.17280 0.11716
 C343 C 0.41705 0.16752 0.08822
 C344 C 0.40782 0.19363 0.05330
 O345 O 0.37592 0.21360 0.05869
 H346 H 0.38640 0.15645 0.14799
 H347 H 0.44020 0.14550 0.09118
 C348 C 0.65639 0.69974 0.09267
 C349 C 0.64387 0.65913 0.08232
 C350 C 0.61478 0.66583 0.05456
 C351 C 0.61176 0.70991 0.05022
 O352 O 0.63711 0.73049 0.07295
 H353 H 0.65475 0.62839 0.09329
 H354 H 0.59838 0.64159 0.03844
 C355 C 0.63727 0.18357 -0.17156
 C356 C 0.61552 0.15066 -0.18669
 C357 C 0.58701 0.14921 -0.15831
 C358 C 0.59338 0.18166 -0.12828
 O359 O 0.62405 0.20215 -0.13615
 H360 H 0.62063 0.12916 -0.21391
 H361 H 0.56547 0.12567 -0.15799
 C362 C 0.35588 0.81454 -0.10466
 C363 C 0.38257 0.81309 -0.13593
 C364 C 0.41321 0.79821 -0.11484
 C365 C 0.40336 0.79324 -0.07170
 O366 O 0.36816 0.80207 -0.06589
 H367 H 0.37947 0.81948 -0.17048
 H368 H 0.43912 0.79015 -0.12979
 C369 C 0.11321 0.38617 0.08048
 C370 C 0.12621 0.42010 0.05654
 C371 C 0.09948 0.45140 0.05884
 C372 C 0.07233 0.43377 0.08368
 O373 O 0.08063 0.39448 0.09687
 H374 H 0.15245 0.42234 0.04077
 H375 H 0.10009 0.48348 0.04529
 C376 C 0.10630 0.67010 0.91205
 C377 C 0.11391 0.65058 0.95163
 C378 C 0.08740 0.62054 0.95631
 C379 C 0.06577 0.62388 0.91921
 O380 O 0.07694 0.65418 0.89254
 H381 H 0.13583 0.65762 0.97457
 H382 H 0.08356 0.59964 0.98398
 C383 C -0.10442 0.61647 0.28436
 C384 C -0.08839 0.61440 0.32528
 C385 C -0.05685 0.59128 0.31985
 C386 C -0.05534 0.58160 0.27575
 O387 O -0.08453 0.59668 0.25428
 H388 H -0.09836 0.62820 0.35546
 H389 H -0.03678 0.58356 0.34502
 C390 C -0.12407 0.36125 0.88043
 C391 C -0.14040 0.38645 0.91219
 C392 C -0.11413 0.41442 0.92558
 C393 C -0.08388 0.40466 0.90069
 O394 O -0.08961 0.37188 0.87380
 H395 H -0.16811 0.38487 0.92411
 H396 H -0.11674 0.43928 0.95026
 C397 C 0.14208 0.12488 0.30511
 C398 C 0.10586 0.12249 0.31696
 C399 C 0.10530 0.09206 0.34900
 C400 C 0.14135 0.07887 0.35467
 O401 O 0.16348 0.09830 0.32760
 H402 H 0.08261 0.13992 0.30317
 H403 H 0.08145 0.08007 0.36535
 C404 C 0.87984 0.10381 0.64497
 C405 C 0.91601 0.10748 0.63317
 C406 C 0.92103 0.07784 0.60063
 C407 C 0.88752 0.05857 0.59510
 O408 O 0.86257 0.07403 0.62204
 H409 H 0.93606 0.12963 0.64610
 H410 H 0.94574 0.07175 0.58232
 C411 C 0.16444 -0.11759 0.64568
 C412 C 0.14767 -0.14089 0.61288
 C413 C 0.14549 -0.11373 0.57812
 C414 C 0.16105 -0.07584 0.59234
 O415 O 0.17234 -0.07803 0.63351
 H416 H 0.13778 -0.17351 0.61436
 H417 H 0.13260 -0.12006 0.54678
 C418 C 0.80642 -0.08176 0.29409
 C419 C 0.82072 -0.05490 0.26333
 C420 C 0.83557 -0.02195 0.28641
 C421 C 0.82884 -0.03053 0.32987
 O422 O 0.81118 -0.06722 0.33447
 H423 H 0.82118 -0.05945 0.22829
 H424 H 0.84983 0.00512 0.27293
 C425 C 0.64227 0.81261 -0.12587
 C426 C 0.61207 0.80766 -0.15270
 C427 C 0.58485 0.79524 -0.12588
 C428 C 0.60010 0.79472 -0.08429
 O429 O 0.63527 0.80444 -0.08451
 H430 H 0.61057 0.81039 -0.18787
 H431 H 0.55767 0.78559 -0.13598
 C432 C 0.34164 0.16707 -0.13437
 C433 C 0.36423 0.13725 -0.15445
 C434 C 0.39753 0.14130 -0.13417
 C435 C 0.39291 0.17378 -0.10365
 O436 O 0.35886 0.18903 -0.10358
 H437 H 0.35692 0.11404 -0.17942
 H438 H 0.42154 0.12110 -0.13914
 C439 C 0.37142 0.68800 0.10475
 C440 C 0.38570 0.64846 0.09248
 C441 C 0.41165 0.65738 0.06217
 C442 C 0.41110 0.70164 0.05844
 O443 O 0.38656 0.72017 0.08393
 H444 H 0.37797 0.61704 0.10399
 H445 H 0.42824 0.63448 0.04409
 C446 C 0.65448 0.19128 0.06796
 C447 C 0.63452 0.15911 0.08681
 C448 C 0.60336 0.15633 0.06214
 C449 C 0.60653 0.18718 0.03023
 O450 O 0.63776 0.20815 0.03340
 H451 H 0.64196 0.13969 0.11487
 H452 H 0.58148 0.13359 0.06599
 C453 C -0.10380 0.68950 0.89708
 C454 C -0.11563 0.66950 0.93446
 C455 C -0.09196 0.63593 0.94108
 C456 C -0.06741 0.63785 0.90743
 O457 O -0.07418 0.67057 0.88081
 H458 H -0.13890 0.67799 0.95442
 H459 H -0.09215 0.61302 0.96758
 C460 C -0.10891 0.40053 0.08835
 C461 C -0.10304 0.40765 0.04465
 C462 C -0.07188 0.43141 0.04323
 C463 C -0.06143 0.43728 0.08630
 O464 O -0.08367 0.41822 0.11358
 H465 H -0.11888 0.39564 0.01727
 H466 H -0.05803 0.44236 0.01438
 C467 C 0.08885 0.34186 0.91417
 C468 C 0.09563 0.35769 0.95562
 C469 C 0.06951 0.38888 0.96193
 C470 C 0.04912 0.38994 0.92383
 O471 O 0.06043 0.36113 0.89495
 H472 H 0.11699 0.34777 0.97842
 H473 H 0.06553 0.40858 0.99065
 C474 C 0.13022 0.59916 0.28720
 C475 C 0.11702 0.59019 0.32801
 C476 C 0.08405 0.57152 0.32068
 C477 C 0.07937 0.57077 0.27587
 O478 O 0.10747 0.58762 0.25544
 H479 H 0.12959 0.59742 0.35934
 H480 H 0.06504 0.56097 0.34510
 C481 C 0.82431 -0.12852 0.61054
 C482 C 0.79825 -0.13110 0.57779
 C483 C 0.80904 -0.10311 0.54669
 C484 C 0.84119 -0.08551 0.56247
 O485 O 0.85024 -0.10076 0.60160
 H486 H 0.77302 -0.14894 0.57802
 H487 H 0.79342 -0.09385 0.51789
 C488 C 0.24568 -0.10122 0.33501
 C489 C 0.26614 -0.06618 0.32367
 C490 C 0.25003 -0.03200 0.34402
 C491 C 0.22089 -0.04868 0.36628
 O492 O 0.21812 -0.09081 0.36089
 H493 H 0.28938 -0.06549 0.30214
 H494 H 0.25774 0.00142 0.34179
 C495 C 0.83613 0.17231 0.32844
 C496 C 0.82959 0.18976 0.36900
 C497 C 0.83385 0.15619 0.39734
 C498 C 0.84411 0.12103 0.37205
 O499 O 0.84461 0.13093 0.33013
 H500 H 0.82001 0.22206 0.37653
 H501 H 0.82769 0.15700 0.43177
 C502 C 0.13099 0.12075 0.64795
 C503 C 0.13496 0.14825 0.61344
 C504 C 0.13775 0.12230 0.57773
 C505 C 0.13351 0.08060 0.59266
 O506 O 0.13051 0.07989 0.63574
 H507 H 0.13899 0.18269 0.61473
 H508 H 0.14517 0.13300 0.54559
   
